3
 OpenBabel05122313053D

 46 48  0  0  1  0  0  0  0  0999 V2000
    0.3250   -1.5407    1.6950 O   0  0  0  0  0  0  0  0  0  0  0  0
   -3.5708    2.0180   -0.9205 O   0  0  0  0  0  0  0  0  0  0  0  0
    1.2591    0.7280   -0.0667 N   0  0  0  0  0  2  0  0  0  0  0  0
   -1.3359    0.5316    0.7072 N   0  0  0  0  0  0  0  0  0  0  0  0
    2.6457    0.7202   -0.0549 C   0  0  2  0  0  3  0  0  0  0  0  0
    3.3720   -0.4944   -0.1615 C   0  0  0  0  0  0  0  0  0  0  0  0
    4.7602   -0.4857   -0.1440 C   0  0  0  0  0  0  0  0  0  0  0  0
    5.4896    0.7244   -0.0202 C   0  0  0  0  0  0  0  0  0  0  0  0
    4.8081    1.9250    0.0951 C   0  0  0  0  0  0  0  0  0  0  0  0
    3.3842    1.9550    0.0898 C   0  0  0  0  0  0  0  0  0  0  0  0
    2.6629    3.1673    0.2436 C   0  0  0  0  0  0  0  0  0  0  0  0
    1.2832    3.1296    0.2908 C   0  0  0  0  0  0  0  0  0  0  0  0
    0.6122    1.8909    0.1365 C   0  0  0  0  0  0  0  0  0  0  0  0
   -0.8849    1.8445    0.1799 C   0  0  0  0  0  0  0  0  0  0  0  0
   -2.8388    0.3557    0.6779 C   0  0  1  0  0  0  0  0  0  0  0  0
   -3.3295    1.1649    1.8838 C   0  0  0  0  0  0  0  0  0  0  0  0
   -2.2255    0.9745    2.9476 C   0  0  0  0  0  0  0  0  0  0  0  0
   -1.0083    0.3956    2.1770 C   0  0  1  0  0  0  0  0  0  0  0  0
   -0.7577   -1.0687    2.5083 C   0  0  0  0  0  0  0  0  0  0  0  0
    0.6032   -2.9430    1.8835 C   0  0  0  0  0  0  0  0  0  0  0  0
   -3.5139    0.6261   -0.6520 C   0  0  0  0  0  0  0  0  0  0  0  0
   -4.0185    2.2874   -2.2325 C   0  0  0  0  0  0  0  0  0  0  0  0
    2.8095   -1.4285   -0.3119 H   0  0  0  0  0  0  0  0  0  0  0  0
    5.3002   -1.4404   -0.2347 H   0  0  0  0  0  0  0  0  0  0  0  0
    6.5897    0.7079   -0.0136 H   0  0  0  0  0  0  0  0  0  0  0  0
    5.3508    2.8770    0.2006 H   0  0  0  0  0  0  0  0  0  0  0  0
    3.2113    4.1163    0.3456 H   0  0  0  0  0  0  0  0  0  0  0  0
    0.6868    4.0404    0.4420 H   0  0  0  0  0  0  0  0  0  0  0  0
   -1.2818    1.9308   -0.8510 H   0  0  0  0  0  0  0  0  0  0  0  0
   -1.2890    2.6927    0.7716 H   0  0  0  0  0  0  0  0  0  0  0  0
   -2.9816   -0.7315    0.8480 H   0  0  0  0  0  0  0  0  0  0  0  0
   -4.3197    0.8046    2.2229 H   0  0  0  0  0  0  0  0  0  0  0  0
   -3.4522    2.2283    1.5976 H   0  0  0  0  0  0  0  0  0  0  0  0
   -2.5427    0.2683    3.7412 H   0  0  0  0  0  0  0  0  0  0  0  0
   -1.9643    1.9229    3.4542 H   0  0  0  0  0  0  0  0  0  0  0  0
   -0.0740    0.9593    2.3673 H   0  0  0  0  0  0  0  0  0  0  0  0
   -1.6596   -1.6891    2.3043 H   0  0  0  0  0  0  0  0  0  0  0  0
   -0.4792   -1.1708    3.5806 H   0  0  0  0  0  0  0  0  0  0  0  0
   -0.3163   -3.5354    1.7015 H   0  0  0  0  0  0  0  0  0  0  0  0
    0.9887   -3.0928    2.9137 H   0  0  0  0  0  0  0  0  0  0  0  0
    1.3531   -3.2127    1.1185 H   0  0  0  0  0  0  0  0  0  0  0  0
   -4.5458    0.1973   -0.5946 H   0  0  0  0  0  0  0  0  0  0  0  0
   -2.9668    0.0778   -1.4520 H   0  0  0  0  0  0  0  0  0  0  0  0
   -5.0527    1.9022   -2.4049 H   0  0  0  0  0  0  0  0  0  0  0  0
   -3.3460    1.8292   -2.9949 H   0  0  0  0  0  0  0  0  0  0  0  0
   -4.0249    3.3867   -2.3667 H   0  0  0  0  0  0  0  0  0  0  0  0
  1 20  1  0  0  0  0
  1 19  1  0  0  0  0
  2 21  1  0  0  0  0
  3  5  1  0  0  0  0
  3 13  1  0  0  0  0
  4 18  1  0  0  0  0
  5  6  1  1  0  0  0
  5 10  1  0  0  0  0
  6  7  2  0  0  0  0
  7  8  1  0  0  0  0
  8 25  1  0  0  0  0
  8  9  2  0  0  0  0
  9 26  1  0  0  0  0
 10  9  1  0  0  0  0
 10 11  2  0  0  0  0
 11 12  1  0  0  0  0
 11 27  1  0  0  0  0
 12 28  1  0  0  0  0
 13 14  1  0  0  0  0
 13 12  2  0  0  0  0
 14  4  1  0  0  0  0
 14 30  1  0  0  0  0
 15  4  1  0  0  0  0
 15 31  1  1  0  0  0
 15 16  1  0  0  0  0
 16 32  1  0  0  0  0
 16 17  1  0  0  0  0
 17 35  1  0  0  0  0
 17 34  1  0  0  0  0
 18 36  1  1  0  0  0
 18 19  1  0  0  0  0
 18 17  1  0  0  0  0
 19 38  1  0  0  0  0
 20 40  1  0  0  0  0
 21 42  1  0  0  0  0
 21 15  1  0  0  0  0
 22  2  1  0  0  0  0
 23  6  1  0  0  0  0
 24  7  1  0  0  0  0
 29 14  1  0  0  0  0
 33 16  1  0  0  0  0
 37 19  1  0  0  0  0
 39 20  1  0  0  0  0
 41 20  1  0  0  0  0
 43 21  1  0  0  0  0
 44 22  1  0  0  0  0
 45 22  1  0  0  0  0
 46 22  1  0  0  0  0
M  END
