2,3
 OpenBabel05122313053D

 39 41  0  0  1  0  0  0  0  0999 V2000
    0.6370    0.3916   -0.8784 N   0  0  0  0  0  0  0  0  0  0  0  0
   -2.0945    0.5062   -0.8110 N   0  0  0  0  0  2  0  0  0  0  0  0
   -0.5373    0.6010    1.5909 N   0  0  0  0  0  2  0  0  0  0  0  0
   -2.1812    2.6142   -1.5174 N   0  0  0  0  0  0  0  0  0  0  0  0
    2.8849    0.4031   -1.8857 C   0  0  0  0  0  0  0  0  0  0  0  0
    2.4199    0.5432   -2.8755 H   0  0  0  0  0  0  0  0  0  0  0  0
   -3.3725    0.7543   -1.2599 C   0  0  0  0  0  0  0  0  0  0  0  0
   -4.1590   -0.0071   -1.2352 H   0  0  0  0  0  0  0  0  0  0  0  0
    0.3011    2.8530    1.8126 C   0  0  0  0  0  0  0  0  0  0  0  0
    0.7211    3.7483    1.3319 H   0  0  0  0  0  0  0  0  0  0  0  0
    4.9053    0.1396   -0.5283 C   0  0  0  0  0  0  0  0  0  0  0  0
    2.0808    0.3149   -0.7375 C   0  0  0  0  0  0  0  0  0  0  0  0
    4.0784    0.0634    0.6144 C   0  0  0  0  0  0  0  0  0  0  0  0
    4.5378   -0.0808    1.6045 H   0  0  0  0  0  0  0  0  0  0  0  0
    6.4008    0.0173   -0.4059 C   0  0  0  0  0  0  0  0  0  0  0  0
    6.9133    0.2714   -1.3528 H   0  0  0  0  0  0  0  0  0  0  0  0
    6.6903   -1.0198   -0.1347 H   0  0  0  0  0  0  0  0  0  0  0  0
    6.7964    0.6784    0.3912 H   0  0  0  0  0  0  0  0  0  0  0  0
    2.6846    0.1400    0.5199 C   0  0  0  0  0  0  0  0  0  0  0  0
    2.0697    0.0318    1.4224 H   0  0  0  0  0  0  0  0  0  0  0  0
   -3.4411    2.0641   -1.7008 C   0  0  0  0  0  0  0  0  0  0  0  0
   -4.2652    2.6450   -2.1271 H   0  0  0  0  0  0  0  0  0  0  0  0
   -1.3971    1.6370   -0.9807 C   0  0  1  0  0  3  0  0  0  0  0  0
    0.0180    1.6968   -0.4774 C   0  0  1  0  0  0  0  0  0  0  0  0
    0.5769    2.5700   -0.8734 H   0  0  0  0  0  0  0  0  0  0  0  0
   -0.7182    0.5412    2.9277 C   0  0  0  0  0  3  0  0  0  0  0  0
   -1.1119   -0.4058    3.3251 H   0  0  0  0  0  0  0  0  0  0  0  0
   -0.4124    1.6210    3.7663 C   0  0  0  0  0  0  0  0  0  0  0  0
   -0.5788    1.5307    4.8487 H   0  0  0  0  0  0  0  0  0  0  0  0
    4.2800    0.3069   -1.7792 C   0  0  0  0  0  0  0  0  0  0  0  0
    4.8949    0.3654   -2.6901 H   0  0  0  0  0  0  0  0  0  0  0  0
    0.1147    2.7911    3.2034 C   0  0  0  0  0  0  0  0  0  0  0  0
    0.3834    3.6474    3.8395 H   0  0  0  0  0  0  0  0  0  0  0  0
   -1.7954    3.9921   -1.7963 C   0  0  0  0  0  0  0  0  0  0  0  0
   -1.7473    4.5859   -0.8617 H   0  0  0  0  0  0  0  0  0  0  0  0
   -2.5441    4.4471   -2.4687 H   0  0  0  0  0  0  0  0  0  0  0  0
   -0.8117    4.0220   -2.3017 H   0  0  0  0  0  0  0  0  0  0  0  0
   -0.0475    1.7414    1.0416 C   0  0  0  0  0  0  0  0  0  0  0  0
    0.4158    0.2528   -1.8752 H   0  0  0  0  0  0  0  0  0  0  0  0
  1 12  1  0  0  0  0
  1 24  1  0  0  0  0
  3 26  1  0  0  0  0
  4 23  1  0  0  0  0
  5 30  2  0  0  0  0
  5 12  1  0  0  0  0
  6  5  1  0  0  0  0
  7  8  1  0  0  0  0
  7  2  1  0  0  0  0
  9 32  1  0  0  0  0
 10  9  1  0  0  0  0
 11 15  1  0  0  0  0
 11 13  2  0  0  0  0
 12 19  2  0  0  0  0
 13 14  1  0  0  0  0
 15 17  1  0  0  0  0
 15 18  1  0  0  0  0
 16 15  1  0  0  0  0
 19 13  1  0  0  0  0
 19 20  1  0  0  0  0
 21  4  1  0  0  0  0
 21  7  2  0  0  0  0
 22 21  1  0  0  0  0
 23  2  1  0  0  0  0
 23 24  1  1  0  0  0
 24 25  1  6  0  0  0
 24 38  1  0  0  0  0
 26 27  1  0  0  0  0
 26 28  1  0  0  0  0
 28 29  1  0  0  0  0
 30 11  1  0  0  0  0
 31 30  1  0  0  0  0
 32 28  2  0  0  0  0
 32 33  1  0  0  0  0
 34  4  1  0  0  0  0
 34 35  1  0  0  0  0
 36 34  1  0  0  0  0
 37 34  1  0  0  0  0
 38  3  1  0  0  0  0
 38  9  2  0  0  0  0
 39  1  1  0  0  0  0
M  END
