1,2
 OpenBabel05122313053D

 51 53  0  0  1  0  0  0  0  0999 V2000
    0.5442    1.1488    0.2927 N   0  0  0  0  0  2  0  0  0  0  0  0
   -0.0392   -1.2269   -0.5172 N   0  0  0  0  0  2  0  0  0  0  0  0
   -1.5676    1.9697    0.3598 N   0  0  0  0  0  0  0  0  0  0  0  0
   -2.2917   -0.9773   -0.5932 N   0  0  0  0  0  0  0  0  0  0  0  0
   -0.7357    0.9292    0.0772 C   0  0  0  0  0  0  0  0  0  0  0  0
   -1.0668   -0.4158   -0.3724 C   0  0  0  0  0  0  0  0  0  0  0  0
   -2.9367    2.1277   -0.0840 C   0  0  0  0  0  0  0  0  0  0  0  0
   -2.9766    2.4499   -1.1550 H   0  0  0  0  0  0  0  0  0  0  0  0
   -3.3644    2.9619    0.5093 H   0  0  0  0  0  0  0  0  0  0  0  0
   -3.5117   -0.2510   -0.8805 C   0  0  0  0  0  0  0  0  0  0  0  0
   -4.3349   -0.9937   -0.8401 H   0  0  0  0  0  0  0  0  0  0  0  0
   -3.5032    0.1545   -1.9241 H   0  0  0  0  0  0  0  0  0  0  0  0
   -3.8571    0.8942    0.1052 C   0  0  0  0  0  0  0  0  0  0  0  0
   -3.8130    0.3946    1.5581 C   0  0  0  0  0  0  0  0  0  0  0  0
   -4.5146   -0.4522    1.6984 H   0  0  0  0  0  0  0  0  0  0  0  0
   -4.1116    1.2024    2.2562 H   0  0  0  0  0  0  0  0  0  0  0  0
   -2.8050    0.0456    1.8518 H   0  0  0  0  0  0  0  0  0  0  0  0
   -5.2826    1.3599   -0.2501 C   0  0  0  0  0  0  0  0  0  0  0  0
   -6.0082    0.5303   -0.1339 H   0  0  0  0  0  0  0  0  0  0  0  0
   -5.3445    1.7225   -1.2969 H   0  0  0  0  0  0  0  0  0  0  0  0
   -5.6052    2.1853    0.4154 H   0  0  0  0  0  0  0  0  0  0  0  0
   -0.7270    3.1156    0.7495 C   0  0  0  0  0  0  0  0  0  0  0  0
   -0.9964    3.4592    1.7705 H   0  0  0  0  0  0  0  0  0  0  0  0
   -0.8910    3.9659    0.0511 H   0  0  0  0  0  0  0  0  0  0  0  0
    0.7344    2.5623    0.6535 C   0  0  2  0  0  0  0  0  0  0  0  0
    1.2480    2.5991    1.6362 H   0  0  0  0  0  0  0  0  0  0  0  0
    1.6399    3.2844   -0.3740 C   0  0  0  0  0  0  0  0  0  0  0  0
    2.5976    2.7221   -0.3261 H   0  0  0  0  0  0  0  0  0  0  0  0
    1.0972    3.1919   -1.8017 C   0  0  0  0  0  0  0  0  0  0  0  0
    0.1186    3.7087   -1.9183 H   0  0  0  0  0  0  0  0  0  0  0  0
    0.9753    2.1355   -2.1151 H   0  0  0  0  0  0  0  0  0  0  0  0
    1.7996    3.6701   -2.5130 H   0  0  0  0  0  0  0  0  0  0  0  0
    1.8969    4.7289    0.0636 C   0  0  0  0  0  0  0  0  0  0  0  0
    2.6152    5.2212   -0.6220 H   0  0  0  0  0  0  0  0  0  0  0  0
    2.3257    4.7730    1.0858 H   0  0  0  0  0  0  0  0  0  0  0  0
    0.9689    5.3420    0.0559 H   0  0  0  0  0  0  0  0  0  0  0  0
   -2.0406   -2.3151   -1.1561 C   0  0  0  0  0  0  0  0  0  0  0  0
   -2.2041   -2.2997   -2.2586 H   0  0  0  0  0  0  0  0  0  0  0  0
   -2.7321   -3.0621   -0.7151 H   0  0  0  0  0  0  0  0  0  0  0  0
   -0.5494   -2.5809   -0.7913 C   0  0  2  0  0  0  0  0  0  0  0  0
    0.0181   -3.0078   -1.6415 H   0  0  0  0  0  0  0  0  0  0  0  0
   -0.3245   -3.5076    0.4314 C   0  0  0  0  0  0  0  0  0  0  0  0
    0.7780   -3.4918    0.5732 H   0  0  0  0  0  0  0  0  0  0  0  0
   -0.9852   -2.9882    1.7115 C   0  0  0  0  0  0  0  0  0  0  0  0
   -0.6163   -1.9753    1.9720 H   0  0  0  0  0  0  0  0  0  0  0  0
   -0.7424   -3.6526    2.5646 H   0  0  0  0  0  0  0  0  0  0  0  0
   -2.0930   -2.9484    1.6303 H   0  0  0  0  0  0  0  0  0  0  0  0
   -0.7470   -4.9413    0.0983 C   0  0  0  0  0  0  0  0  0  0  0  0
   -0.4961   -5.6232    0.9351 H   0  0  0  0  0  0  0  0  0  0  0  0
   -0.2277   -5.3171   -0.8069 H   0  0  0  0  0  0  0  0  0  0  0  0
   -1.8420   -5.0288   -0.0742 H   0  0  0  0  0  0  0  0  0  0  0  0
  1 25  1  0  0  0  0
  2  6  1  0  0  0  0
  3 22  1  0  0  0  0
  4  6  1  0  0  0  0
  5  1  1  0  0  0  0
  5  3  1  0  0  0  0
  6  5  2  0  0  0  0
  7 13  1  0  0  0  0
  7  3  1  0  0  0  0
  7  9  1  0  0  0  0
  8  7  1  0  0  0  0
 10 11  1  0  0  0  0
 10  4  1  0  0  0  0
 10 13  1  0  0  0  0
 12 10  1  0  0  0  0
 13 14  1  0  0  0  0
 14 15  1  0  0  0  0
 14 17  1  0  0  0  0
 14 16  1  0  0  0  0
 18 19  1  0  0  0  0
 18 13  1  0  0  0  0
 18 21  1  0  0  0  0
 20 18  1  0  0  0  0
 22 23  1  0  0  0  0
 24 22  1  0  0  0  0
 25 22  1  0  0  0  0
 25 26  1  1  0  0  0
 27 28  1  0  0  0  0
 27 33  1  0  0  0  0
 27 25  1  0  0  0  0
 29 27  1  0  0  0  0
 30 29  1  0  0  0  0
 31 29  1  0  0  0  0
 32 29  1  0  0  0  0
 33 35  1  0  0  0  0
 34 33  1  0  0  0  0
 36 33  1  0  0  0  0
 37 40  1  0  0  0  0
 37 39  1  0  0  0  0
 37  4  1  0  0  0  0
 38 37  1  0  0  0  0
 40 41  1  6  0  0  0
 40  2  1  0  0  0  0
 40 42  1  0  0  0  0
 42 43  1  0  0  0  0
 42 44  1  0  0  0  0
 44 45  1  0  0  0  0
 44 46  1  0  0  0  0
 47 44  1  0  0  0  0
 48 42  1  0  0  0  0
 48 49  1  0  0  0  0
 50 48  1  0  0  0  0
 51 48  1  0  0  0  0
M  END
