3,4
 OpenBabel05122313053D

 45 48  0  0  0  0  0  0  0  0999 V2000
    7.3647   -1.1520   -0.1097 N   0  0  0  0  0  2  0  0  0  0  0  0
    6.1793   -0.7189    0.0129 N   0  0  0  0  0  2  0  0  0  0  0  0
   -1.3032   -0.5542   -0.1616 N   0  0  0  0  0  2  0  0  0  0  0  0
   -2.0159    1.9512   -0.4540 N   0  0  0  0  0  2  0  0  0  0  0  0
   -2.4793    3.2202   -0.5892 C   0  0  0  0  0  0  0  0  0  0  0  0
   -1.6430    4.2947   -0.8750 C   0  0  0  0  0  0  0  0  0  0  0  0
   -0.2604    4.0659   -1.0312 C   0  0  0  0  0  0  0  0  0  0  0  0
    0.2215    2.7655   -0.8933 C   0  0  0  0  0  0  0  0  0  0  0  0
   -0.6674    1.7094   -0.6038 C   0  0  0  0  0  0  0  0  0  0  0  0
   -0.2701    0.3144   -0.4396 C   0  0  0  0  0  0  0  0  0  0  0  0
    1.0513   -0.1508   -0.5551 C   0  0  0  0  0  0  0  0  0  0  0  0
    1.3624   -1.5109   -0.3948 C   0  0  0  0  0  0  0  0  0  0  0  0
    0.2726   -2.3774   -0.1102 C   0  0  0  0  0  0  0  0  0  0  0  0
   -1.0150   -1.8716   -0.0026 C   0  0  0  0  0  0  0  0  0  0  0  0
    2.7489   -2.0107   -0.5199 C   0  0  0  0  0  0  0  0  0  0  0  0
    3.0130   -3.3330   -0.9482 C   0  0  0  0  0  0  0  0  0  0  0  0
    4.3323   -3.8015   -1.0698 C   0  0  0  0  0  0  0  0  0  0  0  0
    5.4153   -2.9729   -0.7666 C   0  0  0  0  0  0  0  0  0  0  0  0
    5.1710   -1.6480   -0.3338 C   0  0  0  0  0  0  0  0  0  0  0  0
    3.8490   -1.1813   -0.2156 C   0  0  0  0  0  0  0  0  0  0  0  0
    8.3793   -0.2377    0.2351 C   0  0  0  0  0  0  0  0  0  0  0  0
    9.7044   -0.6977    0.0892 C   0  0  0  0  0  0  0  0  0  0  0  0
   10.7815    0.1373    0.4071 C   0  0  0  0  0  0  0  0  0  0  0  0
   10.5673    1.4482    0.8789 C   0  0  0  0  0  0  0  0  0  0  0  0
    9.2306    1.8987    1.0223 C   0  0  0  0  0  0  0  0  0  0  0  0
    8.1502    1.0778    0.7084 C   0  0  0  0  0  0  0  0  0  0  0  0
   11.7173    2.3554    1.2274 C   0  0  0  0  0  0  0  0  0  0  0  0
   11.6772    2.6602    2.2944 H   0  0  0  0  0  0  0  0  0  0  0  0
   12.6949    1.8685    1.0487 H   0  0  0  0  0  0  0  0  0  0  0  0
   11.6856    3.2904    0.6297 H   0  0  0  0  0  0  0  0  0  0  0  0
    9.0479    2.9210    1.3913 H   0  0  0  0  0  0  0  0  0  0  0  0
    7.1101    1.4162    0.8166 H   0  0  0  0  0  0  0  0  0  0  0  0
    9.8562   -1.7230   -0.2791 H   0  0  0  0  0  0  0  0  0  0  0  0
   11.8123   -0.2316    0.2889 H   0  0  0  0  0  0  0  0  0  0  0  0
    3.7141   -0.1537    0.1521 H   0  0  0  0  0  0  0  0  0  0  0  0
    6.4577   -3.3101   -0.8486 H   0  0  0  0  0  0  0  0  0  0  0  0
    4.5094   -4.8319   -1.4143 H   0  0  0  0  0  0  0  0  0  0  0  0
    2.1781   -3.9962   -1.2179 H   0  0  0  0  0  0  0  0  0  0  0  0
    1.8476    0.5630   -0.8023 H   0  0  0  0  0  0  0  0  0  0  0  0
    0.4327   -3.4510    0.0576 H   0  0  0  0  0  0  0  0  0  0  0  0
   -1.8716   -2.5241    0.2265 H   0  0  0  0  0  0  0  0  0  0  0  0
    1.2932    2.5557   -1.0089 H   0  0  0  0  0  0  0  0  0  0  0  0
    0.4266    4.8938   -1.2574 H   0  0  0  0  0  0  0  0  0  0  0  0
   -2.0738    5.3007   -0.9736 H   0  0  0  0  0  0  0  0  0  0  0  0
   -3.5650    3.3486   -0.4584 H   0  0  0  0  0  0  0  0  0  0  0  0
  1  2  1  0  0  0  0
  1 21  1  0  0  0  0
  3 14  1  0  0  0  0
  5 45  1  0  0  0  0
  5  4  1  0  0  0  0
  6  5  2  0  0  0  0
  7  8  2  0  0  0  0
  7  6  1  0  0  0  0
  8  9  1  0  0  0  0
  9  4  1  0  0  0  0
  9 10  2  0  0  0  0
 10  3  1  0  0  0  0
 11 10  1  0  0  0  0
 11 12  2  0  0  0  0
 12 13  1  0  0  0  0
 13 14  2  0  0  0  0
 13 40  1  0  0  0  0
 14 41  1  0  0  0  0
 15 12  1  0  0  0  0
 15 20  1  0  0  0  0
 16 15  2  0  0  0  0
 17 16  1  0  0  0  0
 17 18  2  0  0  0  0
 18 19  1  0  0  0  0
 19 20  2  0  0  0  0
 19  2  1  0  0  0  0
 20 35  1  0  0  0  0
 21 26  1  0  0  0  0
 22 21  2  0  0  0  0
 22 23  1  0  0  0  0
 23 24  2  0  0  0  0
 24 25  1  0  0  0  0
 24 27  1  0  0  0  0
 25 31  1  0  0  0  0
 26 32  1  0  0  0  0
 26 25  2  0  0  0  0
 27 28  1  0  0  0  0
 29 27  1  0  0  0  0
 30 27  1  0  0  0  0
 33 22  1  0  0  0  0
 34 23  1  0  0  0  0
 36 18  1  0  0  0  0
 37 17  1  0  0  0  0
 38 16  1  0  0  0  0
 39 11  1  0  0  0  0
 42  8  1  0  0  0  0
 43  7  1  0  0  0  0
 44  6  1  0  0  0  0
M  END
