2,4
 OpenBabel05122313053D

 31 32  0  0  1  0  0  0  0  0999 V2000
   -5.2873   -0.3373    0.6963 O   0  0  0  0  0  0  0  0  0  0  0  0
    0.2124   -1.2579   -1.6533 N   0  0  0  0  0  2  0  0  0  0  0  0
   -1.1327   -1.4886   -1.5952 N   0  0  0  0  0  0  0  0  0  0  0  0
   -1.1677   -0.1089    0.2814 N   0  0  0  0  0  2  0  0  0  0  0  0
    0.6805   -1.9840   -2.6757 C   0  0  0  0  0  3  0  0  0  0  0  0
    1.7523   -1.9564   -2.9059 H   0  0  0  0  0  0  0  0  0  0  0  0
   -0.3767   -2.6959   -3.2993 C   0  0  0  0  0  0  0  0  0  0  0  0
   -0.3131   -3.3722   -4.1574 H   0  0  0  0  0  0  0  0  0  0  0  0
   -1.5184   -2.3592   -2.5871 C   0  0  0  0  0  0  0  0  0  0  0  0
   -2.5585   -2.6755   -2.7075 H   0  0  0  0  0  0  0  0  0  0  0  0
   -1.8912   -0.8447   -0.5898 C   0  0  2  0  0  3  0  0  0  0  0  0
   -3.2845   -0.9792   -0.5270 C   0  0  0  0  0  0  0  0  0  0  0  0
   -3.8210   -1.5846   -1.2651 H   0  0  0  0  0  0  0  0  0  0  0  0
   -3.9682   -0.3026    0.5079 C   0  0  0  0  0  0  0  0  0  0  0  0
   -3.2100    0.4771    1.4197 C   0  0  0  0  0  0  0  0  0  0  0  0
   -3.7226    1.0147    2.2283 H   0  0  0  0  0  0  0  0  0  0  0  0
   -1.8342    0.5466    1.2671 C   0  0  0  0  0  0  0  0  0  0  0  0
   -1.2033    1.1402    1.9464 H   0  0  0  0  0  0  0  0  0  0  0  0
   -6.1269   -1.1043   -0.1942 C   0  0  0  0  0  0  0  0  0  0  0  0
   -5.8153   -2.1716   -0.1494 H   0  0  0  0  0  0  0  0  0  0  0  0
   -5.9763   -0.7353   -1.2345 H   0  0  0  0  0  0  0  0  0  0  0  0
   -7.5698   -0.9288    0.2418 C   0  0  0  0  0  0  0  0  0  0  0  0
   -7.6712   -1.2891    1.2885 H   0  0  0  0  0  0  0  0  0  0  0  0
   -8.1863   -1.6138   -0.3799 H   0  0  0  0  0  0  0  0  0  0  0  0
   -8.0909    0.5073    0.1214 C   0  0  0  0  0  0  0  0  0  0  0  0
   -7.9892    0.8420   -0.9352 H   0  0  0  0  0  0  0  0  0  0  0  0
   -7.4366    1.1777    0.7184 H   0  0  0  0  0  0  0  0  0  0  0  0
   -9.5425    0.6538    0.5764 C   0  0  0  0  0  0  0  0  0  0  0  0
  -10.2225    0.0147   -0.0241 H   0  0  0  0  0  0  0  0  0  0  0  0
   -9.8938    1.6996    0.4781 H   0  0  0  0  0  0  0  0  0  0  0  0
   -9.6637    0.3593    1.6393 H   0  0  0  0  0  0  0  0  0  0  0  0
  2  3  1  0  0  0  0
  4 17  1  0  0  0  0
  5  2  1  0  0  0  0
  6  5  1  0  0  0  0
  7  5  1  0  0  0  0
  7  9  2  0  0  0  0
  8  7  1  0  0  0  0
  9  3  1  0  0  0  0
 10  9  1  0  0  0  0
 11  3  1  1  0  0  0
 11 12  1  0  0  0  0
 11  4  1  0  0  0  0
 12 14  2  0  0  0  0
 13 12  1  0  0  0  0
 14  1  1  0  0  0  0
 14 15  1  0  0  0  0
 15 16  1  0  0  0  0
 17 15  2  0  0  0  0
 17 18  1  0  0  0  0
 19 20  1  0  0  0  0
 19 22  1  0  0  0  0
 19  1  1  0  0  0  0
 21 19  1  0  0  0  0
 22 23  1  0  0  0  0
 24 22  1  0  0  0  0
 25 22  1  0  0  0  0
 25 28  1  0  0  0  0
 25 27  1  0  0  0  0
 26 25  1  0  0  0  0
 28 31  1  0  0  0  0
 29 28  1  0  0  0  0
 30 28  1  0  0  0  0
M  END
