1,4
 OpenBabel05122313053D

 38 41  0  0  0  0  0  0  0  0999 V2000
    0.3453   -0.1009    0.0489 N   0  0  0  0  0  2  0  0  0  0  0  0
   -0.6565   -0.9480    0.1253 N   0  0  0  0  0  0  0  0  0  0  0  0
   -1.1383    1.7469    0.1618 N   0  0  0  0  0  0  0  0  0  0  0  0
    2.4641    1.3931    0.2880 N   0  0  0  0  0  2  0  0  0  0  0  0
   -1.9218   -0.5039    0.1836 C   0  0  0  0  0  0  0  0  0  0  0  0
   -2.1790    0.9063    0.0225 C   0  0  0  0  0  0  0  0  0  0  0  0
    0.0887    1.2485    0.2129 C   0  0  0  0  0  0  0  0  0  0  0  0
    1.2797    2.0774    0.3852 C   0  0  0  0  0  0  0  0  0  0  0  0
    1.2395    3.4595    0.6197 C   0  0  0  0  0  0  0  0  0  0  0  0
    0.2577    3.9502    0.6687 H   0  0  0  0  0  0  0  0  0  0  0  0
    2.4432    4.1536    0.7765 C   0  0  0  0  0  0  0  0  0  0  0  0
    2.4428    5.2371    0.9643 H   0  0  0  0  0  0  0  0  0  0  0  0
    3.6520    3.4401    0.6852 C   0  0  0  0  0  0  0  0  0  0  0  0
    4.6217    3.9450    0.7997 H   0  0  0  0  0  0  0  0  0  0  0  0
    3.6297    2.0652    0.4370 C   0  0  0  0  0  0  0  0  0  0  0  0
    4.5332    1.4406    0.3341 H   0  0  0  0  0  0  0  0  0  0  0  0
   -3.4819    1.5034   -0.3321 C   0  0  0  0  0  0  0  0  0  0  0  0
   -3.7964    2.8061    0.1176 C   0  0  0  0  0  0  0  0  0  0  0  0
   -3.0735    3.3327    0.7567 H   0  0  0  0  0  0  0  0  0  0  0  0
   -5.0104    3.4050   -0.2388 C   0  0  0  0  0  0  0  0  0  0  0  0
   -5.2518    4.4131    0.1305 H   0  0  0  0  0  0  0  0  0  0  0  0
   -5.9168    2.7227   -1.0672 C   0  0  0  0  0  0  0  0  0  0  0  0
   -6.8695    3.1953   -1.3501 H   0  0  0  0  0  0  0  0  0  0  0  0
   -5.6007    1.4379   -1.5405 C   0  0  0  0  0  0  0  0  0  0  0  0
   -6.2984    0.9072   -2.2053 H   0  0  0  0  0  0  0  0  0  0  0  0
   -4.3959    0.8275   -1.1740 C   0  0  0  0  0  0  0  0  0  0  0  0
   -4.1512   -0.1738   -1.5557 H   0  0  0  0  0  0  0  0  0  0  0  0
   -2.9270   -1.5556    0.4510 C   0  0  0  0  0  0  0  0  0  0  0  0
   -4.1273   -1.2817    1.1460 C   0  0  0  0  0  0  0  0  0  0  0  0
   -4.3477   -0.2595    1.4843 H   0  0  0  0  0  0  0  0  0  0  0  0
   -5.0295   -2.3147    1.4260 C   0  0  0  0  0  0  0  0  0  0  0  0
   -5.9566   -2.0931    1.9757 H   0  0  0  0  0  0  0  0  0  0  0  0
   -4.7501   -3.6289    1.0147 C   0  0  0  0  0  0  0  0  0  0  0  0
   -5.4656   -4.4369    1.2302 H   0  0  0  0  0  0  0  0  0  0  0  0
   -3.5509   -3.9110    0.3395 C   0  0  0  0  0  0  0  0  0  0  0  0
   -3.3216   -4.9407    0.0271 H   0  0  0  0  0  0  0  0  0  0  0  0
   -2.6375   -2.8863    0.0657 C   0  0  0  0  0  0  0  0  0  0  0  0
   -1.6816   -3.0936   -0.4377 H   0  0  0  0  0  0  0  0  0  0  0  0
  1  2  1  0  0  0  0
  1  7  1  0  0  0  0
  2  5  2  0  0  0  0
  3  7  1  0  0  0  0
  4  8  1  0  0  0  0
  4 15  1  0  0  0  0
  5 28  1  0  0  0  0
  6  3  2  0  0  0  0
  6  5  1  0  0  0  0
  7  8  2  0  0  0  0
  8  9  1  0  0  0  0
  9 10  1  0  0  0  0
  9 11  2  0  0  0  0
 11 12  1  0  0  0  0
 13 11  1  0  0  0  0
 13 14  1  0  0  0  0
 15 13  2  0  0  0  0
 16 15  1  0  0  0  0
 17  6  1  0  0  0  0
 17 18  1  0  0  0  0
 18 19  1  0  0  0  0
 20 18  2  0  0  0  0
 20 21  1  0  0  0  0
 22 20  1  0  0  0  0
 23 22  1  0  0  0  0
 24 26  1  0  0  0  0
 24 22  2  0  0  0  0
 25 24  1  0  0  0  0
 26 17  2  0  0  0  0
 27 26  1  0  0  0  0
 28 29  1  0  0  0  0
 29 31  2  0  0  0  0
 29 30  1  0  0  0  0
 31 32  1  0  0  0  0
 33 34  1  0  0  0  0
 33 31  1  0  0  0  0
 35 33  2  0  0  0  0
 36 35  1  0  0  0  0
 37 35  1  0  0  0  0
 37 28  2  0  0  0  0
 38 37  1  0  0  0  0
M  END
