1,4
 OpenBabel05122313053D

 24 25  0  0  0  0  0  0  0  0999 V2000
    1.0325   -0.3097    0.0002 N   0  0  0  0  0  2  0  0  0  0  0  0
    1.9446   -1.2725    0.0008 N   0  0  0  0  0  0  0  0  0  0  0  0
    2.7137    1.3882   -0.0005 N   0  0  0  0  0  0  0  0  0  0  0  0
   -0.9072    1.4392    0.0002 N   0  0  0  0  0  2  0  0  0  0  0  0
    3.2395   -0.9408    0.0006 C   0  0  0  0  0  0  0  0  0  0  0  0
    3.6485    0.4312   -0.0004 C   0  0  0  0  0  0  0  0  0  0  0  0
    1.4355    1.0095   -0.0001 C   0  0  0  0  0  0  0  0  0  0  0  0
    0.3487    1.9863    0.0000 C   0  0  0  0  0  0  0  0  0  0  0  0
    0.5554    3.3737    0.0001 C   0  0  0  0  0  0  0  0  0  0  0  0
    1.5904    3.7427   -0.0000 H   0  0  0  0  0  0  0  0  0  0  0  0
   -0.5559    4.2219    0.0003 C   0  0  0  0  0  0  0  0  0  0  0  0
   -0.4260    5.3138    0.0004 H   0  0  0  0  0  0  0  0  0  0  0  0
   -1.8414    3.6500    0.0005 C   0  0  0  0  0  0  0  0  0  0  0  0
   -2.7440    4.2777    0.0006 H   0  0  0  0  0  0  0  0  0  0  0  0
   -1.9843    2.2604    0.0003 C   0  0  0  0  0  0  0  0  0  0  0  0
   -2.9560    1.7382    0.0003 H   0  0  0  0  0  0  0  0  0  0  0  0
    4.2190   -2.0737    0.0014 C   0  0  0  0  0  0  0  0  0  0  0  0
    3.6697   -3.0322    0.0027 H   0  0  0  0  0  0  0  0  0  0  0  0
    4.8795   -2.0302    0.8923 H   0  0  0  0  0  0  0  0  0  0  0  0
    4.8785   -2.0322   -0.8904 H   0  0  0  0  0  0  0  0  0  0  0  0
    5.0911    0.8312   -0.0014 C   0  0  0  0  0  0  0  0  0  0  0  0
    5.6178    0.4257   -0.8907 H   0  0  0  0  0  0  0  0  0  0  0  0
    5.6189    0.4264    0.8876 H   0  0  0  0  0  0  0  0  0  0  0  0
    5.1752    1.9327   -0.0019 H   0  0  0  0  0  0  0  0  0  0  0  0
  1  2  1  0  0  0  0
  3  6  2  0  0  0  0
  3  7  1  0  0  0  0
  4 15  1  0  0  0  0
  5  2  2  0  0  0  0
  5 17  1  0  0  0  0
  6  5  1  0  0  0  0
  7  8  2  0  0  0  0
  7  1  1  0  0  0  0
  8  9  1  0  0  0  0
  8  4  1  0  0  0  0
  9 11  2  0  0  0  0
 10  9  1  0  0  0  0
 11 12  1  0  0  0  0
 11 13  1  0  0  0  0
 13 14  1  0  0  0  0
 15 13  2  0  0  0  0
 16 15  1  0  0  0  0
 17 18  1  0  0  0  0
 17 19  1  0  0  0  0
 20 17  1  0  0  0  0
 21  6  1  0  0  0  0
 21 23  1  0  0  0  0
 22 21  1  0  0  0  0
 24 21  1  0  0  0  0
M  END
