22,25
 OpenBabel05122313053D

 37 39  0  0  1  0  0  0  0  0999 V2000
    1.1958    2.4453    0.1362 C   0  0  2  0  0  3  0  0  0  0  0  0
   -1.0922    2.3863   -0.3299 C   0  0  0  0  0  0  0  0  0  0  0  0
   -1.1550    3.7690   -0.5432 C   0  0  0  0  0  0  0  0  0  0  0  0
   -2.1188    4.2289   -0.7950 H   0  0  0  0  0  0  0  0  0  0  0  0
    1.2203    3.8591   -0.0580 C   0  0  0  0  0  0  0  0  0  0  0  0
    2.1625    4.4131    0.0637 H   0  0  0  0  0  0  0  0  0  0  0  0
    3.2793   -0.4136    0.1823 C   0  0  0  0  0  0  0  0  0  0  0  0
    3.3372   -1.7503    0.6335 C   0  0  0  0  0  0  0  0  0  0  0  0
    2.6032   -2.0932    1.3785 H   0  0  0  0  0  0  0  0  0  0  0  0
    4.1672    0.0334   -0.8140 C   0  0  0  0  0  0  0  0  0  0  0  0
    4.0990    1.0634   -1.1926 H   0  0  0  0  0  0  0  0  0  0  0  0
    0.0392    4.5059   -0.4049 C   0  0  0  0  0  0  0  0  0  0  0  0
    0.0395    5.5940   -0.5655 H   0  0  0  0  0  0  0  0  0  0  0  0
    5.1937   -2.1769   -0.8876 C   0  0  0  0  0  0  0  0  0  0  0  0
    5.9412   -2.8669   -1.3057 H   0  0  0  0  0  0  0  0  0  0  0  0
    4.2918   -2.6180    0.0980 C   0  0  0  0  0  0  0  0  0  0  0  0
    4.3252   -3.6605    0.4490 H   0  0  0  0  0  0  0  0  0  0  0  0
    5.1202   -0.8528   -1.3410 C   0  0  0  0  0  0  0  0  0  0  0  0
    5.8092   -0.4974   -2.1225 H   0  0  0  0  0  0  0  0  0  0  0  0
    2.2912    0.4195    0.7378 N   0  0  0  0  0  0  0  0  0  0  0  0
    1.9005    0.1428    1.6636 H   0  0  0  0  0  0  0  0  0  0  0  0
    0.0569    1.7462   -0.0115 N   0  0  0  0  0  2  0  0  0  0  0  0
    2.3276    1.7677    0.4954 N   0  0  0  0  0  0  0  0  0  0  0  0
    3.1677    2.3018    0.7474 H   0  0  0  0  0  0  0  0  0  0  0  0
   -2.1536    0.4085   -0.2024 N   0  0  0  0  0  2  0  0  0  0  0  0
   -2.2868    1.6529   -0.4271 N   0  0  0  0  0  2  0  0  0  0  0  0
   -3.3101   -0.3868   -0.2494 C   0  0  0  0  0  0  0  0  0  0  0  0
   -4.6133    0.1604   -0.3401 C   0  0  0  0  0  0  0  0  0  0  0  0
   -4.7249    1.2524   -0.3813 H   0  0  0  0  0  0  0  0  0  0  0  0
   -3.1170   -1.7867   -0.1856 C   0  0  0  0  0  0  0  0  0  0  0  0
   -2.0898   -2.1862   -0.1625 H   0  0  0  0  0  0  0  0  0  0  0  0
   -5.5252   -2.0937   -0.2966 C   0  0  0  0  0  0  0  0  0  0  0  0
   -6.3988   -2.7630   -0.3114 H   0  0  0  0  0  0  0  0  0  0  0  0
   -5.7129   -0.6973   -0.3594 C   0  0  0  0  0  0  0  0  0  0  0  0
   -6.7306   -0.2827   -0.4189 H   0  0  0  0  0  0  0  0  0  0  0  0
   -4.2309   -2.6328   -0.2139 C   0  0  0  0  0  0  0  0  0  0  0  0
   -4.0863   -3.7223   -0.1736 H   0  0  0  0  0  0  0  0  0  0  0  0
  1 23  1  1  0  0  0
  2 22  1  0  0  0  0
  3 12  1  0  0  0  0
  3  2  2  0  0  0  0
  4  3  1  0  0  0  0
  5  6  1  0  0  0  0
  5  1  1  0  0  0  0
  7  8  1  0  0  0  0
  7 20  1  0  0  0  0
  8  9  1  0  0  0  0
 10  7  2  0  0  0  0
 11 10  1  0  0  0  0
 12  5  2  0  0  0  0
 13 12  1  0  0  0  0
 14 16  1  0  0  0  0
 15 14  1  0  0  0  0
 16 17  1  0  0  0  0
 16  8  2  0  0  0  0
 18 14  2  0  0  0  0
 18 10  1  0  0  0  0
 19 18  1  0  0  0  0
 20 21  1  0  0  0  0
 22  1  1  0  0  0  0
 23 20  1  0  0  0  0
 23 24  1  0  0  0  0
 26  2  1  0  0  0  0
 26 25  1  0  0  0  0
 27 25  1  0  0  0  0
 27 30  1  0  0  0  0
 28 27  2  0  0  0  0
 29 28  1  0  0  0  0
 30 31  1  0  0  0  0
 32 36  1  0  0  0  0
 33 32  1  0  0  0  0
 34 28  1  0  0  0  0
 34 32  2  0  0  0  0
 35 34  1  0  0  0  0
 36 30  2  0  0  0  0
 36 37  1  0  0  0  0
M  END
