1,2
 OpenBabel05122313053D

 47 50  0  0  0  0  0  0  0  0999 V2000
    0.1994   -0.2338    0.3621 N   0  0  0  0  0  0  0  0  0  0  0  0
    2.3229    0.3208    1.8040 N   0  0  0  0  0  0  0  0  0  0  0  0
    2.2001   -1.0007    2.4975 C   0  0  0  0  0  0  0  0  0  0  0  0
    2.4624   -0.8564    3.5698 H   0  0  0  0  0  0  0  0  0  0  0  0
    2.9606   -1.6772    2.0673 H   0  0  0  0  0  0  0  0  0  0  0  0
    0.7897   -1.5896    2.4201 C   0  0  0  0  0  0  0  0  0  0  0  0
    0.8374   -2.6463    2.7517 H   0  0  0  0  0  0  0  0  0  0  0  0
    0.1488   -1.0848    3.1697 H   0  0  0  0  0  0  0  0  0  0  0  0
    0.0840   -1.5544    1.0608 C   0  0  0  0  0  0  0  0  0  0  0  0
    0.4687   -2.3321    0.3767 H   0  0  0  0  0  0  0  0  0  0  0  0
   -0.9916   -1.7712    1.2286 H   0  0  0  0  0  0  0  0  0  0  0  0
   -0.0828    0.8564    1.3501 C   0  0  0  0  0  0  0  0  0  0  0  0
   -0.9481    0.5595    1.9766 H   0  0  0  0  0  0  0  0  0  0  0  0
   -0.3771    1.7529    0.7851 H   0  0  0  0  0  0  0  0  0  0  0  0
    1.1657    1.1897    2.1815 C   0  0  0  0  0  0  0  0  0  0  0  0
    1.4643    2.2305    1.9702 H   0  0  0  0  0  0  0  0  0  0  0  0
    0.9891    1.0930    3.2743 H   0  0  0  0  0  0  0  0  0  0  0  0
    3.5855    0.9905    2.1987 C   0  0  0  0  0  0  0  0  0  0  0  0
    3.7068    1.9075    1.5933 H   0  0  0  0  0  0  0  0  0  0  0  0
    4.4402    0.3134    2.0221 H   0  0  0  0  0  0  0  0  0  0  0  0
    3.5599    1.2536    3.2782 H   0  0  0  0  0  0  0  0  0  0  0  0
   -0.7397   -0.1431   -0.8375 C   0  0  0  0  0  0  0  0  0  0  0  0
   -0.3864    0.7339   -1.4074 H   0  0  0  0  0  0  0  0  0  0  0  0
   -0.5271   -1.0351   -1.4518 H   0  0  0  0  0  0  0  0  0  0  0  0
   -2.2129   -0.0393   -0.5224 C   0  0  0  0  0  0  0  0  0  0  0  0
   -3.0048   -1.2203   -0.3804 C   0  0  0  0  0  0  0  0  0  0  0  0
   -2.5213   -2.5457   -0.6531 C   0  0  0  0  0  0  0  0  0  0  0  0
   -1.4982   -2.6894   -1.0265 H   0  0  0  0  0  0  0  0  0  0  0  0
   -3.3222   -3.6620   -0.4950 C   0  0  0  0  0  0  0  0  0  0  0  0
   -2.9206   -4.6584   -0.7338 H   0  0  0  0  0  0  0  0  0  0  0  0
   -4.6678   -3.5381   -0.0413 C   0  0  0  0  0  0  0  0  0  0  0  0
   -5.2883   -4.4367    0.0879 H   0  0  0  0  0  0  0  0  0  0  0  0
   -5.1871   -2.2848    0.2096 C   0  0  0  0  0  0  0  0  0  0  0  0
   -6.2313   -2.1659    0.5368 H   0  0  0  0  0  0  0  0  0  0  0  0
   -4.3942   -1.1038    0.0345 C   0  0  0  0  0  0  0  0  0  0  0  0
   -4.9455    0.1709    0.2471 C   0  0  0  0  0  0  0  0  0  0  0  0
   -5.9934    0.2518    0.5762 H   0  0  0  0  0  0  0  0  0  0  0  0
   -4.2092    1.3459    0.0201 C   0  0  0  0  0  0  0  0  0  0  0  0
   -4.8175    2.6338    0.1815 C   0  0  0  0  0  0  0  0  0  0  0  0
   -5.8690    2.6757    0.5043 H   0  0  0  0  0  0  0  0  0  0  0  0
   -4.1132    3.7916   -0.0757 C   0  0  0  0  0  0  0  0  0  0  0  0
   -4.5916    4.7746    0.0436 H   0  0  0  0  0  0  0  0  0  0  0  0
   -2.7607    3.7077   -0.5179 C   0  0  0  0  0  0  0  0  0  0  0  0
   -2.2073    4.6296   -0.7519 H   0  0  0  0  0  0  0  0  0  0  0  0
   -2.1338    2.4837   -0.6680 C   0  0  0  0  0  0  0  0  0  0  0  0
   -1.0933    2.4784   -1.0232 H   0  0  0  0  0  0  0  0  0  0  0  0
   -2.8177    1.2498   -0.3927 C   0  0  0  0  0  0  0  0  0  0  0  0
  1  9  1  0  0  0  0
  1 12  1  0  0  0  0
  2 15  1  0  0  0  0
  2 18  1  0  0  0  0
  2  3  1  0  0  0  0
  3  4  1  0  0  0  0
  5  3  1  0  0  0  0
  6  3  1  0  0  0  0
  6  7  1  0  0  0  0
  6  8  1  0  0  0  0
  9 11  1  0  0  0  0
  9  6  1  0  0  0  0
 10  9  1  0  0  0  0
 12 13  1  0  0  0  0
 12 15  1  0  0  0  0
 14 12  1  0  0  0  0
 15 17  1  0  0  0  0
 16 15  1  0  0  0  0
 18 21  1  0  0  0  0
 19 18  1  0  0  0  0
 20 18  1  0  0  0  0
 22 25  1  0  0  0  0
 22  1  1  0  0  0  0
 23 22  1  0  0  0  0
 24 22  1  0  0  0  0
 25 47  2  0  0  0  0
 25 26  1  0  0  0  0
 26 35  1  0  0  0  0
 27 29  1  0  0  0  0
 27 26  2  0  0  0  0
 28 27  1  0  0  0  0
 29 31  2  0  0  0  0
 30 29  1  0  0  0  0
 31 32  1  0  0  0  0
 31 33  1  0  0  0  0
 33 34  1  0  0  0  0
 35 33  2  0  0  0  0
 35 36  1  0  0  0  0
 36 37  1  0  0  0  0
 38 39  1  0  0  0  0
 38 36  2  0  0  0  0
 39 40  1  0  0  0  0
 41 42  1  0  0  0  0
 41 39  2  0  0  0  0
 43 41  1  0  0  0  0
 44 43  1  0  0  0  0
 45 43  2  0  0  0  0
 45 47  1  0  0  0  0
 46 45  1  0  0  0  0
 47 38  1  0  0  0  0
M  END
