3,4
 OpenBabel05122313053D

 20 21  0  0  1  0  0  0  0  0999 V2000
    1.7577   -2.9884    0.8912 Cl  0  0  0  0  0  0  0  0  0  0  0  0
   -1.4968    1.6223   -2.5770 Cl  0  0  0  0  0  0  0  0  0  0  0  0
    2.0133   -0.4347    0.2212 N   0  0  0  0  0  2  0  0  0  0  0  0
    0.7193    1.3896   -1.1344 N   0  0  0  0  0  2  0  0  0  0  0  0
    2.6547   -1.5242    0.6977 C   0  0  2  0  0  3  0  0  0  0  0  0
    4.0225   -1.5294    1.0033 C   0  0  0  0  0  0  0  0  0  0  0  0
    4.4789   -2.4423    1.4067 H   0  0  0  0  0  0  0  0  0  0  0  0
    4.7636   -0.3626    0.7756 C   0  0  0  0  0  0  0  0  0  0  0  0
    5.8347   -0.3308    1.0214 H   0  0  0  0  0  0  0  0  0  0  0  0
    4.1333    0.7427    0.1978 C   0  0  0  0  0  0  0  0  0  0  0  0
    4.7068    1.6478   -0.0385 H   0  0  0  0  0  0  0  0  0  0  0  0
    2.7609    0.6787   -0.0963 C   0  0  0  0  0  0  0  0  0  0  0  0
    2.0376    1.7018   -0.8606 C   0  0  1  0  0  3  0  0  0  0  0  0
    2.6397    2.8562   -1.3870 C   0  0  0  0  0  0  0  0  0  0  0  0
    3.6775    3.1014   -1.1283 H   0  0  0  0  0  0  0  0  0  0  0  0
    1.9178    3.6750   -2.2588 C   0  0  0  0  0  0  0  0  0  0  0  0
    2.3684    4.5863   -2.6764 H   0  0  0  0  0  0  0  0  0  0  0  0
    0.6203    3.2934   -2.6287 C   0  0  0  0  0  0  0  0  0  0  0  0
    0.0284    3.8670   -3.3536 H   0  0  0  0  0  0  0  0  0  0  0  0
    0.0708    2.1409   -2.0580 C   0  0  0  0  0  0  0  0  0  0  0  0
  2 20  1  0  0  0  0
  3  5  1  0  0  0  0
  4 13  1  0  0  0  0
  5  1  1  6  0  0  0
  5  6  1  0  0  0  0
  6  7  1  0  0  0  0
  8  6  2  0  0  0  0
  8  9  1  0  0  0  0
 10  8  1  0  0  0  0
 11 10  1  0  0  0  0
 12 10  2  0  0  0  0
 12  3  1  0  0  0  0
 13 12  1  6  0  0  0
 14 15  1  0  0  0  0
 14 13  1  0  0  0  0
 16 14  2  0  0  0  0
 17 16  1  0  0  0  0
 18 16  1  0  0  0  0
 18 20  2  0  0  0  0
 19 18  1  0  0  0  0
 20  4  1  0  0  0  0
M  END
