1,2
 OpenBabel05122313053D

 59 62  0  0  0  0  0  0  0  0999 V2000
   -1.7413    0.5583   -0.2546 N   0  0  0  0  0  2  0  0  0  0  0  0
   -4.3352    0.6330   -0.5940 N   0  0  0  0  0  2  0  0  0  0  0  0
    0.4263   -0.3456   -0.9261 C   0  0  0  0  0  0  0  0  0  0  0  0
   -0.3390    0.4187   -0.0169 C   0  0  0  0  0  0  0  0  0  0  0  0
    2.3922    0.1003    0.4718 C   0  0  0  0  0  0  0  0  0  0  0  0
    3.8922   -0.0086    0.7394 C   0  0  0  0  0  0  0  0  0  0  0  0
    4.0048   -0.1519    1.8360 H   0  0  0  0  0  0  0  0  0  0  0  0
    4.5060   -1.2425    0.0780 C   0  0  0  0  0  0  0  0  0  0  0  0
   -4.2540    2.6295   -1.9634 C   0  0  0  0  0  0  0  0  0  0  0  0
   -3.6500    3.4150   -2.4399 H   0  0  0  0  0  0  0  0  0  0  0  0
    1.8000   -0.4801   -0.6612 C   0  0  0  0  0  0  0  0  0  0  0  0
    2.4244   -1.0744   -1.3414 H   0  0  0  0  0  0  0  0  0  0  0  0
    4.6341    1.2802    0.3947 C   0  0  0  0  0  0  0  0  0  0  0  0
   -2.1864    1.5461   -0.9879 C   0  0  0  0  0  0  0  0  0  0  0  0
   -1.4931    2.2867   -1.4241 H   0  0  0  0  0  0  0  0  0  0  0  0
    4.1996    2.1376   -0.6344 C   0  0  0  0  0  0  0  0  0  0  0  0
    3.2738    1.8979   -1.1791 H   0  0  0  0  0  0  0  0  0  0  0  0
    1.5845    0.8173    1.3726 C   0  0  0  0  0  0  0  0  0  0  0  0
    2.0470    1.2497    2.2718 H   0  0  0  0  0  0  0  0  0  0  0  0
   -3.6178    1.6313   -1.2044 C   0  0  0  0  0  0  0  0  0  0  0  0
   -0.2541   -1.0422   -2.0863 C   0  0  0  0  0  0  0  0  0  0  0  0
   -1.0720   -1.6636   -1.6544 H   0  0  0  0  0  0  0  0  0  0  0  0
   -0.7746   -0.2876   -2.7175 H   0  0  0  0  0  0  0  0  0  0  0  0
   -5.6753    0.6013   -0.7186 C   0  0  0  0  0  0  0  0  0  0  0  0
   -6.1633   -0.2385   -0.1927 H   0  0  0  0  0  0  0  0  0  0  0  0
    0.2076    0.9823    1.1610 C   0  0  0  0  0  0  0  0  0  0  0  0
   -6.3649    1.5687   -1.4618 C   0  0  0  0  0  0  0  0  0  0  0  0
   -7.4597    1.5068   -1.5386 H   0  0  0  0  0  0  0  0  0  0  0  0
    4.2053   -2.5166    0.6039 C   0  0  0  0  0  0  0  0  0  0  0  0
    3.5604   -2.5932    1.4940 H   0  0  0  0  0  0  0  0  0  0  0  0
   -0.7045    1.6679    2.1557 C   0  0  0  0  0  0  0  0  0  0  0  0
   -1.2603    2.4834    1.6418 H   0  0  0  0  0  0  0  0  0  0  0  0
   -1.4850    0.9248    2.4388 H   0  0  0  0  0  0  0  0  0  0  0  0
   -5.6475    2.5977   -2.0940 C   0  0  0  0  0  0  0  0  0  0  0  0
   -6.1695    3.3666   -2.6821 H   0  0  0  0  0  0  0  0  0  0  0  0
    5.8137   -2.3264   -1.6780 C   0  0  0  0  0  0  0  0  0  0  0  0
    6.4480   -2.2436   -2.5741 H   0  0  0  0  0  0  0  0  0  0  0  0
    5.3179   -1.1615   -1.0683 C   0  0  0  0  0  0  0  0  0  0  0  0
    5.5673   -0.1749   -1.4863 H   0  0  0  0  0  0  0  0  0  0  0  0
    4.9307    3.2901   -0.9638 C   0  0  0  0  0  0  0  0  0  0  0  0
    4.5761    3.9487   -1.7717 H   0  0  0  0  0  0  0  0  0  0  0  0
    5.8157    1.6079    1.0897 C   0  0  0  0  0  0  0  0  0  0  0  0
    6.1682    0.9425    1.8940 H   0  0  0  0  0  0  0  0  0  0  0  0
    6.1057    3.6062   -0.2651 C   0  0  0  0  0  0  0  0  0  0  0  0
    6.6763    4.5121   -0.5201 H   0  0  0  0  0  0  0  0  0  0  0  0
   -0.0356    2.2185    3.4117 C   0  0  0  0  0  0  0  0  0  0  0  0
   -0.7879    2.6876    4.0756 H   0  0  0  0  0  0  0  0  0  0  0  0
    0.7282    2.9873    3.1748 H   0  0  0  0  0  0  0  0  0  0  0  0
    0.4618    1.4153    3.9918 H   0  0  0  0  0  0  0  0  0  0  0  0
    6.5459    2.7600    0.7659 C   0  0  0  0  0  0  0  0  0  0  0  0
    7.4641    3.0005    1.3235 H   0  0  0  0  0  0  0  0  0  0  0  0
    4.6997   -3.6792   -0.0015 C   0  0  0  0  0  0  0  0  0  0  0  0
    4.4536   -4.6640    0.4242 H   0  0  0  0  0  0  0  0  0  0  0  0
    5.5066   -3.5879   -1.1485 C   0  0  0  0  0  0  0  0  0  0  0  0
    5.8966   -4.5000   -1.6254 H   0  0  0  0  0  0  0  0  0  0  0  0
    0.6446   -1.9091   -2.9638 C   0  0  0  0  0  0  0  0  0  0  0  0
    0.0521   -2.3926   -3.7651 H   0  0  0  0  0  0  0  0  0  0  0  0
    1.1310   -2.7140   -2.3768 H   0  0  0  0  0  0  0  0  0  0  0  0
    1.4472   -1.3183   -3.4508 H   0  0  0  0  0  0  0  0  0  0  0  0
  1  4  1  0  0  0  0
  3 11  2  0  0  0  0
  3  4  1  0  0  0  0
  4 26  2  0  0  0  0
  5  6  1  0  0  0  0
  5 18  2  0  0  0  0
  6  7  1  0  0  0  0
  8 29  1  0  0  0  0
  8  6  1  0  0  0  0
  9 20  1  0  0  0  0
 10  9  1  0  0  0  0
 11  5  1  0  0  0  0
 12 11  1  0  0  0  0
 13  6  1  0  0  0  0
 13 42  1  0  0  0  0
 14  1  1  0  0  0  0
 15 14  1  0  0  0  0
 16 13  2  0  0  0  0
 17 16  1  0  0  0  0
 18 19  1  0  0  0  0
 20 14  2  0  0  0  0
 20  2  1  0  0  0  0
 21 22  1  0  0  0  0
 21  3  1  0  0  0  0
 23 21  1  0  0  0  0
 24  2  1  0  0  0  0
 24 25  1  0  0  0  0
 26 18  1  0  0  0  0
 26 31  1  0  0  0  0
 27 24  2  0  0  0  0
 28 27  1  0  0  0  0
 29 30  1  0  0  0  0
 31 33  1  0  0  0  0
 31 46  1  0  0  0  0
 32 31  1  0  0  0  0
 34  9  2  0  0  0  0
 34 27  1  0  0  0  0
 35 34  1  0  0  0  0
 36 54  2  0  0  0  0
 36 38  1  0  0  0  0
 37 36  1  0  0  0  0
 38  8  2  0  0  0  0
 39 38  1  0  0  0  0
 40 16  1  0  0  0  0
 40 44  2  0  0  0  0
 41 40  1  0  0  0  0
 42 43  1  0  0  0  0
 44 50  1  0  0  0  0
 45 44  1  0  0  0  0
 46 49  1  0  0  0  0
 46 47  1  0  0  0  0
 48 46  1  0  0  0  0
 50 42  2  0  0  0  0
 50 51  1  0  0  0  0
 52 53  1  0  0  0  0
 52 29  2  0  0  0  0
 54 52  1  0  0  0  0
 55 54  1  0  0  0  0
 56 58  1  0  0  0  0
 56 21  1  0  0  0  0
 57 56  1  0  0  0  0
 59 56  1  0  0  0  0
M  END
