1,2
 OpenBabel05122313053D

 26 27  0  0  1  0  0  0  0  0999 V2000
   -0.5508   -1.3403    0.1598 N   0  0  0  0  0  2  0  0  0  0  0  0
   -0.5007    1.1147   -0.6851 N   0  0  0  0  0  2  0  0  0  0  0  0
   -0.4487   -2.6794    0.3240 C   0  0  0  0  0  3  0  0  0  0  0  0
    0.5710   -3.0874    0.3740 H   0  0  0  0  0  0  0  0  0  0  0  0
   -1.5619   -3.5124    0.3901 C   0  0  0  0  0  0  0  0  0  0  0  0
   -1.4316   -4.5920    0.5469 H   0  0  0  0  0  0  0  0  0  0  0  0
   -2.8255   -2.9490    0.1873 C   0  0  0  0  0  0  0  0  0  0  0  0
   -3.7270   -3.5752    0.1552 H   0  0  0  0  0  0  0  0  0  0  0  0
   -2.9479   -1.5675   -0.0379 C   0  0  0  0  0  0  0  0  0  0  0  0
   -1.7832   -0.7542    0.0239 C   0  0  0  0  0  0  0  0  0  0  0  0
   -1.7153    0.7098   -0.1841 C   0  0  2  0  0  3  0  0  0  0  0  0
   -2.7252    1.6790    0.0489 C   0  0  0  0  0  0  0  0  0  0  0  0
   -2.5656    2.9664   -0.4889 C   0  0  0  0  0  0  0  0  0  0  0  0
   -3.3757    3.6930   -0.3299 H   0  0  0  0  0  0  0  0  0  0  0  0
   -1.3991    3.2885   -1.1894 C   0  0  0  0  0  0  0  0  0  0  0  0
   -1.2621    4.2711   -1.6617 H   0  0  0  0  0  0  0  0  0  0  0  0
   -0.3685    2.3490   -1.2212 C   0  0  0  0  0  0  0  0  0  0  0  0
    0.6071    2.5746   -1.6766 H   0  0  0  0  0  0  0  0  0  0  0  0
   -5.2951   -1.8439   -0.1087 O   0  0  0  0  0  0  0  0  0  0  0  0
   -6.1056   -1.4879   -0.5370 H   0  0  0  0  0  0  0  0  0  0  0  0
   -4.4339   -0.0926   -1.2455 O   0  0  0  0  0  0  0  0  0  0  0  0
   -3.8272    0.4630    1.7829 O   0  0  0  0  0  0  0  0  0  0  0  0
   -4.6474    0.4697    2.3249 H   0  0  0  0  0  0  0  0  0  0  0  0
   -4.8677    2.2850    0.9387 O   0  0  0  0  0  0  0  0  0  0  0  0
   -3.9333    1.5108    0.9286 C   0  0  0  0  0  0  0  0  0  0  0  0
   -4.2779   -1.0567   -0.5192 C   0  0  0  0  0  0  0  0  0  0  0  0
  1  3  1  0  0  0  0
  2 11  1  0  0  0  0
  3  4  1  0  0  0  0
  3  5  1  0  0  0  0
  5  6  1  0  0  0  0
  7  5  2  0  0  0  0
  8  7  1  0  0  0  0
  9 10  2  0  0  0  0
  9  7  1  0  0  0  0
 10  1  1  0  0  0  0
 11 10  1  6  0  0  0
 11 12  1  0  0  0  0
 12 25  1  0  0  0  0
 13 14  1  0  0  0  0
 13 12  2  0  0  0  0
 15 13  1  0  0  0  0
 16 15  1  0  0  0  0
 17 15  2  0  0  0  0
 17  2  1  0  0  0  0
 18 17  1  0  0  0  0
 20 19  1  0  0  0  0
 21 26  2  0  0  0  0
 22 23  1  0  0  0  0
 25 24  2  0  0  0  0
 25 22  1  0  0  0  0
 26 19  1  0  0  0  0
 26  9  1  0  0  0  0
M  END
