1,6
 OpenBabel05122313053D

 38 39  0  0  0  0  0  0  0  0999 V2000
   -4.3047    0.0541    0.1287 N   0  0  0  0  0  0  0  0  0  0  0  0
   -4.9049    1.3133   -0.3366 C   0  0  0  0  0  0  0  0  0  0  0  0
   -4.9603   -0.4251    1.3568 C   0  0  0  0  0  0  0  0  0  0  0  0
   -4.3099   -0.9877   -0.9179 C   0  0  0  0  0  0  0  0  0  0  0  0
   -3.2542   -0.7215   -1.9958 C   0  0  0  0  0  0  0  0  0  0  0  0
   -1.9164   -0.6468   -1.3977 N   0  0  0  0  0  0  0  0  0  0  0  0
   -1.2139   -1.9185   -1.2220 C   0  0  0  0  0  0  0  0  0  0  0  0
    0.2286   -1.6780   -0.8294 C   0  0  0  0  0  0  0  0  0  0  0  0
    0.6422   -0.4203   -0.7798 N   0  0  0  0  0  0  0  0  0  0  0  0
    1.9326   -0.1430   -0.4459 C   0  0  0  0  0  0  0  0  0  0  0  0
    2.8841   -1.1900   -0.1675 C   0  0  0  0  0  0  0  0  0  0  0  0
    2.4041   -2.5286   -0.2256 C   0  0  0  0  0  0  0  0  0  0  0  0
    1.0836   -2.7792   -0.5477 C   0  0  0  0  0  0  0  0  0  0  0  0
    4.2277   -0.8355    0.1471 C   0  0  0  0  0  0  0  0  0  0  0  0
    5.4127   -2.0794    0.4843 Cl  0  0  0  0  0  0  0  0  0  0  0  0
    4.6081    0.5003    0.1921 C   0  0  0  0  0  0  0  0  0  0  0  0
    3.6662    1.5163   -0.0660 C   0  0  0  0  0  0  0  0  0  0  0  0
    2.3161    1.2513   -0.3819 C   0  0  0  0  0  0  0  0  0  0  0  0
    1.4123    2.2281   -0.6470 N   0  0  0  0  0  0  0  0  0  0  0  0
    4.1821    3.1875    0.0274 Cl  0  0  0  0  0  0  0  0  0  0  0  0
   -4.3397    1.7180   -1.1962 H   0  0  0  0  0  0  0  0  0  0  0  0
   -5.9750    1.1735   -0.6180 H   0  0  0  0  0  0  0  0  0  0  0  0
   -4.8299    2.0698    0.4660 H   0  0  0  0  0  0  0  0  0  0  0  0
   -4.3859   -1.2789    1.7648 H   0  0  0  0  0  0  0  0  0  0  0  0
   -6.0199   -0.7169    1.1695 H   0  0  0  0  0  0  0  0  0  0  0  0
   -4.9440    0.3811    2.1147 H   0  0  0  0  0  0  0  0  0  0  0  0
   -5.3190   -1.0823   -1.3857 H   0  0  0  0  0  0  0  0  0  0  0  0
   -4.0893   -1.9544   -0.4206 H   0  0  0  0  0  0  0  0  0  0  0  0
   -3.3182   -1.5137   -2.7761 H   0  0  0  0  0  0  0  0  0  0  0  0
   -3.4577    0.2445   -2.4994 H   0  0  0  0  0  0  0  0  0  0  0  0
   -1.6997   -2.4968   -0.4062 H   0  0  0  0  0  0  0  0  0  0  0  0
   -1.2515   -2.5357   -2.1525 H   0  0  0  0  0  0  0  0  0  0  0  0
    3.1047   -3.3467   -0.0051 H   0  0  0  0  0  0  0  0  0  0  0  0
    0.6942   -3.8074   -0.5873 H   0  0  0  0  0  0  0  0  0  0  0  0
    5.6418    0.7758    0.4379 H   0  0  0  0  0  0  0  0  0  0  0  0
    1.6895    3.1812   -0.4095 H   0  0  0  0  0  0  0  0  0  0  0  0
    0.4066    2.0188   -0.5704 H   0  0  0  0  0  0  0  0  0  0  0  0
   -1.2893    0.0097   -1.8866 H   0  0  0  0  0  0  0  0  0  0  0  0
  1  3  1  0  0  0  0
  2  1  1  0  0  0  0
  2 23  1  0  0  0  0
  3 24  1  0  0  0  0
  3 26  1  0  0  0  0
  4 28  1  0  0  0  0
  4  1  1  0  0  0  0
  5  6  1  0  0  0  0
  5  4  1  0  0  0  0
  6  7  1  0  0  0  0
  7  8  1  0  0  0  0
  7 31  1  0  0  0  0
  8  9  2  0  0  0  0
  8 13  1  0  0  0  0
  9 10  1  0  0  0  0
 10 18  2  0  0  0  0
 10 11  1  0  0  0  0
 11 14  2  0  0  0  0
 12 11  1  0  0  0  0
 12 33  1  0  0  0  0
 13 12  2  0  0  0  0
 14 16  1  0  0  0  0
 14 15  1  0  0  0  0
 16 35  1  0  0  0  0
 17 20  1  0  0  0  0
 17 16  2  0  0  0  0
 18 17  1  0  0  0  0
 19 37  1  0  0  0  0
 19 36  1  0  0  0  0
 19 18  1  0  0  0  0
 21  2  1  0  0  0  0
 22  2  1  0  0  0  0
 25  3  1  0  0  0  0
 27  4  1  0  0  0  0
 29  5  1  0  0  0  0
 30  5  1  0  0  0  0
 32  7  1  0  0  0  0
 34 13  1  0  0  0  0
 38  6  1  0  0  0  0
M  END
