2,4
 OpenBabel05122313053D

 36 38  0  0  1  0  0  0  0  0999 V2000
    1.7326    1.9697   -1.0068 C   0  0  0  0  0  0  0  0  0  0  0  0
   -1.8196    0.8474   -0.7910 N   0  0  0  0  0  2  0  0  0  0  0  0
   -3.0313   -1.1935   -1.1030 C   0  0  2  0  0  3  0  0  0  0  0  0
   -3.8707   -0.7158   -0.1564 N   0  0  0  0  0  2  0  0  0  0  0  0
   -1.7750   -0.4190   -1.2631 C   0  0  2  0  0  3  0  0  0  0  0  0
    0.5478    1.1085   -1.2394 C   0  0  0  0  0  0  0  0  0  0  0  0
    4.0053    3.5941   -0.4349 C   0  0  0  0  0  0  0  0  0  0  0  0
   -0.7030    1.5825   -0.8013 C   0  0  0  0  0  0  0  0  0  0  0  0
   -0.7863    2.5989   -0.3862 H   0  0  0  0  0  0  0  0  0  0  0  0
   -0.5879   -0.9590   -1.7769 C   0  0  0  0  0  0  0  0  0  0  0  0
   -0.5635   -2.0041   -2.1179 H   0  0  0  0  0  0  0  0  0  0  0  0
    1.9072   -0.9259   -2.0286 C   0  0  0  0  0  0  0  0  0  0  0  0
    2.6568   -0.2440   -2.4661 H   0  0  0  0  0  0  0  0  0  0  0  0
    1.7359   -1.7422   -2.7575 H   0  0  0  0  0  0  0  0  0  0  0  0
    3.0382    3.3209    0.5554 C   0  0  0  0  0  0  0  0  0  0  0  0
    3.1699    3.7305    1.5695 H   0  0  0  0  0  0  0  0  0  0  0  0
    0.6128   -0.2236   -1.7384 C   0  0  0  0  0  0  0  0  0  0  0  0
    3.8013    3.0538   -1.7208 C   0  0  0  0  0  0  0  0  0  0  0  0
    4.5313    3.2678   -2.5173 H   0  0  0  0  0  0  0  0  0  0  0  0
   -5.0638   -1.2892    0.0540 C   0  0  0  0  0  0  0  0  0  0  0  0
   -5.7029   -0.7856    0.7986 H   0  0  0  0  0  0  0  0  0  0  0  0
   -5.4691   -2.4277   -0.6550 C   0  0  0  0  0  0  0  0  0  0  0  0
   -6.4496   -2.8829   -0.4562 H   0  0  0  0  0  0  0  0  0  0  0  0
    1.9189    2.5292    0.2790 C   0  0  0  0  0  0  0  0  0  0  0  0
    1.1887    2.3056    1.0733 H   0  0  0  0  0  0  0  0  0  0  0  0
    2.5310   -1.5621   -0.6758 B   0  0  0  0  0  1  0  0  0  0  0  0
   -3.3695   -2.3307   -1.8604 C   0  0  0  0  0  0  0  0  0  0  0  0
   -2.6907   -2.7006   -2.6414 H   0  0  0  0  0  0  0  0  0  0  0  0
   -4.6001   -2.9564   -1.6227 C   0  0  0  0  0  0  0  0  0  0  0  0
   -4.8887   -3.8439   -2.2057 H   0  0  0  0  0  0  0  0  0  0  0  0
    2.6850    2.2567   -2.0061 C   0  0  0  0  0  0  0  0  0  0  0  0
    2.5400    1.8719   -3.0268 H   0  0  0  0  0  0  0  0  0  0  0  0
    5.2020    4.4570   -0.1263 C   0  0  0  0  0  0  0  0  0  0  0  0
    5.9532    4.4236   -0.9389 H   0  0  0  0  0  0  0  0  0  0  0  0
    5.6967    4.1411    0.8147 H   0  0  0  0  0  0  0  0  0  0  0  0
    4.9033    5.5181    0.0106 H   0  0  0  0  0  0  0  0  0  0  0  0
  1 24  1  0  0  0  0
  3 27  1  6  0  0  0
  3  4  1  0  0  0  0
  4 20  1  0  0  0  0
  5 10  1  1  0  0  0
  5  3  1  0  0  0  0
  5  2  1  0  0  0  0
  6  1  1  0  0  0  0
  6  8  2  0  0  0  0
  7 33  1  0  0  0  0
  7 15  1  0  0  0  0
  8  2  1  0  0  0  0
  8  9  1  0  0  0  0
 10 17  2  0  0  0  0
 11 10  1  0  0  0  0
 12 17  1  0  0  0  0
 12 26  1  0  0  0  0
 13 12  1  0  0  0  0
 14 12  1  0  0  0  0
 15 16  1  0  0  0  0
 17  6  1  0  0  0  0
 18  7  2  0  0  0  0
 19 18  1  0  0  0  0
 20 21  1  0  0  0  0
 22 23  1  0  0  0  0
 22 20  2  0  0  0  0
 24 15  2  0  0  0  0
 24 25  1  0  0  0  0
 27 29  2  0  0  0  0
 28 27  1  0  0  0  0
 29 22  1  0  0  0  0
 30 29  1  0  0  0  0
 31 18  1  0  0  0  0
 31  1  2  0  0  0  0
 32 31  1  0  0  0  0
 33 36  1  0  0  0  0
 33 35  1  0  0  0  0
 34 33  1  0  0  0  0
M  END
