1,2
 OpenBabel05122313053D

 27 29  0  0  1  0  0  0  0  0999 V2000
    2.3891   -0.0080   -0.0888 N   0  0  0  0  0  2  0  0  0  0  0  0
   -0.2141    0.7127    0.0242 N   0  0  0  0  0  2  0  0  0  0  0  0
    0.2433    2.9224   -0.1934 N   0  0  0  0  0  0  0  0  0  0  0  0
   -1.0841    2.6987   -0.1260 N   0  0  0  0  0  0  0  0  0  0  0  0
   -1.7397    3.4771   -0.2209 H   0  0  0  0  0  0  0  0  0  0  0  0
    3.6460   -0.4683   -0.0158 C   0  0  0  0  0  3  0  0  0  0  0  0
    3.7510   -1.5628    0.0564 H   0  0  0  0  0  0  0  0  0  0  0  0
    4.7504    0.3945   -0.0057 C   0  0  0  0  0  0  0  0  0  0  0  0
    5.7686   -0.0161    0.0473 H   0  0  0  0  0  0  0  0  0  0  0  0
    4.5243    1.7799   -0.0582 C   0  0  0  0  0  0  0  0  0  0  0  0
    5.3705    2.4831   -0.0524 H   0  0  0  0  0  0  0  0  0  0  0  0
    3.2100    2.2610   -0.1003 C   0  0  0  0  0  0  0  0  0  0  0  0
    2.9782    3.3349   -0.1169 H   0  0  0  0  0  0  0  0  0  0  0  0
    2.1626    1.3243   -0.1085 C   0  0  0  0  0  0  0  0  0  0  0  0
    0.7410    1.6877   -0.1028 C   0  0  0  0  0  0  0  0  0  0  0  0
   -1.3806    1.3688   -0.0010 C   0  0  1  0  0  3  0  0  0  0  0  0
   -2.7272    0.8059    0.0741 C   0  0  0  0  0  0  0  0  0  0  0  0
   -3.8031    1.5728    0.5771 C   0  0  0  0  0  0  0  0  0  0  0  0
   -3.6312    2.5906    0.9619 H   0  0  0  0  0  0  0  0  0  0  0  0
   -5.0894    1.0239    0.6313 C   0  0  0  0  0  0  0  0  0  0  0  0
   -5.9219    1.6202    1.0333 H   0  0  0  0  0  0  0  0  0  0  0  0
   -5.3103   -0.2912    0.1885 C   0  0  0  0  0  0  0  0  0  0  0  0
   -6.3215   -0.7228    0.2360 H   0  0  0  0  0  0  0  0  0  0  0  0
   -4.2421   -1.0541   -0.3103 C   0  0  0  0  0  0  0  0  0  0  0  0
   -4.4122   -2.0823   -0.6627 H   0  0  0  0  0  0  0  0  0  0  0  0
   -2.9506   -0.5164   -0.3727 C   0  0  0  0  0  0  0  0  0  0  0  0
   -2.1176   -1.1041   -0.7990 H   0  0  0  0  0  0  0  0  0  0  0  0
  1  6  1  0  0  0  0
  3  4  1  0  0  0  0
  3 15  2  0  0  0  0
  4 16  1  0  0  0  0
  5  4  1  0  0  0  0
  6  8  1  0  0  0  0
  6  7  1  0  0  0  0
  8  9  1  0  0  0  0
 10 11  1  0  0  0  0
 10  8  2  0  0  0  0
 12 10  1  0  0  0  0
 13 12  1  0  0  0  0
 14 15  1  0  0  0  0
 14 12  2  0  0  0  0
 14  1  1  0  0  0  0
 15  2  1  0  0  0  0
 16  2  1  0  0  0  0
 16 17  1  6  0  0  0
 17 18  1  0  0  0  0
 18 20  2  0  0  0  0
 18 19  1  0  0  0  0
 20 21  1  0  0  0  0
 22 23  1  0  0  0  0
 22 20  1  0  0  0  0
 24 22  2  0  0  0  0
 25 24  1  0  0  0  0
 26 24  1  0  0  0  0
 26 17  2  0  0  0  0
 27 26  1  0  0  0  0
M  END
