1,2
 OpenBabel05122313053D

 21 22  0  0  1  0  0  0  0  0999 V2000
    1.1141    0.0279   -0.4818 N   0  0  0  0  0  2  0  0  0  0  0  0
   -1.3014    0.6653    0.3027 N   0  0  0  0  0  2  0  0  0  0  0  0
   -0.4828    1.7163    0.0413 C   0  0  1  0  0  3  0  0  0  0  0  0
    0.9112    1.3306   -0.2154 C   0  0  1  0  0  3  0  0  0  0  0  0
    2.4328   -0.1539   -0.5217 N   0  0  0  0  0  0  0  0  0  0  0  0
    2.7606   -1.1274   -0.4782 H   0  0  0  0  0  0  0  0  0  0  0  0
   -0.9665    3.0364    0.0255 C   0  0  0  0  0  0  0  0  0  0  0  0
   -0.2866    3.8700   -0.2009 H   0  0  0  0  0  0  0  0  0  0  0  0
    2.1604    1.9999   -0.1193 C   0  0  0  0  0  0  0  0  0  0  0  0
    2.3501    3.0555    0.0985 H   0  0  0  0  0  0  0  0  0  0  0  0
    3.1279    1.0031   -0.2996 C   0  0  0  0  0  0  0  0  0  0  0  0
   -2.6120    0.8693    0.4985 C   0  0  0  0  0  0  0  0  0  0  0  0
   -3.2176   -0.0438    0.6204 H   0  0  0  0  0  0  0  0  0  0  0  0
   -2.3272    3.2542    0.2789 C   0  0  0  0  0  0  0  0  0  0  0  0
   -2.7328    4.2771    0.2754 H   0  0  0  0  0  0  0  0  0  0  0  0
   -3.1693    2.1557    0.5114 C   0  0  0  0  0  0  0  0  0  0  0  0
   -4.2448    2.2882    0.6948 H   0  0  0  0  0  0  0  0  0  0  0  0
    4.6189    1.0538   -0.2757 C   0  0  0  0  0  0  0  0  0  0  0  0
    4.9615    2.0476    0.0647 H   0  0  0  0  0  0  0  0  0  0  0  0
    5.0503    0.8710   -1.2818 H   0  0  0  0  0  0  0  0  0  0  0  0
    5.0391    0.2923    0.4128 H   0  0  0  0  0  0  0  0  0  0  0  0
  2 12  1  0  0  0  0
  3  7  1  6  0  0  0
  3  2  1  0  0  0  0
  4  1  1  1  0  0  0
  4  9  1  0  0  0  0
  4  3  1  0  0  0  0
  5  1  1  0  0  0  0
  5  6  1  0  0  0  0
  5 11  1  0  0  0  0
  7 14  2  0  0  0  0
  8  7  1  0  0  0  0
  9 10  1  0  0  0  0
 11 18  1  0  0  0  0
 11  9  2  0  0  0  0
 12 16  2  0  0  0  0
 12 13  1  0  0  0  0
 14 16  1  0  0  0  0
 15 14  1  0  0  0  0
 16 17  1  0  0  0  0
 18 19  1  0  0  0  0
 18 21  1  0  0  0  0
 20 18  1  0  0  0  0
M  END
