2,11
 OpenBabel05122313053D

 34 38  0  0  0  0  0  0  0  0999 V2000
    2.7668    1.6993    0.0001 C   0  0  0  0  0  0  0  0  0  0  0  0
    1.6889    0.8194    0.0004 N   0  0  0  0  0  2  0  0  0  0  0  0
    0.8670    2.9006   -0.0002 N   0  0  0  0  0  0  0  0  0  0  0  0
    0.1924    3.6633   -0.0017 H   0  0  0  0  0  0  0  0  0  0  0  0
    4.1544    1.4682    0.0003 C   0  0  0  0  0  0  0  0  0  0  0  0
    4.5235    0.4321    0.0007 H   0  0  0  0  0  0  0  0  0  0  0  0
    4.9873    2.5910   -0.0001 C   0  0  0  0  0  0  0  0  0  0  0  0
    6.0780    2.4483   -0.0000 H   0  0  0  0  0  0  0  0  0  0  0  0
   -4.1936   -1.2793   -0.0005 N   0  0  0  0  0  0  0  0  0  0  0  0
   -4.3598   -2.2848   -0.0011 H   0  0  0  0  0  0  0  0  0  0  0  0
   -0.5841   -0.4809   -0.0004 N   0  0  0  0  0  2  0  0  0  0  0  0
    4.4667    3.9092   -0.0006 C   0  0  0  0  0  0  0  0  0  0  0  0
    5.1613    4.7624   -0.0008 H   0  0  0  0  0  0  0  0  0  0  0  0
    3.0881    4.1545   -0.0006 C   0  0  0  0  0  0  0  0  0  0  0  0
    2.6853    5.1776   -0.0010 H   0  0  0  0  0  0  0  0  0  0  0  0
    2.2492    3.0301   -0.0003 C   0  0  0  0  0  0  0  0  0  0  0  0
    0.5663    1.5628    0.0001 C   0  0  0  0  0  0  0  0  0  0  0  0
   -0.7173    0.9007   -0.0001 C   0  0  0  0  0  0  0  0  0  0  0  0
   -1.9678    1.5353    0.0002 C   0  0  0  0  0  0  0  0  0  0  0  0
   -2.0360    2.6329    0.0007 H   0  0  0  0  0  0  0  0  0  0  0  0
   -3.1220    0.7397    0.0000 C   0  0  0  0  0  0  0  0  0  0  0  0
   -4.5478    0.9862    0.0002 C   0  0  0  0  0  0  0  0  0  0  0  0
   -5.3433    2.1488    0.0006 C   0  0  0  0  0  0  0  0  0  0  0  0
   -4.8764    3.1451    0.0009 H   0  0  0  0  0  0  0  0  0  0  0  0
   -6.7356    2.0148    0.0006 C   0  0  0  0  0  0  0  0  0  0  0  0
   -7.3709    2.9125    0.0009 H   0  0  0  0  0  0  0  0  0  0  0  0
   -7.3409    0.7360    0.0002 C   0  0  0  0  0  0  0  0  0  0  0  0
   -8.4385    0.6596    0.0003 H   0  0  0  0  0  0  0  0  0  0  0  0
   -6.5767   -0.4377   -0.0002 C   0  0  0  0  0  0  0  0  0  0  0  0
   -7.0549   -1.4280   -0.0004 H   0  0  0  0  0  0  0  0  0  0  0  0
   -5.1792   -0.3013   -0.0002 C   0  0  0  0  0  0  0  0  0  0  0  0
   -2.9491   -0.6846   -0.0004 C   0  0  0  0  0  0  0  0  0  0  0  0
   -1.6791   -1.2675   -0.0006 C   0  0  0  0  0  0  0  0  0  0  0  0
   -1.4717   -2.3532   -0.0008 H   0  0  0  0  0  0  0  0  0  0  0  0
  1  5  1  0  0  0  0
  1  2  1  0  0  0  0
  3 17  1  0  0  0  0
  4  3  1  0  0  0  0
  5  6  1  0  0  0  0
  7  8  1  0  0  0  0
  7  5  2  0  0  0  0
  9 32  1  0  0  0  0
  9 31  1  0  0  0  0
 10  9  1  0  0  0  0
 11 18  1  0  0  0  0
 12  7  1  0  0  0  0
 13 12  1  0  0  0  0
 14 12  2  0  0  0  0
 14 16  1  0  0  0  0
 15 14  1  0  0  0  0
 16  3  1  0  0  0  0
 16  1  2  0  0  0  0
 17  2  1  0  0  0  0
 18 17  2  0  0  0  0
 18 19  1  0  0  0  0
 19 20  1  0  0  0  0
 21 22  1  0  0  0  0
 21 19  2  0  0  0  0
 22 23  1  0  0  0  0
 23 25  2  0  0  0  0
 23 24  1  0  0  0  0
 25 26  1  0  0  0  0
 27 28  1  0  0  0  0
 27 25  1  0  0  0  0
 29 27  2  0  0  0  0
 30 29  1  0  0  0  0
 31 29  1  0  0  0  0
 31 22  2  0  0  0  0
 32 21  1  0  0  0  0
 33 32  2  0  0  0  0
 33 11  1  0  0  0  0
 34 33  1  0  0  0  0
M  END
