1,16
 OpenBabel05122313053D

 38 41  0  0  1  0  0  0  0  0999 V2000
   -1.9406    1.2331   -0.2771 N   0  0  0  0  0  2  0  0  0  0  0  0
   -1.8261   -1.5103    0.6775 N   0  0  0  0  0  0  0  0  0  0  0  0
   -0.0295    0.0250    1.4234 C   0  0  0  0  0  0  0  0  0  0  0  0
   -2.3078   -3.5062   -0.1571 C   0  0  0  0  0  0  0  0  0  0  0  0
   -2.6663   -4.5335   -0.2718 H   0  0  0  0  0  0  0  0  0  0  0  0
   -2.2860    0.7993    0.9598 N   0  0  0  0  0  0  0  0  0  0  0  0
   -1.9270   -0.6120    2.9652 C   0  0  0  0  0  0  0  0  0  0  0  0
   -3.0019   -0.8602    3.0604 H   0  0  0  0  0  0  0  0  0  0  0  0
   -1.6982    0.2759    3.5810 H   0  0  0  0  0  0  0  0  0  0  0  0
   -1.3165   -1.4556    3.3352 H   0  0  0  0  0  0  0  0  0  0  0  0
    2.3610   -0.6822    0.9592 C   0  0  0  0  0  0  0  0  0  0  0  0
    0.6529   -2.2569    1.5215 O   0  0  0  0  0  0  0  0  0  0  0  0
    2.1490    2.8658    1.8043 O   0  0  0  0  0  0  0  0  0  0  0  0
    2.7707    0.6659    1.0929 C   0  0  0  0  0  0  0  0  0  0  0  0
    0.9738   -1.0879    1.3002 C   0  0  0  0  0  0  0  0  0  0  0  0
   -1.3608   -1.5145   -0.5928 N   0  0  0  0  0  2  0  0  0  0  0  0
    0.3967    1.2917    1.6971 C   0  0  0  0  0  0  0  0  0  0  0  0
   -0.3026    2.1142    1.9170 H   0  0  0  0  0  0  0  0  0  0  0  0
    4.0931    1.0268    0.7846 C   0  0  0  0  0  0  0  0  0  0  0  0
    4.3818    2.0813    0.9045 H   0  0  0  0  0  0  0  0  0  0  0  0
   -1.5274   -0.3379    1.5177 C   0  0  1  0  0  0  0  0  0  0  0  0
   -3.2484    1.6044    1.5025 C   0  0  0  0  0  3  0  0  0  0  0  0
   -3.6549    1.4243    2.5016 H   0  0  0  0  0  0  0  0  0  0  0  0
   -3.5266    2.5935    0.5619 C   0  0  0  0  0  0  0  0  0  0  0  0
   -4.2467    3.4112    0.6617 H   0  0  0  0  0  0  0  0  0  0  0  0
    4.9945    0.0557    0.3308 C   0  0  0  0  0  0  0  0  0  0  0  0
    6.0253    0.3422    0.0730 H   0  0  0  0  0  0  0  0  0  0  0  0
    1.8118    1.7039    1.5683 C   0  0  0  0  0  0  0  0  0  0  0  0
   -2.4044   -2.7100    0.9794 C   0  0  0  0  0  3  0  0  0  0  0  0
   -2.8129   -2.9226    1.9703 H   0  0  0  0  0  0  0  0  0  0  0  0
    4.5856   -1.2847    0.1988 C   0  0  0  0  0  0  0  0  0  0  0  0
    5.2955   -2.0417   -0.1667 H   0  0  0  0  0  0  0  0  0  0  0  0
    3.2752   -1.6564    0.5212 C   0  0  0  0  0  0  0  0  0  0  0  0
    2.9268   -2.6943    0.4227 H   0  0  0  0  0  0  0  0  0  0  0  0
   -1.6367   -2.7151   -1.1175 C   0  0  0  0  0  0  0  0  0  0  0  0
   -1.3185   -2.9307   -2.1434 H   0  0  0  0  0  0  0  0  0  0  0  0
   -2.6783    2.3204   -0.5368 C   0  0  0  0  0  0  0  0  0  0  0  0
   -2.5299    2.8457   -1.4869 H   0  0  0  0  0  0  0  0  0  0  0  0
  1  6  1  0  0  0  0
  2 29  1  0  0  0  0
  2 21  1  0  0  0  0
  3 21  1  0  0  0  0
  3 17  2  0  0  0  0
  4 29  1  0  0  0  0
  5  4  1  0  0  0  0
  6 22  1  0  0  0  0
  6 21  1  0  0  0  0
  7  8  1  0  0  0  0
  7 10  1  0  0  0  0
  7  9  1  0  0  0  0
 11 14  1  0  0  0  0
 11 15  1  0  0  0  0
 14 28  1  0  0  0  0
 15  3  1  0  0  0  0
 15 12  2  0  0  0  0
 16  2  1  0  0  0  0
 17 18  1  0  0  0  0
 19 20  1  0  0  0  0
 19 14  2  0  0  0  0
 21  7  1  1  0  0  0
 22 23  1  0  0  0  0
 24 25  1  0  0  0  0
 24 22  1  0  0  0  0
 26 19  1  0  0  0  0
 27 26  1  0  0  0  0
 28 17  1  0  0  0  0
 28 13  2  0  0  0  0
 29 30  1  0  0  0  0
 31 26  2  0  0  0  0
 31 33  1  0  0  0  0
 32 31  1  0  0  0  0
 33 11  2  0  0  0  0
 34 33  1  0  0  0  0
 35 16  1  0  0  0  0
 35  4  2  0  0  0  0
 36 35  1  0  0  0  0
 37  1  1  0  0  0  0
 37 24  2  0  0  0  0
 38 37  1  0  0  0  0
M  END
