3,6
 OpenBabel05122313063D

 55 58  0  0  0  0  0  0  0  0999 V2000
    4.5494    1.1622    0.0499 O   0  0  0  0  0  0  0  0  0  0  0  0
    4.5495   -1.1620   -0.0495 O   0  0  0  0  0  0  0  0  0  0  0  0
   -0.3350   -1.2290   -0.3794 N   0  0  0  0  0  2  0  0  0  0  0  0
   -0.5067   -3.3633    0.7523 N   0  0  0  0  0  0  0  0  0  0  0  0
   -1.3937   -3.1328   -1.2861 N   0  0  0  0  0  0  0  0  0  0  0  0
   -0.3351    1.2290    0.3792 N   0  0  0  0  0  2  0  0  0  0  0  0
   -1.3945    3.1321    1.2864 N   0  0  0  0  0  0  0  0  0  0  0  0
   -0.5066    3.3638   -0.7515 N   0  0  0  0  0  0  0  0  0  0  0  0
    0.8934   -0.7299   -0.0964 C   0  0  0  0  0  0  0  0  0  0  0  0
    0.8933    0.7300    0.0963 C   0  0  0  0  0  0  0  0  0  0  0  0
    2.1140    1.4614    0.0735 C   0  0  0  0  0  0  0  0  0  0  0  0
    2.1343    2.5541    0.1756 H   0  0  0  0  0  0  0  0  0  0  0  0
    3.2802    0.7158    0.0276 C   0  0  0  0  0  0  0  0  0  0  0  0
    3.2802   -0.7156   -0.0274 C   0  0  0  0  0  0  0  0  0  0  0  0
    2.1141   -1.4613   -0.0734 C   0  0  0  0  0  0  0  0  0  0  0  0
    2.1344   -2.5540   -0.1753 H   0  0  0  0  0  0  0  0  0  0  0  0
   -0.6865   -2.5473   -0.3089 C   0  0  0  0  0  3  0  0  0  0  0  0
   -1.3429   -4.5666    0.5919 C   0  0  0  0  0  0  0  0  0  0  0  0
   -2.1233   -4.5700    1.3798 H   0  0  0  0  0  0  0  0  0  0  0  0
   -0.7256   -5.4818    0.6960 H   0  0  0  0  0  0  0  0  0  0  0  0
   -1.9564   -4.4041   -0.8195 C   0  0  0  0  0  0  0  0  0  0  0  0
   -1.6819   -5.2264   -1.5110 H   0  0  0  0  0  0  0  0  0  0  0  0
   -3.0625   -4.3189   -0.7858 H   0  0  0  0  0  0  0  0  0  0  0  0
   -0.1800   -2.8898    2.0890 C   0  0  0  0  0  0  0  0  0  0  0  0
    0.6520   -2.1644    2.0526 H   0  0  0  0  0  0  0  0  0  0  0  0
    0.1418   -3.7504    2.7043 H   0  0  0  0  0  0  0  0  0  0  0  0
   -1.0757   -2.4092    2.5403 H   0  0  0  0  0  0  0  0  0  0  0  0
   -1.9420   -2.4358   -2.4329 C   0  0  0  0  0  0  0  0  0  0  0  0
   -1.2919   -1.5812   -2.6898 H   0  0  0  0  0  0  0  0  0  0  0  0
   -2.9569   -2.0507   -2.1895 H   0  0  0  0  0  0  0  0  0  0  0  0
   -1.9984   -3.1252   -3.2969 H   0  0  0  0  0  0  0  0  0  0  0  0
   -0.6868    2.5472    0.3092 C   0  0  0  0  0  3  0  0  0  0  0  0
   -1.9590    4.4025    0.8193 C   0  0  0  0  0  0  0  0  0  0  0  0
   -1.6888    5.2248    1.5123 H   0  0  0  0  0  0  0  0  0  0  0  0
   -3.0648    4.3141    0.7821 H   0  0  0  0  0  0  0  0  0  0  0  0
   -1.3416    4.5678   -0.5901 C   0  0  0  0  0  0  0  0  0  0  0  0
   -2.1199    4.5747   -1.3800 H   0  0  0  0  0  0  0  0  0  0  0  0
   -0.7226    5.4823   -0.6900 H   0  0  0  0  0  0  0  0  0  0  0  0
   -1.9438    2.4337    2.4320 C   0  0  0  0  0  0  0  0  0  0  0  0
   -1.2918    1.5812    2.6910 H   0  0  0  0  0  0  0  0  0  0  0  0
   -2.9568    2.0454    2.1860 H   0  0  0  0  0  0  0  0  0  0  0  0
   -2.0046    3.1233    3.2955 H   0  0  0  0  0  0  0  0  0  0  0  0
   -0.1792    2.8912   -2.0883 C   0  0  0  0  0  0  0  0  0  0  0  0
    0.6540    2.1671   -2.0522 H   0  0  0  0  0  0  0  0  0  0  0  0
    0.1413    3.7525   -2.7033 H   0  0  0  0  0  0  0  0  0  0  0  0
   -1.0742    2.4094   -2.5397 H   0  0  0  0  0  0  0  0  0  0  0  0
    5.4419    0.0001    0.0002 C   0  0  0  0  0  0  0  0  0  0  0  0
    6.2498   -0.0567    1.2813 C   0  0  0  0  0  0  0  0  0  0  0  0
    6.8933    0.8399    1.3588 H   0  0  0  0  0  0  0  0  0  0  0  0
    6.8910   -0.9582    1.2809 H   0  0  0  0  0  0  0  0  0  0  0  0
    5.5756   -0.0937    2.1579 H   0  0  0  0  0  0  0  0  0  0  0  0
    6.2497    0.0570   -1.2811 C   0  0  0  0  0  0  0  0  0  0  0  0
    5.5754    0.0940   -2.1576 H   0  0  0  0  0  0  0  0  0  0  0  0
    6.8932   -0.8396   -1.3587 H   0  0  0  0  0  0  0  0  0  0  0  0
    6.8909    0.9585   -1.2807 H   0  0  0  0  0  0  0  0  0  0  0  0
  2 14  1  0  0  0  0
  2 47  1  0  0  0  0
  3 17  1  0  0  0  0
  3  9  1  0  0  0  0
  4 24  1  0  0  0  0
  5 21  1  0  0  0  0
  5 17  1  0  0  0  0
  7 39  1  0  0  0  0
  8 36  1  0  0  0  0
  8 32  1  0  0  0  0
  9 15  2  0  0  0  0
  9 10  1  0  0  0  0
 10  6  1  0  0  0  0
 11 10  2  0  0  0  0
 11 12  1  0  0  0  0
 13  1  1  0  0  0  0
 13 11  1  0  0  0  0
 14 13  2  0  0  0  0
 15 14  1  0  0  0  0
 16 15  1  0  0  0  0
 17  4  1  0  0  0  0
 18 20  1  0  0  0  0
 18  4  1  0  0  0  0
 18 19  1  0  0  0  0
 21 23  1  0  0  0  0
 21 18  1  0  0  0  0
 22 21  1  0  0  0  0
 24 27  1  0  0  0  0
 24 26  1  0  0  0  0
 25 24  1  0  0  0  0
 28 30  1  0  0  0  0
 28  5  1  0  0  0  0
 29 28  1  0  0  0  0
 31 28  1  0  0  0  0
 32  6  1  0  0  0  0
 32  7  1  0  0  0  0
 33  7  1  0  0  0  0
 33 34  1  0  0  0  0
 35 33  1  0  0  0  0
 36 33  1  0  0  0  0
 37 36  1  0  0  0  0
 38 36  1  0  0  0  0
 39 40  1  0  0  0  0
 39 42  1  0  0  0  0
 41 39  1  0  0  0  0
 43 44  1  0  0  0  0
 43  8  1  0  0  0  0
 45 43  1  0  0  0  0
 46 43  1  0  0  0  0
 47  1  1  0  0  0  0
 47 48  1  0  0  0  0
 48 49  1  0  0  0  0
 48 51  1  0  0  0  0
 50 48  1  0  0  0  0
 52 55  1  0  0  0  0
 52 47  1  0  0  0  0
 53 52  1  0  0  0  0
 54 52  1  0  0  0  0
M  END
