3,5
 OpenBabel05122313063D

 34 35  0  0  1  0  0  0  0  0999 V2000
    5.1652    1.1740   -0.4342 Br  0  0  0  0  0  0  0  0  0  0  0  0
   -5.1652    1.1741   -0.4341 Br  0  0  0  0  0  0  0  0  0  0  0  0
    1.3597   -0.1437    0.1216 N   0  0  0  0  0  2  0  0  0  0  0  0
    1.1918    1.2029    0.2795 N   0  0  0  0  0  0  0  0  0  0  0  0
   -1.3597   -0.1437    0.1216 N   0  0  0  0  0  2  0  0  0  0  0  0
   -1.1918    1.2029    0.2795 N   0  0  0  0  0  0  0  0  0  0  0  0
    3.1921   -1.7311   -0.4105 C   0  0  0  0  0  0  0  0  0  0  0  0
    2.8207   -2.4429    0.3565 H   0  0  0  0  0  0  0  0  0  0  0  0
    4.2979   -1.7283   -0.3922 H   0  0  0  0  0  0  0  0  0  0  0  0
    2.8465   -2.0956   -1.4002 H   0  0  0  0  0  0  0  0  0  0  0  0
    2.6700   -0.3644   -0.1398 C   0  0  1  0  0  3  0  0  0  0  0  0
    3.3374    0.8903   -0.1169 C   0  0  0  0  0  0  0  0  0  0  0  0
    2.3917    1.8767    0.1643 C   0  0  0  0  0  0  0  0  0  0  0  0
    2.5306    3.3488    0.3314 C   0  0  0  0  0  0  0  0  0  0  0  0
    1.8685    3.9116   -0.3602 H   0  0  0  0  0  0  0  0  0  0  0  0
    3.5749    3.6360    0.1070 H   0  0  0  0  0  0  0  0  0  0  0  0
    2.3069    3.6844    1.3669 H   0  0  0  0  0  0  0  0  0  0  0  0
   -3.1921   -1.7311   -0.4106 C   0  0  0  0  0  0  0  0  0  0  0  0
   -2.8206   -2.4429    0.3562 H   0  0  0  0  0  0  0  0  0  0  0  0
   -2.8465   -2.0954   -1.4004 H   0  0  0  0  0  0  0  0  0  0  0  0
   -4.2978   -1.7283   -0.3922 H   0  0  0  0  0  0  0  0  0  0  0  0
   -2.6699   -0.3644   -0.1398 C   0  0  2  0  0  3  0  0  0  0  0  0
   -3.3374    0.8904   -0.1168 C   0  0  0  0  0  0  0  0  0  0  0  0
   -2.3916    1.8768    0.1644 C   0  0  0  0  0  0  0  0  0  0  0  0
   -2.5306    3.3488    0.3315 C   0  0  0  0  0  0  0  0  0  0  0  0
   -2.3068    3.6843    1.3671 H   0  0  0  0  0  0  0  0  0  0  0  0
   -3.5749    3.6360    0.1072 H   0  0  0  0  0  0  0  0  0  0  0  0
   -1.8685    3.9116   -0.3600 H   0  0  0  0  0  0  0  0  0  0  0  0
    0.0000    1.6971    0.9527 C   0  0  1  0  0  0  0  0  0  0  0  0
    0.0000    2.7930    0.7990 H   0  0  0  0  0  0  0  0  0  0  0  0
    0.0000    1.3664    2.4484 C   0  0  0  0  0  0  0  0  0  0  0  0
   -0.9012    1.7953    2.9282 H   0  0  0  0  0  0  0  0  0  0  0  0
    0.9012    1.7954    2.9282 H   0  0  0  0  0  0  0  0  0  0  0  0
    0.0000    0.2672    2.5932 H   0  0  0  0  0  0  0  0  0  0  0  0
  1 12  1  0  0  0  0
  2 23  1  0  0  0  0
  3  4  1  0  0  0  0
  4 29  1  0  0  0  0
  5  6  1  0  0  0  0
  6 29  1  0  0  0  0
  7  9  1  0  0  0  0
  7  8  1  0  0  0  0
 10  7  1  0  0  0  0
 11  7  1  6  0  0  0
 11 12  1  0  0  0  0
 11  3  1  0  0  0  0
 12 13  2  0  0  0  0
 13  4  1  0  0  0  0
 13 14  1  0  0  0  0
 14 17  1  0  0  0  0
 15 14  1  0  0  0  0
 16 14  1  0  0  0  0
 18 21  1  0  0  0  0
 18 19  1  0  0  0  0
 20 18  1  0  0  0  0
 22 18  1  6  0  0  0
 22 23  1  0  0  0  0
 22  5  1  0  0  0  0
 23 24  2  0  0  0  0
 24  6  1  0  0  0  0
 24 25  1  0  0  0  0
 25 26  1  0  0  0  0
 27 25  1  0  0  0  0
 28 25  1  0  0  0  0
 29 30  1  6  0  0  0
 29 31  1  0  0  0  0
 31 34  1  0  0  0  0
 31 33  1  0  0  0  0
 31 32  1  0  0  0  0
M  END
