1,2
 OpenBabel05122313063D

 23 24  0  0  0  0  0  0  0  0999 V2000
   -2.2194    1.5664   -0.3434 N   0  0  0  0  0  2  0  0  0  0  0  0
    0.3033    2.1186   -0.9372 N   0  0  0  0  0  2  0  0  0  0  0  0
    3.6032    1.4800   -2.4019 N   0  0  0  0  0  0  0  0  0  0  0  0
   -3.5093    1.2566   -0.1281 C   0  0  0  0  0  3  0  0  0  0  0  0
   -3.7891    0.2091   -0.3287 H   0  0  0  0  0  0  0  0  0  0  0  0
   -4.4458    2.1955    0.3228 C   0  0  0  0  0  0  0  0  0  0  0  0
   -5.4880    1.8917    0.4964 H   0  0  0  0  0  0  0  0  0  0  0  0
   -4.0240    3.5208    0.5472 C   0  0  0  0  0  0  0  0  0  0  0  0
   -4.7362    4.2829    0.8968 H   0  0  0  0  0  0  0  0  0  0  0  0
   -2.6880    3.8548    0.3117 C   0  0  0  0  0  0  0  0  0  0  0  0
   -2.3191    4.8805    0.4633 H   0  0  0  0  0  0  0  0  0  0  0  0
   -1.8009    2.8525   -0.1385 C   0  0  0  0  0  0  0  0  0  0  0  0
   -0.3897    3.0878   -0.3930 C   0  0  0  0  0  3  0  0  0  0  0  0
    0.0585    4.0651   -0.1279 H   0  0  0  0  0  0  0  0  0  0  0  0
    1.6951    2.1869   -1.0810 C   0  0  0  0  0  0  0  0  0  0  0  0
    2.5495    2.8025   -0.1426 C   0  0  0  0  0  0  0  0  0  0  0  0
    2.1369    3.2607    0.7691 H   0  0  0  0  0  0  0  0  0  0  0  0
    3.9299    2.7483   -0.3654 C   0  0  0  0  0  0  0  0  0  0  0  0
    4.6331    3.1971    0.3523 H   0  0  0  0  0  0  0  0  0  0  0  0
    4.4066    2.0789   -1.5049 C   0  0  0  0  0  0  0  0  0  0  0  0
    5.4927    2.0070   -1.6932 H   0  0  0  0  0  0  0  0  0  0  0  0
    2.2851    1.5279   -2.1896 C   0  0  0  0  0  0  0  0  0  0  0  0
    1.6208    1.0262   -2.9177 H   0  0  0  0  0  0  0  0  0  0  0  0
  1 12  1  0  0  0  0
  1  4  1  0  0  0  0
  2 13  1  0  0  0  0
  3 22  2  0  0  0  0
  3 20  1  0  0  0  0
  4  6  1  0  0  0  0
  5  4  1  0  0  0  0
  6  7  1  0  0  0  0
  6  8  2  0  0  0  0
  8  9  1  0  0  0  0
 10 11  1  0  0  0  0
 10  8  1  0  0  0  0
 12 10  2  0  0  0  0
 13 12  1  0  0  0  0
 13 14  1  0  0  0  0
 15  2  1  0  0  0  0
 15 16  2  0  0  0  0
 16 17  1  0  0  0  0
 18 16  1  0  0  0  0
 18 19  1  0  0  0  0
 20 18  2  0  0  0  0
 21 20  1  0  0  0  0
 22 15  1  0  0  0  0
 23 22  1  0  0  0  0
M  END
