24,26
 OpenBabel05122313063D

 31 32  0  0  1  0  0  0  0  0999 V2000
   -1.6130    2.4230   -0.1379 C   0  0  0  0  0  0  0  0  0  0  0  0
   -2.4902    1.8794   -1.0975 C   0  0  0  0  0  0  0  0  0  0  0  0
   -2.1378    1.0634   -1.7448 H   0  0  0  0  0  0  0  0  0  0  0  0
   -3.7921    2.3756   -1.2293 C   0  0  0  0  0  0  0  0  0  0  0  0
   -4.4784    1.9611   -1.9809 H   0  0  0  0  0  0  0  0  0  0  0  0
   -4.2225    3.4187   -0.3899 C   0  0  0  0  0  0  0  0  0  0  0  0
   -3.3492    3.9809    0.5591 C   0  0  0  0  0  0  0  0  0  0  0  0
   -3.6989    4.8021    1.2003 H   0  0  0  0  0  0  0  0  0  0  0  0
   -2.0446    3.4894    0.6776 C   0  0  0  0  0  0  0  0  0  0  0  0
   -1.3336    3.9268    1.3927 H   0  0  0  0  0  0  0  0  0  0  0  0
    1.9118    2.5569    0.1182 C   0  0  0  0  0  0  0  0  0  0  0  0
    2.7743    3.6933    0.4783 C   0  0  0  0  0  0  0  0  0  0  0  0
    4.6923    2.4140   -0.5026 C   0  0  0  0  0  0  0  0  0  0  0  0
    2.4619    1.3561   -0.4620 C   0  0  1  0  0  3  0  0  0  0  0  0
    5.0844    4.5820    0.4892 C   0  0  0  0  0  0  0  0  0  0  0  0
    5.5487    4.9892   -0.4296 H   0  0  0  0  0  0  0  0  0  0  0  0
    4.5033    5.3641    1.0072 H   0  0  0  0  0  0  0  0  0  0  0  0
    5.8927    4.1960    1.1394 H   0  0  0  0  0  0  0  0  0  0  0  0
    4.3719    0.1982   -1.5010 C   0  0  0  0  0  0  0  0  0  0  0  0
    3.8641    0.0393   -2.4750 H   0  0  0  0  0  0  0  0  0  0  0  0
    5.4384    0.4189   -1.6766 H   0  0  0  0  0  0  0  0  0  0  0  0
    4.2872   -0.7193   -0.8833 H   0  0  0  0  0  0  0  0  0  0  0  0
   -5.8521    4.0199   -0.5283 Cl  0  0  0  0  0  0  0  0  0  0  0  0
    1.6930    0.3141   -0.7141 N   0  0  0  0  0  2  0  0  0  0  0  0
    2.1739   -0.4744   -1.1587 H   0  0  0  0  0  0  0  0  0  0  0  0
   -0.2945    1.8834   -0.0167 N   0  0  0  0  0  2  0  0  0  0  0  0
    0.5987    2.7907    0.1877 N   0  0  0  0  0  0  0  0  0  0  0  0
    4.1484    3.5101    0.1554 N   0  0  0  0  0  0  0  0  0  0  0  0
    3.8053    1.3515   -0.8075 N   0  0  0  0  0  0  0  0  0  0  0  0
    2.3847    4.7200    1.0183 O   0  0  0  0  0  0  0  0  0  0  0  0
    5.8798    2.3555   -0.7961 O   0  0  0  0  0  0  0  0  0  0  0  0
  1 26  1  0  0  0  0
  1  9  1  0  0  0  0
  2  1  2  0  0  0  0
  3  2  1  0  0  0  0
  4  2  1  0  0  0  0
  4  6  2  0  0  0  0
  5  4  1  0  0  0  0
  6  7  1  0  0  0  0
  7  9  2  0  0  0  0
  7  8  1  0  0  0  0
  9 10  1  0  0  0  0
 11 27  2  0  0  0  0
 11 12  1  0  0  0  0
 12 30  2  0  0  0  0
 13 28  1  0  0  0  0
 14 24  1  6  0  0  0
 14 11  1  0  0  0  0
 15 17  1  0  0  0  0
 15 18  1  0  0  0  0
 16 15  1  0  0  0  0
 19 22  1  0  0  0  0
 19 29  1  0  0  0  0
 20 19  1  0  0  0  0
 21 19  1  0  0  0  0
 23  6  1  0  0  0  0
 25 24  1  0  0  0  0
 26 27  1  0  0  0  0
 28 12  1  0  0  0  0
 28 15  1  0  0  0  0
 29 13  1  0  0  0  0
 29 14  1  0  0  0  0
 31 13  2  0  0  0  0
M  END
