2,3
 OpenBabel05122313063D

 19 18  0  0  1  0  0  0  0  0999 V2000
   -2.6594    2.5517   -0.3566 O   0  0  0  0  0  0  0  0  0  0  0  0
   -0.5979    1.5525   -0.0605 N   0  0  0  0  0  2  0  0  0  0  0  0
   -1.5642   -0.8990   -0.0491 N   0  0  0  0  0  0  0  0  0  0  0  0
   -1.9292    1.5578   -0.3040 C   0  0  0  0  0  0  0  0  0  0  0  0
   -2.5037    0.1391   -0.5714 C   0  0  2  0  0  0  0  0  0  0  0  0
   -3.9411   -0.0077   -0.0475 C   0  0  0  0  0  0  0  0  0  0  0  0
   -4.6102   -1.2916   -0.5492 C   0  0  0  0  0  0  0  0  0  0  0  0
   -4.0169    0.1296    1.4785 C   0  0  0  0  0  0  0  0  0  0  0  0
   -0.1572    2.4713    0.0698 H   0  0  0  0  0  0  0  0  0  0  0  0
   -1.6075   -1.7836   -0.5757 H   0  0  0  0  0  0  0  0  0  0  0  0
   -1.8014   -1.1294    0.9294 H   0  0  0  0  0  0  0  0  0  0  0  0
   -2.5081    0.0201   -1.6761 H   0  0  0  0  0  0  0  0  0  0  0  0
   -4.4585    0.8743   -0.4821 H   0  0  0  0  0  0  0  0  0  0  0  0
   -4.5788   -1.3647   -1.6558 H   0  0  0  0  0  0  0  0  0  0  0  0
   -4.1219   -2.2014   -0.1365 H   0  0  0  0  0  0  0  0  0  0  0  0
   -5.6736   -1.3325   -0.2394 H   0  0  0  0  0  0  0  0  0  0  0  0
   -5.0706    0.0992    1.8197 H   0  0  0  0  0  0  0  0  0  0  0  0
   -3.4963   -0.6996    2.0087 H   0  0  0  0  0  0  0  0  0  0  0  0
   -3.5792    1.0905    1.8125 H   0  0  0  0  0  0  0  0  0  0  0  0
  1  4  2  0  0  0  0
  2  9  1  0  0  0  0
  3 11  1  0  0  0  0
  4  2  1  0  0  0  0
  5 12  1  6  0  0  0
  5  4  1  0  0  0  0
  5  3  1  0  0  0  0
  5  6  1  0  0  0  0
  6  8  1  0  0  0  0
  7 16  1  0  0  0  0
  7 15  1  0  0  0  0
  7  6  1  0  0  0  0
  8 19  1  0  0  0  0
  8 17  1  0  0  0  0
  8 18  1  0  0  0  0
 10  3  1  0  0  0  0
 13  6  1  0  0  0  0
 14  7  1  0  0  0  0
M  END
