2,3
 OpenBabel05122313063D

 13 12  0  0  1  0  0  0  0  0999 V2000
    3.9969   -0.9738    0.1810 O   0  0  0  0  0  0  0  0  0  0  0  0
    1.7118   -1.2391   -0.0745 N   0  0  0  0  0  2  0  0  0  0  0  0
    1.2357    1.3315   -0.1963 N   0  0  0  0  0  0  0  0  0  0  0  0
    2.8491   -0.5302    0.1362 C   0  0  0  0  0  0  0  0  0  0  0  0
    2.5711    0.9839    0.3755 C   0  0  1  0  0  0  0  0  0  0  0  0
    3.6966    1.8561   -0.1549 C   0  0  0  0  0  0  0  0  0  0  0  0
    1.8327   -2.2520   -0.1882 H   0  0  0  0  0  0  0  0  0  0  0  0
    1.3410    1.5536   -1.1997 H   0  0  0  0  0  0  0  0  0  0  0  0
    0.7933    2.1634    0.2312 H   0  0  0  0  0  0  0  0  0  0  0  0
    2.4747    1.1042    1.4756 H   0  0  0  0  0  0  0  0  0  0  0  0
    3.6020    2.9122    0.1668 H   0  0  0  0  0  0  0  0  0  0  0  0
    4.6519    1.4394    0.2190 H   0  0  0  0  0  0  0  0  0  0  0  0
    3.7389    1.8182   -1.2639 H   0  0  0  0  0  0  0  0  0  0  0  0
  2  4  1  0  0  0  0
  3  9  1  0  0  0  0
  3  5  1  0  0  0  0
  4  1  2  0  0  0  0
  4  5  1  0  0  0  0
  5 10  1  1  0  0  0
  6 11  1  0  0  0  0
  6 12  1  0  0  0  0
  6  5  1  0  0  0  0
  7  2  1  0  0  0  0
  8  3  1  0  0  0  0
 13  6  1  0  0  0  0
M  END
