2,3
 OpenBabel05122313063D

 66 69  0  0  1  0  0  0  0  0999 V2000
    1.4088   -0.4397    0.6946 P   0  0  0  0  0  4  0  0  0  0  0  0
    0.2226    0.3336   -0.1202 N   0  0  0  0  0  2  0  0  0  0  0  0
   -1.6243   -1.6724    1.2412 N   0  0  0  0  0  0  0  0  0  0  0  0
   -2.2847   -2.4030    0.8959 H   0  0  0  0  0  0  0  0  0  0  0  0
    0.6845   -1.3637    2.1183 C   0  0  0  0  0  0  0  0  0  0  0  0
    1.5298   -1.8881    2.6086 H   0  0  0  0  0  0  0  0  0  0  0  0
    0.3739   -0.5626    2.8194 H   0  0  0  0  0  0  0  0  0  0  0  0
   -0.4634   -2.3549    1.8692 C   0  0  2  0  0  0  0  0  0  0  0  0
   -0.7792   -2.7075    2.8814 H   0  0  0  0  0  0  0  0  0  0  0  0
   -2.3697   -0.7682    2.1805 C   0  0  2  0  0  0  0  0  0  0  0  0
   -1.6307   -0.3981    2.9198 H   0  0  0  0  0  0  0  0  0  0  0  0
   -3.4446   -1.5745    2.9243 C   0  0  0  0  0  0  0  0  0  0  0  0
   -3.0087   -2.4498    3.4493 H   0  0  0  0  0  0  0  0  0  0  0  0
   -4.2107   -1.9384    2.2098 H   0  0  0  0  0  0  0  0  0  0  0  0
   -3.9544   -0.9408    3.6753 H   0  0  0  0  0  0  0  0  0  0  0  0
   -0.0504   -3.5797    1.0538 C   0  0  0  0  0  0  0  0  0  0  0  0
   -0.9008   -4.2811    0.9482 H   0  0  0  0  0  0  0  0  0  0  0  0
    0.7858   -4.1069    1.5534 H   0  0  0  0  0  0  0  0  0  0  0  0
    0.2654   -3.2931    0.0312 H   0  0  0  0  0  0  0  0  0  0  0  0
    2.4816    0.7900    1.5231 C   0  0  0  0  0  0  0  0  0  0  0  0
    1.8282    1.8622    2.1692 C   0  0  0  0  0  0  0  0  0  0  0  0
    0.7295    1.9339    2.1342 H   0  0  0  0  0  0  0  0  0  0  0  0
    2.5816    2.8522    2.8118 C   0  0  0  0  0  0  0  0  0  0  0  0
    2.0706    3.6924    3.3053 H   0  0  0  0  0  0  0  0  0  0  0  0
    3.9851    2.7817    2.8104 C   0  0  0  0  0  0  0  0  0  0  0  0
    4.5751    3.5634    3.3122 H   0  0  0  0  0  0  0  0  0  0  0  0
    4.6349    1.7228    2.1584 C   0  0  0  0  0  0  0  0  0  0  0  0
    5.7341    1.6735    2.1448 H   0  0  0  0  0  0  0  0  0  0  0  0
    3.8871    0.7272    1.5102 C   0  0  0  0  0  0  0  0  0  0  0  0
    4.4000   -0.0882    0.9796 H   0  0  0  0  0  0  0  0  0  0  0  0
    2.4634   -1.5940   -0.2447 C   0  0  0  0  0  0  0  0  0  0  0  0
    2.3036   -1.6518   -1.6439 C   0  0  0  0  0  0  0  0  0  0  0  0
    1.5345   -1.0369   -2.1474 H   0  0  0  0  0  0  0  0  0  0  0  0
    3.0831   -2.5525   -2.3864 C   0  0  0  0  0  0  0  0  0  0  0  0
    2.9450   -2.6068   -3.4765 H   0  0  0  0  0  0  0  0  0  0  0  0
    4.0116   -3.3870   -1.7457 C   0  0  0  0  0  0  0  0  0  0  0  0
    4.6148   -4.0948   -2.3345 H   0  0  0  0  0  0  0  0  0  0  0  0
    4.1661   -3.3306   -0.3497 C   0  0  0  0  0  0  0  0  0  0  0  0
    4.8888   -3.9897    0.1546 H   0  0  0  0  0  0  0  0  0  0  0  0
    3.3912   -2.4384    0.4043 C   0  0  0  0  0  0  0  0  0  0  0  0
    3.5140   -2.4071    1.4985 H   0  0  0  0  0  0  0  0  0  0  0  0
    0.4112    1.5596   -0.8044 C   0  0  0  0  0  0  0  0  0  0  0  0
    1.6547    1.9859   -1.3137 C   0  0  0  0  0  0  0  0  0  0  0  0
    2.5318    1.3246   -1.2508 H   0  0  0  0  0  0  0  0  0  0  0  0
    1.7859    3.2454   -1.9176 C   0  0  0  0  0  0  0  0  0  0  0  0
    2.7713    3.5556   -2.3008 H   0  0  0  0  0  0  0  0  0  0  0  0
    0.6847    4.1077   -2.0646 C   0  0  0  0  0  0  0  0  0  0  0  0
   -0.5637    3.6561   -1.5802 C   0  0  0  0  0  0  0  0  0  0  0  0
   -1.4530    4.2980   -1.6901 H   0  0  0  0  0  0  0  0  0  0  0  0
   -0.7034    2.4125   -0.9631 C   0  0  0  0  0  0  0  0  0  0  0  0
   -1.6813    2.0715   -0.6015 H   0  0  0  0  0  0  0  0  0  0  0  0
    0.8144    5.4507   -2.7382 C   0  0  0  0  0  0  0  0  0  0  0  0
    0.4053    6.2664   -2.1058 H   0  0  0  0  0  0  0  0  0  0  0  0
    0.2527    5.4783   -3.6964 H   0  0  0  0  0  0  0  0  0  0  0  0
    1.8710    5.6942   -2.9642 H   0  0  0  0  0  0  0  0  0  0  0  0
   -2.9642    0.4574    1.5107 C   0  0  0  0  0  0  0  0  0  0  0  0
   -2.7405    1.7271    2.0744 C   0  0  0  0  0  0  0  0  0  0  0  0
   -2.0913    1.8190    2.9611 H   0  0  0  0  0  0  0  0  0  0  0  0
   -3.3284    2.8750    1.5198 C   0  0  0  0  0  0  0  0  0  0  0  0
   -3.1356    3.8615    1.9676 H   0  0  0  0  0  0  0  0  0  0  0  0
   -4.1450    2.7612    0.3846 C   0  0  0  0  0  0  0  0  0  0  0  0
   -4.5988    3.6590   -0.0619 H   0  0  0  0  0  0  0  0  0  0  0  0
   -4.3700    1.4979   -0.1875 C   0  0  0  0  0  0  0  0  0  0  0  0
   -4.9945    1.4010   -1.0880 H   0  0  0  0  0  0  0  0  0  0  0  0
   -3.7917    0.3493    0.3735 C   0  0  0  0  0  0  0  0  0  0  0  0
   -3.9646   -0.6318   -0.0978 H   0  0  0  0  0  0  0  0  0  0  0  0
  1 20  1  0  0  0  0
  1  5  1  0  0  0  0
  2  1  1  0  0  0  0
  3  8  1  0  0  0  0
  3 10  1  0  0  0  0
  4  3  1  0  0  0  0
  5  6  1  0  0  0  0
  5  7  1  0  0  0  0
  8  5  1  0  0  0  0
  8  9  1  1  0  0  0
 10 11  1  1  0  0  0
 10 12  1  0  0  0  0
 12 13  1  0  0  0  0
 12 15  1  0  0  0  0
 14 12  1  0  0  0  0
 16 18  1  0  0  0  0
 16  8  1  0  0  0  0
 17 16  1  0  0  0  0
 19 16  1  0  0  0  0
 20 21  1  0  0  0  0
 21 23  2  0  0  0  0
 22 21  1  0  0  0  0
 23 24  1  0  0  0  0
 25 23  1  0  0  0  0
 25 26  1  0  0  0  0
 27 25  2  0  0  0  0
 28 27  1  0  0  0  0
 29 20  2  0  0  0  0
 29 27  1  0  0  0  0
 30 29  1  0  0  0  0
 31 40  1  0  0  0  0
 31  1  1  0  0  0  0
 32 31  2  0  0  0  0
 33 32  1  0  0  0  0
 34 36  2  0  0  0  0
 34 32  1  0  0  0  0
 35 34  1  0  0  0  0
 36 38  1  0  0  0  0
 37 36  1  0  0  0  0
 38 39  1  0  0  0  0
 38 40  2  0  0  0  0
 40 41  1  0  0  0  0
 42  2  1  0  0  0  0
 43 44  1  0  0  0  0
 43 42  2  0  0  0  0
 45 43  1  0  0  0  0
 46 45  1  0  0  0  0
 47 45  2  0  0  0  0
 47 48  1  0  0  0  0
 48 50  2  0  0  0  0
 49 48  1  0  0  0  0
 50 42  1  0  0  0  0
 50 51  1  0  0  0  0
 52 53  1  0  0  0  0
 52 47  1  0  0  0  0
 54 52  1  0  0  0  0
 55 52  1  0  0  0  0
 56 57  1  0  0  0  0
 56 10  1  0  0  0  0
 57 58  1  0  0  0  0
 59 60  1  0  0  0  0
 59 57  2  0  0  0  0
 61 59  1  0  0  0  0
 62 61  1  0  0  0  0
 63 65  1  0  0  0  0
 63 61  2  0  0  0  0
 64 63  1  0  0  0  0
 65 56  2  0  0  0  0
 66 65  1  0  0  0  0
M  END
