3,4
 OpenBabel05122313063D

 53 53  0  0  0  0  0  0  0  0999 V2000
  -12.4276    1.4479   -0.2654 O   0  0  0  0  0  0  0  0  0  0  0  0
  -13.4427   -0.5683   -0.0502 O   0  0  0  0  0  0  0  0  0  0  0  0
    5.3972    1.2568   -0.0291 N   0  0  0  0  0  2  0  0  0  0  0  0
    2.9773    0.3207    0.1767 N   0  0  0  0  0  2  0  0  0  0  0  0
    6.6841    1.6593   -0.1241 C   0  0  0  0  0  0  0  0  0  0  0  0
    7.4172    0.8371   -0.1846 H   0  0  0  0  0  0  0  0  0  0  0  0
    7.0262    3.0149   -0.1484 C   0  0  0  0  0  0  0  0  0  0  0  0
    8.0857    3.2968   -0.2272 H   0  0  0  0  0  0  0  0  0  0  0  0
    6.0158    3.9899   -0.0741 C   0  0  0  0  0  0  0  0  0  0  0  0
    6.2656    5.0606   -0.0938 H   0  0  0  0  0  0  0  0  0  0  0  0
    4.6842    3.5735    0.0253 C   0  0  0  0  0  0  0  0  0  0  0  0
    3.8591    4.2975    0.0864 H   0  0  0  0  0  0  0  0  0  0  0  0
    4.3939    2.1978    0.0483 C   0  0  0  0  0  0  0  0  0  0  0  0
    3.0696    1.6307    0.1643 C   0  0  0  0  0  0  0  0  0  0  0  0
    2.1848    2.2785    0.2559 H   0  0  0  0  0  0  0  0  0  0  0  0
    1.6909   -0.3600    0.3467 C   0  0  0  0  0  0  0  0  0  0  0  0
    1.7193   -0.8276    1.3553 H   0  0  0  0  0  0  0  0  0  0  0  0
    1.7098   -1.2285   -0.3439 H   0  0  0  0  0  0  0  0  0  0  0  0
    0.4337    0.4831    0.1697 C   0  0  0  0  0  0  0  0  0  0  0  0
    0.4572    0.9879   -0.8219 H   0  0  0  0  0  0  0  0  0  0  0  0
    0.3871    1.2903    0.9344 H   0  0  0  0  0  0  0  0  0  0  0  0
   -0.8340   -0.3717    0.2756 C   0  0  0  0  0  0  0  0  0  0  0  0
   -0.7968   -1.1779   -0.4901 H   0  0  0  0  0  0  0  0  0  0  0  0
   -0.8457   -0.8934    1.2585 H   0  0  0  0  0  0  0  0  0  0  0  0
   -2.1267    0.4311    0.1102 C   0  0  0  0  0  0  0  0  0  0  0  0
   -2.1612    1.2378    0.8774 H   0  0  0  0  0  0  0  0  0  0  0  0
   -2.1120    0.9545   -0.8727 H   0  0  0  0  0  0  0  0  0  0  0  0
   -3.3956   -0.4190    0.2124 C   0  0  0  0  0  0  0  0  0  0  0  0
   -3.4083   -0.9438    1.1944 H   0  0  0  0  0  0  0  0  0  0  0  0
   -3.3604   -1.2251   -0.5548 H   0  0  0  0  0  0  0  0  0  0  0  0
   -4.6903    0.3811    0.0484 C   0  0  0  0  0  0  0  0  0  0  0  0
   -4.6769    0.9059   -0.9338 H   0  0  0  0  0  0  0  0  0  0  0  0
   -4.7246    1.1876    0.8156 H   0  0  0  0  0  0  0  0  0  0  0  0
   -5.9600   -0.4680    0.1506 C   0  0  0  0  0  0  0  0  0  0  0  0
   -5.9262   -1.2739   -0.6173 H   0  0  0  0  0  0  0  0  0  0  0  0
   -5.9727   -0.9938    1.1322 H   0  0  0  0  0  0  0  0  0  0  0  0
   -7.2544    0.3327   -0.0119 C   0  0  0  0  0  0  0  0  0  0  0  0
   -7.2422    0.8587   -0.9933 H   0  0  0  0  0  0  0  0  0  0  0  0
   -7.2887    1.1384    0.7560 H   0  0  0  0  0  0  0  0  0  0  0  0
   -8.5250   -0.5149    0.0901 C   0  0  0  0  0  0  0  0  0  0  0  0
   -8.5376   -1.0425    1.0710 H   0  0  0  0  0  0  0  0  0  0  0  0
   -8.4927   -1.3202   -0.6788 H   0  0  0  0  0  0  0  0  0  0  0  0
   -9.8135    0.2940   -0.0708 C   0  0  0  0  0  0  0  0  0  0  0  0
   -9.8105    0.8236   -1.0477 H   0  0  0  0  0  0  0  0  0  0  0  0
   -9.8565    1.0986    0.6941 H   0  0  0  0  0  0  0  0  0  0  0  0
  -11.0756   -0.5577    0.0313 C   0  0  0  0  0  0  0  0  0  0  0  0
  -11.0894   -1.3621   -0.7364 H   0  0  0  0  0  0  0  0  0  0  0  0
  -11.1245   -1.0960    1.0036 H   0  0  0  0  0  0  0  0  0  0  0  0
  -12.3542    0.2430   -0.1139 C   0  0  0  0  0  0  0  0  0  0  0  0
  -14.7058    0.0947   -0.1720 C   0  0  0  0  0  0  0  0  0  0  0  0
  -14.8426    0.8409    0.6371 H   0  0  0  0  0  0  0  0  0  0  0  0
  -15.4760   -0.6940   -0.1014 H   0  0  0  0  0  0  0  0  0  0  0  0
  -14.7843    0.6247   -1.1430 H   0  0  0  0  0  0  0  0  0  0  0  0
  1 49  2  0  0  0  0
  3 13  1  0  0  0  0
  4 16  1  0  0  0  0
  5  3  1  0  0  0  0
  6  5  1  0  0  0  0
  7  5  2  0  0  0  0
  7  9  1  0  0  0  0
  8  7  1  0  0  0  0
  9 11  2  0  0  0  0
 10  9  1  0  0  0  0
 11 13  1  0  0  0  0
 11 12  1  0  0  0  0
 13 14  2  0  0  0  0
 14  4  1  0  0  0  0
 14 15  1  0  0  0  0
 16 17  1  0  0  0  0
 18 16  1  0  0  0  0
 19 22  1  0  0  0  0
 19 16  1  0  0  0  0
 19 21  1  0  0  0  0
 20 19  1  0  0  0  0
 22 24  1  0  0  0  0
 23 22  1  0  0  0  0
 25 28  1  0  0  0  0
 25 22  1  0  0  0  0
 25 26  1  0  0  0  0
 27 25  1  0  0  0  0
 28 29  1  0  0  0  0
 30 28  1  0  0  0  0
 31 34  1  0  0  0  0
 31 28  1  0  0  0  0
 31 33  1  0  0  0  0
 32 31  1  0  0  0  0
 34 36  1  0  0  0  0
 35 34  1  0  0  0  0
 37 40  1  0  0  0  0
 37 34  1  0  0  0  0
 37 39  1  0  0  0  0
 38 37  1  0  0  0  0
 40 41  1  0  0  0  0
 42 40  1  0  0  0  0
 43 46  1  0  0  0  0
 43 40  1  0  0  0  0
 43 45  1  0  0  0  0
 44 43  1  0  0  0  0
 46 48  1  0  0  0  0
 47 46  1  0  0  0  0
 49  2  1  0  0  0  0
 49 46  1  0  0  0  0
 50 52  1  0  0  0  0
 50  2  1  0  0  0  0
 50 51  1  0  0  0  0
 53 50  1  0  0  0  0
M  END
