3,4
 OpenBabel05122313063D

 29 30  0  0  1  0  0  0  0  0999 V2000
   -2.9982   -3.0858    2.4903 O   0  0  0  0  0  0  0  0  0  0  0  0
   -1.7237   -2.3855    0.7395 O   0  0  0  0  0  0  0  0  0  0  0  0
    1.9895    1.5203    0.1224 N   0  0  0  0  0  2  0  0  0  0  0  0
    0.1636    0.1997    1.6469 N   0  0  0  0  0  2  0  0  0  0  0  0
    1.6111   -0.7513    2.9633 N   0  0  0  0  0  0  0  0  0  0  0  0
    0.4200   -1.2361    3.3628 N   0  0  0  0  0  0  0  0  0  0  0  0
    2.8043    2.2774   -0.6295 C   0  0  0  0  0  3  0  0  0  0  0  0
    4.1778    2.3857   -0.3613 C   0  0  0  0  0  0  0  0  0  0  0  0
    4.7048    1.6953    0.7402 C   0  0  0  0  0  0  0  0  0  0  0  0
    3.8501    0.9217    1.5383 C   0  0  0  0  0  0  0  0  0  0  0  0
    2.4898    0.8568    1.1915 C   0  0  0  0  0  0  0  0  0  0  0  0
    1.4714    0.1093    1.9294 C   0  0  2  0  0  3  0  0  0  0  0  0
   -0.4490   -0.6390    2.5394 C   0  0  0  0  0  0  0  0  0  0  0  0
   -1.9156   -0.9129    2.5979 C   0  0  0  0  0  0  0  0  0  0  0  0
   -2.2931   -2.2545    1.9636 C   0  0  0  0  0  0  0  0  0  0  0  0
   -1.9043   -3.6770    0.0949 C   0  0  0  0  0  0  0  0  0  0  0  0
   -3.2458   -3.8013   -0.6051 C   0  0  0  0  0  0  0  0  0  0  0  0
    2.4650   -1.0649    3.4298 H   0  0  0  0  0  0  0  0  0  0  0  0
    2.3142    2.8221   -1.4540 H   0  0  0  0  0  0  0  0  0  0  0  0
    4.8151    3.0143   -0.9991 H   0  0  0  0  0  0  0  0  0  0  0  0
    5.7741    1.7689    0.9872 H   0  0  0  0  0  0  0  0  0  0  0  0
    4.2372    0.3966    2.4236 H   0  0  0  0  0  0  0  0  0  0  0  0
   -2.4586   -0.1044    2.0726 H   0  0  0  0  0  0  0  0  0  0  0  0
   -2.2591   -0.9474    3.6469 H   0  0  0  0  0  0  0  0  0  0  0  0
   -1.0553   -3.7387   -0.6141 H   0  0  0  0  0  0  0  0  0  0  0  0
   -1.7866   -4.4646    0.8661 H   0  0  0  0  0  0  0  0  0  0  0  0
   -3.3172   -4.7964   -1.0889 H   0  0  0  0  0  0  0  0  0  0  0  0
   -3.3638   -3.0314   -1.3921 H   0  0  0  0  0  0  0  0  0  0  0  0
   -4.0741   -3.7223    0.1243 H   0  0  0  0  0  0  0  0  0  0  0  0
  2 15  1  0  0  0  0
  3 11  1  0  0  0  0
  4 12  1  0  0  0  0
  4 13  1  0  0  0  0
  5  6  1  0  0  0  0
  5 18  1  0  0  0  0
  7  8  1  0  0  0  0
  7  3  1  0  0  0  0
  8  9  2  0  0  0  0
  9 21  1  0  0  0  0
  9 10  1  0  0  0  0
 10 22  1  0  0  0  0
 11 10  2  0  0  0  0
 12 11  1  1  0  0  0
 12  5  1  0  0  0  0
 13 14  1  0  0  0  0
 13  6  2  0  0  0  0
 14 24  1  0  0  0  0
 15  1  2  0  0  0  0
 15 14  1  0  0  0  0
 16  2  1  0  0  0  0
 16 26  1  0  0  0  0
 17 16  1  0  0  0  0
 17 29  1  0  0  0  0
 19  7  1  0  0  0  0
 20  8  1  0  0  0  0
 23 14  1  0  0  0  0
 25 16  1  0  0  0  0
 27 17  1  0  0  0  0
 28 17  1  0  0  0  0
M  END
