1,2
 OpenBabel05122313063D

 42 44  0  0  1  0  0  0  0  0999 V2000
   -1.5208   -0.0426    0.0384 N   0  0  0  0  0  2  0  0  0  0  0  0
   -0.7698    2.4763   -1.1330 N   0  0  0  0  0  2  0  0  0  0  0  0
   -2.7492    0.3760   -0.3620 C   0  0  0  0  0  0  0  0  0  0  0  0
   -2.9996    1.5185   -1.1380 C   0  0  0  0  0  0  0  0  0  0  0  0
   -4.0475    1.7087   -1.4009 H   0  0  0  0  0  0  0  0  0  0  0  0
   -2.0664    2.4833   -1.5952 C   0  0  1  0  0  3  0  0  0  0  0  0
   -2.4659    3.5047   -2.5175 C   0  0  0  0  0  0  0  0  0  0  0  0
   -3.5126    3.5121   -2.8544 H   0  0  0  0  0  0  0  0  0  0  0  0
   -1.5585    4.4439   -2.9767 C   0  0  0  0  0  0  0  0  0  0  0  0
   -1.8715    5.2152   -3.6968 H   0  0  0  0  0  0  0  0  0  0  0  0
   -0.2241    4.3957   -2.5069 C   0  0  0  0  0  0  0  0  0  0  0  0
    0.5398    5.1079   -2.8466 H   0  0  0  0  0  0  0  0  0  0  0  0
    0.1105    3.4129   -1.5837 C   0  0  0  0  0  0  0  0  0  0  0  0
    1.1291    3.3438   -1.1756 H   0  0  0  0  0  0  0  0  0  0  0  0
   -3.9808   -0.3685    0.0719 C   0  0  0  0  0  0  0  0  0  0  0  0
   -4.1985   -0.6946    1.4281 C   0  0  0  0  0  0  0  0  0  0  0  0
   -3.4443   -0.4241    2.1786 H   0  0  0  0  0  0  0  0  0  0  0  0
   -5.3720   -1.3457    1.8295 C   0  0  0  0  0  0  0  0  0  0  0  0
   -5.5210   -1.5871    2.8930 H   0  0  0  0  0  0  0  0  0  0  0  0
   -6.3532   -1.6874    0.8849 C   0  0  0  0  0  0  0  0  0  0  0  0
   -7.2712   -2.2058    1.2011 H   0  0  0  0  0  0  0  0  0  0  0  0
   -6.1556   -1.3586   -0.4649 C   0  0  0  0  0  0  0  0  0  0  0  0
   -6.9176   -1.6196   -1.2152 H   0  0  0  0  0  0  0  0  0  0  0  0
   -4.9828   -0.7022   -0.8657 C   0  0  0  0  0  0  0  0  0  0  0  0
   -4.8252   -0.4574   -1.9268 H   0  0  0  0  0  0  0  0  0  0  0  0
   -1.4062   -1.3395    0.6088 C   0  0  0  0  0  0  0  0  0  0  0  0
   -1.0079   -1.4567    1.9726 C   0  0  0  0  0  0  0  0  0  0  0  0
   -0.9744   -2.7307    2.5617 C   0  0  0  0  0  0  0  0  0  0  0  0
   -0.6944   -2.8163    3.6235 H   0  0  0  0  0  0  0  0  0  0  0  0
   -1.2873   -3.8811    1.8246 C   0  0  0  0  0  0  0  0  0  0  0  0
   -1.2464   -4.8725    2.3007 H   0  0  0  0  0  0  0  0  0  0  0  0
   -1.6474   -3.7591    0.4794 C   0  0  0  0  0  0  0  0  0  0  0  0
   -1.8824   -4.6585   -0.1109 H   0  0  0  0  0  0  0  0  0  0  0  0
   -1.7254   -2.5021   -0.1489 C   0  0  0  0  0  0  0  0  0  0  0  0
   -0.6639   -0.2429    2.7954 C   0  0  0  0  0  0  0  0  0  0  0  0
   -0.6342   -0.4924    3.8736 H   0  0  0  0  0  0  0  0  0  0  0  0
   -1.3893    0.5826    2.6439 H   0  0  0  0  0  0  0  0  0  0  0  0
    0.3274    0.1671    2.5119 H   0  0  0  0  0  0  0  0  0  0  0  0
   -2.1762   -2.4403   -1.5842 C   0  0  0  0  0  0  0  0  0  0  0  0
   -3.2812   -2.5253   -1.6478 H   0  0  0  0  0  0  0  0  0  0  0  0
   -1.7414   -3.2795   -2.1598 H   0  0  0  0  0  0  0  0  0  0  0  0
   -1.8881   -1.4953   -2.0775 H   0  0  0  0  0  0  0  0  0  0  0  0
  1 26  1  0  0  0  0
  3  1  1  0  0  0  0
  3 15  1  0  0  0  0
  4  3  2  0  0  0  0
  5  4  1  0  0  0  0
  6  4  1  1  0  0  0
  6  2  1  0  0  0  0
  7  6  1  0  0  0  0
  8  7  1  0  0  0  0
  9  7  2  0  0  0  0
  9 11  1  0  0  0  0
 10  9  1  0  0  0  0
 11 13  2  0  0  0  0
 12 11  1  0  0  0  0
 13 14  1  0  0  0  0
 13  2  1  0  0  0  0
 15 16  1  0  0  0  0
 16 18  2  0  0  0  0
 16 17  1  0  0  0  0
 18 19  1  0  0  0  0
 20 21  1  0  0  0  0
 20 18  1  0  0  0  0
 22 20  2  0  0  0  0
 23 22  1  0  0  0  0
 24 22  1  0  0  0  0
 24 15  2  0  0  0  0
 25 24  1  0  0  0  0
 26 27  1  0  0  0  0
 27 28  2  0  0  0  0
 27 35  1  0  0  0  0
 28 29  1  0  0  0  0
 30 31  1  0  0  0  0
 30 28  1  0  0  0  0
 32 30  2  0  0  0  0
 33 32  1  0  0  0  0
 34 32  1  0  0  0  0
 34 26  2  0  0  0  0
 35 36  1  0  0  0  0
 37 35  1  0  0  0  0
 38 35  1  0  0  0  0
 39 34  1  0  0  0  0
 40 39  1  0  0  0  0
 41 39  1  0  0  0  0
 42 39  1  0  0  0  0
M  END
