1,2
 OpenBabel05122313063D

 74 79  0  0  1  0  0  0  0  0999 V2000
    0.9445   -1.2560    0.5536 N   0  0  0  0  0  2  0  0  0  0  0  0
   -1.7362   -0.0294    0.3723 N   0  0  0  0  0  2  0  0  0  0  0  0
    0.8943   -0.5111    1.7004 N   0  0  0  0  0  0  0  0  0  0  0  0
    1.9319   -0.8505    2.5154 C   0  0  1  0  0  3  0  0  0  0  0  0
    2.6357   -1.8759    1.9083 C   0  0  0  0  0  0  0  0  0  0  0  0
    1.9889   -2.1035    0.6605 C   0  0  0  0  0  0  0  0  0  0  0  0
    2.5619   -0.3254    3.7630 C   0  0  0  0  0  0  0  0  0  0  0  0
    1.8611   -0.1448    4.6041 H   0  0  0  0  0  0  0  0  0  0  0  0
    3.0672    0.6399    3.5354 H   0  0  0  0  0  0  0  0  0  0  0  0
    3.5784   -1.4732    4.0674 C   0  0  0  0  0  0  0  0  0  0  0  0
    4.5045   -1.0952    4.5416 H   0  0  0  0  0  0  0  0  0  0  0  0
    3.1093   -2.1780    4.7837 H   0  0  0  0  0  0  0  0  0  0  0  0
    3.8521   -2.2268    2.7246 C   0  0  0  0  0  0  0  0  0  0  0  0
    4.7741   -1.8527    2.2275 H   0  0  0  0  0  0  0  0  0  0  0  0
    3.9959   -3.3139    2.8836 H   0  0  0  0  0  0  0  0  0  0  0  0
    2.3269   -3.0316   -0.4756 C   0  0  0  0  0  0  0  0  0  0  0  0
    1.3565   -3.3539   -0.9160 H   0  0  0  0  0  0  0  0  0  0  0  0
    3.1105   -2.2684   -1.5624 C   0  0  0  0  0  0  0  0  0  0  0  0
    3.3301   -2.9402   -2.4166 H   0  0  0  0  0  0  0  0  0  0  0  0
    4.0753   -1.8888   -1.1647 H   0  0  0  0  0  0  0  0  0  0  0  0
    2.5269   -1.4072   -1.9459 H   0  0  0  0  0  0  0  0  0  0  0  0
    3.0769   -4.2769    0.0092 C   0  0  0  0  0  0  0  0  0  0  0  0
    3.2385   -4.9774   -0.8337 H   0  0  0  0  0  0  0  0  0  0  0  0
    2.5099   -4.8156    0.7948 H   0  0  0  0  0  0  0  0  0  0  0  0
    4.0751   -4.0166    0.4193 H   0  0  0  0  0  0  0  0  0  0  0  0
   -1.2607    0.5680    1.5070 N   0  0  0  0  0  0  0  0  0  0  0  0
   -2.2951    1.0684    2.2408 C   0  0  2  0  0  3  0  0  0  0  0  0
   -3.4687    0.7833    1.5635 C   0  0  0  0  0  0  0  0  0  0  0  0
   -3.0795    0.0915    0.3816 C   0  0  0  0  0  0  0  0  0  0  0  0
   -4.6481    1.3735    2.2892 C   0  0  0  0  0  0  0  0  0  0  0  0
   -5.5089    0.6825    2.3898 H   0  0  0  0  0  0  0  0  0  0  0  0
   -5.0265    2.2749    1.7583 H   0  0  0  0  0  0  0  0  0  0  0  0
   -4.0280    1.7401    3.6774 C   0  0  0  0  0  0  0  0  0  0  0  0
   -4.4772    2.6493    4.1210 H   0  0  0  0  0  0  0  0  0  0  0  0
   -4.2152    0.9059    4.3833 H   0  0  0  0  0  0  0  0  0  0  0  0
   -2.4821    1.8823    3.4814 C   0  0  0  0  0  0  0  0  0  0  0  0
   -2.1780    2.9392    3.3075 H   0  0  0  0  0  0  0  0  0  0  0  0
   -1.9086    1.5223    4.3604 H   0  0  0  0  0  0  0  0  0  0  0  0
   -3.9173   -0.4547   -0.7412 C   0  0  0  0  0  0  0  0  0  0  0  0
   -3.2135   -0.8534   -1.5022 H   0  0  0  0  0  0  0  0  0  0  0  0
   -4.7826   -1.6273   -0.2523 C   0  0  0  0  0  0  0  0  0  0  0  0
   -4.1410   -2.4489    0.1215 H   0  0  0  0  0  0  0  0  0  0  0  0
   -5.3908   -2.0266   -1.0885 H   0  0  0  0  0  0  0  0  0  0  0  0
   -5.4764   -1.3108    0.5549 H   0  0  0  0  0  0  0  0  0  0  0  0
   -4.7529    0.6660   -1.3809 C   0  0  0  0  0  0  0  0  0  0  0  0
   -5.3330    0.2693   -2.2378 H   0  0  0  0  0  0  0  0  0  0  0  0
   -4.1091    1.4870   -1.7551 H   0  0  0  0  0  0  0  0  0  0  0  0
   -5.4763    1.0971   -0.6570 H   0  0  0  0  0  0  0  0  0  0  0  0
    2.0913    1.7342    0.7477 N   0  0  0  0  0  0  0  0  0  0  0  0
    0.7306    1.6724    0.7942 N   0  0  0  0  0  0  0  0  0  0  0  0
    0.1466    2.5922   -0.0375 C   0  0  0  0  0  0  0  0  0  0  0  0
    1.1841    3.2481   -0.6829 C   0  0  0  0  0  0  0  0  0  0  0  0
    2.3840    2.6705   -0.1726 C   0  0  0  0  0  0  0  0  0  0  0  0
   -1.2084    2.9443   -0.5711 C   0  0  0  0  0  0  0  0  0  0  0  0
   -1.9986    3.0974    0.1926 H   0  0  0  0  0  0  0  0  0  0  0  0
   -1.5447    2.1322   -1.2525 H   0  0  0  0  0  0  0  0  0  0  0  0
   -0.8696    4.2408   -1.3670 C   0  0  0  0  0  0  0  0  0  0  0  0
   -1.0166    5.1191   -0.7040 H   0  0  0  0  0  0  0  0  0  0  0  0
   -1.5320    4.3744   -2.2444 H   0  0  0  0  0  0  0  0  0  0  0  0
    0.6378    4.1495   -1.7578 C   0  0  0  0  0  0  0  0  0  0  0  0
    0.7606    3.6644   -2.7515 H   0  0  0  0  0  0  0  0  0  0  0  0
    1.1158    5.1482   -1.8155 H   0  0  0  0  0  0  0  0  0  0  0  0
    3.8163    2.8810   -0.5909 C   0  0  0  0  0  0  0  0  0  0  0  0
    4.4427    2.5147    0.2509 H   0  0  0  0  0  0  0  0  0  0  0  0
    4.1381    4.3597   -0.8427 C   0  0  0  0  0  0  0  0  0  0  0  0
    3.9107    4.9849    0.0441 H   0  0  0  0  0  0  0  0  0  0  0  0
    3.5497    4.7557   -1.6960 H   0  0  0  0  0  0  0  0  0  0  0  0
    5.2103    4.4917   -1.0924 H   0  0  0  0  0  0  0  0  0  0  0  0
    4.1243    2.0109   -1.8250 C   0  0  0  0  0  0  0  0  0  0  0  0
    3.9240    0.9423   -1.6139 H   0  0  0  0  0  0  0  0  0  0  0  0
    5.1849    2.1200   -2.1329 H   0  0  0  0  0  0  0  0  0  0  0  0
    3.4828    2.2997   -2.6830 H   0  0  0  0  0  0  0  0  0  0  0  0
    0.1534    0.7323    1.7405 C   0  0  2  0  0  0  0  0  0  0  0  0
    0.2543    1.1061    2.7824 H   0  0  0  0  0  0  0  0  0  0  0  0
  1  6  1  0  0  0  0
  1  3  1  0  0  0  0
  2 29  1  0  0  0  0
  2 26  1  0  0  0  0
  3 73  1  0  0  0  0
  3  4  1  0  0  0  0
  4  5  1  6  0  0  0
  4  7  1  0  0  0  0
  5 13  1  0  0  0  0
  6  5  2  0  0  0  0
  7 10  1  0  0  0  0
  7  8  1  0  0  0  0
  9  7  1  0  0  0  0
 10 11  1  0  0  0  0
 10 12  1  0  0  0  0
 13 15  1  0  0  0  0
 13 10  1  0  0  0  0
 14 13  1  0  0  0  0
 16 22  1  0  0  0  0
 16  6  1  0  0  0  0
 17 16  1  0  0  0  0
 18 20  1  0  0  0  0
 18 16  1  0  0  0  0
 19 18  1  0  0  0  0
 21 18  1  0  0  0  0
 22 25  1  0  0  0  0
 22 24  1  0  0  0  0
 23 22  1  0  0  0  0
 26 73  1  0  0  0  0
 26 27  1  0  0  0  0
 27 28  1  6  0  0  0
 27 36  1  0  0  0  0
 28 30  1  0  0  0  0
 29 28  2  0  0  0  0
 30 31  1  0  0  0  0
 30 33  1  0  0  0  0
 32 30  1  0  0  0  0
 33 34  1  0  0  0  0
 33 35  1  0  0  0  0
 36 33  1  0  0  0  0
 36 38  1  0  0  0  0
 37 36  1  0  0  0  0
 39 41  1  0  0  0  0
 39 29  1  0  0  0  0
 40 39  1  0  0  0  0
 41 42  1  0  0  0  0
 41 44  1  0  0  0  0
 43 41  1  0  0  0  0
 45 39  1  0  0  0  0
 45 48  1  0  0  0  0
 46 45  1  0  0  0  0
 47 45  1  0  0  0  0
 49 50  1  0  0  0  0
 50 73  1  0  0  0  0
 51 50  1  0  0  0  0
 52 53  1  0  0  0  0
 52 51  2  0  0  0  0
 53 49  2  0  0  0  0
 54 51  1  0  0  0  0
 54 55  1  0  0  0  0
 56 54  1  0  0  0  0
 57 58  1  0  0  0  0
 57 54  1  0  0  0  0
 59 57  1  0  0  0  0
 60 57  1  0  0  0  0
 60 52  1  0  0  0  0
 61 60  1  0  0  0  0
 62 60  1  0  0  0  0
 63 53  1  0  0  0  0
 63 64  1  0  0  0  0
 65 63  1  0  0  0  0
 65 66  1  0  0  0  0
 67 65  1  0  0  0  0
 68 65  1  0  0  0  0
 69 70  1  0  0  0  0
 69 63  1  0  0  0  0
 71 69  1  0  0  0  0
 72 69  1  0  0  0  0
 73 74  1  1  0  0  0
M  END
