3,5
 OpenBabel05122313063D

 37 39  0  0  0  0  0  0  0  0999 V2000
    0.9846    0.6161    2.1247 N   0  0  0  0  0  0  0  0  0  0  0  0
   -0.2853    1.0649    1.9743 N   0  0  0  0  0  0  0  0  0  0  0  0
    0.5313   -2.3352    0.5389 N   0  0  0  0  0  2  0  0  0  0  0  0
   -0.7876   -2.6210    0.6626 N   0  0  0  0  0  0  0  0  0  0  0  0
   -1.1942   -0.3359    0.2135 N   0  0  0  0  0  0  0  0  0  0  0  0
    1.7361    1.7202    2.2163 C   0  0  0  0  0  0  0  0  0  0  0  0
    0.9473    2.8980    2.1145 C   0  0  0  0  0  0  0  0  0  0  0  0
   -0.3519    2.4380    1.9469 C   0  0  0  0  0  0  0  0  0  0  0  0
    1.2043   -3.3649    1.0775 C   0  0  0  0  0  3  0  0  0  0  0  0
    0.2911   -4.3401    1.5448 C   0  0  0  0  0  0  0  0  0  0  0  0
   -0.9772   -3.8337    1.2614 C   0  0  0  0  0  0  0  0  0  0  0  0
   -1.2974    0.1032    1.6349 C   0  0  0  0  0  0  0  0  0  0  0  0
   -1.7023   -1.7032    0.0145 C   0  0  0  0  0  0  0  0  0  0  0  0
   -1.8089    0.6286   -0.7542 C   0  0  0  0  0  0  0  0  0  0  0  0
   -3.2994    0.8262   -0.5832 C   0  0  0  0  0  0  0  0  0  0  0  0
   -3.8115    1.9087    0.1626 C   0  0  0  0  0  0  0  0  0  0  0  0
   -5.1931    2.0727    0.3460 C   0  0  0  0  0  0  0  0  0  0  0  0
   -6.0901    1.1550   -0.2215 C   0  0  0  0  0  0  0  0  0  0  0  0
   -5.5983    0.0851   -0.9866 C   0  0  0  0  0  0  0  0  0  0  0  0
   -4.2167   -0.0737   -1.1683 C   0  0  0  0  0  0  0  0  0  0  0  0
    2.8249    1.6281    2.3188 H   0  0  0  0  0  0  0  0  0  0  0  0
    1.2842    3.9386    2.1424 H   0  0  0  0  0  0  0  0  0  0  0  0
   -1.3047    2.9662    1.8349 H   0  0  0  0  0  0  0  0  0  0  0  0
    2.2990   -3.3247    1.0980 H   0  0  0  0  0  0  0  0  0  0  0  0
    0.5245   -5.2895    2.0363 H   0  0  0  0  0  0  0  0  0  0  0  0
   -1.9820   -4.2353    1.4311 H   0  0  0  0  0  0  0  0  0  0  0  0
   -1.1462   -0.7870    2.2740 H   0  0  0  0  0  0  0  0  0  0  0  0
   -2.2985    0.5368    1.8391 H   0  0  0  0  0  0  0  0  0  0  0  0
   -2.7222   -1.8712    0.4248 H   0  0  0  0  0  0  0  0  0  0  0  0
   -1.6942   -1.8761   -1.0826 H   0  0  0  0  0  0  0  0  0  0  0  0
   -1.2490    1.5752   -0.6406 H   0  0  0  0  0  0  0  0  0  0  0  0
   -1.5779    0.2370   -1.7623 H   0  0  0  0  0  0  0  0  0  0  0  0
   -3.1150    2.6507    0.5826 H   0  0  0  0  0  0  0  0  0  0  0  0
   -5.5707    2.9278    0.9266 H   0  0  0  0  0  0  0  0  0  0  0  0
   -7.1741    1.2824   -0.0817 H   0  0  0  0  0  0  0  0  0  0  0  0
   -6.2971   -0.6232   -1.4570 H   0  0  0  0  0  0  0  0  0  0  0  0
   -3.8422   -0.8960   -1.7980 H   0  0  0  0  0  0  0  0  0  0  0  0
  1  6  2  0  0  0  0
  2  1  1  0  0  0  0
  3  4  1  0  0  0  0
  3  9  1  0  0  0  0
  4 11  1  0  0  0  0
  5 12  1  0  0  0  0
  6 21  1  0  0  0  0
  7 22  1  0  0  0  0
  7  6  1  0  0  0  0
  8  2  1  0  0  0  0
  8  7  2  0  0  0  0
  9 24  1  0  0  0  0
  9 10  1  0  0  0  0
 10 25  1  0  0  0  0
 11 26  1  0  0  0  0
 11 10  2  0  0  0  0
 12 28  1  0  0  0  0
 12  2  1  0  0  0  0
 12 27  1  0  0  0  0
 13  5  1  0  0  0  0
 13 29  1  0  0  0  0
 13  4  1  0  0  0  0
 14 31  1  0  0  0  0
 14 15  1  0  0  0  0
 14  5  1  0  0  0  0
 15 16  1  0  0  0  0
 16 17  2  0  0  0  0
 16 33  1  0  0  0  0
 17 34  1  0  0  0  0
 18 35  1  0  0  0  0
 18 17  1  0  0  0  0
 19 18  2  0  0  0  0
 20 19  1  0  0  0  0
 20 15  2  0  0  0  0
 23  8  1  0  0  0  0
 30 13  1  0  0  0  0
 32 14  1  0  0  0  0
 36 19  1  0  0  0  0
 37 20  1  0  0  0  0
M  END
