1,2
 OpenBabel05122313063D

 25 25  0  0  0  0  0  0  0  0999 V2000
    0.5560    0.0266   -1.9758 N   0  0  0  0  0  2  0  0  0  0  0  0
    0.1126   -0.0963    0.5255 N   0  0  0  0  0  2  0  0  0  0  0  0
    1.8488   -0.1182   -1.6272 C   0  0  0  0  0  0  0  0  0  0  0  0
    2.8724   -0.1092   -2.7361 C   0  0  0  0  0  0  0  0  0  0  0  0
    2.3077   -0.2627   -0.2883 C   0  0  0  0  0  0  0  0  0  0  0  0
    1.3933   -0.2341    0.8069 C   0  0  0  0  0  0  0  0  0  0  0  0
    1.8706   -0.3297    2.2328 C   0  0  0  0  0  0  0  0  0  0  0  0
    3.7715   -0.3820   -0.0048 C   0  0  0  0  0  0  0  0  0  0  0  0
    4.3935   -1.6471    0.0587 C   0  0  0  0  0  0  0  0  0  0  0  0
    5.7653   -1.7558    0.3338 C   0  0  0  0  0  0  0  0  0  0  0  0
    6.5326   -0.6007    0.5527 C   0  0  0  0  0  0  0  0  0  0  0  0
    5.9246    0.6635    0.4960 C   0  0  0  0  0  0  0  0  0  0  0  0
    4.5532    0.7718    0.2201 C   0  0  0  0  0  0  0  0  0  0  0  0
    0.4583    0.1392   -2.9915 H   0  0  0  0  0  0  0  0  0  0  0  0
    2.4030   -0.0029   -3.7333 H   0  0  0  0  0  0  0  0  0  0  0  0
    3.4710   -1.0415   -2.7209 H   0  0  0  0  0  0  0  0  0  0  0  0
    3.5963    0.7174   -2.5917 H   0  0  0  0  0  0  0  0  0  0  0  0
    1.0244   -0.3120    2.9421 H   0  0  0  0  0  0  0  0  0  0  0  0
    2.5592    0.5078    2.4637 H   0  0  0  0  0  0  0  0  0  0  0  0
    2.4557   -1.2597    2.3779 H   0  0  0  0  0  0  0  0  0  0  0  0
    3.7906   -2.5533   -0.1109 H   0  0  0  0  0  0  0  0  0  0  0  0
    6.2378   -2.7485    0.3787 H   0  0  0  0  0  0  0  0  0  0  0  0
    7.6078   -0.6861    0.7693 H   0  0  0  0  0  0  0  0  0  0  0  0
    6.5221    1.5712    0.6682 H   0  0  0  0  0  0  0  0  0  0  0  0
    4.0747    1.7633    0.1766 H   0  0  0  0  0  0  0  0  0  0  0  0
  1  3  1  0  0  0  0
  2  6  2  0  0  0  0
  3  5  2  0  0  0  0
  4 16  1  0  0  0  0
  4 17  1  0  0  0  0
  4  3  1  0  0  0  0
  5  8  1  0  0  0  0
  5  6  1  0  0  0  0
  6  7  1  0  0  0  0
  7 20  1  0  0  0  0
  7 19  1  0  0  0  0
  7 18  1  0  0  0  0
  8  9  2  0  0  0  0
  8 13  1  0  0  0  0
  9 10  1  0  0  0  0
 10 22  1  0  0  0  0
 10 11  2  0  0  0  0
 11 23  1  0  0  0  0
 12 11  1  0  0  0  0
 12 24  1  0  0  0  0
 13 12  2  0  0  0  0
 14  1  1  0  0  0  0
 15  4  1  0  0  0  0
 21  9  1  0  0  0  0
 25 13  1  0  0  0  0
M  END
