1,3
 OpenBabel05122313063D

 35 36  0  0  1  0  0  0  0  0999 V2000
    0.9343   -0.1127    0.0174 N   0  0  0  0  0  2  0  0  0  0  0  0
    2.0515    1.8243   -0.0728 N   0  0  0  0  0  0  0  0  0  0  0  0
   -1.5827    0.9383   -0.3175 N   0  0  0  0  0  0  0  0  0  0  0  0
    2.2878   -0.4018    0.0877 C   0  0  0  0  0  0  0  0  0  0  0  0
    2.9584   -1.6309    0.2024 C   0  0  0  0  0  0  0  0  0  0  0  0
    4.3568   -1.5958    0.2552 C   0  0  0  0  0  0  0  0  0  0  0  0
    5.0716   -0.3745    0.1969 C   0  0  0  0  0  0  0  0  0  0  0  0
    4.4156    0.8597    0.0861 C   0  0  0  0  0  0  0  0  0  0  0  0
    3.0144    0.8195    0.0324 C   0  0  0  0  0  0  0  0  0  0  0  0
    2.3345    3.2446   -0.1312 C   0  0  0  0  0  0  0  0  0  0  0  0
    0.8227    1.2069   -0.0729 C   0  0  2  0  0  3  0  0  0  0  0  0
   -0.5083    1.9094   -0.1112 C   0  0  0  0  0  0  0  0  0  0  0  0
   -2.9173    1.2330    0.2974 C   0  0  0  0  0  0  0  0  0  0  0  0
   -2.7740    1.2394    1.8269 C   0  0  0  0  0  0  0  0  0  0  0  0
   -3.4679    2.5743   -0.2182 C   0  0  0  0  0  0  0  0  0  0  0  0
   -3.8424    0.0786   -0.1226 C   0  0  0  0  0  0  0  0  0  0  0  0
   -1.7028    0.7573   -1.3313 H   0  0  0  0  0  0  0  0  0  0  0  0
    2.3917   -2.5712    0.2565 H   0  0  0  0  0  0  0  0  0  0  0  0
    4.9166   -2.5382    0.3468 H   0  0  0  0  0  0  0  0  0  0  0  0
    6.1705   -0.3939    0.2430 H   0  0  0  0  0  0  0  0  0  0  0  0
    4.9764    1.8045    0.0469 H   0  0  0  0  0  0  0  0  0  0  0  0
    1.4034    3.8076   -0.3205 H   0  0  0  0  0  0  0  0  0  0  0  0
    2.7764    3.5996    0.8226 H   0  0  0  0  0  0  0  0  0  0  0  0
    3.0468    3.4593   -0.9531 H   0  0  0  0  0  0  0  0  0  0  0  0
   -0.6594    2.4196    0.8643 H   0  0  0  0  0  0  0  0  0  0  0  0
   -0.4955    2.7151   -0.8812 H   0  0  0  0  0  0  0  0  0  0  0  0
   -2.3087    0.2914    2.1676 H   0  0  0  0  0  0  0  0  0  0  0  0
   -2.1715    2.0958    2.1956 H   0  0  0  0  0  0  0  0  0  0  0  0
   -3.7741    1.3276    2.2943 H   0  0  0  0  0  0  0  0  0  0  0  0
   -3.5707    2.5623   -1.3232 H   0  0  0  0  0  0  0  0  0  0  0  0
   -4.4694    2.7748    0.2116 H   0  0  0  0  0  0  0  0  0  0  0  0
   -2.8145    3.4264    0.0623 H   0  0  0  0  0  0  0  0  0  0  0  0
   -3.5152   -0.8725    0.3456 H   0  0  0  0  0  0  0  0  0  0  0  0
   -4.8798    0.2866    0.2047 H   0  0  0  0  0  0  0  0  0  0  0  0
   -3.8373   -0.0655   -1.2219 H   0  0  0  0  0  0  0  0  0  0  0  0
  1  4  1  0  0  0  0
  2  9  1  0  0  0  0
  3 12  1  0  0  0  0
  3 13  1  0  0  0  0
  4  5  1  0  0  0  0
  5  6  2  0  0  0  0
  5 18  1  0  0  0  0
  6 19  1  0  0  0  0
  7 20  1  0  0  0  0
  7  6  1  0  0  0  0
  8  7  2  0  0  0  0
  9  8  1  0  0  0  0
  9  4  2  0  0  0  0
 10  2  1  0  0  0  0
 10 23  1  0  0  0  0
 11 12  1  1  0  0  0
 11  2  1  0  0  0  0
 11  1  1  0  0  0  0
 12 25  1  0  0  0  0
 13 14  1  0  0  0  0
 14 27  1  0  0  0  0
 14 28  1  0  0  0  0
 14 29  1  0  0  0  0
 15 32  1  0  0  0  0
 15 31  1  0  0  0  0
 15 13  1  0  0  0  0
 16 34  1  0  0  0  0
 16 13  1  0  0  0  0
 16 33  1  0  0  0  0
 17  3  1  0  0  0  0
 21  8  1  0  0  0  0
 22 10  1  0  0  0  0
 24 10  1  0  0  0  0
 26 12  1  0  0  0  0
 30 15  1  0  0  0  0
 35 16  1  0  0  0  0
M  END
