9,10
 OpenBabel05122313063D

 56 57  0  0  0  0  0  0  0  0999 V2000
   -1.6787    2.7408    2.0078 O   0  0  0  0  0  0  0  0  0  0  0  0
    0.4451    2.8812    2.7949 O   0  0  0  0  0  0  0  0  0  0  0  0
   -1.6969    2.1086   -1.0888 O   0  0  0  0  0  0  0  0  0  0  0  0
   -0.7859    4.1900   -1.0062 O   0  0  0  0  0  0  0  0  0  0  0  0
   -2.8047   -1.7719    2.1788 O   0  0  0  0  0  0  0  0  0  0  0  0
   -1.1035   -0.2839    2.0332 O   0  0  0  0  0  0  0  0  0  0  0  0
   -3.9588   -0.1167   -0.2254 O   0  0  0  0  0  0  0  0  0  0  0  0
   -3.9542   -2.2091   -1.1058 O   0  0  0  0  0  0  0  0  0  0  0  0
    2.2048    0.3961    0.3669 N   0  0  0  0  0  2  0  0  0  0  0  0
    1.0013   -1.9004    0.1329 N   0  0  0  0  0  2  0  0  0  0  0  0
    2.4473    1.6865    0.7266 C   0  0  0  0  0  0  0  0  0  0  0  0
    3.4878    1.9705    1.6305 C   0  0  0  0  0  0  0  0  0  0  0  0
    3.6674    3.0186    1.9047 H   0  0  0  0  0  0  0  0  0  0  0  0
    4.2475    0.9361    2.1835 C   0  0  0  0  0  0  0  0  0  0  0  0
    5.0800    1.1564    2.8674 H   0  0  0  0  0  0  0  0  0  0  0  0
    3.8830   -0.3891    1.9160 C   0  0  0  0  0  0  0  0  0  0  0  0
    4.3918   -1.2241    2.4149 H   0  0  0  0  0  0  0  0  0  0  0  0
    2.8206   -0.6341    1.0358 C   0  0  0  0  0  0  0  0  0  0  0  0
    2.1415   -1.9348    0.9004 C   0  0  0  0  0  0  0  0  0  0  0  0
    2.4903   -3.0836    1.6249 C   0  0  0  0  0  0  0  0  0  0  0  0
    3.4274   -3.1112    2.1958 H   0  0  0  0  0  0  0  0  0  0  0  0
    1.6091   -4.1696    1.6381 C   0  0  0  0  0  0  0  0  0  0  0  0
    1.8635   -5.0878    2.1871 H   0  0  0  0  0  0  0  0  0  0  0  0
    0.3704   -4.0393    0.9999 C   0  0  0  0  0  0  0  0  0  0  0  0
   -0.3891   -4.8304    1.0700 H   0  0  0  0  0  0  0  0  0  0  0  0
    0.0650   -2.8832    0.2578 C   0  0  0  0  0  0  0  0  0  0  0  0
    1.5507    2.7628    0.1889 C   0  0  0  0  0  0  0  0  0  0  0  0
    1.7080    2.8350   -0.9075 H   0  0  0  0  0  0  0  0  0  0  0  0
    1.8166    3.7299    0.6516 H   0  0  0  0  0  0  0  0  0  0  0  0
    0.0687    2.4289    0.4410 C   0  0  0  0  0  0  0  0  0  0  0  0
   -0.0770    1.3283    0.3560 H   0  0  0  0  0  0  0  0  0  0  0  0
   -0.3350    2.7290    1.8722 C   0  0  0  0  0  0  0  0  0  0  0  0
   -0.8408    3.0414   -0.6147 C   0  0  0  0  0  0  0  0  0  0  0  0
   -2.5022    2.5107   -2.2010 C   0  0  0  0  0  0  0  0  0  0  0  0
   -3.0641    3.4378   -1.9708 H   0  0  0  0  0  0  0  0  0  0  0  0
   -3.1902    1.6694   -2.3954 H   0  0  0  0  0  0  0  0  0  0  0  0
   -1.8569    2.6873   -3.0849 H   0  0  0  0  0  0  0  0  0  0  0  0
   -2.1593    2.8229    3.3523 C   0  0  0  0  0  0  0  0  0  0  0  0
   -1.8680    1.9120    3.9143 H   0  0  0  0  0  0  0  0  0  0  0  0
   -3.2593    2.8959    3.2812 H   0  0  0  0  0  0  0  0  0  0  0  0
   -1.7430    3.7084    3.8728 H   0  0  0  0  0  0  0  0  0  0  0  0
   -1.3013   -2.6988   -0.3398 C   0  0  0  0  0  0  0  0  0  0  0  0
   -1.9570   -3.5230   -0.0032 H   0  0  0  0  0  0  0  0  0  0  0  0
   -1.2280   -2.7418   -1.4477 H   0  0  0  0  0  0  0  0  0  0  0  0
   -1.9580   -1.3454    0.0049 C   0  0  0  0  0  0  0  0  0  0  0  0
   -1.4095   -0.5210   -0.5026 H   0  0  0  0  0  0  0  0  0  0  0  0
   -1.8943   -1.0369    1.4942 C   0  0  0  0  0  0  0  0  0  0  0  0
   -3.3907   -1.3128   -0.5114 C   0  0  0  0  0  0  0  0  0  0  0  0
   -2.8127   -1.5844    3.5993 C   0  0  0  0  0  0  0  0  0  0  0  0
   -1.8063   -1.7662    4.0267 H   0  0  0  0  0  0  0  0  0  0  0  0
   -3.5439   -2.3081    4.0005 H   0  0  0  0  0  0  0  0  0  0  0  0
   -3.1190   -0.5495    3.8546 H   0  0  0  0  0  0  0  0  0  0  0  0
   -5.3160    0.0377   -0.6570 C   0  0  0  0  0  0  0  0  0  0  0  0
   -5.3948   -0.0826   -1.7563 H   0  0  0  0  0  0  0  0  0  0  0  0
   -5.6169    1.0573   -0.3582 H   0  0  0  0  0  0  0  0  0  0  0  0
   -5.9706   -0.7179   -0.1773 H   0  0  0  0  0  0  0  0  0  0  0  0
  1 38  1  0  0  0  0
  3 33  1  0  0  0  0
  4 33  2  0  0  0  0
  5 49  1  0  0  0  0
  8 48  2  0  0  0  0
  9 11  1  0  0  0  0
  9 18  1  0  0  0  0
 10 26  1  0  0  0  0
 10 19  1  0  0  0  0
 11 12  2  0  0  0  0
 12 13  1  0  0  0  0
 12 14  1  0  0  0  0
 14 15  1  0  0  0  0
 16 14  2  0  0  0  0
 16 17  1  0  0  0  0
 18 16  1  0  0  0  0
 19 18  2  0  0  0  0
 19 20  1  0  0  0  0
 20 22  2  0  0  0  0
 20 21  1  0  0  0  0
 22 23  1  0  0  0  0
 24 25  1  0  0  0  0
 24 22  1  0  0  0  0
 26 24  2  0  0  0  0
 27 30  1  0  0  0  0
 27 29  1  0  0  0  0
 27 11  1  0  0  0  0
 28 27  1  0  0  0  0
 30 32  1  0  0  0  0
 31 30  1  0  0  0  0
 32  1  1  0  0  0  0
 32  2  2  0  0  0  0
 33 30  1  0  0  0  0
 34 35  1  0  0  0  0
 34  3  1  0  0  0  0
 36 34  1  0  0  0  0
 37 34  1  0  0  0  0
 38 41  1  0  0  0  0
 38 39  1  0  0  0  0
 40 38  1  0  0  0  0
 42 43  1  0  0  0  0
 42 45  1  0  0  0  0
 42 26  1  0  0  0  0
 44 42  1  0  0  0  0
 45 47  1  0  0  0  0
 46 45  1  0  0  0  0
 47  6  2  0  0  0  0
 47  5  1  0  0  0  0
 48  7  1  0  0  0  0
 48 45  1  0  0  0  0
 49 52  1  0  0  0  0
 49 51  1  0  0  0  0
 49 50  1  0  0  0  0
 53 55  1  0  0  0  0
 53  7  1  0  0  0  0
 53 56  1  0  0  0  0
 54 53  1  0  0  0  0
M  END
