1,4
q = 0.0, confidence = 0.982

 33 33  0  0  0  0  0  0  0  0999 V2000
    1.7621   -0.1605   -0.8280 N   0  0  0  0  0  2  0  0  0  0  0  0
    4.1361   -0.6653   -0.5366 N   0  0  0  0  0  0  0  0  0  0  0  0
    2.6226   -1.5965    0.8564 N   0  0  0  0  0  0  0  0  0  0  0  0
   -0.3236    1.5277   -1.8903 N   0  0  0  0  0  0  0  0  0  0  0  0
    2.7786   -0.7407   -0.2311 C   0  0  0  0  0  3  0  0  0  0  0  0
    4.7865    0.5287   -1.0586 C   0  0  0  0  0  0  0  0  0  0  0  0
    4.4180    0.8047   -2.0605 H   0  0  0  0  0  0  0  0  0  0  0  0
    5.8674    0.3149   -1.1580 H   0  0  0  0  0  0  0  0  0  0  0  0
    4.6707    1.4051   -0.3786 H   0  0  0  0  0  0  0  0  0  0  0  0
    4.8998   -1.3839    0.4908 C   0  0  0  0  0  0  0  0  0  0  0  0
    5.2711   -0.6697    1.2643 H   0  0  0  0  0  0  0  0  0  0  0  0
    5.7746   -1.9038    0.0528 H   0  0  0  0  0  0  0  0  0  0  0  0
    3.8626   -2.3344    1.0755 C   0  0  0  0  0  0  0  0  0  0  0  0
    3.8431   -3.3060    0.5250 H   0  0  0  0  0  0  0  0  0  0  0  0
    4.0247   -2.5518    2.1498 H   0  0  0  0  0  0  0  0  0  0  0  0
    1.3755   -2.2660    1.1454 C   0  0  0  0  0  0  0  0  0  0  0  0
    0.5338   -1.5499    1.0249 H   0  0  0  0  0  0  0  0  0  0  0  0
    1.3907   -2.6306    2.1913 H   0  0  0  0  0  0  0  0  0  0  0  0
    1.1953   -3.1357    0.4707 H   0  0  0  0  0  0  0  0  0  0  0  0
    1.9295    0.4982   -2.1176 C   0  0  0  0  0  0  0  0  0  0  0  0
    2.5344   -0.1215   -2.8170 H   0  0  0  0  0  0  0  0  0  0  0  0
    2.4573    1.4757   -2.0311 H   0  0  0  0  0  0  0  0  0  0  0  0
    0.5649    0.7397   -2.7628 C   0  0  0  0  0  0  0  0  0  0  0  0
    0.7041    1.2365   -3.7549 H   0  0  0  0  0  0  0  0  0  0  0  0
    0.0743   -0.2370   -2.9477 H   0  0  0  0  0  0  0  0  0  0  0  0
    0.0979    2.9305   -1.8111 C   0  0  0  0  0  0  0  0  0  0  0  0
    0.0781    3.4296   -2.8107 H   0  0  0  0  0  0  0  0  0  0  0  0
    1.1237    3.0080   -1.4033 H   0  0  0  0  0  0  0  0  0  0  0  0
   -0.5810    3.4839   -1.1358 H   0  0  0  0  0  0  0  0  0  0  0  0
   -1.7201    1.4459   -2.3314 C   0  0  0  0  0  0  0  0  0  0  0  0
   -1.8701    1.9015   -3.3401 H   0  0  0  0  0  0  0  0  0  0  0  0
   -2.3662    1.9823   -1.6085 H   0  0  0  0  0  0  0  0  0  0  0  0
   -2.0476    0.3894   -2.3587 H   0  0  0  0  0  0  0  0  0  0  0  0
  1  5  1  0  0  0  0
  2  5  1  0  0  0  0
  2 10  1  0  0  0  0
  3 13  1  0  0  0  0
  3 16  1  0  0  0  0
  4 26  1  0  0  0  0
  5  3  1  0  0  0  0
  6  2  1  0  0  0  0
  6  9  1  0  0  0  0
  7  6  1  0  0  0  0
  8  6  1  0  0  0  0
 10 13  1  0  0  0  0
 10 11  1  0  0  0  0
 12 10  1  0  0  0  0
 13 15  1  0  0  0  0
 14 13  1  0  0  0  0
 16 18  1  0  0  0  0
 17 16  1  0  0  0  0
 19 16  1  0  0  0  0
 20 22  1  0  0  0  0
 20  1  1  0  0  0  0
 21 20  1  0  0  0  0
 23 20  1  0  0  0  0
 23  4  1  0  0  0  0
 24 23  1  0  0  0  0
 25 23  1  0  0  0  0
 26 28  1  0  0  0  0
 26 29  1  0  0  0  0
 27 26  1  0  0  0  0
 30  4  1  0  0  0  0
 30 32  1  0  0  0  0
 31 30  1  0  0  0  0
 33 30  1  0  0  0  0
M  END
