3,5
 OpenBabel05122313063D

 51 51  0  0  0  0  0  0  0  0999 V2000
   -1.7450   -0.2117    2.2666 Si  0  0  0  0  0  0  0  0  0  0  0  0
   -0.1473   -0.0204   -0.4113 Si  0  0  0  0  0  0  0  0  0  0  0  0
    0.9911    1.2531    0.0628 N   0  0  0  0  0  2  0  0  0  0  0  0
    0.8228    2.2328   -0.1812 H   0  0  0  0  0  0  0  0  0  0  0  0
    1.0125   -1.2879    0.0107 N   0  0  0  0  0  2  0  0  0  0  0  0
    0.8812   -2.2356   -0.3540 H   0  0  0  0  0  0  0  0  0  0  0  0
   -1.6670   -0.0928    0.4711 N   0  0  0  0  0  0  0  0  0  0  0  0
   -0.5812   -0.0125   -2.1014 N   0  0  0  0  0  0  0  0  0  0  0  0
   -2.8881    0.0631   -0.2640 C   0  0  0  0  0  0  0  0  0  0  0  0
   -3.3837    1.3664   -0.5603 C   0  0  0  0  0  0  0  0  0  0  0  0
   -4.5774    1.4914   -1.2961 C   0  0  0  0  0  0  0  0  0  0  0  0
   -4.9642    2.4960   -1.5297 H   0  0  0  0  0  0  0  0  0  0  0  0
   -5.2791    0.3625   -1.7361 C   0  0  0  0  0  0  0  0  0  0  0  0
   -6.2115    0.4786   -2.3095 H   0  0  0  0  0  0  0  0  0  0  0  0
   -4.7855   -0.9154   -1.4453 C   0  0  0  0  0  0  0  0  0  0  0  0
   -5.3353   -1.8019   -1.7984 H   0  0  0  0  0  0  0  0  0  0  0  0
   -3.5956   -1.0902   -0.7139 C   0  0  0  0  0  0  0  0  0  0  0  0
   -3.5713   -0.2555    2.7397 C   0  0  0  0  0  0  0  0  0  0  0  0
   -4.0868   -1.1350    2.3058 H   0  0  0  0  0  0  0  0  0  0  0  0
   -4.1036    0.6512    2.3890 H   0  0  0  0  0  0  0  0  0  0  0  0
   -3.6667   -0.3081    3.8439 H   0  0  0  0  0  0  0  0  0  0  0  0
   -0.9215    1.3027    3.0428 C   0  0  0  0  0  0  0  0  0  0  0  0
    0.0658    1.4812    2.5718 H   0  0  0  0  0  0  0  0  0  0  0  0
   -0.7746    1.1628    4.1335 H   0  0  0  0  0  0  0  0  0  0  0  0
   -1.5432    2.2091    2.8934 H   0  0  0  0  0  0  0  0  0  0  0  0
   -0.8781   -1.7881    2.8377 C   0  0  0  0  0  0  0  0  0  0  0  0
    0.1356   -1.8446    2.3933 H   0  0  0  0  0  0  0  0  0  0  0  0
   -1.4446   -2.6863    2.5168 H   0  0  0  0  0  0  0  0  0  0  0  0
   -0.7883   -1.8133    3.9432 H   0  0  0  0  0  0  0  0  0  0  0  0
   -2.0228    3.3527   -1.3277 C   0  0  0  0  0  0  0  0  0  0  0  0
   -1.3661    2.6756   -1.9104 H   0  0  0  0  0  0  0  0  0  0  0  0
   -1.4204    4.2251   -0.9980 H   0  0  0  0  0  0  0  0  0  0  0  0
   -2.8121    3.7293   -2.0117 H   0  0  0  0  0  0  0  0  0  0  0  0
   -2.6288    2.6149   -0.1205 C   0  0  0  0  0  0  0  0  0  0  0  0
   -1.7855    2.2682    0.5085 H   0  0  0  0  0  0  0  0  0  0  0  0
   -3.4945    3.5497    0.7377 C   0  0  0  0  0  0  0  0  0  0  0  0
   -3.9069    3.0192    1.6196 H   0  0  0  0  0  0  0  0  0  0  0  0
   -4.3512    3.9611    0.1643 H   0  0  0  0  0  0  0  0  0  0  0  0
   -2.8973    4.4096    1.1052 H   0  0  0  0  0  0  0  0  0  0  0  0
   -4.1066   -3.4322    0.1551 C   0  0  0  0  0  0  0  0  0  0  0  0
   -4.5421   -3.0095    1.0830 H   0  0  0  0  0  0  0  0  0  0  0  0
   -3.6508   -4.4117    0.4074 H   0  0  0  0  0  0  0  0  0  0  0  0
   -4.9434   -3.6315   -0.5464 H   0  0  0  0  0  0  0  0  0  0  0  0
   -3.0572   -2.4921   -0.4559 C   0  0  0  0  0  0  0  0  0  0  0  0
   -2.2310   -2.3808    0.2741 H   0  0  0  0  0  0  0  0  0  0  0  0
   -2.4507   -3.0879   -1.7405 C   0  0  0  0  0  0  0  0  0  0  0  0
   -1.6628   -2.4250   -2.1513 H   0  0  0  0  0  0  0  0  0  0  0  0
   -3.2276   -3.2188   -2.5232 H   0  0  0  0  0  0  0  0  0  0  0  0
   -2.0038   -4.0843   -1.5401 H   0  0  0  0  0  0  0  0  0  0  0  0
   -1.5538    0.1448   -2.3756 H   0  0  0  0  0  0  0  0  0  0  0  0
    0.0706    0.3998   -2.7705 H   0  0  0  0  0  0  0  0  0  0  0  0
  1 18  1  0  0  0  0
  1 26  1  0  0  0  0
  1 22  1  0  0  0  0
  2  5  1  0  0  0  0
  2  3  1  0  0  0  0
  2  7  1  0  0  0  0
  4  3  1  0  0  0  0
  6  5  1  0  0  0  0
  7  1  1  0  0  0  0
  8  2  1  0  0  0  0
  9  7  1  0  0  0  0
 10  9  1  0  0  0  0
 10 34  1  0  0  0  0
 11 10  2  0  0  0  0
 12 11  1  0  0  0  0
 13 15  2  0  0  0  0
 13 11  1  0  0  0  0
 14 13  1  0  0  0  0
 15 17  1  0  0  0  0
 16 15  1  0  0  0  0
 17 44  1  0  0  0  0
 17  9  2  0  0  0  0
 18 21  1  0  0  0  0
 19 18  1  0  0  0  0
 20 18  1  0  0  0  0
 22 24  1  0  0  0  0
 23 22  1  0  0  0  0
 25 22  1  0  0  0  0
 26 29  1  0  0  0  0
 27 26  1  0  0  0  0
 28 26  1  0  0  0  0
 30 32  1  0  0  0  0
 30 34  1  0  0  0  0
 31 30  1  0  0  0  0
 33 30  1  0  0  0  0
 34 35  1  0  0  0  0
 34 36  1  0  0  0  0
 36 39  1  0  0  0  0
 36 37  1  0  0  0  0
 38 36  1  0  0  0  0
 40 42  1  0  0  0  0
 40 41  1  0  0  0  0
 43 40  1  0  0  0  0
 44 40  1  0  0  0  0
 44 45  1  0  0  0  0
 46 49  1  0  0  0  0
 46 44  1  0  0  0  0
 47 46  1  0  0  0  0
 48 46  1  0  0  0  0
 50  8  1  0  0  0  0
 51  8  1  0  0  0  0
M  END
