1,2
 OpenBabel05122313063D

 26 28  0  0  0  0  0  0  0  0999 V2000
    2.9422    1.8227   -0.1487 N   0  0  0  0  0  2  0  0  0  0  0  0
    0.2970    1.5089    0.0050 N   0  0  0  0  0  2  0  0  0  0  0  0
   -0.9773    1.4354    0.0863 N   0  0  0  0  0  2  0  0  0  0  0  0
   -3.6822    1.8453    0.3521 N   0  0  0  0  0  0  0  0  0  0  0  0
    4.2817    1.8874   -0.2622 C   0  0  0  0  0  0  0  0  0  0  0  0
    4.9708    3.0979   -0.3642 C   0  0  0  0  0  0  0  0  0  0  0  0
    4.2257    4.2903   -0.3500 C   0  0  0  0  0  0  0  0  0  0  0  0
    2.8357    4.2297   -0.2446 C   0  0  0  0  0  0  0  0  0  0  0  0
    2.1968    2.9741   -0.1474 C   0  0  0  0  0  0  0  0  0  0  0  0
    0.7634    2.8024   -0.0535 C   0  0  0  0  0  0  0  0  0  0  0  0
   -0.3792    3.6260   -0.0050 C   0  0  0  0  0  0  0  0  0  0  0  0
   -1.4654    2.7154    0.0852 C   0  0  0  0  0  0  0  0  0  0  0  0
   -2.9141    2.9375    0.1865 C   0  0  0  0  0  0  0  0  0  0  0  0
   -3.4734    4.2343    0.1196 C   0  0  0  0  0  0  0  0  0  0  0  0
   -4.8619    4.3732    0.2313 C   0  0  0  0  0  0  0  0  0  0  0  0
   -5.6523    3.2284    0.4065 C   0  0  0  0  0  0  0  0  0  0  0  0
   -5.0039    1.9815    0.4600 C   0  0  0  0  0  0  0  0  0  0  0  0
    4.8239    0.9304   -0.2786 H   0  0  0  0  0  0  0  0  0  0  0  0
    6.0654    3.1001   -0.4541 H   0  0  0  0  0  0  0  0  0  0  0  0
    4.7316    5.2642   -0.4260 H   0  0  0  0  0  0  0  0  0  0  0  0
    2.2254    5.1429   -0.2398 H   0  0  0  0  0  0  0  0  0  0  0  0
   -0.4164    4.7198   -0.0248 H   0  0  0  0  0  0  0  0  0  0  0  0
   -2.8332    5.1167   -0.0212 H   0  0  0  0  0  0  0  0  0  0  0  0
   -5.3233    5.3708    0.1813 H   0  0  0  0  0  0  0  0  0  0  0  0
   -6.7458    3.2938    0.5018 H   0  0  0  0  0  0  0  0  0  0  0  0
   -5.5838    1.0520    0.6027 H   0  0  0  0  0  0  0  0  0  0  0  0
  1  9  1  0  0  0  0
  2  3  1  0  0  0  0
  4 17  1  0  0  0  0
  5  1  1  0  0  0  0
  6  7  1  0  0  0  0
  6  5  2  0  0  0  0
  7  8  2  0  0  0  0
  8 21  1  0  0  0  0
  8  9  1  0  0  0  0
  9 10  2  0  0  0  0
 10 11  1  0  0  0  0
 10  2  1  0  0  0  0
 11 12  2  0  0  0  0
 12  3  1  0  0  0  0
 12 13  1  0  0  0  0
 13  4  2  0  0  0  0
 14 13  1  0  0  0  0
 14 15  2  0  0  0  0
 15 16  1  0  0  0  0
 16 17  2  0  0  0  0
 16 25  1  0  0  0  0
 17 26  1  0  0  0  0
 18  5  1  0  0  0  0
 19  6  1  0  0  0  0
 20  7  1  0  0  0  0
 22 11  1  0  0  0  0
 23 14  1  0  0  0  0
 24 15  1  0  0  0  0
M  END
