1,3
 OpenBabel05122313063D

 33 35  0  0  1  0  0  0  0  0999 V2000
    2.2335   -0.0529   -0.6670 N   0  0  0  0  0  2  0  0  0  0  0  0
   -2.4443    1.0494   -0.4071 N   0  0  0  0  0  0  0  0  0  0  0  0
   -0.0876    1.2492   -0.5027 N   0  0  0  0  0  2  0  0  0  0  0  0
   -2.6821    0.2003   -1.4469 N   0  0  0  0  0  0  0  0  0  0  0  0
    2.3034    1.3042   -0.7961 C   0  0  1  0  0  3  0  0  0  0  0  0
   -3.4672    1.0683    0.5270 C   0  0  0  0  0  0  0  0  0  0  0  0
    3.5213    1.9400   -1.1067 C   0  0  0  0  0  0  0  0  0  0  0  0
   -1.2935    1.8594   -0.4381 C   0  0  1  0  0  3  0  0  0  0  0  0
   -4.4087    0.1708    0.0416 C   0  0  0  0  0  0  0  0  0  0  0  0
    1.0294    2.0277   -0.6362 C   0  0  0  0  0  0  0  0  0  0  0  0
   -3.3747    1.8152    1.8174 C   0  0  0  0  0  0  0  0  0  0  0  0
   -0.2913    4.0538   -0.4990 C   0  0  0  0  0  0  0  0  0  0  0  0
    4.5903   -0.2189   -1.1487 C   0  0  0  0  0  0  0  0  0  0  0  0
   -3.8744   -0.3418   -1.1819 C   0  0  0  0  0  0  0  0  0  0  0  0
    4.6771    1.1765   -1.2809 C   0  0  0  0  0  0  0  0  0  0  0  0
   -1.4365    3.2552   -0.4212 C   0  0  0  0  0  0  0  0  0  0  0  0
   -4.4584   -1.3670   -2.1008 C   0  0  0  0  0  0  0  0  0  0  0  0
    0.9521    3.4320   -0.6312 C   0  0  0  0  0  0  0  0  0  0  0  0
    3.3542   -0.7896   -0.8435 C   0  0  0  0  0  0  0  0  0  0  0  0
    3.5610    3.0310   -1.2185 H   0  0  0  0  0  0  0  0  0  0  0  0
   -5.3391   -0.1216    0.5400 H   0  0  0  0  0  0  0  0  0  0  0  0
   -2.3827    1.6580    2.2912 H   0  0  0  0  0  0  0  0  0  0  0  0
   -3.5227    2.9091    1.7002 H   0  0  0  0  0  0  0  0  0  0  0  0
   -4.1495    1.4467    2.5144 H   0  0  0  0  0  0  0  0  0  0  0  0
   -2.4445    3.6876   -0.3803 H   0  0  0  0  0  0  0  0  0  0  0  0
   -3.7411   -1.5926   -2.9118 H   0  0  0  0  0  0  0  0  0  0  0  0
   -4.6744   -2.3073   -1.5533 H   0  0  0  0  0  0  0  0  0  0  0  0
   -5.4114   -1.0201   -2.5509 H   0  0  0  0  0  0  0  0  0  0  0  0
    1.8652    4.0343   -0.7113 H   0  0  0  0  0  0  0  0  0  0  0  0
    3.2405   -1.8755   -0.7194 H   0  0  0  0  0  0  0  0  0  0  0  0
   -0.3706    5.1502   -0.4848 H   0  0  0  0  0  0  0  0  0  0  0  0
    5.6338    1.6627   -1.5209 H   0  0  0  0  0  0  0  0  0  0  0  0
    5.4694   -0.8655   -1.2763 H   0  0  0  0  0  0  0  0  0  0  0  0
  2  6  1  0  0  0  0
  3  8  1  0  0  0  0
  4 14  2  0  0  0  0
  4  2  1  0  0  0  0
  5  1  1  0  0  0  0
  5 10  1  6  0  0  0
  6 11  1  0  0  0  0
  7  5  1  0  0  0  0
  8 16  1  0  0  0  0
  8  2  1  6  0  0  0
  9  6  2  0  0  0  0
  9 21  1  0  0  0  0
 10 18  2  0  0  0  0
 10  3  1  0  0  0  0
 11 22  1  0  0  0  0
 11 24  1  0  0  0  0
 12 31  1  0  0  0  0
 12 16  2  0  0  0  0
 13 19  2  0  0  0  0
 14  9  1  0  0  0  0
 15 13  1  0  0  0  0
 15  7  2  0  0  0  0
 16 25  1  0  0  0  0
 17 27  1  0  0  0  0
 17 14  1  0  0  0  0
 18 12  1  0  0  0  0
 19 30  1  0  0  0  0
 19  1  1  0  0  0  0
 20  7  1  0  0  0  0
 23 11  1  0  0  0  0
 26 17  1  0  0  0  0
 28 17  1  0  0  0  0
 29 18  1  0  0  0  0
 32 15  1  0  0  0  0
 33 13  1  0  0  0  0
M  END
