3,5
 OpenBabel05122313063D

 57 64  0  0  0  0  0  0  0  0999 V2000
   -0.7650   -0.2918   -0.3066 Si  0  0  0  0  0  0  0  0  0  0  0  0
   -0.9794    1.3498   -0.9962 N   0  0  0  0  0  0  0  0  0  0  0  0
    0.8701    2.5589   -0.0076 N   0  0  0  0  0  2  0  0  0  0  0  0
   -0.4749   -0.4124    1.4586 N   0  0  0  0  0  0  0  0  0  0  0  0
    1.8134    0.3723    1.7873 N   0  0  0  0  0  2  0  0  0  0  0  0
    0.1704   -1.3837   -1.3085 N   0  0  0  0  0  0  0  0  0  0  0  0
    0.1297   -3.2157    0.2596 N   0  0  0  0  0  0  0  0  0  0  0  0
   -2.4330   -0.9230   -0.4732 N   0  0  0  0  0  0  0  0  0  0  0  0
   -3.5724    0.7579    0.8288 N   0  0  0  0  0  0  0  0  0  0  0  0
   -2.1173    1.7654   -1.7171 C   0  0  0  0  0  0  0  0  0  0  0  0
   -2.8026    1.0173   -2.1266 H   0  0  0  0  0  0  0  0  0  0  0  0
   -2.1853    3.1380   -1.7877 C   0  0  0  0  0  0  0  0  0  0  0  0
   -2.9645    3.7154   -2.2964 H   0  0  0  0  0  0  0  0  0  0  0  0
   -1.0462    3.6510   -1.0747 C   0  0  0  0  0  0  0  0  0  0  0  0
   -0.5175    4.9153   -0.7594 C   0  0  0  0  0  0  0  0  0  0  0  0
   -1.0254    5.8388   -1.0746 H   0  0  0  0  0  0  0  0  0  0  0  0
    0.6855    4.9645   -0.0406 C   0  0  0  0  0  0  0  0  0  0  0  0
    1.1393    5.9270    0.2331 H   0  0  0  0  0  0  0  0  0  0  0  0
    1.3600    3.7795    0.3004 C   0  0  0  0  0  3  0  0  0  0  0  0
    2.3393    3.7946    0.7989 H   0  0  0  0  0  0  0  0  0  0  0  0
   -0.3157    2.5072   -0.6296 C   0  0  0  0  0  0  0  0  0  0  0  0
   -1.3938   -1.0327    2.3302 C   0  0  0  0  0  0  0  0  0  0  0  0
   -2.3605   -1.3691    1.9523 H   0  0  0  0  0  0  0  0  0  0  0  0
   -0.8805   -1.1463    3.5992 C   0  0  0  0  0  0  0  0  0  0  0  0
   -1.3928   -1.5879    4.4604 H   0  0  0  0  0  0  0  0  0  0  0  0
    0.4464   -0.5997    3.5632 C   0  0  0  0  0  0  0  0  0  0  0  0
    1.4956   -0.4371    4.4835 C   0  0  0  0  0  0  0  0  0  0  0  0
    1.3824   -0.7527    5.5313 H   0  0  0  0  0  0  0  0  0  0  0  0
    2.6945    0.1210    4.0214 C   0  0  0  0  0  0  0  0  0  0  0  0
    3.5529    0.2570    4.6936 H   0  0  0  0  0  0  0  0  0  0  0  0
    2.8251    0.5011    2.6763 C   0  0  0  0  0  3  0  0  0  0  0  0
    3.7649    0.9033    2.2744 H   0  0  0  0  0  0  0  0  0  0  0  0
    0.6618   -0.1653    2.2150 C   0  0  0  0  0  0  0  0  0  0  0  0
    0.7162   -1.1951   -2.5888 C   0  0  0  0  0  0  0  0  0  0  0  0
    0.6593   -0.2107   -3.0659 H   0  0  0  0  0  0  0  0  0  0  0  0
    1.3709   -2.3341   -3.0014 C   0  0  0  0  0  0  0  0  0  0  0  0
    1.9092   -2.4444   -3.9488 H   0  0  0  0  0  0  0  0  0  0  0  0
    1.2580   -3.3024   -1.9423 C   0  0  0  0  0  0  0  0  0  0  0  0
    1.6789   -4.6231   -1.6970 C   0  0  0  0  0  0  0  0  0  0  0  0
    2.2717   -5.1807   -2.4380 H   0  0  0  0  0  0  0  0  0  0  0  0
    1.3206   -5.2034   -0.4714 C   0  0  0  0  0  0  0  0  0  0  0  0
    1.6303   -6.2306   -0.2290 H   0  0  0  0  0  0  0  0  0  0  0  0
    0.5515   -4.4756    0.4643 C   0  0  0  0  0  0  0  0  0  0  0  0
    0.2616   -4.9379    1.4232 H   0  0  0  0  0  0  0  0  0  0  0  0
    0.5037   -2.6811   -0.8996 C   0  0  0  0  0  0  0  0  0  0  0  0
   -2.8523   -2.0402   -1.2065 C   0  0  0  0  0  0  0  0  0  0  0  0
   -2.1110   -2.6637   -1.7176 H   0  0  0  0  0  0  0  0  0  0  0  0
   -4.2258   -2.1761   -1.1536 C   0  0  0  0  0  0  0  0  0  0  0  0
   -4.8076   -2.9666   -1.6403 H   0  0  0  0  0  0  0  0  0  0  0  0
   -4.7239   -1.0945   -0.3454 C   0  0  0  0  0  0  0  0  0  0  0  0
   -5.9754   -0.6330    0.1110 C   0  0  0  0  0  0  0  0  0  0  0  0
   -6.9081   -1.1549   -0.1521 H   0  0  0  0  0  0  0  0  0  0  0  0
   -5.9905    0.5155    0.9135 C   0  0  0  0  0  0  0  0  0  0  0  0
   -6.9404    0.9171    1.2957 H   0  0  0  0  0  0  0  0  0  0  0  0
   -4.7802    1.1706    1.2439 C   0  0  0  0  0  0  0  0  0  0  0  0
   -4.7965    2.0734    1.8779 H   0  0  0  0  0  0  0  0  0  0  0  0
   -3.5809   -0.3344    0.0630 C   0  0  0  0  0  0  0  0  0  0  0  0
  1  4  1  0  0  0  0
  2 21  1  0  0  0  0
  2  1  1  0  0  0  0
  3 19  1  0  0  0  0
  4 33  1  0  0  0  0
  4 22  1  0  0  0  0
  5 33  1  0  0  0  0
  5 31  1  0  0  0  0
  6 45  1  0  0  0  0
  6  1  1  0  0  0  0
  7 43  1  0  0  0  0
  8  1  1  0  0  0  0
  8 57  1  0  0  0  0
  9 55  1  0  0  0  0
 10  2  1  0  0  0  0
 11 10  1  0  0  0  0
 12 10  2  0  0  0  0
 12 14  1  0  0  0  0
 13 12  1  0  0  0  0
 14 15  1  0  0  0  0
 14 21  2  0  0  0  0
 15 17  2  0  0  0  0
 16 15  1  0  0  0  0
 17 18  1  0  0  0  0
 17 19  1  0  0  0  0
 19 20  1  0  0  0  0
 21  3  1  0  0  0  0
 22 24  2  0  0  0  0
 23 22  1  0  0  0  0
 24 25  1  0  0  0  0
 26 24  1  0  0  0  0
 26 27  1  0  0  0  0
 27 28  1  0  0  0  0
 29 27  2  0  0  0  0
 29 30  1  0  0  0  0
 31 29  1  0  0  0  0
 32 31  1  0  0  0  0
 33 26  2  0  0  0  0
 34  6  1  0  0  0  0
 35 34  1  0  0  0  0
 36 34  2  0  0  0  0
 36 38  1  0  0  0  0
 37 36  1  0  0  0  0
 38 39  2  0  0  0  0
 38 45  1  0  0  0  0
 39 41  1  0  0  0  0
 40 39  1  0  0  0  0
 41 42  1  0  0  0  0
 41 43  2  0  0  0  0
 43 44  1  0  0  0  0
 45  7  2  0  0  0  0
 46 48  2  0  0  0  0
 46  8  1  0  0  0  0
 47 46  1  0  0  0  0
 48 50  1  0  0  0  0
 49 48  1  0  0  0  0
 50 57  1  0  0  0  0
 50 51  2  0  0  0  0
 51 53  1  0  0  0  0
 52 51  1  0  0  0  0
 53 55  2  0  0  0  0
 53 54  1  0  0  0  0
 55 56  1  0  0  0  0
 57  9  2  0  0  0  0
M  END
