1,3
 OpenBabel05122313063D

 21 22  0  0  1  0  0  0  0  0999 V2000
    0.6001   -0.9502   -0.0001 N   0  0  0  0  0  2  0  0  0  0  0  0
    1.8828    1.1632    0.0005 N   0  0  0  0  0  0  0  0  0  0  0  0
   -0.3648    1.7490   -0.0013 N   0  0  0  0  0  2  0  0  0  0  0  0
   -1.0866    2.4887   -0.0014 H   0  0  0  0  0  0  0  0  0  0  0  0
    0.7310   -2.2998   -0.0006 C   0  0  0  0  0  3  0  0  0  0  0  0
   -0.2306   -2.8419   -0.0005 H   0  0  0  0  0  0  0  0  0  0  0  0
    1.9787   -2.9458   -0.0008 C   0  0  0  0  0  0  0  0  0  0  0  0
    1.9968   -4.0447   -0.0011 H   0  0  0  0  0  0  0  0  0  0  0  0
    3.1649   -2.2054   -0.0006 C   0  0  0  0  0  0  0  0  0  0  0  0
    4.1499   -2.6949   -0.0007 H   0  0  0  0  0  0  0  0  0  0  0  0
    3.0518   -0.8038   -0.0002 C   0  0  0  0  0  0  0  0  0  0  0  0
    3.9905    0.2878    0.0002 C   0  0  0  0  0  0  0  0  0  0  0  0
    5.0830    0.2158    0.0003 H   0  0  0  0  0  0  0  0  0  0  0  0
    3.2606    1.4494    0.0006 C   0  0  0  0  0  0  0  0  0  0  0  0
    3.6062    2.4861    0.0009 H   0  0  0  0  0  0  0  0  0  0  0  0
    1.7418   -0.2344   -0.0000 C   0  0  0  0  0  0  0  0  0  0  0  0
    0.8700    2.1297    0.0001 C   0  0  2  0  0  3  0  0  0  0  0  0
    1.2814    3.5732    0.0012 C   0  0  0  0  0  0  0  0  0  0  0  0
    0.3813    4.2130    0.0016 H   0  0  0  0  0  0  0  0  0  0  0  0
    1.8854    3.8210   -0.8954 H   0  0  0  0  0  0  0  0  0  0  0  0
    1.8850    3.8195    0.8985 H   0  0  0  0  0  0  0  0  0  0  0  0
  1 16  1  0  0  0  0
  2 14  1  0  0  0  0
  4  3  1  0  0  0  0
  5  6  1  0  0  0  0
  5  1  1  0  0  0  0
  7  9  2  0  0  0  0
  7  5  1  0  0  0  0
  8  7  1  0  0  0  0
  9 11  1  0  0  0  0
 10  9  1  0  0  0  0
 11 16  2  0  0  0  0
 11 12  1  0  0  0  0
 12 13  1  0  0  0  0
 12 14  2  0  0  0  0
 14 15  1  0  0  0  0
 16  2  1  0  0  0  0
 17  3  1  6  0  0  0
 17  2  1  0  0  0  0
 17 18  1  0  0  0  0
 18 19  1  0  0  0  0
 18 21  1  0  0  0  0
 20 18  1  0  0  0  0
M  END
