3,5
 OpenBabel05122313063D

 47 52  0  0  0  0  0  0  0  0999 V2000
   -0.0877   -0.0452    1.8534 Si  0  0  2  0  0  0  0  0  0  0  0  0
   -0.2374    1.6328    1.2173 N   0  0  0  0  0  0  0  0  0  0  0  0
   -0.2917    1.4738   -1.2274 N   0  0  0  0  0  2  0  0  0  0  0  0
    1.6436   -0.5334    1.7828 N   0  0  0  0  0  0  0  0  0  0  0  0
    2.3041    0.1677   -0.4530 N   0  0  0  0  0  2  0  0  0  0  0  0
   -1.1463   -1.2150    1.0746 N   0  0  0  0  0  0  0  0  0  0  0  0
   -3.0808    0.1972    1.2915 N   0  0  0  0  0  0  0  0  0  0  0  0
   -0.4973    2.7006    2.0977 C   0  0  0  0  0  0  0  0  0  0  0  0
   -0.4114    2.5521    3.1776 H   0  0  0  0  0  0  0  0  0  0  0  0
   -0.8555    3.8400    1.4168 C   0  0  0  0  0  0  0  0  0  0  0  0
   -1.1048    4.8081    1.8639 H   0  0  0  0  0  0  0  0  0  0  0  0
   -0.8461    3.5043    0.0210 C   0  0  0  0  0  0  0  0  0  0  0  0
   -1.1336    4.1875   -1.1734 C   0  0  0  0  0  0  0  0  0  0  0  0
   -1.4433    5.2432   -1.1613 H   0  0  0  0  0  0  0  0  0  0  0  0
   -1.0262    3.4757   -2.3732 C   0  0  0  0  0  0  0  0  0  0  0  0
   -1.2582    3.9491   -3.3373 H   0  0  0  0  0  0  0  0  0  0  0  0
   -0.6101    2.1338   -2.3662 C   0  0  0  0  0  3  0  0  0  0  0  0
   -0.5370    1.5382   -3.2865 H   0  0  0  0  0  0  0  0  0  0  0  0
   -0.4453    2.1302   -0.0634 C   0  0  0  0  0  0  0  0  0  0  0  0
    2.3829   -0.8919    2.9259 C   0  0  0  0  0  0  0  0  0  0  0  0
    1.8621   -1.2085    3.8351 H   0  0  0  0  0  0  0  0  0  0  0  0
    3.7371   -0.7805    2.7014 C   0  0  0  0  0  0  0  0  0  0  0  0
    4.5309   -1.0100    3.4202 H   0  0  0  0  0  0  0  0  0  0  0  0
    3.8953   -0.3142    1.3506 C   0  0  0  0  0  0  0  0  0  0  0  0
    4.9749    0.0272    0.5165 C   0  0  0  0  0  0  0  0  0  0  0  0
    6.0137   -0.0502    0.8706 H   0  0  0  0  0  0  0  0  0  0  0  0
    4.6837    0.4669   -0.7806 C   0  0  0  0  0  0  0  0  0  0  0  0
    5.4863    0.7519   -1.4747 H   0  0  0  0  0  0  0  0  0  0  0  0
    3.3536    0.5116   -1.2331 C   0  0  0  0  0  3  0  0  0  0  0  0
    3.1093    0.7931   -2.2667 H   0  0  0  0  0  0  0  0  0  0  0  0
    2.5751   -0.1961    0.8117 C   0  0  0  0  0  0  0  0  0  0  0  0
   -0.9260   -2.5283    0.6273 C   0  0  0  0  0  0  0  0  0  0  0  0
    0.0949   -2.9209    0.5580 H   0  0  0  0  0  0  0  0  0  0  0  0
   -2.1111   -3.0965    0.2131 C   0  0  0  0  0  0  0  0  0  0  0  0
   -2.2122   -4.0966   -0.2212 H   0  0  0  0  0  0  0  0  0  0  0  0
   -3.1450   -2.1121    0.3911 C   0  0  0  0  0  0  0  0  0  0  0  0
   -4.5315   -2.0077    0.1717 C   0  0  0  0  0  0  0  0  0  0  0  0
   -5.1069   -2.8423   -0.2570 H   0  0  0  0  0  0  0  0  0  0  0  0
   -5.1563   -0.7989    0.5134 C   0  0  0  0  0  0  0  0  0  0  0  0
   -6.2366   -0.6657    0.3554 H   0  0  0  0  0  0  0  0  0  0  0  0
   -4.4059    0.2620    1.0687 C   0  0  0  0  0  0  0  0  0  0  0  0
   -4.9031    1.2072    1.3452 H   0  0  0  0  0  0  0  0  0  0  0  0
   -2.5109   -0.9540    0.9387 C   0  0  0  0  0  0  0  0  0  0  0  0
   -0.5547    0.0069    3.6601 C   0  0  0  0  0  0  0  0  0  0  0  0
   -1.6016    0.3654    3.7195 H   0  0  0  0  0  0  0  0  0  0  0  0
    0.0946    0.6429    4.2919 H   0  0  0  0  0  0  0  0  0  0  0  0
   -0.5363   -1.0271    4.0600 H   0  0  0  0  0  0  0  0  0  0  0  0
  1 44  1  1  0  0  0
  2  1  1  0  0  0  0
  2  8  1  0  0  0  0
  3 19  1  0  0  0  0
  4  1  1  0  0  0  0
  4 20  1  0  0  0  0
  5 31  1  0  0  0  0
  6  1  1  0  0  0  0
  8  9  1  0  0  0  0
 10 11  1  0  0  0  0
 10  8  2  0  0  0  0
 12 10  1  0  0  0  0
 13 14  1  0  0  0  0
 13 12  1  0  0  0  0
 15 17  1  0  0  0  0
 15 13  2  0  0  0  0
 16 15  1  0  0  0  0
 17  3  1  0  0  0  0
 18 17  1  0  0  0  0
 19 12  2  0  0  0  0
 19  2  1  0  0  0  0
 20 21  1  0  0  0  0
 22 20  2  0  0  0  0
 22 23  1  0  0  0  0
 24 22  1  0  0  0  0
 25 26  1  0  0  0  0
 25 24  1  0  0  0  0
 27 25  2  0  0  0  0
 28 27  1  0  0  0  0
 29 27  1  0  0  0  0
 29  5  1  0  0  0  0
 30 29  1  0  0  0  0
 31 24  2  0  0  0  0
 31  4  1  0  0  0  0
 32  6  1  0  0  0  0
 33 32  1  0  0  0  0
 34 36  1  0  0  0  0
 34 32  2  0  0  0  0
 35 34  1  0  0  0  0
 36 43  1  0  0  0  0
 37 36  2  0  0  0  0
 37 39  1  0  0  0  0
 38 37  1  0  0  0  0
 39 41  2  0  0  0  0
 40 39  1  0  0  0  0
 41  7  1  0  0  0  0
 41 42  1  0  0  0  0
 43  6  1  0  0  0  0
 43  7  2  0  0  0  0
 44 45  1  0  0  0  0
 44 47  1  0  0  0  0
 44 46  1  0  0  0  0
M  END
