47,48
 OpenBabel05122313063D

 52 55  0  0  0  0  0  0  0  0999 V2000
   -6.8856    2.9062   -0.4914 C   0  0  0  0  0  0  0  0  0  0  0  0
   -7.9530    2.8129   -0.7262 H   0  0  0  0  0  0  0  0  0  0  0  0
   -6.1801    4.0390   -0.1246 C   0  0  0  0  0  0  0  0  0  0  0  0
   -6.6402    5.0311   -0.0246 H   0  0  0  0  0  0  0  0  0  0  0  0
   -4.8067    3.7696    0.1187 C   0  0  0  0  0  0  0  0  0  0  0  0
   -4.0779    4.5283    0.4373 H   0  0  0  0  0  0  0  0  0  0  0  0
   -4.4635    2.4268   -0.0592 C   0  0  0  0  0  0  0  0  0  0  0  0
   -3.1475    1.8379    0.0681 C   0  0  0  0  0  0  0  0  0  0  0  0
   -2.7382    0.5146    0.2963 C   0  0  0  0  0  0  0  0  0  0  0  0
   -0.7146    1.5158    0.1932 C   0  0  0  0  0  0  0  0  0  0  0  0
    0.7146    1.5158    0.1932 C   0  0  0  0  0  0  0  0  0  0  0  0
    2.7382    0.5147    0.2964 C   0  0  0  0  0  0  0  0  0  0  0  0
    3.1474    1.8379    0.0681 C   0  0  0  0  0  0  0  0  0  0  0  0
    4.4635    2.4268   -0.0593 C   0  0  0  0  0  0  0  0  0  0  0  0
    4.8067    3.7696    0.1187 C   0  0  0  0  0  0  0  0  0  0  0  0
    4.0779    4.5283    0.4374 H   0  0  0  0  0  0  0  0  0  0  0  0
    6.1801    4.0391   -0.1246 C   0  0  0  0  0  0  0  0  0  0  0  0
    6.6401    5.0312   -0.0246 H   0  0  0  0  0  0  0  0  0  0  0  0
    6.8856    2.9063   -0.4916 C   0  0  0  0  0  0  0  0  0  0  0  0
    7.9529    2.8130   -0.7264 H   0  0  0  0  0  0  0  0  0  0  0  0
   -3.6470   -0.6685    0.3794 C   0  0  0  0  0  0  0  0  0  0  0  0
   -4.6334   -0.3492    0.7754 H   0  0  0  0  0  0  0  0  0  0  0  0
   -3.2298   -1.3810    1.1172 H   0  0  0  0  0  0  0  0  0  0  0  0
   -3.8240   -1.3610   -0.9876 C   0  0  0  0  0  0  0  0  0  0  0  0
   -4.2115   -0.6183   -1.7204 H   0  0  0  0  0  0  0  0  0  0  0  0
   -2.8240   -1.6619   -1.3699 H   0  0  0  0  0  0  0  0  0  0  0  0
   -4.7652   -2.5652   -0.9273 C   0  0  0  0  0  0  0  0  0  0  0  0
   -4.3795   -3.2851   -0.1744 H   0  0  0  0  0  0  0  0  0  0  0  0
   -5.7621   -2.2347   -0.5572 H   0  0  0  0  0  0  0  0  0  0  0  0
   -4.9141   -3.2640   -2.2786 C   0  0  0  0  0  0  0  0  0  0  0  0
   -5.3159   -2.5741   -3.0502 H   0  0  0  0  0  0  0  0  0  0  0  0
   -5.5989   -4.1335   -2.2162 H   0  0  0  0  0  0  0  0  0  0  0  0
   -3.9336   -3.6329   -2.6439 H   0  0  0  0  0  0  0  0  0  0  0  0
    3.6470   -0.6684    0.3796 C   0  0  0  0  0  0  0  0  0  0  0  0
    3.2298   -1.3809    1.1174 H   0  0  0  0  0  0  0  0  0  0  0  0
    4.6334   -0.3491    0.7755 H   0  0  0  0  0  0  0  0  0  0  0  0
    3.8239   -1.3611   -0.9874 C   0  0  0  0  0  0  0  0  0  0  0  0
    2.8240   -1.6621   -1.3697 H   0  0  0  0  0  0  0  0  0  0  0  0
    4.2114   -0.6184   -1.7203 H   0  0  0  0  0  0  0  0  0  0  0  0
    4.7652   -2.5653   -0.9270 C   0  0  0  0  0  0  0  0  0  0  0  0
    4.3797   -3.2851   -0.1741 H   0  0  0  0  0  0  0  0  0  0  0  0
    5.7622   -2.2346   -0.5571 H   0  0  0  0  0  0  0  0  0  0  0  0
    4.9141   -3.2642   -2.2783 C   0  0  0  0  0  0  0  0  0  0  0  0
    3.9336   -3.6331   -2.6435 H   0  0  0  0  0  0  0  0  0  0  0  0
    5.5990   -4.1336   -2.2158 H   0  0  0  0  0  0  0  0  0  0  0  0
    5.3158   -2.5743   -3.0500 H   0  0  0  0  0  0  0  0  0  0  0  0
   -1.3723    0.3617    0.3680 N   0  0  0  0  0  2  0  0  0  0  0  0
    1.3723    0.3618    0.3680 N   0  0  0  0  0  2  0  0  0  0  0  0
   -5.8770    1.5068   -0.5483 S   0  0  0  0  0  0  0  0  0  0  0  0
   -1.7444    2.8840   -0.0709 S   0  0  0  0  0  0  0  0  0  0  0  0
    1.7444    2.8840   -0.0710 S   0  0  0  0  0  0  0  0  0  0  0  0
    5.8770    1.5069   -0.5485 S   0  0  0  0  0  0  0  0  0  0  0  0
  1  3  2  0  0  0  0
  2  1  1  0  0  0  0
  3  4  1  0  0  0  0
  3  5  1  0  0  0  0
  5  6  1  0  0  0  0
  7  8  1  0  0  0  0
  7  5  2  0  0  0  0
  8  9  2  0  0  0  0
  9 47  1  0  0  0  0
  9 21  1  0  0  0  0
 10 11  2  0  0  0  0
 10 47  1  0  0  0  0
 11 48  1  0  0  0  0
 12 48  1  0  0  0  0
 12 34  1  0  0  0  0
 13 12  2  0  0  0  0
 14 13  1  0  0  0  0
 14 15  2  0  0  0  0
 15 16  1  0  0  0  0
 17 18  1  0  0  0  0
 17 15  1  0  0  0  0
 19 17  2  0  0  0  0
 20 19  1  0  0  0  0
 21 22  1  0  0  0  0
 21 23  1  0  0  0  0
 24 27  1  0  0  0  0
 24 21  1  0  0  0  0
 25 24  1  0  0  0  0
 26 24  1  0  0  0  0
 27 29  1  0  0  0  0
 27 28  1  0  0  0  0
 30 32  1  0  0  0  0
 30 27  1  0  0  0  0
 31 30  1  0  0  0  0
 33 30  1  0  0  0  0
 34 36  1  0  0  0  0
 34 35  1  0  0  0  0
 37 40  1  0  0  0  0
 37 34  1  0  0  0  0
 38 37  1  0  0  0  0
 39 37  1  0  0  0  0
 40 42  1  0  0  0  0
 40 41  1  0  0  0  0
 43 45  1  0  0  0  0
 43 40  1  0  0  0  0
 44 43  1  0  0  0  0
 46 43  1  0  0  0  0
 49  1  1  0  0  0  0
 49  7  1  0  0  0  0
 50  8  1  0  0  0  0
 50 10  1  0  0  0  0
 51 13  1  0  0  0  0
 51 11  1  0  0  0  0
 52 19  1  0  0  0  0
 52 14  1  0  0  0  0
M  END
