6,13
 OpenBabel05122313063D

 32 34  0  0  1  0  0  0  0  0999 V2000
   -4.3400    0.5608   -0.0625 C   0  0  0  0  0  0  0  0  0  0  0  0
   -3.1445    0.8618   -0.0782 C   0  0  0  0  0  0  0  0  0  0  0  0
   -1.7689    1.2089   -0.0964 C   0  0  0  0  0  0  0  0  0  0  0  0
   -0.7823    0.2017   -0.1041 C   0  0  0  0  0  3  0  0  0  0  0  0
   -1.0646   -0.8584   -0.0699 H   0  0  0  0  0  0  0  0  0  0  0  0
    0.5416    0.4636   -0.1400 N   0  0  0  0  0  2  0  0  0  0  0  0
    0.9631    1.7757   -0.1377 C   0  0  0  0  0  0  0  0  0  0  0  0
    0.0305    2.8330   -0.1124 C   0  0  0  0  0  0  0  0  0  0  0  0
    0.3885    3.8715   -0.0990 H   0  0  0  0  0  0  0  0  0  0  0  0
   -1.3322    2.5660   -0.0982 C   0  0  0  0  0  0  0  0  0  0  0  0
   -2.0717    3.3779   -0.0789 H   0  0  0  0  0  0  0  0  0  0  0  0
    2.4069    1.9261   -0.1831 C   0  0  1  0  0  3  0  0  0  0  0  0
    3.0877    0.7290   -0.2153 N   0  0  0  0  0  2  0  0  0  0  0  0
    4.4448    0.7569   -0.2589 C   0  0  0  0  0  0  0  0  0  0  0  0
    4.9366   -0.2250   -0.2446 H   0  0  0  0  0  0  0  0  0  0  0  0
    5.1727    1.9425   -0.3025 C   0  0  0  0  0  0  0  0  0  0  0  0
    6.2703    1.8998   -0.3419 H   0  0  0  0  0  0  0  0  0  0  0  0
    4.4861    3.1741   -0.2778 C   0  0  0  0  0  0  0  0  0  0  0  0
    5.0343    4.1269   -0.2996 H   0  0  0  0  0  0  0  0  0  0  0  0
    3.0942    3.1570   -0.2122 C   0  0  0  0  0  0  0  0  0  0  0  0
    2.5256    4.0964   -0.1765 H   0  0  0  0  0  0  0  0  0  0  0  0
   -5.7187    0.2088   -0.0427 C   0  0  0  0  0  0  0  0  0  0  0  0
   -6.1153   -1.1541   -0.0105 C   0  0  0  0  0  0  0  0  0  0  0  0
   -5.3413   -1.9350    0.0002 H   0  0  0  0  0  0  0  0  0  0  0  0
   -7.4718   -1.4951    0.0091 C   0  0  0  0  0  0  0  0  0  0  0  0
   -7.7655   -2.5554    0.0348 H   0  0  0  0  0  0  0  0  0  0  0  0
   -8.4564   -0.4925   -0.0028 C   0  0  0  0  0  0  0  0  0  0  0  0
   -9.5222   -0.7656    0.0131 H   0  0  0  0  0  0  0  0  0  0  0  0
   -8.0757    0.8598   -0.0342 C   0  0  0  0  0  0  0  0  0  0  0  0
   -8.8436    1.6480   -0.0428 H   0  0  0  0  0  0  0  0  0  0  0  0
   -6.7223    1.2129   -0.0540 C   0  0  0  0  0  0  0  0  0  0  0  0
   -6.4197    2.2697   -0.0779 H   0  0  0  0  0  0  0  0  0  0  0  0
  1 22  1  0  0  0  0
  2  1  3  0  0  0  0
  3  2  1  0  0  0  0
  4  3  1  0  0  0  0
  4  5  1  0  0  0  0
  6  7  1  0  0  0  0
  6  4  1  0  0  0  0
  7  8  2  0  0  0  0
  8  9  1  0  0  0  0
  8 10  1  0  0  0  0
 10  3  2  0  0  0  0
 10 11  1  0  0  0  0
 12  7  1  6  0  0  0
 13 12  1  0  0  0  0
 14 15  1  0  0  0  0
 14 13  1  0  0  0  0
 16 18  1  0  0  0  0
 16 14  2  0  0  0  0
 17 16  1  0  0  0  0
 18 20  2  0  0  0  0
 19 18  1  0  0  0  0
 20 12  1  0  0  0  0
 20 21  1  0  0  0  0
 22 23  1  0  0  0  0
 23 24  1  0  0  0  0
 23 25  2  0  0  0  0
 25 26  1  0  0  0  0
 27 25  1  0  0  0  0
 27 28  1  0  0  0  0
 29 27  2  0  0  0  0
 30 29  1  0  0  0  0
 31 22  2  0  0  0  0
 31 29  1  0  0  0  0
 32 31  1  0  0  0  0
M  END
