1,3
 OpenBabel05122313063D

 26 27  0  0  1  0  0  0  0  0999 V2000
    0.4362    1.5956   -0.0094 N   0  0  0  0  0  2  0  0  0  0  0  0
    2.6484    0.6596    0.0587 N   0  0  0  0  0  0  0  0  0  0  0  0
    1.0082   -1.0627   -0.0577 N   0  0  0  0  0  2  0  0  0  0  0  0
    2.3026    2.9563    0.0151 N   0  0  0  0  0  0  0  0  0  0  0  0
    1.4583    4.0184   -0.0407 N   0  0  0  0  0  0  0  0  0  0  0  0
    1.7618    1.6483    0.0201 C   0  0  2  0  0  3  0  0  0  0  0  0
    2.2732   -0.6257    0.0121 C   0  0  0  0  0  0  0  0  0  0  0  0
    2.2561    5.0866   -0.0259 C   0  0  0  0  0  0  0  0  0  0  0  0
    3.6321    4.7152    0.0424 C   0  0  0  0  0  0  0  0  0  0  0  0
    3.6268    3.3311    0.0683 C   0  0  0  0  0  0  0  0  0  0  0  0
    3.3649   -1.6392    0.0199 C   0  0  0  0  0  0  0  0  0  0  0  0
    4.6394   -1.2856   -0.4726 C   0  0  0  0  0  0  0  0  0  0  0  0
    5.6735   -2.2288   -0.4976 C   0  0  0  0  0  0  0  0  0  0  0  0
    5.4551   -3.5301   -0.0159 C   0  0  0  0  0  0  0  0  0  0  0  0
    4.1969   -3.8851    0.4971 C   0  0  0  0  0  0  0  0  0  0  0  0
    3.1580   -2.9460    0.5154 C   0  0  0  0  0  0  0  0  0  0  0  0
    0.0523    2.5558   -0.0642 H   0  0  0  0  0  0  0  0  0  0  0  0
    0.9581   -2.0751   -0.2108 H   0  0  0  0  0  0  0  0  0  0  0  0
    1.8216    6.0938   -0.0642 H   0  0  0  0  0  0  0  0  0  0  0  0
    4.5060    5.3741    0.0713 H   0  0  0  0  0  0  0  0  0  0  0  0
    4.4163    2.5767    0.1263 H   0  0  0  0  0  0  0  0  0  0  0  0
    4.7943   -0.2633   -0.8440 H   0  0  0  0  0  0  0  0  0  0  0  0
    6.6599   -1.9472   -0.8951 H   0  0  0  0  0  0  0  0  0  0  0  0
    6.2711   -4.2680   -0.0304 H   0  0  0  0  0  0  0  0  0  0  0  0
    4.0302   -4.8947    0.9008 H   0  0  0  0  0  0  0  0  0  0  0  0
    2.1929   -3.2241    0.9687 H   0  0  0  0  0  0  0  0  0  0  0  0
  3  7  1  0  0  0  0
  4  6  1  0  0  0  0
  4 10  1  0  0  0  0
  5  8  2  0  0  0  0
  5  4  1  0  0  0  0
  6  1  1  1  0  0  0
  6  2  1  0  0  0  0
  7 11  1  0  0  0  0
  7  2  2  0  0  0  0
  8  9  1  0  0  0  0
  9 10  2  0  0  0  0
  9 20  1  0  0  0  0
 10 21  1  0  0  0  0
 11 16  1  0  0  0  0
 12 11  2  0  0  0  0
 13 12  1  0  0  0  0
 13 14  2  0  0  0  0
 14 15  1  0  0  0  0
 15 16  2  0  0  0  0
 15 25  1  0  0  0  0
 16 26  1  0  0  0  0
 17  1  1  0  0  0  0
 18  3  1  0  0  0  0
 19  8  1  0  0  0  0
 22 12  1  0  0  0  0
 23 13  1  0  0  0  0
 24 14  1  0  0  0  0
M  END
