1,2
 OpenBabel05122313063D

 27 29  0  0  0  0  0  0  0  0999 V2000
    0.6218    1.3967   -0.0050 N   0  0  0  0  0  2  0  0  0  0  0  0
    0.6153   -1.3777   -0.0840 N   0  0  0  0  0  0  0  0  0  0  0  0
    2.6722    0.0041   -0.0249 C   0  0  0  0  0  0  0  0  0  0  0  0
    2.0150    1.2501    0.0219 C   0  0  0  0  0  0  0  0  0  0  0  0
    2.0088   -1.2377   -0.0923 C   0  0  0  0  0  3  0  0  0  0  0  0
    2.6182    2.5517    0.0956 C   0  0  0  0  0  0  0  0  0  0  0  0
    3.6938    2.7496    0.1514 H   0  0  0  0  0  0  0  0  0  0  0  0
    4.8843   -0.6274    1.0191 C   0  0  0  0  0  0  0  0  0  0  0  0
    4.3521   -1.1124    1.8505 H   0  0  0  0  0  0  0  0  0  0  0  0
    4.1620   -0.0037   -0.0183 C   0  0  0  0  0  0  0  0  0  0  0  0
    0.3749    2.7254    0.0316 C   0  0  0  0  0  3  0  0  0  0  0  0
   -0.6496    3.1194    0.0184 H   0  0  0  0  0  0  0  0  0  0  0  0
    0.3606   -2.6980   -0.2253 C   0  0  0  0  0  0  0  0  0  0  0  0
   -0.6669   -3.0833   -0.2561 H   0  0  0  0  0  0  0  0  0  0  0  0
    2.6057   -2.5349   -0.2491 C   0  0  0  0  0  0  0  0  0  0  0  0
    3.6808   -2.7337   -0.3120 H   0  0  0  0  0  0  0  0  0  0  0  0
    6.9985   -0.0264   -0.0021 N   0  0  0  0  0  0  0  0  0  0  0  0
    4.9058    0.6068   -1.0481 C   0  0  0  0  0  0  0  0  0  0  0  0
    4.3913    1.0969   -1.8876 H   0  0  0  0  0  0  0  0  0  0  0  0
    1.5612   -3.4516   -0.3305 C   0  0  0  0  0  0  0  0  0  0  0  0
    1.6289   -4.5379   -0.4596 H   0  0  0  0  0  0  0  0  0  0  0  0
    1.5790    3.4780    0.0928 C   0  0  0  0  0  0  0  0  0  0  0  0
    1.6526    4.5707    0.1359 H   0  0  0  0  0  0  0  0  0  0  0  0
    6.3073    0.5632   -0.9909 C   0  0  0  0  0  0  0  0  0  0  0  0
    6.9035    1.0319   -1.7947 H   0  0  0  0  0  0  0  0  0  0  0  0
    6.2869   -0.6056    0.9782 C   0  0  0  0  0  0  0  0  0  0  0  0
    6.8663   -1.0847    1.7882 H   0  0  0  0  0  0  0  0  0  0  0  0
  1  4  1  0  0  0  0
  1 11  1  0  0  0  0
  3 10  1  0  0  0  0
  3  4  2  0  0  0  0
  4  6  1  0  0  0  0
  5  2  1  0  0  0  0
  5  3  1  0  0  0  0
  6  7  1  0  0  0  0
  8  9  1  0  0  0  0
 10  8  2  0  0  0  0
 11 22  1  0  0  0  0
 12 11  1  0  0  0  0
 13  2  2  0  0  0  0
 14 13  1  0  0  0  0
 15  5  1  0  0  0  0
 16 15  1  0  0  0  0
 17 26  2  0  0  0  0
 18 24  2  0  0  0  0
 18 10  1  0  0  0  0
 19 18  1  0  0  0  0
 20 15  2  0  0  0  0
 20 13  1  0  0  0  0
 21 20  1  0  0  0  0
 22  6  2  0  0  0  0
 22 23  1  0  0  0  0
 24 17  1  0  0  0  0
 25 24  1  0  0  0  0
 26  8  1  0  0  0  0
 26 27  1  0  0  0  0
M  END
