3,4
 OpenBabel05122313063D

 68 71  0  0  1  0  0  0  0  0999 V2000
   -1.7546   -2.7030   -2.3017 O   0  0  0  0  0  0  0  0  0  0  0  0
   -1.0367    2.5801    2.3775 O   0  0  0  0  0  0  0  0  0  0  0  0
   -0.3516   -1.6090   -0.9165 N   0  0  0  0  0  2  0  0  0  0  0  0
   -0.1517    1.5989    0.5517 N   0  0  0  0  0  2  0  0  0  0  0  0
   -1.4855   -1.6117   -1.5471 C   0  0  1  0  0  3  0  0  0  0  0  0
   -0.5785   -3.5615   -2.2213 C   0  0  0  0  0  0  0  0  0  0  0  0
    0.3394   -2.8853   -1.1664 C   0  0  2  0  0  0  0  0  0  0  0  0
    0.5959   -3.6853    0.1464 C   0  0  0  0  0  0  0  0  0  0  0  0
   -0.7281   -4.1072    0.8022 C   0  0  0  0  0  0  0  0  0  0  0  0
    1.4371   -4.9224   -0.2139 C   0  0  0  0  0  0  0  0  0  0  0  0
    1.3858   -2.7945    1.1218 C   0  0  0  0  0  0  0  0  0  0  0  0
   -2.4387   -0.4853   -1.5904 C   0  0  0  0  0  0  0  0  0  0  0  0
   -2.8853   -0.0653   -2.8599 C   0  0  0  0  0  0  0  0  0  0  0  0
   -3.7149    1.0540   -2.9734 C   0  0  0  0  0  0  0  0  0  0  0  0
   -4.1180    1.7369   -1.8192 C   0  0  0  0  0  0  0  0  0  0  0  0
   -3.7195    1.3154   -0.5339 C   0  0  0  0  0  0  0  0  0  0  0  0
   -2.8625    0.1889   -0.4128 C   0  0  0  0  0  0  0  0  0  0  0  0
   -4.2383    2.0387    0.6851 C   0  0  0  0  0  0  0  0  0  0  0  0
   -2.5928   -0.3560    0.9550 C   0  0  0  0  0  0  0  0  0  0  0  0
   -3.3052   -1.5152    1.3658 C   0  0  0  0  0  0  0  0  0  0  0  0
   -3.1823   -1.9576    2.6988 C   0  0  0  0  0  0  0  0  0  0  0  0
   -2.3950   -1.2694    3.6299 C   0  0  0  0  0  0  0  0  0  0  0  0
   -1.7074   -0.1179    3.2367 C   0  0  0  0  0  0  0  0  0  0  0  0
   -1.7874    0.3311    1.9027 C   0  0  0  0  0  0  0  0  0  0  0  0
   -4.2134   -2.2558    0.4139 C   0  0  0  0  0  0  0  0  0  0  0  0
   -0.9811    1.5165    1.5456 C   0  0  1  0  0  3  0  0  0  0  0  0
   -0.0260    3.5246    1.9118 C   0  0  0  0  0  0  0  0  0  0  0  0
    0.5109    2.9163    0.5902 C   0  0  2  0  0  0  0  0  0  0  0  0
    0.2674    3.7382   -0.7093 C   0  0  0  0  0  0  0  0  0  0  0  0
    1.1147    5.0193   -0.6121 C   0  0  0  0  0  0  0  0  0  0  0  0
   -1.2209    4.0797   -0.8813 C   0  0  0  0  0  0  0  0  0  0  0  0
    0.7459    2.9054   -1.9140 C   0  0  0  0  0  0  0  0  0  0  0  0
   -0.1246   -3.6036   -3.2314 H   0  0  0  0  0  0  0  0  0  0  0  0
   -0.9222   -4.5750   -1.9387 H   0  0  0  0  0  0  0  0  0  0  0  0
    1.3333   -2.6407   -1.5963 H   0  0  0  0  0  0  0  0  0  0  0  0
   -1.3251   -4.7904    0.1627 H   0  0  0  0  0  0  0  0  0  0  0  0
   -0.5288   -4.6425    1.7524 H   0  0  0  0  0  0  0  0  0  0  0  0
   -1.3474   -3.2222    1.0452 H   0  0  0  0  0  0  0  0  0  0  0  0
    0.9160   -5.5899   -0.9322 H   0  0  0  0  0  0  0  0  0  0  0  0
    2.4089   -4.6270   -0.6603 H   0  0  0  0  0  0  0  0  0  0  0  0
    1.6515   -5.5202    0.6948 H   0  0  0  0  0  0  0  0  0  0  0  0
    1.6625   -3.3718    2.0273 H   0  0  0  0  0  0  0  0  0  0  0  0
    2.3140   -2.4012    0.6669 H   0  0  0  0  0  0  0  0  0  0  0  0
    0.7861   -1.9216    1.4506 H   0  0  0  0  0  0  0  0  0  0  0  0
   -2.5552   -0.6163   -3.7520 H   0  0  0  0  0  0  0  0  0  0  0  0
   -4.0516    1.3939   -3.9639 H   0  0  0  0  0  0  0  0  0  0  0  0
   -4.7793    2.6130   -1.9061 H   0  0  0  0  0  0  0  0  0  0  0  0
   -4.6730    1.3331    1.4215 H   0  0  0  0  0  0  0  0  0  0  0  0
   -3.4330    2.5852    1.2174 H   0  0  0  0  0  0  0  0  0  0  0  0
   -5.0152    2.7751    0.4051 H   0  0  0  0  0  0  0  0  0  0  0  0
   -3.7356   -2.8574    3.0097 H   0  0  0  0  0  0  0  0  0  0  0  0
   -2.3215   -1.6292    4.6669 H   0  0  0  0  0  0  0  0  0  0  0  0
   -1.0842    0.4394    3.9501 H   0  0  0  0  0  0  0  0  0  0  0  0
   -4.8142   -3.0129    0.9526 H   0  0  0  0  0  0  0  0  0  0  0  0
   -4.9061   -1.5658   -0.1085 H   0  0  0  0  0  0  0  0  0  0  0  0
   -3.6428   -2.7820   -0.3788 H   0  0  0  0  0  0  0  0  0  0  0  0
    0.7505    3.5959    2.6983 H   0  0  0  0  0  0  0  0  0  0  0  0
   -0.5184    4.5093    1.7949 H   0  0  0  0  0  0  0  0  0  0  0  0
    1.6025    2.7352    0.6609 H   0  0  0  0  0  0  0  0  0  0  0  0
    0.8183    5.6504    0.2522 H   0  0  0  0  0  0  0  0  0  0  0  0
    2.1903    4.7706   -0.5082 H   0  0  0  0  0  0  0  0  0  0  0  0
    0.9909    5.6345   -1.5264 H   0  0  0  0  0  0  0  0  0  0  0  0
   -1.6111    4.7144   -0.0583 H   0  0  0  0  0  0  0  0  0  0  0  0
   -1.3794    4.6388   -1.8258 H   0  0  0  0  0  0  0  0  0  0  0  0
   -1.8342    3.1586   -0.9329 H   0  0  0  0  0  0  0  0  0  0  0  0
    0.1142    2.0024   -2.0496 H   0  0  0  0  0  0  0  0  0  0  0  0
    0.6780    3.5065   -2.8439 H   0  0  0  0  0  0  0  0  0  0  0  0
    1.7947    2.5750   -1.7800 H   0  0  0  0  0  0  0  0  0  0  0  0
  1  6  1  0  0  0  0
  1  5  1  0  0  0  0
  4 28  1  0  0  0  0
  4 26  1  0  0  0  0
  5 12  1  6  0  0  0
  5  3  1  0  0  0  0
  6 34  1  0  0  0  0
  6  7  1  0  0  0  0
  7 35  1  6  0  0  0
  7  3  1  0  0  0  0
  7  8  1  0  0  0  0
  8  9  1  0  0  0  0
  8 11  1  0  0  0  0
  9 38  1  0  0  0  0
  9 37  1  0  0  0  0
 10  8  1  0  0  0  0
 10 41  1  0  0  0  0
 11 44  1  0  0  0  0
 11 42  1  0  0  0  0
 12 17  1  0  0  0  0
 13 12  2  0  0  0  0
 14 13  1  0  0  0  0
 14 15  2  0  0  0  0
 15 16  1  0  0  0  0
 16 17  2  0  0  0  0
 16 18  1  0  0  0  0
 17 19  1  0  0  0  0
 18 49  1  0  0  0  0
 18 48  1  0  0  0  0
 19 20  2  0  0  0  0
 19 24  1  0  0  0  0
 20 21  1  0  0  0  0
 21 51  1  0  0  0  0
 21 22  2  0  0  0  0
 22 52  1  0  0  0  0
 23 22  1  0  0  0  0
 23 53  1  0  0  0  0
 24 23  2  0  0  0  0
 25 54  1  0  0  0  0
 25 20  1  0  0  0  0
 26 24  1  1  0  0  0
 26  2  1  0  0  0  0
 27  2  1  0  0  0  0
 27 57  1  0  0  0  0
 28 59  1  1  0  0  0
 28 27  1  0  0  0  0
 29 30  1  0  0  0  0
 29 28  1  0  0  0  0
 30 61  1  0  0  0  0
 30 60  1  0  0  0  0
 31 29  1  0  0  0  0
 31 63  1  0  0  0  0
 32 68  1  0  0  0  0
 32 29  1  0  0  0  0
 33  6  1  0  0  0  0
 36  9  1  0  0  0  0
 39 10  1  0  0  0  0
 40 10  1  0  0  0  0
 43 11  1  0  0  0  0
 45 13  1  0  0  0  0
 46 14  1  0  0  0  0
 47 15  1  0  0  0  0
 50 18  1  0  0  0  0
 55 25  1  0  0  0  0
 56 25  1  0  0  0  0
 58 27  1  0  0  0  0
 62 30  1  0  0  0  0
 64 31  1  0  0  0  0
 65 31  1  0  0  0  0
 66 32  1  0  0  0  0
 67 32  1  0  0  0  0
M  END
