1,3
 OpenBabel05122313063D

 33 33  0  0  1  0  0  0  0  0999 V2000
    1.4129    0.6419    0.0465 N   0  0  0  0  0  2  0  0  0  0  0  0
    2.1864   -0.4697    0.1369 N   0  0  0  0  0  0  0  0  0  0  0  0
   -0.9743   -1.1396   -0.8200 N   0  0  0  0  0  2  0  0  0  0  0  0
    2.1853    1.6242   -0.4601 C   0  0  2  0  0  3  0  0  0  0  0  0
    3.4844    1.1129   -0.7008 C   0  0  0  0  0  0  0  0  0  0  0  0
    4.3448    1.6574   -1.1031 H   0  0  0  0  0  0  0  0  0  0  0  0
    3.4559   -0.2286   -0.3125 C   0  0  0  0  0  0  0  0  0  0  0  0
    1.6617    3.0075   -0.6659 C   0  0  0  0  0  0  0  0  0  0  0  0
    0.5704    2.9875   -0.8620 H   0  0  0  0  0  0  0  0  0  0  0  0
    2.1860    3.5015   -1.5058 H   0  0  0  0  0  0  0  0  0  0  0  0
    1.8218    3.6274    0.2413 H   0  0  0  0  0  0  0  0  0  0  0  0
    4.5255   -1.2706   -0.3201 C   0  0  0  0  0  0  0  0  0  0  0  0
    4.7479   -1.6423    0.7023 H   0  0  0  0  0  0  0  0  0  0  0  0
    5.4587   -0.8454   -0.7318 H   0  0  0  0  0  0  0  0  0  0  0  0
    4.2532   -2.1499   -0.9402 H   0  0  0  0  0  0  0  0  0  0  0  0
    1.6232   -1.7248    0.6110 C   0  0  0  0  0  0  0  0  0  0  0  0
    0.8654   -1.4837    1.3931 H   0  0  0  0  0  0  0  0  0  0  0  0
    2.4391   -2.2851    1.1054 H   0  0  0  0  0  0  0  0  0  0  0  0
    1.0153   -2.5986   -0.4911 C   0  0  0  0  0  0  0  0  0  0  0  0
    1.7415   -2.7514   -1.3221 H   0  0  0  0  0  0  0  0  0  0  0  0
    0.8575   -3.6188   -0.0731 H   0  0  0  0  0  0  0  0  0  0  0  0
   -0.2958   -2.1892   -1.0975 C   0  0  0  0  0  3  0  0  0  0  0  0
   -0.6992   -2.9066   -1.8514 H   0  0  0  0  0  0  0  0  0  0  0  0
   -2.2751   -0.9367   -1.4515 C   0  0  0  0  0  0  0  0  0  0  0  0
   -2.2863    0.1129   -1.8164 H   0  0  0  0  0  0  0  0  0  0  0  0
   -2.4122   -1.6279   -2.3153 H   0  0  0  0  0  0  0  0  0  0  0  0
   -3.4034   -1.1096   -0.4224 C   0  0  0  0  0  0  0  0  0  0  0  0
   -3.0916   -0.6268    0.5284 H   0  0  0  0  0  0  0  0  0  0  0  0
   -3.5120   -2.1914   -0.1884 H   0  0  0  0  0  0  0  0  0  0  0  0
   -4.7197   -0.5084   -0.9079 C   0  0  0  0  0  0  0  0  0  0  0  0
   -5.5322   -0.6846   -0.1757 H   0  0  0  0  0  0  0  0  0  0  0  0
   -5.0415   -0.9412   -1.8786 H   0  0  0  0  0  0  0  0  0  0  0  0
   -4.6100    0.5876   -1.0372 H   0  0  0  0  0  0  0  0  0  0  0  0
  1  2  1  0  0  0  0
  2 16  1  0  0  0  0
  4  8  1  1  0  0  0
  4  1  1  0  0  0  0
  5  4  1  0  0  0  0
  5  7  2  0  0  0  0
  6  5  1  0  0  0  0
  7  2  1  0  0  0  0
  8 11  1  0  0  0  0
  9  8  1  0  0  0  0
 10  8  1  0  0  0  0
 12  7  1  0  0  0  0
 12 13  1  0  0  0  0
 14 12  1  0  0  0  0
 15 12  1  0  0  0  0
 16 18  1  0  0  0  0
 16 17  1  0  0  0  0
 19 21  1  0  0  0  0
 19 16  1  0  0  0  0
 20 19  1  0  0  0  0
 22  3  1  0  0  0  0
 22 19  1  0  0  0  0
 23 22  1  0  0  0  0
 24  3  1  0  0  0  0
 24 27  1  0  0  0  0
 25 24  1  0  0  0  0
 26 24  1  0  0  0  0
 27 29  1  0  0  0  0
 27 28  1  0  0  0  0
 30 27  1  0  0  0  0
 30 31  1  0  0  0  0
 32 30  1  0  0  0  0
 33 30  1  0  0  0  0
M  END
