1,5
q = 0.0, confidence = 1.0

 55 57  0  0  1  0  0  0  0  0999 V2000
   -1.1350    1.4888    0.4144 N   0  0  0  0  0  2  0  0  0  0  0  0
    0.0208    1.9189   -0.1511 N   0  0  0  0  0  0  0  0  0  0  0  0
    1.2147    0.0006   -1.1202 N   0  0  0  0  0  0  0  0  0  0  0  0
    0.0229   -1.9183   -0.1502 N   0  0  0  0  0  0  0  0  0  0  0  0
   -1.1337   -1.4896    0.4148 N   0  0  0  0  0  2  0  0  0  0  0  0
   -2.6204    2.1068    2.2932 C   0  0  0  0  0  0  0  0  0  0  0  0
   -3.5006    2.1835    1.6215 H   0  0  0  0  0  0  0  0  0  0  0  0
   -2.6822    2.8826    3.0782 H   0  0  0  0  0  0  0  0  0  0  0  0
   -2.6643    1.1101    2.7778 H   0  0  0  0  0  0  0  0  0  0  0  0
   -1.3741    2.2643    1.4886 C   0  0  2  0  0  3  0  0  0  0  0  0
   -0.3166    3.1988    1.6197 C   0  0  0  0  0  0  0  0  0  0  0  0
   -0.2140    3.9722    2.3876 H   0  0  0  0  0  0  0  0  0  0  0  0
    0.5621    2.9554    0.5617 C   0  0  0  0  0  0  0  0  0  0  0  0
    1.8530    3.6120    0.1960 C   0  0  0  0  0  0  0  0  0  0  0  0
    2.6940    2.8879    0.1790 H   0  0  0  0  0  0  0  0  0  0  0  0
    2.0915    4.3959    0.9379 H   0  0  0  0  0  0  0  0  0  0  0  0
    1.8062    4.0993   -0.8005 H   0  0  0  0  0  0  0  0  0  0  0  0
    0.5478    1.2497   -1.3455 C   0  0  0  0  0  0  0  0  0  0  0  0
   -0.3187    1.0917   -2.0201 H   0  0  0  0  0  0  0  0  0  0  0  0
    1.2415    1.9786   -1.8112 H   0  0  0  0  0  0  0  0  0  0  0  0
    0.5490   -1.2493   -1.3450 C   0  0  0  0  0  0  0  0  0  0  0  0
    1.2432   -1.9777   -1.8106 H   0  0  0  0  0  0  0  0  0  0  0  0
   -0.3179   -1.0923   -2.0194 H   0  0  0  0  0  0  0  0  0  0  0  0
    1.8580   -3.6080    0.1989 C   0  0  0  0  0  0  0  0  0  0  0  0
    2.6979   -2.8826    0.1810 H   0  0  0  0  0  0  0  0  0  0  0  0
    1.8119   -4.0964   -0.7970 H   0  0  0  0  0  0  0  0  0  0  0  0
    2.0978   -4.3907    0.9416 H   0  0  0  0  0  0  0  0  0  0  0  0
    0.5661   -2.9530    0.5640 C   0  0  1  0  0  3  0  0  0  0  0  0
   -0.3123   -3.1967    1.6222 C   0  0  0  0  0  0  0  0  0  0  0  0
   -0.2084   -3.9690    2.3910 H   0  0  0  0  0  0  0  0  0  0  0  0
   -1.3714   -2.2642    1.4899 C   0  0  0  0  0  0  0  0  0  0  0  0
   -2.6181   -2.1079    2.2942 C   0  0  0  0  0  0  0  0  0  0  0  0
   -3.4980   -2.1843    1.6223 H   0  0  0  0  0  0  0  0  0  0  0  0
   -2.6625   -1.1116    2.7797 H   0  0  0  0  0  0  0  0  0  0  0  0
   -2.6797   -2.8843    3.0787 H   0  0  0  0  0  0  0  0  0  0  0  0
    2.5472    0.0010   -0.5901 C   0  0  0  0  0  0  0  0  0  0  0  0
    3.6277   -0.0005   -1.5171 C   0  0  0  0  0  0  0  0  0  0  0  0
    3.3552   -0.0021   -3.0005 C   0  0  0  0  0  0  0  0  0  0  0  0
    4.2986    0.0000   -3.5786 H   0  0  0  0  0  0  0  0  0  0  0  0
    2.7635    0.8829   -3.3139 H   0  0  0  0  0  0  0  0  0  0  0  0
    2.7684   -0.8908   -3.3128 H   0  0  0  0  0  0  0  0  0  0  0  0
    4.9427   -0.0008   -1.0310 C   0  0  0  0  0  0  0  0  0  0  0  0
    5.7774   -0.0020   -1.7509 H   0  0  0  0  0  0  0  0  0  0  0  0
    5.2217    0.0002    0.3517 C   0  0  0  0  0  0  0  0  0  0  0  0
    6.6468    0.0006    0.8442 C   0  0  0  0  0  0  0  0  0  0  0  0
    6.6990   -0.0068    1.9497 H   0  0  0  0  0  0  0  0  0  0  0  0
    7.1962    0.8950    0.4831 H   0  0  0  0  0  0  0  0  0  0  0  0
    7.2013   -0.8853    0.4706 H   0  0  0  0  0  0  0  0  0  0  0  0
    4.1385    0.0016    1.2428 C   0  0  0  0  0  0  0  0  0  0  0  0
    4.3370    0.0022    2.3272 H   0  0  0  0  0  0  0  0  0  0  0  0
    2.7957    0.0020    0.8053 C   0  0  0  0  0  0  0  0  0  0  0  0
    1.6987    0.0035    1.8401 C   0  0  0  0  0  0  0  0  0  0  0  0
    0.6898    0.0001    1.3965 H   0  0  0  0  0  0  0  0  0  0  0  0
    1.7760    0.8977    2.4918 H   0  0  0  0  0  0  0  0  0  0  0  0
    1.7796   -0.8857    2.4981 H   0  0  0  0  0  0  0  0  0  0  0  0
  1 10  1  0  0  0  0
  2  1  1  0  0  0  0
  2 13  1  0  0  0  0
  3 36  1  0  0  0  0
  4  5  1  0  0  0  0
  4 28  1  0  0  0  0
  5 31  1  0  0  0  0
  6  9  1  0  0  0  0
  6  8  1  0  0  0  0
  7  6  1  0  0  0  0
 10 11  1  0  0  0  0
 10  6  1  6  0  0  0
 11 12  1  0  0  0  0
 13 11  2  0  0  0  0
 14 13  1  0  0  0  0
 14 16  1  0  0  0  0
 15 14  1  0  0  0  0
 17 14  1  0  0  0  0
 18  3  1  0  0  0  0
 18  2  1  0  0  0  0
 19 18  1  0  0  0  0
 20 18  1  0  0  0  0
 21  3  1  0  0  0  0
 21  4  1  0  0  0  0
 22 21  1  0  0  0  0
 23 21  1  0  0  0  0
 24 27  1  0  0  0  0
 25 24  1  0  0  0  0
 26 24  1  0  0  0  0
 28 24  1  1  0  0  0
 28 29  1  0  0  0  0
 29 30  1  0  0  0  0
 31 29  2  0  0  0  0
 31 32  1  0  0  0  0
 32 34  1  0  0  0  0
 32 35  1  0  0  0  0
 33 32  1  0  0  0  0
 36 51  1  0  0  0  0
 37 42  1  0  0  0  0
 37 36  2  0  0  0  0
 38 37  1  0  0  0  0
 39 38  1  0  0  0  0
 40 38  1  0  0  0  0
 41 38  1  0  0  0  0
 42 44  2  0  0  0  0
 43 42  1  0  0  0  0
 44 45  1  0  0  0  0
 44 49  1  0  0  0  0
 45 46  1  0  0  0  0
 47 45  1  0  0  0  0
 48 45  1  0  0  0  0
 49 50  1  0  0  0  0
 51 49  2  0  0  0  0
 51 52  1  0  0  0  0
 52 54  1  0  0  0  0
 52 55  1  0  0  0  0
 53 52  1  0  0  0  0
M  END
