1,32
q = 0.0, confidence = 1.0

 49 51  0  0  1  0  0  0  0  0999 V2000
   -1.5137    1.3584   -0.4381 N   0  0  0  0  0  2  0  0  0  0  0  0
   -0.4736    2.1245   -0.0245 N   0  0  0  0  0  0  0  0  0  0  0  0
    1.3891    0.6668    0.7118 N   0  0  0  0  0  0  0  0  0  0  0  0
   -3.4385    1.5142   -1.9844 C   0  0  0  0  0  0  0  0  0  0  0  0
   -4.1712    1.3094   -1.1762 H   0  0  0  0  0  0  0  0  0  0  0  0
   -3.8677    2.2380   -2.7012 H   0  0  0  0  0  0  0  0  0  0  0  0
   -3.2577    0.5565   -2.5137 H   0  0  0  0  0  0  0  0  0  0  0  0
   -2.1833    2.0476   -1.3796 C   0  0  1  0  0  3  0  0  0  0  0  0
   -1.5347    3.2912   -1.5791 C   0  0  0  0  0  0  0  0  0  0  0  0
   -1.8336    4.0860   -2.2700 H   0  0  0  0  0  0  0  0  0  0  0  0
   -0.4537    3.3219   -0.6969 C   0  0  0  0  0  0  0  0  0  0  0  0
    0.5419    4.4063   -0.4403 C   0  0  0  0  0  0  0  0  0  0  0  0
    0.5077    4.7648    0.6097 H   0  0  0  0  0  0  0  0  0  0  0  0
    1.5860    4.0934   -0.6512 H   0  0  0  0  0  0  0  0  0  0  0  0
    0.3176    5.2696   -1.0931 H   0  0  0  0  0  0  0  0  0  0  0  0
    0.4098    1.6591    1.0563 C   0  0  0  0  0  0  0  0  0  0  0  0
   -0.2470    1.2609    1.8557 H   0  0  0  0  0  0  0  0  0  0  0  0
    0.9118    2.5754    1.4290 H   0  0  0  0  0  0  0  0  0  0  0  0
    2.3564    0.9933   -0.3216 C   0  0  0  0  0  0  0  0  0  0  0  0
    2.3179    2.0917   -0.4799 H   0  0  0  0  0  0  0  0  0  0  0  0
    3.7869    0.6060    0.0153 C   0  0  0  0  0  0  0  0  0  0  0  0
    4.7001    0.3126   -1.0164 C   0  0  0  0  0  0  0  0  0  0  0  0
    4.3578    0.3332   -2.0640 H   0  0  0  0  0  0  0  0  0  0  0  0
    6.0331   -0.0112   -0.7221 C   0  0  0  0  0  0  0  0  0  0  0  0
    6.7346   -0.2387   -1.5392 H   0  0  0  0  0  0  0  0  0  0  0  0
    6.4681   -0.0553    0.6123 C   0  0  0  0  0  0  0  0  0  0  0  0
    7.5109   -0.3180    0.8457 H   0  0  0  0  0  0  0  0  0  0  0  0
    5.5640    0.2336    1.6468 C   0  0  0  0  0  0  0  0  0  0  0  0
    5.8975    0.1999    2.6953 H   0  0  0  0  0  0  0  0  0  0  0  0
    4.2336    0.5658    1.3493 C   0  0  0  0  0  0  0  0  0  0  0  0
    3.5177    0.7914    2.1552 H   0  0  0  0  0  0  0  0  0  0  0  0
   -0.6157   -1.4547   -0.5493 N   0  0  0  0  0  2  0  0  0  0  0  0
    0.6778   -1.5382   -0.1458 N   0  0  0  0  0  0  0  0  0  0  0  0
   -2.1337   -2.5611   -2.1592 C   0  0  0  0  0  0  0  0  0  0  0  0
   -2.8425   -2.8855   -1.3688 H   0  0  0  0  0  0  0  0  0  0  0  0
   -2.0829   -3.3313   -2.9506 H   0  0  0  0  0  0  0  0  0  0  0  0
   -2.5383   -1.6268   -2.5985 H   0  0  0  0  0  0  0  0  0  0  0  0
   -0.7909   -2.3388   -1.5480 C   0  0  2  0  0  3  0  0  0  0  0  0
    0.4395   -2.9956   -1.7950 C   0  0  0  0  0  0  0  0  0  0  0  0
    0.6311   -3.7762   -2.5381 H   0  0  0  0  0  0  0  0  0  0  0  0
    1.3585   -2.4779   -0.8804 C   0  0  0  0  0  0  0  0  0  0  0  0
    2.7860   -2.8451   -0.6398 C   0  0  0  0  0  0  0  0  0  0  0  0
    2.9284   -3.3040    0.3612 H   0  0  0  0  0  0  0  0  0  0  0  0
    3.4715   -1.9764   -0.7054 H   0  0  0  0  0  0  0  0  0  0  0  0
    3.1038   -3.5886   -1.3936 H   0  0  0  0  0  0  0  0  0  0  0  0
    1.1587   -0.7284    0.9803 C   0  0  0  0  0  0  0  0  0  0  0  0
    0.4127   -0.8251    1.7942 H   0  0  0  0  0  0  0  0  0  0  0  0
    2.1054   -1.2100    1.2991 H   0  0  0  0  0  0  0  0  0  0  0  0
    2.0748    0.5475   -1.3065 H   0  0  0  0  0  0  0  0  0  0  0  0
  1  2  1  0  0  0  0
  2 16  1  0  0  0  0
  3 46  1  0  0  0  0
  3 16  1  0  0  0  0
  4  5  1  0  0  0  0
  6  4  1  0  0  0  0
  7  4  1  0  0  0  0
  8  4  1  1  0  0  0
  8  1  1  0  0  0  0
  9  8  1  0  0  0  0
  9 11  2  0  0  0  0
 10  9  1  0  0  0  0
 11 12  1  0  0  0  0
 11  2  1  0  0  0  0
 12 13  1  0  0  0  0
 14 12  1  0  0  0  0
 15 12  1  0  0  0  0
 16 18  1  0  0  0  0
 16 17  1  0  0  0  0
 19 21  1  0  0  0  0
 19  3  1  0  0  0  0
 20 19  1  0  0  0  0
 21 30  1  0  0  0  0
 22 24  1  0  0  0  0
 22 21  2  0  0  0  0
 23 22  1  0  0  0  0
 24 26  2  0  0  0  0
 25 24  1  0  0  0  0
 26 27  1  0  0  0  0
 26 28  1  0  0  0  0
 28 29  1  0  0  0  0
 30 28  2  0  0  0  0
 30 31  1  0  0  0  0
 32 33  1  0  0  0  0
 33 46  1  0  0  0  0
 34 35  1  0  0  0  0
 36 34  1  0  0  0  0
 37 34  1  0  0  0  0
 38 34  1  1  0  0  0
 38 32  1  0  0  0  0
 39 38  1  0  0  0  0
 39 41  2  0  0  0  0
 40 39  1  0  0  0  0
 41 42  1  0  0  0  0
 41 33  1  0  0  0  0
 42 43  1  0  0  0  0
 44 42  1  0  0  0  0
 45 42  1  0  0  0  0
 46 48  1  0  0  0  0
 46 47  1  0  0  0  0
 49 19  1  0  0  0  0
M  END
