2,4
q = -1.0, confidence = 0.0

 25 27  0  0  0  0  0  0  0  0999 V2000
   -4.2082    1.3937   -0.0011 N   0  0  0  0  0  0  0  0  0  0  0  0
   -0.6004    2.1293    0.0023 N   0  0  0  0  0  2  0  0  0  0  0  0
   -3.3823   -0.7269    0.0021 N   0  0  0  0  0  2  0  0  0  0  0  0
   -2.3582    0.1053    0.0028 N   0  0  0  0  0  2  0  0  0  0  0  0
   -4.4996    0.0688   -0.0003 C   0  0  0  0  0  0  0  0  0  0  0  0
   -6.0283   -1.8042   -0.0007 N   0  0  0  0  0  0  0  0  0  0  0  0
   -5.8692   -0.4638   -0.0018 C   0  0  0  0  0  0  0  0  0  0  0  0
   -2.8604    1.3697    0.0008 C   0  0  0  0  0  0  0  0  0  0  0  0
   -6.9656    0.4312   -0.0043 C   0  0  0  0  0  0  0  0  0  0  0  0
   -8.2608   -0.0934   -0.0057 C   0  0  0  0  0  0  0  0  0  0  0  0
   -8.4287   -1.4875   -0.0046 C   0  0  0  0  0  0  0  0  0  0  0  0
   -7.2749   -2.2900   -0.0021 C   0  0  0  0  0  0  0  0  0  0  0  0
   -2.2848    3.8311    0.0001 C   0  0  0  0  0  0  0  0  0  0  0  0
   -1.9199    2.4656    0.0010 C   0  0  0  0  0  0  0  0  0  0  0  0
    0.0683    4.4159    0.0022 C   0  0  0  0  0  0  0  0  0  0  0  0
    0.3711    3.0533    0.0030 C   0  0  0  0  0  0  0  0  0  0  0  0
   -1.2868    4.8036    0.0007 C   0  0  0  0  0  0  0  0  0  0  0  0
    0.8806    5.1553    0.0029 H   0  0  0  0  0  0  0  0  0  0  0  0
   -6.7661    1.5119   -0.0050 H   0  0  0  0  0  0  0  0  0  0  0  0
    1.3988    2.6632    0.0044 H   0  0  0  0  0  0  0  0  0  0  0  0
   -3.3562    4.0731   -0.0010 H   0  0  0  0  0  0  0  0  0  0  0  0
   -9.4287   -1.9465   -0.0056 H   0  0  0  0  0  0  0  0  0  0  0  0
   -9.1338    0.5777   -0.0076 H   0  0  0  0  0  0  0  0  0  0  0  0
   -7.3690   -3.3918   -0.0012 H   0  0  0  0  0  0  0  0  0  0  0  0
   -1.5567    5.8704   -0.0000 H   0  0  0  0  0  0  0  0  0  0  0  0
  1  5  2  0  0  0  0
  1  8  1  0  0  0  0
  2 16  1  0  0  0  0
  3  4  1  0  0  0  0
  5  3  1  0  0  0  0
  7  6  1  0  0  0  0
  7  5  1  0  0  0  0
  8 14  2  0  0  0  0
  8  4  1  0  0  0  0
  9  7  2  0  0  0  0
 10 11  2  0  0  0  0
 10  9  1  0  0  0  0
 11 12  1  0  0  0  0
 12 24  1  0  0  0  0
 12  6  2  0  0  0  0
 13 17  2  0  0  0  0
 13 14  1  0  0  0  0
 14  2  1  0  0  0  0
 15 18  1  0  0  0  0
 15 16  2  0  0  0  0
 16 20  1  0  0  0  0
 17 15  1  0  0  0  0
 19  9  1  0  0  0  0
 21 13  1  0  0  0  0
 22 11  1  0  0  0  0
 23 10  1  0  0  0  0
 25 17  1  0  0  0  0
M  END
