2,4
q = -1.0, confidence = 0.0

 34 35  0  0  1  0  0  0  0  0999 V2000
    1.9543    1.1169   -0.0216 O   0  0  0  0  0  0  0  0  0  0  0  0
   -1.1904   -1.9201   -0.9444 N   0  0  0  0  0  2  0  0  0  0  0  0
   -2.2798   -4.3057   -1.8356 N   0  0  0  0  0  0  0  0  0  0  0  0
    1.2427   -1.1417   -1.3533 N   0  0  0  0  0  2  0  0  0  0  0  0
    2.4142   -0.5999   -1.5766 N   0  0  0  0  0  2  0  0  0  0  0  0
    3.9800    0.9751   -1.1501 N   0  0  0  0  0  0  0  0  0  0  0  0
    4.4435    0.3862   -1.8449 H   0  0  0  0  0  0  0  0  0  0  0  0
   -2.4527   -2.2456   -0.6377 C   0  0  0  0  0  3  0  0  0  0  0  0
   -3.0138   -1.5389   -0.0034 H   0  0  0  0  0  0  0  0  0  0  0  0
   -3.0133   -3.4276   -1.1313 C   0  0  0  0  0  0  0  0  0  0  0  0
   -4.0687   -3.6814   -0.9350 H   0  0  0  0  0  0  0  0  0  0  0  0
   -1.0069   -4.0081   -2.1327 C   0  0  0  0  0  0  0  0  0  0  0  0
   -0.4406   -2.7442   -1.7434 C   0  0  0  0  0  0  0  0  0  0  0  0
   -0.2325   -5.0974   -2.8290 C   0  0  0  0  0  0  0  0  0  0  0  0
   -0.7821   -6.0465   -2.6899 H   0  0  0  0  0  0  0  0  0  0  0  0
    0.7957   -5.2020   -2.4333 H   0  0  0  0  0  0  0  0  0  0  0  0
   -0.1537   -4.9175   -3.9218 H   0  0  0  0  0  0  0  0  0  0  0  0
    0.8700   -2.2173   -2.0720 C   0  0  1  0  0  3  0  0  0  0  0  0
    1.7815   -2.6997   -3.1585 C   0  0  0  0  0  0  0  0  0  0  0  0
    2.2081   -1.8161   -3.6735 H   0  0  0  0  0  0  0  0  0  0  0  0
    1.2638   -3.3360   -3.8936 H   0  0  0  0  0  0  0  0  0  0  0  0
    2.6524   -3.2584   -2.7510 H   0  0  0  0  0  0  0  0  0  0  0  0
    2.6949    0.5520   -0.8351 C   0  0  0  0  0  0  0  0  0  0  0  0
    4.6937    2.0746   -0.6699 C   0  0  0  0  0  0  0  0  0  0  0  0
    5.9983    2.2885   -1.1771 C   0  0  0  0  0  0  0  0  0  0  0  0
    6.4069    1.5916   -1.9269 H   0  0  0  0  0  0  0  0  0  0  0  0
    6.7654    3.3718   -0.7359 C   0  0  0  0  0  0  0  0  0  0  0  0
    7.7771    3.5184   -1.1444 H   0  0  0  0  0  0  0  0  0  0  0  0
    6.2511    4.2648    0.2184 C   0  0  0  0  0  0  0  0  0  0  0  0
    6.8539    5.1170    0.5657 H   0  0  0  0  0  0  0  0  0  0  0  0
    4.9574    4.0533    0.7215 C   0  0  0  0  0  0  0  0  0  0  0  0
    4.5407    4.7453    1.4698 H   0  0  0  0  0  0  0  0  0  0  0  0
    4.1746    2.9733    0.2925 C   0  0  0  0  0  0  0  0  0  0  0  0
    3.1639    2.8027    0.6815 H   0  0  0  0  0  0  0  0  0  0  0  0
  2  8  1  0  0  0  0
  3 10  2  0  0  0  0
  5  4  1  0  0  0  0
  5 23  1  0  0  0  0
  6 23  1  0  0  0  0
  6 24  1  0  0  0  0
  7  6  1  0  0  0  0
  8  9  1  0  0  0  0
 10 11  1  0  0  0  0
 10  8  1  0  0  0  0
 12  3  1  0  0  0  0
 12 13  2  0  0  0  0
 13  2  1  0  0  0  0
 14 15  1  0  0  0  0
 14 16  1  0  0  0  0
 14 12  1  0  0  0  0
 17 14  1  0  0  0  0
 18 13  1  0  0  0  0
 18  4  1  6  0  0  0
 19 22  1  0  0  0  0
 19 18  1  0  0  0  0
 20 19  1  0  0  0  0
 21 19  1  0  0  0  0
 23  1  2  0  0  0  0
 24 33  1  0  0  0  0
 25 27  1  0  0  0  0
 25 24  2  0  0  0  0
 26 25  1  0  0  0  0
 27 29  2  0  0  0  0
 28 27  1  0  0  0  0
 29 30  1  0  0  0  0
 29 31  1  0  0  0  0
 31 32  1  0  0  0  0
 33 34  1  0  0  0  0
 33 31  2  0  0  0  0
M  END
