19,46
q = 0.0, confidence = 0.994

 54 56  0  0  1  0  0  0  0  0999 V2000
    2.7000   -1.5185    0.6212 C   0  0  0  0  0  0  0  0  0  0  0  0
    1.7074   -1.6096    1.1050 H   0  0  0  0  0  0  0  0  0  0  0  0
    3.4510   -1.9098    1.3389 H   0  0  0  0  0  0  0  0  0  0  0  0
    2.7470   -2.3269   -0.6923 C   0  0  0  0  0  0  0  0  0  0  0  0
    2.0409   -1.8593   -1.4113 H   0  0  0  0  0  0  0  0  0  0  0  0
    3.7543   -2.2189   -1.1486 H   0  0  0  0  0  0  0  0  0  0  0  0
    2.4270   -3.8205   -0.5154 C   0  0  0  0  0  0  0  0  0  0  0  0
    2.3542   -4.2803   -1.5250 H   0  0  0  0  0  0  0  0  0  0  0  0
    3.2779   -4.3283   -0.0096 H   0  0  0  0  0  0  0  0  0  0  0  0
    1.1462   -4.1071    0.2836 C   0  0  0  0  0  0  0  0  0  0  0  0
    1.3034   -3.7753    1.3330 H   0  0  0  0  0  0  0  0  0  0  0  0
    0.9943   -5.2053    0.3509 H   0  0  0  0  0  0  0  0  0  0  0  0
   -0.1170   -3.4219   -0.2732 C   0  0  0  0  0  0  0  0  0  0  0  0
    0.1580   -2.5628   -0.9191 H   0  0  0  0  0  0  0  0  0  0  0  0
   -0.6856   -4.1122   -0.9318 H   0  0  0  0  0  0  0  0  0  0  0  0
   -1.0346   -2.8944    0.8450 C   0  0  0  0  0  0  0  0  0  0  0  0
   -1.4536   -3.7416    1.4264 H   0  0  0  0  0  0  0  0  0  0  0  0
   -0.4425   -2.2749    1.5525 H   0  0  0  0  0  0  0  0  0  0  0  0
    1.9369    0.7446   -0.0145 N   0  0  0  0  0  2  0  0  0  0  0  0
    2.9630   -0.0602    0.3820 C   0  0  2  0  0  3  0  0  0  0  0  0
    4.2688    0.4485    0.4912 C   0  0  0  0  0  0  0  0  0  0  0  0
    5.0715   -0.2280    0.8171 H   0  0  0  0  0  0  0  0  0  0  0  0
    4.5263    1.7863    0.1856 C   0  0  0  0  0  0  0  0  0  0  0  0
    5.5421    2.1996    0.2760 H   0  0  0  0  0  0  0  0  0  0  0  0
    3.4661    2.5836   -0.2515 C   0  0  0  0  0  0  0  0  0  0  0  0
    3.6192    3.6372   -0.5242 H   0  0  0  0  0  0  0  0  0  0  0  0
    2.1726    2.0438   -0.3568 C   0  0  0  0  0  0  0  0  0  0  0  0
   -2.7001    1.5186   -0.6211 C   0  0  0  0  0  0  0  0  0  0  0  0
   -1.7075    1.6097   -1.1048 H   0  0  0  0  0  0  0  0  0  0  0  0
   -3.4511    1.9099   -1.3388 H   0  0  0  0  0  0  0  0  0  0  0  0
   -2.7473    2.3269    0.6925 C   0  0  0  0  0  0  0  0  0  0  0  0
   -2.0414    1.8592    1.4116 H   0  0  0  0  0  0  0  0  0  0  0  0
   -3.7547    2.2190    1.1485 H   0  0  0  0  0  0  0  0  0  0  0  0
   -2.4271    3.8204    0.5156 C   0  0  0  0  0  0  0  0  0  0  0  0
   -2.3542    4.2802    1.5253 H   0  0  0  0  0  0  0  0  0  0  0  0
   -3.2779    4.3284    0.0099 H   0  0  0  0  0  0  0  0  0  0  0  0
   -1.1463    4.1069   -0.2835 C   0  0  0  0  0  0  0  0  0  0  0  0
   -1.3035    3.7749   -1.3328 H   0  0  0  0  0  0  0  0  0  0  0  0
   -0.9943    5.2051   -0.3510 H   0  0  0  0  0  0  0  0  0  0  0  0
    0.1169    3.4217    0.2733 C   0  0  0  0  0  0  0  0  0  0  0  0
   -0.1580    2.5624    0.9190 H   0  0  0  0  0  0  0  0  0  0  0  0
    0.6854    4.1120    0.9321 H   0  0  0  0  0  0  0  0  0  0  0  0
    1.0347    2.8945   -0.8450 C   0  0  0  0  0  0  0  0  0  0  0  0
    1.4536    3.7418   -1.4262 H   0  0  0  0  0  0  0  0  0  0  0  0
    0.4425    2.2751   -1.5525 H   0  0  0  0  0  0  0  0  0  0  0  0
   -1.9370   -0.7444    0.0147 N   0  0  0  0  0  2  0  0  0  0  0  0
   -2.9630    0.0602   -0.3822 C   0  0  1  0  0  3  0  0  0  0  0  0
   -4.2685   -0.4488   -0.4924 C   0  0  0  0  0  0  0  0  0  0  0  0
   -5.0712    0.2275   -0.8185 H   0  0  0  0  0  0  0  0  0  0  0  0
   -4.5259   -1.7867   -0.1873 C   0  0  0  0  0  0  0  0  0  0  0  0
   -5.5416   -2.2004   -0.2785 H   0  0  0  0  0  0  0  0  0  0  0  0
   -3.4658   -2.5839    0.2503 C   0  0  0  0  0  0  0  0  0  0  0  0
   -3.6188   -3.6376    0.5226 H   0  0  0  0  0  0  0  0  0  0  0  0
   -2.1725   -2.0438    0.3566 C   0  0  0  0  0  0  0  0  0  0  0  0
  1  2  1  0  0  0  0
  1  3  1  0  0  0  0
  4  7  1  0  0  0  0
  4  1  1  0  0  0  0
  5  4  1  0  0  0  0
  6  4  1  0  0  0  0
  7  9  1  0  0  0  0
  7 10  1  0  0  0  0
  8  7  1  0  0  0  0
 10 12  1  0  0  0  0
 10 11  1  0  0  0  0
 13 10  1  0  0  0  0
 13 16  1  0  0  0  0
 14 13  1  0  0  0  0
 15 13  1  0  0  0  0
 16 17  1  0  0  0  0
 16 18  1  0  0  0  0
 20 19  1  6  0  0  0
 20 21  1  0  0  0  0
 20  1  1  0  0  0  0
 21 22  1  0  0  0  0
 23 24  1  0  0  0  0
 23 21  2  0  0  0  0
 25 23  1  0  0  0  0
 26 25  1  0  0  0  0
 27 25  2  0  0  0  0
 27 19  1  0  0  0  0
 28 47  1  0  0  0  0
 28 31  1  0  0  0  0
 29 28  1  0  0  0  0
 30 28  1  0  0  0  0
 31 33  1  0  0  0  0
 31 32  1  0  0  0  0
 34 31  1  0  0  0  0
 34 35  1  0  0  0  0
 36 34  1  0  0  0  0
 37 40  1  0  0  0  0
 37 34  1  0  0  0  0
 38 37  1  0  0  0  0
 39 37  1  0  0  0  0
 40 41  1  0  0  0  0
 40 42  1  0  0  0  0
 43 27  1  0  0  0  0
 43 40  1  0  0  0  0
 44 43  1  0  0  0  0
 45 43  1  0  0  0  0
 46 54  1  0  0  0  0
 47 48  1  1  0  0  0
 47 46  1  0  0  0  0
 48 50  2  0  0  0  0
 49 48  1  0  0  0  0
 50 52  1  0  0  0  0
 51 50  1  0  0  0  0
 52 54  2  0  0  0  0
 52 53  1  0  0  0  0
 54 16  1  0  0  0  0
M  END
