1,30
q = 0.0, confidence = 0.998

 58 60  0  0  1  0  0  0  0  0999 V2000
    1.3066   -1.5908   -0.0066 N   0  0  0  0  0  2  0  0  0  0  0  0
    2.5262   -1.4457    0.5862 C   0  0  1  0  0  3  0  0  0  0  0  0
    3.4279   -2.5198    0.6668 C   0  0  0  0  0  0  0  0  0  0  0  0
    4.4084   -2.3274    1.1253 H   0  0  0  0  0  0  0  0  0  0  0  0
    3.0644   -3.7724    0.1760 C   0  0  0  0  0  0  0  0  0  0  0  0
    3.7458   -4.6328    0.2544 H   0  0  0  0  0  0  0  0  0  0  0  0
    1.8064   -3.9065   -0.4247 C   0  0  0  0  0  0  0  0  0  0  0  0
    1.4769   -4.8685   -0.8427 H   0  0  0  0  0  0  0  0  0  0  0  0
    0.9488   -2.8026   -0.5311 C   0  0  0  0  0  0  0  0  0  0  0  0
    2.9420   -0.1010    1.1483 C   0  0  0  0  0  0  0  0  0  0  0  0
    2.2049    0.6711    0.8509 H   0  0  0  0  0  0  0  0  0  0  0  0
    2.9035   -0.1581    2.2559 H   0  0  0  0  0  0  0  0  0  0  0  0
    4.2716    0.2582    0.8106 O   0  0  0  0  0  0  0  0  0  0  0  0
    4.4919    0.5286   -0.5761 C   0  0  0  0  0  0  0  0  0  0  0  0
    4.4508   -0.4201   -1.1662 H   0  0  0  0  0  0  0  0  0  0  0  0
    5.5403    0.8925   -0.6174 H   0  0  0  0  0  0  0  0  0  0  0  0
   -0.3144   -2.9405   -1.3685 C   0  0  0  0  0  0  0  0  0  0  0  0
   -0.1935   -2.2545   -2.2353 H   0  0  0  0  0  0  0  0  0  0  0  0
   -0.3467   -3.9915   -1.7443 H   0  0  0  0  0  0  0  0  0  0  0  0
   -1.5402   -2.5860   -0.7883 O   0  0  0  0  0  0  0  0  0  0  0  0
   -2.0452   -3.4021    0.2609 C   0  0  0  0  0  0  0  0  0  0  0  0
   -1.4016   -3.3136    1.1692 H   0  0  0  0  0  0  0  0  0  0  0  0
   -2.0438   -4.4734   -0.0596 H   0  0  0  0  0  0  0  0  0  0  0  0
   -3.4682   -2.9248    0.5459 C   0  0  0  0  0  0  0  0  0  0  0  0
   -3.9756   -3.6923    1.1666 H   0  0  0  0  0  0  0  0  0  0  0  0
   -4.0017   -2.9005   -0.4286 H   0  0  0  0  0  0  0  0  0  0  0  0
   -3.5381   -1.5374    1.2228 C   0  0  0  0  0  0  0  0  0  0  0  0
   -2.5220   -1.0965    1.2920 H   0  0  0  0  0  0  0  0  0  0  0  0
   -3.8596   -1.6377    2.2809 H   0  0  0  0  0  0  0  0  0  0  0  0
   -1.3066    1.5908    0.0065 N   0  0  0  0  0  2  0  0  0  0  0  0
   -2.5263    1.4457   -0.5863 C   0  0  2  0  0  3  0  0  0  0  0  0
   -3.4280    2.5199   -0.6669 C   0  0  0  0  0  0  0  0  0  0  0  0
   -4.4084    2.3275   -1.1253 H   0  0  0  0  0  0  0  0  0  0  0  0
   -3.0644    3.7724   -0.1759 C   0  0  0  0  0  0  0  0  0  0  0  0
   -3.7458    4.6328   -0.2542 H   0  0  0  0  0  0  0  0  0  0  0  0
   -1.8065    3.9064    0.4248 C   0  0  0  0  0  0  0  0  0  0  0  0
   -1.4769    4.8684    0.8429 H   0  0  0  0  0  0  0  0  0  0  0  0
   -0.9488    2.8025    0.5311 C   0  0  0  0  0  0  0  0  0  0  0  0
   -2.9421    0.1010   -1.1484 C   0  0  0  0  0  0  0  0  0  0  0  0
   -2.2050   -0.6711   -0.8510 H   0  0  0  0  0  0  0  0  0  0  0  0
   -2.9037    0.1582   -2.2560 H   0  0  0  0  0  0  0  0  0  0  0  0
   -4.2717   -0.2582   -0.8105 O   0  0  0  0  0  0  0  0  0  0  0  0
   -4.4918   -0.5285    0.5763 C   0  0  0  0  0  0  0  0  0  0  0  0
   -4.4506    0.4203    1.1663 H   0  0  0  0  0  0  0  0  0  0  0  0
   -5.5403   -0.8923    0.6177 H   0  0  0  0  0  0  0  0  0  0  0  0
    0.3143    2.9402    1.3686 C   0  0  0  0  0  0  0  0  0  0  0  0
    0.1933    2.2540    2.2353 H   0  0  0  0  0  0  0  0  0  0  0  0
    0.3466    3.9912    1.7446 H   0  0  0  0  0  0  0  0  0  0  0  0
    1.5402    2.5858    0.7884 O   0  0  0  0  0  0  0  0  0  0  0  0
    2.0452    3.4020   -0.2606 C   0  0  0  0  0  0  0  0  0  0  0  0
    1.4016    3.3137   -1.1690 H   0  0  0  0  0  0  0  0  0  0  0  0
    2.0438    4.4734    0.0600 H   0  0  0  0  0  0  0  0  0  0  0  0
    3.4682    2.9249   -0.5456 C   0  0  0  0  0  0  0  0  0  0  0  0
    3.9757    3.6925   -1.1662 H   0  0  0  0  0  0  0  0  0  0  0  0
    4.0016    2.9004    0.4290 H   0  0  0  0  0  0  0  0  0  0  0  0
    3.5383    1.5376   -1.2227 C   0  0  0  0  0  0  0  0  0  0  0  0
    2.5222    1.0967   -1.2920 H   0  0  0  0  0  0  0  0  0  0  0  0
    3.8599    1.6380   -2.2807 H   0  0  0  0  0  0  0  0  0  0  0  0
  2  1  1  6  0  0  0
  2  3  1  0  0  0  0
  2 10  1  0  0  0  0
  3  4  1  0  0  0  0
  5  6  1  0  0  0  0
  5  3  2  0  0  0  0
  7  5  1  0  0  0  0
  8  7  1  0  0  0  0
  9  7  2  0  0  0  0
  9  1  1  0  0  0  0
 10 12  1  0  0  0  0
 11 10  1  0  0  0  0
 13 10  1  0  0  0  0
 14 13  1  0  0  0  0
 15 14  1  0  0  0  0
 16 14  1  0  0  0  0
 17 20  1  0  0  0  0
 17  9  1  0  0  0  0
 18 17  1  0  0  0  0
 19 17  1  0  0  0  0
 20 21  1  0  0  0  0
 21 24  1  0  0  0  0
 21 22  1  0  0  0  0
 23 21  1  0  0  0  0
 24 25  1  0  0  0  0
 24 27  1  0  0  0  0
 26 24  1  0  0  0  0
 27 28  1  0  0  0  0
 27 29  1  0  0  0  0
 30 38  1  0  0  0  0
 31 32  1  1  0  0  0
 31 30  1  0  0  0  0
 32 34  2  0  0  0  0
 33 32  1  0  0  0  0
 34 36  1  0  0  0  0
 35 34  1  0  0  0  0
 36 38  2  0  0  0  0
 36 37  1  0  0  0  0
 38 46  1  0  0  0  0
 39 40  1  0  0  0  0
 39 42  1  0  0  0  0
 39 31  1  0  0  0  0
 41 39  1  0  0  0  0
 42 43  1  0  0  0  0
 43 45  1  0  0  0  0
 43 44  1  0  0  0  0
 43 27  1  0  0  0  0
 46 48  1  0  0  0  0
 46 47  1  0  0  0  0
 49 46  1  0  0  0  0
 50 52  1  0  0  0  0
 50 49  1  0  0  0  0
 51 50  1  0  0  0  0
 53 50  1  0  0  0  0
 53 55  1  0  0  0  0
 54 53  1  0  0  0  0
 56 14  1  0  0  0  0
 56 53  1  0  0  0  0
 57 56  1  0  0  0  0
 58 56  1  0  0  0  0
M  END
