3,4
q = 0.0, confidence = 0.998

 46 47  0  0  1  0  0  0  0  0999 V2000
    3.1089    1.6417   -0.9626 O   0  0  0  0  0  0  0  0  0  0  0  0
   -2.6569    2.7895   -0.3825 O   0  0  0  0  0  0  0  0  0  0  0  0
    1.7354   -1.5501    0.0666 N   0  0  0  0  0  2  0  0  0  0  0  0
   -2.2673   -0.7990    0.1008 N   0  0  0  0  0  2  0  0  0  0  0  0
    2.6625   -0.6983   -0.4395 C   0  0  1  0  0  3  0  0  0  0  0  0
    4.0308   -1.0025   -0.3600 C   0  0  0  0  0  0  0  0  0  0  0  0
    4.7404   -0.2701   -0.7703 H   0  0  0  0  0  0  0  0  0  0  0  0
    4.4460   -2.1995    0.2295 C   0  0  0  0  0  0  0  0  0  0  0  0
    5.5155   -2.4497    0.2960 H   0  0  0  0  0  0  0  0  0  0  0  0
    3.4725   -3.0774    0.7309 C   0  0  0  0  0  0  0  0  0  0  0  0
    3.7430   -4.0320    1.2029 H   0  0  0  0  0  0  0  0  0  0  0  0
    2.1285   -2.7181    0.6318 C   0  0  0  0  0  0  0  0  0  0  0  0
    1.3199   -3.3550    1.0155 H   0  0  0  0  0  0  0  0  0  0  0  0
    2.1950    0.5834   -1.1000 C   0  0  0  0  0  0  0  0  0  0  0  0
    2.0645    0.3911   -2.1875 H   0  0  0  0  0  0  0  0  0  0  0  0
    1.1841    0.8248   -0.6940 H   0  0  0  0  0  0  0  0  0  0  0  0
    3.1406    2.2195    0.3521 C   0  0  0  0  0  0  0  0  0  0  0  0
    4.0870    1.9251    0.8615 H   0  0  0  0  0  0  0  0  0  0  0  0
    2.3067    1.8113    0.9673 H   0  0  0  0  0  0  0  0  0  0  0  0
    3.0549    3.7398    0.2429 C   0  0  0  0  0  0  0  0  0  0  0  0
    3.9519    4.1064   -0.3006 H   0  0  0  0  0  0  0  0  0  0  0  0
    3.1193    4.1578    1.2720 H   0  0  0  0  0  0  0  0  0  0  0  0
    1.7916    4.2485   -0.4640 C   0  0  0  0  0  0  0  0  0  0  0  0
    1.8570    5.3532   -0.5733 H   0  0  0  0  0  0  0  0  0  0  0  0
    1.7810    3.8389   -1.4975 H   0  0  0  0  0  0  0  0  0  0  0  0
    0.4792    3.8828    0.2351 C   0  0  0  0  0  0  0  0  0  0  0  0
    0.4890    4.2749    1.2772 H   0  0  0  0  0  0  0  0  0  0  0  0
    0.4121    2.7816    0.3464 H   0  0  0  0  0  0  0  0  0  0  0  0
   -0.7627    4.4194   -0.4882 C   0  0  0  0  0  0  0  0  0  0  0  0
   -0.7580    4.1092   -1.5569 H   0  0  0  0  0  0  0  0  0  0  0  0
   -0.7136    5.5307   -0.5011 H   0  0  0  0  0  0  0  0  0  0  0  0
   -2.1158    4.0088    0.1127 C   0  0  0  0  0  0  0  0  0  0  0  0
   -2.0387    3.9691    1.2284 H   0  0  0  0  0  0  0  0  0  0  0  0
   -2.8833    4.7680   -0.1391 H   0  0  0  0  0  0  0  0  0  0  0  0
   -1.9239    1.6306   -0.0670 C   0  0  0  0  0  0  0  0  0  0  0  0
   -1.4012    1.7043    0.9179 H   0  0  0  0  0  0  0  0  0  0  0  0
   -1.1260    1.4099   -0.8183 H   0  0  0  0  0  0  0  0  0  0  0  0
   -2.8354    0.4340    0.0066 C   0  0  2  0  0  3  0  0  0  0  0  0
   -3.0612   -1.8962    0.1840 C   0  0  0  0  0  0  0  0  0  0  0  0
   -2.5349   -2.8584    0.2333 H   0  0  0  0  0  0  0  0  0  0  0  0
   -4.4538   -1.8098    0.1871 C   0  0  0  0  0  0  0  0  0  0  0  0
   -5.0505   -2.7297    0.2572 H   0  0  0  0  0  0  0  0  0  0  0  0
   -5.0518   -0.5457    0.0879 C   0  0  0  0  0  0  0  0  0  0  0  0
   -6.1472   -0.4407    0.0797 H   0  0  0  0  0  0  0  0  0  0  0  0
   -4.2304    0.5820   -0.0052 C   0  0  0  0  0  0  0  0  0  0  0  0
   -4.6267    1.6015   -0.0955 H   0  0  0  0  0  0  0  0  0  0  0  0
  1 17  1  0  0  0  0
  2 35  1  0  0  0  0
  2 32  1  0  0  0  0
  3 12  1  0  0  0  0
  4 39  1  0  0  0  0
  5 14  1  6  0  0  0
  5  6  1  0  0  0  0
  5  3  1  0  0  0  0
  6  8  2  0  0  0  0
  7  6  1  0  0  0  0
  8  9  1  0  0  0  0
  8 10  1  0  0  0  0
 10 11  1  0  0  0  0
 12 10  2  0  0  0  0
 12 13  1  0  0  0  0
 14  1  1  0  0  0  0
 14 16  1  0  0  0  0
 15 14  1  0  0  0  0
 17 18  1  0  0  0  0
 17 19  1  0  0  0  0
 20 17  1  0  0  0  0
 20 22  1  0  0  0  0
 21 20  1  0  0  0  0
 23 26  1  0  0  0  0
 23 20  1  0  0  0  0
 24 23  1  0  0  0  0
 25 23  1  0  0  0  0
 26 28  1  0  0  0  0
 26 27  1  0  0  0  0
 29 32  1  0  0  0  0
 29 26  1  0  0  0  0
 30 29  1  0  0  0  0
 31 29  1  0  0  0  0
 32 33  1  0  0  0  0
 34 32  1  0  0  0  0
 35 36  1  0  0  0  0
 37 35  1  0  0  0  0
 38 35  1  1  0  0  0
 38  4  1  0  0  0  0
 39 41  2  0  0  0  0
 39 40  1  0  0  0  0
 41 42  1  0  0  0  0
 43 41  1  0  0  0  0
 44 43  1  0  0  0  0
 45 38  1  0  0  0  0
 45 43  2  0  0  0  0
 46 45  1  0  0  0  0
M  END
