1,3
q = -1.0, confidence = 0.008

 12 12  0  0  0  0  0  0  0  0999 V2000
   -0.5441   -1.7922   -0.0000 N   0  0  0  0  0  2  0  0  0  0  0  0
    0.0557   -2.6222   -0.0001 H   0  0  0  0  0  0  0  0  0  0  0  0
   -1.8453    0.3544    0.0000 N   0  0  0  0  0  0  0  0  0  0  0  0
   -1.8515   -1.9835   -0.0000 C   0  0  0  0  0  3  0  0  0  0  0  0
   -2.2950   -2.9948   -0.0000 H   0  0  0  0  0  0  0  0  0  0  0  0
   -2.6274   -0.7983    0.0000 C   0  0  0  0  0  3  0  0  0  0  0  0
   -3.9988   -0.4428    0.0000 C   0  0  0  0  0  0  0  0  0  0  0  0
   -4.8516   -1.1320    0.0000 H   0  0  0  0  0  0  0  0  0  0  0  0
   -4.0345    0.9644   -0.0000 C   0  0  0  0  0  0  0  0  0  0  0  0
   -4.9236    1.6060   -0.0000 H   0  0  0  0  0  0  0  0  0  0  0  0
   -2.6881    1.4118   -0.0000 C   0  0  0  0  0  0  0  0  0  0  0  0
   -2.3233    2.4479   -0.0000 H   0  0  0  0  0  0  0  0  0  0  0  0
  1  4  1  0  0  0  0
  2  1  1  0  0  0  0
  3  6  1  0  0  0  0
  4  6  1  0  0  0  0
  5  4  1  0  0  0  0
  7  8  1  0  0  0  0
  7  6  1  0  0  0  0
  9 11  1  0  0  0  0
  9  7  2  0  0  0  0
 10  9  1  0  0  0  0
 11  3  2  0  0  0  0
 12 11  1  0  0  0  0
M  END
