1,2
q = 0.0, confidence = 0.998

 32 34  0  0  1  0  0  0  0  0999 V2000
   -1.3421   -2.0088   -0.0479 N   0  0  0  0  0  2  0  0  0  0  0  0
   -1.3421    2.0088   -0.0479 N   0  0  0  0  0  2  0  0  0  0  0  0
   -1.3434   -4.8127   -0.1009 N   0  0  0  0  0  0  0  0  0  0  0  0
   -1.3433    4.8127   -0.1009 N   0  0  0  0  0  0  0  0  0  0  0  0
   -2.4961   -2.7039   -0.0492 C   0  0  0  0  0  3  0  0  0  0  0  0
   -3.4224   -2.1145   -0.0056 H   0  0  0  0  0  0  0  0  0  0  0  0
   -2.4857   -4.1036   -0.0843 C   0  0  0  0  0  0  0  0  0  0  0  0
   -3.4364   -4.6619   -0.0978 H   0  0  0  0  0  0  0  0  0  0  0  0
   -0.2061   -4.1216   -0.0719 C   0  0  0  0  0  0  0  0  0  0  0  0
    0.7439   -4.6817   -0.0681 H   0  0  0  0  0  0  0  0  0  0  0  0
   -0.1616   -2.6997   -0.0435 C   0  0  0  0  0  0  0  0  0  0  0  0
    1.0641   -1.9981    0.0224 C   0  0  0  0  0  0  0  0  0  0  0  0
    2.1557   -1.4334    0.1151 C   0  0  0  0  0  0  0  0  0  0  0  0
    3.3759   -0.7201    0.1970 C   0  0  0  0  0  0  0  0  0  0  0  0
    4.6125   -1.4065    0.2724 C   0  0  0  0  0  0  0  0  0  0  0  0
    4.6046   -2.5057    0.2712 H   0  0  0  0  0  0  0  0  0  0  0  0
    5.8183   -0.7039    0.3457 C   0  0  0  0  0  0  0  0  0  0  0  0
    6.7683   -1.2556    0.4034 H   0  0  0  0  0  0  0  0  0  0  0  0
    5.8183    0.7038    0.3457 C   0  0  0  0  0  0  0  0  0  0  0  0
    6.7683    1.2554    0.4034 H   0  0  0  0  0  0  0  0  0  0  0  0
    4.6126    1.4064    0.2724 C   0  0  0  0  0  0  0  0  0  0  0  0
    4.6047    2.5056    0.2712 H   0  0  0  0  0  0  0  0  0  0  0  0
    3.3759    0.7201    0.1970 C   0  0  0  0  0  0  0  0  0  0  0  0
    2.1557    1.4334    0.1150 C   0  0  0  0  0  0  0  0  0  0  0  0
    1.0642    1.9981    0.0224 C   0  0  0  0  0  0  0  0  0  0  0  0
   -0.1615    2.6997   -0.0435 C   0  0  2  0  0  3  0  0  0  0  0  0
   -0.2060    4.1216   -0.0719 C   0  0  0  0  0  0  0  0  0  0  0  0
    0.7440    4.6818   -0.0681 H   0  0  0  0  0  0  0  0  0  0  0  0
   -2.4857    4.1036   -0.0842 C   0  0  0  0  0  0  0  0  0  0  0  0
   -3.4363    4.6620   -0.0977 H   0  0  0  0  0  0  0  0  0  0  0  0
   -2.4960    2.7039   -0.0491 C   0  0  0  0  0  0  0  0  0  0  0  0
   -3.4223    2.1145   -0.0054 H   0  0  0  0  0  0  0  0  0  0  0  0
  1 11  1  0  0  0  0
  2 26  1  0  0  0  0
  3  7  2  0  0  0  0
  3  9  1  0  0  0  0
  4 29  1  0  0  0  0
  4 27  2  0  0  0  0
  5  1  1  0  0  0  0
  5  6  1  0  0  0  0
  7  5  1  0  0  0  0
  8  7  1  0  0  0  0
  9 10  1  0  0  0  0
  9 11  2  0  0  0  0
 11 12  1  0  0  0  0
 12 13  3  0  0  0  0
 13 14  1  0  0  0  0
 14 15  1  0  0  0  0
 15 17  2  0  0  0  0
 16 15  1  0  0  0  0
 17 19  1  0  0  0  0
 17 18  1  0  0  0  0
 19 20  1  0  0  0  0
 21 19  2  0  0  0  0
 22 21  1  0  0  0  0
 23 14  2  0  0  0  0
 23 21  1  0  0  0  0
 24 23  1  0  0  0  0
 25 24  3  0  0  0  0
 26 25  1  1  0  0  0
 27 28  1  0  0  0  0
 27 26  1  0  0  0  0
 29 31  2  0  0  0  0
 30 29  1  0  0  0  0
 31  2  1  0  0  0  0
 31 32  1  0  0  0  0
M  END
