2,13
q = 0.0, confidence = 0.958

 42 43  0  0  1  0  0  0  0  0999 V2000
   -0.7340    3.8772   -1.4984 O   0  0  0  0  0  0  0  0  0  0  0  0
   -1.4053    0.4697   -0.7393 N   0  0  0  0  0  2  0  0  0  0  0  0
    2.6193    0.5470   -0.9845 C   0  0  0  0  0  0  0  0  0  0  0  0
    1.9249    3.1080   -2.0345 C   0  0  0  0  0  0  0  0  0  0  0  0
    2.3089    2.6197   -2.9545 H   0  0  0  0  0  0  0  0  0  0  0  0
    2.8066    3.3251   -1.3996 H   0  0  0  0  0  0  0  0  0  0  0  0
    1.4182    4.0541   -2.2946 H   0  0  0  0  0  0  0  0  0  0  0  0
   -2.8411    2.1648   -1.9217 C   0  0  0  0  0  0  0  0  0  0  0  0
   -3.3346    1.4007   -2.5476 H   0  0  0  0  0  0  0  0  0  0  0  0
   -2.6103    3.0605   -2.5255 H   0  0  0  0  0  0  0  0  0  0  0  0
   -3.5676    2.4851   -1.1447 H   0  0  0  0  0  0  0  0  0  0  0  0
   -0.4720    2.6818   -1.2747 C   0  0  0  0  0  0  0  0  0  0  0  0
    1.2974    1.0624   -0.7904 N   0  0  0  0  0  2  0  0  0  0  0  0
   -2.3542   -1.2014   -2.3546 C   0  0  0  0  0  0  0  0  0  0  0  0
   -1.3021   -1.3743   -2.6573 H   0  0  0  0  0  0  0  0  0  0  0  0
   -2.7886   -0.4675   -3.0670 H   0  0  0  0  0  0  0  0  0  0  0  0
   -3.1537   -2.5110   -2.4046 C   0  0  0  0  0  0  0  0  0  0  0  0
   -2.6142   -3.2789   -1.8060 H   0  0  0  0  0  0  0  0  0  0  0  0
   -3.1914   -2.8949   -3.4455 H   0  0  0  0  0  0  0  0  0  0  0  0
    3.6569    0.8978   -0.1011 C   0  0  0  0  0  0  0  0  0  0  0  0
    3.4458    1.5986    0.7184 H   0  0  0  0  0  0  0  0  0  0  0  0
    4.9251    0.3223   -0.2616 C   0  0  0  0  0  0  0  0  0  0  0  0
    5.7358    0.5946    0.4317 H   0  0  0  0  0  0  0  0  0  0  0  0
   -4.5534   -1.7515   -0.4243 C   0  0  0  0  0  0  0  0  0  0  0  0
   -4.0674   -2.4760    0.2674 H   0  0  0  0  0  0  0  0  0  0  0  0
   -5.5884   -1.6055   -0.0508 H   0  0  0  0  0  0  0  0  0  0  0  0
   -2.3623   -0.6488   -0.9186 C   0  0  0  0  0  0  0  0  0  0  0  0
   -1.9384   -1.4570   -0.2930 H   0  0  0  0  0  0  0  0  0  0  0  0
    4.1256   -0.9377   -2.1783 C   0  0  0  0  0  0  0  0  0  0  0  0
    4.3057   -1.6568   -2.9920 H   0  0  0  0  0  0  0  0  0  0  0  0
   -4.5722   -2.3390   -1.8431 C   0  0  0  0  0  0  0  0  0  0  0  0
   -5.1477   -1.6564   -2.5088 H   0  0  0  0  0  0  0  0  0  0  0  0
   -5.1107   -3.3098   -1.8531 H   0  0  0  0  0  0  0  0  0  0  0  0
    5.1633   -0.5986   -1.2951 C   0  0  0  0  0  0  0  0  0  0  0  0
    6.1589   -1.0518   -1.4125 H   0  0  0  0  0  0  0  0  0  0  0  0
   -3.7869   -0.4219   -0.3825 C   0  0  0  0  0  0  0  0  0  0  0  0
   -3.7332   -0.0198    0.6498 H   0  0  0  0  0  0  0  0  0  0  0  0
   -4.3354    0.3243   -0.9904 H   0  0  0  0  0  0  0  0  0  0  0  0
    2.8537   -0.3675   -2.0278 C   0  0  0  0  0  0  0  0  0  0  0  0
    2.0242   -0.6360   -2.6973 H   0  0  0  0  0  0  0  0  0  0  0  0
    0.9482    2.2186   -1.3198 C   0  0  1  0  0  3  0  0  0  0  0  0
   -1.5733    1.6685   -1.2768 C   0  0  1  0  0  3  0  0  0  0  0  0
  1 12  2  0  0  0  0
  3 13  1  0  0  0  0
  3 20  1  0  0  0  0
  4  6  1  0  0  0  0
  4 41  1  0  0  0  0
  5  4  1  0  0  0  0
  7  4  1  0  0  0  0
  8 42  1  0  0  0  0
  8 11  1  0  0  0  0
  9  8  1  0  0  0  0
 10  8  1  0  0  0  0
 14 27  1  0  0  0  0
 15 14  1  0  0  0  0
 16 14  1  0  0  0  0
 17 14  1  0  0  0  0
 17 31  1  0  0  0  0
 17 18  1  0  0  0  0
 19 17  1  0  0  0  0
 20 21  1  0  0  0  0
 22 20  2  0  0  0  0
 22 23  1  0  0  0  0
 24 36  1  0  0  0  0
 24 26  1  0  0  0  0
 24 25  1  0  0  0  0
 27  2  1  0  0  0  0
 27 36  1  0  0  0  0
 27 28  1  0  0  0  0
 29 39  1  0  0  0  0
 29 34  2  0  0  0  0
 30 29  1  0  0  0  0
 31 24  1  0  0  0  0
 32 31  1  0  0  0  0
 33 31  1  0  0  0  0
 34 22  1  0  0  0  0
 35 34  1  0  0  0  0
 36 37  1  0  0  0  0
 38 36  1  0  0  0  0
 39  3  2  0  0  0  0
 40 39  1  0  0  0  0
 41 12  1  6  0  0  0
 41 13  1  0  0  0  0
 42 12  1  1  0  0  0
 42  2  1  0  0  0  0
M  END
