1,2
q = -2.0, confidence = 0.558

 21 21  0  0  0  0  0  0  0  0999 V2000
    0.5909   -1.4320    0.8816 N   0  0  0  0  0  2  0  0  0  0  0  0
    0.6916    1.2050    1.0825 N   0  0  0  0  0  2  0  0  0  0  0  0
    2.4218   -1.3033   -0.9039 C   0  0  0  0  0  0  0  0  0  0  0  0
    1.3137   -2.1359   -0.1000 C   0  0  0  0  0  0  0  0  0  0  0  0
    1.9364    0.1269   -1.8802 S   0  0  0  0  0  0  0  0  0  0  0  0
    1.1139   -1.0150    2.1377 C   0  0  0  0  0  0  0  0  0  0  0  0
    1.2888    2.1240    0.1923 C   0  0  0  0  0  0  0  0  0  0  0  0
    1.4649    0.5645    2.1004 C   0  0  0  0  0  0  0  0  0  0  0  0
    2.3685    1.5112   -0.8222 C   0  0  0  0  0  0  0  0  0  0  0  0
    3.2379   -1.0123   -0.2126 H   0  0  0  0  0  0  0  0  0  0  0  0
    2.8268   -2.0293   -1.6385 H   0  0  0  0  0  0  0  0  0  0  0  0
    0.5922   -2.5448   -0.8401 H   0  0  0  0  0  0  0  0  0  0  0  0
    1.8801   -2.9740    0.3640 H   0  0  0  0  0  0  0  0  0  0  0  0
    2.0004   -1.6078    2.4494 H   0  0  0  0  0  0  0  0  0  0  0  0
    0.3201   -1.1237    2.9046 H   0  0  0  0  0  0  0  0  0  0  0  0
    1.8591    2.8987    0.7523 H   0  0  0  0  0  0  0  0  0  0  0  0
    0.4873    2.6137   -0.4007 H   0  0  0  0  0  0  0  0  0  0  0  0
    1.1720    0.9148    3.1151 H   0  0  0  0  0  0  0  0  0  0  0  0
    2.5495    0.7829    1.9752 H   0  0  0  0  0  0  0  0  0  0  0  0
    2.6114    2.3412   -1.5163 H   0  0  0  0  0  0  0  0  0  0  0  0
    3.2855    1.2490   -0.2577 H   0  0  0  0  0  0  0  0  0  0  0  0
  1  6  1  0  0  0  0
  2  8  1  0  0  0  0
  3 10  1  0  0  0  0
  3  4  1  0  0  0  0
  4 13  1  0  0  0  0
  4  1  1  0  0  0  0
  5  3  1  0  0  0  0
  5  9  1  0  0  0  0
  6 14  1  0  0  0  0
  6 15  1  0  0  0  0
  7 16  1  0  0  0  0
  7  2  1  0  0  0  0
  8  6  1  0  0  0  0
  8 18  1  0  0  0  0
  9 21  1  0  0  0  0
  9  7  1  0  0  0  0
 11  3  1  0  0  0  0
 12  4  1  0  0  0  0
 17  7  1  0  0  0  0
 19  8  1  0  0  0  0
 20  9  1  0  0  0  0
M  END
