4,5
q = 0.0, confidence = 0.972

 32 34  0  0  0  0  0  0  0  0999 V2000
   -7.3749   -0.1823   -0.1117 S   0  0  0  0  0  0  0  0  0  0  0  0
   -8.0160    1.1433   -0.0940 O   0  0  0  0  0  0  0  0  0  0  0  0
   -7.6250   -1.2093   -1.1357 O   0  0  0  0  0  0  0  0  0  0  0  0
    2.9534    1.4074    0.1364 N   0  0  0  0  0  2  0  0  0  0  0  0
    0.6027    0.1640    0.1651 N   0  0  0  0  0  2  0  0  0  0  0  0
   -0.6068   -0.3224    0.1662 N   0  0  0  0  0  2  0  0  0  0  0  0
   -1.4391    0.7385    0.0543 N   0  0  0  0  0  0  0  0  0  0  0  0
   -7.7676   -0.8993    1.3596 N   0  0  0  0  0  0  0  0  0  0  0  0
   -7.3672   -1.8367    1.4769 H   0  0  0  0  0  0  0  0  0  0  0  0
   -7.6158   -0.2846    2.1668 H   0  0  0  0  0  0  0  0  0  0  0  0
    4.1858    1.9572    0.1445 C   0  0  0  0  0  3  0  0  0  0  0  0
    5.0263    1.2522    0.2166 H   0  0  0  0  0  0  0  0  0  0  0  0
    4.3958    3.3367    0.0551 C   0  0  0  0  0  0  0  0  0  0  0  0
    5.4220    3.7293    0.0602 H   0  0  0  0  0  0  0  0  0  0  0  0
    3.2857    4.1901   -0.0454 C   0  0  0  0  0  0  0  0  0  0  0  0
    3.4175    5.2793   -0.1202 H   0  0  0  0  0  0  0  0  0  0  0  0
    2.0048    3.6296   -0.0506 C   0  0  0  0  0  0  0  0  0  0  0  0
    1.1095    4.2625   -0.1271 H   0  0  0  0  0  0  0  0  0  0  0  0
    1.8688    2.2340    0.0372 C   0  0  0  0  0  0  0  0  0  0  0  0
    0.5894    1.5392    0.0513 C   0  0  0  0  0  0  0  0  0  0  0  0
   -0.7443    1.9173   -0.0185 C   0  0  0  0  0  0  0  0  0  0  0  0
   -1.2316    2.8856   -0.1537 H   0  0  0  0  0  0  0  0  0  0  0  0
   -2.8457    0.5294    0.0139 C   0  0  0  0  0  0  0  0  0  0  0  0
   -3.7198    1.5548    0.4181 C   0  0  0  0  0  0  0  0  0  0  0  0
   -3.3286    2.5131    0.7881 H   0  0  0  0  0  0  0  0  0  0  0  0
   -5.1017    1.3401    0.3650 C   0  0  0  0  0  0  0  0  0  0  0  0
   -5.8116    2.1288    0.6536 H   0  0  0  0  0  0  0  0  0  0  0  0
   -5.5884    0.0994   -0.0722 C   0  0  0  0  0  0  0  0  0  0  0  0
   -4.7173   -0.9213   -0.4864 C   0  0  0  0  0  0  0  0  0  0  0  0
   -5.1293   -1.8667   -0.8688 H   0  0  0  0  0  0  0  0  0  0  0  0
   -3.3361   -0.7095   -0.4417 C   0  0  0  0  0  0  0  0  0  0  0  0
   -2.6276   -1.4832   -0.7665 H   0  0  0  0  0  0  0  0  0  0  0  0
  1  2  2  0  0  0  0
  1 28  1  0  0  0  0
  1  8  1  0  0  0  0
  3  1  2  0  0  0  0
  4 11  1  0  0  0  0
  5  6  1  0  0  0  0
  7  6  1  0  0  0  0
  8  9  1  0  0  0  0
  8 10  1  0  0  0  0
 11 12  1  0  0  0  0
 13 14  1  0  0  0  0
 13 11  1  0  0  0  0
 15 13  2  0  0  0  0
 16 15  1  0  0  0  0
 17 15  1  0  0  0  0
 17 19  2  0  0  0  0
 18 17  1  0  0  0  0
 19 20  1  0  0  0  0
 19  4  1  0  0  0  0
 20  5  1  0  0  0  0
 21 20  2  0  0  0  0
 21  7  1  0  0  0  0
 22 21  1  0  0  0  0
 23  7  1  0  0  0  0
 23 24  1  0  0  0  0
 24 25  1  0  0  0  0
 26 24  2  0  0  0  0
 26 27  1  0  0  0  0
 28 26  1  0  0  0  0
 29 31  1  0  0  0  0
 29 28  2  0  0  0  0
 30 29  1  0  0  0  0
 31 23  2  0  0  0  0
 32 31  1  0  0  0  0
M  END
