28,30
q = 0.0, confidence = 0.992

 33 34  0  0  1  0  0  0  0  0999 V2000
   -2.8603    0.9457    1.8766 C   0  0  0  0  0  3  0  0  0  0  0  0
   -2.8530    1.9326    1.3844 H   0  0  0  0  0  0  0  0  0  0  0  0
   -3.8962    0.5370    2.7330 C   0  0  0  0  0  0  0  0  0  0  0  0
   -4.7092    1.2279    3.0140 H   0  0  0  0  0  0  0  0  0  0  0  0
   -2.9343   -1.5563    2.9610 C   0  0  0  0  0  0  0  0  0  0  0  0
   -1.8018   -1.0972    2.2217 C   0  0  0  0  0  0  0  0  0  0  0  0
   -3.1306   -2.9720    3.4302 C   0  0  0  0  0  0  0  0  0  0  0  0
   -2.6799   -3.7179    2.7491 H   0  0  0  0  0  0  0  0  0  0  0  0
   -4.2168   -3.1608    3.5168 H   0  0  0  0  0  0  0  0  0  0  0  0
   -2.7019   -3.1243    4.4437 H   0  0  0  0  0  0  0  0  0  0  0  0
   -0.5724   -1.8606    1.9423 C   0  0  2  0  0  3  0  0  0  0  0  0
    0.0062   -2.8963    2.8583 C   0  0  0  0  0  0  0  0  0  0  0  0
   -0.5903   -3.0214    3.7753 H   0  0  0  0  0  0  0  0  0  0  0  0
    1.0262   -2.5900    3.1820 H   0  0  0  0  0  0  0  0  0  0  0  0
    0.0956   -3.8869    2.3620 H   0  0  0  0  0  0  0  0  0  0  0  0
    1.8384   -1.7805   -0.7348 C   0  0  0  0  0  0  0  0  0  0  0  0
    3.1519   -2.4506   -0.9339 C   0  0  0  0  0  0  0  0  0  0  0  0
    3.9981   -1.9134   -1.9280 C   0  0  0  0  0  0  0  0  0  0  0  0
    3.6495   -1.0384   -2.4952 H   0  0  0  0  0  0  0  0  0  0  0  0
    5.2507   -2.4871   -2.1699 C   0  0  0  0  0  0  0  0  0  0  0  0
    5.9101   -2.0585   -2.9389 H   0  0  0  0  0  0  0  0  0  0  0  0
    5.6652   -3.6100   -1.4334 C   0  0  0  0  0  0  0  0  0  0  0  0
    6.6492   -4.0626   -1.6268 H   0  0  0  0  0  0  0  0  0  0  0  0
    4.8212   -4.1636   -0.4565 C   0  0  0  0  0  0  0  0  0  0  0  0
    5.1363   -5.0557    0.1044 H   0  0  0  0  0  0  0  0  0  0  0  0
    3.5691   -3.5880   -0.2062 C   0  0  0  0  0  0  0  0  0  0  0  0
    2.9066   -4.0673    0.5326 H   0  0  0  0  0  0  0  0  0  0  0  0
   -1.8192    0.1385    1.6523 N   0  0  0  0  0  2  0  0  0  0  0  0
   -3.9406   -0.7049    3.2276 N   0  0  0  0  0  0  0  0  0  0  0  0
    0.0460   -1.4959    0.8355 N   0  0  0  0  0  2  0  0  0  0  0  0
    1.2292   -2.0464    0.5103 N   0  0  0  0  0  0  0  0  0  0  0  0
    1.7478   -2.5665    1.2250 H   0  0  0  0  0  0  0  0  0  0  0  0
    1.3043   -1.0463   -1.5554 O   0  0  0  0  0  0  0  0  0  0  0  0
  1  3  1  0  0  0  0
  2  1  1  0  0  0  0
  3  4  1  0  0  0  0
  3 29  2  0  0  0  0
  5 29  1  0  0  0  0
  5  7  1  0  0  0  0
  6  5  2  0  0  0  0
  7  9  1  0  0  0  0
  7 10  1  0  0  0  0
  8  7  1  0  0  0  0
 11 30  1  1  0  0  0
 11  6  1  0  0  0  0
 11 12  1  0  0  0  0
 12 14  1  0  0  0  0
 12 13  1  0  0  0  0
 15 12  1  0  0  0  0
 16 31  1  0  0  0  0
 17 16  1  0  0  0  0
 17 26  1  0  0  0  0
 18 17  2  0  0  0  0
 19 18  1  0  0  0  0
 20 18  1  0  0  0  0
 20 22  2  0  0  0  0
 21 20  1  0  0  0  0
 22 24  1  0  0  0  0
 23 22  1  0  0  0  0
 24 26  2  0  0  0  0
 24 25  1  0  0  0  0
 26 27  1  0  0  0  0
 28  1  1  0  0  0  0
 28  6  1  0  0  0  0
 31 30  1  0  0  0  0
 31 32  1  0  0  0  0
 33 16  2  0  0  0  0
M  END
