2,3
q = 0.0, confidence = 0.892

 49 50  0  0  0  0  0  0  0  0999 V2000
   -2.4166    2.7648    0.8309 Si  0  0  0  0  0  0  0  0  0  0  0  0
   -1.3361   -0.7571   -0.9327 N   0  0  0  0  0  2  0  0  0  0  0  0
    0.9044    0.6095    0.0769 N   0  0  0  0  0  2  0  0  0  0  0  0
   -1.5045    0.4293   -0.2310 C   0  0  0  0  0  0  0  0  0  0  0  0
   -0.3679    1.1314    0.2457 C   0  0  0  0  0  0  0  0  0  0  0  0
   -2.8422    1.0081    0.2258 C   0  0  0  0  0  0  0  0  0  0  0  0
   -0.5722    2.3884    1.0683 C   0  0  0  0  0  0  0  0  0  0  0  0
   -2.6949    4.0270   -0.5485 C   0  0  0  0  0  0  0  0  0  0  0  0
   -3.3208    3.2636    2.4128 C   0  0  0  0  0  0  0  0  0  0  0  0
   -2.3581   -1.2152   -1.9055 C   0  0  0  0  0  0  0  0  0  0  0  0
   -3.6673   -1.6934   -1.2299 C   0  0  0  0  0  0  0  0  0  0  0  0
   -2.6370   -0.0962   -2.9333 C   0  0  0  0  0  0  0  0  0  0  0  0
   -1.8202   -2.4266   -2.6826 C   0  0  0  0  0  0  0  0  0  0  0  0
    1.9869    1.4601   -0.2379 C   0  0  0  0  0  0  0  0  0  0  0  0
    1.9808    2.1156   -1.5040 C   0  0  0  0  0  0  0  0  0  0  0  0
    3.0736    2.9285   -1.8568 C   0  0  0  0  0  0  0  0  0  0  0  0
    4.1622    3.0945   -0.9910 C   0  0  0  0  0  0  0  0  0  0  0  0
    4.1607    2.4445    0.2500 C   0  0  0  0  0  0  0  0  0  0  0  0
    3.0844    1.6292    0.6486 C   0  0  0  0  0  0  0  0  0  0  0  0
    0.8333    1.9085   -2.4570 C   0  0  0  0  0  0  0  0  0  0  0  0
    3.0897    0.9794    2.0067 C   0  0  0  0  0  0  0  0  0  0  0  0
   -3.5912    1.0268   -0.5878 H   0  0  0  0  0  0  0  0  0  0  0  0
   -3.2911    0.3917    1.0373 H   0  0  0  0  0  0  0  0  0  0  0  0
   -0.3090    2.2135    2.1374 H   0  0  0  0  0  0  0  0  0  0  0  0
    0.1124    3.1883    0.7140 H   0  0  0  0  0  0  0  0  0  0  0  0
   -2.3123    5.0288   -0.2646 H   0  0  0  0  0  0  0  0  0  0  0  0
   -3.7720    4.1308   -0.7934 H   0  0  0  0  0  0  0  0  0  0  0  0
   -2.1639    3.7088   -1.4694 H   0  0  0  0  0  0  0  0  0  0  0  0
   -4.4145    3.3418    2.2432 H   0  0  0  0  0  0  0  0  0  0  0  0
   -3.1537    2.5172    3.2163 H   0  0  0  0  0  0  0  0  0  0  0  0
   -2.9666    4.2474    2.7838 H   0  0  0  0  0  0  0  0  0  0  0  0
   -4.3677   -2.0844   -1.9959 H   0  0  0  0  0  0  0  0  0  0  0  0
   -3.4464   -2.5187   -0.5239 H   0  0  0  0  0  0  0  0  0  0  0  0
   -4.1898   -0.8977   -0.6728 H   0  0  0  0  0  0  0  0  0  0  0  0
   -1.6988    0.1778   -3.4554 H   0  0  0  0  0  0  0  0  0  0  0  0
   -3.3713   -0.4358   -3.6915 H   0  0  0  0  0  0  0  0  0  0  0  0
   -3.0362    0.8222   -2.4635 H   0  0  0  0  0  0  0  0  0  0  0  0
   -2.5684   -2.7513   -3.4322 H   0  0  0  0  0  0  0  0  0  0  0  0
   -1.6358   -3.2770   -1.9999 H   0  0  0  0  0  0  0  0  0  0  0  0
   -0.8828   -2.1878   -3.2165 H   0  0  0  0  0  0  0  0  0  0  0  0
    3.0694    3.4266   -2.8396 H   0  0  0  0  0  0  0  0  0  0  0  0
    5.0136    3.7272   -1.2843 H   0  0  0  0  0  0  0  0  0  0  0  0
    5.0097    2.5745    0.9398 H   0  0  0  0  0  0  0  0  0  0  0  0
    0.5123    0.8469   -2.4630 H   0  0  0  0  0  0  0  0  0  0  0  0
    1.1041    2.2211   -3.4838 H   0  0  0  0  0  0  0  0  0  0  0  0
   -0.0653    2.4863   -2.1518 H   0  0  0  0  0  0  0  0  0  0  0  0
    4.0378    1.1819    2.5407 H   0  0  0  0  0  0  0  0  0  0  0  0
    2.9503   -0.1179    1.9423 H   0  0  0  0  0  0  0  0  0  0  0  0
    2.2548    1.3606    2.6313 H   0  0  0  0  0  0  0  0  0  0  0  0
  1  7  1  0  0  0  0
  1  9  1  0  0  0  0
  2  4  1  0  0  0  0
  3  5  1  0  0  0  0
  4  6  1  0  0  0  0
  4  5  2  0  0  0  0
  5  7  1  0  0  0  0
  6  1  1  0  0  0  0
  6 23  1  0  0  0  0
  7 24  1  0  0  0  0
  8 26  1  0  0  0  0
  8  1  1  0  0  0  0
  9 31  1  0  0  0  0
  9 30  1  0  0  0  0
 10 11  1  0  0  0  0
 10  2  1  0  0  0  0
 11 34  1  0  0  0  0
 11 33  1  0  0  0  0
 12 37  1  0  0  0  0
 12 10  1  0  0  0  0
 13 39  1  0  0  0  0
 13 10  1  0  0  0  0
 14  3  1  0  0  0  0
 14 19  1  0  0  0  0
 15 14  2  0  0  0  0
 16 15  1  0  0  0  0
 16 17  2  0  0  0  0
 17 18  1  0  0  0  0
 18 19  2  0  0  0  0
 18 43  1  0  0  0  0
 19 21  1  0  0  0  0
 20 46  1  0  0  0  0
 20 15  1  0  0  0  0
 21 47  1  0  0  0  0
 21 49  1  0  0  0  0
 22  6  1  0  0  0  0
 25  7  1  0  0  0  0
 27  8  1  0  0  0  0
 28  8  1  0  0  0  0
 29  9  1  0  0  0  0
 32 11  1  0  0  0  0
 35 12  1  0  0  0  0
 36 12  1  0  0  0  0
 38 13  1  0  0  0  0
 40 13  1  0  0  0  0
 41 16  1  0  0  0  0
 42 17  1  0  0  0  0
 44 20  1  0  0  0  0
 45 20  1  0  0  0  0
 48 21  1  0  0  0  0
M  END
