1,5
q = -1.0, confidence = 0.002

 35 35  0  0  1  0  0  0  0  0999 V2000
   -1.9070    0.0073    0.1086 N   0  0  0  0  0  2  0  0  0  0  0  0
   -3.3885   -1.0469    1.6314 N   0  0  0  0  0  0  0  0  0  0  0  0
   -2.0288   -2.3747    0.3251 N   0  0  0  0  0  0  0  0  0  0  0  0
   -0.9934   -3.8140   -1.1887 N   0  0  0  0  0  0  0  0  0  0  0  0
   -0.1385   -1.6396   -0.8820 N   0  0  0  0  0  2  0  0  0  0  0  0
    0.5997   -1.9180   -1.5322 H   0  0  0  0  0  0  0  0  0  0  0  0
   -2.7211    0.9536   -0.5202 C   0  0  0  0  0  0  0  0  0  0  0  0
   -2.1287    2.0799   -1.1582 C   0  0  0  0  0  0  0  0  0  0  0  0
   -1.0346    2.1624   -1.1585 H   0  0  0  0  0  0  0  0  0  0  0  0
   -2.9086    3.0477   -1.7990 C   0  0  0  0  0  0  0  0  0  0  0  0
   -2.4053    3.9032   -2.2770 H   0  0  0  0  0  0  0  0  0  0  0  0
   -4.3080    2.9316   -1.8586 C   0  0  0  0  0  0  0  0  0  0  0  0
   -4.9179    3.6940   -2.3652 H   0  0  0  0  0  0  0  0  0  0  0  0
   -4.9042    1.8004   -1.2798 C   0  0  0  0  0  0  0  0  0  0  0  0
   -5.9956    1.6616   -1.3406 H   0  0  0  0  0  0  0  0  0  0  0  0
   -4.1362    0.8264   -0.6289 C   0  0  0  0  0  0  0  0  0  0  0  0
   -4.6365   -0.0588   -0.2128 H   0  0  0  0  0  0  0  0  0  0  0  0
   -2.4132   -1.1454    0.6586 C   0  0  2  0  0  3  0  0  0  0  0  0
   -4.1004   -2.2212    2.0978 C   0  0  0  0  0  0  0  0  0  0  0  0
   -3.6443   -2.6441    3.0220 H   0  0  0  0  0  0  0  0  0  0  0  0
   -5.1547   -1.9535    2.3205 H   0  0  0  0  0  0  0  0  0  0  0  0
   -4.0712   -3.0006    1.3173 H   0  0  0  0  0  0  0  0  0  0  0  0
   -3.6121    0.1739    2.3772 C   0  0  0  0  0  0  0  0  0  0  0  0
   -4.5829    0.6534    2.1204 H   0  0  0  0  0  0  0  0  0  0  0  0
   -3.6038   -0.0455    3.4668 H   0  0  0  0  0  0  0  0  0  0  0  0
   -2.8088    0.8969    2.1506 H   0  0  0  0  0  0  0  0  0  0  0  0
   -1.0537   -2.5615   -0.6031 C   0  0  0  0  0  0  0  0  0  0  0  0
   -2.1057   -4.7388   -1.0972 C   0  0  0  0  0  0  0  0  0  0  0  0
   -2.7385   -4.4331   -0.2459 H   0  0  0  0  0  0  0  0  0  0  0  0
   -2.7292   -4.7447   -2.0219 H   0  0  0  0  0  0  0  0  0  0  0  0
   -1.7343   -5.7707   -0.9236 H   0  0  0  0  0  0  0  0  0  0  0  0
    0.0817   -4.1320   -2.1027 C   0  0  0  0  0  0  0  0  0  0  0  0
    1.0670   -3.8644   -1.6633 H   0  0  0  0  0  0  0  0  0  0  0  0
    0.0884   -5.2225   -2.2891 H   0  0  0  0  0  0  0  0  0  0  0  0
   -0.0134   -3.6189   -3.0898 H   0  0  0  0  0  0  0  0  0  0  0  0
  2 19  1  0  0  0  0
  2 23  1  0  0  0  0
  3 18  1  0  0  0  0
  4 28  1  0  0  0  0
  4 27  1  0  0  0  0
  5 27  1  0  0  0  0
  6  5  1  0  0  0  0
  7  1  1  0  0  0  0
  8  7  2  0  0  0  0
  9  8  1  0  0  0  0
 10  8  1  0  0  0  0
 11 10  1  0  0  0  0
 12 10  2  0  0  0  0
 12 14  1  0  0  0  0
 13 12  1  0  0  0  0
 14 16  2  0  0  0  0
 15 14  1  0  0  0  0
 16  7  1  0  0  0  0
 16 17  1  0  0  0  0
 18  1  1  1  0  0  0
 18  2  1  0  0  0  0
 19 21  1  0  0  0  0
 19 20  1  0  0  0  0
 22 19  1  0  0  0  0
 23 25  1  0  0  0  0
 24 23  1  0  0  0  0
 26 23  1  0  0  0  0
 27  3  2  0  0  0  0
 28 31  1  0  0  0  0
 28 29  1  0  0  0  0
 30 28  1  0  0  0  0
 32 33  1  0  0  0  0
 32  4  1  0  0  0  0
 34 32  1  0  0  0  0
 35 32  1  0  0  0  0
M  END
