1,12
q = 0.0, confidence = 0.996

 18 18  0  0  0  0  0  0  0  0999 V2000
   -0.9880   -0.5991   -0.0206 N   0  0  0  0  0  2  0  0  0  0  0  0
   -1.3402    1.7147   -0.1716 N   0  0  0  0  0  0  0  0  0  0  0  0
   -1.4328   -1.8735    0.0306 C   0  0  0  0  0  3  0  0  0  0  0  0
   -0.6246   -2.6256    0.0474 H   0  0  0  0  0  0  0  0  0  0  0  0
   -2.7935   -2.1817    0.0559 C   0  0  0  0  0  0  0  0  0  0  0  0
   -3.1157   -3.2311    0.0906 H   0  0  0  0  0  0  0  0  0  0  0  0
   -3.7182   -1.1248    0.0490 C   0  0  0  0  0  0  0  0  0  0  0  0
   -4.7992   -1.3256    0.0878 H   0  0  0  0  0  0  0  0  0  0  0  0
   -3.2661    0.1975    0.0045 C   0  0  0  0  0  0  0  0  0  0  0  0
   -3.9789    1.0313    0.0161 H   0  0  0  0  0  0  0  0  0  0  0  0
   -1.8755    0.4381   -0.0520 C   0  0  0  0  0  0  0  0  0  0  0  0
    0.0418    1.8393    0.1049 N   0  0  0  0  0  0  0  0  0  0  0  0
    0.2180    2.2420    1.0446 H   0  0  0  0  0  0  0  0  0  0  0  0
    0.5126    2.4394   -0.5934 H   0  0  0  0  0  0  0  0  0  0  0  0
   -2.1467    2.9130   -0.0566 C   0  0  0  0  0  0  0  0  0  0  0  0
   -3.0311    2.8421   -0.7183 H   0  0  0  0  0  0  0  0  0  0  0  0
   -1.5468    3.7765   -0.4025 H   0  0  0  0  0  0  0  0  0  0  0  0
   -2.4928    3.1102    0.9853 H   0  0  0  0  0  0  0  0  0  0  0  0
  1  3  1  0  0  0  0
  2 15  1  0  0  0  0
  2 11  1  0  0  0  0
  2 12  1  0  0  0  0
  3  4  1  0  0  0  0
  3  5  1  0  0  0  0
  5  6  1  0  0  0  0
  7  5  2  0  0  0  0
  7  8  1  0  0  0  0
  9 10  1  0  0  0  0
  9  7  1  0  0  0  0
 11  1  1  0  0  0  0
 11  9  2  0  0  0  0
 12 13  1  0  0  0  0
 14 12  1  0  0  0  0
 15 18  1  0  0  0  0
 16 15  1  0  0  0  0
 17 15  1  0  0  0  0
M  END
