1,2
q = 0.0, confidence = 0.994

 55 59  0  0  1  0  0  0  0  0999 V2000
   -1.5023    1.2646   -0.3432 N   0  0  0  0  0  2  0  0  0  0  0  0
   -0.3064   -1.1508   -0.3365 N   0  0  0  0  0  0  0  0  0  0  0  0
   -3.1785    2.5756    0.8367 C   0  0  0  0  0  0  0  0  0  0  0  0
   -3.5377    1.6570    1.3152 H   0  0  0  0  0  0  0  0  0  0  0  0
    1.7498   -0.1041   -1.1640 N   0  0  0  0  0  0  0  0  0  0  0  0
    2.2708   -1.4225   -1.5467 C   0  0  0  0  0  0  0  0  0  0  0  0
    3.3762   -1.4123   -1.4639 H   0  0  0  0  0  0  0  0  0  0  0  0
    2.0301   -1.5640   -2.6241 H   0  0  0  0  0  0  0  0  0  0  0  0
    4.5824    0.1374    0.8791 N   0  0  0  0  0  0  0  0  0  0  0  0
    0.3048   -0.1264   -1.2301 C   0  0  2  0  0  0  0  0  0  0  0  0
    0.0330   -0.4511   -2.2632 H   0  0  0  0  0  0  0  0  0  0  0  0
   -2.1367    4.9534   -0.2803 C   0  0  0  0  0  3  0  0  0  0  0  0
   -1.7135    5.8733   -0.7119 H   0  0  0  0  0  0  0  0  0  0  0  0
    0.1486   -2.5014   -0.7424 C   0  0  0  0  0  0  0  0  0  0  0  0
   -0.2749   -2.6942   -1.7511 H   0  0  0  0  0  0  0  0  0  0  0  0
   -0.3014   -3.2409   -0.0513 H   0  0  0  0  0  0  0  0  0  0  0  0
   -2.0631    2.4925   -0.0388 C   0  0  0  0  0  0  0  0  0  0  0  0
   -3.7546    3.8055    1.1212 C   0  0  0  0  0  0  0  0  0  0  0  0
   -4.6111    3.8513    1.8100 H   0  0  0  0  0  0  0  0  0  0  0  0
   -0.3391    1.2297   -1.0056 C   0  0  0  0  0  0  0  0  0  0  0  0
    1.6898   -2.6346   -0.7613 C   0  0  0  0  0  0  0  0  0  0  0  0
    2.0707   -3.9192   -1.5124 C   0  0  0  0  0  0  0  0  0  0  0  0
    1.6209   -4.8093   -1.0271 H   0  0  0  0  0  0  0  0  0  0  0  0
    3.1711   -4.0604   -1.5170 H   0  0  0  0  0  0  0  0  0  0  0  0
    1.7254   -3.8951   -2.5668 H   0  0  0  0  0  0  0  0  0  0  0  0
    2.3336    0.4916    0.0451 C   0  0  0  0  0  0  0  0  0  0  0  0
    2.1431   -0.0674    0.9869 H   0  0  0  0  0  0  0  0  0  0  0  0
    1.8802    1.4970    0.1795 H   0  0  0  0  0  0  0  0  0  0  0  0
   -1.5083    3.7100   -0.5760 C   0  0  0  0  0  0  0  0  0  0  0  0
    0.2683    2.3883   -1.5546 C   0  0  0  0  0  0  0  0  0  0  0  0
    1.1988    2.2659   -2.1254 H   0  0  0  0  0  0  0  0  0  0  0  0
    3.8335    0.6540   -0.0859 C   0  0  0  0  0  0  0  0  0  0  0  0
   -0.3339    3.6186   -1.3710 C   0  0  0  0  0  0  0  0  0  0  0  0
    0.0955    4.5319   -1.8107 H   0  0  0  0  0  0  0  0  0  0  0  0
    5.9403    0.2783    0.8070 C   0  0  0  0  0  0  0  0  0  0  0  0
    2.2227   -2.7190    0.6845 C   0  0  0  0  0  0  0  0  0  0  0  0
    2.0275   -3.7275    1.1028 H   0  0  0  0  0  0  0  0  0  0  0  0
    1.7363   -1.9952    1.3682 H   0  0  0  0  0  0  0  0  0  0  0  0
    3.3125   -2.5238    0.7335 H   0  0  0  0  0  0  0  0  0  0  0  0
   -3.2476    5.0007    0.5471 C   0  0  0  0  0  0  0  0  0  0  0  0
   -3.7268    5.9643    0.7757 H   0  0  0  0  0  0  0  0  0  0  0  0
    6.7419   -0.2740    1.8478 C   0  0  0  0  0  0  0  0  0  0  0  0
    6.2219   -0.7864    2.6701 H   0  0  0  0  0  0  0  0  0  0  0  0
    6.5896    0.9585   -0.2872 C   0  0  0  0  0  0  0  0  0  0  0  0
    4.3815    1.3395   -1.2150 C   0  0  0  0  0  0  0  0  0  0  0  0
    3.7058    1.7226   -1.9934 H   0  0  0  0  0  0  0  0  0  0  0  0
    5.7524    1.4894   -1.3104 C   0  0  0  0  0  0  0  0  0  0  0  0
    6.2092    2.0134   -2.1651 H   0  0  0  0  0  0  0  0  0  0  0  0
    8.0095    1.0626   -0.2994 C   0  0  0  0  0  0  0  0  0  0  0  0
    8.4986    1.5837   -1.1375 H   0  0  0  0  0  0  0  0  0  0  0  0
    8.1237   -0.1564    1.8083 C   0  0  0  0  0  0  0  0  0  0  0  0
    8.7345   -0.5847    2.6174 H   0  0  0  0  0  0  0  0  0  0  0  0
    8.7621    0.5152    0.7300 C   0  0  0  0  0  0  0  0  0  0  0  0
    9.8592    0.5995    0.7150 H   0  0  0  0  0  0  0  0  0  0  0  0
   -0.0220   -0.9662    0.6491 H   0  0  0  0  0  0  0  0  0  0  0  0
  1 17  1  0  0  0  0
  2 55  1  0  0  0  0
  3 18  1  0  0  0  0
  3  4  1  0  0  0  0
  5 26  1  0  0  0  0
  6  7  1  0  0  0  0
  6  5  1  0  0  0  0
  6 21  1  0  0  0  0
  8  6  1  0  0  0  0
 10 11  1  6  0  0  0
 10  5  1  0  0  0  0
 10 20  1  0  0  0  0
 10  2  1  0  0  0  0
 12 40  1  0  0  0  0
 13 12  1  0  0  0  0
 14  2  1  0  0  0  0
 14 16  1  0  0  0  0
 15 14  1  0  0  0  0
 17  3  2  0  0  0  0
 18 19  1  0  0  0  0
 20  1  1  0  0  0  0
 21 14  1  0  0  0  0
 21 36  1  0  0  0  0
 22 23  1  0  0  0  0
 22 21  1  0  0  0  0
 24 22  1  0  0  0  0
 25 22  1  0  0  0  0
 26 28  1  0  0  0  0
 26 27  1  0  0  0  0
 29 12  1  0  0  0  0
 29 17  1  0  0  0  0
 30 33  1  0  0  0  0
 30 20  2  0  0  0  0
 31 30  1  0  0  0  0
 32 26  1  0  0  0  0
 32  9  2  0  0  0  0
 33 29  2  0  0  0  0
 34 33  1  0  0  0  0
 35  9  1  0  0  0  0
 35 42  1  0  0  0  0
 36 39  1  0  0  0  0
 36 37  1  0  0  0  0
 36 38  1  0  0  0  0
 40 41  1  0  0  0  0
 40 18  2  0  0  0  0
 42 43  1  0  0  0  0
 44 35  2  0  0  0  0
 45 32  1  0  0  0  0
 46 45  1  0  0  0  0
 47 45  2  0  0  0  0
 47 44  1  0  0  0  0
 48 47  1  0  0  0  0
 49 44  1  0  0  0  0
 49 53  2  0  0  0  0
 50 49  1  0  0  0  0
 51 42  2  0  0  0  0
 51 52  1  0  0  0  0
 53 51  1  0  0  0  0
 54 53  1  0  0  0  0
M  END
