6,7
q = 0.0, confidence = 0.998

 25 26  0  0  1  0  0  0  0  0999 V2000
   -2.0789   -0.4521   -1.2440 S   0  0  0  0  0  0  0  0  0  0  0  0
   -5.4676    0.6570    0.3272 O   0  0  0  0  0  0  0  0  0  0  0  0
    1.2303    3.2520   -0.1126 N   0  0  0  0  0  0  0  0  0  0  0  0
    0.2811    3.6363   -0.0318 H   0  0  0  0  0  0  0  0  0  0  0  0
    1.9654    3.7305    0.4079 H   0  0  0  0  0  0  0  0  0  0  0  0
    2.3728   -0.1690    0.2631 N   0  0  0  0  0  2  0  0  0  0  0  0
    0.1548    1.1669   -0.3108 N   0  0  0  0  0  2  0  0  0  0  0  0
   -1.0215    1.8505   -0.1751 N   0  0  0  0  0  2  0  0  0  0  0  0
   -3.3373    1.4894   -0.0346 N   0  0  0  0  0  0  0  0  0  0  0  0
   -3.4993    2.3777    0.4470 H   0  0  0  0  0  0  0  0  0  0  0  0
    2.5130    1.1361   -0.0602 C   0  0  1  0  0  3  0  0  0  0  0  0
    3.7774    1.7041   -0.3031 C   0  0  0  0  0  0  0  0  0  0  0  0
    3.8667    2.7565   -0.6086 H   0  0  0  0  0  0  0  0  0  0  0  0
   -4.3200    0.4937   -0.0319 C   0  0  0  0  0  0  0  0  0  0  0  0
    4.7469   -0.4724    0.1234 C   0  0  0  0  0  0  0  0  0  0  0  0
    5.6103   -1.1481    0.2021 H   0  0  0  0  0  0  0  0  0  0  0  0
   -3.6948   -0.8288   -0.4766 C   0  0  0  0  0  0  0  0  0  0  0  0
   -4.3577   -1.3764   -1.1701 H   0  0  0  0  0  0  0  0  0  0  0  0
   -3.4937   -1.4366    0.4340 H   0  0  0  0  0  0  0  0  0  0  0  0
    4.9091    0.8843   -0.1940 C   0  0  0  0  0  0  0  0  0  0  0  0
    5.9114    1.2991   -0.3787 H   0  0  0  0  0  0  0  0  0  0  0  0
   -2.0675    1.1212   -0.4177 C   0  0  2  0  0  3  0  0  0  0  0  0
    3.4483   -0.9649    0.3252 C   0  0  0  0  0  0  0  0  0  0  0  0
    3.2348   -2.0300    0.5133 H   0  0  0  0  0  0  0  0  0  0  0  0
    1.2444    1.8904   -0.1574 C   0  0  1  0  0  3  0  0  0  0  0  0
  1 17  1  0  0  0  0
  1 22  1  0  0  0  0
  3  4  1  0  0  0  0
  3  5  1  0  0  0  0
  6 23  1  0  0  0  0
  7  8  1  0  0  0  0
  9 14  1  0  0  0  0
  9 10  1  0  0  0  0
 11 25  1  6  0  0  0
 11  6  1  0  0  0  0
 12 20  2  0  0  0  0
 12 11  1  0  0  0  0
 13 12  1  0  0  0  0
 14  2  2  0  0  0  0
 15 16  1  0  0  0  0
 15 23  2  0  0  0  0
 17 14  1  0  0  0  0
 17 19  1  0  0  0  0
 18 17  1  0  0  0  0
 20 15  1  0  0  0  0
 21 20  1  0  0  0  0
 22  8  1  1  0  0  0
 22  9  1  0  0  0  0
 23 24  1  0  0  0  0
 25  7  1  6  0  0  0
 25  3  1  0  0  0  0
M  END
