3,6
q = 0.0, confidence = 0.998

 60 63  0  0  1  0  0  0  0  0999 V2000
   -2.8455    1.1613    1.3896 O   0  0  0  0  0  0  0  0  0  0  0  0
    2.8452    1.1605   -1.3899 O   0  0  0  0  0  0  0  0  0  0  0  0
   -1.0279   -0.2369    0.9938 N   0  0  0  0  0  2  0  0  0  0  0  0
   -3.2913   -0.8390    0.5187 N   0  0  0  0  0  0  0  0  0  0  0  0
   -2.9966   -1.6150   -0.0946 H   0  0  0  0  0  0  0  0  0  0  0  0
    1.0275   -0.2376   -0.9941 N   0  0  0  0  0  2  0  0  0  0  0  0
    3.2908   -0.8400   -0.5192 N   0  0  0  0  0  0  0  0  0  0  0  0
    2.9961   -1.6159    0.0941 H   0  0  0  0  0  0  0  0  0  0  0  0
    1.7021    3.8955    0.3261 C   0  0  0  0  0  0  0  0  0  0  0  0
    2.6852    4.2386    0.7055 H   0  0  0  0  0  0  0  0  0  0  0  0
    1.0442    4.7898    0.2859 H   0  0  0  0  0  0  0  0  0  0  0  0
    1.8294    3.5333   -0.7119 H   0  0  0  0  0  0  0  0  0  0  0  0
    1.1292    2.8203    1.2164 C   0  0  0  0  0  0  0  0  0  0  0  0
    1.4989    2.7535    2.5752 C   0  0  0  0  0  0  0  0  0  0  0  0
    2.1985    3.5052    2.9742 H   0  0  0  0  0  0  0  0  0  0  0  0
    1.0004    1.7500    3.4178 C   0  0  0  0  0  0  0  0  0  0  0  0
    1.2993    1.7206    4.4765 H   0  0  0  0  0  0  0  0  0  0  0  0
    0.1463    0.7652    2.9076 C   0  0  0  0  0  0  0  0  0  0  0  0
   -0.2222   -0.0578    3.5345 H   0  0  0  0  0  0  0  0  0  0  0  0
   -0.2223    0.8066    1.5543 C   0  0  0  0  0  0  0  0  0  0  0  0
    0.2307    1.8470    0.7089 C   0  0  0  0  0  0  0  0  0  0  0  0
   -0.2296    1.8471   -0.7091 C   0  0  0  0  0  0  0  0  0  0  0  0
    0.2221    0.8063   -1.5545 C   0  0  0  0  0  0  0  0  0  0  0  0
   -0.1472    0.7649   -2.9076 C   0  0  0  0  0  0  0  0  0  0  0  0
    0.2204   -0.0585   -3.5345 H   0  0  0  0  0  0  0  0  0  0  0  0
   -1.0007    1.7504   -3.4175 C   0  0  0  0  0  0  0  0  0  0  0  0
   -1.3002    1.7211   -4.4760 H   0  0  0  0  0  0  0  0  0  0  0  0
   -1.4978    2.7546   -2.5749 C   0  0  0  0  0  0  0  0  0  0  0  0
   -2.1967    3.5070   -2.9737 H   0  0  0  0  0  0  0  0  0  0  0  0
   -1.1273    2.8213   -1.2163 C   0  0  0  0  0  0  0  0  0  0  0  0
   -1.6983    3.8972   -0.3256 C   0  0  0  0  0  0  0  0  0  0  0  0
   -1.0334    4.7858   -0.2761 H   0  0  0  0  0  0  0  0  0  0  0  0
   -1.8357    3.5312    0.7099 H   0  0  0  0  0  0  0  0  0  0  0  0
   -2.6758    4.2497   -0.7104 H   0  0  0  0  0  0  0  0  0  0  0  0
   -2.3166   -0.0128    0.9629 C   0  0  2  0  0  3  0  0  0  0  0  0
   -4.2792    1.0815    1.2398 C   0  0  0  0  0  0  0  0  0  0  0  0
   -4.6445    2.0676    0.8966 H   0  0  0  0  0  0  0  0  0  0  0  0
   -4.7250    0.8367    2.2278 H   0  0  0  0  0  0  0  0  0  0  0  0
   -4.5023   -0.0547    0.2149 C   0  0  0  0  0  0  0  0  0  0  0  0
   -4.4527    0.4651   -1.2323 C   0  0  0  0  0  0  0  0  0  0  0  0
   -4.4200   -0.3822   -1.9450 H   0  0  0  0  0  0  0  0  0  0  0  0
   -3.5447    1.0777   -1.4054 H   0  0  0  0  0  0  0  0  0  0  0  0
   -5.3477    1.0796   -1.4582 H   0  0  0  0  0  0  0  0  0  0  0  0
   -5.7712   -0.8600    0.4911 C   0  0  0  0  0  0  0  0  0  0  0  0
   -5.7590   -1.2762    1.5172 H   0  0  0  0  0  0  0  0  0  0  0  0
   -5.8582   -1.7022   -0.2238 H   0  0  0  0  0  0  0  0  0  0  0  0
   -6.6709   -0.2239    0.3709 H   0  0  0  0  0  0  0  0  0  0  0  0
    2.3162   -0.0136   -0.9632 C   0  0  2  0  0  3  0  0  0  0  0  0
    4.2788    1.0806   -1.2402 C   0  0  0  0  0  0  0  0  0  0  0  0
    4.6442    2.0666   -0.8969 H   0  0  0  0  0  0  0  0  0  0  0  0
    4.7246    0.8358   -2.2282 H   0  0  0  0  0  0  0  0  0  0  0  0
    4.5020   -0.0558   -0.2154 C   0  0  0  0  0  0  0  0  0  0  0  0
    4.4527    0.4638    1.2318 C   0  0  0  0  0  0  0  0  0  0  0  0
    4.4201   -0.3835    1.9444 H   0  0  0  0  0  0  0  0  0  0  0  0
    3.5448    1.0765    1.4051 H   0  0  0  0  0  0  0  0  0  0  0  0
    5.3478    1.0782    1.4576 H   0  0  0  0  0  0  0  0  0  0  0  0
    5.7707   -0.8613   -0.4920 C   0  0  0  0  0  0  0  0  0  0  0  0
    5.8577   -1.7036    0.2228 H   0  0  0  0  0  0  0  0  0  0  0  0
    6.6705   -0.2253   -0.3719 H   0  0  0  0  0  0  0  0  0  0  0  0
    5.7583   -1.2773   -1.5181 H   0  0  0  0  0  0  0  0  0  0  0  0
  2 49  1  0  0  0  0
  2 48  1  0  0  0  0
  3 20  1  0  0  0  0
  4 35  1  0  0  0  0
  5  4  1  0  0  0  0
  7 52  1  0  0  0  0
  7  8  1  0  0  0  0
  9 10  1  0  0  0  0
  9 13  1  0  0  0  0
 11  9  1  0  0  0  0
 12  9  1  0  0  0  0
 13 14  1  0  0  0  0
 14 15  1  0  0  0  0
 14 16  2  0  0  0  0
 16 17  1  0  0  0  0
 18 16  1  0  0  0  0
 18 19  1  0  0  0  0
 20 18  2  0  0  0  0
 21 13  2  0  0  0  0
 21 20  1  0  0  0  0
 22 21  1  0  0  0  0
 23  6  1  0  0  0  0
 23 22  2  0  0  0  0
 24 23  1  0  0  0  0
 25 24  1  0  0  0  0
 26 24  2  0  0  0  0
 26 28  1  0  0  0  0
 27 26  1  0  0  0  0
 28 30  2  0  0  0  0
 29 28  1  0  0  0  0
 30 22  1  0  0  0  0
 30 31  1  0  0  0  0
 31 32  1  0  0  0  0
 31 33  1  0  0  0  0
 34 31  1  0  0  0  0
 35  3  1  6  0  0  0
 35  1  1  0  0  0  0
 36  1  1  0  0  0  0
 36 38  1  0  0  0  0
 37 36  1  0  0  0  0
 39 44  1  0  0  0  0
 39  4  1  0  0  0  0
 39 36  1  0  0  0  0
 40 39  1  0  0  0  0
 41 40  1  0  0  0  0
 42 40  1  0  0  0  0
 43 40  1  0  0  0  0
 44 45  1  0  0  0  0
 46 44  1  0  0  0  0
 47 44  1  0  0  0  0
 48  6  1  1  0  0  0
 48  7  1  0  0  0  0
 49 50  1  0  0  0  0
 49 52  1  0  0  0  0
 51 49  1  0  0  0  0
 52 53  1  0  0  0  0
 53 55  1  0  0  0  0
 53 56  1  0  0  0  0
 53 54  1  0  0  0  0
 57 59  1  0  0  0  0
 57 52  1  0  0  0  0
 57 58  1  0  0  0  0
 60 57  1  0  0  0  0
M  END
