1,3
q = -1.0, confidence = 0.032

 23 24  0  0  1  0  0  0  0  0999 V2000
    0.0411    0.4536    1.7550 N   0  0  0  0  0  2  0  0  0  0  0  0
   -0.9288    0.7649    2.6263 N   0  0  0  0  0  0  0  0  0  0  0  0
   -2.4162    0.9553   -0.0375 N   0  0  0  0  0  2  0  0  0  0  0  0
   -2.9143    1.3458    1.1456 N   0  0  0  0  0  0  0  0  0  0  0  0
    1.9429   -1.0535    1.7211 N   0  0  0  0  0  0  0  0  0  0  0  0
   -3.2962    0.2128   -2.1722 N   0  0  0  0  0  0  0  0  0  0  0  0
    2.4148   -0.4732    0.7363 O   0  0  0  0  0  0  0  0  0  0  0  0
    2.3913   -2.1068    2.1975 O   0  0  0  0  0  0  0  0  0  0  0  0
   -2.1425    0.1670   -2.6152 O   0  0  0  0  0  0  0  0  0  0  0  0
   -4.3152   -0.0919   -2.7975 O   0  0  0  0  0  0  0  0  0  0  0  0
    0.7862   -0.4885    2.3679 C   0  0  1  0  0  3  0  0  0  0  0  0
    0.2963   -0.8039    3.6542 C   0  0  0  0  0  0  0  0  0  0  0  0
    0.7102   -1.5196    4.3688 H   0  0  0  0  0  0  0  0  0  0  0  0
   -0.8078    0.0365    3.7776 C   0  0  0  0  0  0  0  0  0  0  0  0
   -1.5141    0.1836    4.6013 H   0  0  0  0  0  0  0  0  0  0  0  0
   -3.4801    0.6614   -0.8106 C   0  0  2  0  0  3  0  0  0  0  0  0
   -4.6960    0.8651   -0.1279 C   0  0  0  0  0  0  0  0  0  0  0  0
   -5.7060    0.7116   -0.5149 H   0  0  0  0  0  0  0  0  0  0  0  0
   -4.2792    1.3027    1.1283 C   0  0  0  0  0  0  0  0  0  0  0  0
   -4.8490    1.5969    2.0156 H   0  0  0  0  0  0  0  0  0  0  0  0
   -1.9903    1.8624    2.2962 B   0  0  0  0  0  0  0  0  0  0  0  0
   -2.6876    2.0318    3.2899 H   0  0  0  0  0  0  0  0  0  0  0  0
   -1.4055    2.8723    1.9164 H   0  0  0  0  0  0  0  0  0  0  0  0
  1 11  1  0  0  0  0
  1  2  1  0  0  0  0
  2 14  1  0  0  0  0
  3  4  1  0  0  0  0
  4 21  1  0  0  0  0
  5  8  2  0  0  0  0
  7  5  2  0  0  0  0
  9  6  2  0  0  0  0
 10  6  2  0  0  0  0
 11  5  1  1  0  0  0
 11 12  1  0  0  0  0
 12 14  2  0  0  0  0
 12 13  1  0  0  0  0
 14 15  1  0  0  0  0
 16  6  1  6  0  0  0
 16 17  1  0  0  0  0
 16  3  1  0  0  0  0
 17 19  2  0  0  0  0
 18 17  1  0  0  0  0
 19  4  1  0  0  0  0
 19 20  1  0  0  0  0
 21  2  1  0  0  0  0
 21 22  1  0  0  0  0
 23 21  1  0  0  0  0
M  END
