3,4
q = 0.0, confidence = 0.998

 22 23  0  0  1  0  0  0  0  0999 V2000
    0.5699   -3.2866   -0.5404 S   0  0  0  0  0  0  0  0  0  0  0  0
    1.9085   -2.0130    0.4361 S   0  0  0  0  0  0  0  0  0  0  0  0
    1.5792    0.0409   -1.2836 N   0  0  0  0  0  2  0  0  0  0  0  0
   -1.4167   -1.5195    0.2568 N   0  0  0  0  0  2  0  0  0  0  0  0
    2.4089   -0.9571   -0.9364 C   0  0  1  0  0  3  0  0  0  0  0  0
    3.6334   -1.1769   -1.5869 C   0  0  0  0  0  0  0  0  0  0  0  0
    4.2835   -2.0033   -1.2681 H   0  0  0  0  0  0  0  0  0  0  0  0
    3.9804   -0.3266   -2.6486 C   0  0  0  0  0  0  0  0  0  0  0  0
    4.9331   -0.4683   -3.1810 H   0  0  0  0  0  0  0  0  0  0  0  0
    3.0945    0.6915   -3.0278 C   0  0  0  0  0  0  0  0  0  0  0  0
    3.3256    1.3698   -3.8614 H   0  0  0  0  0  0  0  0  0  0  0  0
    1.8956    0.8425   -2.3146 C   0  0  0  0  0  0  0  0  0  0  0  0
    1.1536    1.6246   -2.5553 H   0  0  0  0  0  0  0  0  0  0  0  0
   -1.0807   -2.7814   -0.0463 C   0  0  1  0  0  3  0  0  0  0  0  0
   -2.0229   -3.8342   -0.0588 C   0  0  0  0  0  0  0  0  0  0  0  0
   -1.6976   -4.8596   -0.2882 H   0  0  0  0  0  0  0  0  0  0  0  0
   -3.3562   -3.5429    0.2403 C   0  0  0  0  0  0  0  0  0  0  0  0
   -4.1103   -4.3444    0.2356 H   0  0  0  0  0  0  0  0  0  0  0  0
   -3.7085   -2.2240    0.5657 C   0  0  0  0  0  0  0  0  0  0  0  0
   -4.7413   -1.9465    0.8174 H   0  0  0  0  0  0  0  0  0  0  0  0
   -2.7054   -1.2509    0.5647 C   0  0  0  0  0  0  0  0  0  0  0  0
   -2.9385   -0.1979    0.7928 H   0  0  0  0  0  0  0  0  0  0  0  0
  1  2  1  0  0  0  0
  3  5  1  0  0  0  0
  4 21  1  0  0  0  0
  5  2  1  1  0  0  0
  6  7  1  0  0  0  0
  6  5  1  0  0  0  0
  8  6  2  0  0  0  0
  9  8  1  0  0  0  0
 10  8  1  0  0  0  0
 10 12  2  0  0  0  0
 11 10  1  0  0  0  0
 12  3  1  0  0  0  0
 13 12  1  0  0  0  0
 14  1  1  6  0  0  0
 14  4  1  0  0  0  0
 15 14  1  0  0  0  0
 15 17  2  0  0  0  0
 16 15  1  0  0  0  0
 17 19  1  0  0  0  0
 18 17  1  0  0  0  0
 19 20  1  0  0  0  0
 21 19  2  0  0  0  0
 21 22  1  0  0  0  0
M  END
