1,2
q = -2.0, confidence = 0.88

 13 14  0  0  0  0  0  0  0  0999 V2000
   -0.5212    1.3373   -1.4385 N   0  0  0  0  0  0  0  0  0  0  0  0
    0.3994   -1.3788   -1.4093 N   0  0  0  0  0  0  0  0  0  0  0  0
   -1.4874    2.0780   -3.2806 N   0  0  0  0  0  0  0  0  0  0  0  0
    1.2596   -2.4208   -1.3451 N   0  0  0  0  0  2  0  0  0  0  0  0
   -0.7075    2.6760   -1.3270 N   0  0  0  0  0  2  0  0  0  0  0  0
   -1.0156    0.9913   -2.6501 C   0  0  0  0  0  0  0  0  0  0  0  0
    0.4552   -2.3681   -3.3803 N   0  0  0  0  0  0  0  0  0  0  0  0
   -1.2765    3.1063   -2.4300 N   0  0  0  0  0  0  0  0  0  0  0  0
    1.2825   -3.0067   -2.5226 N   0  0  0  0  0  0  0  0  0  0  0  0
   -0.0815   -1.3619   -2.6749 C   0  0  0  0  0  0  0  0  0  0  0  0
   -1.1070   -0.4034   -3.1906 C   0  0  0  0  0  0  0  0  0  0  0  0
   -1.0374   -0.3682   -4.2945 H   0  0  0  0  0  0  0  0  0  0  0  0
   -2.1227   -0.8072   -2.9680 H   0  0  0  0  0  0  0  0  0  0  0  0
  1  5  1  0  0  0  0
  2  4  1  0  0  0  0
  3  6  1  0  0  0  0
  3  8  2  0  0  0  0
  6  1  2  0  0  0  0
  7 10  1  0  0  0  0
  7  9  2  0  0  0  0
  8  5  1  0  0  0  0
  9  4  1  0  0  0  0
 10  2  2  0  0  0  0
 11 13  1  0  0  0  0
 11 10  1  0  0  0  0
 11  6  1  0  0  0  0
 12 11  1  0  0  0  0
M  END
