1,3
q = 0.0, confidence = 0.998

 47 49  0  0  1  0  0  0  0  0999 V2000
   -2.1718    0.9240    0.0620 N   0  0  0  0  0  2  0  0  0  0  0  0
   -3.2574    1.7579   -0.0087 N   0  0  1  0  0  0  0  0  0  0  0  0
   -4.5514   -0.1446   -0.3518 N   0  0  0  0  0  2  0  0  0  0  0  0
    4.2360   -0.1329    0.3709 O   0  0  0  0  0  0  0  0  0  0  0  0
   -2.8794    3.0662    0.1836 C   0  0  0  0  0  3  0  0  0  0  0  0
   -3.6024    3.8868    0.1544 H   0  0  0  0  0  0  0  0  0  0  0  0
   -1.5125    3.0699    0.3730 C   0  0  0  0  0  0  0  0  0  0  0  0
   -0.8699    3.9434    0.5186 H   0  0  0  0  0  0  0  0  0  0  0  0
   -1.0896    1.7058    0.2674 C   0  0  0  0  0  0  0  0  0  0  0  0
   -4.5179    1.2088   -0.2801 C   0  0  2  0  0  3  0  0  0  0  0  0
   -5.6613    2.0033   -0.4736 C   0  0  0  0  0  0  0  0  0  0  0  0
   -5.6057    3.0975   -0.4121 H   0  0  0  0  0  0  0  0  0  0  0  0
   -6.8699    1.3622   -0.7560 C   0  0  0  0  0  0  0  0  0  0  0  0
   -7.7805    1.9581   -0.9142 H   0  0  0  0  0  0  0  0  0  0  0  0
   -6.9077   -0.0401   -0.8414 C   0  0  0  0  0  0  0  0  0  0  0  0
   -7.8390   -0.5770   -1.0670 H   0  0  0  0  0  0  0  0  0  0  0  0
   -5.7270   -0.7534   -0.6316 C   0  0  0  0  0  0  0  0  0  0  0  0
   -5.7008   -1.8504   -0.6832 H   0  0  0  0  0  0  0  0  0  0  0  0
    0.2772    1.1912    0.2894 C   0  0  0  0  0  0  0  0  0  0  0  0
    0.6869    0.1764   -0.6032 C   0  0  0  0  0  0  0  0  0  0  0  0
   -0.0369   -0.2286   -1.3266 H   0  0  0  0  0  0  0  0  0  0  0  0
    2.0030   -0.2969   -0.6102 C   0  0  0  0  0  0  0  0  0  0  0  0
    2.2953   -1.0689   -1.3336 H   0  0  0  0  0  0  0  0  0  0  0  0
    2.9507    0.2476    0.2912 C   0  0  0  0  0  0  0  0  0  0  0  0
    2.5496    1.2775    1.1792 C   0  0  0  0  0  0  0  0  0  0  0  0
    3.3003    1.6892    1.8685 H   0  0  0  0  0  0  0  0  0  0  0  0
    1.2405    1.7463    1.1692 C   0  0  0  0  0  0  0  0  0  0  0  0
    0.9456    2.5393    1.8729 H   0  0  0  0  0  0  0  0  0  0  0  0
    4.7357   -1.1602   -0.5024 C   0  0  0  0  0  0  0  0  0  0  0  0
    4.5766   -0.8492   -1.5605 H   0  0  0  0  0  0  0  0  0  0  0  0
    4.1625   -2.0987   -0.3277 H   0  0  0  0  0  0  0  0  0  0  0  0
    6.2134   -1.3552   -0.2118 C   0  0  0  0  0  0  0  0  0  0  0  0
    6.3297   -1.6517    0.8532 H   0  0  0  0  0  0  0  0  0  0  0  0
    6.5579   -2.2242   -0.8133 H   0  0  0  0  0  0  0  0  0  0  0  0
    7.0764   -0.1274   -0.5153 C   0  0  0  0  0  0  0  0  0  0  0  0
    6.6895    0.7386    0.0641 H   0  0  0  0  0  0  0  0  0  0  0  0
    6.9587    0.1474   -1.5881 H   0  0  0  0  0  0  0  0  0  0  0  0
    8.5597   -0.3340   -0.2007 C   0  0  0  0  0  0  0  0  0  0  0  0
    8.6724   -0.6120    0.8718 H   0  0  0  0  0  0  0  0  0  0  0  0
    8.9425   -1.2073   -0.7762 H   0  0  0  0  0  0  0  0  0  0  0  0
    9.4292    0.8910   -0.5001 C   0  0  0  0  0  0  0  0  0  0  0  0
    9.0395    1.7612    0.0740 H   0  0  0  0  0  0  0  0  0  0  0  0
    9.3139    1.1654   -1.5724 H   0  0  0  0  0  0  0  0  0  0  0  0
   10.9086    0.6800   -0.1779 C   0  0  0  0  0  0  0  0  0  0  0  0
   11.0580    0.4408    0.8957 H   0  0  0  0  0  0  0  0  0  0  0  0
   11.5103    1.5824   -0.4054 H   0  0  0  0  0  0  0  0  0  0  0  0
   11.3335   -0.1611   -0.7645 H   0  0  0  0  0  0  0  0  0  0  0  0
  1  9  1  0  0  0  0
  2  1  1  6  0  0  0
  2  5  1  0  0  0  0
  3 10  1  0  0  0  0
  5  7  1  0  0  0  0
  6  5  1  0  0  0  0
  7  8  1  0  0  0  0
  9 19  1  0  0  0  0
  9  7  2  0  0  0  0
 10 11  1  6  0  0  0
 10  2  1  0  0  0  0
 11 12  1  0  0  0  0
 13 11  2  0  0  0  0
 14 13  1  0  0  0  0
 15 13  1  0  0  0  0
 15 17  2  0  0  0  0
 16 15  1  0  0  0  0
 17  3  1  0  0  0  0
 18 17  1  0  0  0  0
 19 27  1  0  0  0  0
 20 19  2  0  0  0  0
 21 20  1  0  0  0  0
 22 20  1  0  0  0  0
 22 24  2  0  0  0  0
 23 22  1  0  0  0  0
 24  4  1  0  0  0  0
 24 25  1  0  0  0  0
 25 26  1  0  0  0  0
 27 25  2  0  0  0  0
 27 28  1  0  0  0  0
 29 31  1  0  0  0  0
 29 32  1  0  0  0  0
 29  4  1  0  0  0  0
 30 29  1  0  0  0  0
 32 33  1  0  0  0  0
 34 32  1  0  0  0  0
 35 32  1  0  0  0  0
 35 38  1  0  0  0  0
 35 36  1  0  0  0  0
 37 35  1  0  0  0  0
 38 39  1  0  0  0  0
 40 38  1  0  0  0  0
 41 38  1  0  0  0  0
 41 44  1  0  0  0  0
 41 42  1  0  0  0  0
 43 41  1  0  0  0  0
 44 45  1  0  0  0  0
 46 44  1  0  0  0  0
 47 44  1  0  0  0  0
M  END
