2,3
q = 0.0, confidence = 1.0

 36 38  0  0  0  0  0  0  0  0999 V2000
   -2.9046    2.3350    1.6561 S   0  0  0  0  0  0  0  0  0  0  0  0
    1.6477    0.7210   -0.4209 N   0  0  0  0  0  2  0  0  0  0  0  0
   -1.0931    0.9448   -0.3689 N   0  0  0  0  0  0  0  0  0  0  0  0
   -1.0205    1.4134    0.5644 H   0  0  0  0  0  0  0  0  0  0  0  0
    1.1207    1.7704   -1.0659 C   0  0  0  0  0  0  0  0  0  0  0  0
    3.8422    1.8188   -0.5088 C   0  0  0  0  0  0  0  0  0  0  0  0
   -0.3570    1.7429   -1.3706 C   0  0  0  0  0  0  0  0  0  0  0  0
   -0.5143    1.2841   -2.3702 H   0  0  0  0  0  0  0  0  0  0  0  0
   -0.7519    2.7813   -1.4237 H   0  0  0  0  0  0  0  0  0  0  0  0
    1.8990    2.8803   -1.4873 C   0  0  0  0  0  0  0  0  0  0  0  0
    1.4076    3.7122   -2.0115 H   0  0  0  0  0  0  0  0  0  0  0  0
    3.5411   -0.2913    0.7248 C   0  0  0  0  0  0  0  0  0  0  0  0
    2.8763   -1.0707    1.1123 H   0  0  0  0  0  0  0  0  0  0  0  0
    2.9857    0.7410   -0.0782 C   0  0  0  0  0  0  0  0  0  0  0  0
   -2.5014    0.8045   -0.6433 C   0  0  0  0  0  0  0  0  0  0  0  0
   -2.9466    0.1052   -1.7803 C   0  0  0  0  0  0  0  0  0  0  0  0
   -2.2155   -0.3436   -2.4675 H   0  0  0  0  0  0  0  0  0  0  0  0
    3.2581    2.8890   -1.2371 C   0  0  0  0  0  0  0  0  0  0  0  0
    3.8908    3.7256   -1.5715 H   0  0  0  0  0  0  0  0  0  0  0  0
   -3.4462    1.3603    0.2543 C   0  0  0  0  0  0  0  0  0  0  0  0
    5.7454    0.7541    0.5848 C   0  0  0  0  0  0  0  0  0  0  0  0
    6.8143    0.7384    0.8440 H   0  0  0  0  0  0  0  0  0  0  0  0
    5.2262    1.7914   -0.1729 C   0  0  0  0  0  3  0  0  0  0  0  0
    5.8686    2.6153   -0.5197 H   0  0  0  0  0  0  0  0  0  0  0  0
   -4.8216    1.1859    0.0024 C   0  0  0  0  0  0  0  0  0  0  0  0
   -5.5429    1.6297    0.7047 H   0  0  0  0  0  0  0  0  0  0  0  0
   -5.2594    0.4775   -1.1228 C   0  0  0  0  0  0  0  0  0  0  0  0
   -6.3361    0.3468   -1.3064 H   0  0  0  0  0  0  0  0  0  0  0  0
    4.8909   -0.2823    1.0446 C   0  0  0  0  0  0  0  0  0  0  0  0
    5.2998   -1.0886    1.6715 H   0  0  0  0  0  0  0  0  0  0  0  0
   -4.3167   -0.0560   -2.0171 C   0  0  0  0  0  0  0  0  0  0  0  0
   -4.6484   -0.6150   -2.9047 H   0  0  0  0  0  0  0  0  0  0  0  0
   -2.9824    1.0910    2.9985 C   0  0  0  0  0  0  0  0  0  0  0  0
   -3.9912    0.6379    3.0388 H   0  0  0  0  0  0  0  0  0  0  0  0
   -2.7936    1.6511    3.9347 H   0  0  0  0  0  0  0  0  0  0  0  0
   -2.1895    0.3277    2.8668 H   0  0  0  0  0  0  0  0  0  0  0  0
  1 33  1  0  0  0  0
  2 14  1  0  0  0  0
  3  4  1  0  0  0  0
  5  2  1  0  0  0  0
  6 23  1  0  0  0  0
  6 14  1  0  0  0  0
  7  5  1  0  0  0  0
  7  3  1  0  0  0  0
  8  7  1  0  0  0  0
  9  7  1  0  0  0  0
 10 18  1  0  0  0  0
 10  5  2  0  0  0  0
 11 10  1  0  0  0  0
 12 29  1  0  0  0  0
 12 13  1  0  0  0  0
 14 12  2  0  0  0  0
 15  3  1  0  0  0  0
 15 20  1  0  0  0  0
 16 15  2  0  0  0  0
 17 16  1  0  0  0  0
 18  6  2  0  0  0  0
 19 18  1  0  0  0  0
 20  1  1  0  0  0  0
 21 22  1  0  0  0  0
 21 29  2  0  0  0  0
 23 21  1  0  0  0  0
 24 23  1  0  0  0  0
 25 20  2  0  0  0  0
 25 26  1  0  0  0  0
 27 25  1  0  0  0  0
 28 27  1  0  0  0  0
 29 30  1  0  0  0  0
 31 16  1  0  0  0  0
 31 27  2  0  0  0  0
 32 31  1  0  0  0  0
 33 34  1  0  0  0  0
 33 35  1  0  0  0  0
 36 33  1  0  0  0  0
M  END
