53,55
q = 0.0, confidence = 0.99

 64 67  0  0  1  0  0  0  0  0999 V2000
    0.9249    4.4510   -0.4136 C   0  0  0  0  0  3  0  0  0  0  0  0
    0.2011    5.2341   -0.1483 H   0  0  0  0  0  0  0  0  0  0  0  0
    2.1917    4.7622   -0.9081 C   0  0  0  0  0  0  0  0  0  0  0  0
    2.4895    5.8123   -1.0315 H   0  0  0  0  0  0  0  0  0  0  0  0
    3.0495    3.7064   -1.2589 C   0  0  0  0  0  0  0  0  0  0  0  0
    4.0438    3.9095   -1.6827 H   0  0  0  0  0  0  0  0  0  0  0  0
    2.6301    2.3848   -1.0865 C   0  0  0  0  0  0  0  0  0  0  0  0
    3.2679    1.5414   -1.3740 H   0  0  0  0  0  0  0  0  0  0  0  0
    1.3516    2.1566   -0.5458 C   0  0  0  0  0  0  0  0  0  0  0  0
    1.3975   -0.3883   -0.3321 C   0  0  2  0  0  3  0  0  0  0  0  0
    0.3396   -1.2930   -0.3238 C   0  0  0  0  0  0  0  0  0  0  0  0
    0.4312   -2.3832   -0.3165 H   0  0  0  0  0  0  0  0  0  0  0  0
   -0.8658   -0.5357   -0.3058 C   0  0  0  0  0  0  0  0  0  0  0  0
   -2.2418   -1.0283   -0.3325 C   0  0  0  0  0  0  0  0  0  0  0  0
   -2.5906   -2.2215    0.3361 C   0  0  0  0  0  0  0  0  0  0  0  0
   -1.8273   -2.7659    0.9124 H   0  0  0  0  0  0  0  0  0  0  0  0
   -3.9002   -2.7129    0.3112 C   0  0  0  0  0  0  0  0  0  0  0  0
   -4.1388   -3.6356    0.8551 H   0  0  0  0  0  0  0  0  0  0  0  0
   -4.8988   -2.0160   -0.4097 C   0  0  0  0  0  0  0  0  0  0  0  0
   -4.5512   -0.8295   -1.1033 C   0  0  0  0  0  0  0  0  0  0  0  0
   -5.3345   -0.3207   -1.6830 H   0  0  0  0  0  0  0  0  0  0  0  0
   -3.2473   -0.3471   -1.0638 C   0  0  0  0  0  0  0  0  0  0  0  0
   -2.9819    0.5582   -1.6291 H   0  0  0  0  0  0  0  0  0  0  0  0
   -6.6193   -3.6039    0.1491 C   0  0  0  0  0  0  0  0  0  0  0  0
   -6.4108   -3.5243    1.2412 H   0  0  0  0  0  0  0  0  0  0  0  0
   -6.0413   -4.4674   -0.2498 H   0  0  0  0  0  0  0  0  0  0  0  0
   -8.1070   -3.7728   -0.1063 C   0  0  0  0  0  0  0  0  0  0  0  0
   -8.2739   -3.8365   -1.2036 H   0  0  0  0  0  0  0  0  0  0  0  0
   -8.4062   -4.7594    0.3094 H   0  0  0  0  0  0  0  0  0  0  0  0
    2.8374   -0.6550   -0.2652 C   0  0  0  0  0  0  0  0  0  0  0  0
    3.6647   -0.0119    0.6921 C   0  0  0  0  0  0  0  0  0  0  0  0
    3.2307    0.7238    1.3862 H   0  0  0  0  0  0  0  0  0  0  0  0
    5.0178   -0.3190    0.7836 C   0  0  0  0  0  0  0  0  0  0  0  0
    5.6645    0.1633    1.5302 H   0  0  0  0  0  0  0  0  0  0  0  0
    5.5957   -1.2875   -0.0765 C   0  0  0  0  0  0  0  0  0  0  0  0
    4.7776   -1.9434   -1.0259 C   0  0  0  0  0  0  0  0  0  0  0  0
    5.1958   -2.6966   -1.7055 H   0  0  0  0  0  0  0  0  0  0  0  0
    3.4162   -1.6278   -1.1075 C   0  0  0  0  0  0  0  0  0  0  0  0
    2.7899   -2.1354   -1.8565 H   0  0  0  0  0  0  0  0  0  0  0  0
    7.5736   -2.4978   -0.7217 C   0  0  0  0  0  0  0  0  0  0  0  0
    7.4894   -2.2092   -1.7937 H   0  0  0  0  0  0  0  0  0  0  0  0
    7.0661   -3.4807   -0.5880 H   0  0  0  0  0  0  0  0  0  0  0  0
    9.0260   -2.5742   -0.2846 C   0  0  0  0  0  0  0  0  0  0  0  0
    9.5501   -3.2550   -0.9901 H   0  0  0  0  0  0  0  0  0  0  0  0
    9.4910   -1.5733   -0.4190 H   0  0  0  0  0  0  0  0  0  0  0  0
    9.2204   -3.0566    1.1567 C   0  0  0  0  0  0  0  0  0  0  0  0
    8.7595   -4.0636    1.2666 H   0  0  0  0  0  0  0  0  0  0  0  0
    8.6529   -2.3865    1.8370 H   0  0  0  0  0  0  0  0  0  0  0  0
   10.6887   -3.1080    1.5772 C   0  0  0  0  0  0  0  0  0  0  0  0
   11.2729   -3.7940    0.9292 H   0  0  0  0  0  0  0  0  0  0  0  0
   10.8003   -3.4601    2.6217 H   0  0  0  0  0  0  0  0  0  0  0  0
   11.1627   -2.1067    1.5099 H   0  0  0  0  0  0  0  0  0  0  0  0
   -0.5607    0.7795   -0.2895 N   0  0  0  0  0  2  0  0  0  0  0  0
    0.8126    0.8746   -0.3409 N   0  0  0  0  0  0  0  0  0  0  0  0
    0.5103    3.1761   -0.2339 N   0  0  0  0  0  2  0  0  0  0  0  0
   -6.1842   -2.4002   -0.5045 O   0  0  0  0  0  0  0  0  0  0  0  0
    6.9109   -1.5109    0.0873 O   0  0  0  0  0  0  0  0  0  0  0  0
   -8.9746   -2.6621    0.4947 C   0  0  0  0  0  0  0  0  0  0  0  0
   -8.6284   -1.6846    0.0965 H   0  0  0  0  0  0  0  0  0  0  0  0
   -8.8020   -2.6224    1.5937 H   0  0  0  0  0  0  0  0  0  0  0  0
  -10.4646   -2.8459    0.2087 C   0  0  0  0  0  0  0  0  0  0  0  0
  -10.6675   -2.8537   -0.8823 H   0  0  0  0  0  0  0  0  0  0  0  0
  -11.0682   -2.0306    0.6543 H   0  0  0  0  0  0  0  0  0  0  0  0
  -10.8418   -3.8047    0.6213 H   0  0  0  0  0  0  0  0  0  0  0  0
  1 55  1  0  0  0  0
  1  2  1  0  0  0  0
  3  1  1  0  0  0  0
  4  3  1  0  0  0  0
  5  7  1  0  0  0  0
  5  3  2  0  0  0  0
  6  5  1  0  0  0  0
  7  9  2  0  0  0  0
  8  7  1  0  0  0  0
  9 54  1  0  0  0  0
  9 55  1  0  0  0  0
 10 11  1  0  0  0  0
 10 30  1  1  0  0  0
 11 12  1  0  0  0  0
 11 13  2  0  0  0  0
 13 53  1  0  0  0  0
 14 13  1  0  0  0  0
 14 15  1  0  0  0  0
 15 16  1  0  0  0  0
 17 15  2  0  0  0  0
 17 18  1  0  0  0  0
 19 17  1  0  0  0  0
 20 22  1  0  0  0  0
 20 19  2  0  0  0  0
 21 20  1  0  0  0  0
 22 14  2  0  0  0  0
 23 22  1  0  0  0  0
 24 25  1  0  0  0  0
 26 24  1  0  0  0  0
 27 24  1  0  0  0  0
 27 29  1  0  0  0  0
 27 58  1  0  0  0  0
 28 27  1  0  0  0  0
 30 31  1  0  0  0  0
 31 33  2  0  0  0  0
 31 32  1  0  0  0  0
 33 34  1  0  0  0  0
 35 57  1  0  0  0  0
 35 33  1  0  0  0  0
 36 35  2  0  0  0  0
 37 36  1  0  0  0  0
 38 36  1  0  0  0  0
 38 30  2  0  0  0  0
 39 38  1  0  0  0  0
 40 42  1  0  0  0  0
 40 43  1  0  0  0  0
 40 57  1  0  0  0  0
 41 40  1  0  0  0  0
 43 46  1  0  0  0  0
 44 43  1  0  0  0  0
 45 43  1  0  0  0  0
 46 47  1  0  0  0  0
 46 49  1  0  0  0  0
 46 48  1  0  0  0  0
 49 51  1  0  0  0  0
 50 49  1  0  0  0  0
 52 49  1  0  0  0  0
 54 10  1  0  0  0  0
 54 53  1  0  0  0  0
 56 19  1  0  0  0  0
 56 24  1  0  0  0  0
 58 60  1  0  0  0  0
 59 58  1  0  0  0  0
 61 58  1  0  0  0  0
 61 64  1  0  0  0  0
 61 63  1  0  0  0  0
 62 61  1  0  0  0  0
M  END
