2,5
q = 0.0, confidence = 0.984

 43 44  0  0  1  0  0  0  0  0999 V2000
   -0.0001    3.1937    0.0001 S   0  0  0  0  0  0  0  0  0  0  0  0
   -2.0166   -0.9415   -0.0024 N   0  0  0  0  0  2  0  0  0  0  0  0
   -2.7209    0.1824   -0.2942 N   0  0  0  0  0  0  0  0  0  0  0  0
    2.7209    0.1825    0.2941 N   0  0  0  0  0  0  0  0  0  0  0  0
    2.0166   -0.9414    0.0023 N   0  0  0  0  0  2  0  0  0  0  0  0
   -2.8928   -1.8941    0.3688 C   0  0  2  0  0  3  0  0  0  0  0  0
   -4.1986   -1.3535    0.3055 C   0  0  0  0  0  0  0  0  0  0  0  0
   -5.1356   -1.8696    0.5366 H   0  0  0  0  0  0  0  0  0  0  0  0
   -4.0602   -0.0266   -0.1122 C   0  0  0  0  0  0  0  0  0  0  0  0
   -2.4275   -3.2503    0.7817 C   0  0  0  0  0  0  0  0  0  0  0  0
   -1.8272   -3.7224   -0.0224 H   0  0  0  0  0  0  0  0  0  0  0  0
   -3.2864   -3.9051    1.0166 H   0  0  0  0  0  0  0  0  0  0  0  0
   -1.7751   -3.1663    1.6752 H   0  0  0  0  0  0  0  0  0  0  0  0
   -5.0826    1.0331   -0.3553 C   0  0  0  0  0  0  0  0  0  0  0  0
   -6.0885    0.6395   -0.1220 H   0  0  0  0  0  0  0  0  0  0  0  0
   -5.0888    1.3698   -1.4130 H   0  0  0  0  0  0  0  0  0  0  0  0
   -4.9144    1.9278    0.2796 H   0  0  0  0  0  0  0  0  0  0  0  0
   -2.0280    1.4014   -0.6836 C   0  0  0  0  0  0  0  0  0  0  0  0
   -2.7575    2.0774   -1.1632 H   0  0  0  0  0  0  0  0  0  0  0  0
   -1.2913    1.1101   -1.4614 H   0  0  0  0  0  0  0  0  0  0  0  0
   -1.3555    2.0839    0.5146 C   0  0  0  0  0  0  0  0  0  0  0  0
   -0.9401    1.3455    1.2340 H   0  0  0  0  0  0  0  0  0  0  0  0
   -2.0299    2.7689    1.0668 H   0  0  0  0  0  0  0  0  0  0  0  0
   -0.4628    3.9181   -1.2089 O   0  0  0  0  0  0  0  0  0  0  0  0
    0.4626    3.9180    1.2092 O   0  0  0  0  0  0  0  0  0  0  0  0
    1.3553    2.0839   -0.5145 C   0  0  0  0  0  0  0  0  0  0  0  0
    0.9399    1.3455   -1.2339 H   0  0  0  0  0  0  0  0  0  0  0  0
    2.0296    2.7690   -1.0668 H   0  0  0  0  0  0  0  0  0  0  0  0
    2.0280    1.4015    0.6836 C   0  0  0  0  0  0  0  0  0  0  0  0
    2.7576    2.0775    1.1631 H   0  0  0  0  0  0  0  0  0  0  0  0
    1.2914    1.1101    1.4615 H   0  0  0  0  0  0  0  0  0  0  0  0
    4.0602   -0.0266    0.1123 C   0  0  2  0  0  3  0  0  0  0  0  0
    4.1987   -1.3534   -0.3054 C   0  0  0  0  0  0  0  0  0  0  0  0
    5.1357   -1.8696   -0.5364 H   0  0  0  0  0  0  0  0  0  0  0  0
    2.8928   -1.8940   -0.3688 C   0  0  0  0  0  0  0  0  0  0  0  0
    5.0826    1.0332    0.3553 C   0  0  0  0  0  0  0  0  0  0  0  0
    4.9145    1.9278   -0.2797 H   0  0  0  0  0  0  0  0  0  0  0  0
    6.0886    0.6395    0.1222 H   0  0  0  0  0  0  0  0  0  0  0  0
    5.0887    1.3701    1.4130 H   0  0  0  0  0  0  0  0  0  0  0  0
    2.4275   -3.2502   -0.7818 C   0  0  0  0  0  0  0  0  0  0  0  0
    1.8257   -3.7216    0.0215 H   0  0  0  0  0  0  0  0  0  0  0  0
    3.2865   -3.9055   -1.0150 H   0  0  0  0  0  0  0  0  0  0  0  0
    1.7766   -3.1664   -1.6764 H   0  0  0  0  0  0  0  0  0  0  0  0
  1 21  1  0  0  0  0
  1 25  2  0  0  0  0
  2  6  1  0  0  0  0
  3  9  1  0  0  0  0
  3  2  1  0  0  0  0
  4 29  1  0  0  0  0
  5  4  1  0  0  0  0
  6 10  1  1  0  0  0
  7  6  1  0  0  0  0
  7  8  1  0  0  0  0
  9  7  2  0  0  0  0
 10 12  1  0  0  0  0
 10 13  1  0  0  0  0
 11 10  1  0  0  0  0
 14 15  1  0  0  0  0
 14  9  1  0  0  0  0
 14 17  1  0  0  0  0
 16 14  1  0  0  0  0
 18  3  1  0  0  0  0
 18 21  1  0  0  0  0
 19 18  1  0  0  0  0
 20 18  1  0  0  0  0
 21 23  1  0  0  0  0
 21 22  1  0  0  0  0
 24  1  2  0  0  0  0
 26  1  1  0  0  0  0
 26 29  1  0  0  0  0
 27 26  1  0  0  0  0
 28 26  1  0  0  0  0
 29 30  1  0  0  0  0
 29 31  1  0  0  0  0
 32  4  1  0  0  0  0
 32 36  1  1  0  0  0
 33 32  1  0  0  0  0
 34 33  1  0  0  0  0
 35 33  2  0  0  0  0
 35  5  1  0  0  0  0
 36 39  1  0  0  0  0
 37 36  1  0  0  0  0
 38 36  1  0  0  0  0
 40 35  1  0  0  0  0
 40 41  1  0  0  0  0
 42 40  1  0  0  0  0
 43 40  1  0  0  0  0
M  END
