10,11
q = 0.0, confidence = 0.95

 46 50  0  0  1  0  0  0  0  0999 V2000
    5.9707    1.6935    0.0428 S   0  0  0  0  0  0  0  0  0  0  0  0
    6.9927   -0.9374    1.0241 S   0  0  0  0  0  0  0  0  0  0  0  0
    3.2939    0.2115   -1.1717 S   0  0  0  0  0  0  0  0  0  0  0  0
    4.2879   -2.4156   -0.1301 S   0  0  0  0  0  0  0  0  0  0  0  0
    0.5004    0.3526   -1.9832 N   0  0  0  0  0  0  0  0  0  0  0  0
   -0.0744   -1.9305   -1.6610 N   0  0  0  0  0  0  0  0  0  0  0  0
   -0.7648    0.6507   -2.1589 N   0  0  0  0  0  0  0  0  0  0  0  0
   -1.3383   -1.6294   -1.8130 N   0  0  0  0  0  0  0  0  0  0  0  0
   -2.9844    0.0437   -1.6913 N   0  0  0  0  0  0  0  0  0  0  0  0
   -2.8223    2.2784    0.1151 N   0  0  0  0  0  2  0  0  0  0  0  0
   -3.8013   -1.4151    0.6519 N   0  0  0  0  0  2  0  0  0  0  0  0
    7.3163    1.7089    1.1739 C   0  0  0  0  0  0  0  0  0  0  0  0
    7.7432    2.6856    1.4394 H   0  0  0  0  0  0  0  0  0  0  0  0
    7.7783    0.5181    1.6203 C   0  0  0  0  0  0  0  0  0  0  0  0
    8.6331    0.3903    2.2983 H   0  0  0  0  0  0  0  0  0  0  0  0
    5.6940   -0.0580    0.1845 C   0  0  0  0  0  0  0  0  0  0  0  0
    4.5756   -0.6677   -0.3088 C   0  0  0  0  0  0  0  0  0  0  0  0
    2.1488   -1.1416   -1.0791 C   0  0  0  0  0  0  0  0  0  0  0  0
    2.6219   -2.3329   -0.6159 C   0  0  0  0  0  0  0  0  0  0  0  0
    2.0009   -3.2373   -0.5599 H   0  0  0  0  0  0  0  0  0  0  0  0
    0.7948   -0.8938   -1.5263 C   0  0  0  0  0  0  0  0  0  0  0  0
   -1.6583   -0.3081   -1.8198 C   0  0  0  0  0  0  0  0  0  0  0  0
   -3.3543    1.3924   -2.1074 C   0  0  0  0  0  0  0  0  0  0  0  0
   -4.4623    1.4463   -2.0735 H   0  0  0  0  0  0  0  0  0  0  0  0
   -3.0349    1.5949   -3.1524 H   0  0  0  0  0  0  0  0  0  0  0  0
   -3.9687   -1.0302   -1.7644 C   0  0  0  0  0  0  0  0  0  0  0  0
   -3.8339   -1.6387   -2.6844 H   0  0  0  0  0  0  0  0  0  0  0  0
   -4.9668   -0.5479   -1.8200 H   0  0  0  0  0  0  0  0  0  0  0  0
   -2.8075    2.4885   -1.2153 C   0  0  1  0  0  3  0  0  0  0  0  0
   -2.3843    3.7130   -1.7562 C   0  0  0  0  0  0  0  0  0  0  0  0
   -2.3564    3.8436   -2.8475 H   0  0  0  0  0  0  0  0  0  0  0  0
   -1.9874    4.7393   -0.8920 C   0  0  0  0  0  0  0  0  0  0  0  0
   -1.6438    5.7036   -1.2958 H   0  0  0  0  0  0  0  0  0  0  0  0
   -2.0250    4.5153    0.4923 C   0  0  0  0  0  0  0  0  0  0  0  0
   -1.7244    5.2924    1.2090 H   0  0  0  0  0  0  0  0  0  0  0  0
   -2.4427    3.2650    0.9557 C   0  0  0  0  0  0  0  0  0  0  0  0
   -2.5020    3.0136    2.0288 H   0  0  0  0  0  0  0  0  0  0  0  0
   -3.9697   -1.9604   -0.5680 C   0  0  2  0  0  3  0  0  0  0  0  0
   -4.2291   -3.3313   -0.7253 C   0  0  0  0  0  0  0  0  0  0  0  0
   -4.3340   -3.7514   -1.7360 H   0  0  0  0  0  0  0  0  0  0  0  0
   -4.3340   -4.1405    0.4114 C   0  0  0  0  0  0  0  0  0  0  0  0
   -4.5299   -5.2186    0.3097 H   0  0  0  0  0  0  0  0  0  0  0  0
   -4.1767   -3.5575    1.6776 C   0  0  0  0  0  0  0  0  0  0  0  0
   -4.2533   -4.1527    2.5984 H   0  0  0  0  0  0  0  0  0  0  0  0
   -3.9028   -2.1894    1.7539 C   0  0  0  0  0  0  0  0  0  0  0  0
   -3.7681   -1.6577    2.7120 H   0  0  0  0  0  0  0  0  0  0  0  0
  1 16  1  0  0  0  0
  1 12  1  0  0  0  0
  2 14  1  0  0  0  0
  3 18  1  0  0  0  0
  3 17  1  0  0  0  0
  5 21  1  0  0  0  0
  6 21  2  0  0  0  0
  7  5  2  0  0  0  0
  7 22  1  0  0  0  0
  8  6  1  0  0  0  0
 10 36  1  0  0  0  0
 11 45  1  0  0  0  0
 12 13  1  0  0  0  0
 12 14  2  0  0  0  0
 14 15  1  0  0  0  0
 16  2  1  0  0  0  0
 17  4  1  0  0  0  0
 17 16  2  0  0  0  0
 18 19  2  0  0  0  0
 19 20  1  0  0  0  0
 19  4  1  0  0  0  0
 21 18  1  0  0  0  0
 22  8  2  0  0  0  0
 22  9  1  0  0  0  0
 23 24  1  0  0  0  0
 23  9  1  0  0  0  0
 25 23  1  0  0  0  0
 26  9  1  0  0  0  0
 27 26  1  0  0  0  0
 28 26  1  0  0  0  0
 29 23  1  1  0  0  0
 29 10  1  0  0  0  0
 30 29  1  0  0  0  0
 30 32  2  0  0  0  0
 31 30  1  0  0  0  0
 32 34  1  0  0  0  0
 33 32  1  0  0  0  0
 34 36  2  0  0  0  0
 34 35  1  0  0  0  0
 36 37  1  0  0  0  0
 38 26  1  1  0  0  0
 38 11  1  0  0  0  0
 39 38  1  0  0  0  0
 39 41  2  0  0  0  0
 40 39  1  0  0  0  0
 41 43  1  0  0  0  0
 42 41  1  0  0  0  0
 43 45  2  0  0  0  0
 43 44  1  0  0  0  0
 45 46  1  0  0  0  0
M  END
