1,17
q = 0.0, confidence = 0.996

 42 43  0  0  1  0  0  0  0  0999 V2000
   -1.7053    0.9058    0.2654 N   0  0  0  0  0  2  0  0  0  0  0  0
   -1.7771    2.2215    0.4585 C   0  0  0  0  0  3  0  0  0  0  0  0
   -3.3117    4.1741    0.4792 C   0  0  0  0  0  0  0  0  0  0  0  0
   -2.9582    4.2475    1.5229 H   0  0  0  0  0  0  0  0  0  0  0  0
   -4.4155    4.0327    0.4963 H   0  0  0  0  0  0  0  0  0  0  0  0
   -3.1006    5.1347   -0.0388 H   0  0  0  0  0  0  0  0  0  0  0  0
   -2.6817    3.0412   -0.1833 N   0  0  0  0  0  0  0  0  0  0  0  0
   -3.2317    2.6725   -1.4766 C   0  0  0  0  0  0  0  0  0  0  0  0
   -2.5750    1.9283   -1.9637 H   0  0  0  0  0  0  0  0  0  0  0  0
   -3.2892    3.5752   -2.1203 H   0  0  0  0  0  0  0  0  0  0  0  0
   -4.2509    2.2328   -1.3958 H   0  0  0  0  0  0  0  0  0  0  0  0
   -0.8592    2.8188    1.2828 N   0  0  0  0  0  0  0  0  0  0  0  0
   -0.2813    4.1252    0.9925 C   0  0  0  0  0  0  0  0  0  0  0  0
   -0.4716    4.8542    1.8088 H   0  0  0  0  0  0  0  0  0  0  0  0
   -0.6985    4.5244    0.0518 H   0  0  0  0  0  0  0  0  0  0  0  0
    0.8183    4.0278    0.8634 H   0  0  0  0  0  0  0  0  0  0  0  0
   -1.3188   -1.2649   -1.2760 N   0  0  0  0  0  2  0  0  0  0  0  0
   -0.1279    2.0042    2.2408 C   0  0  0  0  0  0  0  0  0  0  0  0
    0.7852    1.5566    1.7885 H   0  0  0  0  0  0  0  0  0  0  0  0
   -0.7706    1.1798    2.5967 H   0  0  0  0  0  0  0  0  0  0  0  0
    0.1690    2.6347    3.1025 H   0  0  0  0  0  0  0  0  0  0  0  0
   -1.0746   -2.3536   -2.0148 C   0  0  0  0  0  0  0  0  0  0  0  0
   -0.0482   -2.4661   -2.4001 H   0  0  0  0  0  0  0  0  0  0  0  0
   -2.0638   -3.3243   -2.2992 C   0  0  0  0  0  0  0  0  0  0  0  0
   -1.8044   -4.1977   -2.9147 H   0  0  0  0  0  0  0  0  0  0  0  0
   -3.3478   -3.1513   -1.8011 C   0  0  0  0  0  0  0  0  0  0  0  0
   -4.1394   -3.8877   -2.0082 H   0  0  0  0  0  0  0  0  0  0  0  0
   -3.6517   -2.0022   -1.0135 C   0  0  0  0  0  0  0  0  0  0  0  0
   -4.9390   -1.7384   -0.4704 C   0  0  0  0  0  0  0  0  0  0  0  0
   -5.7557   -2.4508   -0.6634 H   0  0  0  0  0  0  0  0  0  0  0  0
   -5.1694   -0.5971    0.2978 C   0  0  0  0  0  0  0  0  0  0  0  0
   -4.1010    0.3109    0.5386 C   0  0  0  0  0  0  0  0  0  0  0  0
   -4.2873    1.1966    1.1661 H   0  0  0  0  0  0  0  0  0  0  0  0
   -2.8160    0.1062    0.0204 C   0  0  0  0  0  0  0  0  0  0  0  0
   -2.5832   -1.0755   -0.7715 C   0  0  2  0  0  3  0  0  0  0  0  0
   -6.5173   -0.3400    0.9328 C   0  0  0  0  0  0  0  0  0  0  0  0
   -7.2980   -0.8964    0.3750 H   0  0  0  0  0  0  0  0  0  0  0  0
   -6.7689    0.7377    0.8334 H   0  0  0  0  0  0  0  0  0  0  0  0
   -6.5578   -0.7387    2.4163 C   0  0  0  0  0  0  0  0  0  0  0  0
   -5.8019   -0.1800    3.0053 H   0  0  0  0  0  0  0  0  0  0  0  0
   -6.3462   -1.8194    2.5430 H   0  0  0  0  0  0  0  0  0  0  0  0
   -7.5528   -0.5303    2.8571 H   0  0  0  0  0  0  0  0  0  0  0  0
  1  2  1  0  0  0  0
  2 12  1  0  0  0  0
  3  5  1  0  0  0  0
  3  4  1  0  0  0  0
  6  3  1  0  0  0  0
  7  2  1  0  0  0  0
  7  3  1  0  0  0  0
  8 11  1  0  0  0  0
  8  7  1  0  0  0  0
  9  8  1  0  0  0  0
 10  8  1  0  0  0  0
 12 18  1  0  0  0  0
 13 12  1  0  0  0  0
 13 14  1  0  0  0  0
 15 13  1  0  0  0  0
 16 13  1  0  0  0  0
 18 20  1  0  0  0  0
 18 21  1  0  0  0  0
 19 18  1  0  0  0  0
 22 17  1  0  0  0  0
 23 22  1  0  0  0  0
 24 22  2  0  0  0  0
 24 26  1  0  0  0  0
 25 24  1  0  0  0  0
 26 28  2  0  0  0  0
 27 26  1  0  0  0  0
 28 35  1  0  0  0  0
 28 29  1  0  0  0  0
 29 31  2  0  0  0  0
 30 29  1  0  0  0  0
 31 32  1  0  0  0  0
 31 36  1  0  0  0  0
 32 33  1  0  0  0  0
 34  1  1  0  0  0  0
 34 32  2  0  0  0  0
 35 17  1  6  0  0  0
 35 34  1  0  0  0  0
 36 39  1  0  0  0  0
 37 36  1  0  0  0  0
 38 36  1  0  0  0  0
 39 41  1  0  0  0  0
 39 42  1  0  0  0  0
 39 40  1  0  0  0  0
M  END
