1,18
q = 0.0, confidence = 1.0

 31 33  0  0  1  0  0  0  0  0999 V2000
   -1.2512   -1.0653    0.1103 N   0  0  0  0  0  2  0  0  0  0  0  0
   -1.8266   -2.1071   -0.4919 C   0  0  0  0  0  0  0  0  0  0  0  0
   -3.1401   -2.0534   -1.0165 C   0  0  0  0  0  0  0  0  0  0  0  0
   -3.8161   -0.8442   -1.0036 C   0  0  0  0  0  0  0  0  0  0  0  0
   -3.7889    1.6021   -0.4704 C   0  0  0  0  0  3  0  0  0  0  0  0
   -3.1029    2.6787    0.0781 C   0  0  0  0  0  0  0  0  0  0  0  0
   -1.8850    2.4952    0.7720 C   0  0  0  0  0  0  0  0  0  0  0  0
   -1.3179    1.2216    0.9228 C   0  0  0  0  0  0  0  0  0  0  0  0
   -3.2116    0.3035   -0.4163 C   0  0  0  0  0  0  0  0  0  0  0  0
   -1.9323    0.1196    0.2199 C   0  0  0  0  0  0  0  0  0  0  0  0
   -0.2024    0.9853    1.7011 N   0  0  0  0  0  0  0  0  0  0  0  0
    1.0039    1.7726    1.6287 C   0  0  0  0  0  0  0  0  0  0  0  0
    1.6164    1.7828    0.2355 C   0  0  1  0  0  3  0  0  0  0  0  0
    2.1764    2.9427   -0.3225 C   0  0  0  0  0  0  0  0  0  0  0  0
    2.7314    2.8925   -1.6083 C   0  0  0  0  0  0  0  0  0  0  0  0
    2.7075    1.6796   -2.3097 C   0  0  0  0  0  0  0  0  0  0  0  0
    2.1331    0.5620   -1.6935 C   0  0  0  0  0  0  0  0  0  0  0  0
    1.6029    0.6173   -0.4544 N   0  0  0  0  0  2  0  0  0  0  0  0
   -1.1919   -3.0001   -0.6192 H   0  0  0  0  0  0  0  0  0  0  0  0
   -3.5783   -2.9528   -1.4716 H   0  0  0  0  0  0  0  0  0  0  0  0
   -4.8128   -0.7472   -1.4623 H   0  0  0  0  0  0  0  0  0  0  0  0
   -4.7623    1.7377   -0.9643 H   0  0  0  0  0  0  0  0  0  0  0  0
   -3.5287    3.6913    0.0107 H   0  0  0  0  0  0  0  0  0  0  0  0
   -1.4001    3.3562    1.2544 H   0  0  0  0  0  0  0  0  0  0  0  0
    0.8647    2.8183    1.9783 H   0  0  0  0  0  0  0  0  0  0  0  0
    1.7262    1.2824    2.3178 H   0  0  0  0  0  0  0  0  0  0  0  0
   -0.0377    0.0262    2.0527 H   0  0  0  0  0  0  0  0  0  0  0  0
    2.1670    3.8787    0.2557 H   0  0  0  0  0  0  0  0  0  0  0  0
    3.1704    3.7949   -2.0606 H   0  0  0  0  0  0  0  0  0  0  0  0
    3.1244    1.5919   -3.3229 H   0  0  0  0  0  0  0  0  0  0  0  0
    2.0817   -0.4312   -2.1766 H   0  0  0  0  0  0  0  0  0  0  0  0
  1 10  1  0  0  0  0
  2  1  1  0  0  0  0
  3  4  1  0  0  0  0
  3  2  2  0  0  0  0
  4  9  2  0  0  0  0
  5  9  1  0  0  0  0
  5  6  1  0  0  0  0
  6  7  2  0  0  0  0
  7  8  1  0  0  0  0
  7 24  1  0  0  0  0
  8 11  1  0  0  0  0
  9 10  1  0  0  0  0
 10  8  2  0  0  0  0
 11 27  1  0  0  0  0
 12 11  1  0  0  0  0
 12 25  1  0  0  0  0
 12 26  1  0  0  0  0
 13 12  1  1  0  0  0
 14 13  1  0  0  0  0
 14 28  1  0  0  0  0
 15 14  2  0  0  0  0
 16 17  2  0  0  0  0
 16 15  1  0  0  0  0
 17 18  1  0  0  0  0
 18 13  1  0  0  0  0
 19  2  1  0  0  0  0
 20  3  1  0  0  0  0
 21  4  1  0  0  0  0
 22  5  1  0  0  0  0
 23  6  1  0  0  0  0
 29 15  1  0  0  0  0
 30 16  1  0  0  0  0
 31 17  1  0  0  0  0
M  END
