1,12
q = 0.0, confidence = 0.996

 20 21  0  0  1  0  0  0  0  0999 V2000
   -0.4984    0.0633    1.9183 N   0  0  0  0  0  2  0  0  0  0  0  0
   -1.7975   -0.1008    2.2675 C   0  0  1  0  0  3  0  0  0  0  0  0
   -2.2260   -0.5332    3.4687 N   0  0  0  0  0  0  0  0  0  0  0  0
   -1.3022   -0.7665    4.3995 C   0  0  0  0  0  0  0  0  0  0  0  0
   -1.6671   -1.1348    5.3742 H   0  0  0  0  0  0  0  0  0  0  0  0
    0.0734   -0.5583    4.1682 C   0  0  0  0  0  0  0  0  0  0  0  0
    0.8288   -0.7300    4.9461 H   0  0  0  0  0  0  0  0  0  0  0  0
    0.4236   -0.1548    2.8831 C   0  0  0  0  0  0  0  0  0  0  0  0
    1.4743   -0.0110    2.5835 H   0  0  0  0  0  0  0  0  0  0  0  0
   -2.8144    0.1838    1.3841 N   0  0  0  0  0  0  0  0  0  0  0  0
   -3.7449   -0.0571    1.7441 H   0  0  0  0  0  0  0  0  0  0  0  0
   -1.7261    1.2049   -0.4739 N   0  0  0  0  0  2  0  0  0  0  0  0
   -2.8586    0.8028    0.1508 C   0  0  2  0  0  3  0  0  0  0  0  0
   -4.1071    0.9771   -0.3150 N   0  0  0  0  0  0  0  0  0  0  0  0
   -4.2441    1.6280   -1.4689 C   0  0  0  0  0  0  0  0  0  0  0  0
   -5.2726    1.7387   -1.8538 H   0  0  0  0  0  0  0  0  0  0  0  0
   -3.1417    2.1580   -2.1689 C   0  0  0  0  0  0  0  0  0  0  0  0
   -3.2591    2.7152   -3.1074 H   0  0  0  0  0  0  0  0  0  0  0  0
   -1.8878    1.8984   -1.6269 C   0  0  0  0  0  0  0  0  0  0  0  0
   -0.9621    2.2213   -2.1298 H   0  0  0  0  0  0  0  0  0  0  0  0
  1  2  1  0  0  0  0
  1  8  1  0  0  0  0
  2 10  1  1  0  0  0
  2  3  1  0  0  0  0
  3  4  2  0  0  0  0
  4  5  1  0  0  0  0
  6  4  1  0  0  0  0
  6  7  1  0  0  0  0
  8  6  2  0  0  0  0
  9  8  1  0  0  0  0
 10 11  1  0  0  0  0
 12 13  1  0  0  0  0
 13 10  1  1  0  0  0
 14 13  1  0  0  0  0
 15 14  2  0  0  0  0
 16 15  1  0  0  0  0
 17 19  2  0  0  0  0
 17 15  1  0  0  0  0
 18 17  1  0  0  0  0
 19 12  1  0  0  0  0
 20 19  1  0  0  0  0
M  END
