1,2
q = 0.0, confidence = 0.986

 36 38  0  0  0  0  0  0  0  0999 V2000
    1.9676    2.4614    0.0000 N   0  0  0  0  0  2  0  0  0  0  0  0
   -0.5620    1.5845   -0.0000 N   0  0  0  0  0  2  0  0  0  0  0  0
    3.6040    4.2257    0.0002 C   0  0  0  0  0  0  0  0  0  0  0  0
    4.6687    4.4987    0.0002 H   0  0  0  0  0  0  0  0  0  0  0  0
    3.2492    2.8614    0.0001 C   0  0  0  0  0  0  0  0  0  0  0  0
    3.9946    2.0494    0.0000 H   0  0  0  0  0  0  0  0  0  0  0  0
   -0.3758    2.9439    0.0001 C   0  0  0  0  0  0  0  0  0  0  0  0
   -1.8029    1.0941   -0.0000 C   0  0  0  0  0  0  0  0  0  0  0  0
   -1.8813   -0.0040   -0.0001 H   0  0  0  0  0  0  0  0  0  0  0  0
    0.9760    3.4120    0.0001 C   0  0  0  0  0  0  0  0  0  0  0  0
    1.2490    4.8104    0.0003 C   0  0  0  0  0  0  0  0  0  0  0  0
    2.6112    5.2048    0.0003 C   0  0  0  0  0  0  0  0  0  0  0  0
    2.8699    6.2744    0.0004 H   0  0  0  0  0  0  0  0  0  0  0  0
   -6.9177   -0.2492   -0.0001 Si  0  0  0  0  0  0  0  0  0  0  0  0
   -1.1648    5.2691    0.0003 C   0  0  0  0  0  0  0  0  0  0  0  0
   -2.0022    5.9829    0.0004 H   0  0  0  0  0  0  0  0  0  0  0  0
   -2.9586    1.9284    0.0000 C   0  0  0  0  0  0  0  0  0  0  0  0
   -1.4662    3.8601    0.0002 C   0  0  0  0  0  0  0  0  0  0  0  0
   -2.7764    3.3252    0.0002 C   0  0  0  0  0  0  0  0  0  0  0  0
   -3.6486    3.9946    0.0002 H   0  0  0  0  0  0  0  0  0  0  0  0
    0.1350    5.7226    0.0003 C   0  0  0  0  0  0  0  0  0  0  0  0
    0.3452    6.8028    0.0004 H   0  0  0  0  0  0  0  0  0  0  0  0
   -4.2362    1.3015   -0.0000 C   0  0  0  0  0  0  0  0  0  0  0  0
   -5.3079    0.6858   -0.0000 C   0  0  0  0  0  0  0  0  0  0  0  0
   -8.3092    1.0294   -0.0002 C   0  0  0  0  0  0  0  0  0  0  0  0
   -8.2565    1.6779    0.8974 H   0  0  0  0  0  0  0  0  0  0  0  0
   -9.2960    0.5217    0.0001 H   0  0  0  0  0  0  0  0  0  0  0  0
   -8.2567    1.6775   -0.8981 H   0  0  0  0  0  0  0  0  0  0  0  0
   -6.9697   -1.3207   -1.5516 C   0  0  0  0  0  0  0  0  0  0  0  0
   -6.8034   -0.7217   -2.4688 H   0  0  0  0  0  0  0  0  0  0  0  0
   -7.9601   -1.8147   -1.6346 H   0  0  0  0  0  0  0  0  0  0  0  0
   -6.1973   -2.1131   -1.4949 H   0  0  0  0  0  0  0  0  0  0  0  0
   -6.9697   -1.3203    1.5517 C   0  0  0  0  0  0  0  0  0  0  0  0
   -6.1970   -2.1125    1.4954 H   0  0  0  0  0  0  0  0  0  0  0  0
   -7.9599   -1.8147    1.6347 H   0  0  0  0  0  0  0  0  0  0  0  0
   -6.8038   -0.7210    2.4688 H   0  0  0  0  0  0  0  0  0  0  0  0
  1  5  1  0  0  0  0
  1 10  1  0  0  0  0
  2  7  1  0  0  0  0
  3  4  1  0  0  0  0
  3 12  1  0  0  0  0
  5  3  2  0  0  0  0
  6  5  1  0  0  0  0
  7 10  2  0  0  0  0
  7 18  1  0  0  0  0
  8  2  1  0  0  0  0
  8 17  2  0  0  0  0
  9  8  1  0  0  0  0
 10 11  1  0  0  0  0
 11 12  2  0  0  0  0
 11 21  1  0  0  0  0
 12 13  1  0  0  0  0
 14 24  1  0  0  0  0
 14 33  1  0  0  0  0
 15 21  2  0  0  0  0
 15 16  1  0  0  0  0
 17 19  1  0  0  0  0
 18 15  1  0  0  0  0
 19 18  2  0  0  0  0
 19 20  1  0  0  0  0
 21 22  1  0  0  0  0
 23 17  1  0  0  0  0
 24 23  3  0  0  0  0
 25 14  1  0  0  0  0
 25 27  1  0  0  0  0
 25 26  1  0  0  0  0
 28 25  1  0  0  0  0
 29 32  1  0  0  0  0
 29 14  1  0  0  0  0
 30 29  1  0  0  0  0
 31 29  1  0  0  0  0
 33 35  1  0  0  0  0
 33 36  1  0  0  0  0
 34 33  1  0  0  0  0
M  END
