3,4
q = 0.0, confidence = 0.998

 20 21  0  0  1  0  0  0  0  0999 V2000
   -3.9485   -1.0735    0.1643 F   0  0  0  0  0  0  0  0  0  0  0  0
   -3.8654    1.1912   -0.7385 F   0  0  0  0  0  0  0  0  0  0  0  0
   -0.3674   -1.2833   -0.2291 N   0  0  0  0  0  2  0  0  0  0  0  0
   -0.3658    1.2854    0.1265 N   0  0  0  0  0  2  0  0  0  0  0  0
   -0.2132   -2.6222   -0.2258 C   0  0  0  0  0  3  0  0  0  0  0  0
    0.8178   -2.9967   -0.2291 H   0  0  0  0  0  0  0  0  0  0  0  0
   -1.3041   -3.4950   -0.1819 C   0  0  0  0  0  0  0  0  0  0  0  0
   -1.1369   -4.5807   -0.1935 H   0  0  0  0  0  0  0  0  0  0  0  0
   -2.5902   -2.9612   -0.0775 C   0  0  0  0  0  0  0  0  0  0  0  0
   -3.4869   -3.5910    0.0129 H   0  0  0  0  0  0  0  0  0  0  0  0
   -2.7372   -1.5710   -0.0441 C   0  0  0  0  0  0  0  0  0  0  0  0
   -1.6142   -0.7164   -0.1732 C   0  0  0  0  0  0  0  0  0  0  0  0
   -1.6029    0.7496   -0.1221 C   0  0  2  0  0  3  0  0  0  0  0  0
   -2.6946    1.6357   -0.3020 C   0  0  0  0  0  0  0  0  0  0  0  0
   -2.5512    3.0058   -0.0608 C   0  0  0  0  0  0  0  0  0  0  0  0
   -3.4250    3.6610   -0.1872 H   0  0  0  0  0  0  0  0  0  0  0  0
   -1.2982    3.4891    0.3250 C   0  0  0  0  0  0  0  0  0  0  0  0
   -1.1428    4.5532    0.5503 H   0  0  0  0  0  0  0  0  0  0  0  0
   -0.2205    2.6006    0.3847 C   0  0  0  0  0  0  0  0  0  0  0  0
    0.7894    2.9383    0.6488 H   0  0  0  0  0  0  0  0  0  0  0  0
  2 14  1  0  0  0  0
  3  5  1  0  0  0  0
  3 12  1  0  0  0  0
  4 19  1  0  0  0  0
  5  7  1  0  0  0  0
  6  5  1  0  0  0  0
  7  9  2  0  0  0  0
  8  7  1  0  0  0  0
  9 11  1  0  0  0  0
  9 10  1  0  0  0  0
 11  1  1  0  0  0  0
 12 11  2  0  0  0  0
 13 12  1  6  0  0  0
 13  4  1  0  0  0  0
 14 13  1  0  0  0  0
 14 15  2  0  0  0  0
 15 17  1  0  0  0  0
 16 15  1  0  0  0  0
 17 19  2  0  0  0  0
 17 18  1  0  0  0  0
 19 20  1  0  0  0  0
M  END
