3,4
q = 0.0, confidence = 0.998

 20 21  0  0  1  0  0  0  0  0999 V2000
    0.5419    3.1707    0.0709 F   0  0  0  0  0  0  0  0  0  0  0  0
    0.5390   -3.1712    0.0710 F   0  0  0  0  0  0  0  0  0  0  0  0
   -0.7378    1.3067   -0.1647 N   0  0  0  0  0  2  0  0  0  0  0  0
   -0.7390   -1.3060   -0.1646 N   0  0  0  0  0  2  0  0  0  0  0  0
   -0.6685    2.6420   -0.0590 C   0  0  2  0  0  3  0  0  0  0  0  0
   -1.7767    3.4932   -0.0793 C   0  0  0  0  0  0  0  0  0  0  0  0
   -1.6205    4.5768    0.0077 H   0  0  0  0  0  0  0  0  0  0  0  0
   -3.0413    2.9114   -0.2070 C   0  0  0  0  0  0  0  0  0  0  0  0
   -3.9425    3.5405   -0.2315 H   0  0  0  0  0  0  0  0  0  0  0  0
   -3.1441    1.5174   -0.2880 C   0  0  0  0  0  0  0  0  0  0  0  0
   -4.1288    1.0404   -0.3642 H   0  0  0  0  0  0  0  0  0  0  0  0
   -1.9810    0.7337   -0.2498 C   0  0  0  0  0  0  0  0  0  0  0  0
   -1.9817   -0.7320   -0.2497 C   0  0  2  0  0  3  0  0  0  0  0  0
   -3.1455   -1.5146   -0.2880 C   0  0  0  0  0  0  0  0  0  0  0  0
   -4.1297   -1.0367   -0.3642 H   0  0  0  0  0  0  0  0  0  0  0  0
   -3.0440   -2.9087   -0.2069 C   0  0  0  0  0  0  0  0  0  0  0  0
   -3.9457   -3.5369   -0.2314 H   0  0  0  0  0  0  0  0  0  0  0  0
   -1.7799   -3.4916   -0.0792 C   0  0  0  0  0  0  0  0  0  0  0  0
   -1.6248   -4.5753    0.0078 H   0  0  0  0  0  0  0  0  0  0  0  0
   -0.6709   -2.6415   -0.0589 C   0  0  0  0  0  0  0  0  0  0  0  0
  3  5  1  0  0  0  0
  4 20  1  0  0  0  0
  5  1  1  6  0  0  0
  6  5  1  0  0  0  0
  6  7  1  0  0  0  0
  8  6  2  0  0  0  0
  9  8  1  0  0  0  0
 10 12  2  0  0  0  0
 10  8  1  0  0  0  0
 11 10  1  0  0  0  0
 12  3  1  0  0  0  0
 13 12  1  1  0  0  0
 13  4  1  0  0  0  0
 14 13  1  0  0  0  0
 14 16  2  0  0  0  0
 15 14  1  0  0  0  0
 16 18  1  0  0  0  0
 17 16  1  0  0  0  0
 18 20  2  0  0  0  0
 18 19  1  0  0  0  0
 20  2  1  0  0  0  0
M  END
