1,3
q = 0.0, confidence = 0.996

 31 34  0  0  1  0  0  0  0  0999 V2000
    0.2832    0.9317   -0.1223 N   0  0  0  0  0  2  0  0  0  0  0  0
    1.5674    3.3146    0.7120 N   0  0  0  0  0  0  0  0  0  0  0  0
   -2.1811    0.7989   -0.8566 N   0  0  0  0  0  2  0  0  0  0  0  0
   -0.3735    2.1086   -0.0671 C   0  0  0  0  0  0  0  0  0  0  0  0
    0.2991    3.2959    0.3740 C   0  0  0  0  0  0  0  0  0  0  0  0
   -0.2676    4.2379    0.4684 H   0  0  0  0  0  0  0  0  0  0  0  0
    2.2868    2.1648    0.5257 C   0  0  0  0  0  0  0  0  0  0  0  0
    1.6552    0.9399    0.0484 C   0  0  2  0  0  3  0  0  0  0  0  0
    2.4458   -0.1742   -0.2655 C   0  0  0  0  0  0  0  0  0  0  0  0
    1.9697   -1.0421   -0.7384 H   0  0  0  0  0  0  0  0  0  0  0  0
    3.8408   -0.1506   -0.0611 C   0  0  0  0  0  0  0  0  0  0  0  0
    4.4661    1.0386    0.5015 C   0  0  0  0  0  0  0  0  0  0  0  0
    3.6696    2.1693    0.7709 C   0  0  0  0  0  0  0  0  0  0  0  0
    4.1159    3.1007    1.1481 H   0  0  0  0  0  0  0  0  0  0  0  0
    4.6667   -1.2704   -0.3965 C   0  0  0  0  0  0  0  0  0  0  0  0
    4.1975   -2.1607   -0.8421 H   0  0  0  0  0  0  0  0  0  0  0  0
    6.0289   -1.2330   -0.1668 C   0  0  0  0  0  0  0  0  0  0  0  0
    6.6547   -2.0998   -0.4261 H   0  0  0  0  0  0  0  0  0  0  0  0
    6.6390   -0.0736    0.4032 C   0  0  0  0  0  0  0  0  0  0  0  0
    7.7251   -0.0658    0.5776 H   0  0  0  0  0  0  0  0  0  0  0  0
    5.8793    1.0348    0.7261 C   0  0  0  0  0  0  0  0  0  0  0  0
    6.3490    1.9330    1.1539 H   0  0  0  0  0  0  0  0  0  0  0  0
   -3.3770    0.6348   -1.4618 C   0  0  0  0  0  3  0  0  0  0  0  0
   -3.6264   -0.3879   -1.7744 H   0  0  0  0  0  0  0  0  0  0  0  0
   -4.2432    1.7082   -1.6909 C   0  0  0  0  0  0  0  0  0  0  0  0
   -5.2102    1.5265   -2.1801 H   0  0  0  0  0  0  0  0  0  0  0  0
   -3.8519    2.9970   -1.2954 C   0  0  0  0  0  0  0  0  0  0  0  0
   -4.5148    3.8594   -1.4562 H   0  0  0  0  0  0  0  0  0  0  0  0
   -2.5902    3.1747   -0.7192 C   0  0  0  0  0  0  0  0  0  0  0  0
   -2.2377    4.1769   -0.4420 H   0  0  0  0  0  0  0  0  0  0  0  0
   -1.7571    2.0580   -0.5240 C   0  0  0  0  0  0  0  0  0  0  0  0
  1  4  1  0  0  0  0
  1  8  1  0  0  0  0
  3 31  1  0  0  0  0
  4  5  2  0  0  0  0
  5  6  1  0  0  0  0
  5  2  1  0  0  0  0
  7  2  2  0  0  0  0
  7 13  1  0  0  0  0
  8  9  1  6  0  0  0
  8  7  1  0  0  0  0
  9 11  2  0  0  0  0
 10  9  1  0  0  0  0
 11 12  1  0  0  0  0
 12 21  1  0  0  0  0
 12 13  2  0  0  0  0
 13 14  1  0  0  0  0
 15 17  2  0  0  0  0
 15 11  1  0  0  0  0
 16 15  1  0  0  0  0
 17 19  1  0  0  0  0
 18 17  1  0  0  0  0
 19 20  1  0  0  0  0
 19 21  2  0  0  0  0
 21 22  1  0  0  0  0
 23  3  1  0  0  0  0
 24 23  1  0  0  0  0
 25 23  1  0  0  0  0
 25 27  2  0  0  0  0
 26 25  1  0  0  0  0
 27 29  1  0  0  0  0
 28 27  1  0  0  0  0
 29 31  2  0  0  0  0
 29 30  1  0  0  0  0
 31  4  1  0  0  0  0
M  END
