2,3
q = 0.0, confidence = 0.996

 31 32  0  0  0  0  0  0  0  0999 V2000
   -5.7608    0.0886   -0.3324 O   0  0  0  0  0  0  0  0  0  0  0  0
   -0.2101    0.8427   -0.2050 N   0  0  0  0  0  2  0  0  0  0  0  0
    2.3856    0.7709    0.0355 N   0  0  0  0  0  2  0  0  0  0  0  0
   -6.5957    0.4977    0.7342 C   0  0  0  0  0  0  0  0  0  0  0  0
   -7.6246    0.2016    0.4583 H   0  0  0  0  0  0  0  0  0  0  0  0
   -6.3201   -0.0009    1.6906 H   0  0  0  0  0  0  0  0  0  0  0  0
   -6.5657    1.6005    0.8858 H   0  0  0  0  0  0  0  0  0  0  0  0
   -1.6281    0.7117   -0.2299 C   0  0  0  0  0  0  0  0  0  0  0  0
   -2.2538    0.0451   -1.3059 C   0  0  0  0  0  0  0  0  0  0  0  0
   -1.6357   -0.3346   -2.1318 H   0  0  0  0  0  0  0  0  0  0  0  0
   -3.6352   -0.1325   -1.3150 C   0  0  0  0  0  0  0  0  0  0  0  0
   -4.1366   -0.6442   -2.1487 H   0  0  0  0  0  0  0  0  0  0  0  0
   -4.4261    0.3262   -0.2365 C   0  0  0  0  0  0  0  0  0  0  0  0
   -3.8039    0.9780    0.8479 C   0  0  0  0  0  0  0  0  0  0  0  0
   -4.3869    1.3287    1.7095 H   0  0  0  0  0  0  0  0  0  0  0  0
   -2.4141    1.1732    0.8402 C   0  0  0  0  0  0  0  0  0  0  0  0
   -1.9251    1.6611    1.6964 H   0  0  0  0  0  0  0  0  0  0  0  0
    0.3639    2.0305   -0.2324 C   0  0  0  0  0  0  0  0  0  0  0  0
   -0.3728    3.3280   -0.4092 C   0  0  0  0  0  0  0  0  0  0  0  0
   -1.4284    3.1505   -0.6813 H   0  0  0  0  0  0  0  0  0  0  0  0
   -0.3583    3.9355    0.5202 H   0  0  0  0  0  0  0  0  0  0  0  0
    0.0998    3.9391   -1.2046 H   0  0  0  0  0  0  0  0  0  0  0  0
    1.8203    2.0152   -0.1070 C   0  0  0  0  0  0  0  0  0  0  0  0
    2.6136    3.1825   -0.1185 C   0  0  0  0  0  0  0  0  0  0  0  0
    2.1345    4.1645   -0.2284 H   0  0  0  0  0  0  0  0  0  0  0  0
    3.9998    3.0805    0.0133 C   0  0  0  0  0  0  0  0  0  0  0  0
    4.6302    3.9816    0.0066 H   0  0  0  0  0  0  0  0  0  0  0  0
    4.5684    1.8019    0.1550 C   0  0  0  0  0  0  0  0  0  0  0  0
    5.6536    1.6649    0.2626 H   0  0  0  0  0  0  0  0  0  0  0  0
    3.7305    0.6846    0.1609 C   0  0  0  0  0  0  0  0  0  0  0  0
    4.1359   -0.3318    0.2712 H   0  0  0  0  0  0  0  0  0  0  0  0
  1 13  1  0  0  0  0
  1  4  1  0  0  0  0
  3 30  1  0  0  0  0
  4  7  1  0  0  0  0
  4  6  1  0  0  0  0
  5  4  1  0  0  0  0
  8  2  1  0  0  0  0
  8 16  1  0  0  0  0
  9  8  2  0  0  0  0
 10  9  1  0  0  0  0
 11  9  1  0  0  0  0
 11 13  2  0  0  0  0
 12 11  1  0  0  0  0
 13 14  1  0  0  0  0
 14 15  1  0  0  0  0
 16 14  2  0  0  0  0
 16 17  1  0  0  0  0
 18  2  1  0  0  0  0
 18 23  2  0  0  0  0
 19 18  1  0  0  0  0
 19 21  1  0  0  0  0
 20 19  1  0  0  0  0
 22 19  1  0  0  0  0
 23  3  1  0  0  0  0
 24 23  1  0  0  0  0
 24 26  2  0  0  0  0
 25 24  1  0  0  0  0
 26 28  1  0  0  0  0
 27 26  1  0  0  0  0
 28 30  2  0  0  0  0
 28 29  1  0  0  0  0
 30 31  1  0  0  0  0
M  END
