1,18
q = 0.0, confidence = 0.984

 47 50  0  0  1  0  0  0  0  0999 V2000
   -0.6179    1.5889    1.0294 N   0  0  0  0  0  2  0  0  0  0  0  0
   -0.8293    2.8179    1.5542 C   0  0  0  0  0  3  0  0  0  0  0  0
   -1.5812    3.4201    1.0153 H   0  0  0  0  0  0  0  0  0  0  0  0
   -0.1252    3.2619    2.6775 C   0  0  0  0  0  0  0  0  0  0  0  0
   -0.3240    4.2682    3.0728 H   0  0  0  0  0  0  0  0  0  0  0  0
    0.8265    2.4187    3.2708 C   0  0  0  0  0  0  0  0  0  0  0  0
    1.3997    2.7480    4.1502 H   0  0  0  0  0  0  0  0  0  0  0  0
    1.0307    1.1430    2.7266 C   0  0  0  0  0  0  0  0  0  0  0  0
    1.7503    0.4308    3.1542 H   0  0  0  0  0  0  0  0  0  0  0  0
    0.2872    0.7582    1.6055 C   0  0  0  0  0  0  0  0  0  0  0  0
    0.3714   -0.6430    1.0330 C   0  0  2  0  0  0  0  0  0  0  0  0
   -0.3451   -1.2725    1.6073 H   0  0  0  0  0  0  0  0  0  0  0  0
    1.6712   -1.1944    1.1395 O   0  0  0  0  0  0  0  0  0  0  0  0
    2.2385   -1.3733   -0.1702 C   0  0  1  0  0  0  0  0  0  0  0  0
    2.1762   -2.4552   -0.4303 H   0  0  0  0  0  0  0  0  0  0  0  0
    1.2946   -0.5714   -1.1213 C   0  0  1  0  0  0  0  0  0  0  0  0
    1.1791   -1.0925   -2.0907 H   0  0  0  0  0  0  0  0  0  0  0  0
   -0.0265   -0.6943   -0.4002 N   0  0  0  0  0  0  0  0  0  0  0  0
   -0.6647   -2.0280   -0.7503 C   0  0  0  0  0  0  0  0  0  0  0  0
   -0.9702   -1.9132   -1.8090 H   0  0  0  0  0  0  0  0  0  0  0  0
    0.1083   -2.8208   -0.6698 H   0  0  0  0  0  0  0  0  0  0  0  0
   -1.8459   -2.3861    0.1135 C   0  0  0  0  0  0  0  0  0  0  0  0
   -1.6881   -3.2742    1.1991 C   0  0  0  0  0  0  0  0  0  0  0  0
   -0.6999   -3.7245    1.3906 H   0  0  0  0  0  0  0  0  0  0  0  0
   -2.7733   -3.5908    2.0307 C   0  0  0  0  0  0  0  0  0  0  0  0
   -2.6356   -4.2862    2.8725 H   0  0  0  0  0  0  0  0  0  0  0  0
   -4.0321   -3.0217    1.7819 C   0  0  0  0  0  0  0  0  0  0  0  0
   -4.8853   -3.2659    2.4331 H   0  0  0  0  0  0  0  0  0  0  0  0
   -4.2029   -2.1501    0.6937 C   0  0  0  0  0  0  0  0  0  0  0  0
   -5.1906   -1.7119    0.4862 H   0  0  0  0  0  0  0  0  0  0  0  0
   -3.1202   -1.8349   -0.1401 C   0  0  0  0  0  0  0  0  0  0  0  0
   -3.2521   -1.1645   -1.0040 H   0  0  0  0  0  0  0  0  0  0  0  0
    1.7212    0.8669   -1.3853 C   0  0  0  0  0  0  0  0  0  0  0  0
    0.9587    1.3733   -2.0083 H   0  0  0  0  0  0  0  0  0  0  0  0
    2.6857    0.8651   -1.9290 H   0  0  0  0  0  0  0  0  0  0  0  0
    1.8652    1.4499   -0.4554 H   0  0  0  0  0  0  0  0  0  0  0  0
    3.6912   -0.9661   -0.2152 C   0  0  0  0  0  0  0  0  0  0  0  0
    4.5314   -1.5286   -1.1954 C   0  0  0  0  0  0  0  0  0  0  0  0
    4.1333   -2.2962   -1.8787 H   0  0  0  0  0  0  0  0  0  0  0  0
    5.8681   -1.1201   -1.3073 C   0  0  0  0  0  0  0  0  0  0  0  0
    6.5136   -1.5656   -2.0792 H   0  0  0  0  0  0  0  0  0  0  0  0
    6.3833   -0.1529   -0.4294 C   0  0  0  0  0  0  0  0  0  0  0  0
    7.4338    0.1643   -0.5118 H   0  0  0  0  0  0  0  0  0  0  0  0
    5.5541    0.4005    0.5589 C   0  0  0  0  0  0  0  0  0  0  0  0
    5.9543    1.1533    1.2550 H   0  0  0  0  0  0  0  0  0  0  0  0
    4.2147   -0.0021    0.6651 C   0  0  0  0  0  0  0  0  0  0  0  0
    3.5622    0.4261    1.4387 H   0  0  0  0  0  0  0  0  0  0  0  0
  1  2  1  0  0  0  0
  1 10  1  0  0  0  0
  2  4  1  0  0  0  0
  3  2  1  0  0  0  0
  4  5  1  0  0  0  0
  4  6  2  0  0  0  0
  6  7  1  0  0  0  0
  8  9  1  0  0  0  0
  8  6  1  0  0  0  0
 10  8  2  0  0  0  0
 11 13  1  0  0  0  0
 11 10  1  0  0  0  0
 11 12  1  1  0  0  0
 14 15  1  6  0  0  0
 14 13  1  0  0  0  0
 16 17  1  6  0  0  0
 16 18  1  0  0  0  0
 16 14  1  0  0  0  0
 18 11  1  0  0  0  0
 19 21  1  0  0  0  0
 19 18  1  0  0  0  0
 19 22  1  0  0  0  0
 20 19  1  0  0  0  0
 22 23  1  0  0  0  0
 23 24  1  0  0  0  0
 23 25  2  0  0  0  0
 25 26  1  0  0  0  0
 27 25  1  0  0  0  0
 27 28  1  0  0  0  0
 29 27  2  0  0  0  0
 30 29  1  0  0  0  0
 31 22  2  0  0  0  0
 31 29  1  0  0  0  0
 32 31  1  0  0  0  0
 33 16  1  0  0  0  0
 33 36  1  0  0  0  0
 34 33  1  0  0  0  0
 35 33  1  0  0  0  0
 37 14  1  0  0  0  0
 37 46  1  0  0  0  0
 38 37  2  0  0  0  0
 39 38  1  0  0  0  0
 40 38  1  0  0  0  0
 40 42  2  0  0  0  0
 41 40  1  0  0  0  0
 42 44  1  0  0  0  0
 43 42  1  0  0  0  0
 44 46  2  0  0  0  0
 44 45  1  0  0  0  0
 46 47  1  0  0  0  0
M  END
