1,6
q = 0.0, confidence = 1.0

 28 29  0  0  1  0  0  0  0  0999 V2000
   -0.1432   -2.1730   -1.2499 N   0  0  0  0  0  2  0  0  0  0  0  0
   -1.0827   -3.9481    0.0854 N   0  0  0  0  0  0  0  0  0  0  0  0
   -3.2905   -2.0411    0.5989 N   0  0  0  0  0  0  0  0  0  0  0  0
   -3.9318   -0.8558    0.5479 N   0  0  0  0  0  0  0  0  0  0  0  0
   -4.8217   -0.7416    1.0367 H   0  0  0  0  0  0  0  0  0  0  0  0
   -2.1511   -0.5177   -0.6430 N   0  0  0  0  0  2  0  0  0  0  0  0
    0.9280   -2.9461   -1.5190 C   0  0  0  0  0  3  0  0  0  0  0  0
    1.6999   -2.5037   -2.1690 H   0  0  0  0  0  0  0  0  0  0  0  0
    1.0495   -4.2366   -0.9949 C   0  0  0  0  0  0  0  0  0  0  0  0
    1.9272   -4.8606   -1.2147 H   0  0  0  0  0  0  0  0  0  0  0  0
   -0.0116   -4.7022   -0.1959 C   0  0  0  0  0  0  0  0  0  0  0  0
    0.0040   -5.7198    0.2329 H   0  0  0  0  0  0  0  0  0  0  0  0
   -1.0994   -2.7147   -0.4376 C   0  0  0  0  0  0  0  0  0  0  0  0
   -2.2053   -1.7970   -0.1423 C   0  0  0  0  0  0  0  0  0  0  0  0
   -3.2593    0.0725   -0.1960 C   0  0  2  0  0  3  0  0  0  0  0  0
   -3.6704    1.4990   -0.4690 C   0  0  0  0  0  0  0  0  0  0  0  0
   -3.6536    1.7201   -1.9992 C   0  0  0  0  0  0  0  0  0  0  0  0
   -4.3634    1.0391   -2.5106 H   0  0  0  0  0  0  0  0  0  0  0  0
   -2.6385    1.5499   -2.4155 H   0  0  0  0  0  0  0  0  0  0  0  0
   -3.9510    2.7643   -2.2243 H   0  0  0  0  0  0  0  0  0  0  0  0
   -2.6266    2.4296    0.1887 C   0  0  0  0  0  0  0  0  0  0  0  0
   -2.8550    3.4871   -0.0520 H   0  0  0  0  0  0  0  0  0  0  0  0
   -1.6139    2.1991   -0.1963 H   0  0  0  0  0  0  0  0  0  0  0  0
   -2.6185    2.3134    1.2910 H   0  0  0  0  0  0  0  0  0  0  0  0
   -5.0708    1.7714    0.1060 C   0  0  0  0  0  0  0  0  0  0  0  0
   -5.8398    1.1182   -0.3566 H   0  0  0  0  0  0  0  0  0  0  0  0
   -5.3620    2.8198   -0.0994 H   0  0  0  0  0  0  0  0  0  0  0  0
   -5.0999    1.6356    1.2082 H   0  0  0  0  0  0  0  0  0  0  0  0
  1 13  1  0  0  0  0
  4  3  1  0  0  0  0
  4  5  1  0  0  0  0
  6 15  1  0  0  0  0
  6 14  1  0  0  0  0
  7  1  1  0  0  0  0
  7  9  1  0  0  0  0
  8  7  1  0  0  0  0
  9 11  2  0  0  0  0
 10  9  1  0  0  0  0
 11  2  1  0  0  0  0
 11 12  1  0  0  0  0
 13 14  1  0  0  0  0
 13  2  2  0  0  0  0
 14  3  2  0  0  0  0
 15 16  1  1  0  0  0
 15  4  1  0  0  0  0
 16 25  1  0  0  0  0
 16 21  1  0  0  0  0
 17 16  1  0  0  0  0
 18 17  1  0  0  0  0
 19 17  1  0  0  0  0
 20 17  1  0  0  0  0
 21 24  1  0  0  0  0
 22 21  1  0  0  0  0
 23 21  1  0  0  0  0
 25 28  1  0  0  0  0
 26 25  1  0  0  0  0
 27 25  1  0  0  0  0
M  END
