4,5
q = 0.0, confidence = 1.0

 57 60  0  0  1  0  0  0  0  0999 V2000
    0.0001    3.6487   -0.0008 S   0  0  0  0  0  0  0  0  0  0  0  0
   -2.2860    1.6460    1.2553 O   0  0  0  0  0  0  0  0  0  0  0  0
    2.2862    1.6453   -1.2557 O   0  0  0  0  0  0  0  0  0  0  0  0
   -1.3977   -0.3320    0.6605 N   0  0  0  0  0  2  0  0  0  0  0  0
    1.3978   -0.3324   -0.6603 N   0  0  0  0  0  2  0  0  0  0  0  0
    0.6718    2.5661    1.2449 C   0  0  0  0  0  0  0  0  0  0  0  0
    1.8933    2.9804    1.8146 C   0  0  0  0  0  0  0  0  0  0  0  0
    2.5290    2.2040    2.7922 C   0  0  0  0  0  0  0  0  0  0  0  0
    1.9774    0.9726    3.1789 C   0  0  0  0  0  0  0  0  0  0  0  0
    0.7654    0.5479    2.6210 C   0  0  0  0  0  0  0  0  0  0  0  0
    0.0821    1.3492    1.6819 C   0  0  0  0  0  0  0  0  0  0  0  0
   -1.2114    0.8435    1.1714 C   0  0  2  0  0  3  0  0  0  0  0  0
   -3.4193    0.8831    0.7458 C   0  0  0  0  0  0  0  0  0  0  0  0
   -2.8120   -0.4649    0.2765 C   0  0  2  0  0  0  0  0  0  0  0  0
   -3.4443   -1.7495    0.8558 C   0  0  0  0  0  0  0  0  0  0  0  0
   -3.2038   -1.8996    2.3603 C   0  0  0  0  0  0  0  0  0  0  0  0
   -4.9263   -1.8293    0.4757 C   0  0  0  0  0  0  0  0  0  0  0  0
   -0.6717    2.5654   -1.2459 C   0  0  0  0  0  0  0  0  0  0  0  0
   -1.8933    2.9794   -1.8157 C   0  0  0  0  0  0  0  0  0  0  0  0
   -2.5290    2.2024   -2.7929 C   0  0  0  0  0  0  0  0  0  0  0  0
   -1.9774    0.9708   -3.1788 C   0  0  0  0  0  0  0  0  0  0  0  0
   -0.7653    0.5465   -2.6208 C   0  0  0  0  0  0  0  0  0  0  0  0
   -0.0820    1.3484   -1.6823 C   0  0  0  0  0  0  0  0  0  0  0  0
    1.2115    0.8430   -1.1715 C   0  0  2  0  0  3  0  0  0  0  0  0
    3.4194    0.8826   -0.7459 C   0  0  0  0  0  0  0  0  0  0  0  0
    2.8120   -0.4653   -0.2762 C   0  0  2  0  0  0  0  0  0  0  0  0
    3.4442   -1.7501   -0.8552 C   0  0  0  0  0  0  0  0  0  0  0  0
    3.2035   -1.9008   -2.3596 C   0  0  0  0  0  0  0  0  0  0  0  0
    4.9263   -1.8298   -0.4752 C   0  0  0  0  0  0  0  0  0  0  0  0
    2.3552    3.9116    1.4538 H   0  0  0  0  0  0  0  0  0  0  0  0
    3.4787    2.5504    3.2277 H   0  0  0  0  0  0  0  0  0  0  0  0
    2.4905    0.3296    3.9086 H   0  0  0  0  0  0  0  0  0  0  0  0
    0.3526   -0.4361    2.8873 H   0  0  0  0  0  0  0  0  0  0  0  0
   -3.8791    1.4707   -0.0712 H   0  0  0  0  0  0  0  0  0  0  0  0
   -4.1455    0.7771    1.5775 H   0  0  0  0  0  0  0  0  0  0  0  0
   -2.8391   -0.5551   -0.8312 H   0  0  0  0  0  0  0  0  0  0  0  0
   -2.9132   -2.5757    0.3340 H   0  0  0  0  0  0  0  0  0  0  0  0
   -3.6963   -2.8168    2.7404 H   0  0  0  0  0  0  0  0  0  0  0  0
   -3.6135   -1.0443    2.9407 H   0  0  0  0  0  0  0  0  0  0  0  0
   -2.1209   -1.9879    2.5801 H   0  0  0  0  0  0  0  0  0  0  0  0
   -5.0706   -1.7316   -0.6201 H   0  0  0  0  0  0  0  0  0  0  0  0
   -5.5263   -1.0362    0.9722 H   0  0  0  0  0  0  0  0  0  0  0  0
   -5.3565   -2.8025    0.7847 H   0  0  0  0  0  0  0  0  0  0  0  0
   -2.3552    3.9108   -1.4554 H   0  0  0  0  0  0  0  0  0  0  0  0
   -3.4788    2.5486   -3.2284 H   0  0  0  0  0  0  0  0  0  0  0  0
   -2.4905    0.3274   -3.9082 H   0  0  0  0  0  0  0  0  0  0  0  0
   -0.3526   -0.4377   -2.8865 H   0  0  0  0  0  0  0  0  0  0  0  0
    3.8791    1.4704    0.0711 H   0  0  0  0  0  0  0  0  0  0  0  0
    4.1457    0.7763   -1.5774 H   0  0  0  0  0  0  0  0  0  0  0  0
    2.8391   -0.5553    0.8315 H   0  0  0  0  0  0  0  0  0  0  0  0
    2.9132   -2.5761   -0.3330 H   0  0  0  0  0  0  0  0  0  0  0  0
    2.1206   -1.9892   -2.5792 H   0  0  0  0  0  0  0  0  0  0  0  0
    3.6961   -2.8181   -2.7394 H   0  0  0  0  0  0  0  0  0  0  0  0
    3.6132   -1.0456   -2.9403 H   0  0  0  0  0  0  0  0  0  0  0  0
    5.3565   -2.8032   -0.7840 H   0  0  0  0  0  0  0  0  0  0  0  0
    5.0707   -1.7318    0.6205 H   0  0  0  0  0  0  0  0  0  0  0  0
    5.5262   -1.0368   -0.9721 H   0  0  0  0  0  0  0  0  0  0  0  0
  1  6  1  0  0  0  0
  3 24  1  0  0  0  0
  3 25  1  0  0  0  0
  4 12  1  0  0  0  0
  5 26  1  0  0  0  0
  6 11  2  0  0  0  0
  6  7  1  0  0  0  0
  7  8  2  0  0  0  0
  8  9  1  0  0  0  0
  8 31  1  0  0  0  0
  9 32  1  0  0  0  0
 10 33  1  0  0  0  0
 10  9  2  0  0  0  0
 11 10  1  0  0  0  0
 12  2  1  0  0  0  0
 12 11  1  1  0  0  0
 13  2  1  0  0  0  0
 13 35  1  0  0  0  0
 14 36  1  6  0  0  0
 14  4  1  0  0  0  0
 14 13  1  0  0  0  0
 14 15  1  0  0  0  0
 15 16  1  0  0  0  0
 16 40  1  0  0  0  0
 16 38  1  0  0  0  0
 16 39  1  0  0  0  0
 17 43  1  0  0  0  0
 17 15  1  0  0  0  0
 17 42  1  0  0  0  0
 18  1  1  0  0  0  0
 19 44  1  0  0  0  0
 19 18  2  0  0  0  0
 20 19  1  0  0  0  0
 21 20  2  0  0  0  0
 21 22  1  0  0  0  0
 22 23  2  0  0  0  0
 23 18  1  0  0  0  0
 24 23  1  6  0  0  0
 24  5  1  0  0  0  0
 25 26  1  0  0  0  0
 25 48  1  0  0  0  0
 26 50  1  1  0  0  0
 27 29  1  0  0  0  0
 27 51  1  0  0  0  0
 27 26  1  0  0  0  0
 28 27  1  0  0  0  0
 29 56  1  0  0  0  0
 30  7  1  0  0  0  0
 34 13  1  0  0  0  0
 37 15  1  0  0  0  0
 41 17  1  0  0  0  0
 45 20  1  0  0  0  0
 46 21  1  0  0  0  0
 47 22  1  0  0  0  0
 49 25  1  0  0  0  0
 52 28  1  0  0  0  0
 53 28  1  0  0  0  0
 54 28  1  0  0  0  0
 55 29  1  0  0  0  0
 57 29  1  0  0  0  0
M  END
