1,5
q = -2.0, confidence = 0.822

 29 28  0  0  1  0  0  0  0  0999 V2000
    1.2530    0.4285   -0.6511 N   0  0  0  0  0  2  0  0  0  0  0  0
    2.7438    2.1875   -0.5846 O   0  0  0  0  0  0  0  0  0  0  0  0
    0.4221    2.6173   -0.0261 C   0  0  2  0  0  0  0  0  0  0  0  0
    0.3933    3.4775   -0.7286 H   0  0  0  0  0  0  0  0  0  0  0  0
   -0.8128    1.8372   -0.0896 N   0  0  0  0  0  2  0  0  0  0  0  0
   -2.0333    2.4585   -0.2445 C   0  0  0  0  0  0  0  0  0  0  0  0
    1.5952    1.7475   -0.4708 C   0  0  0  0  0  0  0  0  0  0  0  0
    0.7329    3.1347    1.3893 C   0  0  0  0  0  0  0  0  0  0  0  0
   -0.0437    3.8361    1.7506 H   0  0  0  0  0  0  0  0  0  0  0  0
    1.7133    3.6495    1.3825 H   0  0  0  0  0  0  0  0  0  0  0  0
    0.7859    2.2800    2.0937 H   0  0  0  0  0  0  0  0  0  0  0  0
    2.3417   -0.4409   -1.0995 C   0  0  1  0  0  0  0  0  0  0  0  0
    1.9723   -1.4798   -0.9935 H   0  0  0  0  0  0  0  0  0  0  0  0
   -3.1009    1.8330   -0.2972 O   0  0  0  0  0  0  0  0  0  0  0  0
    3.1871   -0.2861    1.1293 O   0  0  0  0  0  0  0  0  0  0  0  0
    4.7227   -0.4557   -0.5347 O   0  0  0  0  0  0  0  0  0  0  0  0
    2.7321   -0.2066   -2.5598 C   0  0  0  0  0  0  0  0  0  0  0  0
    1.8536   -0.3682   -3.2142 H   0  0  0  0  0  0  0  0  0  0  0  0
    3.5414   -0.9020   -2.8526 H   0  0  0  0  0  0  0  0  0  0  0  0
    3.1030    0.8269   -2.6902 H   0  0  0  0  0  0  0  0  0  0  0  0
    4.2640   -0.1302    2.0583 C   0  0  0  0  0  0  0  0  0  0  0  0
    3.8075   -0.1362    3.0646 H   0  0  0  0  0  0  0  0  0  0  0  0
    4.7855    0.8321    1.8807 H   0  0  0  0  0  0  0  0  0  0  0  0
    5.0019   -0.9517    1.9587 H   0  0  0  0  0  0  0  0  0  0  0  0
    3.5668   -0.3598   -0.1782 C   0  0  0  0  0  0  0  0  0  0  0  0
   -2.0546    3.9778   -0.4152 C   0  0  0  0  0  0  0  0  0  0  0  0
   -1.5734    4.2757   -1.3699 H   0  0  0  0  0  0  0  0  0  0  0  0
   -1.5305    4.5164    0.3980 H   0  0  0  0  0  0  0  0  0  0  0  0
   -3.1122    4.2929   -0.4404 H   0  0  0  0  0  0  0  0  0  0  0  0
  1  7  1  0  0  0  0
  2  7  2  0  0  0  0
  3  4  1  6  0  0  0
  3  8  1  0  0  0  0
  5  3  1  0  0  0  0
  6  5  1  0  0  0  0
  7  3  1  0  0  0  0
  8  9  1  0  0  0  0
  8 11  1  0  0  0  0
 10  8  1  0  0  0  0
 12 13  1  1  0  0  0
 12  1  1  0  0  0  0
 12 25  1  0  0  0  0
 14  6  2  0  0  0  0
 15 21  1  0  0  0  0
 16 25  2  0  0  0  0
 17 12  1  0  0  0  0
 18 17  1  0  0  0  0
 19 17  1  0  0  0  0
 20 17  1  0  0  0  0
 21 22  1  0  0  0  0
 23 21  1  0  0  0  0
 24 21  1  0  0  0  0
 25 15  1  0  0  0  0
 26  6  1  0  0  0  0
 26 28  1  0  0  0  0
 27 26  1  0  0  0  0
 29 26  1  0  0  0  0
M  END
