2,7
q = 0.0, confidence = 1.0

 23 24  0  0  1  0  0  0  0  0999 V2000
    1.6022    0.6799    0.0002 N   0  0  0  0  0  0  0  0  0  0  0  0
    0.3440    1.2449    0.0002 N   0  0  0  0  0  2  0  0  0  0  0  0
    0.5164    2.5761   -0.0002 C   0  0  2  0  0  3  0  0  0  0  0  0
    1.9140    2.8610   -0.0004 C   0  0  0  0  0  0  0  0  0  0  0  0
    2.3706    3.8560   -0.0007 H   0  0  0  0  0  0  0  0  0  0  0  0
    2.5933    1.6532   -0.0001 C   0  0  0  0  0  0  0  0  0  0  0  0
    0.4881   -1.3559   -0.0002 N   0  0  0  0  0  2  0  0  0  0  0  0
    2.8834   -1.2960    0.0006 N   0  0  0  0  0  0  0  0  0  0  0  0
    1.6897   -0.7133    0.0002 C   0  0  2  0  0  3  0  0  0  0  0  0
    2.9000   -2.6387    0.0004 C   0  0  0  0  0  0  0  0  0  0  0  0
    3.8943   -3.1164    0.0008 H   0  0  0  0  0  0  0  0  0  0  0  0
    1.7219   -3.4009   -0.0001 C   0  0  0  0  0  0  0  0  0  0  0  0
    1.7413   -4.4990   -0.0003 H   0  0  0  0  0  0  0  0  0  0  0  0
    0.5088   -2.7074   -0.0004 C   0  0  0  0  0  0  0  0  0  0  0  0
   -0.4942   -3.1728   -0.0007 H   0  0  0  0  0  0  0  0  0  0  0  0
   -0.6071    3.5511   -0.0003 C   0  0  0  0  0  0  0  0  0  0  0  0
   -1.2644    3.3959    0.8776 H   0  0  0  0  0  0  0  0  0  0  0  0
   -1.2653    3.3949   -0.8774 H   0  0  0  0  0  0  0  0  0  0  0  0
   -0.2127    4.5838   -0.0010 H   0  0  0  0  0  0  0  0  0  0  0  0
    4.0577    1.3813   -0.0002 C   0  0  0  0  0  0  0  0  0  0  0  0
    4.5995    2.3452   -0.0003 H   0  0  0  0  0  0  0  0  0  0  0  0
    4.3658    0.7913   -0.8853 H   0  0  0  0  0  0  0  0  0  0  0  0
    4.3659    0.7914    0.8850 H   0  0  0  0  0  0  0  0  0  0  0  0
  2  1  1  0  0  0  0
  3 16  1  1  0  0  0
  3  2  1  0  0  0  0
  4  3  1  0  0  0  0
  4  6  2  0  0  0  0
  5  4  1  0  0  0  0
  6  1  1  0  0  0  0
  7  9  1  0  0  0  0
  9  1  1  1  0  0  0
  9  8  1  0  0  0  0
 10  8  2  0  0  0  0
 10 11  1  0  0  0  0
 12 10  1  0  0  0  0
 13 12  1  0  0  0  0
 14  7  1  0  0  0  0
 14 12  2  0  0  0  0
 15 14  1  0  0  0  0
 16 17  1  0  0  0  0
 18 16  1  0  0  0  0
 19 16  1  0  0  0  0
 20  6  1  0  0  0  0
 20 23  1  0  0  0  0
 21 20  1  0  0  0  0
 22 20  1  0  0  0  0
M  END
