2,7
q = 0.0, confidence = 0.998

 24 25  0  0  1  0  0  0  0  0999 V2000
    1.8138    0.6778    0.0003 N   0  0  0  0  0  0  0  0  0  0  0  0
    0.5499    1.2473   -0.0003 N   0  0  0  0  0  2  0  0  0  0  0  0
    0.7138    2.5840   -0.0007 C   0  0  2  0  0  3  0  0  0  0  0  0
    2.1055    2.8707   -0.0000 C   0  0  0  0  0  0  0  0  0  0  0  0
    2.5592    3.8671   -0.0000 H   0  0  0  0  0  0  0  0  0  0  0  0
    2.7901    1.6659    0.0005 C   0  0  0  0  0  0  0  0  0  0  0  0
    0.6592   -1.3350    0.0002 N   0  0  0  0  0  2  0  0  0  0  0  0
    1.8809   -0.7222   -0.0001 C   0  0  1  0  0  3  0  0  0  0  0  0
    3.0737   -1.4645   -0.0010 C   0  0  0  0  0  0  0  0  0  0  0  0
    4.0448   -0.9640   -0.0017 H   0  0  0  0  0  0  0  0  0  0  0  0
    2.9992   -2.8614   -0.0010 C   0  0  0  0  0  0  0  0  0  0  0  0
    3.9249   -3.4548   -0.0017 H   0  0  0  0  0  0  0  0  0  0  0  0
    1.7414   -3.4842   -0.0003 C   0  0  0  0  0  0  0  0  0  0  0  0
    1.6398   -4.5782   -0.0003 H   0  0  0  0  0  0  0  0  0  0  0  0
    0.5962   -2.6916    0.0002 C   0  0  0  0  0  0  0  0  0  0  0  0
   -0.4346   -3.0871    0.0005 H   0  0  0  0  0  0  0  0  0  0  0  0
   -0.4080    3.5601   -0.0009 C   0  0  0  0  0  0  0  0  0  0  0  0
   -1.0655    3.4120    0.8785 H   0  0  0  0  0  0  0  0  0  0  0  0
   -1.0694    3.4077   -0.8764 H   0  0  0  0  0  0  0  0  0  0  0  0
   -0.0067    4.5904   -0.0039 H   0  0  0  0  0  0  0  0  0  0  0  0
    4.2649    1.4445    0.0015 C   0  0  0  0  0  0  0  0  0  0  0  0
    4.7666    2.4292    0.0032 H   0  0  0  0  0  0  0  0  0  0  0  0
    4.6130    0.8943   -0.8972 H   0  0  0  0  0  0  0  0  0  0  0  0
    4.6114    0.8920    0.8993 H   0  0  0  0  0  0  0  0  0  0  0  0
  1  6  1  0  0  0  0
  2  1  1  0  0  0  0
  3 17  1  1  0  0  0
  3  2  1  0  0  0  0
  3  4  1  0  0  0  0
  4  5  1  0  0  0  0
  4  6  2  0  0  0  0
  6 21  1  0  0  0  0
  8  7  1  0  0  0  0
  8  1  1  6  0  0  0
  9  8  1  0  0  0  0
 10  9  1  0  0  0  0
 11  9  2  0  0  0  0
 11 13  1  0  0  0  0
 12 11  1  0  0  0  0
 13 14  1  0  0  0  0
 13 15  2  0  0  0  0
 15  7  1  0  0  0  0
 15 16  1  0  0  0  0
 17 18  1  0  0  0  0
 19 17  1  0  0  0  0
 20 17  1  0  0  0  0
 21 22  1  0  0  0  0
 21 24  1  0  0  0  0
 23 21  1  0  0  0  0
M  END
