4,6
q = -1.0, confidence = 0.016

 45 47  0  0  1  0  0  0  0  0999 V2000
    0.0768   -2.2357    1.1850 S   0  0  0  0  0  0  0  0  0  0  0  0
    2.6461   -2.5707   -0.2120 S   0  0  0  0  0  0  0  0  0  0  0  0
   -0.4013    1.1004   -1.5676 C   0  0  0  0  0  0  0  0  0  0  0  0
   -2.5889    0.9493   -0.5212 N   0  0  0  0  0  2  0  0  0  0  0  0
    0.4835    1.7232   -2.1581 O   0  0  0  0  0  0  0  0  0  0  0  0
   -0.3270   -0.1717   -1.0392 N   0  0  0  0  0  2  0  0  0  0  0  0
    0.8125   -0.8427   -1.1019 N   0  0  0  0  0  0  0  0  0  0  0  0
   -1.7165    1.7208   -1.2017 C   0  0  1  0  0  3  0  0  0  0  0  0
    0.4661    0.3002    2.2493 C   0  0  0  0  0  0  0  0  0  0  0  0
   -3.7605    1.4521   -0.0930 C   0  0  0  0  0  0  0  0  0  0  0  0
   -4.4081    0.7408    0.4453 H   0  0  0  0  0  0  0  0  0  0  0  0
    4.9943   -0.1258    0.1543 C   0  0  0  0  0  0  0  0  0  0  0  0
    5.4546   -1.0440    0.5532 H   0  0  0  0  0  0  0  0  0  0  0  0
    3.6184   -1.5617   -1.4173 C   0  0  0  0  0  0  0  0  0  0  0  0
    4.4920   -2.2065   -1.6414 H   0  0  0  0  0  0  0  0  0  0  0  0
    2.9965   -1.4623   -2.3279 H   0  0  0  0  0  0  0  0  0  0  0  0
    0.8564   -1.1367    2.4628 C   0  0  0  0  0  0  0  0  0  0  0  0
    0.4649   -1.5393    3.4190 H   0  0  0  0  0  0  0  0  0  0  0  0
    1.9539   -1.2857    2.4375 H   0  0  0  0  0  0  0  0  0  0  0  0
    4.0291   -0.2199   -0.8712 C   0  0  0  0  0  0  0  0  0  0  0  0
   -3.2088    3.6032   -1.0546 C   0  0  0  0  0  0  0  0  0  0  0  0
   -3.4589    4.6545   -1.2632 H   0  0  0  0  0  0  0  0  0  0  0  0
   -1.9978    3.0606   -1.4983 C   0  0  0  0  0  0  0  0  0  0  0  0
   -1.2419    3.6296   -2.0584 H   0  0  0  0  0  0  0  0  0  0  0  0
    3.4340    0.9589   -1.3602 C   0  0  0  0  0  0  0  0  0  0  0  0
    2.6426    0.9053   -2.1220 H   0  0  0  0  0  0  0  0  0  0  0  0
    1.1098   -1.7359   -0.2112 C   0  0  0  0  0  0  0  0  0  0  0  0
   -4.1004    2.7893   -0.3358 C   0  0  0  0  0  0  0  0  0  0  0  0
   -5.0592    3.1780    0.0354 H   0  0  0  0  0  0  0  0  0  0  0  0
   -0.8471    0.7323    2.5368 C   0  0  0  0  0  0  0  0  0  0  0  0
   -1.5831    0.0122    2.9290 H   0  0  0  0  0  0  0  0  0  0  0  0
   -0.3146    2.9619    1.7244 C   0  0  0  0  0  0  0  0  0  0  0  0
   -0.6199    3.9991    1.5182 H   0  0  0  0  0  0  0  0  0  0  0  0
    1.3777    1.2139    1.6871 C   0  0  0  0  0  0  0  0  0  0  0  0
    2.3995    0.8871    1.4397 H   0  0  0  0  0  0  0  0  0  0  0  0
   -1.2299    2.0564    2.2888 C   0  0  0  0  0  0  0  0  0  0  0  0
   -2.2545    2.3825    2.5246 H   0  0  0  0  0  0  0  0  0  0  0  0
    4.7713    2.2966    0.1743 C   0  0  0  0  0  0  0  0  0  0  0  0
    5.0613    3.2767    0.5831 H   0  0  0  0  0  0  0  0  0  0  0  0
    3.8081    2.2091   -0.8416 C   0  0  0  0  0  0  0  0  0  0  0  0
    3.3242    3.1160   -1.2347 H   0  0  0  0  0  0  0  0  0  0  0  0
    0.9869    2.5356    1.4203 C   0  0  0  0  0  0  0  0  0  0  0  0
    1.7090    3.2286    0.9647 H   0  0  0  0  0  0  0  0  0  0  0  0
    5.3622    1.1224    0.6748 C   0  0  0  0  0  0  0  0  0  0  0  0
    6.1167    1.1817    1.4741 H   0  0  0  0  0  0  0  0  0  0  0  0
  1 17  1  0  0  0  0
  2 27  1  0  0  0  0
  3  6  1  0  0  0  0
  4 10  1  0  0  0  0
  5  3  2  0  0  0  0
  7  6  1  0  0  0  0
  7 27  2  0  0  0  0
  8  3  1  1  0  0  0
  8  4  1  0  0  0  0
  9 17  1  0  0  0  0
  9 30  1  0  0  0  0
 10 11  1  0  0  0  0
 12 13  1  0  0  0  0
 12 44  1  0  0  0  0
 14 20  1  0  0  0  0
 14  2  1  0  0  0  0
 15 14  1  0  0  0  0
 16 14  1  0  0  0  0
 17 18  1  0  0  0  0
 19 17  1  0  0  0  0
 20 12  2  0  0  0  0
 21 28  1  0  0  0  0
 22 21  1  0  0  0  0
 23  8  1  0  0  0  0
 23 21  2  0  0  0  0
 24 23  1  0  0  0  0
 25 20  1  0  0  0  0
 25 40  2  0  0  0  0
 26 25  1  0  0  0  0
 27  1  1  0  0  0  0
 28 10  2  0  0  0  0
 28 29  1  0  0  0  0
 30 31  1  0  0  0  0
 32 36  1  0  0  0  0
 33 32  1  0  0  0  0
 34  9  2  0  0  0  0
 35 34  1  0  0  0  0
 36 37  1  0  0  0  0
 36 30  2  0  0  0  0
 38 39  1  0  0  0  0
 38 44  2  0  0  0  0
 40 38  1  0  0  0  0
 41 40  1  0  0  0  0
 42 34  1  0  0  0  0
 42 32  2  0  0  0  0
 43 42  1  0  0  0  0
 44 45  1  0  0  0  0
M  END
