1,2
q = 0.0, confidence = 0.964

 43 44  0  0  1  0  0  0  0  0999 V2000
    1.4306    0.8569   -0.1783 N   0  0  0  0  0  2  0  0  0  0  0  0
   -1.4305    0.8570   -0.1783 N   0  0  0  0  0  2  0  0  0  0  0  0
    1.2980    2.1503   -0.0979 C   0  0  2  0  0  3  0  0  0  0  0  0
    0.0001    2.8024   -0.5165 C   0  0  0  0  0  0  0  0  0  0  0  0
   -1.2978    2.1504   -0.0976 C   0  0  1  0  0  3  0  0  0  0  0  0
    2.3779    3.0882    0.3524 C   0  0  0  0  0  0  0  0  0  0  0  0
   -2.3773    3.0883    0.3533 C   0  0  0  0  0  0  0  0  0  0  0  0
    2.7285    0.2764    0.0631 C   0  0  0  0  0  0  0  0  0  0  0  0
    3.7262    0.4324   -0.9164 C   0  0  0  0  0  0  0  0  0  0  0  0
    4.9787   -0.1709   -0.7442 C   0  0  0  0  0  0  0  0  0  0  0  0
    5.2318   -0.9275    0.4102 C   0  0  0  0  0  0  0  0  0  0  0  0
    4.2314   -1.0738    1.3821 C   0  0  0  0  0  0  0  0  0  0  0  0
    2.9619   -0.4810    1.2338 C   0  0  0  0  0  0  0  0  0  0  0  0
    1.8864   -0.6423    2.2703 C   0  0  0  0  0  0  0  0  0  0  0  0
   -2.7284    0.2766    0.0633 C   0  0  0  0  0  0  0  0  0  0  0  0
   -3.7265    0.4334   -0.9158 C   0  0  0  0  0  0  0  0  0  0  0  0
   -4.9791   -0.1696   -0.7436 C   0  0  0  0  0  0  0  0  0  0  0  0
   -5.2318   -0.9270    0.4104 C   0  0  0  0  0  0  0  0  0  0  0  0
   -4.2312   -1.0742    1.3819 C   0  0  0  0  0  0  0  0  0  0  0  0
   -2.9616   -0.4816    1.2335 C   0  0  0  0  0  0  0  0  0  0  0  0
   -1.8857   -0.6442    2.2693 C   0  0  0  0  0  0  0  0  0  0  0  0
    2.6660    3.7672   -0.4790 H   0  0  0  0  0  0  0  0  0  0  0  0
    1.9851    3.7405    1.1602 H   0  0  0  0  0  0  0  0  0  0  0  0
    3.2817    2.5631    0.7056 H   0  0  0  0  0  0  0  0  0  0  0  0
    0.0002    3.8566   -0.1838 H   0  0  0  0  0  0  0  0  0  0  0  0
   -0.0000    2.8509   -1.6319 H   0  0  0  0  0  0  0  0  0  0  0  0
   -2.6658    3.7674   -0.4779 H   0  0  0  0  0  0  0  0  0  0  0  0
   -1.9842    3.7405    1.1609 H   0  0  0  0  0  0  0  0  0  0  0  0
   -3.2811    2.5632    0.7069 H   0  0  0  0  0  0  0  0  0  0  0  0
    3.5031    1.0134   -1.8240 H   0  0  0  0  0  0  0  0  0  0  0  0
    5.7543   -0.0508   -1.5147 H   0  0  0  0  0  0  0  0  0  0  0  0
    6.2111   -1.4064    0.5548 H   0  0  0  0  0  0  0  0  0  0  0  0
    4.4338   -1.6637    2.2895 H   0  0  0  0  0  0  0  0  0  0  0  0
    2.1822   -1.3594    3.0580 H   0  0  0  0  0  0  0  0  0  0  0  0
    0.9503   -1.0028    1.7969 H   0  0  0  0  0  0  0  0  0  0  0  0
    1.6333    0.3213    2.7609 H   0  0  0  0  0  0  0  0  0  0  0  0
   -3.5036    1.0150   -1.8231 H   0  0  0  0  0  0  0  0  0  0  0  0
   -5.7549   -0.0488   -1.5137 H   0  0  0  0  0  0  0  0  0  0  0  0
   -6.2112   -1.4058    0.5550 H   0  0  0  0  0  0  0  0  0  0  0  0
   -4.4334   -1.6647    2.2889 H   0  0  0  0  0  0  0  0  0  0  0  0
   -2.1823   -1.3601    3.0578 H   0  0  0  0  0  0  0  0  0  0  0  0
   -1.6301    0.3193    2.7590 H   0  0  0  0  0  0  0  0  0  0  0  0
   -0.9507   -1.0071    1.7955 H   0  0  0  0  0  0  0  0  0  0  0  0
  1  8  1  0  0  0  0
  2 15  1  0  0  0  0
  3  1  1  6  0  0  0
  3  6  1  0  0  0  0
  4 25  1  0  0  0  0
  4  3  1  0  0  0  0
  4  5  1  0  0  0  0
  5  2  1  6  0  0  0
  5  7  1  0  0  0  0
  6 24  1  0  0  0  0
  6 23  1  0  0  0  0
  7 29  1  0  0  0  0
  7 28  1  0  0  0  0
  8 13  1  0  0  0  0
  9 10  1  0  0  0  0
  9  8  2  0  0  0  0
 10 11  2  0  0  0  0
 11 32  1  0  0  0  0
 11 12  1  0  0  0  0
 12 33  1  0  0  0  0
 13 12  2  0  0  0  0
 13 14  1  0  0  0  0
 14 36  1  0  0  0  0
 14 34  1  0  0  0  0
 15 20  1  0  0  0  0
 16 17  1  0  0  0  0
 16 15  2  0  0  0  0
 17 18  2  0  0  0  0
 18 39  1  0  0  0  0
 18 19  1  0  0  0  0
 19 40  1  0  0  0  0
 20 19  2  0  0  0  0
 20 21  1  0  0  0  0
 21 42  1  0  0  0  0
 21 41  1  0  0  0  0
 22  6  1  0  0  0  0
 26  4  1  0  0  0  0
 27  7  1  0  0  0  0
 30  9  1  0  0  0  0
 31 10  1  0  0  0  0
 35 14  1  0  0  0  0
 37 16  1  0  0  0  0
 38 17  1  0  0  0  0
 43 21  1  0  0  0  0
M  END
