7,8
q = 0.0, confidence = 0.99

 46 49  0  0  1  0  0  0  0  0999 V2000
    2.4414   -1.4930   -1.4346 S   0  0  0  0  0  0  0  0  0  0  0  0
    4.3907   -0.2307   -0.1528 F   0  0  0  0  0  0  0  0  0  0  0  0
    4.9424   -2.1843   -0.9629 F   0  0  0  0  0  0  0  0  0  0  0  0
    3.7238   -2.0558    0.8451 F   0  0  0  0  0  0  0  0  0  0  0  0
    1.9087   -2.8611   -1.4641 O   0  0  0  0  0  0  0  0  0  0  0  0
    2.8269   -0.7472   -2.6443 O   0  0  0  0  0  0  0  0  0  0  0  0
   -1.7143   -2.1737    0.6428 N   0  0  0  0  0  2  0  0  0  0  0  0
   -0.8008   -0.0129   -0.5438 N   0  0  0  0  0  2  0  0  0  0  0  0
    1.4265   -0.5223   -0.4230 N   0  0  0  0  0  0  0  0  0  0  0  0
   -2.2845   -3.1903    1.3060 C   0  0  0  0  0  0  0  0  0  0  0  0
   -3.3891   -3.1699    1.3148 H   0  0  0  0  0  0  0  0  0  0  0  0
   -1.5190   -4.1850    1.9330 C   0  0  0  0  0  0  0  0  0  0  0  0
   -2.0202   -5.0046    2.4674 H   0  0  0  0  0  0  0  0  0  0  0  0
   -0.1189   -4.1054    1.8688 C   0  0  0  0  0  0  0  0  0  0  0  0
    0.5090   -4.8641    2.3588 H   0  0  0  0  0  0  0  0  0  0  0  0
    0.4784   -3.0501    1.1686 C   0  0  0  0  0  0  0  0  0  0  0  0
    1.5676   -2.9651    1.0919 H   0  0  0  0  0  0  0  0  0  0  0  0
   -0.3561   -2.0990    0.5540 C   0  0  0  0  0  0  0  0  0  0  0  0
    0.0865   -0.9109   -0.1734 C   0  0  0  0  0  0  0  0  0  0  0  0
    1.3963    0.9356   -0.7253 C   0  0  1  0  0  0  0  0  0  0  0  0
    2.0396    1.1380   -1.6012 H   0  0  0  0  0  0  0  0  0  0  0  0
   -0.1178    1.1539   -1.1309 C   0  0  2  0  0  0  0  0  0  0  0  0
   -0.2152    1.0678   -2.2353 H   0  0  0  0  0  0  0  0  0  0  0  0
   -0.6787    2.4843   -0.6921 C   0  0  0  0  0  0  0  0  0  0  0  0
   -0.6876    3.5627   -1.5935 C   0  0  0  0  0  0  0  0  0  0  0  0
   -0.3583    3.4055   -2.6333 H   0  0  0  0  0  0  0  0  0  0  0  0
   -1.1204    4.8315   -1.1797 C   0  0  0  0  0  0  0  0  0  0  0  0
   -1.1294    5.6675   -1.8953 H   0  0  0  0  0  0  0  0  0  0  0  0
   -1.5525    5.0277    0.1407 C   0  0  0  0  0  0  0  0  0  0  0  0
   -1.8976    6.0206    0.4665 H   0  0  0  0  0  0  0  0  0  0  0  0
   -1.5548    3.9502    1.0418 C   0  0  0  0  0  0  0  0  0  0  0  0
   -1.9027    4.0956    2.0755 H   0  0  0  0  0  0  0  0  0  0  0  0
   -1.1188    2.6848    0.6293 C   0  0  0  0  0  0  0  0  0  0  0  0
   -1.1335    1.8396    1.3325 H   0  0  0  0  0  0  0  0  0  0  0  0
    1.8719    1.7521    0.4580 C   0  0  0  0  0  0  0  0  0  0  0  0
    1.8606    1.2415    1.7683 C   0  0  0  0  0  0  0  0  0  0  0  0
    1.5666    0.1963    1.9442 H   0  0  0  0  0  0  0  0  0  0  0  0
    2.2332    2.0543    2.8496 C   0  0  0  0  0  0  0  0  0  0  0  0
    2.2188    1.6432    3.8703 H   0  0  0  0  0  0  0  0  0  0  0  0
    2.6212    3.3848    2.6319 C   0  0  0  0  0  0  0  0  0  0  0  0
    2.9090    4.0229    3.4809 H   0  0  0  0  0  0  0  0  0  0  0  0
    2.6493    3.8955    1.3242 C   0  0  0  0  0  0  0  0  0  0  0  0
    2.9602    4.9352    1.1429 H   0  0  0  0  0  0  0  0  0  0  0  0
    2.2820    3.0821    0.2446 C   0  0  0  0  0  0  0  0  0  0  0  0
    2.2966    3.4902   -0.7776 H   0  0  0  0  0  0  0  0  0  0  0  0
    3.9917   -1.4898   -0.3405 C   0  0  0  0  0  0  0  0  0  0  0  0
  1  9  1  0  0  0  0
  1 46  1  0  0  0  0
  3 46  1  0  0  0  0
  5  1  2  0  0  0  0
  6  1  2  0  0  0  0
  7 10  1  0  0  0  0
  8 19  1  0  0  0  0
  9 19  1  0  0  0  0
 10 11  1  0  0  0  0
 10 12  2  0  0  0  0
 12 13  1  0  0  0  0
 14 12  1  0  0  0  0
 14 15  1  0  0  0  0
 16 14  2  0  0  0  0
 17 16  1  0  0  0  0
 18  7  1  0  0  0  0
 18 16  1  0  0  0  0
 19 18  2  0  0  0  0
 20 21  1  6  0  0  0
 20  9  1  0  0  0  0
 20 35  1  0  0  0  0
 22 23  1  6  0  0  0
 22 20  1  0  0  0  0
 22 24  1  0  0  0  0
 22  8  1  0  0  0  0
 24 33  1  0  0  0  0
 25 27  1  0  0  0  0
 25 24  2  0  0  0  0
 26 25  1  0  0  0  0
 27 29  2  0  0  0  0
 28 27  1  0  0  0  0
 29 30  1  0  0  0  0
 29 31  1  0  0  0  0
 31 32  1  0  0  0  0
 33 31  2  0  0  0  0
 33 34  1  0  0  0  0
 35 36  1  0  0  0  0
 36 37  1  0  0  0  0
 36 38  2  0  0  0  0
 38 39  1  0  0  0  0
 40 38  1  0  0  0  0
 40 41  1  0  0  0  0
 42 40  2  0  0  0  0
 43 42  1  0  0  0  0
 44 35  2  0  0  0  0
 44 42  1  0  0  0  0
 45 44  1  0  0  0  0
 46  2  1  0  0  0  0
 46  4  1  0  0  0  0
M  END
