3,4
q = -2.0, confidence = 0.676

 44 43  0  0  0  0  0  0  0  0999 V2000
   -1.4920    0.1055    1.3906 Se  0  0  0  0  0  0  0  0  0  0  0  0
    1.4920    0.1055    1.3906 Se  0  0  0  0  0  0  0  0  0  0  0  0
   -1.9821   -0.0213   -0.2688 N   0  0  0  0  0  2  0  0  0  0  0  0
    1.9821   -0.0213   -0.2688 N   0  0  0  0  0  2  0  0  0  0  0  0
    0.0000   -1.0760    1.3535 N   0  0  0  0  0  0  0  0  0  0  0  0
   -3.3979   -0.0529   -0.6972 C   0  0  0  0  0  0  0  0  0  0  0  0
    3.3979   -0.0528   -0.6972 C   0  0  0  0  0  0  0  0  0  0  0  0
    0.0000   -2.4769    1.8128 C   0  0  0  0  0  0  0  0  0  0  0  0
   -3.6078   -1.3783   -1.4579 C   0  0  0  0  0  0  0  0  0  0  0  0
   -2.8470   -1.5042   -2.2528 H   0  0  0  0  0  0  0  0  0  0  0  0
   -4.6174   -1.4039   -1.9159 H   0  0  0  0  0  0  0  0  0  0  0  0
   -3.5094   -2.2414   -0.7704 H   0  0  0  0  0  0  0  0  0  0  0  0
   -3.6066    1.1428   -1.6491 C   0  0  0  0  0  0  0  0  0  0  0  0
   -3.5052    2.0997   -1.0999 H   0  0  0  0  0  0  0  0  0  0  0  0
   -4.6169    1.1011   -2.1042 H   0  0  0  0  0  0  0  0  0  0  0  0
   -2.8470    1.1458   -2.4550 H   0  0  0  0  0  0  0  0  0  0  0  0
   -4.3898    0.0364    0.4740 C   0  0  0  0  0  0  0  0  0  0  0  0
   -4.2666   -0.8151    1.1768 H   0  0  0  0  0  0  0  0  0  0  0  0
   -5.4316    0.0082    0.0977 H   0  0  0  0  0  0  0  0  0  0  0  0
   -4.2660    0.9841    1.0403 H   0  0  0  0  0  0  0  0  0  0  0  0
    3.6079   -1.3782   -1.4579 C   0  0  0  0  0  0  0  0  0  0  0  0
    4.6174   -1.4038   -1.9159 H   0  0  0  0  0  0  0  0  0  0  0  0
    2.8471   -1.5042   -2.2527 H   0  0  0  0  0  0  0  0  0  0  0  0
    3.5095   -2.2414   -0.7704 H   0  0  0  0  0  0  0  0  0  0  0  0
    3.6065    1.1429   -1.6491 C   0  0  0  0  0  0  0  0  0  0  0  0
    3.5051    2.0997   -1.0999 H   0  0  0  0  0  0  0  0  0  0  0  0
    2.8470    1.1459   -2.4550 H   0  0  0  0  0  0  0  0  0  0  0  0
    4.6168    1.1012   -2.1042 H   0  0  0  0  0  0  0  0  0  0  0  0
    4.3898    0.0365    0.4740 C   0  0  0  0  0  0  0  0  0  0  0  0
    4.2667   -0.8150    1.1768 H   0  0  0  0  0  0  0  0  0  0  0  0
    4.2660    0.9842    1.0403 H   0  0  0  0  0  0  0  0  0  0  0  0
    5.4316    0.0084    0.0977 H   0  0  0  0  0  0  0  0  0  0  0  0
   -1.2504   -3.1568    1.2225 C   0  0  0  0  0  0  0  0  0  0  0  0
   -2.1851   -2.7036    1.6142 H   0  0  0  0  0  0  0  0  0  0  0  0
   -1.2554   -4.2269    1.5112 H   0  0  0  0  0  0  0  0  0  0  0  0
   -1.2406   -3.0786    0.1170 H   0  0  0  0  0  0  0  0  0  0  0  0
    0.0000   -2.5619    3.3498 C   0  0  0  0  0  0  0  0  0  0  0  0
    0.8985   -2.0651    3.7710 H   0  0  0  0  0  0  0  0  0  0  0  0
    0.0000   -3.6164    3.6927 H   0  0  0  0  0  0  0  0  0  0  0  0
   -0.8985   -2.0651    3.7710 H   0  0  0  0  0  0  0  0  0  0  0  0
    1.2504   -3.1568    1.2225 C   0  0  0  0  0  0  0  0  0  0  0  0
    1.2406   -3.0786    0.1170 H   0  0  0  0  0  0  0  0  0  0  0  0
    1.2555   -4.2268    1.5112 H   0  0  0  0  0  0  0  0  0  0  0  0
    2.1851   -2.7036    1.6142 H   0  0  0  0  0  0  0  0  0  0  0  0
  3  1  1  0  0  0  0
  4  2  1  0  0  0  0
  5  1  1  0  0  0  0
  5  2  1  0  0  0  0
  5  8  1  0  0  0  0
  6  3  1  0  0  0  0
  6 17  1  0  0  0  0
  7  4  1  0  0  0  0
  7 29  1  0  0  0  0
  8 37  1  0  0  0  0
  9 12  1  0  0  0  0
  9  6  1  0  0  0  0
 10  9  1  0  0  0  0
 11  9  1  0  0  0  0
 13 14  1  0  0  0  0
 13  6  1  0  0  0  0
 15 13  1  0  0  0  0
 16 13  1  0  0  0  0
 17 20  1  0  0  0  0
 17 18  1  0  0  0  0
 19 17  1  0  0  0  0
 21 24  1  0  0  0  0
 21  7  1  0  0  0  0
 22 21  1  0  0  0  0
 23 21  1  0  0  0  0
 25 26  1  0  0  0  0
 25  7  1  0  0  0  0
 27 25  1  0  0  0  0
 28 25  1  0  0  0  0
 29 31  1  0  0  0  0
 29 30  1  0  0  0  0
 32 29  1  0  0  0  0
 33 35  1  0  0  0  0
 33 34  1  0  0  0  0
 33  8  1  0  0  0  0
 36 33  1  0  0  0  0
 37 39  1  0  0  0  0
 37 40  1  0  0  0  0
 37 38  1  0  0  0  0
 41 43  1  0  0  0  0
 41 44  1  0  0  0  0
 41  8  1  0  0  0  0
 42 41  1  0  0  0  0
M  END
