1,4
q = 0.0, confidence = 0.97

 33 35  0  0  0  0  0  0  0  0999 V2000
   -1.7054   -2.4819    0.1218 N   0  0  0  0  0  2  0  0  0  0  0  0
   -3.8230   -2.5096   -0.6236 N   0  0  0  0  0  0  0  0  0  0  0  0
   -2.4684   -0.5927   -1.1635 N   0  0  0  0  0  0  0  0  0  0  0  0
   -1.2260   -0.2160   -1.1295 N   0  0  0  0  0  2  0  0  0  0  0  0
   -2.2976   -3.6436    0.5312 C   0  0  0  0  0  0  0  0  0  0  0  0
   -1.7712   -4.3888    1.1379 H   0  0  0  0  0  0  0  0  0  0  0  0
   -3.6174   -3.6721    0.0807 C   0  0  0  0  0  0  0  0  0  0  0  0
   -4.4103   -4.4154    0.2151 H   0  0  0  0  0  0  0  0  0  0  0  0
   -2.6422   -1.8083   -0.5880 C   0  0  0  0  0  0  0  0  0  0  0  0
   -5.0744   -2.0314   -1.2203 C   0  0  0  0  0  0  0  0  0  0  0  0
   -5.6483   -2.9235   -1.5388 H   0  0  0  0  0  0  0  0  0  0  0  0
   -4.8009   -1.4647   -2.1308 H   0  0  0  0  0  0  0  0  0  0  0  0
   -5.8762   -1.1598   -0.2567 C   0  0  0  0  0  0  0  0  0  0  0  0
   -6.8090   -0.8179   -0.7460 H   0  0  0  0  0  0  0  0  0  0  0  0
   -5.2932   -0.2642    0.0369 H   0  0  0  0  0  0  0  0  0  0  0  0
   -6.1536   -1.7179    0.6595 H   0  0  0  0  0  0  0  0  0  0  0  0
   -0.9695    1.1226   -1.4504 C   0  0  0  0  0  0  0  0  0  0  0  0
   -1.9749    2.0961   -1.3525 C   0  0  0  0  0  0  0  0  0  0  0  0
   -2.9876    1.7695   -1.0814 H   0  0  0  0  0  0  0  0  0  0  0  0
   -1.6744    3.4599   -1.5266 C   0  0  0  0  0  0  0  0  0  0  0  0
   -2.4740    4.2083   -1.4262 H   0  0  0  0  0  0  0  0  0  0  0  0
   -0.3655    3.8622   -1.7739 C   0  0  0  0  0  0  0  0  0  0  0  0
   -0.1215    4.9309   -1.8737 H   0  0  0  0  0  0  0  0  0  0  0  0
    0.6840    2.9076   -1.8989 C   0  0  0  0  0  0  0  0  0  0  0  0
    0.3859    1.5022   -1.7719 C   0  0  0  0  0  0  0  0  0  0  0  0
    1.4337    0.5631   -1.9730 C   0  0  0  0  0  0  0  0  0  0  0  0
    1.2054   -0.5121   -1.9464 H   0  0  0  0  0  0  0  0  0  0  0  0
    2.7340    0.9886   -2.2148 C   0  0  0  0  0  0  0  0  0  0  0  0
    3.5313    0.2447   -2.3658 H   0  0  0  0  0  0  0  0  0  0  0  0
    3.0396    2.3724   -2.2892 C   0  0  0  0  0  0  0  0  0  0  0  0
    4.0728    2.6969   -2.4828 H   0  0  0  0  0  0  0  0  0  0  0  0
    2.0283    3.3113   -2.1497 C   0  0  0  0  0  0  0  0  0  0  0  0
    2.2477    4.3862   -2.2374 H   0  0  0  0  0  0  0  0  0  0  0  0
  1  5  1  0  0  0  0
  2  9  1  0  0  0  0
  2  7  1  0  0  0  0
  3  4  1  0  0  0  0
  3  9  2  0  0  0  0
  5  6  1  0  0  0  0
  7  8  1  0  0  0  0
  7  5  2  0  0  0  0
  9  1  1  0  0  0  0
 10  2  1  0  0  0  0
 10 13  1  0  0  0  0
 11 10  1  0  0  0  0
 12 10  1  0  0  0  0
 13 15  1  0  0  0  0
 13 16  1  0  0  0  0
 14 13  1  0  0  0  0
 17 18  1  0  0  0  0
 17  4  1  0  0  0  0
 18 19  1  0  0  0  0
 20 21  1  0  0  0  0
 20 18  2  0  0  0  0
 22 20  1  0  0  0  0
 23 22  1  0  0  0  0
 24 22  2  0  0  0  0
 24 25  1  0  0  0  0
 25 17  2  0  0  0  0
 26 27  1  0  0  0  0
 26 25  1  0  0  0  0
 28 26  2  0  0  0  0
 29 28  1  0  0  0  0
 30 28  1  0  0  0  0
 30 32  2  0  0  0  0
 31 30  1  0  0  0  0
 32 24  1  0  0  0  0
 33 32  1  0  0  0  0
M  END
