1,25
q = -1.0, confidence = 0.0

 39 39  0  0  1  0  0  0  0  0999 V2000
   -0.6276    1.5636    0.6747 N   0  0  0  0  0  2  0  0  0  0  0  0
   -1.3329    2.7999    0.9834 C   0  0  0  0  0  0  0  0  0  0  0  0
   -0.7032    3.6580    0.6382 H   0  0  0  0  0  0  0  0  0  0  0  0
   -2.6564    2.8853    0.2197 C   0  0  0  0  0  0  0  0  0  0  0  0
   -3.1408    3.8660    0.3976 H   0  0  0  0  0  0  0  0  0  0  0  0
   -3.3538    2.0923    0.5580 H   0  0  0  0  0  0  0  0  0  0  0  0
   -2.4790    2.7486   -0.8644 H   0  0  0  0  0  0  0  0  0  0  0  0
   -1.5354    2.9362    2.5017 C   0  0  0  0  0  0  0  0  0  0  0  0
   -2.0327    3.8944    2.7575 H   0  0  0  0  0  0  0  0  0  0  0  0
   -0.5698    2.8886    3.0457 H   0  0  0  0  0  0  0  0  0  0  0  0
   -2.1685    2.1057    2.8773 H   0  0  0  0  0  0  0  0  0  0  0  0
    0.6956    1.4721    0.4986 C   0  0  2  0  0  3  0  0  0  0  0  0
    1.6238    2.4382    0.8211 N   0  0  0  0  0  0  0  0  0  0  0  0
    1.1957    3.2591    1.2609 H   0  0  0  0  0  0  0  0  0  0  0  0
    2.6905    2.8046   -0.1355 C   0  0  0  0  0  0  0  0  0  0  0  0
    3.1559    1.8545   -0.4675 H   0  0  0  0  0  0  0  0  0  0  0  0
    3.7486    3.6231    0.6018 C   0  0  0  0  0  0  0  0  0  0  0  0
    4.5763    3.8963   -0.0814 H   0  0  0  0  0  0  0  0  0  0  0  0
    4.1706    3.0555    1.4546 H   0  0  0  0  0  0  0  0  0  0  0  0
    3.3169    4.5692    0.9947 H   0  0  0  0  0  0  0  0  0  0  0  0
    2.1196    3.5256   -1.3618 C   0  0  0  0  0  0  0  0  0  0  0  0
    2.9163    3.7267   -2.1066 H   0  0  0  0  0  0  0  0  0  0  0  0
    1.6740    4.5019   -1.0717 H   0  0  0  0  0  0  0  0  0  0  0  0
    1.3320    2.9128   -1.8470 H   0  0  0  0  0  0  0  0  0  0  0  0
    0.9556    0.2818   -0.0850 N   0  0  0  0  0  2  0  0  0  0  0  0
    2.1318   -0.4560   -0.1283 C   0  0  0  0  0  0  0  0  0  0  0  0
    3.1693   -0.3180    0.8281 C   0  0  0  0  0  0  0  0  0  0  0  0
    3.0652    0.4240    1.6329 H   0  0  0  0  0  0  0  0  0  0  0  0
    4.3096   -1.1293    0.7604 C   0  0  0  0  0  0  0  0  0  0  0  0
    5.0982   -1.0040    1.5203 H   0  0  0  0  0  0  0  0  0  0  0  0
    4.4691   -2.1088   -0.2398 C   0  0  0  0  0  0  0  0  0  0  0  0
    3.4277   -2.2430   -1.1840 C   0  0  0  0  0  0  0  0  0  0  0  0
    3.5195   -2.9954   -1.9844 H   0  0  0  0  0  0  0  0  0  0  0  0
    2.2862   -1.4381   -1.1369 C   0  0  0  0  0  0  0  0  0  0  0  0
    1.4891   -1.5341   -1.8887 H   0  0  0  0  0  0  0  0  0  0  0  0
    5.7055   -2.9690   -0.3162 C   0  0  0  0  0  0  0  0  0  0  0  0
    5.4512   -4.0427   -0.4352 H   0  0  0  0  0  0  0  0  0  0  0  0
    6.3295   -2.8675    0.5934 H   0  0  0  0  0  0  0  0  0  0  0  0
    6.3407   -2.6936   -1.1859 H   0  0  0  0  0  0  0  0  0  0  0  0
  1  2  1  0  0  0  0
  2  8  1  0  0  0  0
  3  2  1  0  0  0  0
  4  5  1  0  0  0  0
  4  6  1  0  0  0  0
  4  2  1  0  0  0  0
  7  4  1  0  0  0  0
  8  9  1  0  0  0  0
  8 11  1  0  0  0  0
  8 10  1  0  0  0  0
 12 25  1  6  0  0  0
 12  1  1  0  0  0  0
 12 13  1  0  0  0  0
 13 14  1  0  0  0  0
 15 17  1  0  0  0  0
 15 13  1  0  0  0  0
 16 15  1  0  0  0  0
 17 20  1  0  0  0  0
 17 19  1  0  0  0  0
 18 17  1  0  0  0  0
 21 23  1  0  0  0  0
 21 15  1  0  0  0  0
 22 21  1  0  0  0  0
 24 21  1  0  0  0  0
 26 25  1  0  0  0  0
 26 27  1  0  0  0  0
 27 28  1  0  0  0  0
 29 27  2  0  0  0  0
 29 30  1  0  0  0  0
 31 29  1  0  0  0  0
 32 34  1  0  0  0  0
 32 31  2  0  0  0  0
 33 32  1  0  0  0  0
 34 26  2  0  0  0  0
 35 34  1  0  0  0  0
 36 31  1  0  0  0  0
 36 38  1  0  0  0  0
 37 36  1  0  0  0  0
 39 36  1  0  0  0  0
M  END
