6,7
q = -1.0, confidence = 0.01

 25 26  0  0  0  0  0  0  0  0999 V2000
   -4.5070    4.7793   -0.8897 O   0  0  0  0  0  0  0  0  0  0  0  0
   -5.4107    5.1567   -0.9566 H   0  0  0  0  0  0  0  0  0  0  0  0
   -5.7760    2.9358   -0.5272 O   0  0  0  0  0  0  0  0  0  0  0  0
   -5.4413   -3.3936    0.1110 O   0  5  0  0  0  0  0  0  0  0  0  0
   -4.3210   -4.9036    1.4113 O   0  0  0  0  0  0  0  0  0  0  0  0
   -1.0133    1.2707   -0.2302 N   0  0  0  0  0  2  0  0  0  0  0  0
   -0.9183   -1.3612    0.2644 N   0  0  0  0  0  2  0  0  0  0  0  0
   -2.2208    0.6318   -0.1057 C   0  0  0  0  0  0  0  0  0  0  0  0
   -3.4201    1.3543   -0.2399 C   0  0  0  0  0  0  0  0  0  0  0  0
   -4.3960    0.8598   -0.1422 H   0  0  0  0  0  0  0  0  0  0  0  0
   -3.3823    2.7300   -0.5007 C   0  0  0  0  0  0  0  0  0  0  0  0
   -2.1281    3.3689   -0.6230 C   0  0  0  0  0  0  0  0  0  0  0  0
   -2.0614    4.4455   -0.8249 H   0  0  0  0  0  0  0  0  0  0  0  0
   -0.9752    2.5999   -0.4778 C   0  0  0  0  0  0  0  0  0  0  0  0
    0.0313    3.0383   -0.5607 H   0  0  0  0  0  0  0  0  0  0  0  0
   -4.6816    3.4583   -0.6340 C   0  0  0  0  0  0  0  0  0  0  0  0
   -2.1737   -0.8135    0.1678 C   0  0  0  0  0  0  0  0  0  0  0  0
   -3.3185   -1.6104    0.3152 C   0  0  0  0  0  0  0  0  0  0  0  0
   -4.3409   -1.2301    0.1688 H   0  0  0  0  0  0  0  0  0  0  0  0
   -3.1932   -2.9742    0.6214 C   0  0  0  0  0  0  0  0  0  0  0  0
   -1.8974   -3.5034    0.7640 C   0  0  0  0  0  0  0  0  0  0  0  0
   -1.7939   -4.5610    1.0498 H   0  0  0  0  0  0  0  0  0  0  0  0
   -0.7924   -2.6792    0.5429 C   0  0  0  0  0  0  0  0  0  0  0  0
    0.2418   -3.0534    0.6016 H   0  0  0  0  0  0  0  0  0  0  0  0
   -4.4501   -3.8585    0.7371 C   0  0  0  0  0  0  0  0  0  0  0  0
  1 16  1  0  0  0  0
  2  1  1  0  0  0  0
  4 25  1  0  0  0  0
  6  8  1  0  0  0  0
  7 23  1  0  0  0  0
  8 17  2  0  0  0  0
  9 10  1  0  0  0  0
  9  8  1  0  0  0  0
 11  9  2  0  0  0  0
 12 11  1  0  0  0  0
 12 14  2  0  0  0  0
 13 12  1  0  0  0  0
 14  6  1  0  0  0  0
 15 14  1  0  0  0  0
 16  3  2  0  0  0  0
 16 11  1  0  0  0  0
 17  7  1  0  0  0  0
 17 18  1  0  0  0  0
 18 20  2  0  0  0  0
 19 18  1  0  0  0  0
 20 25  1  0  0  0  0
 20 21  1  0  0  0  0
 21 22  1  0  0  0  0
 23 24  1  0  0  0  0
 23 21  2  0  0  0  0
 25  5  2  0  0  0  0
M  CHG  1   4  -1
M  END
