3,4
q = -2.0, confidence = 0.778

 49 49  0  0  0  0  0  0  0  0999 V2000
    1.0045    3.1476   -0.4603 Si  0  0  0  0  0  0  0  0  0  0  0  0
   -0.7337   -3.0287   -0.6383 Si  0  0  0  0  0  0  0  0  0  0  0  0
   -0.5461   -1.2904   -0.9831 N   0  0  0  0  0  2  0  0  0  0  0  0
    0.1554    1.6274   -0.8290 N   0  0  0  0  0  2  0  0  0  0  0  0
   -3.7574   -0.3455   -0.7894 N   0  0  0  0  0  0  0  0  0  0  0  0
   -1.8874    0.6212   -2.0152 C   0  0  0  0  0  0  0  0  0  0  0  0
   -2.8398    0.6421   -0.8133 C   0  0  0  0  0  0  0  0  0  0  0  0
   -2.8120    1.6433    0.1796 C   0  0  0  0  0  0  0  0  0  0  0  0
   -2.0469    2.4271    0.1563 H   0  0  0  0  0  0  0  0  0  0  0  0
   -3.7589    1.6078    1.2131 C   0  0  0  0  0  0  0  0  0  0  0  0
   -3.7481    2.3790    1.9988 H   0  0  0  0  0  0  0  0  0  0  0  0
   -4.7026    0.5728    1.2368 C   0  0  0  0  0  0  0  0  0  0  0  0
   -5.4588    0.4993    2.0322 H   0  0  0  0  0  0  0  0  0  0  0  0
   -4.6522   -0.3798    0.2065 C   0  0  0  0  0  0  0  0  0  0  0  0
   -5.3726   -1.2178    0.1874 H   0  0  0  0  0  0  0  0  0  0  0  0
   -2.7307    0.8911   -3.2813 C   0  0  0  0  0  0  0  0  0  0  0  0
   -2.1114    0.7851   -4.1957 H   0  0  0  0  0  0  0  0  0  0  0  0
   -3.1531    1.9159   -3.2662 H   0  0  0  0  0  0  0  0  0  0  0  0
   -3.5713    0.1731   -3.3325 H   0  0  0  0  0  0  0  0  0  0  0  0
   -0.7923    1.7114   -1.9459 C   0  0  0  0  0  0  0  0  0  0  0  0
   -0.2532    1.6784   -2.9235 H   0  0  0  0  0  0  0  0  0  0  0  0
   -1.3171    2.6978   -1.9379 H   0  0  0  0  0  0  0  0  0  0  0  0
   -1.2668   -0.7962   -2.1619 C   0  0  0  0  0  0  0  0  0  0  0  0
   -2.1153   -1.4752   -2.4000 H   0  0  0  0  0  0  0  0  0  0  0  0
   -0.6115   -0.7804   -3.0664 H   0  0  0  0  0  0  0  0  0  0  0  0
   -0.2365    4.4398    0.1721 C   0  0  0  0  0  0  0  0  0  0  0  0
   -1.0820    4.6015   -0.5273 H   0  0  0  0  0  0  0  0  0  0  0  0
    0.2692    5.4183    0.3084 H   0  0  0  0  0  0  0  0  0  0  0  0
   -0.6539    4.1388    1.1551 H   0  0  0  0  0  0  0  0  0  0  0  0
    1.8162    3.8069   -2.0390 C   0  0  0  0  0  0  0  0  0  0  0  0
    1.0678    4.0034   -2.8335 H   0  0  0  0  0  0  0  0  0  0  0  0
    2.5502    3.0750   -2.4332 H   0  0  0  0  0  0  0  0  0  0  0  0
    2.3519    4.7581   -1.8395 H   0  0  0  0  0  0  0  0  0  0  0  0
    2.3149    2.9094    0.8734 C   0  0  0  0  0  0  0  0  0  0  0  0
    1.8784    2.4963    1.8033 H   0  0  0  0  0  0  0  0  0  0  0  0
    2.7591    3.8982    1.1118 H   0  0  0  0  0  0  0  0  0  0  0  0
    3.1248    2.2299    0.5473 H   0  0  0  0  0  0  0  0  0  0  0  0
    0.4464   -3.5824    0.7266 C   0  0  0  0  0  0  0  0  0  0  0  0
    1.5060   -3.4505    0.4336 H   0  0  0  0  0  0  0  0  0  0  0  0
    0.2723   -4.6590    0.9319 H   0  0  0  0  0  0  0  0  0  0  0  0
    0.2825   -3.0193    1.6656 H   0  0  0  0  0  0  0  0  0  0  0  0
   -2.5115   -3.3982   -0.1107 C   0  0  0  0  0  0  0  0  0  0  0  0
   -3.2369   -2.9859   -0.8399 H   0  0  0  0  0  0  0  0  0  0  0  0
   -2.7284   -2.9277    0.8698 H   0  0  0  0  0  0  0  0  0  0  0  0
   -2.6774   -4.4918   -0.0196 H   0  0  0  0  0  0  0  0  0  0  0  0
   -0.3324   -3.9958   -2.2182 C   0  0  0  0  0  0  0  0  0  0  0  0
   -1.0043   -3.7128   -3.0539 H   0  0  0  0  0  0  0  0  0  0  0  0
   -0.4466   -5.0868   -2.0504 H   0  0  0  0  0  0  0  0  0  0  0  0
    0.7122   -3.8042   -2.5381 H   0  0  0  0  0  0  0  0  0  0  0  0
  1 26  1  0  0  0  0
  1 34  1  0  0  0  0
  2 42  1  0  0  0  0
  2 38  1  0  0  0  0
  3  2  1  0  0  0  0
  4  1  1  0  0  0  0
  5 14  1  0  0  0  0
  6 20  1  0  0  0  0
  6  7  1  0  0  0  0
  7  5  2  0  0  0  0
  7  8  1  0  0  0  0
  8 10  2  0  0  0  0
  9  8  1  0  0  0  0
 10 12  1  0  0  0  0
 10 11  1  0  0  0  0
 12 13  1  0  0  0  0
 14 12  2  0  0  0  0
 15 14  1  0  0  0  0
 16 18  1  0  0  0  0
 16  6  1  0  0  0  0
 17 16  1  0  0  0  0
 19 16  1  0  0  0  0
 20 22  1  0  0  0  0
 20  4  1  0  0  0  0
 21 20  1  0  0  0  0
 23  6  1  0  0  0  0
 23  3  1  0  0  0  0
 24 23  1  0  0  0  0
 25 23  1  0  0  0  0
 26 28  1  0  0  0  0
 26 29  1  0  0  0  0
 27 26  1  0  0  0  0
 30 33  1  0  0  0  0
 30  1  1  0  0  0  0
 31 30  1  0  0  0  0
 32 30  1  0  0  0  0
 34 36  1  0  0  0  0
 34 35  1  0  0  0  0
 37 34  1  0  0  0  0
 38 40  1  0  0  0  0
 38 41  1  0  0  0  0
 39 38  1  0  0  0  0
 42 45  1  0  0  0  0
 42 44  1  0  0  0  0
 43 42  1  0  0  0  0
 46 48  1  0  0  0  0
 46  2  1  0  0  0  0
 47 46  1  0  0  0  0
 49 46  1  0  0  0  0
M  END
