2,3
q = 0.0, confidence = 1.0

 20 20  0  0  1  0  0  0  0  0999 V2000
   -2.6962    1.3034    1.4001 O   0  0  0  0  0  0  0  0  0  0  0  0
   -0.3558   -1.7338   -0.4530 N   0  0  0  0  0  0  0  0  0  0  0  0
   -0.9612    0.9676   -0.7837 N   0  0  0  0  0  0  0  0  0  0  0  0
   -1.7892   -1.3573   -0.4596 C   0  0  2  0  0  0  0  0  0  0  0  0
   -2.0173   -0.0126   -1.1951 C   0  0  1  0  0  0  0  0  0  0  0  0
   -3.4046    0.3837   -0.6682 C   0  0  0  0  0  0  0  0  0  0  0  0
   -3.2901    0.1245    0.8463 C   0  0  1  0  0  0  0  0  0  0  0  0
   -2.3678   -1.1245    0.9571 C   0  0  0  0  0  0  0  0  0  0  0  0
   -2.3856   -2.1376   -0.9814 H   0  0  0  0  0  0  0  0  0  0  0  0
   -1.9710   -0.1339   -2.2954 H   0  0  0  0  0  0  0  0  0  0  0  0
   -2.3788    1.1063    2.3015 H   0  0  0  0  0  0  0  0  0  0  0  0
   -0.0736   -2.1511   -1.3533 H   0  0  0  0  0  0  0  0  0  0  0  0
   -0.1242   -2.4333    0.2727 H   0  0  0  0  0  0  0  0  0  0  0  0
   -1.3073    1.5017    0.0383 H   0  0  0  0  0  0  0  0  0  0  0  0
   -0.7568    1.6476   -1.5305 H   0  0  0  0  0  0  0  0  0  0  0  0
   -3.6846    1.4332   -0.8834 H   0  0  0  0  0  0  0  0  0  0  0  0
   -4.1774   -0.2748   -1.1136 H   0  0  0  0  0  0  0  0  0  0  0  0
   -4.2836   -0.0573    1.3142 H   0  0  0  0  0  0  0  0  0  0  0  0
   -1.5368   -0.9195    1.6646 H   0  0  0  0  0  0  0  0  0  0  0  0
   -2.9168   -2.0139    1.3232 H   0  0  0  0  0  0  0  0  0  0  0  0
  1 11  1  0  0  0  0
  2 13  1  0  0  0  0
  3 14  1  0  0  0  0
  4  9  1  6  0  0  0
  4  2  1  0  0  0  0
  4  8  1  0  0  0  0
  5 10  1  6  0  0  0
  5  3  1  0  0  0  0
  5  6  1  0  0  0  0
  5  4  1  0  0  0  0
  6  7  1  0  0  0  0
  7  8  1  0  0  0  0
  7 18  1  1  0  0  0
  7  1  1  0  0  0  0
  8 20  1  0  0  0  0
  8 19  1  0  0  0  0
 12  2  1  0  0  0  0
 15  3  1  0  0  0  0
 16  6  1  0  0  0  0
 17  6  1  0  0  0  0
M  END
