1,2
q = 0.0, confidence = 0.992

 19 19  0  0  1  0  0  0  0  0999 V2000
   -0.6548   -1.5498   -0.5226 N   0  0  0  0  0  0  0  0  0  0  0  0
   -1.0344    1.2113   -0.3267 N   0  0  0  0  0  0  0  0  0  0  0  0
   -2.0472   -1.0489   -0.4142 C   0  0  2  0  0  0  0  0  0  0  0  0
   -2.1634    0.4148   -0.9014 C   0  0  1  0  0  0  0  0  0  0  0  0
   -3.5321    0.8303   -0.3471 C   0  0  0  0  0  0  0  0  0  0  0  0
   -3.6111    0.1568    1.0518 C   0  0  0  0  0  0  0  0  0  0  0  0
   -2.5614   -0.9894    1.0360 C   0  0  0  0  0  0  0  0  0  0  0  0
   -2.7286   -1.6724   -1.0341 H   0  0  0  0  0  0  0  0  0  0  0  0
   -2.0849    0.4916   -2.0037 H   0  0  0  0  0  0  0  0  0  0  0  0
   -0.4446   -1.8781   -1.4775 H   0  0  0  0  0  0  0  0  0  0  0  0
   -0.4724   -2.3522    0.1025 H   0  0  0  0  0  0  0  0  0  0  0  0
   -1.2749    1.5918    0.6028 H   0  0  0  0  0  0  0  0  0  0  0  0
   -0.8063    2.0313   -0.9103 H   0  0  0  0  0  0  0  0  0  0  0  0
   -3.6577    1.9312   -0.3221 H   0  0  0  0  0  0  0  0  0  0  0  0
   -4.3229    0.4357   -1.0166 H   0  0  0  0  0  0  0  0  0  0  0  0
   -4.6334   -0.2164    1.2531 H   0  0  0  0  0  0  0  0  0  0  0  0
   -3.3862    0.8794    1.8617 H   0  0  0  0  0  0  0  0  0  0  0  0
   -1.6999   -0.7557    1.6975 H   0  0  0  0  0  0  0  0  0  0  0  0
   -2.9752   -1.9612    1.3679 H   0  0  0  0  0  0  0  0  0  0  0  0
  1  3  1  0  0  0  0
  1 11  1  0  0  0  0
  2 12  1  0  0  0  0
  3  8  1  6  0  0  0
  3  7  1  0  0  0  0
  4  9  1  6  0  0  0
  4  3  1  0  0  0  0
  4  5  1  0  0  0  0
  4  2  1  0  0  0  0
  5 14  1  0  0  0  0
  5  6  1  0  0  0  0
  6 16  1  0  0  0  0
  6 17  1  0  0  0  0
  7  6  1  0  0  0  0
  7 19  1  0  0  0  0
  7 18  1  0  0  0  0
 10  1  1  0  0  0  0
 13  2  1  0  0  0  0
 15  5  1  0  0  0  0
M  END
