2,3
q = 0.0, confidence = 1.0

 20 20  0  0  1  0  0  0  0  0999 V2000
    4.7570   -0.5038   -0.2461 O   0  0  0  0  0  0  0  0  0  0  0  0
    0.5262   -1.4127    0.6336 N   0  0  0  0  0  0  0  0  0  0  0  0
    0.6583    1.3586    0.3514 N   0  0  0  0  0  0  0  0  0  0  0  0
    1.8724   -0.8098    0.5006 C   0  0  1  0  0  0  0  0  0  0  0  0
    2.4168   -0.7710   -0.9289 C   0  0  0  0  0  0  0  0  0  0  0  0
    3.6279    0.1750   -0.7888 C   0  0  1  0  0  0  0  0  0  0  0  0
    3.1917    1.2169    0.2775 C   0  0  0  0  0  0  0  0  0  0  0  0
    1.8813    0.6875    0.9026 C   0  0  1  0  0  0  0  0  0  0  0  0
    2.6118   -1.3417    1.1375 H   0  0  0  0  0  0  0  0  0  0  0  0
    5.0733   -1.1350   -0.9184 H   0  0  0  0  0  0  0  0  0  0  0  0
    1.8437    0.8103    2.0021 H   0  0  0  0  0  0  0  0  0  0  0  0
    0.3381   -1.7003    1.6064 H   0  0  0  0  0  0  0  0  0  0  0  0
    0.4135   -2.2633    0.0574 H   0  0  0  0  0  0  0  0  0  0  0  0
    2.7043   -1.7666   -1.3234 H   0  0  0  0  0  0  0  0  0  0  0  0
    1.6415   -0.3523   -1.6076 H   0  0  0  0  0  0  0  0  0  0  0  0
    3.8825    0.6593   -1.7591 H   0  0  0  0  0  0  0  0  0  0  0  0
    4.0039    1.2922    1.0251 H   0  0  0  0  0  0  0  0  0  0  0  0
    3.0472    2.2291   -0.1498 H   0  0  0  0  0  0  0  0  0  0  0  0
    0.8418    1.7831   -0.5716 H   0  0  0  0  0  0  0  0  0  0  0  0
    0.3479    2.1374    0.9529 H   0  0  0  0  0  0  0  0  0  0  0  0
  2 12  1  0  0  0  0
  3  8  1  0  0  0  0
  3 20  1  0  0  0  0
  4  2  1  0  0  0  0
  4  8  1  0  0  0  0
  4  9  1  1  0  0  0
  5  6  1  0  0  0  0
  5  4  1  0  0  0  0
  6 16  1  6  0  0  0
  6  1  1  0  0  0  0
  6  7  1  0  0  0  0
  7  8  1  0  0  0  0
  7 17  1  0  0  0  0
  8 11  1  1  0  0  0
 10  1  1  0  0  0  0
 13  2  1  0  0  0  0
 14  5  1  0  0  0  0
 15  5  1  0  0  0  0
 18  7  1  0  0  0  0
 19  3  1  0  0  0  0
M  END
