1,12
q = 0.0, confidence = 0.998

 45 46  0  0  0  0  0  0  0  0999 V2000
    2.2986    0.5684   -0.3551 N   0  0  0  0  0  2  0  0  0  0  0  0
    3.6562    0.5250   -0.4518 C   0  0  0  0  0  0  0  0  0  0  0  0
    4.3709    1.6435   -0.9437 C   0  0  0  0  0  0  0  0  0  0  0  0
    5.4666    1.5745   -0.9928 H   0  0  0  0  0  0  0  0  0  0  0  0
    3.7124    2.8012   -1.3638 C   0  0  0  0  0  0  0  0  0  0  0  0
    4.2774    3.6670   -1.7385 H   0  0  0  0  0  0  0  0  0  0  0  0
    2.3161    2.8180   -1.3148 C   0  0  0  0  0  0  0  0  0  0  0  0
    1.7322    3.6832   -1.6591 H   0  0  0  0  0  0  0  0  0  0  0  0
    1.6462    1.6898   -0.8157 C   0  0  0  0  0  0  0  0  0  0  0  0
    0.2010    1.6270   -0.7962 C   0  0  0  0  0  0  0  0  0  0  0  0
   -0.4057    2.4644   -1.1841 H   0  0  0  0  0  0  0  0  0  0  0  0
   -0.3676    0.5465   -0.3367 N   0  0  0  0  0  2  0  0  0  0  0  0
   -1.7991    0.4644   -0.3287 C   0  0  0  0  0  0  0  0  0  0  0  0
   -2.5160    1.0971    0.7154 C   0  0  0  0  0  0  0  0  0  0  0  0
   -3.9206    1.0321    0.6625 C   0  0  0  0  0  0  0  0  0  0  0  0
   -4.5089    1.5128    1.4590 H   0  0  0  0  0  0  0  0  0  0  0  0
   -4.5779    0.3537   -0.3708 C   0  0  0  0  0  0  0  0  0  0  0  0
   -5.6776    0.3184   -0.3925 H   0  0  0  0  0  0  0  0  0  0  0  0
   -3.8371   -0.2995   -1.3642 C   0  0  0  0  0  0  0  0  0  0  0  0
   -4.3595   -0.8532   -2.1592 H   0  0  0  0  0  0  0  0  0  0  0  0
   -2.4318   -0.2715   -1.3585 C   0  0  0  0  0  0  0  0  0  0  0  0
    4.4034   -0.7046   -0.0603 C   0  0  0  0  0  0  0  0  0  0  0  0
    4.0052   -1.5911   -0.5923 H   0  0  0  0  0  0  0  0  0  0  0  0
    4.2438   -0.9405    1.0114 H   0  0  0  0  0  0  0  0  0  0  0  0
    5.4809   -0.5899   -0.2768 H   0  0  0  0  0  0  0  0  0  0  0  0
   -1.8163    1.7549    1.8985 C   0  0  0  0  0  0  0  0  0  0  0  0
   -0.7224    1.6727    1.7371 H   0  0  0  0  0  0  0  0  0  0  0  0
   -2.1226    0.9877    3.1972 C   0  0  0  0  0  0  0  0  0  0  0  0
   -1.8373   -0.0773    3.0885 H   0  0  0  0  0  0  0  0  0  0  0  0
   -3.2018    1.0364    3.4508 H   0  0  0  0  0  0  0  0  0  0  0  0
   -1.5554    1.4211    4.0462 H   0  0  0  0  0  0  0  0  0  0  0  0
   -2.1591    3.2488    2.0125 C   0  0  0  0  0  0  0  0  0  0  0  0
   -1.6123    3.7122    2.8590 H   0  0  0  0  0  0  0  0  0  0  0  0
   -3.2431    3.4043    2.1922 H   0  0  0  0  0  0  0  0  0  0  0  0
   -1.8943    3.8016    1.0875 H   0  0  0  0  0  0  0  0  0  0  0  0
   -1.6284   -1.0158   -2.4165 C   0  0  0  0  0  0  0  0  0  0  0  0
   -0.5553   -0.9053   -2.1562 H   0  0  0  0  0  0  0  0  0  0  0  0
   -1.8344   -0.4048   -3.8125 C   0  0  0  0  0  0  0  0  0  0  0  0
   -1.5626    0.6707   -3.8311 H   0  0  0  0  0  0  0  0  0  0  0  0
   -2.8930   -0.4852   -4.1360 H   0  0  0  0  0  0  0  0  0  0  0  0
   -1.2129   -0.9302   -4.5663 H   0  0  0  0  0  0  0  0  0  0  0  0
   -1.9362   -2.5217   -2.3882 C   0  0  0  0  0  0  0  0  0  0  0  0
   -1.2956   -3.0608   -3.1158 H   0  0  0  0  0  0  0  0  0  0  0  0
   -2.9936   -2.7280   -2.6547 H   0  0  0  0  0  0  0  0  0  0  0  0
   -1.7427   -2.9308   -1.3771 H   0  0  0  0  0  0  0  0  0  0  0  0
  2  1  1  0  0  0  0
  2 22  1  0  0  0  0
  3  2  2  0  0  0  0
  4  3  1  0  0  0  0
  5  7  2  0  0  0  0
  5  3  1  0  0  0  0
  6  5  1  0  0  0  0
  7  9  1  0  0  0  0
  8  7  1  0  0  0  0
  9 10  2  0  0  0  0
  9  1  1  0  0  0  0
 10 12  1  0  0  0  0
 11 10  1  0  0  0  0
 12 13  1  0  0  0  0
 13 14  1  0  0  0  0
 14 26  1  0  0  0  0
 15 14  2  0  0  0  0
 15 16  1  0  0  0  0
 17 15  1  0  0  0  0
 18 17  1  0  0  0  0
 19 21  1  0  0  0  0
 19 17  2  0  0  0  0
 20 19  1  0  0  0  0
 21 13  2  0  0  0  0
 22 24  1  0  0  0  0
 23 22  1  0  0  0  0
 25 22  1  0  0  0  0
 26 32  1  0  0  0  0
 26 28  1  0  0  0  0
 27 26  1  0  0  0  0
 28 30  1  0  0  0  0
 28 31  1  0  0  0  0
 29 28  1  0  0  0  0
 32 34  1  0  0  0  0
 32 33  1  0  0  0  0
 35 32  1  0  0  0  0
 36 42  1  0  0  0  0
 36 37  1  0  0  0  0
 36 21  1  0  0  0  0
 38 36  1  0  0  0  0
 39 38  1  0  0  0  0
 40 38  1  0  0  0  0
 41 38  1  0  0  0  0
 42 45  1  0  0  0  0
 43 42  1  0  0  0  0
 44 42  1  0  0  0  0
M  END
