1,12
q = 0.0, confidence = 0.994

 22 23  0  0  1  0  0  0  0  0999 V2000
    1.2946    0.6220   -0.4592 N   0  0  0  0  0  2  0  0  0  0  0  0
    3.0942   -0.6454   -1.0283 O   0  0  0  0  0  0  0  0  0  0  0  0
    4.0681   -0.6155   -1.0688 H   0  0  0  0  0  0  0  0  0  0  0  0
    2.6268    0.5546   -0.6462 C   0  0  1  0  0  3  0  0  0  0  0  0
    3.4721    1.6685   -0.4620 C   0  0  0  0  0  0  0  0  0  0  0  0
    4.5584    1.5611   -0.6006 H   0  0  0  0  0  0  0  0  0  0  0  0
    2.9022    2.8936   -0.1075 C   0  0  0  0  0  0  0  0  0  0  0  0
    3.5394    3.7760    0.0494 H   0  0  0  0  0  0  0  0  0  0  0  0
    1.5126    2.9862    0.0258 C   0  0  0  0  0  0  0  0  0  0  0  0
    1.0378    3.9428    0.2750 H   0  0  0  0  0  0  0  0  0  0  0  0
    0.7348    1.8327   -0.1632 C   0  0  0  0  0  0  0  0  0  0  0  0
   -1.2949    0.6218   -0.4587 N   0  0  0  0  0  2  0  0  0  0  0  0
   -3.0945   -0.6458   -1.0274 O   0  0  0  0  0  0  0  0  0  0  0  0
   -4.0685   -0.6159   -1.0680 H   0  0  0  0  0  0  0  0  0  0  0  0
   -2.6271    0.5543   -0.6456 C   0  0  2  0  0  3  0  0  0  0  0  0
   -3.4726    1.6682   -0.4614 C   0  0  0  0  0  0  0  0  0  0  0  0
   -4.5588    1.5606   -0.5999 H   0  0  0  0  0  0  0  0  0  0  0  0
   -2.9027    2.8933   -0.1072 C   0  0  0  0  0  0  0  0  0  0  0  0
   -3.5399    3.7757    0.0496 H   0  0  0  0  0  0  0  0  0  0  0  0
   -1.5130    2.9860    0.0259 C   0  0  0  0  0  0  0  0  0  0  0  0
   -1.0383    3.9427    0.2748 H   0  0  0  0  0  0  0  0  0  0  0  0
   -0.7352    1.8326   -0.1630 C   0  0  0  0  0  0  0  0  0  0  0  0
  1 11  1  0  0  0  0
  3  2  1  0  0  0  0
  4  2  1  6  0  0  0
  4  5  1  0  0  0  0
  4  1  1  0  0  0  0
  5  7  2  0  0  0  0
  6  5  1  0  0  0  0
  7  9  1  0  0  0  0
  7  8  1  0  0  0  0
  9 10  1  0  0  0  0
 11 22  1  0  0  0  0
 11  9  2  0  0  0  0
 12 22  1  0  0  0  0
 14 13  1  0  0  0  0
 15 13  1  6  0  0  0
 15 16  1  0  0  0  0
 15 12  1  0  0  0  0
 16 18  2  0  0  0  0
 17 16  1  0  0  0  0
 18 20  1  0  0  0  0
 18 19  1  0  0  0  0
 20 21  1  0  0  0  0
 22 20  2  0  0  0  0
M  END
