1,2
q = 0.0, confidence = 0.998

 26 26  0  0  0  0  0  0  0  0999 V2000
   -2.1643   -0.3729   -0.2073 N   0  0  0  0  0  2  0  0  0  0  0  0
    0.0221   -1.1124    1.0534 N   0  0  0  0  0  2  0  0  0  0  0  0
    1.9976   -2.7004   -0.3882 O   0  0  0  0  0  0  0  0  0  0  0  0
    3.3042   -1.0236    0.4192 O   0  0  0  0  0  0  0  0  0  0  0  0
   -3.2824    0.0406   -0.8472 C   0  0  0  0  0  3  0  0  0  0  0  0
   -3.2539    1.0636   -1.2503 H   0  0  0  0  0  0  0  0  0  0  0  0
   -4.4118   -0.7683   -0.9999 C   0  0  0  0  0  0  0  0  0  0  0  0
   -5.2892   -0.3744   -1.5320 H   0  0  0  0  0  0  0  0  0  0  0  0
   -4.4022   -2.0730   -0.4714 C   0  0  0  0  0  0  0  0  0  0  0  0
   -5.2765   -2.7312   -0.5795 H   0  0  0  0  0  0  0  0  0  0  0  0
   -3.2560   -2.5128    0.1928 C   0  0  0  0  0  0  0  0  0  0  0  0
   -3.1946   -3.5230    0.6231 H   0  0  0  0  0  0  0  0  0  0  0  0
   -2.1515   -1.6450    0.3134 C   0  0  0  0  0  0  0  0  0  0  0  0
   -0.9223   -2.0138    0.9778 C   0  0  0  0  0  3  0  0  0  0  0  0
   -0.7939   -3.0297    1.3935 H   0  0  0  0  0  0  0  0  0  0  0  0
    1.3064   -1.5044    1.6079 C   0  0  0  0  0  0  0  0  0  0  0  0
    1.2218   -2.4165    2.2390 H   0  0  0  0  0  0  0  0  0  0  0  0
    1.7282   -0.6730    2.2000 H   0  0  0  0  0  0  0  0  0  0  0  0
    2.2381   -1.8341    0.4291 C   0  0  0  0  0  0  0  0  0  0  0  0
    4.1879   -1.1302   -0.7278 C   0  0  0  0  0  0  0  0  0  0  0  0
    3.5678   -1.0608   -1.6454 H   0  0  0  0  0  0  0  0  0  0  0  0
    4.6567   -2.1369   -0.7206 H   0  0  0  0  0  0  0  0  0  0  0  0
    5.1994   -0.0092   -0.6258 C   0  0  0  0  0  0  0  0  0  0  0  0
    4.6885    0.9730   -0.5945 H   0  0  0  0  0  0  0  0  0  0  0  0
    5.8744   -0.0301   -1.5040 H   0  0  0  0  0  0  0  0  0  0  0  0
    5.8162   -0.1075    0.2894 H   0  0  0  0  0  0  0  0  0  0  0  0
  1 13  1  0  0  0  0
  2 16  1  0  0  0  0
  3 19  2  0  0  0  0
  4 19  1  0  0  0  0
  5  1  1  0  0  0  0
  6  5  1  0  0  0  0
  7  5  1  0  0  0  0
  7  9  2  0  0  0  0
  8  7  1  0  0  0  0
  9 11  1  0  0  0  0
 10  9  1  0  0  0  0
 11 13  2  0  0  0  0
 11 12  1  0  0  0  0
 13 14  1  0  0  0  0
 14  2  1  0  0  0  0
 14 15  1  0  0  0  0
 16 18  1  0  0  0  0
 16 17  1  0  0  0  0
 19 16  1  0  0  0  0
 20 22  1  0  0  0  0
 20 23  1  0  0  0  0
 20  4  1  0  0  0  0
 21 20  1  0  0  0  0
 23 24  1  0  0  0  0
 23 26  1  0  0  0  0
 25 23  1  0  0  0  0
M  END
