1,2
q = 0.0, confidence = 1.0

 45 47  0  0  1  0  0  0  0  0999 V2000
   -0.8066    1.4824   -0.7553 N   0  0  0  0  0  2  0  0  0  0  0  0
    0.1148   -0.4229    0.6026 N   0  0  0  0  0  2  0  0  0  0  0  0
    2.0815    0.4344    1.3006 N   0  0  0  0  0  0  0  0  0  0  0  0
   -1.3362    2.2495   -1.7313 C   0  0  0  0  0  3  0  0  0  0  0  0
   -2.3725    2.0226   -2.0104 H   0  0  0  0  0  0  0  0  0  0  0  0
   -0.6107    3.2536   -2.3761 C   0  0  0  0  0  0  0  0  0  0  0  0
   -1.0932    3.8538   -3.1597 H   0  0  0  0  0  0  0  0  0  0  0  0
    0.7318    3.4419   -2.0238 C   0  0  0  0  0  0  0  0  0  0  0  0
    1.3469    4.2020   -2.5265 H   0  0  0  0  0  0  0  0  0  0  0  0
    1.2944    2.6251   -1.0372 C   0  0  0  0  0  0  0  0  0  0  0  0
    2.3552    2.7211   -0.7897 H   0  0  0  0  0  0  0  0  0  0  0  0
    0.5097    1.6519   -0.3959 C   0  0  0  0  0  0  0  0  0  0  0  0
    0.9609    0.6039    0.5416 C   0  0  1  0  0  3  0  0  0  0  0  0
    1.9557   -0.8811    1.9671 C   0  0  0  0  0  0  0  0  0  0  0  0
    1.7192   -0.7409    3.0435 H   0  0  0  0  0  0  0  0  0  0  0  0
    2.8982   -1.4534    1.8837 H   0  0  0  0  0  0  0  0  0  0  0  0
    0.8085   -1.5670    1.2026 C   0  0  2  0  0  0  0  0  0  0  0  0
    0.1267   -2.1031    1.8901 H   0  0  0  0  0  0  0  0  0  0  0  0
    1.2731   -2.5674    0.1048 C   0  0  0  0  0  0  0  0  0  0  0  0
    1.5268   -3.5173    0.6194 H   0  0  0  0  0  0  0  0  0  0  0  0
    0.4001   -2.7593   -0.5519 H   0  0  0  0  0  0  0  0  0  0  0  0
    2.4577   -2.0974   -0.7081 C   0  0  0  0  0  0  0  0  0  0  0  0
    3.7653   -2.5064   -0.3666 C   0  0  0  0  0  0  0  0  0  0  0  0
    3.9124   -3.2214    0.4597 H   0  0  0  0  0  0  0  0  0  0  0  0
    4.8787   -2.0465   -1.0876 C   0  0  0  0  0  0  0  0  0  0  0  0
    5.8880   -2.3901   -0.8148 H   0  0  0  0  0  0  0  0  0  0  0  0
    4.7011   -1.1667   -2.1672 C   0  0  0  0  0  0  0  0  0  0  0  0
    5.5713   -0.8128   -2.7404 H   0  0  0  0  0  0  0  0  0  0  0  0
    3.4044   -0.7632   -2.5253 C   0  0  0  0  0  0  0  0  0  0  0  0
    3.2545   -0.0967   -3.3887 H   0  0  0  0  0  0  0  0  0  0  0  0
    2.2915   -1.2247   -1.8059 C   0  0  0  0  0  0  0  0  0  0  0  0
    1.2729   -0.9386   -2.1113 H   0  0  0  0  0  0  0  0  0  0  0  0
    3.2012    1.3708    1.6369 C   0  0  0  0  0  0  0  0  0  0  0  0
    4.2319    1.3798    0.4911 C   0  0  0  0  0  0  0  0  0  0  0  0
    4.6570    0.3668    0.3527 H   0  0  0  0  0  0  0  0  0  0  0  0
    5.0586    2.0794    0.7236 H   0  0  0  0  0  0  0  0  0  0  0  0
    3.8006    1.6647   -0.4856 H   0  0  0  0  0  0  0  0  0  0  0  0
    3.9200    0.8594    2.9030 C   0  0  0  0  0  0  0  0  0  0  0  0
    3.2434    0.8042    3.7774 H   0  0  0  0  0  0  0  0  0  0  0  0
    4.7258    1.5748    3.1534 H   0  0  0  0  0  0  0  0  0  0  0  0
    4.3967   -0.1266    2.7505 H   0  0  0  0  0  0  0  0  0  0  0  0
    2.6440    2.7663    1.9807 C   0  0  0  0  0  0  0  0  0  0  0  0
    1.9510    2.6988    2.8432 H   0  0  0  0  0  0  0  0  0  0  0  0
    2.1036    3.2548    1.1524 H   0  0  0  0  0  0  0  0  0  0  0  0
    3.4779    3.4354    2.2681 H   0  0  0  0  0  0  0  0  0  0  0  0
  1 12  1  0  0  0  0
  2 17  1  0  0  0  0
  3 33  1  0  0  0  0
  3 14  1  0  0  0  0
  4  1  1  0  0  0  0
  5  4  1  0  0  0  0
  6  8  2  0  0  0  0
  6  4  1  0  0  0  0
  7  6  1  0  0  0  0
  8 10  1  0  0  0  0
  9  8  1  0  0  0  0
 10 11  1  0  0  0  0
 10 12  2  0  0  0  0
 13 12  1  6  0  0  0
 13  2  1  0  0  0  0
 13  3  1  0  0  0  0
 14 15  1  0  0  0  0
 16 14  1  0  0  0  0
 17 18  1  1  0  0  0
 17 14  1  0  0  0  0
 19 20  1  0  0  0  0
 19 17  1  0  0  0  0
 21 19  1  0  0  0  0
 22 23  1  0  0  0  0
 22 19  1  0  0  0  0
 23 24  1  0  0  0  0
 25 26  1  0  0  0  0
 25 23  2  0  0  0  0
 27 25  1  0  0  0  0
 28 27  1  0  0  0  0
 29 27  2  0  0  0  0
 29 31  1  0  0  0  0
 30 29  1  0  0  0  0
 31 22  2  0  0  0  0
 32 31  1  0  0  0  0
 33 42  1  0  0  0  0
 33 38  1  0  0  0  0
 34 36  1  0  0  0  0
 34 33  1  0  0  0  0
 35 34  1  0  0  0  0
 37 34  1  0  0  0  0
 38 40  1  0  0  0  0
 38 39  1  0  0  0  0
 41 38  1  0  0  0  0
 42 45  1  0  0  0  0
 42 43  1  0  0  0  0
 44 42  1  0  0  0  0
M  END
