1,2
q = 0.0, confidence = 0.988

 27 26  0  0  0  0  0  0  0  0999 V2000
    1.1725   -1.6844    0.3505 N   0  0  0  0  0  0  0  0  0  0  0  0
    1.1725    1.6845    0.3500 N   0  0  0  0  0  0  0  0  0  0  0  0
    0.6804   -2.8869   -0.3695 C   0  0  0  0  0  0  0  0  0  0  0  0
    1.4144   -2.0594    1.7610 C   0  0  0  0  0  0  0  0  0  0  0  0
    2.4539   -1.2909   -0.2995 C   0  0  0  0  0  0  0  0  0  0  0  0
    3.0985    0.0001    0.1957 C   0  0  0  0  0  0  0  0  0  0  0  0
    2.4539    1.2909   -0.2999 C   0  0  0  0  0  0  0  0  0  0  0  0
    1.4144    2.0600    1.7604 C   0  0  0  0  0  0  0  0  0  0  0  0
    0.6803    2.8868   -0.3704 C   0  0  0  0  0  0  0  0  0  0  0  0
   -0.2214   -3.2812    0.1315 H   0  0  0  0  0  0  0  0  0  0  0  0
    0.4244   -2.6056   -1.4082 H   0  0  0  0  0  0  0  0  0  0  0  0
    1.4645   -3.6783   -0.3744 H   0  0  0  0  0  0  0  0  0  0  0  0
    2.1737   -2.8728    1.8253 H   0  0  0  0  0  0  0  0  0  0  0  0
    1.7708   -1.1909    2.3427 H   0  0  0  0  0  0  0  0  0  0  0  0
    0.4708   -2.4088    2.2164 H   0  0  0  0  0  0  0  0  0  0  0  0
    3.1711   -2.1356   -0.1681 H   0  0  0  0  0  0  0  0  0  0  0  0
    2.2377   -1.1944   -1.3825 H   0  0  0  0  0  0  0  0  0  0  0  0
    3.2237    0.0002    1.2989 H   0  0  0  0  0  0  0  0  0  0  0  0
    4.1340    0.0000   -0.2034 H   0  0  0  0  0  0  0  0  0  0  0  0
    2.2377    1.1941   -1.3829 H   0  0  0  0  0  0  0  0  0  0  0  0
    3.1711    2.1356   -0.1687 H   0  0  0  0  0  0  0  0  0  0  0  0
    2.1736    2.8735    1.8244 H   0  0  0  0  0  0  0  0  0  0  0  0
    0.4707    2.4095    2.2156 H   0  0  0  0  0  0  0  0  0  0  0  0
    1.7708    1.1917    2.3424 H   0  0  0  0  0  0  0  0  0  0  0  0
    0.4243    2.6052   -1.4090 H   0  0  0  0  0  0  0  0  0  0  0  0
   -0.2214    3.2812    0.1305 H   0  0  0  0  0  0  0  0  0  0  0  0
    1.4643    3.6782   -0.3756 H   0  0  0  0  0  0  0  0  0  0  0  0
  1  4  1  0  0  0  0
  2  8  1  0  0  0  0
  3 10  1  0  0  0  0
  3  1  1  0  0  0  0
  4 13  1  0  0  0  0
  4 15  1  0  0  0  0
  4 14  1  0  0  0  0
  5 16  1  0  0  0  0
  5  6  1  0  0  0  0
  5  1  1  0  0  0  0
  6 18  1  0  0  0  0
  7 21  1  0  0  0  0
  7  6  1  0  0  0  0
  7  2  1  0  0  0  0
  8 22  1  0  0  0  0
  8 23  1  0  0  0  0
  8 24  1  0  0  0  0
  9 26  1  0  0  0  0
  9  2  1  0  0  0  0
 11  3  1  0  0  0  0
 12  3  1  0  0  0  0
 17  5  1  0  0  0  0
 19  6  1  0  0  0  0
 20  7  1  0  0  0  0
 25  9  1  0  0  0  0
 27  9  1  0  0  0  0
M  END
