1,21
q = 0.0, confidence = 0.996

 31 32  0  0  1  0  0  0  0  0999 V2000
    1.7741    0.7677    0.4584 N   0  0  0  0  0  0  0  0  0  0  0  0
    2.2232    0.5192    1.3515 H   0  0  0  0  0  0  0  0  0  0  0  0
    2.8393    1.1135   -0.5277 C   0  0  0  0  0  0  0  0  0  0  0  0
    2.4363    0.9406   -1.5460 H   0  0  0  0  0  0  0  0  0  0  0  0
    3.6900    0.4232   -0.3814 H   0  0  0  0  0  0  0  0  0  0  0  0
    3.1008    2.5998   -0.2808 C   0  0  0  0  0  0  0  0  0  0  0  0
    3.6378    3.0883   -1.1166 H   0  0  0  0  0  0  0  0  0  0  0  0
    3.7123    2.7365    0.6364 H   0  0  0  0  0  0  0  0  0  0  0  0
    1.6806    3.1583   -0.0782 C   0  0  0  0  0  0  0  0  0  0  0  0
    1.6494    4.0889    0.5186 H   0  0  0  0  0  0  0  0  0  0  0  0
    1.2084    3.3789   -1.0564 H   0  0  0  0  0  0  0  0  0  0  0  0
    0.9194    1.9957    0.6202 C   0  0  1  0  0  0  0  0  0  0  0  0
    0.7804    2.1967    1.7039 H   0  0  0  0  0  0  0  0  0  0  0  0
   -0.4305    1.6877    0.0406 C   0  0  2  0  0  3  0  0  0  0  0  0
   -1.3474    2.6526   -0.0973 O   0  0  0  0  0  0  0  0  0  0  0  0
   -2.4943    2.0107   -0.7514 C   0  0  0  0  0  0  0  0  0  0  0  0
   -2.5402    2.4014   -1.7877 H   0  0  0  0  0  0  0  0  0  0  0  0
   -3.4050    2.3176   -0.2033 H   0  0  0  0  0  0  0  0  0  0  0  0
   -2.1976    0.4888   -0.6800 C   0  0  1  0  0  0  0  0  0  0  0  0
   -2.3065   -0.0018   -1.6678 H   0  0  0  0  0  0  0  0  0  0  0  0
   -0.7682    0.4871   -0.3140 N   0  0  0  0  0  2  0  0  0  0  0  0
   -3.0347   -0.3082    0.3481 C   0  0  0  0  0  0  0  0  0  0  0  0
   -2.6100   -1.3350    0.3021 H   0  0  0  0  0  0  0  0  0  0  0  0
   -2.8749    0.2164    1.7773 C   0  0  0  0  0  0  0  0  0  0  0  0
   -3.4672   -0.4016    2.4808 H   0  0  0  0  0  0  0  0  0  0  0  0
   -3.2270    1.2651    1.8897 H   0  0  0  0  0  0  0  0  0  0  0  0
   -1.8181    0.1626    2.1087 H   0  0  0  0  0  0  0  0  0  0  0  0
   -4.5000   -0.3649   -0.0945 C   0  0  0  0  0  0  0  0  0  0  0  0
   -5.0856   -1.0126    0.5876 H   0  0  0  0  0  0  0  0  0  0  0  0
   -4.5998   -0.7812   -1.1178 H   0  0  0  0  0  0  0  0  0  0  0  0
   -4.9828    0.6369   -0.0842 H   0  0  0  0  0  0  0  0  0  0  0  0
  1 12  1  0  0  0  0
  1  2  1  0  0  0  0
  3  5  1  0  0  0  0
  3  6  1  0  0  0  0
  3  1  1  0  0  0  0
  4  3  1  0  0  0  0
  6  9  1  0  0  0  0
  6  8  1  0  0  0  0
  7  6  1  0  0  0  0
  9 10  1  0  0  0  0
  9 12  1  0  0  0  0
 11  9  1  0  0  0  0
 12 13  1  1  0  0  0
 14 21  1  1  0  0  0
 14 12  1  0  0  0  0
 15 14  1  0  0  0  0
 16 19  1  0  0  0  0
 16 18  1  0  0  0  0
 16 15  1  0  0  0  0
 17 16  1  0  0  0  0
 19 20  1  6  0  0  0
 19 21  1  0  0  0  0
 19 22  1  0  0  0  0
 22 24  1  0  0  0  0
 23 22  1  0  0  0  0
 24 26  1  0  0  0  0
 24 27  1  0  0  0  0
 24 25  1  0  0  0  0
 28 31  1  0  0  0  0
 28 22  1  0  0  0  0
 28 29  1  0  0  0  0
 30 28  1  0  0  0  0
M  END
