2,3
q = 0.0, confidence = 0.986

 47 51  0  0  1  0  0  0  0  0999 V2000
   -2.0934   -2.2802   -1.5275 N   0  0  0  0  0  0  0  0  0  0  0  0
   -0.8770    0.0832   -0.5194 N   0  0  0  0  0  2  0  0  0  0  0  0
   -2.3368    2.3610    0.0297 N   0  0  0  0  0  2  0  0  0  0  0  0
    9.8386   -1.1032    0.0322 N   0  0  0  0  0  0  0  0  0  0  0  0
    9.8182    1.2785    0.3269 N   0  0  0  0  0  0  0  0  0  0  0  0
   -2.8536   -3.3796   -1.6313 C   0  0  0  0  0  0  0  0  0  0  0  0
   -3.7656   -3.2852   -2.2452 H   0  0  0  0  0  0  0  0  0  0  0  0
   -2.5416   -4.5909   -0.9974 C   0  0  0  0  0  0  0  0  0  0  0  0
   -3.2069   -5.4592   -1.1063 H   0  0  0  0  0  0  0  0  0  0  0  0
   -1.3833   -4.6500   -0.2132 C   0  0  0  0  0  0  0  0  0  0  0  0
   -1.1145   -5.5709    0.3251 H   0  0  0  0  0  0  0  0  0  0  0  0
   -0.5873   -3.5057   -0.0943 C   0  0  0  0  0  0  0  0  0  0  0  0
    0.2905   -3.4986    0.5658 H   0  0  0  0  0  0  0  0  0  0  0  0
   -0.9806   -2.3311   -0.7635 C   0  0  0  0  0  0  0  0  0  0  0  0
   -0.1927   -1.0735   -0.6063 C   0  0  2  0  0  3  0  0  0  0  0  0
    1.2119   -1.1088   -0.5363 C   0  0  0  0  0  0  0  0  0  0  0  0
    1.7388   -2.0650   -0.6574 H   0  0  0  0  0  0  0  0  0  0  0  0
    1.9360    0.0862   -0.3594 C   0  0  0  0  0  0  0  0  0  0  0  0
    1.1930    1.2806   -0.2753 C   0  0  0  0  0  0  0  0  0  0  0  0
    1.7119    2.2287   -0.0834 H   0  0  0  0  0  0  0  0  0  0  0  0
   -0.2105    1.2439   -0.3641 C   0  0  0  0  0  0  0  0  0  0  0  0
   -1.0262    2.4938   -0.2659 C   0  0  1  0  0  3  0  0  0  0  0  0
   -0.4669    3.7700   -0.4807 C   0  0  0  0  0  0  0  0  0  0  0  0
    0.5907    3.8778   -0.7557 H   0  0  0  0  0  0  0  0  0  0  0  0
   -1.2821    4.9030   -0.3688 C   0  0  0  0  0  0  0  0  0  0  0  0
   -0.8596    5.9050   -0.5372 H   0  0  0  0  0  0  0  0  0  0  0  0
   -2.6374    4.7425   -0.0517 C   0  0  0  0  0  0  0  0  0  0  0  0
   -3.3124    5.6044    0.0455 H   0  0  0  0  0  0  0  0  0  0  0  0
   -3.1270    3.4416    0.1333 C   0  0  0  0  0  0  0  0  0  0  0  0
   -4.1844    3.2348    0.3714 H   0  0  0  0  0  0  0  0  0  0  0  0
    3.4135    0.0875   -0.2602 C   0  0  0  0  0  0  0  0  0  0  0  0
    4.1779    1.1600   -0.7718 C   0  0  0  0  0  0  0  0  0  0  0  0
    3.6737    1.9915   -1.2867 H   0  0  0  0  0  0  0  0  0  0  0  0
    5.5724    1.1584   -0.6800 C   0  0  0  0  0  0  0  0  0  0  0  0
    6.1431    1.9876   -1.1237 H   0  0  0  0  0  0  0  0  0  0  0  0
    6.2597    0.0873   -0.0640 C   0  0  0  0  0  0  0  0  0  0  0  0
    5.4938   -0.9833    0.4523 C   0  0  0  0  0  0  0  0  0  0  0  0
    5.9975   -1.8119    0.9717 H   0  0  0  0  0  0  0  0  0  0  0  0
    4.1000   -0.9851    0.3521 C   0  0  0  0  0  0  0  0  0  0  0  0
    3.5294   -1.8147    0.7953 H   0  0  0  0  0  0  0  0  0  0  0  0
    7.7332    0.0873    0.0372 C   0  0  0  0  0  0  0  0  0  0  0  0
    8.5040   -1.0933   -0.0644 C   0  0  0  0  0  0  0  0  0  0  0  0
    8.0117   -2.0650   -0.2538 H   0  0  0  0  0  0  0  0  0  0  0  0
   10.4294    0.0877    0.2201 C   0  0  0  0  0  0  0  0  0  0  0  0
   11.5321    0.0879    0.2946 H   0  0  0  0  0  0  0  0  0  0  0  0
    8.4828    1.2680    0.2426 C   0  0  0  0  0  0  0  0  0  0  0  0
    7.9690    2.2393    0.3650 H   0  0  0  0  0  0  0  0  0  0  0  0
  1 14  1  0  0  0  0
  2 21  1  0  0  0  0
  3 29  1  0  0  0  0
  4 44  1  0  0  0  0
  6  1  2  0  0  0  0
  6  8  1  0  0  0  0
  7  6  1  0  0  0  0
  8 10  2  0  0  0  0
  9  8  1  0  0  0  0
 10 12  1  0  0  0  0
 10 11  1  0  0  0  0
 12 13  1  0  0  0  0
 14 12  2  0  0  0  0
 15 14  1  1  0  0  0
 15 16  1  0  0  0  0
 15  2  1  0  0  0  0
 16 18  2  0  0  0  0
 17 16  1  0  0  0  0
 18 19  1  0  0  0  0
 18 31  1  0  0  0  0
 19 20  1  0  0  0  0
 21 19  2  0  0  0  0
 22 21  1  6  0  0  0
 22  3  1  0  0  0  0
 23 25  2  0  0  0  0
 23 22  1  0  0  0  0
 24 23  1  0  0  0  0
 25 27  1  0  0  0  0
 26 25  1  0  0  0  0
 27 28  1  0  0  0  0
 27 29  2  0  0  0  0
 29 30  1  0  0  0  0
 31 39  1  0  0  0  0
 32 34  1  0  0  0  0
 32 31  2  0  0  0  0
 33 32  1  0  0  0  0
 34 36  2  0  0  0  0
 35 34  1  0  0  0  0
 36 41  1  0  0  0  0
 36 37  1  0  0  0  0
 37 38  1  0  0  0  0
 39 37  2  0  0  0  0
 39 40  1  0  0  0  0
 41 46  2  0  0  0  0
 42  4  2  0  0  0  0
 42 41  1  0  0  0  0
 43 42  1  0  0  0  0
 44 45  1  0  0  0  0
 44  5  2  0  0  0  0
 46  5  1  0  0  0  0
 46 47  1  0  0  0  0
M  END
