1,3
q = 0.0, confidence = 1.0

 46 49  0  0  1  0  0  0  0  0999 V2000
   -3.1313   -1.3919   -0.3909 N   0  0  0  0  0  2  0  0  0  0  0  0
   -1.2521   -0.0009   -0.8770 N   0  0  0  0  0  0  0  0  0  0  0  0
   -3.1317    1.3908   -0.3944 N   0  0  0  0  0  2  0  0  0  0  0  0
   -3.7903   -2.5649   -0.4777 C   0  0  0  0  0  3  0  0  0  0  0  0
   -3.2136   -3.7075   -1.0303 C   0  0  0  0  0  0  0  0  0  0  0  0
   -1.8895   -3.6081   -1.4940 C   0  0  0  0  0  0  0  0  0  0  0  0
   -1.2156   -2.3879   -1.4324 C   0  0  0  0  0  0  0  0  0  0  0  0
   -1.8850   -1.2620   -0.8885 C   0  0  0  0  0  0  0  0  0  0  0  0
   -1.8848    1.2604   -0.8906 C   0  0  2  0  0  3  0  0  0  0  0  0
   -1.2149    2.3855   -1.4351 C   0  0  0  0  0  0  0  0  0  0  0  0
   -1.8887    3.6056   -1.4989 C   0  0  0  0  0  0  0  0  0  0  0  0
   -3.2133    3.7056   -1.0367 C   0  0  0  0  0  0  0  0  0  0  0  0
   -3.7905    2.5637   -0.4832 C   0  0  0  0  0  0  0  0  0  0  0  0
    0.1932   -0.0010   -0.8440 C   0  0  0  0  0  0  0  0  0  0  0  0
    0.8201   -0.0003    0.4156 C   0  0  0  0  0  0  0  0  0  0  0  0
    2.2144   -0.0004    0.4915 C   0  0  0  0  0  0  0  0  0  0  0  0
    3.0187   -0.0012   -0.6775 C   0  0  0  0  0  0  0  0  0  0  0  0
    2.3573   -0.0019   -1.9320 C   0  0  0  0  0  0  0  0  0  0  0  0
    0.9606   -0.0018   -2.0210 C   0  0  0  0  0  0  0  0  0  0  0  0
    4.4813   -0.0012   -0.6502 C   0  0  0  0  0  0  0  0  0  0  0  0
    5.2737    0.0004    0.4564 C   0  0  0  0  0  0  0  0  0  0  0  0
    6.7362    0.0004    0.4948 C   0  0  0  0  0  0  0  0  0  0  0  0
    7.3860    0.0030    1.7538 C   0  0  0  0  0  0  0  0  0  0  0  0
    8.7831    0.0032    1.8512 C   0  0  0  0  0  0  0  0  0  0  0  0
    9.5685    0.0008    0.6881 C   0  0  0  0  0  0  0  0  0  0  0  0
    8.9416   -0.0019   -0.5713 C   0  0  0  0  0  0  0  0  0  0  0  0
    7.5471   -0.0021   -0.6683 C   0  0  0  0  0  0  0  0  0  0  0  0
   -4.8114   -2.5503   -0.0589 H   0  0  0  0  0  0  0  0  0  0  0  0
   -3.7746   -4.6508   -1.0771 H   0  0  0  0  0  0  0  0  0  0  0  0
   -1.3793   -4.4854   -1.9197 H   0  0  0  0  0  0  0  0  0  0  0  0
   -0.1901   -2.2958   -1.8092 H   0  0  0  0  0  0  0  0  0  0  0  0
   -0.1890    2.2931   -1.8107 H   0  0  0  0  0  0  0  0  0  0  0  0
   -1.3781    4.4825   -1.9250 H   0  0  0  0  0  0  0  0  0  0  0  0
   -3.7743    4.6489   -1.0852 H   0  0  0  0  0  0  0  0  0  0  0  0
   -4.8120    2.5497   -0.0653 H   0  0  0  0  0  0  0  0  0  0  0  0
    0.1810    0.0004    1.3157 H   0  0  0  0  0  0  0  0  0  0  0  0
    2.6883    0.0001    1.4839 H   0  0  0  0  0  0  0  0  0  0  0  0
    2.9602   -0.0026   -2.8534 H   0  0  0  0  0  0  0  0  0  0  0  0
    0.4606   -0.0024   -3.0013 H   0  0  0  0  0  0  0  0  0  0  0  0
    4.9596   -0.0026   -1.6444 H   0  0  0  0  0  0  0  0  0  0  0  0
    4.7917    0.0020    1.4490 H   0  0  0  0  0  0  0  0  0  0  0  0
    6.7727    0.0050    2.6689 H   0  0  0  0  0  0  0  0  0  0  0  0
    9.2625    0.0053    2.8418 H   0  0  0  0  0  0  0  0  0  0  0  0
   10.6665    0.0009    0.7598 H   0  0  0  0  0  0  0  0  0  0  0  0
    9.5510   -0.0039   -1.4879 H   0  0  0  0  0  0  0  0  0  0  0  0
    7.0778   -0.0043   -1.6634 H   0  0  0  0  0  0  0  0  0  0  0  0
  2 14  1  0  0  0  0
  4  1  1  0  0  0  0
  4 28  1  0  0  0  0
  5  4  1  0  0  0  0
  6  7  1  0  0  0  0
  6  5  2  0  0  0  0
  7  8  2  0  0  0  0
  8  2  1  0  0  0  0
  8  1  1  0  0  0  0
  9  2  1  6  0  0  0
  9  3  1  0  0  0  0
 10  9  1  0  0  0  0
 11 10  2  0  0  0  0
 11 12  1  0  0  0  0
 12 13  2  0  0  0  0
 13  3  1  0  0  0  0
 13 35  1  0  0  0  0
 14 15  1  0  0  0  0
 15 16  2  0  0  0  0
 15 36  1  0  0  0  0
 16 37  1  0  0  0  0
 17 20  1  0  0  0  0
 17 16  1  0  0  0  0
 18 17  2  0  0  0  0
 19 18  1  0  0  0  0
 19 14  2  0  0  0  0
 20 21  2  0  0  0  0
 21 22  1  0  0  0  0
 21 41  1  0  0  0  0
 22 23  1  0  0  0  0
 23 24  2  0  0  0  0
 23 42  1  0  0  0  0
 24 43  1  0  0  0  0
 25 44  1  0  0  0  0
 25 24  1  0  0  0  0
 26 25  2  0  0  0  0
 27 26  1  0  0  0  0
 27 22  2  0  0  0  0
 29  5  1  0  0  0  0
 30  6  1  0  0  0  0
 31  7  1  0  0  0  0
 32 10  1  0  0  0  0
 33 11  1  0  0  0  0
 34 12  1  0  0  0  0
 38 18  1  0  0  0  0
 39 19  1  0  0  0  0
 40 20  1  0  0  0  0
 45 26  1  0  0  0  0
 46 27  1  0  0  0  0
M  END
