1,5
q = 0.0, confidence = 0.97

 43 44  0  0  0  0  0  0  0  0999 V2000
   -1.2419    1.2548    0.0056 N   0  0  0  0  0  2  0  0  0  0  0  0
   -0.7339    2.4806   -0.0741 C   0  0  0  0  0  0  0  0  0  0  0  0
    0.6988    2.4953    0.0575 C   0  0  0  0  0  0  0  0  0  0  0  0
    1.2866    3.4248    0.1454 H   0  0  0  0  0  0  0  0  0  0  0  0
    1.2708    1.3078    0.1143 N   0  0  0  0  0  2  0  0  0  0  0  0
    2.6787    1.2311    0.3335 C   0  0  0  0  0  0  0  0  0  0  0  0
    3.5668    1.5993   -0.7069 C   0  0  0  0  0  0  0  0  0  0  0  0
    4.9463    1.5208   -0.4425 C   0  0  0  0  0  0  0  0  0  0  0  0
    5.6547    1.7885   -1.2418 H   0  0  0  0  0  0  0  0  0  0  0  0
    5.4223    1.0907    0.8028 C   0  0  0  0  0  0  0  0  0  0  0  0
    6.5055    1.0357    0.9879 H   0  0  0  0  0  0  0  0  0  0  0  0
    4.5203    0.7088    1.8053 C   0  0  0  0  0  0  0  0  0  0  0  0
    4.8927    0.3501    2.7773 H   0  0  0  0  0  0  0  0  0  0  0  0
    3.1326    0.7602    1.5897 C   0  0  0  0  0  0  0  0  0  0  0  0
    2.1504    0.2940    2.6288 C   0  0  0  0  0  0  0  0  0  0  0  0
    2.6604    0.0292    3.5739 H   0  0  0  0  0  0  0  0  0  0  0  0
    1.6075   -0.6062    2.2640 H   0  0  0  0  0  0  0  0  0  0  0  0
    1.3792    1.0599    2.8514 H   0  0  0  0  0  0  0  0  0  0  0  0
    3.0493    1.9883   -2.0676 C   0  0  0  0  0  0  0  0  0  0  0  0
    3.8757    2.0392   -2.8011 H   0  0  0  0  0  0  0  0  0  0  0  0
    2.5430    2.9762   -2.0680 H   0  0  0  0  0  0  0  0  0  0  0  0
    2.3099    1.2412   -2.4254 H   0  0  0  0  0  0  0  0  0  0  0  0
   -2.6518    1.0921   -0.1431 C   0  0  0  0  0  0  0  0  0  0  0  0
   -3.1761    0.8083   -1.4266 C   0  0  0  0  0  0  0  0  0  0  0  0
   -4.5700    0.6706   -1.5471 C   0  0  0  0  0  0  0  0  0  0  0  0
   -4.9972    0.4413   -2.5357 H   0  0  0  0  0  0  0  0  0  0  0  0
   -5.4085    0.8043   -0.4318 C   0  0  0  0  0  0  0  0  0  0  0  0
   -6.4968    0.6895   -0.5459 H   0  0  0  0  0  0  0  0  0  0  0  0
   -4.8608    1.0621    0.8320 C   0  0  0  0  0  0  0  0  0  0  0  0
   -5.5162    1.1397    1.7133 H   0  0  0  0  0  0  0  0  0  0  0  0
   -3.4724    1.2055    1.0050 C   0  0  0  0  0  0  0  0  0  0  0  0
   -2.8573    1.4243    2.3610 C   0  0  0  0  0  0  0  0  0  0  0  0
   -3.6257    1.3998    3.1563 H   0  0  0  0  0  0  0  0  0  0  0  0
   -2.3245    2.3964    2.4337 H   0  0  0  0  0  0  0  0  0  0  0  0
   -2.1084    0.6309    2.5688 H   0  0  0  0  0  0  0  0  0  0  0  0
   -2.2503    0.5968   -2.5935 C   0  0  0  0  0  0  0  0  0  0  0  0
   -2.8145    0.4049   -3.5252 H   0  0  0  0  0  0  0  0  0  0  0  0
   -1.5879   -0.2755   -2.4002 H   0  0  0  0  0  0  0  0  0  0  0  0
   -1.5822    1.4663   -2.7674 H   0  0  0  0  0  0  0  0  0  0  0  0
   -1.5495    3.7174   -0.2932 C   0  0  0  0  0  0  0  0  0  0  0  0
   -2.3365    3.8234    0.4805 H   0  0  0  0  0  0  0  0  0  0  0  0
   -2.0810    3.6643   -1.2661 H   0  0  0  0  0  0  0  0  0  0  0  0
   -0.9118    4.6206   -0.2858 H   0  0  0  0  0  0  0  0  0  0  0  0
  2  1  1  0  0  0  0
  2  3  2  0  0  0  0
  3  5  1  0  0  0  0
  3  4  1  0  0  0  0
  5  6  1  0  0  0  0
  6 14  1  0  0  0  0
  7  8  1  0  0  0  0
  7  6  2  0  0  0  0
  8 10  2  0  0  0  0
  9  8  1  0  0  0  0
 10 11  1  0  0  0  0
 10 12  1  0  0  0  0
 12 13  1  0  0  0  0
 14 12  2  0  0  0  0
 14 15  1  0  0  0  0
 15 18  1  0  0  0  0
 15 16  1  0  0  0  0
 17 15  1  0  0  0  0
 19  7  1  0  0  0  0
 20 19  1  0  0  0  0
 21 19  1  0  0  0  0
 22 19  1  0  0  0  0
 23  1  1  0  0  0  0
 23 31  1  0  0  0  0
 24 23  2  0  0  0  0
 25 24  1  0  0  0  0
 25 27  2  0  0  0  0
 26 25  1  0  0  0  0
 27 29  1  0  0  0  0
 28 27  1  0  0  0  0
 29 31  2  0  0  0  0
 29 30  1  0  0  0  0
 31 32  1  0  0  0  0
 32 34  1  0  0  0  0
 32 35  1  0  0  0  0
 32 33  1  0  0  0  0
 36 38  1  0  0  0  0
 36 24  1  0  0  0  0
 37 36  1  0  0  0  0
 39 36  1  0  0  0  0
 40 43  1  0  0  0  0
 40  2  1  0  0  0  0
 40 41  1  0  0  0  0
 42 40  1  0  0  0  0
M  END
