2,3
q = 0.0, confidence = 1.0

 34 36  0  0  1  0  0  0  0  0999 V2000
    1.3063   -3.0968   -0.3580 O   0  0  0  0  0  0  0  0  0  0  0  0
    1.5065   -0.8550   -0.2419 N   0  0  0  0  0  2  0  0  0  0  0  0
   -1.2578   -0.6064   -0.0343 N   0  0  0  0  0  2  0  0  0  0  0  0
   -0.7400   -1.8344   -0.1214 C   0  0  0  0  0  0  0  0  0  0  0  0
   -1.5231   -3.0187   -0.1021 C   0  0  0  0  0  0  0  0  0  0  0  0
   -1.0312   -3.9973   -0.1781 H   0  0  0  0  0  0  0  0  0  0  0  0
   -2.8986   -2.8924    0.0143 C   0  0  0  0  0  0  0  0  0  0  0  0
   -3.5436   -3.7840    0.0332 H   0  0  0  0  0  0  0  0  0  0  0  0
   -3.4877   -1.6026    0.1113 C   0  0  0  0  0  0  0  0  0  0  0  0
   -2.6068   -0.4551    0.0824 C   0  0  0  0  0  0  0  0  0  0  0  0
   -3.1638    0.8530    0.1775 C   0  0  0  0  0  0  0  0  0  0  0  0
   -2.4784    1.7138    0.1540 H   0  0  0  0  0  0  0  0  0  0  0  0
   -4.5342    1.0179    0.2967 C   0  0  0  0  0  0  0  0  0  0  0  0
   -4.9604    2.0294    0.3704 H   0  0  0  0  0  0  0  0  0  0  0  0
   -5.4029   -0.1094    0.3252 C   0  0  0  0  0  0  0  0  0  0  0  0
   -6.4878    0.0451    0.4203 H   0  0  0  0  0  0  0  0  0  0  0  0
   -4.8911   -1.3945    0.2343 C   0  0  0  0  0  0  0  0  0  0  0  0
   -5.5590   -2.2688    0.2560 H   0  0  0  0  0  0  0  0  0  0  0  0
    0.7332   -1.8958   -0.2391 C   0  0  0  0  0  0  0  0  0  0  0  0
    2.9003   -1.3169   -0.3927 C   0  0  2  0  0  0  0  0  0  0  0  0
    3.2679   -0.9605   -1.3821 H   0  0  0  0  0  0  0  0  0  0  0  0
    2.7474   -2.8665   -0.3784 C   0  0  0  0  0  0  0  0  0  0  0  0
    3.1593   -3.3769   -1.2684 H   0  0  0  0  0  0  0  0  0  0  0  0
    3.1669   -3.3322    0.5368 H   0  0  0  0  0  0  0  0  0  0  0  0
    3.8626   -0.7799    0.6880 C   0  0  0  0  0  0  0  0  0  0  0  0
    3.4814   -1.1504    1.6673 H   0  0  0  0  0  0  0  0  0  0  0  0
    3.8975    0.7505    0.7254 C   0  0  0  0  0  0  0  0  0  0  0  0
    4.6113    1.1031    1.4957 H   0  0  0  0  0  0  0  0  0  0  0  0
    2.9063    1.1858    0.9672 H   0  0  0  0  0  0  0  0  0  0  0  0
    4.2256    1.1665   -0.2506 H   0  0  0  0  0  0  0  0  0  0  0  0
    5.2689   -1.3508    0.4587 C   0  0  0  0  0  0  0  0  0  0  0  0
    5.9638   -1.0015    1.2469 H   0  0  0  0  0  0  0  0  0  0  0  0
    5.6769   -1.0168   -0.5185 H   0  0  0  0  0  0  0  0  0  0  0  0
    5.2902   -2.4594    0.4734 H   0  0  0  0  0  0  0  0  0  0  0  0
  1 19  1  0  0  0  0
  2 19  1  0  0  0  0
  3 10  1  0  0  0  0
  4  5  1  0  0  0  0
  4  3  1  0  0  0  0
  5  7  2  0  0  0  0
  6  5  1  0  0  0  0
  7  8  1  0  0  0  0
  7  9  1  0  0  0  0
  9 17  1  0  0  0  0
 10  9  2  0  0  0  0
 10 11  1  0  0  0  0
 11 13  2  0  0  0  0
 12 11  1  0  0  0  0
 13 15  1  0  0  0  0
 13 14  1  0  0  0  0
 15 16  1  0  0  0  0
 17 18  1  0  0  0  0
 17 15  2  0  0  0  0
 19  4  2  0  0  0  0
 20 21  1  6  0  0  0
 20 22  1  0  0  0  0
 20  2  1  0  0  0  0
 20 25  1  0  0  0  0
 22  1  1  0  0  0  0
 22 24  1  0  0  0  0
 23 22  1  0  0  0  0
 25 27  1  0  0  0  0
 25 26  1  0  0  0  0
 27 29  1  0  0  0  0
 27 28  1  0  0  0  0
 30 27  1  0  0  0  0
 31 34  1  0  0  0  0
 31 25  1  0  0  0  0
 31 32  1  0  0  0  0
 33 31  1  0  0  0  0
M  END
