1,8
q = 0.0, confidence = 0.994

 33 33  0  0  1  0  0  0  0  0999 V2000
    1.8802    0.4474   -0.5102 N   0  0  0  0  0  2  0  0  0  0  0  0
    2.9108    1.0469    0.1344 C   0  0  2  0  0  3  0  0  0  0  0  0
    4.1345    1.2990   -0.4995 C   0  0  0  0  0  0  0  0  0  0  0  0
    4.2981    0.9073   -1.8353 C   0  0  0  0  0  0  0  0  0  0  0  0
    3.2215    0.3027   -2.4991 C   0  0  0  0  0  0  0  0  0  0  0  0
    2.0148    0.0915   -1.8138 C   0  0  0  0  0  0  0  0  0  0  0  0
    2.6569    1.4031    1.5845 C   0  0  0  0  0  0  0  0  0  0  0  0
    1.2487    1.7547    1.8186 N   0  0  0  0  0  0  0  0  0  0  0  0
    0.9225    3.0387    1.1797 C   0  0  0  0  0  0  0  0  0  0  0  0
    0.9473    1.8132    3.2531 C   0  0  0  0  0  0  0  0  0  0  0  0
    0.7992   -0.4985   -2.4892 C   0  0  0  0  0  0  0  0  0  0  0  0
    0.5012   -1.8702   -2.0818 N   0  0  0  0  0  0  0  0  0  0  0  0
    1.5384   -2.8084   -2.4927 C   0  0  0  0  0  0  0  0  0  0  0  0
   -0.8148   -2.2753   -2.5611 C   0  0  0  0  0  0  0  0  0  0  0  0
    4.9441    1.8010    0.0502 H   0  0  0  0  0  0  0  0  0  0  0  0
    5.2494    1.0854   -2.3578 H   0  0  0  0  0  0  0  0  0  0  0  0
    3.3032    0.0019   -3.5536 H   0  0  0  0  0  0  0  0  0  0  0  0
    2.8959    0.5195    2.2165 H   0  0  0  0  0  0  0  0  0  0  0  0
    3.3523    2.2181    1.9018 H   0  0  0  0  0  0  0  0  0  0  0  0
    1.0944    2.9787    0.0885 H   0  0  0  0  0  0  0  0  0  0  0  0
   -0.1438    3.2772    1.3493 H   0  0  0  0  0  0  0  0  0  0  0  0
    1.5393    3.8719    1.5941 H   0  0  0  0  0  0  0  0  0  0  0  0
    1.5142    2.6242    3.7697 H   0  0  0  0  0  0  0  0  0  0  0  0
   -0.1346    1.9984    3.3973 H   0  0  0  0  0  0  0  0  0  0  0  0
    1.2031    0.8509    3.7334 H   0  0  0  0  0  0  0  0  0  0  0  0
   -0.0719    0.1320   -2.2091 H   0  0  0  0  0  0  0  0  0  0  0  0
    0.9293   -0.4151   -3.6000 H   0  0  0  0  0  0  0  0  0  0  0  0
    2.5187   -2.5104   -2.0697 H   0  0  0  0  0  0  0  0  0  0  0  0
    1.2984   -3.8222   -2.1145 H   0  0  0  0  0  0  0  0  0  0  0  0
    1.6517   -2.8764   -3.6056 H   0  0  0  0  0  0  0  0  0  0  0  0
   -1.0539   -3.2940   -2.1945 H   0  0  0  0  0  0  0  0  0  0  0  0
   -1.5879   -1.5811   -2.1750 H   0  0  0  0  0  0  0  0  0  0  0  0
   -0.8881   -2.2918   -3.6784 H   0  0  0  0  0  0  0  0  0  0  0  0
  1  2  1  0  0  0  0
  2  7  1  1  0  0  0
  3 15  1  0  0  0  0
  3  2  1  0  0  0  0
  4  3  2  0  0  0  0
  5  4  1  0  0  0  0
  5  6  2  0  0  0  0
  6  1  1  0  0  0  0
  7  8  1  0  0  0  0
  7 19  1  0  0  0  0
  7 18  1  0  0  0  0
  8 10  1  0  0  0  0
  9 21  1  0  0  0  0
  9 22  1  0  0  0  0
  9  8  1  0  0  0  0
 10 24  1  0  0  0  0
 10 25  1  0  0  0  0
 10 23  1  0  0  0  0
 11 26  1  0  0  0  0
 11 12  1  0  0  0  0
 11  6  1  0  0  0  0
 13 29  1  0  0  0  0
 13 12  1  0  0  0  0
 13 28  1  0  0  0  0
 14 31  1  0  0  0  0
 14 32  1  0  0  0  0
 14 12  1  0  0  0  0
 16  4  1  0  0  0  0
 17  5  1  0  0  0  0
 20  9  1  0  0  0  0
 27 11  1  0  0  0  0
 30 13  1  0  0  0  0
 33 14  1  0  0  0  0
M  END
