4,5
q = 0.0, confidence = 0.996

 31 32  0  0  0  0  0  0  0  0999 V2000
   -1.5673    1.0635    0.0196 N   0  0  0  0  0  0  0  0  0  0  0  0
   -3.6931    2.1561   -0.9311 O   0  0  0  0  0  0  0  0  0  0  0  0
   -2.7104    1.9562   -0.7567 H   0  0  0  0  0  0  0  0  0  0  0  0
   -0.2100    0.9849    0.1494 N   0  0  0  0  0  2  0  0  0  0  0  0
    2.4082    0.7523    0.3960 N   0  0  0  0  0  2  0  0  0  0  0  0
   -4.3845    1.1718   -0.3531 C   0  0  0  0  0  0  0  0  0  0  0  0
    1.9014    2.0219    0.3156 C   0  0  0  0  0  0  0  0  0  0  0  0
    2.7485    3.1450    0.4121 C   0  0  0  0  0  0  0  0  0  0  0  0
    2.3262    4.1556    0.3407 H   0  0  0  0  0  0  0  0  0  0  0  0
    0.4498    2.1335    0.1709 C   0  0  0  0  0  0  0  0  0  0  0  0
   -3.7309    0.1175    0.3769 C   0  0  0  0  0  0  0  0  0  0  0  0
   -2.3015    0.1053    0.5297 C   0  0  0  0  0  0  0  0  0  0  0  0
   -1.8295   -0.7137    1.1073 H   0  0  0  0  0  0  0  0  0  0  0  0
    3.7329    0.5807    0.5757 C   0  0  0  0  0  0  0  0  0  0  0  0
    4.0820   -0.4607    0.6235 H   0  0  0  0  0  0  0  0  0  0  0  0
   -5.7931    1.1585   -0.4604 C   0  0  0  0  0  0  0  0  0  0  0  0
   -6.2768    1.9716   -1.0202 H   0  0  0  0  0  0  0  0  0  0  0  0
   -0.2078    3.4772    0.1123 C   0  0  0  0  0  0  0  0  0  0  0  0
   -1.3062    3.3864    0.1175 H   0  0  0  0  0  0  0  0  0  0  0  0
    0.0990    4.0110   -0.8114 H   0  0  0  0  0  0  0  0  0  0  0  0
    0.0940    4.1059    0.9744 H   0  0  0  0  0  0  0  0  0  0  0  0
   -5.9004   -0.9158    0.8372 C   0  0  0  0  0  0  0  0  0  0  0  0
   -6.4984   -1.7207    1.2872 H   0  0  0  0  0  0  0  0  0  0  0  0
    4.1222    2.9607    0.5907 C   0  0  0  0  0  0  0  0  0  0  0  0
    4.7947    3.8281    0.6599 H   0  0  0  0  0  0  0  0  0  0  0  0
   -4.5146   -0.9151    0.9577 C   0  0  0  0  0  0  0  0  0  0  0  0
   -3.9977   -1.7203    1.5027 H   0  0  0  0  0  0  0  0  0  0  0  0
   -6.5325    0.1305    0.1262 C   0  0  0  0  0  0  0  0  0  0  0  0
   -7.6289    0.1352    0.0273 H   0  0  0  0  0  0  0  0  0  0  0  0
    4.6243    1.6532    0.6802 C   0  0  0  0  0  0  0  0  0  0  0  0
    5.6959    1.4562    0.8219 H   0  0  0  0  0  0  0  0  0  0  0  0
  1  4  1  0  0  0  0
  1 12  2  0  0  0  0
  2  3  1  0  0  0  0
  2  6  1  0  0  0  0
  4 10  1  0  0  0  0
  5 14  1  0  0  0  0
  6 11  1  0  0  0  0
  7  5  1  0  0  0  0
  7  8  1  0  0  0  0
  8 24  2  0  0  0  0
  9  8  1  0  0  0  0
 10  7  2  0  0  0  0
 11 12  1  0  0  0  0
 11 26  2  0  0  0  0
 12 13  1  0  0  0  0
 14 15  1  0  0  0  0
 14 30  2  0  0  0  0
 16  6  2  0  0  0  0
 16 28  1  0  0  0  0
 17 16  1  0  0  0  0
 18 19  1  0  0  0  0
 18 10  1  0  0  0  0
 18 21  1  0  0  0  0
 20 18  1  0  0  0  0
 22 26  1  0  0  0  0
 22 23  1  0  0  0  0
 24 25  1  0  0  0  0
 24 30  1  0  0  0  0
 26 27  1  0  0  0  0
 28 22  2  0  0  0  0
 29 28  1  0  0  0  0
 30 31  1  0  0  0  0
M  END
