3,11
q = 0.0, confidence = 0.848

 25 26  0  0  0  0  0  0  0  0999 V2000
   -0.0734    2.5572    0.4209 N   0  0  0  0  0  0  0  0  0  0  0  0
   -1.2325    2.5228   -0.3010 C   0  0  0  0  0  0  0  0  0  0  0  0
   -1.5561    1.3125   -0.9019 N   0  0  0  0  0  2  0  0  0  0  0  0
   -2.7629    1.2015   -1.5051 C   0  0  0  0  0  0  0  0  0  0  0  0
   -2.9569    0.2322   -1.9917 H   0  0  0  0  0  0  0  0  0  0  0  0
   -3.6350    2.2858   -1.5309 C   0  0  0  0  0  0  0  0  0  0  0  0
   -4.6101    2.2104   -2.0310 H   0  0  0  0  0  0  0  0  0  0  0  0
   -3.2018    3.4879   -0.9259 C   0  0  0  0  0  0  0  0  0  0  0  0
   -3.8422    4.3877   -0.9462 H   0  0  0  0  0  0  0  0  0  0  0  0
   -2.0237    3.6084   -0.3176 N   0  0  0  0  0  0  0  0  0  0  0  0
    0.5709    1.4126    0.3867 N   0  0  0  0  0  2  0  0  0  0  0  0
    1.7380    1.3715    1.2012 C   0  0  0  0  0  0  0  0  0  0  0  0
    2.5104    2.5377    1.3861 C   0  0  0  0  0  0  0  0  0  0  0  0
    2.1788    3.4692    0.9090 H   0  0  0  0  0  0  0  0  0  0  0  0
    3.6770    2.4787    2.1516 C   0  0  0  0  0  0  0  0  0  0  0  0
    4.2841    3.3895    2.2749 H   0  0  0  0  0  0  0  0  0  0  0  0
    4.0953    1.2791    2.7695 C   0  0  0  0  0  0  0  0  0  0  0  0
    3.2917    0.1328    2.5957 C   0  0  0  0  0  0  0  0  0  0  0  0
    3.5774   -0.8097    3.0881 H   0  0  0  0  0  0  0  0  0  0  0  0
    2.1319    0.1666    1.8147 C   0  0  0  0  0  0  0  0  0  0  0  0
    1.5065   -0.7293    1.7162 H   0  0  0  0  0  0  0  0  0  0  0  0
    5.3704    1.2259    3.5691 C   0  0  0  0  0  0  0  0  0  0  0  0
    5.5082    2.1422    4.1772 H   0  0  0  0  0  0  0  0  0  0  0  0
    6.2545    1.1483    2.8999 H   0  0  0  0  0  0  0  0  0  0  0  0
    5.3929    0.3510    4.2474 H   0  0  0  0  0  0  0  0  0  0  0  0
  2  1  2  0  0  0  0
  3  2  1  0  0  0  0
  4  3  1  0  0  0  0
  5  4  1  0  0  0  0
  6  4  2  0  0  0  0
  6  8  1  0  0  0  0
  7  6  1  0  0  0  0
  8 10  2  0  0  0  0
  9  8  1  0  0  0  0
 10  2  1  0  0  0  0
 11  1  1  0  0  0  0
 11 12  1  0  0  0  0
 12 13  2  0  0  0  0
 12 20  1  0  0  0  0
 13 15  1  0  0  0  0
 14 13  1  0  0  0  0
 15 16  1  0  0  0  0
 15 17  2  0  0  0  0
 17 22  1  0  0  0  0
 18 17  1  0  0  0  0
 18 19  1  0  0  0  0
 20 18  2  0  0  0  0
 21 20  1  0  0  0  0
 22 23  1  0  0  0  0
 22 25  1  0  0  0  0
 24 22  1  0  0  0  0
M  END
