2,42
q = 0.0, confidence = 0.99

 54 57  0  0  1  0  0  0  0  0999 V2000
    0.6688   -0.8326    0.8780 N   0  0  0  0  0  0  0  0  0  0  0  0
   -0.5997   -0.7262    1.3595 N   0  0  0  0  0  2  0  0  0  0  0  0
   -0.5629   -0.9430    2.6848 C   0  0  1  0  0  3  0  0  0  0  0  0
   -1.8126   -0.9442    3.4998 C   0  0  0  0  0  0  0  0  0  0  0  0
   -2.3191    0.0415    3.4542 H   0  0  0  0  0  0  0  0  0  0  0  0
   -1.5933   -1.1830    4.5564 H   0  0  0  0  0  0  0  0  0  0  0  0
   -2.5192   -1.6912    3.0818 H   0  0  0  0  0  0  0  0  0  0  0  0
    0.7819   -1.1825    3.0589 C   0  0  0  0  0  0  0  0  0  0  0  0
    1.1566   -1.3969    4.0649 H   0  0  0  0  0  0  0  0  0  0  0  0
    1.5511   -1.1063    1.8945 C   0  0  0  0  0  0  0  0  0  0  0  0
    3.0231   -1.2760    1.7223 C   0  0  0  0  0  0  0  0  0  0  0  0
    3.2674   -2.1799    1.1285 H   0  0  0  0  0  0  0  0  0  0  0  0
    3.4932   -1.3756    2.7179 H   0  0  0  0  0  0  0  0  0  0  0  0
    3.4814   -0.4077    1.2095 H   0  0  0  0  0  0  0  0  0  0  0  0
    0.8641   -0.6063   -0.5571 C   0  0  2  0  0  0  0  0  0  0  0  0
   -0.1431   -0.8541   -0.9861 H   0  0  0  0  0  0  0  0  0  0  0  0
    1.8254   -1.6303   -1.1357 C   0  0  0  0  0  0  0  0  0  0  0  0
    3.0420   -1.3259   -1.7686 C   0  0  0  0  0  0  0  0  0  0  0  0
    3.3753   -0.2844   -1.8701 H   0  0  0  0  0  0  0  0  0  0  0  0
    3.8639   -2.3516   -2.2651 C   0  0  0  0  0  0  0  0  0  0  0  0
    4.8161   -2.0960   -2.7539 H   0  0  0  0  0  0  0  0  0  0  0  0
    3.4768   -3.6922   -2.1339 C   0  0  0  0  0  0  0  0  0  0  0  0
    4.1220   -4.4948   -2.5217 H   0  0  0  0  0  0  0  0  0  0  0  0
    2.2547   -4.0044   -1.5130 C   0  0  0  0  0  0  0  0  0  0  0  0
    1.9329   -5.0525   -1.4199 H   0  0  0  0  0  0  0  0  0  0  0  0
    1.4335   -2.9830   -1.0219 C   0  0  0  0  0  0  0  0  0  0  0  0
    0.4686   -3.2249   -0.5464 H   0  0  0  0  0  0  0  0  0  0  0  0
    1.1054    0.8892   -0.9089 C   0  0  2  0  0  0  0  0  0  0  0  0
    1.6203    0.8965   -1.8879 H   0  0  0  0  0  0  0  0  0  0  0  0
    1.9629    1.6358    0.1048 C   0  0  0  0  0  0  0  0  0  0  0  0
    3.3048    1.9561   -0.1765 C   0  0  0  0  0  0  0  0  0  0  0  0
    3.7377    1.6948   -1.1550 H   0  0  0  0  0  0  0  0  0  0  0  0
    4.0993    2.6131    0.7765 C   0  0  0  0  0  0  0  0  0  0  0  0
    5.1464    2.8563    0.5414 H   0  0  0  0  0  0  0  0  0  0  0  0
    3.5547    2.9623    2.0214 C   0  0  0  0  0  0  0  0  0  0  0  0
    4.1756    3.4745    2.7717 H   0  0  0  0  0  0  0  0  0  0  0  0
    2.2101    2.6667    2.3003 C   0  0  0  0  0  0  0  0  0  0  0  0
    1.7731    2.9462    3.2706 H   0  0  0  0  0  0  0  0  0  0  0  0
    1.4165    2.0128    1.3485 C   0  0  0  0  0  0  0  0  0  0  0  0
    0.3617    1.7892    1.5694 H   0  0  0  0  0  0  0  0  0  0  0  0
   -0.1540    1.6328   -1.1499 N   0  0  0  0  0  0  0  0  0  0  0  0
   -1.3091    1.4270   -0.4432 N   0  0  0  0  0  2  0  0  0  0  0  0
   -2.0665    2.5358   -0.5808 C   0  0  2  0  0  3  0  0  0  0  0  0
   -3.4280    2.6408    0.0164 C   0  0  0  0  0  0  0  0  0  0  0  0
   -4.1517    2.0823   -0.6137 H   0  0  0  0  0  0  0  0  0  0  0  0
   -3.7369    3.6999    0.0982 H   0  0  0  0  0  0  0  0  0  0  0  0
   -3.4526    2.1687    1.0186 H   0  0  0  0  0  0  0  0  0  0  0  0
   -1.3748    3.4744   -1.3817 C   0  0  0  0  0  0  0  0  0  0  0  0
   -1.7278    4.4640   -1.6890 H   0  0  0  0  0  0  0  0  0  0  0  0
   -0.1628    2.8824   -1.7255 C   0  0  0  0  0  0  0  0  0  0  0  0
    0.9770    3.4212   -2.5230 C   0  0  0  0  0  0  0  0  0  0  0  0
    1.8723    3.6060   -1.8933 H   0  0  0  0  0  0  0  0  0  0  0  0
    0.6820    4.3799   -2.9870 H   0  0  0  0  0  0  0  0  0  0  0  0
    1.2750    2.7291   -3.3376 H   0  0  0  0  0  0  0  0  0  0  0  0
  1  2  1  0  0  0  0
  1 10  1  0  0  0  0
  2  3  1  0  0  0  0
  3  8  1  0  0  0  0
  3  4  1  6  0  0  0
  4  6  1  0  0  0  0
  5  4  1  0  0  0  0
  7  4  1  0  0  0  0
  8  9  1  0  0  0  0
 10  8  2  0  0  0  0
 11 10  1  0  0  0  0
 11 13  1  0  0  0  0
 12 11  1  0  0  0  0
 14 11  1  0  0  0  0
 15 16  1  6  0  0  0
 15  1  1  0  0  0  0
 17 26  1  0  0  0  0
 17 15  1  0  0  0  0
 18 17  2  0  0  0  0
 19 18  1  0  0  0  0
 20 22  2  0  0  0  0
 20 18  1  0  0  0  0
 21 20  1  0  0  0  0
 22 24  1  0  0  0  0
 23 22  1  0  0  0  0
 24 25  1  0  0  0  0
 24 26  2  0  0  0  0
 26 27  1  0  0  0  0
 28 29  1  6  0  0  0
 28 15  1  0  0  0  0
 28 30  1  0  0  0  0
 30 39  1  0  0  0  0
 31 30  2  0  0  0  0
 31 33  1  0  0  0  0
 32 31  1  0  0  0  0
 33 35  2  0  0  0  0
 34 33  1  0  0  0  0
 35 37  1  0  0  0  0
 35 36  1  0  0  0  0
 37 38  1  0  0  0  0
 39 40  1  0  0  0  0
 39 37  2  0  0  0  0
 41 28  1  0  0  0  0
 41 42  1  0  0  0  0
 43 42  1  0  0  0  0
 43 44  1  6  0  0  0
 44 46  1  0  0  0  0
 44 47  1  0  0  0  0
 45 44  1  0  0  0  0
 48 43  1  0  0  0  0
 49 48  1  0  0  0  0
 50 48  2  0  0  0  0
 50 41  1  0  0  0  0
 51 52  1  0  0  0  0
 51 50  1  0  0  0  0
 53 51  1  0  0  0  0
 54 51  1  0  0  0  0
M  END
