3,13
q = 0.0, confidence = 1.0

 31 33  0  0  1  0  0  0  0  0999 V2000
   -1.4162   -0.0001    0.8680 P   0  0  2  0  0  0  0  0  0  0  0  0
   -0.8778    1.4124   -0.2079 C   0  0  2  0  0  3  0  0  0  0  0  0
    0.4551    1.4798   -0.4559 N   0  0  0  0  0  2  0  0  0  0  0  0
    0.9323    2.4832   -1.2308 C   0  0  0  0  0  0  0  0  0  0  0  0
    2.0066    2.4292   -1.4612 H   0  0  0  0  0  0  0  0  0  0  0  0
    0.1124    3.4969   -1.7318 C   0  0  0  0  0  0  0  0  0  0  0  0
    0.5526    4.2980   -2.3420 H   0  0  0  0  0  0  0  0  0  0  0  0
   -1.2577    3.4625   -1.4390 C   0  0  0  0  0  0  0  0  0  0  0  0
   -1.9340    4.2477   -1.8099 H   0  0  0  0  0  0  0  0  0  0  0  0
   -1.7617    2.4003   -0.6803 C   0  0  0  0  0  0  0  0  0  0  0  0
   -2.8346    2.3258   -0.4675 H   0  0  0  0  0  0  0  0  0  0  0  0
   -0.8776   -1.4127   -0.2075 C   0  0  1  0  0  3  0  0  0  0  0  0
    0.4553   -1.4799   -0.4555 N   0  0  0  0  0  2  0  0  0  0  0  0
    0.9326   -2.4835   -1.2302 C   0  0  0  0  0  0  0  0  0  0  0  0
    2.0069   -2.4295   -1.4606 H   0  0  0  0  0  0  0  0  0  0  0  0
    0.1128   -3.4974   -1.7309 C   0  0  0  0  0  0  0  0  0  0  0  0
    0.5532   -4.2986   -2.3409 H   0  0  0  0  0  0  0  0  0  0  0  0
   -1.2573   -3.4631   -1.4382 C   0  0  0  0  0  0  0  0  0  0  0  0
   -1.9334   -4.2485   -1.8088 H   0  0  0  0  0  0  0  0  0  0  0  0
   -1.7614   -2.4008   -0.6797 C   0  0  0  0  0  0  0  0  0  0  0  0
   -2.8343   -2.3263   -0.4671 H   0  0  0  0  0  0  0  0  0  0  0  0
   -3.2622   -0.0001    0.5764 C   0  0  0  0  0  0  0  0  0  0  0  0
   -3.7594   -0.0009   -0.6775 N   0  0  0  0  0  0  0  0  0  0  0  0
   -5.0911   -0.0008   -0.8299 C   0  0  0  0  0  0  0  0  0  0  0  0
   -5.4644   -0.0016   -1.8697 H   0  0  0  0  0  0  0  0  0  0  0  0
   -5.9949    0.0001    0.2491 C   0  0  0  0  0  0  0  0  0  0  0  0
   -7.0795    0.0002    0.0649 H   0  0  0  0  0  0  0  0  0  0  0  0
   -5.4781    0.0009    1.5507 C   0  0  0  0  0  0  0  0  0  0  0  0
   -6.1482    0.0017    2.4240 H   0  0  0  0  0  0  0  0  0  0  0  0
   -4.0843    0.0008    1.7203 C   0  0  0  0  0  0  0  0  0  0  0  0
   -3.6289    0.0014    2.7224 H   0  0  0  0  0  0  0  0  0  0  0  0
  1 22  1  6  0  0  0
  2  1  1  1  0  0  0
  3  2  1  0  0  0  0
  4  3  1  0  0  0  0
  5  4  1  0  0  0  0
  6  8  1  0  0  0  0
  6  4  2  0  0  0  0
  7  6  1  0  0  0  0
  8 10  2  0  0  0  0
  9  8  1  0  0  0  0
 10 11  1  0  0  0  0
 10  2  1  0  0  0  0
 12  1  1  1  0  0  0
 13 12  1  0  0  0  0
 14 13  1  0  0  0  0
 15 14  1  0  0  0  0
 16 18  1  0  0  0  0
 16 14  2  0  0  0  0
 17 16  1  0  0  0  0
 18 20  2  0  0  0  0
 19 18  1  0  0  0  0
 20 21  1  0  0  0  0
 20 12  1  0  0  0  0
 22 30  1  0  0  0  0
 23 22  2  0  0  0  0
 24 23  1  0  0  0  0
 24 26  2  0  0  0  0
 25 24  1  0  0  0  0
 26 28  1  0  0  0  0
 27 26  1  0  0  0  0
 28 30  2  0  0  0  0
 28 29  1  0  0  0  0
 30 31  1  0  0  0  0
M  END
