1,4
q = 0.0, confidence = 0.996

 46 51  0  0  0  0  0  0  0  0999 V2000
    1.5657    1.0616    0.0420 N   0  0  0  0  0  2  0  0  0  0  0  0
    0.3784    2.9248    0.3288 N   0  0  0  0  0  0  0  0  0  0  0  0
   -1.8443   -1.1520    1.7271 N   0  0  0  0  0  0  0  0  0  0  0  0
    0.4415   -1.4525   -0.7568 N   0  0  0  0  0  2  0  0  0  0  0  0
   -3.3815    0.5877   -0.3446 N   0  0  0  0  0  0  0  0  0  0  0  0
   -4.4145   -1.2460   -1.1580 N   0  0  0  0  0  0  0  0  0  0  0  0
    0.4551    1.5773    0.5829 C   0  0  0  0  0  0  0  0  0  0  0  0
    2.2431    2.1019   -0.5908 C   0  0  0  0  0  0  0  0  0  0  0  0
    1.4829    3.2941   -0.4255 C   0  0  0  0  0  0  0  0  0  0  0  0
    1.8945    4.5194   -0.9731 C   0  0  0  0  0  0  0  0  0  0  0  0
    1.3025    5.4376   -0.8501 H   0  0  0  0  0  0  0  0  0  0  0  0
    3.1030    4.5148   -1.6798 C   0  0  0  0  0  0  0  0  0  0  0  0
    3.4670    5.4540   -2.1221 H   0  0  0  0  0  0  0  0  0  0  0  0
    3.8732    3.3343   -1.8316 C   0  0  0  0  0  0  0  0  0  0  0  0
    4.8234    3.3847   -2.3834 H   0  0  0  0  0  0  0  0  0  0  0  0
    3.4614    2.1124   -1.2917 C   0  0  0  0  0  0  0  0  0  0  0  0
    4.0567    1.1925   -1.3663 H   0  0  0  0  0  0  0  0  0  0  0  0
   -0.5015    0.8328    1.3957 C   0  0  0  0  0  0  0  0  0  0  0  0
   -0.9539    1.3442    2.6264 C   0  0  0  0  0  0  0  0  0  0  0  0
   -0.5838    2.3169    2.9847 H   0  0  0  0  0  0  0  0  0  0  0  0
   -1.8383    0.5857    3.3997 C   0  0  0  0  0  0  0  0  0  0  0  0
   -2.2020    0.9522    4.3704 H   0  0  0  0  0  0  0  0  0  0  0  0
   -2.2308   -0.6720    2.9164 C   0  0  0  0  0  0  0  0  0  0  0  0
   -2.8990   -1.3182    3.5119 H   0  0  0  0  0  0  0  0  0  0  0  0
   -1.0101   -0.4218    0.9734 C   0  0  0  0  0  0  0  0  0  0  0  0
   -0.7903   -1.0071   -0.3930 C   0  0  0  0  0  0  0  0  0  0  0  0
   -1.9170   -1.2157   -1.2292 C   0  0  0  0  0  0  0  0  0  0  0  0
   -1.7588   -1.9853   -2.3979 C   0  0  0  0  0  0  0  0  0  0  0  0
   -2.6099   -2.1366   -3.0789 H   0  0  0  0  0  0  0  0  0  0  0  0
   -0.5030   -2.5266   -2.6942 C   0  0  0  0  0  0  0  0  0  0  0  0
   -0.3443   -3.1519   -3.5838 H   0  0  0  0  0  0  0  0  0  0  0  0
    0.5778   -2.2323   -1.8639 C   0  0  0  0  0  0  0  0  0  0  0  0
    1.5912   -2.6237   -2.0320 H   0  0  0  0  0  0  0  0  0  0  0  0
   -3.2111   -0.6103   -0.8882 C   0  0  0  0  0  0  0  0  0  0  0  0
   -4.7497    0.7473   -0.2281 C   0  0  0  0  0  0  0  0  0  0  0  0
   -5.4977    1.8240    0.2902 C   0  0  0  0  0  0  0  0  0  0  0  0
   -4.9838    2.7155    0.6776 H   0  0  0  0  0  0  0  0  0  0  0  0
   -6.8916    1.7130    0.2989 C   0  0  0  0  0  0  0  0  0  0  0  0
   -7.4991    2.5376    0.7008 H   0  0  0  0  0  0  0  0  0  0  0  0
   -7.5455    0.5575   -0.1979 C   0  0  0  0  0  0  0  0  0  0  0  0
   -8.6444    0.5097   -0.1717 H   0  0  0  0  0  0  0  0  0  0  0  0
   -6.8277   -0.5254   -0.7221 C   0  0  0  0  0  0  0  0  0  0  0  0
   -7.3409   -1.4191   -1.1061 H   0  0  0  0  0  0  0  0  0  0  0  0
   -5.4291   -0.4087   -0.7307 C   0  0  0  0  0  0  0  0  0  0  0  0
   -4.5195   -2.2089   -1.4768 H   0  0  0  0  0  0  0  0  0  0  0  0
   -0.4295    3.5050    0.5531 H   0  0  0  0  0  0  0  0  0  0  0  0
  1  7  1  0  0  0  0
  2 46  1  0  0  0  0
  2  7  1  0  0  0  0
  3 23  2  0  0  0  0
  4 26  1  0  0  0  0
  5 35  1  0  0  0  0
  6 34  1  0  0  0  0
  6 44  1  0  0  0  0
  7 18  2  0  0  0  0
  8  9  1  0  0  0  0
  8  1  1  0  0  0  0
  9  2  1  0  0  0  0
 10 11  1  0  0  0  0
 10  9  2  0  0  0  0
 12 10  1  0  0  0  0
 13 12  1  0  0  0  0
 14 12  2  0  0  0  0
 14 16  1  0  0  0  0
 15 14  1  0  0  0  0
 16  8  2  0  0  0  0
 17 16  1  0  0  0  0
 18 19  1  0  0  0  0
 19 20  1  0  0  0  0
 19 21  2  0  0  0  0
 21 22  1  0  0  0  0
 23 21  1  0  0  0  0
 23 24  1  0  0  0  0
 25 18  1  0  0  0  0
 25  3  1  0  0  0  0
 26 25  2  0  0  0  0
 27 34  1  0  0  0  0
 27 26  1  0  0  0  0
 28 27  2  0  0  0  0
 29 28  1  0  0  0  0
 30 28  1  0  0  0  0
 30 32  2  0  0  0  0
 31 30  1  0  0  0  0
 32  4  1  0  0  0  0
 33 32  1  0  0  0  0
 34  5  2  0  0  0  0
 35 36  1  0  0  0  0
 36 38  2  0  0  0  0
 36 37  1  0  0  0  0
 38 39  1  0  0  0  0
 40 41  1  0  0  0  0
 40 38  1  0  0  0  0
 42 40  2  0  0  0  0
 43 42  1  0  0  0  0
 44 42  1  0  0  0  0
 44 35  2  0  0  0  0
 45  6  1  0  0  0  0
M  END
