23,24
q = 0.0, confidence = 0.998

 26 28  0  0  1  0  0  0  0  0999 V2000
    0.3776   -1.2574   -3.0899 C   0  0  0  0  0  3  0  0  0  0  0  0
    0.5385   -2.2779   -2.7090 H   0  0  0  0  0  0  0  0  0  0  0  0
    0.4003   -0.9620   -4.4602 C   0  0  0  0  0  0  0  0  0  0  0  0
    0.5819   -1.7683   -5.1845 H   0  0  0  0  0  0  0  0  0  0  0  0
    0.1876    0.3601   -4.8813 C   0  0  0  0  0  0  0  0  0  0  0  0
    0.1971    0.6165   -5.9507 H   0  0  0  0  0  0  0  0  0  0  0  0
   -0.0342    1.3529   -3.9191 C   0  0  0  0  0  0  0  0  0  0  0  0
   -0.2000    2.4030   -4.1970 H   0  0  0  0  0  0  0  0  0  0  0  0
   -0.0379    0.9789   -2.5658 C   0  0  0  0  0  0  0  0  0  0  0  0
   -0.2296    1.8813   -1.4522 C   0  0  1  0  0  3  0  0  0  0  0  0
   -0.5754    3.5702   -0.1748 C   0  0  0  0  0  0  0  0  0  0  0  0
   -0.8483    4.9497    0.1788 C   0  0  0  0  0  0  0  0  0  0  0  0
   -1.0160    5.9397   -0.8165 C   0  0  0  0  0  0  0  0  0  0  0  0
   -0.9396    5.6685   -1.8790 H   0  0  0  0  0  0  0  0  0  0  0  0
   -1.2782    7.2615   -0.4405 C   0  0  0  0  0  0  0  0  0  0  0  0
   -1.4085    8.0332   -1.2133 H   0  0  0  0  0  0  0  0  0  0  0  0
   -1.3743    7.6029    0.9193 C   0  0  0  0  0  0  0  0  0  0  0  0
   -1.5804    8.6439    1.2095 H   0  0  0  0  0  0  0  0  0  0  0  0
   -1.2079    6.6188    1.9099 C   0  0  0  0  0  0  0  0  0  0  0  0
   -1.2838    6.8888    2.9733 H   0  0  0  0  0  0  0  0  0  0  0  0
   -0.9456    5.2945    1.5481 C   0  0  0  0  0  0  0  0  0  0  0  0
   -0.8133    4.5120    2.3089 H   0  0  0  0  0  0  0  0  0  0  0  0
    0.1595   -0.3127   -2.1566 N   0  0  0  0  0  2  0  0  0  0  0  0
   -0.1691    1.4696   -0.1947 N   0  0  0  0  0  2  0  0  0  0  0  0
   -0.3862    2.5368    0.6245 N   0  0  0  0  0  0  0  0  0  0  0  0
   -0.4846    3.2030   -1.5074 O   0  0  0  0  0  0  0  0  0  0  0  0
  1  2  1  0  0  0  0
  1 23  1  0  0  0  0
  3  1  1  0  0  0  0
  4  3  1  0  0  0  0
  5  3  2  0  0  0  0
  5  7  1  0  0  0  0
  6  5  1  0  0  0  0
  7  9  2  0  0  0  0
  8  7  1  0  0  0  0
  9 23  1  0  0  0  0
 10  9  1  1  0  0  0
 10 24  1  0  0  0  0
 11 12  1  0  0  0  0
 11 25  2  0  0  0  0
 12 21  1  0  0  0  0
 13 15  1  0  0  0  0
 13 12  2  0  0  0  0
 14 13  1  0  0  0  0
 15 17  2  0  0  0  0
 16 15  1  0  0  0  0
 17 18  1  0  0  0  0
 17 19  1  0  0  0  0
 19 20  1  0  0  0  0
 21 19  2  0  0  0  0
 21 22  1  0  0  0  0
 24 25  1  0  0  0  0
 26 10  1  0  0  0  0
 26 11  1  0  0  0  0
M  END
