27,28
q = 0.0, confidence = 0.994

 29 31  0  0  1  0  0  0  0  0999 V2000
   -0.5595   -1.5231   -3.0470 C   0  0  0  0  0  3  0  0  0  0  0  0
   -0.8162   -2.5051   -2.6202 H   0  0  0  0  0  0  0  0  0  0  0  0
   -0.5586   -1.2891   -4.4292 C   0  0  0  0  0  0  0  0  0  0  0  0
   -0.8194   -2.1059   -5.1165 H   0  0  0  0  0  0  0  0  0  0  0  0
   -0.2213   -0.0136   -4.9091 C   0  0  0  0  0  0  0  0  0  0  0  0
   -0.2097    0.1941   -5.9890 H   0  0  0  0  0  0  0  0  0  0  0  0
    0.0980    0.9955   -3.9927 C   0  0  0  0  0  0  0  0  0  0  0  0
    0.3629    2.0112   -4.3174 H   0  0  0  0  0  0  0  0  0  0  0  0
    0.0705    0.6847   -2.6236 C   0  0  0  0  0  0  0  0  0  0  0  0
    0.3512    1.6136   -1.5520 C   0  0  2  0  0  3  0  0  0  0  0  0
    0.8603    3.3182   -0.3506 C   0  0  0  0  0  0  0  0  0  0  0  0
    1.2626    4.6772   -0.0592 C   0  0  0  0  0  0  0  0  0  0  0  0
    1.5228    5.6065   -1.0908 C   0  0  0  0  0  0  0  0  0  0  0  0
    1.4213    5.3031   -2.1426 H   0  0  0  0  0  0  0  0  0  0  0  0
    1.9097    6.9107   -0.7709 C   0  0  0  0  0  0  0  0  0  0  0  0
    2.1113    7.6286   -1.5804 H   0  0  0  0  0  0  0  0  0  0  0  0
    1.3980    5.0785    1.2924 C   0  0  0  0  0  0  0  0  0  0  0  0
    1.1962    4.3502    2.0909 H   0  0  0  0  0  0  0  0  0  0  0  0
    1.7849    6.3835    1.5925 C   0  0  0  0  0  0  0  0  0  0  0  0
    1.8887    6.6867    2.6458 H   0  0  0  0  0  0  0  0  0  0  0  0
    2.0477    7.3268    0.5709 C   0  0  0  0  0  0  0  0  0  0  0  0
    2.4539    8.7326    0.9168 C   0  0  0  0  0  0  0  0  0  0  0  0
    1.6331    9.2605    1.4465 H   0  0  0  0  0  0  0  0  0  0  0  0
    2.7125    9.3222    0.0174 H   0  0  0  0  0  0  0  0  0  0  0  0
    3.3274    8.7396    1.6006 H   0  0  0  0  0  0  0  0  0  0  0  0
    0.5763    2.3424    0.4942 N   0  0  0  0  0  0  0  0  0  0  0  0
    0.2565    1.2664   -0.2773 N   0  0  0  0  0  2  0  0  0  0  0  0
   -0.2483   -0.5627   -2.1572 N   0  0  0  0  0  2  0  0  0  0  0  0
    0.7302    2.9016   -1.6662 O   0  0  0  0  0  0  0  0  0  0  0  0
  1  2  1  0  0  0  0
  1 28  1  0  0  0  0
  3  1  1  0  0  0  0
  4  3  1  0  0  0  0
  5  3  2  0  0  0  0
  5  7  1  0  0  0  0
  6  5  1  0  0  0  0
  7  9  2  0  0  0  0
  8  7  1  0  0  0  0
  9 28  1  0  0  0  0
 10  9  1  1  0  0  0
 10 27  1  0  0  0  0
 11 12  1  0  0  0  0
 11 26  2  0  0  0  0
 12 17  1  0  0  0  0
 13 15  1  0  0  0  0
 13 12  2  0  0  0  0
 14 13  1  0  0  0  0
 15 21  2  0  0  0  0
 16 15  1  0  0  0  0
 17 19  2  0  0  0  0
 17 18  1  0  0  0  0
 19 20  1  0  0  0  0
 21 22  1  0  0  0  0
 21 19  1  0  0  0  0
 22 23  1  0  0  0  0
 22 25  1  0  0  0  0
 24 22  1  0  0  0  0
 27 26  1  0  0  0  0
 29 10  1  0  0  0  0
 29 11  1  0  0  0  0
M  END
