3,4
q = 0.0, confidence = 1.0

 48 51  0  0  1  0  0  0  0  0999 V2000
   -0.9593    0.8513    1.1655 O   0  0  0  0  0  0  0  0  0  0  0  0
   -0.6545    0.2364   -1.6477 O   0  0  0  0  0  0  0  0  0  0  0  0
   -0.6030   -1.8720    0.9171 N   0  0  0  0  0  2  0  0  0  0  0  0
    1.9983    0.7589   -1.1353 N   0  0  0  0  0  2  0  0  0  0  0  0
   -0.5068   -3.1406    0.4709 C   0  0  0  0  0  3  0  0  0  0  0  0
    0.4821   -3.4286    0.0780 H   0  0  0  0  0  0  0  0  0  0  0  0
   -1.5944   -4.0217    0.4858 C   0  0  0  0  0  0  0  0  0  0  0  0
   -1.4702   -5.0497    0.1170 H   0  0  0  0  0  0  0  0  0  0  0  0
   -2.8272   -3.5580    0.9646 C   0  0  0  0  0  0  0  0  0  0  0  0
   -3.7102   -4.2145    0.9747 H   0  0  0  0  0  0  0  0  0  0  0  0
   -2.9241   -2.2367    1.4155 C   0  0  0  0  0  0  0  0  0  0  0  0
   -3.8791   -1.8279    1.7754 H   0  0  0  0  0  0  0  0  0  0  0  0
   -1.7851   -1.4161    1.3839 C   0  0  0  0  0  0  0  0  0  0  0  0
   -1.8244   -0.0034    1.9168 C   0  0  0  0  0  0  0  0  0  0  0  0
   -2.8633    0.3812    1.9026 H   0  0  0  0  0  0  0  0  0  0  0  0
   -1.4476   -0.0036    2.9651 H   0  0  0  0  0  0  0  0  0  0  0  0
   -1.5060    1.9935    0.6056 C   0  0  0  0  0  0  0  0  0  0  0  0
   -1.0514    3.2324    1.0794 C   0  0  0  0  0  0  0  0  0  0  0  0
   -0.2778    3.2460    1.8617 H   0  0  0  0  0  0  0  0  0  0  0  0
   -1.5977    4.4110    0.5517 C   0  0  0  0  0  0  0  0  0  0  0  0
   -1.2449    5.3856    0.9213 H   0  0  0  0  0  0  0  0  0  0  0  0
   -2.6001    4.3460   -0.4296 C   0  0  0  0  0  0  0  0  0  0  0  0
   -3.0374    5.2698   -0.8369 H   0  0  0  0  0  0  0  0  0  0  0  0
   -3.0331    3.1008   -0.9073 C   0  0  0  0  0  0  0  0  0  0  0  0
   -3.7908    3.0442   -1.7039 H   0  0  0  0  0  0  0  0  0  0  0  0
   -2.4806    1.8990   -0.4165 C   0  0  0  0  0  0  0  0  0  0  0  0
   -2.8891    0.5867   -0.9857 C   0  0  0  0  0  0  0  0  0  0  0  0
   -4.2287    0.1581   -0.9641 C   0  0  0  0  0  0  0  0  0  0  0  0
   -4.9745    0.8061   -0.4779 H   0  0  0  0  0  0  0  0  0  0  0  0
   -4.6179   -1.0654   -1.5326 C   0  0  0  0  0  0  0  0  0  0  0  0
   -5.6708   -1.3812   -1.4967 H   0  0  0  0  0  0  0  0  0  0  0  0
   -3.6536   -1.8761   -2.1472 C   0  0  0  0  0  0  0  0  0  0  0  0
   -3.9422   -2.8394   -2.5945 H   0  0  0  0  0  0  0  0  0  0  0  0
   -2.3115   -1.4684   -2.2056 C   0  0  0  0  0  0  0  0  0  0  0  0
   -1.5652   -2.1089   -2.6946 H   0  0  0  0  0  0  0  0  0  0  0  0
   -1.9269   -0.2442   -1.6288 C   0  0  0  0  0  0  0  0  0  0  0  0
    0.3205   -0.3417   -2.5110 C   0  0  0  0  0  0  0  0  0  0  0  0
   -0.0439   -0.3558   -3.5614 H   0  0  0  0  0  0  0  0  0  0  0  0
    0.5725   -1.3824   -2.2019 H   0  0  0  0  0  0  0  0  0  0  0  0
    1.5609    0.5096   -2.3877 C   0  0  1  0  0  3  0  0  0  0  0  0
    2.2288    1.0204   -3.5104 C   0  0  0  0  0  0  0  0  0  0  0  0
    1.8448    0.8095   -4.5191 H   0  0  0  0  0  0  0  0  0  0  0  0
    3.3786    1.8010   -3.3218 C   0  0  0  0  0  0  0  0  0  0  0  0
    3.9220    2.2077   -4.1879 H   0  0  0  0  0  0  0  0  0  0  0  0
    3.8134    2.0650   -2.0171 C   0  0  0  0  0  0  0  0  0  0  0  0
    4.7033    2.6794   -1.8210 H   0  0  0  0  0  0  0  0  0  0  0  0
    3.0887    1.5234   -0.9465 C   0  0  0  0  0  0  0  0  0  0  0  0
    3.3776    1.6992    0.1018 H   0  0  0  0  0  0  0  0  0  0  0  0
  1 14  1  0  0  0  0
  2 36  1  0  0  0  0
  3 13  1  0  0  0  0
  4 47  1  0  0  0  0
  5  7  1  0  0  0  0
  5  3  1  0  0  0  0
  6  5  1  0  0  0  0
  7  9  2  0  0  0  0
  8  7  1  0  0  0  0
  9 10  1  0  0  0  0
  9 11  1  0  0  0  0
 11 12  1  0  0  0  0
 13 11  2  0  0  0  0
 13 14  1  0  0  0  0
 14 16  1  0  0  0  0
 15 14  1  0  0  0  0
 17 18  1  0  0  0  0
 17  1  1  0  0  0  0
 18 19  1  0  0  0  0
 20 21  1  0  0  0  0
 20 18  2  0  0  0  0
 22 20  1  0  0  0  0
 23 22  1  0  0  0  0
 24 22  2  0  0  0  0
 24 26  1  0  0  0  0
 25 24  1  0  0  0  0
 26 17  2  0  0  0  0
 27 28  1  0  0  0  0
 27 26  1  0  0  0  0
 28 29  1  0  0  0  0
 30 31  1  0  0  0  0
 30 28  2  0  0  0  0
 32 30  1  0  0  0  0
 33 32  1  0  0  0  0
 34 32  2  0  0  0  0
 34 36  1  0  0  0  0
 35 34  1  0  0  0  0
 36 27  2  0  0  0  0
 37 39  1  0  0  0  0
 37  2  1  0  0  0  0
 38 37  1  0  0  0  0
 40 37  1  1  0  0  0
 40  4  1  0  0  0  0
 41 43  2  0  0  0  0
 41 40  1  0  0  0  0
 42 41  1  0  0  0  0
 43 45  1  0  0  0  0
 44 43  1  0  0  0  0
 45 46  1  0  0  0  0
 45 47  2  0  0  0  0
 47 48  1  0  0  0  0
M  END
