2,3
q = 0.0, confidence = 0.972

 39 43  0  0  1  0  0  0  0  0999 V2000
   -3.7012   -1.5174    0.0489 N   0  0  0  0  0  0  0  0  0  0  0  0
   -2.3992    0.4016    0.1066 N   0  0  0  0  0  2  0  0  0  0  0  0
    0.1127    1.3502    0.2017 N   0  0  0  0  0  2  0  0  0  0  0  0
    3.6576    1.1460   -0.1922 N   0  0  0  0  0  0  0  0  0  0  0  0
    5.8703    0.6864   -0.6878 N   0  0  0  0  0  0  0  0  0  0  0  0
   -4.8674   -2.1270    0.1808 C   0  0  0  0  0  0  0  0  0  0  0  0
   -6.0731   -1.4544    0.5239 C   0  0  0  0  0  0  0  0  0  0  0  0
   -6.0317   -0.0819    0.7093 C   0  0  0  0  0  0  0  0  0  0  0  0
   -4.7933    0.6018    0.5655 C   0  0  0  0  0  0  0  0  0  0  0  0
   -3.6329   -0.1839    0.2422 C   0  0  1  0  0  3  0  0  0  0  0  0
   -4.6344    2.0057    0.7191 C   0  0  0  0  0  0  0  0  0  0  0  0
   -3.3824    2.5642    0.5571 C   0  0  0  0  0  0  0  0  0  0  0  0
   -2.2674    1.7302    0.2517 C   0  0  0  0  0  0  0  0  0  0  0  0
   -0.8973    2.2676    0.1353 C   0  0  1  0  0  3  0  0  0  0  0  0
   -0.6469    3.6407   -0.0215 C   0  0  0  0  0  0  0  0  0  0  0  0
    0.6741    4.0848   -0.1408 C   0  0  0  0  0  0  0  0  0  0  0  0
    1.7036    3.1524   -0.0215 C   0  0  0  0  0  0  0  0  0  0  0  0
    1.3943    1.7928    0.1932 C   0  0  0  0  0  0  0  0  0  0  0  0
    2.5304    0.8622    0.4543 C   0  0  0  0  0  0  0  0  0  0  0  0
    2.4039   -0.1869    1.4163 C   0  0  0  0  0  0  0  0  0  0  0  0
    3.5027   -0.9951    1.6436 C   0  0  0  0  0  0  0  0  0  0  0  0
    4.7092   -0.7568    0.9319 C   0  0  0  0  0  0  0  0  0  0  0  0
    4.7461    0.3598    0.0140 C   0  0  0  0  0  0  0  0  0  0  0  0
    5.8869   -1.5412    1.0768 C   0  0  0  0  0  0  0  0  0  0  0  0
    7.0106   -1.2005    0.3441 C   0  0  0  0  0  0  0  0  0  0  0  0
    6.9433   -0.0686   -0.5210 C   0  0  0  0  0  0  0  0  0  0  0  0
   -4.8704   -3.2168    0.0003 H   0  0  0  0  0  0  0  0  0  0  0  0
   -7.0109   -2.0195    0.6244 H   0  0  0  0  0  0  0  0  0  0  0  0
   -6.9374    0.4913    0.9612 H   0  0  0  0  0  0  0  0  0  0  0  0
   -5.5048    2.6303    0.9719 H   0  0  0  0  0  0  0  0  0  0  0  0
   -3.2351    3.6428    0.6918 H   0  0  0  0  0  0  0  0  0  0  0  0
   -1.4807    4.3502   -0.0939 H   0  0  0  0  0  0  0  0  0  0  0  0
    0.8938    5.1489   -0.3110 H   0  0  0  0  0  0  0  0  0  0  0  0
    2.7661    3.4228   -0.0860 H   0  0  0  0  0  0  0  0  0  0  0  0
    1.4442   -0.3733    1.9266 H   0  0  0  0  0  0  0  0  0  0  0  0
    3.4449   -1.8262    2.3642 H   0  0  0  0  0  0  0  0  0  0  0  0
    5.8848   -2.4022    1.7641 H   0  0  0  0  0  0  0  0  0  0  0  0
    7.9428   -1.7797    0.4194 H   0  0  0  0  0  0  0  0  0  0  0  0
    7.8399    0.2159   -1.1032 H   0  0  0  0  0  0  0  0  0  0  0  0
  1  6  2  0  0  0  0
  2 10  1  0  0  0  0
  2 13  1  0  0  0  0
  4 23  2  0  0  0  0
  4 19  1  0  0  0  0
  5 26  2  0  0  0  0
  5 23  1  0  0  0  0
  6  7  1  0  0  0  0
  7 28  1  0  0  0  0
  7  8  2  0  0  0  0
  8 29  1  0  0  0  0
  9  8  1  0  0  0  0
  9 11  2  0  0  0  0
 10  1  1  6  0  0  0
 10  9  1  0  0  0  0
 11 30  1  0  0  0  0
 12 31  1  0  0  0  0
 12 11  1  0  0  0  0
 13 12  2  0  0  0  0
 14  3  1  0  0  0  0
 14 13  1  1  0  0  0
 15 14  1  0  0  0  0
 16 17  1  0  0  0  0
 16 15  2  0  0  0  0
 17 18  2  0  0  0  0
 18  3  1  0  0  0  0
 18 19  1  0  0  0  0
 19 20  2  0  0  0  0
 20 21  1  0  0  0  0
 20 35  1  0  0  0  0
 21 36  1  0  0  0  0
 22 24  1  0  0  0  0
 22 21  2  0  0  0  0
 23 22  1  0  0  0  0
 24 37  1  0  0  0  0
 25 38  1  0  0  0  0
 25 24  2  0  0  0  0
 26 25  1  0  0  0  0
 27  6  1  0  0  0  0
 32 15  1  0  0  0  0
 33 16  1  0  0  0  0
 34 17  1  0  0  0  0
 39 26  1  0  0  0  0
M  END
