2,3
q = 0.0, confidence = 0.996

 29 31  0  0  1  0  0  0  0  0999 V2000
    2.1396    1.2607   -1.2696 O   0  0  0  0  0  0  0  0  0  0  0  0
   -1.0787    1.5883    0.3375 N   0  0  0  0  0  2  0  0  0  0  0  0
    0.5570   -0.2307   -0.6596 N   0  0  0  0  0  2  0  0  0  0  0  0
   -1.9430    2.4742    0.8704 C   0  0  0  0  0  3  0  0  0  0  0  0
   -2.8817    2.0568    1.2626 H   0  0  0  0  0  0  0  0  0  0  0  0
   -1.6744    3.8479    0.9174 C   0  0  0  0  0  0  0  0  0  0  0  0
   -2.4176    4.5269    1.3585 H   0  0  0  0  0  0  0  0  0  0  0  0
   -0.4631    4.3317    0.3971 C   0  0  0  0  0  0  0  0  0  0  0  0
   -0.2296    5.4060    0.4229 H   0  0  0  0  0  0  0  0  0  0  0  0
    0.4426    3.4202   -0.1575 C   0  0  0  0  0  0  0  0  0  0  0  0
    1.4070    3.7328   -0.5806 H   0  0  0  0  0  0  0  0  0  0  0  0
    0.0970    2.0615   -0.1748 C   0  0  0  0  0  0  0  0  0  0  0  0
    0.9482    1.0099   -0.7168 C   0  0  1  0  0  3  0  0  0  0  0  0
    2.7607   -0.0779   -1.4990 C   0  0  2  0  0  0  0  0  0  0  0  0
    3.1667   -0.0418   -2.5266 H   0  0  0  0  0  0  0  0  0  0  0  0
    1.5507   -1.0394   -1.3594 C   0  0  0  0  0  0  0  0  0  0  0  0
    1.1214   -1.3411   -2.3389 H   0  0  0  0  0  0  0  0  0  0  0  0
    1.7940   -1.9560   -0.7883 H   0  0  0  0  0  0  0  0  0  0  0  0
    3.8698   -0.2731   -0.4953 C   0  0  0  0  0  0  0  0  0  0  0  0
    5.2117   -0.1337   -0.8956 C   0  0  0  0  0  0  0  0  0  0  0  0
    5.4415    0.0969   -1.9481 H   0  0  0  0  0  0  0  0  0  0  0  0
    6.2531   -0.2884    0.0317 C   0  0  0  0  0  0  0  0  0  0  0  0
    7.2985   -0.1829   -0.2950 H   0  0  0  0  0  0  0  0  0  0  0  0
    5.9589   -0.5781    1.3725 C   0  0  0  0  0  0  0  0  0  0  0  0
    6.7737   -0.7007    2.1020 H   0  0  0  0  0  0  0  0  0  0  0  0
    4.6219   -0.7167    1.7820 C   0  0  0  0  0  0  0  0  0  0  0  0
    4.3865   -0.9475    2.8318 H   0  0  0  0  0  0  0  0  0  0  0  0
    3.5818   -0.5702    0.8547 C   0  0  0  0  0  0  0  0  0  0  0  0
    2.5392   -0.6881    1.1907 H   0  0  0  0  0  0  0  0  0  0  0  0
  1 13  1  0  0  0  0
  2  4  1  0  0  0  0
  4  6  1  0  0  0  0
  4  5  1  0  0  0  0
  6  7  1  0  0  0  0
  8  9  1  0  0  0  0
  8  6  2  0  0  0  0
 10  8  1  0  0  0  0
 11 10  1  0  0  0  0
 12 10  2  0  0  0  0
 12  2  1  0  0  0  0
 13  3  1  0  0  0  0
 13 12  1  1  0  0  0
 14 15  1  6  0  0  0
 14 16  1  0  0  0  0
 14  1  1  0  0  0  0
 14 19  1  0  0  0  0
 16 18  1  0  0  0  0
 16  3  1  0  0  0  0
 17 16  1  0  0  0  0
 19 28  1  0  0  0  0
 20 19  2  0  0  0  0
 20 22  1  0  0  0  0
 21 20  1  0  0  0  0
 22 24  2  0  0  0  0
 23 22  1  0  0  0  0
 24 26  1  0  0  0  0
 24 25  1  0  0  0  0
 26 27  1  0  0  0  0
 28 29  1  0  0  0  0
 28 26  2  0  0  0  0
M  END
