2,3
q = 0.0, confidence = 0.996

 24 26  0  0  0  0  0  0  0  0999 V2000
   -7.6500   -0.2365    0.1024 S   0  0  0  0  0  0  0  0  0  0  0  0
    0.3435    1.4663   -0.3204 N   0  0  0  0  0  2  0  0  0  0  0  0
   -0.0712   -1.1908   -0.3410 N   0  0  0  0  0  2  0  0  0  0  0  0
   -4.8767   -0.5086   -0.0631 N   0  0  0  0  0  0  0  0  0  0  0  0
   -0.2449   -2.5216   -0.3465 C   0  0  0  0  0  0  0  0  0  0  0  0
    0.6692   -3.1308   -0.3934 H   0  0  0  0  0  0  0  0  0  0  0  0
   -1.5190   -3.1183   -0.2859 C   0  0  0  0  0  0  0  0  0  0  0  0
   -1.5980   -4.2143   -0.2909 H   0  0  0  0  0  0  0  0  0  0  0  0
   -2.6537   -2.3142   -0.2139 C   0  0  0  0  0  0  0  0  0  0  0  0
   -3.6640   -2.7448   -0.1620 H   0  0  0  0  0  0  0  0  0  0  0  0
   -2.4959   -0.9090   -0.2026 C   0  0  0  0  0  0  0  0  0  0  0  0
   -3.6105    0.0200   -0.1250 C   0  0  0  0  0  0  0  0  0  0  0  0
   -3.3871    1.3900   -0.1151 C   0  0  0  0  0  0  0  0  0  0  0  0
   -4.2423    2.0783   -0.0547 H   0  0  0  0  0  0  0  0  0  0  0  0
   -2.0618    1.9262   -0.1800 C   0  0  0  0  0  0  0  0  0  0  0  0
   -1.7790    3.3171   -0.1696 C   0  0  0  0  0  0  0  0  0  0  0  0
   -2.6047    4.0417   -0.1085 H   0  0  0  0  0  0  0  0  0  0  0  0
   -0.4548    3.7398   -0.2322 C   0  0  0  0  0  0  0  0  0  0  0  0
   -0.1980    4.8082   -0.2203 H   0  0  0  0  0  0  0  0  0  0  0  0
    0.5815    2.7873   -0.3056 C   0  0  0  0  0  0  0  0  0  0  0  0
    1.6367    3.0929   -0.3458 H   0  0  0  0  0  0  0  0  0  0  0  0
   -0.9514    1.0338   -0.2541 C   0  0  0  0  0  0  0  0  0  0  0  0
   -1.1750   -0.3846   -0.2649 C   0  0  0  0  0  0  0  0  0  0  0  0
   -6.0780   -0.3398    0.0099 C   0  0  0  0  0  0  0  0  0  0  0  0
  2 20  1  0  0  0  0
  2 22  1  0  0  0  0
  3 23  1  0  0  0  0
  4 24  2  0  0  0  0
  5  3  1  0  0  0  0
  5  7  2  0  0  0  0
  6  5  1  0  0  0  0
  7  9  1  0  0  0  0
  8  7  1  0  0  0  0
  9 11  2  0  0  0  0
  9 10  1  0  0  0  0
 11 12  1  0  0  0  0
 12 13  2  0  0  0  0
 12  4  1  0  0  0  0
 13 14  1  0  0  0  0
 15 16  2  0  0  0  0
 15 13  1  0  0  0  0
 16 17  1  0  0  0  0
 18 19  1  0  0  0  0
 18 16  1  0  0  0  0
 20 18  2  0  0  0  0
 21 20  1  0  0  0  0
 22 15  1  0  0  0  0
 23 22  2  0  0  0  0
 23 11  1  0  0  0  0
 24  1  2  0  0  0  0
M  END
