1,2
q = 0.0, confidence = 0.998

 32 34  0  0  1  0  0  0  0  0999 V2000
    1.3852    1.2112    0.3084 N   0  0  0  0  0  2  0  0  0  0  0  0
    0.4885   -1.2061   -0.5872 N   0  0  0  0  0  0  0  0  0  0  0  0
    0.3690   -2.1529   -0.1972 H   0  0  0  0  0  0  0  0  0  0  0  0
   -1.6956   -0.4343   -0.7579 N   0  0  0  0  0  0  0  0  0  0  0  0
    1.9879    2.4125    0.3150 C   0  0  0  0  0  3  0  0  0  0  0  0
    3.0847    2.3965    0.4221 H   0  0  0  0  0  0  0  0  0  0  0  0
    1.2615    3.5982    0.1551 C   0  0  0  0  0  0  0  0  0  0  0  0
    1.7782    4.5682    0.1740 H   0  0  0  0  0  0  0  0  0  0  0  0
   -0.1250    3.5125   -0.0459 C   0  0  0  0  0  0  0  0  0  0  0  0
   -0.7257    4.4242   -0.1838 H   0  0  0  0  0  0  0  0  0  0  0  0
   -0.7388    2.2521   -0.0933 C   0  0  0  0  0  0  0  0  0  0  0  0
   -1.8155    2.1418   -0.2816 H   0  0  0  0  0  0  0  0  0  0  0  0
    0.0596    1.1142    0.0941 C   0  0  0  0  0  0  0  0  0  0  0  0
   -0.4922   -0.3171    0.0554 C   0  0  2  0  0  0  0  0  0  0  0  0
   -0.6392   -0.6694    1.1011 H   0  0  0  0  0  0  0  0  0  0  0  0
    0.1524   -1.1415   -2.0204 C   0  0  0  0  0  0  0  0  0  0  0  0
    0.5542   -2.0197   -2.5574 H   0  0  0  0  0  0  0  0  0  0  0  0
    0.6348   -0.2373   -2.4444 H   0  0  0  0  0  0  0  0  0  0  0  0
   -1.3841   -1.0416   -2.0495 C   0  0  0  0  0  0  0  0  0  0  0  0
   -1.7469   -0.4272   -2.9019 H   0  0  0  0  0  0  0  0  0  0  0  0
   -1.8593   -2.0472   -2.1376 H   0  0  0  0  0  0  0  0  0  0  0  0
   -2.9832   -0.3485   -0.2442 C   0  0  0  0  0  0  0  0  0  0  0  0
   -3.2168    0.0902    1.0866 C   0  0  0  0  0  0  0  0  0  0  0  0
   -2.3762    0.3732    1.7358 H   0  0  0  0  0  0  0  0  0  0  0  0
   -4.5214    0.1724    1.5883 C   0  0  0  0  0  0  0  0  0  0  0  0
   -4.6716    0.5103    2.6251 H   0  0  0  0  0  0  0  0  0  0  0  0
   -5.6265   -0.1656    0.7915 C   0  0  0  0  0  0  0  0  0  0  0  0
   -6.6480   -0.0958    1.1921 H   0  0  0  0  0  0  0  0  0  0  0  0
   -5.4026   -0.5900   -0.5274 C   0  0  0  0  0  0  0  0  0  0  0  0
   -6.2541   -0.8573   -1.1720 H   0  0  0  0  0  0  0  0  0  0  0  0
   -4.1052   -0.6821   -1.0469 C   0  0  0  0  0  0  0  0  0  0  0  0
   -3.9626   -1.0117   -2.0849 H   0  0  0  0  0  0  0  0  0  0  0  0
  1  5  1  0  0  0  0
  2  3  1  0  0  0  0
  2 14  1  0  0  0  0
  4 22  1  0  0  0  0
  4 14  1  0  0  0  0
  5  6  1  0  0  0  0
  7  8  1  0  0  0  0
  7  5  1  0  0  0  0
  9  7  2  0  0  0  0
 10  9  1  0  0  0  0
 11  9  1  0  0  0  0
 11 13  2  0  0  0  0
 12 11  1  0  0  0  0
 13  1  1  0  0  0  0
 14 13  1  0  0  0  0
 14 15  1  1  0  0  0
 16  2  1  0  0  0  0
 17 16  1  0  0  0  0
 18 16  1  0  0  0  0
 19 16  1  0  0  0  0
 19  4  1  0  0  0  0
 20 19  1  0  0  0  0
 21 19  1  0  0  0  0
 22 23  1  0  0  0  0
 23 25  2  0  0  0  0
 23 24  1  0  0  0  0
 25 26  1  0  0  0  0
 27 28  1  0  0  0  0
 27 25  1  0  0  0  0
 29 27  2  0  0  0  0
 30 29  1  0  0  0  0
 31 29  1  0  0  0  0
 31 22  2  0  0  0  0
 32 31  1  0  0  0  0
M  END
