2,3
q = 0.0, confidence = 1.0

 18 18  0  0  0  0  0  0  0  0999 V2000
    0.9474    2.5919   -0.2362 O   0  0  0  0  0  0  0  0  0  0  0  0
   -1.3972   -0.5129   -0.1932 N   0  0  0  0  0  2  0  0  0  0  0  0
    0.0145    1.6165   -0.2537 N   0  0  0  0  0  2  0  0  0  0  0  0
   -2.0754   -1.6750   -0.0883 C   0  0  0  0  0  3  0  0  0  0  0  0
   -1.4731   -2.5852    0.0358 H   0  0  0  0  0  0  0  0  0  0  0  0
   -3.4720   -1.7258   -0.1220 C   0  0  0  0  0  0  0  0  0  0  0  0
   -3.9776   -2.6981   -0.0419 H   0  0  0  0  0  0  0  0  0  0  0  0
   -4.2001   -0.5312   -0.2517 C   0  0  0  0  0  0  0  0  0  0  0  0
   -5.2993   -0.5447   -0.2776 H   0  0  0  0  0  0  0  0  0  0  0  0
   -3.5043    0.6779   -0.3332 C   0  0  0  0  0  0  0  0  0  0  0  0
   -4.0332    1.6381   -0.4134 H   0  0  0  0  0  0  0  0  0  0  0  0
   -2.0979    0.6620   -0.2936 C   0  0  0  0  0  0  0  0  0  0  0  0
   -1.2745    1.8484   -0.3277 C   0  0  0  0  0  3  0  0  0  0  0  0
   -1.7077    2.8547   -0.3994 H   0  0  0  0  0  0  0  0  0  0  0  0
    0.4833    3.9511   -0.2136 C   0  0  0  0  0  0  0  0  0  0  0  0
   -0.0713    4.2043   -1.1420 H   0  0  0  0  0  0  0  0  0  0  0  0
    1.4082    4.5509   -0.1568 H   0  0  0  0  0  0  0  0  0  0  0  0
   -0.1425    4.1373    0.6841 H   0  0  0  0  0  0  0  0  0  0  0  0
  1 15  1  0  0  0  0
  2  4  1  0  0  0  0
  3  1  1  0  0  0  0
  4  5  1  0  0  0  0
  6  4  1  0  0  0  0
  6  7  1  0  0  0  0
  8  6  2  0  0  0  0
  9  8  1  0  0  0  0
 10 12  2  0  0  0  0
 10  8  1  0  0  0  0
 11 10  1  0  0  0  0
 12  2  1  0  0  0  0
 13 12  1  0  0  0  0
 13  3  1  0  0  0  0
 14 13  1  0  0  0  0
 15 17  1  0  0  0  0
 15 18  1  0  0  0  0
 16 15  1  0  0  0  0
M  END
