9,10
q = -1.0, confidence = 0.01

 44 46  0  0  1  0  0  0  0  0999 V2000
   -0.7059   -1.0227   -1.4521 S   0  0  0  0  0  0  0  0  0  0  0  0
   -1.1552   -2.2648    1.2892 F   0  0  0  0  0  0  0  0  0  0  0  0
   -3.4575   -2.8601    2.5413 F   0  0  0  0  0  0  0  0  0  0  0  0
   -5.8637   -2.3369    1.3340 F   0  0  0  0  0  0  0  0  0  0  0  0
   -5.9209   -1.1995   -1.1534 F   0  0  0  0  0  0  0  0  0  0  0  0
   -3.6614   -0.6628   -2.4662 F   0  0  0  0  0  0  0  0  0  0  0  0
    0.0057   -2.3143   -1.5910 O   0  0  0  0  0  0  0  0  0  0  0  0
   -1.0544   -0.2508   -2.6635 O   0  0  0  0  0  0  0  0  0  0  0  0
    1.8469    1.7735    0.3885 N   0  0  0  0  0  0  0  0  0  0  0  0
    0.0318   -0.0888   -0.2868 N   0  0  0  0  0  2  0  0  0  0  0  0
   -2.3036   -1.4588   -0.6493 C   0  0  0  0  0  0  0  0  0  0  0  0
   -2.3017   -2.0408    0.6305 C   0  0  0  0  0  0  0  0  0  0  0  0
   -3.4904   -2.3361    1.3099 C   0  0  0  0  0  0  0  0  0  0  0  0
   -4.7238   -2.0720    0.6928 C   0  0  0  0  0  0  0  0  0  0  0  0
   -4.7490   -1.4884   -0.5808 C   0  0  0  0  0  0  0  0  0  0  0  0
   -3.5476   -1.2116   -1.2598 C   0  0  0  0  0  0  0  0  0  0  0  0
    0.4271    2.1154    0.6491 C   0  0  2  0  0  0  0  0  0  0  0  0
   -0.4134    1.3212   -0.3675 C   0  0  2  0  0  0  0  0  0  0  0  0
    0.1665    3.6053    0.5803 C   0  0  0  0  0  0  0  0  0  0  0  0
   -0.4352    4.2786    1.6587 C   0  0  0  0  0  0  0  0  0  0  0  0
   -0.7008    5.6543    1.5834 C   0  0  0  0  0  0  0  0  0  0  0  0
   -0.3651    6.3719    0.4252 C   0  0  0  0  0  0  0  0  0  0  0  0
    0.2332    5.7075   -0.6582 C   0  0  0  0  0  0  0  0  0  0  0  0
    0.4946    4.3324   -0.5832 C   0  0  0  0  0  0  0  0  0  0  0  0
   -1.8960    1.5113   -0.0856 C   0  0  0  0  0  0  0  0  0  0  0  0
   -2.4501    1.1205    1.1504 C   0  0  0  0  0  0  0  0  0  0  0  0
   -3.8211    1.2704    1.3962 C   0  0  0  0  0  0  0  0  0  0  0  0
   -4.6578    1.8166    0.4067 C   0  0  0  0  0  0  0  0  0  0  0  0
   -4.1124    2.2132   -0.8233 C   0  0  0  0  0  0  0  0  0  0  0  0
   -2.7382    2.0626   -1.0660 C   0  0  0  0  0  0  0  0  0  0  0  0
    2.4567    2.1505    1.1266 H   0  0  0  0  0  0  0  0  0  0  0  0
    2.1531    2.1779   -0.5205 H   0  0  0  0  0  0  0  0  0  0  0  0
    0.1922    1.7392    1.6655 H   0  0  0  0  0  0  0  0  0  0  0  0
   -0.1954    1.7336   -1.3785 H   0  0  0  0  0  0  0  0  0  0  0  0
   -0.7111    3.7120    2.5620 H   0  0  0  0  0  0  0  0  0  0  0  0
   -1.1762    6.1674    2.4330 H   0  0  0  0  0  0  0  0  0  0  0  0
   -0.5732    7.4508    0.3641 H   0  0  0  0  0  0  0  0  0  0  0  0
    0.4922    6.2634   -1.5720 H   0  0  0  0  0  0  0  0  0  0  0  0
    0.9502    3.8175   -1.4455 H   0  0  0  0  0  0  0  0  0  0  0  0
   -1.8023    0.6519    1.9080 H   0  0  0  0  0  0  0  0  0  0  0  0
   -4.2453    0.9467    2.3593 H   0  0  0  0  0  0  0  0  0  0  0  0
   -5.7374    1.9212    0.5929 H   0  0  0  0  0  0  0  0  0  0  0  0
   -4.7634    2.6285   -1.6072 H   0  0  0  0  0  0  0  0  0  0  0  0
   -2.3112    2.3380   -2.0414 H   0  0  0  0  0  0  0  0  0  0  0  0
  1 11  1  0  0  0  0
  1 10  1  0  0  0  0
  5 15  1  0  0  0  0
  6 16  1  0  0  0  0
  7  1  2  0  0  0  0
  8  1  2  0  0  0  0
  9 17  1  0  0  0  0
  9 31  1  0  0  0  0
 11 12  1  0  0  0  0
 12  2  1  0  0  0  0
 12 13  2  0  0  0  0
 13  3  1  0  0  0  0
 14 13  1  0  0  0  0
 14  4  1  0  0  0  0
 15 14  2  0  0  0  0
 16 11  2  0  0  0  0
 16 15  1  0  0  0  0
 17 33  1  1  0  0  0
 18 34  1  6  0  0  0
 18 10  1  0  0  0  0
 18 25  1  0  0  0  0
 18 17  1  0  0  0  0
 19 17  1  0  0  0  0
 19 20  1  0  0  0  0
 20 35  1  0  0  0  0
 21 20  2  0  0  0  0
 21 36  1  0  0  0  0
 22 21  1  0  0  0  0
 23 24  1  0  0  0  0
 23 22  2  0  0  0  0
 24 19  2  0  0  0  0
 25 26  1  0  0  0  0
 26 27  2  0  0  0  0
 26 40  1  0  0  0  0
 27 41  1  0  0  0  0
 28 42  1  0  0  0  0
 28 27  1  0  0  0  0
 29 28  2  0  0  0  0
 30 29  1  0  0  0  0
 30 25  2  0  0  0  0
 32  9  1  0  0  0  0
 37 22  1  0  0  0  0
 38 23  1  0  0  0  0
 39 24  1  0  0  0  0
 43 29  1  0  0  0  0
 44 30  1  0  0  0  0
M  END
