8,9
q = 0.0, confidence = 0.984

 58 59  0  0  1  0  0  0  0  0999 V2000
    2.6072    1.5363    0.5906 P   0  0  0  0  0  0  0  0  0  0  0  0
    3.4013    0.9525    1.7280 O   0  0  0  0  0  0  0  0  0  0  0  0
    3.0360    1.0865   -0.9105 O   0  0  0  0  0  0  0  0  0  0  0  0
    2.5173    3.1533    0.4251 O   0  0  0  0  0  0  0  0  0  0  0  0
   -3.7527   -1.5723   -0.7909 O   0  0  0  0  0  0  0  0  0  0  0  0
   -4.7316    0.9885   -0.9583 O   0  0  0  0  0  0  0  0  0  0  0  0
   -3.9648    2.8718    0.7384 O   0  0  0  0  0  0  0  0  0  0  0  0
   -0.0259   -0.0481   -1.0216 N   0  0  0  0  0  2  0  0  0  0  0  0
    0.6894   -0.0614    1.6094 N   0  0  0  0  0  0  0  0  0  0  0  0
    1.5735   -0.1720    2.1471 H   0  0  0  0  0  0  0  0  0  0  0  0
   -0.6541   -0.1935   -2.2131 C   0  0  0  0  0  3  0  0  0  0  0  0
   -0.6272   -1.2168   -2.6213 H   0  0  0  0  0  0  0  0  0  0  0  0
   -1.2737    0.8849   -2.8472 C   0  0  0  0  0  0  0  0  0  0  0  0
   -1.7898    0.7212   -3.8032 H   0  0  0  0  0  0  0  0  0  0  0  0
   -1.2392    2.1512   -2.2442 C   0  0  0  0  0  0  0  0  0  0  0  0
   -1.7362    3.0119   -2.7142 H   0  0  0  0  0  0  0  0  0  0  0  0
   -0.5741    2.2980   -1.0199 C   0  0  0  0  0  0  0  0  0  0  0  0
   -0.5171    3.2692   -0.5093 H   0  0  0  0  0  0  0  0  0  0  0  0
    0.0187    1.1799   -0.4258 C   0  0  0  0  0  0  0  0  0  0  0  0
    0.7860    1.2250    0.8646 C   0  0  2  0  0  0  0  0  0  0  0  0
    0.4516    2.0817    1.4882 H   0  0  0  0  0  0  0  0  0  0  0  0
    3.7196   -0.1870   -1.1495 C   0  0  0  0  0  0  0  0  0  0  0  0
    3.4936   -0.4185   -2.2082 H   0  0  0  0  0  0  0  0  0  0  0  0
    3.2381   -0.9764   -0.5320 H   0  0  0  0  0  0  0  0  0  0  0  0
    5.2061   -0.0703   -0.8830 C   0  0  0  0  0  0  0  0  0  0  0  0
    5.7043   -1.0287   -1.1328 H   0  0  0  0  0  0  0  0  0  0  0  0
    5.3887    0.1455    0.1879 H   0  0  0  0  0  0  0  0  0  0  0  0
    5.6660    0.7287   -1.4998 H   0  0  0  0  0  0  0  0  0  0  0  0
    3.6272    3.8956   -0.1440 C   0  0  0  0  0  0  0  0  0  0  0  0
    4.5594    3.2960   -0.0716 H   0  0  0  0  0  0  0  0  0  0  0  0
    3.7538    4.7869    0.5037 H   0  0  0  0  0  0  0  0  0  0  0  0
    3.3266    4.2817   -1.5796 C   0  0  0  0  0  0  0  0  0  0  0  0
    3.2116    3.3757   -2.2051 H   0  0  0  0  0  0  0  0  0  0  0  0
    4.1523    4.8964   -1.9916 H   0  0  0  0  0  0  0  0  0  0  0  0
    2.3916    4.8739   -1.6394 H   0  0  0  0  0  0  0  0  0  0  0  0
   -0.4697   -0.1368    2.5741 C   0  0  0  0  0  0  0  0  0  0  0  0
   -0.3077    0.6259    3.3663 H   0  0  0  0  0  0  0  0  0  0  0  0
   -0.3959   -1.1460    3.0245 H   0  0  0  0  0  0  0  0  0  0  0  0
   -1.7735    0.0908    1.8564 C   0  0  0  0  0  0  0  0  0  0  0  0
   -2.3324    1.3810    1.8002 C   0  0  0  0  0  0  0  0  0  0  0  0
   -1.9304    2.1734    2.4461 H   0  0  0  0  0  0  0  0  0  0  0  0
   -3.3730    1.6543    0.8897 C   0  0  0  0  0  0  0  0  0  0  0  0
   -3.5147    3.9322    1.5536 C   0  0  0  0  0  0  0  0  0  0  0  0
   -3.6498    3.7158    2.6378 H   0  0  0  0  0  0  0  0  0  0  0  0
   -4.1240    4.8155    1.2859 H   0  0  0  0  0  0  0  0  0  0  0  0
   -2.4401    4.1706    1.3754 H   0  0  0  0  0  0  0  0  0  0  0  0
   -3.8325    0.6436    0.0066 C   0  0  0  0  0  0  0  0  0  0  0  0
   -6.0126    0.3652   -0.8873 C   0  0  0  0  0  0  0  0  0  0  0  0
   -5.9439   -0.7344   -1.0206 H   0  0  0  0  0  0  0  0  0  0  0  0
   -6.6173    0.7970   -1.7073 H   0  0  0  0  0  0  0  0  0  0  0  0
   -6.5114    0.5875    0.0823 H   0  0  0  0  0  0  0  0  0  0  0  0
   -3.2931   -0.6662    0.1096 C   0  0  0  0  0  0  0  0  0  0  0  0
   -3.1969   -2.8867   -0.7673 C   0  0  0  0  0  0  0  0  0  0  0  0
   -3.4074   -3.3982    0.1974 H   0  0  0  0  0  0  0  0  0  0  0  0
   -2.0985   -2.8829   -0.9427 H   0  0  0  0  0  0  0  0  0  0  0  0
   -3.6940   -3.4402   -1.5846 H   0  0  0  0  0  0  0  0  0  0  0  0
   -2.2905   -0.9417    1.0572 C   0  0  0  0  0  0  0  0  0  0  0  0
   -1.8253   -1.9353    1.1005 H   0  0  0  0  0  0  0  0  0  0  0  0
  1 20  1  0  0  0  0
  1  2  2  0  0  0  0
  3  1  1  0  0  0  0
  4  1  1  0  0  0  0
  5 53  1  0  0  0  0
  5 52  1  0  0  0  0
  6 48  1  0  0  0  0
  6 47  1  0  0  0  0
  7 42  1  0  0  0  0
  7 43  1  0  0  0  0
  8 19  1  0  0  0  0
  9 10  1  0  0  0  0
  9 36  1  0  0  0  0
 11  8  1  0  0  0  0
 12 11  1  0  0  0  0
 13 15  2  0  0  0  0
 13 11  1  0  0  0  0
 14 13  1  0  0  0  0
 15 17  1  0  0  0  0
 16 15  1  0  0  0  0
 17 18  1  0  0  0  0
 17 19  2  0  0  0  0
 19 20  1  0  0  0  0
 20 21  1  1  0  0  0
 20  9  1  0  0  0  0
 22  3  1  0  0  0  0
 22 25  1  0  0  0  0
 22 24  1  0  0  0  0
 23 22  1  0  0  0  0
 25 27  1  0  0  0  0
 26 25  1  0  0  0  0
 28 25  1  0  0  0  0
 29 30  1  0  0  0  0
 29  4  1  0  0  0  0
 29 31  1  0  0  0  0
 32 29  1  0  0  0  0
 33 32  1  0  0  0  0
 34 32  1  0  0  0  0
 35 32  1  0  0  0  0
 36 38  1  0  0  0  0
 36 37  1  0  0  0  0
 39 36  1  0  0  0  0
 40 39  1  0  0  0  0
 40 41  1  0  0  0  0
 42 40  2  0  0  0  0
 43 44  1  0  0  0  0
 45 43  1  0  0  0  0
 46 43  1  0  0  0  0
 47 52  2  0  0  0  0
 47 42  1  0  0  0  0
 48 51  1  0  0  0  0
 49 48  1  0  0  0  0
 50 48  1  0  0  0  0
 52 57  1  0  0  0  0
 53 54  1  0  0  0  0
 55 53  1  0  0  0  0
 56 53  1  0  0  0  0
 57 58  1  0  0  0  0
 57 39  2  0  0  0  0
M  END
