1,9
q = 0.0, confidence = 0.994

 41 42  0  0  0  0  0  0  0  0999 V2000
   -4.0558    1.3292   -0.5496 N   0  0  0  0  0  0  0  0  0  0  0  0
   -5.5264    1.2199   -0.5274 C   0  0  0  0  0  0  0  0  0  0  0  0
   -5.8710    1.2447    0.5247 H   0  0  0  0  0  0  0  0  0  0  0  0
   -5.8209    0.2482   -0.9699 H   0  0  0  0  0  0  0  0  0  0  0  0
   -6.0068    2.0551   -1.0888 H   0  0  0  0  0  0  0  0  0  0  0  0
   -3.5554    1.2542   -1.9438 C   0  0  0  0  0  0  0  0  0  0  0  0
   -2.0322    1.1661   -2.1054 C   0  0  0  0  0  0  0  0  0  0  0  0
   -1.3589   -0.1244   -1.6300 C   0  0  0  0  0  0  0  0  0  0  0  0
   -1.4018   -0.2676   -0.1597 N   0  0  0  0  0  0  0  0  0  0  0  0
   -0.6997   -1.4541    0.3514 C   0  0  0  0  0  0  0  0  0  0  0  0
    0.8073   -1.3732    0.2015 C   0  0  0  0  0  0  0  0  0  0  0  0
    1.3433   -0.1571    0.2347 N   0  0  0  0  0  0  0  0  0  0  0  0
    2.6914   -0.0105    0.1325 C   0  0  0  0  0  0  0  0  0  0  0  0
    3.5791   -1.1368    0.0002 C   0  0  0  0  0  0  0  0  0  0  0  0
    2.9765   -2.4243   -0.0304 C   0  0  0  0  0  0  0  0  0  0  0  0
    1.6004   -2.5467    0.0644 C   0  0  0  0  0  0  0  0  0  0  0  0
    1.1161   -3.5339    0.0325 H   0  0  0  0  0  0  0  0  0  0  0  0
    3.6238   -3.3067   -0.1379 H   0  0  0  0  0  0  0  0  0  0  0  0
    4.9831   -0.8968   -0.0914 C   0  0  0  0  0  0  0  0  0  0  0  0
    6.0920   -2.2378   -0.2579 Cl  0  0  0  0  0  0  0  0  0  0  0  0
    5.4797    0.3994   -0.0451 C   0  0  0  0  0  0  0  0  0  0  0  0
    4.5987    1.4960    0.0854 C   0  0  0  0  0  0  0  0  0  0  0  0
    3.2050    1.3401    0.1686 C   0  0  0  0  0  0  0  0  0  0  0  0
    2.3280    2.3808    0.2561 N   0  0  0  0  0  0  0  0  0  0  0  0
    5.2574    3.1157    0.1565 Cl  0  0  0  0  0  0  0  0  0  0  0  0
    6.5601    0.5832   -0.1072 H   0  0  0  0  0  0  0  0  0  0  0  0
   -1.1182   -2.3529   -0.1448 H   0  0  0  0  0  0  0  0  0  0  0  0
   -0.9567   -1.5400    1.4320 H   0  0  0  0  0  0  0  0  0  0  0  0
   -0.9394    0.5477    0.2731 H   0  0  0  0  0  0  0  0  0  0  0  0
   -1.8913   -1.0053   -2.0469 H   0  0  0  0  0  0  0  0  0  0  0  0
   -0.3077   -0.1440   -1.9943 H   0  0  0  0  0  0  0  0  0  0  0  0
   -1.8274    1.2613   -3.1917 H   0  0  0  0  0  0  0  0  0  0  0  0
   -1.5287    2.0445   -1.6437 H   0  0  0  0  0  0  0  0  0  0  0  0
   -3.9341    2.1372   -2.5146 H   0  0  0  0  0  0  0  0  0  0  0  0
   -4.0138    0.3450   -2.3848 H   0  0  0  0  0  0  0  0  0  0  0  0
   -3.6207    2.5383    0.1643 C   0  0  0  0  0  0  0  0  0  0  0  0
   -4.0654    3.4585   -0.2816 H   0  0  0  0  0  0  0  0  0  0  0  0
   -2.5189    2.6292    0.1308 H   0  0  0  0  0  0  0  0  0  0  0  0
   -3.9087    2.4466    1.2293 H   0  0  0  0  0  0  0  0  0  0  0  0
    1.3770    2.1224    0.5238 H   0  0  0  0  0  0  0  0  0  0  0  0
    2.6942    3.2921    0.5291 H   0  0  0  0  0  0  0  0  0  0  0  0
  1  2  1  0  0  0  0
  1 36  1  0  0  0  0
  2  3  1  0  0  0  0
  4  2  1  0  0  0  0
  5  2  1  0  0  0  0
  6  1  1  0  0  0  0
  7  6  1  0  0  0  0
  7 33  1  0  0  0  0
  7  8  1  0  0  0  0
  8  9  1  0  0  0  0
  9 29  1  0  0  0  0
  9 10  1  0  0  0  0
 10 28  1  0  0  0  0
 11 12  1  0  0  0  0
 11 10  1  0  0  0  0
 13 23  1  0  0  0  0
 13 12  2  0  0  0  0
 14 13  1  0  0  0  0
 15 14  2  0  0  0  0
 15 16  1  0  0  0  0
 16 11  2  0  0  0  0
 17 16  1  0  0  0  0
 18 15  1  0  0  0  0
 19 21  2  0  0  0  0
 19 14  1  0  0  0  0
 20 19  1  0  0  0  0
 21 22  1  0  0  0  0
 22 25  1  0  0  0  0
 22 23  2  0  0  0  0
 23 24  1  0  0  0  0
 24 40  1  0  0  0  0
 24 41  1  0  0  0  0
 26 21  1  0  0  0  0
 27 10  1  0  0  0  0
 30  8  1  0  0  0  0
 31  8  1  0  0  0  0
 32  7  1  0  0  0  0
 34  6  1  0  0  0  0
 35  6  1  0  0  0  0
 36 39  1  0  0  0  0
 37 36  1  0  0  0  0
 38 36  1  0  0  0  0
M  END
