1,11
q = 0.0, confidence = 0.998

 21 22  0  0  1  0  0  0  0  0999 V2000
   -0.9091    1.6237    0.1995 N   0  0  0  0  0  2  0  0  0  0  0  0
   -2.9956    2.4621    0.2420 N   0  0  0  0  0  0  0  0  0  0  0  0
   -3.9710    2.4228   -0.0537 H   0  0  0  0  0  0  0  0  0  0  0  0
   -2.1960    1.3626    0.2269 C   0  0  1  0  0  3  0  0  0  0  0  0
   -2.1610    3.6416   -0.0501 C   0  0  0  0  0  0  0  0  0  0  0  0
   -2.3844    4.4732    0.6459 H   0  0  0  0  0  0  0  0  0  0  0  0
   -2.3368    3.9966   -1.0881 H   0  0  0  0  0  0  0  0  0  0  0  0
   -0.7219    3.0764    0.1319 C   0  0  0  0  0  0  0  0  0  0  0  0
   -0.0497    3.3299   -0.7108 H   0  0  0  0  0  0  0  0  0  0  0  0
   -0.2459    3.4355    1.0697 H   0  0  0  0  0  0  0  0  0  0  0  0
   -1.5195   -0.8878    0.1355 N   0  0  0  0  0  2  0  0  0  0  0  0
   -3.0734   -2.7357    0.0571 C   0  0  0  0  0  0  0  0  0  0  0  0
   -3.2239   -3.8231   -0.0181 H   0  0  0  0  0  0  0  0  0  0  0  0
   -3.9177   -0.4883    0.2624 C   0  0  0  0  0  0  0  0  0  0  0  0
   -4.7468    0.2260    0.3517 H   0  0  0  0  0  0  0  0  0  0  0  0
   -1.7633   -2.2098    0.0245 C   0  0  2  0  0  3  0  0  0  0  0  0
   -2.5942   -0.0396    0.2231 C   0  0  0  0  0  0  0  0  0  0  0  0
   -4.1576   -1.8675    0.1836 C   0  0  0  0  0  0  0  0  0  0  0  0
   -5.1831   -2.2624    0.2141 H   0  0  0  0  0  0  0  0  0  0  0  0
   -0.6793   -2.9847   -0.1145 O   0  0  0  0  0  0  0  0  0  0  0  0
   -0.9558   -3.9117   -0.2522 H   0  0  0  0  0  0  0  0  0  0  0  0
  1  4  1  0  0  0  0
  3  2  1  0  0  0  0
  4 17  1  6  0  0  0
  4  2  1  0  0  0  0
  5  8  1  0  0  0  0
  5  2  1  0  0  0  0
  5  6  1  0  0  0  0
  7  5  1  0  0  0  0
  8  1  1  0  0  0  0
  8 10  1  0  0  0  0
  9  8  1  0  0  0  0
 11 17  1  0  0  0  0
 12 18  2  0  0  0  0
 13 12  1  0  0  0  0
 14 15  1  0  0  0  0
 16 20  1  1  0  0  0
 16 12  1  0  0  0  0
 16 11  1  0  0  0  0
 17 14  2  0  0  0  0
 18 19  1  0  0  0  0
 18 14  1  0  0  0  0
 21 20  1  0  0  0  0
M  END
