1,3
q = 0.0, confidence = 0.99

 27 29  0  0  1  0  0  0  0  0999 V2000
    0.4416   -0.1362   -1.5974 N   0  0  0  0  0  0  0  0  0  0  0  0
    1.2927   -0.7027   -1.3711 H   0  0  0  0  0  0  0  0  0  0  0  0
   -2.1604   -0.0536   -0.5471 N   0  0  0  0  0  2  0  0  0  0  0  0
   -3.0042   -1.6529   -1.8439 N   0  0  0  0  0  0  0  0  0  0  0  0
   -3.0367   -2.3906   -2.5474 H   0  0  0  0  0  0  0  0  0  0  0  0
   -5.6488    0.1319    0.7846 C   0  0  0  0  0  0  0  0  0  0  0  0
   -6.3050    0.6524    1.4978 H   0  0  0  0  0  0  0  0  0  0  0  0
   -5.4138   -1.5854   -0.9655 C   0  0  0  0  0  0  0  0  0  0  0  0
   -5.8450   -2.3756   -1.5971 H   0  0  0  0  0  0  0  0  0  0  0  0
   -4.0643   -1.2146   -1.0537 C   0  0  0  0  0  0  0  0  0  0  0  0
   -6.1931   -0.8929   -0.0273 C   0  0  0  0  0  0  0  0  0  0  0  0
   -7.2577   -1.1506    0.0757 H   0  0  0  0  0  0  0  0  0  0  0  0
   -1.8878   -0.9305   -1.5032 C   0  0  2  0  0  3  0  0  0  0  0  0
   -4.3015    0.5038    0.6956 C   0  0  0  0  0  0  0  0  0  0  0  0
   -3.8608    1.3108    1.3014 H   0  0  0  0  0  0  0  0  0  0  0  0
   -0.5343   -1.1309   -2.1211 C   0  0  1  0  0  0  0  0  0  0  0  0
   -0.1551   -2.1347   -1.8162 H   0  0  0  0  0  0  0  0  0  0  0  0
    0.7272   -0.1552   -3.9598 C   0  0  0  0  0  0  0  0  0  0  0  0
    0.6762    0.3986   -4.9179 H   0  0  0  0  0  0  0  0  0  0  0  0
    1.6187   -0.8152   -3.9839 H   0  0  0  0  0  0  0  0  0  0  0  0
   -0.5374   -0.9810   -3.6761 C   0  0  0  0  0  0  0  0  0  0  0  0
   -0.5368   -1.9639   -4.1866 H   0  0  0  0  0  0  0  0  0  0  0  0
   -1.4396   -0.4255   -4.0073 H   0  0  0  0  0  0  0  0  0  0  0  0
    0.8024    0.7538   -2.7291 C   0  0  0  0  0  0  0  0  0  0  0  0
    0.0702    1.5867   -2.8001 H   0  0  0  0  0  0  0  0  0  0  0  0
    1.8015    1.1940   -2.5454 H   0  0  0  0  0  0  0  0  0  0  0  0
   -3.5076   -0.1900   -0.2349 C   0  0  0  0  0  0  0  0  0  0  0  0
  1  2  1  0  0  0  0
  3 27  1  0  0  0  0
  4 13  1  0  0  0  0
  4 10  1  0  0  0  0
  5  4  1  0  0  0  0
  6  7  1  0  0  0  0
  8 11  1  0  0  0  0
  9  8  1  0  0  0  0
 10  8  2  0  0  0  0
 10 27  1  0  0  0  0
 11 12  1  0  0  0  0
 11  6  2  0  0  0  0
 13  3  1  1  0  0  0
 14  6  1  0  0  0  0
 14 15  1  0  0  0  0
 16 17  1  1  0  0  0
 16  1  1  0  0  0  0
 16 13  1  0  0  0  0
 18 21  1  0  0  0  0
 18 24  1  0  0  0  0
 19 18  1  0  0  0  0
 20 18  1  0  0  0  0
 21 16  1  0  0  0  0
 22 21  1  0  0  0  0
 23 21  1  0  0  0  0
 24 26  1  0  0  0  0
 24  1  1  0  0  0  0
 25 24  1  0  0  0  0
 27 14  2  0  0  0  0
M  END
