3,4
q = 0.0, confidence = 0.998

 28 29  0  0  0  0  0  0  0  0999 V2000
   -6.8916    0.5632    0.7256 O   0  0  0  0  0  0  0  0  0  0  0  0
   -6.7268   -0.2037    1.3050 H   0  0  0  0  0  0  0  0  0  0  0  0
   -0.5009    1.1907   -0.0376 N   0  0  0  0  0  2  0  0  0  0  0  0
    2.1010    1.3341   -0.0007 N   0  0  0  0  0  2  0  0  0  0  0  0
   -6.1756    0.3626   -0.4700 C   0  0  0  0  0  0  0  0  0  0  0  0
   -6.5518    1.1246   -1.1890 H   0  0  0  0  0  0  0  0  0  0  0  0
   -6.3869   -0.6269   -0.9432 H   0  0  0  0  0  0  0  0  0  0  0  0
   -4.6732    0.5457   -0.3367 C   0  0  0  0  0  0  0  0  0  0  0  0
   -3.7919    0.0788   -1.3358 C   0  0  0  0  0  0  0  0  0  0  0  0
   -4.1951   -0.4498   -2.2145 H   0  0  0  0  0  0  0  0  0  0  0  0
   -2.4125    0.2747   -1.2309 C   0  0  0  0  0  0  0  0  0  0  0  0
   -1.7114   -0.0765   -2.0037 H   0  0  0  0  0  0  0  0  0  0  0  0
   -1.8996    0.9787   -0.1205 C   0  0  0  0  0  0  0  0  0  0  0  0
   -2.7644    1.4545    0.8856 C   0  0  0  0  0  0  0  0  0  0  0  0
   -2.3511    1.9815    1.7593 H   0  0  0  0  0  0  0  0  0  0  0  0
   -4.1423    1.2262    0.7749 C   0  0  0  0  0  0  0  0  0  0  0  0
   -4.8368    1.5779    1.5522 H   0  0  0  0  0  0  0  0  0  0  0  0
   -0.0113    2.3930    0.0991 C   0  0  0  0  0  0  0  0  0  0  0  0
   -0.6666    3.2810    0.1338 H   0  0  0  0  0  0  0  0  0  0  0  0
    1.4313    2.5230    0.1048 C   0  0  0  0  0  0  0  0  0  0  0  0
    2.1155    3.7515    0.1340 C   0  0  0  0  0  0  0  0  0  0  0  0
    1.5448    4.6875    0.2166 H   0  0  0  0  0  0  0  0  0  0  0  0
    3.5112    3.7539    0.0348 C   0  0  0  0  0  0  0  0  0  0  0  0
    4.0709    4.7002    0.0554 H   0  0  0  0  0  0  0  0  0  0  0  0
    4.1810    2.5293   -0.1151 C   0  0  0  0  0  0  0  0  0  0  0  0
    5.2738    2.4847   -0.2221 H   0  0  0  0  0  0  0  0  0  0  0  0
    3.4387    1.3412   -0.1387 C   0  0  0  0  0  0  0  0  0  0  0  0
    3.9209    0.3650   -0.2868 H   0  0  0  0  0  0  0  0  0  0  0  0
  1  2  1  0  0  0  0
  3 18  1  0  0  0  0
  4 20  1  0  0  0  0
  5  8  1  0  0  0  0
  5  1  1  0  0  0  0
  6  5  1  0  0  0  0
  7  5  1  0  0  0  0
  8 16  1  0  0  0  0
  9 11  1  0  0  0  0
  9  8  2  0  0  0  0
 10  9  1  0  0  0  0
 11 13  2  0  0  0  0
 12 11  1  0  0  0  0
 13  3  1  0  0  0  0
 13 14  1  0  0  0  0
 14 15  1  0  0  0  0
 16 14  2  0  0  0  0
 16 17  1  0  0  0  0
 18 20  2  0  0  0  0
 18 19  1  0  0  0  0
 20 21  1  0  0  0  0
 21 22  1  0  0  0  0
 23 24  1  0  0  0  0
 23 21  2  0  0  0  0
 25 23  1  0  0  0  0
 26 25  1  0  0  0  0
 27 25  2  0  0  0  0
 27  4  1  0  0  0  0
 28 27  1  0  0  0  0
M  END
