1,2
q = 0.0, confidence = 0.994

 53 55  0  0  1  0  0  0  0  0999 V2000
    1.1002   -1.1047   -0.4543 N   0  0  0  0  0  2  0  0  0  0  0  0
    1.6147    1.0953    0.8834 N   0  0  0  0  0  2  0  0  0  0  0  0
    1.0049   -2.3332   -1.0101 C   0  0  2  0  0  3  0  0  0  0  0  0
   -0.2732   -2.9213   -1.0972 C   0  0  0  0  0  0  0  0  0  0  0  0
   -0.3684   -3.9023   -1.5830 H   0  0  0  0  0  0  0  0  0  0  0  0
   -1.3865   -2.3132   -0.5161 C   0  0  0  0  0  0  0  0  0  0  0  0
   -2.3581   -2.8257   -0.5143 H   0  0  0  0  0  0  0  0  0  0  0  0
   -1.2349   -1.0702    0.1293 C   0  0  0  0  0  0  0  0  0  0  0  0
    0.0261   -0.4215    0.0289 C   0  0  0  0  0  0  0  0  0  0  0  0
    2.2409   -3.0345   -1.4825 C   0  0  0  0  0  0  0  0  0  0  0  0
    1.9798   -3.9904   -1.9720 H   0  0  0  0  0  0  0  0  0  0  0  0
    2.9118   -3.2311   -0.6202 H   0  0  0  0  0  0  0  0  0  0  0  0
    2.8113   -2.3975   -2.1882 H   0  0  0  0  0  0  0  0  0  0  0  0
    2.0776    2.2235    1.4586 C   0  0  2  0  0  3  0  0  0  0  0  0
    1.1736    3.2787    1.6826 C   0  0  0  0  0  0  0  0  0  0  0  0
    1.5217    4.1870    2.1944 H   0  0  0  0  0  0  0  0  0  0  0  0
   -0.1374    3.2004    1.2030 C   0  0  0  0  0  0  0  0  0  0  0  0
   -0.8094    4.0611    1.3180 H   0  0  0  0  0  0  0  0  0  0  0  0
   -0.5792    2.0284    0.5561 C   0  0  0  0  0  0  0  0  0  0  0  0
    0.3188    0.9247    0.5258 C   0  0  0  0  0  0  0  0  0  0  0  0
    3.5341    2.2984    1.8063 C   0  0  0  0  0  0  0  0  0  0  0  0
    3.7471    3.1895    2.4253 H   0  0  0  0  0  0  0  0  0  0  0  0
    4.1468    2.3534    0.8815 H   0  0  0  0  0  0  0  0  0  0  0  0
    3.8543    1.3828    2.3422 H   0  0  0  0  0  0  0  0  0  0  0  0
   -2.1619   -0.4737    0.8918 O   0  0  0  0  0  0  0  0  0  0  0  0
   -5.4023   -1.8933    1.9013 O   0  0  0  0  0  0  0  0  0  0  0  0
   -6.1501   -0.5310   -0.6218 O   0  0  0  0  0  0  0  0  0  0  0  0
   -4.6351    1.9369   -0.7333 O   0  0  0  0  0  0  0  0  0  0  0  0
   -1.7580    1.9091   -0.0900 O   0  0  0  0  0  0  0  0  0  0  0  0
   -3.5556   -0.7708    0.7240 C   0  0  0  0  0  0  0  0  0  0  0  0
   -4.0936    0.1665    0.9526 H   0  0  0  0  0  0  0  0  0  0  0  0
   -3.7763   -1.0080   -0.3354 H   0  0  0  0  0  0  0  0  0  0  0  0
   -4.0073   -1.8735    1.6924 C   0  0  0  0  0  0  0  0  0  0  0  0
   -3.5453   -1.6675    2.6802 H   0  0  0  0  0  0  0  0  0  0  0  0
   -3.6381   -2.8766    1.3641 H   0  0  0  0  0  0  0  0  0  0  0  0
   -6.2065   -2.4184    0.8579 C   0  0  0  0  0  0  0  0  0  0  0  0
   -5.5952   -2.9749    0.1092 H   0  0  0  0  0  0  0  0  0  0  0  0
   -6.9231   -3.1436    1.3054 H   0  0  0  0  0  0  0  0  0  0  0  0
   -7.0111   -1.3325    0.1599 C   0  0  0  0  0  0  0  0  0  0  0  0
   -7.5207   -0.7180    0.9409 H   0  0  0  0  0  0  0  0  0  0  0  0
   -7.8096   -1.8018   -0.4691 H   0  0  0  0  0  0  0  0  0  0  0  0
   -6.6888    0.7196   -0.9893 C   0  0  0  0  0  0  0  0  0  0  0  0
   -7.5507    0.6000   -1.6924 H   0  0  0  0  0  0  0  0  0  0  0  0
   -7.0661    1.2673   -0.0910 H   0  0  0  0  0  0  0  0  0  0  0  0
   -5.6242    1.5545   -1.6699 C   0  0  0  0  0  0  0  0  0  0  0  0
   -6.1128    2.4548   -2.1197 H   0  0  0  0  0  0  0  0  0  0  0  0
   -5.1718    0.9705   -2.5089 H   0  0  0  0  0  0  0  0  0  0  0  0
   -3.6404    2.7610   -1.2971 C   0  0  0  0  0  0  0  0  0  0  0  0
   -3.1654    2.2766   -2.1852 H   0  0  0  0  0  0  0  0  0  0  0  0
   -4.0776    3.7307   -1.6461 H   0  0  0  0  0  0  0  0  0  0  0  0
   -2.5650    3.0704   -0.2772 C   0  0  0  0  0  0  0  0  0  0  0  0
   -3.0319    3.3820    0.6843 H   0  0  0  0  0  0  0  0  0  0  0  0
   -1.9415    3.9104   -0.6572 H   0  0  0  0  0  0  0  0  0  0  0  0
  1  9  1  0  0  0  0
  2 14  1  0  0  0  0
  3 10  1  1  0  0  0
  3  1  1  0  0  0  0
  4  3  1  0  0  0  0
  4  6  2  0  0  0  0
  5  4  1  0  0  0  0
  6  7  1  0  0  0  0
  6  8  1  0  0  0  0
  8 25  1  0  0  0  0
  9  8  2  0  0  0  0
  9 20  1  0  0  0  0
 10 12  1  0  0  0  0
 11 10  1  0  0  0  0
 13 10  1  0  0  0  0
 14 15  1  0  0  0  0
 14 21  1  6  0  0  0
 15 16  1  0  0  0  0
 17 18  1  0  0  0  0
 17 15  2  0  0  0  0
 19 17  1  0  0  0  0
 20 19  2  0  0  0  0
 20  2  1  0  0  0  0
 21 24  1  0  0  0  0
 21 22  1  0  0  0  0
 23 21  1  0  0  0  0
 27 39  1  0  0  0  0
 29 19  1  0  0  0  0
 30 25  1  0  0  0  0
 30 31  1  0  0  0  0
 30 33  1  0  0  0  0
 32 30  1  0  0  0  0
 33 26  1  0  0  0  0
 33 34  1  0  0  0  0
 35 33  1  0  0  0  0
 36 38  1  0  0  0  0
 36 26  1  0  0  0  0
 37 36  1  0  0  0  0
 39 36  1  0  0  0  0
 39 40  1  0  0  0  0
 41 39  1  0  0  0  0
 42 27  1  0  0  0  0
 42 44  1  0  0  0  0
 43 42  1  0  0  0  0
 45 42  1  0  0  0  0
 45 28  1  0  0  0  0
 46 45  1  0  0  0  0
 47 45  1  0  0  0  0
 48 28  1  0  0  0  0
 48 51  1  0  0  0  0
 49 48  1  0  0  0  0
 50 48  1  0  0  0  0
 51 29  1  0  0  0  0
 51 52  1  0  0  0  0
 53 51  1  0  0  0  0
M  END
