7,8
q = -1.0, confidence = 0.0

 37 38  0  0  1  0  0  0  0  0999 V2000
   -0.2126    2.4915    0.0679 S   0  0  0  0  0  0  0  0  0  0  0  0
   -0.3270    4.1541   -2.0264 F   0  0  0  0  0  0  0  0  0  0  0  0
   -1.8896    2.6414   -2.0789 F   0  0  0  0  0  0  0  0  0  0  0  0
    0.1754    2.0986   -2.5687 F   0  0  0  0  0  0  0  0  0  0  0  0
   -1.4770    2.8140    0.7688 O   0  0  0  0  0  0  0  0  0  0  0  0
    1.0109    3.2905    0.3033 O   0  0  0  0  0  0  0  0  0  0  0  0
    0.4233   -1.3028   -1.2270 N   0  0  0  0  0  0  0  0  0  0  0  0
    0.1156    0.8953    0.1637 N   0  0  0  0  0  2  0  0  0  0  0  0
   -0.6082    2.8707   -1.7683 C   0  0  0  0  0  0  0  0  0  0  0  0
    1.5932   -0.9660   -0.3694 C   0  0  2  0  0  0  0  0  0  0  0  0
    1.5315    0.5511   -0.0564 C   0  0  2  0  0  0  0  0  0  0  0  0
    2.9145   -1.3962   -0.9706 C   0  0  0  0  0  0  0  0  0  0  0  0
    3.7760   -2.2496   -0.2574 C   0  0  0  0  0  0  0  0  0  0  0  0
    5.0104   -2.6368   -0.8005 C   0  0  0  0  0  0  0  0  0  0  0  0
    5.3953   -2.1771   -2.0691 C   0  0  0  0  0  0  0  0  0  0  0  0
    4.5432   -1.3238   -2.7897 C   0  0  0  0  0  0  0  0  0  0  0  0
    3.3138   -0.9324   -2.2414 C   0  0  0  0  0  0  0  0  0  0  0  0
    2.4290    0.8320    1.1418 C   0  0  0  0  0  0  0  0  0  0  0  0
    1.9247    0.7153    2.4493 C   0  0  0  0  0  0  0  0  0  0  0  0
    2.7696    0.8853    3.5551 C   0  0  0  0  0  0  0  0  0  0  0  0
    4.1314    1.1725    3.3650 C   0  0  0  0  0  0  0  0  0  0  0  0
    4.6388    1.2953    2.0621 C   0  0  0  0  0  0  0  0  0  0  0  0
    3.7912    1.1256    0.9571 C   0  0  0  0  0  0  0  0  0  0  0  0
    0.5125   -0.8481   -2.1471 H   0  0  0  0  0  0  0  0  0  0  0  0
    0.4003   -2.3159   -1.4070 H   0  0  0  0  0  0  0  0  0  0  0  0
    1.4285   -1.5098    0.5827 H   0  0  0  0  0  0  0  0  0  0  0  0
    1.9494    1.0945   -0.9345 H   0  0  0  0  0  0  0  0  0  0  0  0
    3.4788   -2.5984    0.7440 H   0  0  0  0  0  0  0  0  0  0  0  0
    5.6770   -3.2984   -0.2270 H   0  0  0  0  0  0  0  0  0  0  0  0
    6.3632   -2.4794   -2.4966 H   0  0  0  0  0  0  0  0  0  0  0  0
    4.8427   -0.9530   -3.7816 H   0  0  0  0  0  0  0  0  0  0  0  0
    2.6671   -0.2416   -2.8075 H   0  0  0  0  0  0  0  0  0  0  0  0
    0.8505    0.5220    2.5812 H   0  0  0  0  0  0  0  0  0  0  0  0
    2.3604    0.8037    4.5740 H   0  0  0  0  0  0  0  0  0  0  0  0
    4.7943    1.3127    4.2325 H   0  0  0  0  0  0  0  0  0  0  0  0
    5.7018    1.5334    1.9038 H   0  0  0  0  0  0  0  0  0  0  0  0
    4.1894    1.2293   -0.0642 H   0  0  0  0  0  0  0  0  0  0  0  0
  1  8  1  0  0  0  0
  1  6  2  0  0  0  0
  1  5  2  0  0  0  0
  2  9  1  0  0  0  0
  3  9  1  0  0  0  0
  4  9  1  0  0  0  0
  7 10  1  0  0  0  0
  9  1  1  0  0  0  0
 10 11  1  0  0  0  0
 10 26  1  1  0  0  0
 11 27  1  6  0  0  0
 11  8  1  0  0  0  0
 11 18  1  0  0  0  0
 12 10  1  0  0  0  0
 12 13  1  0  0  0  0
 13 28  1  0  0  0  0
 14 13  2  0  0  0  0
 14 29  1  0  0  0  0
 15 14  1  0  0  0  0
 16 17  1  0  0  0  0
 16 15  2  0  0  0  0
 17 12  2  0  0  0  0
 18 19  1  0  0  0  0
 19 33  1  0  0  0  0
 19 20  2  0  0  0  0
 20 34  1  0  0  0  0
 21 20  1  0  0  0  0
 21 35  1  0  0  0  0
 22 21  2  0  0  0  0
 23 18  2  0  0  0  0
 23 22  1  0  0  0  0
 24  7  1  0  0  0  0
 25  7  1  0  0  0  0
 30 15  1  0  0  0  0
 31 16  1  0  0  0  0
 32 17  1  0  0  0  0
 36 22  1  0  0  0  0
 37 23  1  0  0  0  0
M  END
