3,4
q = 0.0, confidence = 0.988

 72 76  0  0  1  0  0  0  0  0999 V2000
   -0.1645   -3.0711   -1.4692 O   0  0  0  0  0  0  0  0  0  0  0  0
    0.2469   -3.9494   -1.3715 H   0  0  0  0  0  0  0  0  0  0  0  0
   -1.3368    0.9992    0.0561 N   0  0  0  0  0  2  0  0  0  0  0  0
    1.3646    1.0108   -0.2218 N   0  0  0  0  0  2  0  0  0  0  0  0
   -1.1268   -1.4640   -0.0923 N   0  0  0  0  0  0  0  0  0  0  0  0
    1.1714   -1.4458   -0.2897 N   0  0  0  0  0  0  0  0  0  0  0  0
   -0.7188   -0.1486   -0.0796 C   0  0  0  0  0  0  0  0  0  0  0  0
    0.7402   -0.1395   -0.2279 C   0  0  0  0  0  0  0  0  0  0  0  0
    0.0164   -2.3576   -0.2778 C   0  0  2  0  0  0  0  0  0  0  0  0
    0.1327   -3.0668    0.5753 H   0  0  0  0  0  0  0  0  0  0  0  0
   -2.7288    1.1025    0.3125 C   0  0  0  0  0  0  0  0  0  0  0  0
   -3.3007    0.4816    1.4400 C   0  0  0  0  0  0  0  0  0  0  0  0
   -2.6519   -0.0519    2.1490 H   0  0  0  0  0  0  0  0  0  0  0  0
   -4.6817    0.5620    1.6589 C   0  0  0  0  0  0  0  0  0  0  0  0
   -5.1212    0.0672    2.5379 H   0  0  0  0  0  0  0  0  0  0  0  0
   -5.4973    1.2716    0.7633 C   0  0  0  0  0  0  0  0  0  0  0  0
   -6.5825    1.3328    0.9351 H   0  0  0  0  0  0  0  0  0  0  0  0
   -4.9193    1.9253   -0.3372 C   0  0  0  0  0  0  0  0  0  0  0  0
   -5.5487    2.5079   -1.0264 H   0  0  0  0  0  0  0  0  0  0  0  0
   -3.5378    1.8611   -0.5571 C   0  0  0  0  0  0  0  0  0  0  0  0
   -3.0658    2.3931   -1.3931 H   0  0  0  0  0  0  0  0  0  0  0  0
    2.7645    1.1047   -0.4386 C   0  0  0  0  0  0  0  0  0  0  0  0
    3.5865    1.7078    0.5329 C   0  0  0  0  0  0  0  0  0  0  0  0
    3.1241    2.1336    1.4327 H   0  0  0  0  0  0  0  0  0  0  0  0
    4.9707    1.7657    0.3254 C   0  0  0  0  0  0  0  0  0  0  0  0
    5.6120    2.2282    1.0905 H   0  0  0  0  0  0  0  0  0  0  0  0
    5.5370    1.2619   -0.8569 C   0  0  0  0  0  0  0  0  0  0  0  0
    6.6238    1.3216   -1.0181 H   0  0  0  0  0  0  0  0  0  0  0  0
    4.7080    0.7053   -1.8441 C   0  0  0  0  0  0  0  0  0  0  0  0
    5.1400    0.3332   -2.7858 H   0  0  0  0  0  0  0  0  0  0  0  0
    3.3248    0.6272   -1.6392 C   0  0  0  0  0  0  0  0  0  0  0  0
    2.6641    0.2074   -2.4112 H   0  0  0  0  0  0  0  0  0  0  0  0
   -2.4689   -1.9481   -0.1945 C   0  0  0  0  0  0  0  0  0  0  0  0
   -3.0151   -2.6869    0.8794 C   0  0  0  0  0  0  0  0  0  0  0  0
   -4.3624   -3.0770    0.7942 C   0  0  0  0  0  0  0  0  0  0  0  0
   -4.8067   -3.6353    1.6338 H   0  0  0  0  0  0  0  0  0  0  0  0
   -5.1639   -2.7431   -0.3115 C   0  0  0  0  0  0  0  0  0  0  0  0
   -4.5699   -2.0421   -1.3779 C   0  0  0  0  0  0  0  0  0  0  0  0
   -5.1753   -1.7944   -2.2643 H   0  0  0  0  0  0  0  0  0  0  0  0
   -3.2239   -1.6453   -1.3541 C   0  0  0  0  0  0  0  0  0  0  0  0
   -2.1984   -3.0166    2.1025 C   0  0  0  0  0  0  0  0  0  0  0  0
   -1.5222   -2.1831    2.3821 H   0  0  0  0  0  0  0  0  0  0  0  0
   -1.5608   -3.9141    1.9453 H   0  0  0  0  0  0  0  0  0  0  0  0
   -2.8505   -3.2352    2.9693 H   0  0  0  0  0  0  0  0  0  0  0  0
   -6.6294   -3.0916   -0.3459 C   0  0  0  0  0  0  0  0  0  0  0  0
   -6.8819   -3.8874    0.3812 H   0  0  0  0  0  0  0  0  0  0  0  0
   -6.9468   -3.4265   -1.3536 H   0  0  0  0  0  0  0  0  0  0  0  0
   -7.2444   -2.2011   -0.0932 H   0  0  0  0  0  0  0  0  0  0  0  0
   -2.5990   -0.9365   -2.5249 C   0  0  0  0  0  0  0  0  0  0  0  0
   -3.2771   -0.9455   -3.3984 H   0  0  0  0  0  0  0  0  0  0  0  0
   -1.6452   -1.4232   -2.8109 H   0  0  0  0  0  0  0  0  0  0  0  0
   -2.3712    0.1245   -2.2933 H   0  0  0  0  0  0  0  0  0  0  0  0
    2.4689   -1.9146    0.1047 C   0  0  0  0  0  0  0  0  0  0  0  0
    2.8705   -1.7211    1.4538 C   0  0  0  0  0  0  0  0  0  0  0  0
    4.1414   -2.1738    1.8363 C   0  0  0  0  0  0  0  0  0  0  0  0
    4.4653   -2.0195    2.8781 H   0  0  0  0  0  0  0  0  0  0  0  0
    5.0094   -2.8151    0.9309 C   0  0  0  0  0  0  0  0  0  0  0  0
    4.5664   -3.0090   -0.3867 C   0  0  0  0  0  0  0  0  0  0  0  0
    5.2325   -3.5067   -1.1100 H   0  0  0  0  0  0  0  0  0  0  0  0
    3.3062   -2.5644   -0.8296 C   0  0  0  0  0  0  0  0  0  0  0  0
    1.9714   -1.0319    2.4471 C   0  0  0  0  0  0  0  0  0  0  0  0
    2.3395   -1.1751    3.4799 H   0  0  0  0  0  0  0  0  0  0  0  0
    0.9282   -1.4067    2.4006 H   0  0  0  0  0  0  0  0  0  0  0  0
    1.9195    0.0612    2.2583 H   0  0  0  0  0  0  0  0  0  0  0  0
    6.3883   -3.2430    1.3625 C   0  0  0  0  0  0  0  0  0  0  0  0
    6.3851   -3.6583    2.3900 H   0  0  0  0  0  0  0  0  0  0  0  0
    7.0811   -2.3742    1.3673 H   0  0  0  0  0  0  0  0  0  0  0  0
    6.8159   -4.0031    0.6806 H   0  0  0  0  0  0  0  0  0  0  0  0
    2.9253   -2.7462   -2.2771 C   0  0  0  0  0  0  0  0  0  0  0  0
    3.6738   -2.2548   -2.9320 H   0  0  0  0  0  0  0  0  0  0  0  0
    1.9292   -2.3283   -2.5056 H   0  0  0  0  0  0  0  0  0  0  0  0
    2.9190   -3.8206   -2.5573 H   0  0  0  0  0  0  0  0  0  0  0  0
  1  2  1  0  0  0  0
  1  9  1  0  0  0  0
  3 11  1  0  0  0  0
  5  7  1  0  0  0  0
  6  9  1  0  0  0  0
  6  8  1  0  0  0  0
  6 53  1  0  0  0  0
  7  3  1  0  0  0  0
  8  4  1  0  0  0  0
  8  7  2  0  0  0  0
  9  5  1  0  0  0  0
  9 10  1  1  0  0  0
 11 12  1  0  0  0  0
 12 14  2  0  0  0  0
 12 13  1  0  0  0  0
 14 15  1  0  0  0  0
 16 17  1  0  0  0  0
 16 14  1  0  0  0  0
 18 16  2  0  0  0  0
 19 18  1  0  0  0  0
 20 18  1  0  0  0  0
 20 11  2  0  0  0  0
 21 20  1  0  0  0  0
 22  4  1  0  0  0  0
 22 23  1  0  0  0  0
 23 24  1  0  0  0  0
 25 23  2  0  0  0  0
 25 26  1  0  0  0  0
 27 25  1  0  0  0  0
 28 27  1  0  0  0  0
 29 31  1  0  0  0  0
 29 27  2  0  0  0  0
 30 29  1  0  0  0  0
 31 22  2  0  0  0  0
 32 31  1  0  0  0  0
 33  5  1  0  0  0  0
 33 34  1  0  0  0  0
 34 41  1  0  0  0  0
 35 34  2  0  0  0  0
 35 36  1  0  0  0  0
 37 35  1  0  0  0  0
 38 40  1  0  0  0  0
 38 37  2  0  0  0  0
 39 38  1  0  0  0  0
 40 33  2  0  0  0  0
 41 42  1  0  0  0  0
 41 44  1  0  0  0  0
 43 41  1  0  0  0  0
 45 37  1  0  0  0  0
 45 48  1  0  0  0  0
 45 46  1  0  0  0  0
 47 45  1  0  0  0  0
 49 52  1  0  0  0  0
 49 40  1  0  0  0  0
 50 49  1  0  0  0  0
 51 49  1  0  0  0  0
 53 54  1  0  0  0  0
 54 55  2  0  0  0  0
 54 61  1  0  0  0  0
 55 56  1  0  0  0  0
 57 65  1  0  0  0  0
 57 55  1  0  0  0  0
 58 57  2  0  0  0  0
 59 58  1  0  0  0  0
 60 58  1  0  0  0  0
 60 53  2  0  0  0  0
 61 62  1  0  0  0  0
 63 61  1  0  0  0  0
 64 61  1  0  0  0  0
 65 67  1  0  0  0  0
 65 66  1  0  0  0  0
 68 65  1  0  0  0  0
 69 60  1  0  0  0  0
 70 69  1  0  0  0  0
 71 69  1  0  0  0  0
 72 69  1  0  0  0  0
M  END
