1,3
q = 0.0, confidence = 0.572

 20 21  0  0  0  0  0  0  0  0999 V2000
    0.7631   -1.2232   -0.0016 N   0  0  0  0  0  2  0  0  0  0  0  0
    0.8422   -2.2460   -0.0006 H   0  0  0  0  0  0  0  0  0  0  0  0
    0.7641    1.2186   -0.0016 N   0  0  0  0  0  2  0  0  0  0  0  0
    0.8465    2.2412   -0.0002 H   0  0  0  0  0  0  0  0  0  0  0  0
   -0.4998   -0.7301   -0.0012 C   0  0  0  0  0  0  0  0  0  0  0  0
   -1.7175   -1.4314   -0.0006 C   0  0  0  0  0  0  0  0  0  0  0  0
   -1.7201   -2.5332   -0.0006 H   0  0  0  0  0  0  0  0  0  0  0  0
   -2.9442   -0.7301   -0.0001 C   0  0  0  0  0  0  0  0  0  0  0  0
   -4.2048   -1.4101    0.0003 C   0  0  0  0  0  0  0  0  0  0  0  0
   -4.2033   -2.5118    0.0003 H   0  0  0  0  0  0  0  0  0  0  0  0
   -5.3991   -0.7129    0.0007 C   0  0  0  0  0  0  0  0  0  0  0  0
   -6.3557   -1.2572    0.0011 H   0  0  0  0  0  0  0  0  0  0  0  0
   -5.3984    0.7149    0.0007 C   0  0  0  0  0  0  0  0  0  0  0  0
   -6.3545    1.2601    0.0010 H   0  0  0  0  0  0  0  0  0  0  0  0
   -4.2035    1.4110    0.0003 C   0  0  0  0  0  0  0  0  0  0  0  0
   -4.2008    2.5126    0.0002 H   0  0  0  0  0  0  0  0  0  0  0  0
   -2.9436    0.7297   -0.0001 C   0  0  0  0  0  0  0  0  0  0  0  0
   -1.7161    1.4297   -0.0006 C   0  0  0  0  0  0  0  0  0  0  0  0
   -1.7175    2.5314   -0.0006 H   0  0  0  0  0  0  0  0  0  0  0  0
   -0.4994    0.7267   -0.0011 C   0  0  0  0  0  0  0  0  0  0  0  0
  1  5  1  0  0  0  0
  1  2  1  0  0  0  0
  3 20  1  0  0  0  0
  3  4  1  0  0  0  0
  5 20  2  0  0  0  0
  5  6  1  0  0  0  0
  6  7  1  0  0  0  0
  6  8  2  0  0  0  0
  8  9  1  0  0  0  0
  9 10  1  0  0  0  0
  9 11  2  0  0  0  0
 11 12  1  0  0  0  0
 13 11  1  0  0  0  0
 13 14  1  0  0  0  0
 15 13  2  0  0  0  0
 16 15  1  0  0  0  0
 17  8  1  0  0  0  0
 17 15  1  0  0  0  0
 18 19  1  0  0  0  0
 18 17  2  0  0  0  0
 20 18  1  0  0  0  0
M  END
