1,4
q = 0.0, confidence = 1.0

 50 50  0  0  0  0  0  0  0  0999 V2000
   -0.7236    1.8339   -0.1937 N   0  0  0  0  0  0  0  0  0  0  0  0
    3.3242    1.4636   -0.0329 N   0  0  0  0  0  0  0  0  0  0  0  0
    3.2976   -1.6712    0.5213 N   0  0  0  0  0  0  0  0  0  0  0  0
   -0.2638   -0.8480   -1.3754 N   0  0  0  0  0  0  0  0  0  0  0  0
   -1.5805    3.0304   -0.0912 C   0  0  0  0  0  0  0  0  0  0  0  0
    0.4201    1.9206    0.7613 C   0  0  0  0  0  0  0  0  0  0  0  0
    1.4590    3.0342    0.5241 C   0  0  0  0  0  0  0  0  0  0  0  0
    2.8763    2.5398    0.8527 C   0  0  0  0  0  0  0  0  0  0  0  0
    3.6991    1.9517   -1.3494 C   0  0  0  0  0  0  0  0  0  0  0  0
    4.3597    0.6067    0.5424 C   0  0  0  0  0  0  0  0  0  0  0  0
    4.3662   -0.8302   -0.0010 C   0  0  0  0  0  0  0  0  0  0  0  0
    3.5237   -2.1009    1.8900 C   0  0  0  0  0  0  0  0  0  0  0  0
    2.9107   -2.7600   -0.3759 C   0  0  0  0  0  0  0  0  0  0  0  0
    1.8821   -2.3053   -1.4260 C   0  0  0  0  0  0  0  0  0  0  0  0
    0.6173   -1.8357   -0.6937 C   0  0  0  0  0  0  0  0  0  0  0  0
   -0.9152   -1.4460   -2.5584 C   0  0  0  0  0  0  0  0  0  0  0  0
    0.5135    0.3621   -1.7610 C   0  0  0  0  0  0  0  0  0  0  0  0
   -0.2865    1.6428   -1.5973 C   0  0  0  0  0  0  0  0  0  0  0  0
   -2.4594    2.9124   -0.7517 H   0  0  0  0  0  0  0  0  0  0  0  0
   -1.9434    3.1346    0.9478 H   0  0  0  0  0  0  0  0  0  0  0  0
   -1.0330    3.9569   -0.3823 H   0  0  0  0  0  0  0  0  0  0  0  0
    0.9462    0.9487    0.7384 H   0  0  0  0  0  0  0  0  0  0  0  0
   -0.0281    2.0060    1.7703 H   0  0  0  0  0  0  0  0  0  0  0  0
    1.2404    3.9300    1.1403 H   0  0  0  0  0  0  0  0  0  0  0  0
    1.4318    3.3885   -0.5273 H   0  0  0  0  0  0  0  0  0  0  0  0
    3.5887    3.4063    0.8486 H   0  0  0  0  0  0  0  0  0  0  0  0
    2.8782    2.1420    1.8895 H   0  0  0  0  0  0  0  0  0  0  0  0
    2.8655    2.5120   -1.8169 H   0  0  0  0  0  0  0  0  0  0  0  0
    4.5932    2.6296   -1.3219 H   0  0  0  0  0  0  0  0  0  0  0  0
    3.9379    1.1063   -2.0251 H   0  0  0  0  0  0  0  0  0  0  0  0
    4.2061    0.5702    1.6396 H   0  0  0  0  0  0  0  0  0  0  0  0
    5.3814    1.0455    0.3926 H   0  0  0  0  0  0  0  0  0  0  0  0
    4.2781   -0.7943   -1.1065 H   0  0  0  0  0  0  0  0  0  0  0  0
    5.3765   -1.2770    0.2068 H   0  0  0  0  0  0  0  0  0  0  0  0
    3.7233   -1.2276    2.5427 H   0  0  0  0  0  0  0  0  0  0  0  0
    2.6157   -2.5954    2.2888 H   0  0  0  0  0  0  0  0  0  0  0  0
    4.3907   -2.8056    2.0003 H   0  0  0  0  0  0  0  0  0  0  0  0
    2.4510   -3.5606    0.2408 H   0  0  0  0  0  0  0  0  0  0  0  0
    3.7957   -3.2309   -0.8743 H   0  0  0  0  0  0  0  0  0  0  0  0
    1.6824   -3.1351   -2.1353 H   0  0  0  0  0  0  0  0  0  0  0  0
    2.3227   -1.4802   -2.0247 H   0  0  0  0  0  0  0  0  0  0  0  0
   -0.0152   -2.6983   -0.4035 H   0  0  0  0  0  0  0  0  0  0  0  0
    0.9598   -1.3548    0.2414 H   0  0  0  0  0  0  0  0  0  0  0  0
   -1.5575   -2.2881   -2.2403 H   0  0  0  0  0  0  0  0  0  0  0  0
   -1.5608   -0.6966   -3.0520 H   0  0  0  0  0  0  0  0  0  0  0  0
   -0.1645   -1.8112   -3.2973 H   0  0  0  0  0  0  0  0  0  0  0  0
    0.8674    0.2882   -2.8135 H   0  0  0  0  0  0  0  0  0  0  0  0
    1.4206    0.4184   -1.1246 H   0  0  0  0  0  0  0  0  0  0  0  0
    0.3268    2.5037   -1.9574 H   0  0  0  0  0  0  0  0  0  0  0  0
   -1.2008    1.6234   -2.2234 H   0  0  0  0  0  0  0  0  0  0  0  0
  1  5  1  0  0  0  0
  1  6  1  0  0  0  0
  2 10  1  0  0  0  0
  2  8  1  0  0  0  0
  3 12  1  0  0  0  0
  4 15  1  0  0  0  0
  5 20  1  0  0  0  0
  6 23  1  0  0  0  0
  7  6  1  0  0  0  0
  7  8  1  0  0  0  0
  7 24  1  0  0  0  0
  8 27  1  0  0  0  0
  9 29  1  0  0  0  0
  9  2  1  0  0  0  0
 10 31  1  0  0  0  0
 11 34  1  0  0  0  0
 11  3  1  0  0  0  0
 11 10  1  0  0  0  0
 12 37  1  0  0  0  0
 12 36  1  0  0  0  0
 12 35  1  0  0  0  0
 13 38  1  0  0  0  0
 13  3  1  0  0  0  0
 14 15  1  0  0  0  0
 14 13  1  0  0  0  0
 15 42  1  0  0  0  0
 15 43  1  0  0  0  0
 16 44  1  0  0  0  0
 16  4  1  0  0  0  0
 17 18  1  0  0  0  0
 17  4  1  0  0  0  0
 17 48  1  0  0  0  0
 18  1  1  0  0  0  0
 19  5  1  0  0  0  0
 21  5  1  0  0  0  0
 22  6  1  0  0  0  0
 25  7  1  0  0  0  0
 26  8  1  0  0  0  0
 28  9  1  0  0  0  0
 30  9  1  0  0  0  0
 32 10  1  0  0  0  0
 33 11  1  0  0  0  0
 39 13  1  0  0  0  0
 40 14  1  0  0  0  0
 41 14  1  0  0  0  0
 45 16  1  0  0  0  0
 46 16  1  0  0  0  0
 47 17  1  0  0  0  0
 49 18  1  0  0  0  0
 50 18  1  0  0  0  0
M  END
