1,6
q = 0.0, confidence = 0.998

 47 50  0  0  1  0  0  0  0  0999 V2000
    1.6591   -1.2226   -0.4714 N   0  0  0  0  0  2  0  0  0  0  0  0
    1.8036   -2.3000    0.2426 C   0  0  1  0  0  3  0  0  0  0  0  0
    2.7701   -3.1599   -0.1465 O   0  0  0  0  0  0  0  0  0  0  0  0
    3.2641   -2.6590   -1.4231 C   0  0  0  0  0  0  0  0  0  0  0  0
    2.8156   -1.1896   -1.4387 C   0  0  2  0  0  0  0  0  0  0  0  0
   -0.3596   -0.6207    1.3793 N   0  0  0  0  0  2  0  0  0  0  0  0
    0.1416   -1.6461    2.0066 C   0  0  1  0  0  3  0  0  0  0  0  0
   -0.2641   -1.8261    3.2771 O   0  0  0  0  0  0  0  0  0  0  0  0
   -1.0727   -0.6792    3.6402 C   0  0  0  0  0  0  0  0  0  0  0  0
   -1.3243    0.0509    2.2941 C   0  0  2  0  0  0  0  0  0  0  0  0
    3.8588   -0.1996   -0.9477 C   0  0  0  0  0  0  0  0  0  0  0  0
    4.0137    1.0438   -1.5884 C   0  0  0  0  0  0  0  0  0  0  0  0
    4.9465    1.9771   -1.1090 C   0  0  0  0  0  0  0  0  0  0  0  0
    5.7308    1.6813    0.0164 C   0  0  0  0  0  0  0  0  0  0  0  0
    5.5837    0.4414    0.6617 C   0  0  0  0  0  0  0  0  0  0  0  0
    4.6554   -0.4942    0.1809 C   0  0  0  0  0  0  0  0  0  0  0  0
   -2.7549   -0.0546    1.8035 C   0  0  0  0  0  0  0  0  0  0  0  0
   -3.2484   -1.2563    1.2611 C   0  0  0  0  0  0  0  0  0  0  0  0
   -4.5873   -1.3532    0.8562 C   0  0  0  0  0  0  0  0  0  0  0  0
   -5.4480   -0.2524    0.9962 C   0  0  0  0  0  0  0  0  0  0  0  0
   -4.9642    0.9453    1.5466 C   0  0  0  0  0  0  0  0  0  0  0  0
   -3.6240    1.0423    1.9478 C   0  0  0  0  0  0  0  0  0  0  0  0
    1.0758   -2.7200    1.4990 C   0  0  0  0  0  0  0  0  0  0  0  0
    2.1473   -3.0141    2.5852 C   0  0  0  0  0  0  0  0  0  0  0  0
    0.2416   -4.0046    1.2293 C   0  0  0  0  0  0  0  0  0  0  0  0
    2.7904   -3.2606   -2.2271 H   0  0  0  0  0  0  0  0  0  0  0  0
    4.3594   -2.7995   -1.4487 H   0  0  0  0  0  0  0  0  0  0  0  0
    2.4264   -0.8649   -2.4212 H   0  0  0  0  0  0  0  0  0  0  0  0
   -1.9990   -1.0453    4.1200 H   0  0  0  0  0  0  0  0  0  0  0  0
   -0.4926   -0.0711    4.3633 H   0  0  0  0  0  0  0  0  0  0  0  0
   -1.0479    1.1213    2.3702 H   0  0  0  0  0  0  0  0  0  0  0  0
    3.3686    1.2874   -2.4453 H   0  0  0  0  0  0  0  0  0  0  0  0
    5.0579    2.9452   -1.6201 H   0  0  0  0  0  0  0  0  0  0  0  0
    6.4648    2.4124    0.3880 H   0  0  0  0  0  0  0  0  0  0  0  0
    6.2037    0.1971    1.5376 H   0  0  0  0  0  0  0  0  0  0  0  0
    4.5560   -1.4642    0.6935 H   0  0  0  0  0  0  0  0  0  0  0  0
   -2.5768   -2.1193    1.1350 H   0  0  0  0  0  0  0  0  0  0  0  0
   -4.9603   -2.2946    0.4257 H   0  0  0  0  0  0  0  0  0  0  0  0
   -6.4994   -0.3300    0.6812 H   0  0  0  0  0  0  0  0  0  0  0  0
   -5.6336    1.8110    1.6606 H   0  0  0  0  0  0  0  0  0  0  0  0
   -3.2433    1.9870    2.3670 H   0  0  0  0  0  0  0  0  0  0  0  0
    2.7585   -2.1136    2.7927 H   0  0  0  0  0  0  0  0  0  0  0  0
    1.6543   -3.3292    3.5222 H   0  0  0  0  0  0  0  0  0  0  0  0
    2.8163   -3.8205    2.2355 H   0  0  0  0  0  0  0  0  0  0  0  0
   -0.5475   -3.8180    0.4757 H   0  0  0  0  0  0  0  0  0  0  0  0
    0.9081   -4.8066    0.8595 H   0  0  0  0  0  0  0  0  0  0  0  0
   -0.2373   -4.3430    2.1675 H   0  0  0  0  0  0  0  0  0  0  0  0
  1  2  1  0  0  0  0
  2 23  1  1  0  0  0
  3  2  1  0  0  0  0
  4  3  1  0  0  0  0
  5 28  1  6  0  0  0
  5  4  1  0  0  0  0
  5 11  1  0  0  0  0
  5  1  1  0  0  0  0
  6  7  1  0  0  0  0
  6 10  1  0  0  0  0
  7 23  1  6  0  0  0
  7  8  1  0  0  0  0
  8  9  1  0  0  0  0
  9 29  1  0  0  0  0
  9 30  1  0  0  0  0
 10 31  1  1  0  0  0
 10  9  1  0  0  0  0
 11 16  1  0  0  0  0
 12 13  1  0  0  0  0
 12 11  2  0  0  0  0
 13 14  2  0  0  0  0
 14 34  1  0  0  0  0
 14 15  1  0  0  0  0
 15 35  1  0  0  0  0
 16 15  2  0  0  0  0
 16 36  1  0  0  0  0
 17 22  1  0  0  0  0
 17 10  1  0  0  0  0
 18 17  2  0  0  0  0
 19 20  2  0  0  0  0
 19 18  1  0  0  0  0
 20 21  1  0  0  0  0
 21 40  1  0  0  0  0
 21 22  2  0  0  0  0
 22 41  1  0  0  0  0
 23 24  1  0  0  0  0
 24 42  1  0  0  0  0
 24 43  1  0  0  0  0
 25 23  1  0  0  0  0
 25 47  1  0  0  0  0
 26  4  1  0  0  0  0
 27  4  1  0  0  0  0
 32 12  1  0  0  0  0
 33 13  1  0  0  0  0
 37 18  1  0  0  0  0
 38 19  1  0  0  0  0
 39 20  1  0  0  0  0
 44 24  1  0  0  0  0
 45 25  1  0  0  0  0
 46 25  1  0  0  0  0
M  END
