1,2
q = 0.0, confidence = 0.68

 37 39  0  0  1  0  0  0  0  0999 V2000
    0.1231    1.7581   -0.1019 N   0  0  0  0  0  2  0  0  0  0  0  0
   -1.4853   -0.0781   -0.1513 N   0  0  0  0  0  2  0  0  0  0  0  0
   -1.1194    2.1886   -0.0549 N   0  0  0  0  0  2  0  0  0  0  0  0
   -3.4411    1.5083   -0.0590 C   0  0  0  0  0  0  0  0  0  0  0  0
    1.9763    4.9718    0.3125 C   0  0  0  0  0  0  0  0  0  0  0  0
    1.9502    5.8745    0.9417 H   0  0  0  0  0  0  0  0  0  0  0  0
    1.0702    2.8075   -0.2947 C   0  0  0  0  0  0  0  0  0  0  0  0
   -2.8970   -3.3066   -1.3239 C   0  0  0  0  0  0  0  0  0  0  0  0
   -2.8407   -3.9599   -2.2081 H   0  0  0  0  0  0  0  0  0  0  0  0
   -2.0049    1.1467   -0.0662 C   0  0  1  0  0  3  0  0  0  0  0  0
    1.0126    3.9715    0.4959 C   0  0  0  0  0  0  0  0  0  0  0  0
    0.2204    4.0615    1.2514 H   0  0  0  0  0  0  0  0  0  0  0  0
   -4.4226    0.7764   -0.7651 C   0  0  0  0  0  0  0  0  0  0  0  0
   -4.1357   -0.1018   -1.3578 H   0  0  0  0  0  0  0  0  0  0  0  0
   -2.2573   -1.2602   -0.1806 C   0  0  0  0  0  0  0  0  0  0  0  0
   -3.7255   -2.8559    0.9171 C   0  0  0  0  0  0  0  0  0  0  0  0
   -4.3175   -3.1561    1.7951 H   0  0  0  0  0  0  0  0  0  0  0  0
    2.0599    2.6527   -1.2844 C   0  0  0  0  0  0  0  0  0  0  0  0
    2.0590    1.7323   -1.8898 H   0  0  0  0  0  0  0  0  0  0  0  0
   -3.0224   -1.6429    0.9409 C   0  0  0  0  0  0  0  0  0  0  0  0
   -3.0308   -0.9904    1.8250 H   0  0  0  0  0  0  0  0  0  0  0  0
    3.0004    3.6744   -1.4737 C   0  0  0  0  0  0  0  0  0  0  0  0
    3.7683    3.5644   -2.2544 H   0  0  0  0  0  0  0  0  0  0  0  0
   -5.1778    3.0541    0.6948 C   0  0  0  0  0  0  0  0  0  0  0  0
   -5.4692    3.9483    1.2664 H   0  0  0  0  0  0  0  0  0  0  0  0
   -3.8344    2.6624    0.6572 C   0  0  0  0  0  0  0  0  0  0  0  0
   -3.0639    3.2431    1.1832 H   0  0  0  0  0  0  0  0  0  0  0  0
   -2.1806   -2.1018   -1.3106 C   0  0  0  0  0  0  0  0  0  0  0  0
   -1.5315   -1.7965   -2.1450 H   0  0  0  0  0  0  0  0  0  0  0  0
    2.9701    4.8278   -0.6720 C   0  0  0  0  0  0  0  0  0  0  0  0
    3.7204    5.6200   -0.8157 H   0  0  0  0  0  0  0  0  0  0  0  0
   -3.6722   -3.6878   -0.2148 C   0  0  0  0  0  0  0  0  0  0  0  0
   -4.2293   -4.6367   -0.2288 H   0  0  0  0  0  0  0  0  0  0  0  0
   -5.7637    1.1801   -0.7332 C   0  0  0  0  0  0  0  0  0  0  0  0
   -6.5152    0.6047   -1.2946 H   0  0  0  0  0  0  0  0  0  0  0  0
   -6.1489    2.3123    0.0024 C   0  0  0  0  0  0  0  0  0  0  0  0
   -7.2049    2.6214    0.0291 H   0  0  0  0  0  0  0  0  0  0  0  0
  1  3  1  0  0  0  0
  4 26  1  0  0  0  0
  5 11  1  0  0  0  0
  5  6  1  0  0  0  0
  7  1  1  0  0  0  0
  7 11  2  0  0  0  0
  8 28  2  0  0  0  0
  8 32  1  0  0  0  0
  9  8  1  0  0  0  0
 10  2  1  6  0  0  0
 10  4  1  0  0  0  0
 10  3  1  0  0  0  0
 11 12  1  0  0  0  0
 13 34  1  0  0  0  0
 13  4  2  0  0  0  0
 14 13  1  0  0  0  0
 15  2  1  0  0  0  0
 15 20  2  0  0  0  0
 16 20  1  0  0  0  0
 16 17  1  0  0  0  0
 18  7  1  0  0  0  0
 19 18  1  0  0  0  0
 20 21  1  0  0  0  0
 22 18  2  0  0  0  0
 22 30  1  0  0  0  0
 23 22  1  0  0  0  0
 24 25  1  0  0  0  0
 26 24  2  0  0  0  0
 26 27  1  0  0  0  0
 28 15  1  0  0  0  0
 29 28  1  0  0  0  0
 30  5  2  0  0  0  0
 31 30  1  0  0  0  0
 32 16  2  0  0  0  0
 33 32  1  0  0  0  0
 34 36  2  0  0  0  0
 35 34  1  0  0  0  0
 36 37  1  0  0  0  0
 36 24  1  0  0  0  0
M  END
