1,2
q = 0.0, confidence = 1.0

 63 66  0  0  1  0  0  0  0  0999 V2000
   -0.4765    0.3521   -0.1650 N   0  0  0  0  0  2  0  0  0  0  0  0
    1.4630    2.3232   -1.1101 N   0  0  0  0  0  0  0  0  0  0  0  0
    2.1226    2.9909   -0.6637 H   0  0  0  0  0  0  0  0  0  0  0  0
    0.7354   -0.7043    0.1916 P   0  0  0  0  0  4  0  0  0  0  0  0
   -6.4652   -0.9002   -0.6226 Br  0  0  0  0  0  0  0  0  0  0  0  0
    2.3515    0.1691   -0.2284 C   0  0  2  0  0  0  0  0  0  0  0  0
    2.5480    0.8246    0.6454 H   0  0  0  0  0  0  0  0  0  0  0  0
    2.1363    1.0611   -1.4627 C   0  0  0  0  0  0  0  0  0  0  0  0
    3.1233    1.2605   -1.9327 H   0  0  0  0  0  0  0  0  0  0  0  0
    1.5153    0.5397   -2.2204 H   0  0  0  0  0  0  0  0  0  0  0  0
    0.8023    3.0067   -2.2460 C   0  0  0  0  0  0  0  0  0  0  0  0
    0.3233    3.9087   -1.8144 H   0  0  0  0  0  0  0  0  0  0  0  0
   -0.0081    2.3383   -2.6035 H   0  0  0  0  0  0  0  0  0  0  0  0
    1.7437    3.4046   -3.3897 C   0  0  0  0  0  0  0  0  0  0  0  0
    2.1373    2.4974   -3.8990 H   0  0  0  0  0  0  0  0  0  0  0  0
    1.1248    3.9256   -4.1507 H   0  0  0  0  0  0  0  0  0  0  0  0
    2.8969    4.3085   -2.9485 C   0  0  0  0  0  0  0  0  0  0  0  0
    2.5240    5.1965   -2.3980 H   0  0  0  0  0  0  0  0  0  0  0  0
    3.4854    4.6653   -3.8165 H   0  0  0  0  0  0  0  0  0  0  0  0
    3.6052    3.7828   -2.2737 H   0  0  0  0  0  0  0  0  0  0  0  0
   -1.8469    0.0332   -0.1980 C   0  0  0  0  0  0  0  0  0  0  0  0
   -2.3810   -1.2035    0.2306 C   0  0  0  0  0  0  0  0  0  0  0  0
   -1.7279   -1.9567    0.6927 H   0  0  0  0  0  0  0  0  0  0  0  0
   -3.7474   -1.4870    0.0996 C   0  0  0  0  0  0  0  0  0  0  0  0
   -4.1456   -2.4539    0.4380 H   0  0  0  0  0  0  0  0  0  0  0  0
   -4.6059   -0.5224   -0.4449 C   0  0  0  0  0  0  0  0  0  0  0  0
   -4.1053    0.7285   -0.8464 C   0  0  0  0  0  0  0  0  0  0  0  0
   -4.7856    1.4911   -1.2509 H   0  0  0  0  0  0  0  0  0  0  0  0
   -2.7407    0.9984   -0.7222 C   0  0  0  0  0  0  0  0  0  0  0  0
   -2.3393    1.9801   -1.0140 H   0  0  0  0  0  0  0  0  0  0  0  0
    0.6712   -2.1479   -0.9239 C   0  0  0  0  0  0  0  0  0  0  0  0
    1.4671   -3.2938   -0.7089 C   0  0  0  0  0  0  0  0  0  0  0  0
    2.1075   -3.3678    0.1817 H   0  0  0  0  0  0  0  0  0  0  0  0
    1.4631   -4.3336   -1.6495 C   0  0  0  0  0  0  0  0  0  0  0  0
    2.0876   -5.2229   -1.4772 H   0  0  0  0  0  0  0  0  0  0  0  0
    0.6782   -4.2340   -2.8090 C   0  0  0  0  0  0  0  0  0  0  0  0
    0.6766   -5.0530   -3.5442 H   0  0  0  0  0  0  0  0  0  0  0  0
   -0.1018   -3.0882   -3.0335 C   0  0  0  0  0  0  0  0  0  0  0  0
   -0.7175   -3.0064   -3.9417 H   0  0  0  0  0  0  0  0  0  0  0  0
   -0.1061   -2.0442   -2.0975 C   0  0  0  0  0  0  0  0  0  0  0  0
   -0.7204   -1.1479   -2.2655 H   0  0  0  0  0  0  0  0  0  0  0  0
    0.8541   -1.2716    1.9194 C   0  0  0  0  0  0  0  0  0  0  0  0
    1.2078   -0.3208    2.9029 C   0  0  0  0  0  0  0  0  0  0  0  0
    1.4400    0.7179    2.6200 H   0  0  0  0  0  0  0  0  0  0  0  0
    1.2045   -0.6841    4.2560 C   0  0  0  0  0  0  0  0  0  0  0  0
    1.4699    0.0665    5.0148 H   0  0  0  0  0  0  0  0  0  0  0  0
    0.8355   -1.9830    4.6390 C   0  0  0  0  0  0  0  0  0  0  0  0
    0.8274   -2.2612    5.7037 H   0  0  0  0  0  0  0  0  0  0  0  0
    0.4568   -2.9219    3.6663 C   0  0  0  0  0  0  0  0  0  0  0  0
    0.1495   -3.9355    3.9642 H   0  0  0  0  0  0  0  0  0  0  0  0
    0.4592   -2.5692    2.3095 C   0  0  0  0  0  0  0  0  0  0  0  0
    0.1474   -3.3080    1.5569 H   0  0  0  0  0  0  0  0  0  0  0  0
    3.4694   -0.8440   -0.3457 C   0  0  0  0  0  0  0  0  0  0  0  0
    4.1349   -1.2820    0.8188 C   0  0  0  0  0  0  0  0  0  0  0  0
    3.8598   -0.8500    1.7931 H   0  0  0  0  0  0  0  0  0  0  0  0
    5.1328   -2.2643    0.7454 C   0  0  0  0  0  0  0  0  0  0  0  0
    5.6409   -2.5940    1.6640 H   0  0  0  0  0  0  0  0  0  0  0  0
    5.4884   -2.8171   -0.4956 C   0  0  0  0  0  0  0  0  0  0  0  0
    6.2750   -3.5845   -0.5542 H   0  0  0  0  0  0  0  0  0  0  0  0
    4.8398   -2.3812   -1.6612 C   0  0  0  0  0  0  0  0  0  0  0  0
    5.1111   -2.8091   -2.6379 H   0  0  0  0  0  0  0  0  0  0  0  0
    3.8329   -1.4079   -1.5862 C   0  0  0  0  0  0  0  0  0  0  0  0
    3.3126   -1.1030   -2.5061 H   0  0  0  0  0  0  0  0  0  0  0  0
  1  4  1  0  0  0  0
  2  3  1  0  0  0  0
  4 42  1  0  0  0  0
  5 26  1  0  0  0  0
  6  4  1  0  0  0  0
  6  7  1  1  0  0  0
  8  2  1  0  0  0  0
  8  6  1  0  0  0  0
  9  8  1  0  0  0  0
 10  8  1  0  0  0  0
 11 12  1  0  0  0  0
 11  2  1  0  0  0  0
 13 11  1  0  0  0  0
 14 17  1  0  0  0  0
 14 11  1  0  0  0  0
 15 14  1  0  0  0  0
 16 14  1  0  0  0  0
 17 18  1  0  0  0  0
 17 20  1  0  0  0  0
 19 17  1  0  0  0  0
 21  1  1  0  0  0  0
 21 22  1  0  0  0  0
 22 23  1  0  0  0  0
 24 22  2  0  0  0  0
 24 25  1  0  0  0  0
 26 24  1  0  0  0  0
 27 29  1  0  0  0  0
 27 26  2  0  0  0  0
 28 27  1  0  0  0  0
 29 21  2  0  0  0  0
 30 29  1  0  0  0  0
 31 32  1  0  0  0  0
 31  4  1  0  0  0  0
 32 33  1  0  0  0  0
 34 35  1  0  0  0  0
 34 32  2  0  0  0  0
 36 34  1  0  0  0  0
 37 36  1  0  0  0  0
 38 36  2  0  0  0  0
 38 40  1  0  0  0  0
 39 38  1  0  0  0  0
 40 31  2  0  0  0  0
 41 40  1  0  0  0  0
 42 51  2  0  0  0  0
 42 43  1  0  0  0  0
 43 45  2  0  0  0  0
 44 43  1  0  0  0  0
 45 47  1  0  0  0  0
 45 46  1  0  0  0  0
 47 48  1  0  0  0  0
 49 50  1  0  0  0  0
 49 47  2  0  0  0  0
 51 49  1  0  0  0  0
 52 51  1  0  0  0  0
 53  6  1  0  0  0  0
 53 54  1  0  0  0  0
 54 55  1  0  0  0  0
 56 54  2  0  0  0  0
 56 57  1  0  0  0  0
 58 56  1  0  0  0  0
 59 58  1  0  0  0  0
 60 62  1  0  0  0  0
 60 58  2  0  0  0  0
 61 60  1  0  0  0  0
 62 53  2  0  0  0  0
 63 62  1  0  0  0  0
M  END
