2,16
q = 0.0, confidence = 0.998

 41 44  0  0  1  0  0  0  0  0999 V2000
    0.7721    0.1841   -0.5867 N   0  0  0  0  0  0  0  0  0  0  0  0
    0.0753   -0.8697   -0.0626 N   0  0  0  0  0  2  0  0  0  0  0  0
    0.9577   -1.6571    0.5976 C   0  0  0  0  0  3  0  0  0  0  0  0
    2.2366   -1.0776    0.5164 C   0  0  0  0  0  0  0  0  0  0  0  0
    3.7238   -1.2396    0.7232 C   0  0  1  0  0  0  0  0  0  0  0  0
    4.2847   -1.6439   -0.6785 C   0  0  0  0  0  0  0  0  0  0  0  0
    4.0766   -0.3609   -1.5365 C   0  0  0  0  0  0  0  0  0  0  0  0
    3.4362    0.6794   -0.5458 C   0  0  2  0  0  0  0  0  0  0  0  0
    2.0812    0.0847   -0.2384 C   0  0  0  0  0  0  0  0  0  0  0  0
    3.5236    2.1312   -0.9845 C   0  0  0  0  0  0  0  0  0  0  0  0
    4.1627    0.2724    0.8176 C   0  0  0  0  0  0  0  0  0  0  0  0
    3.6078    0.9989    2.0502 C   0  0  0  0  0  0  0  0  0  0  0  0
    5.6825    0.4816    0.7919 C   0  0  0  0  0  0  0  0  0  0  0  0
    0.0919    1.1733   -1.4090 C   0  0  0  0  0  0  0  0  0  0  0  0
   -2.9138    1.8932    0.4478 O   0  0  0  0  0  0  0  0  0  0  0  0
   -1.9821    1.0669   -0.1398 N   0  0  0  0  0  2  0  0  0  0  0  0
   -1.0432    1.8374   -0.6823 C   0  0  2  0  0  3  0  0  0  0  0  0
   -1.3530    3.2065   -0.4613 C   0  0  0  0  0  0  0  0  0  0  0  0
   -2.5388    3.1806    0.2474 C   0  0  0  0  0  0  0  0  0  0  0  0
   -3.4361    4.2268    0.7987 C   0  0  0  0  0  0  0  0  0  0  0  0
    0.5682   -2.5697    1.0643 H   0  0  0  0  0  0  0  0  0  0  0  0
    4.0506   -1.8863    1.5586 H   0  0  0  0  0  0  0  0  0  0  0  0
    3.7444   -2.5199   -1.0835 H   0  0  0  0  0  0  0  0  0  0  0  0
    5.3557   -1.9191   -0.6125 H   0  0  0  0  0  0  0  0  0  0  0  0
    5.0358    0.0367   -1.9254 H   0  0  0  0  0  0  0  0  0  0  0  0
    3.4169   -0.5261   -2.4107 H   0  0  0  0  0  0  0  0  0  0  0  0
    3.0050    2.8071   -0.2747 H   0  0  0  0  0  0  0  0  0  0  0  0
    3.0809    2.2798   -1.9915 H   0  0  0  0  0  0  0  0  0  0  0  0
    4.5813    2.4552   -1.0519 H   0  0  0  0  0  0  0  0  0  0  0  0
    2.5110    0.8942    2.1501 H   0  0  0  0  0  0  0  0  0  0  0  0
    3.8511    2.0806    2.0106 H   0  0  0  0  0  0  0  0  0  0  0  0
    4.0709    0.5942    2.9729 H   0  0  0  0  0  0  0  0  0  0  0  0
    6.1865    0.0350   -0.0846 H   0  0  0  0  0  0  0  0  0  0  0  0
    6.1366    0.0357    1.7001 H   0  0  0  0  0  0  0  0  0  0  0  0
    5.9281    1.5631    0.8050 H   0  0  0  0  0  0  0  0  0  0  0  0
    0.8403    1.9224   -1.7185 H   0  0  0  0  0  0  0  0  0  0  0  0
   -0.3012    0.6700   -2.3197 H   0  0  0  0  0  0  0  0  0  0  0  0
   -0.7882    4.0856   -0.7856 H   0  0  0  0  0  0  0  0  0  0  0  0
   -3.0298    5.2308    0.5811 H   0  0  0  0  0  0  0  0  0  0  0  0
   -3.5463    4.1146    1.8965 H   0  0  0  0  0  0  0  0  0  0  0  0
   -4.4499    4.1464    0.3559 H   0  0  0  0  0  0  0  0  0  0  0  0
  1  9  1  0  0  0  0
  1  2  1  0  0  0  0
  2  3  1  0  0  0  0
  3 21  1  0  0  0  0
  4  3  1  0  0  0  0
  4  5  1  0  0  0  0
  5 11  1  0  0  0  0
  5 22  1  1  0  0  0
  6 24  1  0  0  0  0
  6  5  1  0  0  0  0
  7  6  1  0  0  0  0
  7  8  1  0  0  0  0
  8 10  1  6  0  0  0
  8  9  1  0  0  0  0
  8 11  1  0  0  0  0
  9  4  2  0  0  0  0
 10 27  1  0  0  0  0
 11 12  1  0  0  0  0
 12 30  1  0  0  0  0
 12 32  1  0  0  0  0
 13 35  1  0  0  0  0
 13 11  1  0  0  0  0
 13 34  1  0  0  0  0
 14  1  1  0  0  0  0
 16 15  1  0  0  0  0
 17 14  1  6  0  0  0
 17 18  1  0  0  0  0
 17 16  1  0  0  0  0
 18 19  2  0  0  0  0
 19 15  1  0  0  0  0
 19 20  1  0  0  0  0
 20 40  1  0  0  0  0
 23  6  1  0  0  0  0
 25  7  1  0  0  0  0
 26  7  1  0  0  0  0
 28 10  1  0  0  0  0
 29 10  1  0  0  0  0
 31 12  1  0  0  0  0
 33 13  1  0  0  0  0
 36 14  1  0  0  0  0
 37 14  1  0  0  0  0
 38 18  1  0  0  0  0
 39 20  1  0  0  0  0
 41 20  1  0  0  0  0
M  END
