2,13
q = -2.0, confidence = 0.898

 22 24  0  0  0  0  0  0  0  0999 V2000
   -0.1621   -3.0442   -1.1585 O   0  0  0  0  0  0  0  0  0  0  0  0
    0.9363   -1.2967   -0.1736 N   0  0  0  0  0  0  0  0  0  0  0  0
    0.8689   -2.6187   -0.5472 C   0  0  0  0  0  0  0  0  0  0  0  0
    2.0421   -3.4196   -0.2374 C   0  0  0  0  0  0  0  0  0  0  0  0
    3.2285   -2.8307    0.1561 C   0  0  0  0  0  0  0  0  0  0  0  0
    3.3410   -1.4045    0.2563 C   0  0  0  0  0  0  0  0  0  0  0  0
    2.1370   -0.6861    0.0557 C   0  0  0  0  0  0  0  0  0  0  0  0
    4.5436   -0.6523    0.4576 C   0  0  0  0  0  0  0  0  0  0  0  0
    1.9606   -4.5032   -0.4045 H   0  0  0  0  0  0  0  0  0  0  0  0
    4.1188   -3.4536    0.3406 H   0  0  0  0  0  0  0  0  0  0  0  0
    5.4849   -1.1918    0.6424 H   0  0  0  0  0  0  0  0  0  0  0  0
   -0.2747    3.1637   -1.0537 O   0  0  0  0  0  0  0  0  0  0  0  0
    0.9124    1.2924   -0.3889 N   0  0  0  0  0  0  0  0  0  0  0  0
    0.8006    2.6539   -0.6855 C   0  0  0  0  0  0  0  0  0  0  0  0
    2.0352    3.4315   -0.5105 C   0  0  0  0  0  0  0  0  0  0  0  0
    3.2347    2.8712   -0.1423 C   0  0  0  0  0  0  0  0  0  0  0  0
    3.3314    1.4574    0.0824 C   0  0  0  0  0  0  0  0  0  0  0  0
    2.1209    0.7339   -0.0567 C   0  0  0  0  0  0  0  0  0  0  0  0
    4.5316    0.7325    0.3769 C   0  0  0  0  0  0  0  0  0  0  0  0
    1.9376    4.5089   -0.7075 H   0  0  0  0  0  0  0  0  0  0  0  0
    4.1354    3.4974   -0.0336 H   0  0  0  0  0  0  0  0  0  0  0  0
    5.4660    1.3005    0.5047 H   0  0  0  0  0  0  0  0  0  0  0  0
  1  3  2  0  0  0  0
  2  7  2  0  0  0  0
  3  4  1  0  0  0  0
  3  2  1  0  0  0  0
  4  5  2  0  0  0  0
  5  6  1  0  0  0  0
  5 10  1  0  0  0  0
  6  8  2  0  0  0  0
  7  6  1  0  0  0  0
  8 11  1  0  0  0  0
  9  4  1  0  0  0  0
 12 14  2  0  0  0  0
 13 18  2  0  0  0  0
 14 15  1  0  0  0  0
 14 13  1  0  0  0  0
 15 16  2  0  0  0  0
 16 21  1  0  0  0  0
 16 17  1  0  0  0  0
 17 19  2  0  0  0  0
 18  7  1  0  0  0  0
 18 17  1  0  0  0  0
 19  8  1  0  0  0  0
 19 22  1  0  0  0  0
 20 15  1  0  0  0  0
M  END
