9,11
q = -1.0, confidence = 0.096

 32 35  0  0  0  0  0  0  0  0999 V2000
   -2.1540    1.4856    0.2078 C   0  0  0  0  0  0  0  0  0  0  0  0
   -2.1540   -1.4856    0.2078 C   0  0  0  0  0  0  0  0  0  0  0  0
   -3.3580    0.7038    0.0816 C   0  0  0  0  0  0  0  0  0  0  0  0
   -2.0548   -2.8944    0.2888 C   0  0  0  0  0  0  0  0  0  0  0  0
   -2.9407   -3.5376    0.2626 H   0  0  0  0  0  0  0  0  0  0  0  0
   -2.0548    2.8944    0.2888 C   0  0  0  0  0  0  0  0  0  0  0  0
   -2.9407    3.5376    0.2627 H   0  0  0  0  0  0  0  0  0  0  0  0
   -4.6878   -1.1024   -0.0706 N   0  0  0  0  0  0  0  0  0  0  0  0
    0.2830    1.3259    0.3496 N   0  0  0  0  0  2  0  0  0  0  0  0
   -4.6878    1.1024   -0.0706 N   0  0  0  0  0  0  0  0  0  0  0  0
    0.2830   -1.3259    0.3496 N   0  0  0  0  0  2  0  0  0  0  0  0
   -3.3580   -0.7038    0.0816 C   0  0  0  0  0  0  0  0  0  0  0  0
   -0.9437    0.7235    0.2508 C   0  0  0  0  0  0  0  0  0  0  0  0
    0.3490   -2.6663    0.4389 C   0  0  0  0  0  0  0  0  0  0  0  0
    1.3570   -3.0990    0.5133 H   0  0  0  0  0  0  0  0  0  0  0  0
   -0.9437   -0.7235    0.2508 C   0  0  0  0  0  0  0  0  0  0  0  0
   -5.2192   -2.4622   -0.1535 C   0  0  0  0  0  0  0  0  0  0  0  0
   -6.3074   -2.4083   -0.3329 H   0  0  0  0  0  0  0  0  0  0  0  0
   -5.0384   -3.0020    0.7950 H   0  0  0  0  0  0  0  0  0  0  0  0
   -4.7439   -3.0022   -0.9937 H   0  0  0  0  0  0  0  0  0  0  0  0
    0.3490    2.6663    0.4389 C   0  0  0  0  0  0  0  0  0  0  0  0
    1.3570    3.0990    0.5133 H   0  0  0  0  0  0  0  0  0  0  0  0
   -0.7937    3.4788    0.4155 C   0  0  0  0  0  0  0  0  0  0  0  0
   -0.6822    4.5694    0.4853 H   0  0  0  0  0  0  0  0  0  0  0  0
   -5.4551    0.0000   -0.1594 C   0  0  0  0  0  3  0  0  0  0  0  0
   -6.5425    0.0000   -0.2921 H   0  0  0  0  0  0  0  0  0  0  0  0
   -5.2192    2.4622   -0.1536 C   0  0  0  0  0  0  0  0  0  0  0  0
   -6.3074    2.4083   -0.3331 H   0  0  0  0  0  0  0  0  0  0  0  0
   -4.7438    3.0022   -0.9937 H   0  0  0  0  0  0  0  0  0  0  0  0
   -5.0385    3.0020    0.7949 H   0  0  0  0  0  0  0  0  0  0  0  0
   -0.7937   -3.4788    0.4155 C   0  0  0  0  0  0  0  0  0  0  0  0
   -0.6822   -4.5694    0.4852 H   0  0  0  0  0  0  0  0  0  0  0  0
  1 13  1  0  0  0  0
  1  6  2  0  0  0  0
  2 16  1  0  0  0  0
  2  4  2  0  0  0  0
  3 12  2  0  0  0  0
  3  1  1  0  0  0  0
  4 31  1  0  0  0  0
  5  4  1  0  0  0  0
  6 23  1  0  0  0  0
  7  6  1  0  0  0  0
  8 12  1  0  0  0  0
  9 21  1  0  0  0  0
 10  3  1  0  0  0  0
 11 14  1  0  0  0  0
 12  2  1  0  0  0  0
 13  9  1  0  0  0  0
 14 15  1  0  0  0  0
 16 13  2  0  0  0  0
 16 11  1  0  0  0  0
 17  8  1  0  0  0  0
 17 19  1  0  0  0  0
 18 17  1  0  0  0  0
 20 17  1  0  0  0  0
 21 22  1  0  0  0  0
 23 21  2  0  0  0  0
 23 24  1  0  0  0  0
 25 10  1  0  0  0  0
 25  8  1  0  0  0  0
 26 25  1  0  0  0  0
 27 10  1  0  0  0  0
 27 30  1  0  0  0  0
 28 27  1  0  0  0  0
 29 27  1  0  0  0  0
 31 14  2  0  0  0  0
 31 32  1  0  0  0  0
M  END
