1,20
q = 0.0, confidence = 0.998

 21 22  0  0  1  0  0  0  0  0999 V2000
    0.6148   -1.4942   -1.1056 N   0  0  0  0  0  2  0  0  0  0  0  0
    1.5048   -2.3332   -1.7377 O   0  0  0  0  0  0  0  0  0  0  0  0
    2.3517   -1.8452   -1.6679 H   0  0  0  0  0  0  0  0  0  0  0  0
   -0.5833   -1.9929   -1.0642 C   0  0  0  0  0  3  0  0  0  0  0  0
   -0.7195   -3.0099   -1.4724 H   0  0  0  0  0  0  0  0  0  0  0  0
   -1.7491   -1.3002   -0.5563 C   0  0  0  0  0  0  0  0  0  0  0  0
   -2.9157   -2.0649   -0.4055 C   0  0  0  0  0  0  0  0  0  0  0  0
   -2.8549   -3.1489   -0.5849 H   0  0  0  0  0  0  0  0  0  0  0  0
   -4.1514   -1.4921   -0.0388 C   0  0  0  0  0  0  0  0  0  0  0  0
   -5.0333   -2.1353    0.0948 H   0  0  0  0  0  0  0  0  0  0  0  0
   -4.2499   -0.1197    0.1154 C   0  0  0  0  0  0  0  0  0  0  0  0
   -5.2104    0.3570    0.3623 H   0  0  0  0  0  0  0  0  0  0  0  0
   -3.1053    0.7104   -0.0646 C   0  0  0  0  0  0  0  0  0  0  0  0
   -3.2082    2.1247    0.0157 C   0  0  0  0  0  0  0  0  0  0  0  0
   -4.1837    2.5809    0.2434 H   0  0  0  0  0  0  0  0  0  0  0  0
   -2.0848    2.8985   -0.2127 C   0  0  0  0  0  0  0  0  0  0  0  0
   -2.1187    3.9965   -0.1899 H   0  0  0  0  0  0  0  0  0  0  0  0
   -0.8542    2.2514   -0.4430 C   0  0  0  0  0  0  0  0  0  0  0  0
    0.0540    2.8524   -0.5866 H   0  0  0  0  0  0  0  0  0  0  0  0
   -0.6978    0.9203   -0.4651 N   0  0  0  0  0  2  0  0  0  0  0  0
   -1.8166    0.1255   -0.3482 C   0  0  2  0  0  3  0  0  0  0  0  0
  1  4  1  0  0  0  0
  2  3  1  0  0  0  0
  2  1  1  0  0  0  0
  4  6  1  0  0  0  0
  5  4  1  0  0  0  0
  6  7  2  0  0  0  0
  7  9  1  0  0  0  0
  8  7  1  0  0  0  0
  9 10  1  0  0  0  0
  9 11  2  0  0  0  0
 11 12  1  0  0  0  0
 13 14  2  0  0  0  0
 13 11  1  0  0  0  0
 14 15  1  0  0  0  0
 16 17  1  0  0  0  0
 16 14  1  0  0  0  0
 18 16  2  0  0  0  0
 19 18  1  0  0  0  0
 20 18  1  0  0  0  0
 20 21  1  0  0  0  0
 21  6  1  6  0  0  0
 21 13  1  0  0  0  0
M  END
