1,2
q = 0.0, confidence = 0.986

 34 35  0  0  0  0  0  0  0  0999 V2000
   -0.4506   -2.3468   -0.0011 N   0  0  0  0  0  2  0  0  0  0  0  0
    0.9961   -0.1381   -0.0007 N   0  0  0  0  0  2  0  0  0  0  0  0
   -1.2804   -3.4150   -0.0014 C   0  0  0  0  0  0  0  0  0  0  0  0
   -2.3544   -3.1663   -0.0010 H   0  0  0  0  0  0  0  0  0  0  0  0
    0.9063   -2.5392   -0.0014 C   0  0  0  0  0  0  0  0  0  0  0  0
    3.8169   -0.0655   -0.0004 C   0  0  0  0  0  0  0  0  0  0  0  0
    1.6556    1.0449   -0.0003 C   0  0  0  0  0  0  0  0  0  0  0  0
    1.0064    1.9359   -0.0000 H   0  0  0  0  0  0  0  0  0  0  0  0
    1.7144   -1.3072   -0.0010 C   0  0  0  0  0  0  0  0  0  0  0  0
    5.2385   -0.0315   -0.0003 C   0  0  0  0  0  0  0  0  0  0  0  0
    3.0437    1.1264   -0.0001 C   0  0  0  0  0  0  0  0  0  0  0  0
    3.5366    2.1078    0.0002 H   0  0  0  0  0  0  0  0  0  0  0  0
    3.1158   -1.2925   -0.0008 C   0  0  0  0  0  0  0  0  0  0  0  0
    3.6831   -2.2317   -0.0011 H   0  0  0  0  0  0  0  0  0  0  0  0
    8.3298    0.0636    0.0006 Si  0  0  0  0  0  0  0  0  0  0  0  0
    1.4448   -3.8391   -0.0022 C   0  0  0  0  0  0  0  0  0  0  0  0
    2.5334   -3.9827   -0.0027 H   0  0  0  0  0  0  0  0  0  0  0  0
   -0.8005   -4.7257   -0.0021 C   0  0  0  0  0  0  0  0  0  0  0  0
   -1.5123   -5.5631   -0.0024 H   0  0  0  0  0  0  0  0  0  0  0  0
    6.4741    0.0025   -0.0008 C   0  0  0  0  0  0  0  0  0  0  0  0
    0.5878   -4.9435   -0.0026 C   0  0  0  0  0  0  0  0  0  0  0  0
    0.9984   -5.9636   -0.0032 H   0  0  0  0  0  0  0  0  0  0  0  0
    8.9688   -1.5554   -0.7321 C   0  0  0  0  0  0  0  0  0  0  0  0
    8.6313   -2.4248   -0.1329 H   0  0  0  0  0  0  0  0  0  0  0  0
   10.0784   -1.5591   -0.7489 H   0  0  0  0  0  0  0  0  0  0  0  0
    8.6088   -1.6921   -1.7717 H   0  0  0  0  0  0  0  0  0  0  0  0
    8.9019    0.2645    1.7892 C   0  0  0  0  0  0  0  0  0  0  0  0
    8.5030    1.1989    2.2325 H   0  0  0  0  0  0  0  0  0  0  0  0
   10.0099    0.3065    1.8346 H   0  0  0  0  0  0  0  0  0  0  0  0
    8.5630   -0.5853    2.4150 H   0  0  0  0  0  0  0  0  0  0  0  0
    8.8663    1.5383   -1.0487 C   0  0  0  0  0  0  0  0  0  0  0  0
    8.4668    2.4865   -0.6361 H   0  0  0  0  0  0  0  0  0  0  0  0
    8.5056    1.4379   -2.0920 H   0  0  0  0  0  0  0  0  0  0  0  0
    9.9733    1.6119   -1.0720 H   0  0  0  0  0  0  0  0  0  0  0  0
  2  7  1  0  0  0  0
  3  1  1  0  0  0  0
  3  4  1  0  0  0  0
  5  1  1  0  0  0  0
  5  9  2  0  0  0  0
  6 10  1  0  0  0  0
  6 11  1  0  0  0  0
  7 11  2  0  0  0  0
  7  8  1  0  0  0  0
  9 13  1  0  0  0  0
  9  2  1  0  0  0  0
 11 12  1  0  0  0  0
 13  6  2  0  0  0  0
 14 13  1  0  0  0  0
 15 27  1  0  0  0  0
 16  5  1  0  0  0  0
 17 16  1  0  0  0  0
 18  3  2  0  0  0  0
 19 18  1  0  0  0  0
 20 10  3  0  0  0  0
 20 15  1  0  0  0  0
 21 16  2  0  0  0  0
 21 18  1  0  0  0  0
 22 21  1  0  0  0  0
 23 24  1  0  0  0  0
 23 15  1  0  0  0  0
 25 23  1  0  0  0  0
 26 23  1  0  0  0  0
 27 29  1  0  0  0  0
 27 28  1  0  0  0  0
 27 30  1  0  0  0  0
 31 32  1  0  0  0  0
 31 15  1  0  0  0  0
 33 31  1  0  0  0  0
 34 31  1  0  0  0  0
M  END
