1,2
q = 0.0, confidence = 0.996

 24 25  0  0  1  0  0  0  0  0999 V2000
   -0.8509   -1.0400   -0.1879 N   0  0  0  0  0  2  0  0  0  0  0  0
   -0.0291    1.4919   -0.1448 N   0  0  0  0  0  2  0  0  0  0  0  0
   -6.0474   -2.5363    0.0566 N   0  0  0  0  0  0  0  0  0  0  0  0
   -1.1922   -2.3495   -0.2330 C   0  0  0  0  0  3  0  0  0  0  0  0
   -0.3639   -3.0670   -0.3180 H   0  0  0  0  0  0  0  0  0  0  0  0
   -2.5135   -2.7902   -0.1800 C   0  0  0  0  0  0  0  0  0  0  0  0
   -2.7414   -3.8637   -0.2223 H   0  0  0  0  0  0  0  0  0  0  0  0
   -3.5427   -1.8287   -0.0720 C   0  0  0  0  0  0  0  0  0  0  0  0
   -3.1879   -0.4661   -0.0305 C   0  0  0  0  0  0  0  0  0  0  0  0
   -3.9758    0.2929    0.0474 H   0  0  0  0  0  0  0  0  0  0  0  0
   -1.8361   -0.0950   -0.0922 C   0  0  0  0  0  0  0  0  0  0  0  0
   -1.3808    1.3115   -0.0750 C   0  0  2  0  0  3  0  0  0  0  0  0
   -2.2572    2.4072   -0.0102 C   0  0  0  0  0  0  0  0  0  0  0  0
   -3.3416    2.2415    0.0435 H   0  0  0  0  0  0  0  0  0  0  0  0
   -1.7677    3.7259   -0.0211 C   0  0  0  0  0  0  0  0  0  0  0  0
   -0.3665    3.8786   -0.0941 C   0  0  0  0  0  0  0  0  0  0  0  0
    0.0914    4.8785   -0.1083 H   0  0  0  0  0  0  0  0  0  0  0  0
    0.4567    2.7549   -0.1533 C   0  0  0  0  0  0  0  0  0  0  0  0
    1.5496    2.8561   -0.2149 H   0  0  0  0  0  0  0  0  0  0  0  0
   -4.9191   -2.2205   -0.0042 C   0  0  0  0  0  0  0  0  0  0  0  0
   -2.6831    4.9126    0.0243 C   0  0  0  0  0  0  0  0  0  0  0  0
   -2.6496    5.4607   -0.9408 H   0  0  0  0  0  0  0  0  0  0  0  0
   -2.3645    5.6307    0.8066 H   0  0  0  0  0  0  0  0  0  0  0  0
   -3.7328    4.6233    0.2162 H   0  0  0  0  0  0  0  0  0  0  0  0
  1 11  1  0  0  0  0
  2 12  1  0  0  0  0
  4  1  1  0  0  0  0
  4  6  1  0  0  0  0
  5  4  1  0  0  0  0
  6  8  2  0  0  0  0
  7  6  1  0  0  0  0
  8  9  1  0  0  0  0
  8 20  1  0  0  0  0
  9 10  1  0  0  0  0
 11  9  2  0  0  0  0
 12 11  1  6  0  0  0
 12 13  1  0  0  0  0
 13 14  1  0  0  0  0
 15 13  2  0  0  0  0
 15 21  1  0  0  0  0
 16 15  1  0  0  0  0
 17 16  1  0  0  0  0
 18  2  1  0  0  0  0
 18 16  2  0  0  0  0
 19 18  1  0  0  0  0
 20  3  3  0  0  0  0
 21 24  1  0  0  0  0
 21 23  1  0  0  0  0
 22 21  1  0  0  0  0
M  END
