35,36
q = 0.0, confidence = 0.968

 38 39  0  0  0  0  0  0  0  0999 V2000
   -3.1220    2.7308   -0.1006 C   0  0  0  0  0  0  0  0  0  0  0  0
   -4.1112    3.2012   -0.1270 H   0  0  0  0  0  0  0  0  0  0  0  0
   -2.8312    1.3776   -0.0635 C   0  0  0  0  0  0  0  0  0  0  0  0
   -0.7428    2.2408   -0.0771 C   0  0  0  0  0  0  0  0  0  0  0  0
    0.6869    2.1247   -0.1553 C   0  0  0  0  0  0  0  0  0  0  0  0
    2.6007    0.9326   -0.3159 C   0  0  0  0  0  0  0  0  0  0  0  0
    3.1000    2.2176   -0.4378 C   0  0  0  0  0  0  0  0  0  0  0  0
    4.1422    2.5248   -0.5703 H   0  0  0  0  0  0  0  0  0  0  0  0
   -3.8365    0.2753   -0.1898 C   0  0  0  0  0  0  0  0  0  0  0  0
   -4.8262    0.6469    0.1455 H   0  0  0  0  0  0  0  0  0  0  0  0
   -3.5555   -0.5492    0.4918 H   0  0  0  0  0  0  0  0  0  0  0  0
   -3.9349   -0.2308   -1.6450 C   0  0  0  0  0  0  0  0  0  0  0  0
   -4.2541    0.6198   -2.2851 H   0  0  0  0  0  0  0  0  0  0  0  0
   -2.9209   -0.5170   -1.9965 H   0  0  0  0  0  0  0  0  0  0  0  0
   -4.8906   -1.4150   -1.8398 C   0  0  0  0  0  0  0  0  0  0  0  0
   -5.8929   -1.1512   -1.4329 H   0  0  0  0  0  0  0  0  0  0  0  0
   -5.0388   -1.5569   -2.9318 H   0  0  0  0  0  0  0  0  0  0  0  0
   -4.4031   -2.7284   -1.2241 C   0  0  0  0  0  0  0  0  0  0  0  0
   -3.4008   -3.0009   -1.6156 H   0  0  0  0  0  0  0  0  0  0  0  0
   -5.0948   -3.5619   -1.4602 H   0  0  0  0  0  0  0  0  0  0  0  0
   -4.3179   -2.6758   -0.1207 H   0  0  0  0  0  0  0  0  0  0  0  0
    3.3969   -0.3352   -0.3410 C   0  0  0  0  0  0  0  0  0  0  0  0
    2.8813   -1.0456   -1.0228 H   0  0  0  0  0  0  0  0  0  0  0  0
    3.3293   -0.8023    0.6648 H   0  0  0  0  0  0  0  0  0  0  0  0
    4.8648   -0.1807   -0.7394 C   0  0  0  0  0  0  0  0  0  0  0  0
    4.9343    0.3138   -1.7342 H   0  0  0  0  0  0  0  0  0  0  0  0
    5.3783    0.4971   -0.0210 H   0  0  0  0  0  0  0  0  0  0  0  0
    5.6067   -1.5203   -0.7817 C   0  0  0  0  0  0  0  0  0  0  0  0
    5.0932   -2.1956   -1.5010 H   0  0  0  0  0  0  0  0  0  0  0  0
    5.5144   -2.0171    0.2090 H   0  0  0  0  0  0  0  0  0  0  0  0
    7.0810   -1.3832   -1.1604 C   0  0  0  0  0  0  0  0  0  0  0  0
    7.2000   -0.9215   -2.1630 H   0  0  0  0  0  0  0  0  0  0  0  0
    7.5891   -2.3678   -1.1845 H   0  0  0  0  0  0  0  0  0  0  0  0
    7.6269   -0.7437   -0.4356 H   0  0  0  0  0  0  0  0  0  0  0  0
   -1.4731    1.1191   -0.0301 N   0  0  0  0  0  2  0  0  0  0  0  0
    1.2275    0.8997   -0.1582 N   0  0  0  0  0  2  0  0  0  0  0  0
   -1.6849    3.6953   -0.1247 S   0  0  0  0  0  0  0  0  0  0  0  0
    1.8409    3.4032   -0.3512 S   0  0  0  0  0  0  0  0  0  0  0  0
  1  3  2  0  0  0  0
  2  1  1  0  0  0  0
  3 35  1  0  0  0  0
  4 35  1  0  0  0  0
  5  4  2  0  0  0  0
  6 36  1  0  0  0  0
  7 38  1  0  0  0  0
  7  6  2  0  0  0  0
  8  7  1  0  0  0  0
  9  3  1  0  0  0  0
  9 10  1  0  0  0  0
  9 11  1  0  0  0  0
 12  9  1  0  0  0  0
 13 12  1  0  0  0  0
 14 12  1  0  0  0  0
 15 12  1  0  0  0  0
 15 16  1  0  0  0  0
 15 18  1  0  0  0  0
 17 15  1  0  0  0  0
 18 21  1  0  0  0  0
 19 18  1  0  0  0  0
 20 18  1  0  0  0  0
 22  6  1  0  0  0  0
 22 24  1  0  0  0  0
 23 22  1  0  0  0  0
 25 22  1  0  0  0  0
 25 27  1  0  0  0  0
 26 25  1  0  0  0  0
 28 25  1  0  0  0  0
 28 30  1  0  0  0  0
 29 28  1  0  0  0  0
 31 28  1  0  0  0  0
 31 34  1  0  0  0  0
 32 31  1  0  0  0  0
 33 31  1  0  0  0  0
 36  5  1  0  0  0  0
 37  1  1  0  0  0  0
 37  4  1  0  0  0  0
 38  5  1  0  0  0  0
M  END
