5,6
q = 0.0, confidence = 0.924

 38 39  0  0  0  0  0  0  0  0999 V2000
   -4.8561    2.6427   -0.2337 Br  0  0  0  0  0  0  0  0  0  0  0  0
    4.8560    2.6429   -0.2338 Br  0  0  0  0  0  0  0  0  0  0  0  0
   -1.7488    3.0456   -0.1978 S   0  0  0  0  0  0  0  0  0  0  0  0
    1.7487    3.0456   -0.1979 S   0  0  0  0  0  0  0  0  0  0  0  0
   -1.3692    0.5291    0.3011 N   0  0  0  0  0  2  0  0  0  0  0  0
    1.3692    0.5292    0.3011 N   0  0  0  0  0  2  0  0  0  0  0  0
   -3.1214    1.9841   -0.0329 C   0  0  0  0  0  0  0  0  0  0  0  0
   -2.7409    0.6718    0.2310 C   0  0  0  0  0  0  0  0  0  0  0  0
   -0.7167    1.6783    0.0862 C   0  0  0  0  0  0  0  0  0  0  0  0
    0.7166    1.6783    0.0862 C   0  0  0  0  0  0  0  0  0  0  0  0
    2.7408    0.6719    0.2311 C   0  0  0  0  0  0  0  0  0  0  0  0
    3.1213    1.9842   -0.0330 C   0  0  0  0  0  0  0  0  0  0  0  0
   -3.6728   -0.4919    0.3187 C   0  0  0  0  0  0  0  0  0  0  0  0
   -4.6691   -0.1271    0.6418 H   0  0  0  0  0  0  0  0  0  0  0  0
   -3.3108   -1.1819    1.1060 H   0  0  0  0  0  0  0  0  0  0  0  0
   -3.7938   -1.2289   -1.0308 C   0  0  0  0  0  0  0  0  0  0  0  0
   -2.7797   -1.5307   -1.3732 H   0  0  0  0  0  0  0  0  0  0  0  0
   -4.1669   -0.5105   -1.7940 H   0  0  0  0  0  0  0  0  0  0  0  0
   -4.7193   -2.4456   -0.9648 C   0  0  0  0  0  0  0  0  0  0  0  0
   -4.3463   -3.1389   -0.1812 H   0  0  0  0  0  0  0  0  0  0  0  0
   -5.7324   -2.1226   -0.6350 H   0  0  0  0  0  0  0  0  0  0  0  0
   -4.8138   -3.1838   -2.3002 C   0  0  0  0  0  0  0  0  0  0  0  0
   -5.2035   -2.5232   -3.1029 H   0  0  0  0  0  0  0  0  0  0  0  0
   -5.4851   -4.0634   -2.2339 H   0  0  0  0  0  0  0  0  0  0  0  0
   -3.8161   -3.5448   -2.6247 H   0  0  0  0  0  0  0  0  0  0  0  0
    3.6728   -0.4917    0.3189 C   0  0  0  0  0  0  0  0  0  0  0  0
    3.3108   -1.1817    1.1062 H   0  0  0  0  0  0  0  0  0  0  0  0
    4.6691   -0.1269    0.6420 H   0  0  0  0  0  0  0  0  0  0  0  0
    3.7939   -1.2288   -1.0306 C   0  0  0  0  0  0  0  0  0  0  0  0
    4.1671   -0.5105   -1.7938 H   0  0  0  0  0  0  0  0  0  0  0  0
    2.7798   -1.5306   -1.3731 H   0  0  0  0  0  0  0  0  0  0  0  0
    4.7194   -2.4456   -0.9644 C   0  0  0  0  0  0  0  0  0  0  0  0
    5.7325   -2.1226   -0.6345 H   0  0  0  0  0  0  0  0  0  0  0  0
    4.3462   -3.1388   -0.1808 H   0  0  0  0  0  0  0  0  0  0  0  0
    4.8140   -3.1839   -2.2998 C   0  0  0  0  0  0  0  0  0  0  0  0
    3.8163   -3.5448   -2.6243 H   0  0  0  0  0  0  0  0  0  0  0  0
    5.4852   -4.0635   -2.2333 H   0  0  0  0  0  0  0  0  0  0  0  0
    5.2038   -2.5233   -3.1025 H   0  0  0  0  0  0  0  0  0  0  0  0
  1  7  1  0  0  0  0
  2 12  1  0  0  0  0
  3  7  1  0  0  0  0
  3  9  1  0  0  0  0
  4 12  1  0  0  0  0
  4 10  1  0  0  0  0
  7  8  2  0  0  0  0
  8  5  1  0  0  0  0
  8 13  1  0  0  0  0
  9  5  1  0  0  0  0
 10  9  2  0  0  0  0
 10  6  1  0  0  0  0
 11  6  1  0  0  0  0
 11 26  1  0  0  0  0
 12 11  2  0  0  0  0
 13 14  1  0  0  0  0
 13 15  1  0  0  0  0
 16 19  1  0  0  0  0
 16 13  1  0  0  0  0
 17 16  1  0  0  0  0
 18 16  1  0  0  0  0
 19 21  1  0  0  0  0
 19 20  1  0  0  0  0
 22 24  1  0  0  0  0
 22 19  1  0  0  0  0
 23 22  1  0  0  0  0
 25 22  1  0  0  0  0
 26 28  1  0  0  0  0
 26 27  1  0  0  0  0
 29 32  1  0  0  0  0
 29 26  1  0  0  0  0
 30 29  1  0  0  0  0
 31 29  1  0  0  0  0
 32 33  1  0  0  0  0
 32 34  1  0  0  0  0
 35 37  1  0  0  0  0
 35 32  1  0  0  0  0
 36 35  1  0  0  0  0
 38 35  1  0  0  0  0
M  END
