1,19
q = 0.0, confidence = 0.964

 58 62  0  0  0  0  0  0  0  0999 V2000
    1.2734   -0.4421   -0.0976 N   0  0  0  0  0  2  0  0  0  0  0  0
    2.6455   -0.8133   -0.1387 C   0  0  0  0  0  0  0  0  0  0  0  0
    3.3184   -0.7704   -1.3836 C   0  0  0  0  0  0  0  0  0  0  0  0
    4.6578   -1.1995   -1.4189 C   0  0  0  0  0  0  0  0  0  0  0  0
    5.1969   -1.1732   -2.3787 H   0  0  0  0  0  0  0  0  0  0  0  0
    5.3011   -1.6637   -0.2636 C   0  0  0  0  0  0  0  0  0  0  0  0
    6.3485   -1.9966   -0.3123 H   0  0  0  0  0  0  0  0  0  0  0  0
    4.6021   -1.7210    0.9511 C   0  0  0  0  0  0  0  0  0  0  0  0
    5.0991   -2.0999    1.8577 H   0  0  0  0  0  0  0  0  0  0  0  0
    3.2619   -1.3055    1.0395 C   0  0  0  0  0  0  0  0  0  0  0  0
    2.6027   -0.2809   -2.6128 C   0  0  0  0  0  0  0  0  0  0  0  0
    2.3529    0.7989   -2.5385 H   0  0  0  0  0  0  0  0  0  0  0  0
    1.6407   -0.8197   -2.7489 H   0  0  0  0  0  0  0  0  0  0  0  0
    3.2200   -0.4245   -3.5194 H   0  0  0  0  0  0  0  0  0  0  0  0
    2.4960   -1.3412    2.3326 C   0  0  0  0  0  0  0  0  0  0  0  0
    2.1762   -0.3237    2.6439 H   0  0  0  0  0  0  0  0  0  0  0  0
    3.1031   -1.7758    3.1486 H   0  0  0  0  0  0  0  0  0  0  0  0
    1.5638   -1.9389    2.2224 H   0  0  0  0  0  0  0  0  0  0  0  0
   -1.2916   -0.2200    0.0659 N   0  0  0  0  0  2  0  0  0  0  0  0
   -2.6923   -0.3944    0.1830 C   0  0  0  0  0  0  0  0  0  0  0  0
   -3.4400   -0.8411   -0.9352 C   0  0  0  0  0  0  0  0  0  0  0  0
   -4.8178   -1.0549   -0.7577 C   0  0  0  0  0  0  0  0  0  0  0  0
   -5.4142   -1.3936   -1.6191 H   0  0  0  0  0  0  0  0  0  0  0  0
   -5.4296   -0.8581    0.4882 C   0  0  0  0  0  0  0  0  0  0  0  0
   -6.5083   -1.0388    0.6074 H   0  0  0  0  0  0  0  0  0  0  0  0
   -4.6597   -0.4521    1.5864 C   0  0  0  0  0  0  0  0  0  0  0  0
   -5.1300   -0.3225    2.5737 H   0  0  0  0  0  0  0  0  0  0  0  0
   -3.2796   -0.2165    1.4600 C   0  0  0  0  0  0  0  0  0  0  0  0
   -2.7660   -1.0497   -2.2628 C   0  0  0  0  0  0  0  0  0  0  0  0
   -3.4968   -1.3349   -3.0427 H   0  0  0  0  0  0  0  0  0  0  0  0
   -2.0066   -1.8569   -2.1804 H   0  0  0  0  0  0  0  0  0  0  0  0
   -2.2332   -0.1365   -2.6039 H   0  0  0  0  0  0  0  0  0  0  0  0
   -2.4310    0.1963    2.6324 C   0  0  0  0  0  0  0  0  0  0  0  0
   -2.0310    1.2259    2.5128 H   0  0  0  0  0  0  0  0  0  0  0  0
   -1.5547   -0.4779    2.7374 H   0  0  0  0  0  0  0  0  0  0  0  0
   -3.0111    0.1672    3.5739 H   0  0  0  0  0  0  0  0  0  0  0  0
   -0.6564    0.9298   -0.0473 C   0  0  0  0  0  0  0  0  0  0  0  0
   -1.2584    2.2562   -0.2704 C   0  0  0  0  0  0  0  0  0  0  0  0
   -2.6258    2.4178   -0.6134 C   0  0  0  0  0  0  0  0  0  0  0  0
   -3.2764    1.5406   -0.6781 H   0  0  0  0  0  0  0  0  0  0  0  0
   -3.1667    3.6745   -0.8864 C   0  0  0  0  0  0  0  0  0  0  0  0
   -4.2297    3.7601   -1.1556 H   0  0  0  0  0  0  0  0  0  0  0  0
   -2.3482    4.8133   -0.8290 C   0  0  0  0  0  0  0  0  0  0  0  0
   -2.7578    5.8095   -1.0535 H   0  0  0  0  0  0  0  0  0  0  0  0
   -0.9995    4.6758   -0.4968 C   0  0  0  0  0  0  0  0  0  0  0  0
   -0.3715    5.5758   -0.4845 H   0  0  0  0  0  0  0  0  0  0  0  0
   -0.4258    3.4165   -0.2045 C   0  0  0  0  0  0  0  0  0  0  0  0
    0.9974    3.2993    0.1573 C   0  0  0  0  0  0  0  0  0  0  0  0
    1.7612    4.4549    0.4413 C   0  0  0  0  0  0  0  0  0  0  0  0
    1.2784    5.4402    0.4216 H   0  0  0  0  0  0  0  0  0  0  0  0
    3.1148    4.3870    0.7732 C   0  0  0  0  0  0  0  0  0  0  0  0
    3.6736    5.3093    0.9915 H   0  0  0  0  0  0  0  0  0  0  0  0
    3.7448    3.1350    0.8375 C   0  0  0  0  0  0  0  0  0  0  0  0
    4.8082    3.0540    1.1063 H   0  0  0  0  0  0  0  0  0  0  0  0
    3.0148    1.9759    0.5742 C   0  0  0  0  0  0  0  0  0  0  0  0
    3.5286    1.0146    0.6506 H   0  0  0  0  0  0  0  0  0  0  0  0
    1.6363    2.0179    0.2318 C   0  0  0  0  0  0  0  0  0  0  0  0
    0.8275    0.8070    0.0100 C   0  0  0  0  0  0  0  0  0  0  0  0
  1 58  1  0  0  0  0
  2  1  1  0  0  0  0
  2 10  1  0  0  0  0
  3  2  2  0  0  0  0
  4  3  1  0  0  0  0
  4  6  2  0  0  0  0
  5  4  1  0  0  0  0
  6  8  1  0  0  0  0
  7  6  1  0  0  0  0
  8 10  2  0  0  0  0
  8  9  1  0  0  0  0
 10 15  1  0  0  0  0
 11 12  1  0  0  0  0
 11  3  1  0  0  0  0
 13 11  1  0  0  0  0
 14 11  1  0  0  0  0
 15 16  1  0  0  0  0
 15 17  1  0  0  0  0
 18 15  1  0  0  0  0
 19 20  1  0  0  0  0
 20 28  1  0  0  0  0
 21 22  1  0  0  0  0
 21 20  2  0  0  0  0
 22 24  2  0  0  0  0
 23 22  1  0  0  0  0
 24 25  1  0  0  0  0
 24 26  1  0  0  0  0
 26 27  1  0  0  0  0
 28 26  2  0  0  0  0
 28 33  1  0  0  0  0
 29 31  1  0  0  0  0
 29 21  1  0  0  0  0
 30 29  1  0  0  0  0
 32 29  1  0  0  0  0
 33 35  1  0  0  0  0
 33 36  1  0  0  0  0
 34 33  1  0  0  0  0
 37 58  1  0  0  0  0
 37 19  1  0  0  0  0
 38 47  1  0  0  0  0
 38 37  2  0  0  0  0
 39 38  1  0  0  0  0
 40 39  1  0  0  0  0
 41 43  1  0  0  0  0
 41 39  2  0  0  0  0
 42 41  1  0  0  0  0
 43 45  2  0  0  0  0
 44 43  1  0  0  0  0
 45 46  1  0  0  0  0
 45 47  1  0  0  0  0
 47 48  2  0  0  0  0
 48 57  1  0  0  0  0
 48 49  1  0  0  0  0
 49 51  2  0  0  0  0
 50 49  1  0  0  0  0
 51 53  1  0  0  0  0
 51 52  1  0  0  0  0
 53 54  1  0  0  0  0
 55 56  1  0  0  0  0
 55 53  2  0  0  0  0
 57 55  1  0  0  0  0
 58 57  2  0  0  0  0
M  END
