6,16
q = 0.0, confidence = 0.992

 35 37  0  0  1  0  0  0  0  0999 V2000
   -1.7650   -2.0838    2.0192 C   0  0  0  0  0  0  0  0  0  0  0  0
   -2.2338   -1.4741    2.8149 H   0  0  0  0  0  0  0  0  0  0  0  0
   -1.0125   -2.7388    2.4965 H   0  0  0  0  0  0  0  0  0  0  0  0
   -2.5473   -2.7137    1.5521 H   0  0  0  0  0  0  0  0  0  0  0  0
   -1.0496   -1.1678    1.0107 C   0  0  1  0  0  0  0  0  0  0  0  0
    0.4565   -1.2901   -0.9400 N   0  0  0  0  0  2  0  0  0  0  0  0
   -0.3435   -1.9820   -0.0895 C   0  0  1  0  0  3  0  0  0  0  0  0
   -0.4878   -3.3700   -0.2340 C   0  0  0  0  0  0  0  0  0  0  0  0
   -1.1288   -3.9304    0.4565 H   0  0  0  0  0  0  0  0  0  0  0  0
    0.2095   -4.0421   -1.2464 C   0  0  0  0  0  0  0  0  0  0  0  0
    0.1028   -5.1312   -1.3610 H   0  0  0  0  0  0  0  0  0  0  0  0
    1.0517   -3.3107   -2.0922 C   0  0  0  0  0  0  0  0  0  0  0  0
    1.6316   -3.7939   -2.8909 H   0  0  0  0  0  0  0  0  0  0  0  0
    1.1532   -1.9297   -1.9057 C   0  0  0  0  0  0  0  0  0  0  0  0
    1.8214   -1.2891   -2.5008 H   0  0  0  0  0  0  0  0  0  0  0  0
   -1.4727    0.7293   -0.5069 N   0  0  0  0  0  2  0  0  0  0  0  0
   -2.0189   -0.1999    0.3218 C   0  0  1  0  0  3  0  0  0  0  0  0
   -3.4104   -0.2400    0.5090 C   0  0  0  0  0  0  0  0  0  0  0  0
   -3.8507   -0.9826    1.1850 H   0  0  0  0  0  0  0  0  0  0  0  0
   -4.2335    0.6763   -0.1602 C   0  0  0  0  0  0  0  0  0  0  0  0
   -5.3240    0.6463   -0.0177 H   0  0  0  0  0  0  0  0  0  0  0  0
   -3.6449    1.6297   -0.9998 C   0  0  0  0  0  0  0  0  0  0  0  0
   -4.2459    2.3750   -1.5394 H   0  0  0  0  0  0  0  0  0  0  0  0
   -2.2547    1.6306   -1.1438 C   0  0  0  0  0  0  0  0  0  0  0  0
   -1.7121    2.3772   -1.7432 H   0  0  0  0  0  0  0  0  0  0  0  0
    1.1300   -1.1532    2.0808 N   0  0  0  0  0  0  0  0  0  0  0  0
    0.0419   -0.4131    1.8143 C   0  0  0  0  0  0  0  0  0  0  0  0
   -0.1310    0.8950    2.3031 C   0  0  0  0  0  0  0  0  0  0  0  0
   -1.0384    1.4718    2.0776 H   0  0  0  0  0  0  0  0  0  0  0  0
    0.9125    1.4717    3.0381 C   0  0  0  0  0  0  0  0  0  0  0  0
    0.8252    2.5067    3.3998 H   0  0  0  0  0  0  0  0  0  0  0  0
    2.0745    0.7236    3.2697 C   0  0  0  0  0  0  0  0  0  0  0  0
    2.9280    1.1480    3.8179 H   0  0  0  0  0  0  0  0  0  0  0  0
    2.1260   -0.5903    2.7797 C   0  0  0  0  0  0  0  0  0  0  0  0
    3.0157   -1.2197    2.9562 H   0  0  0  0  0  0  0  0  0  0  0  0
  1  3  1  0  0  0  0
  1  2  1  0  0  0  0
  4  1  1  0  0  0  0
  5 27  1  0  0  0  0
  5  1  1  1  0  0  0
  6  7  1  0  0  0  0
  7  5  1  1  0  0  0
  8  7  1  0  0  0  0
  8  9  1  0  0  0  0
 10  8  2  0  0  0  0
 11 10  1  0  0  0  0
 12 14  2  0  0  0  0
 12 10  1  0  0  0  0
 13 12  1  0  0  0  0
 14  6  1  0  0  0  0
 15 14  1  0  0  0  0
 16 17  1  0  0  0  0
 17 18  1  0  0  0  0
 17  5  1  6  0  0  0
 18 19  1  0  0  0  0
 20 21  1  0  0  0  0
 20 18  2  0  0  0  0
 22 20  1  0  0  0  0
 23 22  1  0  0  0  0
 24 22  2  0  0  0  0
 24 16  1  0  0  0  0
 25 24  1  0  0  0  0
 26 34  1  0  0  0  0
 27 26  2  0  0  0  0
 27 28  1  0  0  0  0
 28 30  2  0  0  0  0
 29 28  1  0  0  0  0
 30 32  1  0  0  0  0
 30 31  1  0  0  0  0
 32 33  1  0  0  0  0
 34 35  1  0  0  0  0
 34 32  2  0  0  0  0
M  END
