3,4
q = -2.0, confidence = 0.7

 74 74  0  0  0  0  0  0  0  0999 V2000
   -3.0086   -0.2615    0.3143 Si  0  0  0  0  0  0  0  0  0  0  0  0
    3.0167   -0.2640    0.3372 Si  0  0  0  0  0  0  0  0  0  0  0  0
    1.3579    0.3376   -0.0330 N   0  0  0  0  0  2  0  0  0  0  0  0
   -1.3444    0.3375   -0.0360 N   0  0  0  0  0  2  0  0  0  0  0  0
   -1.3997    2.7893    0.4380 C   0  0  0  0  0  0  0  0  0  0  0  0
   -0.7010    3.9656    0.6937 C   0  0  0  0  0  0  0  0  0  0  0  0
    0.7108    3.9626    0.7124 C   0  0  0  0  0  0  0  0  0  0  0  0
    1.4119    2.7848    0.4699 C   0  0  0  0  0  0  0  0  0  0  0  0
    0.7322    1.5541    0.2689 C   0  0  0  0  0  0  0  0  0  0  0  0
   -0.7189    1.5556    0.2601 C   0  0  0  0  0  0  0  0  0  0  0  0
   -4.0721    0.0665   -1.2425 C   0  0  0  0  0  0  0  0  0  0  0  0
   -4.2327    1.5625   -1.5539 C   0  0  0  0  0  0  0  0  0  0  0  0
   -3.5235   -0.6833   -2.4678 C   0  0  0  0  0  0  0  0  0  0  0  0
   -3.7169    0.6662    1.8364 C   0  0  0  0  0  0  0  0  0  0  0  0
   -5.0575    0.0495    2.2744 C   0  0  0  0  0  0  0  0  0  0  0  0
   -2.7441    0.7955    3.0198 C   0  0  0  0  0  0  0  0  0  0  0  0
   -2.8078   -2.1440    0.5709 C   0  0  0  0  0  0  0  0  0  0  0  0
   -4.1174   -2.9378    0.4333 C   0  0  0  0  0  0  0  0  0  0  0  0
   -2.0624   -2.4985    1.8667 C   0  0  0  0  0  0  0  0  0  0  0  0
    2.8339   -2.1612    0.4536 C   0  0  0  0  0  0  0  0  0  0  0  0
    1.9411   -2.6179    1.6162 C   0  0  0  0  0  0  0  0  0  0  0  0
    4.1699   -2.9213    0.4219 C   0  0  0  0  0  0  0  0  0  0  0  0
    3.6321    0.5837    1.9429 C   0  0  0  0  0  0  0  0  0  0  0  0
    2.5893    0.6198    3.0719 C   0  0  0  0  0  0  0  0  0  0  0  0
    4.9613   -0.0260    2.4222 C   0  0  0  0  0  0  0  0  0  0  0  0
    4.1427    0.1572   -1.1532 C   0  0  0  0  0  0  0  0  0  0  0  0
    3.6609   -0.5493   -2.4315 C   0  0  0  0  0  0  0  0  0  0  0  0
    4.2975    1.6660   -1.3962 C   0  0  0  0  0  0  0  0  0  0  0  0
   -2.4958    2.7972    0.3874 H   0  0  0  0  0  0  0  0  0  0  0  0
   -1.2537    4.9007    0.8675 H   0  0  0  0  0  0  0  0  0  0  0  0
    1.2625    4.8951    0.9031 H   0  0  0  0  0  0  0  0  0  0  0  0
    2.5086    2.7907    0.4455 H   0  0  0  0  0  0  0  0  0  0  0  0
   -5.0759   -0.3522   -0.9958 H   0  0  0  0  0  0  0  0  0  0  0  0
   -4.9017    1.7180   -2.4274 H   0  0  0  0  0  0  0  0  0  0  0  0
   -4.6651    2.1325   -0.7057 H   0  0  0  0  0  0  0  0  0  0  0  0
   -3.2542    2.0196   -1.8108 H   0  0  0  0  0  0  0  0  0  0  0  0
   -4.1972   -0.5603   -3.3429 H   0  0  0  0  0  0  0  0  0  0  0  0
   -2.5359   -0.2765   -2.7747 H   0  0  0  0  0  0  0  0  0  0  0  0
   -3.3974   -1.7703   -2.2939 H   0  0  0  0  0  0  0  0  0  0  0  0
   -3.9359    1.6931    1.4662 H   0  0  0  0  0  0  0  0  0  0  0  0
   -5.5398    0.6706    3.0595 H   0  0  0  0  0  0  0  0  0  0  0  0
   -5.7796   -0.0433    1.4370 H   0  0  0  0  0  0  0  0  0  0  0  0
   -4.9166   -0.9630    2.7057 H   0  0  0  0  0  0  0  0  0  0  0  0
   -3.1924    1.4118    3.8288 H   0  0  0  0  0  0  0  0  0  0  0  0
   -2.5027   -0.1927    3.4589 H   0  0  0  0  0  0  0  0  0  0  0  0
   -1.7879    1.2737    2.7297 H   0  0  0  0  0  0  0  0  0  0  0  0
   -2.1478   -2.4383   -0.2754 H   0  0  0  0  0  0  0  0  0  0  0  0
   -3.9193   -4.0299    0.4914 H   0  0  0  0  0  0  0  0  0  0  0  0
   -4.8380   -2.6972    1.2415 H   0  0  0  0  0  0  0  0  0  0  0  0
   -4.6282   -2.7495   -0.5324 H   0  0  0  0  0  0  0  0  0  0  0  0
   -1.7628   -3.5685    1.8737 H   0  0  0  0  0  0  0  0  0  0  0  0
   -1.1406   -1.8959    1.9940 H   0  0  0  0  0  0  0  0  0  0  0  0
   -2.6972   -2.3328    2.7621 H   0  0  0  0  0  0  0  0  0  0  0  0
    2.2897   -2.4084   -0.4852 H   0  0  0  0  0  0  0  0  0  0  0  0
    1.6912   -3.6967    1.5256 H   0  0  0  0  0  0  0  0  0  0  0  0
    2.4410   -2.4797    2.5976 H   0  0  0  0  0  0  0  0  0  0  0  0
    0.9843   -2.0595    1.6425 H   0  0  0  0  0  0  0  0  0  0  0  0
    3.9932   -4.0170    0.3652 H   0  0  0  0  0  0  0  0  0  0  0  0
    4.7951   -2.6455   -0.4514 H   0  0  0  0  0  0  0  0  0  0  0  0
    4.7753   -2.7389    1.3329 H   0  0  0  0  0  0  0  0  0  0  0  0
    3.8430    1.6355    1.6448 H   0  0  0  0  0  0  0  0  0  0  0  0
    2.9768    1.1872    3.9456 H   0  0  0  0  0  0  0  0  0  0  0  0
    1.6429    1.1014    2.7560 H   0  0  0  0  0  0  0  0  0  0  0  0
    2.3407   -0.3996    3.4292 H   0  0  0  0  0  0  0  0  0  0  0  0
    5.3873    0.5661    3.2606 H   0  0  0  0  0  0  0  0  0  0  0  0
    4.8206   -1.0606    2.7972 H   0  0  0  0  0  0  0  0  0  0  0  0
    5.7284   -0.0640    1.6215 H   0  0  0  0  0  0  0  0  0  0  0  0
    5.1412   -0.2573   -0.8790 H   0  0  0  0  0  0  0  0  0  0  0  0
    4.3536   -0.3540   -3.2781 H   0  0  0  0  0  0  0  0  0  0  0  0
    3.5804   -1.6484   -2.3150 H   0  0  0  0  0  0  0  0  0  0  0  0
    2.6645   -0.1708   -2.7461 H   0  0  0  0  0  0  0  0  0  0  0  0
    5.0143    1.8642   -2.2218 H   0  0  0  0  0  0  0  0  0  0  0  0
    3.3292    2.1204   -1.6926 H   0  0  0  0  0  0  0  0  0  0  0  0
    4.6714    2.2075   -0.5025 H   0  0  0  0  0  0  0  0  0  0  0  0
  1 17  1  0  0  0  0
  1 14  1  0  0  0  0
  2 20  1  0  0  0  0
  2 23  1  0  0  0  0
  3  9  1  0  0  0  0
  3  2  1  0  0  0  0
  4 10  1  0  0  0  0
  4  1  1  0  0  0  0
  5  6  1  0  0  0  0
  6  7  2  0  0  0  0
  6 30  1  0  0  0  0
  7 31  1  0  0  0  0
  8  7  1  0  0  0  0
  9  8  2  0  0  0  0
 10  9  1  0  0  0  0
 10  5  2  0  0  0  0
 11 33  1  0  0  0  0
 11  1  1  0  0  0  0
 12 11  1  0  0  0  0
 12 35  1  0  0  0  0
 13 39  1  0  0  0  0
 13 11  1  0  0  0  0
 14 15  1  0  0  0  0
 14 16  1  0  0  0  0
 15 43  1  0  0  0  0
 15 41  1  0  0  0  0
 16 45  1  0  0  0  0
 16 44  1  0  0  0  0
 17 19  1  0  0  0  0
 18 48  1  0  0  0  0
 18 17  1  0  0  0  0
 18 49  1  0  0  0  0
 19 51  1  0  0  0  0
 19 52  1  0  0  0  0
 19 53  1  0  0  0  0
 20 21  1  0  0  0  0
 21 57  1  0  0  0  0
 21 56  1  0  0  0  0
 22 20  1  0  0  0  0
 22 60  1  0  0  0  0
 23 25  1  0  0  0  0
 23 24  1  0  0  0  0
 24 64  1  0  0  0  0
 24 62  1  0  0  0  0
 25 66  1  0  0  0  0
 25 65  1  0  0  0  0
 26 68  1  0  0  0  0
 26  2  1  0  0  0  0
 27 70  1  0  0  0  0
 27 26  1  0  0  0  0
 28 26  1  0  0  0  0
 28 74  1  0  0  0  0
 29  5  1  0  0  0  0
 32  8  1  0  0  0  0
 34 12  1  0  0  0  0
 36 12  1  0  0  0  0
 37 13  1  0  0  0  0
 38 13  1  0  0  0  0
 40 14  1  0  0  0  0
 42 15  1  0  0  0  0
 46 16  1  0  0  0  0
 47 17  1  0  0  0  0
 50 18  1  0  0  0  0
 54 20  1  0  0  0  0
 55 21  1  0  0  0  0
 58 22  1  0  0  0  0
 59 22  1  0  0  0  0
 61 23  1  0  0  0  0
 63 24  1  0  0  0  0
 67 25  1  0  0  0  0
 69 27  1  0  0  0  0
 71 27  1  0  0  0  0
 72 28  1  0  0  0  0
 73 28  1  0  0  0  0
M  END
