1,16
q = -1.0, confidence = 0.002

 27 27  0  0  1  0  0  0  0  0999 V2000
    1.9880   -0.9445   -0.3989 N   0  0  0  0  0  2  0  0  0  0  0  0
    3.4289   -0.5527   -1.3546 Si  0  0  0  0  0  0  0  0  0  0  0  0
    4.9985   -0.8292   -0.3246 C   0  0  0  0  0  0  0  0  0  0  0  0
    5.2518   -1.8994   -0.1866 H   0  0  0  0  0  0  0  0  0  0  0  0
    4.8945   -0.3676    0.6792 H   0  0  0  0  0  0  0  0  0  0  0  0
    5.8612   -0.3473   -0.8303 H   0  0  0  0  0  0  0  0  0  0  0  0
    3.3110    1.2858   -1.7636 C   0  0  0  0  0  0  0  0  0  0  0  0
    3.3522    1.8978   -0.8388 H   0  0  0  0  0  0  0  0  0  0  0  0
    2.3631    1.5135   -2.2908 H   0  0  0  0  0  0  0  0  0  0  0  0
    4.1529    1.5935   -2.4173 H   0  0  0  0  0  0  0  0  0  0  0  0
    3.4649   -1.6057   -2.9193 C   0  0  0  0  0  0  0  0  0  0  0  0
    3.4866   -2.6864   -2.6697 H   0  0  0  0  0  0  0  0  0  0  0  0
    4.3510   -1.3776   -3.5470 H   0  0  0  0  0  0  0  0  0  0  0  0
    2.5499   -1.4077   -3.5131 H   0  0  0  0  0  0  0  0  0  0  0  0
    1.7893   -1.8610    0.5786 C   0  0  1  0  0  3  0  0  0  0  0  0
    0.6041   -1.6298    1.2322 N   0  0  0  0  0  2  0  0  0  0  0  0
    0.1696   -2.4445    2.2039 C   0  0  0  0  0  0  0  0  0  0  0  0
    0.9099   -3.5469    2.6263 C   0  0  0  0  0  0  0  0  0  0  0  0
    2.1474   -3.8274    1.9831 C   0  0  0  0  0  0  0  0  0  0  0  0
    2.5814   -2.9864    0.9553 C   0  0  0  0  0  0  0  0  0  0  0  0
    3.5180   -3.1952    0.4208 H   0  0  0  0  0  0  0  0  0  0  0  0
    2.9606   -5.0225    2.4061 C   0  0  0  0  0  0  0  0  0  0  0  0
    3.2471   -4.9459    3.4758 H   0  0  0  0  0  0  0  0  0  0  0  0
    3.8854   -5.1265    1.8076 H   0  0  0  0  0  0  0  0  0  0  0  0
    2.3723   -5.9578    2.3014 H   0  0  0  0  0  0  0  0  0  0  0  0
    0.5378   -4.1882    3.4378 H   0  0  0  0  0  0  0  0  0  0  0  0
   -0.8051   -2.1879    2.6524 H   0  0  0  0  0  0  0  0  0  0  0  0
  2  1  1  0  0  0  0
  2  3  1  0  0  0  0
  3  4  1  0  0  0  0
  3  5  1  0  0  0  0
  6  3  1  0  0  0  0
  7  2  1  0  0  0  0
  7  8  1  0  0  0  0
  9  7  1  0  0  0  0
 10  7  1  0  0  0  0
 11 12  1  0  0  0  0
 11  2  1  0  0  0  0
 13 11  1  0  0  0  0
 14 11  1  0  0  0  0
 15  1  1  6  0  0  0
 15 20  1  0  0  0  0
 15 16  1  0  0  0  0
 16 17  1  0  0  0  0
 17 18  2  0  0  0  0
 17 27  1  0  0  0  0
 18 26  1  0  0  0  0
 19 22  1  0  0  0  0
 19 18  1  0  0  0  0
 20 19  2  0  0  0  0
 21 20  1  0  0  0  0
 22 23  1  0  0  0  0
 24 22  1  0  0  0  0
 25 22  1  0  0  0  0
M  END
