11,12
q = 0.0, confidence = 0.99

 25 25  0  0  0  0  0  0  0  0999 V2000
   -0.4225    1.8642   -0.1795 C   0  0  0  0  0  0  0  0  0  0  0  0
   -1.1588    3.0350   -0.4452 C   0  0  0  0  0  0  0  0  0  0  0  0
   -2.5585    2.9816   -0.4051 C   0  0  0  0  0  0  0  0  0  0  0  0
   -3.1718    1.7761   -0.0482 C   0  0  0  0  0  0  0  0  0  0  0  0
   -2.3740    0.6485    0.2307 C   0  0  0  0  0  0  0  0  0  0  0  0
    1.0345    1.8371   -0.1825 C   0  0  0  0  0  0  0  0  0  0  0  0
   -3.0480   -0.5858    0.7798 C   0  0  0  0  0  0  0  0  0  0  0  0
    3.1198    0.6498    0.1152 C   0  0  0  0  0  0  0  0  0  0  0  0
    3.8685    1.8686   -0.4240 C   0  0  0  0  0  0  0  0  0  0  0  0
    3.4370    0.3817    1.5940 C   0  0  0  0  0  0  0  0  0  0  0  0
   -1.0298    0.6792    0.1205 N   0  0  0  0  0  2  0  0  0  0  0  0
    1.6526    0.6975   -0.0303 N   0  0  0  0  0  2  0  0  0  0  0  0
   -4.2607   -0.7083    0.7540 O   0  0  0  0  0  0  0  0  0  0  0  0
   -0.6283    3.9674   -0.6884 H   0  0  0  0  0  0  0  0  0  0  0  0
   -3.1590    3.8754   -0.6305 H   0  0  0  0  0  0  0  0  0  0  0  0
   -4.2612    1.6598    0.0497 H   0  0  0  0  0  0  0  0  0  0  0  0
    1.5827    2.7890   -0.2880 H   0  0  0  0  0  0  0  0  0  0  0  0
   -2.3596   -1.3261    1.2596 H   0  0  0  0  0  0  0  0  0  0  0  0
    3.4353   -0.2406   -0.4648 H   0  0  0  0  0  0  0  0  0  0  0  0
    3.6003    2.0833   -1.4780 H   0  0  0  0  0  0  0  0  0  0  0  0
    3.6883    2.7805    0.1820 H   0  0  0  0  0  0  0  0  0  0  0  0
    4.9568    1.6678   -0.3882 H   0  0  0  0  0  0  0  0  0  0  0  0
    3.1497    1.2544    2.2159 H   0  0  0  0  0  0  0  0  0  0  0  0
    2.8820   -0.5025    1.9614 H   0  0  0  0  0  0  0  0  0  0  0  0
    4.5219    0.1999    1.7235 H   0  0  0  0  0  0  0  0  0  0  0  0
  1 11  1  0  0  0  0
  2  3  2  0  0  0  0
  2  1  1  0  0  0  0
  3  4  1  0  0  0  0
  4 16  1  0  0  0  0
  4  5  2  0  0  0  0
  5  7  1  0  0  0  0
  6  1  2  0  0  0  0
  6 12  1  0  0  0  0
  7 18  1  0  0  0  0
  8 10  1  0  0  0  0
  9 22  1  0  0  0  0
  9  8  1  0  0  0  0
  9 21  1  0  0  0  0
 10 25  1  0  0  0  0
 10 24  1  0  0  0  0
 10 23  1  0  0  0  0
 11  5  1  0  0  0  0
 12  8  1  0  0  0  0
 13  7  2  0  0  0  0
 14  2  1  0  0  0  0
 15  3  1  0  0  0  0
 17  6  1  0  0  0  0
 19  8  1  0  0  0  0
 20  9  1  0  0  0  0
M  END
