1,18
q = 0.0, confidence = 0.996

 56 58  0  0  1  0  0  0  0  0999 V2000
    1.5213    0.3981    0.8413 N   0  0  0  0  0  2  0  0  0  0  0  0
    2.9118    0.8917    0.7602 C   0  0  1  0  0  0  0  0  0  0  0  0
    3.0432    2.3788    1.2050 C   0  0  0  0  0  0  0  0  0  0  0  0
    2.4570    2.5782    2.6122 C   0  0  0  0  0  0  0  0  0  0  0  0
    2.2906    3.2551    0.1887 C   0  0  0  0  0  0  0  0  0  0  0  0
    4.5340    2.7630    1.1851 C   0  0  0  0  0  0  0  0  0  0  0  0
    3.6623   -0.1627    1.6105 C   0  0  0  0  0  0  0  0  0  0  0  0
    2.6142   -0.9090    2.2944 O   0  0  0  0  0  0  0  0  0  0  0  0
    1.4694   -0.5839    1.6994 C   0  0  0  0  0  0  0  0  0  0  0  0
    0.2787   -1.4114    2.0234 C   0  0  0  0  0  0  0  0  0  0  0  0
   -1.0503   -0.9281    2.0962 C   0  0  0  0  0  0  0  0  0  0  0  0
   -2.0688   -1.7394    2.4102 N   0  0  0  0  0  0  0  0  0  0  0  0
   -1.8179   -3.0432    2.5784 C   0  0  0  0  0  0  0  0  0  0  0  0
   -0.4770   -3.5349    2.5129 C   0  0  0  0  0  0  0  0  0  0  0  0
    0.5420   -2.7033    2.2725 N   0  0  0  0  0  0  0  0  0  0  0  0
   -2.1060    1.0942    2.8766 O   0  0  0  0  0  0  0  0  0  0  0  0
   -1.6392    2.5941    1.0817 C   0  0  2  0  0  0  0  0  0  0  0  0
   -1.1743    1.2049    0.8356 N   0  0  0  0  0  2  0  0  0  0  0  0
   -2.4651    2.4140    2.3793 C   0  0  0  0  0  0  0  0  0  0  0  0
   -1.4336    0.4919    1.8903 C   0  0  0  0  0  0  0  0  0  0  0  0
   -2.3969    3.2942   -0.0808 C   0  0  0  0  0  0  0  0  0  0  0  0
   -3.5699    2.4390   -0.5821 C   0  0  0  0  0  0  0  0  0  0  0  0
   -0.1611   -4.9874    2.7142 C   0  0  0  0  0  0  0  0  0  0  0  0
   -1.4254    3.5739   -1.2418 C   0  0  0  0  0  0  0  0  0  0  0  0
   -2.9803   -3.9532    2.8383 C   0  0  0  0  0  0  0  0  0  0  0  0
   -2.9112    4.6423    0.4664 C   0  0  0  0  0  0  0  0  0  0  0  0
    3.2389    0.8288   -0.2966 H   0  0  0  0  0  0  0  0  0  0  0  0
    2.5718    3.6324    2.9353 H   0  0  0  0  0  0  0  0  0  0  0  0
    1.3758    2.3319    2.6309 H   0  0  0  0  0  0  0  0  0  0  0  0
    2.9617    1.9432    3.3694 H   0  0  0  0  0  0  0  0  0  0  0  0
    2.3403    4.3238    0.4806 H   0  0  0  0  0  0  0  0  0  0  0  0
    2.7260    3.1552   -0.8261 H   0  0  0  0  0  0  0  0  0  0  0  0
    1.2257    2.9612    0.1136 H   0  0  0  0  0  0  0  0  0  0  0  0
    4.6523    3.8440    1.4007 H   0  0  0  0  0  0  0  0  0  0  0  0
    4.9852    2.5663    0.1907 H   0  0  0  0  0  0  0  0  0  0  0  0
    5.1240    2.2114    1.9450 H   0  0  0  0  0  0  0  0  0  0  0  0
    4.2169   -0.8843    0.9800 H   0  0  0  0  0  0  0  0  0  0  0  0
    4.3301    0.2590    2.3839 H   0  0  0  0  0  0  0  0  0  0  0  0
   -0.7266    3.1998    1.2869 H   0  0  0  0  0  0  0  0  0  0  0  0
   -3.5579    2.4075    2.1907 H   0  0  0  0  0  0  0  0  0  0  0  0
   -2.2327    3.1504    3.1694 H   0  0  0  0  0  0  0  0  0  0  0  0
   -4.1415    2.9978   -1.3497 H   0  0  0  0  0  0  0  0  0  0  0  0
   -3.2078    1.5086   -1.0531 H   0  0  0  0  0  0  0  0  0  0  0  0
   -4.2831    2.1749    0.2258 H   0  0  0  0  0  0  0  0  0  0  0  0
    0.9308   -5.1404    2.6501 H   0  0  0  0  0  0  0  0  0  0  0  0
   -0.6572   -5.6071    1.9381 H   0  0  0  0  0  0  0  0  0  0  0  0
   -0.5280   -5.3524    3.6961 H   0  0  0  0  0  0  0  0  0  0  0  0
   -1.9558    4.1086   -2.0552 H   0  0  0  0  0  0  0  0  0  0  0  0
   -1.0173    2.6384   -1.6716 H   0  0  0  0  0  0  0  0  0  0  0  0
   -0.5791    4.2123   -0.9145 H   0  0  0  0  0  0  0  0  0  0  0  0
   -2.8433   -4.5371    3.7720 H   0  0  0  0  0  0  0  0  0  0  0  0
   -3.0882   -4.6894    2.0139 H   0  0  0  0  0  0  0  0  0  0  0  0
   -3.9090   -3.3596    2.9076 H   0  0  0  0  0  0  0  0  0  0  0  0
   -3.3821    5.2240   -0.3508 H   0  0  0  0  0  0  0  0  0  0  0  0
   -2.0842    5.2569    0.8806 H   0  0  0  0  0  0  0  0  0  0  0  0
   -3.6782    4.5148    1.2581 H   0  0  0  0  0  0  0  0  0  0  0  0
  1  9  1  0  0  0  0
  2 27  1  6  0  0  0
  2  1  1  0  0  0  0
  2  3  1  0  0  0  0
  2  7  1  0  0  0  0
  3  4  1  0  0  0  0
  4 29  1  0  0  0  0
  4 28  1  0  0  0  0
  4 30  1  0  0  0  0
  5 31  1  0  0  0  0
  5  3  1  0  0  0  0
  6  3  1  0  0  0  0
  6 34  1  0  0  0  0
  6 36  1  0  0  0  0
  7  8  1  0  0  0  0
  7 38  1  0  0  0  0
  9 10  2  0  0  0  0
  9  8  1  0  0  0  0
 10 11  1  0  0  0  0
 10 15  1  0  0  0  0
 11 12  1  0  0  0  0
 12 13  2  0  0  0  0
 13 25  1  0  0  0  0
 14 13  1  0  0  0  0
 14 23  1  0  0  0  0
 15 14  2  0  0  0  0
 17 39  1  1  0  0  0
 17 19  1  0  0  0  0
 18 17  1  0  0  0  0
 18 20  1  0  0  0  0
 19 16  1  0  0  0  0
 19 41  1  0  0  0  0
 20 11  2  0  0  0  0
 20 16  1  0  0  0  0
 21 26  1  0  0  0  0
 21 17  1  0  0  0  0
 22 21  1  0  0  0  0
 22 44  1  0  0  0  0
 23 47  1  0  0  0  0
 24 50  1  0  0  0  0
 24 21  1  0  0  0  0
 25 53  1  0  0  0  0
 25 51  1  0  0  0  0
 26 55  1  0  0  0  0
 26 56  1  0  0  0  0
 32  5  1  0  0  0  0
 33  5  1  0  0  0  0
 35  6  1  0  0  0  0
 37  7  1  0  0  0  0
 40 19  1  0  0  0  0
 42 22  1  0  0  0  0
 43 22  1  0  0  0  0
 45 23  1  0  0  0  0
 46 23  1  0  0  0  0
 48 24  1  0  0  0  0
 49 24  1  0  0  0  0
 52 25  1  0  0  0  0
 54 26  1  0  0  0  0
M  END
