1,2,3,4,5
q = -2.0, confidence = 0.894

 47 47  0  0  0  0  0  0  0  0999 V2000
   -0.8199    0.8029   -2.3116 S   0  0  0  0  0  0  0  0  0  0  0  0
   -1.1398   -1.1986    1.9010 S   0  0  0  0  0  1  0  0  0  0  0  0
   -1.2799    2.1434    0.8182 S   0  0  0  0  0  1  0  0  0  0  0  0
   -3.0954   -0.0040   -0.3797 N   0  0  0  0  0  0  0  0  0  0  0  0
   -1.1339   -1.9999   -1.0504 N   0  0  0  0  0  0  0  0  0  0  0  0
   -2.5397    1.4669   -2.3949 C   0  0  0  0  0  0  0  0  0  0  0  0
   -2.4051    2.4287   -1.8584 H   0  0  0  0  0  0  0  0  0  0  0  0
   -2.8444    1.6719   -3.4417 H   0  0  0  0  0  0  0  0  0  0  0  0
   -3.5494    0.5732   -1.6894 C   0  0  0  0  0  0  0  0  0  0  0  0
   -4.4952    1.1349   -1.5280 H   0  0  0  0  0  0  0  0  0  0  0  0
   -3.8088   -0.2691   -2.3619 H   0  0  0  0  0  0  0  0  0  0  0  0
   -3.4692   -1.4401   -0.2981 C   0  0  0  0  0  0  0  0  0  0  0  0
   -4.5476   -1.5949   -0.5394 H   0  0  0  0  0  0  0  0  0  0  0  0
   -3.2854   -1.7308    0.7552 H   0  0  0  0  0  0  0  0  0  0  0  0
   -2.5999   -2.2836   -1.2111 C   0  0  0  0  0  0  0  0  0  0  0  0
   -2.8697   -2.1010   -2.2693 H   0  0  0  0  0  0  0  0  0  0  0  0
   -2.7966   -3.3619   -1.0296 H   0  0  0  0  0  0  0  0  0  0  0  0
   -0.5004   -1.9937   -2.4017 C   0  0  0  0  0  0  0  0  0  0  0  0
   -0.7303   -2.9455   -2.9396 H   0  0  0  0  0  0  0  0  0  0  0  0
    0.5928   -1.9598   -2.2521 H   0  0  0  0  0  0  0  0  0  0  0  0
   -0.9337   -0.8118   -3.2673 C   0  0  0  0  0  0  0  0  0  0  0  0
   -1.9681   -0.9088   -3.6537 H   0  0  0  0  0  0  0  0  0  0  0  0
   -0.2595   -0.7287   -4.1420 H   0  0  0  0  0  0  0  0  0  0  0  0
   -3.6725    0.6809    0.8186 C   0  0  0  0  0  0  0  0  0  0  0  0
   -3.4378   -0.0062    1.6551 H   0  0  0  0  0  0  0  0  0  0  0  0
   -4.7836    0.7284    0.7055 H   0  0  0  0  0  0  0  0  0  0  0  0
   -3.1173    2.0615    1.1953 C   0  0  0  0  0  0  0  0  0  0  0  0
   -0.7807   -2.9585    1.3400 C   0  0  0  0  0  0  0  0  0  0  0  0
   -0.4579   -3.0000   -0.1728 C   0  0  0  0  0  0  0  0  0  0  0  0
    0.6192   -2.8062   -0.3054 H   0  0  0  0  0  0  0  0  0  0  0  0
   -0.6556   -4.0281   -0.5680 H   0  0  0  0  0  0  0  0  0  0  0  0
   -1.9492   -3.8819    1.7289 C   0  0  0  0  0  0  0  0  0  0  0  0
   -1.6989   -4.9465    1.5226 H   0  0  0  0  0  0  0  0  0  0  0  0
   -2.8902   -3.6478    1.1961 H   0  0  0  0  0  0  0  0  0  0  0  0
   -2.1562   -3.7841    2.8127 H   0  0  0  0  0  0  0  0  0  0  0  0
    0.4744   -3.4362    2.0948 C   0  0  0  0  0  0  0  0  0  0  0  0
    0.2654   -3.4909    3.1809 H   0  0  0  0  0  0  0  0  0  0  0  0
    1.3084   -2.7200    1.9631 H   0  0  0  0  0  0  0  0  0  0  0  0
    0.7995   -4.4459    1.7545 H   0  0  0  0  0  0  0  0  0  0  0  0
   -3.2979    2.2253    2.7155 C   0  0  0  0  0  0  0  0  0  0  0  0
   -2.8983    3.2050    3.0440 H   0  0  0  0  0  0  0  0  0  0  0  0
   -2.7463    1.4315    3.2561 H   0  0  0  0  0  0  0  0  0  0  0  0
   -4.3725    2.1770    3.0043 H   0  0  0  0  0  0  0  0  0  0  0  0
   -3.8297    3.2271    0.4887 C   0  0  0  0  0  0  0  0  0  0  0  0
   -4.9027    3.2716    0.7807 H   0  0  0  0  0  0  0  0  0  0  0  0
   -3.7789    3.1597   -0.6145 H   0  0  0  0  0  0  0  0  0  0  0  0
   -3.3578    4.1874    0.7763 H   0  0  0  0  0  0  0  0  0  0  0  0
  3 27  1  0  0  0  0
  4 12  1  0  0  0  0
  4 24  1  0  0  0  0
  5 29  1  0  0  0  0
  6  1  1  0  0  0  0
  6  7  1  0  0  0  0
  6  9  1  0  0  0  0
  8  6  1  0  0  0  0
  9 10  1  0  0  0  0
  9  4  1  0  0  0  0
 11  9  1  0  0  0  0
 12 14  1  0  0  0  0
 13 12  1  0  0  0  0
 15  5  1  0  0  0  0
 15 17  1  0  0  0  0
 15 12  1  0  0  0  0
 16 15  1  0  0  0  0
 18 20  1  0  0  0  0
 18  5  1  0  0  0  0
 19 18  1  0  0  0  0
 21 18  1  0  0  0  0
 21  1  1  0  0  0  0
 22 21  1  0  0  0  0
 23 21  1  0  0  0  0
 24 27  1  0  0  0  0
 24 25  1  0  0  0  0
 26 24  1  0  0  0  0
 27 40  1  0  0  0  0
 28 32  1  0  0  0  0
 28  2  1  0  0  0  0
 28 36  1  0  0  0  0
 29 28  1  0  0  0  0
 30 29  1  0  0  0  0
 31 29  1  0  0  0  0
 32 35  1  0  0  0  0
 33 32  1  0  0  0  0
 34 32  1  0  0  0  0
 36 37  1  0  0  0  0
 38 36  1  0  0  0  0
 39 36  1  0  0  0  0
 40 43  1  0  0  0  0
 40 41  1  0  0  0  0
 40 42  1  0  0  0  0
 44 47  1  0  0  0  0
 44 45  1  0  0  0  0
 44 27  1  0  0  0  0
 46 44  1  0  0  0  0
M  END
