1,2,3,4,5
q = -2.0, confidence = 0.868

 39 40  0  0  0  0  0  0  0  0999 V2000
    0.6338   -1.7752    0.6220 S   0  0  0  0  0  1  0  0  0  0  0  0
   -0.4637    2.5576    0.1874 S   0  0  0  0  0  0  0  0  0  0  0  0
   -1.8423    0.1808    1.7749 S   0  0  0  0  0  1  0  0  0  0  0  0
    1.6842    0.6840   -0.7009 N   0  0  0  0  0  0  0  0  0  0  0  0
   -1.1220   -0.0769   -1.1234 N   0  0  0  0  0  0  0  0  0  0  0  0
    2.7043   -0.3637   -0.5463 C   0  0  0  0  0  0  0  0  0  0  0  0
    4.0198   -0.1975   -1.0049 C   0  0  0  0  0  0  0  0  0  0  0  0
    4.9378   -1.2549   -0.9188 C   0  0  0  0  0  0  0  0  0  0  0  0
    4.5184   -2.4876   -0.3861 C   0  0  0  0  0  0  0  0  0  0  0  0
    3.2079   -2.6564    0.0696 C   0  0  0  0  0  0  0  0  0  0  0  0
    2.2704   -1.5949    0.0108 C   0  0  0  0  0  0  0  0  0  0  0  0
   -2.3907   -0.7156   -0.7629 C   0  0  0  0  0  0  0  0  0  0  0  0
   -3.1505   -1.3832   -1.7361 C   0  0  0  0  0  0  0  0  0  0  0  0
   -4.3848   -1.9561   -1.4007 C   0  0  0  0  0  0  0  0  0  0  0  0
   -4.8524   -1.8421   -0.0764 C   0  0  0  0  0  0  0  0  0  0  0  0
   -4.0938   -1.1866    0.8964 C   0  0  0  0  0  0  0  0  0  0  0  0
   -2.8341   -0.6154    0.5765 C   0  0  0  0  0  0  0  0  0  0  0  0
    2.1687    2.0821   -0.5677 C   0  0  0  0  0  0  0  0  0  0  0  0
    1.0334    3.0707   -0.8043 C   0  0  0  0  0  0  0  0  0  0  0  0
   -1.3161    1.1012   -2.0062 C   0  0  0  0  0  0  0  0  0  0  0  0
   -1.6937    2.3099   -1.1661 C   0  0  0  0  0  0  0  0  0  0  0  0
    1.3203    0.5866   -1.6657 H   0  0  0  0  0  0  0  0  0  0  0  0
   -0.5421   -0.7948   -1.5901 H   0  0  0  0  0  0  0  0  0  0  0  0
    4.3428    0.7611   -1.4379 H   0  0  0  0  0  0  0  0  0  0  0  0
    5.9723   -1.1146   -1.2641 H   0  0  0  0  0  0  0  0  0  0  0  0
    5.2294   -3.3250   -0.3136 H   0  0  0  0  0  0  0  0  0  0  0  0
    2.8855   -3.6141    0.5052 H   0  0  0  0  0  0  0  0  0  0  0  0
   -2.7654   -1.4640   -2.7664 H   0  0  0  0  0  0  0  0  0  0  0  0
   -5.8201   -2.2870    0.2027 H   0  0  0  0  0  0  0  0  0  0  0  0
   -4.9715   -2.4930   -2.1599 H   0  0  0  0  0  0  0  0  0  0  0  0
   -4.4521   -1.1197    1.9346 H   0  0  0  0  0  0  0  0  0  0  0  0
    2.9898    2.3041   -1.2849 H   0  0  0  0  0  0  0  0  0  0  0  0
    2.5857    2.1848    0.4532 H   0  0  0  0  0  0  0  0  0  0  0  0
    1.3293    4.0911   -0.4925 H   0  0  0  0  0  0  0  0  0  0  0  0
    0.7456    3.1178   -1.8750 H   0  0  0  0  0  0  0  0  0  0  0  0
   -0.3725    1.2916   -2.5650 H   0  0  0  0  0  0  0  0  0  0  0  0
   -2.1007    0.9070   -2.7701 H   0  0  0  0  0  0  0  0  0  0  0  0
   -2.6403    2.1270   -0.6175 H   0  0  0  0  0  0  0  0  0  0  0  0
   -1.8030    3.2362   -1.7651 H   0  0  0  0  0  0  0  0  0  0  0  0
  4 18  1  0  0  0  0
  4  6  1  0  0  0  0
  5 12  1  0  0  0  0
  6 11  1  0  0  0  0
  7  8  1  0  0  0  0
  7  6  2  0  0  0  0
  8  9  2  0  0  0  0
  9 26  1  0  0  0  0
  9 10  1  0  0  0  0
 10 27  1  0  0  0  0
 11 10  2  0  0  0  0
 11  1  1  0  0  0  0
 12 17  1  0  0  0  0
 13 14  1  0  0  0  0
 13 12  2  0  0  0  0
 14 15  2  0  0  0  0
 15 29  1  0  0  0  0
 15 16  1  0  0  0  0
 16 31  1  0  0  0  0
 17 16  2  0  0  0  0
 17  3  1  0  0  0  0
 18 33  1  0  0  0  0
 19 18  1  0  0  0  0
 19 34  1  0  0  0  0
 19  2  1  0  0  0  0
 20 21  1  0  0  0  0
 20  5  1  0  0  0  0
 21 38  1  0  0  0  0
 21  2  1  0  0  0  0
 22  4  1  0  0  0  0
 23  5  1  0  0  0  0
 24  7  1  0  0  0  0
 25  8  1  0  0  0  0
 28 13  1  0  0  0  0
 30 14  1  0  0  0  0
 32 18  1  0  0  0  0
 35 19  1  0  0  0  0
 36 20  1  0  0  0  0
 37 20  1  0  0  0  0
 39 21  1  0  0  0  0
M  END
