1,4,14
q = -2.0, confidence = 0.598

 34 36  0  0  0  0  0  0  0  0999 V2000
   -0.3482    0.4786    1.5614 P   0  0  0  0  0  0  0  0  0  0  0  0
   -1.4179   -0.2465    2.6215 O   0  0  0  0  0  0  0  0  0  0  0  0
   -0.6302    2.1185    1.6558 O   0  0  0  0  0  0  0  0  0  0  0  0
   -2.5245   -0.9999    0.5951 C   0  0  0  0  0  3  0  0  0  0  0  0
   -3.6382   -1.6538    0.0345 C   0  0  0  0  0  0  0  0  0  0  0  0
   -3.7018   -1.7349   -1.0622 H   0  0  0  0  0  0  0  0  0  0  0  0
   -4.6587   -2.1861    0.8449 C   0  0  0  0  0  0  0  0  0  0  0  0
   -5.5163   -2.6939    0.3769 H   0  0  0  0  0  0  0  0  0  0  0  0
   -4.5923   -2.0636    2.2415 C   0  0  0  0  0  0  0  0  0  0  0  0
   -5.3908   -2.4751    2.8774 H   0  0  0  0  0  0  0  0  0  0  0  0
   -3.5049   -1.4000    2.8333 C   0  0  0  0  0  0  0  0  0  0  0  0
   -3.4264   -1.2724    3.9228 H   0  0  0  0  0  0  0  0  0  0  0  0
   -2.5016   -0.8836    2.0039 C   0  0  0  0  0  0  0  0  0  0  0  0
   -1.8978    1.6864   -0.3746 C   0  0  0  0  0  3  0  0  0  0  0  0
   -2.8789    2.1527   -1.2699 C   0  0  0  0  0  0  0  0  0  0  0  0
   -3.1953    1.4903   -2.0904 H   0  0  0  0  0  0  0  0  0  0  0  0
   -3.4322    3.4402   -1.1439 C   0  0  0  0  0  0  0  0  0  0  0  0
   -4.1915    3.7795   -1.8656 H   0  0  0  0  0  0  0  0  0  0  0  0
   -3.0233    4.2908   -0.1043 C   0  0  0  0  0  0  0  0  0  0  0  0
   -3.4524    5.2996   -0.0059 H   0  0  0  0  0  0  0  0  0  0  0  0
   -2.0776    3.8430    0.8325 C   0  0  0  0  0  0  0  0  0  0  0  0
   -1.7569    4.4669    1.6795 H   0  0  0  0  0  0  0  0  0  0  0  0
   -1.5483    2.5540    0.6874 C   0  0  0  0  0  0  0  0  0  0  0  0
    1.1727    0.3414    2.5375 C   0  0  0  0  0  0  0  0  0  0  0  0
    2.2644    1.1860    2.2520 C   0  0  0  0  0  0  0  0  0  0  0  0
    2.1588    1.9882    1.5113 H   0  0  0  0  0  0  0  0  0  0  0  0
    3.4828    0.9993    2.9198 C   0  0  0  0  0  0  0  0  0  0  0  0
    4.3295    1.6621    2.6868 H   0  0  0  0  0  0  0  0  0  0  0  0
    3.6177   -0.0219    3.8744 C   0  0  0  0  0  0  0  0  0  0  0  0
    4.5776   -0.1698    4.3922 H   0  0  0  0  0  0  0  0  0  0  0  0
    2.5221   -0.8466    4.1789 C   0  0  0  0  0  0  0  0  0  0  0  0
    2.6174   -1.6331    4.9426 H   0  0  0  0  0  0  0  0  0  0  0  0
    1.2995   -0.6673    3.5164 C   0  0  0  0  0  0  0  0  0  0  0  0
    0.4299   -1.2921    3.7636 H   0  0  0  0  0  0  0  0  0  0  0  0
  1  3  1  0  0  0  0
  1 24  1  0  0  0  0
  1  2  1  0  0  0  0
  4 13  1  0  0  0  0
  5  4  2  0  0  0  0
  5  7  1  0  0  0  0
  6  5  1  0  0  0  0
  7  9  2  0  0  0  0
  8  7  1  0  0  0  0
  9 11  1  0  0  0  0
  9 10  1  0  0  0  0
 11 12  1  0  0  0  0
 13  2  1  0  0  0  0
 13 11  2  0  0  0  0
 14 23  1  0  0  0  0
 15 17  1  0  0  0  0
 15 14  2  0  0  0  0
 16 15  1  0  0  0  0
 17 19  2  0  0  0  0
 18 17  1  0  0  0  0
 19 20  1  0  0  0  0
 19 21  1  0  0  0  0
 21 22  1  0  0  0  0
 23 21  2  0  0  0  0
 23  3  1  0  0  0  0
 24 33  1  0  0  0  0
 25 24  2  0  0  0  0
 25 27  1  0  0  0  0
 26 25  1  0  0  0  0
 27 29  2  0  0  0  0
 28 27  1  0  0  0  0
 29 31  1  0  0  0  0
 29 30  1  0  0  0  0
 31 32  1  0  0  0  0
 33 34  1  0  0  0  0
 33 31  2  0  0  0  0
M  END
