1,3,5
q = -1.0

 44 46  0  0  1  0  0  0  0  0999 V2000
    0.5511    0.0249    0.3433 P   0  0  0  0  0  0  0  0  0  0  0  0
   -1.9964    1.1543    1.6243 Si  0  0  0  0  0  0  0  0  0  0  0  0
   -2.6756   -0.1620    0.4564 C   0  0  1  0  0  3  0  0  0  0  0  0
   -3.0642    0.0267   -0.9252 C   0  0  0  0  0  3  0  0  0  0  0  0
   -3.2160   -1.2660   -1.5102 C   0  0  0  0  0  3  0  0  0  0  0  0
   -3.0282   -2.2657   -0.4754 C   0  0  0  0  0  0  0  0  0  0  0  0
   -2.7251   -1.5930    0.7348 C   0  0  0  0  0  0  0  0  0  0  0  0
   -2.9224    1.1669    3.2720 C   0  0  0  0  0  0  0  0  0  0  0  0
   -2.0505    2.8525    0.8092 C   0  0  0  0  0  0  0  0  0  0  0  0
   -0.1906    0.5875    1.9439 C   0  0  0  0  0  0  0  0  0  0  0  0
    1.1423    1.5981   -0.4303 C   0  0  0  0  0  0  0  0  0  0  0  0
    2.0914    2.4122    0.2214 C   0  0  0  0  0  0  0  0  0  0  0  0
    2.4955    3.6227   -0.3589 C   0  0  0  0  0  0  0  0  0  0  0  0
    1.9628    4.0232   -1.5968 C   0  0  0  0  0  0  0  0  0  0  0  0
    1.0284    3.2086   -2.2546 C   0  0  0  0  0  0  0  0  0  0  0  0
    0.6178    1.9980   -1.6728 C   0  0  0  0  0  0  0  0  0  0  0  0
    2.1458   -0.7950    0.7630 C   0  0  0  0  0  0  0  0  0  0  0  0
    2.3971   -1.3461    2.0345 C   0  0  0  0  0  0  0  0  0  0  0  0
    3.6035   -2.0165    2.2905 C   0  0  0  0  0  0  0  0  0  0  0  0
    4.5673   -2.1466    1.2792 C   0  0  0  0  0  0  0  0  0  0  0  0
    4.3211   -1.6012    0.0081 C   0  0  0  0  0  0  0  0  0  0  0  0
    3.1197   -0.9286   -0.2505 C   0  0  0  0  0  0  0  0  0  0  0  0
   -3.1722    0.9894   -1.4382 H   0  0  0  0  0  0  0  0  0  0  0  0
   -3.4844   -1.4756   -2.5531 H   0  0  0  0  0  0  0  0  0  0  0  0
   -3.1209   -3.3500   -0.6112 H   0  0  0  0  0  0  0  0  0  0  0  0
   -2.5367   -2.0667    1.7060 H   0  0  0  0  0  0  0  0  0  0  0  0
   -3.9805    1.4623    3.1187 H   0  0  0  0  0  0  0  0  0  0  0  0
   -2.4678    1.8818    3.9881 H   0  0  0  0  0  0  0  0  0  0  0  0
   -2.9174    0.1615    3.7402 H   0  0  0  0  0  0  0  0  0  0  0  0
   -3.0995    3.1602    0.6211 H   0  0  0  0  0  0  0  0  0  0  0  0
   -1.5053    2.8562   -0.1548 H   0  0  0  0  0  0  0  0  0  0  0  0
   -1.5832    3.6153    1.4648 H   0  0  0  0  0  0  0  0  0  0  0  0
    0.4500    1.3361    2.4556 H   0  0  0  0  0  0  0  0  0  0  0  0
   -0.2614   -0.3094    2.5954 H   0  0  0  0  0  0  0  0  0  0  0  0
    2.5257    2.0923    1.1822 H   0  0  0  0  0  0  0  0  0  0  0  0
    3.2349    4.2566    0.1542 H   0  0  0  0  0  0  0  0  0  0  0  0
    2.2840    4.9727   -2.0516 H   0  0  0  0  0  0  0  0  0  0  0  0
    0.6165    3.5154   -3.2282 H   0  0  0  0  0  0  0  0  0  0  0  0
   -0.1183    1.3389   -2.1640 H   0  0  0  0  0  0  0  0  0  0  0  0
    1.6498   -1.2547    2.8365 H   0  0  0  0  0  0  0  0  0  0  0  0
    3.7898   -2.4394    3.2896 H   0  0  0  0  0  0  0  0  0  0  0  0
    5.5118   -2.6743    1.4806 H   0  0  0  0  0  0  0  0  0  0  0  0
    5.0712   -1.7011   -0.7910 H   0  0  0  0  0  0  0  0  0  0  0  0
    2.9350   -0.5044   -1.2491 H   0  0  0  0  0  0  0  0  0  0  0  0
  1 17  1  0  0  0  0
  1 10  1  0  0  0  0
  2 10  1  0  0  0  0
  2  8  1  0  0  0  0
  3  7  1  0  0  0  0
  3  2  1  6  0  0  0
  4  3  1  0  0  0  0
  5  4  1  0  0  0  0
  5  6  1  0  0  0  0
  6  7  2  0  0  0  0
  7 26  1  0  0  0  0
  8 29  1  0  0  0  0
  8 28  1  0  0  0  0
  9 32  1  0  0  0  0
  9  2  1  0  0  0  0
 10 33  1  0  0  0  0
 10 34  1  0  0  0  0
 11 12  1  0  0  0  0
 11  1  1  0  0  0  0
 12 35  1  0  0  0  0
 13 36  1  0  0  0  0
 13 12  2  0  0  0  0
 14 13  1  0  0  0  0
 15 16  1  0  0  0  0
 15 14  2  0  0  0  0
 16 11  2  0  0  0  0
 17 18  1  0  0  0  0
 18 19  2  0  0  0  0
 18 40  1  0  0  0  0
 19 41  1  0  0  0  0
 20 42  1  0  0  0  0
 20 19  1  0  0  0  0
 21 20  2  0  0  0  0
 22 21  1  0  0  0  0
 22 17  2  0  0  0  0
 23  4  1  0  0  0  0
 24  5  1  0  0  0  0
 25  6  1  0  0  0  0
 27  8  1  0  0  0  0
 30  9  1  0  0  0  0
 31  9  1  0  0  0  0
 37 14  1  0  0  0  0
 38 15  1  0  0  0  0
 39 16  1  0  0  0  0
 43 21  1  0  0  0  0
 44 22  1  0  0  0  0
M  END
