1,3,4
q = 0.0, confidence = 0.556

 43 42  0  0  0  0  0  0  0  0999 V2000
    1.3072   -0.0091   -1.2275 P   0  0  0  0  0  0  0  0  0  0  0  0
    2.5812   -0.2862   -0.0885 O   0  0  0  0  0  0  0  0  0  0  0  0
    0.3366    1.4289   -0.6565 C   0  0  0  0  0  2  0  0  0  0  0  0
    0.0232   -1.2515   -0.7514 C   0  0  0  0  0  2  0  0  0  0  0  0
    0.5876    2.9025   -0.9216 C   0  0  0  0  0  0  0  0  0  0  0  0
   -0.7742    3.6291   -0.9108 C   0  0  0  0  0  0  0  0  0  0  0  0
   -0.6391    4.7181   -1.0786 H   0  0  0  0  0  0  0  0  0  0  0  0
   -1.2867    3.4928    0.0636 H   0  0  0  0  0  0  0  0  0  0  0  0
   -1.4417    3.2302   -1.7003 H   0  0  0  0  0  0  0  0  0  0  0  0
    1.2562    3.1007   -2.2963 C   0  0  0  0  0  0  0  0  0  0  0  0
    2.2488    2.6071   -2.3349 H   0  0  0  0  0  0  0  0  0  0  0  0
    1.4017    4.1807   -2.5066 H   0  0  0  0  0  0  0  0  0  0  0  0
    0.6346    2.6668   -3.1053 H   0  0  0  0  0  0  0  0  0  0  0  0
    1.4850    3.4955    0.1863 C   0  0  0  0  0  0  0  0  0  0  0  0
    1.6740    4.5740    0.0005 H   0  0  0  0  0  0  0  0  0  0  0  0
    2.4601    2.9753    0.2327 H   0  0  0  0  0  0  0  0  0  0  0  0
    1.0010    3.3929    1.1772 H   0  0  0  0  0  0  0  0  0  0  0  0
    0.0591   -2.7178   -1.1362 C   0  0  0  0  0  0  0  0  0  0  0  0
   -0.0749   -2.8468   -2.6688 C   0  0  0  0  0  0  0  0  0  0  0  0
   -0.0604   -3.9134   -2.9774 H   0  0  0  0  0  0  0  0  0  0  0  0
    0.7598   -2.3251   -3.1797 H   0  0  0  0  0  0  0  0  0  0  0  0
   -1.0229   -2.3923   -3.0209 H   0  0  0  0  0  0  0  0  0  0  0  0
    1.3715   -3.3873   -0.6786 C   0  0  0  0  0  0  0  0  0  0  0  0
    1.3664   -4.4650   -0.9441 H   0  0  0  0  0  0  0  0  0  0  0  0
    1.5043   -3.2969    0.4167 H   0  0  0  0  0  0  0  0  0  0  0  0
    2.2486   -2.9190   -1.1643 H   0  0  0  0  0  0  0  0  0  0  0  0
   -1.1269   -3.4283   -0.4530 C   0  0  0  0  0  0  0  0  0  0  0  0
   -1.1274   -4.5116   -0.6934 H   0  0  0  0  0  0  0  0  0  0  0  0
   -2.0923   -3.0041   -0.7946 H   0  0  0  0  0  0  0  0  0  0  0  0
   -1.0722   -3.3163    0.6489 H   0  0  0  0  0  0  0  0  0  0  0  0
    3.9928   -0.2857   -0.4195 C   0  0  0  0  0  0  0  0  0  0  0  0
    4.2603   -0.8496   -1.8240 C   0  0  0  0  0  0  0  0  0  0  0  0
    5.3509   -0.8809   -2.0200 H   0  0  0  0  0  0  0  0  0  0  0  0
    3.7893   -0.2244   -2.6087 H   0  0  0  0  0  0  0  0  0  0  0  0
    3.8649   -1.8797   -1.9235 H   0  0  0  0  0  0  0  0  0  0  0  0
    4.6402   -1.1778    0.6468 C   0  0  0  0  0  0  0  0  0  0  0  0
    5.7408   -1.2173    0.5185 H   0  0  0  0  0  0  0  0  0  0  0  0
    4.2379   -2.2077    0.5810 H   0  0  0  0  0  0  0  0  0  0  0  0
    4.4161   -0.7853    1.6583 H   0  0  0  0  0  0  0  0  0  0  0  0
    4.5300    1.1491   -0.3179 C   0  0  0  0  0  0  0  0  0  0  0  0
    4.0528    1.8009   -1.0769 H   0  0  0  0  0  0  0  0  0  0  0  0
    5.6261    1.1777   -0.4840 H   0  0  0  0  0  0  0  0  0  0  0  0
    4.3167    1.5699    0.6843 H   0  0  0  0  0  0  0  0  0  0  0  0
  1  4  1  0  0  0  0
  1  3  1  0  0  0  0
  1  2  1  0  0  0  0
  5  6  1  0  0  0  0
  5  3  1  0  0  0  0
  5 14  1  0  0  0  0
  6  8  1  0  0  0  0
  7  6  1  0  0  0  0
  9  6  1  0  0  0  0
 10  5  1  0  0  0  0
 11 10  1  0  0  0  0
 12 10  1  0  0  0  0
 13 10  1  0  0  0  0
 14 16  1  0  0  0  0
 14 17  1  0  0  0  0
 15 14  1  0  0  0  0
 18  4  1  0  0  0  0
 18 23  1  0  0  0  0
 18 27  1  0  0  0  0
 19 18  1  0  0  0  0
 20 19  1  0  0  0  0
 21 19  1  0  0  0  0
 22 19  1  0  0  0  0
 23 25  1  0  0  0  0
 24 23  1  0  0  0  0
 26 23  1  0  0  0  0
 27 30  1  0  0  0  0
 28 27  1  0  0  0  0
 29 27  1  0  0  0  0
 31 40  1  0  0  0  0
 31  2  1  0  0  0  0
 31 36  1  0  0  0  0
 32 31  1  0  0  0  0
 33 32  1  0  0  0  0
 34 32  1  0  0  0  0
 35 32  1  0  0  0  0
 36 39  1  0  0  0  0
 37 36  1  0  0  0  0
 38 36  1  0  0  0  0
 40 43  1  0  0  0  0
 41 40  1  0  0  0  0
 42 40  1  0  0  0  0
M  END
