2,3,4
q = -2.0, confidence = 0.618

 44 46  0  0  1  0  0  0  0  0999 V2000
   -0.0000    0.9911    1.3007 P   0  0  0  0  0  2  0  0  0  0  0  0
   -0.0000   -1.5960    0.4070 P   0  0  0  0  0  2  0  0  0  0  0  0
    1.2151   -0.2543    0.7566 C   0  0  2  0  0  3  0  0  0  0  0  0
   -1.2151   -0.2543    0.7566 C   0  0  1  0  0  3  0  0  0  0  0  0
   -2.6901   -0.2667    0.8094 C   0  0  0  0  0  0  0  0  0  0  0  0
   -3.4282    0.9180    1.1333 C   0  0  0  0  0  0  0  0  0  0  0  0
   -4.8315    0.8791    1.1805 C   0  0  0  0  0  0  0  0  0  0  0  0
   -5.3703    1.8081    1.4284 H   0  0  0  0  0  0  0  0  0  0  0  0
   -5.5655   -0.2879    0.9181 C   0  0  0  0  0  0  0  0  0  0  0  0
   -4.8359   -1.4391    0.5812 C   0  0  0  0  0  0  0  0  0  0  0  0
   -5.3790   -2.3695    0.3486 H   0  0  0  0  0  0  0  0  0  0  0  0
   -3.4331   -1.4568    0.5165 C   0  0  0  0  0  0  0  0  0  0  0  0
   -2.7708   -2.7489    0.1180 C   0  0  0  0  0  0  0  0  0  0  0  0
   -2.1152   -3.1504    0.9190 H   0  0  0  0  0  0  0  0  0  0  0  0
   -2.1314   -2.6328   -0.7831 H   0  0  0  0  0  0  0  0  0  0  0  0
   -3.5286   -3.5219   -0.1124 H   0  0  0  0  0  0  0  0  0  0  0  0
   -2.7556    2.2350    1.4079 C   0  0  0  0  0  0  0  0  0  0  0  0
   -2.0862    2.5406    0.5753 H   0  0  0  0  0  0  0  0  0  0  0  0
   -2.1253    2.2037    2.3219 H   0  0  0  0  0  0  0  0  0  0  0  0
   -3.5041    3.0379    1.5492 H   0  0  0  0  0  0  0  0  0  0  0  0
   -7.0688   -0.3115    1.0125 C   0  0  0  0  0  0  0  0  0  0  0  0
   -7.3991   -0.6442    2.0205 H   0  0  0  0  0  0  0  0  0  0  0  0
   -7.5130   -1.0135    0.2790 H   0  0  0  0  0  0  0  0  0  0  0  0
   -7.5053    0.6921    0.8410 H   0  0  0  0  0  0  0  0  0  0  0  0
    2.6901   -0.2667    0.8095 C   0  0  0  0  0  0  0  0  0  0  0  0
    3.4281    0.9180    1.1334 C   0  0  0  0  0  0  0  0  0  0  0  0
    4.8315    0.8791    1.1806 C   0  0  0  0  0  0  0  0  0  0  0  0
    5.3703    1.8081    1.4285 H   0  0  0  0  0  0  0  0  0  0  0  0
    5.5655   -0.2879    0.9182 C   0  0  0  0  0  0  0  0  0  0  0  0
    4.8359   -1.4391    0.5812 C   0  0  0  0  0  0  0  0  0  0  0  0
    5.3790   -2.3695    0.3487 H   0  0  0  0  0  0  0  0  0  0  0  0
    3.4331   -1.4568    0.5166 C   0  0  0  0  0  0  0  0  0  0  0  0
    2.7708   -2.7489    0.1182 C   0  0  0  0  0  0  0  0  0  0  0  0
    2.1314   -2.6329   -0.7830 H   0  0  0  0  0  0  0  0  0  0  0  0
    2.1151   -3.1503    0.9192 H   0  0  0  0  0  0  0  0  0  0  0  0
    3.5285   -3.5219   -0.1122 H   0  0  0  0  0  0  0  0  0  0  0  0
    2.7556    2.2350    1.4080 C   0  0  0  0  0  0  0  0  0  0  0  0
    2.1252    2.2037    2.3221 H   0  0  0  0  0  0  0  0  0  0  0  0
    2.0862    2.5407    0.5754 H   0  0  0  0  0  0  0  0  0  0  0  0
    3.5040    3.0378    1.5494 H   0  0  0  0  0  0  0  0  0  0  0  0
    7.0688   -0.3115    1.0123 C   0  0  0  0  0  0  0  0  0  0  0  0
    7.5051    0.6927    0.8441 H   0  0  0  0  0  0  0  0  0  0  0  0
    7.5130   -1.0111    0.2765 H   0  0  0  0  0  0  0  0  0  0  0  0
    7.3993   -0.6475    2.0192 H   0  0  0  0  0  0  0  0  0  0  0  0
  2  4  1  0  0  0  0
  2  3  1  0  0  0  0
  3 25  1  1  0  0  0
  3  1  1  0  0  0  0
  4  5  1  1  0  0  0
  4  1  1  0  0  0  0
  5  6  1  0  0  0  0
  6  7  2  0  0  0  0
  6 17  1  0  0  0  0
  7  8  1  0  0  0  0
  9 21  1  0  0  0  0
  9  7  1  0  0  0  0
 10  9  2  0  0  0  0
 11 10  1  0  0  0  0
 12 10  1  0  0  0  0
 12  5  2  0  0  0  0
 13 12  1  0  0  0  0
 13 14  1  0  0  0  0
 15 13  1  0  0  0  0
 16 13  1  0  0  0  0
 17 20  1  0  0  0  0
 17 19  1  0  0  0  0
 18 17  1  0  0  0  0
 21 22  1  0  0  0  0
 23 21  1  0  0  0  0
 24 21  1  0  0  0  0
 25 26  1  0  0  0  0
 26 27  2  0  0  0  0
 26 37  1  0  0  0  0
 27 28  1  0  0  0  0
 29 41  1  0  0  0  0
 29 27  1  0  0  0  0
 30 29  2  0  0  0  0
 31 30  1  0  0  0  0
 32 30  1  0  0  0  0
 32 25  2  0  0  0  0
 33 32  1  0  0  0  0
 33 35  1  0  0  0  0
 34 33  1  0  0  0  0
 36 33  1  0  0  0  0
 37 40  1  0  0  0  0
 37 38  1  0  0  0  0
 39 37  1  0  0  0  0
 41 44  1  0  0  0  0
 42 41  1  0  0  0  0
 43 41  1  0  0  0  0
M  END
