1,8,11
q = -1.0, confidence = 0.0

 50 52  0  0  1  0  0  0  0  0999 V2000
    0.9282   -0.0730    0.3505 P   0  0  0  0  0  0  0  0  0  0  0  0
    0.6229   -0.1018    2.2014 C   0  0  0  0  0  0  0  0  0  0  0  0
    0.5644   -1.1772    2.4675 H   0  0  0  0  0  0  0  0  0  0  0  0
    1.4757    0.3366    2.7616 H   0  0  0  0  0  0  0  0  0  0  0  0
   -0.7044    0.6142    2.5110 C   0  0  0  0  0  0  0  0  0  0  0  0
   -1.0176    0.3703    3.5499 H   0  0  0  0  0  0  0  0  0  0  0  0
   -0.5401    1.7101    2.4872 H   0  0  0  0  0  0  0  0  0  0  0  0
   -1.8044    0.2648    1.5269 C   0  0  2  0  0  3  0  0  0  0  0  0
   -2.3585   -1.0680    1.3075 C   0  0  0  0  0  0  0  0  0  0  0  0
   -3.2328   -0.9695    0.1828 C   0  0  0  0  0  0  0  0  0  0  0  0
   -3.2870    0.4330   -0.2416 C   0  0  2  0  0  3  0  0  0  0  0  0
   -2.4616    1.2101    0.6383 C   0  0  1  0  0  3  0  0  0  0  0  0
   -2.1424   -2.2855    2.1549 C   0  0  0  0  0  0  0  0  0  0  0  0
   -2.9149   -2.3615    2.9531 H   0  0  0  0  0  0  0  0  0  0  0  0
   -1.1584   -2.2769    2.6614 H   0  0  0  0  0  0  0  0  0  0  0  0
   -2.1962   -3.2156    1.5559 H   0  0  0  0  0  0  0  0  0  0  0  0
   -4.0657   -2.0757   -0.3900 C   0  0  0  0  0  0  0  0  0  0  0  0
   -5.0706   -2.1115    0.0866 H   0  0  0  0  0  0  0  0  0  0  0  0
   -3.5897   -3.0637   -0.2381 H   0  0  0  0  0  0  0  0  0  0  0  0
   -4.2239   -1.9456   -1.4779 H   0  0  0  0  0  0  0  0  0  0  0  0
   -4.1870    0.9705   -1.3133 C   0  0  0  0  0  0  0  0  0  0  0  0
   -5.2055    1.1769   -0.9162 H   0  0  0  0  0  0  0  0  0  0  0  0
   -4.2992    0.2530   -2.1489 H   0  0  0  0  0  0  0  0  0  0  0  0
   -3.7966    1.9161   -1.7367 H   0  0  0  0  0  0  0  0  0  0  0  0
   -2.3356    2.7028    0.6613 C   0  0  0  0  0  0  0  0  0  0  0  0
   -3.0640    3.1622    1.3666 H   0  0  0  0  0  0  0  0  0  0  0  0
   -2.5272    3.1401   -0.3381 H   0  0  0  0  0  0  0  0  0  0  0  0
   -1.3244    3.0329    0.9713 H   0  0  0  0  0  0  0  0  0  0  0  0
    2.3054   -1.2672    0.0913 C   0  0  0  0  0  0  0  0  0  0  0  0
    2.6008   -1.6599   -1.2319 C   0  0  0  0  0  0  0  0  0  0  0  0
    1.9941   -1.2777   -2.0662 H   0  0  0  0  0  0  0  0  0  0  0  0
    3.6529   -2.5493   -1.4877 C   0  0  0  0  0  0  0  0  0  0  0  0
    3.8719   -2.8478   -2.5241 H   0  0  0  0  0  0  0  0  0  0  0  0
    4.4167   -3.0668   -0.4280 C   0  0  0  0  0  0  0  0  0  0  0  0
    5.2382   -3.7707   -0.6307 H   0  0  0  0  0  0  0  0  0  0  0  0
    4.1240   -2.6878    0.8902 C   0  0  0  0  0  0  0  0  0  0  0  0
    4.7153   -3.0920    1.7262 H   0  0  0  0  0  0  0  0  0  0  0  0
    3.0755   -1.7904    1.1510 C   0  0  0  0  0  0  0  0  0  0  0  0
    2.8645   -1.5031    2.1914 H   0  0  0  0  0  0  0  0  0  0  0  0
    1.7701    1.5541    0.0770 C   0  0  0  0  0  0  0  0  0  0  0  0
    1.0988    2.5399   -0.6699 C   0  0  0  0  0  0  0  0  0  0  0  0
    0.1157    2.2833   -1.1008 H   0  0  0  0  0  0  0  0  0  0  0  0
    1.6838    3.8024   -0.8582 C   0  0  0  0  0  0  0  0  0  0  0  0
    1.1554    4.5684   -1.4464 H   0  0  0  0  0  0  0  0  0  0  0  0
    2.9413    4.0841   -0.3025 C   0  0  0  0  0  0  0  0  0  0  0  0
    3.4015    5.0731   -0.4511 H   0  0  0  0  0  0  0  0  0  0  0  0
    3.6190    3.0990    0.4369 C   0  0  0  0  0  0  0  0  0  0  0  0
    4.6103    3.3149    0.8642 H   0  0  0  0  0  0  0  0  0  0  0  0
    3.0388    1.8363    0.6240 C   0  0  0  0  0  0  0  0  0  0  0  0
    3.5831    1.0611    1.1866 H   0  0  0  0  0  0  0  0  0  0  0  0
  1  2  1  0  0  0  0
  2  3  1  0  0  0  0
  2  5  1  0  0  0  0
  2  4  1  0  0  0  0
  5  6  1  0  0  0  0
  7  5  1  0  0  0  0
  8  5  1  6  0  0  0
  9  8  1  0  0  0  0
  9 13  1  0  0  0  0
 10  9  2  0  0  0  0
 11 21  1  1  0  0  0
 11 10  1  0  0  0  0
 11 12  1  0  0  0  0
 12 25  1  1  0  0  0
 12  8  1  0  0  0  0
 13 15  1  0  0  0  0
 13 14  1  0  0  0  0
 16 13  1  0  0  0  0
 17 19  1  0  0  0  0
 17 18  1  0  0  0  0
 17 10  1  0  0  0  0
 20 17  1  0  0  0  0
 21 22  1  0  0  0  0
 23 21  1  0  0  0  0
 24 21  1  0  0  0  0
 25 28  1  0  0  0  0
 25 26  1  0  0  0  0
 27 25  1  0  0  0  0
 29  1  1  0  0  0  0
 29 38  1  0  0  0  0
 30 29  2  0  0  0  0
 31 30  1  0  0  0  0
 32 30  1  0  0  0  0
 32 34  2  0  0  0  0
 33 32  1  0  0  0  0
 34 36  1  0  0  0  0
 35 34  1  0  0  0  0
 36 38  2  0  0  0  0
 36 37  1  0  0  0  0
 38 39  1  0  0  0  0
 40  1  1  0  0  0  0
 40 49  1  0  0  0  0
 41 40  2  0  0  0  0
 42 41  1  0  0  0  0
 43 41  1  0  0  0  0
 43 45  2  0  0  0  0
 44 43  1  0  0  0  0
 45 47  1  0  0  0  0
 46 45  1  0  0  0  0
 47 49  2  0  0  0  0
 47 48  1  0  0  0  0
 49 50  1  0  0  0  0
M  END
