1,3,13
q = 0.0, confidence = 0.716

 45 48  0  0  0  0  0  0  0  0999 V2000
   -1.3860    0.0043    0.0833 P   0  0  0  0  0  0  0  0  0  0  0  0
    2.0376   -0.0642    2.4178 N   0  0  0  0  0  0  0  0  0  0  0  0
    2.8329    0.0198    0.1432 C   0  0  0  0  0  3  0  0  0  0  0  0
    3.1234   -0.0285    1.5517 C   0  0  0  0  0  0  0  0  0  0  0  0
    4.4420   -0.0302    2.0560 C   0  0  0  0  0  0  0  0  0  0  0  0
    4.5826   -0.0722    3.1470 H   0  0  0  0  0  0  0  0  0  0  0  0
    5.5292    0.0259    1.1736 C   0  0  0  0  0  0  0  0  0  0  0  0
    6.5610    0.0242    1.5575 H   0  0  0  0  0  0  0  0  0  0  0  0
    5.2827    0.0938   -0.2079 C   0  0  0  0  0  0  0  0  0  0  0  0
    6.1254    0.1512   -0.9157 H   0  0  0  0  0  0  0  0  0  0  0  0
    3.9620    0.0937   -0.7005 C   0  0  0  0  0  0  0  0  0  0  0  0
    3.8465    0.1700   -1.7916 H   0  0  0  0  0  0  0  0  0  0  0  0
    0.8982   -0.0471    1.7664 C   0  0  0  0  0  3  0  0  0  0  0  0
   -0.3314   -0.0759    2.5917 C   0  0  0  0  0  0  0  0  0  0  0  0
   -1.5707   -0.0655    1.9208 C   0  0  0  0  0  0  0  0  0  0  0  0
   -2.7794   -0.1088    2.6466 C   0  0  0  0  0  0  0  0  0  0  0  0
   -3.7431   -0.1074    2.1140 H   0  0  0  0  0  0  0  0  0  0  0  0
   -2.7497   -0.1560    4.0463 C   0  0  0  0  0  0  0  0  0  0  0  0
   -3.6915   -0.1898    4.6154 H   0  0  0  0  0  0  0  0  0  0  0  0
   -1.5110   -0.1602    4.7240 C   0  0  0  0  0  0  0  0  0  0  0  0
   -1.4921   -0.1969    5.8247 H   0  0  0  0  0  0  0  0  0  0  0  0
   -0.3133   -0.1213    4.0068 C   0  0  0  0  0  0  0  0  0  0  0  0
    0.6701   -0.1278    4.5003 H   0  0  0  0  0  0  0  0  0  0  0  0
   -2.5584   -1.3863   -0.4072 C   0  0  0  0  0  0  0  0  0  0  0  0
   -3.1009   -1.5005   -1.7052 C   0  0  0  0  0  0  0  0  0  0  0  0
   -2.9228   -0.7197   -2.4529 H   0  0  0  0  0  0  0  0  0  0  0  0
   -3.8777   -2.6075   -2.0784 C   0  0  0  0  0  0  0  0  0  0  0  0
   -4.2844   -2.6628   -3.0999 H   0  0  0  0  0  0  0  0  0  0  0  0
   -4.1358   -3.6361   -1.1597 C   0  0  0  0  0  0  0  0  0  0  0  0
   -4.7413   -4.5069   -1.4530 H   0  0  0  0  0  0  0  0  0  0  0  0
   -3.6171   -3.5344    0.1392 C   0  0  0  0  0  0  0  0  0  0  0  0
   -3.8147   -4.3255    0.8788 H   0  0  0  0  0  0  0  0  0  0  0  0
   -2.8414   -2.4248    0.5088 C   0  0  0  0  0  0  0  0  0  0  0  0
   -2.4498   -2.3705    1.5333 H   0  0  0  0  0  0  0  0  0  0  0  0
   -2.4761    1.4863   -0.3115 C   0  0  0  0  0  0  0  0  0  0  0  0
   -2.8485    1.8011   -1.6361 C   0  0  0  0  0  0  0  0  0  0  0  0
   -2.5387    1.1544   -2.4660 H   0  0  0  0  0  0  0  0  0  0  0  0
   -3.5890    2.9528   -1.9371 C   0  0  0  0  0  0  0  0  0  0  0  0
   -3.8628    3.1640   -2.9823 H   0  0  0  0  0  0  0  0  0  0  0  0
   -3.9656    3.8381   -0.9158 C   0  0  0  0  0  0  0  0  0  0  0  0
   -4.5395    4.7475   -1.1495 H   0  0  0  0  0  0  0  0  0  0  0  0
   -3.5971    3.5491    0.4062 C   0  0  0  0  0  0  0  0  0  0  0  0
   -3.8801    4.2322    1.2218 H   0  0  0  0  0  0  0  0  0  0  0  0
   -2.8661    2.3880    0.7036 C   0  0  0  0  0  0  0  0  0  0  0  0
   -2.5925    2.1872    1.7481 H   0  0  0  0  0  0  0  0  0  0  0  0
  1 15  1  0  0  0  0
  3  4  1  0  0  0  0
  4  5  2  0  0  0  0
  4  2  1  0  0  0  0
  5  6  1  0  0  0  0
  7  8  1  0  0  0  0
  7  5  1  0  0  0  0
  9  7  2  0  0  0  0
 10  9  1  0  0  0  0
 11  9  1  0  0  0  0
 11  3  2  0  0  0  0
 12 11  1  0  0  0  0
 13  2  2  0  0  0  0
 13 14  1  0  0  0  0
 14 22  1  0  0  0  0
 15 14  2  0  0  0  0
 15 16  1  0  0  0  0
 16 18  2  0  0  0  0
 17 16  1  0  0  0  0
 18 19  1  0  0  0  0
 18 20  1  0  0  0  0
 20 21  1  0  0  0  0
 22 23  1  0  0  0  0
 22 20  2  0  0  0  0
 24  1  1  0  0  0  0
 24 33  1  0  0  0  0
 25 24  2  0  0  0  0
 26 25  1  0  0  0  0
 27 25  1  0  0  0  0
 27 29  2  0  0  0  0
 28 27  1  0  0  0  0
 29 31  1  0  0  0  0
 30 29  1  0  0  0  0
 31 33  2  0  0  0  0
 31 32  1  0  0  0  0
 33 34  1  0  0  0  0
 35  1  1  0  0  0  0
 35 44  1  0  0  0  0
 36 35  2  0  0  0  0
 37 36  1  0  0  0  0
 38 36  1  0  0  0  0
 38 40  2  0  0  0  0
 39 38  1  0  0  0  0
 40 42  1  0  0  0  0
 41 40  1  0  0  0  0
 42 44  2  0  0  0  0
 42 43  1  0  0  0  0
 44 45  1  0  0  0  0
M  END
