4,10,26
q = -1.0, confidence = 0.0

 44 47  0  0  0  0  0  0  0  0999 V2000
    0.6650   -2.0539   -0.8744 O   0  0  0  0  0  0  0  0  0  0  0  0
   -3.5785   -0.1536   -0.1544 N   0  0  0  0  0  0  0  0  0  0  0  0
   -3.5953    1.8830    0.5723 N   0  0  0  0  0  0  0  0  0  0  0  0
   -1.5155   -1.1636   -0.5106 C   0  0  0  0  0  3  0  0  0  0  0  0
   -0.7058   -2.2383   -0.9094 C   0  0  0  0  0  0  0  0  0  0  0  0
   -1.2593   -3.4572   -1.3409 C   0  0  0  0  0  0  0  0  0  0  0  0
   -2.6562   -3.5843   -1.3808 C   0  0  0  0  0  0  0  0  0  0  0  0
   -3.5067   -2.5260   -0.9981 C   0  0  0  0  0  0  0  0  0  0  0  0
   -2.9106   -1.3381   -0.5680 C   0  0  0  0  0  0  0  0  0  0  0  0
   -2.7479    0.8843    0.1976 C   0  0  0  0  0  2  0  0  0  0  0  0
   -4.9093    0.1832   -0.0129 C   0  0  0  0  0  0  0  0  0  0  0  0
   -4.9222    1.4785    0.4474 C   0  0  0  0  0  0  0  0  0  0  0  0
   -3.1894    3.2110    1.0090 C   0  0  0  0  0  0  0  0  0  0  0  0
    2.3105    0.0898   -1.2573 C   0  0  0  0  0  0  0  0  0  0  0  0
    2.2469   -0.1692   -2.6421 C   0  0  0  0  0  0  0  0  0  0  0  0
    3.1743    0.4340   -3.5033 C   0  0  0  0  0  0  0  0  0  0  0  0
    4.1531    1.3030   -2.9931 C   0  0  0  0  0  0  0  0  0  0  0  0
    4.2149    1.5638   -1.6139 C   0  0  0  0  0  0  0  0  0  0  0  0
    3.2971    0.9592   -0.7424 C   0  0  0  0  0  0  0  0  0  0  0  0
    1.8487   -0.9699    1.4094 C   0  0  0  0  0  0  0  0  0  0  0  0
    3.0447   -1.7204    1.4279 C   0  0  0  0  0  0  0  0  0  0  0  0
    3.6267   -2.0583    2.6561 C   0  0  0  0  0  0  0  0  0  0  0  0
    3.0255   -1.6479    3.8594 C   0  0  0  0  0  0  0  0  0  0  0  0
    1.8369   -0.9010    3.8410 C   0  0  0  0  0  0  0  0  0  0  0  0
    1.2425   -0.5646    2.6164 C   0  0  0  0  0  0  0  0  0  0  0  0
    1.0302   -0.5634   -0.1549 P   0  0  0  0  0  0  0  0  0  0  0  0
   -0.5992   -4.2840   -1.6371 H   0  0  0  0  0  0  0  0  0  0  0  0
   -3.0988   -4.5323   -1.7194 H   0  0  0  0  0  0  0  0  0  0  0  0
   -4.5987   -2.6428   -1.0440 H   0  0  0  0  0  0  0  0  0  0  0  0
   -5.7314   -0.5032   -0.2346 H   0  0  0  0  0  0  0  0  0  0  0  0
   -5.7594    2.1368    0.6986 H   0  0  0  0  0  0  0  0  0  0  0  0
   -3.8809    3.5709    1.7932 H   0  0  0  0  0  0  0  0  0  0  0  0
   -3.2019    3.9242    0.1605 H   0  0  0  0  0  0  0  0  0  0  0  0
   -2.1692    3.1551    1.4241 H   0  0  0  0  0  0  0  0  0  0  0  0
    1.4826   -0.8545   -3.0373 H   0  0  0  0  0  0  0  0  0  0  0  0
    3.1349    0.2205   -4.5818 H   0  0  0  0  0  0  0  0  0  0  0  0
    4.8795    1.7718   -3.6736 H   0  0  0  0  0  0  0  0  0  0  0  0
    4.9963    2.2268   -1.2123 H   0  0  0  0  0  0  0  0  0  0  0  0
    3.3627    1.1403    0.3419 H   0  0  0  0  0  0  0  0  0  0  0  0
    3.5133   -2.0398    0.4845 H   0  0  0  0  0  0  0  0  0  0  0  0
    4.5556   -2.6473    2.6770 H   0  0  0  0  0  0  0  0  0  0  0  0
    3.4890   -1.9158    4.8208 H   0  0  0  0  0  0  0  0  0  0  0  0
    1.3679   -0.5851    4.7846 H   0  0  0  0  0  0  0  0  0  0  0  0
    0.3057    0.0144    2.5877 H   0  0  0  0  0  0  0  0  0  0  0  0
  1 26  1  0  0  0  0
  2 11  1  0  0  0  0
  2 10  1  0  0  0  0
  3 13  1  0  0  0  0
  5  1  1  0  0  0  0
  5  4  2  0  0  0  0
  6  5  1  0  0  0  0
  7  6  2  0  0  0  0
  7  8  1  0  0  0  0
  8  9  2  0  0  0  0
  9  4  1  0  0  0  0
  9  2  1  0  0  0  0
 10  3  1  0  0  0  0
 11 12  2  0  0  0  0
 12  3  1  0  0  0  0
 12 31  1  0  0  0  0
 13 34  1  0  0  0  0
 13 32  1  0  0  0  0
 14 19  1  0  0  0  0
 14 26  1  0  0  0  0
 15 14  2  0  0  0  0
 16 17  2  0  0  0  0
 16 15  1  0  0  0  0
 17 18  1  0  0  0  0
 18 38  1  0  0  0  0
 18 19  2  0  0  0  0
 19 39  1  0  0  0  0
 20 21  2  0  0  0  0
 20 25  1  0  0  0  0
 21 22  1  0  0  0  0
 22 41  1  0  0  0  0
 22 23  2  0  0  0  0
 23 42  1  0  0  0  0
 24 23  1  0  0  0  0
 24 43  1  0  0  0  0
 25 24  2  0  0  0  0
 26 20  1  0  0  0  0
 27  6  1  0  0  0  0
 28  7  1  0  0  0  0
 29  8  1  0  0  0  0
 30 11  1  0  0  0  0
 33 13  1  0  0  0  0
 35 15  1  0  0  0  0
 36 16  1  0  0  0  0
 37 17  1  0  0  0  0
 40 21  1  0  0  0  0
 44 25  1  0  0  0  0
M  END
