1,34,42
q = 0.0, confidence = 0.912

 54 58  0  0  1  0  0  0  0  0999 V2000
   -1.1283   -0.0296    0.0776 P   0  0  0  0  0  0  0  0  0  0  0  0
    3.9084   -2.0612   -0.1269 N   0  0  0  0  0  0  0  0  0  0  0  0
    3.7988    0.1017   -0.0332 N   0  0  0  0  0  0  0  0  0  0  0  0
   -0.3417    2.5678   -0.7830 N   0  0  0  0  0  0  0  0  0  0  0  0
   -2.4990    2.2475   -1.0646 N   0  0  0  0  0  0  0  0  0  0  0  0
   -1.7195    0.0594    1.8060 C   0  0  0  0  0  0  0  0  0  0  0  0
   -2.3151    1.2160    2.3499 C   0  0  0  0  0  0  0  0  0  0  0  0
   -2.4363    2.1266    1.7431 H   0  0  0  0  0  0  0  0  0  0  0  0
   -2.7423    1.2181    3.6862 C   0  0  0  0  0  0  0  0  0  0  0  0
   -3.2019    2.1232    4.1104 H   0  0  0  0  0  0  0  0  0  0  0  0
   -2.5805    0.0707    4.4784 C   0  0  0  0  0  0  0  0  0  0  0  0
   -2.9178    0.0752    5.5256 H   0  0  0  0  0  0  0  0  0  0  0  0
   -1.9795   -1.0781    3.9380 C   0  0  0  0  0  0  0  0  0  0  0  0
   -1.8419   -1.9746    4.5607 H   0  0  0  0  0  0  0  0  0  0  0  0
   -1.5381   -1.0896    2.6074 C   0  0  0  0  0  0  0  0  0  0  0  0
   -1.0455   -1.9789    2.1797 H   0  0  0  0  0  0  0  0  0  0  0  0
   -2.3609   -0.9771   -0.8858 C   0  0  0  0  0  0  0  0  0  0  0  0
   -3.4759   -1.5872   -0.2837 C   0  0  0  0  0  0  0  0  0  0  0  0
   -3.6415   -1.4948    0.8001 H   0  0  0  0  0  0  0  0  0  0  0  0
   -4.3749   -2.3183   -1.0750 C   0  0  0  0  0  0  0  0  0  0  0  0
   -5.2436   -2.8030   -0.6051 H   0  0  0  0  0  0  0  0  0  0  0  0
   -4.1655   -2.4358   -2.4583 C   0  0  0  0  0  0  0  0  0  0  0  0
   -4.8734   -3.0101   -3.0744 H   0  0  0  0  0  0  0  0  0  0  0  0
   -3.0424   -1.8367   -3.0550 C   0  0  0  0  0  0  0  0  0  0  0  0
   -2.8655   -1.9473   -4.1352 H   0  0  0  0  0  0  0  0  0  0  0  0
   -2.1301   -1.1191   -2.2699 C   0  0  0  0  0  0  0  0  0  0  0  0
   -1.2271   -0.6837   -2.7272 H   0  0  0  0  0  0  0  0  0  0  0  0
   -0.8488    3.6695   -1.4571 C   0  0  0  0  0  0  0  0  0  0  0  0
   -0.2124    4.4916   -1.7902 H   0  0  0  0  0  0  0  0  0  0  0  0
   -2.1950    3.4686   -1.6266 C   0  0  0  0  0  0  0  0  0  0  0  0
   -2.9527    4.0936   -2.1091 H   0  0  0  0  0  0  0  0  0  0  0  0
   -1.3614    1.6803   -0.5611 C   0  0  1  0  0  3  0  0  0  0  0  0
    1.0516    2.4786   -0.3909 C   0  0  0  0  0  0  0  0  0  0  0  0
    1.7241    1.2450   -0.2705 C   0  0  0  0  0  3  0  0  0  0  0  0
    3.1305    1.3511   -0.0577 C   0  0  0  0  0  0  0  0  0  0  0  0
    3.8127    2.5597    0.1027 C   0  0  0  0  0  0  0  0  0  0  0  0
    4.8979    2.5828    0.2744 H   0  0  0  0  0  0  0  0  0  0  0  0
    3.0782    3.7545    0.0650 C   0  0  0  0  0  0  0  0  0  0  0  0
    3.5791    4.7181    0.2328 H   0  0  0  0  0  0  0  0  0  0  0  0
    1.7066    3.7177   -0.1855 C   0  0  0  0  0  0  0  0  0  0  0  0
    1.1384    4.6578   -0.1882 H   0  0  0  0  0  0  0  0  0  0  0  0
    3.0285   -1.0291   -0.1554 C   0  0  0  0  0  2  0  0  0  0  0  0
    5.2106   -1.5852    0.0072 C   0  0  0  0  0  0  0  0  0  0  0  0
    6.0725   -2.2582    0.0466 H   0  0  0  0  0  0  0  0  0  0  0  0
    5.1446   -0.2164    0.0684 C   0  0  0  0  0  0  0  0  0  0  0  0
    5.9376    0.5284    0.1727 H   0  0  0  0  0  0  0  0  0  0  0  0
    3.5669   -3.4757   -0.2494 C   0  0  0  0  0  0  0  0  0  0  0  0
    2.4683   -3.5789   -0.1665 H   0  0  0  0  0  0  0  0  0  0  0  0
    4.0580   -4.0444    0.5628 H   0  0  0  0  0  0  0  0  0  0  0  0
    3.9111   -3.8629   -1.2283 H   0  0  0  0  0  0  0  0  0  0  0  0
   -3.8518    1.6890   -1.0306 C   0  0  0  0  0  0  0  0  0  0  0  0
   -4.0314    1.1980   -0.0591 H   0  0  0  0  0  0  0  0  0  0  0  0
   -3.9855    0.9461   -1.8396 H   0  0  0  0  0  0  0  0  0  0  0  0
   -4.5676    2.5202   -1.1582 H   0  0  0  0  0  0  0  0  0  0  0  0
  1  6  1  0  0  0  0
  2 43  1  0  0  0  0
  3 45  1  0  0  0  0
  4 32  1  0  0  0  0
  4 33  1  0  0  0  0
  5 51  1  0  0  0  0
  5 32  1  0  0  0  0
  6  7  2  0  0  0  0
  6 15  1  0  0  0  0
  7  9  1  0  0  0  0
  8  7  1  0  0  0  0
  9 10  1  0  0  0  0
  9 11  2  0  0  0  0
 11 12  1  0  0  0  0
 13 11  1  0  0  0  0
 13 14  1  0  0  0  0
 15 13  2  0  0  0  0
 16 15  1  0  0  0  0
 17 18  1  0  0  0  0
 17  1  1  0  0  0  0
 18 19  1  0  0  0  0
 20 21  1  0  0  0  0
 20 18  2  0  0  0  0
 22 20  1  0  0  0  0
 23 22  1  0  0  0  0
 24 22  2  0  0  0  0
 24 26  1  0  0  0  0
 25 24  1  0  0  0  0
 26 17  2  0  0  0  0
 27 26  1  0  0  0  0
 28  4  1  0  0  0  0
 29 28  1  0  0  0  0
 30 28  2  0  0  0  0
 30  5  1  0  0  0  0
 31 30  1  0  0  0  0
 32  1  1  6  0  0  0
 33 34  2  0  0  0  0
 33 40  1  0  0  0  0
 34 35  1  0  0  0  0
 35  3  1  0  0  0  0
 35 36  2  0  0  0  0
 36 37  1  0  0  0  0
 38 36  1  0  0  0  0
 38 39  1  0  0  0  0
 40 38  2  0  0  0  0
 41 40  1  0  0  0  0
 42  2  1  0  0  0  0
 42  3  1  0  0  0  0
 43 44  1  0  0  0  0
 43 45  2  0  0  0  0
 45 46  1  0  0  0  0
 47 48  1  0  0  0  0
 47  2  1  0  0  0  0
 47 49  1  0  0  0  0
 50 47  1  0  0  0  0
 51 52  1  0  0  0  0
 53 51  1  0  0  0  0
 54 51  1  0  0  0  0
M  END
