1,3,47
q = -1.0

 48 49  0  0  0  0  0  0  0  0999 V2000
    1.5035    0.3768   -0.0540 P   0  0  0  0  0  0  0  0  0  0  0  0
   -2.6143   -1.3517   -1.4915 N   0  0  0  0  0  0  0  0  0  0  0  0
   -1.1275    1.0240    0.5271 C   0  0  0  0  0  3  0  0  0  0  0  0
   -0.3308    2.2026    0.6289 C   0  0  0  0  0  0  0  0  0  0  0  0
   -0.9279    3.4746    0.6567 C   0  0  0  0  0  0  0  0  0  0  0  0
   -0.2908    4.3699    0.7334 H   0  0  0  0  0  0  0  0  0  0  0  0
   -2.3199    3.6026    0.5802 C   0  0  0  0  0  0  0  0  0  0  0  0
   -2.7909    4.5966    0.5998 H   0  0  0  0  0  0  0  0  0  0  0  0
   -3.1072    2.4502    0.4822 C   0  0  0  0  0  0  0  0  0  0  0  0
   -4.2042    2.5443    0.4305 H   0  0  0  0  0  0  0  0  0  0  0  0
   -2.5446    1.1544    0.4578 C   0  0  0  0  0  0  0  0  0  0  0  0
    1.1662    2.0456    0.6828 C   0  0  0  0  0  0  0  0  0  0  0  0
    1.5235    2.0113    1.7342 H   0  0  0  0  0  0  0  0  0  0  0  0
    1.7126    2.8680    0.1784 H   0  0  0  0  0  0  0  0  0  0  0  0
    1.8566    0.6712   -1.8983 C   0  0  0  0  0  0  0  0  0  0  0  0
    2.9873   -0.3167    0.9204 C   0  0  0  0  0  0  0  0  0  0  0  0
    2.4562   -0.6441    2.3320 C   0  0  0  0  0  0  0  0  0  0  0  0
    3.2936   -1.0359    2.9473 H   0  0  0  0  0  0  0  0  0  0  0  0
    1.6551   -1.4104    2.3052 H   0  0  0  0  0  0  0  0  0  0  0  0
    2.0503    0.2473    2.8509 H   0  0  0  0  0  0  0  0  0  0  0  0
    3.4828   -1.6144    0.2610 C   0  0  0  0  0  0  0  0  0  0  0  0
    4.2080   -2.1135    0.9374 H   0  0  0  0  0  0  0  0  0  0  0  0
    4.0002   -1.4241   -0.6987 H   0  0  0  0  0  0  0  0  0  0  0  0
    2.6509   -2.3243    0.0761 H   0  0  0  0  0  0  0  0  0  0  0  0
    4.1312    0.7051    1.0408 C   0  0  0  0  0  0  0  0  0  0  0  0
    3.7990    1.6550    1.5049 H   0  0  0  0  0  0  0  0  0  0  0  0
    4.6010    0.9401    0.0692 H   0  0  0  0  0  0  0  0  0  0  0  0
    4.9202    0.2806    1.6973 H   0  0  0  0  0  0  0  0  0  0  0  0
    1.9014   -0.6755   -2.6416 C   0  0  0  0  0  0  0  0  0  0  0  0
    0.9571   -1.2356   -2.4795 H   0  0  0  0  0  0  0  0  0  0  0  0
    2.7646   -1.2992   -2.3447 H   0  0  0  0  0  0  0  0  0  0  0  0
    1.9958   -0.4716   -3.7293 H   0  0  0  0  0  0  0  0  0  0  0  0
    0.6562    1.4828   -2.4270 C   0  0  0  0  0  0  0  0  0  0  0  0
    0.5787    2.4875   -1.9679 H   0  0  0  0  0  0  0  0  0  0  0  0
   -0.2906    0.9311   -2.2630 H   0  0  0  0  0  0  0  0  0  0  0  0
    0.7888    1.6210   -3.5208 H   0  0  0  0  0  0  0  0  0  0  0  0
    3.1591    1.4574   -2.1148 C   0  0  0  0  0  0  0  0  0  0  0  0
    3.2227    1.7449   -3.1855 H   0  0  0  0  0  0  0  0  0  0  0  0
    4.0573    0.8516   -1.8872 H   0  0  0  0  0  0  0  0  0  0  0  0
    3.2040    2.3928   -1.5206 H   0  0  0  0  0  0  0  0  0  0  0  0
   -3.7348   -0.5373   -1.0965 C   0  0  0  0  0  0  0  0  0  0  0  0
   -4.6400   -1.1786   -1.1316 H   0  0  0  0  0  0  0  0  0  0  0  0
   -3.8506    0.3079   -1.8060 H   0  0  0  0  0  0  0  0  0  0  0  0
   -3.5029   -0.0131    0.3473 C   0  0  0  0  0  0  0  0  0  0  0  0
   -3.1680   -0.8676    0.9722 H   0  0  0  0  0  0  0  0  0  0  0  0
   -4.4935    0.3075    0.7268 H   0  0  0  0  0  0  0  0  0  0  0  0
   -1.2258   -1.3771   -1.6137 C   0  0  0  0  0  2  0  0  0  0  0  0
   -2.1373   -2.5799   -1.3561 C   0  0  0  0  0  2  0  0  0  0  0  0
  1 12  1  0  0  0  0
  1 16  1  0  0  0  0
  2 48  1  0  0  0  0
  2 41  1  0  0  0  0
  3  4  1  0  0  0  0
  4  5  2  0  0  0  0
  4 12  1  0  0  0  0
  5  6  1  0  0  0  0
  7  8  1  0  0  0  0
  7  5  1  0  0  0  0
  9  7  2  0  0  0  0
 10  9  1  0  0  0  0
 11  9  1  0  0  0  0
 11  3  2  0  0  0  0
 12 13  1  0  0  0  0
 14 12  1  0  0  0  0
 15  1  1  0  0  0  0
 16 25  1  0  0  0  0
 16 17  1  0  0  0  0
 17 20  1  0  0  0  0
 17 18  1  0  0  0  0
 19 17  1  0  0  0  0
 21 16  1  0  0  0  0
 21 22  1  0  0  0  0
 23 21  1  0  0  0  0
 24 21  1  0  0  0  0
 25 26  1  0  0  0  0
 25 28  1  0  0  0  0
 27 25  1  0  0  0  0
 29 30  1  0  0  0  0
 29 31  1  0  0  0  0
 29 15  1  0  0  0  0
 32 29  1  0  0  0  0
 33 35  1  0  0  0  0
 33 34  1  0  0  0  0
 33 15  1  0  0  0  0
 36 33  1  0  0  0  0
 37 15  1  0  0  0  0
 37 39  1  0  0  0  0
 37 40  1  0  0  0  0
 38 37  1  0  0  0  0
 41 44  1  0  0  0  0
 42 41  1  0  0  0  0
 43 41  1  0  0  0  0
 44 11  1  0  0  0  0
 44 46  1  0  0  0  0
 44 45  1  0  0  0  0
 47  2  1  0  0  0  0
 47 48  1  0  0  0  0
M  END
