18,23,34,37,41
 OpenBabel05122313063D

 66 69  0  0  1  0  0  0  0  0999 V2000
   -1.2960   -0.8656   -2.5876 O   0  0  0  0  0  0  0  0  0  0  0  0
   -6.3009   -1.9544    1.7222 C   0  0  0  0  0  0  0  0  0  0  0  0
   -7.1425   -2.2564    1.0670 H   0  0  0  0  0  0  0  0  0  0  0  0
   -6.5560   -0.9530    2.1324 H   0  0  0  0  0  0  0  0  0  0  0  0
   -6.2562   -2.6594    2.5751 H   0  0  0  0  0  0  0  0  0  0  0  0
   -4.9978   -1.9057    0.9660 C   0  0  0  0  0  0  0  0  0  0  0  0
   -3.7950   -2.3497    1.5566 C   0  0  0  0  0  0  0  0  0  0  0  0
   -3.8180   -2.7743    2.5731 H   0  0  0  0  0  0  0  0  0  0  0  0
   -2.5757   -2.2531    0.8760 C   0  0  0  0  0  0  0  0  0  0  0  0
   -1.6398   -2.5781    1.3535 H   0  0  0  0  0  0  0  0  0  0  0  0
   -2.5512   -1.7025   -0.4130 C   0  0  0  0  0  0  0  0  0  0  0  0
   -3.7316   -1.2792   -1.0349 C   0  0  0  0  0  0  0  0  0  0  0  0
   -3.6749   -0.8534   -2.0464 H   0  0  0  0  0  0  0  0  0  0  0  0
   -4.9441   -1.3808   -0.3412 C   0  0  0  0  0  0  0  0  0  0  0  0
   -5.8716   -1.0324   -0.8227 H   0  0  0  0  0  0  0  0  0  0  0  0
   -0.4425   -2.9461   -1.3442 O   0  0  0  0  0  0  0  0  0  0  0  0
   -0.9878   -1.5646   -1.3126 S   0  0  0  0  0  0  0  0  0  0  0  0
   -0.0218   -0.6194   -0.2960 N   0  0  0  0  0  2  0  0  0  0  0  0
   -0.2624    0.8191   -0.5100 C   0  0  2  0  0  0  0  0  0  0  0  0
   -0.0134    1.1005   -1.5580 H   0  0  0  0  0  0  0  0  0  0  0  0
    0.6965    1.5793    0.4244 C   0  0  1  0  0  0  0  0  0  0  0  0
    0.4075    1.3502    1.4704 H   0  0  0  0  0  0  0  0  0  0  0  0
    2.0686    1.0360    0.2248 N   0  0  0  0  0  0  0  0  0  0  0  0
    2.3628    1.2748   -0.7450 H   0  0  0  0  0  0  0  0  0  0  0  0
    3.0617    1.5722    1.1816 C   0  0  0  0  0  0  0  0  0  0  0  0
    2.8752    2.6607    1.3035 H   0  0  0  0  0  0  0  0  0  0  0  0
    4.0622    1.4632    0.7141 H   0  0  0  0  0  0  0  0  0  0  0  0
    3.0418    0.8822    2.5468 C   0  0  0  0  0  0  0  0  0  0  0  0
    1.9905    0.7315    2.8730 H   0  0  0  0  0  0  0  0  0  0  0  0
    3.4966    1.5641    3.2944 H   0  0  0  0  0  0  0  0  0  0  0  0
    3.8065   -0.4515    2.5685 C   0  0  0  0  0  0  0  0  0  0  0  0
    4.8796   -0.2516    2.3690 H   0  0  0  0  0  0  0  0  0  0  0  0
    3.7511   -0.8921    3.5860 H   0  0  0  0  0  0  0  0  0  0  0  0
    3.3061   -1.4716    1.5706 C   0  0  0  0  0  3  0  0  0  0  0  0
    2.0432   -2.1308    1.7847 C   0  0  0  0  0  3  0  0  0  0  0  0
    1.4461   -1.9038    2.6802 H   0  0  0  0  0  0  0  0  0  0  0  0
    1.5241   -2.9895    0.7691 C   0  0  0  0  0  3  0  0  0  0  0  0
    0.5019   -3.3845    0.8443 H   0  0  0  0  0  0  0  0  0  0  0  0
    2.2519   -3.2422   -0.4341 C   0  0  0  0  0  3  0  0  0  0  0  0
    1.7747   -3.8039   -1.2452 H   0  0  0  0  0  0  0  0  0  0  0  0
    3.5121   -2.5917   -0.6242 C   0  0  0  0  0  3  0  0  0  0  0  0
    4.0180   -2.6703   -1.5974 H   0  0  0  0  0  0  0  0  0  0  0  0
    4.0687   -1.7541    0.3841 C   0  0  0  0  0  3  0  0  0  0  0  0
    5.0152   -1.2248    0.2025 H   0  0  0  0  0  0  0  0  0  0  0  0
   -1.6876    1.2718   -0.2222 C   0  0  0  0  0  0  0  0  0  0  0  0
   -2.4287    1.9458   -1.2070 C   0  0  0  0  0  0  0  0  0  0  0  0
   -1.9779    2.1030   -2.1981 H   0  0  0  0  0  0  0  0  0  0  0  0
   -3.7332    2.3887   -0.9394 C   0  0  0  0  0  0  0  0  0  0  0  0
   -4.3043    2.9120   -1.7215 H   0  0  0  0  0  0  0  0  0  0  0  0
   -4.3116    2.1567    0.3177 C   0  0  0  0  0  0  0  0  0  0  0  0
   -5.3380    2.4961    0.5259 H   0  0  0  0  0  0  0  0  0  0  0  0
   -3.5788    1.4789    1.3067 C   0  0  0  0  0  0  0  0  0  0  0  0
   -4.0320    1.2778    2.2896 H   0  0  0  0  0  0  0  0  0  0  0  0
   -2.2749    1.0440    1.0375 C   0  0  0  0  0  0  0  0  0  0  0  0
   -1.7126    0.4835    1.7999 H   0  0  0  0  0  0  0  0  0  0  0  0
    0.6302    3.0771    0.1965 C   0  0  0  0  0  0  0  0  0  0  0  0
    0.1092    3.9338    1.1829 C   0  0  0  0  0  0  0  0  0  0  0  0
   -0.2417    3.5072    2.1356 H   0  0  0  0  0  0  0  0  0  0  0  0
    0.0140    5.3148    0.9529 C   0  0  0  0  0  0  0  0  0  0  0  0
   -0.4012    5.9722    1.7317 H   0  0  0  0  0  0  0  0  0  0  0  0
    0.4432    5.8542   -0.2694 C   0  0  0  0  0  0  0  0  0  0  0  0
    0.3692    6.9370   -0.4519 H   0  0  0  0  0  0  0  0  0  0  0  0
    0.9634    5.0065   -1.2612 C   0  0  0  0  0  0  0  0  0  0  0  0
    1.2952    5.4223   -2.2246 H   0  0  0  0  0  0  0  0  0  0  0  0
    1.0534    3.6263   -1.0318 C   0  0  0  0  0  0  0  0  0  0  0  0
    1.4475    2.9662   -1.8226 H   0  0  0  0  0  0  0  0  0  0  0  0
  1 17  2  0  0  0  0
  2  4  1  0  0  0  0
  2  5  1  0  0  0  0
  3  2  1  0  0  0  0
  6  7  1  0  0  0  0
  6  2  1  0  0  0  0
  7  8  1  0  0  0  0
  9 10  1  0  0  0  0
  9  7  2  0  0  0  0
 11  9  1  0  0  0  0
 12 11  2  0  0  0  0
 12 14  1  0  0  0  0
 13 12  1  0  0  0  0
 14  6  2  0  0  0  0
 15 14  1  0  0  0  0
 16 17  2  0  0  0  0
 17 11  1  0  0  0  0
 17 18  1  0  0  0  0
 19 20  1  6  0  0  0
 19 18  1  0  0  0  0
 19 45  1  0  0  0  0
 19 21  1  0  0  0  0
 21 22  1  1  0  0  0
 23 21  1  0  0  0  0
 23 25  1  0  0  0  0
 24 23  1  0  0  0  0
 25 26  1  0  0  0  0
 25 28  1  0  0  0  0
 27 25  1  0  0  0  0
 28 31  1  0  0  0  0
 28 29  1  0  0  0  0
 28 30  1  0  0  0  0
 31 33  1  0  0  0  0
 32 31  1  0  0  0  0
 34 35  1  0  0  0  0
 34 31  1  0  0  0  0
 35 36  1  0  0  0  0
 37 38  1  0  0  0  0
 37 35  1  0  0  0  0
 39 37  1  0  0  0  0
 40 39  1  0  0  0  0
 41 39  1  0  0  0  0
 41 43  1  0  0  0  0
 42 41  1  0  0  0  0
 43 34  1  0  0  0  0
 44 43  1  0  0  0  0
 45 54  1  0  0  0  0
 46 48  1  0  0  0  0
 46 45  2  0  0  0  0
 47 46  1  0  0  0  0
 48 50  2  0  0  0  0
 49 48  1  0  0  0  0
 50 51  1  0  0  0  0
 50 52  1  0  0  0  0
 52 53  1  0  0  0  0
 54 52  2  0  0  0  0
 54 55  1  0  0  0  0
 56 21  1  0  0  0  0
 56 57  1  0  0  0  0
 57 58  1  0  0  0  0
 59 57  2  0  0  0  0
 59 60  1  0  0  0  0
 61 59  1  0  0  0  0
 62 61  1  0  0  0  0
 63 65  1  0  0  0  0
 63 61  2  0  0  0  0
 64 63  1  0  0  0  0
 65 56  2  0  0  0  0
 66 65  1  0  0  0  0
M  END
