1,5
q = -1.0, confidence = 0.018

 41 42  0  0  0  0  0  0  0  0999 V2000
   -1.7862    0.2109    0.4705 O   0  5  0  0  0  0  0  0  0  0  0  0
   -2.5415    1.2699    0.3661 C   0  0  0  0  0  0  0  0  0  0  0  0
   -2.0022    2.5958    0.1654 C   0  0  0  0  0  0  0  0  0  0  0  0
   -0.6092    2.8194    0.0807 C   0  0  0  0  0  0  0  0  0  0  0  0
    0.3452    1.8937    0.0939 N   0  0  0  0  0  2  0  0  0  0  0  0
    1.6830    2.3622    0.0721 C   0  0  0  0  0  0  0  0  0  0  0  0
    2.5795    1.9631    1.0891 C   0  0  0  0  0  0  0  0  0  0  0  0
    3.8934    2.4273    1.0958 C   0  0  0  0  0  0  0  0  0  0  0  0
    4.3202    3.2803    0.0628 C   0  0  0  0  0  0  0  0  0  0  0  0
    5.7147    3.7560    0.0474 N   0  0  0  0  0  0  0  0  0  0  0  0
    6.4650    3.3577    0.9458 O   0  0  0  0  0  0  0  0  0  0  0  0
    6.0518    4.5184   -0.8603 O   0  0  0  0  0  0  0  0  0  0  0  0
    3.4522    3.6867   -0.9600 C   0  0  0  0  0  0  0  0  0  0  0  0
    2.1330    3.2251   -0.9510 C   0  0  0  0  0  0  0  0  0  0  0  0
    1.4434    3.5037   -1.7610 H   0  0  0  0  0  0  0  0  0  0  0  0
    3.8340    4.3466   -1.7501 H   0  0  0  0  0  0  0  0  0  0  0  0
    4.6054    2.1467    1.8825 H   0  0  0  0  0  0  0  0  0  0  0  0
    2.2191    1.2824    1.8724 H   0  0  0  0  0  0  0  0  0  0  0  0
   -0.2792    3.8761    0.0491 H   0  0  0  0  0  0  0  0  0  0  0  0
   -2.9129    3.6917    0.1260 C   0  0  0  0  0  3  0  0  0  0  0  0
   -4.2773    3.5240    0.2477 C   0  0  0  0  0  0  0  0  0  0  0  0
   -4.8359    2.2067    0.4317 C   0  0  0  0  0  0  0  0  0  0  0  0
   -6.1978    2.0311    0.5622 N   0  0  0  0  0  0  0  0  0  0  0  0
   -6.7720    0.6860    0.5935 C   0  0  0  0  0  0  0  0  0  0  0  0
   -6.8727    0.0083   -0.7766 C   0  0  0  0  0  0  0  0  0  0  0  0
   -7.1997   -1.0455   -0.6760 H   0  0  0  0  0  0  0  0  0  0  0  0
   -7.5903    0.5341   -1.4368 H   0  0  0  0  0  0  0  0  0  0  0  0
   -5.8869    0.0044   -1.2821 H   0  0  0  0  0  0  0  0  0  0  0  0
   -7.7770    0.7686    1.0548 H   0  0  0  0  0  0  0  0  0  0  0  0
   -6.1735    0.0586    1.2868 H   0  0  0  0  0  0  0  0  0  0  0  0
   -7.1218    3.1592    0.4914 C   0  0  0  0  0  0  0  0  0  0  0  0
   -7.4800    3.6171   -0.9272 C   0  0  0  0  0  0  0  0  0  0  0  0
   -8.1559    4.4956   -0.8908 H   0  0  0  0  0  0  0  0  0  0  0  0
   -7.9937    2.8157   -1.4935 H   0  0  0  0  0  0  0  0  0  0  0  0
   -6.5732    3.9039   -1.4960 H   0  0  0  0  0  0  0  0  0  0  0  0
   -8.0431    2.8587    1.0314 H   0  0  0  0  0  0  0  0  0  0  0  0
   -6.6997    4.0062    1.0710 H   0  0  0  0  0  0  0  0  0  0  0  0
   -3.9432    1.1112    0.4824 C   0  0  0  0  0  0  0  0  0  0  0  0
   -4.2930    0.0825    0.6224 H   0  0  0  0  0  0  0  0  0  0  0  0
   -4.9271    4.4049    0.1947 H   0  0  0  0  0  0  0  0  0  0  0  0
   -2.5053    4.7061   -0.0127 H   0  0  0  0  0  0  0  0  0  0  0  0
  2  1  1  0  0  0  0
  2 38  2  0  0  0  0
  3  2  1  0  0  0  0
  4  5  1  0  0  0  0
  4  3  2  0  0  0  0
  6  5  1  0  0  0  0
  6  7  1  0  0  0  0
  7  8  2  0  0  0  0
  7 18  1  0  0  0  0
  8 17  1  0  0  0  0
  9  8  1  0  0  0  0
 10  9  1  0  0  0  0
 10 11  2  0  0  0  0
 12 10  2  0  0  0  0
 13 14  1  0  0  0  0
 13  9  2  0  0  0  0
 14  6  2  0  0  0  0
 15 14  1  0  0  0  0
 16 13  1  0  0  0  0
 19  4  1  0  0  0  0
 20  3  1  0  0  0  0
 20 21  1  0  0  0  0
 21 22  2  0  0  0  0
 22 38  1  0  0  0  0
 22 23  1  0  0  0  0
 23 24  1  0  0  0  0
 24 29  1  0  0  0  0
 24 30  1  0  0  0  0
 25 26  1  0  0  0  0
 25 24  1  0  0  0  0
 27 25  1  0  0  0  0
 28 25  1  0  0  0  0
 31 23  1  0  0  0  0
 31 36  1  0  0  0  0
 31 37  1  0  0  0  0
 32 33  1  0  0  0  0
 32 31  1  0  0  0  0
 34 32  1  0  0  0  0
 35 32  1  0  0  0  0
 38 39  1  0  0  0  0
 40 21  1  0  0  0  0
 41 20  1  0  0  0  0
M  CHG  1   1  -1
M  END
