1,2
q = -1.0, confidence = 0.0

 25 26  0  0  0  0  0  0  0  0999 V2000
    1.7874    0.5740    1.1339 O   0  5  0  0  0  0  0  0  0  0  0  0
    0.5663   -1.6895   -0.2258 N   0  0  0  0  0  2  0  0  0  0  0  0
    2.8658    0.1750    0.5272 C   0  0  0  0  0  0  0  0  0  0  0  0
    4.0825    0.8905    0.7693 C   0  0  0  0  0  0  0  0  0  0  0  0
    5.2556    0.5802    0.0921 C   0  0  0  0  0  0  0  0  0  0  0  0
    5.2968   -0.4778   -0.8502 C   0  0  0  0  0  0  0  0  0  0  0  0
    4.1411   -1.2143   -1.0770 C   0  0  0  0  0  3  0  0  0  0  0  0
    2.9174   -0.9281   -0.4059 C   0  0  0  0  0  0  0  0  0  0  0  0
    1.7970   -1.7714   -0.6948 C   0  0  0  0  0  0  0  0  0  0  0  0
   -0.3126   -2.7441   -0.6059 C   0  0  0  0  0  0  0  0  0  0  0  0
    0.0214   -4.0862   -0.3266 C   0  0  0  0  0  0  0  0  0  0  0  0
   -0.8440   -5.1237   -0.7081 C   0  0  0  0  0  0  0  0  0  0  0  0
   -2.0425   -4.8364   -1.3793 C   0  0  0  0  0  0  0  0  0  0  0  0
   -2.3730   -3.4995   -1.6626 C   0  0  0  0  0  0  0  0  0  0  0  0
   -1.5211   -2.4595   -1.2714 C   0  0  0  0  0  0  0  0  0  0  0  0
    4.0392    1.7149    1.4964 H   0  0  0  0  0  0  0  0  0  0  0  0
    6.1655    1.1683    0.2924 H   0  0  0  0  0  0  0  0  0  0  0  0
    6.2280   -0.7162   -1.3837 H   0  0  0  0  0  0  0  0  0  0  0  0
    4.1506   -2.0479   -1.7979 H   0  0  0  0  0  0  0  0  0  0  0  0
    1.9985   -2.5990   -1.4024 H   0  0  0  0  0  0  0  0  0  0  0  0
    0.9545   -4.3024    0.2148 H   0  0  0  0  0  0  0  0  0  0  0  0
   -0.5797   -6.1657   -0.4712 H   0  0  0  0  0  0  0  0  0  0  0  0
   -2.7198   -5.6506   -1.6773 H   0  0  0  0  0  0  0  0  0  0  0  0
   -3.3083   -3.2611   -2.1920 H   0  0  0  0  0  0  0  0  0  0  0  0
   -1.7820   -1.4123   -1.4690 H   0  0  0  0  0  0  0  0  0  0  0  0
  3  4  2  0  0  0  0
  3  1  1  0  0  0  0
  4 16  1  0  0  0  0
  5 17  1  0  0  0  0
  5  4  1  0  0  0  0
  6  5  2  0  0  0  0
  7  6  1  0  0  0  0
  7  8  1  0  0  0  0
  8  3  1  0  0  0  0
  9  8  2  0  0  0  0
  9  2  1  0  0  0  0
 10 11  1  0  0  0  0
 10  2  1  0  0  0  0
 11 21  1  0  0  0  0
 12 22  1  0  0  0  0
 12 11  2  0  0  0  0
 13 12  1  0  0  0  0
 14 13  2  0  0  0  0
 14 15  1  0  0  0  0
 15 10  2  0  0  0  0
 18  6  1  0  0  0  0
 19  7  1  0  0  0  0
 20  9  1  0  0  0  0
 23 13  1  0  0  0  0
 24 14  1  0  0  0  0
 25 15  1  0  0  0  0
M  CHG  1   1  -1
M  END
