1,5
q = -1.0, confidence = 0.014

 19 20  0  0  1  0  0  0  0  0999 V2000
    0.6774    1.7358    0.1584 O   0  5  0  0  0  0  0  0  0  0  0  0
    1.9965    1.8438    0.2068 C   0  0  0  0  0  0  0  0  0  0  0  0
    2.5900    2.9036    0.3643 O   0  0  0  0  0  0  0  0  0  0  0  0
    2.6760    0.5008    0.0106 C   0  0  0  0  0  0  0  0  0  0  0  0
    1.7949   -0.4977   -0.1788 N   0  0  0  0  0  2  0  0  0  0  0  0
    2.2091   -1.7814   -0.3885 C   0  0  0  0  0  0  0  0  0  0  0  0
    3.5524   -2.0998   -0.4146 C   0  0  0  0  0  0  0  0  0  0  0  0
    4.5344   -1.0885   -0.2180 C   0  0  1  0  0  3  0  0  0  0  0  0
    4.0837    0.2660    0.0027 C   0  0  0  0  0  0  0  0  0  0  0  0
    5.0477    1.2994    0.2026 C   0  0  0  0  0  0  0  0  0  0  0  0
    6.4002    0.9936    0.1854 C   0  0  0  0  0  0  0  0  0  0  0  0
    6.8457   -0.3390   -0.0310 C   0  0  0  0  0  0  0  0  0  0  0  0
    5.9310   -1.3624   -0.2297 C   0  0  0  0  0  0  0  0  0  0  0  0
    6.2688   -2.3964   -0.3971 H   0  0  0  0  0  0  0  0  0  0  0  0
    7.9243   -0.5573   -0.0401 H   0  0  0  0  0  0  0  0  0  0  0  0
    7.1402    1.7930    0.3414 H   0  0  0  0  0  0  0  0  0  0  0  0
    4.6797    2.3213    0.3660 H   0  0  0  0  0  0  0  0  0  0  0  0
    3.8619   -3.1414   -0.5854 H   0  0  0  0  0  0  0  0  0  0  0  0
    1.4046   -2.5184   -0.5264 H   0  0  0  0  0  0  0  0  0  0  0  0
  1  2  1  0  0  0  0
  2  3  2  0  0  0  0
  4  2  1  0  0  0  0
  5  4  1  0  0  0  0
  6  5  1  0  0  0  0
  7  6  2  0  0  0  0
  8  7  1  1  0  0  0
  8  9  1  0  0  0  0
  9  4  2  0  0  0  0
  9 10  1  0  0  0  0
 10 17  1  0  0  0  0
 11 10  2  0  0  0  0
 11 16  1  0  0  0  0
 12 11  1  0  0  0  0
 13  8  1  0  0  0  0
 13 12  2  0  0  0  0
 14 13  1  0  0  0  0
 15 12  1  0  0  0  0
 18  7  1  0  0  0  0
 19  6  1  0  0  0  0
M  CHG  1   1  -1
M  END
