1,2
q = -1.0, confidence = 0.018

 21 21  0  0  1  0  0  0  0  0999 V2000
    1.6816    0.5239    0.7115 N   0  0  0  0  0  2  0  0  0  0  0  0
    1.2312   -1.0784   -1.3745 O   0  5  0  0  0  0  0  0  0  0  0  0
    3.4257   -1.4263   -1.7355 O   0  0  0  0  0  0  0  0  0  0  0  0
    5.1160   -0.2051   -0.0725 O   0  0  0  0  0  0  0  0  0  0  0  0
    2.4993   -0.9225   -1.1046 C   0  0  0  0  0  0  0  0  0  0  0  0
    2.7686    0.0026    0.0969 C   0  0  1  0  0  3  0  0  0  0  0  0
    4.0758    0.3412    0.5636 C   0  0  0  0  0  0  0  0  0  0  0  0
    4.1982    1.2231    1.6611 C   0  0  0  0  0  0  0  0  0  0  0  0
    5.1877    1.5030    2.0459 H   0  0  0  0  0  0  0  0  0  0  0  0
    3.0417    1.7407    2.2555 C   0  0  0  0  0  0  0  0  0  0  0  0
    3.1100    2.4316    3.1081 H   0  0  0  0  0  0  0  0  0  0  0  0
    1.7908    1.3729    1.7573 C   0  0  0  0  0  0  0  0  0  0  0  0
    0.8475    1.7436    2.1844 H   0  0  0  0  0  0  0  0  0  0  0  0
    6.4504    0.0833    0.3172 C   0  0  0  0  0  0  0  0  0  0  0  0
    6.6181   -0.2168    1.3810 H   0  0  0  0  0  0  0  0  0  0  0  0
    6.6420    1.1834    0.2625 H   0  0  0  0  0  0  0  0  0  0  0  0
    7.3800   -0.6617   -0.5966 C   0  0  0  0  0  0  0  0  0  0  0  0
    8.4529   -0.5172   -0.3794 H   0  0  0  0  0  0  0  0  0  0  0  0
    6.9685   -1.4472   -1.6054 C   0  0  0  0  0  0  0  0  0  0  0  0
    5.8936   -1.5842   -1.8138 H   0  0  0  0  0  0  0  0  0  0  0  0
    7.7017   -1.9671   -2.2408 H   0  0  0  0  0  0  0  0  0  0  0  0
  1 12  1  0  0  0  0
  2  5  1  0  0  0  0
  3  5  2  0  0  0  0
  4 14  1  0  0  0  0
  4  7  1  0  0  0  0
  6  5  1  6  0  0  0
  6  7  1  0  0  0  0
  6  1  1  0  0  0  0
  7  8  2  0  0  0  0
  8  9  1  0  0  0  0
  8 10  1  0  0  0  0
 10 11  1  0  0  0  0
 12 13  1  0  0  0  0
 12 10  2  0  0  0  0
 14 15  1  0  0  0  0
 16 14  1  0  0  0  0
 17 18  1  0  0  0  0
 17 14  1  0  0  0  0
 19 17  2  0  0  0  0
 20 19  1  0  0  0  0
 21 19  1  0  0  0  0
M  CHG  1   2  -1
M  END
