1,4
q = -1.0, confidence = 0.0

 17 17  0  0  0  0  0  0  0  0999 V2000
    0.8957   -0.7670   -1.8079 O   0  5  0  0  0  0  0  0  0  0  0  0
    2.9834   -1.2209   -2.5304 O   0  0  0  0  0  0  0  0  0  0  0  0
    4.9839   -0.8057   -0.8025 O   0  0  0  0  0  0  0  0  0  0  0  0
    1.7649    0.0837    0.5684 N   0  0  0  0  0  2  0  0  0  0  0  0
    2.0879    0.5665    1.7886 C   0  0  0  0  0  3  0  0  0  0  0  0
    1.2499    0.9091    2.4137 H   0  0  0  0  0  0  0  0  0  0  0  0
    3.4164    0.6123    2.2114 C   0  0  0  0  0  0  0  0  0  0  0  0
    3.6625    1.0067    3.2079 H   0  0  0  0  0  0  0  0  0  0  0  0
    4.4247    0.1518    1.3564 C   0  0  0  0  0  0  0  0  0  0  0  0
    5.4725    0.1808    1.6826 H   0  0  0  0  0  0  0  0  0  0  0  0
    4.0812   -0.3447    0.0785 C   0  0  0  0  0  0  0  0  0  0  0  0
    2.7029   -0.3622   -0.2991 C   0  0  0  0  0  0  0  0  0  0  0  0
    2.1928   -0.8405   -1.6720 C   0  0  0  0  0  0  0  0  0  0  0  0
    6.3559   -0.7945   -0.4519 C   0  0  0  0  0  0  0  0  0  0  0  0
    6.8948   -1.2103   -1.3224 H   0  0  0  0  0  0  0  0  0  0  0  0
    6.7254    0.2366   -0.2545 H   0  0  0  0  0  0  0  0  0  0  0  0
    6.5621   -1.4283    0.4397 H   0  0  0  0  0  0  0  0  0  0  0  0
  1 13  1  0  0  0  0
  2 13  2  0  0  0  0
  3 14  1  0  0  0  0
  3 11  1  0  0  0  0
  4  5  1  0  0  0  0
  5  7  1  0  0  0  0
  5  6  1  0  0  0  0
  7  8  1  0  0  0  0
  9 10  1  0  0  0  0
  9  7  2  0  0  0  0
 11  9  1  0  0  0  0
 12 11  2  0  0  0  0
 12  4  1  0  0  0  0
 13 12  1  0  0  0  0
 14 16  1  0  0  0  0
 14 17  1  0  0  0  0
 15 14  1  0  0  0  0
M  CHG  1   1  -1
M  END
