1,5
q = -1.0, confidence = 0.002

 14 14  0  0  0  0  0  0  0  0999 V2000
    0.8508   -1.0317   -1.8567 O   0  5  0  0  0  0  0  0  0  0  0  0
    2.8271   -1.9217   -2.4992 O   0  0  0  0  0  0  0  0  0  0  0  0
    4.7971   -1.8623   -1.0022 O   0  0  0  0  0  0  0  0  0  0  0  0
    4.1067   -2.0072   -1.8011 H   0  0  0  0  0  0  0  0  0  0  0  0
    1.9119   -0.3106    0.5521 N   0  0  0  0  0  2  0  0  0  0  0  0
    2.4194    0.0783    1.7373 C   0  0  0  0  0  3  0  0  0  0  0  0
    1.7296    0.5946    2.4211 H   0  0  0  0  0  0  0  0  0  0  0  0
    3.7643   -0.1765    2.0631 C   0  0  0  0  0  0  0  0  0  0  0  0
    4.1504    0.1512    3.0396 H   0  0  0  0  0  0  0  0  0  0  0  0
    4.5969   -0.8356    1.1577 C   0  0  0  0  0  0  0  0  0  0  0  0
    5.6517   -1.0490    1.3839 H   0  0  0  0  0  0  0  0  0  0  0  0
    4.0686   -1.2403   -0.0958 C   0  0  0  0  0  0  0  0  0  0  0  0
    2.6944   -0.9469   -0.3487 C   0  0  0  0  0  0  0  0  0  0  0  0
    2.0810   -1.3357   -1.6644 C   0  0  0  0  0  0  0  0  0  0  0  0
  1 14  1  0  0  0  0
  2 14  2  0  0  0  0
  3 12  1  0  0  0  0
  4  3  1  0  0  0  0
  5  6  1  0  0  0  0
  6  8  1  0  0  0  0
  6  7  1  0  0  0  0
  8  9  1  0  0  0  0
 10 11  1  0  0  0  0
 10  8  2  0  0  0  0
 12 10  1  0  0  0  0
 13 12  2  0  0  0  0
 13  5  1  0  0  0  0
 14 13  1  0  0  0  0
M  CHG  1   1  -1
M  END
