1,2
q = 0.0, confidence = 0.99

 28 29  0  0  1  0  0  0  0  0999 V2000
   -0.8346   -0.5574   -0.4299 O   0  5  0  0  0  0  0  0  0  0  0  0
    0.3158    2.0745   -0.2863 N   0  0  0  0  0  0  0  0  0  0  0  0
    0.5949    2.7495    0.4358 H   0  0  0  0  0  0  0  0  0  0  0  0
    0.6973    2.3165   -1.2217 H   0  0  0  0  0  0  0  0  0  0  0  0
   -3.3335    1.8546   -0.1366 N   0  0  0  0  0  0  0  0  0  0  0  0
   -2.9309    0.5265   -0.3466 N   0  0  0  0  0  0  0  0  0  0  0  0
   -1.5412    0.4758   -0.4008 C   0  0  0  0  0  0  0  0  0  0  0  0
   -1.0881    1.8384   -0.3154 C   0  0  0  0  0  0  0  0  0  0  0  0
   -2.1915    2.6517   -0.1786 C   0  0  1  0  0  3  0  0  0  0  0  0
   -2.2752    4.1374   -0.1023 C   0  0  0  0  0  0  0  0  0  0  0  0
   -1.2587    4.5630   -0.0104 H   0  0  0  0  0  0  0  0  0  0  0  0
   -2.8703    4.4705    0.7718 H   0  0  0  0  0  0  0  0  0  0  0  0
   -2.7364    4.5732   -1.0136 H   0  0  0  0  0  0  0  0  0  0  0  0
   -4.5653    2.2700   -0.8021 C   0  0  0  0  0  0  0  0  0  0  0  0
   -4.8476    3.2690   -0.4238 H   0  0  0  0  0  0  0  0  0  0  0  0
   -5.3772    1.5643   -0.5483 H   0  0  0  0  0  0  0  0  0  0  0  0
   -4.4468    2.3082   -1.9076 H   0  0  0  0  0  0  0  0  0  0  0  0
   -3.7759   -0.5595   -0.0046 C   0  0  0  0  0  0  0  0  0  0  0  0
   -4.7266   -0.4362    1.0274 C   0  0  0  0  0  0  0  0  0  0  0  0
   -4.8019    0.5068    1.5876 H   0  0  0  0  0  0  0  0  0  0  0  0
   -5.5386   -1.5323    1.3491 C   0  0  0  0  0  0  0  0  0  0  0  0
   -6.2817   -1.4361    2.1548 H   0  0  0  0  0  0  0  0  0  0  0  0
   -5.3878   -2.7518    0.6702 C   0  0  0  0  0  0  0  0  0  0  0  0
   -6.0201   -3.6122    0.9342 H   0  0  0  0  0  0  0  0  0  0  0  0
   -4.4199   -2.8713   -0.3402 C   0  0  0  0  0  0  0  0  0  0  0  0
   -4.2911   -3.8264   -0.8708 H   0  0  0  0  0  0  0  0  0  0  0  0
   -3.6168   -1.7784   -0.6913 C   0  0  0  0  0  0  0  0  0  0  0  0
   -2.8596   -1.8595   -1.4821 H   0  0  0  0  0  0  0  0  0  0  0  0
  1  7  1  0  0  0  0
  2  3  1  0  0  0  0
  4  2  1  0  0  0  0
  6  5  1  0  0  0  0
  6 18  1  0  0  0  0
  7  6  1  0  0  0  0
  7  8  2  0  0  0  0
  8  2  1  0  0  0  0
  8  9  1  0  0  0  0
  9  5  1  0  0  0  0
  9 10  1  6  0  0  0
 10 11  1  0  0  0  0
 10 12  1  0  0  0  0
 13 10  1  0  0  0  0
 14 16  1  0  0  0  0
 14 15  1  0  0  0  0
 14  5  1  0  0  0  0
 17 14  1  0  0  0  0
 18 19  1  0  0  0  0
 19 21  2  0  0  0  0
 19 20  1  0  0  0  0
 21 22  1  0  0  0  0
 23 24  1  0  0  0  0
 23 21  1  0  0  0  0
 25 23  2  0  0  0  0
 26 25  1  0  0  0  0
 27 25  1  0  0  0  0
 27 18  2  0  0  0  0
 28 27  1  0  0  0  0
M  CHG  1   1  -1
M  END
