2,3
q = 0.0, confidence = 0.998

 36 37  0  0  0  0  0  0  0  0999 V2000
   -6.8857    0.8750    0.0748 Cl  0  0  0  0  0  0  0  0  0  0  0  0
   -1.4371   -1.3609   -0.3937 O   0  5  0  0  0  0  0  0  0  0  0  0
   -0.4838    1.3626    0.2512 N   0  0  0  0  0  2  0  0  0  0  0  0
    2.6024    1.4574    0.5574 N   0  0  0  0  0  0  0  0  0  0  0  0
    4.1800   -0.1274   -0.7671 N   0  3  0  0  0  0  0  0  0  0  0  0
    4.8589   -0.7359   -1.2483 H   0  0  0  0  0  0  0  0  0  0  0  0
    3.1915   -0.4406   -1.1551 H   0  0  0  0  0  0  0  0  0  0  0  0
   -2.8287    0.5811    0.0575 C   0  0  0  0  0  0  0  0  0  0  0  0
   -2.5975   -0.8159   -0.2859 C   0  0  0  0  0  0  0  0  0  0  0  0
   -3.7695   -1.6185   -0.5176 C   0  0  0  0  0  0  0  0  0  0  0  0
   -3.5970   -2.6716   -0.7828 H   0  0  0  0  0  0  0  0  0  0  0  0
   -5.0529   -1.1108   -0.4074 C   0  0  0  0  0  0  0  0  0  0  0  0
   -5.9282   -1.7530   -0.5855 H   0  0  0  0  0  0  0  0  0  0  0  0
   -5.2547    0.2511   -0.0603 C   0  0  0  0  0  0  0  0  0  0  0  0
   -4.1643    1.0747    0.1641 C   0  0  0  0  0  0  0  0  0  0  0  0
   -4.3261    2.1318    0.4260 H   0  0  0  0  0  0  0  0  0  0  0  0
   -1.7834    1.5370    0.2801 C   0  0  0  0  0  3  0  0  0  0  0  0
   -2.1469    2.5681    0.4969 H   0  0  0  0  0  0  0  0  0  0  0  0
    0.3474    2.5395    0.4477 C   0  0  0  0  0  0  0  0  0  0  0  0
   -0.2271    3.3411    0.9654 H   0  0  0  0  0  0  0  0  0  0  0  0
    0.6283    2.9605   -0.5449 H   0  0  0  0  0  0  0  0  0  0  0  0
    1.6087    2.2559    1.2646 C   0  0  0  0  0  0  0  0  0  0  0  0
    2.0394    3.2380    1.5973 H   0  0  0  0  0  0  0  0  0  0  0  0
    1.3163    1.6885    2.1720 H   0  0  0  0  0  0  0  0  0  0  0  0
    3.6386    0.9033    1.4156 C   0  0  0  0  0  0  0  0  0  0  0  0
    3.1632    0.5343    2.3452 H   0  0  0  0  0  0  0  0  0  0  0  0
    4.4156    1.6633    1.6962 H   0  0  0  0  0  0  0  0  0  0  0  0
    4.2621   -0.3132    0.7183 C   0  0  0  0  0  0  0  0  0  0  0  0
    5.3235   -0.4567    1.0025 H   0  0  0  0  0  0  0  0  0  0  0  0
    3.6643   -1.2161    0.9645 H   0  0  0  0  0  0  0  0  0  0  0  0
    4.3487    1.2949   -1.1742 C   0  0  0  0  0  0  0  0  0  0  0  0
    4.3765    1.3374   -2.2792 H   0  0  0  0  0  0  0  0  0  0  0  0
    5.3222    1.6489   -0.7809 H   0  0  0  0  0  0  0  0  0  0  0  0
    3.1613    2.1065   -0.6228 C   0  0  0  0  0  0  0  0  0  0  0  0
    3.5180    3.1501   -0.4118 H   0  0  0  0  0  0  0  0  0  0  0  0
    2.3768    2.1644   -1.4031 H   0  0  0  0  0  0  0  0  0  0  0  0
  2  9  1  0  0  0  0
  3 17  1  0  0  0  0
  3 19  1  0  0  0  0
  4 22  1  0  0  0  0
  4 25  1  0  0  0  0
  5 28  1  0  0  0  0
  6  5  1  0  0  0  0
  7  5  1  0  0  0  0
  8 15  1  0  0  0  0
  8 17  1  0  0  0  0
  9  8  2  0  0  0  0
 10 12  2  0  0  0  0
 10  9  1  0  0  0  0
 11 10  1  0  0  0  0
 12 14  1  0  0  0  0
 13 12  1  0  0  0  0
 14  1  1  0  0  0  0
 14 15  2  0  0  0  0
 15 16  1  0  0  0  0
 17 18  1  0  0  0  0
 19 20  1  0  0  0  0
 19 22  1  0  0  0  0
 21 19  1  0  0  0  0
 22 23  1  0  0  0  0
 22 24  1  0  0  0  0
 25 27  1  0  0  0  0
 25 26  1  0  0  0  0
 28 30  1  0  0  0  0
 28 29  1  0  0  0  0
 28 25  1  0  0  0  0
 31 33  1  0  0  0  0
 31  5  1  0  0  0  0
 31 34  1  0  0  0  0
 32 31  1  0  0  0  0
 34 35  1  0  0  0  0
 34  4  1  0  0  0  0
 36 34  1  0  0  0  0
M  CHG  2   2  -1   5   1
M  END
