1,8
q = 0.0, confidence = 0.996

 37 39  0  0  1  0  0  0  0  0999 V2000
   -0.1196    0.1622    0.3496 O   0  5  0  0  0  0  0  0  0  0  0  0
    0.5902   -0.5317   -0.4343 C   0  0  0  0  0  0  0  0  0  0  0  0
    1.9123   -0.3895   -0.5844 N   0  0  0  0  0  2  0  0  0  0  0  0
    2.6349    0.6973   -0.4023 C   0  0  1  0  0  3  0  0  0  0  0  0
    3.9040    0.6554    0.0455 N   0  0  0  0  0  0  0  0  0  0  0  0
    4.3014    1.6167    0.0549 H   0  0  0  0  0  0  0  0  0  0  0  0
   -0.0670   -1.6415   -1.1848 C   0  0  0  0  0  0  0  0  0  0  0  0
   -1.4069   -1.7155   -1.0125 N   0  0  0  0  0  2  0  0  0  0  0  0
   -2.0915   -2.6750   -1.6546 C   0  0  0  0  0  0  0  0  0  0  0  0
   -3.1791   -2.6769   -1.4751 H   0  0  0  0  0  0  0  0  0  0  0  0
   -1.4603   -3.6031   -2.4979 C   0  0  0  0  0  0  0  0  0  0  0  0
   -2.0638   -4.3714   -3.0021 H   0  0  0  0  0  0  0  0  0  0  0  0
   -0.0729   -3.5313   -2.6797 C   0  0  0  0  0  0  0  0  0  0  0  0
    0.4480   -4.2463   -3.3338 H   0  0  0  0  0  0  0  0  0  0  0  0
    0.6401   -2.5290   -2.0086 C   0  0  0  0  0  0  0  0  0  0  0  0
    1.7290   -2.4142   -2.1008 H   0  0  0  0  0  0  0  0  0  0  0  0
    2.2066    2.0952   -0.7648 C   0  0  0  0  0  0  0  0  0  0  0  0
    3.1036    3.0532   -0.4458 N   0  0  0  0  0  0  0  0  0  0  0  0
    2.8106    4.3291   -0.7176 C   0  0  0  0  0  0  0  0  0  0  0  0
    3.5710    5.0793   -0.4413 H   0  0  0  0  0  0  0  0  0  0  0  0
    1.6003    4.7184   -1.3199 C   0  0  0  0  0  0  0  0  0  0  0  0
    1.3947    5.7818   -1.5108 H   0  0  0  0  0  0  0  0  0  0  0  0
    0.6798    3.7215   -1.6681 C   0  0  0  0  0  0  0  0  0  0  0  0
   -0.2846    3.9635   -2.1394 H   0  0  0  0  0  0  0  0  0  0  0  0
    0.9881    2.3797   -1.4030 C   0  0  0  0  0  0  0  0  0  0  0  0
    0.2544    1.6066   -1.6745 H   0  0  0  0  0  0  0  0  0  0  0  0
    4.6992   -0.4040    0.5047 C   0  0  0  0  0  0  0  0  0  0  0  0
    4.2147   -1.7160    0.7048 C   0  0  0  0  0  0  0  0  0  0  0  0
    3.1610   -1.9413    0.5057 H   0  0  0  0  0  0  0  0  0  0  0  0
    5.0912   -2.7088    1.1629 C   0  0  0  0  0  0  0  0  0  0  0  0
    4.7062   -3.7275    1.3206 H   0  0  0  0  0  0  0  0  0  0  0  0
    6.4379   -2.4182    1.4308 C   0  0  0  0  0  0  0  0  0  0  0  0
    7.1138   -3.2062    1.7943 H   0  0  0  0  0  0  0  0  0  0  0  0
    6.9150   -1.1107    1.2384 C   0  0  0  0  0  0  0  0  0  0  0  0
    7.9673   -0.8675    1.4480 H   0  0  0  0  0  0  0  0  0  0  0  0
    6.0551   -0.1090    0.7786 C   0  0  0  0  0  0  0  0  0  0  0  0
    6.4280    0.9156    0.6234 H   0  0  0  0  0  0  0  0  0  0  0  0
  2  1  1  0  0  0  0
  3  2  1  0  0  0  0
  4  3  1  6  0  0  0
  4  5  1  0  0  0  0
  5  6  1  0  0  0  0
  5 27  1  0  0  0  0
  7  8  1  0  0  0  0
  7  2  2  0  0  0  0
  9 10  1  0  0  0  0
  9  8  1  0  0  0  0
 11  9  2  0  0  0  0
 12 11  1  0  0  0  0
 13 11  1  0  0  0  0
 13 15  2  0  0  0  0
 14 13  1  0  0  0  0
 15  7  1  0  0  0  0
 16 15  1  0  0  0  0
 17 18  1  0  0  0  0
 17  4  1  0  0  0  0
 19 18  2  0  0  0  0
 19 20  1  0  0  0  0
 21 19  1  0  0  0  0
 22 21  1  0  0  0  0
 23 25  1  0  0  0  0
 23 21  2  0  0  0  0
 24 23  1  0  0  0  0
 25 17  2  0  0  0  0
 26 25  1  0  0  0  0
 27 28  2  0  0  0  0
 27 36  1  0  0  0  0
 28 30  1  0  0  0  0
 29 28  1  0  0  0  0
 30 31  1  0  0  0  0
 30 32  2  0  0  0  0
 32 33  1  0  0  0  0
 34 32  1  0  0  0  0
 34 35  1  0  0  0  0
 36 34  2  0  0  0  0
 37 36  1  0  0  0  0
M  CHG  1   1  -1
M  END
