3,6
q = -2.0, confidence = 0.92

 13 13  0  0  0  0  0  0  0  0999 V2000
   -5.2739   -0.3493   -0.1466 O   0  0  0  0  0  0  0  0  0  0  0  0
   -1.3894    3.1853   -0.1626 O   0  5  0  0  0  0  0  0  0  0  0  0
    0.3178    1.7197   -0.0458 O   0  0  0  0  0  0  0  0  0  0  0  0
   -1.3507   -2.6926    0.0350 O   0  0  0  0  0  0  0  0  0  0  0  0
   -3.2543   -1.4470   -0.0503 N   0  0  0  0  0  0  0  0  0  0  0  0
   -1.1645   -0.3733    0.0154 N   0  0  0  0  0  2  0  0  0  0  0  0
   -0.9831    2.0382   -0.0937 C   0  0  0  0  0  0  0  0  0  0  0  0
   -1.8636    0.8148   -0.0564 C   0  0  0  0  0  0  0  0  0  0  0  0
   -3.2294    0.9277   -0.1126 C   0  0  0  0  0  0  0  0  0  0  0  0
   -3.6955    1.9189   -0.1729 H   0  0  0  0  0  0  0  0  0  0  0  0
   -1.8751   -1.5549    0.0008 C   0  0  0  0  0  0  0  0  0  0  0  0
   -4.0504   -0.2712   -0.1061 C   0  0  0  0  0  0  0  0  0  0  0  0
   -3.7650   -2.3351   -0.0548 H   0  0  0  0  0  0  0  0  0  0  0  0
  1 12  2  0  0  0  0
  2  7  1  0  0  0  0
  5 11  1  0  0  0  0
  7  8  1  0  0  0  0
  7  3  2  0  0  0  0
  8  6  1  0  0  0  0
  9 12  1  0  0  0  0
  9  8  2  0  0  0  0
 10  9  1  0  0  0  0
 11  6  1  0  0  0  0
 11  4  2  0  0  0  0
 12  5  1  0  0  0  0
 13  5  1  0  0  0  0
M  CHG  1   2  -1
M  END
