1,14
q = -1.0, confidence = 0.01

 16 15  0  0  1  0  0  0  0  0999 V2000
    1.1481   -1.6730    0.1173 O   0  5  0  0  0  0  0  0  0  0  0  0
    3.2985   -2.3333    0.1732 O   0  0  0  0  0  0  0  0  0  0  0  0
    2.4342   -1.4674    0.2790 C   0  0  0  0  0  0  0  0  0  0  0  0
    2.8279   -0.0003    0.6110 C   0  0  1  0  0  0  0  0  0  0  0  0
    2.7139    0.1397    1.7069 H   0  0  0  0  0  0  0  0  0  0  0  0
    4.2687    0.2767    0.1515 C   0  0  1  0  0  0  0  0  0  0  0  0
    4.9053   -0.4607    0.6910 H   0  0  0  0  0  0  0  0  0  0  0  0
    4.3313    0.0592   -1.2560 O   0  0  0  0  0  0  0  0  0  0  0  0
    4.2537   -0.9128   -1.3616 H   0  0  0  0  0  0  0  0  0  0  0  0
    4.7534    1.6900    0.4413 C   0  0  0  0  0  0  0  0  0  0  0  0
    4.1502    2.4474   -0.1014 H   0  0  0  0  0  0  0  0  0  0  0  0
    5.8002    1.8052    0.1013 H   0  0  0  0  0  0  0  0  0  0  0  0
    4.7082    1.9126    1.5258 H   0  0  0  0  0  0  0  0  0  0  0  0
    1.8504    0.8966   -0.0717 N   0  0  0  0  0  0  0  0  0  0  0  0
    2.1735    0.9827   -1.0549 H   0  0  0  0  0  0  0  0  0  0  0  0
    1.8484    1.8462    0.3288 H   0  0  0  0  0  0  0  0  0  0  0  0
  1  3  1  0  0  0  0
  2  3  2  0  0  0  0
  3  4  1  0  0  0  0
  4  5  1  1  0  0  0
  6 10  1  0  0  0  0
  6  4  1  0  0  0  0
  6  7  1  1  0  0  0
  8  6  1  0  0  0  0
  9  8  1  0  0  0  0
 10 13  1  0  0  0  0
 11 10  1  0  0  0  0
 12 10  1  0  0  0  0
 14 16  1  0  0  0  0
 14  4  1  0  0  0  0
 15 14  1  0  0  0  0
M  CHG  1   1  -1
M  END
