1,3
q = -1.0, confidence = 0.004

 28 28  0  0  1  0  0  0  0  0999 V2000
    1.4928   -1.0099   -0.4622 O   0  0  0  0  0  1  0  0  0  0  0  0
   -5.2710   -2.1514   -0.0971 O   0  0  0  0  0  0  0  0  0  0  0  0
   -1.0615   -1.5719    0.3500 N   0  0  0  0  0  2  0  0  0  0  0  0
    1.7449   -2.2753   -0.2740 C   0  0  2  0  0  3  0  0  0  0  0  0
    3.0570   -2.7689   -0.5502 C   0  0  0  0  0  0  0  0  0  0  0  0
    3.8068   -2.0513   -0.9149 H   0  0  0  0  0  0  0  0  0  0  0  0
    3.3722   -4.1105   -0.3596 C   0  0  0  0  0  0  0  0  0  0  0  0
    4.3952   -4.4578   -0.5745 H   0  0  0  0  0  0  0  0  0  0  0  0
    2.4025   -5.0341    0.1024 C   0  0  0  0  0  0  0  0  0  0  0  0
    2.6650   -6.0917    0.2471 H   0  0  0  0  0  0  0  0  0  0  0  0
    1.1141   -4.5815    0.3622 C   0  0  0  0  0  0  0  0  0  0  0  0
    0.3375   -5.2815    0.7109 H   0  0  0  0  0  0  0  0  0  0  0  0
    0.7615   -3.2157    0.1850 C   0  0  0  0  0  0  0  0  0  0  0  0
   -0.5859   -2.7930    0.4154 C   0  0  0  0  0  0  0  0  0  0  0  0
   -1.3070   -3.5987    0.6617 H   0  0  0  0  0  0  0  0  0  0  0  0
   -2.5150   -1.4478    0.5173 C   0  0  0  0  0  0  0  0  0  0  0  0
   -2.9199   -2.3881    0.9442 H   0  0  0  0  0  0  0  0  0  0  0  0
   -2.7196   -0.6229    1.2239 H   0  0  0  0  0  0  0  0  0  0  0  0
   -3.2163   -1.1585   -0.8132 C   0  0  0  0  0  0  0  0  0  0  0  0
   -3.0283   -1.9937   -1.5214 H   0  0  0  0  0  0  0  0  0  0  0  0
   -2.7855   -0.2397   -1.2582 H   0  0  0  0  0  0  0  0  0  0  0  0
   -4.7143   -0.9704   -0.6415 C   0  0  0  0  0  0  0  0  0  0  0  0
   -5.1891   -0.7275   -1.6256 H   0  0  0  0  0  0  0  0  0  0  0  0
   -4.9174   -0.0979    0.0328 H   0  0  0  0  0  0  0  0  0  0  0  0
   -6.6530   -2.0519    0.1344 C   0  0  0  0  0  0  0  0  0  0  0  0
   -7.2256   -1.8542   -0.8058 H   0  0  0  0  0  0  0  0  0  0  0  0
   -6.9976   -3.0150    0.5592 H   0  0  0  0  0  0  0  0  0  0  0  0
   -6.9028   -1.2354    0.8569 H   0  0  0  0  0  0  0  0  0  0  0  0
  2 25  1  0  0  0  0
  3 14  1  0  0  0  0
  3 16  1  0  0  0  0
  4  1  1  6  0  0  0
  4 13  1  0  0  0  0
  5  7  2  0  0  0  0
  5  4  1  0  0  0  0
  6  5  1  0  0  0  0
  7  9  1  0  0  0  0
  8  7  1  0  0  0  0
  9 10  1  0  0  0  0
  9 11  2  0  0  0  0
 11 12  1  0  0  0  0
 13 11  1  0  0  0  0
 13 14  2  0  0  0  0
 14 15  1  0  0  0  0
 16 17  1  0  0  0  0
 16 18  1  0  0  0  0
 19 22  1  0  0  0  0
 19 16  1  0  0  0  0
 20 19  1  0  0  0  0
 21 19  1  0  0  0  0
 22  2  1  0  0  0  0
 22 24  1  0  0  0  0
 23 22  1  0  0  0  0
 25 27  1  0  0  0  0
 25 28  1  0  0  0  0
 26 25  1  0  0  0  0
M  END
