1,3
q = -1.0, confidence = 0.038

 22 23  0  0  1  0  0  0  0  0999 V2000
    0.4886    1.7400   -0.0572 N   0  0  0  0  0  2  0  0  0  0  0  0
    0.9250    3.7449   -0.9723 O   0  0  0  0  0  0  0  0  0  0  0  0
   -1.2445    1.0466   -1.8968 O   0  5  0  0  0  0  0  0  0  0  0  0
   -1.0282    3.0302   -2.9958 O   0  0  0  0  0  0  0  0  0  0  0  0
   -0.7714    2.2584   -2.0888 C   0  0  0  0  0  0  0  0  0  0  0  0
    0.2400    2.6073   -0.9996 C   0  0  1  0  0  3  0  0  0  0  0  0
    1.7480    3.7052    0.2332 C   0  0  0  0  0  0  0  0  0  0  0  0
    1.3612    4.4783    0.9263 H   0  0  0  0  0  0  0  0  0  0  0  0
    2.7865    3.9559   -0.0523 H   0  0  0  0  0  0  0  0  0  0  0  0
    1.5920    2.2547    0.7873 C   0  0  2  0  0  0  0  0  0  0  0  0
    1.2662    2.2620    1.8480 H   0  0  0  0  0  0  0  0  0  0  0  0
    2.8305    1.3863    0.6674 C   0  0  0  0  0  0  0  0  0  0  0  0
    3.3703    0.7511    1.7990 C   0  0  0  0  0  0  0  0  0  0  0  0
    2.8826    0.8780    2.7788 H   0  0  0  0  0  0  0  0  0  0  0  0
    4.5232   -0.0427    1.6878 C   0  0  0  0  0  0  0  0  0  0  0  0
    4.9415   -0.5282    2.5823 H   0  0  0  0  0  0  0  0  0  0  0  0
    5.1454   -0.2053    0.4410 C   0  0  0  0  0  0  0  0  0  0  0  0
    6.0554   -0.8179    0.3537 H   0  0  0  0  0  0  0  0  0  0  0  0
    4.6114    0.4277   -0.6952 C   0  0  0  0  0  0  0  0  0  0  0  0
    5.0974    0.3060   -1.6746 H   0  0  0  0  0  0  0  0  0  0  0  0
    3.4604    1.2178   -0.5831 C   0  0  0  0  0  0  0  0  0  0  0  0
    3.0475    1.7071   -1.4798 H   0  0  0  0  0  0  0  0  0  0  0  0
  1 10  1  0  0  0  0
  2  7  1  0  0  0  0
  4  5  2  0  0  0  0
  5  3  1  0  0  0  0
  6  5  1  6  0  0  0
  6  2  1  0  0  0  0
  6  1  1  0  0  0  0
  7 10  1  0  0  0  0
  7  8  1  0  0  0  0
  9  7  1  0  0  0  0
 10 11  1  1  0  0  0
 12 10  1  0  0  0  0
 12 13  1  0  0  0  0
 13 14  1  0  0  0  0
 15 13  2  0  0  0  0
 15 16  1  0  0  0  0
 17 15  1  0  0  0  0
 18 17  1  0  0  0  0
 19 21  1  0  0  0  0
 19 17  2  0  0  0  0
 20 19  1  0  0  0  0
 21 12  2  0  0  0  0
 22 21  1  0  0  0  0
M  CHG  1   3  -1
M  END
