1,3
q = -1.0, confidence = 0.004

 34 36  0  0  1  0  0  0  0  0999 V2000
   -0.5949   -0.9385    1.3575 N   0  0  0  0  0  2  0  0  0  0  0  0
   -0.3781   -2.7780    2.6442 O   0  0  0  0  0  0  0  0  0  0  0  0
    1.6620   -0.5956   -0.4323 O   0  5  0  0  0  0  0  0  0  0  0  0
   -1.9113   -1.0992    2.0018 C   0  0  2  0  0  0  0  0  0  0  0  0
   -2.2304   -0.1396    2.4584 H   0  0  0  0  0  0  0  0  0  0  0  0
   -1.5830   -2.1381    3.1049 C   0  0  0  0  0  0  0  0  0  0  0  0
   -1.3763   -1.6553    4.0850 H   0  0  0  0  0  0  0  0  0  0  0  0
   -2.3659   -2.9081    3.2345 H   0  0  0  0  0  0  0  0  0  0  0  0
    0.1776   -1.9659    1.7063 C   0  0  1  0  0  3  0  0  0  0  0  0
    1.4643   -2.3053    1.2292 C   0  0  0  0  0  0  0  0  0  0  0  0
    1.9384   -3.1591    1.7245 H   0  0  0  0  0  0  0  0  0  0  0  0
    2.1247   -1.6444    0.1843 C   0  0  0  0  0  0  0  0  0  0  0  0
   -3.0002   -1.5609    1.0464 C   0  0  0  0  0  0  0  0  0  0  0  0
   -4.2823   -0.9853    1.1074 C   0  0  0  0  0  0  0  0  0  0  0  0
   -4.4753   -0.1666    1.8194 H   0  0  0  0  0  0  0  0  0  0  0  0
   -5.3114   -1.4381    0.2670 C   0  0  0  0  0  0  0  0  0  0  0  0
   -6.3105   -0.9801    0.3272 H   0  0  0  0  0  0  0  0  0  0  0  0
   -5.0670   -2.4795   -0.6416 C   0  0  0  0  0  0  0  0  0  0  0  0
   -5.8733   -2.8417   -1.2971 H   0  0  0  0  0  0  0  0  0  0  0  0
   -3.7904   -3.0635   -0.7050 C   0  0  0  0  0  0  0  0  0  0  0  0
   -3.5938   -3.8824   -1.4132 H   0  0  0  0  0  0  0  0  0  0  0  0
   -2.7630   -2.6065    0.1319 C   0  0  0  0  0  0  0  0  0  0  0  0
   -1.7635   -3.0638    0.0711 H   0  0  0  0  0  0  0  0  0  0  0  0
    3.4525   -2.1188   -0.3036 C   0  0  0  0  0  0  0  0  0  0  0  0
    3.9594   -3.4023   -0.0001 C   0  0  0  0  0  0  0  0  0  0  0  0
    3.3619   -4.1065    0.5962 H   0  0  0  0  0  0  0  0  0  0  0  0
    5.2138   -3.8042   -0.4758 C   0  0  0  0  0  0  0  0  0  0  0  0
    5.5913   -4.8092   -0.2352 H   0  0  0  0  0  0  0  0  0  0  0  0
    5.9843   -2.9327   -1.2630 C   0  0  0  0  0  0  0  0  0  0  0  0
    6.9699   -3.2507   -1.6350 H   0  0  0  0  0  0  0  0  0  0  0  0
    5.4882   -1.6567   -1.5766 C   0  0  0  0  0  0  0  0  0  0  0  0
    6.0871   -0.9706   -2.1945 H   0  0  0  0  0  0  0  0  0  0  0  0
    4.2330   -1.2544   -1.1047 C   0  0  0  0  0  0  0  0  0  0  0  0
    3.8335   -0.2589   -1.3445 H   0  0  0  0  0  0  0  0  0  0  0  0
  1  9  1  0  0  0  0
  1  4  1  0  0  0  0
  2  6  1  0  0  0  0
  3 12  1  0  0  0  0
  4  5  1  1  0  0  0
  4  6  1  0  0  0  0
  6  8  1  0  0  0  0
  6  7  1  0  0  0  0
  9 10  1  6  0  0  0
  9  2  1  0  0  0  0
 10 11  1  0  0  0  0
 12 10  2  0  0  0  0
 13 14  1  0  0  0  0
 13  4  1  0  0  0  0
 14 15  1  0  0  0  0
 16 17  1  0  0  0  0
 16 14  2  0  0  0  0
 18 16  1  0  0  0  0
 19 18  1  0  0  0  0
 20 18  2  0  0  0  0
 20 22  1  0  0  0  0
 21 20  1  0  0  0  0
 22 13  2  0  0  0  0
 23 22  1  0  0  0  0
 24 25  1  0  0  0  0
 24 12  1  0  0  0  0
 25 26  1  0  0  0  0
 27 28  1  0  0  0  0
 27 25  2  0  0  0  0
 29 27  1  0  0  0  0
 30 29  1  0  0  0  0
 31 29  2  0  0  0  0
 31 33  1  0  0  0  0
 32 31  1  0  0  0  0
 33 24  2  0  0  0  0
 34 33  1  0  0  0  0
M  CHG  1   3  -1
M  END
