1,18
q = -1.0, confidence = 0.002

 26 27  0  0  1  0  0  0  0  0999 V2000
    1.6360   -1.0461   -0.9348 O   0  5  0  0  0  0  0  0  0  0  0  0
    2.8973   -0.7335   -0.6623 C   0  0  0  0  0  0  0  0  0  0  0  0
    3.9226   -1.5702   -1.1675 C   0  0  0  0  0  0  0  0  0  0  0  0
    3.6211   -2.4216   -1.7938 H   0  0  0  0  0  0  0  0  0  0  0  0
    5.2630   -1.3038   -0.8856 C   0  0  0  0  0  0  0  0  0  0  0  0
    6.0432   -1.9612   -1.2995 H   0  0  0  0  0  0  0  0  0  0  0  0
    5.6231   -0.2044   -0.0801 C   0  0  0  0  0  0  0  0  0  0  0  0
    6.6802    0.0019    0.1406 H   0  0  0  0  0  0  0  0  0  0  0  0
    4.6253    0.6209    0.4376 C   0  0  0  0  0  0  0  0  0  0  0  0
    4.8816    1.4789    1.0741 H   0  0  0  0  0  0  0  0  0  0  0  0
    3.2584    0.3799    0.1550 C   0  0  0  0  0  0  0  0  0  0  0  0
    2.2366    1.2399    0.7404 C   0  0  2  0  0  3  0  0  0  0  0  0
    2.6843    2.1632    1.6278 O   0  0  0  0  0  0  0  0  0  0  0  0
    1.5189    2.7800    2.2057 C   0  0  0  0  0  0  0  0  0  0  0  0
    1.6824    3.8743    2.2444 H   0  0  0  0  0  0  0  0  0  0  0  0
    1.4007    2.3917    3.2409 H   0  0  0  0  0  0  0  0  0  0  0  0
    0.3450    2.3603    1.2782 C   0  0  0  0  0  0  0  0  0  0  0  0
    0.9520    1.2291    0.5158 N   0  0  0  0  0  2  0  0  0  0  0  0
   -0.0159    3.4879    0.2970 C   0  0  0  0  0  0  0  0  0  0  0  0
    0.8796    3.8140   -0.2680 H   0  0  0  0  0  0  0  0  0  0  0  0
   -0.4226    4.3576    0.8527 H   0  0  0  0  0  0  0  0  0  0  0  0
   -0.7739    3.1373   -0.4268 H   0  0  0  0  0  0  0  0  0  0  0  0
   -0.8676    1.9193    2.1020 C   0  0  0  0  0  0  0  0  0  0  0  0
   -1.7144    1.6388    1.4526 H   0  0  0  0  0  0  0  0  0  0  0  0
   -1.1987    2.7521    2.7556 H   0  0  0  0  0  0  0  0  0  0  0  0
   -0.6147    1.0524    2.7433 H   0  0  0  0  0  0  0  0  0  0  0  0
  1  2  1  0  0  0  0
  2 11  1  0  0  0  0
  3  5  1  0  0  0  0
  3  2  2  0  0  0  0
  4  3  1  0  0  0  0
  5  7  2  0  0  0  0
  6  5  1  0  0  0  0
  7  8  1  0  0  0  0
  7  9  1  0  0  0  0
  9 10  1  0  0  0  0
 11  9  2  0  0  0  0
 12 11  1  1  0  0  0
 12 13  1  0  0  0  0
 13 14  1  0  0  0  0
 14 15  1  0  0  0  0
 14 16  1  0  0  0  0
 17 23  1  0  0  0  0
 17 14  1  0  0  0  0
 18 12  1  0  0  0  0
 18 17  1  0  0  0  0
 19 21  1  0  0  0  0
 19 17  1  0  0  0  0
 20 19  1  0  0  0  0
 22 19  1  0  0  0  0
 23 26  1  0  0  0  0
 23 25  1  0  0  0  0
 24 23  1  0  0  0  0
M  CHG  1   1  -1
M  END
