1,3
q = -1.0, confidence = 0.02

 36 38  0  0  1  0  0  0  0  0999 V2000
   -1.1648    1.7418   -0.0610 O   0  5  0  0  0  0  0  0  0  0  0  0
  -12.8941    0.0211    0.0507 O   0  0  0  0  0  0  0  0  0  0  0  0
   -1.8833   -0.8813   -0.1685 N   0  0  0  0  0  2  0  0  0  0  0  0
   -6.5824    0.3188   -0.0333 N   0  0  0  0  0  0  0  0  0  0  0  0
   -7.4491    1.2544    0.0169 N   0  0  0  0  0  0  0  0  0  0  0  0
   -2.1817   -2.1787   -0.2251 C   0  0  0  0  0  0  0  0  0  0  0  0
   -1.3263   -2.8730   -0.2695 H   0  0  0  0  0  0  0  0  0  0  0  0
   -3.5235   -2.6283   -0.2253 C   0  0  0  0  0  0  0  0  0  0  0  0
   -3.7356   -3.7061   -0.2734 H   0  0  0  0  0  0  0  0  0  0  0  0
   -4.5519   -1.6953   -0.1612 C   0  0  0  0  0  0  0  0  0  0  0  0
   -5.6100   -1.9935   -0.1565 H   0  0  0  0  0  0  0  0  0  0  0  0
   -4.2530   -0.3064   -0.0979 C   0  0  0  0  0  0  0  0  0  0  0  0
   -5.2505    0.7271   -0.0332 C   0  0  0  0  0  0  0  0  0  0  0  0
   -4.8178    2.0694    0.0249 C   0  0  0  0  0  0  0  0  0  0  0  0
   -5.6043    2.8370    0.0752 H   0  0  0  0  0  0  0  0  0  0  0  0
   -3.4650    2.4266    0.0206 C   0  0  0  0  0  0  0  0  0  0  0  0
   -3.1614    3.4834    0.0678 H   0  0  0  0  0  0  0  0  0  0  0  0
   -2.4348    1.4528   -0.0406 C   0  0  0  0  0  0  0  0  0  0  0  0
   -2.8685    0.0592   -0.1013 C   0  0  2  0  0  3  0  0  0  0  0  0
   -8.7889    0.8398    0.0214 C   0  0  0  0  0  0  0  0  0  0  0  0
   -9.2269   -0.5051   -0.0118 C   0  0  0  0  0  0  0  0  0  0  0  0
   -8.4658   -1.2972   -0.0435 H   0  0  0  0  0  0  0  0  0  0  0  0
  -10.5880   -0.8176   -0.0032 C   0  0  0  0  0  0  0  0  0  0  0  0
  -10.8990   -1.8708   -0.0287 H   0  0  0  0  0  0  0  0  0  0  0  0
  -11.5512    0.2200    0.0390 C   0  0  0  0  0  0  0  0  0  0  0  0
  -11.1224    1.5671    0.0729 C   0  0  0  0  0  0  0  0  0  0  0  0
  -11.8880    2.3556    0.1059 H   0  0  0  0  0  0  0  0  0  0  0  0
   -9.7631    1.8675    0.0646 C   0  0  0  0  0  0  0  0  0  0  0  0
   -9.4068    2.9079    0.0910 H   0  0  0  0  0  0  0  0  0  0  0  0
  -13.4001   -1.3121    0.0191 C   0  0  0  0  0  0  0  0  0  0  0  0
  -13.0388   -1.8326   -0.8983 H   0  0  0  0  0  0  0  0  0  0  0  0
  -13.0159   -1.8837    0.8959 H   0  0  0  0  0  0  0  0  0  0  0  0
  -14.9147   -1.2373    0.0406 C   0  0  0  0  0  0  0  0  0  0  0  0
  -15.3491   -2.2560    0.0172 H   0  0  0  0  0  0  0  0  0  0  0  0
  -15.2691   -0.7262    0.9574 H   0  0  0  0  0  0  0  0  0  0  0  0
  -15.2920   -0.6751   -0.8363 H   0  0  0  0  0  0  0  0  0  0  0  0
  1 18  1  0  0  0  0
  4 13  1  0  0  0  0
  4  5  2  0  0  0  0
  5 20  1  0  0  0  0
  6  3  1  0  0  0  0
  7  6  1  0  0  0  0
  8  6  2  0  0  0  0
  8 10  1  0  0  0  0
  9  8  1  0  0  0  0
 10 11  1  0  0  0  0
 10 12  2  0  0  0  0
 12 13  1  0  0  0  0
 13 14  2  0  0  0  0
 14 15  1  0  0  0  0
 16 14  1  0  0  0  0
 16 17  1  0  0  0  0
 18 16  2  0  0  0  0
 19  3  1  6  0  0  0
 19 12  1  0  0  0  0
 19 18  1  0  0  0  0
 20 28  1  0  0  0  0
 21 23  1  0  0  0  0
 21 20  2  0  0  0  0
 22 21  1  0  0  0  0
 23 25  2  0  0  0  0
 24 23  1  0  0  0  0
 25  2  1  0  0  0  0
 25 26  1  0  0  0  0
 26 27  1  0  0  0  0
 28 26  2  0  0  0  0
 28 29  1  0  0  0  0
 30 33  1  0  0  0  0
 30  2  1  0  0  0  0
 30 32  1  0  0  0  0
 31 30  1  0  0  0  0
 33 35  1  0  0  0  0
 34 33  1  0  0  0  0
 36 33  1  0  0  0  0
M  CHG  1   1  -1
M  END
