5,10
q = 0.0, confidence = 0.874

 28 29  0  0  0  0  0  0  0  0999 V2000
   -6.8847    0.1310   -0.0697 C   0  0  0  0  0  0  0  0  0  0  0  0
   -7.8944    0.5632   -0.0093 H   0  0  0  0  0  0  0  0  0  0  0  0
   -6.7100   -1.2620   -0.1148 C   0  0  0  0  0  0  0  0  0  0  0  0
   -7.5826   -1.9322   -0.0893 H   0  0  0  0  0  0  0  0  0  0  0  0
   -1.5681    0.2163   -0.3504 O   0  5  0  0  0  0  0  0  0  0  0  0
   -3.0336   -1.5880   -0.2981 N   0  0  0  0  0  0  0  0  0  0  0  0
   -3.0219   -2.6093   -0.3339 H   0  0  0  0  0  0  0  0  0  0  0  0
    1.4790   -3.5657   -0.3891 C   0  0  0  0  0  0  0  0  0  0  0  0
    0.5738   -3.9686    0.0833 H   0  0  0  0  0  0  0  0  0  0  0  0
    0.4054   -1.3520   -0.4353 N   0  0  0  0  0  2  0  0  0  0  0  0
    1.5107   -2.1952   -0.7295 C   0  0  0  0  0  0  0  0  0  0  0  0
   -0.7725   -1.9682   -0.4116 N   0  0  0  0  0  0  0  0  0  0  0  0
   -5.4259   -1.8105   -0.1920 C   0  0  0  0  0  0  0  0  0  0  0  0
   -5.2934   -2.9040   -0.2252 H   0  0  0  0  0  0  0  0  0  0  0  0
   -4.2875   -0.9707   -0.2267 C   0  0  0  0  0  0  0  0  0  0  0  0
   -4.4602    0.4323   -0.1845 C   0  0  0  0  0  0  0  0  0  0  0  0
   -3.5787    1.0829   -0.2161 H   0  0  0  0  0  0  0  0  0  0  0  0
    2.5970   -4.3665   -0.6432 C   0  0  0  0  0  0  0  0  0  0  0  0
    2.5795   -5.4299   -0.3594 H   0  0  0  0  0  0  0  0  0  0  0  0
    2.6492   -1.6433   -1.3547 C   0  0  0  0  0  0  0  0  0  0  0  0
    2.6355   -0.5856   -1.6442 H   0  0  0  0  0  0  0  0  0  0  0  0
   -5.7546    0.9631   -0.1045 C   0  0  0  0  0  0  0  0  0  0  0  0
   -5.8771    2.0565   -0.0709 H   0  0  0  0  0  0  0  0  0  0  0  0
    3.7394   -3.8202   -1.2553 C   0  0  0  0  0  0  0  0  0  0  0  0
    4.6155   -4.4556   -1.4547 H   0  0  0  0  0  0  0  0  0  0  0  0
    3.7545   -2.4631   -1.6173 C   0  0  0  0  0  0  0  0  0  0  0  0
    4.6371   -2.0353   -2.1168 H   0  0  0  0  0  0  0  0  0  0  0  0
   -1.7776   -1.0423   -0.3265 C   0  0  0  0  0  0  0  0  0  0  0  0
  1  2  1  0  0  0  0
  3  4  1  0  0  0  0
  3  1  2  0  0  0  0
  5 28  1  0  0  0  0
  6 15  1  0  0  0  0
  7  6  1  0  0  0  0
  8  9  1  0  0  0  0
 10 12  1  0  0  0  0
 11 10  1  0  0  0  0
 11  8  2  0  0  0  0
 12 28  2  0  0  0  0
 13  3  1  0  0  0  0
 14 13  1  0  0  0  0
 15 13  2  0  0  0  0
 15 16  1  0  0  0  0
 16 22  2  0  0  0  0
 17 16  1  0  0  0  0
 18  8  1  0  0  0  0
 18 19  1  0  0  0  0
 20 11  1  0  0  0  0
 21 20  1  0  0  0  0
 22 23  1  0  0  0  0
 22  1  1  0  0  0  0
 24 18  2  0  0  0  0
 25 24  1  0  0  0  0
 26 20  2  0  0  0  0
 26 24  1  0  0  0  0
 27 26  1  0  0  0  0
 28  6  1  0  0  0  0
M  CHG  1   5  -1
M  END
