1,2
q = -1.0, confidence = 0.0

 35 37  0  0  1  0  0  0  0  0999 V2000
   -1.3864    0.7754   -0.5678 O   0  0  0  0  0  1  0  0  0  0  0  0
    0.8838    1.6522    0.6127 N   0  0  0  0  0  2  0  0  0  0  0  0
    6.5371    2.8644   -0.7579 N   0  0  0  0  0  0  0  0  0  0  0  0
    7.3103    3.5241   -0.8074 H   0  0  0  0  0  0  0  0  0  0  0  0
   -1.9616    1.8482   -0.0904 C   0  0  2  0  0  3  0  0  0  0  0  0
   -3.3427    2.0760   -0.3673 C   0  0  0  0  0  0  0  0  0  0  0  0
   -3.8792    1.3219   -0.9601 H   0  0  0  0  0  0  0  0  0  0  0  0
   -3.9955    3.1977    0.1356 C   0  0  0  0  0  0  0  0  0  0  0  0
   -5.0708    3.3225   -0.0666 H   0  0  0  0  0  0  0  0  0  0  0  0
   -3.3062    4.1654    0.9067 C   0  0  0  0  0  0  0  0  0  0  0  0
   -3.8349    5.0478    1.2949 H   0  0  0  0  0  0  0  0  0  0  0  0
   -1.9504    3.9845    1.1592 C   0  0  0  0  0  0  0  0  0  0  0  0
   -1.3866    4.7322    1.7405 H   0  0  0  0  0  0  0  0  0  0  0  0
   -1.2610    2.8369    0.6828 C   0  0  0  0  0  0  0  0  0  0  0  0
    0.1528    2.7086    0.8727 C   0  0  0  0  0  0  0  0  0  0  0  0
    0.6821    3.6091    1.2472 H   0  0  0  0  0  0  0  0  0  0  0  0
    2.3367    1.8272    0.6636 C   0  0  0  0  0  0  0  0  0  0  0  0
    2.7795    0.9489    1.1650 H   0  0  0  0  0  0  0  0  0  0  0  0
    2.5837    2.7367    1.2524 H   0  0  0  0  0  0  0  0  0  0  0  0
    2.9220    1.9586   -0.7587 C   0  0  0  0  0  0  0  0  0  0  0  0
    2.5928    1.0712   -1.3402 H   0  0  0  0  0  0  0  0  0  0  0  0
    2.4714    2.8458   -1.2513 H   0  0  0  0  0  0  0  0  0  0  0  0
    5.1947    3.1988   -0.8377 C   0  0  0  0  0  0  0  0  0  0  0  0
    4.8852    4.2449   -0.9501 H   0  0  0  0  0  0  0  0  0  0  0  0
    4.4168    2.0522   -0.7639 C   0  0  0  0  0  0  0  0  0  0  0  0
    5.3398    0.9484   -0.6279 C   0  0  0  0  0  0  0  0  0  0  0  0
    5.1728   -0.4494   -0.5184 C   0  0  0  0  0  0  0  0  0  0  0  0
    4.1652   -0.8886   -0.5168 H   0  0  0  0  0  0  0  0  0  0  0  0
    6.3063   -1.2592   -0.4040 C   0  0  0  0  0  0  0  0  0  0  0  0
    6.1836   -2.3489   -0.3096 H   0  0  0  0  0  0  0  0  0  0  0  0
    7.6085   -0.6994   -0.4032 C   0  0  0  0  0  0  0  0  0  0  0  0
    8.4823   -1.3623   -0.3120 H   0  0  0  0  0  0  0  0  0  0  0  0
    7.8070    0.6816   -0.5186 C   0  0  0  0  0  0  0  0  0  0  0  0
    8.8199    1.1124   -0.5218 H   0  0  0  0  0  0  0  0  0  0  0  0
    6.6648    1.4946   -0.6296 C   0  0  0  0  0  0  0  0  0  0  0  0
  2 17  1  0  0  0  0
  2 15  1  0  0  0  0
  3 35  1  0  0  0  0
  4  3  1  0  0  0  0
  5  1  1  6  0  0  0
  5 14  1  0  0  0  0
  6  5  1  0  0  0  0
  6  8  2  0  0  0  0
  7  6  1  0  0  0  0
  8 10  1  0  0  0  0
  9  8  1  0  0  0  0
 10 12  2  0  0  0  0
 10 11  1  0  0  0  0
 12 13  1  0  0  0  0
 14 15  2  0  0  0  0
 14 12  1  0  0  0  0
 15 16  1  0  0  0  0
 17 18  1  0  0  0  0
 17 19  1  0  0  0  0
 20 17  1  0  0  0  0
 21 20  1  0  0  0  0
 22 20  1  0  0  0  0
 23 25  2  0  0  0  0
 23  3  1  0  0  0  0
 24 23  1  0  0  0  0
 25 20  1  0  0  0  0
 25 26  1  0  0  0  0
 26 27  1  0  0  0  0
 27 28  1  0  0  0  0
 27 29  2  0  0  0  0
 29 31  1  0  0  0  0
 29 30  1  0  0  0  0
 31 32  1  0  0  0  0
 33 31  2  0  0  0  0
 34 33  1  0  0  0  0
 35 26  2  0  0  0  0
 35 33  1  0  0  0  0
M  END
