1,2
q = -2.0, confidence = 0.884

 26 28  0  0  0  0  0  0  0  0999 V2000
    0.3563    0.2148   -0.7176 O   0  0  0  0  0  1  0  0  0  0  0  0
    0.5490    0.4191    1.7785 N   0  0  0  0  0  2  0  0  0  0  0  0
    3.8427   -0.9347   -0.2209 N   0  0  0  0  0  0  0  0  0  0  0  0
    1.5065    2.8060   -1.1694 N   0  0  0  0  0  0  0  0  0  0  0  0
    1.7367    0.6373    1.1721 N   0  0  0  0  0  0  0  0  0  0  0  0
    2.6082   -0.7792   -0.7608 N   0  0  0  0  0  0  0  0  0  0  0  0
    2.2942    1.7116   -1.0764 N   0  0  0  0  0  0  0  0  0  0  0  0
    2.6747    0.9579    2.0960 C   0  0  0  0  0  3  0  0  0  0  0  0
    2.0614    0.9504    3.3540 C   0  0  0  0  0  0  0  0  0  0  0  0
    0.7154    0.6055    3.1022 C   0  0  0  0  0  0  0  0  0  0  0  0
    2.3020   -1.7913   -1.6249 C   0  0  0  0  0  0  0  0  0  0  0  0
    3.3929   -2.6586   -1.6483 C   0  0  0  0  0  0  0  0  0  0  0  0
    4.3230   -2.0695   -0.7534 C   0  0  0  0  0  0  0  0  0  0  0  0
    3.5280    1.9623   -1.5924 C   0  0  0  0  0  0  0  0  0  0  0  0
    3.5391    3.2832   -2.0474 C   0  0  0  0  0  0  0  0  0  0  0  0
    2.2424    3.7638   -1.7572 C   0  0  0  0  0  0  0  0  0  0  0  0
    1.7413    0.4334   -0.3906 B   0  0  0  0  0  0  0  0  0  0  0  0
    3.7085    1.1363    1.7845 H   0  0  0  0  0  0  0  0  0  0  0  0
    2.5245    1.1679    4.3214 H   0  0  0  0  0  0  0  0  0  0  0  0
   -0.1354    0.4750    3.7801 H   0  0  0  0  0  0  0  0  0  0  0  0
    1.3344   -1.8166   -2.1377 H   0  0  0  0  0  0  0  0  0  0  0  0
    3.4957   -3.5832   -2.2259 H   0  0  0  0  0  0  0  0  0  0  0  0
    5.3239   -2.4230   -0.4714 H   0  0  0  0  0  0  0  0  0  0  0  0
    4.2984    1.1835   -1.5773 H   0  0  0  0  0  0  0  0  0  0  0  0
    4.3673    3.8161   -2.5251 H   0  0  0  0  0  0  0  0  0  0  0  0
    1.8083    4.7530   -1.9519 H   0  0  0  0  0  0  0  0  0  0  0  0
  1 17  1  0  0  0  0
  2 10  1  0  0  0  0
  4  7  1  0  0  0  0
  5  2  1  0  0  0  0
  5  8  1  0  0  0  0
  6 17  1  0  0  0  0
  6  3  1  0  0  0  0
  7 17  1  0  0  0  0
  8  9  1  0  0  0  0
  9 19  1  0  0  0  0
 10  9  2  0  0  0  0
 10 20  1  0  0  0  0
 11  6  1  0  0  0  0
 12 11  2  0  0  0  0
 12 13  1  0  0  0  0
 13 23  1  0  0  0  0
 13  3  2  0  0  0  0
 14 24  1  0  0  0  0
 14  7  1  0  0  0  0
 15 16  1  0  0  0  0
 15 14  2  0  0  0  0
 16  4  2  0  0  0  0
 17  5  1  0  0  0  0
 18  8  1  0  0  0  0
 21 11  1  0  0  0  0
 22 12  1  0  0  0  0
 25 15  1  0  0  0  0
 26 16  1  0  0  0  0
M  END
