1,2
q = -1.0, confidence = 0.0

 42 46  0  0  0  0  0  0  0  0999 V2000
   -2.8534   -1.4063   -0.0432 O   0  5  0  0  0  0  0  0  0  0  0  0
   -0.4379    0.1146   -0.1553 N   0  0  0  0  0  2  0  0  0  0  0  0
   -1.3206    1.0935   -0.1300 C   0  0  0  0  0  3  0  0  0  0  0  0
   -0.8809    2.1031   -0.2000 H   0  0  0  0  0  0  0  0  0  0  0  0
    0.9370    0.4802   -0.2762 C   0  0  0  0  0  0  0  0  0  0  0  0
    1.8317    0.1210    0.7568 C   0  0  0  0  0  0  0  0  0  0  0  0
    1.4258   -0.4126    1.6315 H   0  0  0  0  0  0  0  0  0  0  0  0
    3.1747    0.4738    0.6308 C   0  0  0  0  0  0  0  0  0  0  0  0
    4.3230    0.2246    1.5849 C   0  0  0  0  0  0  0  0  0  0  0  0
    4.4716   -0.8598    1.7840 H   0  0  0  0  0  0  0  0  0  0  0  0
    4.1424    0.6945    2.5767 H   0  0  0  0  0  0  0  0  0  0  0  0
    5.5058    0.8417    0.8705 C   0  0  0  0  0  0  0  0  0  0  0  0
    6.8461    0.9170    1.2624 C   0  0  0  0  0  0  0  0  0  0  0  0
    7.1764    0.4865    2.2206 H   0  0  0  0  0  0  0  0  0  0  0  0
    7.7708    1.5532    0.4139 C   0  0  0  0  0  0  0  0  0  0  0  0
    8.8284    1.6187    0.7114 H   0  0  0  0  0  0  0  0  0  0  0  0
    7.3564    2.1077   -0.8118 C   0  0  0  0  0  0  0  0  0  0  0  0
    8.0940    2.6022   -1.4620 H   0  0  0  0  0  0  0  0  0  0  0  0
    6.0131    2.0367   -1.2118 C   0  0  0  0  0  0  0  0  0  0  0  0
    5.6931    2.4724   -2.1708 H   0  0  0  0  0  0  0  0  0  0  0  0
    5.0867    1.4011   -0.3674 C   0  0  0  0  0  0  0  0  0  0  0  0
    3.6435    1.1778   -0.5144 C   0  0  0  0  0  0  0  0  0  0  0  0
    2.7487    1.5371   -1.5350 C   0  0  0  0  0  0  0  0  0  0  0  0
    3.0972    2.0803   -2.4265 H   0  0  0  0  0  0  0  0  0  0  0  0
    1.3948    1.1878   -1.4096 C   0  0  0  0  0  0  0  0  0  0  0  0
    0.6758    1.4433   -2.2027 H   0  0  0  0  0  0  0  0  0  0  0  0
   -2.7388    1.0224   -0.0272 C   0  0  0  0  0  0  0  0  0  0  0  0
   -3.4201   -0.2420   -0.0194 C   0  0  0  0  0  0  0  0  0  0  0  0
   -4.8635   -0.2508   -0.0119 C   0  0  0  0  0  0  0  0  0  0  0  0
   -5.3493   -1.2369   -0.0218 H   0  0  0  0  0  0  0  0  0  0  0  0
   -5.5862    0.9138    0.0245 C   0  0  0  0  0  0  0  0  0  0  0  0
   -6.6874    0.8782    0.0421 H   0  0  0  0  0  0  0  0  0  0  0  0
   -4.9481    2.1977    0.0526 C   0  0  0  0  0  0  0  0  0  0  0  0
   -5.7193    3.3887    0.1051 C   0  0  0  0  0  0  0  0  0  0  0  0
   -6.8171    3.2995    0.1185 H   0  0  0  0  0  0  0  0  0  0  0  0
   -5.1125    4.6384    0.1430 C   0  0  0  0  0  0  0  0  0  0  0  0
   -5.7187    5.5553    0.1851 H   0  0  0  0  0  0  0  0  0  0  0  0
   -3.7015    4.7135    0.1348 C   0  0  0  0  0  0  0  0  0  0  0  0
   -3.2043    5.6947    0.1756 H   0  0  0  0  0  0  0  0  0  0  0  0
   -2.9248    3.5584    0.0833 C   0  0  0  0  0  0  0  0  0  0  0  0
   -1.8324    3.6751    0.0968 H   0  0  0  0  0  0  0  0  0  0  0  0
   -3.5107    2.2618    0.0326 C   0  0  0  0  0  0  0  0  0  0  0  0
  1 28  1  0  0  0  0
  2  3  1  0  0  0  0
  3 27  1  0  0  0  0
  4  3  1  0  0  0  0
  5  2  1  0  0  0  0
  5  6  1  0  0  0  0
  6  7  1  0  0  0  0
  8  6  2  0  0  0  0
  8  9  1  0  0  0  0
  9 10  1  0  0  0  0
  9 11  1  0  0  0  0
 12 13  1  0  0  0  0
 12  9  1  0  0  0  0
 13 14  1  0  0  0  0
 15 16  1  0  0  0  0
 15 13  2  0  0  0  0
 17 15  1  0  0  0  0
 18 17  1  0  0  0  0
 19 17  2  0  0  0  0
 19 21  1  0  0  0  0
 20 19  1  0  0  0  0
 21 12  2  0  0  0  0
 22 21  1  0  0  0  0
 22  8  1  0  0  0  0
 23 25  1  0  0  0  0
 23 22  2  0  0  0  0
 24 23  1  0  0  0  0
 25  5  2  0  0  0  0
 26 25  1  0  0  0  0
 27 28  2  0  0  0  0
 27 42  1  0  0  0  0
 28 29  1  0  0  0  0
 29 31  2  0  0  0  0
 30 29  1  0  0  0  0
 31 32  1  0  0  0  0
 31 33  1  0  0  0  0
 33 34  1  0  0  0  0
 34 35  1  0  0  0  0
 34 36  2  0  0  0  0
 36 37  1  0  0  0  0
 38 36  1  0  0  0  0
 38 39  1  0  0  0  0
 40 41  1  0  0  0  0
 40 38  2  0  0  0  0
 42 33  2  0  0  0  0
 42 40  1  0  0  0  0
M  CHG  1   1  -1
M  END
