1,4
q = -2.0, confidence = 0.558

  7  6  0  0  0  0  0  0  0  0999 V2000
    1.0247   -0.8666    0.9816 N   0  0  0  0  0  2  0  0  0  0  0  0
    0.9828   -1.5014    1.7940 H   0  0  0  0  0  0  0  0  0  0  0  0
    3.3314   -0.9530    1.1054 O   0  0  0  0  0  0  0  0  0  0  0  0
    1.0164    0.8215   -0.9346 O   0  5  0  0  0  0  0  0  0  0  0  0
    3.2528    0.8958   -1.1384 O   0  0  0  0  0  0  0  0  0  0  0  0
    2.2631    0.4646   -0.5868 C   0  0  0  0  0  0  0  0  0  0  0  0
    2.2965   -0.5380    0.6016 C   0  0  0  0  0  0  0  0  0  0  0  0
  1  2  1  0  0  0  0
  4  6  1  0  0  0  0
  5  6  2  0  0  0  0
  6  7  1  0  0  0  0
  7  1  1  0  0  0  0
  7  3  2  0  0  0  0
M  CHG  1   4  -1
M  END
