1,4
q = -1.0, confidence = 0.026

 38 39  0  0  1  0  0  0  0  0999 V2000
    1.7092   -0.6361   -0.3357 O   0  0  0  0  0  1  0  0  0  0  0  0
    5.5693   -3.4456   -0.4602 O   0  0  0  0  0  0  0  0  0  0  0  0
   -7.1125   -2.3821   -0.4664 O   0  0  0  0  0  0  0  0  0  0  0  0
   -0.6429   -1.7395    0.5418 N   0  0  0  0  0  2  0  0  0  0  0  0
   -4.3261   -1.7849   -0.2024 N   0  0  0  0  0  0  0  0  0  0  0  0
    2.2466   -1.8050   -0.1316 C   0  0  2  0  0  3  0  0  0  0  0  0
    3.6414   -1.9592   -0.3881 C   0  0  0  0  0  0  0  0  0  0  0  0
    4.1883   -1.0589   -0.6995 H   0  0  0  0  0  0  0  0  0  0  0  0
    4.2547   -3.2051   -0.2202 C   0  0  0  0  0  0  0  0  0  0  0  0
    3.5082   -4.3356    0.2269 C   0  0  0  0  0  0  0  0  0  0  0  0
    4.0294   -5.2949    0.3460 H   0  0  0  0  0  0  0  0  0  0  0  0
    2.1600   -4.1879    0.4951 C   0  0  0  0  0  0  0  0  0  0  0  0
    1.5736   -5.0530    0.8442 H   0  0  0  0  0  0  0  0  0  0  0  0
    1.4949   -2.9390    0.3283 C   0  0  0  0  0  0  0  0  0  0  0  0
    6.3677   -2.3871   -0.9564 C   0  0  0  0  0  0  0  0  0  0  0  0
    7.3808   -2.8024   -1.1097 H   0  0  0  0  0  0  0  0  0  0  0  0
    6.4264   -1.5416   -0.2351 H   0  0  0  0  0  0  0  0  0  0  0  0
    5.9792   -1.9956   -1.9227 H   0  0  0  0  0  0  0  0  0  0  0  0
    0.1042   -2.8214    0.6118 C   0  0  0  0  0  0  0  0  0  0  0  0
   -0.3984   -3.7553    0.9368 H   0  0  0  0  0  0  0  0  0  0  0  0
   -2.0644   -1.9270    0.8505 C   0  0  0  0  0  0  0  0  0  0  0  0
   -2.4176   -1.0825    1.4683 H   0  0  0  0  0  0  0  0  0  0  0  0
   -2.1804   -2.8671    1.4305 H   0  0  0  0  0  0  0  0  0  0  0  0
   -2.9018   -1.9623   -0.4352 C   0  0  0  0  0  0  0  0  0  0  0  0
   -2.5538   -1.1242   -1.0699 H   0  0  0  0  0  0  0  0  0  0  0  0
   -2.6827   -2.9132   -0.9947 H   0  0  0  0  0  0  0  0  0  0  0  0
   -4.9441   -2.8907    0.5232 C   0  0  0  0  0  0  0  0  0  0  0  0
   -4.4453   -3.0205    1.5057 H   0  0  0  0  0  0  0  0  0  0  0  0
   -4.8391   -3.8598   -0.0377 H   0  0  0  0  0  0  0  0  0  0  0  0
   -6.4274   -2.6085    0.7530 C   0  0  0  0  0  0  0  0  0  0  0  0
   -6.9162   -3.4741    1.2432 H   0  0  0  0  0  0  0  0  0  0  0  0
   -6.5258   -1.7188    1.4255 H   0  0  0  0  0  0  0  0  0  0  0  0
   -6.5313   -1.2935   -1.1633 C   0  0  0  0  0  0  0  0  0  0  0  0
   -6.6483   -0.3514   -0.5696 H   0  0  0  0  0  0  0  0  0  0  0  0
   -7.0928   -1.1776   -2.1117 H   0  0  0  0  0  0  0  0  0  0  0  0
   -5.0487   -1.5228   -1.4439 C   0  0  0  0  0  0  0  0  0  0  0  0
   -4.9466   -2.3762   -2.1679 H   0  0  0  0  0  0  0  0  0  0  0  0
   -4.6159   -0.6213   -1.9271 H   0  0  0  0  0  0  0  0  0  0  0  0
  2  9  1  0  0  0  0
  3 30  1  0  0  0  0
  4 19  1  0  0  0  0
  4 21  1  0  0  0  0
  5 27  1  0  0  0  0
  6  1  1  6  0  0  0
  6 14  1  0  0  0  0
  7  9  2  0  0  0  0
  7  6  1  0  0  0  0
  8  7  1  0  0  0  0
  9 10  1  0  0  0  0
 10 11  1  0  0  0  0
 10 12  2  0  0  0  0
 12 13  1  0  0  0  0
 14 12  1  0  0  0  0
 14 19  2  0  0  0  0
 15  2  1  0  0  0  0
 15 17  1  0  0  0  0
 16 15  1  0  0  0  0
 18 15  1  0  0  0  0
 19 20  1  0  0  0  0
 21 23  1  0  0  0  0
 21 22  1  0  0  0  0
 24  5  1  0  0  0  0
 24 21  1  0  0  0  0
 25 24  1  0  0  0  0
 26 24  1  0  0  0  0
 27 30  1  0  0  0  0
 27 28  1  0  0  0  0
 29 27  1  0  0  0  0
 30 31  1  0  0  0  0
 30 32  1  0  0  0  0
 33 34  1  0  0  0  0
 33  3  1  0  0  0  0
 35 33  1  0  0  0  0
 36 33  1  0  0  0  0
 36  5  1  0  0  0  0
 37 36  1  0  0  0  0
 38 36  1  0  0  0  0
M  END
