1,4
q = -1.0, confidence = 0.026

 38 39  0  0  0  0  0  0  0  0999 V2000
   -1.7093    0.6362    0.3356 O   0  5  0  0  0  0  0  0  0  0  0  0
   -5.5693    3.4458    0.4601 O   0  0  0  0  0  0  0  0  0  0  0  0
    7.1125    2.3817    0.4665 O   0  0  0  0  0  0  0  0  0  0  0  0
    0.6429    1.7396   -0.5418 N   0  0  0  0  0  2  0  0  0  0  0  0
    4.3261    1.7848    0.2025 N   0  0  0  0  0  0  0  0  0  0  0  0
   -2.2466    1.8051    0.1315 C   0  0  0  0  0  0  0  0  0  0  0  0
   -3.6414    1.9594    0.3880 C   0  0  0  0  0  0  0  0  0  0  0  0
   -4.1884    1.0590    0.6993 H   0  0  0  0  0  0  0  0  0  0  0  0
   -4.2547    3.2052    0.2200 C   0  0  0  0  0  0  0  0  0  0  0  0
   -3.5081    4.3357   -0.2269 C   0  0  0  0  0  0  0  0  0  0  0  0
   -4.0294    5.2950   -0.3461 H   0  0  0  0  0  0  0  0  0  0  0  0
   -2.1600    4.1880   -0.4951 C   0  0  0  0  0  3  0  0  0  0  0  0
   -1.5735    5.0531   -0.8441 H   0  0  0  0  0  0  0  0  0  0  0  0
   -1.4949    2.9392   -0.3283 C   0  0  0  0  0  0  0  0  0  0  0  0
   -6.3678    2.3872    0.9561 C   0  0  0  0  0  0  0  0  0  0  0  0
   -7.3808    2.8026    1.1094 H   0  0  0  0  0  0  0  0  0  0  0  0
   -6.4265    1.5418    0.2349 H   0  0  0  0  0  0  0  0  0  0  0  0
   -5.9793    1.9958    1.9225 H   0  0  0  0  0  0  0  0  0  0  0  0
   -0.1041    2.8215   -0.6118 C   0  0  0  0  0  0  0  0  0  0  0  0
    0.3984    3.7554   -0.9367 H   0  0  0  0  0  0  0  0  0  0  0  0
    2.0645    1.9270   -0.8505 C   0  0  0  0  0  0  0  0  0  0  0  0
    2.4176    1.0825   -1.4682 H   0  0  0  0  0  0  0  0  0  0  0  0
    2.1805    2.8671   -1.4305 H   0  0  0  0  0  0  0  0  0  0  0  0
    2.9018    1.9624    0.4352 C   0  0  0  0  0  0  0  0  0  0  0  0
    2.5537    1.1244    1.0700 H   0  0  0  0  0  0  0  0  0  0  0  0
    2.6828    2.9133    0.9947 H   0  0  0  0  0  0  0  0  0  0  0  0
    4.9442    2.8904   -0.5232 C   0  0  0  0  0  0  0  0  0  0  0  0
    4.4455    3.0202   -1.5058 H   0  0  0  0  0  0  0  0  0  0  0  0
    4.8394    3.8596    0.0376 H   0  0  0  0  0  0  0  0  0  0  0  0
    6.4275    2.6080   -0.7529 C   0  0  0  0  0  0  0  0  0  0  0  0
    6.9164    3.4735   -1.2432 H   0  0  0  0  0  0  0  0  0  0  0  0
    6.5258    1.7182   -1.4253 H   0  0  0  0  0  0  0  0  0  0  0  0
    6.5312    1.2932    1.1635 C   0  0  0  0  0  0  0  0  0  0  0  0
    6.6481    0.3510    0.5700 H   0  0  0  0  0  0  0  0  0  0  0  0
    7.0927    1.1774    2.1120 H   0  0  0  0  0  0  0  0  0  0  0  0
    5.0486    1.5227    1.4441 C   0  0  0  0  0  0  0  0  0  0  0  0
    4.9466    2.3763    2.1680 H   0  0  0  0  0  0  0  0  0  0  0  0
    4.6157    0.6213    1.9274 H   0  0  0  0  0  0  0  0  0  0  0  0
  2 15  1  0  0  0  0
  3 33  1  0  0  0  0
  5 24  1  0  0  0  0
  5 36  1  0  0  0  0
  6  1  1  0  0  0  0
  6  7  2  0  0  0  0
  7  8  1  0  0  0  0
  9  7  1  0  0  0  0
  9  2  1  0  0  0  0
 10  9  2  0  0  0  0
 11 10  1  0  0  0  0
 12 14  1  0  0  0  0
 12 10  1  0  0  0  0
 13 12  1  0  0  0  0
 14  6  1  0  0  0  0
 15 16  1  0  0  0  0
 15 18  1  0  0  0  0
 17 15  1  0  0  0  0
 19  4  1  0  0  0  0
 19 14  2  0  0  0  0
 20 19  1  0  0  0  0
 21  4  1  0  0  0  0
 21 24  1  0  0  0  0
 22 21  1  0  0  0  0
 23 21  1  0  0  0  0
 24 26  1  0  0  0  0
 24 25  1  0  0  0  0
 27 29  1  0  0  0  0
 27  5  1  0  0  0  0
 28 27  1  0  0  0  0
 30 27  1  0  0  0  0
 30  3  1  0  0  0  0
 31 30  1  0  0  0  0
 32 30  1  0  0  0  0
 33 36  1  0  0  0  0
 33 35  1  0  0  0  0
 34 33  1  0  0  0  0
 36 38  1  0  0  0  0
 36 37  1  0  0  0  0
M  CHG  1   1  -1
M  END
