1,3
q = -1.0, confidence = 0.03

 16 16  0  0  1  0  0  0  0  0999 V2000
    0.5513    1.5254    0.8855 O   0  5  0  0  0  0  0  0  0  0  0  0
   -1.0702    3.0803    1.1440 O   0  0  0  0  0  0  0  0  0  0  0  0
   -1.0703   -0.2260   -0.1680 N   0  0  0  0  0  2  0  0  0  0  0  0
   -3.2396   -1.0591   -0.7731 C   0  0  0  0  0  0  0  0  0  0  0  0
   -3.8538   -1.8802   -1.1650 H   0  0  0  0  0  0  0  0  0  0  0  0
   -3.8317    0.1608   -0.3873 C   0  0  0  0  0  0  0  0  0  0  0  0
   -1.6328    0.9427    0.2323 C   0  0  1  0  0  3  0  0  0  0  0  0
   -3.0064    1.1706    0.1309 C   0  0  0  0  0  0  0  0  0  0  0  0
   -3.4080    2.1371    0.4679 H   0  0  0  0  0  0  0  0  0  0  0  0
   -0.6810    1.9675    0.8099 C   0  0  0  0  0  0  0  0  0  0  0  0
   -5.8457    1.4556   -0.1783 O   0  0  0  0  0  0  0  0  0  0  0  0
   -5.9739   -0.6548   -0.9945 O   0  0  0  0  0  0  0  0  0  0  0  0
   -6.9176   -0.3857   -1.0188 H   0  0  0  0  0  0  0  0  0  0  0  0
   -5.3029    0.4144   -0.4961 C   0  0  0  0  0  0  0  0  0  0  0  0
   -1.8593   -1.2163   -0.6419 C   0  0  0  0  0  0  0  0  0  0  0  0
   -1.3594   -2.1592   -0.9029 H   0  0  0  0  0  0  0  0  0  0  0  0
  3  7  1  0  0  0  0
  4 15  2  0  0  0  0
  4  6  1  0  0  0  0
  5  4  1  0  0  0  0
  6  8  2  0  0  0  0
  7 10  1  1  0  0  0
  8  7  1  0  0  0  0
  8  9  1  0  0  0  0
 10  1  1  0  0  0  0
 10  2  2  0  0  0  0
 12 14  1  0  0  0  0
 13 12  1  0  0  0  0
 14  6  1  0  0  0  0
 14 11  2  0  0  0  0
 15  3  1  0  0  0  0
 16 15  1  0  0  0  0
M  CHG  1   1  -1
M  END
