3,4
q = 0.0, confidence = 0.962

 30 30  0  0  0  0  0  0  0  0999 V2000
   -3.2826   -2.5543    0.1917 Br  0  0  0  0  0  0  0  0  0  0  0  0
   -5.7295    2.4457    0.0011 Cl  0  0  0  0  0  0  0  0  0  0  0  0
   -0.8365   -0.8662   -0.2276 O   0  5  0  0  0  0  0  0  0  0  0  0
    0.6102    1.6909   -0.6481 N   0  0  0  0  0  2  0  0  0  0  0  0
    4.3946    0.9108    0.8691 N   0  3  0  0  0  0  0  0  0  0  0  0
    3.5107    0.4698    1.3618 H   0  0  0  0  0  0  0  0  0  0  0  0
    4.8038    1.5528    1.5677 H   0  0  0  0  0  0  0  0  0  0  0  0
   -1.8316    1.3493   -0.3328 C   0  0  0  0  0  0  0  0  0  0  0  0
   -1.8651   -0.0970   -0.1864 C   0  0  0  0  0  0  0  0  0  0  0  0
   -3.1789   -0.6713    0.0054 C   0  0  0  0  0  0  0  0  0  0  0  0
   -4.3372    0.0918    0.0647 C   0  0  0  0  0  0  0  0  0  0  0  0
   -5.3111   -0.3921    0.2194 H   0  0  0  0  0  0  0  0  0  0  0  0
   -4.2611    1.4991   -0.0749 C   0  0  0  0  0  0  0  0  0  0  0  0
   -3.0351    2.1128   -0.2729 C   0  0  0  0  0  0  0  0  0  0  0  0
   -2.9854    3.2059   -0.3880 H   0  0  0  0  0  0  0  0  0  0  0  0
   -0.6299    2.1039   -0.5720 C   0  0  0  0  0  3  0  0  0  0  0  0
   -0.8056    3.1941   -0.7208 H   0  0  0  0  0  0  0  0  0  0  0  0
    1.6279    2.6890   -0.9535 C   0  0  0  0  0  0  0  0  0  0  0  0
    1.1665    3.7020   -0.9716 H   0  0  0  0  0  0  0  0  0  0  0  0
    2.0179    2.4983   -1.9794 H   0  0  0  0  0  0  0  0  0  0  0  0
    2.8010    2.6810    0.0489 C   0  0  0  0  0  0  0  0  0  0  0  0
    2.3834    2.4416    1.0501 H   0  0  0  0  0  0  0  0  0  0  0  0
    3.2261    3.7033    0.1124 H   0  0  0  0  0  0  0  0  0  0  0  0
    3.9024    1.6740   -0.3190 C   0  0  0  0  0  0  0  0  0  0  0  0
    3.5246    0.8962   -1.0194 H   0  0  0  0  0  0  0  0  0  0  0  0
    4.7771    2.1592   -0.7978 H   0  0  0  0  0  0  0  0  0  0  0  0
    5.3342   -0.1930    0.5458 C   0  0  0  0  0  0  0  0  0  0  0  0
    4.8029   -0.8862   -0.1377 H   0  0  0  0  0  0  0  0  0  0  0  0
    5.6017   -0.7203    1.4794 H   0  0  0  0  0  0  0  0  0  0  0  0
    6.2408    0.2100    0.0567 H   0  0  0  0  0  0  0  0  0  0  0  0
  3  9  1  0  0  0  0
  4 16  1  0  0  0  0
  5  6  1  0  0  0  0
  5  7  1  0  0  0  0
  8 14  2  0  0  0  0
  8  9  1  0  0  0  0
  9 10  2  0  0  0  0
 10 11  1  0  0  0  0
 10  1  1  0  0  0  0
 11 12  1  0  0  0  0
 13  2  1  0  0  0  0
 13 11  2  0  0  0  0
 14 13  1  0  0  0  0
 15 14  1  0  0  0  0
 16  8  1  0  0  0  0
 17 16  1  0  0  0  0
 18  4  1  0  0  0  0
 18 21  1  0  0  0  0
 19 18  1  0  0  0  0
 20 18  1  0  0  0  0
 21 23  1  0  0  0  0
 21 22  1  0  0  0  0
 24 21  1  0  0  0  0
 24  5  1  0  0  0  0
 25 24  1  0  0  0  0
 26 24  1  0  0  0  0
 27  5  1  0  0  0  0
 27 29  1  0  0  0  0
 28 27  1  0  0  0  0
 30 27  1  0  0  0  0
M  CHG  2   3  -1   5   1
M  END
