2,3
q = -1.0, confidence = 0.0

 28 29  0  0  0  0  0  0  0  0999 V2000
   -7.2683    1.4485    0.8498 Cl  0  0  0  0  0  0  0  0  0  0  0  0
   -1.4840    0.0139   -1.5403 N   0  0  0  0  0  2  0  0  0  0  0  0
   -1.5989   -0.1279    1.3005 O   0  5  0  0  0  0  0  0  0  0  0  0
   -2.8333    0.2550    1.1471 C   0  0  0  0  0  0  0  0  0  0  0  0
   -3.4561    0.4628   -0.1343 C   0  0  0  0  0  0  0  0  0  0  0  0
   -2.7502    0.2702   -1.3752 C   0  0  0  0  0  3  0  0  0  0  0  0
   -3.3883    0.3380   -2.2764 H   0  0  0  0  0  0  0  0  0  0  0  0
   -4.8284    0.8247   -0.2046 C   0  0  0  0  0  0  0  0  0  0  0  0
   -5.2966    0.9778   -1.1886 H   0  0  0  0  0  0  0  0  0  0  0  0
   -3.6481    0.4255    2.3095 C   0  0  0  0  0  0  0  0  0  0  0  0
   -3.1715    0.2649    3.2874 H   0  0  0  0  0  0  0  0  0  0  0  0
   -4.9864    0.7880    2.2181 C   0  0  0  0  0  0  0  0  0  0  0  0
   -5.5921    0.9238    3.1259 H   0  0  0  0  0  0  0  0  0  0  0  0
   -1.9223   -0.5333   -3.9996 C   0  0  0  0  0  0  0  0  0  0  0  0
   -1.3553   -1.1153   -4.7527 H   0  0  0  0  0  0  0  0  0  0  0  0
   -2.7159   -1.2100   -3.6228 H   0  0  0  0  0  0  0  0  0  0  0  0
   -0.9215   -0.1181   -2.8954 C   0  0  0  0  0  0  0  0  0  0  0  0
   -0.0930   -0.8435   -2.8078 H   0  0  0  0  0  0  0  0  0  0  0  0
   -5.5827    0.9913    0.9509 C   0  0  0  0  0  0  0  0  0  0  0  0
   -0.4064    1.2506   -3.4030 C   0  0  0  0  0  0  0  0  0  0  0  0
    0.1038    1.8204   -2.6077 H   0  0  0  0  0  0  0  0  0  0  0  0
    0.3329    1.0567   -4.2091 H   0  0  0  0  0  0  0  0  0  0  0  0
   -1.6630    1.9262   -3.9661 C   0  0  0  0  0  0  0  0  0  0  0  0
   -2.2433    2.3760   -3.1332 H   0  0  0  0  0  0  0  0  0  0  0  0
   -1.4268    2.7526   -4.6653 H   0  0  0  0  0  0  0  0  0  0  0  0
   -2.4667    0.7812   -4.6320 C   0  0  0  0  0  0  0  0  0  0  0  0
   -2.3094    0.7716   -5.7293 H   0  0  0  0  0  0  0  0  0  0  0  0
   -3.5595    0.9017   -4.4814 H   0  0  0  0  0  0  0  0  0  0  0  0
  1 19  1  0  0  0  0
  2  6  1  0  0  0  0
  4  3  1  0  0  0  0
  4 10  1  0  0  0  0
  5  4  2  0  0  0  0
  6  5  1  0  0  0  0
  7  6  1  0  0  0  0
  8  5  1  0  0  0  0
  8 19  2  0  0  0  0
  9  8  1  0  0  0  0
 10 11  1  0  0  0  0
 12 10  2  0  0  0  0
 12 13  1  0  0  0  0
 14 16  1  0  0  0  0
 14 17  1  0  0  0  0
 15 14  1  0  0  0  0
 17 18  1  0  0  0  0
 17  2  1  0  0  0  0
 19 12  1  0  0  0  0
 20 17  1  0  0  0  0
 20 21  1  0  0  0  0
 22 20  1  0  0  0  0
 23 20  1  0  0  0  0
 23 24  1  0  0  0  0
 25 23  1  0  0  0  0
 26 28  1  0  0  0  0
 26 14  1  0  0  0  0
 26 23  1  0  0  0  0
 27 26  1  0  0  0  0
M  CHG  1   3  -1
M  END
