1,2
q = -1.0, confidence = 0.002

 31 33  0  0  1  0  0  0  0  0999 V2000
   -0.2025    0.7110   -0.1775 N   0  0  0  0  0  2  0  0  0  0  0  0
    1.4983   -1.5173   -0.6843 O   0  5  0  0  0  0  0  0  0  0  0  0
    2.2699    0.7520   -0.2704 C   0  0  0  0  0  0  0  0  0  0  0  0
    0.9694    1.3106   -0.1094 C   0  0  0  0  0  0  0  0  0  0  0  0
    0.9171    2.3919    0.1051 H   0  0  0  0  0  0  0  0  0  0  0  0
   -1.5686    2.1333    1.2986 C   0  0  0  0  0  0  0  0  0  0  0  0
   -0.8199    2.0124    2.0962 H   0  0  0  0  0  0  0  0  0  0  0  0
    3.4391    1.6196   -0.1399 C   0  0  1  0  0  3  0  0  0  0  0  0
   -3.6842    3.0089    0.5069 C   0  0  0  0  0  0  0  0  0  0  0  0
   -2.3232    1.6448   -0.9680 C   0  0  0  0  0  0  0  0  0  0  0  0
   -2.1292    1.1427   -1.9294 H   0  0  0  0  0  0  0  0  0  0  0  0
    2.4473   -0.6493   -0.5381 C   0  0  0  0  0  0  0  0  0  0  0  0
    3.7908   -1.1686   -0.6403 C   0  0  0  0  0  0  0  0  0  0  0  0
    3.8870   -2.2451   -0.8415 H   0  0  0  0  0  0  0  0  0  0  0  0
    4.8860   -0.3546   -0.5083 C   0  0  0  0  0  0  0  0  0  0  0  0
    5.8999   -0.7762   -0.6002 H   0  0  0  0  0  0  0  0  0  0  0  0
   -1.3616    1.5065    0.0548 C   0  0  0  0  0  0  0  0  0  0  0  0
    4.7560    1.0514   -0.2574 C   0  0  0  0  0  0  0  0  0  0  0  0
   -2.7320    2.8835    1.5300 C   0  0  0  0  0  0  0  0  0  0  0  0
   -2.9071    3.3664    2.5015 H   0  0  0  0  0  0  0  0  0  0  0  0
    3.3640    3.0212    0.0985 C   0  0  0  0  0  0  0  0  0  0  0  0
    2.3890    3.5200    0.1857 H   0  0  0  0  0  0  0  0  0  0  0  0
   -3.4808    2.3965   -0.7446 C   0  0  0  0  0  0  0  0  0  0  0  0
   -4.2323    2.5181   -1.5375 H   0  0  0  0  0  0  0  0  0  0  0  0
    4.5070    3.8081    0.2192 C   0  0  0  0  0  0  0  0  0  0  0  0
    4.3996    4.8885    0.4008 H   0  0  0  0  0  0  0  0  0  0  0  0
    5.9069    1.8730   -0.1300 C   0  0  0  0  0  0  0  0  0  0  0  0
    6.8977    1.4017   -0.2264 H   0  0  0  0  0  0  0  0  0  0  0  0
    5.7949    3.2378    0.1073 C   0  0  0  0  0  0  0  0  0  0  0  0
    6.6926    3.8662    0.2030 H   0  0  0  0  0  0  0  0  0  0  0  0
   -5.1368    3.9344    0.7884 Cl  0  0  0  0  0  0  0  0  0  0  0  0
  1  4  1  0  0  0  0
  1 17  1  0  0  0  0
  2 12  1  0  0  0  0
  3  4  2  0  0  0  0
  4  5  1  0  0  0  0
  6 19  1  0  0  0  0
  6  7  1  0  0  0  0
  8  3  1  6  0  0  0
  8 21  1  0  0  0  0
  9 31  1  0  0  0  0
  9 19  2  0  0  0  0
 10 23  2  0  0  0  0
 10 17  1  0  0  0  0
 11 10  1  0  0  0  0
 12  3  1  0  0  0  0
 13 12  2  0  0  0  0
 13 15  1  0  0  0  0
 14 13  1  0  0  0  0
 15 18  2  0  0  0  0
 16 15  1  0  0  0  0
 17  6  2  0  0  0  0
 18  8  1  0  0  0  0
 18 27  1  0  0  0  0
 19 20  1  0  0  0  0
 21 22  1  0  0  0  0
 21 25  2  0  0  0  0
 23  9  1  0  0  0  0
 24 23  1  0  0  0  0
 25 26  1  0  0  0  0
 27 29  2  0  0  0  0
 28 27  1  0  0  0  0
 29 30  1  0  0  0  0
 29 25  1  0  0  0  0
M  CHG  1   2  -1
M  END
