30,31
q = -1.0, confidence = 0.0

 31 33  0  0  0  0  0  0  0  0999 V2000
   -3.6367   -0.1102    0.0079 C   0  0  0  0  0  0  0  0  0  0  0  0
   -5.0010    0.3138    0.1103 C   0  0  0  0  0  0  0  0  0  0  0  0
   -5.1821    1.3816    0.3013 H   0  0  0  0  0  0  0  0  0  0  0  0
   -6.0507   -0.5824   -0.0335 C   0  0  0  0  0  0  0  0  0  0  0  0
   -7.0869   -0.2168    0.0435 H   0  0  0  0  0  0  0  0  0  0  0  0
   -5.8104   -1.9606   -0.2738 C   0  0  0  0  0  0  0  0  0  0  0  0
   -6.6497   -2.6623   -0.3812 H   0  0  0  0  0  0  0  0  0  0  0  0
   -4.5009   -2.4060   -0.3634 C   0  0  0  0  0  3  0  0  0  0  0  0
   -4.2910   -3.4735   -0.5390 H   0  0  0  0  0  0  0  0  0  0  0  0
   -3.3915   -1.5143   -0.2375 C   0  0  0  0  0  0  0  0  0  0  0  0
   -2.0861   -2.0873   -0.2999 C   0  0  0  0  0  0  0  0  0  0  0  0
   -2.0653   -3.1926   -0.3470 H   0  0  0  0  0  0  0  0  0  0  0  0
    0.2119   -2.4138   -0.2984 C   0  0  0  0  0  0  0  0  0  0  0  0
    0.4178   -3.2130   -1.4200 C   0  0  0  0  0  0  0  0  0  0  0  0
   -0.2732   -3.1223   -2.2710 H   0  0  0  0  0  0  0  0  0  0  0  0
    1.5358   -4.0823   -1.4933 C   0  0  0  0  0  0  0  0  0  0  0  0
    1.6900   -4.6881   -2.3986 H   0  0  0  0  0  0  0  0  0  0  0  0
    2.4405   -4.1439   -0.4457 C   0  0  0  0  0  0  0  0  0  0  0  0
    3.3223   -4.7999   -0.5051 H   0  0  0  0  0  0  0  0  0  0  0  0
    2.2464   -3.3616    0.7307 C   0  0  0  0  0  0  0  0  0  0  0  0
    3.1569   -3.4227    1.8265 C   0  0  0  0  0  0  0  0  0  0  0  0
    4.0302   -4.0886    1.7470 H   0  0  0  0  0  0  0  0  0  0  0  0
    2.9510   -2.6635    2.9677 C   0  0  0  0  0  0  0  0  0  0  0  0
    3.6641   -2.7199    3.8041 H   0  0  0  0  0  0  0  0  0  0  0  0
    1.8176   -1.8133    3.0624 C   0  0  0  0  0  0  0  0  0  0  0  0
    1.6566   -1.2170    3.9731 H   0  0  0  0  0  0  0  0  0  0  0  0
    0.9129   -1.7255    2.0147 C   0  0  0  0  0  0  0  0  0  0  0  0
    0.0449   -1.0546    2.0842 H   0  0  0  0  0  0  0  0  0  0  0  0
    1.1044   -2.4840    0.8242 C   0  0  0  0  0  0  0  0  0  0  0  0
   -0.8949   -1.5051   -0.2758 N   0  0  0  0  0  2  0  0  0  0  0  0
   -2.6909    0.7651    0.1547 O   0  5  0  0  0  0  0  0  0  0  0  0
  1  2  2  0  0  0  0
  1 31  1  0  0  0  0
  2  3  1  0  0  0  0
  4  5  1  0  0  0  0
  4  2  1  0  0  0  0
  6  4  2  0  0  0  0
  7  6  1  0  0  0  0
  8  6  1  0  0  0  0
  8 10  1  0  0  0  0
  9  8  1  0  0  0  0
 10  1  1  0  0  0  0
 11 30  1  0  0  0  0
 11 10  2  0  0  0  0
 12 11  1  0  0  0  0
 13 30  1  0  0  0  0
 13 29  1  0  0  0  0
 14 13  2  0  0  0  0
 15 14  1  0  0  0  0
 16 14  1  0  0  0  0
 16 18  2  0  0  0  0
 17 16  1  0  0  0  0
 18 20  1  0  0  0  0
 19 18  1  0  0  0  0
 20 29  2  0  0  0  0
 20 21  1  0  0  0  0
 21 23  2  0  0  0  0
 22 21  1  0  0  0  0
 23 25  1  0  0  0  0
 23 24  1  0  0  0  0
 25 26  1  0  0  0  0
 27 28  1  0  0  0  0
 27 25  2  0  0  0  0
 29 27  1  0  0  0  0
M  CHG  1  31  -1
M  END
