1,2
q = -1.0, confidence = 0.0

 24 24  0  0  0  0  0  0  0  0999 V2000
   -0.9934    0.6616    0.4620 O   0  5  0  0  0  0  0  0  0  0  0  0
    1.6541    0.7295   -0.7565 N   0  0  0  0  0  2  0  0  0  0  0  0
   -0.9638    1.9447    0.2435 C   0  0  0  0  0  0  0  0  0  0  0  0
   -2.1209    2.7096    0.5937 C   0  0  0  0  0  0  0  0  0  0  0  0
   -2.9589    2.1674    1.0560 H   0  0  0  0  0  0  0  0  0  0  0  0
   -2.1723    4.0837    0.3902 C   0  0  0  0  0  0  0  0  0  0  0  0
   -3.0746    4.6391    0.6913 H   0  0  0  0  0  0  0  0  0  0  0  0
   -1.0814    4.7777   -0.1879 C   0  0  0  0  0  0  0  0  0  0  0  0
   -1.1277    5.8651   -0.3414 H   0  0  0  0  0  0  0  0  0  0  0  0
    0.0472    4.0563   -0.5557 C   0  0  0  0  0  0  0  0  0  0  0  0
    0.9068    4.5730   -1.0133 H   0  0  0  0  0  0  0  0  0  0  0  0
    0.1407    2.6490   -0.3582 C   0  0  0  0  0  0  0  0  0  0  0  0
    1.3316    1.9953   -0.8188 C   0  0  0  0  0  3  0  0  0  0  0  0
    2.0697    2.6648   -1.3080 H   0  0  0  0  0  0  0  0  0  0  0  0
    2.9863    0.3675   -1.2521 C   0  0  0  0  0  0  0  0  0  0  0  0
    2.9141   -0.5854   -1.8135 H   0  0  0  0  0  0  0  0  0  0  0  0
    3.3244    1.1359   -1.9849 H   0  0  0  0  0  0  0  0  0  0  0  0
    4.0308    0.2265   -0.1386 C   0  0  0  0  0  0  0  0  0  0  0  0
    3.6223   -0.4354    0.6520 H   0  0  0  0  0  0  0  0  0  0  0  0
    4.1589    1.2139    0.3529 H   0  0  0  0  0  0  0  0  0  0  0  0
    5.3655   -0.2923   -0.6695 C   0  0  0  0  0  0  0  0  0  0  0  0
    6.1173   -0.3674    0.1408 H   0  0  0  0  0  0  0  0  0  0  0  0
    5.7870    0.3717   -1.4538 H   0  0  0  0  0  0  0  0  0  0  0  0
    5.2602   -1.3033   -1.1184 H   0  0  0  0  0  0  0  0  0  0  0  0
  3  1  1  0  0  0  0
  3  4  1  0  0  0  0
  4  5  1  0  0  0  0
  6  4  2  0  0  0  0
  6  7  1  0  0  0  0
  8  6  1  0  0  0  0
  9  8  1  0  0  0  0
 10 12  1  0  0  0  0
 10  8  2  0  0  0  0
 11 10  1  0  0  0  0
 12  3  2  0  0  0  0
 13  2  1  0  0  0  0
 13 12  1  0  0  0  0
 14 13  1  0  0  0  0
 15  2  1  0  0  0  0
 15 18  1  0  0  0  0
 16 15  1  0  0  0  0
 17 15  1  0  0  0  0
 18 20  1  0  0  0  0
 18 19  1  0  0  0  0
 21 18  1  0  0  0  0
 21 22  1  0  0  0  0
 23 21  1  0  0  0  0
 24 21  1  0  0  0  0
M  CHG  1   1  -1
M  END
