3,5
q = -1.0, confidence = 0.02

 38 37  0  0  0  0  0  0  0  0999 V2000
    2.9112   -0.4771   -0.3109 P   0  0  0  0  0  4  0  0  0  0  0  0
    1.8540    1.6618    1.6974 Si  0  0  0  0  0  0  0  0  0  0  0  0
    0.7357   -1.5364   -1.4995 O   0  5  0  0  0  0  0  0  0  0  0  0
    2.7294   -2.0948   -2.4599 O   0  0  0  0  0  0  0  0  0  0  0  0
    1.7733    0.4402    0.4266 N   0  0  0  0  0  2  0  0  0  0  0  0
    2.0090   -1.5314   -1.6406 C   0  0  0  0  0  0  0  0  0  0  0  0
    4.2411    0.4207   -1.2352 C   0  0  0  0  0  0  0  0  0  0  0  0
    4.7036   -0.4097   -1.8129 H   0  0  0  0  0  0  0  0  0  0  0  0
    3.6114    1.4071   -2.2248 C   0  0  0  0  0  0  0  0  0  0  0  0
    4.4027    1.8770   -2.8437 H   0  0  0  0  0  0  0  0  0  0  0  0
    3.0652    2.2139   -1.6974 H   0  0  0  0  0  0  0  0  0  0  0  0
    2.9018    0.9019   -2.9085 H   0  0  0  0  0  0  0  0  0  0  0  0
    5.2848    1.0778   -0.3268 C   0  0  0  0  0  0  0  0  0  0  0  0
    6.0915    1.5278   -0.9414 H   0  0  0  0  0  0  0  0  0  0  0  0
    5.7594    0.3583    0.3694 H   0  0  0  0  0  0  0  0  0  0  0  0
    4.8380    1.8937    0.2764 H   0  0  0  0  0  0  0  0  0  0  0  0
    3.7217   -1.7012    0.8344 C   0  0  0  0  0  0  0  0  0  0  0  0
    4.2196   -1.0753    1.6080 H   0  0  0  0  0  0  0  0  0  0  0  0
    2.6260   -2.5402    1.5072 C   0  0  0  0  0  0  0  0  0  0  0  0
    3.0760   -3.1989    2.2773 H   0  0  0  0  0  0  0  0  0  0  0  0
    2.1098   -3.1896    0.7705 H   0  0  0  0  0  0  0  0  0  0  0  0
    1.8509   -1.9175    1.9942 H   0  0  0  0  0  0  0  0  0  0  0  0
    4.7639   -2.5648    0.1119 C   0  0  0  0  0  0  0  0  0  0  0  0
    5.1645   -3.3284    0.8099 H   0  0  0  0  0  0  0  0  0  0  0  0
    5.6222   -1.9706   -0.2594 H   0  0  0  0  0  0  0  0  0  0  0  0
    4.3133   -3.0865   -0.7557 H   0  0  0  0  0  0  0  0  0  0  0  0
    2.1561    3.3748    0.9471 C   0  0  0  0  0  0  0  0  0  0  0  0
    1.3949    3.5912    0.1690 H   0  0  0  0  0  0  0  0  0  0  0  0
    3.1548    3.4586    0.4723 H   0  0  0  0  0  0  0  0  0  0  0  0
    2.0853    4.1662    1.7222 H   0  0  0  0  0  0  0  0  0  0  0  0
    3.1995    1.2772    2.9737 C   0  0  0  0  0  0  0  0  0  0  0  0
    3.0192    0.2902    3.4467 H   0  0  0  0  0  0  0  0  0  0  0  0
    3.1968    2.0426    3.7775 H   0  0  0  0  0  0  0  0  0  0  0  0
    4.2154    1.2675    2.5292 H   0  0  0  0  0  0  0  0  0  0  0  0
    0.1641    1.6549    2.5343 C   0  0  0  0  0  0  0  0  0  0  0  0
   -0.6349    1.8603    1.7928 H   0  0  0  0  0  0  0  0  0  0  0  0
    0.1028    2.4245    3.3305 H   0  0  0  0  0  0  0  0  0  0  0  0
   -0.0485    0.6631    2.9823 H   0  0  0  0  0  0  0  0  0  0  0  0
  1  5  1  0  0  0  0
  1 17  1  0  0  0  0
  2 35  1  0  0  0  0
  2 31  1  0  0  0  0
  4  6  2  0  0  0  0
  5  2  1  0  0  0  0
  6  3  1  0  0  0  0
  6  1  1  0  0  0  0
  7 13  1  0  0  0  0
  7  1  1  0  0  0  0
  8  7  1  0  0  0  0
  9 11  1  0  0  0  0
  9  7  1  0  0  0  0
 10  9  1  0  0  0  0
 12  9  1  0  0  0  0
 13 16  1  0  0  0  0
 13 15  1  0  0  0  0
 14 13  1  0  0  0  0
 17 19  1  0  0  0  0
 17 18  1  0  0  0  0
 19 22  1  0  0  0  0
 19 20  1  0  0  0  0
 21 19  1  0  0  0  0
 23 24  1  0  0  0  0
 23 17  1  0  0  0  0
 25 23  1  0  0  0  0
 26 23  1  0  0  0  0
 27  2  1  0  0  0  0
 27 30  1  0  0  0  0
 28 27  1  0  0  0  0
 29 27  1  0  0  0  0
 31 32  1  0  0  0  0
 31 33  1  0  0  0  0
 34 31  1  0  0  0  0
 35 38  1  0  0  0  0
 35 37  1  0  0  0  0
 36 35  1  0  0  0  0
M  CHG  1   3  -1
M  END
