3,4
q = 0.0, confidence = 0.94

 33 33  0  0  1  0  0  0  0  0999 V2000
    3.9936   -2.3019   -1.1618 Cl  0  0  0  0  0  0  0  0  0  0  0  0
    6.9746    1.7383    0.8978 Cl  0  0  0  0  0  0  0  0  0  0  0  0
    1.7177   -0.7958   -0.0168 O   0  0  0  0  0  1  0  0  0  0  0  0
    0.5807    1.2729    1.3254 N   0  0  0  0  0  2  0  0  0  0  0  0
   -0.9561    3.3987    0.1128 N   0  3  0  0  0  0  0  0  0  0  0  0
   -1.5482    2.5460   -0.0311 H   0  0  0  0  0  0  0  0  0  0  0  0
    0.0066    3.1815   -0.5210 H   0  0  0  0  0  0  0  0  0  0  0  0
    2.9948    1.0075    0.9358 C   0  0  0  0  0  0  0  0  0  0  0  0
    2.8660   -0.2045    0.1875 C   0  0  1  0  0  3  0  0  0  0  0  0
    4.0816   -0.7962   -0.2784 C   0  0  0  0  0  0  0  0  0  0  0  0
    5.3250   -0.2086   -0.0678 C   0  0  0  0  0  0  0  0  0  0  0  0
    6.2309   -0.6843   -0.4658 H   0  0  0  0  0  0  0  0  0  0  0  0
    5.4115    1.0053    0.6487 C   0  0  0  0  0  0  0  0  0  0  0  0
    4.2631    1.6016    1.1567 C   0  0  0  0  0  0  0  0  0  0  0  0
    4.3352    2.5376    1.7284 H   0  0  0  0  0  0  0  0  0  0  0  0
    1.8318    1.6006    1.5267 C   0  0  0  0  0  0  0  0  0  0  0  0
    2.0343    2.4133    2.2535 H   0  0  0  0  0  0  0  0  0  0  0  0
   -0.4010    2.0351    2.1157 C   0  0  0  0  0  0  0  0  0  0  0  0
   -0.0437    2.1289    3.1619 H   0  0  0  0  0  0  0  0  0  0  0  0
   -1.3450    1.4610    2.1444 H   0  0  0  0  0  0  0  0  0  0  0  0
   -0.6204    3.4442    1.5503 C   0  0  0  0  0  0  0  0  0  0  0  0
   -1.4452    3.9325    2.1118 H   0  0  0  0  0  0  0  0  0  0  0  0
    0.2916    4.0636    1.6775 H   0  0  0  0  0  0  0  0  0  0  0  0
   -1.6229    4.6018   -0.4663 C   0  0  0  0  0  0  0  0  0  0  0  0
   -2.5090    4.8201    0.1719 H   0  0  0  0  0  0  0  0  0  0  0  0
   -0.6694    5.7967   -0.4576 C   0  0  0  0  0  0  0  0  0  0  0  0
   -0.3788    6.0919    0.5703 H   0  0  0  0  0  0  0  0  0  0  0  0
   -1.1590    6.6718   -0.9269 H   0  0  0  0  0  0  0  0  0  0  0  0
    0.2504    5.5589   -1.0290 H   0  0  0  0  0  0  0  0  0  0  0  0
   -2.0973    4.2364   -1.8727 C   0  0  0  0  0  0  0  0  0  0  0  0
   -1.2367    3.9453   -2.5081 H   0  0  0  0  0  0  0  0  0  0  0  0
   -2.6061    5.1001   -2.3422 H   0  0  0  0  0  0  0  0  0  0  0  0
   -2.8153    3.3919   -1.8432 H   0  0  0  0  0  0  0  0  0  0  0  0
  1 10  1  0  0  0  0
  4 16  1  0  0  0  0
  4 18  1  0  0  0  0
  5 21  1  0  0  0  0
  6  5  1  0  0  0  0
  7  5  1  0  0  0  0
  8 14  1  0  0  0  0
  8 16  2  0  0  0  0
  9  3  1  1  0  0  0
  9  8  1  0  0  0  0
 10 11  2  0  0  0  0
 10  9  1  0  0  0  0
 11 13  1  0  0  0  0
 12 11  1  0  0  0  0
 13  2  1  0  0  0  0
 13 14  2  0  0  0  0
 14 15  1  0  0  0  0
 16 17  1  0  0  0  0
 18 20  1  0  0  0  0
 18 19  1  0  0  0  0
 21 23  1  0  0  0  0
 21 22  1  0  0  0  0
 21 18  1  0  0  0  0
 24 26  1  0  0  0  0
 24  5  1  0  0  0  0
 24 25  1  0  0  0  0
 26 27  1  0  0  0  0
 28 26  1  0  0  0  0
 29 26  1  0  0  0  0
 30 33  1  0  0  0  0
 30 24  1  0  0  0  0
 31 30  1  0  0  0  0
 32 30  1  0  0  0  0
M  CHG  1   5   1
M  END
