3,4
q = 0.0, confidence = 0.94

 33 33  0  0  0  0  0  0  0  0999 V2000
   -3.9933    2.3014    1.1619 Cl  0  0  0  0  0  0  0  0  0  0  0  0
   -6.9746   -1.7362   -0.9023 Cl  0  0  0  0  0  0  0  0  0  0  0  0
   -1.7173    0.7950    0.0176 O   0  5  0  0  0  0  0  0  0  0  0  0
   -0.5802   -1.2737   -1.3250 N   0  0  0  0  0  2  0  0  0  0  0  0
    0.9564   -3.3992   -0.1110 N   0  3  0  0  0  0  0  0  0  0  0  0
    1.5488   -2.5467    0.0323 H   0  0  0  0  0  0  0  0  0  0  0  0
   -0.0063   -3.1813    0.5230 H   0  0  0  0  0  0  0  0  0  0  0  0
   -2.9944   -1.0073   -0.9369 C   0  0  0  0  0  0  0  0  0  0  0  0
   -2.8656    0.2044   -0.1880 C   0  0  0  0  0  0  0  0  0  0  0  0
   -4.0813    0.7963    0.2773 C   0  0  0  0  0  0  0  0  0  0  0  0
   -5.3249    0.2094    0.0655 C   0  0  0  0  0  0  0  0  0  0  0  0
   -6.2308    0.6853    0.4631 H   0  0  0  0  0  0  0  0  0  0  0  0
   -5.4113   -1.0041   -0.6516 C   0  0  0  0  0  0  0  0  0  0  0  0
   -4.2628   -1.6007   -1.1590 C   0  0  0  0  0  3  0  0  0  0  0  0
   -4.3349   -2.5363   -1.7312 H   0  0  0  0  0  0  0  0  0  0  0  0
   -1.8313   -1.6008   -1.5271 C   0  0  0  0  0  0  0  0  0  0  0  0
   -2.0338   -2.4133   -2.2541 H   0  0  0  0  0  0  0  0  0  0  0  0
    0.4016   -2.0366   -2.1145 C   0  0  0  0  0  0  0  0  0  0  0  0
    0.0447   -2.1308   -3.1609 H   0  0  0  0  0  0  0  0  0  0  0  0
    1.3457   -1.4628   -2.1432 H   0  0  0  0  0  0  0  0  0  0  0  0
    0.6204   -3.4455   -1.5484 C   0  0  0  0  0  0  0  0  0  0  0  0
    1.4449   -3.9344   -2.1098 H   0  0  0  0  0  0  0  0  0  0  0  0
   -0.2919   -4.0644   -1.6752 H   0  0  0  0  0  0  0  0  0  0  0  0
    1.6229   -4.6023    0.4687 C   0  0  0  0  0  0  0  0  0  0  0  0
    2.5089   -4.8210   -0.1696 H   0  0  0  0  0  0  0  0  0  0  0  0
    0.6691   -5.7969    0.4606 C   0  0  0  0  0  0  0  0  0  0  0  0
    0.3783   -6.0925   -0.5671 H   0  0  0  0  0  0  0  0  0  0  0  0
    1.1585   -6.6719    0.9302 H   0  0  0  0  0  0  0  0  0  0  0  0
   -0.2506   -5.5586    1.0320 H   0  0  0  0  0  0  0  0  0  0  0  0
    2.0975   -4.2362    1.8748 C   0  0  0  0  0  0  0  0  0  0  0  0
    1.2370   -3.9446    2.5101 H   0  0  0  0  0  0  0  0  0  0  0  0
    2.6062   -5.0998    2.3447 H   0  0  0  0  0  0  0  0  0  0  0  0
    2.8157   -3.3919    1.8448 H   0  0  0  0  0  0  0  0  0  0  0  0
  2 13  1  0  0  0  0
  5  6  1  0  0  0  0
  5 24  1  0  0  0  0
  5  7  1  0  0  0  0
  8  9  1  0  0  0  0
  9  3  1  0  0  0  0
  9 10  2  0  0  0  0
 10  1  1  0  0  0  0
 11 10  1  0  0  0  0
 11 12  1  0  0  0  0
 13 11  2  0  0  0  0
 14  8  1  0  0  0  0
 14 13  1  0  0  0  0
 15 14  1  0  0  0  0
 16  4  1  0  0  0  0
 16  8  2  0  0  0  0
 17 16  1  0  0  0  0
 18 21  1  0  0  0  0
 18  4  1  0  0  0  0
 19 18  1  0  0  0  0
 20 18  1  0  0  0  0
 21  5  1  0  0  0  0
 22 21  1  0  0  0  0
 23 21  1  0  0  0  0
 24 30  1  0  0  0  0
 25 24  1  0  0  0  0
 26 24  1  0  0  0  0
 26 28  1  0  0  0  0
 26 29  1  0  0  0  0
 27 26  1  0  0  0  0
 30 32  1  0  0  0  0
 30 31  1  0  0  0  0
 33 30  1  0  0  0  0
M  CHG  2   3  -1   5   1
M  END
