1,2
q = -1.0, confidence = 0.0

 24 24  0  0  0  0  0  0  0  0999 V2000
   -1.0392   -1.4866   -0.0211 O   0  5  0  0  0  0  0  0  0  0  0  0
   -0.7380    1.4408    0.0151 N   0  0  0  0  0  2  0  0  0  0  0  0
   -2.3139   -1.2140   -0.0187 C   0  0  0  0  0  0  0  0  0  0  0  0
   -3.2380   -2.3051   -0.0220 C   0  0  0  0  0  0  0  0  0  0  0  0
   -2.8106   -3.3182   -0.0216 H   0  0  0  0  0  0  0  0  0  0  0  0
   -4.6098   -2.0918   -0.0307 C   0  0  0  0  0  0  0  0  0  0  0  0
   -5.2919   -2.9566   -0.0364 H   0  0  0  0  0  0  0  0  0  0  0  0
   -5.1432   -0.7774   -0.0326 C   0  0  0  0  0  0  0  0  0  0  0  0
   -6.2308   -0.6171   -0.0390 H   0  0  0  0  0  0  0  0  0  0  0  0
   -4.2705    0.3002   -0.0247 C   0  0  0  0  0  3  0  0  0  0  0  0
   -4.6646    1.3297   -0.0239 H   0  0  0  0  0  0  0  0  0  0  0  0
   -2.8533    0.1245   -0.0171 C   0  0  0  0  0  0  0  0  0  0  0  0
   -2.0491    1.3083    0.0022 C   0  0  0  0  0  0  0  0  0  0  0  0
   -2.6439    2.2433    0.0169 H   0  0  0  0  0  0  0  0  0  0  0  0
   -0.2532    2.8518    0.0578 C   0  0  0  0  0  0  0  0  0  0  0  0
    0.8486    2.7916    0.0340 H   0  0  0  0  0  0  0  0  0  0  0  0
   -0.6856    3.6450   -1.1800 C   0  0  0  0  0  0  0  0  0  0  0  0
   -0.1976    4.6401   -1.1842 H   0  0  0  0  0  0  0  0  0  0  0  0
   -0.3953    3.1115   -2.1070 H   0  0  0  0  0  0  0  0  0  0  0  0
   -1.7819    3.8119   -1.2101 H   0  0  0  0  0  0  0  0  0  0  0  0
   -0.6362    3.5310    1.3769 C   0  0  0  0  0  0  0  0  0  0  0  0
   -0.1593    4.5291    1.4470 H   0  0  0  0  0  0  0  0  0  0  0  0
   -1.7326    3.6756    1.4665 H   0  0  0  0  0  0  0  0  0  0  0  0
   -0.2994    2.9214    2.2388 H   0  0  0  0  0  0  0  0  0  0  0  0
  1  3  1  0  0  0  0
  2 15  1  0  0  0  0
  3 12  1  0  0  0  0
  4  5  1  0  0  0  0
  4  3  2  0  0  0  0
  6  4  1  0  0  0  0
  7  6  1  0  0  0  0
  8  6  2  0  0  0  0
  8 10  1  0  0  0  0
  9  8  1  0  0  0  0
 10 11  1  0  0  0  0
 10 12  1  0  0  0  0
 12 13  2  0  0  0  0
 13  2  1  0  0  0  0
 13 14  1  0  0  0  0
 15 21  1  0  0  0  0
 16 15  1  0  0  0  0
 17 15  1  0  0  0  0
 18 17  1  0  0  0  0
 19 17  1  0  0  0  0
 20 17  1  0  0  0  0
 21 22  1  0  0  0  0
 21 23  1  0  0  0  0
 21 24  1  0  0  0  0
M  CHG  1   1  -1
M  END
