1,4
q = -1.0, confidence = 0.004

 19 20  0  0  1  0  0  0  0  0999 V2000
    2.3284   -1.7487   -0.1134 O   0  5  0  0  0  0  0  0  0  0  0  0
    8.0848    0.9254    0.4456 O   0  0  0  0  0  0  0  0  0  0  0  0
    8.5298   -1.1854    0.1448 O   0  0  0  0  0  0  0  0  0  0  0  0
    2.8426    0.8524    0.1966 N   0  0  0  0  0  2  0  0  0  0  0  0
    7.7305   -0.2489    0.2567 N   0  0  0  0  0  0  0  0  0  0  0  0
    3.0494    2.1347    0.5260 C   0  0  0  0  0  0  0  0  0  0  0  0
    2.1573    2.7640    0.6319 H   0  0  0  0  0  0  0  0  0  0  0  0
    4.3449    2.6466    0.7267 C   0  0  0  0  0  0  0  0  0  0  0  0
    4.4626    3.7073    0.9900 H   0  0  0  0  0  0  0  0  0  0  0  0
    5.4541    1.8251    0.5852 C   0  0  0  0  0  0  0  0  0  0  0  0
    6.4741    2.2019    0.7164 H   0  0  0  0  0  0  0  0  0  0  0  0
    5.2747    0.4413    0.2849 C   0  0  0  0  0  0  0  0  0  0  0  0
    6.3043   -0.5532    0.1538 C   0  0  0  0  0  0  0  0  0  0  0  0
    5.9665   -1.8972   -0.0747 C   0  0  0  0  0  0  0  0  0  0  0  0
    6.8011   -2.6062   -0.1579 H   0  0  0  0  0  0  0  0  0  0  0  0
    4.6456   -2.3315   -0.1774 C   0  0  0  0  0  0  0  0  0  0  0  0
    4.4064   -3.3927   -0.3324 H   0  0  0  0  0  0  0  0  0  0  0  0
    3.5766   -1.4094   -0.0706 C   0  0  0  0  0  0  0  0  0  0  0  0
    3.9195   -0.0095    0.1240 C   0  0  1  0  0  3  0  0  0  0  0  0
  1 18  1  0  0  0  0
  3  5  2  0  0  0  0
  4  6  1  0  0  0  0
  5  2  2  0  0  0  0
  6  7  1  0  0  0  0
  6  8  2  0  0  0  0
  8  9  1  0  0  0  0
 10 11  1  0  0  0  0
 10  8  1  0  0  0  0
 12 10  2  0  0  0  0
 13  5  1  0  0  0  0
 13 12  1  0  0  0  0
 14 13  2  0  0  0  0
 15 14  1  0  0  0  0
 16 14  1  0  0  0  0
 16 18  2  0  0  0  0
 17 16  1  0  0  0  0
 19 18  1  1  0  0  0
 19  4  1  0  0  0  0
 19 12  1  0  0  0  0
M  CHG  1   1  -1
M  END
