1,13
q = -1.0, confidence = 0.0

 13 13  0  0  1  0  0  0  0  0999 V2000
   -0.0698   -0.9797   -2.1739 O   0  5  0  0  0  0  0  0  0  0  0  0
   -1.4989   -2.2703   -3.3730 O   0  0  0  0  0  0  0  0  0  0  0  0
   -1.1672   -1.6539   -2.3595 C   0  0  0  0  0  0  0  0  0  0  0  0
   -2.1376   -1.6311   -1.1751 C   0  0  2  0  0  3  0  0  0  0  0  0
   -3.3768   -2.2849   -1.2435 C   0  0  0  0  0  0  0  0  0  0  0  0
   -3.6051   -2.8251   -2.1738 H   0  0  0  0  0  0  0  0  0  0  0  0
   -4.2543   -2.2231   -0.1563 C   0  0  0  0  0  0  0  0  0  0  0  0
   -5.2366   -2.7178   -0.1590 H   0  0  0  0  0  0  0  0  0  0  0  0
   -3.8445   -1.4923    0.9678 C   0  0  0  0  0  0  0  0  0  0  0  0
   -4.6451   -1.3933    2.0369 F   0  0  0  0  0  0  0  0  0  0  0  0
   -2.5974   -0.8579    0.9913 C   0  0  0  0  0  0  0  0  0  0  0  0
   -2.2593   -0.2807    1.8662 H   0  0  0  0  0  0  0  0  0  0  0  0
   -1.7673   -0.9408   -0.0687 N   0  0  0  0  0  2  0  0  0  0  0  0
  2  3  2  0  0  0  0
  3  1  1  0  0  0  0
  4  3  1  6  0  0  0
  4 13  1  0  0  0  0
  5  4  1  0  0  0  0
  5  7  2  0  0  0  0
  6  5  1  0  0  0  0
  7  9  1  0  0  0  0
  8  7  1  0  0  0  0
  9 11  2  0  0  0  0
  9 10  1  0  0  0  0
 11 12  1  0  0  0  0
 13 11  1  0  0  0  0
M  CHG  1   1  -1
M  END
