1,2
q = -1.0, confidence = 0.0

 37 40  0  0  0  0  0  0  0  0999 V2000
   -0.1006    1.5212   -0.1983 O   0  5  0  0  0  0  0  0  0  0  0  0
   -1.9607   -0.5703   -0.6218 N   0  0  0  0  0  2  0  0  0  0  0  0
   -3.6024    2.7779   -0.2142 C   0  0  0  0  0  0  0  0  0  0  0  0
   -1.1597    2.2887   -0.1726 C   0  0  0  0  0  0  0  0  0  0  0  0
   -3.2188   -2.5592    0.1620 C   0  0  0  0  0  0  0  0  0  0  0  0
   -2.5026    1.8240   -0.2999 C   0  0  0  0  0  0  0  0  0  0  0  0
   -3.7743   -3.8577   -0.1457 C   0  0  0  0  0  0  0  0  0  0  0  0
   -1.9415    4.5952    0.0461 C   0  0  0  0  0  0  0  0  0  0  0  0
   -1.7296    5.6694    0.1674 H   0  0  0  0  0  0  0  0  0  0  0  0
   -3.3075    4.1774   -0.0446 C   0  0  0  0  0  0  0  0  0  0  0  0
   -0.9071    3.6925   -0.0112 C   0  0  0  0  0  0  0  0  0  0  0  0
    0.1450    4.0051    0.0543 H   0  0  0  0  0  0  0  0  0  0  0  0
   -2.7914    0.4419   -0.5282 C   0  0  0  0  0  3  0  0  0  0  0  0
   -3.8528    0.1747   -0.6691 H   0  0  0  0  0  0  0  0  0  0  0  0
   -3.3689   -2.0370    1.4815 C   0  0  0  0  0  0  0  0  0  0  0  0
   -2.9166   -1.0686    1.7377 H   0  0  0  0  0  0  0  0  0  0  0  0
   -4.0549   -2.7559    2.4496 C   0  0  0  0  0  0  0  0  0  0  0  0
   -4.1512   -2.3425    3.4648 H   0  0  0  0  0  0  0  0  0  0  0  0
   -2.5228   -1.8629   -0.8838 C   0  0  0  0  0  0  0  0  0  0  0  0
   -4.4794   -4.5601    0.8759 C   0  0  0  0  0  0  0  0  0  0  0  0
   -4.9068   -5.5460    0.6347 H   0  0  0  0  0  0  0  0  0  0  0  0
   -2.3583   -2.4293   -2.1439 C   0  0  0  0  0  0  0  0  0  0  0  0
   -1.7864   -1.8675   -2.8982 H   0  0  0  0  0  0  0  0  0  0  0  0
   -4.6216   -4.0221    2.1454 C   0  0  0  0  0  0  0  0  0  0  0  0
   -5.1659   -4.5790    2.9231 H   0  0  0  0  0  0  0  0  0  0  0  0
   -3.6006   -4.4050   -1.4501 C   0  0  0  0  0  0  0  0  0  0  0  0
   -4.0286   -5.3957   -1.6679 H   0  0  0  0  0  0  0  0  0  0  0  0
   -2.9017   -3.7081   -2.4238 C   0  0  0  0  0  0  0  0  0  0  0  0
   -2.7669   -4.1396   -3.4269 H   0  0  0  0  0  0  0  0  0  0  0  0
   -5.6911    4.7307   -0.0422 C   0  0  0  0  0  0  0  0  0  0  0  0
   -6.5009    5.4724    0.0214 H   0  0  0  0  0  0  0  0  0  0  0  0
   -4.3627    5.1264    0.0351 C   0  0  0  0  0  0  0  0  0  0  0  0
   -4.1014    6.1886    0.1628 H   0  0  0  0  0  0  0  0  0  0  0  0
   -4.9763    2.4095   -0.2810 C   0  0  0  0  0  0  0  0  0  0  0  0
   -5.2658    1.3554   -0.3894 H   0  0  0  0  0  0  0  0  0  0  0  0
   -5.9916    3.3575   -0.1985 C   0  0  0  0  0  0  0  0  0  0  0  0
   -7.0406    3.0289   -0.2526 H   0  0  0  0  0  0  0  0  0  0  0  0
  1  4  1  0  0  0  0
  2 13  1  0  0  0  0
  3 10  1  0  0  0  0
  4 11  1  0  0  0  0
  5 15  2  0  0  0  0
  6  3  1  0  0  0  0
  6  4  2  0  0  0  0
  7  5  1  0  0  0  0
  7 20  2  0  0  0  0
  8  9  1  0  0  0  0
 10 32  2  0  0  0  0
 10  8  1  0  0  0  0
 11  8  2  0  0  0  0
 11 12  1  0  0  0  0
 13  6  1  0  0  0  0
 14 13  1  0  0  0  0
 15 16  1  0  0  0  0
 15 17  1  0  0  0  0
 17 18  1  0  0  0  0
 19  2  1  0  0  0  0
 19  5  1  0  0  0  0
 20 24  1  0  0  0  0
 21 20  1  0  0  0  0
 22 19  2  0  0  0  0
 23 22  1  0  0  0  0
 24 17  2  0  0  0  0
 24 25  1  0  0  0  0
 26  7  1  0  0  0  0
 27 26  1  0  0  0  0
 28 22  1  0  0  0  0
 28 26  2  0  0  0  0
 29 28  1  0  0  0  0
 30 31  1  0  0  0  0
 30 32  1  0  0  0  0
 32 33  1  0  0  0  0
 34  3  2  0  0  0  0
 34 36  1  0  0  0  0
 35 34  1  0  0  0  0
 36 30  2  0  0  0  0
 37 36  1  0  0  0  0
M  CHG  1   1  -1
M  END
