28,31
q = 0.0, confidence = 0.986

 33 35  0  0  1  0  0  0  0  0999 V2000
   -2.8753    3.9929   -0.4824 S   0  0  0  0  0  0  0  0  0  0  0  0
    1.7511   -0.1243    0.5808 C   0  0  0  0  0  3  0  0  0  0  0  0
    1.7476   -1.2222    0.7332 H   0  0  0  0  0  0  0  0  0  0  0  0
    3.0559    0.5321    0.4974 C   0  0  0  0  0  0  0  0  0  0  0  0
    4.1264   -0.2505   -0.0988 C   0  0  0  0  0  0  0  0  0  0  0  0
    5.4610    0.2932   -0.1663 C   0  0  0  0  0  0  0  0  0  0  0  0
    5.7099    1.5934    0.3582 C   0  0  0  0  0  0  0  0  0  0  0  0
    6.7291    2.0055    0.3085 H   0  0  0  0  0  0  0  0  0  0  0  0
    4.6888    2.3336    0.9252 C   0  0  0  0  0  0  0  0  0  0  0  0
    4.8854    3.3373    1.3372 H   0  0  0  0  0  0  0  0  0  0  0  0
    3.3760    1.8045    0.9990 C   0  0  0  0  0  0  0  0  0  0  0  0
    3.9011   -1.5478   -0.6496 C   0  0  0  0  0  0  0  0  0  0  0  0
    2.8957   -1.9924   -0.6243 H   0  0  0  0  0  0  0  0  0  0  0  0
    4.9444   -2.2691   -1.2155 C   0  0  0  0  0  0  0  0  0  0  0  0
    4.7430   -3.2693   -1.6275 H   0  0  0  0  0  0  0  0  0  0  0  0
    6.2568   -1.7350   -1.2742 C   0  0  0  0  0  0  0  0  0  0  0  0
    7.0700   -2.3196   -1.7300 H   0  0  0  0  0  0  0  0  0  0  0  0
    6.5063   -0.4729   -0.7593 C   0  0  0  0  0  0  0  0  0  0  0  0
    7.5172   -0.0383   -0.8008 H   0  0  0  0  0  0  0  0  0  0  0  0
   -0.9601    2.0513   -0.1163 C   0  0  2  0  0  3  0  0  0  0  0  0
   -1.2227    3.4731   -0.2887 C   0  0  0  0  0  0  0  0  0  0  0  0
   -0.3419    4.5530   -0.3367 C   0  0  0  0  0  0  0  0  0  0  0  0
    0.7490    4.4467   -0.2587 H   0  0  0  0  0  0  0  0  0  0  0  0
   -1.0101    5.7931   -0.5236 C   0  0  0  0  0  0  0  0  0  0  0  0
   -0.5027    6.7645   -0.5945 H   0  0  0  0  0  0  0  0  0  0  0  0
   -2.3850    5.6415   -0.6191 C   0  0  0  0  0  0  0  0  0  0  0  0
   -3.1414    6.4221   -0.7670 H   0  0  0  0  0  0  0  0  0  0  0  0
    0.5362    0.3255    0.3978 N   0  0  0  0  0  2  0  0  0  0  0  0
    0.3079    1.6640    0.1876 N   0  0  0  0  0  0  0  0  0  0  0  0
    0.9952    2.3236    0.5945 H   0  0  0  0  0  0  0  0  0  0  0  0
   -1.8757    1.1905   -0.2541 O   0  0  0  0  0  1  0  0  0  0  0  0
    2.3859    2.5441    1.6122 O   0  0  0  0  0  0  0  0  0  0  0  0
    2.7762    3.3469    2.0052 H   0  0  0  0  0  0  0  0  0  0  0  0
  1 21  1  0  0  0  0
  2  3  1  0  0  0  0
  4  2  1  0  0  0  0
  4 11  1  0  0  0  0
  5  4  2  0  0  0  0
  6  5  1  0  0  0  0
  6  7  2  0  0  0  0
  7  9  1  0  0  0  0
  8  7  1  0  0  0  0
  9 11  2  0  0  0  0
  9 10  1  0  0  0  0
 11 32  1  0  0  0  0
 12 13  1  0  0  0  0
 12  5  1  0  0  0  0
 14 12  2  0  0  0  0
 15 14  1  0  0  0  0
 16 14  1  0  0  0  0
 16 18  2  0  0  0  0
 17 16  1  0  0  0  0
 18  6  1  0  0  0  0
 19 18  1  0  0  0  0
 20 31  1  6  0  0  0
 20 29  1  0  0  0  0
 21 20  1  0  0  0  0
 22 21  2  0  0  0  0
 22 23  1  0  0  0  0
 24 22  1  0  0  0  0
 25 24  1  0  0  0  0
 26 24  2  0  0  0  0
 26  1  1  0  0  0  0
 27 26  1  0  0  0  0
 28  2  1  0  0  0  0
 29 28  1  0  0  0  0
 29 30  1  0  0  0  0
 32 33  1  0  0  0  0
M  END
