1,2
q = -1.0, confidence = 0.04

 28 30  0  0  1  0  0  0  0  0999 V2000
    1.4645    1.2125    0.9226 O   0  0  0  0  0  1  0  0  0  0  0  0
    1.0994   -0.9986   -0.3862 N   0  0  0  0  0  2  0  0  0  0  0  0
    2.8512   -0.8950   -1.7609 N   0  0  0  0  0  0  0  0  0  0  0  0
    3.8610    0.8779    0.6225 C   0  0  0  0  0  0  0  0  0  0  0  0
    4.9705    1.5043    0.0285 C   0  0  0  0  0  0  0  0  0  0  0  0
    6.2508    1.3585    0.5883 C   0  0  0  0  0  0  0  0  0  0  0  0
    6.4213    0.5911    1.7504 C   0  0  0  0  0  0  0  0  0  0  0  0
    5.3108   -0.0285    2.3500 C   0  0  0  0  0  0  0  0  0  0  0  0
    4.0333    0.1077    1.7899 C   0  0  0  0  0  0  0  0  0  0  0  0
    2.4750    0.9859   -0.0102 C   0  0  1  0  0  0  0  0  0  0  0  0
    2.1551   -0.2913   -0.7488 C   0  0  2  0  0  3  0  0  0  0  0  0
    1.0853   -2.1392   -1.1767 C   0  0  0  0  0  0  0  0  0  0  0  0
    2.1998   -2.0881   -2.0672 C   0  0  0  0  0  0  0  0  0  0  0  0
    2.4544   -3.1062   -2.9973 C   0  0  0  0  0  0  0  0  0  0  0  0
    1.5613   -4.1874   -3.0070 C   0  0  0  0  0  0  0  0  0  0  0  0
    0.4610   -4.2528   -2.1182 C   0  0  0  0  0  0  0  0  0  0  0  0
    0.2062   -3.2357   -1.1900 C   0  0  0  0  0  0  0  0  0  0  0  0
    3.7376   -0.5646   -2.1427 H   0  0  0  0  0  0  0  0  0  0  0  0
    4.8286    2.1301   -0.8686 H   0  0  0  0  0  0  0  0  0  0  0  0
    7.1142    1.8588    0.1235 H   0  0  0  0  0  0  0  0  0  0  0  0
    7.4219    0.4810    2.1956 H   0  0  0  0  0  0  0  0  0  0  0  0
    5.4416   -0.6260    3.2651 H   0  0  0  0  0  0  0  0  0  0  0  0
    3.1600   -0.3771    2.2544 H   0  0  0  0  0  0  0  0  0  0  0  0
    2.5029    1.8209   -0.7571 H   0  0  0  0  0  0  0  0  0  0  0  0
    3.3133   -3.0669   -3.6829 H   0  0  0  0  0  0  0  0  0  0  0  0
    1.7264   -5.0099   -3.7188 H   0  0  0  0  0  0  0  0  0  0  0  0
   -0.2021   -5.1301   -2.1539 H   0  0  0  0  0  0  0  0  0  0  0  0
   -0.6239   -3.2776   -0.4711 H   0  0  0  0  0  0  0  0  0  0  0  0
  3 11  1  0  0  0  0
  4  9  1  0  0  0  0
  5  6  1  0  0  0  0
  5  4  2  0  0  0  0
  6  7  2  0  0  0  0
  7 21  1  0  0  0  0
  7  8  1  0  0  0  0
  8 22  1  0  0  0  0
  9 23  1  0  0  0  0
  9  8  2  0  0  0  0
 10 24  1  6  0  0  0
 10  4  1  0  0  0  0
 10  1  1  0  0  0  0
 11  2  1  0  0  0  0
 11 10  1  1  0  0  0
 12  2  1  0  0  0  0
 13  3  1  0  0  0  0
 13 12  2  0  0  0  0
 14 13  1  0  0  0  0
 15 14  2  0  0  0  0
 15 16  1  0  0  0  0
 16 17  2  0  0  0  0
 17 12  1  0  0  0  0
 17 28  1  0  0  0  0
 18  3  1  0  0  0  0
 19  5  1  0  0  0  0
 20  6  1  0  0  0  0
 25 14  1  0  0  0  0
 26 15  1  0  0  0  0
 27 16  1  0  0  0  0
M  END
