1,9
q = -1.0, confidence = 0.004

 39 40  0  0  0  0  0  0  0  0999 V2000
    1.2527   -1.2150    1.0270 O   0  5  0  0  0  0  0  0  0  0  0  0
   -2.6432   -2.5413    1.5916 O   0  0  0  0  0  0  0  0  0  0  0  0
   -1.9220   -2.2667   -0.7320 C   0  0  0  0  0  0  0  0  0  0  0  0
   -0.9656   -2.7715   -0.5437 H   0  0  0  0  0  0  0  0  0  0  0  0
   -0.1009   -0.5871   -2.9702 C   0  0  0  0  0  0  0  0  0  0  0  0
    0.5601   -0.5913   -3.8645 H   0  0  0  0  0  0  0  0  0  0  0  0
   -0.6556    0.3692   -2.9351 H   0  0  0  0  0  0  0  0  0  0  0  0
   -2.1877   -1.7537   -2.0239 C   0  0  0  0  0  0  0  0  0  0  0  0
    0.7266   -0.6790   -1.7690 N   0  0  0  0  0  2  0  0  0  0  0  0
    2.3844   -1.6788    0.5729 C   0  0  0  0  0  0  0  0  0  0  0  0
   -2.8477   -2.1292    0.3125 C   0  0  0  0  0  0  0  0  0  0  0  0
    2.7828   -1.6562   -0.8136 C   0  0  0  0  0  0  0  0  0  0  0  0
   -1.1090   -1.7602   -3.0811 C   0  0  0  0  0  0  0  0  0  0  0  0
   -1.5728   -1.6903   -4.0872 H   0  0  0  0  0  0  0  0  0  0  0  0
   -0.5372   -2.7130   -3.0551 H   0  0  0  0  0  0  0  0  0  0  0  0
   -4.9290   -1.3767    1.1359 O   0  0  0  0  0  0  0  0  0  0  0  0
   -1.4299   -3.2159    1.8849 C   0  0  0  0  0  0  0  0  0  0  0  0
   -1.3341   -4.1566    1.2962 H   0  0  0  0  0  0  0  0  0  0  0  0
   -1.4727   -3.4721    2.9601 H   0  0  0  0  0  0  0  0  0  0  0  0
   -0.5393   -2.5783    1.6931 H   0  0  0  0  0  0  0  0  0  0  0  0
   -4.3780   -1.0187   -1.2281 C   0  0  0  0  0  0  0  0  0  0  0  0
   -5.3314   -0.5160   -1.4352 H   0  0  0  0  0  0  0  0  0  0  0  0
    4.0594   -2.1667   -1.1804 C   0  0  0  0  0  3  0  0  0  0  0  0
    4.3425   -2.1362   -2.2449 H   0  0  0  0  0  0  0  0  0  0  0  0
    4.5270   -2.7594    1.1134 C   0  0  0  0  0  0  0  0  0  0  0  0
    5.2007   -3.1950    1.8682 H   0  0  0  0  0  0  0  0  0  0  0  0
   -4.0979   -1.4855    0.0630 C   0  0  0  0  0  0  0  0  0  0  0  0
    3.2868   -2.2742    1.5087 C   0  0  0  0  0  0  0  0  0  0  0  0
    2.9671   -2.3095    2.5600 H   0  0  0  0  0  0  0  0  0  0  0  0
    1.8986   -1.2480   -1.8703 C   0  0  0  0  0  0  0  0  0  0  0  0
    2.2481   -1.4853   -2.8966 H   0  0  0  0  0  0  0  0  0  0  0  0
    4.9358   -2.6986   -0.2416 C   0  0  0  0  0  0  0  0  0  0  0  0
    5.9171   -3.0883   -0.5481 H   0  0  0  0  0  0  0  0  0  0  0  0
   -6.2117   -0.8237    0.9199 C   0  0  0  0  0  0  0  0  0  0  0  0
   -6.1530    0.2321    0.5722 H   0  0  0  0  0  0  0  0  0  0  0  0
   -6.7334   -0.8542    1.8950 H   0  0  0  0  0  0  0  0  0  0  0  0
   -6.7967   -1.4145    0.1784 H   0  0  0  0  0  0  0  0  0  0  0  0
   -3.4252   -1.1414   -2.2568 C   0  0  0  0  0  0  0  0  0  0  0  0
   -3.6543   -0.7289   -3.2515 H   0  0  0  0  0  0  0  0  0  0  0  0
  2 17  1  0  0  0  0
  3  4  1  0  0  0  0
  3 11  1  0  0  0  0
  5  7  1  0  0  0  0
  5  9  1  0  0  0  0
  6  5  1  0  0  0  0
  8  3  2  0  0  0  0
 10  1  1  0  0  0  0
 10 28  2  0  0  0  0
 11  2  1  0  0  0  0
 12 10  1  0  0  0  0
 13 15  1  0  0  0  0
 13  5  1  0  0  0  0
 13  8  1  0  0  0  0
 14 13  1  0  0  0  0
 17 19  1  0  0  0  0
 18 17  1  0  0  0  0
 20 17  1  0  0  0  0
 21 27  1  0  0  0  0
 22 21  1  0  0  0  0
 23 12  1  0  0  0  0
 23 32  1  0  0  0  0
 24 23  1  0  0  0  0
 25 28  1  0  0  0  0
 25 26  1  0  0  0  0
 27 11  2  0  0  0  0
 27 16  1  0  0  0  0
 28 29  1  0  0  0  0
 30  9  1  0  0  0  0
 30 12  2  0  0  0  0
 31 30  1  0  0  0  0
 32 25  2  0  0  0  0
 33 32  1  0  0  0  0
 34 16  1  0  0  0  0
 34 36  1  0  0  0  0
 35 34  1  0  0  0  0
 37 34  1  0  0  0  0
 38  8  1  0  0  0  0
 38 21  2  0  0  0  0
 39 38  1  0  0  0  0
M  CHG  1   1  -1
M  END
