1,2
q = -1.0, confidence = 0.004

 19 19  0  0  1  0  0  0  0  0999 V2000
   -2.2217    0.4189    0.1589 N   0  0  0  0  0  2  0  0  0  0  0  0
   -0.8938   -0.9631    1.7792 O   0  0  0  0  0  1  0  0  0  0  0  0
   -3.2976    1.7081    1.6619 O   0  0  0  0  0  0  0  0  0  0  0  0
   -1.6113    0.0202    2.4418 C   0  0  0  0  0  0  0  0  0  0  0  0
   -0.9468    0.7424    2.9842 H   0  0  0  0  0  0  0  0  0  0  0  0
   -2.2970   -0.4143    3.2090 H   0  0  0  0  0  0  0  0  0  0  0  0
   -2.4081    0.7451    1.3974 C   0  0  2  0  0  3  0  0  0  0  0  0
   -3.6976    2.2243    0.3560 C   0  0  0  0  0  0  0  0  0  0  0  0
   -3.1883    3.2006    0.2152 H   0  0  0  0  0  0  0  0  0  0  0  0
   -4.7942    2.3681    0.3653 H   0  0  0  0  0  0  0  0  0  0  0  0
   -3.2147    1.1602   -0.6767 C   0  0  0  0  0  0  0  0  0  0  0  0
   -4.3416    0.1984   -1.0783 C   0  0  0  0  0  0  0  0  0  0  0  0
   -3.9401   -0.6369   -1.6816 H   0  0  0  0  0  0  0  0  0  0  0  0
   -5.1033    0.7441   -1.6714 H   0  0  0  0  0  0  0  0  0  0  0  0
   -4.8248   -0.2458   -0.1867 H   0  0  0  0  0  0  0  0  0  0  0  0
   -2.5717    1.8068   -1.9029 C   0  0  0  0  0  0  0  0  0  0  0  0
   -1.7401    2.4762   -1.6172 H   0  0  0  0  0  0  0  0  0  0  0  0
   -3.3317    2.4003   -2.4501 H   0  0  0  0  0  0  0  0  0  0  0  0
   -2.1756    1.0286   -2.5806 H   0  0  0  0  0  0  0  0  0  0  0  0
  1  7  1  0  0  0  0
  2  4  1  0  0  0  0
  4  5  1  0  0  0  0
  4  6  1  0  0  0  0
  7  3  1  0  0  0  0
  7  4  1  6  0  0  0
  8 10  1  0  0  0  0
  8  3  1  0  0  0  0
  9  8  1  0  0  0  0
 11  1  1  0  0  0  0
 11  8  1  0  0  0  0
 12 11  1  0  0  0  0
 12 15  1  0  0  0  0
 13 12  1  0  0  0  0
 14 12  1  0  0  0  0
 16 17  1  0  0  0  0
 16 11  1  0  0  0  0
 18 16  1  0  0  0  0
 19 16  1  0  0  0  0
M  END
