1,5
q = 0.0, confidence = 1.0

 27 27  0  0  0  0  0  0  0  0999 V2000
   -0.7864   -0.7178    0.0001 O   0  5  0  0  0  0  0  0  0  0  0  0
   -1.3423    0.4153   -0.0002 C   0  0  0  0  0  0  0  0  0  0  0  0
   -2.6833    0.5431   -0.0006 N   0  0  0  0  0  0  0  0  0  0  0  0
   -3.0686    1.4874    0.0008 H   0  0  0  0  0  0  0  0  0  0  0  0
    0.8576    1.3381    0.0001 N   0  0  0  0  0  2  0  0  0  0  0  0
   -0.4796    1.6338   -0.0002 C   0  0  0  0  0  0  0  0  0  0  0  0
    0.0040    4.0067   -0.0002 C   0  0  0  0  0  0  0  0  0  0  0  0
   -0.3310    5.0540   -0.0003 H   0  0  0  0  0  0  0  0  0  0  0  0
    1.3709    3.6851    0.0001 C   0  0  0  0  0  0  0  0  0  0  0  0
    2.1412    4.4694    0.0002 H   0  0  0  0  0  0  0  0  0  0  0  0
    1.7614    2.3430    0.0002 C   0  0  0  0  0  0  0  0  0  0  0  0
    2.8132    2.0048    0.0003 H   0  0  0  0  0  0  0  0  0  0  0  0
   -0.9295    2.9629   -0.0003 C   0  0  0  0  0  0  0  0  0  0  0  0
   -2.0054    3.1929   -0.0007 H   0  0  0  0  0  0  0  0  0  0  0  0
   -5.0524    0.0802   -0.0011 C   0  0  0  0  0  0  0  0  0  0  0  0
   -5.2018    0.7088    0.9014 H   0  0  0  0  0  0  0  0  0  0  0  0
   -5.8379   -0.6990   -0.0006 H   0  0  0  0  0  0  0  0  0  0  0  0
   -5.2011    0.7070   -0.9049 H   0  0  0  0  0  0  0  0  0  0  0  0
   -3.6646   -0.5770    0.0001 C   0  0  0  0  0  0  0  0  0  0  0  0
   -3.4764   -1.4308   -1.2672 C   0  0  0  0  0  0  0  0  0  0  0  0
   -3.6039   -0.8141   -2.1794 H   0  0  0  0  0  0  0  0  0  0  0  0
   -4.2341   -2.2387   -1.2861 H   0  0  0  0  0  0  0  0  0  0  0  0
   -2.4723   -1.8941   -1.2869 H   0  0  0  0  0  0  0  0  0  0  0  0
   -3.4772   -1.4285    1.2690 C   0  0  0  0  0  0  0  0  0  0  0  0
   -2.4730   -1.8913    1.2904 H   0  0  0  0  0  0  0  0  0  0  0  0
   -4.2345   -2.2367    1.2887 H   0  0  0  0  0  0  0  0  0  0  0  0
   -3.6057   -0.8102    2.1800 H   0  0  0  0  0  0  0  0  0  0  0  0
  2  6  2  0  0  0  0
  2  1  1  0  0  0  0
  3  2  1  0  0  0  0
  3 19  1  0  0  0  0
  3  4  1  0  0  0  0
  5 11  1  0  0  0  0
  6  5  1  0  0  0  0
  7  9  1  0  0  0  0
  8  7  1  0  0  0  0
  9 11  2  0  0  0  0
  9 10  1  0  0  0  0
 11 12  1  0  0  0  0
 13  7  2  0  0  0  0
 13  6  1  0  0  0  0
 14 13  1  0  0  0  0
 15 17  1  0  0  0  0
 15 19  1  0  0  0  0
 15 16  1  0  0  0  0
 18 15  1  0  0  0  0
 19 24  1  0  0  0  0
 20 19  1  0  0  0  0
 21 20  1  0  0  0  0
 22 20  1  0  0  0  0
 23 20  1  0  0  0  0
 24 26  1  0  0  0  0
 24 25  1  0  0  0  0
 24 27  1  0  0  0  0
M  CHG  1   1  -1
M  END
