6,7
q = -1.0, confidence = 0.02

 25 26  0  0  1  0  0  0  0  0999 V2000
   -1.3701    0.9160    2.2128 F   0  0  0  0  0  0  0  0  0  0  0  0
   -4.0486    0.3812    2.3078 F   0  0  0  0  0  0  0  0  0  0  0  0
   -5.3423   -0.5076    0.0649 F   0  0  0  0  0  0  0  0  0  0  0  0
   -3.9553   -0.8460   -2.2750 F   0  0  0  0  0  0  0  0  0  0  0  0
   -1.2938   -0.3116   -2.3768 F   0  0  0  0  0  0  0  0  0  0  0  0
    2.5973    0.6166    0.1731 O   0  0  0  0  0  1  0  0  0  0  0  0
    0.1428    0.4870   -0.0646 N   0  0  0  0  0  2  0  0  0  0  0  0
   -1.9928    0.4766    1.1185 C   0  0  0  0  0  0  0  0  0  0  0  0
   -3.3680    0.2086    1.1723 C   0  0  0  0  0  0  0  0  0  0  0  0
   -4.0341   -0.2501    0.0217 C   0  0  0  0  0  0  0  0  0  0  0  0
   -3.3216   -0.4263   -1.1757 C   0  0  0  0  0  0  0  0  0  0  0  0
   -1.9456   -0.1476   -1.2138 C   0  0  0  0  0  0  0  0  0  0  0  0
   -1.2536    0.2885   -0.0700 C   0  0  0  0  0  0  0  0  0  0  0  0
    0.6079    1.7518   -0.1489 C   0  0  0  0  0  0  0  0  0  0  0  0
   -0.2245    2.8866   -0.3496 C   0  0  0  0  0  0  0  0  0  0  0  0
   -1.2966    2.6531   -0.4408 H   0  0  0  0  0  0  0  0  0  0  0  0
    0.1037    4.2396   -0.4518 C   0  0  0  0  0  0  0  0  0  0  0  0
   -0.7590    4.9082   -0.6090 H   0  0  0  0  0  0  0  0  0  0  0  0
    1.3556    4.8780   -0.3887 C   0  0  0  0  0  0  0  0  0  0  0  0
    1.3517    5.9736   -0.4967 H   0  0  0  0  0  0  0  0  0  0  0  0
    2.6041    4.2702   -0.2044 C   0  0  0  0  0  0  0  0  0  0  0  0
    3.4707    4.9512   -0.1820 H   0  0  0  0  0  0  0  0  0  0  0  0
    2.9152    2.9147   -0.0419 C   0  0  0  0  0  0  0  0  0  0  0  0
    3.9759    2.6535    0.0988 H   0  0  0  0  0  0  0  0  0  0  0  0
    2.0709    1.7800   -0.0085 C   0  0  1  0  0  3  0  0  0  0  0  0
  4 11  1  0  0  0  0
  5 12  1  0  0  0  0
  8  9  1  0  0  0  0
  8  1  1  0  0  0  0
  9  2  1  0  0  0  0
 10  3  1  0  0  0  0
 10  9  2  0  0  0  0
 11 10  1  0  0  0  0
 12 11  2  0  0  0  0
 12 13  1  0  0  0  0
 13  7  1  0  0  0  0
 13  8  2  0  0  0  0
 14  7  1  0  0  0  0
 14 25  1  0  0  0  0
 15 14  2  0  0  0  0
 16 15  1  0  0  0  0
 17 19  2  0  0  0  0
 17 15  1  0  0  0  0
 18 17  1  0  0  0  0
 19 21  1  0  0  0  0
 20 19  1  0  0  0  0
 21 22  1  0  0  0  0
 21 23  2  0  0  0  0
 23 25  1  0  0  0  0
 23 24  1  0  0  0  0
 25  6  1  1  0  0  0
M  END
