1,2
q = 0.0, confidence = 0.98

 28 29  0  0  0  0  0  0  0  0999 V2000
    0.7102   -0.2658    0.2325 O   0  5  0  0  0  0  0  0  0  0  0  0
   -0.8180    1.8197    0.0995 N   0  0  0  0  0  2  0  0  0  0  0  0
    3.5167   -0.3235    0.1212 C   0  0  0  0  0  0  0  0  0  0  0  0
    2.7727    0.8757    0.1579 C   0  0  0  0  0  0  0  0  0  0  0  0
    3.3003    1.8329    0.1275 H   0  0  0  0  0  0  0  0  0  0  0  0
    2.8970   -1.4896    0.1253 O   0  0  0  0  0  0  0  0  0  0  0  0
    1.8999   -1.2931    0.1467 H   0  0  0  0  0  0  0  0  0  0  0  0
    4.9812   -0.3806    0.0636 C   0  0  0  0  0  0  0  0  0  0  0  0
    1.3641    0.8565    0.1800 C   0  0  0  0  0  0  0  0  0  0  0  0
    1.0136    3.3899    0.1525 C   0  0  0  0  0  0  0  0  0  0  0  0
    2.0954    3.5717    0.1931 H   0  0  0  0  0  0  0  0  0  0  0  0
    0.1149    4.4597    0.1024 C   0  0  0  0  0  0  0  0  0  0  0  0
    0.4809    5.4965    0.1069 H   0  0  0  0  0  0  0  0  0  0  0  0
   -1.2593    4.1833    0.0334 C   0  0  0  0  0  0  0  0  0  0  0  0
   -2.0043    4.9890   -0.0248 H   0  0  0  0  0  0  0  0  0  0  0  0
    0.5247    2.0729    0.1449 C   0  0  0  0  0  0  0  0  0  0  0  0
   -1.6839    2.8521    0.0267 C   0  0  0  0  0  0  0  0  0  0  0  0
   -2.7463    2.5875   -0.0583 H   0  0  0  0  0  0  0  0  0  0  0  0
    5.7812    0.7877    0.1129 C   0  0  0  0  0  0  0  0  0  0  0  0
    5.3198    1.7807    0.2051 H   0  0  0  0  0  0  0  0  0  0  0  0
    5.6145   -1.6438   -0.0464 C   0  0  0  0  0  0  0  0  0  0  0  0
    4.9949   -2.5497   -0.0863 H   0  0  0  0  0  0  0  0  0  0  0  0
    7.1740    0.6928    0.0524 C   0  0  0  0  0  0  0  0  0  0  0  0
    7.7864    1.6053    0.0929 H   0  0  0  0  0  0  0  0  0  0  0  0
    7.7907   -0.5658   -0.0595 C   0  0  0  0  0  0  0  0  0  0  0  0
    8.8876   -0.6366   -0.1086 H   0  0  0  0  0  0  0  0  0  0  0  0
    7.0078   -1.7320   -0.1085 C   0  0  0  0  0  0  0  0  0  0  0  0
    7.4900   -2.7165   -0.1969 H   0  0  0  0  0  0  0  0  0  0  0  0
  2 16  1  0  0  0  0
  3  6  1  0  0  0  0
  3  4  2  0  0  0  0
  4  9  1  0  0  0  0
  5  4  1  0  0  0  0
  6  7  1  0  0  0  0
  8 19  1  0  0  0  0
  8  3  1  0  0  0  0
  9  1  1  0  0  0  0
 10 11  1  0  0  0  0
 12 13  1  0  0  0  0
 12 10  2  0  0  0  0
 14 12  1  0  0  0  0
 15 14  1  0  0  0  0
 16 10  1  0  0  0  0
 16  9  2  0  0  0  0
 17 14  2  0  0  0  0
 17  2  1  0  0  0  0
 18 17  1  0  0  0  0
 19 20  1  0  0  0  0
 21  8  2  0  0  0  0
 22 21  1  0  0  0  0
 23 24  1  0  0  0  0
 23 19  2  0  0  0  0
 25 23  1  0  0  0  0
 26 25  1  0  0  0  0
 27 25  2  0  0  0  0
 27 21  1  0  0  0  0
 28 27  1  0  0  0  0
M  CHG  1   1  -1
M  END
