1,2
q = -2.0, confidence = 0.552

 15 15  0  0  0  0  0  0  0  0999 V2000
    1.8488    0.0943    0.2459 O   0  5  0  0  0  0  0  0  0  0  0  0
    1.9804    1.1237   -1.9448 N   0  0  0  0  0  2  0  0  0  0  0  0
    2.0854    1.6148   -2.8423 H   0  0  0  0  0  0  0  0  0  0  0  0
    3.0868    0.4253   -1.6469 N   0  0  0  0  0  0  0  0  0  0  0  0
    6.0793   -2.5527    1.2281 N   0  0  0  0  0  0  0  0  0  0  0  0
    2.9309   -0.1213   -0.4328 C   0  0  0  0  0  0  0  0  0  0  0  0
    4.0175   -0.9555    0.1213 C   0  0  0  0  0  0  0  0  0  0  0  0
    5.2274   -1.1690   -0.5731 C   0  0  0  0  0  0  0  0  0  0  0  0
    5.3749   -0.7086   -1.5603 H   0  0  0  0  0  0  0  0  0  0  0  0
    6.2112   -1.9680    0.0229 C   0  0  0  0  0  0  0  0  0  0  0  0
    7.1661   -2.1472   -0.5040 H   0  0  0  0  0  0  0  0  0  0  0  0
    4.9227   -2.3482    1.8806 C   0  0  0  0  0  0  0  0  0  0  0  0
    4.8251   -2.8383    2.8668 H   0  0  0  0  0  0  0  0  0  0  0  0
    3.8694   -1.5687    1.3818 C   0  0  0  0  0  0  0  0  0  0  0  0
    2.9340   -1.4313    1.9434 H   0  0  0  0  0  0  0  0  0  0  0  0
  2  4  1  0  0  0  0
  3  2  1  0  0  0  0
  4  6  2  0  0  0  0
  5 12  1  0  0  0  0
  6  7  1  0  0  0  0
  6  1  1  0  0  0  0
  7 14  1  0  0  0  0
  8 10  1  0  0  0  0
  8  7  2  0  0  0  0
  9  8  1  0  0  0  0
 10  5  2  0  0  0  0
 11 10  1  0  0  0  0
 12 13  1  0  0  0  0
 14 12  2  0  0  0  0
 14 15  1  0  0  0  0
M  CHG  1   1  -1
M  END
