1,3
q = 0.0, confidence = 0.576

 18 18  0  0  1  0  0  0  0  0999 V2000
    1.5511    1.2089   -0.2771 O   0  0  0  0  0  1  0  0  0  0  0  0
    0.5227   -2.7252   -0.1977 O   0  0  0  0  0  0  0  0  0  0  0  0
    1.2018   -1.5457   -0.0913 N   0  0  0  0  0  2  0  0  0  0  0  0
    2.7970    0.9377   -0.0290 C   0  0  2  0  0  3  0  0  0  0  0  0
    3.7110    2.0730    0.0825 C   0  0  0  0  0  0  0  0  0  0  0  0
    5.0163    1.7875    0.3301 C   0  0  0  0  0  3  0  0  0  0  0  0
    5.5967    0.5420    0.5036 C   0  0  0  0  0  0  0  0  0  0  0  0
    4.7257   -0.5459    0.3378 C   0  0  0  0  0  0  0  0  0  0  0  0
    3.3381   -0.3980    0.0800 C   0  0  0  0  0  0  0  0  0  0  0  0
    2.5129   -1.6090   -0.0510 C   0  0  0  0  0  0  0  0  0  0  0  0
    3.1725   -2.9611   -0.1154 C   0  0  0  0  0  0  0  0  0  0  0  0
    3.2927    3.0733   -0.0991 H   0  0  0  0  0  0  0  0  0  0  0  0
    6.6483    0.3847    0.7872 H   0  0  0  0  0  0  0  0  0  0  0  0
    5.1431   -1.5554    0.4634 H   0  0  0  0  0  0  0  0  0  0  0  0
    2.4670   -3.7100   -0.5122 H   0  0  0  0  0  0  0  0  0  0  0  0
    4.0754   -2.9264   -0.7529 H   0  0  0  0  0  0  0  0  0  0  0  0
    3.4851   -3.2913    0.8976 H   0  0  0  0  0  0  0  0  0  0  0  0
   -0.4370   -2.3992   -0.2680 H   0  0  0  0  0  0  0  0  0  0  0  0
  2  3  1  0  0  0  0
  3 10  1  0  0  0  0
  4  1  1  6  0  0  0
  4  9  1  0  0  0  0
  4  5  1  0  0  0  0
  5  6  2  0  0  0  0
  6  7  1  0  0  0  0
  7 13  1  0  0  0  0
  8 14  1  0  0  0  0
  8  7  2  0  0  0  0
  9  8  1  0  0  0  0
 10  9  2  0  0  0  0
 11 10  1  0  0  0  0
 11 17  1  0  0  0  0
 12  5  1  0  0  0  0
 15 11  1  0  0  0  0
 16 11  1  0  0  0  0
 18  2  1  0  0  0  0
M  END
