1,2
q = 0.0, confidence = 0.982

 48 50  0  0  0  0  0  0  0  0999 V2000
   -0.6573    0.4905   -0.6181 O   0  5  0  0  0  0  0  0  0  0  0  0
    1.8046   -0.6298    0.2731 N   0  0  0  0  0  2  0  0  0  0  0  0
   -2.8538    1.6299   -0.0597 N   0  0  0  0  0  4  0  0  0  0  0  0
   -2.1987    0.8309   -0.3074 H   0  0  0  0  0  0  0  0  0  0  0  0
   -0.0530    1.6116   -0.4227 C   0  0  0  0  0  0  0  0  0  0  0  0
    1.3845    1.7085   -0.2841 C   0  0  0  0  0  0  0  0  0  0  0  0
    1.9882    2.9747   -0.2925 C   0  0  0  0  0  0  0  0  0  0  0  0
    3.0898    3.0208   -0.2433 H   0  0  0  0  0  0  0  0  0  0  0  0
    1.2584    4.1899   -0.3141 C   0  0  0  0  0  0  0  0  0  0  0  0
    1.9763    5.5155   -0.3290 C   0  0  0  0  0  0  0  0  0  0  0  0
    2.5242    5.6675   -1.2830 H   0  0  0  0  0  0  0  0  0  0  0  0
    2.7255    5.5827    0.4868 H   0  0  0  0  0  0  0  0  0  0  0  0
    1.2711    6.3606   -0.2115 H   0  0  0  0  0  0  0  0  0  0  0  0
   -0.1346    4.0991   -0.2790 C   0  0  0  0  0  0  0  0  0  0  0  0
   -0.7376    5.0199   -0.2077 H   0  0  0  0  0  0  0  0  0  0  0  0
   -0.8073    2.8499   -0.3098 C   0  0  0  0  0  0  0  0  0  0  0  0
   -2.2135    2.7746   -0.0546 C   0  0  0  0  0  0  0  0  0  0  0  0
   -2.7710    3.6903    0.2186 H   0  0  0  0  0  0  0  0  0  0  0  0
    2.2294    0.5306   -0.1110 C   0  0  0  0  0  3  0  0  0  0  0  0
    3.3161    0.6840   -0.2876 H   0  0  0  0  0  0  0  0  0  0  0  0
    2.7075   -1.7752    0.4464 C   0  0  0  0  0  0  0  0  0  0  0  0
    2.6709   -2.0456    1.5249 H   0  0  0  0  0  0  0  0  0  0  0  0
    2.2125   -2.6221   -0.0787 H   0  0  0  0  0  0  0  0  0  0  0  0
    4.1309   -1.5808   -0.0093 C   0  0  0  0  0  0  0  0  0  0  0  0
    4.4789   -1.7924   -1.3593 C   0  0  0  0  0  0  0  0  0  0  0  0
    3.7080   -2.1403   -2.0653 H   0  0  0  0  0  0  0  0  0  0  0  0
    5.7905   -1.5703   -1.8029 C   0  0  0  0  0  0  0  0  0  0  0  0
    6.0494   -1.7470   -2.8580 H   0  0  0  0  0  0  0  0  0  0  0  0
    6.7738   -1.1314   -0.9011 C   0  0  0  0  0  0  0  0  0  0  0  0
    7.8045   -0.9613   -1.2478 H   0  0  0  0  0  0  0  0  0  0  0  0
    6.4392   -0.9166    0.4452 C   0  0  0  0  0  0  0  0  0  0  0  0
    7.2071   -0.5788    1.1578 H   0  0  0  0  0  0  0  0  0  0  0  0
    5.1255   -1.1387    0.8860 C   0  0  0  0  0  0  0  0  0  0  0  0
    4.8641   -0.9724    1.9434 H   0  0  0  0  0  0  0  0  0  0  0  0
   -4.1771    1.3205    0.4764 C   0  0  0  0  0  0  0  0  0  0  0  0
   -4.8728    2.1579    0.2631 H   0  0  0  0  0  0  0  0  0  0  0  0
   -4.0670    1.2279    1.5799 H   0  0  0  0  0  0  0  0  0  0  0  0
   -4.6597    0.0097   -0.1073 C   0  0  0  0  0  0  0  0  0  0  0  0
   -5.7357   -0.0441   -1.0110 C   0  0  0  0  0  0  0  0  0  0  0  0
   -6.2847    0.8768   -1.2657 H   0  0  0  0  0  0  0  0  0  0  0  0
   -6.1072   -1.2667   -1.5932 C   0  0  0  0  0  0  0  0  0  0  0  0
   -6.9542   -1.3027   -2.2953 H   0  0  0  0  0  0  0  0  0  0  0  0
   -5.3878   -2.4352   -1.2959 C   0  0  0  0  0  0  0  0  0  0  0  0
   -5.6673   -3.3883   -1.7705 H   0  0  0  0  0  0  0  0  0  0  0  0
   -4.3084   -2.3862   -0.3984 C   0  0  0  0  0  0  0  0  0  0  0  0
   -3.7127   -3.2834   -0.1735 H   0  0  0  0  0  0  0  0  0  0  0  0
   -3.9578   -1.1727    0.2080 C   0  0  0  0  0  0  0  0  0  0  0  0
   -3.1219   -1.1402    0.9281 H   0  0  0  0  0  0  0  0  0  0  0  0
  1  5  1  0  0  0  0
  2 21  1  0  0  0  0
  3 17  2  0  0  0  0
  3 35  1  0  0  0  0
  4  3  1  0  0  0  0
  5 16  2  0  0  0  0
  5  6  1  0  0  0  0
  6 19  1  0  0  0  0
  7  6  2  0  0  0  0
  7  8  1  0  0  0  0
  9  7  1  0  0  0  0
  9 14  2  0  0  0  0
 10  9  1  0  0  0  0
 10 13  1  0  0  0  0
 10 12  1  0  0  0  0
 11 10  1  0  0  0  0
 14 15  1  0  0  0  0
 16 14  1  0  0  0  0
 16 17  1  0  0  0  0
 17 18  1  0  0  0  0
 19  2  1  0  0  0  0
 20 19  1  0  0  0  0
 21 22  1  0  0  0  0
 23 21  1  0  0  0  0
 24 21  1  0  0  0  0
 24 33  1  0  0  0  0
 25 24  2  0  0  0  0
 26 25  1  0  0  0  0
 27 25  1  0  0  0  0
 27 29  2  0  0  0  0
 28 27  1  0  0  0  0
 29 31  1  0  0  0  0
 30 29  1  0  0  0  0
 31 33  2  0  0  0  0
 31 32  1  0  0  0  0
 33 34  1  0  0  0  0
 35 37  1  0  0  0  0
 36 35  1  0  0  0  0
 38 47  1  0  0  0  0
 38 35  1  0  0  0  0
 39 38  2  0  0  0  0
 40 39  1  0  0  0  0
 41 43  2  0  0  0  0
 41 39  1  0  0  0  0
 42 41  1  0  0  0  0
 43 45  1  0  0  0  0
 44 43  1  0  0  0  0
 45 46  1  0  0  0  0
 45 47  2  0  0  0  0
 47 48  1  0  0  0  0
M  CHG  1   1  -1
M  END
