2,4
q = -1.0, confidence = 0.016

 21 22  0  0  1  0  0  0  0  0999 V2000
   -1.2630   -2.6257   -2.0250 S   0  0  0  0  0  0  0  0  0  0  0  0
   -2.4587    1.2316    0.6640 O   0  5  0  0  0  0  0  0  0  0  0  0
   -4.2429   -0.1373    0.4162 O   0  0  0  0  0  0  0  0  0  0  0  0
   -1.0056   -0.1702   -1.1658 N   0  0  0  0  0  2  0  0  0  0  0  0
    3.9702   -1.2053   -1.7214 N   0  0  0  0  0  0  0  0  0  0  0  0
   -3.1338    0.2706    0.0899 C   0  0  0  0  0  0  0  0  0  0  0  0
   -2.4530   -0.3613   -1.1652 C   0  0  2  0  0  0  0  0  0  0  0  0
   -2.8495    0.2289   -2.0252 H   0  0  0  0  0  0  0  0  0  0  0  0
   -2.7844   -1.8610   -1.3214 C   0  0  0  0  0  0  0  0  0  0  0  0
   -3.6295   -2.0400   -2.0090 H   0  0  0  0  0  0  0  0  0  0  0  0
   -3.0091   -2.3414   -0.3491 H   0  0  0  0  0  0  0  0  0  0  0  0
   -0.3266   -1.1985   -1.5768 C   0  0  1  0  0  3  0  0  0  0  0  0
    1.1447   -1.2138   -1.6762 C   0  0  0  0  0  0  0  0  0  0  0  0
    1.8650   -0.0138   -1.8388 C   0  0  0  0  0  0  0  0  0  0  0  0
    1.3505    0.9497   -1.9619 H   0  0  0  0  0  0  0  0  0  0  0  0
    3.2678   -0.0655   -1.8408 C   0  0  0  0  0  0  0  0  0  0  0  0
    3.8398    0.8737   -1.9348 H   0  0  0  0  0  0  0  0  0  0  0  0
    3.2780   -2.3497   -1.6054 C   0  0  0  0  0  0  0  0  0  0  0  0
    3.8718   -3.2773   -1.5198 H   0  0  0  0  0  0  0  0  0  0  0  0
    1.8767   -2.4150   -1.5783 C   0  0  0  0  0  0  0  0  0  0  0  0
    1.3598   -3.3784   -1.4529 H   0  0  0  0  0  0  0  0  0  0  0  0
  1 12  1  0  0  0  0
  1  9  1  0  0  0  0
  4  7  1  0  0  0  0
  5 18  1  0  0  0  0
  6  3  2  0  0  0  0
  6  2  1  0  0  0  0
  7  8  1  6  0  0  0
  7  6  1  0  0  0  0
  9  7  1  0  0  0  0
  9 11  1  0  0  0  0
 10  9  1  0  0  0  0
 12 13  1  1  0  0  0
 12  4  1  0  0  0  0
 13 20  1  0  0  0  0
 14 13  2  0  0  0  0
 15 14  1  0  0  0  0
 16 14  1  0  0  0  0
 16  5  2  0  0  0  0
 17 16  1  0  0  0  0
 18 20  2  0  0  0  0
 18 19  1  0  0  0  0
 20 21  1  0  0  0  0
M  CHG  1   2  -1
M  END
