1,2
q = -1.0, confidence = 0.0

 13 13  0  0  1  0  0  0  0  0999 V2000
    1.4668    0.4054    0.1030 N   0  0  0  0  0  2  0  0  0  0  0  0
    0.6799   -1.7813    1.3122 O   0  5  0  0  0  0  0  0  0  0  0  0
    1.9967   -3.1007    0.0341 O   0  0  0  0  0  0  0  0  0  0  0  0
    3.8868   -1.7300   -1.5098 F   0  0  0  0  0  0  0  0  0  0  0  0
    3.2312    2.9333   -1.7415 F   0  0  0  0  0  0  0  0  0  0  0  0
    1.5866   -2.0009    0.4065 C   0  0  0  0  0  0  0  0  0  0  0  0
    2.1155   -0.7199   -0.2386 C   0  0  2  0  0  3  0  0  0  0  0  0
    3.2017   -0.6448   -1.1371 C   0  0  0  0  0  0  0  0  0  0  0  0
    3.5963    0.5934   -1.6608 C   0  0  0  0  0  0  0  0  0  0  0  0
    4.4443    0.6671   -2.3556 H   0  0  0  0  0  0  0  0  0  0  0  0
    2.8807    1.7269   -1.2616 C   0  0  0  0  0  0  0  0  0  0  0  0
    1.8074    1.6082   -0.3692 C   0  0  0  0  0  0  0  0  0  0  0  0
    1.2225    2.4736   -0.0167 H   0  0  0  0  0  0  0  0  0  0  0  0
  3  6  2  0  0  0  0
  4  8  1  0  0  0  0
  5 11  1  0  0  0  0
  6  2  1  0  0  0  0
  7  1  1  0  0  0  0
  7  6  1  1  0  0  0
  8  7  1  0  0  0  0
  9 11  1  0  0  0  0
  9  8  2  0  0  0  0
 10  9  1  0  0  0  0
 11 12  2  0  0  0  0
 12 13  1  0  0  0  0
 12  1  1  0  0  0  0
M  CHG  1   2  -1
M  END
