1,2
q = -1.0, confidence = 0.0

 26 26  0  0  1  0  0  0  0  0999 V2000
   -0.9425    0.4271   -0.5883 O   0  0  0  0  0  1  0  0  0  0  0  0
   -3.1879   -0.6547    0.5668 N   0  0  0  0  0  0  0  0  0  0  0  0
   -4.2942   -0.9830   -0.3516 C   0  0  0  0  0  0  0  0  0  0  0  0
   -2.9176    0.8168    0.7446 C   0  0  1  0  0  0  0  0  0  0  0  0
   -2.1980    1.0368    2.0698 C   0  0  0  0  0  0  0  0  0  0  0  0
   -2.0605    1.2508   -0.4846 C   0  0  1  0  0  0  0  0  0  0  0  0
   -1.6624    2.7186   -0.3898 C   0  0  0  0  0  0  0  0  0  0  0  0
   -2.5963    3.7396   -0.6511 C   0  0  0  0  0  0  0  0  0  0  0  0
   -2.2353    5.0893   -0.5241 C   0  0  0  0  0  0  0  0  0  0  0  0
   -0.9283    5.4355   -0.1424 C   0  0  0  0  0  0  0  0  0  0  0  0
    0.0108    4.4228    0.1102 C   0  0  0  0  0  0  0  0  0  0  0  0
   -0.3544    3.0732   -0.0113 C   0  0  0  0  0  0  0  0  0  0  0  0
   -4.0594   -0.6124   -1.3665 H   0  0  0  0  0  0  0  0  0  0  0  0
   -5.2481   -0.5219   -0.0116 H   0  0  0  0  0  0  0  0  0  0  0  0
   -4.4002   -2.0828   -0.3932 H   0  0  0  0  0  0  0  0  0  0  0  0
   -3.3981   -1.0705    1.4863 H   0  0  0  0  0  0  0  0  0  0  0  0
   -3.8923    1.3581    0.7466 H   0  0  0  0  0  0  0  0  0  0  0  0
   -2.7650    0.5963    2.9159 H   0  0  0  0  0  0  0  0  0  0  0  0
   -2.0750    2.1189    2.2634 H   0  0  0  0  0  0  0  0  0  0  0  0
   -1.1936    0.5702    2.0332 H   0  0  0  0  0  0  0  0  0  0  0  0
   -2.7347    1.1624   -1.3821 H   0  0  0  0  0  0  0  0  0  0  0  0
   -3.6185    3.4730   -0.9675 H   0  0  0  0  0  0  0  0  0  0  0  0
   -2.9759    5.8771   -0.7318 H   0  0  0  0  0  0  0  0  0  0  0  0
   -0.6421    6.4943   -0.0481 H   0  0  0  0  0  0  0  0  0  0  0  0
    1.0389    4.6856    0.4051 H   0  0  0  0  0  0  0  0  0  0  0  0
    0.3670    2.2664    0.1821 H   0  0  0  0  0  0  0  0  0  0  0  0
  1  6  1  0  0  0  0
  2  4  1  0  0  0  0
  2 16  1  0  0  0  0
  3 14  1  0  0  0  0
  3  2  1  0  0  0  0
  4 17  1  1  0  0  0
  4  5  1  0  0  0  0
  5 19  1  0  0  0  0
  5 18  1  0  0  0  0
  6 21  1  6  0  0  0
  6  7  1  0  0  0  0
  6  4  1  0  0  0  0
  7 12  1  0  0  0  0
  8  9  1  0  0  0  0
  8  7  2  0  0  0  0
  9 10  2  0  0  0  0
 10 24  1  0  0  0  0
 10 11  1  0  0  0  0
 11 25  1  0  0  0  0
 12 11  2  0  0  0  0
 12 26  1  0  0  0  0
 13  3  1  0  0  0  0
 15  3  1  0  0  0  0
 20  5  1  0  0  0  0
 22  8  1  0  0  0  0
 23  9  1  0  0  0  0
M  END
