1,8
q = -1.0, confidence = 0.03

 46 48  0  0  0  0  0  0  0  0999 V2000
    0.8969   -1.9921   -0.2023 O   0  5  0  0  0  0  0  0  0  0  0  0
   -5.2489   -0.8947   -0.1927 N   0  0  0  0  0  2  0  0  0  0  0  0
   -7.6137   -1.2713   -0.1179 C   0  0  0  0  0  0  0  0  0  0  0  0
   -7.3616   -2.3387   -0.0314 H   0  0  0  0  0  0  0  0  0  0  0  0
   -4.3073   -0.0423   -0.2843 N   0  0  0  0  0  2  0  0  0  0  0  0
   -8.9401   -0.8269   -0.1355 C   0  0  0  0  0  0  0  0  0  0  0  0
   -9.7622   -1.5569   -0.0608 H   0  0  0  0  0  0  0  0  0  0  0  0
    1.7090    0.7862   -0.3855 N   0  0  0  0  0  2  0  0  0  0  0  0
   -9.2442    0.5449   -0.2544 C   0  0  0  0  0  0  0  0  0  0  0  0
   -8.1695    1.4602   -0.3533 C   0  0  0  0  0  0  0  0  0  0  0  0
   -8.3917    2.5358   -0.4511 H   0  0  0  0  0  0  0  0  0  0  0  0
   -6.8426    1.0297   -0.3370 C   0  0  0  0  0  0  0  0  0  0  0  0
   -6.0004    1.7311   -0.4194 H   0  0  0  0  0  0  0  0  0  0  0  0
   -6.5487   -0.3502   -0.2172 C   0  0  0  0  0  0  0  0  0  0  0  0
  -10.6741    1.0325   -0.2173 C   0  0  0  0  0  0  0  0  0  0  0  0
  -10.7755    1.9279   -0.8668 H   0  0  0  0  0  0  0  0  0  0  0  0
  -11.3407    0.2552   -0.6473 H   0  0  0  0  0  0  0  0  0  0  0  0
  -11.1440    1.3789    1.2048 C   0  0  0  0  0  0  0  0  0  0  0  0
  -12.1939    1.7363    1.2070 H   0  0  0  0  0  0  0  0  0  0  0  0
  -10.5105    2.1727    1.6506 H   0  0  0  0  0  0  0  0  0  0  0  0
  -11.0808    0.4941    1.8703 H   0  0  0  0  0  0  0  0  0  0  0  0
   -3.0150   -0.5754   -0.2594 C   0  0  0  0  0  0  0  0  0  0  0  0
   -1.9550    0.3319   -0.3499 C   0  0  0  0  0  0  0  0  0  0  0  0
   -2.2045    1.4012   -0.4364 H   0  0  0  0  0  0  0  0  0  0  0  0
   -0.6006   -0.0845   -0.3309 C   0  0  0  0  0  0  0  0  0  0  0  0
   -0.2951   -1.4961   -0.2258 C   0  0  0  0  0  0  0  0  0  0  0  0
   -1.4044   -2.4087   -0.1262 C   0  0  0  0  0  0  0  0  0  0  0  0
   -1.1568   -3.4775   -0.0455 H   0  0  0  0  0  0  0  0  0  0  0  0
   -2.7115   -1.9702   -0.1467 C   0  0  0  0  0  0  0  0  0  0  0  0
   -3.5589   -2.6680   -0.0801 H   0  0  0  0  0  0  0  0  0  0  0  0
    0.4045    0.9317   -0.4059 C   0  0  0  0  0  3  0  0  0  0  0  0
    0.0277    1.9692   -0.4960 H   0  0  0  0  0  0  0  0  0  0  0  0
    2.5026    1.9718   -0.4482 C   0  0  0  0  0  0  0  0  0  0  0  0
    2.3424    2.9978    0.5014 C   0  0  0  0  0  0  0  0  0  0  0  0
    1.5920    2.8863    1.2988 H   0  0  0  0  0  0  0  0  0  0  0  0
    3.1560    4.1409    0.4462 C   0  0  0  0  0  0  0  0  0  0  0  0
    3.0285    4.9299    1.2042 H   0  0  0  0  0  0  0  0  0  0  0  0
    4.1357    4.2930   -0.5526 C   0  0  0  0  0  0  0  0  0  0  0  0
    4.2703    3.2573   -1.5062 C   0  0  0  0  0  0  0  0  0  0  0  0
    5.0182    3.3587   -2.3091 H   0  0  0  0  0  0  0  0  0  0  0  0
    3.4728    2.1105   -1.4629 C   0  0  0  0  0  0  0  0  0  0  0  0
    3.5614    1.3030   -2.2069 H   0  0  0  0  0  0  0  0  0  0  0  0
    5.0075    5.5209   -0.6219 C   0  0  0  0  0  0  0  0  0  0  0  0
    6.0841    5.2534   -0.6492 H   0  0  0  0  0  0  0  0  0  0  0  0
    4.8437    6.1896    0.2450 H   0  0  0  0  0  0  0  0  0  0  0  0
    4.8012    6.1065   -1.5427 H   0  0  0  0  0  0  0  0  0  0  0  0
  3  4  1  0  0  0  0
  5 22  1  0  0  0  0
  5  2  1  0  0  0  0
  6  3  1  0  0  0  0
  6  7  1  0  0  0  0
  9 15  1  0  0  0  0
  9  6  2  0  0  0  0
 10 12  2  0  0  0  0
 10  9  1  0  0  0  0
 11 10  1  0  0  0  0
 12 14  1  0  0  0  0
 13 12  1  0  0  0  0
 14  2  1  0  0  0  0
 14  3  2  0  0  0  0
 15 18  1  0  0  0  0
 16 15  1  0  0  0  0
 17 15  1  0  0  0  0
 18 19  1  0  0  0  0
 18 20  1  0  0  0  0
 18 21  1  0  0  0  0
 22 29  1  0  0  0  0
 23 25  1  0  0  0  0
 23 22  2  0  0  0  0
 24 23  1  0  0  0  0
 25 26  2  0  0  0  0
 26  1  1  0  0  0  0
 26 27  1  0  0  0  0
 27 28  1  0  0  0  0
 29 27  2  0  0  0  0
 29 30  1  0  0  0  0
 31  8  1  0  0  0  0
 31 25  1  0  0  0  0
 32 31  1  0  0  0  0
 33  8  1  0  0  0  0
 33 34  1  0  0  0  0
 34 35  1  0  0  0  0
 36 34  2  0  0  0  0
 36 37  1  0  0  0  0
 38 36  1  0  0  0  0
 39 41  1  0  0  0  0
 39 38  2  0  0  0  0
 40 39  1  0  0  0  0
 41 33  2  0  0  0  0
 42 41  1  0  0  0  0
 43 38  1  0  0  0  0
 43 45  1  0  0  0  0
 44 43  1  0  0  0  0
 46 43  1  0  0  0  0
M  CHG  1   1  -1
M  END
