1,2
q = -1.0, confidence = 0.002

 31 32  0  0  1  0  0  0  0  0999 V2000
    0.4421   -1.9576    0.1378 O   0  5  0  0  0  0  0  0  0  0  0  0
   -1.8866   -0.4141   -0.6315 N   0  0  0  0  0  2  0  0  0  0  0  0
   -2.4222   -1.6035   -0.5463 C   0  0  0  0  0  0  0  0  0  0  0  0
   -1.8047   -2.8408   -0.1628 C   0  0  0  0  0  0  0  0  0  0  0  0
   -0.3975   -2.9591    0.1237 C   0  0  0  0  0  0  0  0  0  0  0  0
    0.1145   -4.2635    0.4043 C   0  0  0  0  0  0  0  0  0  0  0  0
   -0.7175   -5.3768    0.4301 C   0  0  0  0  0  0  0  0  0  0  0  0
   -2.1042   -5.2594    0.1678 C   0  0  0  0  0  0  0  0  0  0  0  0
   -2.6238   -4.0063   -0.1287 C   0  0  0  0  0  3  0  0  0  0  0  0
   -2.7454    0.6712   -1.1980 C   0  0  1  0  0  0  0  0  0  0  0  0
   -2.9991    0.4222   -2.6849 C   0  0  0  0  0  0  0  0  0  0  0  0
   -3.9829    0.8745   -0.3353 C   0  0  0  0  0  0  0  0  0  0  0  0
   -3.8123    1.4425    0.9460 C   0  0  0  0  0  0  0  0  0  0  0  0
   -4.9078    1.6225    1.7997 C   0  0  0  0  0  0  0  0  0  0  0  0
   -6.1960    1.2415    1.3855 C   0  0  0  0  0  0  0  0  0  0  0  0
   -6.3777    0.6852    0.1116 C   0  0  0  0  0  0  0  0  0  0  0  0
   -5.2774    0.5035   -0.7441 C   0  0  0  0  0  0  0  0  0  0  0  0
   -3.4941   -1.6861   -0.8172 H   0  0  0  0  0  0  0  0  0  0  0  0
    1.1922   -4.3499    0.6057 H   0  0  0  0  0  0  0  0  0  0  0  0
   -0.2868   -6.3642    0.6595 H   0  0  0  0  0  0  0  0  0  0  0  0
   -2.7547   -6.1451    0.1918 H   0  0  0  0  0  0  0  0  0  0  0  0
   -3.6970   -3.8906   -0.3502 H   0  0  0  0  0  0  0  0  0  0  0  0
   -2.1330    1.5866   -1.1000 H   0  0  0  0  0  0  0  0  0  0  0  0
   -2.0332    0.3387   -3.2205 H   0  0  0  0  0  0  0  0  0  0  0  0
   -3.5668   -0.5128   -2.8689 H   0  0  0  0  0  0  0  0  0  0  0  0
   -3.5695    1.2640   -3.1245 H   0  0  0  0  0  0  0  0  0  0  0  0
   -2.8006    1.7453    1.2598 H   0  0  0  0  0  0  0  0  0  0  0  0
   -4.7582    2.0684    2.7950 H   0  0  0  0  0  0  0  0  0  0  0  0
   -7.0579    1.3841    2.0551 H   0  0  0  0  0  0  0  0  0  0  0  0
   -7.3842    0.3917   -0.2243 H   0  0  0  0  0  0  0  0  0  0  0  0
   -5.4389    0.0754   -1.7447 H   0  0  0  0  0  0  0  0  0  0  0  0
  2  3  1  0  0  0  0
  3  4  2  0  0  0  0
  4  9  1  0  0  0  0
  4  5  1  0  0  0  0
  5  1  1  0  0  0  0
  5  6  2  0  0  0  0
  6  7  1  0  0  0  0
  6 19  1  0  0  0  0
  7 20  1  0  0  0  0
  8 21  1  0  0  0  0
  8  7  2  0  0  0  0
  9  8  1  0  0  0  0
 10 23  1  1  0  0  0
 10  2  1  0  0  0  0
 10 12  1  0  0  0  0
 11 10  1  0  0  0  0
 12 13  1  0  0  0  0
 13 27  1  0  0  0  0
 13 14  2  0  0  0  0
 14 28  1  0  0  0  0
 15 14  1  0  0  0  0
 15 29  1  0  0  0  0
 16 15  2  0  0  0  0
 17 12  2  0  0  0  0
 17 16  1  0  0  0  0
 18  3  1  0  0  0  0
 22  9  1  0  0  0  0
 24 11  1  0  0  0  0
 25 11  1  0  0  0  0
 26 11  1  0  0  0  0
 30 16  1  0  0  0  0
 31 17  1  0  0  0  0
M  CHG  1   1  -1
M  END
