1,2
q = -1.0, confidence = 0.0

 20 21  0  0  0  0  0  0  0  0999 V2000
   -2.1232   -0.1157    0.0406 N   0  0  0  0  0  2  0  0  0  0  0  0
   -0.6965    0.3481   -2.0411 O   0  5  0  0  0  0  0  0  0  0  0  0
   -2.4993   -1.8022    3.0328 O   0  0  0  0  0  0  0  0  0  0  0  0
   -3.1257   -2.7563    1.0707 O   0  0  0  0  0  0  0  0  0  0  0  0
   -2.9795   -3.5682    1.6049 H   0  0  0  0  0  0  0  0  0  0  0  0
   -2.8548   -0.3928    1.1411 C   0  0  0  0  0  0  0  0  0  0  0  0
   -3.6951    0.5808    1.7439 C   0  0  0  0  0  0  0  0  0  0  0  0
   -4.2266    0.2949    2.6617 H   0  0  0  0  0  0  0  0  0  0  0  0
   -3.8326    1.8418    1.1927 C   0  0  0  0  0  0  0  0  0  0  0  0
   -4.4881    2.5949    1.6544 H   0  0  0  0  0  0  0  0  0  0  0  0
   -3.0942    2.1650    0.0191 C   0  0  0  0  0  0  0  0  0  0  0  0
   -3.1021    3.4286   -0.6332 C   0  0  0  0  0  3  0  0  0  0  0  0
   -3.7411    4.2302   -0.2353 H   0  0  0  0  0  0  0  0  0  0  0  0
   -2.3001    3.6436   -1.7530 C   0  0  0  0  0  0  0  0  0  0  0  0
   -2.3138    4.6278   -2.2455 H   0  0  0  0  0  0  0  0  0  0  0  0
   -1.4608    2.6327   -2.2772 C   0  0  0  0  0  0  0  0  0  0  0  0
   -0.8250    2.8098   -3.1555 H   0  0  0  0  0  0  0  0  0  0  0  0
   -1.4392    1.3770   -1.6598 C   0  0  0  0  0  0  0  0  0  0  0  0
   -2.2557    1.1385   -0.5125 C   0  0  0  0  0  0  0  0  0  0  0  0
   -2.7709   -1.7205    1.8472 C   0  0  0  0  0  0  0  0  0  0  0  0
  1  6  1  0  0  0  0
  2 18  1  0  0  0  0
  4  5  1  0  0  0  0
  4 20  1  0  0  0  0
  6  7  2  0  0  0  0
  6 20  1  0  0  0  0
  7  8  1  0  0  0  0
  9 10  1  0  0  0  0
  9  7  1  0  0  0  0
 11  9  2  0  0  0  0
 12 13  1  0  0  0  0
 12 11  1  0  0  0  0
 14 12  1  0  0  0  0
 15 14  1  0  0  0  0
 16 14  2  0  0  0  0
 16 18  1  0  0  0  0
 17 16  1  0  0  0  0
 18 19  2  0  0  0  0
 19 11  1  0  0  0  0
 19  1  1  0  0  0  0
 20  3  2  0  0  0  0
M  CHG  1   2  -1
M  END
