2,5
q = -1.0, confidence = 0.006

 17 18  0  0  0  0  0  0  0  0999 V2000
   -2.4720    3.0273   -0.7670 Cl  0  0  0  0  0  0  0  0  0  0  0  0
   -0.2795    1.0079   -0.4371 O   0  5  0  0  0  0  0  0  0  0  0  0
   -5.0066    1.5431   -0.0860 O   0  0  0  0  0  0  0  0  0  0  0  0
   -5.1803   -1.1141    0.6607 O   0  0  0  0  0  0  0  0  0  0  0  0
   -0.4192   -1.4701    0.3686 N   0  0  0  0  0  2  0  0  0  0  0  0
   -1.4810    0.5888   -0.1883 C   0  0  0  0  0  0  0  0  0  0  0  0
   -2.6359    1.3730   -0.2845 C   0  0  0  0  0  0  0  0  0  0  0  0
   -3.9779    0.8757   -0.0082 C   0  0  0  0  0  0  0  0  0  0  0  0
   -4.0929   -0.6184    0.4160 C   0  0  0  0  0  0  0  0  0  0  0  0
   -2.8321   -1.4259    0.5302 C   0  0  0  0  0  0  0  0  0  0  0  0
   -2.8444   -2.7702    0.9152 C   0  0  0  0  0  0  0  0  0  0  0  0
   -3.8128   -3.2461    1.1319 H   0  0  0  0  0  0  0  0  0  0  0  0
   -1.6227   -3.4594    0.9998 C   0  0  0  0  0  0  0  0  0  0  0  0
   -1.5803   -4.5217    1.2777 H   0  0  0  0  0  0  0  0  0  0  0  0
   -0.4364   -2.7774    0.7150 C   0  0  0  0  0  3  0  0  0  0  0  0
    0.5395   -3.2819    0.7436 H   0  0  0  0  0  0  0  0  0  0  0  0
   -1.6006   -0.8050    0.2510 C   0  0  0  0  0  0  0  0  0  0  0  0
  1  7  1  0  0  0  0
  2  6  1  0  0  0  0
  3  8  2  0  0  0  0
  5 15  1  0  0  0  0
  6 17  1  0  0  0  0
  7  6  2  0  0  0  0
  7  8  1  0  0  0  0
  8  9  1  0  0  0  0
  9 10  1  0  0  0  0
  9  4  2  0  0  0  0
 10 11  1  0  0  0  0
 11 13  2  0  0  0  0
 11 12  1  0  0  0  0
 13 14  1  0  0  0  0
 15 16  1  0  0  0  0
 15 13  1  0  0  0  0
 17  5  1  0  0  0  0
 17 10  2  0  0  0  0
M  CHG  1   2  -1
M  END
