1,2
q = -1.0, confidence = 0.0

 47 47  0  0  0  0  0  0  0  0999 V2000
   -0.2132    0.2905   -0.4717 O   0  5  0  0  0  0  0  0  0  0  0  0
   -0.5449   -2.5978   -0.0289 N   0  0  0  0  0  0  0  0  0  0  0  0
   -1.5517    0.3568   -0.3719 C   0  0  0  0  0  0  0  0  0  0  0  0
   -2.1865    1.6080   -0.1335 C   0  0  0  0  0  0  0  0  0  0  0  0
   -3.5872    1.5852    0.0161 C   0  0  0  0  0  0  0  0  0  0  0  0
   -4.0956    2.5335    0.2178 H   0  0  0  0  0  0  0  0  0  0  0  0
   -4.3646    0.4157   -0.0801 C   0  0  0  0  0  0  0  0  0  0  0  0
   -3.6923   -0.7900   -0.3675 C   0  0  0  0  0  0  0  0  0  0  0  0
   -4.2594   -1.7269   -0.4846 H   0  0  0  0  0  0  0  0  0  0  0  0
   -2.3040   -0.8364   -0.5248 C   0  0  0  0  0  0  0  0  0  0  0  0
   -1.6145   -2.1081   -0.9469 C   0  0  0  0  0  0  0  0  0  0  0  0
   -2.3811   -2.9094   -1.0610 H   0  0  0  0  0  0  0  0  0  0  0  0
   -1.1354   -1.9654   -1.9379 H   0  0  0  0  0  0  0  0  0  0  0  0
   -0.0411   -3.8790   -0.5745 C   0  0  0  0  0  0  0  0  0  0  0  0
   -0.8724   -4.6174   -0.6432 H   0  0  0  0  0  0  0  0  0  0  0  0
    0.7501   -4.2726    0.0867 H   0  0  0  0  0  0  0  0  0  0  0  0
    0.3899   -3.7127   -1.5780 H   0  0  0  0  0  0  0  0  0  0  0  0
   -1.1148   -2.8612    1.3091 C   0  0  0  0  0  0  0  0  0  0  0  0
   -1.5469   -1.9369    1.7301 H   0  0  0  0  0  0  0  0  0  0  0  0
   -0.3123   -3.2102    1.9839 H   0  0  0  0  0  0  0  0  0  0  0  0
   -1.9076   -3.6418    1.2414 H   0  0  0  0  0  0  0  0  0  0  0  0
   -1.3856    2.9219   -0.0572 C   0  0  0  0  0  0  0  0  0  0  0  0
   -2.3108    4.1405    0.1203 C   0  0  0  0  0  0  0  0  0  0  0  0
   -3.0345    4.2419   -0.7137 H   0  0  0  0  0  0  0  0  0  0  0  0
   -1.6976    5.0634    0.1431 H   0  0  0  0  0  0  0  0  0  0  0  0
   -2.8782    4.0988    1.0718 H   0  0  0  0  0  0  0  0  0  0  0  0
   -0.5937    3.1188   -1.3728 C   0  0  0  0  0  0  0  0  0  0  0  0
    0.1218    2.2940   -1.5467 H   0  0  0  0  0  0  0  0  0  0  0  0
   -0.0261    4.0719   -1.3312 H   0  0  0  0  0  0  0  0  0  0  0  0
   -1.2783    3.1703   -2.2436 H   0  0  0  0  0  0  0  0  0  0  0  0
   -0.4120    2.8896    1.1436 C   0  0  0  0  0  0  0  0  0  0  0  0
   -0.9593    2.7299    2.0939 H   0  0  0  0  0  0  0  0  0  0  0  0
    0.1273    3.8569    1.2163 H   0  0  0  0  0  0  0  0  0  0  0  0
    0.3378    2.0847    1.0516 H   0  0  0  0  0  0  0  0  0  0  0  0
   -5.8915    0.4156    0.1031 C   0  0  0  0  0  0  0  0  0  0  0  0
   -6.4412    1.8188    0.4120 C   0  0  0  0  0  0  0  0  0  0  0  0
   -6.2349    2.5338   -0.4098 H   0  0  0  0  0  0  0  0  0  0  0  0
   -6.0134    2.2335    1.3469 H   0  0  0  0  0  0  0  0  0  0  0  0
   -7.5409    1.7699    0.5419 H   0  0  0  0  0  0  0  0  0  0  0  0
   -6.2578   -0.5212    1.2774 C   0  0  0  0  0  0  0  0  0  0  0  0
   -5.7887   -0.1754    2.2206 H   0  0  0  0  0  0  0  0  0  0  0  0
   -5.9220   -1.5614    1.0952 H   0  0  0  0  0  0  0  0  0  0  0  0
   -7.3572   -0.5438    1.4262 H   0  0  0  0  0  0  0  0  0  0  0  0
   -6.5603   -0.0955   -1.1937 C   0  0  0  0  0  0  0  0  0  0  0  0
   -7.6640   -0.1102   -1.0798 H   0  0  0  0  0  0  0  0  0  0  0  0
   -6.2356   -1.1239   -1.4482 H   0  0  0  0  0  0  0  0  0  0  0  0
   -6.3107    0.5597   -2.0525 H   0  0  0  0  0  0  0  0  0  0  0  0
  1  3  1  0  0  0  0
  2 18  1  0  0  0  0
  3  4  1  0  0  0  0
  4 22  1  0  0  0  0
  4  5  2  0  0  0  0
  5  6  1  0  0  0  0
  7  5  1  0  0  0  0
  7 35  1  0  0  0  0
  8  7  2  0  0  0  0
  9  8  1  0  0  0  0
 10  3  2  0  0  0  0
 10  8  1  0  0  0  0
 11 10  1  0  0  0  0
 11  2  1  0  0  0  0
 12 11  1  0  0  0  0
 13 11  1  0  0  0  0
 14  2  1  0  0  0  0
 14 16  1  0  0  0  0
 15 14  1  0  0  0  0
 17 14  1  0  0  0  0
 18 19  1  0  0  0  0
 18 20  1  0  0  0  0
 21 18  1  0  0  0  0
 22 23  1  0  0  0  0
 22 31  1  0  0  0  0
 23 25  1  0  0  0  0
 23 26  1  0  0  0  0
 24 23  1  0  0  0  0
 27 29  1  0  0  0  0
 27 22  1  0  0  0  0
 28 27  1  0  0  0  0
 30 27  1  0  0  0  0
 31 33  1  0  0  0  0
 31 32  1  0  0  0  0
 34 31  1  0  0  0  0
 35 36  1  0  0  0  0
 35 40  1  0  0  0  0
 36 39  1  0  0  0  0
 36 38  1  0  0  0  0
 37 36  1  0  0  0  0
 40 43  1  0  0  0  0
 40 41  1  0  0  0  0
 42 40  1  0  0  0  0
 44 45  1  0  0  0  0
 44 35  1  0  0  0  0
 46 44  1  0  0  0  0
 47 44  1  0  0  0  0
M  CHG  1   1  -1
M  END
