1,2
q = -1.0, confidence = 0.02

 39 39  0  0  0  0  0  0  0  0999 V2000
   -2.5915    0.9855    0.8664 O   0  5  0  0  0  0  0  0  0  0  0  0
   -0.3803    1.6251   -1.0479 N   0  0  0  0  0  2  0  0  0  0  0  0
   -1.0792    2.7319   -1.0751 C   0  0  0  0  0  3  0  0  0  0  0  0
   -0.6989    3.5418   -1.7370 H   0  0  0  0  0  0  0  0  0  0  0  0
   -2.9854    2.1776    0.5395 C   0  0  0  0  0  0  0  0  0  0  0  0
   -2.2978    3.0600   -0.3851 C   0  0  0  0  0  0  0  0  0  0  0  0
   -4.1863    2.6813    1.1442 C   0  0  0  0  0  0  0  0  0  0  0  0
   -4.7015    2.0062    1.8433 H   0  0  0  0  0  0  0  0  0  0  0  0
    0.8411    1.5932   -1.8561 C   0  0  0  0  0  0  0  0  0  0  0  0
    0.7591    2.3119   -2.7039 H   0  0  0  0  0  0  0  0  0  0  0  0
    0.9309    0.5764   -2.2891 H   0  0  0  0  0  0  0  0  0  0  0  0
    2.0984    1.8914   -1.0262 C   0  0  0  0  0  0  0  0  0  0  0  0
    2.2020    2.9897   -0.8847 H   0  0  0  0  0  0  0  0  0  0  0  0
    1.9477    1.4730   -0.0130 H   0  0  0  0  0  0  0  0  0  0  0  0
    3.3717    1.2883   -1.6207 C   0  0  0  0  0  0  0  0  0  0  0  0
    3.5968    1.7491   -2.6092 H   0  0  0  0  0  0  0  0  0  0  0  0
    3.1870    0.2095   -1.8192 H   0  0  0  0  0  0  0  0  0  0  0  0
    4.5864    1.4128   -0.6987 C   0  0  0  0  0  0  0  0  0  0  0  0
    4.8286    2.4866   -0.5297 H   0  0  0  0  0  0  0  0  0  0  0  0
    4.3139    1.0070    0.3021 H   0  0  0  0  0  0  0  0  0  0  0  0
    5.8254    0.6772   -1.2135 C   0  0  0  0  0  0  0  0  0  0  0  0
    6.1136    1.0850   -2.2089 H   0  0  0  0  0  0  0  0  0  0  0  0
    5.5597   -0.3894   -1.3928 H   0  0  0  0  0  0  0  0  0  0  0  0
   -2.8406    4.3539   -0.6454 C   0  0  0  0  0  0  0  0  0  0  0  0
   -2.2986    5.0056   -1.3512 H   0  0  0  0  0  0  0  0  0  0  0  0
   -4.6788    3.9478    0.8621 C   0  0  0  0  0  0  0  0  0  0  0  0
   -5.6067    4.2878    1.3494 H   0  0  0  0  0  0  0  0  0  0  0  0
    7.0261    0.7479   -0.2675 C   0  0  0  0  0  0  0  0  0  0  0  0
    7.2914    1.8142   -0.0840 H   0  0  0  0  0  0  0  0  0  0  0  0
    6.7324    0.3411    0.7277 H   0  0  0  0  0  0  0  0  0  0  0  0
   -4.0067    4.8064   -0.0443 C   0  0  0  0  0  0  0  0  0  0  0  0
   -4.4006    5.8088   -0.2649 H   0  0  0  0  0  0  0  0  0  0  0  0
    9.4537    0.0683    0.1833 C   0  0  0  0  0  0  0  0  0  0  0  0
   10.3318   -0.4827   -0.2098 H   0  0  0  0  0  0  0  0  0  0  0  0
    9.7690    1.1184    0.3584 H   0  0  0  0  0  0  0  0  0  0  0  0
    9.2021   -0.3672    1.1732 H   0  0  0  0  0  0  0  0  0  0  0  0
    8.2625   -0.0015   -0.7728 C   0  0  0  0  0  0  0  0  0  0  0  0
    8.5544    0.4072   -1.7660 H   0  0  0  0  0  0  0  0  0  0  0  0
    7.9917   -1.0651   -0.9579 H   0  0  0  0  0  0  0  0  0  0  0  0
  3  2  1  0  0  0  0
  3  6  1  0  0  0  0
  4  3  1  0  0  0  0
  5  1  1  0  0  0  0
  5  7  1  0  0  0  0
  6  5  2  0  0  0  0
  7  8  1  0  0  0  0
  9  2  1  0  0  0  0
  9 12  1  0  0  0  0
 10  9  1  0  0  0  0
 11  9  1  0  0  0  0
 12 13  1  0  0  0  0
 12 14  1  0  0  0  0
 15 12  1  0  0  0  0
 15 18  1  0  0  0  0
 16 15  1  0  0  0  0
 17 15  1  0  0  0  0
 18 19  1  0  0  0  0
 18 20  1  0  0  0  0
 21 18  1  0  0  0  0
 21 28  1  0  0  0  0
 22 21  1  0  0  0  0
 23 21  1  0  0  0  0
 24  6  1  0  0  0  0
 24 31  2  0  0  0  0
 25 24  1  0  0  0  0
 26  7  2  0  0  0  0
 26 27  1  0  0  0  0
 28 29  1  0  0  0  0
 28 30  1  0  0  0  0
 31 26  1  0  0  0  0
 32 31  1  0  0  0  0
 33 35  1  0  0  0  0
 33 36  1  0  0  0  0
 34 33  1  0  0  0  0
 37 28  1  0  0  0  0
 37 33  1  0  0  0  0
 38 37  1  0  0  0  0
 39 37  1  0  0  0  0
M  CHG  1   1  -1
M  END
