1,14
q = -1.0, confidence = 0.006

 24 24  0  0  0  0  0  0  0  0999 V2000
   -0.8393   -1.1987   -0.7139 O   0  5  0  0  0  0  0  0  0  0  0  0
   -2.1206   -0.9209   -0.4882 C   0  0  0  0  0  0  0  0  0  0  0  0
   -3.1054   -1.9242   -0.6031 C   0  0  0  0  0  0  0  0  0  0  0  0
   -2.7863   -2.9458   -0.8535 H   0  0  0  0  0  0  0  0  0  0  0  0
   -4.4532   -1.6090   -0.4061 C   0  0  0  0  0  0  0  0  0  0  0  0
   -5.2094   -2.4039   -0.4925 H   0  0  0  0  0  0  0  0  0  0  0  0
   -4.8577   -0.2886   -0.1112 C   0  0  0  0  0  0  0  0  0  0  0  0
   -5.9218   -0.0541    0.0309 H   0  0  0  0  0  0  0  0  0  0  0  0
   -3.8973    0.7132   -0.0107 C   0  0  0  0  0  0  0  0  0  0  0  0
   -4.2002    1.7489    0.2096 H   0  0  0  0  0  0  0  0  0  0  0  0
   -2.5125    0.4260   -0.1762 C   0  0  0  0  0  0  0  0  0  0  0  0
   -1.5759    1.5167   -0.0628 C   0  0  0  0  0  3  0  0  0  0  0  0
   -2.0548    2.5119    0.0326 H   0  0  0  0  0  0  0  0  0  0  0  0
   -0.2643    1.4732   -0.0389 N   0  0  0  0  0  2  0  0  0  0  0  0
    0.4603    2.7745    0.1076 C   0  0  0  0  0  0  0  0  0  0  0  0
    1.5363    2.5026    0.1689 H   0  0  0  0  0  0  0  0  0  0  0  0
    0.0929    3.4965    1.4096 C   0  0  0  0  0  0  0  0  0  0  0  0
   -0.9547    3.8585    1.3979 H   0  0  0  0  0  0  0  0  0  0  0  0
    0.7436    4.3826    1.5423 H   0  0  0  0  0  0  0  0  0  0  0  0
    0.2207    2.8426    2.2939 H   0  0  0  0  0  0  0  0  0  0  0  0
    0.2599    3.6635   -1.1244 C   0  0  0  0  0  0  0  0  0  0  0  0
    0.4954    3.1251   -2.0631 H   0  0  0  0  0  0  0  0  0  0  0  0
    0.9118    4.5564   -1.0613 H   0  0  0  0  0  0  0  0  0  0  0  0
   -0.7875    4.0201   -1.1948 H   0  0  0  0  0  0  0  0  0  0  0  0
  1  2  1  0  0  0  0
  2 11  1  0  0  0  0
  3  2  2  0  0  0  0
  3  5  1  0  0  0  0
  4  3  1  0  0  0  0
  5  7  2  0  0  0  0
  6  5  1  0  0  0  0
  7  9  1  0  0  0  0
  7  8  1  0  0  0  0
  9 10  1  0  0  0  0
 11 12  1  0  0  0  0
 11  9  2  0  0  0  0
 12 14  1  0  0  0  0
 12 13  1  0  0  0  0
 14 15  1  0  0  0  0
 15 16  1  0  0  0  0
 15 17  1  0  0  0  0
 17 19  1  0  0  0  0
 17 20  1  0  0  0  0
 18 17  1  0  0  0  0
 21 23  1  0  0  0  0
 21 15  1  0  0  0  0
 22 21  1  0  0  0  0
 24 21  1  0  0  0  0
M  CHG  1   1  -1
M  END
