4,5
q = -1.0, confidence = 0.014

 28 29  0  0  1  0  0  0  0  0999 V2000
    3.3064    3.1985   -1.4410 Cl  0  0  0  0  0  0  0  0  0  0  0  0
    7.3934   -0.3227   -0.8044 Cl  0  0  0  0  0  0  0  0  0  0  0  0
    1.2998   -0.7909    2.4548 S   0  0  0  0  0  0  0  0  0  0  0  0
    1.6112    0.8236   -1.1364 O   0  0  0  0  0  1  0  0  0  0  0  0
    1.1456   -1.8400   -0.6664 N   0  0  0  0  0  2  0  0  0  0  0  0
    2.8719    0.5262   -1.0539 C   0  0  1  0  0  3  0  0  0  0  0  0
    3.8566    1.5636   -1.1855 C   0  0  0  0  0  0  0  0  0  0  0  0
    5.2223    1.3039   -1.1163 C   0  0  0  0  0  0  0  0  0  0  0  0
    5.9411    2.1265   -1.2270 H   0  0  0  0  0  0  0  0  0  0  0  0
    5.6765   -0.0169   -0.8974 C   0  0  0  0  0  0  0  0  0  0  0  0
    4.7651   -1.0554   -0.7500 C   0  0  0  0  0  0  0  0  0  0  0  0
    5.1205   -2.0794   -0.5665 H   0  0  0  0  0  0  0  0  0  0  0  0
    3.3708   -0.7990   -0.8278 C   0  0  0  0  0  0  0  0  0  0  0  0
    2.4553   -1.8814   -0.6195 C   0  0  0  0  0  0  0  0  0  0  0  0
    2.9188   -2.8533   -0.3604 H   0  0  0  0  0  0  0  0  0  0  0  0
    0.4597   -3.0582   -0.2291 C   0  0  0  0  0  0  0  0  0  0  0  0
    1.1824   -3.9015   -0.2379 H   0  0  0  0  0  0  0  0  0  0  0  0
   -0.3725   -3.2807   -0.9195 H   0  0  0  0  0  0  0  0  0  0  0  0
   -0.1153   -2.8885    1.1974 C   0  0  0  0  0  0  0  0  0  0  0  0
   -0.9457   -2.1576    1.1514 H   0  0  0  0  0  0  0  0  0  0  0  0
   -0.5643   -3.8576    1.4971 H   0  0  0  0  0  0  0  0  0  0  0  0
    0.9069   -2.4779    2.2131 C   0  0  0  0  0  0  0  0  0  0  0  0
    1.7209   -3.2722    3.0047 C   0  0  0  0  0  0  0  0  0  0  0  0
    1.6454   -4.3692    3.0130 H   0  0  0  0  0  0  0  0  0  0  0  0
    2.6436   -2.5271    3.8037 C   0  0  0  0  0  0  0  0  0  0  0  0
    3.3632   -2.9802    4.4995 H   0  0  0  0  0  0  0  0  0  0  0  0
    2.5299   -1.1637    3.6151 C   0  0  0  0  0  0  0  0  0  0  0  0
    3.0977   -0.3561    4.0925 H   0  0  0  0  0  0  0  0  0  0  0  0
  1  7  1  0  0  0  0
  3 27  1  0  0  0  0
  5 14  1  0  0  0  0
  5 16  1  0  0  0  0
  6  4  1  1  0  0  0
  6 13  1  0  0  0  0
  7  8  2  0  0  0  0
  7  6  1  0  0  0  0
  8 10  1  0  0  0  0
  9  8  1  0  0  0  0
 10  2  1  0  0  0  0
 10 11  2  0  0  0  0
 11 12  1  0  0  0  0
 13 11  1  0  0  0  0
 13 14  2  0  0  0  0
 14 15  1  0  0  0  0
 16 19  1  0  0  0  0
 17 16  1  0  0  0  0
 18 16  1  0  0  0  0
 19 21  1  0  0  0  0
 19 22  1  0  0  0  0
 20 19  1  0  0  0  0
 22  3  1  0  0  0  0
 22 23  2  0  0  0  0
 23 24  1  0  0  0  0
 23 25  1  0  0  0  0
 25 26  1  0  0  0  0
 27 25  2  0  0  0  0
 27 28  1  0  0  0  0
M  END
