1,2
q = -2.0, confidence = 0.748

 15 15  0  0  0  0  0  0  0  0999 V2000
    0.5611    1.9938   -0.8026 O   0  5  0  0  0  0  0  0  0  0  0  0
   -1.1598    0.7011   -0.5638 N   0  0  0  0  0  2  0  0  0  0  0  0
   -0.7980    2.0589   -0.6533 C   0  0  0  0  0  0  0  0  0  0  0  0
   -1.4672    3.0659   -0.6037 O   0  0  0  0  0  0  0  0  0  0  0  0
   -3.4726    0.9662    0.2439 C   0  0  0  0  0  0  0  0  0  0  0  0
   -4.7161    0.3828    0.5205 C   0  0  0  0  0  0  0  0  0  0  0  0
   -4.9462   -0.9809    0.2751 C   0  0  0  0  0  0  0  0  0  0  0  0
   -3.9166   -1.7632   -0.2747 C   0  0  0  0  0  0  0  0  0  0  0  0
   -2.6725   -1.1919   -0.5677 C   0  0  0  0  0  0  0  0  0  0  0  0
   -2.4296    0.1750   -0.2966 C   0  0  0  0  0  0  0  0  0  0  0  0
   -3.2929    2.0340    0.4232 H   0  0  0  0  0  0  0  0  0  0  0  0
   -5.5193    1.0086    0.9393 H   0  0  0  0  0  0  0  0  0  0  0  0
   -5.9251   -1.4295    0.5008 H   0  0  0  0  0  0  0  0  0  0  0  0
   -4.0873   -2.8291   -0.4907 H   0  0  0  0  0  0  0  0  0  0  0  0
   -1.8666   -1.7903   -1.0177 H   0  0  0  0  0  0  0  0  0  0  0  0
  1  3  1  0  0  0  0
  2 10  1  0  0  0  0
  3  4  2  0  0  0  0
  3  2  1  0  0  0  0
  5 11  1  0  0  0  0
  5  6  1  0  0  0  0
  6 12  1  0  0  0  0
  7 13  1  0  0  0  0
  7  6  2  0  0  0  0
  8  7  1  0  0  0  0
  9 10  1  0  0  0  0
  9  8  2  0  0  0  0
 10  5  2  0  0  0  0
 14  8  1  0  0  0  0
 15  9  1  0  0  0  0
M  CHG  1   1  -1
M  END
