11,12
q = -2.0, confidence = 0.9

 15 15  0  0  1  0  0  0  0  0999 V2000
    2.1148    0.0983    2.4023 C   0  0  0  0  0  0  0  0  0  0  0  0
    2.9244    0.2617    1.0988 C   0  0  2  0  0  3  0  0  0  0  0  0
    4.2208    0.7904    1.0069 C   0  0  0  0  0  0  0  0  0  0  0  0
    4.7221    1.1164    1.9293 H   0  0  0  0  0  0  0  0  0  0  0  0
    4.8140    0.8771   -0.2663 C   0  0  0  0  0  0  0  0  0  0  0  0
    5.8308    1.2879   -0.3704 H   0  0  0  0  0  0  0  0  0  0  0  0
    4.1151    0.4415   -1.4074 C   0  0  0  0  0  0  0  0  0  0  0  0
    4.5330    0.4889   -2.4229 H   0  0  0  0  0  0  0  0  0  0  0  0
    2.8229   -0.0799   -1.2378 C   0  0  0  0  0  0  0  0  0  0  0  0
    1.9240   -0.6161   -2.3685 C   0  0  0  0  0  0  0  0  0  0  0  0
    2.2893   -0.1458   -0.0100 N   0  0  0  0  0  2  0  0  0  0  0  0
    0.9374   -0.4222    2.2331 O   0  5  0  0  0  0  0  0  0  0  0  0
    2.6393    0.4634    3.4566 O   0  0  0  0  0  0  0  0  0  0  0  0
    0.8013   -1.1242   -1.9495 O   0  5  0  0  0  0  0  0  0  0  0  0
    2.3380   -0.5292   -3.5260 O   0  0  0  0  0  0  0  0  0  0  0  0
  1 13  2  0  0  0  0
  2  1  1  6  0  0  0
  3  2  1  0  0  0  0
  3  4  1  0  0  0  0
  5  3  2  0  0  0  0
  6  5  1  0  0  0  0
  7  9  2  0  0  0  0
  7  5  1  0  0  0  0
  8  7  1  0  0  0  0
  9 11  1  0  0  0  0
 10 14  1  0  0  0  0
 10  9  1  0  0  0  0
 11  2  1  0  0  0  0
 12  1  1  0  0  0  0
 15 10  2  0  0  0  0
M  CHG  2  12  -1  14  -1
M  END
