1,3
q = -1.0, confidence = 0.0

 29 30  0  0  0  0  0  0  0  0999 V2000
    1.8289    0.0844    0.9239 O   0  5  0  0  0  0  0  0  0  0  0  0
   -1.4032    0.8438   -1.8053 O   0  0  0  0  0  0  0  0  0  0  0  0
   -0.1741    1.8762    0.3368 N   0  0  0  0  0  2  0  0  0  0  0  0
    2.6321    1.1030    0.8561 C   0  0  0  0  0  0  0  0  0  0  0  0
    4.0348    0.8794    1.0289 C   0  0  0  0  0  0  0  0  0  0  0  0
    4.3580   -0.1573    1.2026 H   0  0  0  0  0  0  0  0  0  0  0  0
    4.9389    1.9340    0.9821 C   0  0  0  0  0  0  0  0  0  0  0  0
    6.0119    1.7295    1.1242 H   0  0  0  0  0  0  0  0  0  0  0  0
    4.5050    3.2647    0.7502 C   0  0  0  0  0  0  0  0  0  0  0  0
    5.2321    4.0886    0.7135 H   0  0  0  0  0  0  0  0  0  0  0  0
    3.1506    3.5082    0.5623 C   0  0  0  0  0  0  0  0  0  0  0  0
    2.7911    4.5323    0.3704 H   0  0  0  0  0  0  0  0  0  0  0  0
    2.1929    2.4550    0.6084 C   0  0  0  0  0  0  0  0  0  0  0  0
    0.8183    2.7438    0.3470 C   0  0  0  0  0  3  0  0  0  0  0  0
    0.5737    3.7913    0.0824 H   0  0  0  0  0  0  0  0  0  0  0  0
   -1.4650    2.3622   -0.0101 C   0  0  0  0  0  0  0  0  0  0  0  0
   -2.1156    3.3541    0.7349 C   0  0  0  0  0  0  0  0  0  0  0  0
   -1.6049    3.7675    1.6174 H   0  0  0  0  0  0  0  0  0  0  0  0
   -3.4115    3.7737    0.3892 C   0  0  0  0  0  0  0  0  0  0  0  0
   -3.9155    4.5483    0.9855 H   0  0  0  0  0  0  0  0  0  0  0  0
   -4.0607    3.1826   -0.7025 C   0  0  0  0  0  0  0  0  0  0  0  0
   -5.0804    3.4945   -0.9745 H   0  0  0  0  0  0  0  0  0  0  0  0
   -3.4229    2.1846   -1.4610 C   0  0  0  0  0  0  0  0  0  0  0  0
   -3.9428    1.7295   -2.3148 H   0  0  0  0  0  0  0  0  0  0  0  0
   -2.1205    1.7772   -1.1293 C   0  0  0  0  0  0  0  0  0  0  0  0
   -2.0807   -0.0545   -2.6671 C   0  0  0  0  0  0  0  0  0  0  0  0
   -2.9332   -0.5442   -2.1478 H   0  0  0  0  0  0  0  0  0  0  0  0
   -1.3346   -0.8216   -2.9462 H   0  0  0  0  0  0  0  0  0  0  0  0
   -2.4524    0.4499   -3.5872 H   0  0  0  0  0  0  0  0  0  0  0  0
  2 25  1  0  0  0  0
  3 14  1  0  0  0  0
  4  1  1  0  0  0  0
  4  5  1  0  0  0  0
  5  6  1  0  0  0  0
  7  5  2  0  0  0  0
  7  8  1  0  0  0  0
  9  7  1  0  0  0  0
 10  9  1  0  0  0  0
 11 13  1  0  0  0  0
 11  9  2  0  0  0  0
 12 11  1  0  0  0  0
 13  4  2  0  0  0  0
 14 13  1  0  0  0  0
 15 14  1  0  0  0  0
 16  3  1  0  0  0  0
 16 17  1  0  0  0  0
 17 18  1  0  0  0  0
 19 17  2  0  0  0  0
 19 20  1  0  0  0  0
 21 19  1  0  0  0  0
 22 21  1  0  0  0  0
 23 25  1  0  0  0  0
 23 21  2  0  0  0  0
 24 23  1  0  0  0  0
 25 16  2  0  0  0  0
 26 27  1  0  0  0  0
 26  2  1  0  0  0  0
 28 26  1  0  0  0  0
 29 26  1  0  0  0  0
M  CHG  1   1  -1
M  END
