1,5
q = 0.0, confidence = 0.958

 58 61  0  0  1  0  0  0  0  0999 V2000
   -0.6925    0.7224   -0.7826 O   0  0  0  0  0  1  0  0  0  0  0  0
    1.8862    0.3619    0.3246 O   0  0  0  0  0  0  0  0  0  0  0  0
   -2.1787   -1.5836   -0.9130 N   0  0  0  0  0  0  0  0  0  0  0  0
   -2.4932   -0.4069   -1.7033 N   0  0  0  0  0  0  0  0  0  0  0  0
    0.6987   -1.8867   -0.7202 N   0  0  0  0  0  0  0  0  0  0  0  0
    2.0539   -1.4964   -1.1276 N   0  0  0  0  0  0  0  0  0  0  0  0
   -2.6138    1.8875   -1.3068 N   0  0  0  0  0  0  0  0  0  0  0  0
   -3.5248    1.7681   -1.7553 H   0  0  0  0  0  0  0  0  0  0  0  0
    3.8448   -0.1026   -0.8280 N   0  0  0  0  0  0  0  0  0  0  0  0
    4.1906   -0.7354   -1.5529 H   0  0  0  0  0  0  0  0  0  0  0  0
   -3.5682   -1.1813   -1.0487 C   0  0  0  0  0  0  0  0  0  0  0  0
   -4.1946   -0.6626    0.2238 C   0  0  0  0  0  0  0  0  0  0  0  0
   -3.4318   -0.2378    0.8985 H   0  0  0  0  0  0  0  0  0  0  0  0
   -4.6931   -1.4976    0.7547 H   0  0  0  0  0  0  0  0  0  0  0  0
   -4.9615    0.1086    0.0085 H   0  0  0  0  0  0  0  0  0  0  0  0
   -4.4972   -1.9013   -2.0023 C   0  0  0  0  0  0  0  0  0  0  0  0
   -4.0033   -2.1431   -2.9607 H   0  0  0  0  0  0  0  0  0  0  0  0
   -5.3803   -1.2679   -2.2197 H   0  0  0  0  0  0  0  0  0  0  0  0
   -4.8641   -2.8366   -1.5337 H   0  0  0  0  0  0  0  0  0  0  0  0
   -1.8725    0.7571   -1.1853 C   0  0  2  0  0  3  0  0  0  0  0  0
   -1.5255   -2.6606   -1.6394 C   0  0  0  0  0  0  0  0  0  0  0  0
   -1.5483   -3.5593   -0.9866 H   0  0  0  0  0  0  0  0  0  0  0  0
   -2.0049   -2.9128   -2.6129 H   0  0  0  0  0  0  0  0  0  0  0  0
   -0.0980   -2.2155   -1.9365 C   0  0  0  0  0  0  0  0  0  0  0  0
   -0.1292   -1.2770   -2.5237 H   0  0  0  0  0  0  0  0  0  0  0  0
    0.4203   -2.9786   -2.5447 H   0  0  0  0  0  0  0  0  0  0  0  0
    1.8609   -2.7319   -0.3409 C   0  0  0  0  0  0  0  0  0  0  0  0
    2.2973   -2.7249    1.1065 C   0  0  0  0  0  0  0  0  0  0  0  0
    1.9317   -1.8333    1.6446 H   0  0  0  0  0  0  0  0  0  0  0  0
    3.4066   -2.7478    1.1299 H   0  0  0  0  0  0  0  0  0  0  0  0
    1.9155   -3.6284    1.6178 H   0  0  0  0  0  0  0  0  0  0  0  0
    2.1030   -4.0471   -1.0454 C   0  0  0  0  0  0  0  0  0  0  0  0
    2.0427   -3.9722   -2.1451 H   0  0  0  0  0  0  0  0  0  0  0  0
    1.3699   -4.7905   -0.6675 H   0  0  0  0  0  0  0  0  0  0  0  0
    3.1165   -4.4107   -0.7858 H   0  0  0  0  0  0  0  0  0  0  0  0
    2.5499   -0.3198   -0.4472 C   0  0  0  0  0  0  0  0  0  0  0  0
   -2.2925    3.2044   -0.9044 C   0  0  0  0  0  0  0  0  0  0  0  0
   -3.1381    4.2396   -1.3541 C   0  0  0  0  0  0  0  0  0  0  0  0
   -3.9925    4.0018   -2.0086 H   0  0  0  0  0  0  0  0  0  0  0  0
   -2.8978    5.5632   -0.9673 C   0  0  0  0  0  0  0  0  0  0  0  0
   -3.5672    6.3613   -1.3220 H   0  0  0  0  0  0  0  0  0  0  0  0
   -1.8112    5.8665   -0.1322 C   0  0  0  0  0  0  0  0  0  0  0  0
   -1.6220    6.9056    0.1753 H   0  0  0  0  0  0  0  0  0  0  0  0
   -0.9756    4.8310    0.3142 C   0  0  0  0  0  0  0  0  0  0  0  0
   -0.1301    5.0551    0.9818 H   0  0  0  0  0  0  0  0  0  0  0  0
   -1.2019    3.5004   -0.0607 C   0  0  0  0  0  0  0  0  0  0  0  0
   -0.5541    2.6935    0.3006 H   0  0  0  0  0  0  0  0  0  0  0  0
    4.7414    0.8876   -0.3777 C   0  0  0  0  0  0  0  0  0  0  0  0
    6.0429    0.8824   -0.9250 C   0  0  0  0  0  0  0  0  0  0  0  0
    6.3159    0.1222   -1.6747 H   0  0  0  0  0  0  0  0  0  0  0  0
    6.9836    1.8352   -0.5177 C   0  0  0  0  0  0  0  0  0  0  0  0
    7.9938    1.8182   -0.9536 H   0  0  0  0  0  0  0  0  0  0  0  0
    6.6407    2.8031    0.4398 C   0  0  0  0  0  0  0  0  0  0  0  0
    7.3794    3.5519    0.7612 H   0  0  0  0  0  0  0  0  0  0  0  0
    5.3458    2.8050    0.9808 C   0  0  0  0  0  0  0  0  0  0  0  0
    5.0646    3.5595    1.7311 H   0  0  0  0  0  0  0  0  0  0  0  0
    4.3897    1.8599    0.5830 C   0  0  0  0  0  0  0  0  0  0  0  0
    3.3759    1.8652    1.0003 H   0  0  0  0  0  0  0  0  0  0  0  0
  4 20  1  0  0  0  0
  4 11  1  0  0  0  0
  4  3  1  0  0  0  0
  5 27  1  0  0  0  0
  6  5  1  0  0  0  0
  6 36  1  0  0  0  0
  6 27  1  0  0  0  0
  7 20  1  0  0  0  0
  7 37  1  0  0  0  0
  8  7  1  0  0  0  0
  9 36  1  0  0  0  0
  9 48  1  0  0  0  0
 10  9  1  0  0  0  0
 11  3  1  0  0  0  0
 11 12  1  0  0  0  0
 12 14  1  0  0  0  0
 12 13  1  0  0  0  0
 15 12  1  0  0  0  0
 16 19  1  0  0  0  0
 16 11  1  0  0  0  0
 17 16  1  0  0  0  0
 18 16  1  0  0  0  0
 20  1  1  6  0  0  0
 21 22  1  0  0  0  0
 21  3  1  0  0  0  0
 23 21  1  0  0  0  0
 24 21  1  0  0  0  0
 24  5  1  0  0  0  0
 25 24  1  0  0  0  0
 26 24  1  0  0  0  0
 27 28  1  0  0  0  0
 28 30  1  0  0  0  0
 28 31  1  0  0  0  0
 28 29  1  0  0  0  0
 32 35  1  0  0  0  0
 32 34  1  0  0  0  0
 32 27  1  0  0  0  0
 33 32  1  0  0  0  0
 36  2  2  0  0  0  0
 37 46  1  0  0  0  0
 38 40  1  0  0  0  0
 38 37  2  0  0  0  0
 39 38  1  0  0  0  0
 40 42  2  0  0  0  0
 41 40  1  0  0  0  0
 42 43  1  0  0  0  0
 42 44  1  0  0  0  0
 44 45  1  0  0  0  0
 46 47  1  0  0  0  0
 46 44  2  0  0  0  0
 48 57  1  0  0  0  0
 49 51  1  0  0  0  0
 49 48  2  0  0  0  0
 50 49  1  0  0  0  0
 51 53  2  0  0  0  0
 52 51  1  0  0  0  0
 53 54  1  0  0  0  0
 53 55  1  0  0  0  0
 55 56  1  0  0  0  0
 57 55  2  0  0  0  0
 57 58  1  0  0  0  0
M  END
