3,4
q = -1.0, confidence = 0.0

 24 24  0  0  1  0  0  0  0  0999 V2000
   -3.6789   -2.7876   -1.0562 Cl  0  0  0  0  0  0  0  0  0  0  0  0
   -7.1814    1.0502    0.5237 Cl  0  0  0  0  0  0  0  0  0  0  0  0
   -1.6432   -0.7490   -0.4612 O   0  0  0  0  0  1  0  0  0  0  0  0
   -0.7896    1.7328    0.3013 N   0  0  0  0  0  2  0  0  0  0  0  0
   -3.1418    1.0084    0.2342 C   0  0  0  0  0  0  0  0  0  0  0  0
   -2.8449   -0.3155   -0.2315 C   0  0  1  0  0  3  0  0  0  0  0  0
   -3.9729   -1.1736   -0.4667 C   0  0  0  0  0  0  0  0  0  0  0  0
   -5.2817   -0.7592   -0.2348 C   0  0  0  0  0  0  0  0  0  0  0  0
   -6.1138   -1.4516   -0.4192 H   0  0  0  0  0  0  0  0  0  0  0  0
   -5.5332    0.5494    0.2367 C   0  0  0  0  0  0  0  0  0  0  0  0
   -4.4790    1.4264    0.4627 C   0  0  0  0  0  0  0  0  0  0  0  0
   -4.6782    2.4487    0.8150 H   0  0  0  0  0  0  0  0  0  0  0  0
   -2.0764    1.9540    0.4054 C   0  0  0  0  0  0  0  0  0  0  0  0
   -2.3918    2.9934    0.6251 H   0  0  0  0  0  0  0  0  0  0  0  0
    0.0771    2.9195    0.3590 C   0  0  0  0  0  0  0  0  0  0  0  0
   -0.5165    3.7698    0.7615 H   0  0  0  0  0  0  0  0  0  0  0  0
    0.9151    2.7133    1.0472 H   0  0  0  0  0  0  0  0  0  0  0  0
    0.6361    3.2831   -1.0230 C   0  0  0  0  0  0  0  0  0  0  0  0
    1.2479    2.4309   -1.3831 H   0  0  0  0  0  0  0  0  0  0  0  0
    1.3461    4.1245   -0.8765 H   0  0  0  0  0  0  0  0  0  0  0  0
   -0.4301    3.6495   -2.0534 C   0  0  0  0  0  0  0  0  0  0  0  0
   -1.0525    4.5045   -1.7136 H   0  0  0  0  0  0  0  0  0  0  0  0
    0.0294    3.9374   -3.0200 H   0  0  0  0  0  0  0  0  0  0  0  0
   -1.1130    2.7986   -2.2545 H   0  0  0  0  0  0  0  0  0  0  0  0
  1  7  1  0  0  0  0
  4 15  1  0  0  0  0
  4 13  1  0  0  0  0
  5 13  2  0  0  0  0
  5 11  1  0  0  0  0
  6  3  1  6  0  0  0
  6  5  1  0  0  0  0
  7  8  2  0  0  0  0
  7  6  1  0  0  0  0
  8 10  1  0  0  0  0
  9  8  1  0  0  0  0
 10 11  2  0  0  0  0
 10  2  1  0  0  0  0
 11 12  1  0  0  0  0
 13 14  1  0  0  0  0
 15 16  1  0  0  0  0
 15 17  1  0  0  0  0
 18 20  1  0  0  0  0
 18 15  1  0  0  0  0
 19 18  1  0  0  0  0
 21 22  1  0  0  0  0
 21 18  1  0  0  0  0
 23 21  1  0  0  0  0
 24 21  1  0  0  0  0
M  END
