3,4
q = -1.0, confidence = 0.004

 28 29  0  0  0  0  0  0  0  0999 V2000
    4.1583    2.3140    0.8097 Br  0  0  0  0  0  0  0  0  0  0  0  0
    7.1498   -2.4189   -0.2720 Br  0  0  0  0  0  0  0  0  0  0  0  0
    0.6083   -1.9539   -0.1423 N   0  0  0  0  0  2  0  0  0  0  0  0
    1.8338    0.4070    0.4673 O   0  5  0  0  0  0  0  0  0  0  0  0
    2.9494   -0.2322    0.2759 C   0  0  0  0  0  0  0  0  0  0  0  0
    4.2006    0.4601    0.4112 C   0  0  0  0  0  0  0  0  0  0  0  0
    5.4264   -0.1793    0.2433 C   0  0  0  0  0  0  0  0  0  0  0  0
    6.3583    0.3932    0.3447 H   0  0  0  0  0  0  0  0  0  0  0  0
    5.4647   -1.5608   -0.0536 C   0  0  0  0  0  0  0  0  0  0  0  0
    4.2853   -2.2840   -0.1806 C   0  0  0  0  0  3  0  0  0  0  0  0
    4.3133   -3.3606   -0.4028 H   0  0  0  0  0  0  0  0  0  0  0  0
    3.0307   -1.6358   -0.0302 C   0  0  0  0  0  0  0  0  0  0  0  0
    1.8303   -2.4188   -0.1105 C   0  0  0  0  0  0  0  0  0  0  0  0
    1.9597   -3.5197   -0.1227 H   0  0  0  0  0  0  0  0  0  0  0  0
   -0.4980   -2.9136   -0.0853 C   0  0  0  0  0  0  0  0  0  0  0  0
   -0.0820   -3.9438   -0.0125 H   0  0  0  0  0  0  0  0  0  0  0  0
   -1.0770   -2.8449   -1.0276 H   0  0  0  0  0  0  0  0  0  0  0  0
   -1.4325   -2.6322    1.0788 C   0  0  0  0  0  0  0  0  0  0  0  0
   -0.9780   -1.9881    2.2466 C   0  0  0  0  0  0  0  0  0  0  0  0
    0.0808   -1.7016    2.3376 H   0  0  0  0  0  0  0  0  0  0  0  0
   -1.8699   -1.6865    3.2874 C   0  0  0  0  0  0  0  0  0  0  0  0
   -1.5005   -1.1729    4.1882 H   0  0  0  0  0  0  0  0  0  0  0  0
   -3.2260   -2.0322    3.1796 C   0  0  0  0  0  0  0  0  0  0  0  0
   -3.9280   -1.7837    3.9897 H   0  0  0  0  0  0  0  0  0  0  0  0
   -3.6818   -2.6927    2.0284 C   0  0  0  0  0  0  0  0  0  0  0  0
   -4.7445   -2.9607    1.9292 H   0  0  0  0  0  0  0  0  0  0  0  0
   -2.7905   -2.9905    0.9870 C   0  0  0  0  0  0  0  0  0  0  0  0
   -3.1605   -3.4783    0.0721 H   0  0  0  0  0  0  0  0  0  0  0  0
  2  9  1  0  0  0  0
  3 13  1  0  0  0  0
  3 15  1  0  0  0  0
  5  6  2  0  0  0  0
  5  4  1  0  0  0  0
  6  1  1  0  0  0  0
  7  8  1  0  0  0  0
  7  6  1  0  0  0  0
  9  7  2  0  0  0  0
 10  9  1  0  0  0  0
 10 12  1  0  0  0  0
 11 10  1  0  0  0  0
 12  5  1  0  0  0  0
 13 12  2  0  0  0  0
 14 13  1  0  0  0  0
 15 16  1  0  0  0  0
 15 18  1  0  0  0  0
 17 15  1  0  0  0  0
 18 19  1  0  0  0  0
 19 20  1  0  0  0  0
 19 21  2  0  0  0  0
 21 22  1  0  0  0  0
 23 21  1  0  0  0  0
 23 24  1  0  0  0  0
 25 23  2  0  0  0  0
 26 25  1  0  0  0  0
 27 18  2  0  0  0  0
 27 25  1  0  0  0  0
 28 27  1  0  0  0  0
M  CHG  1   4  -1
M  END
