1,3
q = -1.0, confidence = 0.024

 30 30  0  0  0  0  0  0  0  0999 V2000
   -0.4903    0.9304    0.7900 N   0  0  0  0  0  2  0  0  0  0  0  0
    1.6231    2.2277    0.6490 C   0  0  0  0  0  0  0  0  0  0  0  0
    1.7624    0.4938   -1.0462 O   0  5  0  0  0  0  0  0  0  0  0  0
    2.2697    1.5294   -0.4375 C   0  0  0  0  0  0  0  0  0  0  0  0
    0.3267    1.8846    1.1650 C   0  0  0  0  0  3  0  0  0  0  0  0
   -0.0200    2.5338    1.9976 H   0  0  0  0  0  0  0  0  0  0  0  0
   -1.7858    0.8853    1.4819 C   0  0  0  0  0  0  0  0  0  0  0  0
   -1.7141    1.4484    2.4405 H   0  0  0  0  0  0  0  0  0  0  0  0
   -2.0063   -0.1690    1.7411 H   0  0  0  0  0  0  0  0  0  0  0  0
    3.5398    3.7612    0.8406 C   0  0  0  0  0  0  0  0  0  0  0  0
    4.0307    4.6167    1.3261 H   0  0  0  0  0  0  0  0  0  0  0  0
    4.1710    3.0798   -0.2293 C   0  0  0  0  0  0  0  0  0  0  0  0
    5.1620    3.4111   -0.5779 H   0  0  0  0  0  0  0  0  0  0  0  0
   -2.9274    1.4640    0.6401 C   0  0  0  0  0  0  0  0  0  0  0  0
   -3.0104    0.8904   -0.3069 H   0  0  0  0  0  0  0  0  0  0  0  0
   -2.6540    2.5015    0.3496 H   0  0  0  0  0  0  0  0  0  0  0  0
    3.5560    1.9992   -0.8500 C   0  0  0  0  0  0  0  0  0  0  0  0
    4.0350    1.4675   -1.6854 H   0  0  0  0  0  0  0  0  0  0  0  0
    2.2879    3.3317    1.2596 C   0  0  0  0  0  0  0  0  0  0  0  0
    1.7757    3.8505    2.0867 H   0  0  0  0  0  0  0  0  0  0  0  0
   -4.2959    1.4698    1.3453 C   0  0  0  0  0  0  0  0  0  0  0  0
   -4.1969    2.0755    2.2767 H   0  0  0  0  0  0  0  0  0  0  0  0
   -4.7558    0.0595    1.7427 C   0  0  0  0  0  0  0  0  0  0  0  0
   -5.7787    0.0824    2.1702 H   0  0  0  0  0  0  0  0  0  0  0  0
   -4.0944   -0.4018    2.5038 H   0  0  0  0  0  0  0  0  0  0  0  0
   -4.7664   -0.6173    0.8629 H   0  0  0  0  0  0  0  0  0  0  0  0
   -5.3386    2.1522    0.4508 C   0  0  0  0  0  0  0  0  0  0  0  0
   -6.3232    2.2183    0.9566 H   0  0  0  0  0  0  0  0  0  0  0  0
   -5.4821    1.5805   -0.4904 H   0  0  0  0  0  0  0  0  0  0  0  0
   -5.0282    3.1801    0.1727 H   0  0  0  0  0  0  0  0  0  0  0  0
  1  5  1  0  0  0  0
  1  7  1  0  0  0  0
  2  5  1  0  0  0  0
  2 19  1  0  0  0  0
  3  4  1  0  0  0  0
  4  2  2  0  0  0  0
  5  6  1  0  0  0  0
  7  9  1  0  0  0  0
  7  8  1  0  0  0  0
 10 19  2  0  0  0  0
 10 11  1  0  0  0  0
 12 10  1  0  0  0  0
 13 12  1  0  0  0  0
 14 21  1  0  0  0  0
 14  7  1  0  0  0  0
 15 14  1  0  0  0  0
 16 14  1  0  0  0  0
 17  4  1  0  0  0  0
 17 12  2  0  0  0  0
 18 17  1  0  0  0  0
 19 20  1  0  0  0  0
 21 23  1  0  0  0  0
 21 22  1  0  0  0  0
 23 24  1  0  0  0  0
 23 25  1  0  0  0  0
 26 23  1  0  0  0  0
 27 28  1  0  0  0  0
 27 21  1  0  0  0  0
 29 27  1  0  0  0  0
 30 27  1  0  0  0  0
M  CHG  1   3  -1
M  END
