2,3
q = -1.0, confidence = 0.01

 11 10  0  0  1  0  0  0  0  0999 V2000
    2.5109   -1.2047    0.0000 N   0  0  0  0  0  0  0  0  0  0  0  0
    1.3423    0.6871    0.0000 N   0  0  0  0  0  2  0  0  0  0  0  0
    1.3161   -1.8059    0.0000 O   0  0  0  0  0  1  0  0  0  0  0  0
    1.2555    2.0367   -0.0000 O   0  0  0  0  0  0  0  0  0  0  0  0
    2.5612    0.1443    0.0000 C   0  0  2  0  0  3  0  0  0  0  0  0
    3.8347    0.9174    0.0000 C   0  0  0  0  0  0  0  0  0  0  0  0
    0.2264    2.1849    0.0001 H   0  0  0  0  0  0  0  0  0  0  0  0
    3.3362   -1.8092   -0.0000 H   0  0  0  0  0  0  0  0  0  0  0  0
    4.7152    0.2479   -0.0000 H   0  0  0  0  0  0  0  0  0  0  0  0
    3.8816    1.5764    0.8903 H   0  0  0  0  0  0  0  0  0  0  0  0
    3.8815    1.5764   -0.8903 H   0  0  0  0  0  0  0  0  0  0  0  0
  3  1  1  0  0  0  0
  4  2  1  0  0  0  0
  4  7  1  0  0  0  0
  5  6  1  0  0  0  0
  5  2  1  6  0  0  0
  5  1  1  0  0  0  0
  6 10  1  0  0  0  0
  8  1  1  0  0  0  0
  9  6  1  0  0  0  0
 11  6  1  0  0  0  0
M  END
