2,4
q = -1.0, confidence = 0.018

 25 26  0  0  0  0  0  0  0  0999 V2000
   -5.3623   -1.1644   -0.0183 S   0  0  0  0  0  0  0  0  0  0  0  0
   -0.8130    1.1677    0.0132 O   0  5  0  0  0  0  0  0  0  0  0  0
   -2.8689    0.0780    0.0114 N   0  0  0  0  0  0  0  0  0  0  0  0
   -2.1220   -1.0568    0.0180 N   0  0  0  0  0  2  0  0  0  0  0  0
   -4.1527   -2.4377   -0.0109 C   0  0  0  0  0  0  0  0  0  0  0  0
   -2.1179    1.1734    0.0126 C   0  0  0  0  0  0  0  0  0  0  0  0
   -2.7872    2.4977    0.0189 C   0  0  0  0  0  0  0  0  0  0  0  0
   -6.6427   -2.3285   -0.0383 C   0  0  0  0  0  0  0  0  0  0  0  0
   -7.6866   -1.9892   -0.0481 H   0  0  0  0  0  0  0  0  0  0  0  0
   -4.7633   -3.6994   -0.0230 C   0  0  0  0  0  0  0  0  0  0  0  0
   -4.1784   -4.6298   -0.0202 H   0  0  0  0  0  0  0  0  0  0  0  0
   -2.7377   -2.2183    0.0072 C   0  0  0  0  0  3  0  0  0  0  0  0
   -6.1786   -3.6365   -0.0388 C   0  0  0  0  0  0  0  0  0  0  0  0
   -6.8367   -4.5159   -0.0498 H   0  0  0  0  0  0  0  0  0  0  0  0
   -2.0066    3.6690    0.1228 C   0  0  0  0  0  0  0  0  0  0  0  0
   -0.9147    3.5699    0.2014 H   0  0  0  0  0  0  0  0  0  0  0  0
   -4.8015    3.8648   -0.0702 C   0  0  0  0  0  0  0  0  0  0  0  0
   -5.8968    3.9416   -0.1465 H   0  0  0  0  0  0  0  0  0  0  0  0
   -4.1920    2.6044   -0.0759 C   0  0  0  0  0  0  0  0  0  0  0  0
   -4.7888    1.6853   -0.1558 H   0  0  0  0  0  0  0  0  0  0  0  0
   -4.0205    5.0292    0.0322 C   0  0  0  0  0  0  0  0  0  0  0  0
   -4.5037    6.0184    0.0372 H   0  0  0  0  0  0  0  0  0  0  0  0
   -2.6230    4.9269    0.1297 C   0  0  0  0  0  0  0  0  0  0  0  0
   -2.0080    5.8361    0.2142 H   0  0  0  0  0  0  0  0  0  0  0  0
   -2.0659   -3.0936    0.0149 H   0  0  0  0  0  0  0  0  0  0  0  0
  1  5  1  0  0  0  0
  3  6  2  0  0  0  0
  3  4  1  0  0  0  0
  5 12  1  0  0  0  0
  6  2  1  0  0  0  0
  6  7  1  0  0  0  0
  7 15  1  0  0  0  0
  8  1  1  0  0  0  0
  9  8  1  0  0  0  0
 10 11  1  0  0  0  0
 10  5  2  0  0  0  0
 12 25  1  0  0  0  0
 12  4  1  0  0  0  0
 13  8  2  0  0  0  0
 13 10  1  0  0  0  0
 14 13  1  0  0  0  0
 15 23  2  0  0  0  0
 15 16  1  0  0  0  0
 17 21  2  0  0  0  0
 18 17  1  0  0  0  0
 19 17  1  0  0  0  0
 19  7  2  0  0  0  0
 20 19  1  0  0  0  0
 21 22  1  0  0  0  0
 21 23  1  0  0  0  0
 23 24  1  0  0  0  0
M  CHG  1   2  -1
M  END
