1,3
q = -1.0, confidence = 0.002

 34 35  0  0  0  0  0  0  0  0999 V2000
    1.0580    0.4112    1.1982 N   0  0  0  0  0  2  0  0  0  0  0  0
    1.2608   -2.2651    2.3662 N   0  0  0  0  0  0  0  0  0  0  0  0
    0.2399    0.7723   -1.5141 O   0  5  0  0  0  0  0  0  0  0  0  0
    2.5197   -4.7196    1.7106 O   0  0  0  0  0  0  0  0  0  0  0  0
    5.1082   -2.1824   -3.0667 Cl  0  0  0  0  0  0  0  0  0  0  0  0
    2.2686   -0.3511   -0.8155 C   0  0  0  0  0  0  0  0  0  0  0  0
    1.3060    0.0843   -1.7950 C   0  0  0  0  0  0  0  0  0  0  0  0
    1.5790   -0.2289   -3.1651 C   0  0  0  0  0  0  0  0  0  0  0  0
    0.8386    0.0926   -3.9119 H   0  0  0  0  0  0  0  0  0  0  0  0
    2.7269   -0.9110   -3.5476 C   0  0  0  0  0  0  0  0  0  0  0  0
    2.9134   -1.1431   -4.6063 H   0  0  0  0  0  0  0  0  0  0  0  0
    3.6690   -1.3196   -2.5726 C   0  0  0  0  0  0  0  0  0  0  0  0
    3.4407   -1.0424   -1.2307 C   0  0  0  0  0  0  0  0  0  0  0  0
    4.1677   -1.3720   -0.4734 H   0  0  0  0  0  0  0  0  0  0  0  0
    2.0752   -0.1573    0.5961 C   0  0  0  0  0  3  0  0  0  0  0  0
    2.8827   -0.5515    1.2407 H   0  0  0  0  0  0  0  0  0  0  0  0
    0.9923    0.1875    2.6373 C   0  0  0  0  0  0  0  0  0  0  0  0
    0.3345    0.9461    3.0986 H   0  0  0  0  0  0  0  0  0  0  0  0
    2.0116    0.2643    3.0793 H   0  0  0  0  0  0  0  0  0  0  0  0
    0.4204   -1.2226    2.9197 C   0  0  0  0  0  0  0  0  0  0  0  0
    0.2951   -1.3353    4.0222 H   0  0  0  0  0  0  0  0  0  0  0  0
   -0.5873   -1.2696    2.4643 H   0  0  0  0  0  0  0  0  0  0  0  0
    0.6220   -3.2069    1.4567 C   0  0  0  0  0  0  0  0  0  0  0  0
    0.0552   -2.6298    0.6991 H   0  0  0  0  0  0  0  0  0  0  0  0
   -0.0976   -3.8814    1.9948 H   0  0  0  0  0  0  0  0  0  0  0  0
    1.6826   -4.0619    0.7680 C   0  0  0  0  0  0  0  0  0  0  0  0
    1.2068   -4.8521    0.1539 H   0  0  0  0  0  0  0  0  0  0  0  0
    2.2952   -3.4137    0.0938 H   0  0  0  0  0  0  0  0  0  0  0  0
    3.1743   -3.7759    2.5360 C   0  0  0  0  0  0  0  0  0  0  0  0
    3.8372   -3.1145    1.9206 H   0  0  0  0  0  0  0  0  0  0  0  0
    3.8111   -4.3461    3.2421 H   0  0  0  0  0  0  0  0  0  0  0  0
    2.1739   -2.9054    3.2982 C   0  0  0  0  0  0  0  0  0  0  0  0
    1.6267   -3.5446    4.0423 H   0  0  0  0  0  0  0  0  0  0  0  0
    2.7233   -2.1289    3.8734 H   0  0  0  0  0  0  0  0  0  0  0  0
  1 17  1  0  0  0  0
  2 20  1  0  0  0  0
  2 32  1  0  0  0  0
  4 29  1  0  0  0  0
  5 12  1  0  0  0  0
  6 15  1  0  0  0  0
  7  3  1  0  0  0  0
  7  6  2  0  0  0  0
  8  7  1  0  0  0  0
  9  8  1  0  0  0  0
 10  8  2  0  0  0  0
 10 12  1  0  0  0  0
 11 10  1  0  0  0  0
 12 13  2  0  0  0  0
 13  6  1  0  0  0  0
 13 14  1  0  0  0  0
 15  1  1  0  0  0  0
 15 16  1  0  0  0  0
 17 20  1  0  0  0  0
 17 19  1  0  0  0  0
 17 18  1  0  0  0  0
 20 21  1  0  0  0  0
 22 20  1  0  0  0  0
 23 25  1  0  0  0  0
 23  2  1  0  0  0  0
 24 23  1  0  0  0  0
 26 23  1  0  0  0  0
 26  4  1  0  0  0  0
 27 26  1  0  0  0  0
 28 26  1  0  0  0  0
 29 31  1  0  0  0  0
 29 32  1  0  0  0  0
 30 29  1  0  0  0  0
 32 34  1  0  0  0  0
 32 33  1  0  0  0  0
M  CHG  1   3  -1
M  END
