1,3
q = -1.0, confidence = 0.094

 21 21  0  0  0  0  0  0  0  0999 V2000
    0.9088   -1.5603    0.0460 O   0  5  0  0  0  0  0  0  0  0  0  0
    5.6210   -2.0732   -0.3302 O   0  0  0  0  0  0  0  0  0  0  0  0
    1.1598    1.0530    0.2640 N   0  0  0  0  0  2  0  0  0  0  0  0
    5.9841    0.4728   -0.1122 N   0  0  0  0  0  0  0  0  0  0  0  0
    2.1238   -1.1200   -0.0238 C   0  0  0  0  0  0  0  0  0  0  0  0
    2.2985    0.3682    0.1121 C   0  0  0  0  0  0  0  0  0  0  0  0
    3.6041    0.9366    0.1027 C   0  0  0  0  0  0  0  0  0  0  0  0
    4.7015    0.0960   -0.0545 C   0  0  0  0  0  0  0  0  0  0  0  0
    4.5631   -1.4223   -0.2016 C   0  0  0  0  0  0  0  0  0  0  0  0
    3.2375   -1.9466   -0.1755 C   0  0  0  0  0  3  0  0  0  0  0  0
    1.2373    2.4633    0.5989 C   0  0  0  0  0  0  0  0  0  0  0  0
    2.0716    2.6613    1.3032 H   0  0  0  0  0  0  0  0  0  0  0  0
    0.2970    2.7781    1.0815 H   0  0  0  0  0  0  0  0  0  0  0  0
    1.3957    3.0896   -0.3075 H   0  0  0  0  0  0  0  0  0  0  0  0
    6.4728    1.8205   -0.0102 C   0  0  0  0  0  0  0  0  0  0  0  0
    6.0797    2.4611   -0.8314 H   0  0  0  0  0  0  0  0  0  0  0  0
    7.5767    1.8232   -0.0670 H   0  0  0  0  0  0  0  0  0  0  0  0
    6.1710    2.2907    0.9525 H   0  0  0  0  0  0  0  0  0  0  0  0
    6.5997   -0.3531   -0.2381 H   0  0  0  0  0  0  0  0  0  0  0  0
    3.7418    2.0225    0.1730 H   0  0  0  0  0  0  0  0  0  0  0  0
    3.0969   -3.0322   -0.2621 H   0  0  0  0  0  0  0  0  0  0  0  0
  2  9  2  0  0  0  0
  3 11  1  0  0  0  0
  4  8  1  0  0  0  0
  4 15  1  0  0  0  0
  5  1  1  0  0  0  0
  5  6  2  0  0  0  0
  6  3  1  0  0  0  0
  7  6  1  0  0  0  0
  7 20  1  0  0  0  0
  8  7  2  0  0  0  0
  9 10  1  0  0  0  0
  9  8  1  0  0  0  0
 10  5  1  0  0  0  0
 11 13  1  0  0  0  0
 11 12  1  0  0  0  0
 14 11  1  0  0  0  0
 15 18  1  0  0  0  0
 16 15  1  0  0  0  0
 17 15  1  0  0  0  0
 19  4  1  0  0  0  0
 21 10  1  0  0  0  0
M  CHG  1   1  -1
M  END
