1,3
q = -1.0, confidence = 0.03

 24 24  0  0  0  0  0  0  0  0999 V2000
    1.9060   -0.2205    0.6062 O   0  5  0  0  0  0  0  0  0  0  0  0
    2.3428    0.5057   -1.5407 N   0  0  0  0  0  0  0  0  0  0  0  0
    1.0936    1.0672   -1.3929 N   0  0  0  0  0  2  0  0  0  0  0  0
    4.3716   -1.5100    0.7965 C   0  0  0  0  0  0  0  0  0  0  0  0
    3.6853   -1.4905    1.6552 H   0  0  0  0  0  0  0  0  0  0  0  0
    5.6043   -2.1728    0.8645 C   0  0  0  0  0  0  0  0  0  0  0  0
    5.8990   -2.6888    1.7912 H   0  0  0  0  0  0  0  0  0  0  0  0
    6.4629   -2.1799   -0.2470 C   0  0  0  0  0  0  0  0  0  0  0  0
    7.4306   -2.7021   -0.1940 H   0  0  0  0  0  0  0  0  0  0  0  0
    6.0822   -1.5193   -1.4284 C   0  0  0  0  0  0  0  0  0  0  0  0
    6.7523   -1.5251   -2.3018 H   0  0  0  0  0  0  0  0  0  0  0  0
    4.8520   -0.8550   -1.5001 C   0  0  0  0  0  0  0  0  0  0  0  0
    4.5332   -0.3346   -2.4141 H   0  0  0  0  0  0  0  0  0  0  0  0
    3.9848   -0.8458   -0.3864 C   0  0  0  0  0  0  0  0  0  0  0  0
    2.6730   -0.1549   -0.4447 C   0  0  0  0  0  0  0  0  0  0  0  0
    0.7373    1.9346   -2.3136 C   0  0  0  0  0  3  0  0  0  0  0  0
    1.6640    2.2160   -3.4624 C   0  0  0  0  0  0  0  0  0  0  0  0
    2.6089    2.6719   -3.0981 H   0  0  0  0  0  0  0  0  0  0  0  0
    1.1908    2.8950   -4.1963 H   0  0  0  0  0  0  0  0  0  0  0  0
    1.9663    1.2711   -3.9569 H   0  0  0  0  0  0  0  0  0  0  0  0
   -0.5331    2.7149   -2.2183 C   0  0  0  0  0  0  0  0  0  0  0  0
   -1.1342    2.4424   -1.3372 H   0  0  0  0  0  0  0  0  0  0  0  0
   -1.1515    2.5617   -3.1293 H   0  0  0  0  0  0  0  0  0  0  0  0
   -0.2898    3.8000   -2.1863 H   0  0  0  0  0  0  0  0  0  0  0  0
  2  3  1  0  0  0  0
  2 15  2  0  0  0  0
  4  6  1  0  0  0  0
  4  5  1  0  0  0  0
  6  7  1  0  0  0  0
  8  9  1  0  0  0  0
  8  6  2  0  0  0  0
 10  8  1  0  0  0  0
 11 10  1  0  0  0  0
 12 10  2  0  0  0  0
 12 14  1  0  0  0  0
 13 12  1  0  0  0  0
 14  4  2  0  0  0  0
 15 14  1  0  0  0  0
 15  1  1  0  0  0  0
 16 21  1  0  0  0  0
 16  3  1  0  0  0  0
 17 18  1  0  0  0  0
 17 16  1  0  0  0  0
 19 17  1  0  0  0  0
 20 17  1  0  0  0  0
 21 24  1  0  0  0  0
 21 22  1  0  0  0  0
 23 21  1  0  0  0  0
M  CHG  1   1  -1
M  END
