1,27
q = -1.0, confidence = 0.106

 27 27  0  0  0  0  0  0  0  0999 V2000
    1.7712   -0.3061   -0.1559 N   0  0  0  0  0  2  0  0  0  0  0  0
    2.5876   -0.5424    1.0740 C   0  0  0  0  0  0  0  0  0  0  0  0
    2.8925    0.7759    1.7914 C   0  0  0  0  0  0  0  0  0  0  0  0
    3.1921    1.5688    1.0816 H   0  0  0  0  0  0  0  0  0  0  0  0
    3.7013    0.6363    2.5368 H   0  0  0  0  0  0  0  0  0  0  0  0
    1.9998    1.1236    2.3426 H   0  0  0  0  0  0  0  0  0  0  0  0
    1.8560   -1.4980    2.0325 C   0  0  0  0  0  0  0  0  0  0  0  0
    0.8985   -1.0416    2.3431 H   0  0  0  0  0  0  0  0  0  0  0  0
    2.4650   -1.6776    2.9401 H   0  0  0  0  0  0  0  0  0  0  0  0
    1.6252   -2.4694    1.5566 H   0  0  0  0  0  0  0  0  0  0  0  0
    3.8981   -1.2157    0.4548 C   0  0  0  0  0  0  0  0  0  0  0  0
    3.9659   -2.6757   -1.5346 O   0  0  0  0  0  1  0  0  0  0  0  0
    4.6015   -2.2545    1.3165 C   0  0  0  0  0  0  0  0  0  0  0  0
    3.9209   -3.0670    1.6293 H   0  0  0  0  0  0  0  0  0  0  0  0
    5.0297   -1.7788    2.2205 H   0  0  0  0  0  0  0  0  0  0  0  0
    5.4262   -2.7068    0.7327 H   0  0  0  0  0  0  0  0  0  0  0  0
    4.8969   -0.1814   -0.0901 C   0  0  0  0  0  0  0  0  0  0  0  0
    5.6221   -0.7052   -0.7432 H   0  0  0  0  0  0  0  0  0  0  0  0
    5.4503    0.3086    0.7330 H   0  0  0  0  0  0  0  0  0  0  0  0
    4.3829    0.5987   -0.6850 H   0  0  0  0  0  0  0  0  0  0  0  0
    3.3071   -1.8795   -0.7697 N   0  0  0  0  0  0  0  0  0  0  0  0
    2.1568   -1.2489   -1.0416 C   0  0  0  0  0  0  0  0  0  0  0  0
    1.3281   -1.4876   -2.2154 C   0  0  0  0  0  0  0  0  0  0  0  0
    1.8242   -2.2796   -3.1684 N   0  0  0  0  0  0  0  0  0  0  0  0
    1.2697   -2.5185   -3.9911 H   0  0  0  0  0  0  0  0  0  0  0  0
    2.7632   -2.6835   -2.9439 H   0  0  0  0  0  0  0  0  0  0  0  0
    0.1896   -0.9198   -2.2359 O   0  5  0  0  0  0  0  0  0  0  0  0
  1  2  1  0  0  0  0
  2  3  1  0  0  0  0
  2  7  1  0  0  0  0
  3  6  1  0  0  0  0
  3  5  1  0  0  0  0
  4  3  1  0  0  0  0
  7  8  1  0  0  0  0
  7  9  1  0  0  0  0
 10  7  1  0  0  0  0
 11  2  1  0  0  0  0
 11 13  1  0  0  0  0
 12 21  1  0  0  0  0
 13 14  1  0  0  0  0
 13 15  1  0  0  0  0
 16 13  1  0  0  0  0
 17 11  1  0  0  0  0
 17 19  1  0  0  0  0
 18 17  1  0  0  0  0
 20 17  1  0  0  0  0
 21 11  1  0  0  0  0
 22 21  1  0  0  0  0
 22  1  1  0  0  0  0
 23 22  2  0  0  0  0
 24 26  1  0  0  0  0
 24 23  1  0  0  0  0
 25 24  1  0  0  0  0
 27 23  1  0  0  0  0
M  CHG  1  27  -1
M  END
