1,13
q = -1.0, confidence = 0.008

 32 32  0  0  0  0  0  0  0  0999 V2000
    0.8700   -0.3467   -1.4573 O   0  5  0  0  0  0  0  0  0  0  0  0
    2.0027   -0.9858   -1.3856 C   0  0  0  0  0  0  0  0  0  0  0  0
    2.3596   -1.8939   -2.4334 C   0  0  0  0  0  0  0  0  0  0  0  0
    1.6408   -2.0050   -3.2595 H   0  0  0  0  0  0  0  0  0  0  0  0
    3.5536   -2.5981   -2.4097 C   0  0  0  0  0  0  0  0  0  0  0  0
    3.8022   -3.2918   -3.2306 H   0  0  0  0  0  0  0  0  0  0  0  0
    4.4704   -2.4425   -1.3372 C   0  0  0  0  0  0  0  0  0  0  0  0
    4.1414   -1.5583   -0.3010 C   0  0  0  0  0  0  0  0  0  0  0  0
    4.8658   -1.4507    0.5235 H   0  0  0  0  0  0  0  0  0  0  0  0
    2.9391   -0.8202   -0.2867 C   0  0  0  0  0  0  0  0  0  0  0  0
    2.7476    0.0643    0.8473 C   0  0  0  0  0  3  0  0  0  0  0  0
    3.5792    0.0218    1.5779 H   0  0  0  0  0  0  0  0  0  0  0  0
    1.7554    0.8767    1.0641 N   0  0  0  0  0  2  0  0  0  0  0  0
    1.6991    1.6647    2.2959 C   0  0  0  0  0  0  0  0  0  0  0  0
    0.8217    2.8992    1.9913 C   0  0  0  0  0  0  0  0  0  0  0  0
    0.6706    3.4883    2.9239 H   0  0  0  0  0  0  0  0  0  0  0  0
    1.3346    3.5379    1.2477 H   0  0  0  0  0  0  0  0  0  0  0  0
   -0.4332    2.5392    1.4119 O   0  0  0  0  0  0  0  0  0  0  0  0
   -0.9248    1.9807    2.0514 H   0  0  0  0  0  0  0  0  0  0  0  0
    3.0744    2.1269    2.7960 C   0  0  0  0  0  0  0  0  0  0  0  0
    2.8975    2.7842    3.6838 H   0  0  0  0  0  0  0  0  0  0  0  0
    3.6391    1.2402    3.1760 H   0  0  0  0  0  0  0  0  0  0  0  0
    3.7484    2.7980    1.7529 O   0  0  0  0  0  0  0  0  0  0  0  0
    4.6388    3.0322    2.0681 H   0  0  0  0  0  0  0  0  0  0  0  0
    1.0208    0.8036    3.4472 C   0  0  0  0  0  0  0  0  0  0  0  0
    1.5086    1.0842    4.4068 H   0  0  0  0  0  0  0  0  0  0  0  0
   -0.0490    1.1169    3.5410 H   0  0  0  0  0  0  0  0  0  0  0  0
    1.1304   -0.5720    3.2794 O   0  0  0  0  0  0  0  0  0  0  0  0
    0.4488   -0.7808    2.5837 H   0  0  0  0  0  0  0  0  0  0  0  0
    5.7442   -3.1837   -1.3035 C   0  0  0  0  0  0  0  0  0  0  0  0
    5.8988   -3.8721   -2.1912 H   0  0  0  0  0  0  0  0  0  0  0  0
    6.5874   -3.0954   -0.4213 O   0  0  0  0  0  0  0  0  0  0  0  0
  1  2  1  0  0  0  0
  2 10  1  0  0  0  0
  3  5  1  0  0  0  0
  3  2  2  0  0  0  0
  4  3  1  0  0  0  0
  5  7  2  0  0  0  0
  6  5  1  0  0  0  0
  7 30  1  0  0  0  0
  7  8  1  0  0  0  0
  8 10  2  0  0  0  0
  8  9  1  0  0  0  0
 10 11  1  0  0  0  0
 11 13  1  0  0  0  0
 11 12  1  0  0  0  0
 13 14  1  0  0  0  0
 14 20  1  0  0  0  0
 14 25  1  0  0  0  0
 15 14  1  0  0  0  0
 15 16  1  0  0  0  0
 17 15  1  0  0  0  0
 18 15  1  0  0  0  0
 18 19  1  0  0  0  0
 20 22  1  0  0  0  0
 20 21  1  0  0  0  0
 23 24  1  0  0  0  0
 23 20  1  0  0  0  0
 25 27  1  0  0  0  0
 25 26  1  0  0  0  0
 28 25  1  0  0  0  0
 29 28  1  0  0  0  0
 30 32  2  0  0  0  0
 31 30  1  0  0  0  0
M  CHG  1   1  -1
M  END
