3,4
q = -1.0, confidence = 0.004

 30 32  0  0  1  0  0  0  0  0999 V2000
   -3.7766   -1.4326   -0.6105 O   0  0  0  0  0  0  0  0  0  0  0  0
   -3.9411    0.7727   -0.8684 O   0  0  0  0  0  0  0  0  0  0  0  0
    0.3190   -1.2836   -0.1503 O   0  5  0  0  0  0  0  0  0  0  0  0
    0.0883    1.4792   -0.0267 N   0  0  0  0  0  2  0  0  0  0  0  0
    0.3021    2.4341    0.2858 H   0  0  0  0  0  0  0  0  0  0  0  0
   -3.0517   -2.5647   -0.4293 C   0  0  0  0  0  0  0  0  0  0  0  0
   -1.6495   -2.5373   -0.2597 C   0  0  0  0  0  0  0  0  0  0  0  0
   -1.9343    3.6257   -0.2799 C   0  0  0  0  0  0  0  0  0  0  0  0
   -1.2782    3.6965   -1.1612 H   0  0  0  0  0  0  0  0  0  0  0  0
   -3.1952   -0.1482   -0.6073 C   0  0  0  0  0  0  0  0  0  0  0  0
   -2.0695    2.3883    0.3815 C   0  0  0  0  0  0  0  0  0  0  0  0
   -0.9597   -1.2421   -0.2467 C   0  0  0  0  0  0  0  0  0  0  0  0
   -2.9375    2.2859    1.4881 C   0  0  0  0  0  0  0  0  0  0  0  0
   -3.0426    1.3200    2.0046 H   0  0  0  0  0  0  0  0  0  0  0  0
   -1.7657   -0.0671   -0.2918 C   0  0  0  0  0  0  0  0  0  0  0  0
   -1.6400   -4.9729   -0.1188 C   0  0  0  0  0  0  0  0  0  0  0  0
   -1.0916   -5.9193   -0.0034 H   0  0  0  0  0  0  0  0  0  0  0  0
   -3.7487   -3.7879   -0.4389 C   0  0  0  0  0  0  0  0  0  0  0  0
   -4.8387   -3.7687   -0.5775 H   0  0  0  0  0  0  0  0  0  0  0  0
   -0.9532   -3.7583   -0.1156 C   0  0  0  0  0  0  0  0  0  0  0  0
    0.1395   -3.7131   -0.0062 H   0  0  0  0  0  0  0  0  0  0  0  0
   -3.0417   -4.9828   -0.2799 C   0  0  0  0  0  0  0  0  0  0  0  0
   -3.5876   -5.9385   -0.2873 H   0  0  0  0  0  0  0  0  0  0  0  0
   -3.6546    3.4049    1.9252 C   0  0  0  0  0  0  0  0  0  0  0  0
   -4.3265    3.3173    2.7924 H   0  0  0  0  0  0  0  0  0  0  0  0
   -1.2076    1.2373   -0.0256 C   0  0  2  0  0  3  0  0  0  0  0  0
   -2.6660    4.7416    0.1528 C   0  0  0  0  0  0  0  0  0  0  0  0
   -2.5708    5.6981   -0.3830 H   0  0  0  0  0  0  0  0  0  0  0  0
   -3.5242    4.6349    1.2572 C   0  0  0  0  0  0  0  0  0  0  0  0
   -4.0983    5.5102    1.5971 H   0  0  0  0  0  0  0  0  0  0  0  0
  1 10  1  0  0  0  0
  1  6  1  0  0  0  0
  2 10  2  0  0  0  0
  4  5  1  0  0  0  0
  6  7  1  0  0  0  0
  7 12  1  0  0  0  0
  7 20  2  0  0  0  0
  8 27  2  0  0  0  0
  8 11  1  0  0  0  0
  9  8  1  0  0  0  0
 10 15  1  0  0  0  0
 11 13  2  0  0  0  0
 12  3  1  0  0  0  0
 13 24  1  0  0  0  0
 13 14  1  0  0  0  0
 15 12  2  0  0  0  0
 15 26  1  0  0  0  0
 16 20  1  0  0  0  0
 16 17  1  0  0  0  0
 18  6  2  0  0  0  0
 18 22  1  0  0  0  0
 19 18  1  0  0  0  0
 20 21  1  0  0  0  0
 22 16  2  0  0  0  0
 23 22  1  0  0  0  0
 24 25  1  0  0  0  0
 26  4  1  1  0  0  0
 26 11  1  0  0  0  0
 27 29  1  0  0  0  0
 28 27  1  0  0  0  0
 29 30  1  0  0  0  0
 29 24  2  0  0  0  0
M  CHG  1   3  -1
M  END
