1,2
q = -1.0, confidence = 0.0

 32 33  0  0  0  0  0  0  0  0999 V2000
   -0.6323   -1.9335   -0.0001 N   0  0  0  0  0  2  0  0  0  0  0  0
    1.9260   -0.5491    0.0009 O   0  5  0  0  0  0  0  0  0  0  0  0
    0.1749   -2.9707   -0.0004 C   0  0  0  0  0  0  0  0  0  0  0  0
   -0.3110   -3.9666   -0.0006 H   0  0  0  0  0  0  0  0  0  0  0  0
    1.6054   -2.9801   -0.0003 C   0  0  0  0  0  0  0  0  0  0  0  0
    2.3806   -1.7784    0.0003 C   0  0  0  0  0  0  0  0  0  0  0  0
    3.8186   -1.8827    0.0004 C   0  0  0  0  0  0  0  0  0  0  0  0
    4.4340   -3.1318   -0.0002 C   0  0  0  0  0  0  0  0  0  0  0  0
    5.5334   -3.1708   -0.0001 H   0  0  0  0  0  0  0  0  0  0  0  0
    3.6579   -4.3189   -0.0008 C   0  0  0  0  0  0  0  0  0  0  0  0
    4.1634   -5.2955   -0.0012 H   0  0  0  0  0  0  0  0  0  0  0  0
    2.2741   -4.2475   -0.0008 C   0  0  0  0  0  3  0  0  0  0  0  0
    1.6640   -5.1635   -0.0013 H   0  0  0  0  0  0  0  0  0  0  0  0
   -2.0413   -2.1845    0.0001 C   0  0  0  0  0  0  0  0  0  0  0  0
   -2.7201   -2.2705    1.2390 C   0  0  0  0  0  0  0  0  0  0  0  0
   -4.1100   -2.4932    1.2149 C   0  0  0  0  0  0  0  0  0  0  0  0
   -4.6554   -2.5599    2.1688 H   0  0  0  0  0  0  0  0  0  0  0  0
   -4.8009   -2.6113    0.0007 C   0  0  0  0  0  0  0  0  0  0  0  0
   -5.8888   -2.7736    0.0010 H   0  0  0  0  0  0  0  0  0  0  0  0
   -4.1106   -2.4931   -1.2137 C   0  0  0  0  0  0  0  0  0  0  0  0
   -4.6564   -2.5596   -2.1674 H   0  0  0  0  0  0  0  0  0  0  0  0
   -2.7207   -2.2703   -1.2385 C   0  0  0  0  0  0  0  0  0  0  0  0
   -1.9710   -2.0889    2.5315 C   0  0  0  0  0  0  0  0  0  0  0  0
   -2.6511   -2.1579    3.4011 H   0  0  0  0  0  0  0  0  0  0  0  0
   -1.1696   -2.8457    2.6584 H   0  0  0  0  0  0  0  0  0  0  0  0
   -1.4704   -1.0972    2.5530 H   0  0  0  0  0  0  0  0  0  0  0  0
   -1.9722   -2.0884   -2.5313 C   0  0  0  0  0  0  0  0  0  0  0  0
   -2.6526   -2.1576   -3.4005 H   0  0  0  0  0  0  0  0  0  0  0  0
   -1.4721   -1.0965   -2.5529 H   0  0  0  0  0  0  0  0  0  0  0  0
   -1.1705   -2.8448   -2.6585 H   0  0  0  0  0  0  0  0  0  0  0  0
    4.5315   -0.7359    0.0010 O   0  0  0  0  0  0  0  0  0  0  0  0
    3.8675   -0.0063    0.0012 H   0  0  0  0  0  0  0  0  0  0  0  0
  1 14  1  0  0  0  0
  3  5  2  0  0  0  0
  3  1  1  0  0  0  0
  4  3  1  0  0  0  0
  5  6  1  0  0  0  0
  6  7  2  0  0  0  0
  6  2  1  0  0  0  0
  7 31  1  0  0  0  0
  8  9  1  0  0  0  0
  8  7  1  0  0  0  0
 10  8  2  0  0  0  0
 11 10  1  0  0  0  0
 12 10  1  0  0  0  0
 12  5  1  0  0  0  0
 13 12  1  0  0  0  0
 14 15  1  0  0  0  0
 15 23  1  0  0  0  0
 16 15  2  0  0  0  0
 16 17  1  0  0  0  0
 18 19  1  0  0  0  0
 18 16  1  0  0  0  0
 20 18  2  0  0  0  0
 21 20  1  0  0  0  0
 22 20  1  0  0  0  0
 22 14  2  0  0  0  0
 23 26  1  0  0  0  0
 23 25  1  0  0  0  0
 23 24  1  0  0  0  0
 27 22  1  0  0  0  0
 28 27  1  0  0  0  0
 29 27  1  0  0  0  0
 30 27  1  0  0  0  0
 31 32  1  0  0  0  0
M  CHG  1   2  -1
M  END
