1,2
q = -1.0, confidence = 0.012

 32 33  0  0  0  0  0  0  0  0999 V2000
    1.8455    0.7174   -0.7205 O   0  5  0  0  0  0  0  0  0  0  0  0
   -0.1574   -1.0693   -1.3374 N   0  0  0  0  0  2  0  0  0  0  0  0
    2.7207   -0.2254   -1.0061 C   0  0  0  0  0  0  0  0  0  0  0  0
    2.2742   -1.5170   -1.4322 C   0  0  0  0  0  0  0  0  0  0  0  0
    3.2329   -2.5218   -1.7290 C   0  0  0  0  0  0  0  0  0  0  0  0
    2.8786   -3.5117   -2.0579 H   0  0  0  0  0  0  0  0  0  0  0  0
    4.5934   -2.2605   -1.6045 C   0  0  0  0  0  0  0  0  0  0  0  0
    5.3341   -3.0405   -1.8327 H   0  0  0  0  0  0  0  0  0  0  0  0
    5.0202   -0.9802   -1.1906 C   0  0  0  0  0  0  0  0  0  0  0  0
    6.0969   -0.7669   -1.0980 H   0  0  0  0  0  0  0  0  0  0  0  0
    4.1143    0.0447   -0.8899 C   0  0  0  0  0  0  0  0  0  0  0  0
    4.5570    1.4300   -0.4662 C   0  0  0  0  0  0  0  0  0  0  0  0
    4.5446    2.1054   -1.3508 H   0  0  0  0  0  0  0  0  0  0  0  0
    3.7805    1.8346    0.2186 H   0  0  0  0  0  0  0  0  0  0  0  0
    5.9029    1.4702    0.1967 C   0  0  0  0  0  0  0  0  0  0  0  0
    5.9972    0.8608    1.1147 H   0  0  0  0  0  0  0  0  0  0  0  0
    6.9661    2.1695   -0.2365 C   0  0  0  0  0  0  0  0  0  0  0  0
    6.9148    2.7814   -1.1529 H   0  0  0  0  0  0  0  0  0  0  0  0
    7.9212    2.1663    0.3114 H   0  0  0  0  0  0  0  0  0  0  0  0
    0.8772   -1.8408   -1.5715 C   0  0  0  0  0  3  0  0  0  0  0  0
    0.6708   -2.8720   -1.9298 H   0  0  0  0  0  0  0  0  0  0  0  0
   -1.4462   -1.6641   -1.4815 C   0  0  0  0  0  0  0  0  0  0  0  0
   -2.4079   -1.0636   -2.3194 C   0  0  0  0  0  0  0  0  0  0  0  0
   -2.1341   -0.1602   -2.8829 H   0  0  0  0  0  0  0  0  0  0  0  0
   -3.6903   -1.6191   -2.4116 C   0  0  0  0  0  0  0  0  0  0  0  0
   -4.4352   -1.1474   -3.0701 H   0  0  0  0  0  0  0  0  0  0  0  0
   -4.0324   -2.7598   -1.6659 C   0  0  0  0  0  0  0  0  0  0  0  0
   -5.0482   -3.1776   -1.7287 H   0  0  0  0  0  0  0  0  0  0  0  0
   -3.0752   -3.3586   -0.8339 C   0  0  0  0  0  0  0  0  0  0  0  0
   -3.3365   -4.2444   -0.2359 H   0  0  0  0  0  0  0  0  0  0  0  0
   -1.7846   -2.8177   -0.7441 C   0  0  0  0  0  0  0  0  0  0  0  0
   -1.0388   -3.2621   -0.0677 H   0  0  0  0  0  0  0  0  0  0  0  0
  3 11  1  0  0  0  0
  3  1  1  0  0  0  0
  4  3  2  0  0  0  0
  5  7  2  0  0  0  0
  5  4  1  0  0  0  0
  6  5  1  0  0  0  0
  7  9  1  0  0  0  0
  8  7  1  0  0  0  0
  9 10  1  0  0  0  0
  9 11  2  0  0  0  0
 11 12  1  0  0  0  0
 12 15  1  0  0  0  0
 12 14  1  0  0  0  0
 13 12  1  0  0  0  0
 15 16  1  0  0  0  0
 17 15  2  0  0  0  0
 17 19  1  0  0  0  0
 18 17  1  0  0  0  0
 20  4  1  0  0  0  0
 20  2  1  0  0  0  0
 21 20  1  0  0  0  0
 22  2  1  0  0  0  0
 22 31  1  0  0  0  0
 23 22  2  0  0  0  0
 24 23  1  0  0  0  0
 25 23  1  0  0  0  0
 25 27  2  0  0  0  0
 26 25  1  0  0  0  0
 27 29  1  0  0  0  0
 28 27  1  0  0  0  0
 29 31  2  0  0  0  0
 29 30  1  0  0  0  0
 31 32  1  0  0  0  0
M  CHG  1   1  -1
M  END
