1,10
q = -1.0, confidence = 0.006

 16 16  0  0  0  0  0  0  0  0999 V2000
   -0.3434    1.8158    0.0000 O   0  5  0  0  0  0  0  0  0  0  0  0
    2.6441   -0.8976    0.0000 O   0  0  0  0  0  0  0  0  0  0  0  0
    0.5128    2.8198    0.0000 C   0  0  0  0  0  0  0  0  0  0  0  0
    1.9332    2.6601   -0.0000 C   0  0  0  0  0  0  0  0  0  0  0  0
    2.7679    3.8111   -0.0000 C   0  0  0  0  0  3  0  0  0  0  0  0
    2.2278    5.0946   -0.0000 C   0  0  0  0  0  0  0  0  0  0  0  0
    0.8259    5.2637   -0.0000 C   0  0  0  0  0  0  0  0  0  0  0  0
    0.0000    4.1463    0.0000 C   0  0  0  0  0  0  0  0  0  0  0  0
    2.5335    1.3511   -0.0000 C   0  0  0  0  0  0  0  0  0  0  0  0
    1.8708    0.2204    0.0000 N   0  0  0  0  0  2  0  0  0  0  0  0
   -1.3414    4.2869    0.0000 F   0  0  0  0  0  0  0  0  0  0  0  0
    1.9432   -1.6275   -0.0000 H   0  0  0  0  0  0  0  0  0  0  0  0
    3.8591    3.6683   -0.0000 H   0  0  0  0  0  0  0  0  0  0  0  0
    2.8846    5.9758   -0.0000 H   0  0  0  0  0  0  0  0  0  0  0  0
    0.3616    6.2605   -0.0000 H   0  0  0  0  0  0  0  0  0  0  0  0
    3.6340    1.2687   -0.0000 H   0  0  0  0  0  0  0  0  0  0  0  0
  3  1  1  0  0  0  0
  4  9  2  0  0  0  0
  4  3  1  0  0  0  0
  5  4  1  0  0  0  0
  6  5  1  0  0  0  0
  6  7  2  0  0  0  0
  7  8  1  0  0  0  0
  8  3  2  0  0  0  0
  8 11  1  0  0  0  0
  9 10  1  0  0  0  0
 10  2  1  0  0  0  0
 12  2  1  0  0  0  0
 13  5  1  0  0  0  0
 14  6  1  0  0  0  0
 15  7  1  0  0  0  0
 16  9  1  0  0  0  0
M  CHG  1   1  -1
M  END
