1,2
q = -1.0, confidence = 0.002

 33 35  0  0  1  0  0  0  0  0999 V2000
    1.2842   -1.2938   -0.5941 N   0  0  0  0  0  2  0  0  0  0  0  0
    1.3072    1.2977    0.1835 O   0  5  0  0  0  0  0  0  0  0  0  0
    1.7496   -4.1179    0.5222 O   0  0  0  0  0  0  0  0  0  0  0  0
   -0.2163   -4.6743   -0.4712 O   0  0  0  0  0  0  0  0  0  0  0  0
    3.3220    0.0187   -0.1537 C   0  0  0  0  0  0  0  0  0  0  0  0
    2.6050    1.2181    0.1398 C   0  0  0  0  0  0  0  0  0  0  0  0
    3.3344    2.4359    0.3867 C   0  0  0  0  0  0  0  0  0  0  0  0
    4.7083    2.4411    0.3847 C   0  0  0  0  0  0  0  0  0  0  0  0
    6.8909    1.2737    0.1715 C   0  0  0  0  0  0  0  0  0  0  0  0
    7.6342    0.1208   -0.0520 C   0  0  0  0  0  0  0  0  0  0  0  0
    6.9594   -1.0964   -0.3027 C   0  0  0  0  0  0  0  0  0  0  0  0
    5.5683   -1.1464   -0.3347 C   0  0  0  0  0  0  0  0  0  0  0  0
    4.7768    0.0172   -0.1232 C   0  0  2  0  0  3  0  0  0  0  0  0
    5.4708    1.2497    0.1448 C   0  0  0  0  0  0  0  0  0  0  0  0
    2.5931   -1.1432   -0.5423 C   0  0  0  0  0  0  0  0  0  0  0  0
    0.8189   -2.5889   -1.0943 C   0  0  0  0  0  0  0  0  0  0  0  0
    0.5408   -3.5743    0.0330 C   0  0  0  0  0  0  0  0  0  0  0  0
    1.3478   -5.3320    1.1377 C   0  0  0  0  0  0  0  0  0  0  0  0
    0.2539   -5.8533    0.1815 C   0  0  0  0  0  0  0  0  0  0  0  0
    2.7423    3.3455    0.5697 H   0  0  0  0  0  0  0  0  0  0  0  0
    5.2541    3.3788    0.5771 H   0  0  0  0  0  0  0  0  0  0  0  0
    7.3941    2.2317    0.3772 H   0  0  0  0  0  0  0  0  0  0  0  0
    8.7336    0.1510   -0.0279 H   0  0  0  0  0  0  0  0  0  0  0  0
    7.5370   -2.0188   -0.4684 H   0  0  0  0  0  0  0  0  0  0  0  0
    5.0844   -2.1176   -0.5108 H   0  0  0  0  0  0  0  0  0  0  0  0
    3.1864   -2.0154   -0.8689 H   0  0  0  0  0  0  0  0  0  0  0  0
   -0.1199   -2.4539   -1.6560 H   0  0  0  0  0  0  0  0  0  0  0  0
    1.5783   -3.0474   -1.7607 H   0  0  0  0  0  0  0  0  0  0  0  0
   -0.0235   -3.0704    0.8567 H   0  0  0  0  0  0  0  0  0  0  0  0
    2.2273   -5.9983    1.2279 H   0  0  0  0  0  0  0  0  0  0  0  0
    0.9305   -5.1441    2.1564 H   0  0  0  0  0  0  0  0  0  0  0  0
   -0.5739   -6.3611    0.7234 H   0  0  0  0  0  0  0  0  0  0  0  0
    0.6620   -6.5574   -0.5774 H   0  0  0  0  0  0  0  0  0  0  0  0
  1 15  1  0  0  0  0
  3 18  1  0  0  0  0
  4 17  1  0  0  0  0
  4 19  1  0  0  0  0
  5 13  1  0  0  0  0
  5  6  1  0  0  0  0
  6  2  1  0  0  0  0
  6  7  2  0  0  0  0
  7 20  1  0  0  0  0
  8  7  1  0  0  0  0
  8 21  1  0  0  0  0
  9 22  1  0  0  0  0
 10 23  1  0  0  0  0
 10  9  2  0  0  0  0
 11 10  1  0  0  0  0
 12 11  2  0  0  0  0
 13 12  1  1  0  0  0
 13 14  1  0  0  0  0
 14  9  1  0  0  0  0
 14  8  2  0  0  0  0
 15  5  2  0  0  0  0
 16  1  1  0  0  0  0
 16 17  1  0  0  0  0
 17  3  1  0  0  0  0
 17 29  1  0  0  0  0
 18 30  1  0  0  0  0
 18 31  1  0  0  0  0
 19 32  1  0  0  0  0
 19 18  1  0  0  0  0
 24 11  1  0  0  0  0
 25 12  1  0  0  0  0
 26 15  1  0  0  0  0
 27 16  1  0  0  0  0
 28 16  1  0  0  0  0
 33 19  1  0  0  0  0
M  CHG  1   2  -1
M  END
