5,7
q = -1.0, confidence = 0.026

 40 41  0  0  0  0  0  0  0  0999 V2000
   -0.6141    4.0532   -0.7573 Si  0  0  0  0  0  0  0  0  0  0  0  0
    0.6984    4.6671   -1.9703 C   0  0  0  0  0  0  0  0  0  0  0  0
   -0.3038    4.7628    0.9688 C   0  0  0  0  0  0  0  0  0  0  0  0
   -2.3664    4.4089   -1.3478 C   0  0  0  0  0  0  0  0  0  0  0  0
    0.7911    1.6452   -0.4263 O   0  5  0  0  0  0  0  0  0  0  0  0
   -1.4972    1.4177   -0.5499 N   0  0  0  0  0  0  0  0  0  0  0  0
   -1.2420    0.0697   -0.3986 N   0  0  0  0  0  2  0  0  0  0  0  0
   -0.4240    2.1584   -0.5856 C   0  0  0  0  0  0  0  0  0  0  0  0
   -2.3349   -0.6585   -0.2017 C   0  0  0  0  0  3  0  0  0  0  0  0
   -1.7976   -2.6568   -1.6178 C   0  0  0  0  0  0  0  0  0  0  0  0
   -1.9121   -4.0263   -1.8842 C   0  0  0  0  0  0  0  0  0  0  0  0
   -2.5891   -4.8681   -0.9877 C   0  0  0  0  0  0  0  0  0  0  0  0
   -3.1700   -4.3316    0.1745 C   0  0  0  0  0  0  0  0  0  0  0  0
   -3.0799   -2.9604    0.4347 C   0  0  0  0  0  0  0  0  0  0  0  0
   -2.3736   -2.1099   -0.4484 C   0  0  0  0  0  0  0  0  0  0  0  0
   -4.8350   -0.4007   -0.3297 C   0  0  0  0  0  0  0  0  0  0  0  0
   -6.0315    0.1745    0.1210 C   0  0  0  0  0  0  0  0  0  0  0  0
   -6.0110    1.1088    1.1681 C   0  0  0  0  0  0  0  0  0  0  0  0
   -4.7883    1.4698    1.7624 C   0  0  0  0  0  0  0  0  0  0  0  0
   -3.5890    0.9196    1.2981 C   0  0  0  0  0  0  0  0  0  0  0  0
   -3.6012   -0.0223    0.2426 C   0  0  0  0  0  0  0  0  0  0  0  0
    0.6273    5.7652   -2.1112 H   0  0  0  0  0  0  0  0  0  0  0  0
    0.5815    4.1839   -2.9614 H   0  0  0  0  0  0  0  0  0  0  0  0
    1.7172    4.4373   -1.5974 H   0  0  0  0  0  0  0  0  0  0  0  0
    0.7107    4.4950    1.3271 H   0  0  0  0  0  0  0  0  0  0  0  0
   -1.0366    4.3538    1.6935 H   0  0  0  0  0  0  0  0  0  0  0  0
   -0.3918    5.8688    0.9702 H   0  0  0  0  0  0  0  0  0  0  0  0
   -2.5717    5.4985   -1.3816 H   0  0  0  0  0  0  0  0  0  0  0  0
   -3.0969    3.9276   -0.6670 H   0  0  0  0  0  0  0  0  0  0  0  0
   -2.5305    3.9896   -2.3607 H   0  0  0  0  0  0  0  0  0  0  0  0
   -1.2552   -1.9943   -2.3059 H   0  0  0  0  0  0  0  0  0  0  0  0
   -1.4617   -4.4402   -2.7990 H   0  0  0  0  0  0  0  0  0  0  0  0
   -2.6694   -5.9461   -1.1957 H   0  0  0  0  0  0  0  0  0  0  0  0
   -3.6980   -4.9889    0.8818 H   0  0  0  0  0  0  0  0  0  0  0  0
   -3.5307   -2.5363    1.3436 H   0  0  0  0  0  0  0  0  0  0  0  0
   -4.8467   -1.1391   -1.1449 H   0  0  0  0  0  0  0  0  0  0  0  0
   -6.9860   -0.1119   -0.3460 H   0  0  0  0  0  0  0  0  0  0  0  0
   -6.9513    1.5540    1.5280 H   0  0  0  0  0  0  0  0  0  0  0  0
   -4.7716    2.1884    2.5959 H   0  0  0  0  0  0  0  0  0  0  0  0
   -2.6279    1.1869    1.7610 H   0  0  0  0  0  0  0  0  0  0  0  0
  1  8  1  0  0  0  0
  1  3  1  0  0  0  0
  2 24  1  0  0  0  0
  2  1  1  0  0  0  0
  3 27  1  0  0  0  0
  3 25  1  0  0  0  0
  3 26  1  0  0  0  0
  4  1  1  0  0  0  0
  4 29  1  0  0  0  0
  6  7  1  0  0  0  0
  7  9  1  0  0  0  0
  8  6  2  0  0  0  0
  8  5  1  0  0  0  0
  9 21  1  0  0  0  0
 10 15  1  0  0  0  0
 11 10  2  0  0  0  0
 11 12  1  0  0  0  0
 12 13  2  0  0  0  0
 13 14  1  0  0  0  0
 13 34  1  0  0  0  0
 14 35  1  0  0  0  0
 15  9  1  0  0  0  0
 15 14  2  0  0  0  0
 16 17  2  0  0  0  0
 16 21  1  0  0  0  0
 17 18  1  0  0  0  0
 18 38  1  0  0  0  0
 18 19  2  0  0  0  0
 19 39  1  0  0  0  0
 20 40  1  0  0  0  0
 20 19  1  0  0  0  0
 21 20  2  0  0  0  0
 22  2  1  0  0  0  0
 23  2  1  0  0  0  0
 28  4  1  0  0  0  0
 30  4  1  0  0  0  0
 31 10  1  0  0  0  0
 32 11  1  0  0  0  0
 33 12  1  0  0  0  0
 36 16  1  0  0  0  0
 37 17  1  0  0  0  0
M  CHG  1   5  -1
M  END
