1,9
q = -1.0, confidence = 0.002

 28 30  0  0  1  0  0  0  0  0999 V2000
   -1.2185   -1.5032    1.7606 O   0  0  0  0  0  1  0  0  0  0  0  0
    0.0709   -1.5534    1.5936 C   0  0  1  0  0  3  0  0  0  0  0  0
    1.0387   -2.2823    2.3252 C   0  0  0  0  0  0  0  0  0  0  0  0
    0.7241   -2.9060    3.1723 H   0  0  0  0  0  0  0  0  0  0  0  0
    2.3689   -2.1959    1.9064 C   0  0  0  0  0  0  0  0  0  0  0  0
    3.1467   -2.7522    2.4550 H   0  0  0  0  0  0  0  0  0  0  0  0
    2.7364   -1.4288    0.7799 C   0  0  0  0  0  0  0  0  0  0  0  0
    1.7215   -0.7305    0.0932 C   0  0  0  0  0  0  0  0  0  0  0  0
    0.4541   -0.7713    0.5332 N   0  0  0  0  0  2  0  0  0  0  0  0
    2.1094    0.0329   -1.1419 C   0  0  1  0  0  0  0  0  0  0  0  0
    1.2331    0.5063   -1.6233 H   0  0  0  0  0  0  0  0  0  0  0  0
    3.3999    0.8997   -0.8482 C   0  0  0  0  0  0  0  0  0  0  0  0
    3.5236    1.6275    0.4899 C   0  0  0  0  0  0  0  0  0  0  0  0
    4.5758    1.9387    0.6589 H   0  0  0  0  0  0  0  0  0  0  0  0
    3.2077    1.0085    1.3508 H   0  0  0  0  0  0  0  0  0  0  0  0
    2.9073    2.5505    0.4948 H   0  0  0  0  0  0  0  0  0  0  0  0
    3.6862    1.8930   -1.9805 C   0  0  0  0  0  0  0  0  0  0  0  0
    2.9554    2.7286   -1.9574 H   0  0  0  0  0  0  0  0  0  0  0  0
    3.6382    1.4333   -2.9861 H   0  0  0  0  0  0  0  0  0  0  0  0
    4.6986    2.3323   -1.8611 H   0  0  0  0  0  0  0  0  0  0  0  0
    4.1773   -0.4564   -1.0360 C   0  0  2  0  0  0  0  0  0  0  0  0
    5.2032   -0.3900   -1.4546 H   0  0  0  0  0  0  0  0  0  0  0  0
    3.0256   -0.9153   -1.9719 C   0  0  0  0  0  0  0  0  0  0  0  0
    2.7514   -1.9885   -1.9706 H   0  0  0  0  0  0  0  0  0  0  0  0
    3.1549   -0.5743   -3.0149 H   0  0  0  0  0  0  0  0  0  0  0  0
    4.1532   -1.2977    0.2517 C   0  0  0  0  0  0  0  0  0  0  0  0
    4.8148   -0.8411    1.0216 H   0  0  0  0  0  0  0  0  0  0  0  0
    4.5770   -2.3048    0.0432 H   0  0  0  0  0  0  0  0  0  0  0  0
  2  1  1  6  0  0  0
  2  3  1  0  0  0  0
  3  4  1  0  0  0  0
  5  3  2  0  0  0  0
  5  6  1  0  0  0  0
  7  5  1  0  0  0  0
  8  9  1  0  0  0  0
  8  7  2  0  0  0  0
  9  2  1  0  0  0  0
 10 11  1  6  0  0  0
 10 12  1  0  0  0  0
 10  8  1  0  0  0  0
 12 13  1  0  0  0  0
 13 16  1  0  0  0  0
 13 14  1  0  0  0  0
 13 15  1  0  0  0  0
 17 18  1  0  0  0  0
 17 20  1  0  0  0  0
 17 12  1  0  0  0  0
 19 17  1  0  0  0  0
 21 22  1  6  0  0  0
 21 12  1  0  0  0  0
 21 26  1  0  0  0  0
 23 24  1  0  0  0  0
 23 10  1  0  0  0  0
 23 21  1  0  0  0  0
 25 23  1  0  0  0  0
 26  7  1  0  0  0  0
 26 27  1  0  0  0  0
 28 26  1  0  0  0  0
M  END
