1,2
q = -1.0, confidence = 0.032

 49 50  0  0  0  0  0  0  0  0999 V2000
    2.1937    0.1025    0.1139 O   0  5  0  0  0  0  0  0  0  0  0  0
   -0.2298   -1.2379    0.5026 N   0  0  0  0  0  2  0  0  0  0  0  0
    2.8265   -1.0587    0.0667 C   0  0  0  0  0  0  0  0  0  0  0  0
    2.0484   -2.2386    0.2464 C   0  0  0  0  0  0  0  0  0  0  0  0
    2.7003   -3.4933    0.2175 C   0  0  0  0  0  0  0  0  0  0  0  0
    2.1042   -4.4084    0.3605 H   0  0  0  0  0  0  0  0  0  0  0  0
    4.0757   -3.5660    0.0076 C   0  0  0  0  0  0  0  0  0  0  0  0
    4.5831   -4.5413   -0.0179 H   0  0  0  0  0  0  0  0  0  0  0  0
    4.8206   -2.3849   -0.1726 C   0  0  0  0  0  0  0  0  0  0  0  0
    5.9026   -2.4717   -0.3378 H   0  0  0  0  0  0  0  0  0  0  0  0
    4.2354   -1.1065   -0.1495 C   0  0  0  0  0  0  0  0  0  0  0  0
    5.0469    0.1838   -0.3568 C   0  0  0  0  0  0  0  0  0  0  0  0
    4.5353    0.9183   -1.6201 C   0  0  0  0  0  0  0  0  0  0  0  0
    4.6282    0.2716   -2.5162 H   0  0  0  0  0  0  0  0  0  0  0  0
    5.1423    1.8310   -1.7911 H   0  0  0  0  0  0  0  0  0  0  0  0
    3.4799    1.2314   -1.5226 H   0  0  0  0  0  0  0  0  0  0  0  0
    4.9051    1.1005    0.8826 C   0  0  0  0  0  0  0  0  0  0  0  0
    5.2610    0.5846    1.7976 H   0  0  0  0  0  0  0  0  0  0  0  0
    3.8600    1.4211    1.0447 H   0  0  0  0  0  0  0  0  0  0  0  0
    5.5208    2.0125    0.7425 H   0  0  0  0  0  0  0  0  0  0  0  0
    6.5430   -0.1206   -0.5547 C   0  0  0  0  0  0  0  0  0  0  0  0
    6.9858   -0.6306    0.3251 H   0  0  0  0  0  0  0  0  0  0  0  0
    7.0926    0.8309   -0.6977 H   0  0  0  0  0  0  0  0  0  0  0  0
    6.7273   -0.7467   -1.4515 H   0  0  0  0  0  0  0  0  0  0  0  0
    0.6095   -2.2290    0.4738 C   0  0  0  0  0  3  0  0  0  0  0  0
    0.2198   -3.2512    0.6351 H   0  0  0  0  0  0  0  0  0  0  0  0
   -1.6797   -1.5616    0.7388 C   0  0  0  0  0  0  0  0  0  0  0  0
   -2.1622   -0.7530    1.9540 C   0  0  0  0  0  0  0  0  0  0  0  0
   -2.0825    0.3312    1.7699 H   0  0  0  0  0  0  0  0  0  0  0  0
   -1.5464   -0.9874    2.8428 H   0  0  0  0  0  0  0  0  0  0  0  0
   -3.2188   -1.0005    2.1714 H   0  0  0  0  0  0  0  0  0  0  0  0
   -1.9595   -3.0465    1.0199 C   0  0  0  0  0  0  0  0  0  0  0  0
   -1.6890   -3.7056    0.1704 H   0  0  0  0  0  0  0  0  0  0  0  0
   -3.0453   -3.1685    1.1914 H   0  0  0  0  0  0  0  0  0  0  0  0
   -1.4364   -3.4015    1.9304 H   0  0  0  0  0  0  0  0  0  0  0  0
   -2.4350   -1.1325   -0.5618 C   0  0  0  0  0  0  0  0  0  0  0  0
   -2.1852   -0.0748   -0.7475 H   0  0  0  0  0  0  0  0  0  0  0  0
   -2.0027   -1.7068   -1.4055 H   0  0  0  0  0  0  0  0  0  0  0  0
   -3.9347   -1.2953   -0.5324 C   0  0  0  0  0  0  0  0  0  0  0  0
   -4.7600   -0.2817    0.0010 C   0  0  0  0  0  0  0  0  0  0  0  0
   -4.2941    0.6358    0.3902 H   0  0  0  0  0  0  0  0  0  0  0  0
   -6.1547   -0.4251    0.0361 C   0  0  0  0  0  0  0  0  0  0  0  0
   -6.7773    0.3806    0.4549 H   0  0  0  0  0  0  0  0  0  0  0  0
   -6.7560   -1.5897   -0.4672 C   0  0  0  0  0  0  0  0  0  0  0  0
   -7.8503   -1.7034   -0.4439 H   0  0  0  0  0  0  0  0  0  0  0  0
   -5.9508   -2.6033   -1.0100 C   0  0  0  0  0  0  0  0  0  0  0  0
   -6.4129   -3.5154   -1.4179 H   0  0  0  0  0  0  0  0  0  0  0  0
   -4.5559   -2.4546   -1.0418 C   0  0  0  0  0  0  0  0  0  0  0  0
   -3.9318   -3.2491   -1.4806 H   0  0  0  0  0  0  0  0  0  0  0  0
  2 27  1  0  0  0  0
  3  1  1  0  0  0  0
  3  4  1  0  0  0  0
  4 25  1  0  0  0  0
  5  4  2  0  0  0  0
  5  6  1  0  0  0  0
  7  5  1  0  0  0  0
  8  7  1  0  0  0  0
  9 11  1  0  0  0  0
  9  7  2  0  0  0  0
 10  9  1  0  0  0  0
 11  3  2  0  0  0  0
 12 11  1  0  0  0  0
 12 17  1  0  0  0  0
 13 16  1  0  0  0  0
 13 12  1  0  0  0  0
 14 13  1  0  0  0  0
 15 13  1  0  0  0  0
 17 19  1  0  0  0  0
 17 18  1  0  0  0  0
 20 17  1  0  0  0  0
 21 12  1  0  0  0  0
 21 22  1  0  0  0  0
 23 21  1  0  0  0  0
 24 21  1  0  0  0  0
 25  2  1  0  0  0  0
 25 26  1  0  0  0  0
 27 32  1  0  0  0  0
 27 28  1  0  0  0  0
 28 31  1  0  0  0  0
 28 30  1  0  0  0  0
 29 28  1  0  0  0  0
 32 34  1  0  0  0  0
 32 35  1  0  0  0  0
 33 32  1  0  0  0  0
 36 39  1  0  0  0  0
 36 27  1  0  0  0  0
 37 36  1  0  0  0  0
 38 36  1  0  0  0  0
 39 40  1  0  0  0  0
 40 42  2  0  0  0  0
 40 41  1  0  0  0  0
 42 43  1  0  0  0  0
 44 45  1  0  0  0  0
 44 42  1  0  0  0  0
 46 44  2  0  0  0  0
 47 46  1  0  0  0  0
 48 46  1  0  0  0  0
 48 39  2  0  0  0  0
 49 48  1  0  0  0  0
M  CHG  1   1  -1
M  END
