1,2
q = 0.0, confidence = 0.996

 22 22  0  0  0  0  0  0  0  0999 V2000
   -3.3974   -1.1001   -0.4073 N   0  0  0  0  0  0  0  0  0  0  0  0
   -2.6898    1.3878   -1.7207 O   0  0  0  0  0  1  0  0  0  0  0  0
   -4.3442    1.1621    0.0258 C   0  0  0  0  0  0  0  0  0  0  0  0
   -4.1205   -0.1982    0.4302 C   0  0  0  0  0  0  0  0  0  0  0  0
   -4.6268   -0.6050    1.6791 C   0  0  0  0  0  0  0  0  0  0  0  0
   -4.4446   -1.6245    2.0382 H   0  0  0  0  0  0  0  0  0  0  0  0
   -5.3872    0.2668    2.4726 C   0  0  0  0  0  0  0  0  0  0  0  0
   -5.7731   -0.0931    3.4384 H   0  0  0  0  0  0  0  0  0  0  0  0
   -5.6780    1.5714    2.0436 C   0  0  0  0  0  0  0  0  0  0  0  0
   -6.2901    2.2430    2.6618 H   0  0  0  0  0  0  0  0  0  0  0  0
   -5.1517    2.0053    0.8271 C   0  0  0  0  0  0  0  0  0  0  0  0
   -5.3187    3.0399    0.4872 H   0  0  0  0  0  0  0  0  0  0  0  0
   -3.6529    1.8276   -1.0734 C   0  0  0  0  0  3  0  0  0  0  0  0
   -4.0179    2.8624   -1.3044 H   0  0  0  0  0  0  0  0  0  0  0  0
   -4.0165   -1.3520   -1.7287 C   0  0  0  0  0  0  0  0  0  0  0  0
   -4.9431   -1.9564   -1.6146 H   0  0  0  0  0  0  0  0  0  0  0  0
   -3.2892   -1.9102   -2.3497 H   0  0  0  0  0  0  0  0  0  0  0  0
   -4.2595   -0.4081   -2.2436 H   0  0  0  0  0  0  0  0  0  0  0  0
   -2.9852   -2.3721    0.2115 C   0  0  0  0  0  0  0  0  0  0  0  0
   -2.4087   -2.1719    1.1335 H   0  0  0  0  0  0  0  0  0  0  0  0
   -2.3081   -2.8837   -0.4964 H   0  0  0  0  0  0  0  0  0  0  0  0
   -3.8563   -3.0277    0.4335 H   0  0  0  0  0  0  0  0  0  0  0  0
  1 19  1  0  0  0  0
  1  4  1  0  0  0  0
  2 13  1  0  0  0  0
  3  4  2  0  0  0  0
  3 11  1  0  0  0  0
  4  5  1  0  0  0  0
  5  6  1  0  0  0  0
  5  7  2  0  0  0  0
  7  8  1  0  0  0  0
  9  7  1  0  0  0  0
  9 10  1  0  0  0  0
 11  9  2  0  0  0  0
 12 11  1  0  0  0  0
 13  3  1  0  0  0  0
 14 13  1  0  0  0  0
 15 16  1  0  0  0  0
 15  1  1  0  0  0  0
 17 15  1  0  0  0  0
 18 15  1  0  0  0  0
 19 22  1  0  0  0  0
 19 20  1  0  0  0  0
 21 19  1  0  0  0  0
M  END
