1,12
q = -1.0, confidence = 0.022

 16 16  0  0  0  0  0  0  0  0999 V2000
    1.1520    0.0004   -1.0607 N   0  0  0  0  0  0  0  0  0  0  0  0
    1.1571   -0.8161   -1.6948 H   0  0  0  0  0  0  0  0  0  0  0  0
    1.1569    0.8169   -1.6947 H   0  0  0  0  0  0  0  0  0  0  0  0
    6.0459    0.0006   -0.1557 N   0  0  0  0  0  0  0  0  0  0  0  0
    1.9854    0.0006    1.2234 C   0  0  0  0  0  0  0  0  0  0  0  0
    4.6641    0.0006    0.3146 C   0  0  0  0  0  0  0  0  0  0  0  0
    2.3068    0.0005   -0.1750 C   0  0  0  0  0  0  0  0  0  0  0  0
    3.0766    0.0007    2.1465 C   0  0  0  0  0  0  0  0  0  0  0  0
    2.8427    0.0008    3.2214 H   0  0  0  0  0  0  0  0  0  0  0  0
    3.6205    0.0005   -0.6280 C   0  0  0  0  0  0  0  0  0  0  0  0
    3.8760    0.0004   -1.6974 H   0  0  0  0  0  0  0  0  0  0  0  0
    0.7356    0.0006    1.6002 O   0  5  0  0  0  0  0  0  0  0  0  0
    6.9451    0.0007    0.6937 O   0  0  0  0  0  0  0  0  0  0  0  0
    6.2396    0.0005   -1.3790 O   0  0  0  0  0  0  0  0  0  0  0  0
    4.3929    0.0007    1.6983 C   0  0  0  0  0  0  0  0  0  0  0  0
    5.2439    0.0008    2.3927 H   0  0  0  0  0  0  0  0  0  0  0  0
  1  7  1  0  0  0  0
  2  1  1  0  0  0  0
  3  1  1  0  0  0  0
  4  6  1  0  0  0  0
  4 13  2  0  0  0  0
  5 12  1  0  0  0  0
  5  8  1  0  0  0  0
  6 15  1  0  0  0  0
  7  5  2  0  0  0  0
  8  9  1  0  0  0  0
 10  7  1  0  0  0  0
 10  6  2  0  0  0  0
 11 10  1  0  0  0  0
 14  4  2  0  0  0  0
 15  8  2  0  0  0  0
 15 16  1  0  0  0  0
M  CHG  1  12  -1
M  END
