1,2
q = -1.0, confidence = 0.002

 31 32  0  0  0  0  0  0  0  0999 V2000
    1.6346   -0.0059    0.9053 O   0  5  0  0  0  0  0  0  0  0  0  0
    0.3769   -1.6824   -0.8607 N   0  0  0  0  0  2  0  0  0  0  0  0
    3.9533   -0.2766    1.2287 C   0  0  0  0  0  0  0  0  0  0  0  0
    3.9299    0.5696    1.9295 H   0  0  0  0  0  0  0  0  0  0  0  0
    5.1361   -0.9474    0.9478 C   0  0  0  0  0  0  0  0  0  0  0  0
    6.0651   -0.6183    1.4423 H   0  0  0  0  0  0  0  0  0  0  0  0
    5.1916   -2.0457    0.0427 C   0  0  0  0  0  0  0  0  0  0  0  0
    3.9971   -2.4331   -0.5589 C   0  0  0  0  0  3  0  0  0  0  0  0
    3.9906   -3.2868   -1.2572 H   0  0  0  0  0  0  0  0  0  0  0  0
    2.7670   -1.7622   -0.3084 C   0  0  0  0  0  0  0  0  0  0  0  0
    2.7260   -0.6523    0.6021 C   0  0  0  0  0  0  0  0  0  0  0  0
    6.4976   -2.7456   -0.2358 C   0  0  0  0  0  0  0  0  0  0  0  0
    6.3636   -3.5941   -0.9348 H   0  0  0  0  0  0  0  0  0  0  0  0
    7.2426   -2.0550   -0.6855 H   0  0  0  0  0  0  0  0  0  0  0  0
    6.9541   -3.1445    0.6948 H   0  0  0  0  0  0  0  0  0  0  0  0
    1.5633   -2.2436   -0.9102 C   0  0  0  0  0  0  0  0  0  0  0  0
    1.6446   -3.2033   -1.4601 H   0  0  0  0  0  0  0  0  0  0  0  0
   -0.7305   -2.4306   -1.4548 C   0  0  0  0  0  0  0  0  0  0  0  0
   -1.2194   -1.7965   -2.2191 H   0  0  0  0  0  0  0  0  0  0  0  0
   -0.3226   -3.3307   -1.9676 H   0  0  0  0  0  0  0  0  0  0  0  0
   -1.7793   -2.8561   -0.4443 C   0  0  0  0  0  0  0  0  0  0  0  0
   -1.5241   -2.8522    0.9391 C   0  0  0  0  0  0  0  0  0  0  0  0
   -0.5448   -2.5118    1.3076 H   0  0  0  0  0  0  0  0  0  0  0  0
   -2.5149   -3.2565    1.8476 C   0  0  0  0  0  0  0  0  0  0  0  0
   -2.3016   -3.2386    2.9274 H   0  0  0  0  0  0  0  0  0  0  0  0
   -3.7704   -3.6786    1.3857 C   0  0  0  0  0  0  0  0  0  0  0  0
   -4.5478   -3.9920    2.0989 H   0  0  0  0  0  0  0  0  0  0  0  0
   -4.0302   -3.6925    0.0057 C   0  0  0  0  0  0  0  0  0  0  0  0
   -5.0136   -4.0168   -0.3680 H   0  0  0  0  0  0  0  0  0  0  0  0
   -3.0421   -3.2815   -0.8997 C   0  0  0  0  0  0  0  0  0  0  0  0
   -3.2554   -3.2829   -1.9812 H   0  0  0  0  0  0  0  0  0  0  0  0
  3  4  1  0  0  0  0
  5  3  1  0  0  0  0
  5  6  1  0  0  0  0
  7  5  2  0  0  0  0
  8 10  1  0  0  0  0
  8  7  1  0  0  0  0
  9  8  1  0  0  0  0
 10 11  1  0  0  0  0
 11  1  1  0  0  0  0
 11  3  2  0  0  0  0
 12  7  1  0  0  0  0
 12 15  1  0  0  0  0
 13 12  1  0  0  0  0
 14 12  1  0  0  0  0
 16  2  1  0  0  0  0
 16 10  2  0  0  0  0
 17 16  1  0  0  0  0
 18  2  1  0  0  0  0
 18 21  1  0  0  0  0
 19 18  1  0  0  0  0
 20 18  1  0  0  0  0
 21 22  1  0  0  0  0
 22 23  1  0  0  0  0
 22 24  2  0  0  0  0
 24 25  1  0  0  0  0
 26 24  1  0  0  0  0
 26 27  1  0  0  0  0
 28 26  2  0  0  0  0
 29 28  1  0  0  0  0
 30 21  2  0  0  0  0
 30 28  1  0  0  0  0
 31 30  1  0  0  0  0
M  CHG  1   1  -1
M  END
