1,3
q = -1.0, confidence = 0.0

 19 20  0  0  0  0  0  0  0  0999 V2000
   -0.1163    1.5140   -0.1012 O   0  5  0  0  0  0  0  0  0  0  0  0
   -1.5204   -2.0815    0.2613 O   0  0  0  0  0  1  0  0  0  0  0  0
   -1.1320   -0.9148    0.1230 N   0  0  0  0  0  2  0  0  0  0  0  0
   -2.0472    0.1422   -0.0142 C   0  0  0  0  0  0  0  0  0  0  0  0
   -1.4056    1.4221   -0.1252 C   0  0  0  0  0  0  0  0  0  0  0  0
   -2.2148    2.6027   -0.2589 C   0  0  0  0  0  0  0  0  0  0  0  0
   -3.5844    2.5029   -0.2825 C   0  0  0  0  0  0  0  0  0  0  0  0
   -5.6745    1.1693   -0.2047 C   0  0  0  0  0  0  0  0  0  0  0  0
   -6.3444   -0.0473   -0.1022 C   0  0  0  0  0  0  0  0  0  0  0  0
   -5.5932   -1.2356    0.0340 C   0  0  0  0  0  0  0  0  0  0  0  0
   -4.1992   -1.2075    0.0678 C   0  0  0  0  0  0  0  0  0  0  0  0
   -3.4871    0.0221   -0.0355 C   0  0  0  0  0  0  0  0  0  0  0  0
   -4.2580    1.2365   -0.1750 C   0  0  0  0  0  0  0  0  0  0  0  0
   -1.6919    3.5666   -0.3410 H   0  0  0  0  0  0  0  0  0  0  0  0
   -4.2036    3.4090   -0.3868 H   0  0  0  0  0  0  0  0  0  0  0  0
   -6.2389    2.1102   -0.3119 H   0  0  0  0  0  0  0  0  0  0  0  0
   -7.4448   -0.0818   -0.1269 H   0  0  0  0  0  0  0  0  0  0  0  0
   -6.1115   -2.2042    0.1161 H   0  0  0  0  0  0  0  0  0  0  0  0
   -3.6150   -2.1278    0.1755 H   0  0  0  0  0  0  0  0  0  0  0  0
  3  2  1  0  0  0  0
  4  3  1  0  0  0  0
  5  1  1  0  0  0  0
  5  4  2  0  0  0  0
  6  5  1  0  0  0  0
  7  6  2  0  0  0  0
  7 13  1  0  0  0  0
  8 13  2  0  0  0  0
  8  9  1  0  0  0  0
  9 10  2  0  0  0  0
 10 11  1  0  0  0  0
 10 18  1  0  0  0  0
 11 19  1  0  0  0  0
 12  4  1  0  0  0  0
 12 11  2  0  0  0  0
 13 12  1  0  0  0  0
 14  6  1  0  0  0  0
 15  7  1  0  0  0  0
 16  8  1  0  0  0  0
 17  9  1  0  0  0  0
M  CHG  1   1  -1
M  END
