1,4
q = -1.0, confidence = 0.008

 22 21  0  0  1  0  0  0  0  0999 V2000
    1.1185    1.3183   -1.0412 N   0  0  0  0  0  0  0  0  0  0  0  0
    2.0481    0.9233   -1.2514 H   0  0  0  0  0  0  0  0  0  0  0  0
    0.7273    1.6508   -1.9383 H   0  0  0  0  0  0  0  0  0  0  0  0
   -0.5766    1.4775    1.0243 O   0  0  0  0  0  1  0  0  0  0  0  0
   -0.1416    2.6563    0.4728 C   0  0  0  0  0  0  0  0  0  0  0  0
   -0.1423    3.4762    1.2345 H   0  0  0  0  0  0  0  0  0  0  0  0
   -0.7941    3.0596   -0.3818 H   0  0  0  0  0  0  0  0  0  0  0  0
    1.2654    2.4819   -0.1139 C   0  0  2  0  0  0  0  0  0  0  0  0
    1.9076    2.0927    0.7018 H   0  0  0  0  0  0  0  0  0  0  0  0
    1.8823    3.6970   -0.8030 C   0  0  0  0  0  0  0  0  0  0  0  0
    2.8452    3.3941   -1.2784 H   0  0  0  0  0  0  0  0  0  0  0  0
    1.2146    4.0167   -1.6378 H   0  0  0  0  0  0  0  0  0  0  0  0
    2.1509    4.9127    0.1058 C   0  0  0  0  0  0  0  0  0  0  0  0
    1.1723    5.2458    0.5193 H   0  0  0  0  0  0  0  0  0  0  0  0
    2.7283    6.0718   -0.7154 C   0  0  0  0  0  0  0  0  0  0  0  0
    3.7140    5.7963   -1.1485 H   0  0  0  0  0  0  0  0  0  0  0  0
    2.8803    6.9745   -0.0894 H   0  0  0  0  0  0  0  0  0  0  0  0
    2.0600    6.3507   -1.5560 H   0  0  0  0  0  0  0  0  0  0  0  0
    3.0656    4.5623    1.2862 C   0  0  0  0  0  0  0  0  0  0  0  0
    2.6209    3.7933    1.9481 H   0  0  0  0  0  0  0  0  0  0  0  0
    3.2724    5.4577    1.9068 H   0  0  0  0  0  0  0  0  0  0  0  0
    4.0423    4.1726    0.9265 H   0  0  0  0  0  0  0  0  0  0  0  0
  1  8  1  0  0  0  0
  2  1  1  0  0  0  0
  3  1  1  0  0  0  0
  5  4  1  0  0  0  0
  5  6  1  0  0  0  0
  7  5  1  0  0  0  0
  8  5  1  0  0  0  0
  8  9  1  1  0  0  0
 10  8  1  0  0  0  0
 10 13  1  0  0  0  0
 11 10  1  0  0  0  0
 12 10  1  0  0  0  0
 13 14  1  0  0  0  0
 13 19  1  0  0  0  0
 15 17  1  0  0  0  0
 15 13  1  0  0  0  0
 16 15  1  0  0  0  0
 18 15  1  0  0  0  0
 19 21  1  0  0  0  0
 19 20  1  0  0  0  0
 22 19  1  0  0  0  0
M  END
