1,2
q = -1.0, confidence = 0.0

 20 19  0  0  1  0  0  0  0  0999 V2000
    0.9757   -1.0278   -1.7601 O   0  0  0  0  0  1  0  0  0  0  0  0
    1.6887   -1.6674    0.2325 N   0  0  0  0  0  2  0  0  0  0  0  0
    1.8297   -1.7339   -1.0823 C   0  0  1  0  0  3  0  0  0  0  0  0
    2.8287   -2.5250   -1.8947 C   0  0  0  0  0  0  0  0  0  0  0  0
    2.4107   -3.5302   -2.1084 H   0  0  0  0  0  0  0  0  0  0  0  0
    3.8010   -2.6577   -1.3898 H   0  0  0  0  0  0  0  0  0  0  0  0
    2.9734   -2.0104   -2.8626 H   0  0  0  0  0  0  0  0  0  0  0  0
    2.5362   -2.3139    1.2544 C   0  0  0  0  0  0  0  0  0  0  0  0
    2.6578   -3.8340    1.0127 C   0  0  0  0  0  0  0  0  0  0  0  0
    1.6487   -4.2822    0.9102 H   0  0  0  0  0  0  0  0  0  0  0  0
    3.1578   -4.3145    1.8777 H   0  0  0  0  0  0  0  0  0  0  0  0
    3.2438   -4.0891    0.1104 H   0  0  0  0  0  0  0  0  0  0  0  0
    3.9257   -1.6414    1.2852 C   0  0  0  0  0  0  0  0  0  0  0  0
    4.4685   -1.7469    0.3250 H   0  0  0  0  0  0  0  0  0  0  0  0
    4.5572   -2.0862    2.0809 H   0  0  0  0  0  0  0  0  0  0  0  0
    3.8138   -0.5596    1.4974 H   0  0  0  0  0  0  0  0  0  0  0  0
    1.8679   -2.1073    2.6257 C   0  0  0  0  0  0  0  0  0  0  0  0
    1.7255   -1.0305    2.8311 H   0  0  0  0  0  0  0  0  0  0  0  0
    2.4968   -2.5544    3.4217 H   0  0  0  0  0  0  0  0  0  0  0  0
    0.8682   -2.5800    2.6513 H   0  0  0  0  0  0  0  0  0  0  0  0
  2  8  1  0  0  0  0
  3  1  1  6  0  0  0
  3  2  1  0  0  0  0
  4  6  1  0  0  0  0
  4  3  1  0  0  0  0
  5  4  1  0  0  0  0
  7  4  1  0  0  0  0
  8 13  1  0  0  0  0
  8 17  1  0  0  0  0
  9  8  1  0  0  0  0
  9 11  1  0  0  0  0
 10  9  1  0  0  0  0
 12  9  1  0  0  0  0
 13 16  1  0  0  0  0
 13 15  1  0  0  0  0
 14 13  1  0  0  0  0
 17 20  1  0  0  0  0
 17 18  1  0  0  0  0
 17 19  1  0  0  0  0
M  END
