1,2
q = -1.0, confidence = 0.002

 11 10  0  0  1  0  0  0  0  0999 V2000
    1.4339   -0.5216   -1.8841 O   0  0  0  0  0  1  0  0  0  0  0  0
    2.2274    0.0607    0.0971 N   0  0  0  0  0  2  0  0  0  0  0  0
    2.4654   -0.1840   -1.1864 C   0  0  2  0  0  3  0  0  0  0  0  0
    3.8147   -0.0545   -1.8456 C   0  0  0  0  0  0  0  0  0  0  0  0
    3.7673   -0.4609   -2.8712 H   0  0  0  0  0  0  0  0  0  0  0  0
    4.5990   -0.5819   -1.2662 H   0  0  0  0  0  0  0  0  0  0  0  0
    4.1063    1.0152   -1.8952 H   0  0  0  0  0  0  0  0  0  0  0  0
    3.1987    0.5516    1.0382 C   0  0  0  0  0  0  0  0  0  0  0  0
    3.3859    1.6451    0.9205 H   0  0  0  0  0  0  0  0  0  0  0  0
    4.1825    0.0370    0.9526 H   0  0  0  0  0  0  0  0  0  0  0  0
    2.8222    0.3916    2.0679 H   0  0  0  0  0  0  0  0  0  0  0  0
  2  8  1  0  0  0  0
  3  1  1  6  0  0  0
  3  2  1  0  0  0  0
  4  6  1  0  0  0  0
  4  3  1  0  0  0  0
  5  4  1  0  0  0  0
  7  4  1  0  0  0  0
  8 11  1  0  0  0  0
  9  8  1  0  0  0  0
 10  8  1  0  0  0  0
M  END
