1,3
q = -1.0, confidence = 0.0

 24 26  0  0  1  0  0  0  0  0999 V2000
   -1.3969   -2.0822   -0.9020 O   0  5  0  0  0  0  0  0  0  0  0  0
   -1.9548    0.5999    2.3124 O   0  0  0  0  0  0  0  0  0  0  0  0
   -0.4216   -0.2078    0.8610 N   0  0  0  0  0  2  0  0  0  0  0  0
   -2.5870   -1.8440   -0.4240 C   0  0  0  0  0  0  0  0  0  0  0  0
   -3.7002   -2.5916   -0.9108 C   0  0  0  0  0  0  0  0  0  0  0  0
   -4.9849   -2.3517   -0.4409 C   0  0  0  0  0  0  0  0  0  0  0  0
   -5.2218   -1.3679    0.5538 C   0  0  0  0  0  0  0  0  0  0  0  0
   -4.1595   -0.6382    1.0705 C   0  0  0  0  0  0  0  0  0  0  0  0
   -2.8323   -0.8518    0.6007 C   0  0  0  0  0  0  0  0  0  0  0  0
   -1.7343   -0.1701    1.2007 C   0  0  1  0  0  3  0  0  0  0  0  0
    0.2590    0.5225    1.8554 C   0  0  0  0  0  0  0  0  0  0  0  0
    1.6174    0.7550    2.1244 C   0  0  0  0  0  0  0  0  0  0  0  0
    1.9268    1.5450    3.2426 C   0  0  0  0  0  0  0  0  0  0  0  0
    0.9247    2.0789    4.0810 C   0  0  0  0  0  0  0  0  0  0  0  0
   -0.4360    1.8221    3.8434 C   0  0  0  0  0  0  0  0  0  0  0  0
   -0.7216    1.0351    2.7297 C   0  0  0  0  0  0  0  0  0  0  0  0
   -3.4947   -3.3465   -1.6831 H   0  0  0  0  0  0  0  0  0  0  0  0
   -5.8291   -2.9290   -0.8484 H   0  0  0  0  0  0  0  0  0  0  0  0
   -6.2432   -1.1870    0.9190 H   0  0  0  0  0  0  0  0  0  0  0  0
   -4.3247    0.1139    1.8550 H   0  0  0  0  0  0  0  0  0  0  0  0
    2.4088    0.3176    1.5054 H   0  0  0  0  0  0  0  0  0  0  0  0
    2.9834    1.7430    3.4759 H   0  0  0  0  0  0  0  0  0  0  0  0
    1.2125    2.6924    4.9474 H   0  0  0  0  0  0  0  0  0  0  0  0
   -1.2331    2.2028    4.4961 H   0  0  0  0  0  0  0  0  0  0  0  0
  1  4  1  0  0  0  0
  2 16  1  0  0  0  0
  3 10  1  0  0  0  0
  3 11  1  0  0  0  0
  4  9  1  0  0  0  0
  5  6  1  0  0  0  0
  5  4  2  0  0  0  0
  6  7  2  0  0  0  0
  7 19  1  0  0  0  0
  7  8  1  0  0  0  0
  8 20  1  0  0  0  0
  9  8  2  0  0  0  0
 10  9  1  1  0  0  0
 10  2  1  0  0  0  0
 11 12  2  0  0  0  0
 11 16  1  0  0  0  0
 12 13  1  0  0  0  0
 13 22  1  0  0  0  0
 13 14  2  0  0  0  0
 14 23  1  0  0  0  0
 15 14  1  0  0  0  0
 15 24  1  0  0  0  0
 16 15  2  0  0  0  0
 17  5  1  0  0  0  0
 18  6  1  0  0  0  0
 21 12  1  0  0  0  0
M  CHG  1   1  -1
M  END
