2,3
q = -1.0, confidence = 0.016

 13 13  0  0  0  0  0  0  0  0999 V2000
   -5.0402   -0.6410    0.7990 Br  0  0  0  0  0  0  0  0  0  0  0  0
    1.0304   -0.7530   -2.1085 O   0  5  0  0  0  0  0  0  0  0  0  0
   -1.1846   -0.5832   -0.6615 N   0  0  0  0  0  2  0  0  0  0  0  0
   -2.2895   -0.4190    0.1014 C   0  0  0  0  0  3  0  0  0  0  0  0
   -2.1702    0.0986    1.0638 H   0  0  0  0  0  0  0  0  0  0  0  0
   -0.0196   -1.8684   -3.7793 O   0  0  0  0  0  0  0  0  0  0  0  0
   -3.5403   -0.8999   -0.3168 C   0  0  0  0  0  0  0  0  0  0  0  0
   -1.2839   -1.2142   -1.8651 C   0  0  0  0  0  0  0  0  0  0  0  0
   -0.0085   -1.3222   -2.6847 C   0  0  0  0  0  0  0  0  0  0  0  0
   -2.5052   -1.7152   -2.3282 C   0  0  0  0  0  0  0  0  0  0  0  0
   -2.5061   -2.2149   -3.3083 H   0  0  0  0  0  0  0  0  0  0  0  0
   -3.6591   -1.5652   -1.5509 C   0  0  0  0  0  0  0  0  0  0  0  0
   -4.6327   -1.9495   -1.8868 H   0  0  0  0  0  0  0  0  0  0  0  0
  3  4  1  0  0  0  0
  4  5  1  0  0  0  0
  6  9  2  0  0  0  0
  7  4  1  0  0  0  0
  7  1  1  0  0  0  0
  8  3  1  0  0  0  0
  9  2  1  0  0  0  0
  9  8  1  0  0  0  0
 10  8  2  0  0  0  0
 10 12  1  0  0  0  0
 11 10  1  0  0  0  0
 12  7  2  0  0  0  0
 13 12  1  0  0  0  0
M  CHG  1   2  -1
M  END
