2,3
q = 0.0, confidence = 0.97

 54 57  0  0  0  0  0  0  0  0999 V2000
    2.0200   -0.8021    0.0520 P   0  0  0  0  0  4  0  0  0  0  0  0
    2.9811    0.3963    0.0069 O   0  0  0  0  0  1  0  0  0  0  0  0
    0.2341    1.1226    0.0186 N   0  0  0  0  0  2  0  0  0  0  0  0
   -3.1496   -1.7601   -0.1250 N   0  0  0  0  0  4  0  0  0  0  0  0
   -2.8955   -2.7436   -0.2523 H   0  0  0  0  0  0  0  0  0  0  0  0
    0.2571   -0.1764   -0.0484 C   0  0  0  0  0  0  0  0  0  0  0  0
   -0.8002   -1.1496   -0.1354 C   0  0  0  0  0  0  0  0  0  0  0  0
   -0.4889   -2.1964   -0.2948 H   0  0  0  0  0  0  0  0  0  0  0  0
   -2.1444   -0.8581   -0.0410 C   0  0  0  0  0  0  0  0  0  0  0  0
   -2.4626    0.1784    0.1250 H   0  0  0  0  0  0  0  0  0  0  0  0
   -4.5297   -1.4917   -0.0638 C   0  0  0  0  0  0  0  0  0  0  0  0
   -5.0414   -0.1767   -0.0019 C   0  0  0  0  0  0  0  0  0  0  0  0
   -4.3752    0.6978   -0.0154 H   0  0  0  0  0  0  0  0  0  0  0  0
   -6.4260    0.0224    0.0633 C   0  0  0  0  0  0  0  0  0  0  0  0
   -6.8115    1.0520    0.1104 H   0  0  0  0  0  0  0  0  0  0  0  0
   -7.3160   -1.0640    0.0618 C   0  0  0  0  0  0  0  0  0  0  0  0
   -8.4013   -0.8939    0.1111 H   0  0  0  0  0  0  0  0  0  0  0  0
   -6.8044   -2.3692   -0.0077 C   0  0  0  0  0  0  0  0  0  0  0  0
   -7.4860   -3.2329   -0.0126 H   0  0  0  0  0  0  0  0  0  0  0  0
   -5.4225   -2.5849   -0.0689 C   0  0  0  0  0  0  0  0  0  0  0  0
   -5.0252   -3.6115   -0.1184 H   0  0  0  0  0  0  0  0  0  0  0  0
   -0.9376    1.9099    0.0047 C   0  0  0  0  0  0  0  0  0  0  0  0
   -1.5410    2.2637   -1.2203 C   0  0  0  0  0  0  0  0  0  0  0  0
   -1.0614    1.9467   -2.1568 H   0  0  0  0  0  0  0  0  0  0  0  0
   -2.7088    3.0389   -1.2099 C   0  0  0  0  0  0  0  0  0  0  0  0
   -3.1808    3.3162   -2.1648 H   0  0  0  0  0  0  0  0  0  0  0  0
   -3.2662    3.4761    0.0047 C   0  0  0  0  0  0  0  0  0  0  0  0
   -4.1818    4.0863    0.0045 H   0  0  0  0  0  0  0  0  0  0  0  0
   -2.6260    3.1648    1.2163 C   0  0  0  0  0  0  0  0  0  0  0  0
   -3.0326    3.5392    2.1680 H   0  0  0  0  0  0  0  0  0  0  0  0
   -1.4543    2.3940    1.2235 C   0  0  0  0  0  0  0  0  0  0  0  0
   -0.9107    2.1733    2.1528 H   0  0  0  0  0  0  0  0  0  0  0  0
    2.2385   -1.9009   -1.3717 C   0  0  0  0  0  0  0  0  0  0  0  0
    2.0814   -1.2593   -2.6230 C   0  0  0  0  0  0  0  0  0  0  0  0
    1.8466   -0.1792   -2.6699 H   0  0  0  0  0  0  0  0  0  0  0  0
    2.2772   -1.9936   -3.7996 C   0  0  0  0  0  0  0  0  0  0  0  0
    2.1608   -1.4962   -4.7741 H   0  0  0  0  0  0  0  0  0  0  0  0
    2.6352   -3.3515   -3.7362 C   0  0  0  0  0  0  0  0  0  0  0  0
    2.7893   -3.9224   -4.6645 H   0  0  0  0  0  0  0  0  0  0  0  0
    2.8166   -3.9772   -2.4929 C   0  0  0  0  0  0  0  0  0  0  0  0
    3.1214   -5.0335   -2.4446 H   0  0  0  0  0  0  0  0  0  0  0  0
    2.6249   -3.2531   -1.3057 C   0  0  0  0  0  0  0  0  0  0  0  0
    2.7983   -3.7379   -0.3342 H   0  0  0  0  0  0  0  0  0  0  0  0
    2.1046   -1.6342    1.6636 C   0  0  0  0  0  0  0  0  0  0  0  0
    2.6347   -0.8369    2.7020 C   0  0  0  0  0  0  0  0  0  0  0  0
    2.9822    0.1846    2.4762 H   0  0  0  0  0  0  0  0  0  0  0  0
    2.6743   -1.3445    4.0085 C   0  0  0  0  0  0  0  0  0  0  0  0
    3.0845   -0.7230    4.8185 H   0  0  0  0  0  0  0  0  0  0  0  0
    2.1895   -2.6334    4.2828 C   0  0  0  0  0  0  0  0  0  0  0  0
    2.2275   -3.0283    5.3095 H   0  0  0  0  0  0  0  0  0  0  0  0
    1.6450   -3.4173    3.2522 C   0  0  0  0  0  0  0  0  0  0  0  0
    1.2554   -4.4231    3.4702 H   0  0  0  0  0  0  0  0  0  0  0  0
    1.5930   -2.9189    1.9425 C   0  0  0  0  0  0  0  0  0  0  0  0
    1.1485   -3.5330    1.1456 H   0  0  0  0  0  0  0  0  0  0  0  0
  1 44  1  0  0  0  0
  2  1  1  0  0  0  0
  4 11  1  0  0  0  0
  4  9  2  0  0  0  0
  5  4  1  0  0  0  0
  6  3  1  0  0  0  0
  6  1  1  0  0  0  0
  7  6  2  0  0  0  0
  7  9  1  0  0  0  0
  8  7  1  0  0  0  0
  9 10  1  0  0  0  0
 11 12  1  0  0  0  0
 12 14  2  0  0  0  0
 13 12  1  0  0  0  0
 14 15  1  0  0  0  0
 16 14  1  0  0  0  0
 16 17  1  0  0  0  0
 18 16  2  0  0  0  0
 19 18  1  0  0  0  0
 20 11  2  0  0  0  0
 20 18  1  0  0  0  0
 21 20  1  0  0  0  0
 22  3  1  0  0  0  0
 22 31  1  0  0  0  0
 23 25  1  0  0  0  0
 23 22  2  0  0  0  0
 24 23  1  0  0  0  0
 25 27  2  0  0  0  0
 26 25  1  0  0  0  0
 27 29  1  0  0  0  0
 28 27  1  0  0  0  0
 29 31  2  0  0  0  0
 29 30  1  0  0  0  0
 31 32  1  0  0  0  0
 33 42  1  0  0  0  0
 33  1  1  0  0  0  0
 34 33  2  0  0  0  0
 35 34  1  0  0  0  0
 36 38  2  0  0  0  0
 36 34  1  0  0  0  0
 37 36  1  0  0  0  0
 38 40  1  0  0  0  0
 39 38  1  0  0  0  0
 40 41  1  0  0  0  0
 40 42  2  0  0  0  0
 42 43  1  0  0  0  0
 44 53  2  0  0  0  0
 44 45  1  0  0  0  0
 45 47  2  0  0  0  0
 46 45  1  0  0  0  0
 47 49  1  0  0  0  0
 47 48  1  0  0  0  0
 49 50  1  0  0  0  0
 51 52  1  0  0  0  0
 51 49  2  0  0  0  0
 53 51  1  0  0  0  0
 54 53  1  0  0  0  0
M  END
