1,2
q = -1.0, confidence = 0.002

 30 32  0  0  1  0  0  0  0  0999 V2000
    0.5962    1.6980    0.7634 N   0  0  0  0  0  2  0  0  0  0  0  0
   -1.4725    1.4422   -1.2886 O   0  5  0  0  0  0  0  0  0  0  0  0
    1.8029    1.6209    1.6083 C   0  0  2  0  0  0  0  0  0  0  0  0
    1.6485    0.8569    2.3963 H   0  0  0  0  0  0  0  0  0  0  0  0
    1.8552    3.0468    2.2091 C   0  0  0  0  0  0  0  0  0  0  0  0
    1.4088    3.0920    3.2267 H   0  0  0  0  0  0  0  0  0  0  0  0
    2.8721    3.4810    2.2338 H   0  0  0  0  0  0  0  0  0  0  0  0
    1.0416    3.8334    1.3178 O   0  0  0  0  0  0  0  0  0  0  0  0
    0.2736    2.9640    0.6002 C   0  0  2  0  0  3  0  0  0  0  0  0
   -0.7686    3.5330   -0.2211 C   0  0  0  0  0  0  0  0  0  0  0  0
   -1.5646    2.7289   -1.1291 C   0  0  0  0  0  0  0  0  0  0  0  0
   -2.5255    3.4326   -1.9300 C   0  0  0  0  0  0  0  0  0  0  0  0
   -3.1236    2.8204   -2.6208 H   0  0  0  0  0  0  0  0  0  0  0  0
   -2.7052    4.8048   -1.8345 C   0  0  0  0  0  0  0  0  0  0  0  0
   -3.4632    5.2959   -2.4656 H   0  0  0  0  0  0  0  0  0  0  0  0
   -1.9326    5.5781   -0.9328 C   0  0  0  0  0  0  0  0  0  0  0  0
   -2.0807    6.6649   -0.8569 H   0  0  0  0  0  0  0  0  0  0  0  0
   -0.9821    4.9409   -0.1476 C   0  0  0  0  0  0  0  0  0  0  0  0
   -0.3640    5.5186    0.5537 H   0  0  0  0  0  0  0  0  0  0  0  0
    3.0484    1.2513    0.8200 C   0  0  0  0  0  0  0  0  0  0  0  0
    3.9518    0.3055    1.3366 C   0  0  0  0  0  0  0  0  0  0  0  0
    3.7198   -0.1996    2.2875 H   0  0  0  0  0  0  0  0  0  0  0  0
    5.1198   -0.0258    0.6340 C   0  0  0  0  0  0  0  0  0  0  0  0
    5.8043   -0.7863    1.0384 H   0  0  0  0  0  0  0  0  0  0  0  0
    5.4003    0.5981   -0.5914 C   0  0  0  0  0  0  0  0  0  0  0  0
    6.3133    0.3367   -1.1477 H   0  0  0  0  0  0  0  0  0  0  0  0
    4.5065    1.5486   -1.1114 C   0  0  0  0  0  0  0  0  0  0  0  0
    4.7155    2.0327   -2.0772 H   0  0  0  0  0  0  0  0  0  0  0  0
    3.3347    1.8700   -0.4123 C   0  0  0  0  0  0  0  0  0  0  0  0
    2.6259    2.5972   -0.8372 H   0  0  0  0  0  0  0  0  0  0  0  0
  1  3  1  0  0  0  0
  2 11  1  0  0  0  0
  3  5  1  0  0  0  0
  3  4  1  1  0  0  0
  5  7  1  0  0  0  0
  5  6  1  0  0  0  0
  8  5  1  0  0  0  0
  9 10  1  1  0  0  0
  9  1  1  0  0  0  0
  9  8  1  0  0  0  0
 10 18  1  0  0  0  0
 11 10  2  0  0  0  0
 12 14  2  0  0  0  0
 12 11  1  0  0  0  0
 13 12  1  0  0  0  0
 14 16  1  0  0  0  0
 15 14  1  0  0  0  0
 16 17  1  0  0  0  0
 16 18  2  0  0  0  0
 18 19  1  0  0  0  0
 20 21  1  0  0  0  0
 20  3  1  0  0  0  0
 21 22  1  0  0  0  0
 23 24  1  0  0  0  0
 23 21  2  0  0  0  0
 25 23  1  0  0  0  0
 26 25  1  0  0  0  0
 27 25  2  0  0  0  0
 27 29  1  0  0  0  0
 28 27  1  0  0  0  0
 29 20  2  0  0  0  0
 30 29  1  0  0  0  0
M  CHG  1   2  -1
M  END
