1,7
q = -1.0, confidence = 0.0

 26 26  0  0  1  0  0  0  0  0999 V2000
    1.7455    0.0285   -0.1099 N   0  0  0  0  0  2  0  0  0  0  0  0
   -2.1554   -0.8513   -1.1782 B   0  0  0  0  0  0  0  0  0  0  0  0
   -2.2220   -2.0739   -1.8428 F   0  0  0  0  0  0  0  0  0  0  0  0
   -2.6084    0.2235   -1.9046 F   0  0  0  0  0  0  0  0  0  0  0  0
   -2.7736   -0.9431    0.0893 F   0  0  0  0  0  0  0  0  0  0  0  0
   -0.6395   -0.5812   -0.9213 O   0  0  0  0  0  0  0  0  0  0  0  0
   -0.3632   -0.2005    1.7798 O   0  0  0  0  0  1  0  0  0  0  0  0
    2.9980    0.5156    0.0352 C   0  0  0  0  0  3  0  0  0  0  0  0
    3.0797    1.5712    0.3325 H   0  0  0  0  0  0  0  0  0  0  0  0
    4.1324   -0.2733   -0.1719 C   0  0  0  0  0  0  0  0  0  0  0  0
    5.1309    0.1666   -0.0408 H   0  0  0  0  0  0  0  0  0  0  0  0
    3.9660   -1.6139   -0.5519 C   0  0  0  0  0  0  0  0  0  0  0  0
    4.8385   -2.2588   -0.7334 H   0  0  0  0  0  0  0  0  0  0  0  0
    2.6671   -2.1134   -0.7080 C   0  0  0  0  0  0  0  0  0  0  0  0
    2.4893   -3.1527   -1.0206 H   0  0  0  0  0  0  0  0  0  0  0  0
    1.5743   -1.2654   -0.4775 C   0  0  0  0  0  0  0  0  0  0  0  0
    0.1368   -1.7147   -0.5939 C   0  0  1  0  0  0  0  0  0  0  0  0
    0.0501   -2.4648   -1.4087 H   0  0  0  0  0  0  0  0  0  0  0  0
   -0.3710   -2.3770    0.7043 C   0  0  0  0  0  0  0  0  0  0  0  0
   -1.3064   -2.9332    0.4879 H   0  0  0  0  0  0  0  0  0  0  0  0
    0.3559   -3.1300    1.0830 H   0  0  0  0  0  0  0  0  0  0  0  0
   -0.6619   -1.4032    1.8219 C   0  0  2  0  0  3  0  0  0  0  0  0
   -1.3853   -1.9353    3.0223 C   0  0  0  0  0  0  0  0  0  0  0  0
   -1.2753   -1.2495    3.8814 H   0  0  0  0  0  0  0  0  0  0  0  0
   -1.0751   -2.9652    3.2844 H   0  0  0  0  0  0  0  0  0  0  0  0
   -2.4591   -1.9720    2.7339 H   0  0  0  0  0  0  0  0  0  0  0  0
  1  8  1  0  0  0  0
  2  6  1  0  0  0  0
  2  5  1  0  0  0  0
  3  2  1  0  0  0  0
  4  2  1  0  0  0  0
  6 17  1  0  0  0  0
  8  9  1  0  0  0  0
 10 11  1  0  0  0  0
 10  8  1  0  0  0  0
 12 10  2  0  0  0  0
 13 12  1  0  0  0  0
 14 12  1  0  0  0  0
 14 16  2  0  0  0  0
 15 14  1  0  0  0  0
 16  1  1  0  0  0  0
 17 18  1  6  0  0  0
 17 16  1  0  0  0  0
 17 19  1  0  0  0  0
 19 21  1  0  0  0  0
 19 22  1  0  0  0  0
 20 19  1  0  0  0  0
 22  7  1  6  0  0  0
 22 23  1  0  0  0  0
 23 25  1  0  0  0  0
 23 24  1  0  0  0  0
 26 23  1  0  0  0  0
M  END
