1,6
q = 0.0, confidence = 0.986

 52 55  0  0  1  0  0  0  0  0999 V2000
    3.5542   -0.8674    0.2121 N   0  0  0  0  0  2  0  0  0  0  0  0
    0.9067   -1.8118   -0.2217 N   0  0  0  0  0  0  0  0  0  0  0  0
   -2.3718   -0.6473   -1.0408 N   0  0  0  0  0  0  0  0  0  0  0  0
   -4.7947   -1.5958   -0.6461 N   0  0  0  0  0  0  0  0  0  0  0  0
    0.8649    0.4708    1.8357 O   0  0  0  0  0  0  0  0  0  0  0  0
   -0.4672    0.6091   -0.9332 O   0  0  0  0  0  1  0  0  0  0  0  0
    4.6830   -0.4315    0.8000 C   0  0  0  0  0  3  0  0  0  0  0  0
    4.7609    0.6607    0.9316 H   0  0  0  0  0  0  0  0  0  0  0  0
    5.6844   -1.3150    1.2242 C   0  0  0  0  0  0  0  0  0  0  0  0
    6.5970   -0.9261    1.6975 H   0  0  0  0  0  0  0  0  0  0  0  0
    5.4843   -2.6899    1.0362 C   0  0  0  0  0  0  0  0  0  0  0  0
    6.2444   -3.4157    1.3627 H   0  0  0  0  0  0  0  0  0  0  0  0
    4.2963   -3.1327    0.4380 C   0  0  0  0  0  0  0  0  0  0  0  0
    4.1006   -4.2050    0.2893 H   0  0  0  0  0  0  0  0  0  0  0  0
    3.3423   -2.1869    0.0276 C   0  0  0  0  0  0  0  0  0  0  0  0
    2.0602   -2.5904   -0.6793 C   0  0  0  0  0  0  0  0  0  0  0  0
    2.1993   -2.3880   -1.7619 H   0  0  0  0  0  0  0  0  0  0  0  0
    1.9031   -3.6886   -0.5500 H   0  0  0  0  0  0  0  0  0  0  0  0
    0.5151   -2.1984    1.1563 C   0  0  0  0  0  0  0  0  0  0  0  0
    1.4212   -2.0830    1.7871 H   0  0  0  0  0  0  0  0  0  0  0  0
    0.2299   -3.2791    1.1703 H   0  0  0  0  0  0  0  0  0  0  0  0
   -0.6096   -1.3766    1.7274 C   0  0  0  0  0  0  0  0  0  0  0  0
   -1.8923   -1.9142    1.9363 C   0  0  0  0  0  0  0  0  0  0  0  0
   -2.0691   -2.9750    1.6944 H   0  0  0  0  0  0  0  0  0  0  0  0
   -2.9429   -1.1242    2.4245 C   0  0  0  0  0  0  0  0  0  0  0  0
   -3.9425   -1.5586    2.5685 H   0  0  0  0  0  0  0  0  0  0  0  0
   -2.7045    0.2303    2.7128 C   0  0  0  0  0  0  0  0  0  0  0  0
   -3.5235    0.8670    3.0810 H   0  0  0  0  0  0  0  0  0  0  0  0
   -1.4336    0.7890    2.5271 C   0  0  0  0  0  0  0  0  0  0  0  0
   -1.2431    1.8508    2.7432 H   0  0  0  0  0  0  0  0  0  0  0  0
   -0.3784   -0.0104    2.0396 C   0  0  0  0  0  0  0  0  0  0  0  0
   -0.2135   -1.7939   -1.1579 C   0  0  0  0  0  0  0  0  0  0  0  0
   -0.8714   -2.6911   -1.0628 H   0  0  0  0  0  0  0  0  0  0  0  0
    0.2064   -1.7640   -2.1854 H   0  0  0  0  0  0  0  0  0  0  0  0
   -1.0264   -0.5017   -1.0138 C   0  0  2  0  0  3  0  0  0  0  0  0
   -3.3613    0.3149   -0.8242 C   0  0  0  0  0  0  0  0  0  0  0  0
   -3.1710    1.6946   -0.7828 C   0  0  0  0  0  0  0  0  0  0  0  0
   -2.1683    2.1057   -0.9442 H   0  0  0  0  0  0  0  0  0  0  0  0
   -4.2728    2.5462   -0.5102 C   0  0  0  0  0  0  0  0  0  0  0  0
   -4.0987    3.6321   -0.4787 H   0  0  0  0  0  0  0  0  0  0  0  0
   -5.5468    2.0451   -0.2811 C   0  0  0  0  0  0  0  0  0  0  0  0
   -6.3902    2.7189   -0.0672 H   0  0  0  0  0  0  0  0  0  0  0  0
   -5.7721    0.6392   -0.3218 C   0  0  0  0  0  0  0  0  0  0  0  0
   -7.0356    0.0245   -0.0929 C   0  0  0  0  0  0  0  0  0  0  0  0
   -7.9105    0.6572    0.1242 H   0  0  0  0  0  0  0  0  0  0  0  0
   -7.1474   -1.3570   -0.1429 C   0  0  0  0  0  0  0  0  0  0  0  0
   -8.1105   -1.8585    0.0314 H   0  0  0  0  0  0  0  0  0  0  0  0
   -5.9885   -2.1297   -0.4260 C   0  0  0  0  0  0  0  0  0  0  0  0
   -6.0566   -3.2311   -0.4707 H   0  0  0  0  0  0  0  0  0  0  0  0
   -4.6714   -0.2404   -0.6003 C   0  0  0  0  0  0  0  0  0  0  0  0
   -2.7832   -1.5960   -1.0107 H   0  0  0  0  0  0  0  0  0  0  0  0
    0.9584    1.5187    1.9700 H   0  0  0  0  0  0  0  0  0  0  0  0
  1  7  1  0  0  0  0
  2 19  1  0  0  0  0
  3 35  1  0  0  0  0
  3 51  1  0  0  0  0
  3 36  1  0  0  0  0
  4 50  2  0  0  0  0
  4 48  1  0  0  0  0
  5 52  1  0  0  0  0
  5 31  1  0  0  0  0
  7  8  1  0  0  0  0
  7  9  1  0  0  0  0
  9 10  1  0  0  0  0
 11  9  2  0  0  0  0
 11 12  1  0  0  0  0
 13 11  1  0  0  0  0
 14 13  1  0  0  0  0
 15  1  1  0  0  0  0
 15 13  2  0  0  0  0
 16 18  1  0  0  0  0
 16  2  1  0  0  0  0
 16 15  1  0  0  0  0
 17 16  1  0  0  0  0
 19 21  1  0  0  0  0
 19 22  1  0  0  0  0
 19 20  1  0  0  0  0
 22 23  2  0  0  0  0
 22 31  1  0  0  0  0
 23 25  1  0  0  0  0
 24 23  1  0  0  0  0
 25 26  1  0  0  0  0
 25 27  2  0  0  0  0
 27 28  1  0  0  0  0
 29 27  1  0  0  0  0
 29 30  1  0  0  0  0
 31 29  2  0  0  0  0
 32 33  1  0  0  0  0
 32 35  1  0  0  0  0
 32  2  1  0  0  0  0
 34 32  1  0  0  0  0
 35  6  1  6  0  0  0
 36 37  2  0  0  0  0
 36 50  1  0  0  0  0
 37 39  1  0  0  0  0
 38 37  1  0  0  0  0
 39 40  1  0  0  0  0
 39 41  2  0  0  0  0
 41 42  1  0  0  0  0
 43 41  1  0  0  0  0
 43 44  2  0  0  0  0
 44 45  1  0  0  0  0
 46 44  1  0  0  0  0
 46 47  1  0  0  0  0
 48 46  2  0  0  0  0
 49 48  1  0  0  0  0
 50 43  1  0  0  0  0
M  END
