1,3
q = -1.0, confidence = 0.006

 31 32  0  0  1  0  0  0  0  0999 V2000
    1.8392   -0.0634    0.1499 O   0  5  0  0  0  0  0  0  0  0  0  0
    0.6771   -3.9752   -0.8975 O   0  0  0  0  0  0  0  0  0  0  0  0
   -0.1165   -1.8804   -0.5541 N   0  0  0  0  0  2  0  0  0  0  0  0
    9.2726    0.4851    1.4505 N   0  0  0  0  0  0  0  0  0  0  0  0
    2.6659   -1.0601    0.0249 C   0  0  0  0  0  0  0  0  0  0  0  0
    2.2966   -2.3481   -0.3467 C   0  0  0  0  0  0  0  0  0  0  0  0
    3.0293   -3.1588   -0.4171 H   0  0  0  0  0  0  0  0  0  0  0  0
    0.9434   -2.6789   -0.5945 C   0  0  1  0  0  3  0  0  0  0  0  0
   -0.6980   -4.0166   -1.3095 C   0  0  0  0  0  0  0  0  0  0  0  0
   -1.1533   -4.9566   -0.9432 H   0  0  0  0  0  0  0  0  0  0  0  0
   -0.7344   -3.9978   -2.4217 H   0  0  0  0  0  0  0  0  0  0  0  0
   -1.3318   -2.7484   -0.6947 C   0  0  0  0  0  0  0  0  0  0  0  0
    4.0941   -0.7475    0.3252 C   0  0  0  0  0  0  0  0  0  0  0  0
    4.4096    0.2951    1.2245 C   0  0  0  0  0  0  0  0  0  0  0  0
    3.5907    0.8522    1.6971 H   0  0  0  0  0  0  0  0  0  0  0  0
    5.7358    0.6118    1.5237 C   0  0  0  0  0  0  0  0  0  0  0  0
    5.9700    1.4184    2.2330 H   0  0  0  0  0  0  0  0  0  0  0  0
    6.7905   -0.1086    0.9149 C   0  0  0  0  0  0  0  0  0  0  0  0
    6.4845   -1.1511    0.0079 C   0  0  0  0  0  0  0  0  0  0  0  0
    7.3016   -1.7054   -0.4752 H   0  0  0  0  0  0  0  0  0  0  0  0
    5.1538   -1.4631   -0.2772 C   0  0  0  0  0  0  0  0  0  0  0  0
    4.9318   -2.2584   -1.0027 H   0  0  0  0  0  0  0  0  0  0  0  0
    8.1547    0.2170    1.2095 C   0  0  0  0  0  0  0  0  0  0  0  0
   -2.3918   -2.1927   -1.6482 C   0  0  0  0  0  0  0  0  0  0  0  0
   -2.9742   -1.3810   -1.1845 H   0  0  0  0  0  0  0  0  0  0  0  0
   -3.0931   -3.0045   -1.9324 H   0  0  0  0  0  0  0  0  0  0  0  0
   -1.9156   -1.8066   -2.5709 H   0  0  0  0  0  0  0  0  0  0  0  0
   -1.8841   -3.0419    0.7091 C   0  0  0  0  0  0  0  0  0  0  0  0
   -2.0635   -2.0877    1.2339 H   0  0  0  0  0  0  0  0  0  0  0  0
   -1.1533   -3.6320    1.2980 H   0  0  0  0  0  0  0  0  0  0  0  0
   -2.8342   -3.6110    0.6515 H   0  0  0  0  0  0  0  0  0  0  0  0
  2  8  1  0  0  0  0
  5  1  1  0  0  0  0
  5 13  1  0  0  0  0
  6  5  2  0  0  0  0
  7  6  1  0  0  0  0
  8  3  1  0  0  0  0
  8  6  1  1  0  0  0
  9 10  1  0  0  0  0
  9  2  1  0  0  0  0
  9 12  1  0  0  0  0
 11  9  1  0  0  0  0
 12  3  1  0  0  0  0
 12 28  1  0  0  0  0
 13 14  1  0  0  0  0
 14 16  2  0  0  0  0
 14 15  1  0  0  0  0
 16 17  1  0  0  0  0
 18 23  1  0  0  0  0
 18 16  1  0  0  0  0
 19 18  2  0  0  0  0
 20 19  1  0  0  0  0
 21 19  1  0  0  0  0
 21 13  2  0  0  0  0
 22 21  1  0  0  0  0
 23  4  3  0  0  0  0
 24 25  1  0  0  0  0
 24 12  1  0  0  0  0
 26 24  1  0  0  0  0
 27 24  1  0  0  0  0
 28 29  1  0  0  0  0
 28 30  1  0  0  0  0
 31 28  1  0  0  0  0
M  CHG  1   1  -1
M  END
