1,2
q = -1.0, confidence = 0.014

 19 20  0  0  1  0  0  0  0  0999 V2000
   -2.2770   -1.2525   -0.8783 O   0  5  0  0  0  0  0  0  0  0  0  0
   -1.4337    0.5581    0.8497 N   0  0  0  0  0  2  0  0  0  0  0  0
   -5.3782    3.3516    0.0018 N   0  0  0  0  0  0  0  0  0  0  0  0
   -0.9557    1.4105    1.7616 C   0  0  0  0  0  0  0  0  0  0  0  0
   -1.6359    2.6051    2.0841 C   0  0  0  0  0  0  0  0  0  0  0  0
   -2.8311    2.9107    1.4368 C   0  0  0  0  0  0  0  0  0  0  0  0
   -3.3834    2.0095    0.4899 C   0  0  0  0  0  0  0  0  0  0  0  0
   -4.6258    2.2037   -0.2158 C   0  0  2  0  0  3  0  0  0  0  0  0
   -5.0054    1.2335   -1.1563 C   0  0  0  0  0  0  0  0  0  0  0  0
   -4.2365    0.0753   -1.4162 C   0  0  0  0  0  0  0  0  0  0  0  0
   -3.0471   -0.1559   -0.7243 C   0  0  0  0  0  0  0  0  0  0  0  0
   -2.6238    0.8248    0.2172 C   0  0  0  0  0  0  0  0  0  0  0  0
   -6.3136    3.3416   -0.4071 H   0  0  0  0  0  0  0  0  0  0  0  0
   -5.3854    3.7173    0.9552 H   0  0  0  0  0  0  0  0  0  0  0  0
    0.0047    1.1441    2.2285 H   0  0  0  0  0  0  0  0  0  0  0  0
   -1.1972    3.2922    2.8206 H   0  0  0  0  0  0  0  0  0  0  0  0
   -3.3323    3.8676    1.6478 H   0  0  0  0  0  0  0  0  0  0  0  0
   -5.9504    1.3725   -1.7046 H   0  0  0  0  0  0  0  0  0  0  0  0
   -4.5809   -0.6684   -2.1487 H   0  0  0  0  0  0  0  0  0  0  0  0
  1 11  1  0  0  0  0
  2  4  1  0  0  0  0
  3 14  1  0  0  0  0
  4  5  2  0  0  0  0
  4 15  1  0  0  0  0
  5 16  1  0  0  0  0
  6 17  1  0  0  0  0
  6  5  1  0  0  0  0
  7  6  2  0  0  0  0
  8  3  1  6  0  0  0
  8  7  1  0  0  0  0
  9  8  1  0  0  0  0
 10  9  2  0  0  0  0
 10 11  1  0  0  0  0
 11 12  2  0  0  0  0
 12  7  1  0  0  0  0
 12  2  1  0  0  0  0
 13  3  1  0  0  0  0
 18  9  1  0  0  0  0
 19 10  1  0  0  0  0
M  CHG  1   1  -1
M  END
