11,12
q = -2.0, confidence = 0.77

 14 14  0  0  1  0  0  0  0  0999 V2000
    1.8818    1.7118    0.6262 C   0  0  0  0  0  0  0  0  0  0  0  0
    2.3713    0.2655    0.4735 C   0  0  2  0  0  0  0  0  0  0  0  0
    2.7370   -0.0387    1.4889 H   0  0  0  0  0  0  0  0  0  0  0  0
    3.4605   -0.0438   -0.5713 C   0  0  0  0  0  0  0  0  0  0  0  0
    4.4837    0.0927   -0.1769 H   0  0  0  0  0  0  0  0  0  0  0  0
    3.3454    0.6438   -1.4351 H   0  0  0  0  0  0  0  0  0  0  0  0
    3.1208   -1.4917   -0.9772 C   0  0  0  0  0  0  0  0  0  0  0  0
    3.6208   -2.2403   -0.3247 H   0  0  0  0  0  0  0  0  0  0  0  0
    3.3692   -1.7601   -2.0217 H   0  0  0  0  0  0  0  0  0  0  0  0
    1.6104   -1.5769   -0.7462 C   0  0  0  0  0  0  0  0  0  0  0  0
    1.2421   -0.5646    0.0632 N   0  0  0  0  0  2  0  0  0  0  0  0
    0.5579    1.7734    0.8235 O   0  5  0  0  0  0  0  0  0  0  0  0
    2.6051    2.6886    0.6116 O   0  0  0  0  0  0  0  0  0  0  0  0
    0.8299   -2.4425   -1.2194 O   0  0  0  0  0  0  0  0  0  0  0  0
  1 12  1  0  0  0  0
  2  1  1  0  0  0  0
  2  3  1  1  0  0  0
  4  5  1  0  0  0  0
  4  2  1  0  0  0  0
  6  4  1  0  0  0  0
  7 10  1  0  0  0  0
  7  4  1  0  0  0  0
  7  8  1  0  0  0  0
  9  7  1  0  0  0  0
 10 11  1  0  0  0  0
 11  2  1  0  0  0  0
 13  1  2  0  0  0  0
 14 10  2  0  0  0  0
M  CHG  1  12  -1
M  END
