1,13
q = -2.0, confidence = 0.866

 56 57  0  0  0  0  0  0  0  0999 V2000
   -0.1675   -1.5225   -0.2854 O   0  5  0  0  0  0  0  0  0  0  0  0
   -1.4894   -1.2114   -0.3642 C   0  0  0  0  0  0  0  0  0  0  0  0
   -2.4750   -1.9591    0.3282 C   0  0  0  0  0  0  0  0  0  0  0  0
   -3.8070   -1.5009    0.2305 C   0  0  0  0  0  0  0  0  0  0  0  0
   -4.5804   -2.0600    0.7678 H   0  0  0  0  0  0  0  0  0  0  0  0
   -4.1922   -0.3628   -0.5033 C   0  0  0  0  0  0  0  0  0  0  0  0
   -3.1796    0.3422   -1.1850 C   0  0  0  0  0  0  0  0  0  0  0  0
   -3.4232    1.2455   -1.7667 H   0  0  0  0  0  0  0  0  0  0  0  0
   -1.8440   -0.0657   -1.1241 C   0  0  0  0  0  0  0  0  0  0  0  0
   -0.7231    0.7123   -1.7788 C   0  0  0  0  0  0  0  0  0  0  0  0
   -0.2088    0.0606   -2.5243 H   0  0  0  0  0  0  0  0  0  0  0  0
   -1.1360    1.5657   -2.3564 H   0  0  0  0  0  0  0  0  0  0  0  0
    0.2862    1.1937   -0.7972 N   0  0  0  0  0  2  0  0  0  0  0  0
    0.0205    2.4722   -0.2374 C   0  0  0  0  0  0  0  0  0  0  0  0
   -0.6391    2.6056    1.0153 C   0  0  0  0  0  0  0  0  0  0  0  0
   -0.8692    3.8996    1.5215 C   0  0  0  0  0  0  0  0  0  0  0  0
   -1.3808    4.0063    2.4915 H   0  0  0  0  0  0  0  0  0  0  0  0
   -0.4629    5.0411    0.8184 C   0  0  0  0  0  0  0  0  0  0  0  0
   -0.6524    6.0428    1.2336 H   0  0  0  0  0  0  0  0  0  0  0  0
    0.1919    4.9003   -0.4116 C   0  0  0  0  0  0  0  0  0  0  0  0
    0.5247    5.7924   -0.9657 H   0  0  0  0  0  0  0  0  0  0  0  0
    0.4424    3.6264   -0.9547 C   0  0  0  0  0  0  0  0  0  0  0  0
   -2.1000   -3.1878    1.1789 C   0  0  0  0  0  0  0  0  0  0  0  0
   -1.1665   -2.7495    2.3331 C   0  0  0  0  0  0  0  0  0  0  0  0
   -0.9037   -3.6221    2.9668 H   0  0  0  0  0  0  0  0  0  0  0  0
   -1.6672   -1.9978    2.9770 H   0  0  0  0  0  0  0  0  0  0  0  0
   -0.2283   -2.3081    1.9490 H   0  0  0  0  0  0  0  0  0  0  0  0
   -1.3897   -4.2399    0.2955 C   0  0  0  0  0  0  0  0  0  0  0  0
   -1.1097   -5.1254    0.9036 H   0  0  0  0  0  0  0  0  0  0  0  0
   -0.4713   -3.8251   -0.1593 H   0  0  0  0  0  0  0  0  0  0  0  0
   -2.0580   -4.5821   -0.5205 H   0  0  0  0  0  0  0  0  0  0  0  0
   -3.3384   -3.8566    1.8029 C   0  0  0  0  0  0  0  0  0  0  0  0
   -3.0221   -4.7418    2.3906 H   0  0  0  0  0  0  0  0  0  0  0  0
   -4.0544   -4.2060    1.0317 H   0  0  0  0  0  0  0  0  0  0  0  0
   -3.8773   -3.1760    2.4926 H   0  0  0  0  0  0  0  0  0  0  0  0
   -5.6459    0.1397   -0.5591 C   0  0  0  0  0  0  0  0  0  0  0  0
   -6.6087   -0.7731    0.2197 C   0  0  0  0  0  0  0  0  0  0  0  0
   -6.3467   -0.8277    1.2956 H   0  0  0  0  0  0  0  0  0  0  0  0
   -6.6167   -1.8050   -0.1858 H   0  0  0  0  0  0  0  0  0  0  0  0
   -7.6420   -0.3775    0.1486 H   0  0  0  0  0  0  0  0  0  0  0  0
   -6.1155    0.1975   -2.0302 C   0  0  0  0  0  0  0  0  0  0  0  0
   -5.4827    0.8742   -2.6380 H   0  0  0  0  0  0  0  0  0  0  0  0
   -7.1598    0.5687   -2.0916 H   0  0  0  0  0  0  0  0  0  0  0  0
   -6.0783   -0.8078   -2.4965 H   0  0  0  0  0  0  0  0  0  0  0  0
   -5.7100    1.5556    0.0590 C   0  0  0  0  0  0  0  0  0  0  0  0
   -5.0583    2.2699   -0.4824 H   0  0  0  0  0  0  0  0  0  0  0  0
   -5.3798    1.5380    1.1176 H   0  0  0  0  0  0  0  0  0  0  0  0
   -6.7469    1.9509    0.0266 H   0  0  0  0  0  0  0  0  0  0  0  0
   -1.0983    1.4042    1.8017 C   0  0  0  0  0  0  0  0  0  0  0  0
   -2.0482    0.9929    1.4019 H   0  0  0  0  0  0  0  0  0  0  0  0
   -1.2627    1.6673    2.8645 H   0  0  0  0  0  0  0  0  0  0  0  0
   -0.3638    0.5747    1.7662 H   0  0  0  0  0  0  0  0  0  0  0  0
    1.1614    3.4778   -2.2697 C   0  0  0  0  0  0  0  0  0  0  0  0
    0.4846    3.1199   -3.0746 H   0  0  0  0  0  0  0  0  0  0  0  0
    1.9725    2.7259   -2.1926 H   0  0  0  0  0  0  0  0  0  0  0  0
    1.5931    4.4416   -2.6017 H   0  0  0  0  0  0  0  0  0  0  0  0
  2  1  1  0  0  0  0
  2  3  1  0  0  0  0
  3 23  1  0  0  0  0
  4  3  2  0  0  0  0
  4  5  1  0  0  0  0
  6  4  1  0  0  0  0
  7  9  1  0  0  0  0
  7  6  2  0  0  0  0
  8  7  1  0  0  0  0
  9  2  2  0  0  0  0
 10  9  1  0  0  0  0
 10 13  1  0  0  0  0
 11 10  1  0  0  0  0
 12 10  1  0  0  0  0
 13 14  1  0  0  0  0
 14 15  1  0  0  0  0
 15 16  2  0  0  0  0
 15 49  1  0  0  0  0
 16 17  1  0  0  0  0
 18 19  1  0  0  0  0
 18 16  1  0  0  0  0
 20 18  2  0  0  0  0
 21 20  1  0  0  0  0
 22 20  1  0  0  0  0
 22 14  2  0  0  0  0
 23 32  1  0  0  0  0
 23 24  1  0  0  0  0
 24 25  1  0  0  0  0
 24 26  1  0  0  0  0
 27 24  1  0  0  0  0
 28 29  1  0  0  0  0
 28 23  1  0  0  0  0
 30 28  1  0  0  0  0
 31 28  1  0  0  0  0
 32 33  1  0  0  0  0
 32 35  1  0  0  0  0
 34 32  1  0  0  0  0
 36  6  1  0  0  0  0
 36 45  1  0  0  0  0
 36 37  1  0  0  0  0
 37 38  1  0  0  0  0
 39 37  1  0  0  0  0
 40 37  1  0  0  0  0
 41 36  1  0  0  0  0
 42 41  1  0  0  0  0
 43 41  1  0  0  0  0
 44 41  1  0  0  0  0
 45 47  1  0  0  0  0
 46 45  1  0  0  0  0
 48 45  1  0  0  0  0
 49 51  1  0  0  0  0
 50 49  1  0  0  0  0
 52 49  1  0  0  0  0
 53 55  1  0  0  0  0
 53 22  1  0  0  0  0
 54 53  1  0  0  0  0
 56 53  1  0  0  0  0
M  CHG  1   1  -1
M  END
