1,2
q = -1.0, confidence = 0.0

 23 23  0  0  0  0  0  0  0  0999 V2000
   -1.5068    1.2403    0.4019 O   0  5  0  0  0  0  0  0  0  0  0  0
   -0.7469   -1.7135    0.4897 N   0  0  0  0  0  0  0  0  0  0  0  0
   -2.6608    0.7426    0.0154 C   0  0  0  0  0  0  0  0  0  0  0  0
   -3.6043    1.5362   -0.7001 C   0  0  0  0  0  0  0  0  0  0  0  0
   -4.8289    1.0047   -1.1135 C   0  0  0  0  0  0  0  0  0  0  0  0
   -5.1685   -0.3341   -0.8370 C   0  0  0  0  0  0  0  0  0  0  0  0
   -4.2589   -1.1269   -0.1230 C   0  0  0  0  0  0  0  0  0  0  0  0
   -3.0256   -0.6104    0.3130 C   0  0  0  0  0  0  0  0  0  0  0  0
   -2.0803   -1.4165    1.1437 C   0  0  0  0  0  0  0  0  0  0  0  0
   -0.9802   -2.3693   -0.8151 C   0  0  0  0  0  0  0  0  0  0  0  0
    0.0028   -2.6094    1.3986 C   0  0  0  0  0  0  0  0  0  0  0  0
   -3.3341    2.5808   -0.9182 H   0  0  0  0  0  0  0  0  0  0  0  0
   -5.5346    1.6438   -1.6684 H   0  0  0  0  0  0  0  0  0  0  0  0
   -6.1311   -0.7494   -1.1689 H   0  0  0  0  0  0  0  0  0  0  0  0
   -4.5123   -2.1733    0.1177 H   0  0  0  0  0  0  0  0  0  0  0  0
   -1.8336   -0.8892    2.0893 H   0  0  0  0  0  0  0  0  0  0  0  0
   -2.5449   -2.3954    1.4019 H   0  0  0  0  0  0  0  0  0  0  0  0
   -1.5896   -1.7023   -1.4514 H   0  0  0  0  0  0  0  0  0  0  0  0
   -1.5316   -3.3274   -0.6735 H   0  0  0  0  0  0  0  0  0  0  0  0
   -0.0167   -2.5737   -1.3124 H   0  0  0  0  0  0  0  0  0  0  0  0
   -0.5561   -3.5630    1.5409 H   0  0  0  0  0  0  0  0  0  0  0  0
    0.1241   -2.1116    2.3782 H   0  0  0  0  0  0  0  0  0  0  0  0
    1.0036   -2.8254    0.9898 H   0  0  0  0  0  0  0  0  0  0  0  0
  2  9  1  0  0  0  0
  2 11  1  0  0  0  0
  3  8  1  0  0  0  0
  3  1  1  0  0  0  0
  4  3  2  0  0  0  0
  5  6  2  0  0  0  0
  5  4  1  0  0  0  0
  6  7  1  0  0  0  0
  7 15  1  0  0  0  0
  7  8  2  0  0  0  0
  8  9  1  0  0  0  0
  9 17  1  0  0  0  0
  9 16  1  0  0  0  0
 10 19  1  0  0  0  0
 10  2  1  0  0  0  0
 11 21  1  0  0  0  0
 11 22  1  0  0  0  0
 12  4  1  0  0  0  0
 13  5  1  0  0  0  0
 14  6  1  0  0  0  0
 18 10  1  0  0  0  0
 20 10  1  0  0  0  0
 23 11  1  0  0  0  0
M  CHG  1   1  -1
M  END
