11,12
q = -1.0, confidence = 0.01

 13 12  0  0  0  0  0  0  0  0999 V2000
   -4.2381    0.1690   -0.8251 C   0  0  0  0  0  0  0  0  0  0  0  0
   -4.3131    1.1423   -1.3425 H   0  0  0  0  0  0  0  0  0  0  0  0
   -4.9657    0.1366    0.0107 H   0  0  0  0  0  0  0  0  0  0  0  0
   -4.5169   -0.6343   -1.5385 H   0  0  0  0  0  0  0  0  0  0  0  0
   -2.8311   -0.0345   -0.3404 C   0  0  0  0  0  0  0  0  0  0  0  0
   -2.4442   -1.1219    0.4797 C   0  0  0  0  0  0  0  0  0  0  0  0
   -3.2949   -2.2254    1.0162 C   0  0  0  0  0  0  0  0  0  0  0  0
   -4.3507   -2.1114    0.7108 H   0  0  0  0  0  0  0  0  0  0  0  0
   -3.2444   -2.2623    2.1245 H   0  0  0  0  0  0  0  0  0  0  0  0
   -2.9219   -3.2079    0.6578 H   0  0  0  0  0  0  0  0  0  0  0  0
   -1.1044   -1.1249    0.7595 N   0  0  0  0  0  2  0  0  0  0  0  0
   -1.9434    0.8235   -0.6992 O   0  5  0  0  0  0  0  0  0  0  0  0
   -0.6122   -2.0243    1.4660 O   0  0  0  0  0  1  0  0  0  0  0  0
  1  5  1  0  0  0  0
  1  3  1  0  0  0  0
  2  1  1  0  0  0  0
  4  1  1  0  0  0  0
  5  6  2  0  0  0  0
  6 11  1  0  0  0  0
  6  7  1  0  0  0  0
  7  9  1  0  0  0  0
  8  7  1  0  0  0  0
 10  7  1  0  0  0  0
 11 13  1  0  0  0  0
 12  5  1  0  0  0  0
M  CHG  1  12  -1
M  END
