1,2
q = -1.0, confidence = 0.004

 12 12  0  0  1  0  0  0  0  0999 V2000
    0.2176    1.1074    1.5635 O   0  5  0  0  0  0  0  0  0  0  0  0
   -0.0157    1.6275   -0.5826 N   0  0  0  0  0  2  0  0  0  0  0  0
    0.1712    3.3729    1.0684 N   0  0  0  0  0  0  0  0  0  0  0  0
    0.1026    5.5956    0.4595 N   0  0  0  0  0  0  0  0  0  0  0  0
    0.0948    5.7873    1.4609 H   0  0  0  0  0  0  0  0  0  0  0  0
   -0.1946    6.3289   -0.1788 H   0  0  0  0  0  0  0  0  0  0  0  0
    0.1359    2.0770    0.7221 C   0  0  0  0  0  0  0  0  0  0  0  0
    0.0312    4.2816    0.0864 C   0  0  1  0  0  3  0  0  0  0  0  0
   -0.1588    3.9071   -1.2776 C   0  0  0  0  0  0  0  0  0  0  0  0
   -0.2812    4.6496   -2.0771 H   0  0  0  0  0  0  0  0  0  0  0  0
   -0.1744    2.5420   -1.5534 C   0  0  0  0  0  0  0  0  0  0  0  0
   -0.3165    2.1673   -2.5795 H   0  0  0  0  0  0  0  0  0  0  0  0
  2  7  1  0  0  0  0
  4  5  1  0  0  0  0
  6  4  1  0  0  0  0
  7  3  2  0  0  0  0
  7  1  1  0  0  0  0
  8  4  1  6  0  0  0
  8  3  1  0  0  0  0
  9  8  1  0  0  0  0
 10  9  1  0  0  0  0
 11  9  2  0  0  0  0
 11  2  1  0  0  0  0
 12 11  1  0  0  0  0
M  CHG  1   1  -1
M  END
