2,6
q = -1.0, confidence = 0.018

 29 28  0  0  0  0  0  0  0  0999 V2000
   -0.9292    2.0476    1.6303 O   0  0  0  0  0  0  0  0  0  0  0  0
   -0.0914    1.2351   -1.4040 O   0  5  0  0  0  0  0  0  0  0  0  0
    1.1123    2.8863   -2.3540 O   0  0  0  0  0  0  0  0  0  0  0  0
    4.8481   -0.6278   -1.1879 O   0  0  0  0  0  0  0  0  0  0  0  0
    1.1284    2.8082    0.9928 N   0  0  0  0  0  0  0  0  0  0  0  0
    1.8472    0.5777    0.2533 N   0  0  0  0  0  0  0  0  0  0  0  0
    4.0788   -0.2443    0.9329 N   0  0  0  0  0  0  0  0  0  0  0  0
   -0.8313    4.1024    0.3443 C   0  0  0  0  0  0  0  0  0  0  0  0
   -0.2523    2.9060    1.0639 C   0  0  0  0  0  0  0  0  0  0  0  0
    1.0306    1.8664   -1.6771 C   0  0  0  0  0  0  0  0  0  0  0  0
    2.2469    1.1750   -1.0501 C   0  0  0  0  0  0  0  0  0  0  0  0
    1.8251    1.6099    1.3500 C   0  0  0  0  0  0  0  0  0  0  0  0
    2.7057   -0.5841    0.6404 C   0  0  0  0  0  0  0  0  0  0  0  0
    5.0826   -0.3589   -0.0154 C   0  0  0  0  0  0  0  0  0  0  0  0
    6.4932   -0.1482    0.5128 C   0  0  0  0  0  0  0  0  0  0  0  0
    1.6153    3.4902    0.4075 H   0  0  0  0  0  0  0  0  0  0  0  0
    4.3507   -0.1079    1.9068 H   0  0  0  0  0  0  0  0  0  0  0  0
   -0.2593    5.0299    0.5461 H   0  0  0  0  0  0  0  0  0  0  0  0
   -0.7799    3.9062   -0.7490 H   0  0  0  0  0  0  0  0  0  0  0  0
   -1.8832    4.2387    0.6498 H   0  0  0  0  0  0  0  0  0  0  0  0
    2.5721    0.3478   -1.7112 H   0  0  0  0  0  0  0  0  0  0  0  0
    3.1057    1.8712   -0.9437 H   0  0  0  0  0  0  0  0  0  0  0  0
    1.3228    1.1436    2.2198 H   0  0  0  0  0  0  0  0  0  0  0  0
    2.8763    1.8682    1.6027 H   0  0  0  0  0  0  0  0  0  0  0  0
    2.6771   -1.2849   -0.2154 H   0  0  0  0  0  0  0  0  0  0  0  0
    2.2230   -1.0600    1.5128 H   0  0  0  0  0  0  0  0  0  0  0  0
    6.5331    0.3480    1.5022 H   0  0  0  0  0  0  0  0  0  0  0  0
    7.0598    0.4512   -0.2239 H   0  0  0  0  0  0  0  0  0  0  0  0
    6.9981   -1.1326    0.5894 H   0  0  0  0  0  0  0  0  0  0  0  0
  3 10  2  0  0  0  0
  4 14  2  0  0  0  0
  5  9  1  0  0  0  0
  5 12  1  0  0  0  0
  6 13  1  0  0  0  0
  6 12  1  0  0  0  0
  7 17  1  0  0  0  0
  8 18  1  0  0  0  0
  8 20  1  0  0  0  0
  8  9  1  0  0  0  0
  9  1  2  0  0  0  0
 10  2  1  0  0  0  0
 10 11  1  0  0  0  0
 11 22  1  0  0  0  0
 11  6  1  0  0  0  0
 12 24  1  0  0  0  0
 12 23  1  0  0  0  0
 13  7  1  0  0  0  0
 13 26  1  0  0  0  0
 14 15  1  0  0  0  0
 14  7  1  0  0  0  0
 15 29  1  0  0  0  0
 15 27  1  0  0  0  0
 16  5  1  0  0  0  0
 19  8  1  0  0  0  0
 21 11  1  0  0  0  0
 25 13  1  0  0  0  0
 28 15  1  0  0  0  0
M  CHG  1   2  -1
M  END
