1,2
q = -1.0, confidence = 0.02

 39 41  0  0  0  0  0  0  0  0999 V2000
   -2.6340    0.6315   -0.2442 O   0  5  0  0  0  0  0  0  0  0  0  0
   -1.3792   -1.7188   -0.1241 N   0  0  0  0  0  2  0  0  0  0  0  0
    3.2710   -1.1076    1.5818 C   0  0  0  0  0  0  0  0  0  0  0  0
    5.4537   -0.8608    0.4960 C   0  0  0  0  0  0  0  0  0  0  0  0
    6.5358   -0.6737    0.5711 H   0  0  0  0  0  0  0  0  0  0  0  0
    1.2835   -1.5206    0.2019 N   0  0  0  0  0  0  0  0  0  0  0  0
    2.6925   -1.3370    0.3058 C   0  0  0  0  0  0  0  0  0  0  0  0
   -1.3409   -4.1228   -0.1127 C   0  0  0  0  0  0  0  0  0  0  0  0
   -0.7658   -5.0547   -0.0358 H   0  0  0  0  0  0  0  0  0  0  0  0
   -2.7151   -4.1671   -0.2912 C   0  0  0  0  0  0  0  0  0  0  0  0
   -3.2351   -5.1356   -0.3574 H   0  0  0  0  0  0  0  0  0  0  0  0
   -2.7185   -1.7360   -0.2905 C   0  0  0  0  0  0  0  0  0  0  0  0
   -3.3699   -0.4311   -0.3574 C   0  0  0  0  0  0  0  0  0  0  0  0
    2.8628   -1.6397   -2.2153 C   0  0  0  0  0  0  0  0  0  0  0  0
    3.6086   -1.5322   -3.0259 H   0  0  0  0  0  0  0  0  0  0  0  0
    2.0074   -0.9609   -2.4238 H   0  0  0  0  0  0  0  0  0  0  0  0
    2.4640   -2.6754   -2.2657 H   0  0  0  0  0  0  0  0  0  0  0  0
    4.8650   -1.1027   -0.7524 C   0  0  0  0  0  0  0  0  0  0  0  0
    5.4834   -1.1111   -1.6639 H   0  0  0  0  0  0  0  0  0  0  0  0
    4.6572   -0.8690    1.6504 C   0  0  0  0  0  0  0  0  0  0  0  0
    5.1123   -0.6949    2.6381 H   0  0  0  0  0  0  0  0  0  0  0  0
   -4.7718   -0.4323   -0.5365 C   0  0  0  0  0  0  0  0  0  0  0  0
   -5.2887    0.5365   -0.5976 H   0  0  0  0  0  0  0  0  0  0  0  0
    0.7827   -2.7234    0.1443 C   0  0  0  0  0  0  0  0  0  0  0  0
    2.4257   -1.1588    2.8223 C   0  0  0  0  0  0  0  0  0  0  0  0
    3.0166   -0.8932    3.7193 H   0  0  0  0  0  0  0  0  0  0  0  0
    2.0081   -2.1763    2.9817 H   0  0  0  0  0  0  0  0  0  0  0  0
    1.5452   -0.4840    2.7595 H   0  0  0  0  0  0  0  0  0  0  0  0
   -3.4714   -2.9643   -0.3887 C   0  0  0  0  0  0  0  0  0  0  0  0
   -0.6819   -2.8607   -0.0322 C   0  0  0  0  0  0  0  0  0  0  0  0
    3.4831   -1.3515   -0.8750 C   0  0  0  0  0  0  0  0  0  0  0  0
    1.6081   -3.9786    0.2501 C   0  0  0  0  0  0  0  0  0  0  0  0
    2.6769   -3.7430    0.3983 H   0  0  0  0  0  0  0  0  0  0  0  0
    1.5016   -4.5966   -0.6647 H   0  0  0  0  0  0  0  0  0  0  0  0
    1.2569   -4.5975    1.1008 H   0  0  0  0  0  0  0  0  0  0  0  0
   -4.8742   -2.8953   -0.5663 C   0  0  0  0  0  3  0  0  0  0  0  0
   -5.4612   -3.8220   -0.6443 H   0  0  0  0  0  0  0  0  0  0  0  0
   -5.4908   -1.6415   -0.6371 C   0  0  0  0  0  0  0  0  0  0  0  0
   -6.5827   -1.5926   -0.7764 H   0  0  0  0  0  0  0  0  0  0  0  0
  2 30  1  0  0  0  0
  3 20  1  0  0  0  0
  3 25  1  0  0  0  0
  4  5  1  0  0  0  0
  4 20  2  0  0  0  0
  6  7  1  0  0  0  0
  7  3  2  0  0  0  0
  8  9  1  0  0  0  0
  8 30  2  0  0  0  0
 10  8  1  0  0  0  0
 11 10  1  0  0  0  0
 12  2  1  0  0  0  0
 13 12  2  0  0  0  0
 13  1  1  0  0  0  0
 14 31  1  0  0  0  0
 15 14  1  0  0  0  0
 16 14  1  0  0  0  0
 17 14  1  0  0  0  0
 18  4  1  0  0  0  0
 19 18  1  0  0  0  0
 20 21  1  0  0  0  0
 22 13  1  0  0  0  0
 23 22  1  0  0  0  0
 24  6  2  0  0  0  0
 24 32  1  0  0  0  0
 25 27  1  0  0  0  0
 25 26  1  0  0  0  0
 28 25  1  0  0  0  0
 29 10  2  0  0  0  0
 29 12  1  0  0  0  0
 30 24  1  0  0  0  0
 31 18  2  0  0  0  0
 31  7  1  0  0  0  0
 32 33  1  0  0  0  0
 32 35  1  0  0  0  0
 34 32  1  0  0  0  0
 36 29  1  0  0  0  0
 37 36  1  0  0  0  0
 38 36  1  0  0  0  0
 38 22  2  0  0  0  0
 39 38  1  0  0  0  0
M  CHG  1   1  -1
M  END
