1,2
q = -1.0, confidence = 0.0

 25 26  0  0  1  0  0  0  0  0999 V2000
   -2.0323   -0.8978   -0.5694 O   0  0  0  0  0  1  0  0  0  0  0  0
   -0.1682    1.2323    0.0035 N   0  0  0  0  0  2  0  0  0  0  0  0
   -1.3064    1.8783    0.1735 C   0  0  0  0  0  0  0  0  0  0  0  0
   -1.2269    2.9795    0.2473 H   0  0  0  0  0  0  0  0  0  0  0  0
   -2.6284    1.3399    0.1984 C   0  0  0  0  0  0  0  0  0  0  0  0
   -3.7019    2.2214    0.5295 C   0  0  0  0  0  0  0  0  0  0  0  0
   -3.4536    3.2523    0.8289 H   0  0  0  0  0  0  0  0  0  0  0  0
   -5.0241    1.8080    0.4820 C   0  0  0  0  0  0  0  0  0  0  0  0
   -5.8367    2.4972    0.7522 H   0  0  0  0  0  0  0  0  0  0  0  0
   -5.3130    0.4827    0.0655 C   0  0  0  0  0  0  0  0  0  0  0  0
   -6.3598    0.1441    0.0158 H   0  0  0  0  0  0  0  0  0  0  0  0
   -4.2987   -0.3984   -0.2839 C   0  0  0  0  0  0  0  0  0  0  0  0
   -4.5107   -1.4259   -0.6118 H   0  0  0  0  0  0  0  0  0  0  0  0
   -2.9239   -0.0121   -0.2162 C   0  0  1  0  0  3  0  0  0  0  0  0
    1.0167    2.0157   -0.1697 C   0  0  0  0  0  0  0  0  0  0  0  0
    1.4105    2.9543    0.7995 C   0  0  0  0  0  0  0  0  0  0  0  0
    0.8159    3.0663    1.7179 H   0  0  0  0  0  0  0  0  0  0  0  0
    2.5853    3.6938    0.6112 C   0  0  0  0  0  0  0  0  0  0  0  0
    2.9026    4.4132    1.3810 H   0  0  0  0  0  0  0  0  0  0  0  0
    3.3674    3.5023   -0.5383 C   0  0  0  0  0  0  0  0  0  0  0  0
    4.2938    4.0792   -0.6775 H   0  0  0  0  0  0  0  0  0  0  0  0
    2.9648    2.5705   -1.5086 C   0  0  0  0  0  0  0  0  0  0  0  0
    3.5671    2.4255   -2.4184 H   0  0  0  0  0  0  0  0  0  0  0  0
    1.7933    1.8250   -1.3277 C   0  0  0  0  0  0  0  0  0  0  0  0
    1.4539    1.0966   -2.0798 H   0  0  0  0  0  0  0  0  0  0  0  0
  2  3  1  0  0  0  0
  3  5  2  0  0  0  0
  3  4  1  0  0  0  0
  5  6  1  0  0  0  0
  6  7  1  0  0  0  0
  8  6  2  0  0  0  0
  8  9  1  0  0  0  0
 10  8  1  0  0  0  0
 11 10  1  0  0  0  0
 12 14  1  0  0  0  0
 12 10  2  0  0  0  0
 13 12  1  0  0  0  0
 14  1  1  6  0  0  0
 14  5  1  0  0  0  0
 15  2  1  0  0  0  0
 15 16  1  0  0  0  0
 16 17  1  0  0  0  0
 18 16  2  0  0  0  0
 18 19  1  0  0  0  0
 20 18  1  0  0  0  0
 21 20  1  0  0  0  0
 22 24  1  0  0  0  0
 22 20  2  0  0  0  0
 23 22  1  0  0  0  0
 24 15  2  0  0  0  0
 25 24  1  0  0  0  0
M  END
