2,4
q = -1.0, confidence = 0.034

 32 33  0  0  0  0  0  0  0  0999 V2000
    1.0315   -0.0209   -2.6505 F   0  0  0  0  0  0  0  0  0  0  0  0
   -1.7562    0.8864    0.8827 O   0  5  0  0  0  0  0  0  0  0  0  0
    2.7842    2.7874    0.7630 F   0  0  0  0  0  0  0  0  0  0  0  0
    0.5297    1.5354   -0.3786 N   0  0  0  0  0  2  0  0  0  0  0  0
    5.7112    0.4784   -2.1384 F   0  0  0  0  0  0  0  0  0  0  0  0
    5.3027    2.2454   -0.0940 F   0  0  0  0  0  0  0  0  0  0  0  0
    3.5597   -0.6283   -3.4437 F   0  0  0  0  0  0  0  0  0  0  0  0
   -2.3359    1.8922    0.2676 C   0  0  0  0  0  0  0  0  0  0  0  0
   -0.2031    2.4950   -0.8847 C   0  0  0  0  0  3  0  0  0  0  0  0
    0.2566    3.1535   -1.6509 H   0  0  0  0  0  0  0  0  0  0  0  0
   -1.5805    2.7648   -0.5798 C   0  0  0  0  0  0  0  0  0  0  0  0
    1.8370    1.3803   -0.9048 C   0  0  0  0  0  0  0  0  0  0  0  0
   -3.7387    2.0871    0.4248 C   0  0  0  0  0  0  0  0  0  0  0  0
    2.9512    1.9695   -0.2761 C   0  0  0  0  0  0  0  0  0  0  0  0
    2.0672    0.5365   -2.0094 C   0  0  0  0  0  0  0  0  0  0  0  0
   -2.2331    3.8472   -1.2251 C   0  0  0  0  0  0  0  0  0  0  0  0
   -1.6434    4.5112   -1.8767 H   0  0  0  0  0  0  0  0  0  0  0  0
   -4.3371    3.1677   -0.2357 C   0  0  0  0  0  0  0  0  0  0  0  0
   -5.4215    3.3162   -0.1107 H   0  0  0  0  0  0  0  0  0  0  0  0
    4.2553    1.6918   -0.7147 C   0  0  0  0  0  0  0  0  0  0  0  0
    4.4677    0.7940   -1.7731 C   0  0  0  0  0  0  0  0  0  0  0  0
    3.3684    0.2250   -2.4345 C   0  0  0  0  0  0  0  0  0  0  0  0
   -3.5974    4.0546   -1.0479 C   0  0  0  0  0  0  0  0  0  0  0  0
   -4.1026    4.8934   -1.5476 H   0  0  0  0  0  0  0  0  0  0  0  0
   -4.5201    1.1409    1.3146 C   0  0  0  0  0  0  0  0  0  0  0  0
   -3.9377    0.1978    1.3995 H   0  0  0  0  0  0  0  0  0  0  0  0
   -4.5554    1.5547    2.3470 H   0  0  0  0  0  0  0  0  0  0  0  0
   -7.0415    1.1297    1.5043 C   0  0  0  0  0  0  0  0  0  0  0  0
   -7.0124    1.5946    2.5043 H   0  0  0  0  0  0  0  0  0  0  0  0
   -8.0327    0.8850    1.0924 H   0  0  0  0  0  0  0  0  0  0  0  0
   -5.9131    0.8608    0.8252 C   0  0  0  0  0  0  0  0  0  0  0  0
   -5.9880    0.3994   -0.1757 H   0  0  0  0  0  0  0  0  0  0  0  0
  1 15  1  0  0  0  0
  5 21  1  0  0  0  0
  7 22  1  0  0  0  0
  8 13  1  0  0  0  0
  8  2  1  0  0  0  0
  9 11  1  0  0  0  0
  9  4  1  0  0  0  0
 10  9  1  0  0  0  0
 11  8  2  0  0  0  0
 12  4  1  0  0  0  0
 12 14  1  0  0  0  0
 13 25  1  0  0  0  0
 14  3  1  0  0  0  0
 15 12  2  0  0  0  0
 16 23  2  0  0  0  0
 16 11  1  0  0  0  0
 17 16  1  0  0  0  0
 18 19  1  0  0  0  0
 18 13  2  0  0  0  0
 20 14  2  0  0  0  0
 20  6  1  0  0  0  0
 21 20  1  0  0  0  0
 22 15  1  0  0  0  0
 22 21  2  0  0  0  0
 23 18  1  0  0  0  0
 24 23  1  0  0  0  0
 25 26  1  0  0  0  0
 25 27  1  0  0  0  0
 28 29  1  0  0  0  0
 30 28  1  0  0  0  0
 31 25  1  0  0  0  0
 31 28  2  0  0  0  0
 32 31  1  0  0  0  0
M  CHG  1   2  -1
M  END
