1,5
q = -1.0, confidence = 0.022

 35 36  0  0  0  0  0  0  0  0999 V2000
   -1.9666    0.3018   -0.3729 O   0  5  0  0  0  0  0  0  0  0  0  0
   -2.4360    4.9737    0.5428 O   0  0  0  0  0  0  0  0  0  0  0  0
   -6.0418    2.3329   -0.5106 O   0  0  0  0  0  0  0  0  0  0  0  0
    5.5737    4.0407    0.0700 O   0  0  0  0  0  0  0  0  0  0  0  0
    0.3488    2.0032    0.0612 N   0  0  0  0  0  2  0  0  0  0  0  0
   -4.2501    3.6456    0.0449 N   0  0  0  0  0  0  0  0  0  0  0  0
   -3.9617    1.3375   -0.4620 N   0  0  0  0  0  0  0  0  0  0  0  0
   -0.6249    2.8857    0.1702 C   0  0  0  0  0  3  0  0  0  0  0  0
   -0.3466    3.9491    0.3015 H   0  0  0  0  0  0  0  0  0  0  0  0
   -2.0227    2.6664    0.0940 C   0  0  0  0  0  0  0  0  0  0  0  0
   -2.8631    3.8556    0.2535 C   0  0  0  0  0  0  0  0  0  0  0  0
   -5.1586    4.7792    0.1950 C   0  0  0  0  0  0  0  0  0  0  0  0
   -5.9162    4.5635    0.9729 H   0  0  0  0  0  0  0  0  0  0  0  0
   -4.5420    5.6489    0.4796 H   0  0  0  0  0  0  0  0  0  0  0  0
   -5.6918    4.9734   -0.7557 H   0  0  0  0  0  0  0  0  0  0  0  0
   -4.8359    2.4389   -0.3227 C   0  0  0  0  0  0  0  0  0  0  0  0
   -4.5390    0.0543   -0.8617 C   0  0  0  0  0  0  0  0  0  0  0  0
   -4.3668   -0.7069   -0.0785 H   0  0  0  0  0  0  0  0  0  0  0  0
   -5.6183    0.2172   -1.0153 H   0  0  0  0  0  0  0  0  0  0  0  0
   -4.0617   -0.3057   -1.7928 H   0  0  0  0  0  0  0  0  0  0  0  0
   -2.5971    1.4086   -0.2360 C   0  0  0  0  0  0  0  0  0  0  0  0
    1.6880    2.4950    0.0557 C   0  0  0  0  0  0  0  0  0  0  0  0
    2.4575    2.4167   -1.1166 C   0  0  0  0  0  0  0  0  0  0  0  0
    2.0189    1.9514   -2.0114 H   0  0  0  0  0  0  0  0  0  0  0  0
    3.7620    2.9297   -1.1565 C   0  0  0  0  0  0  0  0  0  0  0  0
    4.3344    2.8639   -2.0910 H   0  0  0  0  0  0  0  0  0  0  0  0
    4.3191    3.5227   -0.0020 C   0  0  0  0  0  0  0  0  0  0  0  0
    3.5503    3.5894    1.1811 C   0  0  0  0  0  0  0  0  0  0  0  0
    4.0024    4.0494    2.0714 H   0  0  0  0  0  0  0  0  0  0  0  0
    2.2514    3.0788    1.2089 C   0  0  0  0  0  0  0  0  0  0  0  0
    1.6562    3.1249    2.1328 H   0  0  0  0  0  0  0  0  0  0  0  0
    6.3976    3.9732   -1.0792 C   0  0  0  0  0  0  0  0  0  0  0  0
    7.3618    4.4368   -0.8007 H   0  0  0  0  0  0  0  0  0  0  0  0
    6.5805    2.9217   -1.3962 H   0  0  0  0  0  0  0  0  0  0  0  0
    5.9616    4.5336   -1.9365 H   0  0  0  0  0  0  0  0  0  0  0  0
  1 21  1  0  0  0  0
  3 16  2  0  0  0  0
  5  8  1  0  0  0  0
  6 12  1  0  0  0  0
  6 11  1  0  0  0  0
  7 16  1  0  0  0  0
  7 21  1  0  0  0  0
  8  9  1  0  0  0  0
 10  8  1  0  0  0  0
 10 11  1  0  0  0  0
 11  2  2  0  0  0  0
 12 14  1  0  0  0  0
 12 13  1  0  0  0  0
 15 12  1  0  0  0  0
 16  6  1  0  0  0  0
 17  7  1  0  0  0  0
 17 18  1  0  0  0  0
 19 17  1  0  0  0  0
 20 17  1  0  0  0  0
 21 10  2  0  0  0  0
 22  5  1  0  0  0  0
 22 30  1  0  0  0  0
 23 22  2  0  0  0  0
 24 23  1  0  0  0  0
 25 23  1  0  0  0  0
 25 27  2  0  0  0  0
 26 25  1  0  0  0  0
 27  4  1  0  0  0  0
 27 28  1  0  0  0  0
 28 30  2  0  0  0  0
 28 29  1  0  0  0  0
 30 31  1  0  0  0  0
 32 33  1  0  0  0  0
 32  4  1  0  0  0  0
 34 32  1  0  0  0  0
 35 32  1  0  0  0  0
M  CHG  1   1  -1
M  END
