2,3
q = -1.0, confidence = 0.004

 41 42  0  0  1  0  0  0  0  0999 V2000
    0.9411    2.4321   -2.4067 O   0  0  0  0  0  0  0  0  0  0  0  0
    1.8210    0.0862    0.8746 O   0  5  0  0  0  0  0  0  0  0  0  0
    0.1227    1.3558   -0.6124 N   0  0  0  0  0  2  0  0  0  0  0  0
    2.8211    0.5379    0.1451 C   0  0  0  0  0  0  0  0  0  0  0  0
    2.5786    1.3534   -1.0103 C   0  0  0  0  0  0  0  0  0  0  0  0
    3.6864    1.7988   -1.8043 C   0  0  0  0  0  0  0  0  0  0  0  0
    4.9716    1.4114   -1.4000 C   0  0  0  0  0  0  0  0  0  0  0  0
    5.8320    1.7416   -2.0011 H   0  0  0  0  0  0  0  0  0  0  0  0
    5.1954    0.6261   -0.2550 C   0  0  0  0  0  0  0  0  0  0  0  0
    6.2286    0.3610    0.0139 H   0  0  0  0  0  0  0  0  0  0  0  0
    4.1411    0.1768    0.5436 C   0  0  0  0  0  0  0  0  0  0  0  0
    4.3145   -0.6229    1.8233 C   0  0  0  0  0  0  0  0  0  0  0  0
    3.4828   -1.3599    1.8490 H   0  0  0  0  0  0  0  0  0  0  0  0
    4.1217    0.2926    3.0497 C   0  0  0  0  0  0  0  0  0  0  0  0
    4.1797   -0.2973    3.9871 H   0  0  0  0  0  0  0  0  0  0  0  0
    3.1344    0.7936    3.0251 H   0  0  0  0  0  0  0  0  0  0  0  0
    4.9101    1.0730    3.0838 H   0  0  0  0  0  0  0  0  0  0  0  0
    5.6382   -1.3890    1.8935 C   0  0  0  0  0  0  0  0  0  0  0  0
    6.5095   -0.7044    1.9630 H   0  0  0  0  0  0  0  0  0  0  0  0
    5.7844   -2.0402    1.0077 H   0  0  0  0  0  0  0  0  0  0  0  0
    5.6602   -2.0311    2.7965 H   0  0  0  0  0  0  0  0  0  0  0  0
    3.5584    2.6591   -3.0369 C   0  0  0  0  0  0  0  0  0  0  0  0
    4.5613    2.8708   -3.4534 H   0  0  0  0  0  0  0  0  0  0  0  0
    3.0577    3.6223   -2.8179 H   0  0  0  0  0  0  0  0  0  0  0  0
    2.9479    2.1708   -3.8215 H   0  0  0  0  0  0  0  0  0  0  0  0
    1.1892    1.6923   -1.3025 C   0  0  1  0  0  3  0  0  0  0  0  0
   -0.4951    2.5054   -2.5729 C   0  0  0  0  0  0  0  0  0  0  0  0
   -0.7685    1.8666   -3.4382 H   0  0  0  0  0  0  0  0  0  0  0  0
   -0.7598    3.5554   -2.8021 H   0  0  0  0  0  0  0  0  0  0  0  0
   -1.0587    1.9910   -1.2335 C   0  0  2  0  0  0  0  0  0  0  0  0
   -1.8287    1.2148   -1.4121 H   0  0  0  0  0  0  0  0  0  0  0  0
   -1.6791    3.0753   -0.3205 C   0  0  0  0  0  0  0  0  0  0  0  0
   -1.8936    2.5564    0.6365 H   0  0  0  0  0  0  0  0  0  0  0  0
   -3.0068    3.5649   -0.9076 C   0  0  0  0  0  0  0  0  0  0  0  0
   -3.4990    4.2787   -0.2174 H   0  0  0  0  0  0  0  0  0  0  0  0
   -3.7091    2.7226   -1.0791 H   0  0  0  0  0  0  0  0  0  0  0  0
   -2.8662    4.0926   -1.8758 H   0  0  0  0  0  0  0  0  0  0  0  0
   -0.7057    4.2151   -0.0115 C   0  0  0  0  0  0  0  0  0  0  0  0
    0.2093    3.8300    0.4802 H   0  0  0  0  0  0  0  0  0  0  0  0
   -1.1713    4.9384    0.6871 H   0  0  0  0  0  0  0  0  0  0  0  0
   -0.4123    4.7809   -0.9215 H   0  0  0  0  0  0  0  0  0  0  0  0
  1 26  1  0  0  0  0
  4 11  1  0  0  0  0
  4  2  1  0  0  0  0
  5  4  2  0  0  0  0
  6  7  2  0  0  0  0
  6  5  1  0  0  0  0
  7  9  1  0  0  0  0
  8  7  1  0  0  0  0
  9 10  1  0  0  0  0
  9 11  2  0  0  0  0
 11 12  1  0  0  0  0
 12 13  1  0  0  0  0
 12 18  1  0  0  0  0
 12 14  1  0  0  0  0
 14 17  1  0  0  0  0
 14 15  1  0  0  0  0
 16 14  1  0  0  0  0
 18 19  1  0  0  0  0
 18 21  1  0  0  0  0
 20 18  1  0  0  0  0
 22 24  1  0  0  0  0
 22  6  1  0  0  0  0
 23 22  1  0  0  0  0
 25 22  1  0  0  0  0
 26  5  1  6  0  0  0
 26  3  1  0  0  0  0
 27  1  1  0  0  0  0
 27 30  1  0  0  0  0
 28 27  1  0  0  0  0
 29 27  1  0  0  0  0
 30 31  1  6  0  0  0
 30  3  1  0  0  0  0
 30 32  1  0  0  0  0
 32 38  1  0  0  0  0
 32 33  1  0  0  0  0
 34 32  1  0  0  0  0
 34 35  1  0  0  0  0
 36 34  1  0  0  0  0
 37 34  1  0  0  0  0
 38 39  1  0  0  0  0
 38 40  1  0  0  0  0
 41 38  1  0  0  0  0
M  CHG  1   2  -1
M  END
