1,2
q = -1.0, confidence = 0.0

 49 51  0  0  1  0  0  0  0  0999 V2000
    0.5303    1.5957    0.1126 O   0  5  0  0  0  0  0  0  0  0  0  0
   -1.3240   -0.7067    0.0166 N   0  0  0  0  0  2  0  0  0  0  0  0
   -2.1505    0.3222    0.0326 C   0  0  0  0  0  0  0  0  0  0  0  0
   -3.2168    0.0366    0.0517 H   0  0  0  0  0  0  0  0  0  0  0  0
   -1.8977    1.7290    0.0399 C   0  0  0  0  0  0  0  0  0  0  0  0
   -3.0514    2.6322    0.0047 C   0  0  1  0  0  3  0  0  0  0  0  0
   -2.8431    4.0552    0.0708 C   0  0  0  0  0  0  0  0  0  0  0  0
   -1.5031    4.5586    0.1594 C   0  0  0  0  0  0  0  0  0  0  0  0
   -1.3586    5.6499    0.2124 H   0  0  0  0  0  0  0  0  0  0  0  0
   -0.4211    3.7189    0.1722 C   0  0  0  0  0  0  0  0  0  0  0  0
    0.6081    4.1024    0.2342 H   0  0  0  0  0  0  0  0  0  0  0  0
   -0.5642    2.2800    0.1032 C   0  0  0  0  0  0  0  0  0  0  0  0
   -1.9294   -2.0030    0.0250 C   0  0  0  0  0  0  0  0  0  0  0  0
   -2.2521   -2.6216   -1.2096 C   0  0  0  0  0  0  0  0  0  0  0  0
   -2.8572   -3.8919   -1.1733 C   0  0  0  0  0  0  0  0  0  0  0  0
   -3.1272   -4.3884   -2.1174 H   0  0  0  0  0  0  0  0  0  0  0  0
   -3.1144   -4.5358    0.0436 C   0  0  0  0  0  0  0  0  0  0  0  0
   -3.5917   -5.5276    0.0514 H   0  0  0  0  0  0  0  0  0  0  0  0
   -2.7489   -3.9247    1.2502 C   0  0  0  0  0  0  0  0  0  0  0  0
   -2.9350   -4.4467    2.2006 H   0  0  0  0  0  0  0  0  0  0  0  0
   -2.1425   -2.6551    1.2665 C   0  0  0  0  0  0  0  0  0  0  0  0
   -1.7353   -1.9786    2.5694 C   0  0  0  0  0  0  0  0  0  0  0  0
   -0.9312   -1.2559    2.3090 H   0  0  0  0  0  0  0  0  0  0  0  0
   -2.9050   -1.1748    3.1663 C   0  0  0  0  0  0  0  0  0  0  0  0
   -3.2764   -0.4042    2.4622 H   0  0  0  0  0  0  0  0  0  0  0  0
   -2.5948   -0.6583    4.0980 H   0  0  0  0  0  0  0  0  0  0  0  0
   -3.7565   -1.8435    3.4115 H   0  0  0  0  0  0  0  0  0  0  0  0
   -1.1561   -2.9569    3.6003 C   0  0  0  0  0  0  0  0  0  0  0  0
   -1.9227   -3.6612    3.9851 H   0  0  0  0  0  0  0  0  0  0  0  0
   -0.7581   -2.4024    4.4743 H   0  0  0  0  0  0  0  0  0  0  0  0
   -0.3299   -3.5574    3.1690 H   0  0  0  0  0  0  0  0  0  0  0  0
   -1.9573   -1.9168   -2.5284 C   0  0  0  0  0  0  0  0  0  0  0  0
   -1.1598   -1.1724   -2.3163 H   0  0  0  0  0  0  0  0  0  0  0  0
   -1.4210   -2.8681   -3.6076 C   0  0  0  0  0  0  0  0  0  0  0  0
   -2.1900   -3.5940   -3.9443 H   0  0  0  0  0  0  0  0  0  0  0  0
   -0.5482   -3.4449   -3.2409 H   0  0  0  0  0  0  0  0  0  0  0  0
   -1.1028   -2.2945   -4.5018 H   0  0  0  0  0  0  0  0  0  0  0  0
   -3.1897   -1.1461   -3.0360 C   0  0  0  0  0  0  0  0  0  0  0  0
   -4.0361   -1.8388   -3.2259 H   0  0  0  0  0  0  0  0  0  0  0  0
   -2.9617   -0.6155   -3.9834 H   0  0  0  0  0  0  0  0  0  0  0  0
   -3.5340   -0.3903   -2.3025 H   0  0  0  0  0  0  0  0  0  0  0  0
   -4.4037    2.1939   -0.1028 C   0  0  0  0  0  0  0  0  0  0  0  0
   -4.6400    1.1237   -0.1764 H   0  0  0  0  0  0  0  0  0  0  0  0
   -5.4707    3.0889   -0.1299 C   0  0  0  0  0  0  0  0  0  0  0  0
   -6.4965    2.6985   -0.2153 H   0  0  0  0  0  0  0  0  0  0  0  0
   -5.2513    4.4822   -0.0543 C   0  0  0  0  0  0  0  0  0  0  0  0
   -6.0988    5.1830   -0.0765 H   0  0  0  0  0  0  0  0  0  0  0  0
   -3.9460    4.9489    0.0425 C   0  0  0  0  0  0  0  0  0  0  0  0
   -3.7415    6.0300    0.0969 H   0  0  0  0  0  0  0  0  0  0  0  0
  2 13  1  0  0  0  0
  2  3  1  0  0  0  0
  3  5  2  0  0  0  0
  3  4  1  0  0  0  0
  5 12  1  0  0  0  0
  6 42  1  6  0  0  0
  6  5  1  0  0  0  0
  6  7  1  0  0  0  0
  7  8  2  0  0  0  0
  8 10  1  0  0  0  0
  8  9  1  0  0  0  0
 10 11  1  0  0  0  0
 12  1  1  0  0  0  0
 12 10  2  0  0  0  0
 13 21  1  0  0  0  0
 14 15  1  0  0  0  0
 14 13  2  0  0  0  0
 15 17  2  0  0  0  0
 16 15  1  0  0  0  0
 17 18  1  0  0  0  0
 17 19  1  0  0  0  0
 19 21  2  0  0  0  0
 19 20  1  0  0  0  0
 21 22  1  0  0  0  0
 22 24  1  0  0  0  0
 22 28  1  0  0  0  0
 23 22  1  0  0  0  0
 24 27  1  0  0  0  0
 24 26  1  0  0  0  0
 25 24  1  0  0  0  0
 28 29  1  0  0  0  0
 28 30  1  0  0  0  0
 31 28  1  0  0  0  0
 32 33  1  0  0  0  0
 32 14  1  0  0  0  0
 34 36  1  0  0  0  0
 34 32  1  0  0  0  0
 35 34  1  0  0  0  0
 37 34  1  0  0  0  0
 38 32  1  0  0  0  0
 38 41  1  0  0  0  0
 39 38  1  0  0  0  0
 40 38  1  0  0  0  0
 43 42  1  0  0  0  0
 44 42  2  0  0  0  0
 44 46  1  0  0  0  0
 45 44  1  0  0  0  0
 46 48  2  0  0  0  0
 47 46  1  0  0  0  0
 48  7  1  0  0  0  0
 48 49  1  0  0  0  0
M  CHG  1   1  -1
M  END
