1,2
q = -1.0, confidence = 0.004

 25 26  0  0  1  0  0  0  0  0999 V2000
    1.3660   -0.2478    0.3363 N   0  0  0  0  0  2  0  0  0  0  0  0
    0.8852   -1.6294   -1.3119 O   0  0  0  0  0  1  0  0  0  0  0  0
    1.7999   -1.1801   -0.5272 C   0  0  2  0  0  3  0  0  0  0  0  0
    3.1743   -1.7432   -0.5825 C   0  0  0  0  0  0  0  0  0  0  0  0
    4.0357   -1.7432    0.5362 C   0  0  0  0  0  0  0  0  0  0  0  0
    3.7041   -1.2920    1.4818 H   0  0  0  0  0  0  0  0  0  0  0  0
    5.3047   -2.3291    0.4462 C   0  0  0  0  0  0  0  0  0  0  0  0
    5.9675   -2.3306    1.3248 H   0  0  0  0  0  0  0  0  0  0  0  0
    5.7292   -2.9182   -0.7569 C   0  0  0  0  0  0  0  0  0  0  0  0
    6.7289   -3.3739   -0.8245 H   0  0  0  0  0  0  0  0  0  0  0  0
    4.8707   -2.9346   -1.8686 C   0  0  0  0  0  0  0  0  0  0  0  0
    5.1950   -3.4062   -2.8088 H   0  0  0  0  0  0  0  0  0  0  0  0
    3.5970   -2.3587   -1.7799 C   0  0  0  0  0  0  0  0  0  0  0  0
    2.8998   -2.3805   -2.6300 H   0  0  0  0  0  0  0  0  0  0  0  0
    2.0831    0.7342    1.0351 C   0  0  0  0  0  0  0  0  0  0  0  0
    1.6142    1.1525    2.3009 C   0  0  0  0  0  0  0  0  0  0  0  0
    0.7211    0.6671    2.7186 H   0  0  0  0  0  0  0  0  0  0  0  0
    2.2663    2.1808    2.9921 C   0  0  0  0  0  0  0  0  0  0  0  0
    1.8844    2.4970    3.9748 H   0  0  0  0  0  0  0  0  0  0  0  0
    3.3927    2.8111    2.4370 C   0  0  0  0  0  0  0  0  0  0  0  0
    3.9010    3.6212    2.9812 H   0  0  0  0  0  0  0  0  0  0  0  0
    3.8539    2.4090    1.1723 C   0  0  0  0  0  0  0  0  0  0  0  0
    4.7234    2.9085    0.7176 H   0  0  0  0  0  0  0  0  0  0  0  0
    3.2028    1.3878    0.4686 C   0  0  0  0  0  0  0  0  0  0  0  0
    3.5455    1.0955   -0.5344 H   0  0  0  0  0  0  0  0  0  0  0  0
  1 15  1  0  0  0  0
  3  2  1  1  0  0  0
  3  1  1  0  0  0  0
  4  3  1  0  0  0  0
  4  5  1  0  0  0  0
  5  6  1  0  0  0  0
  7  5  2  0  0  0  0
  7  8  1  0  0  0  0
  9  7  1  0  0  0  0
 10  9  1  0  0  0  0
 11 13  1  0  0  0  0
 11  9  2  0  0  0  0
 12 11  1  0  0  0  0
 13  4  2  0  0  0  0
 14 13  1  0  0  0  0
 15 16  1  0  0  0  0
 16 17  1  0  0  0  0
 16 18  2  0  0  0  0
 18 19  1  0  0  0  0
 20 21  1  0  0  0  0
 20 18  1  0  0  0  0
 22 20  2  0  0  0  0
 23 22  1  0  0  0  0
 24 15  2  0  0  0  0
 24 22  1  0  0  0  0
 25 24  1  0  0  0  0
M  END
