1,6
q = -1.0, confidence = 0.02

 31 32  0  0  0  0  0  0  0  0999 V2000
   -1.7804    0.6921   -0.1018 O   0  5  0  0  0  0  0  0  0  0  0  0
    0.5217    0.8360   -0.0390 N   0  0  0  0  0  0  0  0  0  0  0  0
   -0.6826    1.4010   -0.0420 C   0  0  0  0  0  0  0  0  0  0  0  0
   -1.3233    7.0191    0.1615 O   0  0  0  0  0  0  0  0  0  0  0  0
   -0.4623    7.4637    0.2755 H   0  0  0  0  0  0  0  0  0  0  0  0
    0.4981   -0.5351   -0.0718 N   0  0  0  0  0  2  0  0  0  0  0  0
   -0.7996    2.8708    0.0146 C   0  0  0  0  0  0  0  0  0  0  0  0
    2.9153    1.6058   -0.3832 O   0  0  0  0  0  0  0  0  0  0  0  0
    1.8898    1.3845   -0.2799 H   0  0  0  0  0  0  0  0  0  0  0  0
   -2.0821    3.4604   -0.0803 C   0  0  0  0  0  0  0  0  0  0  0  0
   -2.9546    2.8006   -0.1870 H   0  0  0  0  0  0  0  0  0  0  0  0
    7.1989   -0.2491    0.0705 O   0  0  0  0  0  0  0  0  0  0  0  0
    7.6508   -1.1051    0.1922 H   0  0  0  0  0  0  0  0  0  0  0  0
   -2.2451    4.8443   -0.0324 C   0  0  0  0  0  0  0  0  0  0  0  0
   -3.2393    5.3078   -0.1058 H   0  0  0  0  0  0  0  0  0  0  0  0
   -1.1178    5.6791    0.1203 C   0  0  0  0  0  0  0  0  0  0  0  0
    0.1658    5.1013    0.2280 C   0  0  0  0  0  0  0  0  0  0  0  0
    1.0485    5.7491    0.3573 H   0  0  0  0  0  0  0  0  0  0  0  0
    0.3232    3.7150    0.1766 C   0  0  0  0  0  0  0  0  0  0  0  0
    1.3312    3.2892    0.2738 H   0  0  0  0  0  0  0  0  0  0  0  0
    1.6388   -1.2048   -0.0659 C   0  0  0  0  0  3  0  0  0  0  0  0
    1.4766   -2.2941   -0.0560 H   0  0  0  0  0  0  0  0  0  0  0  0
    3.0321   -0.8202   -0.0460 C   0  0  0  0  0  0  0  0  0  0  0  0
    3.6172    0.5016   -0.1827 C   0  0  0  0  0  0  0  0  0  0  0  0
    5.0216    0.6360   -0.1334 C   0  0  0  0  0  0  0  0  0  0  0  0
    5.4518    1.6407   -0.2380 H   0  0  0  0  0  0  0  0  0  0  0  0
    5.8624   -0.4692    0.0345 C   0  0  0  0  0  0  0  0  0  0  0  0
    5.3107   -1.7706    0.1557 C   0  0  0  0  0  0  0  0  0  0  0  0
    5.9667   -2.6460    0.2825 H   0  0  0  0  0  0  0  0  0  0  0  0
    3.9334   -1.9172    0.1081 C   0  0  0  0  0  0  0  0  0  0  0  0
    3.5020   -2.9262    0.1997 H   0  0  0  0  0  0  0  0  0  0  0  0
  1  3  1  0  0  0  0
  3  2  2  0  0  0  0
  3  7  1  0  0  0  0
  4  5  1  0  0  0  0
  6 21  1  0  0  0  0
  6  2  1  0  0  0  0
  7 19  1  0  0  0  0
  8  9  1  0  0  0  0
  8 24  1  0  0  0  0
 10 14  1  0  0  0  0
 10  7  2  0  0  0  0
 11 10  1  0  0  0  0
 12 13  1  0  0  0  0
 14 16  2  0  0  0  0
 15 14  1  0  0  0  0
 16  4  1  0  0  0  0
 16 17  1  0  0  0  0
 17 18  1  0  0  0  0
 19 17  2  0  0  0  0
 19 20  1  0  0  0  0
 21 22  1  0  0  0  0
 21 23  1  0  0  0  0
 23 30  1  0  0  0  0
 24 25  1  0  0  0  0
 24 23  2  0  0  0  0
 25 27  2  0  0  0  0
 26 25  1  0  0  0  0
 27 12  1  0  0  0  0
 27 28  1  0  0  0  0
 28 29  1  0  0  0  0
 30 28  2  0  0  0  0
 30 31  1  0  0  0  0
M  CHG  1   1  -1
M  END
