1,2
q = 0.0, confidence = 1.0

 38 38  0  0  0  0  0  0  0  0999 V2000
    0.2726    0.5328   -1.1272 O   0  5  0  0  0  0  0  0  0  0  0  0
   -0.9037   -2.1300   -0.2359 N   0  0  0  0  0  0  0  0  0  0  0  0
    1.0227    2.7254    0.0543 N   0  3  0  0  0  0  0  0  0  0  0  0
    0.3446    2.0310   -0.4446 H   0  0  0  0  0  0  0  0  0  0  0  0
   -1.9923   -2.9086   -0.8718 C   0  0  0  0  0  0  0  0  0  0  0  0
   -1.7174   -3.9875   -0.9129 H   0  0  0  0  0  0  0  0  0  0  0  0
   -2.1573   -2.5309   -1.8981 H   0  0  0  0  0  0  0  0  0  0  0  0
   -2.9165   -2.7627   -0.2835 H   0  0  0  0  0  0  0  0  0  0  0  0
   -0.6768   -2.6108    1.1458 C   0  0  0  0  0  0  0  0  0  0  0  0
   -0.4117   -3.6934    1.1383 H   0  0  0  0  0  0  0  0  0  0  0  0
   -1.6030   -2.4403    1.7251 H   0  0  0  0  0  0  0  0  0  0  0  0
    0.1526   -2.0373    1.5994 H   0  0  0  0  0  0  0  0  0  0  0  0
    0.3415   -2.2766   -1.0574 C   0  0  0  0  0  0  0  0  0  0  0  0
    0.6168   -3.3555   -1.0816 H   0  0  0  0  0  0  0  0  0  0  0  0
    0.0666   -1.9656   -2.0862 H   0  0  0  0  0  0  0  0  0  0  0  0
    1.5026   -1.4581   -0.5748 C   0  0  0  0  0  0  0  0  0  0  0  0
    2.6846   -2.0254   -0.0825 C   0  0  0  0  0  0  0  0  0  0  0  0
    2.7534   -3.1242   -0.0121 H   0  0  0  0  0  0  0  0  0  0  0  0
    3.7861   -1.2401    0.3223 C   0  0  0  0  0  0  0  0  0  0  0  0
    3.6606    0.1571    0.2141 C   0  0  0  0  0  0  0  0  0  0  0  0
    4.5019    0.7983    0.5277 H   0  0  0  0  0  0  0  0  0  0  0  0
    2.4934    0.7620   -0.2799 C   0  0  0  0  0  0  0  0  0  0  0  0
    1.3844   -0.0422   -0.6773 C   0  0  0  0  0  0  0  0  0  0  0  0
    5.0480   -1.8841    0.8408 C   0  0  0  0  0  0  0  0  0  0  0  0
    4.8343   -2.6063    1.6560 H   0  0  0  0  0  0  0  0  0  0  0  0
    5.7568   -1.1306    1.2362 H   0  0  0  0  0  0  0  0  0  0  0  0
    5.5757   -2.4495    0.0430 H   0  0  0  0  0  0  0  0  0  0  0  0
    2.3671    2.2519   -0.4332 C   0  0  0  0  0  0  0  0  0  0  0  0
    3.1618    2.8009    0.1116 H   0  0  0  0  0  0  0  0  0  0  0  0
    2.4123    2.5492   -1.5027 H   0  0  0  0  0  0  0  0  0  0  0  0
    0.6930    4.1026   -0.3758 C   0  0  0  0  0  0  0  0  0  0  0  0
   -0.3591    4.2980   -0.1010 H   0  0  0  0  0  0  0  0  0  0  0  0
    0.7943    4.1695   -1.4743 H   0  0  0  0  0  0  0  0  0  0  0  0
    1.3782    4.8226    0.1131 H   0  0  0  0  0  0  0  0  0  0  0  0
    0.8256    2.5309    1.5142 C   0  0  0  0  0  0  0  0  0  0  0  0
   -0.2498    2.6822    1.7230 H   0  0  0  0  0  0  0  0  0  0  0  0
    1.4625    3.2446    2.0722 H   0  0  0  0  0  0  0  0  0  0  0  0
    1.0998    1.4917    1.7705 H   0  0  0  0  0  0  0  0  0  0  0  0
  1 23  1  0  0  0  0
  2  9  1  0  0  0  0
  3 35  1  0  0  0  0
  4  3  1  0  0  0  0
  5  8  1  0  0  0  0
  5  2  1  0  0  0  0
  6  5  1  0  0  0  0
  7  5  1  0  0  0  0
  9 12  1  0  0  0  0
  9 11  1  0  0  0  0
 10  9  1  0  0  0  0
 13 16  1  0  0  0  0
 13  2  1  0  0  0  0
 14 13  1  0  0  0  0
 15 13  1  0  0  0  0
 16 17  1  0  0  0  0
 17 18  1  0  0  0  0
 17 19  2  0  0  0  0
 19 24  1  0  0  0  0
 20 19  1  0  0  0  0
 20 21  1  0  0  0  0
 22 20  2  0  0  0  0
 23 16  2  0  0  0  0
 23 22  1  0  0  0  0
 24 26  1  0  0  0  0
 24 25  1  0  0  0  0
 27 24  1  0  0  0  0
 28 22  1  0  0  0  0
 28  3  1  0  0  0  0
 28 29  1  0  0  0  0
 30 28  1  0  0  0  0
 31 32  1  0  0  0  0
 31  3  1  0  0  0  0
 31 34  1  0  0  0  0
 33 31  1  0  0  0  0
 35 36  1  0  0  0  0
 35 38  1  0  0  0  0
 35 37  1  0  0  0  0
M  CHG  2   1  -1   3   1
M  END
