1,3
q = -2.0, confidence = 0.512

 51 52  0  0  0  0  0  0  0  0999 V2000
    0.0454    0.7055   -0.3881 N   0  0  0  0  0  2  0  0  0  0  0  0
   -0.2016    2.1984    2.1029 S   0  0  0  0  0  0  0  0  0  0  0  0
    0.2394   -1.7722    0.0646 O   0  5  0  0  0  0  0  0  0  0  0  0
    1.4186   -1.1524   -0.0388 C   0  0  0  0  0  0  0  0  0  0  0  0
    2.6791   -1.8011    0.0926 C   0  0  0  0  0  0  0  0  0  0  0  0
    3.8168   -0.9885   -0.0352 C   0  0  0  0  0  0  0  0  0  0  0  0
    4.8027   -1.4617    0.0632 H   0  0  0  0  0  0  0  0  0  0  0  0
    3.7737    0.4103   -0.2813 C   0  0  0  0  0  0  0  0  0  0  0  0
    2.5228    1.0255   -0.4122 C   0  0  0  0  0  0  0  0  0  0  0  0
    2.4226    2.1016   -0.6013 H   0  0  0  0  0  0  0  0  0  0  0  0
    1.3555    0.2446   -0.2924 C   0  0  0  0  0  0  0  0  0  0  0  0
    2.7585   -3.3119    0.3637 C   0  0  0  0  0  0  0  0  0  0  0  0
    5.0931    1.1967   -0.3896 C   0  0  0  0  0  0  0  0  0  0  0  0
   -0.2101    2.0817   -0.6099 C   0  0  0  0  0  0  0  0  0  0  0  0
   -0.3507    2.5858   -1.9134 C   0  0  0  0  0  0  0  0  0  0  0  0
   -0.2172    1.8859   -2.7514 H   0  0  0  0  0  0  0  0  0  0  0  0
   -0.6542    3.9386   -2.1313 C   0  0  0  0  0  0  0  0  0  0  0  0
   -0.7617    4.3220   -3.1568 H   0  0  0  0  0  0  0  0  0  0  0  0
   -0.8130    4.7955   -1.0316 C   0  0  0  0  0  0  0  0  0  0  0  0
   -1.0501    5.8588   -1.1875 H   0  0  0  0  0  0  0  0  0  0  0  0
   -0.6713    4.3087    0.2774 C   0  0  0  0  0  0  0  0  0  0  0  0
   -0.8043    4.9983    1.1218 H   0  0  0  0  0  0  0  0  0  0  0  0
   -0.3710    2.9505    0.5048 C   0  0  0  0  0  0  0  0  0  0  0  0
    4.2118   -3.8057    0.4659 C   0  0  0  0  0  0  0  0  0  0  0  0
    4.7766   -3.6279   -0.4717 H   0  0  0  0  0  0  0  0  0  0  0  0
    4.2203   -4.8976    0.6597 H   0  0  0  0  0  0  0  0  0  0  0  0
    4.7586   -3.3145    1.2964 H   0  0  0  0  0  0  0  0  0  0  0  0
    2.0680   -4.0754   -0.7910 C   0  0  0  0  0  0  0  0  0  0  0  0
    2.5804   -3.8747   -1.7540 H   0  0  0  0  0  0  0  0  0  0  0  0
    1.0098   -3.7676   -0.8893 H   0  0  0  0  0  0  0  0  0  0  0  0
    2.1028   -5.1696   -0.6048 H   0  0  0  0  0  0  0  0  0  0  0  0
    2.0440   -3.6298    1.6985 C   0  0  0  0  0  0  0  0  0  0  0  0
    2.5369   -3.1026    2.5407 H   0  0  0  0  0  0  0  0  0  0  0  0
    2.0821   -4.7202    1.9057 H   0  0  0  0  0  0  0  0  0  0  0  0
    0.9843   -3.3140    1.6631 H   0  0  0  0  0  0  0  0  0  0  0  0
    4.8526    2.6928   -0.6552 C   0  0  0  0  0  0  0  0  0  0  0  0
    4.2682    3.1653    0.1599 H   0  0  0  0  0  0  0  0  0  0  0  0
    4.3090    2.8588   -1.6070 H   0  0  0  0  0  0  0  0  0  0  0  0
    5.8228    3.2255   -0.7255 H   0  0  0  0  0  0  0  0  0  0  0  0
    5.8805    1.0605    0.9336 C   0  0  0  0  0  0  0  0  0  0  0  0
    6.8403    1.6162    0.8777 H   0  0  0  0  0  0  0  0  0  0  0  0
    6.1158    0.0024    1.1633 H   0  0  0  0  0  0  0  0  0  0  0  0
    5.2940    1.4658    1.7830 H   0  0  0  0  0  0  0  0  0  0  0  0
    5.9382    0.6277   -1.5518 C   0  0  0  0  0  0  0  0  0  0  0  0
    6.1738   -0.4445   -1.4005 H   0  0  0  0  0  0  0  0  0  0  0  0
    6.8997    1.1757   -1.6423 H   0  0  0  0  0  0  0  0  0  0  0  0
    5.3954    0.7195   -2.5143 H   0  0  0  0  0  0  0  0  0  0  0  0
   -0.3630    3.6265    3.2132 C   0  0  0  0  0  0  0  0  0  0  0  0
   -0.2327    3.2206    4.2344 H   0  0  0  0  0  0  0  0  0  0  0  0
   -1.3624    4.1009    3.1441 H   0  0  0  0  0  0  0  0  0  0  0  0
    0.4263    4.3816    3.0265 H   0  0  0  0  0  0  0  0  0  0  0  0
  1 11  1  0  0  0  0
  2 48  1  0  0  0  0
  4  3  1  0  0  0  0
  4  5  1  0  0  0  0
  5 12  1  0  0  0  0
  6  7  1  0  0  0  0
  6  5  2  0  0  0  0
  8  6  1  0  0  0  0
  9 11  1  0  0  0  0
  9  8  2  0  0  0  0
 10  9  1  0  0  0  0
 11  4  2  0  0  0  0
 12 24  1  0  0  0  0
 12 32  1  0  0  0  0
 13  8  1  0  0  0  0
 13 40  1  0  0  0  0
 14  1  1  0  0  0  0
 14 23  1  0  0  0  0
 15 14  2  0  0  0  0
 16 15  1  0  0  0  0
 17 15  1  0  0  0  0
 17 19  2  0  0  0  0
 18 17  1  0  0  0  0
 19 21  1  0  0  0  0
 20 19  1  0  0  0  0
 21 23  2  0  0  0  0
 21 22  1  0  0  0  0
 23  2  1  0  0  0  0
 24 26  1  0  0  0  0
 24 27  1  0  0  0  0
 25 24  1  0  0  0  0
 28 31  1  0  0  0  0
 28 12  1  0  0  0  0
 29 28  1  0  0  0  0
 30 28  1  0  0  0  0
 32 34  1  0  0  0  0
 32 33  1  0  0  0  0
 35 32  1  0  0  0  0
 36 13  1  0  0  0  0
 36 37  1  0  0  0  0
 38 36  1  0  0  0  0
 39 36  1  0  0  0  0
 40 42  1  0  0  0  0
 40 43  1  0  0  0  0
 41 40  1  0  0  0  0
 44 45  1  0  0  0  0
 44 13  1  0  0  0  0
 46 44  1  0  0  0  0
 47 44  1  0  0  0  0
 48 49  1  0  0  0  0
 50 48  1  0  0  0  0
 51 48  1  0  0  0  0
M  CHG  1   3  -1
M  END
