7,11
q = -1.0, confidence = 0.016

 24 23  0  0  1  0  0  0  0  0999 V2000
   -2.4178    1.4961   -0.1567 C   0  0  0  0  0  0  0  0  0  0  0  0
   -2.8701    0.0187   -0.3531 C   0  0  2  0  0  0  0  0  0  0  0  0
   -4.2710   -0.2224    0.1942 C   0  0  0  0  0  0  0  0  0  0  0  0
   -4.8755   -1.5946   -0.1016 C   0  0  0  0  0  0  0  0  0  0  0  0
   -6.3620   -1.6866    0.2884 C   0  0  0  0  0  0  0  0  0  0  0  0
   -7.9274    0.2938   -0.0740 C   0  0  0  0  0  0  0  0  0  0  0  0
   -1.8342   -0.8993    0.2076 N   0  0  0  0  0  0  0  0  0  0  0  0
   -7.2310   -0.8326   -0.4994 N   0  0  0  0  0  0  0  0  0  0  0  0
   -7.4689    0.8678    1.1106 N   0  0  0  0  0  0  0  0  0  0  0  0
   -3.2436    2.3984   -0.1458 O   0  5  0  0  0  0  0  0  0  0  0  0
   -1.1191    1.6749   -0.0499 O   0  0  0  0  0  0  0  0  0  0  0  0
   -8.8975    0.7229   -0.6915 O   0  0  0  0  0  0  0  0  0  0  0  0
   -2.8663   -0.1516   -1.4522 H   0  0  0  0  0  0  0  0  0  0  0  0
   -1.8545   -1.8322   -0.2283 H   0  0  0  0  0  0  0  0  0  0  0  0
   -1.9952   -1.0440    1.2171 H   0  0  0  0  0  0  0  0  0  0  0  0
   -4.9003    0.5801   -0.2443 H   0  0  0  0  0  0  0  0  0  0  0  0
   -4.2588   -0.0364    1.2938 H   0  0  0  0  0  0  0  0  0  0  0  0
   -4.3218   -2.3973    0.4354 H   0  0  0  0  0  0  0  0  0  0  0  0
   -4.7786   -1.8180   -1.1876 H   0  0  0  0  0  0  0  0  0  0  0  0
   -7.6484   -1.2273   -1.3437 H   0  0  0  0  0  0  0  0  0  0  0  0
   -6.4890   -1.4235    1.3600 H   0  0  0  0  0  0  0  0  0  0  0  0
   -6.6983   -2.7416    0.1912 H   0  0  0  0  0  0  0  0  0  0  0  0
   -6.4643    0.8701    1.2965 H   0  0  0  0  0  0  0  0  0  0  0  0
   -7.9176    1.7674    1.2916 H   0  0  0  0  0  0  0  0  0  0  0  0
  1 10  1  0  0  0  0
  1 11  2  0  0  0  0
  2 13  1  6  0  0  0
  2  1  1  0  0  0  0
  2  3  1  0  0  0  0
  2  7  1  0  0  0  0
  3 17  1  0  0  0  0
  4  3  1  0  0  0  0
  4  5  1  0  0  0  0
  4 18  1  0  0  0  0
  5 21  1  0  0  0  0
  6  9  1  0  0  0  0
  7 15  1  0  0  0  0
  8  6  1  0  0  0  0
  8  5  1  0  0  0  0
  9 24  1  0  0  0  0
  9 23  1  0  0  0  0
 12  6  2  0  0  0  0
 14  7  1  0  0  0  0
 16  3  1  0  0  0  0
 19  4  1  0  0  0  0
 20  8  1  0  0  0  0
 22  5  1  0  0  0  0
M  CHG  1  10  -1
M  END
