11,19
q = -1.0, confidence = 0.008

 30 31  0  0  1  0  0  0  0  0999 V2000
    6.9705   -0.9991    0.4241 N   0  0  0  0  0  0  0  0  0  0  0  0
    6.9603    0.6315   -0.0380 S   0  0  0  0  0  0  0  0  0  0  0  0
    7.5810    1.3627    1.0798 O   0  0  0  0  0  0  0  0  0  0  0  0
    7.4768    0.6471   -1.4175 O   0  0  0  0  0  0  0  0  0  0  0  0
    5.2230    1.1062   -0.0997 C   0  0  0  0  0  0  0  0  0  0  0  0
    4.4868    0.8512   -1.2686 C   0  0  0  0  0  0  0  0  0  0  0  0
    3.1111    1.0910   -1.2699 C   0  0  0  0  0  0  0  0  0  0  0  0
    2.4837    1.6012   -0.1163 C   0  0  0  0  0  0  0  0  0  0  0  0
    3.2410    1.9004    1.0307 C   0  0  0  0  0  0  0  0  0  0  0  0
    4.6199    1.6531    1.0418 C   0  0  0  0  0  0  0  0  0  0  0  0
    1.0649    1.7270   -0.0951 N   0  0  0  0  0  2  0  0  0  0  0  0
    0.5253    2.9244   -0.0481 C   0  0  0  0  0  0  0  0  0  0  0  0
   -0.8667    3.2584   -0.0380 C   0  0  0  0  0  0  0  0  0  0  0  0
   -1.2152    4.6409    0.0320 C   0  0  0  0  0  0  0  0  0  0  0  0
   -2.5352    5.0655    0.0090 C   0  0  0  0  0  0  0  0  0  0  0  0
   -3.5646    4.0956   -0.0973 C   0  0  0  0  0  0  0  0  0  0  0  0
   -3.2694    2.7411   -0.1739 C   0  0  0  0  0  0  0  0  0  0  0  0
   -1.9174    2.2701   -0.1401 C   0  0  1  0  0  3  0  0  0  0  0  0
   -1.7319    0.9847   -0.2115 O   0  0  0  0  0  1  0  0  0  0  0  0
    6.5749   -1.1494    1.3596 H   0  0  0  0  0  0  0  0  0  0  0  0
    6.5501   -1.6110   -0.2852 H   0  0  0  0  0  0  0  0  0  0  0  0
    4.9999    0.4622   -2.1603 H   0  0  0  0  0  0  0  0  0  0  0  0
    2.4996    0.8669   -2.1555 H   0  0  0  0  0  0  0  0  0  0  0  0
    2.7340    2.2910    1.9253 H   0  0  0  0  0  0  0  0  0  0  0  0
    5.2348    1.8697    1.9276 H   0  0  0  0  0  0  0  0  0  0  0  0
    1.2282    3.7807   -0.0400 H   0  0  0  0  0  0  0  0  0  0  0  0
   -0.3998    5.3783    0.1045 H   0  0  0  0  0  0  0  0  0  0  0  0
   -2.7810    6.1350    0.0677 H   0  0  0  0  0  0  0  0  0  0  0  0
   -4.6166    4.4222   -0.1195 H   0  0  0  0  0  0  0  0  0  0  0  0
   -4.0578    1.9781   -0.2549 H   0  0  0  0  0  0  0  0  0  0  0  0
  1 20  1  0  0  0  0
  2  1  1  0  0  0  0
  2  3  2  0  0  0  0
  4  2  2  0  0  0  0
  5  2  1  0  0  0  0
  5 10  1  0  0  0  0
  6  5  2  0  0  0  0
  7  6  1  0  0  0  0
  7  8  2  0  0  0  0
  8 11  1  0  0  0  0
  8  9  1  0  0  0  0
  9 10  2  0  0  0  0
  9 24  1  0  0  0  0
 10 25  1  0  0  0  0
 11 12  1  0  0  0  0
 12 26  1  0  0  0  0
 12 13  2  0  0  0  0
 13 14  1  0  0  0  0
 14 27  1  0  0  0  0
 15 14  2  0  0  0  0
 15 28  1  0  0  0  0
 16 15  1  0  0  0  0
 17 18  1  0  0  0  0
 17 16  2  0  0  0  0
 18 19  1  6  0  0  0
 18 13  1  0  0  0  0
 21  1  1  0  0  0  0
 22  6  1  0  0  0  0
 23  7  1  0  0  0  0
 29 16  1  0  0  0  0
 30 17  1  0  0  0  0
M  END
