1,4
q = 0.0, confidence = 0.99

 32 32  0  0  0  0  0  0  0  0999 V2000
   -0.8998   -1.6637   -0.4049 O   0  5  0  0  0  0  0  0  0  0  0  0
   -6.8969    0.1075   -0.3876 O   0  0  0  0  0  0  0  0  0  0  0  0
   -6.0483    1.7423    0.7940 O   0  0  0  0  0  0  0  0  0  0  0  0
    0.0797    0.5689    1.2921 N   0  0  0  0  0  2  0  0  0  0  0  0
    2.8106    1.8575    0.6207 N   0  3  0  0  0  0  0  0  0  0  0  0
    2.1882    1.4879   -0.2061 H   0  0  0  0  0  0  0  0  0  0  0  0
    2.6655    2.8820    0.6138 H   0  0  0  0  0  0  0  0  0  0  0  0
   -5.9526    0.6899    0.1535 N   0  0  0  0  0  0  0  0  0  0  0  0
   -2.2330    0.1507    0.5187 C   0  0  0  0  0  0  0  0  0  0  0  0
   -2.0362   -1.0858   -0.2375 C   0  0  0  0  0  0  0  0  0  0  0  0
   -3.2102   -1.6900   -0.8128 C   0  0  0  0  0  0  0  0  0  0  0  0
   -3.0534   -2.6254   -1.3687 H   0  0  0  0  0  0  0  0  0  0  0  0
   -4.4649   -1.1246   -0.6969 C   0  0  0  0  0  0  0  0  0  0  0  0
   -5.3554   -1.5821   -1.1495 H   0  0  0  0  0  0  0  0  0  0  0  0
   -4.6228    0.0859    0.0249 C   0  0  0  0  0  0  0  0  0  0  0  0
   -3.5342    0.7034    0.6232 C   0  0  0  0  0  0  0  0  0  0  0  0
   -3.7085    1.6314    1.1874 H   0  0  0  0  0  0  0  0  0  0  0  0
   -1.1980    0.8453    1.2363 C   0  0  0  0  0  3  0  0  0  0  0  0
   -1.5653    1.7168    1.8256 H   0  0  0  0  0  0  0  0  0  0  0  0
    0.8883    1.3835    2.1943 C   0  0  0  0  0  0  0  0  0  0  0  0
    0.7470    1.0302    3.2411 H   0  0  0  0  0  0  0  0  0  0  0  0
    0.5524    2.4487    2.1831 H   0  0  0  0  0  0  0  0  0  0  0  0
    2.3823    1.2765    1.9301 C   0  0  0  0  0  0  0  0  0  0  0  0
    2.9518    1.7897    2.7305 H   0  0  0  0  0  0  0  0  0  0  0  0
    2.6836    0.2060    1.9046 H   0  0  0  0  0  0  0  0  0  0  0  0
    4.2307    1.5338    0.2560 C   0  0  0  0  0  0  0  0  0  0  0  0
    4.2508    0.4297    0.1380 H   0  0  0  0  0  0  0  0  0  0  0  0
    4.8655    1.8019    1.1254 H   0  0  0  0  0  0  0  0  0  0  0  0
    4.6539    2.2519   -1.0132 C   0  0  0  0  0  0  0  0  0  0  0  0
    4.0027    1.9620   -1.8615 H   0  0  0  0  0  0  0  0  0  0  0  0
    5.6939    1.9685   -1.2645 H   0  0  0  0  0  0  0  0  0  0  0  0
    4.6266    3.3557   -0.8970 H   0  0  0  0  0  0  0  0  0  0  0  0
  1 10  1  0  0  0  0
  2  8  2  0  0  0  0
  4 20  1  0  0  0  0
  5 23  1  0  0  0  0
  6  5  1  0  0  0  0
  7  5  1  0  0  0  0
  8  3  2  0  0  0  0
  9 16  1  0  0  0  0
  9 18  1  0  0  0  0
 10  9  2  0  0  0  0
 11 13  2  0  0  0  0
 11 10  1  0  0  0  0
 12 11  1  0  0  0  0
 13 15  1  0  0  0  0
 14 13  1  0  0  0  0
 15  8  1  0  0  0  0
 15 16  2  0  0  0  0
 16 17  1  0  0  0  0
 18  4  1  0  0  0  0
 18 19  1  0  0  0  0
 20 21  1  0  0  0  0
 22 20  1  0  0  0  0
 23 20  1  0  0  0  0
 23 24  1  0  0  0  0
 25 23  1  0  0  0  0
 26  5  1  0  0  0  0
 26 28  1  0  0  0  0
 27 26  1  0  0  0  0
 29 32  1  0  0  0  0
 29 26  1  0  0  0  0
 30 29  1  0  0  0  0
 31 29  1  0  0  0  0
M  CHG  2   1  -1   5   1
M  END
