1,4
q = -1.0, confidence = 0.0

 32 33  0  0  1  0  0  0  0  0999 V2000
   -1.6256   -1.4001    0.6001 O   0  5  0  0  0  0  0  0  0  0  0  0
   -4.8359    0.9739   -0.3201 O   0  0  0  0  0  0  0  0  0  0  0  0
   -3.6232    2.8525   -0.3812 O   0  0  0  0  0  0  0  0  0  0  0  0
   -0.0935    0.9025    0.6796 N   0  0  0  0  0  2  0  0  0  0  0  0
   -2.5907   -0.5772    0.3650 C   0  0  0  0  0  0  0  0  0  0  0  0
   -2.4610    0.8461    0.2611 C   0  0  0  0  0  0  0  0  0  0  0  0
   -3.5940    1.6590   -0.1499 C   0  0  0  0  0  0  0  0  0  0  0  0
   -4.9746   -0.3516   -0.1131 C   0  0  0  0  0  0  0  0  0  0  0  0
   -3.9126   -1.1434    0.2218 C   0  0  0  0  0  0  0  0  0  0  0  0
   -4.0361   -2.2232    0.3707 H   0  0  0  0  0  0  0  0  0  0  0  0
   -6.3809   -0.8168   -0.3064 C   0  0  0  0  0  0  0  0  0  0  0  0
   -6.4696   -1.9053   -0.1398 H   0  0  0  0  0  0  0  0  0  0  0  0
   -6.7297   -0.5727   -1.3311 H   0  0  0  0  0  0  0  0  0  0  0  0
   -7.0560   -0.2849    0.3956 H   0  0  0  0  0  0  0  0  0  0  0  0
   -1.2589    1.5310    0.7024 C   0  0  1  0  0  3  0  0  0  0  0  0
    1.0151    1.5237    1.2633 N   0  0  0  0  0  0  0  0  0  0  0  0
    1.5020    0.7998    1.8184 H   0  0  0  0  0  0  0  0  0  0  0  0
    1.8578    2.3147    0.4705 C   0  0  0  0  0  0  0  0  0  0  0  0
    3.1962    2.5057    0.8899 C   0  0  0  0  0  0  0  0  0  0  0  0
    3.5466    2.0168    1.8119 H   0  0  0  0  0  0  0  0  0  0  0  0
    4.0655    3.3058    0.1410 C   0  0  0  0  0  0  0  0  0  0  0  0
    5.1028    3.4389    0.4847 H   0  0  0  0  0  0  0  0  0  0  0  0
    3.6286    3.9305   -1.0405 C   0  0  0  0  0  0  0  0  0  0  0  0
    4.3154    4.5571   -1.6276 H   0  0  0  0  0  0  0  0  0  0  0  0
    2.3010    3.7455   -1.4551 C   0  0  0  0  0  0  0  0  0  0  0  0
    1.9388    4.2300   -2.3750 H   0  0  0  0  0  0  0  0  0  0  0  0
    1.4162    2.9500   -0.7120 C   0  0  0  0  0  0  0  0  0  0  0  0
    0.3811    2.8137   -1.0532 H   0  0  0  0  0  0  0  0  0  0  0  0
   -1.3364    2.9239    1.2621 C   0  0  0  0  0  0  0  0  0  0  0  0
   -0.5251    3.0571    2.0023 H   0  0  0  0  0  0  0  0  0  0  0  0
   -2.3258    3.1141    1.7108 H   0  0  0  0  0  0  0  0  0  0  0  0
   -1.2065    3.6801    0.4627 H   0  0  0  0  0  0  0  0  0  0  0  0
  2  7  1  0  0  0  0
  2  8  1  0  0  0  0
  3  7  2  0  0  0  0
  4 16  1  0  0  0  0
  5  1  1  0  0  0  0
  6  5  2  0  0  0  0
  6 15  1  0  0  0  0
  7  6  1  0  0  0  0
  8  9  2  0  0  0  0
  9  5  1  0  0  0  0
  9 10  1  0  0  0  0
 11 12  1  0  0  0  0
 11  8  1  0  0  0  0
 11 14  1  0  0  0  0
 13 11  1  0  0  0  0
 15  4  1  1  0  0  0
 15 29  1  0  0  0  0
 16 17  1  0  0  0  0
 18 19  1  0  0  0  0
 18 16  1  0  0  0  0
 19 20  1  0  0  0  0
 21 22  1  0  0  0  0
 21 19  2  0  0  0  0
 23 21  1  0  0  0  0
 24 23  1  0  0  0  0
 25 23  2  0  0  0  0
 25 27  1  0  0  0  0
 26 25  1  0  0  0  0
 27 18  2  0  0  0  0
 28 27  1  0  0  0  0
 29 31  1  0  0  0  0
 29 30  1  0  0  0  0
 32 29  1  0  0  0  0
M  CHG  1   1  -1
M  END
