1,3
q = -1.0, confidence = 0.036

 47 50  0  0  1  0  0  0  0  0999 V2000
   -0.7793   -0.8832   -1.6006 O   0  0  0  0  0  1  0  0  0  0  0  0
    5.6875    0.5053   -1.1695 O   0  0  0  0  0  0  0  0  0  0  0  0
   -1.1487    0.9233    0.4208 N   0  0  2  0  0  0  0  0  0  0  0  0
    2.5207   -3.1104    1.5946 N   0  0  0  0  0  0  0  0  0  0  0  0
   -0.7497    0.5822    1.8289 C   0  0  0  0  0  0  0  0  0  0  0  0
   -0.1881   -0.3669    1.7890 H   0  0  0  0  0  0  0  0  0  0  0  0
   -1.6833    0.3949    2.3956 H   0  0  0  0  0  0  0  0  0  0  0  0
    0.0853    1.7257    2.4542 C   0  0  0  0  0  0  0  0  0  0  0  0
   -0.4887    2.2576    3.2396 H   0  0  0  0  0  0  0  0  0  0  0  0
    0.9888    1.3065    2.9388 H   0  0  0  0  0  0  0  0  0  0  0  0
    0.4836    2.6996    1.3349 C   0  0  1  0  0  0  0  0  0  0  0  0
    1.1814    3.4678    1.7199 H   0  0  0  0  0  0  0  0  0  0  0  0
    1.1525    1.8803    0.2166 C   0  0  0  0  0  0  0  0  0  0  0  0
    1.6617    2.5338   -0.5183 H   0  0  0  0  0  0  0  0  0  0  0  0
    1.9325    1.2322    0.6616 H   0  0  0  0  0  0  0  0  0  0  0  0
    0.0759    1.0398   -0.4949 C   0  0  1  0  0  0  0  0  0  0  0  0
   -0.3193    1.6019   -1.3652 H   0  0  0  0  0  0  0  0  0  0  0  0
   -1.8140    2.2632    0.4309 C   0  0  0  0  0  0  0  0  0  0  0  0
   -2.6519    2.2117    1.1547 H   0  0  0  0  0  0  0  0  0  0  0  0
   -2.2413    2.4379   -0.5755 H   0  0  0  0  0  0  0  0  0  0  0  0
   -0.8067    3.3957    0.8222 C   0  0  2  0  0  0  0  0  0  0  0  0
   -1.2359    3.9632    1.6738 H   0  0  0  0  0  0  0  0  0  0  0  0
    0.4162   -0.3511   -1.0853 C   0  0  1  0  0  0  0  0  0  0  0  0
    1.0762   -0.1519   -1.9636 H   0  0  0  0  0  0  0  0  0  0  0  0
    1.1797   -1.3115   -0.1717 C   0  0  0  0  0  0  0  0  0  0  0  0
    0.5101   -2.3233    0.5121 C   0  0  0  0  0  0  0  0  0  0  0  0
   -0.5765   -2.4436    0.3742 H   0  0  0  0  0  0  0  0  0  0  0  0
    1.2151   -3.1883    1.3855 C   0  0  0  0  0  0  0  0  0  0  0  0
    0.6688   -3.9761    1.9364 H   0  0  0  0  0  0  0  0  0  0  0  0
    3.2196   -2.1706    0.9012 C   0  0  0  0  0  0  0  0  0  0  0  0
    4.6358   -2.1149    1.0945 C   0  0  0  0  0  0  0  0  0  0  0  0
    5.0716   -2.8288    1.8077 H   0  0  0  0  0  0  0  0  0  0  0  0
    5.4160   -1.2144    0.4033 C   0  0  0  0  0  0  0  0  0  0  0  0
    6.5065   -1.1680    0.5357 H   0  0  0  0  0  0  0  0  0  0  0  0
    4.8186   -0.3145   -0.5338 C   0  0  0  0  0  0  0  0  0  0  0  0
    3.4380   -0.3253   -0.7379 C   0  0  0  0  0  0  0  0  0  0  0  0
    2.9905    0.3621   -1.4653 H   0  0  0  0  0  0  0  0  0  0  0  0
    2.6066   -1.2401   -0.0227 C   0  0  0  0  0  0  0  0  0  0  0  0
    5.1836    1.4189   -2.1279 C   0  0  0  0  0  0  0  0  0  0  0  0
    6.0545    1.9747   -2.5197 H   0  0  0  0  0  0  0  0  0  0  0  0
    4.4688    2.1398   -1.6704 H   0  0  0  0  0  0  0  0  0  0  0  0
    4.6778    0.8943   -2.9689 H   0  0  0  0  0  0  0  0  0  0  0  0
   -0.5628    4.3679   -0.3025 C   0  0  0  0  0  0  0  0  0  0  0  0
   -0.2430    3.9385   -1.2702 H   0  0  0  0  0  0  0  0  0  0  0  0
   -0.7011    5.7002   -0.1992 C   0  0  0  0  0  0  0  0  0  0  0  0
   -1.0220    6.1736    0.7440 H   0  0  0  0  0  0  0  0  0  0  0  0
   -0.4963    6.3687   -1.0492 H   0  0  0  0  0  0  0  0  0  0  0  0
  1 23  1  0  0  0  0
  2 35  1  0  0  0  0
  3 18  1  1  0  0  0
  3  5  1  0  0  0  0
  5  7  1  0  0  0  0
  5  8  1  0  0  0  0
  6  5  1  0  0  0  0
  8 10  1  0  0  0  0
  8  9  1  0  0  0  0
 11 12  1  1  0  0  0
 11  8  1  0  0  0  0
 13 15  1  0  0  0  0
 13 11  1  0  0  0  0
 14 13  1  0  0  0  0
 16 17  1  6  0  0  0
 16 13  1  0  0  0  0
 16  3  1  0  0  0  0
 18 21  1  0  0  0  0
 18 19  1  0  0  0  0
 20 18  1  0  0  0  0
 21 11  1  0  0  0  0
 21 22  1  1  0  0  0
 23 24  1  6  0  0  0
 23 16  1  0  0  0  0
 23 25  1  0  0  0  0
 25 38  2  0  0  0  0
 25 26  1  0  0  0  0
 26 28  2  0  0  0  0
 27 26  1  0  0  0  0
 28  4  1  0  0  0  0
 28 29  1  0  0  0  0
 30 31  1  0  0  0  0
 30  4  2  0  0  0  0
 31 32  1  0  0  0  0
 33 34  1  0  0  0  0
 33 31  2  0  0  0  0
 35 33  1  0  0  0  0
 36 35  2  0  0  0  0
 36 38  1  0  0  0  0
 37 36  1  0  0  0  0
 38 30  1  0  0  0  0
 39 41  1  0  0  0  0
 39  2  1  0  0  0  0
 40 39  1  0  0  0  0
 42 39  1  0  0  0  0
 43 45  2  0  0  0  0
 43 21  1  0  0  0  0
 44 43  1  0  0  0  0
 45 46  1  0  0  0  0
 47 45  1  0  0  0  0
M  END
