1,5
q = -1.0, confidence = 0.0

 25 24  0  0  1  0  0  0  0  0999 V2000
    1.3900   -1.3102   -0.0667 O   0  0  0  0  0  1  0  0  0  0  0  0
    3.3880   -2.2790   -0.1834 O   0  0  0  0  0  0  0  0  0  0  0  0
    5.6015    0.6571   -1.0331 O   0  0  0  0  0  0  0  0  0  0  0  0
    5.3646   -0.7493    0.7165 O   0  0  0  0  0  0  0  0  0  0  0  0
    1.3938    1.4855   -0.4145 N   0  0  0  0  0  2  0  0  0  0  0  0
    2.6478   -1.1533   -0.1467 C   0  0  1  0  0  3  0  0  0  0  0  0
    3.3751    0.0757   -0.2642 C   0  0  0  0  0  0  0  0  0  0  0  0
    2.7132    1.3283   -0.4367 C   0  0  0  0  0  0  0  0  0  0  0  0
    3.5230    2.6073   -0.5807 C   0  0  0  0  0  0  0  0  0  0  0  0
    4.1092    3.0864    0.7552 C   0  0  0  0  0  0  0  0  0  0  0  0
    4.8652    0.0384   -0.2750 C   0  0  0  0  0  0  0  0  0  0  0  0
    6.7844   -0.9039    0.7098 C   0  0  0  0  0  0  0  0  0  0  0  0
    2.6893   -3.5191   -0.0639 C   0  0  0  0  0  0  0  0  0  0  0  0
    1.1074    2.4608   -0.5534 H   0  0  0  0  0  0  0  0  0  0  0  0
    2.8580    3.3908   -1.0025 H   0  0  0  0  0  0  0  0  0  0  0  0
    4.3395    2.4311   -1.3054 H   0  0  0  0  0  0  0  0  0  0  0  0
    4.6718    4.0310    0.6157 H   0  0  0  0  0  0  0  0  0  0  0  0
    4.8089    2.3406    1.1807 H   0  0  0  0  0  0  0  0  0  0  0  0
    3.3114    3.2674    1.5040 H   0  0  0  0  0  0  0  0  0  0  0  0
    7.0230   -1.5798    1.5508 H   0  0  0  0  0  0  0  0  0  0  0  0
    7.2945    0.0723    0.8424 H   0  0  0  0  0  0  0  0  0  0  0  0
    7.1337   -1.3427   -0.2474 H   0  0  0  0  0  0  0  0  0  0  0  0
    3.4687   -4.3018   -0.0898 H   0  0  0  0  0  0  0  0  0  0  0  0
    1.9753   -3.6611   -0.9004 H   0  0  0  0  0  0  0  0  0  0  0  0
    2.1251   -3.5720    0.8891 H   0  0  0  0  0  0  0  0  0  0  0  0
  2  6  1  0  0  0  0
  2 13  1  0  0  0  0
  3 11  2  0  0  0  0
  6  1  1  6  0  0  0
  7  6  1  0  0  0  0
  8  5  1  0  0  0  0
  8  7  2  0  0  0  0
  9  8  1  0  0  0  0
  9 10  1  0  0  0  0
 10 18  1  0  0  0  0
 10 19  1  0  0  0  0
 11  7  1  0  0  0  0
 11  4  1  0  0  0  0
 12  4  1  0  0  0  0
 12 21  1  0  0  0  0
 12 20  1  0  0  0  0
 13 25  1  0  0  0  0
 14  5  1  0  0  0  0
 15  9  1  0  0  0  0
 16  9  1  0  0  0  0
 17 10  1  0  0  0  0
 22 12  1  0  0  0  0
 23 13  1  0  0  0  0
 24 13  1  0  0  0  0
M  END
