2,3
q = -1.0, confidence = 0.004

 25 26  0  0  1  0  0  0  0  0999 V2000
    3.2889   -2.5827   -1.6091 Cl  0  0  0  0  0  0  0  0  0  0  0  0
    1.1794    0.5850    0.1276 N   0  0  0  0  0  2  0  0  0  0  0  0
    0.8858   -1.6011    0.2355 O   0  0  0  0  0  1  0  0  0  0  0  0
    3.9333   -1.8228   -0.1700 C   0  0  0  0  0  0  0  0  0  0  0  0
    5.2579   -2.1125    0.1925 C   0  0  0  0  0  0  0  0  0  0  0  0
    5.8335   -2.8311   -0.4076 H   0  0  0  0  0  0  0  0  0  0  0  0
    5.8269   -1.4758    1.3040 C   0  0  0  0  0  0  0  0  0  0  0  0
    6.8646   -1.7070    1.5875 H   0  0  0  0  0  0  0  0  0  0  0  0
    5.0800   -0.5431    2.0412 C   0  0  0  0  0  0  0  0  0  0  0  0
    5.5264   -0.0340    2.9077 H   0  0  0  0  0  0  0  0  0  0  0  0
    3.7619   -0.2585    1.6669 C   0  0  0  0  0  0  0  0  0  0  0  0
    3.1717    0.4799    2.2299 H   0  0  0  0  0  0  0  0  0  0  0  0
    3.1587   -0.8994    0.5634 C   0  0  0  0  0  0  0  0  0  0  0  0
    1.7225   -0.6173    0.2581 C   0  0  2  0  0  3  0  0  0  0  0  0
    1.9260    1.7590   -0.0722 C   0  0  0  0  0  0  0  0  0  0  0  0
    1.5321    2.9657    0.5491 C   0  0  0  0  0  0  0  0  0  0  0  0
    0.6330    2.9731    1.1752 H   0  0  0  0  0  0  0  0  0  0  0  0
    2.2599    4.1458    0.3490 C   0  0  0  0  0  0  0  0  0  0  0  0
    1.9273    5.0713    0.8432 H   0  0  0  0  0  0  0  0  0  0  0  0
    3.3915    4.1563   -0.4819 C   0  0  0  0  0  0  0  0  0  0  0  0
    3.9590    5.0854   -0.6398 H   0  0  0  0  0  0  0  0  0  0  0  0
    3.7799    2.9687   -1.1233 C   0  0  0  0  0  0  0  0  0  0  0  0
    4.6543    2.9619   -1.7922 H   0  0  0  0  0  0  0  0  0  0  0  0
    3.0545    1.7864   -0.9305 C   0  0  0  0  0  0  0  0  0  0  0  0
    3.3552    0.8689   -1.4556 H   0  0  0  0  0  0  0  0  0  0  0  0
  1  4  1  0  0  0  0
  2 14  1  0  0  0  0
  4  5  2  0  0  0  0
  4 13  1  0  0  0  0
  5  7  1  0  0  0  0
  6  5  1  0  0  0  0
  7  8  1  0  0  0  0
  7  9  2  0  0  0  0
  9 10  1  0  0  0  0
 11  9  1  0  0  0  0
 11 12  1  0  0  0  0
 13 11  2  0  0  0  0
 14  3  1  1  0  0  0
 14 13  1  0  0  0  0
 15  2  1  0  0  0  0
 15 16  1  0  0  0  0
 16 17  1  0  0  0  0
 18 16  2  0  0  0  0
 18 19  1  0  0  0  0
 20 18  1  0  0  0  0
 21 20  1  0  0  0  0
 22 24  1  0  0  0  0
 22 20  2  0  0  0  0
 23 22  1  0  0  0  0
 24 15  2  0  0  0  0
 25 24  1  0  0  0  0
M  END
