3,4
q = -1.0, confidence = 0.012

 27 27  0  0  1  0  0  0  0  0999 V2000
   -3.8952   -2.5087   -1.4699 Br  0  0  0  0  0  0  0  0  0  0  0  0
   -7.2054    1.6813    0.5090 Br  0  0  0  0  0  0  0  0  0  0  0  0
   -0.6430    1.7978    0.2064 N   0  0  0  0  0  2  0  0  0  0  0  0
   -1.6867   -0.6064   -0.5481 O   0  0  0  0  0  1  0  0  0  0  0  0
   -3.0409    1.2526    0.1800 C   0  0  0  0  0  0  0  0  0  0  0  0
   -2.8524   -0.0755   -0.3363 C   0  0  1  0  0  3  0  0  0  0  0  0
   -4.0517   -0.7985   -0.6556 C   0  0  0  0  0  0  0  0  0  0  0  0
   -5.3226   -0.2869   -0.4027 C   0  0  0  0  0  0  0  0  0  0  0  0
   -6.2105   -0.8858   -0.6465 H   0  0  0  0  0  0  0  0  0  0  0  0
   -5.4624    1.0026    0.1574 C   0  0  0  0  0  0  0  0  0  0  0  0
   -4.3376    1.7729    0.4277 C   0  0  0  0  0  0  0  0  0  0  0  0
   -4.4431    2.7932    0.8240 H   0  0  0  0  0  0  0  0  0  0  0  0
   -1.9056    2.1182    0.3291 C   0  0  0  0  0  0  0  0  0  0  0  0
   -2.1388    3.1850    0.5197 H   0  0  0  0  0  0  0  0  0  0  0  0
    0.3113    2.9137    0.1695 C   0  0  0  0  0  0  0  0  0  0  0  0
   -0.2109    3.8418    0.4902 H   0  0  0  0  0  0  0  0  0  0  0  0
    1.1305    2.7079    0.8824 H   0  0  0  0  0  0  0  0  0  0  0  0
    0.8870    3.0986   -1.2382 C   0  0  0  0  0  0  0  0  0  0  0  0
    0.0480    3.1978   -1.9627 H   0  0  0  0  0  0  0  0  0  0  0  0
    1.4328    2.1722   -1.5173 H   0  0  0  0  0  0  0  0  0  0  0  0
    1.8196    4.3072   -1.3513 C   0  0  0  0  0  0  0  0  0  0  0  0
    2.6311    4.2086   -0.5986 H   0  0  0  0  0  0  0  0  0  0  0  0
    1.2604    5.2309   -1.0811 H   0  0  0  0  0  0  0  0  0  0  0  0
    2.4266    4.4582   -2.7462 C   0  0  0  0  0  0  0  0  0  0  0  0
    1.6404    4.5767   -3.5210 H   0  0  0  0  0  0  0  0  0  0  0  0
    3.0942    5.3409   -2.8082 H   0  0  0  0  0  0  0  0  0  0  0  0
    3.0265    3.5650   -3.0185 H   0  0  0  0  0  0  0  0  0  0  0  0
  1  7  1  0  0  0  0
  3 13  1  0  0  0  0
  5 13  2  0  0  0  0
  5 11  1  0  0  0  0
  6  4  1  6  0  0  0
  6  5  1  0  0  0  0
  7  8  2  0  0  0  0
  7  6  1  0  0  0  0
  8 10  1  0  0  0  0
  9  8  1  0  0  0  0
 10 11  2  0  0  0  0
 10  2  1  0  0  0  0
 11 12  1  0  0  0  0
 13 14  1  0  0  0  0
 15  3  1  0  0  0  0
 15 16  1  0  0  0  0
 15 17  1  0  0  0  0
 18 15  1  0  0  0  0
 19 18  1  0  0  0  0
 20 18  1  0  0  0  0
 21 18  1  0  0  0  0
 21 23  1  0  0  0  0
 21 22  1  0  0  0  0
 24 21  1  0  0  0  0
 25 24  1  0  0  0  0
 26 24  1  0  0  0  0
 27 24  1  0  0  0  0
M  END
