2,3
q = -2.0, confidence = 0.816

 33 33  0  0  1  0  0  0  0  0999 V2000
   -1.0646    0.6183    1.6845 S   0  0  0  0  0  0  0  0  0  0  0  0
    0.0213    1.1377    0.5303 N   0  0  0  0  0  2  0  0  0  0  0  0
    0.2633    0.2041   -1.9925 O   0  5  0  0  0  0  0  0  0  0  0  0
   -1.0358    1.7897   -2.9005 O   0  0  0  0  0  0  0  0  0  0  0  0
   -1.7472    1.7923    2.2751 O   0  0  0  0  0  0  0  0  0  0  0  0
   -0.3257   -0.3169    2.5962 O   0  0  0  0  0  0  0  0  0  0  0  0
   -0.4813    1.3109   -1.9243 C   0  0  0  0  0  0  0  0  0  0  0  0
   -0.5653    1.9880   -0.5336 C   0  0  2  0  0  0  0  0  0  0  0  0
   -1.6473    2.1480   -0.3376 H   0  0  0  0  0  0  0  0  0  0  0  0
    0.0924    3.3925   -0.5864 C   0  0  0  0  0  0  0  0  0  0  0  0
   -0.4168    3.8984   -1.4359 H   0  0  0  0  0  0  0  0  0  0  0  0
   -0.1752    4.1745    0.7010 C   0  0  0  0  0  0  0  0  0  0  0  0
    0.2500    3.6419    1.5753 H   0  0  0  0  0  0  0  0  0  0  0  0
   -1.2605    4.2848    0.8936 H   0  0  0  0  0  0  0  0  0  0  0  0
    0.2772    5.1861    0.6496 H   0  0  0  0  0  0  0  0  0  0  0  0
    1.5898    3.3172   -0.9019 C   0  0  0  0  0  0  0  0  0  0  0  0
    2.0259    4.3339   -0.9780 H   0  0  0  0  0  0  0  0  0  0  0  0
    1.7841    2.7912   -1.8588 H   0  0  0  0  0  0  0  0  0  0  0  0
    2.1331    2.7729   -0.1013 H   0  0  0  0  0  0  0  0  0  0  0  0
   -2.3484   -0.3606    0.8737 C   0  0  0  0  0  0  0  0  0  0  0  0
   -2.0292   -1.5796    0.2540 C   0  0  0  0  0  0  0  0  0  0  0  0
   -0.9897   -1.9441    0.2708 H   0  0  0  0  0  0  0  0  0  0  0  0
   -3.0353   -2.2981   -0.3988 C   0  0  0  0  0  0  0  0  0  0  0  0
   -2.7877   -3.2536   -0.8882 H   0  0  0  0  0  0  0  0  0  0  0  0
   -4.3642   -1.8205   -0.4482 C   0  0  0  0  0  0  0  0  0  0  0  0
   -4.6562   -0.5988    0.1893 C   0  0  0  0  0  0  0  0  0  0  0  0
   -5.6871   -0.2115    0.1688 H   0  0  0  0  0  0  0  0  0  0  0  0
   -3.6594    0.1346    0.8489 C   0  0  0  0  0  0  0  0  0  0  0  0
   -3.8796    1.0858    1.3542 H   0  0  0  0  0  0  0  0  0  0  0  0
   -5.4278   -2.5871   -1.1913 C   0  0  0  0  0  0  0  0  0  0  0  0
   -5.3427   -2.4180   -2.2863 H   0  0  0  0  0  0  0  0  0  0  0  0
   -6.4456   -2.2749   -0.8872 H   0  0  0  0  0  0  0  0  0  0  0  0
   -5.3353   -3.6793   -1.0252 H   0  0  0  0  0  0  0  0  0  0  0  0
  1  5  2  0  0  0  0
  1  6  2  0  0  0  0
  2  1  1  0  0  0  0
  3  7  1  0  0  0  0
  4  7  2  0  0  0  0
  7  8  1  0  0  0  0
  8  9  1  1  0  0  0
  8  2  1  0  0  0  0
 10  8  1  0  0  0  0
 10 12  1  0  0  0  0
 11 10  1  0  0  0  0
 12 14  1  0  0  0  0
 12 13  1  0  0  0  0
 15 12  1  0  0  0  0
 16 10  1  0  0  0  0
 16 19  1  0  0  0  0
 17 16  1  0  0  0  0
 18 16  1  0  0  0  0
 20  1  1  0  0  0  0
 21 22  1  0  0  0  0
 21 20  2  0  0  0  0
 23 21  1  0  0  0  0
 24 23  1  0  0  0  0
 25 23  2  0  0  0  0
 25 26  1  0  0  0  0
 26 28  2  0  0  0  0
 27 26  1  0  0  0  0
 28 20  1  0  0  0  0
 28 29  1  0  0  0  0
 30 33  1  0  0  0  0
 30 32  1  0  0  0  0
 30 25  1  0  0  0  0
 31 30  1  0  0  0  0
M  CHG  1   3  -1
M  END
