4,20
q = -1.0, confidence = 0.0

 20 21  0  0  0  0  0  0  0  0999 V2000
    2.2601   -2.1368    0.2573 S   0  0  0  0  0  0  0  0  0  0  0  0
    1.9792   -2.0268    1.7354 O   0  0  0  0  0  1  0  0  0  0  0  0
    2.8156   -3.4232   -0.2001 O   0  0  0  0  0  1  0  0  0  0  0  0
    1.0467   -1.6893   -0.5799 O   0  0  0  0  0  1  0  0  0  0  0  0
    1.8280    2.3155    0.6345 C   0  0  0  0  0  0  0  0  0  0  0  0
    0.7922    2.6352    0.8394 H   0  0  0  0  0  0  0  0  0  0  0  0
    2.8761    3.2633    0.5547 C   0  0  0  0  0  0  0  0  0  0  0  0
    2.6611    4.3252    0.7392 H   0  0  0  0  0  0  0  0  0  0  0  0
    4.1417    2.8229    0.2142 C   0  0  0  0  0  0  0  0  0  0  0  0
    4.9842    3.5249    0.1120 H   0  0  0  0  0  0  0  0  0  0  0  0
    4.3658    1.4375   -0.0146 C   0  0  0  0  0  0  0  0  0  0  0  0
    3.2479    0.5325    0.1314 C   0  0  0  0  0  0  0  0  0  0  0  0
    3.5055   -0.8637   -0.0626 C   0  0  0  0  0  0  0  0  0  0  0  0
    4.7676   -1.3155   -0.4220 C   0  0  0  0  0  0  0  0  0  0  0  0
    4.9010   -2.3984   -0.5625 H   0  0  0  0  0  0  0  0  0  0  0  0
    5.8469   -0.4128   -0.5903 C   0  0  0  0  0  0  0  0  0  0  0  0
    6.8369   -0.7966   -0.8773 H   0  0  0  0  0  0  0  0  0  0  0  0
    5.6511    0.9405   -0.3769 C   0  0  0  0  0  3  0  0  0  0  0  0
    6.4804    1.6566   -0.4834 H   0  0  0  0  0  0  0  0  0  0  0  0
    1.9946    1.0074    0.4333 N   0  0  0  0  0  2  0  0  0  0  0  0
  1  2  1  0  0  0  0
  3  1  1  0  0  0  0
  4  1  1  0  0  0  0
  5  6  1  0  0  0  0
  7  5  2  0  0  0  0
  7  8  1  0  0  0  0
  9  7  1  0  0  0  0
 10  9  1  0  0  0  0
 11 12  1  0  0  0  0
 11  9  2  0  0  0  0
 12 20  1  0  0  0  0
 13 12  2  0  0  0  0
 13  1  1  0  0  0  0
 14 13  1  0  0  0  0
 15 14  1  0  0  0  0
 16 14  2  0  0  0  0
 16 18  1  0  0  0  0
 17 16  1  0  0  0  0
 18 11  1  0  0  0  0
 19 18  1  0  0  0  0
 20  5  1  0  0  0  0
M  END
