3,5
q = -1.0, confidence = 0.026

 37 38  0  0  0  0  0  0  0  0999 V2000
   -2.2630   -1.5158   -0.1264 N   0  0  0  0  0  0  0  0  0  0  0  0
   -3.4466   -2.5592   -0.4882 H   0  0  0  0  0  0  0  0  0  0  0  0
   -1.8583   -0.2067   -0.1162 N   0  0  0  0  0  2  0  0  0  0  0  0
   -8.4002    1.1903    0.0964 N   0  0  0  0  0  0  0  0  0  0  0  0
   -0.0000   -1.8536    0.1037 O   0  5  0  0  0  0  0  0  0  0  0  0
   -3.8015   -3.5184   -0.5155 O   0  0  0  0  0  0  0  0  0  0  0  0
   -1.2085   -2.3285   -0.0086 C   0  0  0  0  0  0  0  0  0  0  0  0
   -1.4383   -3.7775   -0.0103 C   0  0  0  0  0  0  0  0  0  0  0  0
   -0.3675   -4.6673    0.2330 C   0  0  0  0  0  0  0  0  0  0  0  0
    0.6253   -4.2339    0.4213 H   0  0  0  0  0  0  0  0  0  0  0  0
   -0.5639   -6.0488    0.2411 C   0  0  0  0  0  0  0  0  0  0  0  0
    0.2779   -6.7287    0.4365 H   0  0  0  0  0  0  0  0  0  0  0  0
   -1.8546   -6.5623   -0.0026 C   0  0  0  0  0  0  0  0  0  0  0  0
   -2.0220   -7.6507    0.0009 H   0  0  0  0  0  0  0  0  0  0  0  0
   -2.9292   -5.7065   -0.2525 C   0  0  0  0  0  0  0  0  0  0  0  0
   -3.9398   -6.0925   -0.4496 H   0  0  0  0  0  0  0  0  0  0  0  0
   -2.7480   -4.3042   -0.2599 C   0  0  0  0  0  0  0  0  0  0  0  0
   -2.7204    0.7895   -0.1168 C   0  0  0  0  0  3  0  0  0  0  0  0
   -4.1642    0.7958   -0.0522 C   0  0  0  0  0  0  0  0  0  0  0  0
   -5.0039   -0.3139    0.2414 C   0  0  0  0  0  0  0  0  0  0  0  0
   -4.5603   -1.2929    0.4513 H   0  0  0  0  0  0  0  0  0  0  0  0
   -6.3874   -0.1831    0.2984 C   0  0  0  0  0  0  0  0  0  0  0  0
   -6.9817   -1.0743    0.5358 H   0  0  0  0  0  0  0  0  0  0  0  0
   -7.0291    1.0682    0.0577 C   0  0  0  0  0  0  0  0  0  0  0  0
   -6.1900    2.1891   -0.2175 C   0  0  0  0  0  0  0  0  0  0  0  0
   -6.6255    3.1805   -0.3945 H   0  0  0  0  0  0  0  0  0  0  0  0
   -4.8084    2.0467   -0.2619 C   0  0  0  0  0  0  0  0  0  0  0  0
   -4.1888    2.9328   -0.4724 H   0  0  0  0  0  0  0  0  0  0  0  0
   -9.0222    2.4784   -0.1408 C   0  0  0  0  0  0  0  0  0  0  0  0
  -10.1200    2.3713   -0.0821 H   0  0  0  0  0  0  0  0  0  0  0  0
   -8.7129    3.2388    0.6114 H   0  0  0  0  0  0  0  0  0  0  0  0
   -8.7729    2.8818   -1.1476 H   0  0  0  0  0  0  0  0  0  0  0  0
   -9.2256    0.0347    0.3935 C   0  0  0  0  0  0  0  0  0  0  0  0
  -10.2900    0.3283    0.3630 H   0  0  0  0  0  0  0  0  0  0  0  0
   -9.0761   -0.7838   -0.3451 H   0  0  0  0  0  0  0  0  0  0  0  0
   -9.0149   -0.3824    1.4039 H   0  0  0  0  0  0  0  0  0  0  0  0
   -2.2216    1.7708   -0.1694 H   0  0  0  0  0  0  0  0  0  0  0  0
  1  3  1  0  0  0  0
  1  7  2  0  0  0  0
  4 33  1  0  0  0  0
  6  2  1  0  0  0  0
  6 17  1  0  0  0  0
  7  5  1  0  0  0  0
  8  7  1  0  0  0  0
  8  9  1  0  0  0  0
  9 11  2  0  0  0  0
  9 10  1  0  0  0  0
 11 12  1  0  0  0  0
 13 14  1  0  0  0  0
 13 11  1  0  0  0  0
 15 13  2  0  0  0  0
 16 15  1  0  0  0  0
 17 15  1  0  0  0  0
 17  8  2  0  0  0  0
 18  3  1  0  0  0  0
 18 19  1  0  0  0  0
 19 20  1  0  0  0  0
 20 22  2  0  0  0  0
 20 21  1  0  0  0  0
 22 23  1  0  0  0  0
 24  4  1  0  0  0  0
 24 22  1  0  0  0  0
 25 24  2  0  0  0  0
 26 25  1  0  0  0  0
 27 25  1  0  0  0  0
 27 19  2  0  0  0  0
 28 27  1  0  0  0  0
 29 30  1  0  0  0  0
 29  4  1  0  0  0  0
 29 31  1  0  0  0  0
 32 29  1  0  0  0  0
 33 36  1  0  0  0  0
 34 33  1  0  0  0  0
 35 33  1  0  0  0  0
 37 18  1  0  0  0  0
M  CHG  1   5  -1
M  END
