1,2
q = -1.0, confidence = 0.332

 34 39  0  0  1  0  0  0  0  0999 V2000
   -0.2358    1.8966    0.1165 N   0  0  0  0  0  2  0  0  0  0  0  0
    0.2112    0.3648   -1.9053 O   0  0  0  0  0  1  0  0  0  0  0  0
    2.2657    0.3413   -0.6500 C   0  0  2  0  0  0  0  0  0  0  0  0
    2.1608   -1.2410   -0.9466 C   0  0  2  0  0  0  0  0  0  0  0  0
    1.5123   -1.4734   -1.8009 H   0  0  0  0  0  0  0  0  0  0  0  0
    3.6241   -0.4555   -1.3470 B   0  0  2  0  0  0  0  0  0  0  0  0
    3.8611   -0.2463   -2.5099 H   0  0  0  0  0  0  0  0  0  0  0  0
    3.8084    0.7476   -0.0554 B   0  0  0  0  0  0  0  0  0  0  0  0
    4.2657    1.8293   -0.3396 H   0  0  0  0  0  0  0  0  0  0  0  0
    2.4062    0.6368    1.0266 B   0  0  2  0  0  0  0  0  0  0  0  0
    1.9673    1.6601    1.4842 H   0  0  0  0  0  0  0  0  0  0  0  0
    2.1517   -2.1494    0.4632 B   0  0  2  0  0  0  0  0  0  0  0  0
    1.5393   -3.1879    0.4858 H   0  0  0  0  0  0  0  0  0  0  0  0
    3.5887   -2.0685   -0.5991 B   0  0  1  0  0  0  0  0  0  0  0  0
    3.8770   -3.0203   -1.2823 H   0  0  0  0  0  0  0  0  0  0  0  0
    4.6828   -0.8105    0.0282 B   0  0  0  0  0  0  0  0  0  0  0  0
    5.8795   -0.8788   -0.1272 H   0  0  0  0  0  0  0  0  0  0  0  0
    3.9236   -0.1323    1.4991 B   0  0  2  0  0  0  0  0  0  0  0  0
    4.5793    0.3102    2.4144 H   0  0  0  0  0  0  0  0  0  0  0  0
    2.3478   -0.9661    1.7711 B   0  0  0  0  0  0  0  0  0  0  0  0
    1.8895   -1.1399    2.8775 H   0  0  0  0  0  0  0  0  0  0  0  0
    3.7712   -1.8731    1.1593 B   0  0  1  0  0  0  0  0  0  0  0  0
    4.3232   -2.7237    1.8185 H   0  0  0  0  0  0  0  0  0  0  0  0
    1.2862    1.1695   -1.5567 C   0  0  2  0  0  0  0  0  0  0  0  0
    1.8331    1.5415   -2.4521 H   0  0  0  0  0  0  0  0  0  0  0  0
    0.7512    2.3158   -0.7276 C   0  0  2  0  0  3  0  0  0  0  0  0
    1.1698    3.6472   -0.7679 C   0  0  0  0  0  0  0  0  0  0  0  0
    1.9704    3.9373   -1.4633 H   0  0  0  0  0  0  0  0  0  0  0  0
    0.5731    4.5788    0.0937 C   0  0  0  0  0  0  0  0  0  0  0  0
    0.8876    5.6327    0.0857 H   0  0  0  0  0  0  0  0  0  0  0  0
   -0.4235    4.1344    0.9768 C   0  0  0  0  0  0  0  0  0  0  0  0
   -0.9115    4.8215    1.6823 H   0  0  0  0  0  0  0  0  0  0  0  0
   -0.7989    2.7882    0.9615 C   0  0  0  0  0  0  0  0  0  0  0  0
   -1.5580    2.3908    1.6492 H   0  0  0  0  0  0  0  0  0  0  0  0
  1 33  1  0  0  0  0
  2 24  1  0  0  0  0
  3 24  1  6  0  0  0
  3  8  1  0  0  0  0
  3 10  1  0  0  0  0
  4  5  1  6  0  0  0
  4  3  1  0  0  0  0
  4 14  1  0  0  0  0
  4 12  1  0  0  0  0
  6  7  1  6  0  0  0
  6 14  1  0  0  0  0
  6  8  1  0  0  0  0
  6 16  1  0  0  0  0
  9  8  1  0  0  0  0
 10 11  1  1  0  0  0
 10 18  1  0  0  0  0
 10 20  1  0  0  0  0
 12 13  1  1  0  0  0
 12 22  1  0  0  0  0
 12 20  1  0  0  0  0
 14 15  1  6  0  0  0
 14 22  1  0  0  0  0
 16 18  1  0  0  0  0
 17 16  1  0  0  0  0
 18 19  1  1  0  0  0
 20 21  1  0  0  0  0
 22 18  1  0  0  0  0
 22 23  1  1  0  0  0
 24 25  1  6  0  0  0
 26 24  1  1  0  0  0
 26  1  1  0  0  0  0
 27 26  1  0  0  0  0
 27 29  2  0  0  0  0
 28 27  1  0  0  0  0
 29 31  1  0  0  0  0
 30 29  1  0  0  0  0
 31 32  1  0  0  0  0
 33 31  2  0  0  0  0
 33 34  1  0  0  0  0
M  END
