1,2
q = -1.0, confidence = 0.0

 31 30  0  0  1  0  0  0  0  0999 V2000
   -0.4676    1.9564   -0.0072 O   0  0  0  0  0  1  0  0  0  0  0  0
   -1.9046   -0.5497    0.0032 N   0  0  0  0  0  2  0  0  0  0  0  0
   -1.6792    2.4112   -0.0109 C   0  0  1  0  0  3  0  0  0  0  0  0
   -2.9508    0.2400    0.0036 C   0  0  0  0  0  0  0  0  0  0  0  0
   -2.8635    1.6649   -0.0060 C   0  0  0  0  0  0  0  0  0  0  0  0
   -1.7543    3.9397   -0.0145 C   0  0  0  0  0  0  0  0  0  0  0  0
   -4.3533   -0.4178    0.0104 C   0  0  0  0  0  0  0  0  0  0  0  0
   -1.0746    4.5047   -1.2713 C   0  0  0  0  0  0  0  0  0  0  0  0
   -1.1233    4.5026    1.2691 C   0  0  0  0  0  0  0  0  0  0  0  0
   -4.0960   -1.8307    0.0581 O   0  0  0  0  0  0  0  0  0  0  0  0
   -5.0991   -0.0382   -1.2804 C   0  0  0  0  0  0  0  0  0  0  0  0
   -5.1234    0.0208    1.2683 C   0  0  0  0  0  0  0  0  0  0  0  0
   -5.1887   -2.7142   -0.0346 C   0  0  0  0  0  0  0  0  0  0  0  0
   -2.1407   -1.5519    0.0126 H   0  0  0  0  0  0  0  0  0  0  0  0
   -3.7996    2.2381   -0.0096 H   0  0  0  0  0  0  0  0  0  0  0  0
   -2.8291    4.2185   -0.0342 H   0  0  0  0  0  0  0  0  0  0  0  0
   -1.5539    4.1229   -2.1951 H   0  0  0  0  0  0  0  0  0  0  0  0
   -0.0074    4.2065   -1.2947 H   0  0  0  0  0  0  0  0  0  0  0  0
   -1.1288    5.6125   -1.2851 H   0  0  0  0  0  0  0  0  0  0  0  0
   -1.1783    5.6104    1.2832 H   0  0  0  0  0  0  0  0  0  0  0  0
   -0.0576    4.2047    1.3324 H   0  0  0  0  0  0  0  0  0  0  0  0
   -1.6378    4.1183    2.1728 H   0  0  0  0  0  0  0  0  0  0  0  0
   -5.1730    1.0604   -1.3822 H   0  0  0  0  0  0  0  0  0  0  0  0
   -6.1298   -0.4462   -1.2841 H   0  0  0  0  0  0  0  0  0  0  0  0
   -4.5537   -0.4307   -2.1611 H   0  0  0  0  0  0  0  0  0  0  0  0
   -4.5712   -0.2935    2.1752 H   0  0  0  0  0  0  0  0  0  0  0  0
   -6.1361   -0.4299    1.2915 H   0  0  0  0  0  0  0  0  0  0  0  0
   -5.2463    1.1193    1.2984 H   0  0  0  0  0  0  0  0  0  0  0  0
   -4.7786   -3.7353    0.0899 H   0  0  0  0  0  0  0  0  0  0  0  0
   -5.7043   -2.6679   -1.0215 H   0  0  0  0  0  0  0  0  0  0  0  0
   -5.9496   -2.5504    0.7633 H   0  0  0  0  0  0  0  0  0  0  0  0
  2  4  1  0  0  0  0
  2 14  1  0  0  0  0
  3  1  1  1  0  0  0
  3  5  1  0  0  0  0
  4  7  1  0  0  0  0
  5  4  2  0  0  0  0
  6  3  1  0  0  0  0
  6  9  1  0  0  0  0
  7 10  1  0  0  0  0
  7 12  1  0  0  0  0
  8  6  1  0  0  0  0
  9 20  1  0  0  0  0
  9 21  1  0  0  0  0
  9 22  1  0  0  0  0
 11  7  1  0  0  0  0
 12 27  1  0  0  0  0
 12 28  1  0  0  0  0
 12 26  1  0  0  0  0
 13 10  1  0  0  0  0
 13 29  1  0  0  0  0
 13 31  1  0  0  0  0
 15  5  1  0  0  0  0
 16  6  1  0  0  0  0
 17  8  1  0  0  0  0
 18  8  1  0  0  0  0
 19  8  1  0  0  0  0
 23 11  1  0  0  0  0
 24 11  1  0  0  0  0
 25 11  1  0  0  0  0
 30 13  1  0  0  0  0
M  END
