3,5
q = -1.0, confidence = 0.024

 36 38  0  0  1  0  0  0  0  0999 V2000
    1.7760   -1.2639   -1.1715 C   0  0  2  0  0  3  0  0  0  0  0  0
    3.0709   -1.8871   -1.5299 C   0  0  0  0  0  0  0  0  0  0  0  0
    1.6672   -0.2319   -0.3470 N   0  0  0  0  0  2  0  0  0  0  0  0
    2.7586    0.3475    0.1693 N   0  0  0  0  0  0  0  0  0  0  0  0
    1.2853    1.4890    1.5614 O   0  5  0  0  0  0  0  0  0  0  0  0
   -0.5127   -0.9925   -1.9341 N   0  0  0  0  0  0  0  0  0  0  0  0
    3.2792   -2.3278   -2.8590 C   0  0  0  0  0  0  0  0  0  0  0  0
    2.4838   -2.1830   -3.6055 H   0  0  0  0  0  0  0  0  0  0  0  0
    5.5090   -3.1090   -2.2905 C   0  0  0  0  0  0  0  0  0  0  0  0
    6.4590   -3.5803   -2.5848 H   0  0  0  0  0  0  0  0  0  0  0  0
    0.5166   -1.8405   -1.7059 C   0  0  0  0  0  0  0  0  0  0  0  0
    4.4886   -2.9258   -3.2369 C   0  0  0  0  0  0  0  0  0  0  0  0
    4.6353   -3.2485   -4.2789 H   0  0  0  0  0  0  0  0  0  0  0  0
   -1.9218   -2.8760   -2.4964 C   0  0  0  0  0  0  0  0  0  0  0  0
   -2.9149   -3.2403   -2.7973 H   0  0  0  0  0  0  0  0  0  0  0  0
    5.3106   -2.6864   -0.9653 C   0  0  0  0  0  0  0  0  0  0  0  0
    6.1039   -2.8318   -0.2164 H   0  0  0  0  0  0  0  0  0  0  0  0
    0.3893   -3.2358   -1.8951 C   0  0  0  0  0  0  0  0  0  0  0  0
    1.2460   -3.8973   -1.7045 H   0  0  0  0  0  0  0  0  0  0  0  0
    4.1096   -2.0739   -0.5868 C   0  0  0  0  0  0  0  0  0  0  0  0
    3.9635   -1.7344    0.4461 H   0  0  0  0  0  0  0  0  0  0  0  0
   -0.8497   -3.7563   -2.2889 C   0  0  0  0  0  0  0  0  0  0  0  0
   -0.9794   -4.8415   -2.4178 H   0  0  0  0  0  0  0  0  0  0  0  0
   -1.6916   -1.5022   -2.3136 C   0  0  0  0  0  0  0  0  0  0  0  0
   -2.5065   -0.7736   -2.4765 H   0  0  0  0  0  0  0  0  0  0  0  0
    2.4573    1.2258    1.1595 C   0  0  0  0  0  0  0  0  0  0  0  0
    3.6269    1.9098    1.7815 C   0  0  0  0  0  0  0  0  0  0  0  0
    4.9554    1.6758    1.3590 C   0  0  0  0  0  0  0  0  0  0  0  0
    5.1365    0.9616    0.5376 H   0  0  0  0  0  0  0  0  0  0  0  0
    6.0236    2.2792    1.8997 N   0  0  0  0  0  0  0  0  0  0  0  0
    5.8054    3.1518    2.8986 C   0  0  0  0  0  0  0  0  0  0  0  0
    6.7009    3.6353    3.3301 H   0  0  0  0  0  0  0  0  0  0  0  0
    3.4188    2.8286    2.8273 C   0  0  0  0  0  0  0  0  0  0  0  0
    2.3893    3.0196    3.1652 H   0  0  0  0  0  0  0  0  0  0  0  0
    4.5283    3.4616    3.3977 C   0  0  0  0  0  0  0  0  0  0  0  0
    4.4123    4.1855    4.2185 H   0  0  0  0  0  0  0  0  0  0  0  0
  1  3  1  1  0  0  0
  2  1  1  0  0  0  0
  2 20  1  0  0  0  0
  3  4  1  0  0  0  0
  4 26  2  0  0  0  0
  6 11  1  0  0  0  0
  7  2  2  0  0  0  0
  8  7  1  0  0  0  0
  9 16  1  0  0  0  0
 10  9  1  0  0  0  0
 11  1  1  0  0  0  0
 12  7  1  0  0  0  0
 12  9  2  0  0  0  0
 13 12  1  0  0  0  0
 14 24  1  0  0  0  0
 14 22  2  0  0  0  0
 15 14  1  0  0  0  0
 16 20  2  0  0  0  0
 16 17  1  0  0  0  0
 18 11  2  0  0  0  0
 18 19  1  0  0  0  0
 20 21  1  0  0  0  0
 22 18  1  0  0  0  0
 23 22  1  0  0  0  0
 24  6  2  0  0  0  0
 25 24  1  0  0  0  0
 26  5  1  0  0  0  0
 26 27  1  0  0  0  0
 27 33  1  0  0  0  0
 28 27  2  0  0  0  0
 28 30  1  0  0  0  0
 29 28  1  0  0  0  0
 30 31  2  0  0  0  0
 31 32  1  0  0  0  0
 31 35  1  0  0  0  0
 33 34  1  0  0  0  0
 33 35  2  0  0  0  0
 35 36  1  0  0  0  0
M  CHG  1   5  -1
M  END
