1,2
q = -1.0, confidence = 0.004

 27 28  0  0  0  0  0  0  0  0999 V2000
    2.6139   -1.3465    0.3075 O   0  5  0  0  0  0  0  0  0  0  0  0
   -0.2133   -1.4022    0.5478 N   0  0  0  0  0  2  0  0  0  0  0  0
   -0.0611   -2.6718    0.4894 N   0  0  0  0  0  0  0  0  0  0  0  0
    1.1187   -3.2722    0.1462 C   0  0  0  0  0  0  0  0  0  0  0  0
    1.0365   -4.6855   -0.0496 C   0  0  0  0  0  3  0  0  0  0  0  0
    2.1648   -5.4522   -0.2871 C   0  0  0  0  0  0  0  0  0  0  0  0
    3.4373   -4.8218   -0.2892 C   0  0  0  0  0  0  0  0  0  0  0  0
    3.5631   -3.4560   -0.0744 C   0  0  0  0  0  0  0  0  0  0  0  0
    2.4206   -2.6206    0.1233 C   0  0  0  0  0  0  0  0  0  0  0  0
   -1.4716   -0.9965    1.1119 C   0  0  0  0  0  0  0  0  0  0  0  0
   -2.6586   -1.6789    0.7859 C   0  0  0  0  0  0  0  0  0  0  0  0
   -3.8748   -1.2358    1.3089 C   0  0  0  0  0  0  0  0  0  0  0  0
   -3.9422   -0.1268    2.1821 C   0  0  0  0  0  0  0  0  0  0  0  0
   -2.7368    0.5137    2.5283 C   0  0  0  0  0  0  0  0  0  0  0  0
   -1.5103    0.0932    1.9982 C   0  0  0  0  0  0  0  0  0  0  0  0
   -5.2697    0.3697    2.6923 C   0  0  0  0  0  0  0  0  0  0  0  0
    0.0327   -5.1316    0.0026 H   0  0  0  0  0  0  0  0  0  0  0  0
    2.0804   -6.5358   -0.4518 H   0  0  0  0  0  0  0  0  0  0  0  0
    4.3429   -5.4243   -0.4616 H   0  0  0  0  0  0  0  0  0  0  0  0
    4.5435   -2.9585   -0.0731 H   0  0  0  0  0  0  0  0  0  0  0  0
   -2.6061   -2.5363    0.1020 H   0  0  0  0  0  0  0  0  0  0  0  0
   -4.8032   -1.7565    1.0249 H   0  0  0  0  0  0  0  0  0  0  0  0
   -2.7564    1.3648    3.2267 H   0  0  0  0  0  0  0  0  0  0  0  0
   -0.5725    0.5995    2.2701 H   0  0  0  0  0  0  0  0  0  0  0  0
   -5.1496    1.0445    3.5618 H   0  0  0  0  0  0  0  0  0  0  0  0
   -5.8064    0.9387    1.9021 H   0  0  0  0  0  0  0  0  0  0  0  0
   -5.9326   -0.4671    2.9914 H   0  0  0  0  0  0  0  0  0  0  0  0
  2 10  1  0  0  0  0
  3  2  1  0  0  0  0
  4  3  2  0  0  0  0
  5 17  1  0  0  0  0
  5  4  1  0  0  0  0
  6  5  1  0  0  0  0
  7  6  2  0  0  0  0
  7  8  1  0  0  0  0
  8 20  1  0  0  0  0
  8  9  2  0  0  0  0
  9  4  1  0  0  0  0
  9  1  1  0  0  0  0
 10 15  1  0  0  0  0
 11 10  2  0  0  0  0
 11 12  1  0  0  0  0
 12 13  2  0  0  0  0
 13 14  1  0  0  0  0
 13 16  1  0  0  0  0
 14 23  1  0  0  0  0
 15 24  1  0  0  0  0
 15 14  2  0  0  0  0
 16 27  1  0  0  0  0
 16 25  1  0  0  0  0
 18  6  1  0  0  0  0
 19  7  1  0  0  0  0
 21 11  1  0  0  0  0
 22 12  1  0  0  0  0
 26 16  1  0  0  0  0
M  CHG  1   1  -1
M  END
