1,2
q = -1.0, confidence = 0.0

 25 25  0  0  1  0  0  0  0  0999 V2000
   -2.5707    0.4390   -0.1051 O   0  0  0  0  0  1  0  0  0  0  0  0
    0.3486    0.9439    0.0179 N   0  0  0  0  0  2  0  0  0  0  0  0
   -3.9751    2.3154    0.1306 C   0  0  0  0  0  0  0  0  0  0  0  0
   -2.5861    1.7103    0.0829 C   0  0  2  0  0  3  0  0  0  0  0  0
   -1.4676    2.5512    0.2351 C   0  0  0  0  0  0  0  0  0  0  0  0
   -0.0953    2.1914    0.1956 C   0  0  0  0  0  0  0  0  0  0  0  0
    0.9190    3.3062    0.3583 C   0  0  0  0  0  0  0  0  0  0  0  0
    1.7465    0.6818   -0.0028 C   0  0  0  0  0  0  0  0  0  0  0  0
    2.4530    0.6534   -1.2227 C   0  0  0  0  0  0  0  0  0  0  0  0
    3.8201    0.3415   -1.2422 C   0  0  0  0  0  0  0  0  0  0  0  0
    4.5007    0.0534   -0.0478 C   0  0  0  0  0  0  0  0  0  0  0  0
    3.8007    0.0797    1.1697 C   0  0  0  0  0  0  0  0  0  0  0  0
    2.4334    0.3912    1.1946 C   0  0  0  0  0  0  0  0  0  0  0  0
   -3.9622    3.4070    0.3054 H   0  0  0  0  0  0  0  0  0  0  0  0
   -4.5646    1.8251    0.9322 H   0  0  0  0  0  0  0  0  0  0  0  0
   -4.5019    2.1066   -0.8232 H   0  0  0  0  0  0  0  0  0  0  0  0
   -1.6777    3.6181    0.3865 H   0  0  0  0  0  0  0  0  0  0  0  0
    0.4209    4.2842    0.4808 H   0  0  0  0  0  0  0  0  0  0  0  0
    1.5950    3.3557   -0.5192 H   0  0  0  0  0  0  0  0  0  0  0  0
    1.5701    3.1242    1.2370 H   0  0  0  0  0  0  0  0  0  0  0  0
    1.9071    0.8668   -2.1539 H   0  0  0  0  0  0  0  0  0  0  0  0
    4.3588    0.3199   -2.2021 H   0  0  0  0  0  0  0  0  0  0  0  0
    5.5724   -0.1950   -0.0662 H   0  0  0  0  0  0  0  0  0  0  0  0
    4.3238   -0.1479    2.1114 H   0  0  0  0  0  0  0  0  0  0  0  0
    1.8711    0.3997    2.1406 H   0  0  0  0  0  0  0  0  0  0  0  0
  2  6  1  0  0  0  0
  3 14  1  0  0  0  0
  3 15  1  0  0  0  0
  4  1  1  6  0  0  0
  4  3  1  0  0  0  0
  4  5  1  0  0  0  0
  5 17  1  0  0  0  0
  6  5  2  0  0  0  0
  6  7  1  0  0  0  0
  7 18  1  0  0  0  0
  7 20  1  0  0  0  0
  8  2  1  0  0  0  0
  8 13  1  0  0  0  0
  9  8  2  0  0  0  0
 10  9  1  0  0  0  0
 10 11  2  0  0  0  0
 11 12  1  0  0  0  0
 12 13  2  0  0  0  0
 12 24  1  0  0  0  0
 13 25  1  0  0  0  0
 16  3  1  0  0  0  0
 19  7  1  0  0  0  0
 21  9  1  0  0  0  0
 22 10  1  0  0  0  0
 23 11  1  0  0  0  0
M  END
