1,2
q = -1.0, confidence = 0.0

 29 32  0  0  1  0  0  0  0  0999 V2000
    1.5995    0.8970   -0.1294 O   0  5  0  0  0  0  0  0  0  0  0  0
   -0.2217   -1.4097    0.5342 N   0  0  0  0  0  2  0  0  0  0  0  0
    1.8073   -4.2997    0.8590 O   0  0  0  0  0  0  0  0  0  0  0  0
    3.4330   -2.1133    0.2124 N   0  0  0  0  0  0  0  0  0  0  0  0
    3.4721   -3.1196    0.4092 H   0  0  0  0  0  0  0  0  0  0  0  0
    0.9922   -2.0233    0.4957 C   0  0  1  0  0  3  0  0  0  0  0  0
    4.7712    1.1851   -0.4534 C   0  0  0  0  0  0  0  0  0  0  0  0
    4.3486    2.1933   -0.5762 H   0  0  0  0  0  0  0  0  0  0  0  0
    2.2253   -1.4309    0.2219 C   0  0  0  0  0  0  0  0  0  0  0  0
   -2.6462   -4.6490    1.7938 C   0  0  0  0  0  0  0  0  0  0  0  0
   -3.2437   -5.5133    2.1172 H   0  0  0  0  0  0  0  0  0  0  0  0
    4.4643   -1.2281   -0.0261 C   0  0  0  0  0  0  0  0  0  0  0  0
   -2.5295   -2.2452    1.2522 C   0  0  0  0  0  0  0  0  0  0  0  0
   -3.0379   -1.2784    1.1949 H   0  0  0  0  0  0  0  0  0  0  0  0
   -0.5536   -3.6647    1.1194 C   0  0  0  0  0  0  0  0  0  0  0  0
   -1.2749   -4.7915    1.5280 C   0  0  0  0  0  0  0  0  0  0  0  0
   -0.7584   -5.7565    1.6421 H   0  0  0  0  0  0  0  0  0  0  0  0
    6.1448    0.9545   -0.5500 C   0  0  0  0  0  0  0  0  0  0  0  0
    6.8311    1.7891   -0.7539 H   0  0  0  0  0  0  0  0  0  0  0  0
    6.6695   -0.3525   -0.3842 C   0  0  0  0  0  0  0  0  0  0  0  0
    7.7562   -0.5066   -0.4629 H   0  0  0  0  0  0  0  0  0  0  0  0
   -3.2499   -3.3840    1.6633 C   0  0  0  0  0  0  0  0  0  0  0  0
   -4.3200   -3.2718    1.8961 H   0  0  0  0  0  0  0  0  0  0  0  0
   -1.1655   -2.3871    0.9506 C   0  0  0  0  0  0  0  0  0  0  0  0
    3.9212    0.0907   -0.1885 C   0  0  0  0  0  0  0  0  0  0  0  0
    5.8473   -1.4561   -0.1226 C   0  0  0  0  0  0  0  0  0  0  0  0
    6.2688   -2.4637    0.0035 H   0  0  0  0  0  0  0  0  0  0  0  0
    0.8755   -3.4907    0.8353 C   0  0  0  0  0  0  0  0  0  0  0  0
    2.4895   -0.0301   -0.0351 C   0  0  0  0  0  0  0  0  0  0  0  0
  1 29  1  0  0  0  0
  2 24  1  0  0  0  0
  4  9  1  0  0  0  0
  4  5  1  0  0  0  0
  6  9  1  1  0  0  0
  6  2  1  0  0  0  0
  6 28  1  0  0  0  0
  7 25  1  0  0  0  0
  8  7  1  0  0  0  0
 10 11  1  0  0  0  0
 12  4  1  0  0  0  0
 13 22  2  0  0  0  0
 14 13  1  0  0  0  0
 15 16  1  0  0  0  0
 16 17  1  0  0  0  0
 16 10  2  0  0  0  0
 18  7  2  0  0  0  0
 18 20  1  0  0  0  0
 19 18  1  0  0  0  0
 20 26  2  0  0  0  0
 21 20  1  0  0  0  0
 22 10  1  0  0  0  0
 22 23  1  0  0  0  0
 24 15  2  0  0  0  0
 24 13  1  0  0  0  0
 25 29  1  0  0  0  0
 25 12  2  0  0  0  0
 26 12  1  0  0  0  0
 26 27  1  0  0  0  0
 28  3  2  0  0  0  0
 28 15  1  0  0  0  0
 29  9  2  0  0  0  0
M  CHG  1   1  -1
M  END
