1,3
q = -1.0, confidence = 0.0

 32 33  0  0  1  0  0  0  0  0999 V2000
    0.4154    1.8580   -0.8954 O   0  0  0  0  0  1  0  0  0  0  0  0
    2.4281   -1.2652    1.3295 O   0  0  0  0  0  0  0  0  0  0  0  0
    0.4638   -0.7690    0.3565 N   0  0  0  0  0  2  0  0  0  0  0  0
    1.6425    1.9114   -0.4731 C   0  0  1  0  0  3  0  0  0  0  0  0
    2.4126    3.0771   -0.8055 C   0  0  0  0  0  0  0  0  0  0  0  0
    3.7190    3.2466   -0.3714 C   0  0  0  0  0  0  0  0  0  0  0  0
    4.3560    2.2612    0.4237 C   0  0  0  0  0  0  0  0  0  0  0  0
    3.6540    1.1111    0.7556 C   0  0  0  0  0  0  0  0  0  0  0  0
    2.3135    0.8998    0.3194 C   0  0  0  0  0  0  0  0  0  0  0  0
    1.6805   -0.3528    0.6482 C   0  0  0  0  0  0  0  0  0  0  0  0
    1.5474   -2.3521    1.6756 C   0  0  0  0  0  0  0  0  0  0  0  0
    0.3642   -2.1992    0.7003 C   0  0  2  0  0  0  0  0  0  0  0  0
    0.4350   -3.1384   -0.5540 C   0  0  0  0  0  0  0  0  0  0  0  0
    1.7428   -2.9121   -1.3333 C   0  0  0  0  0  0  0  0  0  0  0  0
   -0.7575   -2.8638   -1.4859 C   0  0  0  0  0  0  0  0  0  0  0  0
    0.3494   -4.5985   -0.0706 C   0  0  0  0  0  0  0  0  0  0  0  0
    1.9070    3.8394   -1.4162 H   0  0  0  0  0  0  0  0  0  0  0  0
    4.2649    4.1633   -0.6468 H   0  0  0  0  0  0  0  0  0  0  0  0
    5.3902    2.4027    0.7690 H   0  0  0  0  0  0  0  0  0  0  0  0
    4.1276    0.3261    1.3615 H   0  0  0  0  0  0  0  0  0  0  0  0
    2.1133   -3.2966    1.5752 H   0  0  0  0  0  0  0  0  0  0  0  0
    1.2360   -2.2285    2.7356 H   0  0  0  0  0  0  0  0  0  0  0  0
   -0.6007   -2.3909    1.2131 H   0  0  0  0  0  0  0  0  0  0  0  0
    1.8032   -1.8738   -1.7159 H   0  0  0  0  0  0  0  0  0  0  0  0
    1.7900   -3.5952   -2.2054 H   0  0  0  0  0  0  0  0  0  0  0  0
    2.6421   -3.0998   -0.7132 H   0  0  0  0  0  0  0  0  0  0  0  0
   -0.7735   -1.8063   -1.8194 H   0  0  0  0  0  0  0  0  0  0  0  0
   -1.7219   -3.0792   -0.9812 H   0  0  0  0  0  0  0  0  0  0  0  0
   -0.6978   -3.5128   -2.3833 H   0  0  0  0  0  0  0  0  0  0  0  0
    0.3197   -5.2873   -0.9389 H   0  0  0  0  0  0  0  0  0  0  0  0
   -0.5702   -4.7726    0.5266 H   0  0  0  0  0  0  0  0  0  0  0  0
    1.2202   -4.8938    0.5493 H   0  0  0  0  0  0  0  0  0  0  0  0
  2 11  1  0  0  0  0
  3 10  1  0  0  0  0
  3 12  1  0  0  0  0
  4  1  1  1  0  0  0
  4  9  1  0  0  0  0
  5  4  1  0  0  0  0
  5  6  2  0  0  0  0
  6  7  1  0  0  0  0
  7  8  2  0  0  0  0
  7 19  1  0  0  0  0
  8 20  1  0  0  0  0
  9 10  2  0  0  0  0
  9  8  1  0  0  0  0
 10  2  1  0  0  0  0
 11 22  1  0  0  0  0
 12 23  1  1  0  0  0
 12 11  1  0  0  0  0
 13 16  1  0  0  0  0
 13 12  1  0  0  0  0
 14 26  1  0  0  0  0
 14 13  1  0  0  0  0
 15 28  1  0  0  0  0
 15 13  1  0  0  0  0
 16 31  1  0  0  0  0
 16 32  1  0  0  0  0
 17  5  1  0  0  0  0
 18  6  1  0  0  0  0
 21 11  1  0  0  0  0
 24 14  1  0  0  0  0
 25 14  1  0  0  0  0
 27 15  1  0  0  0  0
 29 15  1  0  0  0  0
 30 16  1  0  0  0  0
M  END
