1,2
q = -1.0, confidence = 0.004

 23 23  0  0  0  0  0  0  0  0999 V2000
   -0.3956    0.4709   -2.0732 O   0  0  0  0  0  1  0  0  0  0  0  0
   -0.2165    1.7295    0.1108 N   0  0  0  0  0  2  0  0  0  0  0  0
   -0.2209    2.2558    1.3561 C   0  0  0  0  0  3  0  0  0  0  0  0
   -0.0476    1.5526    2.1809 H   0  0  0  0  0  0  0  0  0  0  0  0
   -0.4404    3.6140    1.5903 C   0  0  0  0  0  0  0  0  0  0  0  0
   -0.4434    3.9857    2.6253 H   0  0  0  0  0  0  0  0  0  0  0  0
   -0.6572    4.4865    0.5059 C   0  0  0  0  0  0  0  0  0  0  0  0
   -0.6197    3.9221   -0.7823 C   0  0  0  0  0  0  0  0  0  0  0  0
   -0.7589    4.5585   -1.6682 H   0  0  0  0  0  0  0  0  0  0  0  0
   -0.4011    2.5481   -0.9489 C   0  0  0  0  0  0  0  0  0  0  0  0
   -0.2860    1.8541   -2.3062 C   0  0  0  0  0  0  0  0  0  0  0  0
   -0.9379    5.9484    0.7173 C   0  0  0  0  0  0  0  0  0  0  0  0
   -0.7102    6.5458   -0.1863 H   0  0  0  0  0  0  0  0  0  0  0  0
   -0.3564    6.3549    1.5678 H   0  0  0  0  0  0  0  0  0  0  0  0
   -2.0120    6.1027    0.9561 H   0  0  0  0  0  0  0  0  0  0  0  0
    1.1049    2.1682   -2.9033 C   0  0  0  0  0  0  0  0  0  0  0  0
    1.9058    1.8319   -2.2182 H   0  0  0  0  0  0  0  0  0  0  0  0
    1.2277    3.2541   -3.0886 H   0  0  0  0  0  0  0  0  0  0  0  0
    1.2133    1.6290   -3.8651 H   0  0  0  0  0  0  0  0  0  0  0  0
   -1.4017    2.2822   -3.2722 C   0  0  0  0  0  0  0  0  0  0  0  0
   -1.3035    1.6985   -4.2080 H   0  0  0  0  0  0  0  0  0  0  0  0
   -1.3349    3.3574   -3.5307 H   0  0  0  0  0  0  0  0  0  0  0  0
   -2.3972    2.0784   -2.8361 H   0  0  0  0  0  0  0  0  0  0  0  0
  2  3  1  0  0  0  0
  3  5  1  0  0  0  0
  3  4  1  0  0  0  0
  5  6  1  0  0  0  0
  7 12  1  0  0  0  0
  7  5  2  0  0  0  0
  8  7  1  0  0  0  0
  9  8  1  0  0  0  0
 10  8  2  0  0  0  0
 10  2  1  0  0  0  0
 11  1  1  0  0  0  0
 11 10  1  0  0  0  0
 12 15  1  0  0  0  0
 12 14  1  0  0  0  0
 13 12  1  0  0  0  0
 16 11  1  0  0  0  0
 16 17  1  0  0  0  0
 18 16  1  0  0  0  0
 19 16  1  0  0  0  0
 20 23  1  0  0  0  0
 20 11  1  0  0  0  0
 21 20  1  0  0  0  0
 22 20  1  0  0  0  0
M  END
