1,15
q = -1.0, confidence = 0.008

 31 32  0  0  0  0  0  0  0  0999 V2000
   -1.7589   -0.5794    0.0154 O   0  5  0  0  0  0  0  0  0  0  0  0
   -2.6123    0.4391   -0.0106 C   0  0  0  0  0  0  0  0  0  0  0  0
   -4.0561    0.0907   -0.0035 C   0  0  0  0  0  0  0  0  0  0  0  0
   -4.4375   -1.2586   -0.1690 C   0  0  0  0  0  0  0  0  0  0  0  0
   -5.7899   -1.6269   -0.1745 C   0  0  0  0  0  0  0  0  0  0  0  0
   -6.7884   -0.6540   -0.0125 C   0  0  0  0  0  0  0  0  0  0  0  0
   -6.4208    0.6918    0.1597 C   0  0  0  0  0  0  0  0  0  0  0  0
   -5.0701    1.0602    0.1672 C   0  0  0  0  0  0  0  0  0  0  0  0
   -4.7991    2.1146    0.3233 H   0  0  0  0  0  0  0  0  0  0  0  0
   -7.1960    1.4614    0.2964 H   0  0  0  0  0  0  0  0  0  0  0  0
   -7.8508   -0.9418   -0.0154 H   0  0  0  0  0  0  0  0  0  0  0  0
   -6.0677   -2.6841   -0.3067 H   0  0  0  0  0  0  0  0  0  0  0  0
   -3.6455   -2.0103   -0.2940 H   0  0  0  0  0  0  0  0  0  0  0  0
   -2.1265    1.7193   -0.0552 C   0  0  0  0  0  0  0  0  0  0  0  0
   -0.6704    1.8297   -0.0374 N   0  0  0  0  0  0  0  0  0  0  0  0
   -0.1603    2.5182    1.1958 C   0  0  0  0  0  0  0  0  0  0  0  0
   -0.4663    4.0182    1.2097 C   0  0  0  0  0  0  0  0  0  0  0  0
    0.0890    4.7026   -0.0449 C   0  0  0  0  0  0  0  0  0  0  0  0
   -0.4277    4.0016   -1.3069 C   0  0  0  0  0  0  0  0  0  0  0  0
   -0.1252    2.5012   -1.2637 C   0  0  0  0  0  0  0  0  0  0  0  0
    0.9695    2.3229   -1.2552 H   0  0  0  0  0  0  0  0  0  0  0  0
   -0.5558    1.9744   -2.1368 H   0  0  0  0  0  0  0  0  0  0  0  0
    0.0394    4.4279   -2.2189 H   0  0  0  0  0  0  0  0  0  0  0  0
   -1.5222    4.1656   -1.4127 H   0  0  0  0  0  0  0  0  0  0  0  0
    1.2007    4.6490   -0.0275 H   0  0  0  0  0  0  0  0  0  0  0  0
   -0.1758    5.7803   -0.0561 H   0  0  0  0  0  0  0  0  0  0  0  0
   -1.5644    4.1786    1.2777 H   0  0  0  0  0  0  0  0  0  0  0  0
   -0.0298    4.4581    2.1304 H   0  0  0  0  0  0  0  0  0  0  0  0
   -0.6152    2.0021    2.0629 H   0  0  0  0  0  0  0  0  0  0  0  0
    0.9347    2.3427    1.2212 H   0  0  0  0  0  0  0  0  0  0  0  0
   -2.7305    2.6325   -0.1164 H   0  0  0  0  0  0  0  0  0  0  0  0
  2  3  1  0  0  0  0
  2  1  1  0  0  0  0
  3  8  1  0  0  0  0
  4  3  2  0  0  0  0
  5  4  1  0  0  0  0
  5  6  2  0  0  0  0
  6  7  1  0  0  0  0
  7  8  2  0  0  0  0
  7 10  1  0  0  0  0
  8  9  1  0  0  0  0
 11  6  1  0  0  0  0
 12  5  1  0  0  0  0
 13  4  1  0  0  0  0
 14 15  1  0  0  0  0
 14  2  2  0  0  0  0
 15 16  1  0  0  0  0
 16 17  1  0  0  0  0
 16 30  1  0  0  0  0
 16 29  1  0  0  0  0
 17 27  1  0  0  0  0
 17 28  1  0  0  0  0
 18 25  1  0  0  0  0
 18 17  1  0  0  0  0
 19 20  1  0  0  0  0
 19 18  1  0  0  0  0
 20 21  1  0  0  0  0
 20 15  1  0  0  0  0
 22 20  1  0  0  0  0
 23 19  1  0  0  0  0
 24 19  1  0  0  0  0
 26 18  1  0  0  0  0
 31 14  1  0  0  0  0
M  CHG  1   1  -1
M  END
