1,2
q = -1.0, confidence = 0.0

 19 19  0  0  0  0  0  0  0  0999 V2000
    1.7679   -0.5621    0.0001 O   0  5  0  0  0  0  0  0  0  0  0  0
    0.4310    1.7892   -0.0003 N   0  0  0  0  0  2  0  0  0  0  0  0
    1.6135    2.3472   -0.0002 C   0  0  0  0  0  0  0  0  0  0  0  0
    2.8499    1.6213   -0.0000 C   0  0  0  0  0  0  0  0  0  0  0  0
    2.8361    0.1834    0.0001 C   0  0  0  0  0  0  0  0  0  0  0  0
    4.1158   -0.4934    0.0001 C   0  0  0  0  0  0  0  0  0  0  0  0
    5.3053    0.2355    0.0002 C   0  0  0  0  0  0  0  0  0  0  0  0
    5.2927    1.6552    0.0001 C   0  0  0  0  0  0  0  0  0  0  0  0
    4.0865    2.3341    0.0000 C   0  0  0  0  0  3  0  0  0  0  0  0
    4.0274   -1.8523    0.0002 O   0  0  0  0  0  0  0  0  0  0  0  0
    5.2304   -2.5893   -0.0004 C   0  0  0  0  0  0  0  0  0  0  0  0
   -0.3879    2.4132   -0.0004 H   0  0  0  0  0  0  0  0  0  0  0  0
    1.6798    3.4527   -0.0002 H   0  0  0  0  0  0  0  0  0  0  0  0
    6.2702   -0.2898    0.0003 H   0  0  0  0  0  0  0  0  0  0  0  0
    6.2456    2.2037    0.0001 H   0  0  0  0  0  0  0  0  0  0  0  0
    4.0603    3.4349   -0.0000 H   0  0  0  0  0  0  0  0  0  0  0  0
    4.9464   -3.6584   -0.0008 H   0  0  0  0  0  0  0  0  0  0  0  0
    5.8484   -2.3797   -0.9037 H   0  0  0  0  0  0  0  0  0  0  0  0
    5.8488   -2.3805    0.9029 H   0  0  0  0  0  0  0  0  0  0  0  0
  2  3  1  0  0  0  0
  3  4  2  0  0  0  0
  4  9  1  0  0  0  0
  4  5  1  0  0  0  0
  5  1  1  0  0  0  0
  5  6  2  0  0  0  0
  6  7  1  0  0  0  0
  6 10  1  0  0  0  0
  7 14  1  0  0  0  0
  8 15  1  0  0  0  0
  8  7  2  0  0  0  0
  9  8  1  0  0  0  0
 11 10  1  0  0  0  0
 11 19  1  0  0  0  0
 12  2  1  0  0  0  0
 13  3  1  0  0  0  0
 16  9  1  0  0  0  0
 17 11  1  0  0  0  0
 18 11  1  0  0  0  0
M  CHG  1   1  -1
M  END
