1,2
q = -1.0, confidence = 0.0

 34 36  0  0  1  0  0  0  0  0999 V2000
    1.3458    1.1845   -0.4321 O   0  5  0  0  0  0  0  0  0  0  0  0
    1.1432   -1.4940   -0.2689 N   0  0  0  0  0  2  0  0  0  0  0  0
    0.5586   -2.7866   -0.4376 C   0  0  0  0  0  0  0  0  0  0  0  0
    0.8300   -3.8203    0.4734 C   0  0  0  0  0  0  0  0  0  0  0  0
    0.2560   -5.0990    0.3165 C   0  0  0  0  0  0  0  0  0  0  0  0
   -0.6049   -5.3150   -0.7760 C   0  0  0  0  0  0  0  0  0  0  0  0
   -0.8822   -4.2811   -1.6878 C   0  0  0  0  0  0  0  0  0  0  0  0
   -0.3091   -3.0174   -1.5228 C   0  0  0  0  0  0  0  0  0  0  0  0
    0.5658   -6.1965    1.3043 C   0  0  0  0  0  0  0  0  0  0  0  0
    2.4646   -1.4342   -0.2517 C   0  0  0  0  0  0  0  0  0  0  0  0
    3.2648   -0.2582   -0.1893 C   0  0  0  0  0  0  0  0  0  0  0  0
    2.6292    1.0159   -0.3491 C   0  0  0  0  0  0  0  0  0  0  0  0
    3.4478    2.1969   -0.4616 C   0  0  0  0  0  0  0  0  0  0  0  0
    4.8163    2.1161   -0.3763 C   0  0  0  0  0  0  0  0  0  0  0  0
    5.4917    0.8655   -0.1772 C   0  0  0  0  0  0  0  0  0  0  0  0
    6.9068    0.8067   -0.0731 C   0  0  0  0  0  0  0  0  0  0  0  0
    7.5641   -0.4017    0.1281 C   0  0  0  0  0  0  0  0  0  0  0  0
    6.8049   -1.5894    0.2386 C   0  0  0  0  0  0  0  0  0  0  0  0
    5.4158   -1.5578    0.1432 C   0  0  0  0  0  0  0  0  0  0  0  0
    4.7129   -0.3406   -0.0766 C   0  0  1  0  0  3  0  0  0  0  0  0
    1.4780   -3.6102    1.3387 H   0  0  0  0  0  0  0  0  0  0  0  0
   -1.0680   -6.3049   -0.9116 H   0  0  0  0  0  0  0  0  0  0  0  0
   -1.5594   -4.4653   -2.5355 H   0  0  0  0  0  0  0  0  0  0  0  0
   -0.5279   -2.1942   -2.2176 H   0  0  0  0  0  0  0  0  0  0  0  0
    0.4019   -5.8594    2.3484 H   0  0  0  0  0  0  0  0  0  0  0  0
   -0.0628   -7.0910    1.1307 H   0  0  0  0  0  0  0  0  0  0  0  0
    1.6279   -6.5134    1.2327 H   0  0  0  0  0  0  0  0  0  0  0  0
    2.9889   -2.4006   -0.3572 H   0  0  0  0  0  0  0  0  0  0  0  0
    2.9225    3.1528   -0.6007 H   0  0  0  0  0  0  0  0  0  0  0  0
    5.4265    3.0305   -0.4521 H   0  0  0  0  0  0  0  0  0  0  0  0
    7.4770    1.7456   -0.1543 H   0  0  0  0  0  0  0  0  0  0  0  0
    8.6608   -0.4350    0.2069 H   0  0  0  0  0  0  0  0  0  0  0  0
    7.3133   -2.5508    0.4089 H   0  0  0  0  0  0  0  0  0  0  0  0
    4.8615   -2.5004    0.2570 H   0  0  0  0  0  0  0  0  0  0  0  0
  1 12  1  0  0  0  0
  2 10  1  0  0  0  0
  3  2  1  0  0  0  0
  3  4  1  0  0  0  0
  4 21  1  0  0  0  0
  5  4  2  0  0  0  0
  5  9  1  0  0  0  0
  6  5  1  0  0  0  0
  7  8  1  0  0  0  0
  7  6  2  0  0  0  0
  8  3  2  0  0  0  0
  9 25  1  0  0  0  0
 10 11  2  0  0  0  0
 12 11  1  0  0  0  0
 13 14  1  0  0  0  0
 13 12  2  0  0  0  0
 14 15  2  0  0  0  0
 15 20  1  0  0  0  0
 15 16  1  0  0  0  0
 16 17  2  0  0  0  0
 17 32  1  0  0  0  0
 17 18  1  0  0  0  0
 18 33  1  0  0  0  0
 19 18  2  0  0  0  0
 19 34  1  0  0  0  0
 20 11  1  1  0  0  0
 20 19  1  0  0  0  0
 22  6  1  0  0  0  0
 23  7  1  0  0  0  0
 24  8  1  0  0  0  0
 26  9  1  0  0  0  0
 27  9  1  0  0  0  0
 28 10  1  0  0  0  0
 29 13  1  0  0  0  0
 30 14  1  0  0  0  0
 31 16  1  0  0  0  0
M  CHG  1   1  -1
M  END
