2,32
q = -1.0, confidence = 0.002

 32 33  0  0  1  0  0  0  0  0999 V2000
   -4.2745    1.8958    1.0809 Br  0  0  0  0  0  0  0  0  0  0  0  0
    0.8294    1.3516   -0.4386 N   0  0  0  0  0  2  0  0  0  0  0  0
    2.0828    2.0284   -0.4246 C   0  0  0  0  0  0  0  0  0  0  0  0
   -5.9924   -1.2868   -0.9835 C   0  0  0  0  0  0  0  0  0  0  0  0
   -7.0167   -1.6654   -1.1205 H   0  0  0  0  0  0  0  0  0  0  0  0
   -1.9374    0.1540   -0.5120 C   0  0  0  0  0  0  0  0  0  0  0  0
   -3.3668   -0.2838   -0.6263 C   0  0  0  0  0  0  0  0  0  0  0  0
   -5.7819   -0.1319   -0.2180 C   0  0  0  0  0  0  0  0  0  0  0  0
   -6.6250    0.3885    0.2578 H   0  0  0  0  0  0  0  0  0  0  0  0
    4.5862    3.3231   -0.4048 C   0  0  0  0  0  0  0  0  0  0  0  0
    5.5641    3.8276   -0.3976 H   0  0  0  0  0  0  0  0  0  0  0  0
   -1.5685    1.4535   -0.8624 C   0  0  0  0  0  0  0  0  0  0  0  0
   -2.3743    2.1195   -1.1932 H   0  0  0  0  0  0  0  0  0  0  0  0
   -4.4781    0.3626   -0.0424 C   0  0  0  0  0  0  0  0  0  0  0  0
   -4.9012   -1.9563   -1.5603 C   0  0  0  0  0  0  0  0  0  0  0  0
   -5.0600   -2.8656   -2.1588 H   0  0  0  0  0  0  0  0  0  0  0  0
    3.0604    1.6923   -1.3848 C   0  0  0  0  0  0  0  0  0  0  0  0
    2.8056    0.9204   -2.1281 H   0  0  0  0  0  0  0  0  0  0  0  0
    4.3039    2.3389   -1.3694 C   0  0  0  0  0  0  0  0  0  0  0  0
    5.0608    2.0750   -2.1243 H   0  0  0  0  0  0  0  0  0  0  0  0
   -0.1477    3.4613   -1.2569 C   0  0  0  0  0  0  0  0  0  0  0  0
   -0.0428    4.1450   -0.3904 H   0  0  0  0  0  0  0  0  0  0  0  0
   -1.0507    3.7618   -1.8179 H   0  0  0  0  0  0  0  0  0  0  0  0
    0.7432    3.6140   -1.8964 H   0  0  0  0  0  0  0  0  0  0  0  0
   -3.6069   -1.4608   -1.3724 C   0  0  0  0  0  0  0  0  0  0  0  0
   -2.7345   -1.9651   -1.8146 H   0  0  0  0  0  0  0  0  0  0  0  0
    3.6110    3.6611    0.5465 C   0  0  0  0  0  0  0  0  0  0  0  0
    3.8240    4.4278    1.3072 H   0  0  0  0  0  0  0  0  0  0  0  0
    2.3651    3.0156    0.5408 C   0  0  0  0  0  0  0  0  0  0  0  0
    1.6017    3.2615    1.2943 H   0  0  0  0  0  0  0  0  0  0  0  0
   -0.2651    2.0155   -0.8171 C   0  0  2  0  0  3  0  0  0  0  0  0
   -1.1461   -0.7994   -0.1508 O   0  5  0  0  0  0  0  0  0  0  0  0
  2  3  1  0  0  0  0
  3 29  1  0  0  0  0
  4  8  1  0  0  0  0
  5  4  1  0  0  0  0
  6 32  1  0  0  0  0
  7  6  1  0  0  0  0
  7 14  1  0  0  0  0
  8 14  2  0  0  0  0
  8  9  1  0  0  0  0
 10 11  1  0  0  0  0
 10 27  1  0  0  0  0
 12  6  2  0  0  0  0
 13 12  1  0  0  0  0
 14  1  1  0  0  0  0
 15 25  1  0  0  0  0
 15  4  2  0  0  0  0
 16 15  1  0  0  0  0
 17 19  1  0  0  0  0
 17  3  2  0  0  0  0
 18 17  1  0  0  0  0
 19 10  2  0  0  0  0
 20 19  1  0  0  0  0
 21 31  1  0  0  0  0
 21 22  1  0  0  0  0
 23 21  1  0  0  0  0
 24 21  1  0  0  0  0
 25  7  2  0  0  0  0
 26 25  1  0  0  0  0
 27 28  1  0  0  0  0
 29 27  2  0  0  0  0
 29 30  1  0  0  0  0
 31 12  1  6  0  0  0
 31  2  1  0  0  0  0
M  CHG  1  32  -1
M  END
