1,2
q = -1.0, confidence = 0.006

 11 11  0  0  0  0  0  0  0  0999 V2000
   -1.6139    0.0005    0.3862 N   0  0  0  0  0  0  0  0  0  0  0  0
   -0.4450   -0.0003   -2.0170 O   0  0  0  0  0  1  0  0  0  0  0  0
   -1.7237   -0.0003   -1.9842 C   0  0  0  0  0  3  0  0  0  0  0  0
   -2.2654   -0.0005   -2.9541 H   0  0  0  0  0  0  0  0  0  0  0  0
   -2.4150    0.0001   -0.7598 C   0  0  0  0  0  0  0  0  0  0  0  0
   -3.7881    0.0001   -0.3762 C   0  0  0  0  0  0  0  0  0  0  0  0
   -4.6493   -0.0001   -1.0546 H   0  0  0  0  0  0  0  0  0  0  0  0
   -3.7997    0.0004    1.0218 C   0  0  0  0  0  0  0  0  0  0  0  0
   -4.6768    0.0005    1.6794 H   0  0  0  0  0  0  0  0  0  0  0  0
   -2.4384    0.0007    1.4480 C   0  0  0  0  0  3  0  0  0  0  0  0
   -2.0438    0.0010    2.4727 H   0  0  0  0  0  0  0  0  0  0  0  0
  1 10  1  0  0  0  0
  2  3  1  0  0  0  0
  3  5  1  0  0  0  0
  4  3  1  0  0  0  0
  5  6  1  0  0  0  0
  5  1  2  0  0  0  0
  6  8  2  0  0  0  0
  7  6  1  0  0  0  0
  8 10  1  0  0  0  0
  8  9  1  0  0  0  0
 10 11  1  0  0  0  0
M  END
