3,10
q = -1.0, confidence = 0.0

 26 28  0  0  1  0  0  0  0  0999 V2000
   -1.1131    4.1773    0.0750 O   0  0  0  0  0  0  0  0  0  0  0  0
   -0.9793    2.8639   -0.2079 C   0  0  2  0  0  3  0  0  0  0  0  0
   -2.0692    2.1457    0.0078 N   0  0  0  0  0  2  0  0  0  0  0  0
   -3.1542    3.0513    0.4092 C   0  0  0  0  0  0  0  0  0  0  0  0
   -3.6897    2.6332    1.2832 H   0  0  0  0  0  0  0  0  0  0  0  0
   -3.8838    3.1443   -0.4248 H   0  0  0  0  0  0  0  0  0  0  0  0
   -2.4094    4.3622    0.7027 C   0  0  0  0  0  0  0  0  0  0  0  0
   -2.8770    5.2630    0.2634 H   0  0  0  0  0  0  0  0  0  0  0  0
   -2.2394    4.5313    1.7872 H   0  0  0  0  0  0  0  0  0  0  0  0
   -0.6392    0.2846   -1.2720 O   0  5  0  0  0  0  0  0  0  0  0  0
    0.3946    1.0690   -1.1848 C   0  0  0  0  0  0  0  0  0  0  0  0
    0.2964    2.3956   -0.6702 C   0  0  0  0  0  0  0  0  0  0  0  0
    1.4529    3.2394   -0.6023 C   0  0  0  0  0  0  0  0  0  0  0  0
    1.3284    4.2599   -0.2142 H   0  0  0  0  0  0  0  0  0  0  0  0
    2.6914    2.7742   -0.9801 C   0  0  0  0  0  0  0  0  0  0  0  0
    3.5799    3.4176   -0.8983 H   0  0  0  0  0  0  0  0  0  0  0  0
    4.1211    0.9011   -1.8125 C   0  0  0  0  0  0  0  0  0  0  0  0
    5.0090    1.5434   -1.7054 H   0  0  0  0  0  0  0  0  0  0  0  0
    4.2497   -0.4070   -2.2665 C   0  0  0  0  0  0  0  0  0  0  0  0
    5.2451   -0.8031   -2.5198 H   0  0  0  0  0  0  0  0  0  0  0  0
    3.1079   -1.2344   -2.4042 C   0  0  0  0  0  0  0  0  0  0  0  0
    3.2191   -2.2691   -2.7610 H   0  0  0  0  0  0  0  0  0  0  0  0
    1.8502   -0.7412   -2.0779 C   0  0  0  0  0  0  0  0  0  0  0  0
    0.9501   -1.3653   -2.1635 H   0  0  0  0  0  0  0  0  0  0  0  0
    1.6985    0.5851   -1.5991 C   0  0  0  0  0  0  0  0  0  0  0  0
    2.8489    1.4344   -1.4675 C   0  0  0  0  0  0  0  0  0  0  0  0
  1  7  1  0  0  0  0
  2 12  1  1  0  0  0
  2  3  1  0  0  0  0
  2  1  1  0  0  0  0
  3  4  1  0  0  0  0
  4  7  1  0  0  0  0
  4  5  1  0  0  0  0
  6  4  1  0  0  0  0
  7  9  1  0  0  0  0
  8  7  1  0  0  0  0
 10 11  1  0  0  0  0
 11 12  1  0  0  0  0
 12 13  2  0  0  0  0
 13 14  1  0  0  0  0
 15 16  1  0  0  0  0
 15 13  1  0  0  0  0
 17 18  1  0  0  0  0
 17 26  1  0  0  0  0
 19 17  2  0  0  0  0
 20 19  1  0  0  0  0
 21 19  1  0  0  0  0
 21 23  2  0  0  0  0
 22 21  1  0  0  0  0
 23 25  1  0  0  0  0
 24 23  1  0  0  0  0
 25 26  1  0  0  0  0
 25 11  2  0  0  0  0
 26 15  2  0  0  0  0
M  CHG  1  10  -1
M  END
