3,4
q = -1.0, confidence = 0.0

 27 29  0  0  0  0  0  0  0  0999 V2000
   -6.0600    1.9658   -0.2511 Br  0  0  0  0  0  0  0  0  0  0  0  0
    2.7601    0.9488   -1.4407 S   0  0  0  0  0  0  0  0  0  0  0  0
   -1.3912   -1.8880   -0.3532 O   0  5  0  0  0  0  0  0  0  0  0  0
    0.3227    0.4349   -0.2677 N   0  0  0  0  0  2  0  0  0  0  0  0
    1.5871    2.3223    0.4800 N   0  0  0  0  0  0  0  0  0  0  0  0
   -4.5585    0.7944   -0.2856 C   0  0  0  0  0  0  0  0  0  0  0  0
   -4.7708   -0.6096   -0.3436 C   0  0  0  0  0  0  0  0  0  0  0  0
   -5.7983   -1.0010   -0.3716 H   0  0  0  0  0  0  0  0  0  0  0  0
   -3.6926   -1.4782   -0.3661 C   0  0  0  0  0  0  0  0  0  0  0  0
   -3.8435   -2.5661   -0.4135 H   0  0  0  0  0  0  0  0  0  0  0  0
   -2.3365   -1.0078   -0.3383 C   0  0  0  0  0  0  0  0  0  0  0  0
   -2.1386    0.4264   -0.2807 C   0  0  0  0  0  0  0  0  0  0  0  0
   -3.2707    1.2995   -0.2576 C   0  0  0  0  0  0  0  0  0  0  0  0
   -3.1014    2.3858   -0.2186 H   0  0  0  0  0  0  0  0  0  0  0  0
   -0.8543    1.0372   -0.2619 C   0  0  0  0  0  3  0  0  0  0  0  0
   -0.8284    2.1428   -0.2434 H   0  0  0  0  0  0  0  0  0  0  0  0
    1.4444    1.2706   -0.2826 C   0  0  0  0  0  0  0  0  0  0  0  0
    2.7835    2.9652    0.2202 C   0  0  0  0  0  0  0  0  0  0  0  0
    3.2529    4.1222    0.8764 C   0  0  0  0  0  0  0  0  0  0  0  0
    2.6316    4.5837    1.6573 H   0  0  0  0  0  0  0  0  0  0  0  0
    4.4942    4.6517    0.5119 C   0  0  0  0  0  0  0  0  0  0  0  0
    4.8689    5.5555    1.0151 H   0  0  0  0  0  0  0  0  0  0  0  0
    5.2759    4.0431   -0.4958 C   0  0  0  0  0  0  0  0  0  0  0  0
    6.2494    4.4790   -0.7660 H   0  0  0  0  0  0  0  0  0  0  0  0
    4.8321    2.8920   -1.1601 C   0  0  0  0  0  0  0  0  0  0  0  0
    5.4434    2.4233   -1.9450 H   0  0  0  0  0  0  0  0  0  0  0  0
    3.5851    2.3573   -0.7967 C   0  0  0  0  0  0  0  0  0  0  0  0
  2 27  1  0  0  0  0
  2 17  1  0  0  0  0
  3 11  1  0  0  0  0
  4 15  1  0  0  0  0
  6 13  1  0  0  0  0
  6  1  1  0  0  0  0
  7  6  2  0  0  0  0
  8  7  1  0  0  0  0
  9  7  1  0  0  0  0
  9 11  2  0  0  0  0
 10  9  1  0  0  0  0
 11 12  1  0  0  0  0
 12 15  1  0  0  0  0
 12 13  2  0  0  0  0
 13 14  1  0  0  0  0
 15 16  1  0  0  0  0
 17  4  1  0  0  0  0
 17  5  2  0  0  0  0
 18  5  1  0  0  0  0
 18 19  1  0  0  0  0
 19 20  1  0  0  0  0
 21 19  2  0  0  0  0
 21 22  1  0  0  0  0
 23 21  1  0  0  0  0
 24 23  1  0  0  0  0
 25 27  1  0  0  0  0
 25 23  2  0  0  0  0
 26 25  1  0  0  0  0
 27 18  2  0  0  0  0
M  CHG  1   3  -1
M  END
