2,32
q = 0.0, confidence = 0.934

 32 34  0  0  1  0  0  0  0  0999 V2000
    1.2837   -0.1180   -0.2218 P   0  0  0  0  0  4  0  0  0  0  0  0
    0.1682   -0.2805   -1.2744 O   0  0  0  0  0  1  0  0  0  0  0  0
    2.6143   -1.3654   -0.4677 C   0  0  0  0  0  0  0  0  0  0  0  0
    3.5812   -0.9871   -1.3208 N   0  0  0  0  0  0  0  0  0  0  0  0
    3.5405   -3.5736   -0.2122 C   0  0  0  0  0  0  0  0  0  0  0  0
    3.5251   -4.5856    0.2201 H   0  0  0  0  0  0  0  0  0  0  0  0
    4.5572   -3.1861   -1.0963 C   0  0  0  0  0  0  0  0  0  0  0  0
    5.3621   -3.8815   -1.3772 H   0  0  0  0  0  0  0  0  0  0  0  0
    4.5299   -1.8831   -1.6251 C   0  0  0  0  0  0  0  0  0  0  0  0
    5.3133   -1.5485   -2.3277 H   0  0  0  0  0  0  0  0  0  0  0  0
    2.5410   -2.6453    0.1131 C   0  0  0  0  0  0  0  0  0  0  0  0
    1.7226   -2.9065    0.8010 H   0  0  0  0  0  0  0  0  0  0  0  0
    2.1645    1.4825   -0.2288 C   0  0  0  0  0  0  0  0  0  0  0  0
    1.8206    2.4857   -1.1468 C   0  0  0  0  0  0  0  0  0  0  0  0
    0.9854    2.3327   -1.8444 H   0  0  0  0  0  0  0  0  0  0  0  0
    2.5637    3.6732   -1.1023 C   0  0  0  0  0  0  0  0  0  0  0  0
    2.3405    4.4957   -1.7984 H   0  0  0  0  0  0  0  0  0  0  0  0
    3.5842    3.7991   -0.1470 C   0  0  0  0  0  0  0  0  0  0  0  0
    4.1843    4.7184   -0.0761 H   0  0  0  0  0  0  0  0  0  0  0  0
    3.8306    2.7294    0.7300 C   0  0  0  0  0  0  0  0  0  0  0  0
    4.6215    2.8017    1.4964 H   0  0  0  0  0  0  0  0  0  0  0  0
    3.1389    1.5796    0.6882 N   0  0  0  0  0  0  0  0  0  0  0  0
    0.5980   -0.4363    1.4480 C   0  0  1  0  0  3  0  0  0  0  0  0
    1.3706   -0.3626    2.6147 C   0  0  0  0  0  0  0  0  0  0  0  0
    2.4313   -0.0823    2.5356 H   0  0  0  0  0  0  0  0  0  0  0  0
    0.7430   -0.6065    3.8453 C   0  0  0  0  0  0  0  0  0  0  0  0
    1.3109   -0.5414    4.7854 H   0  0  0  0  0  0  0  0  0  0  0  0
   -0.6232   -0.9208    3.8513 C   0  0  0  0  0  0  0  0  0  0  0  0
   -1.1626   -1.1088    4.7906 H   0  0  0  0  0  0  0  0  0  0  0  0
   -1.3175   -0.9812    2.6357 C   0  0  0  0  0  0  0  0  0  0  0  0
   -2.3955   -1.1961    2.6014 H   0  0  0  0  0  0  0  0  0  0  0  0
   -0.7241   -0.7454    1.4460 N   0  0  0  0  0  2  0  0  0  0  0  0
  2  1  1  0  0  0  0
  3  1  1  0  0  0  0
  3 11  1  0  0  0  0
  4  3  2  0  0  0  0
  5 11  2  0  0  0  0
  5  6  1  0  0  0  0
  7  5  1  0  0  0  0
  8  7  1  0  0  0  0
  9  4  1  0  0  0  0
  9  7  2  0  0  0  0
 10  9  1  0  0  0  0
 11 12  1  0  0  0  0
 13  1  1  0  0  0  0
 13 22  1  0  0  0  0
 14 16  1  0  0  0  0
 14 13  2  0  0  0  0
 15 14  1  0  0  0  0
 16 18  2  0  0  0  0
 17 16  1  0  0  0  0
 18 19  1  0  0  0  0
 18 20  1  0  0  0  0
 20 21  1  0  0  0  0
 22 20  2  0  0  0  0
 23  1  1  1  0  0  0
 23 24  1  0  0  0  0
 24 26  2  0  0  0  0
 25 24  1  0  0  0  0
 26 28  1  0  0  0  0
 26 27  1  0  0  0  0
 28 29  1  0  0  0  0
 30 28  2  0  0  0  0
 31 30  1  0  0  0  0
 32 23  1  0  0  0  0
 32 30  1  0  0  0  0
M  END
