2,3
q = -1.0, confidence = 0.002

 40 40  0  0  1  0  0  0  0  0999 V2000
    3.3278   -0.2853    0.3610 Se  0  0  0  0  0  0  0  0  0  0  0  0
   -1.0230   -0.3508   -0.1702 O   0  0  0  0  0  1  0  0  0  0  0  0
    1.0209    1.7193   -0.1077 N   0  0  0  0  0  2  0  0  0  0  0  0
   -1.8338    0.6565   -0.0405 C   0  0  2  0  0  3  0  0  0  0  0  0
   -3.2461    0.3559    0.0472 C   0  0  0  0  0  0  0  0  0  0  0  0
   -4.1515    1.4078    0.1646 C   0  0  0  0  0  0  0  0  0  0  0  0
   -3.7544    2.7687    0.2001 C   0  0  0  0  0  0  0  0  0  0  0  0
   -2.4084    3.0746    0.1186 C   0  0  0  0  0  0  0  0  0  0  0  0
   -1.4214    2.0470    0.0064 C   0  0  0  0  0  0  0  0  0  0  0  0
   -0.0584    2.4675   -0.0885 C   0  0  0  0  0  0  0  0  0  0  0  0
    2.3222    2.3366   -0.3776 C   0  0  0  0  0  0  0  0  0  0  0  0
    3.4335    1.7011    0.4454 C   0  0  0  0  0  0  0  0  0  0  0  0
    3.9947   -0.5737   -1.4665 C   0  0  0  0  0  0  0  0  0  0  0  0
   -3.7303   -1.0850    0.0115 C   0  0  0  0  0  0  0  0  0  0  0  0
   -3.1890   -1.9420    1.1795 C   0  0  0  0  0  0  0  0  0  0  0  0
   -3.4085   -1.3286    2.5613 C   0  0  0  0  0  0  0  0  0  0  0  0
   -3.4575   -1.7733   -1.3456 C   0  0  0  0  0  0  0  0  0  0  0  0
   -4.0419   -1.0375   -2.5503 C   0  0  0  0  0  0  0  0  0  0  0  0
   -5.2233    1.1594    0.2334 H   0  0  0  0  0  0  0  0  0  0  0  0
   -4.5081    3.5638    0.2914 H   0  0  0  0  0  0  0  0  0  0  0  0
   -2.0713    4.1234    0.1427 H   0  0  0  0  0  0  0  0  0  0  0  0
    0.0991    3.5639   -0.1589 H   0  0  0  0  0  0  0  0  0  0  0  0
    2.5531    2.2250   -1.4615 H   0  0  0  0  0  0  0  0  0  0  0  0
    2.2795    3.4310   -0.1730 H   0  0  0  0  0  0  0  0  0  0  0  0
    4.4402    2.0261    0.1180 H   0  0  0  0  0  0  0  0  0  0  0  0
    3.3179    1.9229    1.5251 H   0  0  0  0  0  0  0  0  0  0  0  0
    5.0955   -0.4674   -1.4804 H   0  0  0  0  0  0  0  0  0  0  0  0
    3.5082    0.1249   -2.1703 H   0  0  0  0  0  0  0  0  0  0  0  0
    3.6930   -1.6105   -1.7053 H   0  0  0  0  0  0  0  0  0  0  0  0
   -4.8370   -1.0276    0.1332 H   0  0  0  0  0  0  0  0  0  0  0  0
   -2.1091   -2.1330    1.0151 H   0  0  0  0  0  0  0  0  0  0  0  0
   -3.6934   -2.9315    1.1237 H   0  0  0  0  0  0  0  0  0  0  0  0
   -4.4812   -1.1058    2.7476 H   0  0  0  0  0  0  0  0  0  0  0  0
   -2.8525   -0.3750    2.6747 H   0  0  0  0  0  0  0  0  0  0  0  0
   -3.0632   -2.0119    3.3633 H   0  0  0  0  0  0  0  0  0  0  0  0
   -3.8815   -2.7999   -1.2906 H   0  0  0  0  0  0  0  0  0  0  0  0
   -2.3616   -1.8962   -1.4637 H   0  0  0  0  0  0  0  0  0  0  0  0
   -3.5952   -0.0284   -2.6660 H   0  0  0  0  0  0  0  0  0  0  0  0
   -3.8581   -1.5943   -3.4915 H   0  0  0  0  0  0  0  0  0  0  0  0
   -5.1402   -0.8991   -2.4525 H   0  0  0  0  0  0  0  0  0  0  0  0
  1 12  1  0  0  0  0
  3 10  1  0  0  0  0
  4  2  1  6  0  0  0
  4  9  1  0  0  0  0
  4  5  1  0  0  0  0
  5  6  2  0  0  0  0
  6  7  1  0  0  0  0
  6 19  1  0  0  0  0
  7 20  1  0  0  0  0
  8 21  1  0  0  0  0
  8  7  2  0  0  0  0
  9  8  1  0  0  0  0
 10  9  2  0  0  0  0
 11 24  1  0  0  0  0
 11  3  1  0  0  0  0
 11 12  1  0  0  0  0
 12 26  1  0  0  0  0
 13  1  1  0  0  0  0
 14  5  1  0  0  0  0
 14 30  1  0  0  0  0
 14 15  1  0  0  0  0
 15 16  1  0  0  0  0
 16 34  1  0  0  0  0
 16 33  1  0  0  0  0
 16 35  1  0  0  0  0
 17 36  1  0  0  0  0
 17 14  1  0  0  0  0
 18 40  1  0  0  0  0
 18 17  1  0  0  0  0
 22 10  1  0  0  0  0
 23 11  1  0  0  0  0
 25 12  1  0  0  0  0
 27 13  1  0  0  0  0
 28 13  1  0  0  0  0
 29 13  1  0  0  0  0
 31 15  1  0  0  0  0
 32 15  1  0  0  0  0
 37 17  1  0  0  0  0
 38 18  1  0  0  0  0
 39 18  1  0  0  0  0
M  END
