19,21
q = -1.0, confidence = 0.0

 22 23  0  0  1  0  0  0  0  0999 V2000
   -2.5951   -0.8578   -0.1078 C   0  0  2  0  0  3  0  0  0  0  0  0
   -3.9374   -0.8873   -0.5014 C   0  0  0  0  0  0  0  0  0  0  0  0
   -4.2465   -1.7106   -1.1609 H   0  0  0  0  0  0  0  0  0  0  0  0
   -4.8158    0.1272   -0.0718 C   0  0  0  0  0  0  0  0  0  0  0  0
   -4.2800    1.1326    0.7669 C   0  0  0  0  0  0  0  0  0  0  0  0
   -4.9176    1.9361    1.1616 H   0  0  0  0  0  0  0  0  0  0  0  0
   -2.9302    1.0908    1.1242 C   0  0  0  0  0  0  0  0  0  0  0  0
   -2.4780    1.8431    1.7888 H   0  0  0  0  0  0  0  0  0  0  0  0
   -1.6218   -1.9631   -0.5484 C   0  0  0  0  0  0  0  0  0  0  0  0
   -8.3048    1.2937   -1.0214 C   0  0  0  0  0  0  0  0  0  0  0  0
   -8.8727    2.2320   -1.1543 H   0  0  0  0  0  0  0  0  0  0  0  0
   -6.9576    1.3441   -0.6340 C   0  0  0  0  0  0  0  0  0  0  0  0
   -6.4661    2.3168   -0.4838 H   0  0  0  0  0  0  0  0  0  0  0  0
   -6.2417    0.1383   -0.4788 C   0  0  0  0  0  0  0  0  0  0  0  0
   -6.9430   -1.0598   -0.7303 C   0  0  0  0  0  0  0  0  0  0  0  0
   -6.4508   -2.0365   -0.6128 H   0  0  0  0  0  0  0  0  0  0  0  0
   -8.2922   -0.9947   -1.1077 C   0  0  0  0  0  0  0  0  0  0  0  0
   -8.8532   -1.9267   -1.2996 H   0  0  0  0  0  0  0  0  0  0  0  0
   -2.1081    0.1163    0.6906 N   0  0  0  0  0  2  0  0  0  0  0  0
   -8.9733    0.1531   -1.2542 N   0  0  0  0  0  0  0  0  0  0  0  0
   -0.3946   -1.7900   -0.1393 O   0  5  0  0  0  0  0  0  0  0  0  0
   -2.0675   -2.9033   -1.2015 O   0  0  0  0  0  0  0  0  0  0  0  0
  1  9  1  1  0  0  0
  1 19  1  0  0  0  0
  2  1  1  0  0  0  0
  2  4  2  0  0  0  0
  3  2  1  0  0  0  0
  4  5  1  0  0  0  0
  5  7  2  0  0  0  0
  5  6  1  0  0  0  0
  7  8  1  0  0  0  0
  9 21  1  0  0  0  0
 10 12  1  0  0  0  0
 11 10  1  0  0  0  0
 12 13  1  0  0  0  0
 12 14  2  0  0  0  0
 14  4  1  0  0  0  0
 15 16  1  0  0  0  0
 15 14  1  0  0  0  0
 17 15  2  0  0  0  0
 18 17  1  0  0  0  0
 19  7  1  0  0  0  0
 20 17  1  0  0  0  0
 20 10  2  0  0  0  0
 22  9  2  0  0  0  0
M  CHG  1  21  -1
M  END
