3,4
q = -1.0, confidence = 0.0

 29 29  0  0  0  0  0  0  0  0999 V2000
   -3.4212    2.3380    2.1894 Br  0  0  0  0  0  0  0  0  0  0  0  0
   -7.1489    1.0979   -1.7660 Cl  0  0  0  0  0  0  0  0  0  0  0  0
   -1.6634    0.6796    0.4086 O   0  5  0  0  0  0  0  0  0  0  0  0
   -1.1488   -1.1565   -1.8820 N   0  0  0  0  0  2  0  0  0  0  0  0
    1.3583   -2.6136   -1.2736 N   0  0  0  0  0  0  0  0  0  0  0  0
   -3.2453    0.0466   -1.3266 C   0  0  0  0  0  0  0  0  0  0  0  0
   -2.8334    0.7235   -0.1007 C   0  0  0  0  0  0  0  0  0  0  0  0
   -3.8832    1.4815    0.5566 C   0  0  0  0  0  0  0  0  0  0  0  0
   -5.1754    1.5939    0.0637 C   0  0  0  0  0  0  0  0  0  0  0  0
   -5.9287    2.1827    0.6045 H   0  0  0  0  0  0  0  0  0  0  0  0
   -5.5206    0.9416   -1.1451 C   0  0  0  0  0  0  0  0  0  0  0  0
   -4.5747    0.1880   -1.8225 C   0  0  0  0  0  0  0  0  0  0  0  0
   -4.8540   -0.3165   -2.7599 H   0  0  0  0  0  0  0  0  0  0  0  0
   -2.3709   -0.7731   -2.1285 C   0  0  0  0  0  3  0  0  0  0  0  0
   -2.8282   -1.1177   -3.0869 H   0  0  0  0  0  0  0  0  0  0  0  0
   -0.4462   -1.9441   -2.8766 C   0  0  0  0  0  0  0  0  0  0  0  0
    0.2493   -1.2780   -3.4354 H   0  0  0  0  0  0  0  0  0  0  0  0
   -1.1458   -2.3756   -3.6303 H   0  0  0  0  0  0  0  0  0  0  0  0
    0.3492   -3.0835   -2.2326 C   0  0  0  0  0  0  0  0  0  0  0  0
   -0.3582   -3.7433   -1.6889 H   0  0  0  0  0  0  0  0  0  0  0  0
    0.8201   -3.7009   -3.0395 H   0  0  0  0  0  0  0  0  0  0  0  0
    2.4855   -1.9553   -1.9465 C   0  0  0  0  0  0  0  0  0  0  0  0
    3.2451   -1.6671   -1.1966 H   0  0  0  0  0  0  0  0  0  0  0  0
    2.1663   -1.0237   -2.4479 H   0  0  0  0  0  0  0  0  0  0  0  0
    2.9648   -2.6370   -2.6919 H   0  0  0  0  0  0  0  0  0  0  0  0
    1.8493   -3.7048   -0.4346 C   0  0  0  0  0  0  0  0  0  0  0  0
    2.4070   -4.4759   -1.0224 H   0  0  0  0  0  0  0  0  0  0  0  0
    1.0045   -4.2102    0.0724 H   0  0  0  0  0  0  0  0  0  0  0  0
    2.5291   -3.3012    0.3412 H   0  0  0  0  0  0  0  0  0  0  0  0
  2 11  1  0  0  0  0
  5 26  1  0  0  0  0
  6  7  1  0  0  0  0
  7  3  1  0  0  0  0
  7  8  2  0  0  0  0
  8  1  1  0  0  0  0
  9  8  1  0  0  0  0
  9 10  1  0  0  0  0
 11  9  2  0  0  0  0
 12  6  2  0  0  0  0
 12 11  1  0  0  0  0
 13 12  1  0  0  0  0
 14  4  1  0  0  0  0
 14  6  1  0  0  0  0
 15 14  1  0  0  0  0
 16 19  1  0  0  0  0
 16  4  1  0  0  0  0
 17 16  1  0  0  0  0
 18 16  1  0  0  0  0
 19 20  1  0  0  0  0
 19  5  1  0  0  0  0
 21 19  1  0  0  0  0
 22  5  1  0  0  0  0
 22 23  1  0  0  0  0
 24 22  1  0  0  0  0
 25 22  1  0  0  0  0
 26 28  1  0  0  0  0
 26 29  1  0  0  0  0
 27 26  1  0  0  0  0
M  CHG  1   3  -1
M  END
