1,4
q = -1.0, confidence = 0.0

 24 25  0  0  0  0  0  0  0  0999 V2000
    1.4738   -0.0695    1.3070 O   0  5  0  0  0  0  0  0  0  0  0  0
    6.7099   -1.1993   -1.9683 O   0  0  0  0  0  0  0  0  0  0  0  0
    7.4903   -1.2041    0.0767 O   0  0  0  0  0  0  0  0  0  0  0  0
    0.5352   -0.1609   -1.3761 N   0  0  0  0  0  2  0  0  0  0  0  0
    6.5752   -1.1000   -0.7447 N   0  0  0  0  0  0  0  0  0  0  0  0
    2.8590   -0.4589   -0.6447 C   0  0  0  0  0  0  0  0  0  0  0  0
    2.6288   -0.3169    0.7770 C   0  0  0  0  0  0  0  0  0  0  0  0
    3.7513   -0.4757    1.6562 C   0  0  0  0  0  0  0  0  0  0  0  0
    3.5559   -0.3828    2.7342 H   0  0  0  0  0  0  0  0  0  0  0  0
    5.0237   -0.7233    1.1699 C   0  0  0  0  0  0  0  0  0  0  0  0
    5.8898   -0.8348    1.8364 H   0  0  0  0  0  0  0  0  0  0  0  0
    5.2277   -0.8381   -0.2259 C   0  0  0  0  0  0  0  0  0  0  0  0
    4.1659   -0.7187   -1.1157 C   0  0  0  0  0  0  0  0  0  0  0  0
    4.3674   -0.8371   -2.1902 H   0  0  0  0  0  0  0  0  0  0  0  0
    1.7912   -0.4256   -1.6095 C   0  0  0  0  0  3  0  0  0  0  0  0
    2.0818   -0.6751   -2.6485 H   0  0  0  0  0  0  0  0  0  0  0  0
   -0.4267   -0.2799   -2.4449 C   0  0  0  0  0  0  0  0  0  0  0  0
   -1.0062    0.6468   -2.5766 H   0  0  0  0  0  0  0  0  0  0  0  0
   -0.2217   -1.1342   -3.6722 C   0  0  0  0  0  0  0  0  0  0  0  0
    0.6850   -1.7523   -3.7580 H   0  0  0  0  0  0  0  0  0  0  0  0
   -0.5755   -0.7298   -4.6329 H   0  0  0  0  0  0  0  0  0  0  0  0
   -1.2346   -1.5448   -2.6257 C   0  0  0  0  0  0  0  0  0  0  0  0
   -2.3113   -1.4427   -2.8282 H   0  0  0  0  0  0  0  0  0  0  0  0
   -0.9690   -2.4035   -1.9918 H   0  0  0  0  0  0  0  0  0  0  0  0
  2  5  2  0  0  0  0
  5 12  1  0  0  0  0
  5  3  2  0  0  0  0
  6  7  1  0  0  0  0
  7  1  1  0  0  0  0
  7  8  2  0  0  0  0
  8  9  1  0  0  0  0
 10  8  1  0  0  0  0
 10 11  1  0  0  0  0
 12 10  2  0  0  0  0
 13  6  2  0  0  0  0
 13 12  1  0  0  0  0
 14 13  1  0  0  0  0
 15  4  1  0  0  0  0
 15  6  1  0  0  0  0
 16 15  1  0  0  0  0
 17  4  1  0  0  0  0
 18 17  1  0  0  0  0
 19 22  1  0  0  0  0
 19 17  1  0  0  0  0
 20 19  1  0  0  0  0
 21 19  1  0  0  0  0
 22 17  1  0  0  0  0
 22 24  1  0  0  0  0
 23 22  1  0  0  0  0
M  CHG  1   1  -1
M  END
