27,29
q = -2.0, confidence = 0.968

 33 35  0  0  0  0  0  0  0  0999 V2000
   -0.6830   -0.9985   -1.2945 C   0  0  0  0  0  0  0  0  0  0  0  0
   -0.9174   -2.2383   -0.6525 C   0  0  0  0  0  0  0  0  0  0  0  0
   -0.0740   -2.7463   -0.1618 H   0  0  0  0  0  0  0  0  0  0  0  0
   -2.2329   -2.6762   -0.4908 C   0  0  0  0  0  0  0  0  0  0  0  0
   -2.4857   -3.5380    0.1464 H   0  0  0  0  0  0  0  0  0  0  0  0
   -3.2873   -1.8929   -0.9965 C   0  0  0  0  0  0  0  0  0  0  0  0
   -3.0303   -0.8333   -1.8877 C   0  0  0  0  0  0  0  0  0  0  0  0
   -3.8871   -0.3156   -2.3457 H   0  0  0  0  0  0  0  0  0  0  0  0
   -1.7245   -0.3650   -2.0127 C   0  0  0  0  0  0  0  0  0  0  0  0
   -1.5184    0.5507   -2.5884 H   0  0  0  0  0  0  0  0  0  0  0  0
    3.6262   -2.8233   -0.5569 C   0  0  0  0  0  0  0  0  0  0  0  0
    2.6303   -3.1524   -0.8830 H   0  0  0  0  0  0  0  0  0  0  0  0
    4.6585   -3.7402   -0.3781 C   0  0  0  0  0  0  0  0  0  0  0  0
    4.4726   -4.8091   -0.5626 H   0  0  0  0  0  0  0  0  0  0  0  0
    5.9427   -3.3126    0.0374 C   0  0  0  0  0  0  0  0  0  0  0  0
    6.7494   -4.0472    0.1781 H   0  0  0  0  0  0  0  0  0  0  0  0
    6.1779   -1.9619    0.2629 C   0  0  0  0  0  0  0  0  0  0  0  0
    7.1715   -1.6119    0.5833 H   0  0  0  0  0  0  0  0  0  0  0  0
    5.1430   -1.0033    0.0837 C   0  0  0  0  0  0  0  0  0  0  0  0
    3.8394   -1.4394   -0.3287 C   0  0  0  0  0  0  0  0  0  0  0  0
    2.7744   -0.4570   -0.5003 C   0  0  0  0  0  0  0  0  0  0  0  0
    3.0447    0.9335   -0.2637 C   0  0  0  0  0  0  0  0  0  0  0  0
    4.3638    1.3241    0.1333 C   0  0  0  0  0  0  0  0  0  0  0  0
    4.5384    2.3970    0.3000 H   0  0  0  0  0  0  0  0  0  0  0  0
    5.3678    0.3936    0.3012 C   0  0  0  0  0  0  0  0  0  0  0  0
    6.3718    0.7221    0.6131 H   0  0  0  0  0  0  0  0  0  0  0  0
    0.4992   -0.2688   -1.0045 N   0  0  0  0  0  2  0  0  0  0  0  0
    1.5837   -0.9543   -0.9308 N   0  0  0  0  0  2  0  0  0  0  0  0
    2.1507    1.8860   -0.4221 O   0  5  0  0  0  0  0  0  0  0  0  0
   -4.8627   -1.8530   -0.0823 S   0  0  0  0  0  0  0  0  0  0  0  0
   -5.8918   -1.3634   -1.0391 O   0  0  0  0  0  1  0  0  0  0  0  0
   -5.0502   -3.2038    0.5098 O   0  0  0  0  0  1  0  0  0  0  0  0
   -4.4037   -0.7920    0.9172 O   0  0  0  0  0  1  0  0  0  0  0  0
  1 27  1  0  0  0  0
  1  2  1  0  0  0  0
  2  4  2  0  0  0  0
  2  3  1  0  0  0  0
  4  5  1  0  0  0  0
  6  4  1  0  0  0  0
  6 30  1  0  0  0  0
  7  6  2  0  0  0  0
  8  7  1  0  0  0  0
  9  7  1  0  0  0  0
  9  1  2  0  0  0  0
 10  9  1  0  0  0  0
 11 13  2  0  0  0  0
 11 20  1  0  0  0  0
 12 11  1  0  0  0  0
 13 15  1  0  0  0  0
 14 13  1  0  0  0  0
 15 16  1  0  0  0  0
 15 17  2  0  0  0  0
 17 18  1  0  0  0  0
 19 17  1  0  0  0  0
 19 25  1  0  0  0  0
 20 19  2  0  0  0  0
 21 20  1  0  0  0  0
 21 22  2  0  0  0  0
 22 23  1  0  0  0  0
 23 24  1  0  0  0  0
 23 25  2  0  0  0  0
 25 26  1  0  0  0  0
 27 28  1  0  0  0  0
 28 21  1  0  0  0  0
 29 22  1  0  0  0  0
 30 32  1  0  0  0  0
 30 33  1  0  0  0  0
 31 30  1  0  0  0  0
M  CHG  1  29  -1
M  END
