1,23
q = -1.0, confidence = 0.0

 27 29  0  0  1  0  0  0  0  0999 V2000
    2.1367   -0.1263   -0.2030 N   0  0  0  0  0  2  0  0  0  0  0  0
    2.3049    1.2196   -0.1343 N   0  0  0  0  0  0  0  0  0  0  0  0
    3.4140    1.6212    0.4759 N   0  0  0  0  0  0  0  0  0  0  0  0
    3.2508   -0.6423    0.4021 C   0  0  2  0  0  3  0  0  0  0  0  0
    4.0317    0.4745    0.8451 C   0  0  0  0  0  0  0  0  0  0  0  0
    5.2543    0.2829    1.5372 C   0  0  0  0  0  0  0  0  0  0  0  0
    5.8458    1.1447    1.8753 H   0  0  0  0  0  0  0  0  0  0  0  0
    5.6551   -1.0292    1.7531 C   0  0  0  0  0  0  0  0  0  0  0  0
    6.5986   -1.2266    2.2838 H   0  0  0  0  0  0  0  0  0  0  0  0
    4.8808   -2.1382    1.2927 C   0  0  0  0  0  0  0  0  0  0  0  0
    5.2552   -3.1565    1.4745 H   0  0  0  0  0  0  0  0  0  0  0  0
    3.6783   -1.9740    0.6128 C   0  0  0  0  0  0  0  0  0  0  0  0
    3.0915   -2.8248    0.2470 H   0  0  0  0  0  0  0  0  0  0  0  0
    1.3908    2.1593   -0.6718 C   0  0  0  0  0  0  0  0  0  0  0  0
    0.4116    1.7573   -1.6249 C   0  0  0  0  0  0  0  0  0  0  0  0
   -0.4186    2.7647   -2.1655 C   0  0  0  0  0  0  0  0  0  0  0  0
   -1.1633    2.4632   -2.9137 H   0  0  0  0  0  0  0  0  0  0  0  0
   -0.3033    4.0935   -1.7516 C   0  0  0  0  0  0  0  0  0  0  0  0
   -0.9781    4.8499   -2.1821 H   0  0  0  0  0  0  0  0  0  0  0  0
    0.6560    4.4868   -0.7926 C   0  0  0  0  0  0  0  0  0  0  0  0
    1.5063    3.5004   -0.2720 C   0  0  0  0  0  0  0  0  0  0  0  0
    2.2774    3.7474    0.4693 H   0  0  0  0  0  0  0  0  0  0  0  0
    0.2729    0.4916   -2.0068 O   0  5  0  0  0  0  0  0  0  0  0  0
    0.7585    5.9111   -0.3116 C   0  0  0  0  0  0  0  0  0  0  0  0
    0.4102    6.0007    0.7399 H   0  0  0  0  0  0  0  0  0  0  0  0
    0.1445    6.5955   -0.9281 H   0  0  0  0  0  0  0  0  0  0  0  0
    1.8058    6.2747   -0.3341 H   0  0  0  0  0  0  0  0  0  0  0  0
  1  2  1  0  0  0  0
  2  3  1  0  0  0  0
  3  5  2  0  0  0  0
  4  1  1  6  0  0  0
  4 12  1  0  0  0  0
  4  5  1  0  0  0  0
  5  6  1  0  0  0  0
  6  8  2  0  0  0  0
  6  7  1  0  0  0  0
  8  9  1  0  0  0  0
 10 11  1  0  0  0  0
 10  8  1  0  0  0  0
 12 10  2  0  0  0  0
 13 12  1  0  0  0  0
 14 21  1  0  0  0  0
 14  2  1  0  0  0  0
 15 14  2  0  0  0  0
 16 18  2  0  0  0  0
 16 15  1  0  0  0  0
 17 16  1  0  0  0  0
 18 20  1  0  0  0  0
 19 18  1  0  0  0  0
 20 24  1  0  0  0  0
 20 21  2  0  0  0  0
 21 22  1  0  0  0  0
 23 15  1  0  0  0  0
 24 25  1  0  0  0  0
 26 24  1  0  0  0  0
 27 24  1  0  0  0  0
M  CHG  1  23  -1
M  END
