1,2
q = 0.0, confidence = 0.948

 31 34  0  0  0  0  0  0  0  0999 V2000
   -0.7035   -1.8547    0.0030 O   0  5  0  0  0  0  0  0  0  0  0  0
   -0.7466    0.7837    0.0633 N   0  0  0  0  0  2  0  0  0  0  0  0
   -1.9250    0.1784    0.0113 C   0  0  0  0  0  0  0  0  0  0  0  0
   -1.8419   -1.2963   -0.0229 C   0  0  0  0  0  0  0  0  0  0  0  0
   -3.1972   -1.8340    0.0292 C   0  0  0  0  0  0  0  0  0  0  0  0
   -3.7561   -3.1102    0.0250 C   0  0  0  0  0  0  0  0  0  0  0  0
   -3.1245   -4.0083   -0.0337 H   0  0  0  0  0  0  0  0  0  0  0  0
   -5.1712   -3.2235    0.0957 C   0  0  0  0  0  0  0  0  0  0  0  0
   -5.6240   -4.2260    0.0882 H   0  0  0  0  0  0  0  0  0  0  0  0
   -6.0052   -2.1041    0.1762 C   0  0  0  0  0  0  0  0  0  0  0  0
   -7.0963   -2.2389    0.2328 H   0  0  0  0  0  0  0  0  0  0  0  0
   -5.4607   -0.7832    0.1882 C   0  0  0  0  0  0  0  0  0  0  0  0
   -6.1764    0.4502    0.2832 C   0  0  0  0  0  0  0  0  0  0  0  0
   -7.2750    0.4393    0.3480 H   0  0  0  0  0  0  0  0  0  0  0  0
   -5.4872    1.6628    0.2974 C   0  0  0  0  0  0  0  0  0  0  0  0
   -6.0579    2.6000    0.3755 H   0  0  0  0  0  0  0  0  0  0  0  0
   -4.0671    1.7401    0.2093 C   0  0  0  0  0  0  0  0  0  0  0  0
   -3.5723    2.7209    0.2208 H   0  0  0  0  0  0  0  0  0  0  0  0
   -3.3369    0.5571    0.1068 C   0  0  0  0  0  0  0  0  0  0  0  0
   -4.0517   -0.6880    0.1043 C   0  0  0  0  0  0  0  0  0  0  0  0
   -0.6258    2.1980    0.0766 C   0  0  0  0  0  0  0  0  0  0  0  0
    0.1152    2.8288    1.0943 C   0  0  0  0  0  0  0  0  0  0  0  0
    0.5427    2.2208    1.9044 H   0  0  0  0  0  0  0  0  0  0  0  0
    0.2853    4.2191    1.0640 C   0  0  0  0  0  0  0  0  0  0  0  0
    0.8481    4.7156    1.8684 H   0  0  0  0  0  0  0  0  0  0  0  0
   -0.2552    4.9777    0.0117 C   0  0  0  0  0  0  0  0  0  0  0  0
   -0.1119    6.0680   -0.0118 H   0  0  0  0  0  0  0  0  0  0  0  0
   -0.9727    4.3401   -1.0141 C   0  0  0  0  0  0  0  0  0  0  0  0
   -1.3836    4.9276   -1.8488 H   0  0  0  0  0  0  0  0  0  0  0  0
   -1.1657    2.9513   -0.9864 C   0  0  0  0  0  0  0  0  0  0  0  0
   -1.6974    2.4317   -1.7966 H   0  0  0  0  0  0  0  0  0  0  0  0
  2 21  1  0  0  0  0
  3  2  1  0  0  0  0
  3 19  1  0  0  0  0
  4  1  1  0  0  0  0
  4  3  2  0  0  0  0
  4  5  1  0  0  0  0
  5 20  1  0  0  0  0
  6  5  2  0  0  0  0
  6  8  1  0  0  0  0
  7  6  1  0  0  0  0
  8 10  2  0  0  0  0
  9  8  1  0  0  0  0
 10 12  1  0  0  0  0
 10 11  1  0  0  0  0
 12 13  1  0  0  0  0
 13 15  2  0  0  0  0
 13 14  1  0  0  0  0
 15 16  1  0  0  0  0
 17 18  1  0  0  0  0
 17 15  1  0  0  0  0
 19 17  2  0  0  0  0
 20 19  1  0  0  0  0
 20 12  2  0  0  0  0
 21 22  1  0  0  0  0
 22 23  1  0  0  0  0
 24 22  2  0  0  0  0
 24 25  1  0  0  0  0
 26 24  1  0  0  0  0
 27 26  1  0  0  0  0
 28 30  1  0  0  0  0
 28 26  2  0  0  0  0
 29 28  1  0  0  0  0
 30 21  2  0  0  0  0
 31 30  1  0  0  0  0
M  CHG  1   1  -1
M  END
