2,4
q = -1.0, confidence = 0.02

 28 29  0  0  1  0  0  0  0  0999 V2000
   -1.4691    1.3975   -2.2376 S   0  0  0  0  0  0  0  0  0  0  0  0
    1.8187   -0.2003    0.4485 O   0  5  0  0  0  0  0  0  0  0  0  0
    1.6770    2.0925    0.6510 N   0  0  0  0  0  0  0  0  0  0  0  0
    0.4392    1.8336    0.1343 N   0  0  0  0  0  2  0  0  0  0  0  0
    4.5000   -0.2385    1.1791 C   0  0  0  0  0  0  0  0  0  0  0  0
    4.0065   -1.1540    0.8219 H   0  0  0  0  0  0  0  0  0  0  0  0
    5.8383   -0.2434    1.5923 C   0  0  0  0  0  0  0  0  0  0  0  0
    6.4151   -1.1806    1.5675 H   0  0  0  0  0  0  0  0  0  0  0  0
    6.4452    0.9435    2.0362 C   0  0  0  0  0  0  0  0  0  0  0  0
    7.4967    0.9370    2.3618 H   0  0  0  0  0  0  0  0  0  0  0  0
    5.7081    2.1405    2.0625 C   0  0  0  0  0  0  0  0  0  0  0  0
    6.1824    3.0713    2.4093 H   0  0  0  0  0  0  0  0  0  0  0  0
    4.3710    2.1533    1.6480 C   0  0  0  0  0  0  0  0  0  0  0  0
    3.7775    3.0784    1.6570 H   0  0  0  0  0  0  0  0  0  0  0  0
    3.7569    0.9615    1.2059 C   0  0  0  0  0  0  0  0  0  0  0  0
    2.3474    0.9502    0.7583 C   0  0  0  0  0  0  0  0  0  0  0  0
   -0.3332    2.8673   -0.1724 C   0  0  1  0  0  3  0  0  0  0  0  0
    0.0659    4.2490    0.2550 C   0  0  0  0  0  0  0  0  0  0  0  0
    0.3547    4.2558    1.3241 H   0  0  0  0  0  0  0  0  0  0  0  0
   -0.7427    4.9771    0.0653 H   0  0  0  0  0  0  0  0  0  0  0  0
    0.9679    4.5688   -0.3085 H   0  0  0  0  0  0  0  0  0  0  0  0
   -1.4915    2.6559   -1.0137 C   0  0  0  0  0  0  0  0  0  0  0  0
   -2.6926    3.3661   -1.0684 C   0  0  0  0  0  0  0  0  0  0  0  0
   -2.9218    4.1992   -0.3903 H   0  0  0  0  0  0  0  0  0  0  0  0
   -3.5949    2.8589   -2.0411 C   0  0  0  0  0  0  0  0  0  0  0  0
   -4.6014    3.2619   -2.2186 H   0  0  0  0  0  0  0  0  0  0  0  0
   -3.0665    1.7923   -2.7544 C   0  0  0  0  0  0  0  0  0  0  0  0
   -3.5359    1.2221   -3.5654 H   0  0  0  0  0  0  0  0  0  0  0  0
  1 22  1  0  0  0  0
  2 16  1  0  0  0  0
  3 16  2  0  0  0  0
  4  3  1  0  0  0  0
  5 15  2  0  0  0  0
  5  7  1  0  0  0  0
  6  5  1  0  0  0  0
  7  9  2  0  0  0  0
  8  7  1  0  0  0  0
  9 11  1  0  0  0  0
  9 10  1  0  0  0  0
 11 12  1  0  0  0  0
 13 14  1  0  0  0  0
 13 11  2  0  0  0  0
 15 13  1  0  0  0  0
 16 15  1  0  0  0  0
 17  4  1  6  0  0  0
 17 18  1  0  0  0  0
 18 19  1  0  0  0  0
 20 18  1  0  0  0  0
 21 18  1  0  0  0  0
 22 17  1  0  0  0  0
 23 22  2  0  0  0  0
 23 24  1  0  0  0  0
 25 23  1  0  0  0  0
 26 25  1  0  0  0  0
 27  1  1  0  0  0  0
 27 25  2  0  0  0  0
 28 27  1  0  0  0  0
M  CHG  1   2  -1
M  END
