1,3
q = -1.0, confidence = 0.004

 25 27  0  0  1  0  0  0  0  0999 V2000
    0.4082    0.5368    0.0004 O   0  5  0  0  0  0  0  0  0  0  0  0
    5.8457    0.0355    0.0003 O   0  0  0  0  0  0  0  0  0  0  0  0
    0.2031   -2.3006   -0.0007 N   0  0  0  0  0  2  0  0  0  0  0  0
   -0.2027   -3.2440   -0.0008 H   0  0  0  0  0  0  0  0  0  0  0  0
    1.6767    0.2902    0.0001 C   0  0  0  0  0  0  0  0  0  0  0  0
    2.2964   -1.0041    0.0001 C   0  0  0  0  0  0  0  0  0  0  0  0
    1.5362   -2.2517   -0.0001 C   0  0  2  0  0  3  0  0  0  0  0  0
    2.2733   -3.4926    0.0002 C   0  0  0  0  0  0  0  0  0  0  0  0
    1.6888   -4.4259    0.0003 H   0  0  0  0  0  0  0  0  0  0  0  0
    3.6516   -3.5274    0.0005 C   0  0  0  0  0  0  0  0  0  0  0  0
    4.1749   -4.4958    0.0008 H   0  0  0  0  0  0  0  0  0  0  0  0
    4.3930   -2.3209    0.0005 C   0  0  0  0  0  0  0  0  0  0  0  0
    5.4921   -2.3113    0.0006 H   0  0  0  0  0  0  0  0  0  0  0  0
    3.7391   -1.0938    0.0002 C   0  0  0  0  0  0  0  0  0  0  0  0
    4.6140    0.1180    0.0002 C   0  0  0  0  0  0  0  0  0  0  0  0
    3.9293    1.4360   -0.0001 C   0  0  0  0  0  0  0  0  0  0  0  0
    4.7061    2.6102   -0.0003 C   0  0  0  0  0  0  0  0  0  0  0  0
    5.7999    2.4921   -0.0003 H   0  0  0  0  0  0  0  0  0  0  0  0
    4.0912    3.8650   -0.0004 C   0  0  0  0  0  0  0  0  0  0  0  0
    4.7007    4.7814   -0.0006 H   0  0  0  0  0  0  0  0  0  0  0  0
    2.6853    3.9499   -0.0004 C   0  0  0  0  0  0  0  0  0  0  0  0
    2.1941    4.9350   -0.0005 H   0  0  0  0  0  0  0  0  0  0  0  0
    1.9059    2.7890   -0.0002 C   0  0  0  0  0  0  0  0  0  0  0  0
    0.8102    2.8460   -0.0001 H   0  0  0  0  0  0  0  0  0  0  0  0
    2.5153    1.5141   -0.0000 C   0  0  0  0  0  0  0  0  0  0  0  0
  4  3  1  0  0  0  0
  5  1  1  0  0  0  0
  6  5  2  0  0  0  0
  6 14  1  0  0  0  0
  7  3  1  6  0  0  0
  7  6  1  0  0  0  0
  7  8  1  0  0  0  0
  8  9  1  0  0  0  0
  8 10  2  0  0  0  0
 10 11  1  0  0  0  0
 12 10  1  0  0  0  0
 12 13  1  0  0  0  0
 14 12  2  0  0  0  0
 15 14  1  0  0  0  0
 15  2  2  0  0  0  0
 16 25  1  0  0  0  0
 16 15  1  0  0  0  0
 17 16  2  0  0  0  0
 18 17  1  0  0  0  0
 19 21  2  0  0  0  0
 19 17  1  0  0  0  0
 20 19  1  0  0  0  0
 21 23  1  0  0  0  0
 22 21  1  0  0  0  0
 23 24  1  0  0  0  0
 23 25  2  0  0  0  0
 25  5  1  0  0  0  0
M  CHG  1   1  -1
M  END
