2,5
q = -1.0, confidence = 0.0

 22 22  0  0  0  0  0  0  0  0999 V2000
    3.3599    2.0319    1.4178 Cl  0  0  0  0  0  0  0  0  0  0  0  0
   -0.6289    1.6103   -0.6708 O   0  0  0  0  0  1  0  0  0  0  0  0
    0.4074    2.3101   -1.1702 N   0  0  0  0  0  0  0  0  0  0  0  0
    1.6022    1.8353   -1.1647 N   0  0  0  0  0  2  0  0  0  0  0  0
    1.6269    0.6299   -0.6342 N   0  0  0  0  0  2  0  0  0  0  0  0
    2.9035    0.0609   -0.4304 C   0  0  0  0  0  0  0  0  0  0  0  0
    3.8106    0.6144    0.5039 C   0  0  0  0  0  0  0  0  0  0  0  0
    5.0628    0.0275    0.7363 C   0  0  0  0  0  0  0  0  0  0  0  0
    5.4088   -1.1369    0.0388 C   0  0  0  0  0  0  0  0  0  0  0  0
    4.5126   -1.7047   -0.8787 C   0  0  0  0  0  0  0  0  0  0  0  0
    3.2572   -1.1230   -1.1294 C   0  0  0  0  0  0  0  0  0  0  0  0
    2.2952   -1.7199   -2.1200 C   0  0  0  0  0  0  0  0  0  0  0  0
    0.0898    3.5724   -1.7975 C   0  0  0  0  0  0  0  0  0  0  0  0
    5.7439    0.4843    1.4675 H   0  0  0  0  0  0  0  0  0  0  0  0
    6.3882   -1.6060    0.2170 H   0  0  0  0  0  0  0  0  0  0  0  0
    4.7926   -2.6184   -1.4253 H   0  0  0  0  0  0  0  0  0  0  0  0
    1.3645   -2.0329   -1.6043 H   0  0  0  0  0  0  0  0  0  0  0  0
    2.7386   -2.5963   -2.6297 H   0  0  0  0  0  0  0  0  0  0  0  0
    1.9973   -0.9765   -2.8871 H   0  0  0  0  0  0  0  0  0  0  0  0
    1.0321    4.0398   -2.1299 H   0  0  0  0  0  0  0  0  0  0  0  0
   -0.4281    4.2237   -1.0655 H   0  0  0  0  0  0  0  0  0  0  0  0
   -0.5846    3.4010   -2.6614 H   0  0  0  0  0  0  0  0  0  0  0  0
  3  4  1  0  0  0  0
  3  2  1  0  0  0  0
  4  5  1  0  0  0  0
  5  6  1  0  0  0  0
  6  7  1  0  0  0  0
  7  8  2  0  0  0  0
  7  1  1  0  0  0  0
  8 14  1  0  0  0  0
  9 15  1  0  0  0  0
  9  8  1  0  0  0  0
 10  9  2  0  0  0  0
 11 10  1  0  0  0  0
 11  6  2  0  0  0  0
 12 17  1  0  0  0  0
 12 11  1  0  0  0  0
 13  3  1  0  0  0  0
 13 21  1  0  0  0  0
 16 10  1  0  0  0  0
 18 12  1  0  0  0  0
 19 12  1  0  0  0  0
 20 13  1  0  0  0  0
 22 13  1  0  0  0  0
M  END
