1,4
q = 0.0, confidence = 1.0

 17 17  0  0  0  0  0  0  0  0999 V2000
    3.0045   -1.1756    0.1160 N   0  0  0  0  0  2  0  0  0  0  0  0
    3.8164   -0.0856    0.0485 C   0  0  0  0  0  0  0  0  0  0  0  0
    3.0892    1.2158   -0.0069 C   0  0  0  0  0  0  0  0  0  0  0  0
    1.8522    1.2748    0.0202 O   0  5  0  0  0  0  0  0  0  0  0  0
    3.8663    2.2820   -0.0890 O   0  0  0  0  0  0  0  0  0  0  0  0
    3.2003    3.5657   -0.1498 C   0  0  0  0  0  0  0  0  0  0  0  0
    5.2140   -0.1851    0.0322 C   0  0  0  0  0  0  0  0  0  0  0  0
    5.7964   -1.4598    0.0874 C   0  0  0  0  0  0  0  0  0  0  0  0
    4.9584   -2.5804    0.1547 C   0  0  0  0  0  0  0  0  0  0  0  0
    3.5670   -2.3949    0.1662 C   0  0  0  0  0  0  0  0  0  0  0  0
    4.0038    4.3110   -0.2693 H   0  0  0  0  0  0  0  0  0  0  0  0
    2.4986    3.5913   -1.0056 H   0  0  0  0  0  0  0  0  0  0  0  0
    2.6344    3.7409    0.7855 H   0  0  0  0  0  0  0  0  0  0  0  0
    5.8189    0.7300   -0.0234 H   0  0  0  0  0  0  0  0  0  0  0  0
    6.8902   -1.5746    0.0769 H   0  0  0  0  0  0  0  0  0  0  0  0
    5.3692   -3.5991    0.1982 H   0  0  0  0  0  0  0  0  0  0  0  0
    2.8767   -3.2506    0.2159 H   0  0  0  0  0  0  0  0  0  0  0  0
  1 10  1  0  0  0  0
  2  1  1  0  0  0  0
  3  4  1  0  0  0  0
  3  2  2  0  0  0  0
  5  3  1  0  0  0  0
  6  5  1  0  0  0  0
  6 13  1  0  0  0  0
  7  2  1  0  0  0  0
  7  8  2  0  0  0  0
  8  9  1  0  0  0  0
  9 10  2  0  0  0  0
  9 16  1  0  0  0  0
 10 17  1  0  0  0  0
 11  6  1  0  0  0  0
 12  6  1  0  0  0  0
 14  7  1  0  0  0  0
 15  8  1  0  0  0  0
M  CHG  1   4  -1
M  END
