1,9
q = -1.0, confidence = 0.002

 37 38  0  0  1  0  0  0  0  0999 V2000
   -0.7371   -0.5144    1.7098 N   0  0  0  0  0  0  0  0  0  0  0  0
   -0.0899   -1.7457    2.1972 C   0  0  0  0  0  0  0  0  0  0  0  0
   -0.3087   -2.5777    1.5031 H   0  0  0  0  0  0  0  0  0  0  0  0
    1.0006   -1.5810    2.2307 H   0  0  0  0  0  0  0  0  0  0  0  0
   -0.4588   -2.0190    3.2115 H   0  0  0  0  0  0  0  0  0  0  0  0
   -2.2156   -0.5877    1.7541 C   0  0  1  0  0  0  0  0  0  0  0  0
   -2.8545    0.8156    1.7170 C   0  0  0  0  0  0  0  0  0  0  0  0
   -2.4391    1.9719    0.3702 S   0  0  0  0  0  0  0  0  0  0  0  0
   -1.1869   -1.0039   -1.0202 O   0  5  0  0  0  0  0  0  0  0  0  0
   -2.2004   -1.7176   -0.5621 C   0  0  0  0  0  0  0  0  0  0  0  0
   -2.7521   -1.5920    0.7534 C   0  0  0  0  0  0  0  0  0  0  0  0
   -2.4961   -0.9792    2.7623 H   0  0  0  0  0  0  0  0  0  0  0  0
   -3.8410   -2.4006    1.1293 C   0  0  0  0  0  0  0  0  0  0  0  0
   -4.4275   -3.3209    0.2513 C   0  0  0  0  0  0  0  0  0  0  0  0
   -3.8973   -3.4409   -1.0471 C   0  0  0  0  0  0  0  0  0  0  0  0
   -2.8077   -2.6617   -1.4420 C   0  0  0  0  0  0  0  0  0  0  0  0
   -2.3781   -2.7520   -2.4510 H   0  0  0  0  0  0  0  0  0  0  0  0
   -4.3346   -4.1588   -1.7588 H   0  0  0  0  0  0  0  0  0  0  0  0
   -5.2779   -3.9380    0.5747 H   0  0  0  0  0  0  0  0  0  0  0  0
   -4.2432   -2.2939    2.1508 H   0  0  0  0  0  0  0  0  0  0  0  0
   -3.5213    1.4073   -1.0114 C   0  0  0  0  0  0  0  0  0  0  0  0
   -4.9628    1.2116   -0.6227 C   0  0  0  0  0  0  0  0  0  0  0  0
   -5.7289    2.2823   -0.1143 C   0  0  0  0  0  0  0  0  0  0  0  0
   -7.0652    2.0881    0.2589 C   0  0  0  0  0  0  0  0  0  0  0  0
   -7.6548    0.8169    0.1372 C   0  0  0  0  0  0  0  0  0  0  0  0
   -6.8982   -0.2538   -0.3602 C   0  0  0  0  0  0  0  0  0  0  0  0
   -5.5597   -0.0584   -0.7378 C   0  0  0  0  0  0  0  0  0  0  0  0
   -4.9666   -0.9029   -1.1192 H   0  0  0  0  0  0  0  0  0  0  0  0
   -7.3435   -1.2564   -0.4501 H   0  0  0  0  0  0  0  0  0  0  0  0
   -8.7034    0.6641    0.4353 H   0  0  0  0  0  0  0  0  0  0  0  0
   -7.6529    2.9330    0.6499 H   0  0  0  0  0  0  0  0  0  0  0  0
   -5.2566    3.2705    0.0035 H   0  0  0  0  0  0  0  0  0  0  0  0
   -3.4156    2.2329   -1.7467 H   0  0  0  0  0  0  0  0  0  0  0  0
   -3.0892    0.4914   -1.4577 H   0  0  0  0  0  0  0  0  0  0  0  0
   -2.5562    1.3713    2.6323 H   0  0  0  0  0  0  0  0  0  0  0  0
   -3.9574    0.7013    1.7539 H   0  0  0  0  0  0  0  0  0  0  0  0
   -0.4014    0.2795    2.2809 H   0  0  0  0  0  0  0  0  0  0  0  0
  1  6  1  0  0  0  0
  1  2  1  0  0  0  0
  1 37  1  0  0  0  0
  2  4  1  0  0  0  0
  2  5  1  0  0  0  0
  3  2  1  0  0  0  0
  6 12  1  1  0  0  0
  7 36  1  0  0  0  0
  7  6  1  0  0  0  0
  7 35  1  0  0  0  0
  8  7  1  0  0  0  0
  9 10  1  0  0  0  0
 10 11  1  0  0  0  0
 11 13  2  0  0  0  0
 11  6  1  0  0  0  0
 13 20  1  0  0  0  0
 14 19  1  0  0  0  0
 14 13  1  0  0  0  0
 15 14  2  0  0  0  0
 16 15  1  0  0  0  0
 16 10  2  0  0  0  0
 17 16  1  0  0  0  0
 18 15  1  0  0  0  0
 21 22  1  0  0  0  0
 21  8  1  0  0  0  0
 22 23  1  0  0  0  0
 23 32  1  0  0  0  0
 23 24  2  0  0  0  0
 24 31  1  0  0  0  0
 25 24  1  0  0  0  0
 25 30  1  0  0  0  0
 26 25  2  0  0  0  0
 27 22  2  0  0  0  0
 27 26  1  0  0  0  0
 28 27  1  0  0  0  0
 29 26  1  0  0  0  0
 33 21  1  0  0  0  0
 34 21  1  0  0  0  0
M  CHG  1   9  -1
M  END
