1,19
q = -1.0, confidence = 0.002

 37 38  0  0  1  0  0  0  0  0999 V2000
    0.7363    0.5210   -1.7080 N   0  0  0  0  0  0  0  0  0  0  0  0
    0.0916    1.7546   -2.1930 C   0  0  0  0  0  0  0  0  0  0  0  0
    2.2149    0.5910   -1.7531 C   0  0  2  0  0  0  0  0  0  0  0  0
    2.8506   -0.8138   -1.7174 C   0  0  0  0  0  0  0  0  0  0  0  0
    2.4340   -1.9695   -0.3705 S   0  0  0  0  0  0  0  0  0  0  0  0
    3.5191   -1.4080    1.0100 C   0  0  0  0  0  0  0  0  0  0  0  0
    4.9608   -1.2156    0.6200 C   0  0  0  0  0  0  0  0  0  0  0  0
    5.7236   -2.2875    0.1094 C   0  0  0  0  0  0  0  0  0  0  0  0
    7.0600   -2.0962   -0.2648 C   0  0  0  0  0  0  0  0  0  0  0  0
    7.6529   -0.8267   -0.1419 C   0  0  0  0  0  0  0  0  0  0  0  0
    6.8996    0.2453    0.3577 C   0  0  0  0  0  0  0  0  0  0  0  0
    5.5609    0.0527    0.7362 C   0  0  0  0  0  0  0  0  0  0  0  0
    2.7543    1.5932   -0.7519 C   0  0  0  0  0  0  0  0  0  0  0  0
    3.8456    2.3989   -1.1274 C   0  0  0  0  0  0  0  0  0  0  0  0
    4.4347    3.3171   -0.2490 C   0  0  0  0  0  0  0  0  0  0  0  0
    3.9051    3.4378    1.0495 C   0  0  0  0  0  0  0  0  0  0  0  0
    2.8133    2.6616    1.4442 C   0  0  0  0  0  0  0  0  0  0  0  0
    2.2030    1.7198    0.5637 C   0  0  0  0  0  0  0  0  0  0  0  0
    1.1871    1.0093    1.0215 O   0  5  0  0  0  0  0  0  0  0  0  0
    0.3983   -0.2713   -2.2800 H   0  0  0  0  0  0  0  0  0  0  0  0
    0.3132    2.5851   -1.4979 H   0  0  0  0  0  0  0  0  0  0  0  0
   -0.9993    1.5928   -2.2256 H   0  0  0  0  0  0  0  0  0  0  0  0
    0.4602    2.0285   -3.2072 H   0  0  0  0  0  0  0  0  0  0  0  0
    2.4957    0.9827   -2.7612 H   0  0  0  0  0  0  0  0  0  0  0  0
    2.5501   -1.3684   -2.6327 H   0  0  0  0  0  0  0  0  0  0  0  0
    3.9538   -0.7020   -1.7554 H   0  0  0  0  0  0  0  0  0  0  0  0
    3.4121   -2.2334    1.7452 H   0  0  0  0  0  0  0  0  0  0  0  0
    3.0899   -0.4911    1.4571 H   0  0  0  0  0  0  0  0  0  0  0  0
    5.2486   -3.2743   -0.0093 H   0  0  0  0  0  0  0  0  0  0  0  0
    7.6452   -2.9420   -0.6575 H   0  0  0  0  0  0  0  0  0  0  0  0
    8.7017   -0.6761   -0.4408 H   0  0  0  0  0  0  0  0  0  0  0  0
    7.3475    1.2466    0.4484 H   0  0  0  0  0  0  0  0  0  0  0  0
    4.9704    0.8982    1.1194 H   0  0  0  0  0  0  0  0  0  0  0  0
    4.2473    2.2915   -2.1490 H   0  0  0  0  0  0  0  0  0  0  0  0
    5.2869    3.9319   -0.5722 H   0  0  0  0  0  0  0  0  0  0  0  0
    4.3445    4.1541    1.7616 H   0  0  0  0  0  0  0  0  0  0  0  0
    2.3841    2.7526    2.4532 H   0  0  0  0  0  0  0  0  0  0  0  0
  2  1  1  0  0  0  0
  2 21  1  0  0  0  0
  3 24  1  6  0  0  0
  3  4  1  0  0  0  0
  3  1  1  0  0  0  0
  3 13  1  0  0  0  0
  4  5  1  0  0  0  0
  5  6  1  0  0  0  0
  6 28  1  0  0  0  0
  6 27  1  0  0  0  0
  7 12  1  0  0  0  0
  7  6  1  0  0  0  0
  8  7  2  0  0  0  0
  9 10  2  0  0  0  0
  9  8  1  0  0  0  0
 10 11  1  0  0  0  0
 11 32  1  0  0  0  0
 11 12  2  0  0  0  0
 12 33  1  0  0  0  0
 13 18  1  0  0  0  0
 14 13  2  0  0  0  0
 14 15  1  0  0  0  0
 15 16  2  0  0  0  0
 16 17  1  0  0  0  0
 16 36  1  0  0  0  0
 17 37  1  0  0  0  0
 18 19  1  0  0  0  0
 18 17  2  0  0  0  0
 20  1  1  0  0  0  0
 22  2  1  0  0  0  0
 23  2  1  0  0  0  0
 25  4  1  0  0  0  0
 26  4  1  0  0  0  0
 29  8  1  0  0  0  0
 30  9  1  0  0  0  0
 31 10  1  0  0  0  0
 34 14  1  0  0  0  0
 35 15  1  0  0  0  0
M  CHG  1  19  -1
M  END
