1,5
q = -1.0, confidence = 0.0

 34 35  0  0  1  0  0  0  0  0999 V2000
   -0.1367   -1.7210    0.7000 O   0  5  0  0  0  0  0  0  0  0  0  0
    0.6305   -2.7454    0.3567 C   0  0  0  0  0  0  0  0  0  0  0  0
    1.9837   -2.5994   -0.0836 C   0  0  0  0  0  0  0  0  0  0  0  0
    2.6020   -1.2239   -0.1040 C   0  0  1  0  0  0  0  0  0  0  0  0
    1.7380   -0.2454   -0.8037 N   0  0  0  0  0  0  0  0  0  0  0  0
    1.6073   -0.4867   -2.2496 C   0  0  0  0  0  0  0  0  0  0  0  0
    1.0966   -1.4534   -2.4215 H   0  0  0  0  0  0  0  0  0  0  0  0
    1.0126    0.3389   -2.6815 H   0  0  0  0  0  0  0  0  0  0  0  0
    2.6040   -0.5227   -2.7427 H   0  0  0  0  0  0  0  0  0  0  0  0
    2.1340    0.7027   -0.6532 H   0  0  0  0  0  0  0  0  0  0  0  0
    2.8726   -0.7278    1.3278 C   0  0  0  0  0  0  0  0  0  0  0  0
    3.5150    0.9824    1.4277 S   0  0  0  0  0  0  0  0  0  0  0  0
    5.0772    0.8706    0.5732 C   0  0  0  0  0  0  0  0  0  0  0  0
    5.5416    2.0410   -0.0652 C   0  0  0  0  0  0  0  0  0  0  0  0
    6.7850    2.0461   -0.7117 C   0  0  0  0  0  0  0  0  0  0  0  0
    7.5723    0.8838   -0.7485 C   0  0  0  0  0  0  0  0  0  0  0  0
    7.1090   -0.2822   -0.1193 C   0  0  0  0  0  0  0  0  0  0  0  0
    5.8748   -0.2927    0.5477 C   0  0  0  0  0  0  0  0  0  0  0  0
    5.5413   -1.2100    1.0538 H   0  0  0  0  0  0  0  0  0  0  0  0
    7.7185   -1.1987   -0.1373 H   0  0  0  0  0  0  0  0  0  0  0  0
    8.5424    0.8860   -1.2672 H   0  0  0  0  0  0  0  0  0  0  0  0
    7.1347    2.9666   -1.2036 H   0  0  0  0  0  0  0  0  0  0  0  0
    4.9147    2.9460   -0.0572 H   0  0  0  0  0  0  0  0  0  0  0  0
    3.5465   -1.4358    1.8477 H   0  0  0  0  0  0  0  0  0  0  0  0
    1.9187   -0.6972    1.8923 H   0  0  0  0  0  0  0  0  0  0  0  0
    3.5736   -1.2784   -0.6464 H   0  0  0  0  0  0  0  0  0  0  0  0
    2.7432   -3.7348   -0.4151 C   0  0  0  0  0  0  0  0  0  0  0  0
    2.2094   -5.0272   -0.3169 C   0  0  0  0  0  0  0  0  0  0  0  0
    0.8816   -5.1789    0.1246 C   0  0  0  0  0  0  0  0  0  0  0  0
    0.1045   -4.0637    0.4488 C   0  0  0  0  0  0  0  0  0  0  0  0
   -0.9375   -4.1688    0.7860 H   0  0  0  0  0  0  0  0  0  0  0  0
    0.4419   -6.1855    0.2072 H   0  0  0  0  0  0  0  0  0  0  0  0
    2.8168   -5.9037   -0.5848 H   0  0  0  0  0  0  0  0  0  0  0  0
    3.7823   -3.5924   -0.7572 H   0  0  0  0  0  0  0  0  0  0  0  0
  2 30  1  0  0  0  0
  2  1  1  0  0  0  0
  3  2  2  0  0  0  0
  4 26  1  6  0  0  0
  4  3  1  0  0  0  0
  4 11  1  0  0  0  0
  5 10  1  0  0  0  0
  5  4  1  0  0  0  0
  6  5  1  0  0  0  0
  7  6  1  0  0  0  0
  8  6  1  0  0  0  0
  9  6  1  0  0  0  0
 11 12  1  0  0  0  0
 11 24  1  0  0  0  0
 11 25  1  0  0  0  0
 13 12  1  0  0  0  0
 14 23  1  0  0  0  0
 14 13  2  0  0  0  0
 15 14  1  0  0  0  0
 16 15  2  0  0  0  0
 16 17  1  0  0  0  0
 17 18  2  0  0  0  0
 18 13  1  0  0  0  0
 18 19  1  0  0  0  0
 20 17  1  0  0  0  0
 21 16  1  0  0  0  0
 22 15  1  0  0  0  0
 27 28  2  0  0  0  0
 27  3  1  0  0  0  0
 28 29  1  0  0  0  0
 29 32  1  0  0  0  0
 29 30  2  0  0  0  0
 30 31  1  0  0  0  0
 33 28  1  0  0  0  0
 34 27  1  0  0  0  0
M  CHG  1   1  -1
M  END
