1,4
q = 0.0, confidence = 0.988

 66 66  0  0  0  0  0  0  0  0999 V2000
   -2.2569    0.4467   -0.4477 N   0  0  0  0  0  0  0  0  0  0  0  0
    2.6536   -0.5800    0.0006 N   0  3  0  0  0  0  0  0  0  0  0  0
    1.5649   -0.5903   -0.3258 H   0  0  0  0  0  0  0  0  0  0  0  0
    0.5382   -0.2064   -1.2276 O   0  5  0  0  0  0  0  0  0  0  0  0
    5.4170   -1.3587   -0.3006 O   0  0  0  0  0  0  0  0  0  0  0  0
    0.8144   -0.1361    2.6210 O   0  0  0  0  0  0  0  0  0  0  0  0
   -4.2903   -1.1532    1.2305 O   0  0  0  0  0  0  0  0  0  0  0  0
   -2.1185    3.0801    1.4277 O   0  0  0  0  0  0  0  0  0  0  0  0
    0.6955    1.1153   -1.1295 C   0  0  0  0  0  0  0  0  0  0  0  0
   -0.3870    2.0339   -1.1385 C   0  0  0  0  0  0  0  0  0  0  0  0
   -0.0970    3.4005   -1.0037 C   0  0  0  0  0  0  0  0  0  0  0  0
   -0.9420    4.1079   -0.9967 H   0  0  0  0  0  0  0  0  0  0  0  0
    1.2132    3.8967   -0.8359 C   0  0  0  0  0  0  0  0  0  0  0  0
    1.4596    5.3783   -0.6889 C   0  0  0  0  0  0  0  0  0  0  0  0
    2.5271    5.5964   -0.4895 H   0  0  0  0  0  0  0  0  0  0  0  0
    0.8667    5.8109    0.1450 H   0  0  0  0  0  0  0  0  0  0  0  0
    1.1707    5.9351   -1.6055 H   0  0  0  0  0  0  0  0  0  0  0  0
    2.2678    2.9656   -0.7923 C   0  0  0  0  0  0  0  0  0  0  0  0
    3.3022    3.3195   -0.6446 H   0  0  0  0  0  0  0  0  0  0  0  0
    2.0262    1.5919   -0.9415 C   0  0  0  0  0  0  0  0  0  0  0  0
    3.1012    0.5369   -0.9287 C   0  0  0  0  0  0  0  0  0  0  0  0
    3.2124    0.0703   -1.9284 H   0  0  0  0  0  0  0  0  0  0  0  0
    4.0935    0.9071   -0.6116 H   0  0  0  0  0  0  0  0  0  0  0  0
    3.1052   -1.9554   -0.3729 C   0  0  0  0  0  0  0  0  0  0  0  0
    3.0509   -2.0038   -1.4775 H   0  0  0  0  0  0  0  0  0  0  0  0
    2.3443   -2.6659    0.0135 H   0  0  0  0  0  0  0  0  0  0  0  0
    4.4889   -2.3370    0.1132 C   0  0  0  0  0  0  0  0  0  0  0  0
    4.5066   -2.4537    1.2267 H   0  0  0  0  0  0  0  0  0  0  0  0
    4.7356   -3.3438   -0.3061 H   0  0  0  0  0  0  0  0  0  0  0  0
    6.7456   -1.6624    0.0666 C   0  0  0  0  0  0  0  0  0  0  0  0
    7.3898   -0.8375   -0.2926 H   0  0  0  0  0  0  0  0  0  0  0  0
    7.0955   -2.6169   -0.3940 H   0  0  0  0  0  0  0  0  0  0  0  0
    6.8623   -1.7525    1.1739 H   0  0  0  0  0  0  0  0  0  0  0  0
    2.8682   -0.2007    1.4234 C   0  0  0  0  0  0  0  0  0  0  0  0
    3.9422   -0.3459    1.6512 H   0  0  0  0  0  0  0  0  0  0  0  0
    2.6513    0.8830    1.5014 H   0  0  0  0  0  0  0  0  0  0  0  0
    1.9720   -0.9163    2.4234 C   0  0  0  0  0  0  0  0  0  0  0  0
    1.7013   -1.9415    2.0729 H   0  0  0  0  0  0  0  0  0  0  0  0
    2.5319   -1.0325    3.3861 H   0  0  0  0  0  0  0  0  0  0  0  0
   -0.1084   -0.7559    3.4983 C   0  0  0  0  0  0  0  0  0  0  0  0
   -0.9321   -0.0378    3.6718 H   0  0  0  0  0  0  0  0  0  0  0  0
    0.3645   -0.9930    4.4821 H   0  0  0  0  0  0  0  0  0  0  0  0
   -0.5227   -1.6877    3.0516 H   0  0  0  0  0  0  0  0  0  0  0  0
   -1.8084    1.5620   -1.3400 C   0  0  0  0  0  0  0  0  0  0  0  0
   -2.4913    2.4324   -1.2262 H   0  0  0  0  0  0  0  0  0  0  0  0
   -1.9265    1.1673   -2.3746 H   0  0  0  0  0  0  0  0  0  0  0  0
   -1.9440    0.6374    0.9924 C   0  0  0  0  0  0  0  0  0  0  0  0
   -0.8450    0.7276    1.0897 H   0  0  0  0  0  0  0  0  0  0  0  0
   -2.2264   -0.3033    1.4955 H   0  0  0  0  0  0  0  0  0  0  0  0
   -2.6424    1.7927    1.7100 C   0  0  0  0  0  0  0  0  0  0  0  0
   -3.7201    1.8208    1.4500 H   0  0  0  0  0  0  0  0  0  0  0  0
   -2.5945    1.5897    2.8092 H   0  0  0  0  0  0  0  0  0  0  0  0
   -0.9286    3.3531    2.1342 C   0  0  0  0  0  0  0  0  0  0  0  0
   -0.5799    4.3586    1.8293 H   0  0  0  0  0  0  0  0  0  0  0  0
   -0.1142    2.6238    1.9158 H   0  0  0  0  0  0  0  0  0  0  0  0
   -1.1034    3.3534    3.2390 H   0  0  0  0  0  0  0  0  0  0  0  0
   -3.6832    0.1497   -0.7312 C   0  0  0  0  0  0  0  0  0  0  0  0
   -3.7684    0.0745   -1.8336 H   0  0  0  0  0  0  0  0  0  0  0  0
   -4.3401    0.9828   -0.3901 H   0  0  0  0  0  0  0  0  0  0  0  0
   -4.1797   -1.1766   -0.1803 C   0  0  0  0  0  0  0  0  0  0  0  0
   -5.1726   -1.3948   -0.6484 H   0  0  0  0  0  0  0  0  0  0  0  0
   -3.4967   -1.9934   -0.5210 H   0  0  0  0  0  0  0  0  0  0  0  0
   -4.4218   -2.4480    1.7792 C   0  0  0  0  0  0  0  0  0  0  0  0
   -4.5186   -2.3373    2.8772 H   0  0  0  0  0  0  0  0  0  0  0  0
   -3.5277   -3.0763    1.5537 H   0  0  0  0  0  0  0  0  0  0  0  0
   -5.3301   -2.9739    1.3960 H   0  0  0  0  0  0  0  0  0  0  0  0
  1 47  1  0  0  0  0
  2 34  1  0  0  0  0
  3  2  1  0  0  0  0
  4  9  1  0  0  0  0
  5 30  1  0  0  0  0
  5 27  1  0  0  0  0
  6 40  1  0  0  0  0
  7 63  1  0  0  0  0
  8 50  1  0  0  0  0
  8 53  1  0  0  0  0
  9 20  1  0  0  0  0
 10  9  2  0  0  0  0
 10 11  1  0  0  0  0
 11 12  1  0  0  0  0
 11 13  2  0  0  0  0
 13 18  1  0  0  0  0
 13 14  1  0  0  0  0
 14 15  1  0  0  0  0
 14 16  1  0  0  0  0
 17 14  1  0  0  0  0
 18 19  1  0  0  0  0
 20 21  1  0  0  0  0
 20 18  2  0  0  0  0
 21 23  1  0  0  0  0
 21  2  1  0  0  0  0
 22 21  1  0  0  0  0
 24  2  1  0  0  0  0
 24 26  1  0  0  0  0
 24 27  1  0  0  0  0
 25 24  1  0  0  0  0
 27 28  1  0  0  0  0
 29 27  1  0  0  0  0
 30 33  1  0  0  0  0
 31 30  1  0  0  0  0
 32 30  1  0  0  0  0
 34 36  1  0  0  0  0
 34 35  1  0  0  0  0
 34 37  1  0  0  0  0
 37  6  1  0  0  0  0
 37 39  1  0  0  0  0
 38 37  1  0  0  0  0
 40 41  1  0  0  0  0
 40 42  1  0  0  0  0
 43 40  1  0  0  0  0
 44 45  1  0  0  0  0
 44 10  1  0  0  0  0
 44  1  1  0  0  0  0
 46 44  1  0  0  0  0
 47 48  1  0  0  0  0
 47 49  1  0  0  0  0
 47 50  1  0  0  0  0
 50 52  1  0  0  0  0
 51 50  1  0  0  0  0
 53 56  1  0  0  0  0
 54 53  1  0  0  0  0
 55 53  1  0  0  0  0
 57  1  1  0  0  0  0
 57 59  1  0  0  0  0
 57 60  1  0  0  0  0
 58 57  1  0  0  0  0
 60  7  1  0  0  0  0
 61 60  1  0  0  0  0
 62 60  1  0  0  0  0
 63 64  1  0  0  0  0
 65 63  1  0  0  0  0
 66 63  1  0  0  0  0
M  CHG  2   2   1   4  -1
M  END
