1,3
q = -1.0, confidence = 0.024

 20 20  0  0  0  0  0  0  0  0999 V2000
    1.1339   -1.5873   -1.8091 O   0  5  0  0  0  0  0  0  0  0  0  0
    1.1572   -3.7353   -2.5547 O   0  0  0  0  0  0  0  0  0  0  0  0
   -0.3825   -2.2212    0.2214 N   0  0  0  0  0  2  0  0  0  0  0  0
    0.8330   -2.8733   -1.7496 C   0  0  0  0  0  0  0  0  0  0  0  0
   -0.0473   -3.1994   -0.5671 C   0  0  0  0  0  3  0  0  0  0  0  0
   -1.3297   -2.4482    1.3171 C   0  0  0  0  0  0  0  0  0  0  0  0
   -2.6834   -1.8288    1.0217 C   0  0  0  0  0  0  0  0  0  0  0  0
   -3.3406   -2.0980   -0.1946 C   0  0  0  0  0  0  0  0  0  0  0  0
   -4.6014   -1.5443   -0.4583 C   0  0  0  0  0  0  0  0  0  0  0  0
   -5.2221   -0.7195    0.4941 C   0  0  0  0  0  0  0  0  0  0  0  0
   -4.5752   -0.4502    1.7095 C   0  0  0  0  0  0  0  0  0  0  0  0
   -3.3098   -0.9986    1.9691 C   0  0  0  0  0  0  0  0  0  0  0  0
   -0.4162   -4.2307   -0.4136 H   0  0  0  0  0  0  0  0  0  0  0  0
   -0.9090   -1.9963    2.2379 H   0  0  0  0  0  0  0  0  0  0  0  0
   -1.4348   -3.5422    1.4902 H   0  0  0  0  0  0  0  0  0  0  0  0
   -2.8633   -2.7449   -0.9469 H   0  0  0  0  0  0  0  0  0  0  0  0
   -5.1055   -1.7644   -1.4111 H   0  0  0  0  0  0  0  0  0  0  0  0
   -6.2140   -0.2893    0.2898 H   0  0  0  0  0  0  0  0  0  0  0  0
   -5.0567    0.1931    2.4609 H   0  0  0  0  0  0  0  0  0  0  0  0
   -2.8013   -0.7784    2.9213 H   0  0  0  0  0  0  0  0  0  0  0  0
  1  4  1  0  0  0  0
  2  4  2  0  0  0  0
  3  6  1  0  0  0  0
  4  5  1  0  0  0  0
  5 13  1  0  0  0  0
  5  3  1  0  0  0  0
  6 15  1  0  0  0  0
  6 14  1  0  0  0  0
  7  6  1  0  0  0  0
  7 12  1  0  0  0  0
  8  7  2  0  0  0  0
  9  8  1  0  0  0  0
  9 10  2  0  0  0  0
 10 11  1  0  0  0  0
 11 12  2  0  0  0  0
 11 19  1  0  0  0  0
 12 20  1  0  0  0  0
 16  8  1  0  0  0  0
 17  9  1  0  0  0  0
 18 10  1  0  0  0  0
M  CHG  1   1  -1
M  END
