73,75
q = -1.0, confidence = 0.104

 76 77  0  0  0  0  0  0  0  0999 V2000
    7.2548    1.4264    1.0923 C   0  0  0  0  0  0  0  0  0  0  0  0
    7.1250    1.0324    2.1205 H   0  0  0  0  0  0  0  0  0  0  0  0
    6.9933    2.5034    1.0977 H   0  0  0  0  0  0  0  0  0  0  0  0
    8.3312    1.3456    0.8399 H   0  0  0  0  0  0  0  0  0  0  0  0
    6.8988   -0.8356    0.1262 C   0  0  0  0  0  0  0  0  0  0  0  0
    6.5019   -1.4304   -0.7149 H   0  0  0  0  0  0  0  0  0  0  0  0
    6.5868   -1.3120    1.0778 H   0  0  0  0  0  0  0  0  0  0  0  0
    8.0062   -0.8815    0.0707 H   0  0  0  0  0  0  0  0  0  0  0  0
    6.7502    1.2136   -1.3419 C   0  0  0  0  0  0  0  0  0  0  0  0
    6.2021    0.6666   -2.1314 H   0  0  0  0  0  0  0  0  0  0  0  0
    7.8378    1.1349   -1.5496 H   0  0  0  0  0  0  0  0  0  0  0  0
    6.4681    2.2846   -1.3970 H   0  0  0  0  0  0  0  0  0  0  0  0
    6.4311    0.6355    0.0573 C   0  0  0  0  0  0  0  0  0  0  0  0
    4.9127    0.7711    0.3165 C   0  0  0  0  0  0  0  0  0  0  0  0
    3.9450    0.2368   -0.5671 C   0  0  0  0  0  0  0  0  0  0  0  0
    2.5525    0.5730   -0.4538 C   0  0  0  0  0  0  0  0  0  0  0  0
    2.1405    1.2963    0.6978 C   0  0  0  0  0  0  0  0  0  0  0  0
    1.0723    1.4995    0.8579 H   0  0  0  0  0  0  0  0  0  0  0  0
    3.0581    1.7138    1.6642 C   0  0  0  0  0  0  0  0  0  0  0  0
    4.4306    1.4992    1.4265 C   0  0  0  0  0  0  0  0  0  0  0  0
    5.1456    1.9132    2.1496 H   0  0  0  0  0  0  0  0  0  0  0  0
    4.0555   -1.9934   -1.3371 C   0  0  0  0  0  0  0  0  0  0  0  0
    4.2730   -2.5450   -2.2724 H   0  0  0  0  0  0  0  0  0  0  0  0
    2.9992   -2.1641   -1.0338 H   0  0  0  0  0  0  0  0  0  0  0  0
    4.7035   -2.3859   -0.5244 H   0  0  0  0  0  0  0  0  0  0  0  0
    2.5784    2.4275    2.9045 C   0  0  0  0  0  0  0  0  0  0  0  0
    1.6705    1.9395    3.3130 H   0  0  0  0  0  0  0  0  0  0  0  0
    2.3097    3.4835    2.6870 H   0  0  0  0  0  0  0  0  0  0  0  0
    3.3533    2.4377    3.6955 H   0  0  0  0  0  0  0  0  0  0  0  0
    1.6572    0.0756   -1.4596 C   0  0  0  0  0  3  0  0  0  0  0  0
    2.0690   -0.5836   -2.2319 H   0  0  0  0  0  0  0  0  0  0  0  0
   -0.4363   -0.5384   -2.5029 C   0  0  0  0  0  0  0  0  0  0  0  0
   -1.4874   -0.2031   -2.4957 H   0  0  0  0  0  0  0  0  0  0  0  0
   -0.0454   -0.3438   -3.5227 H   0  0  0  0  0  0  0  0  0  0  0  0
   -0.2867   -2.0338   -2.2252 C   0  0  0  0  0  0  0  0  0  0  0  0
   -0.3770   -2.5742   -3.1976 H   0  0  0  0  0  0  0  0  0  0  0  0
    0.7347   -2.2251   -1.8435 H   0  0  0  0  0  0  0  0  0  0  0  0
   -0.8062   -4.0426   -1.0251 C   0  0  0  0  0  0  0  0  0  0  0  0
   -0.7686   -4.6126   -1.9822 H   0  0  0  0  0  0  0  0  0  0  0  0
   -1.5205   -4.5292   -0.3363 H   0  0  0  0  0  0  0  0  0  0  0  0
    0.1923   -4.0392   -0.5520 H   0  0  0  0  0  0  0  0  0  0  0  0
   -2.5934   -2.6769   -1.8530 C   0  0  0  0  0  0  0  0  0  0  0  0
   -2.5938   -3.2560   -2.8056 H   0  0  0  0  0  0  0  0  0  0  0  0
   -2.9555   -1.6532   -2.0485 H   0  0  0  0  0  0  0  0  0  0  0  0
   -3.2880   -3.1541   -1.1384 H   0  0  0  0  0  0  0  0  0  0  0  0
   -0.2307    1.5273   -1.1638 C   0  0  0  0  0  3  0  0  0  0  0  0
    0.5007    2.3347   -1.0197 H   0  0  0  0  0  0  0  0  0  0  0  0
   -1.6127    1.8713   -0.9857 C   0  0  0  0  0  0  0  0  0  0  0  0
   -2.6341    0.9987   -0.4731 C   0  0  0  0  0  0  0  0  0  0  0  0
   -3.9771    1.4554   -0.2803 C   0  0  0  0  0  0  0  0  0  0  0  0
   -4.2460    2.7936   -0.6087 C   0  0  0  0  0  0  0  0  0  0  0  0
   -5.2653    3.1781   -0.4760 H   0  0  0  0  0  0  0  0  0  0  0  0
   -3.2609    3.6991   -1.0680 C   0  0  0  0  0  0  0  0  0  0  0  0
   -1.9619    3.2297   -1.2347 C   0  0  0  0  0  0  0  0  0  0  0  0
   -1.1752    3.9098   -1.5976 H   0  0  0  0  0  0  0  0  0  0  0  0
   -3.6301    5.1299   -1.3669 C   0  0  0  0  0  0  0  0  0  0  0  0
   -2.7529    5.7204   -1.6944 H   0  0  0  0  0  0  0  0  0  0  0  0
   -4.0622    5.6279   -0.4737 H   0  0  0  0  0  0  0  0  0  0  0  0
   -4.3980    5.1894   -2.1669 H   0  0  0  0  0  0  0  0  0  0  0  0
   -5.0830    0.5820    0.3527 C   0  0  0  0  0  0  0  0  0  0  0  0
   -5.1963   -0.7909   -0.3432 C   0  0  0  0  0  0  0  0  0  0  0  0
   -5.3249   -0.6760   -1.4395 H   0  0  0  0  0  0  0  0  0  0  0  0
   -6.0802   -1.3355    0.0468 H   0  0  0  0  0  0  0  0  0  0  0  0
   -4.3131   -1.4187   -0.1485 H   0  0  0  0  0  0  0  0  0  0  0  0
   -4.7631    0.3851    1.8533 C   0  0  0  0  0  0  0  0  0  0  0  0
   -3.7812   -0.0939    2.0149 H   0  0  0  0  0  0  0  0  0  0  0  0
   -5.5379   -0.2521    2.3279 H   0  0  0  0  0  0  0  0  0  0  0  0
   -4.7479    1.3614    2.3781 H   0  0  0  0  0  0  0  0  0  0  0  0
   -6.4673    1.2543    0.2517 C   0  0  0  0  0  0  0  0  0  0  0  0
   -6.7572    1.4545   -0.7999 H   0  0  0  0  0  0  0  0  0  0  0  0
   -6.5180    2.2068    0.8154 H   0  0  0  0  0  0  0  0  0  0  0  0
   -7.2288    0.5782    0.6888 H   0  0  0  0  0  0  0  0  0  0  0  0
   -1.2394   -2.6485   -1.2669 N   0  0  0  0  0  0  0  0  0  0  0  0
    0.3340    0.3608   -1.5964 N   0  0  0  0  0  0  0  0  0  0  0  0
   -2.2561   -0.2403   -0.1087 O   0  5  0  0  0  0  0  0  0  0  0  0
    4.3202   -0.6133   -1.5980 O   0  0  0  0  0  0  0  0  0  0  0  0
  1  3  1  0  0  0  0
  1  2  1  0  0  0  0
  4  1  1  0  0  0  0
  5  7  1  0  0  0  0
  6  5  1  0  0  0  0
  8  5  1  0  0  0  0
  9 13  1  0  0  0  0
 10  9  1  0  0  0  0
 11  9  1  0  0  0  0
 12  9  1  0  0  0  0
 13  5  1  0  0  0  0
 13 14  1  0  0  0  0
 13  1  1  0  0  0  0
 14 20  1  0  0  0  0
 15 16  1  0  0  0  0
 15 14  2  0  0  0  0
 16 17  2  0  0  0  0
 17 18  1  0  0  0  0
 17 19  1  0  0  0  0
 19 26  1  0  0  0  0
 20 19  2  0  0  0  0
 20 21  1  0  0  0  0
 22 24  1  0  0  0  0
 22 25  1  0  0  0  0
 23 22  1  0  0  0  0
 26 27  1  0  0  0  0
 26 29  1  0  0  0  0
 28 26  1  0  0  0  0
 30 16  1  0  0  0  0
 31 30  1  0  0  0  0
 32 33  1  0  0  0  0
 32 35  1  0  0  0  0
 32 74  1  0  0  0  0
 34 32  1  0  0  0  0
 35 37  1  0  0  0  0
 35 73  1  0  0  0  0
 36 35  1  0  0  0  0
 38 41  1  0  0  0  0
 38 40  1  0  0  0  0
 39 38  1  0  0  0  0
 42 73  1  0  0  0  0
 42 45  1  0  0  0  0
 43 42  1  0  0  0  0
 44 42  1  0  0  0  0
 46 47  1  0  0  0  0
 46 48  1  0  0  0  0
 48 49  1  0  0  0  0
 49 50  2  0  0  0  0
 49 75  1  0  0  0  0
 50 60  1  0  0  0  0
 51 52  1  0  0  0  0
 51 50  1  0  0  0  0
 53 51  2  0  0  0  0
 54 53  1  0  0  0  0
 54 48  2  0  0  0  0
 55 54  1  0  0  0  0
 56 53  1  0  0  0  0
 56 58  1  0  0  0  0
 57 56  1  0  0  0  0
 59 56  1  0  0  0  0
 60 65  1  0  0  0  0
 61 64  1  0  0  0  0
 61 63  1  0  0  0  0
 61 60  1  0  0  0  0
 62 61  1  0  0  0  0
 65 66  1  0  0  0  0
 65 67  1  0  0  0  0
 65 68  1  0  0  0  0
 69 60  1  0  0  0  0
 69 72  1  0  0  0  0
 69 71  1  0  0  0  0
 70 69  1  0  0  0  0
 73 38  1  0  0  0  0
 74 30  1  0  0  0  0
 74 46  1  0  0  0  0
 76 22  1  0  0  0  0
 76 15  1  0  0  0  0
M  CHG  1  75  -1
M  END
