1,3
q = 0.0, confidence = 0.944

 37 37  0  0  0  0  0  0  0  0999 V2000
    1.2207   -0.3610   -1.0262 O   0  5  0  0  0  0  0  0  0  0  0  0
    1.8294   -2.8973   -0.4935 O   0  0  0  0  0  0  0  0  0  0  0  0
   -0.8341    1.4489   -1.6278 N   0  0  0  0  0  2  0  0  0  0  0  0
   -2.8980    2.2795    0.1535 N   0  3  0  0  0  0  0  0  0  0  0  0
   -2.2417    1.4218    0.4842 H   0  0  0  0  0  0  0  0  0  0  0  0
   -3.5788    1.8709   -0.5079 H   0  0  0  0  0  0  0  0  0  0  0  0
   -0.8703   -0.9643   -2.0573 C   0  0  0  0  0  0  0  0  0  0  0  0
    0.3663   -1.2891   -1.4115 C   0  0  0  0  0  0  0  0  0  0  0  0
    0.6628   -2.6732   -1.1777 C   0  0  0  0  0  0  0  0  0  0  0  0
   -0.2161   -3.6710   -1.6104 C   0  0  0  0  0  0  0  0  0  0  0  0
    0.0116   -4.7293   -1.4275 H   0  0  0  0  0  0  0  0  0  0  0  0
   -1.4098   -3.3364   -2.2910 C   0  0  0  0  0  0  0  0  0  0  0  0
   -2.0756   -4.1386   -2.6390 H   0  0  0  0  0  0  0  0  0  0  0  0
   -1.7281   -2.0041   -2.5147 C   0  0  0  0  0  0  0  0  0  0  0  0
   -2.6581   -1.7318   -3.0382 H   0  0  0  0  0  0  0  0  0  0  0  0
   -1.3183    0.4004   -2.2252 C   0  0  0  0  0  3  0  0  0  0  0  0
   -2.1912    0.5291   -2.9094 H   0  0  0  0  0  0  0  0  0  0  0  0
   -1.4732    2.7314   -1.8414 C   0  0  0  0  0  0  0  0  0  0  0  0
   -2.2789    2.6620   -2.6126 H   0  0  0  0  0  0  0  0  0  0  0  0
   -0.7225    3.4660   -2.2031 H   0  0  0  0  0  0  0  0  0  0  0  0
   -2.0387    3.2871   -0.5298 C   0  0  0  0  0  0  0  0  0  0  0  0
   -1.2108    3.5397    0.1640 H   0  0  0  0  0  0  0  0  0  0  0  0
   -2.6180    4.2097   -0.7297 H   0  0  0  0  0  0  0  0  0  0  0  0
   -3.6196    2.7454    1.3752 C   0  0  0  0  0  0  0  0  0  0  0  0
   -2.8512    3.1746    2.0485 H   0  0  0  0  0  0  0  0  0  0  0  0
   -4.0002    1.8248    1.8605 H   0  0  0  0  0  0  0  0  0  0  0  0
   -4.7444    3.7288    1.0936 C   0  0  0  0  0  0  0  0  0  0  0  0
   -4.3829    4.6765    0.6483 H   0  0  0  0  0  0  0  0  0  0  0  0
   -5.2542    3.9884    2.0414 H   0  0  0  0  0  0  0  0  0  0  0  0
   -5.5086    3.2926    0.4171 H   0  0  0  0  0  0  0  0  0  0  0  0
    2.1005   -4.2411   -0.0810 C   0  0  0  0  0  0  0  0  0  0  0  0
    2.2380   -4.8884   -0.9771 H   0  0  0  0  0  0  0  0  0  0  0  0
    1.2256   -4.6331    0.4857 H   0  0  0  0  0  0  0  0  0  0  0  0
    3.3447   -4.2488    0.7838 C   0  0  0  0  0  0  0  0  0  0  0  0
    4.2209   -3.8403    0.2395 H   0  0  0  0  0  0  0  0  0  0  0  0
    3.5938   -5.2862    1.0799 H   0  0  0  0  0  0  0  0  0  0  0  0
    3.1918   -3.6621    1.7121 H   0  0  0  0  0  0  0  0  0  0  0  0
  2 31  1  0  0  0  0
  4  5  1  0  0  0  0
  4 24  1  0  0  0  0
  6  4  1  0  0  0  0
  7  8  1  0  0  0  0
  8  9  2  0  0  0  0
  8  1  1  0  0  0  0
  9  2  1  0  0  0  0
 10 11  1  0  0  0  0
 10  9  1  0  0  0  0
 12 10  2  0  0  0  0
 13 12  1  0  0  0  0
 14 12  1  0  0  0  0
 14  7  2  0  0  0  0
 15 14  1  0  0  0  0
 16  7  1  0  0  0  0
 16  3  1  0  0  0  0
 17 16  1  0  0  0  0
 18  3  1  0  0  0  0
 18 21  1  0  0  0  0
 19 18  1  0  0  0  0
 20 18  1  0  0  0  0
 21  4  1  0  0  0  0
 21 22  1  0  0  0  0
 23 21  1  0  0  0  0
 24 26  1  0  0  0  0
 24 25  1  0  0  0  0
 27 24  1  0  0  0  0
 27 29  1  0  0  0  0
 28 27  1  0  0  0  0
 30 27  1  0  0  0  0
 31 33  1  0  0  0  0
 31 34  1  0  0  0  0
 32 31  1  0  0  0  0
 34 36  1  0  0  0  0
 34 37  1  0  0  0  0
 35 34  1  0  0  0  0
M  CHG  2   1  -1   4   1
M  END
