2,3
q = -1.0, confidence = 0.002

 24 25  0  0  0  0  0  0  0  0999 V2000
    2.2724   -3.1495   -0.6990 N   0  0  0  0  0  0  0  0  0  0  0  0
    0.4177   -1.8990    0.0640 N   0  0  0  0  0  2  0  0  0  0  0  0
   -1.8401   -0.3106    0.0114 O   0  5  0  0  0  0  0  0  0  0  0  0
   -0.4555   -2.8506   -0.2035 C   0  0  0  0  0  0  0  0  0  0  0  0
   -0.0555   -3.8797   -0.2783 H   0  0  0  0  0  0  0  0  0  0  0  0
   -1.8637   -2.6968   -0.3718 C   0  0  0  0  0  0  0  0  0  0  0  0
   -2.4943   -1.4105   -0.2111 C   0  0  0  0  0  0  0  0  0  0  0  0
   -3.9216   -1.3528   -0.2872 C   0  0  0  0  0  0  0  0  0  0  0  0
   -4.3934   -0.3691   -0.1510 H   0  0  0  0  0  0  0  0  0  0  0  0
   -4.6691   -2.4960   -0.5429 C   0  0  0  0  0  0  0  0  0  0  0  0
   -5.7658   -2.4174   -0.6087 H   0  0  0  0  0  0  0  0  0  0  0  0
   -4.0470   -3.7587   -0.7224 C   0  0  0  0  0  0  0  0  0  0  0  0
   -4.6530   -4.6532   -0.9251 H   0  0  0  0  0  0  0  0  0  0  0  0
   -2.6649   -3.8469   -0.6289 C   0  0  0  0  0  3  0  0  0  0  0  0
   -2.1588   -4.8185   -0.7472 H   0  0  0  0  0  0  0  0  0  0  0  0
    1.7668   -2.3472    0.2489 C   0  0  0  0  0  0  0  0  0  0  0  0
    2.4768   -1.9680    1.4068 C   0  0  0  0  0  0  0  0  0  0  0  0
    1.9853   -1.3520    2.1784 H   0  0  0  0  0  0  0  0  0  0  0  0
    3.7846   -2.4388    1.5507 C   0  0  0  0  0  0  0  0  0  0  0  0
    4.3685   -2.1687    2.4439 H   0  0  0  0  0  0  0  0  0  0  0  0
    4.3380   -3.2578    0.5508 C   0  0  0  0  0  0  0  0  0  0  0  0
    5.3667   -3.6403    0.6243 H   0  0  0  0  0  0  0  0  0  0  0  0
    3.5328   -3.5922   -0.5460 C   0  0  0  0  0  0  0  0  0  0  0  0
    3.9175   -4.2488   -1.3464 H   0  0  0  0  0  0  0  0  0  0  0  0
  1 23  2  0  0  0  0
  1 16  1  0  0  0  0
  2 16  1  0  0  0  0
  4  2  1  0  0  0  0
  5  4  1  0  0  0  0
  6  7  1  0  0  0  0
  6  4  2  0  0  0  0
  7  3  1  0  0  0  0
  8  7  2  0  0  0  0
  8  9  1  0  0  0  0
 10  8  1  0  0  0  0
 11 10  1  0  0  0  0
 12 14  1  0  0  0  0
 12 10  2  0  0  0  0
 13 12  1  0  0  0  0
 14  6  1  0  0  0  0
 15 14  1  0  0  0  0
 16 17  2  0  0  0  0
 17 19  1  0  0  0  0
 17 18  1  0  0  0  0
 19 20  1  0  0  0  0
 21 22  1  0  0  0  0
 21 19  2  0  0  0  0
 23 21  1  0  0  0  0
 24 23  1  0  0  0  0
M  CHG  1   3  -1
M  END
