1,5
q = -1.0, confidence = 0.02

 40 43  0  0  1  0  0  0  0  0999 V2000
    1.8806    0.6644   -0.2207 O   0  0  0  0  0  1  0  0  0  0  0  0
    4.5002    0.2345   -1.1885 N   0  0  0  0  0  0  0  0  0  0  0  0
    4.6235    1.1452   -0.2209 N   0  0  0  0  0  0  0  0  0  0  0  0
    5.7355    1.1161    0.5280 N   0  0  0  0  0  0  0  0  0  0  0  0
   -0.7578    1.8457   -0.4208 N   0  0  0  0  0  2  0  0  0  0  0  0
    2.2635    1.8954   -0.1241 C   0  0  1  0  0  3  0  0  0  0  0  0
    3.6725    2.1938   -0.0624 C   0  0  0  0  0  0  0  0  0  0  0  0
    4.1465    3.4821    0.1693 C   0  0  0  0  0  0  0  0  0  0  0  0
    5.2357    3.6125    0.2506 H   0  0  0  0  0  0  0  0  0  0  0  0
    3.2748    4.5923    0.2860 C   0  0  0  0  0  0  0  0  0  0  0  0
    1.9134    4.3459    0.1255 C   0  0  0  0  0  0  0  0  0  0  0  0
    1.2043    5.1893    0.1565 H   0  0  0  0  0  0  0  0  0  0  0  0
    1.3840    3.0393   -0.0732 C   0  0  0  0  0  0  0  0  0  0  0  0
    5.6407   -0.4865   -1.0708 C   0  0  0  0  0  0  0  0  0  0  0  0
    6.1029   -1.6056   -1.8079 C   0  0  0  0  0  0  0  0  0  0  0  0
    5.5050   -2.0212   -2.6310 H   0  0  0  0  0  0  0  0  0  0  0  0
    7.3268   -2.1465   -1.4331 C   0  0  0  0  0  0  0  0  0  0  0  0
    7.7245   -3.0166   -1.9774 H   0  0  0  0  0  0  0  0  0  0  0  0
    8.0943   -1.6047   -0.3533 C   0  0  0  0  0  0  0  0  0  0  0  0
    9.0561   -2.0771   -0.1015 H   0  0  0  0  0  0  0  0  0  0  0  0
    7.6634   -0.5021    0.3759 C   0  0  0  0  0  0  0  0  0  0  0  0
    8.2529   -0.0826    1.2035 H   0  0  0  0  0  0  0  0  0  0  0  0
    6.4182    0.0676    0.0069 C   0  0  0  0  0  0  0  0  0  0  0  0
    3.8233    5.9729    0.5403 C   0  0  0  0  0  0  0  0  0  0  0  0
    3.0229    6.7374    0.5179 H   0  0  0  0  0  0  0  0  0  0  0  0
    4.5838    6.2552   -0.2172 H   0  0  0  0  0  0  0  0  0  0  0  0
    4.3201    6.0348    1.5316 H   0  0  0  0  0  0  0  0  0  0  0  0
   -0.0248    2.9312   -0.3154 C   0  0  0  0  0  0  0  0  0  0  0  0
   -0.5461    3.8930   -0.4851 H   0  0  0  0  0  0  0  0  0  0  0  0
   -2.1317    2.0049   -0.7740 C   0  0  0  0  0  0  0  0  0  0  0  0
   -2.9373    2.9643   -0.1287 C   0  0  0  0  0  0  0  0  0  0  0  0
   -2.5279    3.5371    0.7166 H   0  0  0  0  0  0  0  0  0  0  0  0
   -4.2603    3.1627   -0.5457 C   0  0  0  0  0  0  0  0  0  0  0  0
   -4.8877    3.9055   -0.0321 H   0  0  0  0  0  0  0  0  0  0  0  0
   -4.7969    2.3917   -1.5876 C   0  0  0  0  0  0  0  0  0  0  0  0
   -5.8433    2.5332   -1.8944 H   0  0  0  0  0  0  0  0  0  0  0  0
   -4.0027    1.4134   -2.2086 C   0  0  0  0  0  0  0  0  0  0  0  0
   -4.4243    0.7880   -3.0092 H   0  0  0  0  0  0  0  0  0  0  0  0
   -2.6763    1.2176   -1.8071 C   0  0  0  0  0  0  0  0  0  0  0  0
   -2.0425    0.4613   -2.2911 H   0  0  0  0  0  0  0  0  0  0  0  0
  2 14  2  0  0  0  0
  2  3  1  0  0  0  0
  3  7  1  0  0  0  0
  3  4  1  0  0  0  0
  5 28  1  0  0  0  0
  6  1  1  6  0  0  0
  6 13  1  0  0  0  0
  6  7  1  0  0  0  0
  7  8  2  0  0  0  0
  8  9  1  0  0  0  0
  8 10  1  0  0  0  0
 10 24  1  0  0  0  0
 11 12  1  0  0  0  0
 11 10  2  0  0  0  0
 13 11  1  0  0  0  0
 14 23  1  0  0  0  0
 15 17  2  0  0  0  0
 15 14  1  0  0  0  0
 16 15  1  0  0  0  0
 17 19  1  0  0  0  0
 18 17  1  0  0  0  0
 19 20  1  0  0  0  0
 19 21  2  0  0  0  0
 21 22  1  0  0  0  0
 23 21  1  0  0  0  0
 23  4  2  0  0  0  0
 24 27  1  0  0  0  0
 25 24  1  0  0  0  0
 26 24  1  0  0  0  0
 28 13  2  0  0  0  0
 29 28  1  0  0  0  0
 30  5  1  0  0  0  0
 30 31  1  0  0  0  0
 31 32  1  0  0  0  0
 33 31  2  0  0  0  0
 33 34  1  0  0  0  0
 35 33  1  0  0  0  0
 36 35  1  0  0  0  0
 37 39  1  0  0  0  0
 37 35  2  0  0  0  0
 38 37  1  0  0  0  0
 39 30  2  0  0  0  0
 40 39  1  0  0  0  0
M  END
