1,2
q = -1.0, confidence = 0.0

 25 25  0  0  1  0  0  0  0  0999 V2000
    1.9078    0.2231   -0.9752 O   0  5  0  0  0  0  0  0  0  0  0  0
   -0.0198    1.4426    0.5345 N   0  0  0  0  0  2  0  0  0  0  0  0
   -1.3264    1.6736    1.0654 C   0  0  0  0  0  0  0  0  0  0  0  0
   -2.2097    2.5431    0.3943 C   0  0  0  0  0  0  0  0  0  0  0  0
   -1.8749    3.0193   -0.5382 H   0  0  0  0  0  0  0  0  0  0  0  0
   -3.4981    2.7547    0.9002 C   0  0  0  0  0  0  0  0  0  0  0  0
   -4.1849    3.4267    0.3643 H   0  0  0  0  0  0  0  0  0  0  0  0
   -3.9235    2.0965    2.0653 C   0  0  0  0  0  0  0  0  0  0  0  0
   -4.9414    2.2562    2.4506 H   0  0  0  0  0  0  0  0  0  0  0  0
   -3.0480    1.2229    2.7274 C   0  0  0  0  0  0  0  0  0  0  0  0
   -3.3748    0.6951    3.6362 H   0  0  0  0  0  0  0  0  0  0  0  0
   -1.7533    1.0090    2.2314 C   0  0  0  0  0  0  0  0  0  0  0  0
   -1.0664    0.3191    2.7417 H   0  0  0  0  0  0  0  0  0  0  0  0
    0.9828    2.1687    0.9987 C   0  0  1  0  0  3  0  0  0  0  0  0
    2.3317    2.0095    0.5273 C   0  0  0  0  0  0  0  0  0  0  0  0
    3.1070    2.6593    0.9478 H   0  0  0  0  0  0  0  0  0  0  0  0
    2.7044    1.0633   -0.4019 C   0  0  0  0  0  0  0  0  0  0  0  0
    0.7452    3.2170    2.0607 C   0  0  0  0  0  0  0  0  0  0  0  0
   -0.0332    3.9330    1.7295 H   0  0  0  0  0  0  0  0  0  0  0  0
    1.6723    3.7689    2.2954 H   0  0  0  0  0  0  0  0  0  0  0  0
    0.3570    2.7539    2.9899 H   0  0  0  0  0  0  0  0  0  0  0  0
    4.1638    0.9361   -0.8536 C   0  0  0  0  0  0  0  0  0  0  0  0
    4.2659    1.1914   -2.1730 F   0  0  0  0  0  0  0  0  0  0  0  0
    4.6268   -0.3122   -0.6364 F   0  0  0  0  0  0  0  0  0  0  0  0
    4.9720    1.7997   -0.1970 F   0  0  0  0  0  0  0  0  0  0  0  0
  1 17  1  0  0  0  0
  2 14  1  0  0  0  0
  2  3  1  0  0  0  0
  3 12  1  0  0  0  0
  4  6  1  0  0  0  0
  4  3  2  0  0  0  0
  5  4  1  0  0  0  0
  6  8  2  0  0  0  0
  7  6  1  0  0  0  0
  8  9  1  0  0  0  0
  8 10  1  0  0  0  0
 10 11  1  0  0  0  0
 12 10  2  0  0  0  0
 12 13  1  0  0  0  0
 14 15  1  6  0  0  0
 14 18  1  0  0  0  0
 15 16  1  0  0  0  0
 17 15  2  0  0  0  0
 18 20  1  0  0  0  0
 18 21  1  0  0  0  0
 19 18  1  0  0  0  0
 22 24  1  0  0  0  0
 22 17  1  0  0  0  0
 22 25  1  0  0  0  0
 23 22  1  0  0  0  0
M  CHG  1   1  -1
M  END
