1,2
q = 0.0, confidence = 0.998

 30 30  0  0  0  0  0  0  0  0999 V2000
    1.5989   -1.4026   -0.0929 O   0  5  0  0  0  0  0  0  0  0  0  0
    0.2423    1.2452   -0.1268 N   0  0  0  0  0  2  0  0  0  0  0  0
   -2.9975    1.1150   -0.2654 N   0  3  0  0  0  0  0  0  0  0  0  0
   -2.4618    0.3042   -0.7823 H   0  0  0  0  0  0  0  0  0  0  0  0
   -3.3850    1.6707   -1.0470 H   0  0  0  0  0  0  0  0  0  0  0  0
    2.6716    0.7930   -0.0393 C   0  0  0  0  0  0  0  0  0  0  0  0
    2.6619   -0.6654   -0.0636 C   0  0  0  0  0  0  0  0  0  0  0  0
    3.9423   -1.3146   -0.0558 C   0  0  0  0  0  0  0  0  0  0  0  0
    3.9298   -2.4140   -0.0805 H   0  0  0  0  0  0  0  0  0  0  0  0
    5.1313   -0.6027   -0.0100 C   0  0  0  0  0  0  0  0  0  0  0  0
    6.0878   -1.1495    0.0000 H   0  0  0  0  0  0  0  0  0  0  0  0
    5.1359    0.8163    0.0254 C   0  0  0  0  0  0  0  0  0  0  0  0
    6.0833    1.3726    0.0619 H   0  0  0  0  0  0  0  0  0  0  0  0
    3.9220    1.4838    0.0084 C   0  0  0  0  0  0  0  0  0  0  0  0
    3.9002    2.5863    0.0278 H   0  0  0  0  0  0  0  0  0  0  0  0
    1.4982    1.6166   -0.0855 C   0  0  0  0  0  3  0  0  0  0  0  0
    1.7072    2.7124   -0.0953 H   0  0  0  0  0  0  0  0  0  0  0  0
   -0.7695    2.2805   -0.2496 C   0  0  0  0  0  0  0  0  0  0  0  0
   -1.0230    2.4272   -1.3276 H   0  0  0  0  0  0  0  0  0  0  0  0
   -0.3785    3.2600    0.1097 H   0  0  0  0  0  0  0  0  0  0  0  0
   -2.0485    1.9561    0.5296 C   0  0  0  0  0  0  0  0  0  0  0  0
   -1.7972    1.3657    1.4364 H   0  0  0  0  0  0  0  0  0  0  0  0
   -2.5855    2.8805    0.8212 H   0  0  0  0  0  0  0  0  0  0  0  0
   -4.1120    0.4930    0.5186 C   0  0  0  0  0  0  0  0  0  0  0  0
   -4.6668    1.3096    1.0257 H   0  0  0  0  0  0  0  0  0  0  0  0
   -3.6021   -0.1324    1.2821 H   0  0  0  0  0  0  0  0  0  0  0  0
   -4.9962   -0.3479   -0.3866 C   0  0  0  0  0  0  0  0  0  0  0  0
   -5.4975    0.2583   -1.1704 H   0  0  0  0  0  0  0  0  0  0  0  0
   -5.7856   -0.8358    0.2165 H   0  0  0  0  0  0  0  0  0  0  0  0
   -4.3950   -1.1383   -0.8789 H   0  0  0  0  0  0  0  0  0  0  0  0
  1  7  1  0  0  0  0
  2 16  1  0  0  0  0
  3 24  1  0  0  0  0
  3 21  1  0  0  0  0
  4  3  1  0  0  0  0
  5  3  1  0  0  0  0
  6 14  1  0  0  0  0
  7  8  1  0  0  0  0
  7  6  2  0  0  0  0
  8 10  2  0  0  0  0
  9  8  1  0  0  0  0
 10 11  1  0  0  0  0
 10 12  1  0  0  0  0
 12 13  1  0  0  0  0
 14 12  2  0  0  0  0
 14 15  1  0  0  0  0
 16  6  1  0  0  0  0
 17 16  1  0  0  0  0
 18  2  1  0  0  0  0
 18 20  1  0  0  0  0
 18 21  1  0  0  0  0
 19 18  1  0  0  0  0
 21 23  1  0  0  0  0
 21 22  1  0  0  0  0
 24 25  1  0  0  0  0
 24 26  1  0  0  0  0
 27 29  1  0  0  0  0
 27 24  1  0  0  0  0
 28 27  1  0  0  0  0
 30 27  1  0  0  0  0
M  CHG  2   1  -1   3   1
M  END
