3,4
q = -1.0, confidence = 0.0

 37 39  0  0  1  0  0  0  0  0999 V2000
   -3.1026   -3.9928    0.8289 Cl  0  0  0  0  0  0  0  0  0  0  0  0
   -6.7501   -0.5919   -1.3235 Cl  0  0  0  0  0  0  0  0  0  0  0  0
   -1.1521   -2.0819   -0.1740 O   0  5  0  0  0  0  0  0  0  0  0  0
   -0.4118    0.1352   -1.9006 N   0  0  0  0  0  2  0  0  0  0  0  0
   -2.3480   -1.7546   -0.5290 C   0  0  0  0  0  0  0  0  0  0  0  0
   -3.4631   -2.5652   -0.0964 C   0  0  0  0  0  0  0  0  0  0  0  0
   -4.7861   -2.2255   -0.3491 C   0  0  0  0  0  0  0  0  0  0  0  0
   -5.5970   -2.8542    0.0424 H   0  0  0  0  0  0  0  0  0  0  0  0
   -5.0805   -1.0605   -1.0940 C   0  0  0  0  0  0  0  0  0  0  0  0
   -4.0557   -0.2904   -1.6204 C   0  0  0  0  0  0  0  0  0  0  0  0
   -4.2930    0.5948   -2.2280 H   0  0  0  0  0  0  0  0  0  0  0  0
   -2.6938   -0.6200   -1.3693 C   0  0  0  0  0  0  0  0  0  0  0  0
   -1.7069    0.1688   -2.0638 C   0  0  0  0  0  3  0  0  0  0  0  0
   -2.1116    0.8506   -2.8463 H   0  0  0  0  0  0  0  0  0  0  0  0
    0.4752    0.8495   -2.8354 C   0  0  2  0  0  0  0  0  0  0  0  0
   -0.1384    1.5641   -3.4317 H   0  0  0  0  0  0  0  0  0  0  0  0
    1.0774   -0.1779   -3.8023 C   0  0  0  0  0  0  0  0  0  0  0  0
    1.6082   -0.9801   -3.2513 H   0  0  0  0  0  0  0  0  0  0  0  0
    1.7874    0.3078   -4.5001 H   0  0  0  0  0  0  0  0  0  0  0  0
    0.2688   -0.6504   -4.3927 H   0  0  0  0  0  0  0  0  0  0  0  0
    1.5053    1.6382   -2.0295 C   0  0  0  0  0  0  0  0  0  0  0  0
    2.8106    1.1759   -1.8881 C   0  0  0  0  0  0  0  0  0  0  0  0
    3.1262    0.2614   -2.4068 H   0  0  0  0  0  0  0  0  0  0  0  0
    3.7509    1.8373   -1.0571 C   0  0  0  0  0  0  0  0  0  0  0  0
    4.7647    1.4225   -0.9563 H   0  0  0  0  0  0  0  0  0  0  0  0
    3.3841    2.9748   -0.3599 C   0  0  0  0  0  0  0  0  0  0  0  0
    4.1021    3.4864    0.2998 H   0  0  0  0  0  0  0  0  0  0  0  0
    2.0697    3.5111   -0.4924 C   0  0  0  0  0  0  0  0  0  0  0  0
    1.6818    4.6954    0.2014 C   0  0  0  0  0  0  0  0  0  0  0  0
    2.4213    5.1860    0.8536 H   0  0  0  0  0  0  0  0  0  0  0  0
    0.4110    5.2302    0.0548 C   0  0  0  0  0  0  0  0  0  0  0  0
    0.1286    6.1475    0.5927 H   0  0  0  0  0  0  0  0  0  0  0  0
   -0.5239    4.5956   -0.8031 C   0  0  0  0  0  0  0  0  0  0  0  0
   -1.5285    5.0264   -0.9315 H   0  0  0  0  0  0  0  0  0  0  0  0
   -0.1839    3.4303   -1.4781 C   0  0  0  0  0  0  0  0  0  0  0  0
   -0.9343    2.9548   -2.1232 H   0  0  0  0  0  0  0  0  0  0  0  0
    1.1122    2.8456   -1.3482 C   0  0  0  0  0  0  0  0  0  0  0  0
  2  9  1  0  0  0  0
  5  3  1  0  0  0  0
  5  6  1  0  0  0  0
  6  1  1  0  0  0  0
  7  6  2  0  0  0  0
  7  8  1  0  0  0  0
  9  7  1  0  0  0  0
 10 12  1  0  0  0  0
 10  9  2  0  0  0  0
 11 10  1  0  0  0  0
 12  5  2  0  0  0  0
 13  4  1  0  0  0  0
 13 12  1  0  0  0  0
 14 13  1  0  0  0  0
 15 16  1  6  0  0  0
 15 21  1  0  0  0  0
 15  4  1  0  0  0  0
 17 18  1  0  0  0  0
 17 15  1  0  0  0  0
 19 17  1  0  0  0  0
 20 17  1  0  0  0  0
 21 22  2  0  0  0  0
 21 37  1  0  0  0  0
 22 24  1  0  0  0  0
 23 22  1  0  0  0  0
 24 25  1  0  0  0  0
 24 26  2  0  0  0  0
 26 27  1  0  0  0  0
 28 26  1  0  0  0  0
 28 29  1  0  0  0  0
 29 30  1  0  0  0  0
 31 29  2  0  0  0  0
 31 32  1  0  0  0  0
 33 31  1  0  0  0  0
 34 33  1  0  0  0  0
 35 37  1  0  0  0  0
 35 33  2  0  0  0  0
 36 35  1  0  0  0  0
 37 28  2  0  0  0  0
M  CHG  1   3  -1
M  END
