37,38
q = -1.0, confidence = 0.0

 38 40  0  0  1  0  0  0  0  0999 V2000
    2.2631    1.9826    0.1837 C   0  0  0  0  0  0  0  0  0  0  0  0
    2.5643    2.0830   -1.1890 C   0  0  0  0  0  0  0  0  0  0  0  0
    1.7874    1.8459   -1.9260 H   0  0  0  0  0  0  0  0  0  0  0  0
    3.8388    2.4988   -1.5978 C   0  0  0  0  0  0  0  0  0  0  0  0
    4.0667    2.5649   -2.6724 H   0  0  0  0  0  0  0  0  0  0  0  0
    4.8140    2.8334   -0.6466 C   0  0  0  0  0  0  0  0  0  0  0  0
    5.8127    3.1630   -0.9698 H   0  0  0  0  0  0  0  0  0  0  0  0
    4.5050    2.7499    0.7206 C   0  0  0  0  0  0  0  0  0  0  0  0
    5.2597    3.0181    1.4752 H   0  0  0  0  0  0  0  0  0  0  0  0
    3.2415    2.3149    1.1399 C   0  0  0  0  0  0  0  0  0  0  0  0
    2.9956    2.2184    2.2058 H   0  0  0  0  0  0  0  0  0  0  0  0
   -0.0597    2.2770    0.7178 C   0  0  1  0  0  3  0  0  0  0  0  0
    0.0970    3.7954    0.4619 C   0  0  0  0  0  0  0  0  0  0  0  0
   -1.3821    1.8571    1.0221 C   0  0  0  0  0  0  0  0  0  0  0  0
   -2.1638    2.6208    1.0393 H   0  0  0  0  0  0  0  0  0  0  0  0
   -1.7317    0.5225    1.2352 C   0  0  0  0  0  0  0  0  0  0  0  0
   -3.1310    0.0433    1.2998 C   0  0  0  0  0  0  0  0  0  0  0  0
   -4.2086    0.8347    0.8967 C   0  0  0  0  0  0  0  0  0  0  0  0
   -4.0491    1.8722    0.5670 H   0  0  0  0  0  0  0  0  0  0  0  0
   -5.5253    0.3082    0.8285 C   0  0  0  0  0  0  0  0  0  0  0  0
   -6.6287    1.0925    0.3773 C   0  0  0  0  0  0  0  0  0  0  0  0
   -6.4506    2.1405    0.0900 H   0  0  0  0  0  0  0  0  0  0  0  0
   -7.8996    0.5458    0.2987 C   0  0  0  0  0  0  0  0  0  0  0  0
   -8.7435    1.1592   -0.0508 H   0  0  0  0  0  0  0  0  0  0  0  0
   -8.1197   -0.8102    0.6659 C   0  0  0  0  0  0  0  0  0  0  0  0
   -9.1334   -1.2335    0.5986 H   0  0  0  0  0  0  0  0  0  0  0  0
   -7.0664   -1.6005    1.1035 C   0  0  0  0  0  0  0  0  0  0  0  0
   -7.2349   -2.6519    1.3833 H   0  0  0  0  0  0  0  0  0  0  0  0
   -5.7479   -1.0710    1.1939 C   0  0  0  0  0  0  0  0  0  0  0  0
   -4.6339   -1.8553    1.6186 C   0  0  0  0  0  0  0  0  0  0  0  0
   -4.8014   -2.9084    1.8916 H   0  0  0  0  0  0  0  0  0  0  0  0
   -3.3606   -1.3208    1.6668 C   0  0  0  0  0  0  0  0  0  0  0  0
   -2.4953   -1.9333    1.9583 H   0  0  0  0  0  0  0  0  0  0  0  0
    0.4122    4.0457   -0.8278 F   0  0  0  0  0  0  0  0  0  0  0  0
    1.0544    4.3318    1.2445 F   0  0  0  0  0  0  0  0  0  0  0  0
   -1.0482    4.4687    0.7234 F   0  0  0  0  0  0  0  0  0  0  0  0
    0.9893    1.4789    0.6003 N   0  0  0  0  0  2  0  0  0  0  0  0
   -0.8262   -0.4036    1.3279 O   0  5  0  0  0  0  0  0  0  0  0  0
  1 37  1  0  0  0  0
  1 10  1  0  0  0  0
  2  1  2  0  0  0  0
  3  2  1  0  0  0  0
  4  2  1  0  0  0  0
  4  6  2  0  0  0  0
  5  4  1  0  0  0  0
  6  8  1  0  0  0  0
  7  6  1  0  0  0  0
  8 10  2  0  0  0  0
  8  9  1  0  0  0  0
 10 11  1  0  0  0  0
 12 37  1  6  0  0  0
 12 14  1  0  0  0  0
 13 12  1  0  0  0  0
 13 36  1  0  0  0  0
 13 35  1  0  0  0  0
 14 15  1  0  0  0  0
 14 16  2  0  0  0  0
 16 17  1  0  0  0  0
 16 38  1  0  0  0  0
 17 32  1  0  0  0  0
 18 17  2  0  0  0  0
 19 18  1  0  0  0  0
 20 18  1  0  0  0  0
 20 29  1  0  0  0  0
 21 20  2  0  0  0  0
 22 21  1  0  0  0  0
 23 21  1  0  0  0  0
 23 25  2  0  0  0  0
 24 23  1  0  0  0  0
 25 27  1  0  0  0  0
 26 25  1  0  0  0  0
 27 29  2  0  0  0  0
 27 28  1  0  0  0  0
 29 30  1  0  0  0  0
 30 32  2  0  0  0  0
 30 31  1  0  0  0  0
 32 33  1  0  0  0  0
 34 13  1  0  0  0  0
M  CHG  1  38  -1
M  END
