3,17
q = -1.0, confidence = 0.012

 17 18  0  0  1  0  0  0  0  0999 V2000
   -2.7647   -0.8026    0.2193 C   0  0  1  0  0  3  0  0  0  0  0  0
   -3.7566   -1.4043   -0.5929 N   0  0  0  0  0  0  0  0  0  0  0  0
    0.3781   -0.8110   -2.3066 O   0  5  0  0  0  0  0  0  0  0  0  0
   -0.9451   -1.8430   -3.8423 O   0  0  0  0  0  0  0  0  0  0  0  0
   -0.7325   -1.3488   -2.7353 C   0  0  0  0  0  0  0  0  0  0  0  0
   -1.8496   -1.3031   -1.7148 C   0  0  0  0  0  0  0  0  0  0  0  0
   -3.1713   -1.7160   -1.8074 C   0  0  0  0  0  0  0  0  0  0  0  0
   -3.7132   -2.1892   -2.6307 H   0  0  0  0  0  0  0  0  0  0  0  0
   -4.3919   -0.5719    1.9822 C   0  0  0  0  0  0  0  0  0  0  0  0
   -4.6695   -0.2510    2.9962 H   0  0  0  0  0  0  0  0  0  0  0  0
   -5.0426   -1.5884   -0.1347 C   0  0  0  0  0  0  0  0  0  0  0  0
   -5.7451   -2.0621   -0.8336 H   0  0  0  0  0  0  0  0  0  0  0  0
   -5.3704   -1.1795    1.1400 C   0  0  0  0  0  0  0  0  0  0  0  0
   -6.3991   -1.3305    1.4947 H   0  0  0  0  0  0  0  0  0  0  0  0
   -3.0951   -0.3829    1.5289 C   0  0  0  0  0  0  0  0  0  0  0  0
   -2.3093    0.0800    2.1412 H   0  0  0  0  0  0  0  0  0  0  0  0
   -1.6158   -0.7532   -0.4768 N   0  0  0  0  0  2  0  0  0  0  0  0
  1 17  1  1  0  0  0
  1 15  1  0  0  0  0
  2 11  1  0  0  0  0
  2  1  1  0  0  0  0
  4  5  2  0  0  0  0
  5  3  1  0  0  0  0
  5  6  1  0  0  0  0
  6 17  1  0  0  0  0
  7  6  2  0  0  0  0
  7  2  1  0  0  0  0
  8  7  1  0  0  0  0
  9 10  1  0  0  0  0
 11 13  2  0  0  0  0
 12 11  1  0  0  0  0
 13 14  1  0  0  0  0
 13  9  1  0  0  0  0
 15  9  2  0  0  0  0
 15 16  1  0  0  0  0
M  CHG  1   3  -1
M  END
