3,4
q = -1.0, confidence = 0.0

 14 15  0  0  1  0  0  0  0  0999 V2000
    3.2691   -0.5927    1.6783 S   0  0  0  0  0  0  0  0  0  0  0  0
    2.6486   -0.9978    0.1014 C   0  0  1  0  0  3  0  0  0  0  0  0
   -0.4918   -0.7309   -2.3535 O   0  5  0  0  0  0  0  0  0  0  0  0
    1.5074   -0.8607   -0.5566 N   0  0  0  0  0  2  0  0  0  0  0  0
    0.5692   -1.3405   -2.8166 C   0  0  0  0  0  0  0  0  0  0  0  0
    0.7224   -1.8186   -3.9398 O   0  0  0  0  0  0  0  0  0  0  0  0
    3.5965   -1.6317   -0.6916 N   0  0  0  0  0  0  0  0  0  0  0  0
    4.8121   -1.3071    1.2159 C   0  0  0  0  0  0  0  0  0  0  0  0
    5.6436   -1.3133    1.9293 H   0  0  0  0  0  0  0  0  0  0  0  0
    1.7056   -1.4067   -1.8179 C   0  0  0  0  0  0  0  0  0  0  0  0
    4.8230   -1.8066   -0.0562 C   0  0  0  0  0  0  0  0  0  0  0  0
    5.6550   -2.2939   -0.5768 H   0  0  0  0  0  0  0  0  0  0  0  0
    3.0002   -1.8962   -1.9206 C   0  0  0  0  0  0  0  0  0  0  0  0
    3.5143   -2.3857   -2.7516 H   0  0  0  0  0  0  0  0  0  0  0  0
  2  4  1  6  0  0  0
  2  1  1  0  0  0  0
  5  3  1  0  0  0  0
  5 10  1  0  0  0  0
  6  5  2  0  0  0  0
  7 11  1  0  0  0  0
  7  2  1  0  0  0  0
  8  1  1  0  0  0  0
  8  9  1  0  0  0  0
 10  4  1  0  0  0  0
 11  8  2  0  0  0  0
 12 11  1  0  0  0  0
 13 10  2  0  0  0  0
 13  7  1  0  0  0  0
 14 13  1  0  0  0  0
M  CHG  1   3  -1
M  END
