2,3
q = -1.0, confidence = 0.006

 27 29  0  0  1  0  0  0  0  0999 V2000
   -5.6144   -1.7900   -0.6395 O   0  0  0  0  0  0  0  0  0  0  0  0
   -0.7400    0.3867    0.4965 O   0  0  0  0  0  1  0  0  0  0  0  0
    0.4766   -1.6249   -1.0551 N   0  0  0  0  0  2  0  0  0  0  0  0
    1.1597   -2.2807   -1.4546 H   0  0  0  0  0  0  0  0  0  0  0  0
   -6.7595    0.0744    0.7683 N   0  0  0  0  0  0  0  0  0  0  0  0
   -7.5794    0.5310    1.1619 H   0  0  0  0  0  0  0  0  0  0  0  0
   -6.8081   -0.7710    0.1736 H   0  0  0  0  0  0  0  0  0  0  0  0
   -5.5223    0.5564    1.0149 C   0  0  0  0  0  0  0  0  0  0  0  0
   -5.3337    1.7157    1.8247 C   0  0  0  0  0  0  0  0  0  0  0  0
   -6.2186    2.2135    2.2503 H   0  0  0  0  0  0  0  0  0  0  0  0
   -4.0590    2.2110    2.0738 C   0  0  0  0  0  0  0  0  0  0  0  0
   -3.9438    3.1076    2.7019 H   0  0  0  0  0  0  0  0  0  0  0  0
   -2.9182    1.5858    1.5362 C   0  0  0  0  0  0  0  0  0  0  0  0
   -1.9120    1.9789    1.7289 H   0  0  0  0  0  0  0  0  0  0  0  0
   -3.0633    0.4397    0.7367 C   0  0  0  0  0  0  0  0  0  0  0  0
   -1.8479   -0.1961    0.1790 C   0  0  2  0  0  3  0  0  0  0  0  0
   -1.9483   -1.3749   -0.6328 C   0  0  0  0  0  0  0  0  0  0  0  0
   -0.7898   -2.0639   -1.1878 C   0  0  0  0  0  0  0  0  0  0  0  0
   -1.0215   -3.2730   -1.9325 C   0  0  0  0  0  0  0  0  0  0  0  0
   -0.1422   -3.7999   -2.3370 H   0  0  0  0  0  0  0  0  0  0  0  0
   -2.2922   -3.7672   -2.1520 C   0  0  0  0  0  0  0  0  0  0  0  0
   -2.4258   -4.6935   -2.7311 H   0  0  0  0  0  0  0  0  0  0  0  0
   -3.4205   -3.0873   -1.6354 C   0  0  0  0  0  0  0  0  0  0  0  0
   -4.4442   -3.4533   -1.7946 H   0  0  0  0  0  0  0  0  0  0  0  0
   -3.2563   -1.9246   -0.8904 C   0  0  0  0  0  0  0  0  0  0  0  0
   -4.5023   -1.2861   -0.3645 C   0  0  0  0  0  0  0  0  0  0  0  0
   -4.3582   -0.0926    0.4643 C   0  0  0  0  0  0  0  0  0  0  0  0
  1 26  2  0  0  0  0
  4  3  1  0  0  0  0
  5  8  1  0  0  0  0
  5  6  1  0  0  0  0
  7  5  1  0  0  0  0
  8  9  1  0  0  0  0
  9 11  2  0  0  0  0
  9 10  1  0  0  0  0
 11 12  1  0  0  0  0
 13 14  1  0  0  0  0
 13 11  1  0  0  0  0
 15 13  2  0  0  0  0
 16  2  1  1  0  0  0
 16 15  1  0  0  0  0
 17 16  1  0  0  0  0
 18  3  1  0  0  0  0
 18 17  2  0  0  0  0
 19 18  1  0  0  0  0
 20 19  1  0  0  0  0
 21 19  2  0  0  0  0
 21 23  1  0  0  0  0
 22 21  1  0  0  0  0
 23 25  2  0  0  0  0
 24 23  1  0  0  0  0
 25 17  1  0  0  0  0
 25 26  1  0  0  0  0
 26 27  1  0  0  0  0
 27 15  1  0  0  0  0
 27  8  2  0  0  0  0
M  END
