1,3
q = -1.0, confidence = 0.0

 28 29  0  0  1  0  0  0  0  0999 V2000
    0.0832    2.0102   -0.0137 O   0  5  0  0  0  0  0  0  0  0  0  0
    4.2271    2.9750    2.2003 O   0  0  0  0  0  0  0  0  0  0  0  0
    2.0279   -0.0469   -0.1798 N   0  0  0  0  0  2  0  0  0  0  0  0
    2.8225    0.8449    0.4156 C   0  0  1  0  0  3  0  0  0  0  0  0
    4.2904    0.3739    0.3768 C   0  0  0  0  0  0  0  0  0  0  0  0
    4.1627   -0.8754   -0.4702 C   0  0  0  0  0  0  0  0  0  0  0  0
    5.1339   -1.7556   -0.9495 C   0  0  0  0  0  0  0  0  0  0  0  0
    6.1988   -1.6042   -0.7143 H   0  0  0  0  0  0  0  0  0  0  0  0
    4.7263   -2.8342   -1.7573 C   0  0  0  0  0  0  0  0  0  0  0  0
    5.4767   -3.5357   -2.1515 H   0  0  0  0  0  0  0  0  0  0  0  0
    3.3682   -3.0123   -2.0774 C   0  0  0  0  0  0  0  0  0  0  0  0
    3.0677   -3.8508   -2.7236 H   0  0  0  0  0  0  0  0  0  0  0  0
    2.3834   -2.1357   -1.5918 C   0  0  0  0  0  0  0  0  0  0  0  0
    1.3253   -2.2749   -1.8410 H   0  0  0  0  0  0  0  0  0  0  0  0
    2.8034   -1.0788   -0.7716 C   0  0  0  0  0  0  0  0  0  0  0  0
    2.3369    2.1078    0.9246 C   0  0  0  0  0  0  0  0  0  0  0  0
    1.0525    2.5866    0.5807 C   0  0  0  0  0  0  0  0  0  0  0  0
    0.8413    3.6466    0.8551 H   0  0  0  0  0  0  0  0  0  0  0  0
    3.1014    3.0758    1.7223 C   0  0  0  0  0  0  0  0  0  0  0  0
    2.5088    4.0250    1.9014 H   0  0  0  0  0  0  0  0  0  0  0  0
    5.2322    1.3997   -0.2870 C   0  0  0  0  0  0  0  0  0  0  0  0
    6.2368    0.9469   -0.4058 H   0  0  0  0  0  0  0  0  0  0  0  0
    5.3315    2.3028    0.3406 H   0  0  0  0  0  0  0  0  0  0  0  0
    4.8647    1.6822   -1.2931 H   0  0  0  0  0  0  0  0  0  0  0  0
    4.7729   -0.0104    1.7997 C   0  0  0  0  0  0  0  0  0  0  0  0
    4.0902   -0.7523    2.2590 H   0  0  0  0  0  0  0  0  0  0  0  0
    4.8340    0.8901    2.4359 H   0  0  0  0  0  0  0  0  0  0  0  0
    5.7779   -0.4718    1.7225 H   0  0  0  0  0  0  0  0  0  0  0  0
  1 17  1  0  0  0  0
  3  4  1  0  0  0  0
  4 16  1  6  0  0  0
  5  4  1  0  0  0  0
  5 25  1  0  0  0  0
  6  5  1  0  0  0  0
  7  8  1  0  0  0  0
  7  6  2  0  0  0  0
  9  7  1  0  0  0  0
 10  9  1  0  0  0  0
 11  9  2  0  0  0  0
 11 13  1  0  0  0  0
 12 11  1  0  0  0  0
 13 15  2  0  0  0  0
 14 13  1  0  0  0  0
 15  6  1  0  0  0  0
 15  3  1  0  0  0  0
 16 19  1  0  0  0  0
 17 18  1  0  0  0  0
 17 16  2  0  0  0  0
 19 20  1  0  0  0  0
 19  2  2  0  0  0  0
 21 23  1  0  0  0  0
 21  5  1  0  0  0  0
 22 21  1  0  0  0  0
 24 21  1  0  0  0  0
 25 26  1  0  0  0  0
 25 27  1  0  0  0  0
 28 25  1  0  0  0  0
M  CHG  1   1  -1
M  END
