2,3
q = -1.0, confidence = 0.012

 37 38  0  0  0  0  0  0  0  0999 V2000
    2.1929    3.1345    0.3061 S   0  0  0  0  0  0  0  0  0  0  0  0
    0.0506    1.8318   -0.5299 N   0  0  0  0  0  2  0  0  0  0  0  0
   -1.5675    0.2160    0.9377 O   0  5  0  0  0  0  0  0  0  0  0  0
   -3.9180   -0.3843    1.7788 O   0  0  0  0  0  0  0  0  0  0  0  0
    3.4960    3.4212   -0.3224 O   0  0  0  0  0  0  0  0  0  0  0  0
    1.2563    2.3667   -0.9868 N   0  0  0  0  0  0  0  0  0  0  0  0
    1.8345    1.5548   -1.3070 H   0  0  0  0  0  0  0  0  0  0  0  0
    1.3141    4.1812    0.8651 O   0  0  0  0  0  0  0  0  0  0  0  0
    2.3592    1.8177    1.5020 C   0  0  0  0  0  0  0  0  0  0  0  0
   -3.7839    0.8769    1.2850 C   0  0  0  0  0  0  0  0  0  0  0  0
   -2.2070    2.4223    0.1821 C   0  0  0  0  0  0  0  0  0  0  0  0
   -0.9264    2.7096   -0.3851 C   0  0  0  0  0  0  0  0  0  0  0  0
   -0.7209    3.7345   -0.7373 H   0  0  0  0  0  0  0  0  0  0  0  0
   -2.4593    1.1576    0.7969 C   0  0  0  0  0  0  0  0  0  0  0  0
    3.4808    0.9794    1.4365 C   0  0  0  0  0  0  0  0  0  0  0  0
    4.3197    1.2513    0.7822 H   0  0  0  0  0  0  0  0  0  0  0  0
    2.3430   -1.8939    3.6981 C   0  0  0  0  0  0  0  0  0  0  0  0
    1.3780   -2.4136    3.5273 H   0  0  0  0  0  0  0  0  0  0  0  0
    2.4436   -1.7514    4.7949 H   0  0  0  0  0  0  0  0  0  0  0  0
    3.1597   -2.5626    3.3651 H   0  0  0  0  0  0  0  0  0  0  0  0
    1.2602    1.5070    2.3221 C   0  0  0  0  0  0  0  0  0  0  0  0
    0.4013    2.1899    2.3766 H   0  0  0  0  0  0  0  0  0  0  0  0
    2.3756   -0.5766    2.9694 C   0  0  0  0  0  0  0  0  0  0  0  0
    1.2797    0.3089    3.0465 C   0  0  0  0  0  0  0  0  0  0  0  0
    0.4035    0.0382    3.6556 H   0  0  0  0  0  0  0  0  0  0  0  0
    3.4846   -0.2071    2.1788 C   0  0  0  0  0  0  0  0  0  0  0  0
    4.3482   -0.8860    2.1069 H   0  0  0  0  0  0  0  0  0  0  0  0
   -3.2535    3.3910    0.1073 C   0  0  0  0  0  3  0  0  0  0  0  0
   -3.0385    4.3667   -0.3539 H   0  0  0  0  0  0  0  0  0  0  0  0
   -4.7903    1.8365    1.1841 C   0  0  0  0  0  0  0  0  0  0  0  0
   -5.8019    1.6171    1.5531 H   0  0  0  0  0  0  0  0  0  0  0  0
   -4.5176    3.1024    0.5987 C   0  0  0  0  0  0  0  0  0  0  0  0
   -5.3215    3.8499    0.5377 H   0  0  0  0  0  0  0  0  0  0  0  0
   -5.2108   -0.8495    2.1205 C   0  0  0  0  0  0  0  0  0  0  0  0
   -5.0980   -1.9240    2.3519 H   0  0  0  0  0  0  0  0  0  0  0  0
   -5.9213   -0.7373    1.2706 H   0  0  0  0  0  0  0  0  0  0  0  0
   -5.6223   -0.3114    3.0035 H   0  0  0  0  0  0  0  0  0  0  0  0
  1  8  2  0  0  0  0
  1  9  1  0  0  0  0
  2 12  1  0  0  0  0
  4 34  1  0  0  0  0
  5  1  2  0  0  0  0
  6  2  1  0  0  0  0
  6  1  1  0  0  0  0
  7  6  1  0  0  0  0
  9 21  1  0  0  0  0
 10  4  1  0  0  0  0
 11 14  1  0  0  0  0
 12 11  2  0  0  0  0
 13 12  1  0  0  0  0
 14  3  1  0  0  0  0
 14 10  2  0  0  0  0
 15  9  2  0  0  0  0
 15 26  1  0  0  0  0
 16 15  1  0  0  0  0
 17 19  1  0  0  0  0
 18 17  1  0  0  0  0
 20 17  1  0  0  0  0
 21 22  1  0  0  0  0
 21 24  2  0  0  0  0
 23 24  1  0  0  0  0
 23 17  1  0  0  0  0
 24 25  1  0  0  0  0
 26 23  2  0  0  0  0
 27 26  1  0  0  0  0
 28 11  1  0  0  0  0
 28 32  1  0  0  0  0
 29 28  1  0  0  0  0
 30 10  1  0  0  0  0
 30 31  1  0  0  0  0
 32 30  2  0  0  0  0
 33 32  1  0  0  0  0
 34 35  1  0  0  0  0
 34 37  1  0  0  0  0
 36 34  1  0  0  0  0
M  CHG  1   3  -1
M  END
