2,3
q = -1.0, confidence = 0.012

 37 38  0  0  1  0  0  0  0  0999 V2000
   -2.1902   -3.1359   -0.3056 S   0  0  0  0  0  0  0  0  0  0  0  0
   -0.0471   -1.8320    0.5272 N   0  0  0  0  0  2  0  0  0  0  0  0
    1.5702   -0.2165   -0.9419 O   0  0  0  0  0  1  0  0  0  0  0  0
    3.9217    0.3857   -1.7792 O   0  0  0  0  0  0  0  0  0  0  0  0
   -1.2522   -2.3667    0.9856 N   0  0  0  0  0  0  0  0  0  0  0  0
   -1.8303   -1.5546    1.3057 H   0  0  0  0  0  0  0  0  0  0  0  0
   -1.3105   -4.1806   -0.8668 O   0  0  0  0  0  0  0  0  0  0  0  0
    0.9299   -2.7097    0.3821 C   0  0  0  0  0  0  0  0  0  0  0  0
    0.7247   -3.7345    0.7348 H   0  0  0  0  0  0  0  0  0  0  0  0
    2.2105   -2.4223   -0.1851 C   0  0  0  0  0  0  0  0  0  0  0  0
   -3.4913   -3.4253    0.3258 O   0  0  0  0  0  0  0  0  0  0  0  0
    2.4626   -1.1575   -0.7999 C   0  0  2  0  0  3  0  0  0  0  0  0
    3.2572   -3.3905   -0.1096 C   0  0  0  0  0  0  0  0  0  0  0  0
    3.0423   -4.3663    0.3514 H   0  0  0  0  0  0  0  0  0  0  0  0
    3.7876   -0.8759   -1.2862 C   0  0  0  0  0  0  0  0  0  0  0  0
   -1.2884   -0.3041   -3.0432 C   0  0  0  0  0  0  0  0  0  0  0  0
   -0.4133   -0.0294   -3.6521 H   0  0  0  0  0  0  0  0  0  0  0  0
   -2.3620   -1.8188   -1.5003 C   0  0  0  0  0  0  0  0  0  0  0  0
    4.5216   -3.1012   -0.5999 C   0  0  0  0  0  0  0  0  0  0  0  0
    5.3259   -3.8483   -0.5383 H   0  0  0  0  0  0  0  0  0  0  0  0
    4.7943   -1.8350   -1.1846 C   0  0  0  0  0  0  0  0  0  0  0  0
    5.8062   -1.6149   -1.5523 H   0  0  0  0  0  0  0  0  0  0  0  0
   -2.3611    1.8948   -3.6933 C   0  0  0  0  0  0  0  0  0  0  0  0
   -3.1708    2.5658   -3.3480 H   0  0  0  0  0  0  0  0  0  0  0  0
   -2.4789    1.7532   -4.7886 H   0  0  0  0  0  0  0  0  0  0  0  0
   -1.3921    2.4113   -3.5367 H   0  0  0  0  0  0  0  0  0  0  0  0
   -2.3876    0.5771   -2.9651 C   0  0  0  0  0  0  0  0  0  0  0  0
   -3.4867   -0.9845   -1.4335 C   0  0  0  0  0  0  0  0  0  0  0  0
   -4.3242   -1.2603   -0.7792 H   0  0  0  0  0  0  0  0  0  0  0  0
    5.2147    0.8520   -2.1184 C   0  0  0  0  0  0  0  0  0  0  0  0
    5.1017    1.9267   -2.3486 H   0  0  0  0  0  0  0  0  0  0  0  0
    5.6279    0.3151   -3.0014 H   0  0  0  0  0  0  0  0  0  0  0  0
    5.9240    0.7391   -1.2676 H   0  0  0  0  0  0  0  0  0  0  0  0
   -1.2643   -1.5031   -2.3203 C   0  0  0  0  0  0  0  0  0  0  0  0
   -0.4030   -2.1828   -2.3763 H   0  0  0  0  0  0  0  0  0  0  0  0
   -3.4952    0.2025   -2.1747 C   0  0  0  0  0  0  0  0  0  0  0  0
   -4.3612    0.8782   -2.1017 H   0  0  0  0  0  0  0  0  0  0  0  0
  1 11  2  0  0  0  0
  1  5  1  0  0  0  0
  2  5  1  0  0  0  0
  4 15  1  0  0  0  0
  5  6  1  0  0  0  0
  7  1  2  0  0  0  0
  8  2  1  0  0  0  0
  8  9  1  0  0  0  0
 10 13  1  0  0  0  0
 10  8  2  0  0  0  0
 12  3  1  1  0  0  0
 12 10  1  0  0  0  0
 13 14  1  0  0  0  0
 15 21  2  0  0  0  0
 15 12  1  0  0  0  0
 16 27  2  0  0  0  0
 16 34  1  0  0  0  0
 17 16  1  0  0  0  0
 18 28  1  0  0  0  0
 18  1  1  0  0  0  0
 19 20  1  0  0  0  0
 19 13  2  0  0  0  0
 21 19  1  0  0  0  0
 22 21  1  0  0  0  0
 23 26  1  0  0  0  0
 23 24  1  0  0  0  0
 23 27  1  0  0  0  0
 25 23  1  0  0  0  0
 27 36  1  0  0  0  0
 28 29  1  0  0  0  0
 30  4  1  0  0  0  0
 30 33  1  0  0  0  0
 31 30  1  0  0  0  0
 32 30  1  0  0  0  0
 34 18  2  0  0  0  0
 35 34  1  0  0  0  0
 36 37  1  0  0  0  0
 36 28  2  0  0  0  0
M  END
