1,2
q = -1.0, confidence = 0.026

 32 32  0  0  0  0  0  0  0  0999 V2000
    1.7731   -0.4928    0.5481 O   0  5  0  0  0  0  0  0  0  0  0  0
    0.5313    1.8466   -0.1801 N   0  0  0  0  0  2  0  0  0  0  0  0
   -0.7248    1.0855    2.4727 N   0  0  0  0  0  0  0  0  0  0  0  0
    4.1323   -2.3692    1.0439 Br  0  0  0  0  0  0  0  0  0  0  0  0
    2.9660    1.4787   -0.1658 C   0  0  0  0  0  0  0  0  0  0  0  0
    2.8865    0.1102    0.2767 C   0  0  0  0  0  0  0  0  0  0  0  0
    4.1455   -0.5657    0.4358 C   0  0  0  0  0  0  0  0  0  0  0  0
    5.3675    0.0428    0.1606 C   0  0  0  0  0  0  0  0  0  0  0  0
    6.3042   -0.5160    0.2882 H   0  0  0  0  0  0  0  0  0  0  0  0
    5.3988    1.3835   -0.2843 C   0  0  0  0  0  0  0  0  0  0  0  0
    4.2140    2.0955   -0.4369 C   0  0  0  0  0  3  0  0  0  0  0  0
    4.2420    3.1439   -0.7678 H   0  0  0  0  0  0  0  0  0  0  0  0
    1.7686    2.2650   -0.2715 C   0  0  0  0  0  0  0  0  0  0  0  0
    1.9245    3.3535   -0.4195 H   0  0  0  0  0  0  0  0  0  0  0  0
   -0.4886    2.9022   -0.1134 C   0  0  0  0  0  0  0  0  0  0  0  0
   -1.4048    2.5322   -0.6042 H   0  0  0  0  0  0  0  0  0  0  0  0
   -0.1200    3.7857   -0.6792 H   0  0  0  0  0  0  0  0  0  0  0  0
   -0.8001    3.3400    1.3265 C   0  0  0  0  0  0  0  0  0  0  0  0
   -1.4845    4.2119    1.2595 H   0  0  0  0  0  0  0  0  0  0  0  0
    0.1288    3.7223    1.8038 H   0  0  0  0  0  0  0  0  0  0  0  0
   -1.4846    2.3054    2.2238 C   0  0  0  0  0  0  0  0  0  0  0  0
   -1.7602    2.8126    3.1901 H   0  0  0  0  0  0  0  0  0  0  0  0
   -2.4417    2.0075    1.7470 H   0  0  0  0  0  0  0  0  0  0  0  0
    0.5445    1.2910    3.1456 C   0  0  0  0  0  0  0  0  0  0  0  0
    0.4297    1.7159    4.1784 H   0  0  0  0  0  0  0  0  0  0  0  0
    1.1945    1.9729    2.5643 H   0  0  0  0  0  0  0  0  0  0  0  0
    1.0804    0.3242    3.2221 H   0  0  0  0  0  0  0  0  0  0  0  0
   -1.5289    0.0788    3.1418 C   0  0  0  0  0  0  0  0  0  0  0  0
   -0.9675   -0.8759    3.1969 H   0  0  0  0  0  0  0  0  0  0  0  0
   -2.4607   -0.1054    2.5716 H   0  0  0  0  0  0  0  0  0  0  0  0
   -1.8171    0.3708    4.1872 H   0  0  0  0  0  0  0  0  0  0  0  0
    6.9379    2.1345   -0.6303 Cl  0  0  0  0  0  0  0  0  0  0  0  0
  2 15  1  0  0  0  0
  3 28  1  0  0  0  0
  3 24  1  0  0  0  0
  5  6  1  0  0  0  0
  6  7  2  0  0  0  0
  6  1  1  0  0  0  0
  7  4  1  0  0  0  0
  8  9  1  0  0  0  0
  8  7  1  0  0  0  0
 10  8  2  0  0  0  0
 11 10  1  0  0  0  0
 11  5  1  0  0  0  0
 12 11  1  0  0  0  0
 13  2  1  0  0  0  0
 13  5  2  0  0  0  0
 14 13  1  0  0  0  0
 15 18  1  0  0  0  0
 16 15  1  0  0  0  0
 17 15  1  0  0  0  0
 18 20  1  0  0  0  0
 18 21  1  0  0  0  0
 19 18  1  0  0  0  0
 21  3  1  0  0  0  0
 21 22  1  0  0  0  0
 23 21  1  0  0  0  0
 24 27  1  0  0  0  0
 24 25  1  0  0  0  0
 26 24  1  0  0  0  0
 28 29  1  0  0  0  0
 28 31  1  0  0  0  0
 30 28  1  0  0  0  0
 32 10  1  0  0  0  0
M  CHG  1   1  -1
M  END
