1,2
q = -1.0, confidence = 0.008

 29 30  0  0  0  0  0  0  0  0999 V2000
    0.4194    1.5099   -0.3882 O   0  5  0  0  0  0  0  0  0  0  0  0
    2.6332    0.0557    0.0812 N   0  0  0  0  0  2  0  0  0  0  0  0
    0.5475    3.8764   -0.5280 C   0  0  0  0  0  0  0  0  0  0  0  0
   -0.5375    3.9177   -0.7003 H   0  0  0  0  0  0  0  0  0  0  0  0
    1.3344    5.0267   -0.4868 C   0  0  0  0  0  0  0  0  0  0  0  0
    0.8615    6.0113   -0.6252 H   0  0  0  0  0  0  0  0  0  0  0  0
    1.1433    2.6047   -0.3377 C   0  0  0  0  0  0  0  0  0  0  0  0
    2.5577    2.5095   -0.1203 C   0  0  0  0  0  0  0  0  0  0  0  0
    3.5073   -1.1473    0.1035 C   0  0  0  0  0  0  0  0  0  0  0  0
    2.8273   -2.0154    0.2100 H   0  0  0  0  0  0  0  0  0  0  0  0
    2.7306    4.9460   -0.2719 C   0  0  0  0  0  0  0  0  0  0  0  0
    3.3389    5.8616   -0.2435 H   0  0  0  0  0  0  0  0  0  0  0  0
    3.3302    3.7009   -0.1019 C   0  0  0  0  0  0  0  0  0  0  0  0
    4.4179    3.6241    0.0569 H   0  0  0  0  0  0  0  0  0  0  0  0
    3.2090    1.2345    0.0013 C   0  0  0  0  0  3  0  0  0  0  0  0
    4.3147    1.2567   -0.0063 H   0  0  0  0  0  0  0  0  0  0  0  0
    6.0229   -2.5455    0.0135 O   0  0  0  0  0  0  0  0  0  0  0  0
    4.4655   -1.1675    1.3026 C   0  0  0  0  0  0  0  0  0  0  0  0
    3.8907   -1.1196    2.2504 H   0  0  0  0  0  0  0  0  0  0  0  0
    5.1421   -0.2878    1.2721 H   0  0  0  0  0  0  0  0  0  0  0  0
    4.2772   -1.3399   -1.2104 C   0  0  0  0  0  0  0  0  0  0  0  0
    3.5578   -1.4241   -2.0505 H   0  0  0  0  0  0  0  0  0  0  0  0
    4.9299   -0.4612   -1.3997 H   0  0  0  0  0  0  0  0  0  0  0  0
    5.1455   -2.5971   -1.1005 C   0  0  0  0  0  0  0  0  0  0  0  0
    4.4853   -3.4993   -1.0311 H   0  0  0  0  0  0  0  0  0  0  0  0
    5.7817   -2.7168   -2.0000 H   0  0  0  0  0  0  0  0  0  0  0  0
    5.3141   -2.4425    1.2368 C   0  0  0  0  0  0  0  0  0  0  0  0
    6.0719   -2.4531    2.0454 H   0  0  0  0  0  0  0  0  0  0  0  0
    4.6542   -3.3364    1.3796 H   0  0  0  0  0  0  0  0  0  0  0  0
  1  7  1  0  0  0  0
  2  9  1  0  0  0  0
  3  5  2  0  0  0  0
  3  7  1  0  0  0  0
  4  3  1  0  0  0  0
  5 11  1  0  0  0  0
  6  5  1  0  0  0  0
  7  8  2  0  0  0  0
  8 13  1  0  0  0  0
  8 15  1  0  0  0  0
  9 10  1  0  0  0  0
  9 18  1  0  0  0  0
 11 12  1  0  0  0  0
 11 13  2  0  0  0  0
 13 14  1  0  0  0  0
 15  2  1  0  0  0  0
 16 15  1  0  0  0  0
 17 27  1  0  0  0  0
 18 19  1  0  0  0  0
 20 18  1  0  0  0  0
 21 24  1  0  0  0  0
 21  9  1  0  0  0  0
 22 21  1  0  0  0  0
 23 21  1  0  0  0  0
 24 25  1  0  0  0  0
 24 17  1  0  0  0  0
 26 24  1  0  0  0  0
 27 18  1  0  0  0  0
 27 29  1  0  0  0  0
 27 28  1  0  0  0  0
M  CHG  1   1  -1
M  END
