1,3
q = -1.0, confidence = 0.112

 27 27  0  0  0  0  0  0  0  0999 V2000
    1.0879   -1.4956    0.1740 O   0  5  0  0  0  0  0  0  0  0  0  0
    5.7252   -2.5747    0.2670 O   0  0  0  0  0  0  0  0  0  0  0  0
    1.5957    0.9469   -0.1885 N   0  0  0  0  0  2  0  0  0  0  0  0
    6.3737   -0.0838   -0.0372 N   0  0  0  0  0  0  0  0  0  0  0  0
    2.6976    0.2078   -0.0766 C   0  0  0  0  0  0  0  0  0  0  0  0
    4.0519    0.6440   -0.1268 C   0  0  0  0  0  0  0  0  0  0  0  0
    5.0538   -0.3134   -0.0097 C   0  0  0  0  0  0  0  0  0  0  0  0
    4.7500   -1.8043    0.1760 C   0  0  0  0  0  0  0  0  0  0  0  0
    3.3697   -2.1864    0.2332 C   0  0  0  0  0  3  0  0  0  0  0  0
    2.3672   -1.2329    0.1197 C   0  0  0  0  0  0  0  0  0  0  0  0
    1.6533    2.3912   -0.3543 C   0  0  0  0  0  0  0  0  0  0  0  0
    1.6683    3.1157    0.9941 C   0  0  0  0  0  0  0  0  0  0  0  0
    7.0122    1.2018   -0.1992 C   0  0  0  0  0  0  0  0  0  0  0  0
    8.5300    1.0701   -0.1982 C   0  0  0  0  0  0  0  0  0  0  0  0
    4.2935    1.7077   -0.2471 H   0  0  0  0  0  0  0  0  0  0  0  0
    6.9115   -0.9629    0.0713 H   0  0  0  0  0  0  0  0  0  0  0  0
    3.1204   -3.2464    0.3732 H   0  0  0  0  0  0  0  0  0  0  0  0
    0.7493    2.6912   -0.9181 H   0  0  0  0  0  0  0  0  0  0  0  0
    2.5406    2.6653   -0.9653 H   0  0  0  0  0  0  0  0  0  0  0  0
    1.6872    4.2136    0.8434 H   0  0  0  0  0  0  0  0  0  0  0  0
    0.7543    2.8602    1.5652 H   0  0  0  0  0  0  0  0  0  0  0  0
    2.5525    2.8288    1.5986 H   0  0  0  0  0  0  0  0  0  0  0  0
    6.6802    1.8857    0.6171 H   0  0  0  0  0  0  0  0  0  0  0  0
    6.6623    1.6710   -1.1488 H   0  0  0  0  0  0  0  0  0  0  0  0
    9.0069    2.0611   -0.3226 H   0  0  0  0  0  0  0  0  0  0  0  0
    8.8922    0.6350    0.7552 H   0  0  0  0  0  0  0  0  0  0  0  0
    8.8746    0.4195   -1.0274 H   0  0  0  0  0  0  0  0  0  0  0  0
  3  5  1  0  0  0  0
  4  7  1  0  0  0  0
  4 16  1  0  0  0  0
  5 10  2  0  0  0  0
  6  5  1  0  0  0  0
  6  7  2  0  0  0  0
  7  8  1  0  0  0  0
  8  9  1  0  0  0  0
  8  2  2  0  0  0  0
  9 17  1  0  0  0  0
 10  1  1  0  0  0  0
 10  9  1  0  0  0  0
 11  3  1  0  0  0  0
 11 12  1  0  0  0  0
 12 21  1  0  0  0  0
 12 22  1  0  0  0  0
 13 14  1  0  0  0  0
 13  4  1  0  0  0  0
 13 23  1  0  0  0  0
 14 26  1  0  0  0  0
 15  6  1  0  0  0  0
 18 11  1  0  0  0  0
 19 11  1  0  0  0  0
 20 12  1  0  0  0  0
 24 13  1  0  0  0  0
 25 14  1  0  0  0  0
 27 14  1  0  0  0  0
M  CHG  1   1  -1
M  END
