1,2
q = -1.0, confidence = 0.018

 31 33  0  0  1  0  0  0  0  0999 V2000
   -1.7323    0.4620   -1.4226 O   0  5  0  0  0  0  0  0  0  0  0  0
    0.5628    1.3955   -0.5944 N   0  0  0  0  0  2  0  0  0  0  0  0
   -4.3866    1.9549   -1.5970 Cl  0  0  0  0  0  0  0  0  0  0  0  0
   -1.4825    6.0530    0.4601 Cl  0  0  0  0  0  0  0  0  0  0  0  0
    6.8395    1.9398    1.3348 Cl  0  0  0  0  0  0  0  0  0  0  0  0
   -0.4859    2.2693   -0.5920 C   0  0  1  0  0  3  0  0  0  0  0  0
   -1.7328    1.7275   -1.0492 C   0  0  0  0  0  0  0  0  0  0  0  0
   -2.8558    2.5728   -1.0597 C   0  0  0  0  0  0  0  0  0  0  0  0
   -2.7612    3.9098   -0.6096 C   0  0  0  0  0  0  0  0  0  0  0  0
   -3.6605    4.5393   -0.6086 H   0  0  0  0  0  0  0  0  0  0  0  0
   -1.5487    4.4195   -0.1532 C   0  0  0  0  0  0  0  0  0  0  0  0
   -0.3679    3.6230   -0.1498 C   0  0  0  0  0  0  0  0  0  0  0  0
    0.9259    4.0482    0.2630 C   0  0  0  0  0  0  0  0  0  0  0  0
    1.0636    5.0831    0.6066 H   0  0  0  0  0  0  0  0  0  0  0  0
    1.9859    3.1675    0.1948 C   0  0  0  0  0  0  0  0  0  0  0  0
    2.9996    3.4992    0.4557 H   0  0  0  0  0  0  0  0  0  0  0  0
    1.8017    1.8205   -0.2549 C   0  0  0  0  0  0  0  0  0  0  0  0
    2.9159    0.8948   -0.3934 C   0  0  0  0  0  0  0  0  0  0  0  0
    2.7393    0.0608   -1.0851 H   0  0  0  0  0  0  0  0  0  0  0  0
    4.1146    1.0095    0.2432 C   0  0  0  0  0  0  0  0  0  0  0  0
    4.2968    1.8608    0.9181 H   0  0  0  0  0  0  0  0  0  0  0  0
    5.2187    0.0629    0.1244 C   0  0  0  0  0  0  0  0  0  0  0  0
    6.5201    0.3810    0.6017 C   0  0  0  0  0  0  0  0  0  0  0  0
    7.5887   -0.5209    0.4939 C   0  0  0  0  0  0  0  0  0  0  0  0
    8.5779   -0.2270    0.8717 H   0  0  0  0  0  0  0  0  0  0  0  0
    7.3809   -1.7754   -0.0942 C   0  0  0  0  0  0  0  0  0  0  0  0
    8.2201   -2.4821   -0.1765 H   0  0  0  0  0  0  0  0  0  0  0  0
    6.1037   -2.1259   -0.5664 C   0  0  0  0  0  0  0  0  0  0  0  0
    5.9306   -3.1143   -1.0165 H   0  0  0  0  0  0  0  0  0  0  0  0
    5.0457   -1.2224   -0.4533 C   0  0  0  0  0  0  0  0  0  0  0  0
    4.0416   -1.5170   -0.7926 H   0  0  0  0  0  0  0  0  0  0  0  0
  1  7  1  0  0  0  0
  2  6  1  0  0  0  0
  2 17  1  0  0  0  0
  3  8  1  0  0  0  0
  6  7  1  1  0  0  0
  6 12  1  0  0  0  0
  8  7  2  0  0  0  0
  8  9  1  0  0  0  0
  9 10  1  0  0  0  0
  9 11  2  0  0  0  0
 11 12  1  0  0  0  0
 11  4  1  0  0  0  0
 12 13  2  0  0  0  0
 13 14  1  0  0  0  0
 15 13  1  0  0  0  0
 15 16  1  0  0  0  0
 17 15  2  0  0  0  0
 18 17  1  0  0  0  0
 18 20  2  0  0  0  0
 19 18  1  0  0  0  0
 20 21  1  0  0  0  0
 22 20  1  0  0  0  0
 22 23  1  0  0  0  0
 23  5  1  0  0  0  0
 24 23  2  0  0  0  0
 24 25  1  0  0  0  0
 26 24  1  0  0  0  0
 27 26  1  0  0  0  0
 28 30  1  0  0  0  0
 28 26  2  0  0  0  0
 29 28  1  0  0  0  0
 30 22  2  0  0  0  0
 31 30  1  0  0  0  0
M  CHG  1   1  -1
M  END
