1,2
q = -1.0, confidence = 0.002

 37 39  0  0  1  0  0  0  0  0999 V2000
    1.4115    1.4307    0.8507 O   0  5  0  0  0  0  0  0  0  0  0  0
   -1.4443    1.4088    0.8732 N   0  0  0  0  0  2  0  0  0  0  0  0
    0.0000    3.2858    0.1574 C   0  0  0  0  0  0  0  0  0  0  0  0
   -3.8305    1.3762    0.2144 C   0  0  0  0  0  0  0  0  0  0  0  0
   -0.0279    4.6396   -0.3820 C   0  0  0  0  0  0  0  0  0  0  0  0
   -1.2258    5.3024   -0.7759 C   0  0  0  0  0  0  0  0  0  0  0  0
    2.4680    3.4170    0.2505 C   0  0  0  0  0  0  0  0  0  0  0  0
   -3.1144    1.6676    2.6829 C   0  0  0  0  0  0  0  0  0  0  0  0
    1.2068    5.3589   -0.5527 C   0  0  0  0  0  0  0  0  0  0  0  0
   -1.2352    2.6459    0.4957 C   0  0  0  0  0  0  0  0  0  0  0  0
   -2.8256    1.0535    1.3126 C   0  0  2  0  0  0  0  0  0  0  0  0
   -5.5857    1.9312   -1.9322 C   0  0  0  0  0  0  0  0  0  0  0  0
   -4.7637    2.4257    0.3052 C   0  0  0  0  0  0  0  0  0  0  0  0
   -4.8222    3.0345    1.2196 H   0  0  0  0  0  0  0  0  0  0  0  0
    1.2575    2.6544    0.4267 C   0  0  0  0  0  0  0  0  0  0  0  0
   -1.2093    6.6026   -1.2737 C   0  0  0  0  0  0  0  0  0  0  0  0
    1.1968    6.6847   -1.0631 C   0  0  0  0  0  3  0  0  0  0  0  0
   -5.6353    2.7027   -0.7628 C   0  0  0  0  0  0  0  0  0  0  0  0
    0.0071    7.3097   -1.4159 C   0  0  0  0  0  0  0  0  0  0  0  0
   -3.7942    0.6011   -0.9651 C   0  0  0  0  0  0  0  0  0  0  0  0
    2.4377    4.7096   -0.2124 C   0  0  0  0  0  0  0  0  0  0  0  0
   -4.6625    0.8753   -2.0289 C   0  0  0  0  0  0  0  0  0  0  0  0
   -2.1336    3.2883    0.4589 H   0  0  0  0  0  0  0  0  0  0  0  0
    3.4138    2.9120    0.4950 H   0  0  0  0  0  0  0  0  0  0  0  0
   -2.1921    4.7815   -0.7169 H   0  0  0  0  0  0  0  0  0  0  0  0
   -3.0922    2.7764    2.6576 H   0  0  0  0  0  0  0  0  0  0  0  0
   -4.1092    1.3480    3.0513 H   0  0  0  0  0  0  0  0  0  0  0  0
   -2.1570    7.0780   -1.5697 H   0  0  0  0  0  0  0  0  0  0  0  0
   -2.8114   -0.0474    1.4190 H   0  0  0  0  0  0  0  0  0  0  0  0
    0.0100    8.3361   -1.8116 H   0  0  0  0  0  0  0  0  0  0  0  0
    3.3781    5.2684   -0.3437 H   0  0  0  0  0  0  0  0  0  0  0  0
    2.1592    7.2079   -1.1786 H   0  0  0  0  0  0  0  0  0  0  0  0
   -2.3489    1.3338    3.4103 H   0  0  0  0  0  0  0  0  0  0  0  0
   -3.0664   -0.2228   -1.0350 H   0  0  0  0  0  0  0  0  0  0  0  0
   -6.3601    3.5267   -0.6753 H   0  0  0  0  0  0  0  0  0  0  0  0
   -4.6216    0.2604   -2.9410 H   0  0  0  0  0  0  0  0  0  0  0  0
   -6.2683    2.1483   -2.7679 H   0  0  0  0  0  0  0  0  0  0  0  0
  2 11  1  0  0  0  0
  3 15  1  0  0  0  0
  3 10  2  0  0  0  0
  4 13  1  0  0  0  0
  4 11  1  0  0  0  0
  5  3  1  0  0  0  0
  6 25  1  0  0  0  0
  6  5  2  0  0  0  0
  7 15  2  0  0  0  0
  7 24  1  0  0  0  0
  8 27  1  0  0  0  0
  8 33  1  0  0  0  0
  9  5  1  0  0  0  0
  9 21  2  0  0  0  0
 10  2  1  0  0  0  0
 11 29  1  1  0  0  0
 11  8  1  0  0  0  0
 12 18  1  0  0  0  0
 13 14  1  0  0  0  0
 15  1  1  0  0  0  0
 16  6  1  0  0  0  0
 17  9  1  0  0  0  0
 18 35  1  0  0  0  0
 18 13  2  0  0  0  0
 19 16  2  0  0  0  0
 19 17  1  0  0  0  0
 20  4  2  0  0  0  0
 21  7  1  0  0  0  0
 22 12  2  0  0  0  0
 22 20  1  0  0  0  0
 23 10  1  0  0  0  0
 26  8  1  0  0  0  0
 28 16  1  0  0  0  0
 30 19  1  0  0  0  0
 31 21  1  0  0  0  0
 32 17  1  0  0  0  0
 34 20  1  0  0  0  0
 36 22  1  0  0  0  0
 37 12  1  0  0  0  0
M  CHG  1   1  -1
M  END
