2,3
q = -1.0, confidence = 0.0

 17 17  0  0  0  0  0  0  0  0999 V2000
   -4.5704    0.2179   -0.1063 N   0  0  0  0  0  0  0  0  0  0  0  0
   -2.2609   -0.2806   -0.0615 N   0  0  0  0  0  2  0  0  0  0  0  0
   -1.5135   -2.3833    0.1459 O   0  5  0  0  0  0  0  0  0  0  0  0
   -2.9906    1.9045   -0.2685 O   0  0  0  0  0  0  0  0  0  0  0  0
   -3.2040    0.6987   -0.1518 C   0  0  0  0  0  0  0  0  0  0  0  0
   -2.5229   -1.6146    0.0639 C   0  0  0  0  0  0  0  0  0  0  0  0
   -3.9005   -2.0887    0.1011 C   0  0  0  0  0  0  0  0  0  0  0  0
   -4.8637   -1.1173    0.0132 C   0  0  0  0  0  3  0  0  0  0  0  0
   -5.9381   -1.3665    0.0352 H   0  0  0  0  0  0  0  0  0  0  0  0
   -4.1782   -3.5551    0.2349 C   0  0  0  0  0  0  0  0  0  0  0  0
   -5.2662   -3.7681    0.2528 H   0  0  0  0  0  0  0  0  0  0  0  0
   -3.7216   -3.9619    1.1620 H   0  0  0  0  0  0  0  0  0  0  0  0
   -3.7190   -4.1237   -0.6013 H   0  0  0  0  0  0  0  0  0  0  0  0
   -5.6360    1.1984   -0.1946 C   0  0  0  0  0  0  0  0  0  0  0  0
   -6.2757    1.0247   -1.0868 H   0  0  0  0  0  0  0  0  0  0  0  0
   -5.1432    2.1851   -0.2818 H   0  0  0  0  0  0  0  0  0  0  0  0
   -6.2778    1.1839    0.7126 H   0  0  0  0  0  0  0  0  0  0  0  0
  1  8  1  0  0  0  0
  2  6  1  0  0  0  0
  4  5  2  0  0  0  0
  5  1  1  0  0  0  0
  5  2  1  0  0  0  0
  6  7  2  0  0  0  0
  6  3  1  0  0  0  0
  7 10  1  0  0  0  0
  8  9  1  0  0  0  0
  8  7  1  0  0  0  0
 10 11  1  0  0  0  0
 10 12  1  0  0  0  0
 13 10  1  0  0  0  0
 14  1  1  0  0  0  0
 14 17  1  0  0  0  0
 15 14  1  0  0  0  0
 16 14  1  0  0  0  0
M  CHG  1   3  -1
M  END
