1,10
q = -1.0, confidence = 0.002

 11 11  0  0  0  0  0  0  0  0999 V2000
    1.9673    0.7350   -0.2189 N   0  0  0  0  0  2  0  0  0  0  0  0
    2.6589    1.8797   -0.2753 N   0  0  0  0  0  0  0  0  0  0  0  0
    2.1591    2.7604   -0.4167 H   0  0  0  0  0  0  0  0  0  0  0  0
    3.9960    1.6692   -0.0991 C   0  0  0  0  0  3  0  0  0  0  0  0
    4.7095    2.5008   -0.1169 H   0  0  0  0  0  0  0  0  0  0  0  0
    4.1662    0.2975    0.0841 C   0  0  0  0  0  0  0  0  0  0  0  0
    5.0930   -0.2564    0.2582 H   0  0  0  0  0  0  0  0  0  0  0  0
    2.8609   -0.2468    0.0092 C   0  0  0  0  0  0  0  0  0  0  0  0
    2.3568   -1.6731    0.1577 C   0  0  0  0  0  0  0  0  0  0  0  0
    1.0488   -1.7754    0.0773 O   0  5  0  0  0  0  0  0  0  0  0  0
    3.1643   -2.5817    0.3167 O   0  0  0  0  0  0  0  0  0  0  0  0
  1  8  1  0  0  0  0
  2  1  1  0  0  0  0
  2  4  1  0  0  0  0
  3  2  1  0  0  0  0
  4  6  1  0  0  0  0
  5  4  1  0  0  0  0
  6  7  1  0  0  0  0
  8  6  2  0  0  0  0
  8  9  1  0  0  0  0
  9 11  2  0  0  0  0
 10  9  1  0  0  0  0
M  CHG  1  10  -1
M  END
