1,8
q = -1.0, confidence = 0.0

 20 21  0  0  0  0  0  0  0  0999 V2000
    1.4714   -1.3632    0.0430 O   0  5  0  0  0  0  0  0  0  0  0  0
    2.7593   -1.1304    0.0250 C   0  0  0  0  0  0  0  0  0  0  0  0
    3.3919    0.1665    0.0059 C   0  0  0  0  0  0  0  0  0  0  0  0
    2.6170    1.3845    0.0220 C   0  0  0  0  0  0  0  0  0  0  0  0
    3.2830    2.5660    0.0536 O   0  0  0  0  0  0  0  0  0  0  0  0
    2.2983    3.6148   -0.1275 C   0  0  0  0  0  0  0  0  0  0  0  0
    0.9539    2.9228    0.1456 C   0  0  0  0  0  0  0  0  0  0  0  0
    1.3097    1.5053    0.0208 N   0  0  0  0  0  2  0  0  0  0  0  0
    0.1535    3.1891   -0.5693 H   0  0  0  0  0  0  0  0  0  0  0  0
    0.5581    3.1184    1.1656 H   0  0  0  0  0  0  0  0  0  0  0  0
    2.5391    4.4384    0.5708 H   0  0  0  0  0  0  0  0  0  0  0  0
    2.3836    3.9874   -1.1711 H   0  0  0  0  0  0  0  0  0  0  0  0
    4.8111    0.2650   -0.0210 C   0  0  0  0  0  3  0  0  0  0  0  0
    5.6183   -0.8655   -0.0231 C   0  0  0  0  0  0  0  0  0  0  0  0
    5.0072   -2.1416    0.0005 C   0  0  0  0  0  0  0  0  0  0  0  0
    3.6244   -2.2706    0.0235 C   0  0  0  0  0  0  0  0  0  0  0  0
    3.1418   -3.2587    0.0390 H   0  0  0  0  0  0  0  0  0  0  0  0
    5.6322   -3.0486   -0.0010 H   0  0  0  0  0  0  0  0  0  0  0  0
    6.7132   -0.7689   -0.0435 H   0  0  0  0  0  0  0  0  0  0  0  0
    5.2559    1.2698   -0.0388 H   0  0  0  0  0  0  0  0  0  0  0  0
  2  1  1  0  0  0  0
  3  4  2  0  0  0  0
  3  2  1  0  0  0  0
  4  5  1  0  0  0  0
  6  5  1  0  0  0  0
  6  7  1  0  0  0  0
  6 11  1  0  0  0  0
  7 10  1  0  0  0  0
  8  4  1  0  0  0  0
  8  7  1  0  0  0  0
  9  7  1  0  0  0  0
 12  6  1  0  0  0  0
 13  3  1  0  0  0  0
 14 13  1  0  0  0  0
 14 15  2  0  0  0  0
 15 16  1  0  0  0  0
 16  2  2  0  0  0  0
 16 17  1  0  0  0  0
 18 15  1  0  0  0  0
 19 14  1  0  0  0  0
 20 13  1  0  0  0  0
M  CHG  1   1  -1
M  END
