11,15
q = -2.0, confidence = 0.966

 15 15  0  0  0  0  0  0  0  0999 V2000
   -0.5673    2.1566   -0.0502 C   0  0  0  0  0  3  0  0  0  0  0  0
    0.3438    2.7723   -0.0742 H   0  0  0  0  0  0  0  0  0  0  0  0
   -1.8497    2.7302   -0.0555 C   0  0  0  0  0  0  0  0  0  0  0  0
   -1.9543    3.8255   -0.0791 H   0  0  0  0  0  0  0  0  0  0  0  0
   -2.9610    1.8888   -0.0298 C   0  0  0  0  0  0  0  0  0  0  0  0
   -3.9787    2.3093   -0.0297 H   0  0  0  0  0  0  0  0  0  0  0  0
   -2.8066    0.4804   -0.0058 C   0  0  0  0  0  0  0  0  0  0  0  0
   -4.0891   -0.3885    0.0141 C   0  0  0  0  0  0  0  0  0  0  0  0
   -1.4871   -0.0206   -0.0027 C   0  0  0  0  0  0  0  0  0  0  0  0
   -1.1405   -1.4899    0.0155 C   0  0  0  0  0  0  0  0  0  0  0  0
   -0.4145    0.8187   -0.0212 N   0  0  0  0  0  2  0  0  0  0  0  0
   -4.5139   -0.5850    1.1691 O   0  5  0  0  0  0  0  0  0  0  0  0
   -4.5145   -0.6385   -1.1301 O   0  0  0  0  0  0  0  0  0  0  0  0
   -1.9681   -2.3827    0.0309 O   0  5  0  0  0  0  0  0  0  0  0  0
    0.1726   -1.7490    0.0117 O   0  0  0  0  0  0  0  0  0  0  0  0
  1 11  1  0  0  0  0
  2  1  1  0  0  0  0
  3  1  1  0  0  0  0
  3  5  2  0  0  0  0
  4  3  1  0  0  0  0
  5  6  1  0  0  0  0
  5  7  1  0  0  0  0
  7  9  2  0  0  0  0
  7  8  1  0  0  0  0
  8 12  1  0  0  0  0
  9 10  1  0  0  0  0
 10 14  1  0  0  0  0
 11  9  1  0  0  0  0
 13  8  2  0  0  0  0
 15 10  2  0  0  0  0
M  CHG  2  12  -1  14  -1
M  END
