2,3
q = -1.0, confidence = 0.0

 22 23  0  0  0  0  0  0  0  0999 V2000
    7.2656    0.3293   -0.5936 Cl  0  0  0  0  0  0  0  0  0  0  0  0
    1.1100    1.3711    0.8873 N   0  0  0  0  0  2  0  0  0  0  0  0
    1.4853   -0.8315   -1.0565 O   0  5  0  0  0  0  0  0  0  0  0  0
    3.2425    0.5289   -0.0467 C   0  0  0  0  0  0  0  0  0  0  0  0
    2.7426   -0.5180   -0.9185 C   0  0  0  0  0  0  0  0  0  0  0  0
    3.7157   -1.2561   -1.6649 C   0  0  0  0  0  0  0  0  0  0  0  0
    3.3342   -2.0445   -2.3299 H   0  0  0  0  0  0  0  0  0  0  0  0
    5.0769   -1.0037   -1.5681 C   0  0  0  0  0  0  0  0  0  0  0  0
    5.7995   -1.5903   -2.1541 H   0  0  0  0  0  0  0  0  0  0  0  0
    5.5485    0.0186   -0.7092 C   0  0  0  0  0  0  0  0  0  0  0  0
    4.6462    0.7682    0.0315 C   0  0  0  0  0  0  0  0  0  0  0  0
    5.0179    1.5652    0.6932 H   0  0  0  0  0  0  0  0  0  0  0  0
    2.4140    1.3865    0.7613 C   0  0  0  0  0  3  0  0  0  0  0  0
    2.9685    2.1546    1.3445 H   0  0  0  0  0  0  0  0  0  0  0  0
    0.4905    2.3485    1.7305 C   0  0  0  0  0  0  0  0  0  0  0  0
    1.2021    2.9502    2.3264 H   0  0  0  0  0  0  0  0  0  0  0  0
   -0.7649    3.0442    1.2344 C   0  0  0  0  0  0  0  0  0  0  0  0
   -1.1304    2.7341    0.2421 H   0  0  0  0  0  0  0  0  0  0  0  0
   -0.8698    4.1149    1.4675 H   0  0  0  0  0  0  0  0  0  0  0  0
   -0.8564    2.0391    2.3503 C   0  0  0  0  0  0  0  0  0  0  0  0
   -1.2974    1.0564    2.1187 H   0  0  0  0  0  0  0  0  0  0  0  0
   -1.0326    2.3857    3.3802 H   0  0  0  0  0  0  0  0  0  0  0  0
  2 15  1  0  0  0  0
  3  5  1  0  0  0  0
  4 11  1  0  0  0  0
  4 13  1  0  0  0  0
  5  4  2  0  0  0  0
  6  8  2  0  0  0  0
  6  5  1  0  0  0  0
  7  6  1  0  0  0  0
  8 10  1  0  0  0  0
  9  8  1  0  0  0  0
 10  1  1  0  0  0  0
 10 11  2  0  0  0  0
 11 12  1  0  0  0  0
 13  2  1  0  0  0  0
 13 14  1  0  0  0  0
 15 16  1  0  0  0  0
 15 20  1  0  0  0  0
 17 19  1  0  0  0  0
 17 15  1  0  0  0  0
 17 20  1  0  0  0  0
 18 17  1  0  0  0  0
 20 22  1  0  0  0  0
 21 20  1  0  0  0  0
M  CHG  1   3  -1
M  END
