1,4
q = -1.0, confidence = 0.002

 39 40  0  0  0  0  0  0  0  0999 V2000
   -1.6243    0.6343    0.6157 O   0  5  0  0  0  0  0  0  0  0  0  0
   -5.4759    3.4362    0.4481 O   0  0  0  0  0  0  0  0  0  0  0  0
    8.4709    0.8744    0.4721 O   0  0  0  0  0  0  0  0  0  0  0  0
    0.7820    1.7443    0.0412 N   0  0  0  0  0  2  0  0  0  0  0  0
    7.0924    0.8813    0.6010 N   0  0  0  0  0  0  0  0  0  0  0  0
   -2.1329    1.8146    0.4136 C   0  0  0  0  0  0  0  0  0  0  0  0
   -3.5400    1.9730    0.5664 C   0  0  0  0  0  0  0  0  0  0  0  0
   -4.1123    1.0724    0.8183 H   0  0  0  0  0  0  0  0  0  0  0  0
   -4.1413    3.2181    0.3627 C   0  0  0  0  0  0  0  0  0  0  0  0
   -3.3540    4.3645    0.0363 C   0  0  0  0  0  0  0  0  0  0  0  0
   -3.8628    5.3276   -0.1044 H   0  0  0  0  0  0  0  0  0  0  0  0
   -1.9844    4.2279   -0.0925 C   0  0  0  0  0  3  0  0  0  0  0  0
   -1.3678    5.1080   -0.3361 H   0  0  0  0  0  0  0  0  0  0  0  0
   -1.3356    2.9682    0.0719 C   0  0  0  0  0  0  0  0  0  0  0  0
    0.0804    2.8644   -0.0122 C   0  0  0  0  0  0  0  0  0  0  0  0
    0.6497    3.8117   -0.0879 H   0  0  0  0  0  0  0  0  0  0  0  0
    2.2008    1.8380    0.0211 C   0  0  0  0  0  0  0  0  0  0  0  0
    2.8831    2.5006   -1.0140 C   0  0  0  0  0  0  0  0  0  0  0  0
    2.3092    2.9646   -1.8298 H   0  0  0  0  0  0  0  0  0  0  0  0
    4.2845    2.5144   -1.0409 C   0  0  0  0  0  0  0  0  0  0  0  0
    4.7925    3.0118   -1.8798 H   0  0  0  0  0  0  0  0  0  0  0  0
    5.0399    1.8581   -0.0445 C   0  0  0  0  0  0  0  0  0  0  0  0
    4.3383    1.2208    1.0111 C   0  0  0  0  0  0  0  0  0  0  0  0
    4.9163    0.7249    1.8031 H   0  0  0  0  0  0  0  0  0  0  0  0
    2.9474    1.2079    1.0406 C   0  0  0  0  0  0  0  0  0  0  0  0
    2.4077    0.6919    1.8476 H   0  0  0  0  0  0  0  0  0  0  0  0
    6.5168    1.8043   -0.1186 C   0  0  0  0  0  0  0  0  0  0  0  0
    7.2786    2.7518   -1.0065 C   0  0  0  0  0  0  0  0  0  0  0  0
    8.3198    2.8508   -0.6509 H   0  0  0  0  0  0  0  0  0  0  0  0
    6.7985    3.7480   -1.0344 H   0  0  0  0  0  0  0  0  0  0  0  0
    7.3196    2.3695   -2.0489 H   0  0  0  0  0  0  0  0  0  0  0  0
    9.0257   -0.0954    1.3490 C   0  0  0  0  0  0  0  0  0  0  0  0
   10.1211   -0.0420    1.2023 H   0  0  0  0  0  0  0  0  0  0  0  0
    8.6667   -1.1185    1.1034 H   0  0  0  0  0  0  0  0  0  0  0  0
    8.7797    0.1262    2.4099 H   0  0  0  0  0  0  0  0  0  0  0  0
   -6.3198    2.3345    0.7525 C   0  0  0  0  0  0  0  0  0  0  0  0
   -6.2421    1.5221   -0.0034 H   0  0  0  0  0  0  0  0  0  0  0  0
   -7.3529    2.7296    0.7610 H   0  0  0  0  0  0  0  0  0  0  0  0
   -6.0881    1.9067    1.7530 H   0  0  0  0  0  0  0  0  0  0  0  0
  2 36  1  0  0  0  0
  3  5  1  0  0  0  0
  3 32  1  0  0  0  0
  6  7  2  0  0  0  0
  6  1  1  0  0  0  0
  7  8  1  0  0  0  0
  9  2  1  0  0  0  0
  9  7  1  0  0  0  0
 10  9  2  0  0  0  0
 11 10  1  0  0  0  0
 12 10  1  0  0  0  0
 12 14  1  0  0  0  0
 13 12  1  0  0  0  0
 14  6  1  0  0  0  0
 15  4  1  0  0  0  0
 15 14  2  0  0  0  0
 16 15  1  0  0  0  0
 17  4  1  0  0  0  0
 17 25  1  0  0  0  0
 18 17  2  0  0  0  0
 19 18  1  0  0  0  0
 20 18  1  0  0  0  0
 20 22  2  0  0  0  0
 21 20  1  0  0  0  0
 22 23  1  0  0  0  0
 23 25  2  0  0  0  0
 23 24  1  0  0  0  0
 25 26  1  0  0  0  0
 27 22  1  0  0  0  0
 27  5  2  0  0  0  0
 28 29  1  0  0  0  0
 28 27  1  0  0  0  0
 30 28  1  0  0  0  0
 31 28  1  0  0  0  0
 32 35  1  0  0  0  0
 33 32  1  0  0  0  0
 34 32  1  0  0  0  0
 36 38  1  0  0  0  0
 36 39  1  0  0  0  0
 37 36  1  0  0  0  0
M  CHG  1   1  -1
M  END
