1,2
q = -1.0, confidence = 0.018

 41 43  0  0  0  0  0  0  0  0999 V2000
   -1.6704   -0.7709   -0.4907 O   0  5  0  0  0  0  0  0  0  0  0  0
    0.8666   -1.7047   -0.1980 N   0  0  0  0  0  2  0  0  0  0  0  0
    8.3548   -1.3031    1.8607 O   0  0  0  0  0  0  0  0  0  0  0  0
    6.9847   -1.2522    1.7102 N   0  0  0  0  0  0  0  0  0  0  0  0
   -1.6291   -4.4792   -0.6962 C   0  0  0  0  0  0  0  0  0  0  0  0
   -1.1213   -3.1200   -0.5562 C   0  0  0  0  0  0  0  0  0  0  0  0
    2.2782   -1.7472    0.0016 C   0  0  0  0  0  0  0  0  0  0  0  0
    0.2634   -2.8765   -0.3433 C   0  0  0  0  0  0  0  0  0  0  0  0
    0.9194   -3.7585   -0.2442 H   0  0  0  0  0  0  0  0  0  0  0  0
    5.0883   -1.8140    0.4166 C   0  0  0  0  0  0  0  0  0  0  0  0
   -3.0474   -4.6848   -0.8292 C   0  0  0  0  0  0  0  0  0  0  0  0
   -2.0303   -2.0130   -0.5826 C   0  0  0  0  0  0  0  0  0  0  0  0
    6.5543   -1.8400    0.6298 C   0  0  0  0  0  0  0  0  0  0  0  0
    3.1228   -2.3560   -0.9420 C   0  0  0  0  0  0  0  0  0  0  0  0
    2.6883   -2.7803   -1.8595 H   0  0  0  0  0  0  0  0  0  0  0  0
   -0.7984   -5.6339   -0.7179 C   0  0  0  0  0  0  0  0  0  0  0  0
    0.2929   -5.5314   -0.6361 H   0  0  0  0  0  0  0  0  0  0  0  0
    2.8470   -1.1630    1.1541 C   0  0  0  0  0  0  0  0  0  0  0  0
    2.1839   -0.6753    1.8826 H   0  0  0  0  0  0  0  0  0  0  0  0
   -3.9220   -3.5466   -0.8246 C   0  0  0  0  0  0  0  0  0  0  0  0
   -5.0055   -3.7224   -0.9204 H   0  0  0  0  0  0  0  0  0  0  0  0
    4.5089   -2.3900   -0.7352 C   0  0  0  0  0  0  0  0  0  0  0  0
    5.1435   -2.8651   -1.4964 H   0  0  0  0  0  0  0  0  0  0  0  0
   -3.4440   -2.2651   -0.7075 C   0  0  0  0  0  0  0  0  0  0  0  0
   -4.1064   -1.3873   -0.7034 H   0  0  0  0  0  0  0  0  0  0  0  0
    4.2224   -1.2031    1.3607 C   0  0  0  0  0  0  0  0  0  0  0  0
    4.6657   -0.7552    2.2606 H   0  0  0  0  0  0  0  0  0  0  0  0
   -3.5656   -6.0001   -0.9641 C   0  0  0  0  0  3  0  0  0  0  0  0
   -4.6555   -6.1249   -1.0629 H   0  0  0  0  0  0  0  0  0  0  0  0
   -1.3308   -6.9139   -0.8515 C   0  0  0  0  0  0  0  0  0  0  0  0
   -0.6536   -7.7816   -0.8641 H   0  0  0  0  0  0  0  0  0  0  0  0
   -2.7256   -7.1076   -0.9742 C   0  0  0  0  0  0  0  0  0  0  0  0
   -3.1383   -8.1218   -1.0797 H   0  0  0  0  0  0  0  0  0  0  0  0
    7.4534   -2.5150   -0.3713 C   0  0  0  0  0  0  0  0  0  0  0  0
    8.5057   -2.4607   -0.0458 H   0  0  0  0  0  0  0  0  0  0  0  0
    7.3629   -2.0352   -1.3676 H   0  0  0  0  0  0  0  0  0  0  0  0
    7.1709   -3.5801   -0.4981 H   0  0  0  0  0  0  0  0  0  0  0  0
    8.7242   -0.6436    3.0638 C   0  0  0  0  0  0  0  0  0  0  0  0
    8.4219    0.4258    3.0487 H   0  0  0  0  0  0  0  0  0  0  0  0
    9.8267   -0.7183    3.1213 H   0  0  0  0  0  0  0  0  0  0  0  0
    8.2693   -1.1342    3.9511 H   0  0  0  0  0  0  0  0  0  0  0  0
  2  7  1  0  0  0  0
  3 38  1  0  0  0  0
  4  3  1  0  0  0  0
  5  6  1  0  0  0  0
  6  8  2  0  0  0  0
  7 18  1  0  0  0  0
  8  9  1  0  0  0  0
  8  2  1  0  0  0  0
 10 13  1  0  0  0  0
 10 26  1  0  0  0  0
 11 20  2  0  0  0  0
 11  5  1  0  0  0  0
 12  6  1  0  0  0  0
 12  1  1  0  0  0  0
 13  4  2  0  0  0  0
 14 22  1  0  0  0  0
 14  7  2  0  0  0  0
 15 14  1  0  0  0  0
 16  5  2  0  0  0  0
 16 17  1  0  0  0  0
 18 26  2  0  0  0  0
 18 19  1  0  0  0  0
 20 24  1  0  0  0  0
 21 20  1  0  0  0  0
 22 10  2  0  0  0  0
 23 22  1  0  0  0  0
 24 25  1  0  0  0  0
 24 12  2  0  0  0  0
 26 27  1  0  0  0  0
 28 11  1  0  0  0  0
 29 28  1  0  0  0  0
 30 16  1  0  0  0  0
 31 30  1  0  0  0  0
 32 28  1  0  0  0  0
 32 30  2  0  0  0  0
 33 32  1  0  0  0  0
 34 35  1  0  0  0  0
 34 13  1  0  0  0  0
 36 34  1  0  0  0  0
 37 34  1  0  0  0  0
 38 40  1  0  0  0  0
 38 41  1  0  0  0  0
 39 38  1  0  0  0  0
M  CHG  1   1  -1
M  END
