2,3
q = -1.0, confidence = 0.0

 38 40  0  0  1  0  0  0  0  0999 V2000
   -1.2095    2.8745    0.1132 S   0  0  0  0  0  0  0  0  0  0  0  0
    0.5218   -1.5788   -0.1476 O   0  5  0  0  0  0  0  0  0  0  0  0
   -1.6526    0.3140   -0.1561 N   0  0  0  0  0  2  0  0  0  0  0  0
    4.9605    0.1067    0.3949 N   0  0  0  0  0  0  0  0  0  0  0  0
   -0.6489    1.1587    0.0239 C   0  0  1  0  0  3  0  0  0  0  0  0
   -2.8894    0.9187   -0.2319 C   0  0  0  0  0  0  0  0  0  0  0  0
   -2.8625    2.3380   -0.0997 C   0  0  0  0  0  0  0  0  0  0  0  0
   -4.0417    3.0963   -0.1506 C   0  0  0  0  0  0  0  0  0  0  0  0
   -4.0148    4.1911   -0.0451 H   0  0  0  0  0  0  0  0  0  0  0  0
   -5.2573    2.4193   -0.3392 C   0  0  0  0  0  0  0  0  0  0  0  0
   -6.1947    2.9956   -0.3805 H   0  0  0  0  0  0  0  0  0  0  0  0
   -5.2889    1.0147   -0.4790 C   0  0  0  0  0  0  0  0  0  0  0  0
   -6.2537    0.5071   -0.6328 H   0  0  0  0  0  0  0  0  0  0  0  0
   -4.1165    0.2523   -0.4299 C   0  0  0  0  0  0  0  0  0  0  0  0
   -4.1079   -0.8418   -0.5639 H   0  0  0  0  0  0  0  0  0  0  0  0
    0.7482    0.8390    0.1324 C   0  0  0  0  0  0  0  0  0  0  0  0
    1.2488   -0.5351    0.0229 C   0  0  0  0  0  0  0  0  0  0  0  0
    2.6725   -0.7049    0.0932 C   0  0  0  0  0  0  0  0  0  0  0  0
    2.9949   -1.7484   -0.0097 H   0  0  0  0  0  0  0  0  0  0  0  0
    3.5868    0.3415    0.2891 C   0  0  0  0  0  0  0  0  0  0  0  0
    3.0633    1.6735    0.4006 C   0  0  0  0  0  0  0  0  0  0  0  0
    3.7223    2.5374    0.5494 H   0  0  0  0  0  0  0  0  0  0  0  0
    1.6948    1.8785    0.3241 C   0  0  0  0  0  0  0  0  0  0  0  0
    1.3239    2.9135    0.4139 H   0  0  0  0  0  0  0  0  0  0  0  0
    5.9044    1.2066    0.4814 C   0  0  0  0  0  0  0  0  0  0  0  0
    6.8461    0.8018    0.9100 H   0  0  0  0  0  0  0  0  0  0  0  0
    5.5343    1.9491    1.2214 H   0  0  0  0  0  0  0  0  0  0  0  0
    6.2081    1.9163   -0.8465 C   0  0  0  0  0  0  0  0  0  0  0  0
    6.6750    1.2250   -1.5763 H   0  0  0  0  0  0  0  0  0  0  0  0
    6.9009    2.7696   -0.6888 H   0  0  0  0  0  0  0  0  0  0  0  0
    5.2762    2.3072   -1.3012 H   0  0  0  0  0  0  0  0  0  0  0  0
    5.4902   -1.2368    0.2302 C   0  0  0  0  0  0  0  0  0  0  0  0
    4.8430   -1.9439    0.7919 H   0  0  0  0  0  0  0  0  0  0  0  0
    6.4829   -1.2674    0.7291 H   0  0  0  0  0  0  0  0  0  0  0  0
    5.6261   -1.7135   -1.2228 C   0  0  0  0  0  0  0  0  0  0  0  0
    4.6499   -1.6599   -1.7436 H   0  0  0  0  0  0  0  0  0  0  0  0
    5.9765   -2.7661   -1.2587 H   0  0  0  0  0  0  0  0  0  0  0  0
    6.3500   -1.0923   -1.7881 H   0  0  0  0  0  0  0  0  0  0  0  0
  2 17  1  0  0  0  0
  3  5  1  0  0  0  0
  4 25  1  0  0  0  0
  5  1  1  0  0  0  0
  5 16  1  6  0  0  0
  6  3  1  0  0  0  0
  6  7  1  0  0  0  0
  7  1  1  0  0  0  0
  8  7  2  0  0  0  0
  8  9  1  0  0  0  0
 10  8  1  0  0  0  0
 11 10  1  0  0  0  0
 12 14  1  0  0  0  0
 12 10  2  0  0  0  0
 13 12  1  0  0  0  0
 14  6  2  0  0  0  0
 15 14  1  0  0  0  0
 16 23  1  0  0  0  0
 17 18  1  0  0  0  0
 17 16  2  0  0  0  0
 18 20  2  0  0  0  0
 19 18  1  0  0  0  0
 20  4  1  0  0  0  0
 20 21  1  0  0  0  0
 21 22  1  0  0  0  0
 23 21  2  0  0  0  0
 23 24  1  0  0  0  0
 25 26  1  0  0  0  0
 25 27  1  0  0  0  0
 28 30  1  0  0  0  0
 28 25  1  0  0  0  0
 29 28  1  0  0  0  0
 31 28  1  0  0  0  0
 32  4  1  0  0  0  0
 32 34  1  0  0  0  0
 32 33  1  0  0  0  0
 35 32  1  0  0  0  0
 36 35  1  0  0  0  0
 37 35  1  0  0  0  0
 38 35  1  0  0  0  0
M  CHG  1   2  -1
M  END
