1,2
q = -1.0, confidence = 0.0

 35 36  0  0  1  0  0  0  0  0999 V2000
   -2.7173    0.5137    1.1061 N   0  0  0  0  0  2  0  0  0  0  0  0
   -2.9743   -0.8504   -1.4864 O   0  5  0  0  0  0  0  0  0  0  0  0
    3.3330    0.7587    2.6078 O   0  0  0  0  0  0  0  0  0  0  0  0
   -3.9449   -1.4694   -0.8866 C   0  0  0  0  0  0  0  0  0  0  0  0
   -4.7049   -2.4377   -1.6219 C   0  0  0  0  0  0  0  0  0  0  0  0
   -4.4207   -2.5848   -2.6743 H   0  0  0  0  0  0  0  0  0  0  0  0
   -5.7370   -3.1616   -1.0407 C   0  0  0  0  0  0  0  0  0  0  0  0
   -6.2868   -3.8997   -1.6464 H   0  0  0  0  0  0  0  0  0  0  0  0
   -6.0945   -2.9652    0.3173 C   0  0  0  0  0  0  0  0  0  0  0  0
   -6.9141   -3.5414    0.7698 H   0  0  0  0  0  0  0  0  0  0  0  0
   -5.3947   -2.0248    1.0592 C   0  0  0  0  0  0  0  0  0  0  0  0
   -5.6632   -1.8448    2.1136 H   0  0  0  0  0  0  0  0  0  0  0  0
   -4.3248   -1.2612    0.5039 C   0  0  0  0  0  0  0  0  0  0  0  0
   -3.7182   -0.2853    1.3694 C   0  0  0  0  0  3  0  0  0  0  0  0
   -4.1773   -0.2058    2.3816 H   0  0  0  0  0  0  0  0  0  0  0  0
   -2.3093    1.5135    2.1104 C   0  0  2  0  0  0  0  0  0  0  0  0
   -2.7896    1.2446    3.0807 H   0  0  0  0  0  0  0  0  0  0  0  0
   -2.8164    2.8918    1.6718 C   0  0  0  0  0  0  0  0  0  0  0  0
   -3.9239    2.9017    1.6662 H   0  0  0  0  0  0  0  0  0  0  0  0
   -2.4723    3.1203    0.6430 H   0  0  0  0  0  0  0  0  0  0  0  0
   -2.4571    3.6808    2.3616 H   0  0  0  0  0  0  0  0  0  0  0  0
   -0.8003    1.4246    2.2966 C   0  0  0  0  0  0  0  0  0  0  0  0
   -0.2574    0.4125    3.1182 C   0  0  0  0  0  0  0  0  0  0  0  0
   -0.9359   -0.2533    3.6755 H   0  0  0  0  0  0  0  0  0  0  0  0
    1.1220    0.2290    3.2292 C   0  0  0  0  0  0  0  0  0  0  0  0
    1.5472   -0.5587    3.8683 H   0  0  0  0  0  0  0  0  0  0  0  0
    2.0061    1.0517    2.4945 C   0  0  0  0  0  0  0  0  0  0  0  0
    1.4828    2.0830    1.6925 C   0  0  0  0  0  0  0  0  0  0  0  0
    2.1374    2.7432    1.1091 H   0  0  0  0  0  0  0  0  0  0  0  0
    0.0928    2.2620    1.6086 C   0  0  0  0  0  0  0  0  0  0  0  0
   -0.2887    3.0708    0.9716 H   0  0  0  0  0  0  0  0  0  0  0  0
    4.2422    1.4853    1.7989 C   0  0  0  0  0  0  0  0  0  0  0  0
    5.2449    1.0634    1.9985 H   0  0  0  0  0  0  0  0  0  0  0  0
    4.2490    2.5685    2.0530 H   0  0  0  0  0  0  0  0  0  0  0  0
    4.0092    1.3713    0.7168 H   0  0  0  0  0  0  0  0  0  0  0  0
  1 14  1  0  0  0  0
  1 16  1  0  0  0  0
  2  4  1  0  0  0  0
  4 13  1  0  0  0  0
  5  7  1  0  0  0  0
  5  4  2  0  0  0  0
  6  5  1  0  0  0  0
  7  9  2  0  0  0  0
  8  7  1  0  0  0  0
  9 10  1  0  0  0  0
  9 11  1  0  0  0  0
 11 12  1  0  0  0  0
 13 11  2  0  0  0  0
 13 14  1  0  0  0  0
 14 15  1  0  0  0  0
 16 22  1  0  0  0  0
 16 17  1  1  0  0  0
 18 16  1  0  0  0  0
 18 21  1  0  0  0  0
 19 18  1  0  0  0  0
 20 18  1  0  0  0  0
 22 23  1  0  0  0  0
 23 25  2  0  0  0  0
 23 24  1  0  0  0  0
 25 26  1  0  0  0  0
 27  3  1  0  0  0  0
 27 25  1  0  0  0  0
 28 27  2  0  0  0  0
 29 28  1  0  0  0  0
 30 28  1  0  0  0  0
 30 22  2  0  0  0  0
 31 30  1  0  0  0  0
 32 33  1  0  0  0  0
 32 34  1  0  0  0  0
 32  3  1  0  0  0  0
 35 32  1  0  0  0  0
M  CHG  1   2  -1
M  END
