2,3
q = 0.0, confidence = 0.596

 13 13  0  0  0  0  0  0  0  0999 V2000
   -2.6624    0.8300   -1.1229 N   0  0  0  0  0  0  0  0  0  0  0  0
   -1.3122    0.9188   -1.2487 O   0  5  0  0  0  0  0  0  0  0  0  0
   -1.8793   -0.9693    0.0519 N   0  0  0  0  0  2  0  0  0  0  0  0
   -5.6073    0.5556   -0.4951 S   0  0  0  0  0  0  0  0  0  0  0  0
   -2.9430   -0.2278   -0.3880 C   0  0  0  0  0  0  0  0  0  0  0  0
   -4.3284   -0.5589   -0.0796 C   0  0  0  0  0  0  0  0  0  0  0  0
   -4.8401   -1.6977    0.5337 C   0  0  0  0  0  0  0  0  0  0  0  0
   -6.2593   -1.6670    0.6653 C   0  0  0  0  0  0  0  0  0  0  0  0
   -6.8111   -0.5075    0.1515 C   0  0  0  0  0  0  0  0  0  0  0  0
   -4.2134   -2.5381    0.8633 H   0  0  0  0  0  0  0  0  0  0  0  0
   -6.8536   -2.4721    1.1185 H   0  0  0  0  0  0  0  0  0  0  0  0
   -7.8686   -0.2184    0.1147 H   0  0  0  0  0  0  0  0  0  0  0  0
   -2.0575   -1.7101    0.7343 H   0  0  0  0  0  0  0  0  0  0  0  0
  1  5  2  0  0  0  0
  2  1  1  0  0  0  0
  3 13  1  0  0  0  0
  4  6  1  0  0  0  0
  4  9  1  0  0  0  0
  5  6  1  0  0  0  0
  5  3  1  0  0  0  0
  6  7  2  0  0  0  0
  7  8  1  0  0  0  0
  7 10  1  0  0  0  0
  8 11  1  0  0  0  0
  9  8  2  0  0  0  0
 12  9  1  0  0  0  0
M  CHG  1   2  -1
M  END
