3,18
q = -1.0, confidence = 0.0

 29 29  0  0  0  0  0  0  0  0999 V2000
   -2.6547    1.9069   -0.5751 C   0  0  0  0  0  0  0  0  0  0  0  0
   -2.8118    0.5802   -0.0722 C   0  0  0  0  0  0  0  0  0  0  0  0
   -1.8270   -0.2317    0.1737 O   0  5  0  0  0  0  0  0  0  0  0  0
   -4.1521    0.1056    0.1800 C   0  0  0  0  0  0  0  0  0  0  0  0
   -4.2137   -1.1745    0.6514 O   0  0  0  0  0  0  0  0  0  0  0  0
   -5.4882   -1.7157    0.9261 C   0  0  0  0  0  0  0  0  0  0  0  0
   -6.1307   -1.7494    0.0166 H   0  0  0  0  0  0  0  0  0  0  0  0
   -5.3214   -2.7482    1.2863 H   0  0  0  0  0  0  0  0  0  0  0  0
   -6.0245   -1.1392    1.7142 H   0  0  0  0  0  0  0  0  0  0  0  0
   -5.2497    0.9343   -0.0539 C   0  0  0  0  0  0  0  0  0  0  0  0
   -6.2672    0.5697    0.1434 H   0  0  0  0  0  0  0  0  0  0  0  0
   -5.0712    2.2536   -0.5475 C   0  0  0  0  0  0  0  0  0  0  0  0
   -5.9525    2.8870   -0.7231 H   0  0  0  0  0  0  0  0  0  0  0  0
   -3.7958    2.7304   -0.8053 C   0  0  0  0  0  3  0  0  0  0  0  0
   -3.6427    3.7502   -1.1910 H   0  0  0  0  0  0  0  0  0  0  0  0
   -1.3443    2.4053   -0.8663 C   0  0  0  0  0  0  0  0  0  0  0  0
   -1.3018    3.4424   -1.2506 H   0  0  0  0  0  0  0  0  0  0  0  0
   -0.2007    1.7731   -0.7360 N   0  0  0  0  0  2  0  0  0  0  0  0
    0.9912    2.5609   -1.0830 C   0  0  0  0  0  0  0  0  0  0  0  0
    0.7179    3.3216   -1.8446 H   0  0  0  0  0  0  0  0  0  0  0  0
    1.7689    1.8937   -1.4898 H   0  0  0  0  0  0  0  0  0  0  0  0
    1.5640    3.2676    0.1368 C   0  0  0  0  0  0  0  0  0  0  0  0
    2.5588    3.7082   -0.1257 H   0  0  0  0  0  0  0  0  0  0  0  0
    1.7412    2.5149    0.9404 H   0  0  0  0  0  0  0  0  0  0  0  0
    0.6545    4.2660    0.5531 O   0  0  0  0  0  0  0  0  0  0  0  0
    0.9817    4.8291    1.7980 C   0  0  0  0  0  0  0  0  0  0  0  0
    1.9753    5.3426    1.7830 H   0  0  0  0  0  0  0  0  0  0  0  0
    0.2043    5.5780    2.0470 H   0  0  0  0  0  0  0  0  0  0  0  0
    1.0115    4.0627    2.6110 H   0  0  0  0  0  0  0  0  0  0  0  0
  1  2  1  0  0  0  0
  2  3  1  0  0  0  0
  2  4  2  0  0  0  0
  4  5  1  0  0  0  0
  5  6  1  0  0  0  0
  6  8  1  0  0  0  0
  6  9  1  0  0  0  0
  7  6  1  0  0  0  0
 10 11  1  0  0  0  0
 10  4  1  0  0  0  0
 12 10  2  0  0  0  0
 13 12  1  0  0  0  0
 14  1  1  0  0  0  0
 14 12  1  0  0  0  0
 15 14  1  0  0  0  0
 16 18  1  0  0  0  0
 16  1  2  0  0  0  0
 17 16  1  0  0  0  0
 19 18  1  0  0  0  0
 19 22  1  0  0  0  0
 20 19  1  0  0  0  0
 21 19  1  0  0  0  0
 22 25  1  0  0  0  0
 22 24  1  0  0  0  0
 23 22  1  0  0  0  0
 25 26  1  0  0  0  0
 26 28  1  0  0  0  0
 26 29  1  0  0  0  0
 27 26  1  0  0  0  0
M  CHG  1   3  -1
M  END
