1,7
q = -1.0, confidence = 0.04

 47 49  0  0  0  0  0  0  0  0999 V2000
   -0.7372    0.2784    0.4579 N   0  0  0  0  0  2  0  0  0  0  0  0
    0.6067    0.5396    0.6531 N   0  0  0  0  0  0  0  0  0  0  0  0
    1.0936   -0.2282    1.1559 H   0  0  0  0  0  0  0  0  0  0  0  0
    5.6377    1.3226   -0.1797 C   0  0  0  0  0  0  0  0  0  0  0  0
   -4.9802    2.7548   -0.2390 C   0  0  0  0  0  0  0  0  0  0  0  0
   -3.6579    2.6156    0.3091 C   0  0  0  0  0  0  0  0  0  0  0  0
   -2.9370   -0.8041   -0.9984 O   0  5  0  0  0  0  0  0  0  0  0  0
    0.6974    2.2120   -0.9218 O   0  0  0  0  0  0  0  0  0  0  0  0
   -5.5221    1.6856   -1.0244 C   0  0  0  0  0  0  0  0  0  0  0  0
   -6.5339    1.8051   -1.4434 H   0  0  0  0  0  0  0  0  0  0  0  0
   -4.8199    0.5277   -1.2503 C   0  0  0  0  0  0  0  0  0  0  0  0
   -5.2319   -0.3016   -1.8421 H   0  0  0  0  0  0  0  0  0  0  0  0
    4.8958    2.3944   -0.7296 C   0  0  0  0  0  0  0  0  0  0  0  0
    5.4228    3.2488   -1.1812 H   0  0  0  0  0  0  0  0  0  0  0  0
   -2.8962    1.4004    0.0388 C   0  0  0  0  0  0  0  0  0  0  0  0
    4.9091    0.2531    0.3780 C   0  0  0  0  0  0  0  0  0  0  0  0
    5.4373   -0.6083    0.8083 H   0  0  0  0  0  0  0  0  0  0  0  0
    1.2876    1.4099   -0.2008 C   0  0  0  0  0  0  0  0  0  0  0  0
    3.5004    2.3990   -0.7176 C   0  0  0  0  0  0  0  0  0  0  0  0
    2.9270    3.2286   -1.1563 H   0  0  0  0  0  0  0  0  0  0  0  0
   -5.2162    4.9695    0.7750 C   0  0  0  0  0  0  0  0  0  0  0  0
   -5.8069    5.8792    0.9581 H   0  0  0  0  0  0  0  0  0  0  0  0
    7.1744    1.3588   -0.2118 C   0  0  0  0  0  0  0  0  0  0  0  0
   -3.4987    0.3409   -0.7117 C   0  0  0  0  0  0  0  0  0  0  0  0
    2.7834    1.3287   -0.1425 C   0  0  0  0  0  0  0  0  0  0  0  0
   -3.1667    3.6875    1.1050 C   0  0  0  0  0  0  0  0  0  0  0  0
   -2.1762    3.6181    1.5757 H   0  0  0  0  0  0  0  0  0  0  0  0
   -1.5338    1.3361    0.4486 C   0  0  0  0  0  0  0  0  0  0  0  0
   -1.0553    2.2665    0.7828 H   0  0  0  0  0  0  0  0  0  0  0  0
   -5.7328    3.9346    0.0052 C   0  0  0  0  0  3  0  0  0  0  0  0
   -6.7417    4.0108   -0.4299 H   0  0  0  0  0  0  0  0  0  0  0  0
    3.5062    0.2483    0.3989 C   0  0  0  0  0  0  0  0  0  0  0  0
    2.9904   -0.6223    0.8319 H   0  0  0  0  0  0  0  0  0  0  0  0
   -3.9222    4.8356    1.3284 C   0  0  0  0  0  0  0  0  0  0  0  0
   -3.5054    5.6430    1.9496 H   0  0  0  0  0  0  0  0  0  0  0  0
    7.8006    0.1092    0.4308 C   0  0  0  0  0  0  0  0  0  0  0  0
    7.5146    0.0058    1.4969 H   0  0  0  0  0  0  0  0  0  0  0  0
    8.9060    0.1802    0.3878 H   0  0  0  0  0  0  0  0  0  0  0  0
    7.5062   -0.8193   -0.0986 H   0  0  0  0  0  0  0  0  0  0  0  0
    7.6657    2.6041    0.5620 C   0  0  0  0  0  0  0  0  0  0  0  0
    7.2780    3.5435    0.1208 H   0  0  0  0  0  0  0  0  0  0  0  0
    8.7739    2.6556    0.5448 H   0  0  0  0  0  0  0  0  0  0  0  0
    7.3383    2.5675    1.6206 H   0  0  0  0  0  0  0  0  0  0  0  0
    7.6480    1.4427   -1.6812 C   0  0  0  0  0  0  0  0  0  0  0  0
    7.3064    0.5601   -2.2588 H   0  0  0  0  0  0  0  0  0  0  0  0
    8.7561    1.4776   -1.7272 H   0  0  0  0  0  0  0  0  0  0  0  0
    7.2612    2.3483   -2.1887 H   0  0  0  0  0  0  0  0  0  0  0  0
  1  2  1  0  0  0  0
  2  3  1  0  0  0  0
  4 16  1  0  0  0  0
  5 30  1  0  0  0  0
  5  6  1  0  0  0  0
  6 26  2  0  0  0  0
  7 24  1  0  0  0  0
  8 18  2  0  0  0  0
  9  5  2  0  0  0  0
 10  9  1  0  0  0  0
 11  9  1  0  0  0  0
 11 24  2  0  0  0  0
 12 11  1  0  0  0  0
 13 19  1  0  0  0  0
 13  4  2  0  0  0  0
 14 13  1  0  0  0  0
 15  6  1  0  0  0  0
 15 28  2  0  0  0  0
 16 32  2  0  0  0  0
 16 17  1  0  0  0  0
 18 25  1  0  0  0  0
 18  2  1  0  0  0  0
 19 25  2  0  0  0  0
 20 19  1  0  0  0  0
 21 22  1  0  0  0  0
 21 34  2  0  0  0  0
 23  4  1  0  0  0  0
 23 36  1  0  0  0  0
 23 40  1  0  0  0  0
 24 15  1  0  0  0  0
 25 32  1  0  0  0  0
 26 34  1  0  0  0  0
 26 27  1  0  0  0  0
 28  1  1  0  0  0  0
 28 29  1  0  0  0  0
 30 21  1  0  0  0  0
 31 30  1  0  0  0  0
 32 33  1  0  0  0  0
 34 35  1  0  0  0  0
 36 37  1  0  0  0  0
 38 36  1  0  0  0  0
 39 36  1  0  0  0  0
 40 43  1  0  0  0  0
 41 40  1  0  0  0  0
 42 40  1  0  0  0  0
 44 23  1  0  0  0  0
 45 44  1  0  0  0  0
 46 44  1  0  0  0  0
 47 44  1  0  0  0  0
M  CHG  1   7  -1
M  END
