30,38
q = -1.0, confidence = 0.016

 38 40  0  0  0  0  0  0  0  0999 V2000
    3.5805    1.9375    0.3239 C   0  0  0  0  0  0  0  0  0  0  0  0
    1.2117    1.1991    0.4355 C   0  0  0  0  0  0  0  0  0  0  0  0
    0.9626    2.2194    0.7566 H   0  0  0  0  0  0  0  0  0  0  0  0
    2.9015   -0.2448   -0.6853 C   0  0  0  0  0  0  0  0  0  0  0  0
   -3.9408    1.3329    0.2974 C   0  0  0  0  0  0  0  0  0  0  0  0
   -3.6516    0.3691    0.7435 H   0  0  0  0  0  0  0  0  0  0  0  0
    2.5565    0.9347    0.0486 C   0  0  0  0  0  0  0  0  0  0  0  0
   -2.9739    2.2102   -0.2346 C   0  0  0  0  0  0  0  0  0  0  0  0
    5.1903    0.5790   -0.9727 C   0  0  0  0  0  0  0  0  0  0  0  0
    6.2076    0.4511   -1.3757 H   0  0  0  0  0  0  0  0  0  0  0  0
    4.9059    1.7539   -0.2031 C   0  0  0  0  0  0  0  0  0  0  0  0
   -5.3004    1.6705    0.2444 C   0  0  0  0  0  0  0  0  0  0  0  0
   -6.0449    0.9734    0.6605 H   0  0  0  0  0  0  0  0  0  0  0  0
    5.9130    2.7243    0.0459 C   0  0  0  0  0  3  0  0  0  0  0  0
    6.9174    2.5549   -0.3730 H   0  0  0  0  0  0  0  0  0  0  0  0
   -5.7365    2.8785   -0.3347 C   0  0  0  0  0  0  0  0  0  0  0  0
    5.6452    3.8599    0.8003 C   0  0  0  0  0  0  0  0  0  0  0  0
    6.4319    4.6056    0.9874 H   0  0  0  0  0  0  0  0  0  0  0  0
   -4.7589    3.7437   -0.8750 C   0  0  0  0  0  0  0  0  0  0  0  0
   -5.0740    4.6910   -1.3411 H   0  0  0  0  0  0  0  0  0  0  0  0
    4.2370   -0.3818   -1.2031 C   0  0  0  0  0  0  0  0  0  0  0  0
    4.4493   -1.2910   -1.7828 H   0  0  0  0  0  0  0  0  0  0  0  0
    4.3484    4.0420    1.3330 C   0  0  0  0  0  0  0  0  0  0  0  0
    4.1258    4.9314    1.9419 H   0  0  0  0  0  0  0  0  0  0  0  0
   -7.1965    3.2481   -0.3770 C   0  0  0  0  0  0  0  0  0  0  0  0
   -7.8409    2.4197   -0.0253 H   0  0  0  0  0  0  0  0  0  0  0  0
   -7.5142    3.5202   -1.4046 H   0  0  0  0  0  0  0  0  0  0  0  0
   -7.4020    4.1314    0.2642 H   0  0  0  0  0  0  0  0  0  0  0  0
   -0.7243    2.5671   -0.9768 O   0  0  0  0  0  0  0  0  0  0  0  0
    0.1868    0.3607    0.4368 N   0  0  0  0  0  2  0  0  0  0  0  0
   -1.0597    0.9352    0.6072 N   0  0  0  0  0  0  0  0  0  0  0  0
   -1.7224    0.3092    1.1055 H   0  0  0  0  0  0  0  0  0  0  0  0
   -1.5004    1.9342   -0.2636 C   0  0  0  0  0  0  0  0  0  0  0  0
    3.3457    3.1032    1.1046 C   0  0  0  0  0  0  0  0  0  0  0  0
    2.3601    3.2753    1.5591 H   0  0  0  0  0  0  0  0  0  0  0  0
   -3.4027    3.4154   -0.8309 C   0  0  0  0  0  0  0  0  0  0  0  0
   -2.6375    4.0780   -1.2611 H   0  0  0  0  0  0  0  0  0  0  0  0
    2.0884   -1.2266   -0.9741 O   0  5  0  0  0  0  0  0  0  0  0  0
  1 34  2  0  0  0  0
  2 30  1  0  0  0  0
  2  3  1  0  0  0  0
  4  7  1  0  0  0  0
  5  6  1  0  0  0  0
  7  1  1  0  0  0  0
  7  2  2  0  0  0  0
  8  5  2  0  0  0  0
  9 11  2  0  0  0  0
 10  9  1  0  0  0  0
 11 14  1  0  0  0  0
 11  1  1  0  0  0  0
 12  5  1  0  0  0  0
 12 13  1  0  0  0  0
 14 17  1  0  0  0  0
 15 14  1  0  0  0  0
 16 12  2  0  0  0  0
 17 18  1  0  0  0  0
 17 23  2  0  0  0  0
 19 36  2  0  0  0  0
 19 16  1  0  0  0  0
 20 19  1  0  0  0  0
 21  9  1  0  0  0  0
 21  4  2  0  0  0  0
 22 21  1  0  0  0  0
 23 24  1  0  0  0  0
 25 16  1  0  0  0  0
 25 26  1  0  0  0  0
 25 28  1  0  0  0  0
 27 25  1  0  0  0  0
 29 33  2  0  0  0  0
 30 31  1  0  0  0  0
 31 32  1  0  0  0  0
 33  8  1  0  0  0  0
 33 31  1  0  0  0  0
 34 23  1  0  0  0  0
 34 35  1  0  0  0  0
 36  8  1  0  0  0  0
 37 36  1  0  0  0  0
 38  4  1  0  0  0  0
M  CHG  1  38  -1
M  END
