1,3
q = -1.0, confidence = 0.05

 35 37  0  0  0  0  0  0  0  0999 V2000
   -2.0859   -0.5544   -0.0547 O   0  5  0  0  0  0  0  0  0  0  0  0
   -6.9873    1.3200   -0.3092 Cl  0  0  0  0  0  0  0  0  0  0  0  0
    0.3755    0.2376    0.1703 N   0  0  0  0  0  2  0  0  0  0  0  0
   -0.6009    1.2013    0.1000 N   0  0  0  0  0  0  0  0  0  0  0  0
    0.4996    3.2840    1.0316 O   0  0  0  0  0  0  0  0  0  0  0  0
   -0.0692    2.4688    0.7107 H   0  0  0  0  0  0  0  0  0  0  0  0
   -1.8316    0.7209   -0.0149 C   0  0  0  0  0  0  0  0  0  0  0  0
    1.6502    0.5830    0.2282 C   0  0  0  0  0  3  0  0  0  0  0  0
    2.3015   -0.3043    0.2716 H   0  0  0  0  0  0  0  0  0  0  0  0
    1.7545    3.1121    0.6378 C   0  0  0  0  0  0  0  0  0  0  0  0
    3.9118    4.2424    0.3800 C   0  0  0  0  0  0  0  0  0  0  0  0
    4.5242    5.1554    0.4469 H   0  0  0  0  0  0  0  0  0  0  0  0
    4.3988    0.6567   -0.6129 C   0  0  0  0  0  0  0  0  0  0  0  0
    3.8493   -0.2879   -0.7207 H   0  0  0  0  0  0  0  0  0  0  0  0
   -4.2770    1.1196   -0.1572 C   0  0  0  0  0  0  0  0  0  0  0  0
   -4.4146    0.0307   -0.1279 H   0  0  0  0  0  0  0  0  0  0  0  0
    2.3242    1.8635    0.2288 C   0  0  0  0  0  0  0  0  0  0  0  0
    2.5776    4.2803    0.7077 C   0  0  0  0  0  0  0  0  0  0  0  0
    2.0871    5.2044    1.0450 H   0  0  0  0  0  0  0  0  0  0  0  0
   -2.9750    1.6590   -0.1049 C   0  0  0  0  0  0  0  0  0  0  0  0
    3.7420    1.8314   -0.1415 C   0  0  0  0  0  0  0  0  0  0  0  0
    4.5323    3.0325   -0.0581 C   0  0  0  0  0  0  0  0  0  0  0  0
   -2.7872    3.0582   -0.1481 C   0  0  0  0  0  0  0  0  0  0  0  0
   -1.7741    3.4808   -0.1103 H   0  0  0  0  0  0  0  0  0  0  0  0
    6.5194    1.8473   -0.8537 C   0  0  0  0  0  0  0  0  0  0  0  0
    7.5847    1.8416   -1.1280 H   0  0  0  0  0  0  0  0  0  0  0  0
   -5.1998    3.3780   -0.2869 C   0  0  0  0  0  0  0  0  0  0  0  0
   -6.0778    4.0353   -0.3565 H   0  0  0  0  0  0  0  0  0  0  0  0
   -5.3752    1.9842   -0.2467 C   0  0  0  0  0  0  0  0  0  0  0  0
   -3.8993    3.9036   -0.2375 C   0  0  0  0  0  0  0  0  0  0  0  0
   -3.7551    4.9938   -0.2702 H   0  0  0  0  0  0  0  0  0  0  0  0
    5.9086    3.0137   -0.4158 C   0  0  0  0  0  0  0  0  0  0  0  0
    6.4801    3.9520   -0.3395 H   0  0  0  0  0  0  0  0  0  0  0  0
    5.7491    0.6650   -0.9503 C   0  0  0  0  0  0  0  0  0  0  0  0
    6.2175   -0.2665   -1.3034 H   0  0  0  0  0  0  0  0  0  0  0  0
  1  7  1  0  0  0  0
  2 29  1  0  0  0  0
  3  8  1  0  0  0  0
  4  3  1  0  0  0  0
  6  5  1  0  0  0  0
  7  4  2  0  0  0  0
  8 17  1  0  0  0  0
  8  9  1  0  0  0  0
 10 18  1  0  0  0  0
 10  5  1  0  0  0  0
 11 12  1  0  0  0  0
 11 18  2  0  0  0  0
 13 21  1  0  0  0  0
 14 13  1  0  0  0  0
 15 16  1  0  0  0  0
 15 20  1  0  0  0  0
 17 10  2  0  0  0  0
 18 19  1  0  0  0  0
 20  7  1  0  0  0  0
 21 22  2  0  0  0  0
 21 17  1  0  0  0  0
 22 11  1  0  0  0  0
 23 24  1  0  0  0  0
 23 20  2  0  0  0  0
 25 32  2  0  0  0  0
 26 25  1  0  0  0  0
 27 29  1  0  0  0  0
 27 30  2  0  0  0  0
 28 27  1  0  0  0  0
 29 15  2  0  0  0  0
 30 23  1  0  0  0  0
 31 30  1  0  0  0  0
 32 33  1  0  0  0  0
 32 22  1  0  0  0  0
 34 25  1  0  0  0  0
 34 13  2  0  0  0  0
 35 34  1  0  0  0  0
M  CHG  1   1  -1
M  END
