1,38
q = -1.0, confidence = 0.11

 57 59  0  0  1  0  0  0  0  0999 V2000
   -0.4304   -1.1852    0.3791 O   0  5  0  0  0  0  0  0  0  0  0  0
   -1.4569   -0.3643    0.1891 C   0  0  0  0  0  0  0  0  0  0  0  0
   -2.7669   -0.7421    0.6058 C   0  0  0  0  0  0  0  0  0  0  0  0
   -3.7926    0.1857    0.3719 C   0  0  0  0  0  0  0  0  0  0  0  0
   -4.8096   -0.0905    0.6793 H   0  0  0  0  0  0  0  0  0  0  0  0
   -3.6084    1.4531   -0.2369 C   0  0  0  0  0  0  0  0  0  0  0  0
   -2.3119    1.7902   -0.6285 C   0  0  0  0  0  0  0  0  0  0  0  0
   -2.1003    2.7581   -1.1046 H   0  0  0  0  0  0  0  0  0  0  0  0
   -1.2280    0.9002   -0.4304 C   0  0  0  0  0  0  0  0  0  0  0  0
   -3.0262   -2.1122    1.2569 C   0  0  0  0  0  0  0  0  0  0  0  0
   -2.1959   -2.2403    2.5569 C   0  0  0  0  0  0  0  0  0  0  0  0
   -1.1100   -2.1776    2.3613 H   0  0  0  0  0  0  0  0  0  0  0  0
   -2.4001   -3.2203    3.0348 H   0  0  0  0  0  0  0  0  0  0  0  0
   -2.4690   -1.4443    3.2794 H   0  0  0  0  0  0  0  0  0  0  0  0
   -2.6413   -3.2382    0.2659 C   0  0  0  0  0  0  0  0  0  0  0  0
   -3.2158   -3.1453   -0.6780 H   0  0  0  0  0  0  0  0  0  0  0  0
   -2.8773   -4.2248    0.7150 H   0  0  0  0  0  0  0  0  0  0  0  0
   -1.5646   -3.2315    0.0169 H   0  0  0  0  0  0  0  0  0  0  0  0
   -4.5111   -2.2892    1.6232 C   0  0  0  0  0  0  0  0  0  0  0  0
   -4.8574   -1.5255    2.3493 H   0  0  0  0  0  0  0  0  0  0  0  0
   -4.6544   -3.2820    2.0937 H   0  0  0  0  0  0  0  0  0  0  0  0
   -5.1695   -2.2487    0.7316 H   0  0  0  0  0  0  0  0  0  0  0  0
   -4.8176    2.3811   -0.4378 C   0  0  0  0  0  0  0  0  0  0  0  0
   -5.4527    2.6939    0.9363 C   0  0  0  0  0  0  0  0  0  0  0  0
   -4.7272    3.2037    1.6019 H   0  0  0  0  0  0  0  0  0  0  0  0
   -5.7954    1.7748    1.4518 H   0  0  0  0  0  0  0  0  0  0  0  0
   -6.3336    3.3570    0.8129 H   0  0  0  0  0  0  0  0  0  0  0  0
   -5.8552    1.6732   -1.3390 C   0  0  0  0  0  0  0  0  0  0  0  0
   -6.7413    2.3231   -1.4922 H   0  0  0  0  0  0  0  0  0  0  0  0
   -6.2097    0.7231   -0.8921 H   0  0  0  0  0  0  0  0  0  0  0  0
   -5.4229    1.4380   -2.3324 H   0  0  0  0  0  0  0  0  0  0  0  0
   -4.4187    3.7088   -1.1039 C   0  0  0  0  0  0  0  0  0  0  0  0
   -3.9789    3.5503   -2.1094 H   0  0  0  0  0  0  0  0  0  0  0  0
   -3.6892    4.2753   -0.4903 H   0  0  0  0  0  0  0  0  0  0  0  0
   -5.3141    4.3495   -1.2308 H   0  0  0  0  0  0  0  0  0  0  0  0
    0.0935    1.3258   -0.8365 C   0  0  0  0  0  3  0  0  0  0  0  0
    0.1489    2.3587   -1.2433 H   0  0  0  0  0  0  0  0  0  0  0  0
    1.1860    0.6239   -0.7747 N   0  0  0  0  0  2  0  0  0  0  0  0
    2.4433    1.2639   -1.1691 C   0  0  2  0  0  0  0  0  0  0  0  0
    2.2323    1.9576   -2.0142 H   0  0  0  0  0  0  0  0  0  0  0  0
    3.5077    0.1930   -1.6107 C   0  0  2  0  0  0  0  0  0  0  0  0
    3.7743    0.3545   -2.6740 H   0  0  0  0  0  0  0  0  0  0  0  0
    2.9919   -1.1463   -1.5058 O   0  0  0  0  0  0  0  0  0  0  0  0
    4.7422    0.3617   -0.6987 C   0  0  0  0  0  0  0  0  0  0  0  0
    4.8664   -0.5600   -0.0932 H   0  0  0  0  0  0  0  0  0  0  0  0
    5.6722    0.4996   -1.2871 H   0  0  0  0  0  0  0  0  0  0  0  0
    4.4271    1.5422    0.1814 C   0  0  0  0  0  0  0  0  0  0  0  0
    5.2315    2.1311    1.1671 C   0  0  0  0  0  0  0  0  0  0  0  0
    6.2496    1.7563    1.3534 H   0  0  0  0  0  0  0  0  0  0  0  0
    4.7156    3.1925    1.9277 C   0  0  0  0  0  0  0  0  0  0  0  0
    5.3373    3.6577    2.7076 H   0  0  0  0  0  0  0  0  0  0  0  0
    3.4072    3.6605    1.7091 C   0  0  0  0  0  0  0  0  0  0  0  0
    3.0124    4.4882    2.3173 H   0  0  0  0  0  0  0  0  0  0  0  0
    2.6024    3.0752    0.7191 C   0  0  0  0  0  0  0  0  0  0  0  0
    1.5755    3.4372    0.5560 H   0  0  0  0  0  0  0  0  0  0  0  0
    3.1246    2.0220   -0.0420 C   0  0  0  0  0  0  0  0  0  0  0  0
    2.4550   -1.3604   -2.3233 H   0  0  0  0  0  0  0  0  0  0  0  0
  2  1  1  0  0  0  0
  2  3  1  0  0  0  0
  3 10  1  0  0  0  0
  4  3  2  0  0  0  0
  4  5  1  0  0  0  0
  6  4  1  0  0  0  0
  7  9  1  0  0  0  0
  7  6  2  0  0  0  0
  8  7  1  0  0  0  0
  9  2  2  0  0  0  0
 10 19  1  0  0  0  0
 10 11  1  0  0  0  0
 11 13  1  0  0  0  0
 11 14  1  0  0  0  0
 12 11  1  0  0  0  0
 15 17  1  0  0  0  0
 15 10  1  0  0  0  0
 16 15  1  0  0  0  0
 18 15  1  0  0  0  0
 19 21  1  0  0  0  0
 19 20  1  0  0  0  0
 22 19  1  0  0  0  0
 23  6  1  0  0  0  0
 23 24  1  0  0  0  0
 24 26  1  0  0  0  0
 24 25  1  0  0  0  0
 27 24  1  0  0  0  0
 28 30  1  0  0  0  0
 28 23  1  0  0  0  0
 29 28  1  0  0  0  0
 31 28  1  0  0  0  0
 32 34  1  0  0  0  0
 32 23  1  0  0  0  0
 33 32  1  0  0  0  0
 35 32  1  0  0  0  0
 36 38  1  0  0  0  0
 36  9  1  0  0  0  0
 37 36  1  0  0  0  0
 39 40  1  6  0  0  0
 39 38  1  0  0  0  0
 39 56  1  0  0  0  0
 41 42  1  6  0  0  0
 41 43  1  0  0  0  0
 41 39  1  0  0  0  0
 41 44  1  0  0  0  0
 44 45  1  0  0  0  0
 44 47  1  0  0  0  0
 46 44  1  0  0  0  0
 47 48  1  0  0  0  0
 48 49  1  0  0  0  0
 48 50  2  0  0  0  0
 50 51  1  0  0  0  0
 52 50  1  0  0  0  0
 52 53  1  0  0  0  0
 54 52  2  0  0  0  0
 55 54  1  0  0  0  0
 56 47  2  0  0  0  0
 56 54  1  0  0  0  0
 57 43  1  0  0  0  0
M  CHG  1   1  -1
M  END
