2,3
q = -1.0, confidence = 0.0

 21 20  0  0  1  0  0  0  0  0999 V2000
    2.6116   -1.0985   -2.0619 O   0  5  0  0  0  0  0  0  0  0  0  0
    0.4642   -0.8571   -1.4269 O   0  0  0  0  0  0  0  0  0  0  0  0
    1.0835    0.0603    0.9568 N   0  0  0  0  0  0  0  0  0  0  0  0
    1.1213    0.7945    1.6724 H   0  0  0  0  0  0  0  0  0  0  0  0
    1.2507   -0.8319    1.4418 H   0  0  0  0  0  0  0  0  0  0  0  0
    1.7320   -0.6569   -1.3082 C   0  0  0  0  0  0  0  0  0  0  0  0
    2.1093    0.2679   -0.0924 C   0  0  2  0  0  0  0  0  0  0  0  0
    1.9449    1.3075   -0.4596 H   0  0  0  0  0  0  0  0  0  0  0  0
    3.5792    0.1673    0.4210 C   0  0  0  0  0  0  0  0  0  0  0  0
    3.9430   -1.2962    0.7330 C   0  0  0  0  0  0  0  0  0  0  0  0
    3.2716   -1.7314    1.5055 H   0  0  0  0  0  0  0  0  0  0  0  0
    4.9788   -1.3682    1.1263 H   0  0  0  0  0  0  0  0  0  0  0  0
    3.8599   -1.9058   -0.1867 H   0  0  0  0  0  0  0  0  0  0  0  0
    3.7496    1.0229    1.6926 C   0  0  0  0  0  0  0  0  0  0  0  0
    3.4268    2.0722    1.5207 H   0  0  0  0  0  0  0  0  0  0  0  0
    4.8165    1.0474    1.9987 H   0  0  0  0  0  0  0  0  0  0  0  0
    3.1751    0.6231    2.5544 H   0  0  0  0  0  0  0  0  0  0  0  0
    4.5215    0.7173   -0.6665 C   0  0  0  0  0  0  0  0  0  0  0  0
    4.3023    1.7873   -0.8699 H   0  0  0  0  0  0  0  0  0  0  0  0
    4.3757    0.1435   -1.6006 H   0  0  0  0  0  0  0  0  0  0  0  0
    5.5802    0.6439   -0.3380 H   0  0  0  0  0  0  0  0  0  0  0  0
  1  6  1  0  0  0  0
  2  6  2  0  0  0  0
  3  5  1  0  0  0  0
  3  4  1  0  0  0  0
  6  7  1  0  0  0  0
  7  8  1  6  0  0  0
  7  9  1  0  0  0  0
  7  3  1  0  0  0  0
  9 10  1  0  0  0  0
  9 14  1  0  0  0  0
 10 12  1  0  0  0  0
 10 11  1  0  0  0  0
 13 10  1  0  0  0  0
 14 16  1  0  0  0  0
 14 17  1  0  0  0  0
 15 14  1  0  0  0  0
 18 21  1  0  0  0  0
 18  9  1  0  0  0  0
 19 18  1  0  0  0  0
 20 18  1  0  0  0  0
M  CHG  1   1  -1
M  END
