1,2
q = -1.0, confidence = 0.0

 29 31  0  0  0  0  0  0  0  0999 V2000
    1.7069    2.0544    0.0796 O   0  5  0  0  0  0  0  0  0  0  0  0
    0.8801    0.0830    1.6670 N   0  0  0  0  0  2  0  0  0  0  0  0
   -3.0280   -2.5868    2.5971 N   0  0  0  0  0  0  0  0  0  0  0  0
   -1.2894   -1.3755    0.7067 N   0  0  0  0  0  0  0  0  0  0  0  0
    2.4761    1.7394    1.0635 C   0  0  0  0  0  0  0  0  0  0  0  0
    3.7201    2.4059    1.3206 C   0  0  0  0  0  0  0  0  0  0  0  0
    4.0168    3.2130    0.6356 H   0  0  0  0  0  0  0  0  0  0  0  0
    4.5107    2.0315    2.3975 C   0  0  0  0  0  0  0  0  0  0  0  0
    5.4646    2.5529    2.5742 H   0  0  0  0  0  0  0  0  0  0  0  0
    4.1254    0.9766    3.2711 C   0  0  0  0  0  0  0  0  0  0  0  0
    4.7843    0.6807    4.1002 H   0  0  0  0  0  0  0  0  0  0  0  0
    2.9265    0.3059    3.0592 C   0  0  0  0  0  0  0  0  0  0  0  0
    2.6394   -0.5324    3.7118 H   0  0  0  0  0  0  0  0  0  0  0  0
    2.0908    0.6779    1.9765 C   0  0  0  0  0  0  0  0  0  0  0  0
    0.1760   -0.6815    2.4725 C   0  0  0  0  0  3  0  0  0  0  0  0
    0.4774   -0.7936    3.5295 H   0  0  0  0  0  0  0  0  0  0  0  0
   -1.0199   -1.3638    2.0171 C   0  0  0  0  0  0  0  0  0  0  0  0
   -1.9008   -2.0055    2.9551 C   0  0  0  0  0  0  0  0  0  0  0  0
   -1.6377   -2.0176    4.0298 H   0  0  0  0  0  0  0  0  0  0  0  0
   -3.3425   -2.5618    1.2647 C   0  0  0  0  0  0  0  0  0  0  0  0
   -4.5544   -3.1471    0.8090 C   0  0  0  0  0  0  0  0  0  0  0  0
   -5.2178   -3.6008    1.5598 H   0  0  0  0  0  0  0  0  0  0  0  0
   -4.8682   -3.1322   -0.5440 C   0  0  0  0  0  0  0  0  0  0  0  0
   -5.8086   -3.5840   -0.8942 H   0  0  0  0  0  0  0  0  0  0  0  0
   -3.9851   -2.5355   -1.4881 C   0  0  0  0  0  0  0  0  0  0  0  0
   -4.2571   -2.5330   -2.5546 H   0  0  0  0  0  0  0  0  0  0  0  0
   -2.7934   -1.9577   -1.0779 C   0  0  0  0  0  0  0  0  0  0  0  0
   -2.0951   -1.4819   -1.7817 H   0  0  0  0  0  0  0  0  0  0  0  0
   -2.4472   -1.9525    0.3058 C   0  0  0  0  0  0  0  0  0  0  0  0
  1  5  1  0  0  0  0
  2 14  1  0  0  0  0
  2 15  1  0  0  0  0
  3 18  1  0  0  0  0
  4 17  1  0  0  0  0
  5  6  2  0  0  0  0
  5 14  1  0  0  0  0
  6  8  1  0  0  0  0
  7  6  1  0  0  0  0
  8  9  1  0  0  0  0
  8 10  2  0  0  0  0
 10 11  1  0  0  0  0
 12 10  1  0  0  0  0
 12 13  1  0  0  0  0
 14 12  2  0  0  0  0
 15 16  1  0  0  0  0
 17 15  1  0  0  0  0
 17 18  2  0  0  0  0
 18 19  1  0  0  0  0
 20  3  2  0  0  0  0
 21 20  1  0  0  0  0
 21 22  1  0  0  0  0
 23 21  2  0  0  0  0
 24 23  1  0  0  0  0
 25 27  2  0  0  0  0
 25 23  1  0  0  0  0
 26 25  1  0  0  0  0
 27 29  1  0  0  0  0
 28 27  1  0  0  0  0
 29  4  2  0  0  0  0
 29 20  1  0  0  0  0
M  CHG  1   1  -1
M  END
