1,5
q = -1.0, confidence = 0.002

 20 20  0  0  0  0  0  0  0  0999 V2000
   -1.7698   -0.5042    0.0011 O   0  5  0  0  0  0  0  0  0  0  0  0
   -4.0316   -1.7800    0.0001 O   0  0  0  0  0  0  0  0  0  0  0  0
    0.6578    2.7129    0.0005 O   0  0  0  0  0  0  0  0  0  0  0  0
    1.4510    2.0815   -0.0006 H   0  0  0  0  0  0  0  0  0  0  0  0
   -0.3860    1.8399    0.0004 N   0  0  0  0  0  2  0  0  0  0  0  0
   -2.8521    0.2494    0.0004 C   0  0  0  0  0  0  0  0  0  0  0  0
   -4.1209   -0.4189    0.0000 C   0  0  0  0  0  0  0  0  0  0  0  0
   -5.3073    0.3210   -0.0004 C   0  0  0  0  0  0  0  0  0  0  0  0
   -6.2783   -0.1923   -0.0007 H   0  0  0  0  0  0  0  0  0  0  0  0
   -5.2668    1.7356   -0.0005 C   0  0  0  0  0  0  0  0  0  0  0  0
   -6.2089    2.3025   -0.0009 H   0  0  0  0  0  0  0  0  0  0  0  0
   -4.0476    2.4009   -0.0002 C   0  0  0  0  0  3  0  0  0  0  0  0
   -4.0098    3.5007   -0.0003 H   0  0  0  0  0  0  0  0  0  0  0  0
   -2.8227    1.6740    0.0002 C   0  0  0  0  0  0  0  0  0  0  0  0
   -1.5746    2.3929    0.0004 C   0  0  0  0  0  0  0  0  0  0  0  0
   -1.5960    3.4964    0.0005 H   0  0  0  0  0  0  0  0  0  0  0  0
   -5.2330   -2.5237    0.0003 C   0  0  0  0  0  0  0  0  0  0  0  0
   -4.9428   -3.5906    0.0008 H   0  0  0  0  0  0  0  0  0  0  0  0
   -5.8490   -2.3158   -0.9039 H   0  0  0  0  0  0  0  0  0  0  0  0
   -5.8493   -2.3150    0.9042 H   0  0  0  0  0  0  0  0  0  0  0  0
  2 17  1  0  0  0  0
  4  3  1  0  0  0  0
  5 15  1  0  0  0  0
  5  3  1  0  0  0  0
  6  1  1  0  0  0  0
  7  2  1  0  0  0  0
  7  6  2  0  0  0  0
  8  7  1  0  0  0  0
  9  8  1  0  0  0  0
 10  8  2  0  0  0  0
 10 12  1  0  0  0  0
 11 10  1  0  0  0  0
 12 14  1  0  0  0  0
 13 12  1  0  0  0  0
 14 15  2  0  0  0  0
 14  6  1  0  0  0  0
 15 16  1  0  0  0  0
 17 18  1  0  0  0  0
 17 20  1  0  0  0  0
 19 17  1  0  0  0  0
M  CHG  1   1  -1
M  END
