1,5
q = -1.0, confidence = 0.002

 20 20  0  0  1  0  0  0  0  0999 V2000
    1.7698    0.5042   -0.0011 O   0  0  0  0  0  1  0  0  0  0  0  0
    4.0316    1.7800   -0.0001 O   0  0  0  0  0  0  0  0  0  0  0  0
   -0.6578   -2.7130   -0.0006 O   0  0  0  0  0  0  0  0  0  0  0  0
   -1.4510   -2.0816    0.0005 H   0  0  0  0  0  0  0  0  0  0  0  0
    0.3860   -1.8399   -0.0004 N   0  0  0  0  0  2  0  0  0  0  0  0
    2.8521   -0.2494   -0.0004 C   0  0  2  0  0  3  0  0  0  0  0  0
    4.1209    0.4190   -0.0000 C   0  0  0  0  0  0  0  0  0  0  0  0
    5.3073   -0.3210    0.0005 C   0  0  0  0  0  0  0  0  0  0  0  0
    6.2783    0.1924    0.0008 H   0  0  0  0  0  0  0  0  0  0  0  0
    5.2669   -1.7356    0.0006 C   0  0  0  0  0  0  0  0  0  0  0  0
    6.2090   -2.3024    0.0009 H   0  0  0  0  0  0  0  0  0  0  0  0
    4.0476   -2.4008    0.0002 C   0  0  0  0  0  0  0  0  0  0  0  0
    4.0099   -3.5006    0.0004 H   0  0  0  0  0  0  0  0  0  0  0  0
    2.8227   -1.6740   -0.0002 C   0  0  0  0  0  0  0  0  0  0  0  0
    1.5746   -2.3929   -0.0004 C   0  0  0  0  0  0  0  0  0  0  0  0
    1.5961   -3.4964   -0.0005 H   0  0  0  0  0  0  0  0  0  0  0  0
    5.2330    2.5237   -0.0003 C   0  0  0  0  0  0  0  0  0  0  0  0
    4.9427    3.5906   -0.0008 H   0  0  0  0  0  0  0  0  0  0  0  0
    5.8490    2.3158    0.9040 H   0  0  0  0  0  0  0  0  0  0  0  0
    5.8493    2.3150   -0.9041 H   0  0  0  0  0  0  0  0  0  0  0  0
  2  7  1  0  0  0  0
  3  5  1  0  0  0  0
  3  4  1  0  0  0  0
  6  1  1  6  0  0  0
  6 14  1  0  0  0  0
  6  7  1  0  0  0  0
  7  8  2  0  0  0  0
  8 10  1  0  0  0  0
  8  9  1  0  0  0  0
 10 11  1  0  0  0  0
 12 13  1  0  0  0  0
 12 10  2  0  0  0  0
 14 12  1  0  0  0  0
 15  5  1  0  0  0  0
 15 14  2  0  0  0  0
 16 15  1  0  0  0  0
 17  2  1  0  0  0  0
 17 19  1  0  0  0  0
 18 17  1  0  0  0  0
 20 17  1  0  0  0  0
M  END
