1,8
q = -1.0, confidence = 0.0

 19 18  0  0  1  0  0  0  0  0999 V2000
    1.4040   -1.2107   -0.0714 O   0  0  0  0  0  1  0  0  0  0  0  0
    2.5990   -0.6063    0.3125 C   0  0  1  0  0  0  0  0  0  0  0  0
    3.7981   -1.4439   -0.1358 C   0  0  0  0  0  0  0  0  0  0  0  0
    4.7628   -0.9961    0.1807 H   0  0  0  0  0  0  0  0  0  0  0  0
    3.7229   -2.4587    0.3019 H   0  0  0  0  0  0  0  0  0  0  0  0
    3.7935   -1.5508   -1.2403 H   0  0  0  0  0  0  0  0  0  0  0  0
    2.6174    0.7974   -0.3023 C   0  0  0  0  0  0  0  0  0  0  0  0
    1.3005    1.4445   -0.0244 N   0  0  0  0  0  0  0  0  0  0  0  0
    0.9542    2.4630   -1.0339 C   0  0  0  0  0  0  0  0  0  0  0  0
    1.6523    3.3299   -0.9760 H   0  0  0  0  0  0  0  0  0  0  0  0
    1.0171    2.0134   -2.0425 H   0  0  0  0  0  0  0  0  0  0  0  0
   -0.0909    2.7753   -0.8500 H   0  0  0  0  0  0  0  0  0  0  0  0
    1.2364    2.0376    1.3275 C   0  0  0  0  0  0  0  0  0  0  0  0
    0.1913    2.3481    1.5146 H   0  0  0  0  0  0  0  0  0  0  0  0
    1.5316    1.2851    2.0821 H   0  0  0  0  0  0  0  0  0  0  0  0
    1.9209    2.9148    1.4059 H   0  0  0  0  0  0  0  0  0  0  0  0
    3.4525    1.4483    0.0499 H   0  0  0  0  0  0  0  0  0  0  0  0
    2.6995    0.6868   -1.4027 H   0  0  0  0  0  0  0  0  0  0  0  0
    2.6736   -0.4926    1.4337 H   0  0  0  0  0  0  0  0  0  0  0  0
  1  2  1  0  0  0  0
  2 19  1  1  0  0  0
  3  4  1  0  0  0  0
  3  5  1  0  0  0  0
  3  2  1  0  0  0  0
  6  3  1  0  0  0  0
  7  8  1  0  0  0  0
  7 17  1  0  0  0  0
  7  2  1  0  0  0  0
  8 13  1  0  0  0  0
  9 10  1  0  0  0  0
  9 12  1  0  0  0  0
  9  8  1  0  0  0  0
 11  9  1  0  0  0  0
 13 16  1  0  0  0  0
 13 14  1  0  0  0  0
 13 15  1  0  0  0  0
 18  7  1  0  0  0  0
M  END
