1,5
q = -1.0, confidence = 0.0

 31 32  0  0  1  0  0  0  0  0999 V2000
   -1.4877   -1.1365   -0.0058 O   0  0  0  0  0  1  0  0  0  0  0  0
   -2.7771   -0.8265   -0.0034 C   0  0  1  0  0  3  0  0  0  0  0  0
   -3.3060    0.5044   -0.0019 C   0  0  0  0  0  0  0  0  0  0  0  0
   -2.4181    1.6580   -0.0020 C   0  0  0  0  0  0  0  0  0  0  0  0
   -1.0686    1.5143   -0.0006 N   0  0  0  0  0  2  0  0  0  0  0  0
   -0.5194    2.7420   -0.0009 N   0  0  0  0  0  0  0  0  0  0  0  0
    0.5180    2.7299    0.0012 H   0  0  0  0  0  0  0  0  0  0  0  0
   -1.4742    3.7019   -0.0022 C   0  0  0  0  0  0  0  0  0  0  0  0
   -1.2135    4.7653   -0.0025 H   0  0  0  0  0  0  0  0  0  0  0  0
   -2.7087    3.0553   -0.0030 C   0  0  0  0  0  0  0  0  0  0  0  0
   -3.6946    3.5276   -0.0045 H   0  0  0  0  0  0  0  0  0  0  0  0
   -4.7093    0.6972   -0.0001 C   0  0  0  0  0  0  0  0  0  0  0  0
   -5.0756    1.7321    0.0013 H   0  0  0  0  0  0  0  0  0  0  0  0
   -5.6289   -0.3568    0.0001 C   0  0  0  0  0  0  0  0  0  0  0  0
   -7.1525   -0.1477    0.0019 C   0  0  0  0  0  0  0  0  0  0  0  0
   -7.7578   -0.8046    1.2634 C   0  0  0  0  0  0  0  0  0  0  0  0
   -7.5450   -1.8915    1.3022 H   0  0  0  0  0  0  0  0  0  0  0  0
   -7.3421   -0.3478    2.1842 H   0  0  0  0  0  0  0  0  0  0  0  0
   -8.8604   -0.6768    1.2806 H   0  0  0  0  0  0  0  0  0  0  0  0
   -7.7604   -0.8018   -1.2599 C   0  0  0  0  0  0  0  0  0  0  0  0
   -7.5476   -1.8886   -1.3015 H   0  0  0  0  0  0  0  0  0  0  0  0
   -8.8630   -0.6740   -1.2746 H   0  0  0  0  0  0  0  0  0  0  0  0
   -7.3464   -0.3429   -2.1804 H   0  0  0  0  0  0  0  0  0  0  0  0
   -7.5317    1.3430    0.0040 C   0  0  0  0  0  0  0  0  0  0  0  0
   -7.1460    1.8668   -0.8941 H   0  0  0  0  0  0  0  0  0  0  0  0
   -8.6350    1.4520    0.0053 H   0  0  0  0  0  0  0  0  0  0  0  0
   -7.1440    1.8648    0.9023 H   0  0  0  0  0  0  0  0  0  0  0  0
   -5.0883   -1.6673   -0.0016 C   0  0  0  0  0  0  0  0  0  0  0  0
   -5.7621   -2.5384   -0.0015 H   0  0  0  0  0  0  0  0  0  0  0  0
   -3.7158   -1.8956   -0.0032 C   0  0  0  0  0  0  0  0  0  0  0  0
   -3.3205   -2.9229   -0.0044 H   0  0  0  0  0  0  0  0  0  0  0  0
  2  1  1  6  0  0  0
  2 30  1  0  0  0  0
  2  3  1  0  0  0  0
  3 12  1  0  0  0  0
  4  3  2  0  0  0  0
  4  5  1  0  0  0  0
  6  5  1  0  0  0  0
  6  7  1  0  0  0  0
  8  6  1  0  0  0  0
  9  8  1  0  0  0  0
 10  8  2  0  0  0  0
 10  4  1  0  0  0  0
 11 10  1  0  0  0  0
 12 14  2  0  0  0  0
 12 13  1  0  0  0  0
 14 15  1  0  0  0  0
 15 24  1  0  0  0  0
 15 16  1  0  0  0  0
 16 19  1  0  0  0  0
 16 17  1  0  0  0  0
 16 18  1  0  0  0  0
 20 15  1  0  0  0  0
 21 20  1  0  0  0  0
 22 20  1  0  0  0  0
 23 20  1  0  0  0  0
 24 26  1  0  0  0  0
 24 27  1  0  0  0  0
 25 24  1  0  0  0  0
 28 29  1  0  0  0  0
 28 14  1  0  0  0  0
 30 28  2  0  0  0  0
 31 30  1  0  0  0  0
M  END
