1,2
q = -2.0, confidence = 0.92

 53 56  0  0  1  0  0  0  0  0999 V2000
    0.3740   -1.0626    0.2966 O   0  0  0  0  0  1  0  0  0  0  0  0
   -1.8711    1.0473    0.4670 N   0  0  0  0  0  2  0  0  0  0  0  0
   -0.9401    1.5402    1.3956 C   0  0  0  0  0  0  0  0  0  0  0  0
   -1.3773    1.9864    2.3139 H   0  0  0  0  0  0  0  0  0  0  0  0
    0.4168    1.5417    1.2805 C   0  0  0  0  0  0  0  0  0  0  0  0
    0.9874    1.9207    2.1420 H   0  0  0  0  0  0  0  0  0  0  0  0
    1.2013    1.1524    0.0587 C   0  0  2  0  0  0  0  0  0  0  0  0
    0.5056    1.2251   -0.8057 H   0  0  0  0  0  0  0  0  0  0  0  0
    1.5915   -0.4066    0.0625 C   0  0  0  0  0  0  0  0  0  0  0  0
   -2.9909    1.8689    0.2716 C   0  0  0  0  0  0  0  0  0  0  0  0
   -4.2789    1.3344    0.0074 C   0  0  0  0  0  0  0  0  0  0  0  0
   -4.4143    0.2442   -0.0062 H   0  0  0  0  0  0  0  0  0  0  0  0
   -5.3806    2.1710   -0.2122 C   0  0  0  0  0  0  0  0  0  0  0  0
   -6.3655    1.7218   -0.4147 H   0  0  0  0  0  0  0  0  0  0  0  0
   -5.2432    3.5675   -0.1552 C   0  0  0  0  0  0  0  0  0  0  0  0
   -6.1114    4.2220   -0.3222 H   0  0  0  0  0  0  0  0  0  0  0  0
   -3.9790    4.1130    0.1236 C   0  0  0  0  0  0  0  0  0  0  0  0
   -3.8494    5.2057    0.1690 H   0  0  0  0  0  0  0  0  0  0  0  0
   -2.8700    3.2836    0.3308 C   0  0  0  0  0  0  0  0  0  0  0  0
   -1.8776    3.7216    0.5144 H   0  0  0  0  0  0  0  0  0  0  0  0
    2.3139    2.1722   -0.1418 C   0  0  0  0  0  0  0  0  0  0  0  0
    3.3764    2.3273    0.7736 C   0  0  0  0  0  0  0  0  0  0  0  0
    3.4395    1.6773    1.6564 H   0  0  0  0  0  0  0  0  0  0  0  0
    4.3553    3.3139    0.5795 C   0  0  0  0  0  0  0  0  0  0  0  0
    5.1790    3.4077    1.3039 H   0  0  0  0  0  0  0  0  0  0  0  0
    4.2851    4.1810   -0.5214 C   0  0  0  0  0  0  0  0  0  0  0  0
    5.0545    4.9536   -0.6710 H   0  0  0  0  0  0  0  0  0  0  0  0
    3.2134    4.0643   -1.4201 C   0  0  0  0  0  0  0  0  0  0  0  0
    3.1301    4.7516   -2.2759 H   0  0  0  0  0  0  0  0  0  0  0  0
    2.2399    3.0741   -1.2254 C   0  0  0  0  0  0  0  0  0  0  0  0
    1.3905    3.0019   -1.9244 H   0  0  0  0  0  0  0  0  0  0  0  0
    2.5669   -0.7321    1.2014 C   0  0  0  0  0  0  0  0  0  0  0  0
    2.0719   -0.9137    2.5070 C   0  0  0  0  0  0  0  0  0  0  0  0
    0.9876   -0.8637    2.6682 H   0  0  0  0  0  0  0  0  0  0  0  0
    2.9459   -1.1532    3.5780 C   0  0  0  0  0  0  0  0  0  0  0  0
    2.5414   -1.2924    4.5925 H   0  0  0  0  0  0  0  0  0  0  0  0
    4.3311   -1.2206    3.3573 C   0  0  0  0  0  0  0  0  0  0  0  0
    5.0178   -1.4120    4.1961 H   0  0  0  0  0  0  0  0  0  0  0  0
    4.8327   -1.0509    2.0573 C   0  0  0  0  0  0  0  0  0  0  0  0
    5.9162   -1.1072    1.8716 H   0  0  0  0  0  0  0  0  0  0  0  0
    3.9571   -0.8101    0.9875 C   0  0  0  0  0  0  0  0  0  0  0  0
    4.3582   -0.6702   -0.0266 H   0  0  0  0  0  0  0  0  0  0  0  0
    2.1444   -0.9315   -1.2744 C   0  0  0  0  0  0  0  0  0  0  0  0
    2.3313   -2.3291   -1.3715 C   0  0  0  0  0  0  0  0  0  0  0  0
    2.1161   -2.9542   -0.4918 H   0  0  0  0  0  0  0  0  0  0  0  0
    2.7769   -2.9198   -2.5597 C   0  0  0  0  0  0  0  0  0  0  0  0
    2.9149   -4.0109   -2.6103 H   0  0  0  0  0  0  0  0  0  0  0  0
    3.0493   -2.1212   -3.6846 C   0  0  0  0  0  0  0  0  0  0  0  0
    3.3986   -2.5811   -4.6215 H   0  0  0  0  0  0  0  0  0  0  0  0
    2.8788   -0.7339   -3.5972 C   0  0  0  0  0  0  0  0  0  0  0  0
    3.0967   -0.0943   -4.4662 H   0  0  0  0  0  0  0  0  0  0  0  0
    2.4326   -0.1432   -2.4006 C   0  0  0  0  0  0  0  0  0  0  0  0
    2.3272    0.9467   -2.3560 H   0  0  0  0  0  0  0  0  0  0  0  0
  2  3  1  0  0  0  0
  3  4  1  0  0  0  0
  5  3  2  0  0  0  0
  5  6  1  0  0  0  0
  7  8  1  6  0  0  0
  7  9  1  0  0  0  0
  7  5  1  0  0  0  0
  9  1  1  0  0  0  0
  9 32  1  0  0  0  0
 10 19  1  0  0  0  0
 10  2  1  0  0  0  0
 11 10  2  0  0  0  0
 12 11  1  0  0  0  0
 13 15  2  0  0  0  0
 13 11  1  0  0  0  0
 14 13  1  0  0  0  0
 15 17  1  0  0  0  0
 16 15  1  0  0  0  0
 17 18  1  0  0  0  0
 17 19  2  0  0  0  0
 19 20  1  0  0  0  0
 21  7  1  0  0  0  0
 21 22  1  0  0  0  0
 22 23  1  0  0  0  0
 24 22  2  0  0  0  0
 24 25  1  0  0  0  0
 26 24  1  0  0  0  0
 27 26  1  0  0  0  0
 28 30  1  0  0  0  0
 28 26  2  0  0  0  0
 29 28  1  0  0  0  0
 30 21  2  0  0  0  0
 31 30  1  0  0  0  0
 32 33  1  0  0  0  0
 33 34  1  0  0  0  0
 33 35  2  0  0  0  0
 35 36  1  0  0  0  0
 37 35  1  0  0  0  0
 37 38  1  0  0  0  0
 39 37  2  0  0  0  0
 40 39  1  0  0  0  0
 41 32  2  0  0  0  0
 41 39  1  0  0  0  0
 42 41  1  0  0  0  0
 43  9  1  0  0  0  0
 44 43  1  0  0  0  0
 44 45  1  0  0  0  0
 46 44  2  0  0  0  0
 47 46  1  0  0  0  0
 48 50  2  0  0  0  0
 48 46  1  0  0  0  0
 49 48  1  0  0  0  0
 50 52  1  0  0  0  0
 51 50  1  0  0  0  0
 52 53  1  0  0  0  0
 52 43  2  0  0  0  0
M  END
