1,3
q = -1.0, confidence = 0.026

 16 16  0  0  1  0  0  0  0  0999 V2000
    0.2964   -1.8494   -1.4518 O   0  0  0  0  0  1  0  0  0  0  0  0
   -2.7969    1.1616    2.7534 O   0  0  0  0  0  0  0  0  0  0  0  0
   -1.6088   -0.8449    0.0005 N   0  0  0  0  0  2  0  0  0  0  0  0
   -2.0548   -1.7656   -0.9001 C   0  0  2  0  0  3  0  0  0  0  0  0
   -3.4000   -2.1345   -0.9784 C   0  0  0  0  0  0  0  0  0  0  0  0
   -4.3238   -1.5343   -0.1036 C   0  0  0  0  0  0  0  0  0  0  0  0
   -3.8655   -0.6075    0.8295 C   0  0  0  0  0  0  0  0  0  0  0  0
   -2.4973   -0.2738    0.8727 C   0  0  0  0  0  0  0  0  0  0  0  0
   -0.9843   -2.3400   -1.7854 C   0  0  0  0  0  0  0  0  0  0  0  0
   -2.0324    0.6799    1.9281 C   0  0  0  0  0  0  0  0  0  0  0  0
   -3.7142   -2.8838   -1.7190 H   0  0  0  0  0  0  0  0  0  0  0  0
   -5.3898   -1.8018   -0.1517 H   0  0  0  0  0  0  0  0  0  0  0  0
   -4.5198   -0.1084    1.5584 H   0  0  0  0  0  0  0  0  0  0  0  0
   -1.1947   -2.0881   -2.8514 H   0  0  0  0  0  0  0  0  0  0  0  0
   -0.9915   -3.4523   -1.7102 H   0  0  0  0  0  0  0  0  0  0  0  0
   -0.9259    0.8766    1.9514 H   0  0  0  0  0  0  0  0  0  0  0  0
  3  8  1  0  0  0  0
  4  9  1  1  0  0  0
  4  3  1  0  0  0  0
  5  4  1  0  0  0  0
  5  6  2  0  0  0  0
  6  7  1  0  0  0  0
  7  8  2  0  0  0  0
  7 13  1  0  0  0  0
  8 10  1  0  0  0  0
  9 15  1  0  0  0  0
  9  1  1  0  0  0  0
 10 16  1  0  0  0  0
 10  2  2  0  0  0  0
 11  5  1  0  0  0  0
 12  6  1  0  0  0  0
 14  9  1  0  0  0  0
M  END
