1,3
q = -2.0, confidence = 0.864

 17 17  0  0  1  0  0  0  0  0999 V2000
    2.4102   -0.5753   -0.5624 O   0  0  0  0  0  1  0  0  0  0  0  0
   -2.1455    3.0759   -1.4059 O   0  0  0  0  0  1  0  0  0  0  0  0
    0.8551    1.4383   -0.2322 N   0  0  0  0  0  2  0  0  0  0  0  0
    2.1841    1.7492   -0.0999 C   0  0  2  0  0  3  0  0  0  0  0  0
    2.6014    3.0803   -0.0091 C   0  0  0  0  0  0  0  0  0  0  0  0
    1.6453    4.1015   -0.1218 C   0  0  0  0  0  0  0  0  0  0  0  0
    0.3117    3.7643   -0.3759 C   0  0  0  0  0  0  0  0  0  0  0  0
   -0.0666    2.4191   -0.4232 C   0  0  0  0  0  0  0  0  0  0  0  0
    3.1119    0.5682   -0.1293 C   0  0  0  0  0  0  0  0  0  0  0  0
   -1.5175    2.0958   -0.8387 C   0  0  0  0  0  0  0  0  0  0  0  0
    3.6707    3.3035    0.1153 H   0  0  0  0  0  0  0  0  0  0  0  0
    1.9531    5.1561   -0.0498 H   0  0  0  0  0  0  0  0  0  0  0  0
   -0.4919    4.4881   -0.5820 H   0  0  0  0  0  0  0  0  0  0  0  0
    3.5457    0.3800    0.8851 H   0  0  0  0  0  0  0  0  0  0  0  0
    3.9688    0.7795   -0.8090 H   0  0  0  0  0  0  0  0  0  0  0  0
   -2.0326    1.6846    0.1260 H   0  0  0  0  0  0  0  0  0  0  0  0
   -1.4423    1.1020   -1.4182 H   0  0  0  0  0  0  0  0  0  0  0  0
  1  9  1  0  0  0  0
  2 10  1  0  0  0  0
  3  4  1  0  0  0  0
  4  9  1  6  0  0  0
  4  5  1  0  0  0  0
  5 11  1  0  0  0  0
  6 12  1  0  0  0  0
  6  5  2  0  0  0  0
  7  6  1  0  0  0  0
  8  7  2  0  0  0  0
  8  3  1  0  0  0  0
  9 14  1  0  0  0  0
 10  8  1  0  0  0  0
 10 16  1  0  0  0  0
 13  7  1  0  0  0  0
 15  9  1  0  0  0  0
 17 10  1  0  0  0  0
M  END
