8,18
q = 0.0, confidence = 1.0

 23 23  0  0  1  0  0  0  0  0999 V2000
    0.8603   -3.0304    2.9006 O   0  0  0  0  0  0  0  0  0  0  0  0
   -0.4294   -1.9012    1.4131 O   0  0  0  0  0  0  0  0  0  0  0  0
   -1.5960   -2.4466    2.0529 C   0  0  0  0  0  0  0  0  0  0  0  0
   -2.4650   -2.0006    1.5385 H   0  0  0  0  0  0  0  0  0  0  0  0
   -1.6067   -2.1878    3.1297 H   0  0  0  0  0  0  0  0  0  0  0  0
   -1.6099   -3.5500    1.9558 H   0  0  0  0  0  0  0  0  0  0  0  0
    0.7507   -2.2863    1.9457 C   0  0  0  0  0  0  0  0  0  0  0  0
    1.7484   -0.8800    0.1645 N   0  0  0  0  0  2  0  0  0  0  0  0
    1.9335   -1.6943    1.2279 C   0  0  2  0  0  3  0  0  0  0  0  0
    3.2144   -2.0234    1.7081 C   0  0  0  0  0  0  0  0  0  0  0  0
    3.2851   -2.6904    2.5787 H   0  0  0  0  0  0  0  0  0  0  0  0
    4.3421   -1.4950    1.0697 C   0  0  0  0  0  0  0  0  0  0  0  0
    5.3538   -1.7346    1.4273 H   0  0  0  0  0  0  0  0  0  0  0  0
    4.1547   -0.6574   -0.0392 C   0  0  0  0  0  0  0  0  0  0  0  0
    4.9997   -0.2191   -0.5870 H   0  0  0  0  0  0  0  0  0  0  0  0
    2.8461   -0.3803   -0.4594 C   0  0  0  0  0  0  0  0  0  0  0  0
    2.5307    0.4689   -1.6494 C   0  0  2  0  0  3  0  0  0  0  0  0
    1.3762    0.6228   -2.0545 O   0  0  0  0  0  1  0  0  0  0  0  0
    3.6006    1.0122   -2.2187 O   0  0  0  0  0  0  0  0  0  0  0  0
    3.3653    1.8249   -3.3879 C   0  0  0  0  0  0  0  0  0  0  0  0
    4.3566    2.1923   -3.7018 H   0  0  0  0  0  0  0  0  0  0  0  0
    2.6934    2.6682   -3.1369 H   0  0  0  0  0  0  0  0  0  0  0  0
    2.9001    1.2172   -4.1882 H   0  0  0  0  0  0  0  0  0  0  0  0
  2  7  1  0  0  0  0
  2  3  1  0  0  0  0
  3  5  1  0  0  0  0
  4  3  1  0  0  0  0
  6  3  1  0  0  0  0
  7  1  2  0  0  0  0
  8  9  1  0  0  0  0
  9 10  1  0  0  0  0
  9  7  1  6  0  0  0
 10 11  1  0  0  0  0
 12 13  1  0  0  0  0
 12 10  2  0  0  0  0
 14 12  1  0  0  0  0
 15 14  1  0  0  0  0
 16 14  2  0  0  0  0
 16  8  1  0  0  0  0
 17 18  1  6  0  0  0
 17 16  1  0  0  0  0
 19 17  1  0  0  0  0
 20 22  1  0  0  0  0
 20 19  1  0  0  0  0
 21 20  1  0  0  0  0
 23 20  1  0  0  0  0
M  END
