1,15
q = -1.0, confidence = 0.0

 16 16  0  0  1  0  0  0  0  0999 V2000
   -1.8097    1.7005   -0.6833 N   0  0  0  0  0  2  0  0  0  0  0  0
   -1.4845    2.9872   -0.3597 C   0  0  2  0  0  3  0  0  0  0  0  0
   -2.3559    4.0418   -0.6923 C   0  0  0  0  0  0  0  0  0  0  0  0
   -2.0707    5.0684   -0.4218 H   0  0  0  0  0  0  0  0  0  0  0  0
   -3.5620    3.7768   -1.3500 C   0  0  0  0  0  0  0  0  0  0  0  0
   -4.2462    4.5982   -1.6113 H   0  0  0  0  0  0  0  0  0  0  0  0
   -3.8837    2.4477   -1.6618 C   0  0  0  0  0  0  0  0  0  0  0  0
   -4.8220    2.1837   -2.1692 H   0  0  0  0  0  0  0  0  0  0  0  0
   -2.9814    1.4417   -1.3078 C   0  0  0  0  0  0  0  0  0  0  0  0
   -3.1958    0.3797   -1.4997 H   0  0  0  0  0  0  0  0  0  0  0  0
   -0.1777    3.2255    0.3246 C   0  0  0  0  0  0  0  0  0  0  0  0
   -0.0543    4.2918    0.5842 H   0  0  0  0  0  0  0  0  0  0  0  0
   -0.1334    2.6295    1.2631 H   0  0  0  0  0  0  0  0  0  0  0  0
    1.0509    2.7756   -0.5297 C   0  0  0  0  0  0  0  0  0  0  0  0
    0.9524    1.5794   -1.0331 O   0  5  0  0  0  0  0  0  0  0  0  0
    2.0154    3.5262   -0.6439 O   0  0  0  0  0  0  0  0  0  0  0  0
  1  2  1  0  0  0  0
  2 11  1  6  0  0  0
  3  4  1  0  0  0  0
  3  2  1  0  0  0  0
  5  3  2  0  0  0  0
  6  5  1  0  0  0  0
  7  5  1  0  0  0  0
  7  9  2  0  0  0  0
  8  7  1  0  0  0  0
  9  1  1  0  0  0  0
 10  9  1  0  0  0  0
 11 12  1  0  0  0  0
 11 13  1  0  0  0  0
 14 11  1  0  0  0  0
 15 14  1  0  0  0  0
 16 14  2  0  0  0  0
M  CHG  1  15  -1
M  END
