1,2
q = -1.0, confidence = 0.038

 42 46  0  0  0  0  0  0  0  0999 V2000
    3.4554   -0.4109    0.2072 O   0  5  0  0  0  0  0  0  0  0  0  0
    1.1546    0.5822   -0.3222 N   0  0  0  0  0  2  0  0  0  0  0  0
    2.2108    1.4398   -0.3988 N   0  0  0  0  0  0  0  0  0  0  0  0
    3.3631    0.8370   -0.1383 C   0  0  0  0  0  0  0  0  0  0  0  0
    4.6141    1.6290   -0.2294 C   0  0  0  0  0  0  0  0  0  0  0  0
    5.8546    1.0069    0.0230 C   0  0  0  0  0  0  0  0  0  0  0  0
    5.8658   -0.0626    0.2763 H   0  0  0  0  0  0  0  0  0  0  0  0
    7.0416    1.7466   -0.0577 C   0  0  0  0  0  0  0  0  0  0  0  0
    8.0071    1.2554    0.1374 H   0  0  0  0  0  0  0  0  0  0  0  0
    7.0014    3.1109   -0.3895 C   0  0  0  0  0  0  0  0  0  0  0  0
    7.9350    3.6906   -0.4533 H   0  0  0  0  0  0  0  0  0  0  0  0
    5.7673    3.7341   -0.6437 C   0  0  0  0  0  0  0  0  0  0  0  0
    5.7339    4.8022   -0.9075 H   0  0  0  0  0  0  0  0  0  0  0  0
    4.5782    2.9994   -0.5666 C   0  0  0  0  0  0  0  0  0  0  0  0
    3.6030    3.4647   -0.7667 H   0  0  0  0  0  0  0  0  0  0  0  0
   -0.0146    1.1081   -0.6201 C   0  0  0  0  0  3  0  0  0  0  0  0
    0.0145    2.1977   -0.8046 H   0  0  0  0  0  0  0  0  0  0  0  0
   -1.2805    0.4013   -0.7813 C   0  0  0  0  0  0  0  0  0  0  0  0
   -2.4877    0.9842   -0.2763 C   0  0  0  0  0  0  0  0  0  0  0  0
   -2.4936    2.1905    0.5079 C   0  0  0  0  0  0  0  0  0  0  0  0
   -1.5365    2.6832    0.7327 H   0  0  0  0  0  0  0  0  0  0  0  0
   -3.6626    2.7293    0.9921 C   0  0  0  0  0  0  0  0  0  0  0  0
   -3.6397    3.6554    1.5873 H   0  0  0  0  0  0  0  0  0  0  0  0
   -4.9328    2.1044    0.7476 C   0  0  0  0  0  0  0  0  0  0  0  0
   -6.1465    2.6399    1.2366 C   0  0  0  0  0  0  0  0  0  0  0  0
   -6.1207    3.5728    1.8207 H   0  0  0  0  0  0  0  0  0  0  0  0
   -7.3654    1.9972    0.9846 C   0  0  0  0  0  0  0  0  0  0  0  0
   -8.3010    2.4283    1.3717 H   0  0  0  0  0  0  0  0  0  0  0  0
   -7.4017    0.8080    0.2437 C   0  0  0  0  0  0  0  0  0  0  0  0
   -8.3620    0.3058    0.0488 H   0  0  0  0  0  0  0  0  0  0  0  0
   -6.2149    0.2337   -0.2653 C   0  0  0  0  0  0  0  0  0  0  0  0
   -6.2191   -0.9854   -1.0283 C   0  0  0  0  0  0  0  0  0  0  0  0
   -7.1840   -1.4806   -1.2186 H   0  0  0  0  0  0  0  0  0  0  0  0
   -5.0515   -1.5260   -1.5118 C   0  0  0  0  0  0  0  0  0  0  0  0
   -5.0686   -2.4600   -2.0947 H   0  0  0  0  0  0  0  0  0  0  0  0
   -3.7827   -0.8950   -1.2752 C   0  0  0  0  0  0  0  0  0  0  0  0
   -2.5690   -1.4311   -1.7654 C   0  0  0  0  0  0  0  0  0  0  0  0
   -2.5966   -2.3544   -2.3654 H   0  0  0  0  0  0  0  0  0  0  0  0
   -1.3475   -0.8012   -1.5263 C   0  0  0  0  0  0  0  0  0  0  0  0
   -0.4139   -1.2182   -1.9389 H   0  0  0  0  0  0  0  0  0  0  0  0
   -3.7428    0.3289   -0.5227 C   0  0  0  0  0  0  0  0  0  0  0  0
   -4.9594    0.8879   -0.0151 C   0  0  0  0  0  0  0  0  0  0  0  0
  3  2  1  0  0  0  0
  3  4  2  0  0  0  0
  4  1  1  0  0  0  0
  5  4  1  0  0  0  0
  5  6  1  0  0  0  0
  6  7  1  0  0  0  0
  8  6  2  0  0  0  0
  8  9  1  0  0  0  0
 10  8  1  0  0  0  0
 11 10  1  0  0  0  0
 12 14  1  0  0  0  0
 12 10  2  0  0  0  0
 13 12  1  0  0  0  0
 14  5  2  0  0  0  0
 15 14  1  0  0  0  0
 16  2  1  0  0  0  0
 17 16  1  0  0  0  0
 18 16  1  0  0  0  0
 18 19  1  0  0  0  0
 19 20  1  0  0  0  0
 20 21  1  0  0  0  0
 20 22  2  0  0  0  0
 22 23  1  0  0  0  0
 24 22  1  0  0  0  0
 24 25  1  0  0  0  0
 25 26  1  0  0  0  0
 27 25  2  0  0  0  0
 27 28  1  0  0  0  0
 29 27  1  0  0  0  0
 30 29  1  0  0  0  0
 31 42  1  0  0  0  0
 31 29  2  0  0  0  0
 32 31  1  0  0  0  0
 33 32  1  0  0  0  0
 34 36  1  0  0  0  0
 34 32  2  0  0  0  0
 35 34  1  0  0  0  0
 36 41  1  0  0  0  0
 37 39  1  0  0  0  0
 37 36  2  0  0  0  0
 38 37  1  0  0  0  0
 39 18  2  0  0  0  0
 40 39  1  0  0  0  0
 41 19  2  0  0  0  0
 41 42  1  0  0  0  0
 42 24  2  0  0  0  0
M  CHG  1   1  -1
M  END
