2,3
q = -1.0, confidence = 0.0

 32 32  0  0  1  0  0  0  0  0999 V2000
   -7.3866   -0.1730    0.1566 Br  0  0  0  0  0  0  0  0  0  0  0  0
   -1.4828    0.2663   -1.1292 O   0  0  0  0  0  1  0  0  0  0  0  0
   -0.9690   -1.2624    1.0678 N   0  0  0  0  0  2  0  0  0  0  0  0
    0.6875   -2.4193   -1.2006 N   0  0  0  0  0  0  0  0  0  0  0  0
   -3.2087   -0.6149    0.3065 C   0  0  0  0  0  0  0  0  0  0  0  0
   -2.7402    0.1505   -0.8186 C   0  0  2  0  0  3  0  0  0  0  0  0
   -3.7282    0.7798   -1.6393 C   0  0  0  0  0  0  0  0  0  0  0  0
   -3.3821    1.3487   -2.5148 H   0  0  0  0  0  0  0  0  0  0  0  0
   -5.0854    0.6872   -1.3483 C   0  0  0  0  0  0  0  0  0  0  0  0
   -5.8244    1.1908   -1.9885 H   0  0  0  0  0  0  0  0  0  0  0  0
   -5.5230   -0.0582   -0.2275 C   0  0  0  0  0  0  0  0  0  0  0  0
   -4.5985   -0.7102    0.5812 C   0  0  0  0  0  0  0  0  0  0  0  0
   -4.9376   -1.3071    1.4412 H   0  0  0  0  0  0  0  0  0  0  0  0
   -2.2757   -1.3512    1.1092 C   0  0  0  0  0  0  0  0  0  0  0  0
   -2.7149   -2.0904    1.8109 H   0  0  0  0  0  0  0  0  0  0  0  0
   -0.2384   -2.2859    1.8252 C   0  0  0  0  0  0  0  0  0  0  0  0
   -0.8571   -2.5937    2.6966 H   0  0  0  0  0  0  0  0  0  0  0  0
    0.6938   -1.8282    2.2010 H   0  0  0  0  0  0  0  0  0  0  0  0
    0.0811   -3.5338    0.9867 C   0  0  0  0  0  0  0  0  0  0  0  0
    0.5051   -4.2946    1.6762 H   0  0  0  0  0  0  0  0  0  0  0  0
   -0.8680   -3.9716    0.6075 H   0  0  0  0  0  0  0  0  0  0  0  0
    1.0865   -3.3522   -0.1541 C   0  0  0  0  0  0  0  0  0  0  0  0
    2.0429   -2.9795    0.2705 H   0  0  0  0  0  0  0  0  0  0  0  0
    1.3108   -4.3691   -0.5826 H   0  0  0  0  0  0  0  0  0  0  0  0
   -0.5250   -2.7912   -1.9055 C   0  0  0  0  0  0  0  0  0  0  0  0
   -0.4260   -3.7585   -2.4671 H   0  0  0  0  0  0  0  0  0  0  0  0
   -0.7895   -1.9918   -2.6252 H   0  0  0  0  0  0  0  0  0  0  0  0
   -1.3775   -2.8848   -1.2057 H   0  0  0  0  0  0  0  0  0  0  0  0
    1.7772   -2.1470   -2.1203 C   0  0  0  0  0  0  0  0  0  0  0  0
    2.6723   -1.8096   -1.5619 H   0  0  0  0  0  0  0  0  0  0  0  0
    1.4856   -1.3362   -2.8183 H   0  0  0  0  0  0  0  0  0  0  0  0
    2.0688   -3.0421   -2.7329 H   0  0  0  0  0  0  0  0  0  0  0  0
  3 14  1  0  0  0  0
  3 16  1  0  0  0  0
  4 22  1  0  0  0  0
  5 12  1  0  0  0  0
  5 14  2  0  0  0  0
  6  2  1  6  0  0  0
  6  5  1  0  0  0  0
  7  9  2  0  0  0  0
  7  6  1  0  0  0  0
  8  7  1  0  0  0  0
  9 11  1  0  0  0  0
 10  9  1  0  0  0  0
 11  1  1  0  0  0  0
 11 12  2  0  0  0  0
 12 13  1  0  0  0  0
 14 15  1  0  0  0  0
 16 18  1  0  0  0  0
 16 17  1  0  0  0  0
 19 20  1  0  0  0  0
 19 16  1  0  0  0  0
 21 19  1  0  0  0  0
 22 23  1  0  0  0  0
 22 19  1  0  0  0  0
 24 22  1  0  0  0  0
 25 28  1  0  0  0  0
 25  4  1  0  0  0  0
 26 25  1  0  0  0  0
 27 25  1  0  0  0  0
 29 30  1  0  0  0  0
 29  4  1  0  0  0  0
 31 29  1  0  0  0  0
 32 29  1  0  0  0  0
M  END
