1,2
q = -1.0, confidence = 0.0

 16 15  0  0  0  0  0  0  0  0999 V2000
    2.2191   -0.4577   -0.1735 N   0  0  0  0  0  0  0  0  0  0  0  0
    0.8236    1.9375   -0.4210 O   0  0  0  0  0  1  0  0  0  0  0  0
    2.1971    2.0060   -0.2005 C   0  0  0  0  0  0  0  0  0  0  0  0
    2.4711    2.1094    0.8864 H   0  0  0  0  0  0  0  0  0  0  0  0
    2.6231    2.9091   -0.7049 H   0  0  0  0  0  0  0  0  0  0  0  0
    2.8610    0.7619   -0.7759 C   0  0  0  0  0  0  0  0  0  0  0  0
    2.6566    0.7287   -1.8641 H   0  0  0  0  0  0  0  0  0  0  0  0
    3.9647    0.7178   -0.6204 H   0  0  0  0  0  0  0  0  0  0  0  0
    2.3721   -1.6255   -1.0678 C   0  0  0  0  0  0  0  0  0  0  0  0
    3.4518   -1.8534   -1.2198 H   0  0  0  0  0  0  0  0  0  0  0  0
    1.9006   -1.4014   -2.0423 H   0  0  0  0  0  0  0  0  0  0  0  0
    1.8570   -2.4914   -0.6138 H   0  0  0  0  0  0  0  0  0  0  0  0
    2.7948   -0.7632    1.1560 C   0  0  0  0  0  0  0  0  0  0  0  0
    2.2286   -1.6012    1.6018 H   0  0  0  0  0  0  0  0  0  0  0  0
    2.7060    0.1212    1.8132 H   0  0  0  0  0  0  0  0  0  0  0  0
    3.8702   -1.0363    1.0538 H   0  0  0  0  0  0  0  0  0  0  0  0
  1 13  1  0  0  0  0
  2  3  1  0  0  0  0
  3  4  1  0  0  0  0
  5  3  1  0  0  0  0
  6  8  1  0  0  0  0
  6  3  1  0  0  0  0
  6  1  1  0  0  0  0
  7  6  1  0  0  0  0
  9 12  1  0  0  0  0
  9  1  1  0  0  0  0
 10  9  1  0  0  0  0
 11  9  1  0  0  0  0
 13 14  1  0  0  0  0
 13 15  1  0  0  0  0
 16 13  1  0  0  0  0
M  END
