2,3
q = 0.0, confidence = 0.994

 39 39  0  0  0  0  0  0  0  0999 V2000
   -6.3907   -1.6161   -0.3219 Cl  0  0  0  0  0  0  0  0  0  0  0  0
   -1.5712    1.8048   -0.1764 O   0  5  0  0  0  0  0  0  0  0  0  0
   -0.2987   -0.4108    1.2970 N   0  0  0  0  0  2  0  0  0  0  0  0
    3.9236   -1.2278    0.2512 N   0  3  0  0  0  0  0  0  0  0  0  0
   -2.6042   -0.3228    0.4112 C   0  0  0  0  0  0  0  0  0  0  0  0
   -2.5911    1.0152   -0.1690 C   0  0  0  0  0  0  0  0  0  0  0  0
   -3.8269    1.4707   -0.7460 C   0  0  0  0  0  0  0  0  0  0  0  0
   -3.8235    2.4854   -1.1699 H   0  0  0  0  0  0  0  0  0  0  0  0
   -4.9629    0.6798   -0.7980 C   0  0  0  0  0  0  0  0  0  0  0  0
   -5.8869    1.0536   -1.2633 H   0  0  0  0  0  0  0  0  0  0  0  0
   -4.9453   -0.6286   -0.2494 C   0  0  0  0  0  0  0  0  0  0  0  0
   -3.7927   -1.1101    0.3495 C   0  0  0  0  0  0  0  0  0  0  0  0
   -3.7919   -2.1174    0.7939 H   0  0  0  0  0  0  0  0  0  0  0  0
   -1.5061   -0.8928    1.1412 C   0  0  0  0  0  3  0  0  0  0  0  0
   -1.7463   -1.8528    1.6567 H   0  0  0  0  0  0  0  0  0  0  0  0
    0.5770   -1.0939    2.2411 C   0  0  0  0  0  0  0  0  0  0  0  0
    0.3363   -2.1846    2.2821 H   0  0  0  0  0  0  0  0  0  0  0  0
    0.3874   -0.6946    3.2632 H   0  0  0  0  0  0  0  0  0  0  0  0
    2.0641   -0.8703    1.9435 C   0  0  0  0  0  0  0  0  0  0  0  0
    2.2346    0.2281    1.9753 H   0  0  0  0  0  0  0  0  0  0  0  0
    2.6593   -1.3423    2.7573 H   0  0  0  0  0  0  0  0  0  0  0  0
    2.4593   -1.4317    0.5875 C   0  0  0  0  0  0  0  0  0  0  0  0
    2.2985   -2.5291    0.5519 H   0  0  0  0  0  0  0  0  0  0  0  0
    1.8723   -0.9815   -0.2492 H   0  0  0  0  0  0  0  0  0  0  0  0
    4.3660    0.2396    0.1560 C   0  0  0  0  0  0  0  0  0  0  0  0
    5.4437    0.2350    0.4156 H   0  0  0  0  0  0  0  0  0  0  0  0
    3.8091    0.7842    0.9436 H   0  0  0  0  0  0  0  0  0  0  0  0
    4.0938    0.9052   -1.1769 C   0  0  0  0  0  0  0  0  0  0  0  0
    4.7623    0.5559   -1.9883 H   0  0  0  0  0  0  0  0  0  0  0  0
    4.2534    1.9909   -1.0332 H   0  0  0  0  0  0  0  0  0  0  0  0
    3.0332    0.7880   -1.4892 H   0  0  0  0  0  0  0  0  0  0  0  0
    4.2919   -2.0417   -0.9649 C   0  0  0  0  0  0  0  0  0  0  0  0
    3.8937   -3.0588   -0.7811 H   0  0  0  0  0  0  0  0  0  0  0  0
    3.7120   -1.6100   -1.8036 H   0  0  0  0  0  0  0  0  0  0  0  0
    5.7866   -2.0850   -1.2295 C   0  0  0  0  0  0  0  0  0  0  0  0
    6.2017   -1.0941   -1.4938 H   0  0  0  0  0  0  0  0  0  0  0  0
    5.9789   -2.7631   -2.0833 H   0  0  0  0  0  0  0  0  0  0  0  0
    6.3496   -2.4845   -0.3602 H   0  0  0  0  0  0  0  0  0  0  0  0
    4.4604   -1.6154    1.0470 H   0  0  0  0  0  0  0  0  0  0  0  0
  1 11  1  0  0  0  0
  2  6  1  0  0  0  0
  3 16  1  0  0  0  0
  4 22  1  0  0  0  0
  4 39  1  0  0  0  0
  5 14  1  0  0  0  0
  6  5  2  0  0  0  0
  7  6  1  0  0  0  0
  8  7  1  0  0  0  0
  9  7  2  0  0  0  0
  9 11  1  0  0  0  0
 10  9  1  0  0  0  0
 11 12  2  0  0  0  0
 12  5  1  0  0  0  0
 12 13  1  0  0  0  0
 14  3  1  0  0  0  0
 14 15  1  0  0  0  0
 16 17  1  0  0  0  0
 16 18  1  0  0  0  0
 19 20  1  0  0  0  0
 19 16  1  0  0  0  0
 19 21  1  0  0  0  0
 22 19  1  0  0  0  0
 23 22  1  0  0  0  0
 24 22  1  0  0  0  0
 25  4  1  0  0  0  0
 25 26  1  0  0  0  0
 25 27  1  0  0  0  0
 28 30  1  0  0  0  0
 28 25  1  0  0  0  0
 29 28  1  0  0  0  0
 31 28  1  0  0  0  0
 32 33  1  0  0  0  0
 32  4  1  0  0  0  0
 34 32  1  0  0  0  0
 35 32  1  0  0  0  0
 35 38  1  0  0  0  0
 36 35  1  0  0  0  0
 37 35  1  0  0  0  0
M  CHG  2   2  -1   4   1
M  END
