2,4
q = -1.0, confidence = 0.022

 26 27  0  0  0  0  0  0  0  0999 V2000
    4.5762   -2.0801    1.5056 S   0  0  0  0  0  0  0  0  0  0  0  0
    1.7017   -0.7160    0.6349 N   0  0  0  0  0  2  0  0  0  0  0  0
    2.3905   -1.3418   -0.3551 N   0  0  0  0  0  0  0  0  0  0  0  0
    0.3777   -1.1337   -1.4683 O   0  5  0  0  0  0  0  0  0  0  0  0
    4.4522   -2.1537   -1.7370 O   0  0  0  0  0  0  0  0  0  0  0  0
    3.9119   -1.7628   -0.9790 H   0  0  0  0  0  0  0  0  0  0  0  0
    1.6166   -1.5273   -1.4369 C   0  0  0  0  0  0  0  0  0  0  0  0
    2.1915   -2.1542   -2.6316 C   0  0  0  0  0  0  0  0  0  0  0  0
    1.3478   -2.4665   -3.7248 C   0  0  0  0  0  0  0  0  0  0  0  0
    0.2759   -2.2441   -3.6210 H   0  0  0  0  0  0  0  0  0  0  0  0
    1.8583   -3.0425   -4.8872 C   0  0  0  0  0  0  0  0  0  0  0  0
    1.1902   -3.2871   -5.7255 H   0  0  0  0  0  0  0  0  0  0  0  0
    3.2408   -3.3128   -4.9724 C   0  0  0  0  0  0  0  0  0  0  0  0
    3.6554   -3.7683   -5.8851 H   0  0  0  0  0  0  0  0  0  0  0  0
    4.0956   -3.0110   -3.9117 C   0  0  0  0  0  0  0  0  0  0  0  0
    5.1749   -3.2138   -3.9643 H   0  0  0  0  0  0  0  0  0  0  0  0
    3.5932   -2.4322   -2.7226 C   0  0  0  0  0  0  0  0  0  0  0  0
    2.1814   -0.6055    1.8501 C   0  0  0  0  0  3  0  0  0  0  0  0
    1.5140   -0.0784    2.5498 H   0  0  0  0  0  0  0  0  0  0  0  0
    3.4180   -1.0987    2.3795 C   0  0  0  0  0  0  0  0  0  0  0  0
    3.8493   -0.8872    3.6966 C   0  0  0  0  0  0  0  0  0  0  0  0
    3.2631   -0.2987    4.4161 H   0  0  0  0  0  0  0  0  0  0  0  0
    5.0920   -1.5046    3.9824 C   0  0  0  0  0  0  0  0  0  0  0  0
    5.5980   -1.4562    4.9559 H   0  0  0  0  0  0  0  0  0  0  0  0
    5.6044   -2.1863    2.8879 C   0  0  0  0  0  0  0  0  0  0  0  0
    6.5416   -2.7534    2.8232 H   0  0  0  0  0  0  0  0  0  0  0  0
  1 20  1  0  0  0  0
  1 25  1  0  0  0  0
  2 18  1  0  0  0  0
  3  2  1  0  0  0  0
  4  7  1  0  0  0  0
  5  6  1  0  0  0  0
  7  3  2  0  0  0  0
  8  7  1  0  0  0  0
  9 10  1  0  0  0  0
  9  8  2  0  0  0  0
 11  9  1  0  0  0  0
 12 11  1  0  0  0  0
 13 11  2  0  0  0  0
 13 15  1  0  0  0  0
 14 13  1  0  0  0  0
 15 17  2  0  0  0  0
 16 15  1  0  0  0  0
 17  8  1  0  0  0  0
 17  5  1  0  0  0  0
 18 20  1  0  0  0  0
 18 19  1  0  0  0  0
 20 21  2  0  0  0  0
 21 23  1  0  0  0  0
 21 22  1  0  0  0  0
 23 24  1  0  0  0  0
 25 23  2  0  0  0  0
 26 25  1  0  0  0  0
M  CHG  1   4  -1
M  END
