1,18
q = -1.0, confidence = 0.004

 18 18  0  0  1  0  0  0  0  0999 V2000
   -0.3532   -1.4738    1.2822 N   0  0  0  0  0  2  0  0  0  0  0  0
    0.3108   -1.8070    1.9948 H   0  0  0  0  0  0  0  0  0  0  0  0
   -1.4796   -2.1641    1.2798 C   0  0  2  0  0  3  0  0  0  0  0  0
   -2.5462   -1.9267    0.3225 C   0  0  0  0  0  0  0  0  0  0  0  0
   -1.6441   -3.2323    2.3356 C   0  0  0  0  0  0  0  0  0  0  0  0
   -0.7250   -3.3321    2.9447 H   0  0  0  0  0  0  0  0  0  0  0  0
   -2.4818   -2.9934    3.0220 H   0  0  0  0  0  0  0  0  0  0  0  0
   -1.8694   -4.2176    1.8822 H   0  0  0  0  0  0  0  0  0  0  0  0
   -3.7845   -2.6224    0.4846 C   0  0  0  0  0  0  0  0  0  0  0  0
   -3.9139   -3.2867    1.3496 H   0  0  0  0  0  0  0  0  0  0  0  0
   -4.8391   -2.4889   -0.4069 C   0  0  0  0  0  0  0  0  0  0  0  0
   -5.7779   -3.0358   -0.2410 H   0  0  0  0  0  0  0  0  0  0  0  0
   -4.6865   -1.6451   -1.5327 C   0  0  0  0  0  0  0  0  0  0  0  0
   -5.5124   -1.5317   -2.2518 H   0  0  0  0  0  0  0  0  0  0  0  0
   -3.5007   -0.9542   -1.7357 C   0  0  0  0  0  0  0  0  0  0  0  0
   -3.3634   -0.2923   -2.6031 H   0  0  0  0  0  0  0  0  0  0  0  0
   -2.4028   -1.0537   -0.8263 C   0  0  0  0  0  0  0  0  0  0  0  0
   -1.3318   -0.3561   -1.1280 O   0  5  0  0  0  0  0  0  0  0  0  0
  1  2  1  0  0  0  0
  3  1  1  1  0  0  0
  3  5  1  0  0  0  0
  4  9  1  0  0  0  0
  4  3  1  0  0  0  0
  5  6  1  0  0  0  0
  5  7  1  0  0  0  0
  8  5  1  0  0  0  0
  9 10  1  0  0  0  0
 11 12  1  0  0  0  0
 11  9  2  0  0  0  0
 13 11  1  0  0  0  0
 14 13  1  0  0  0  0
 15 13  2  0  0  0  0
 15 17  1  0  0  0  0
 16 15  1  0  0  0  0
 17  4  2  0  0  0  0
 18 17  1  0  0  0  0
M  CHG  1  18  -1
M  END
