1,2
q = -1.0, confidence = 0.0

 35 36  0  0  1  0  0  0  0  0999 V2000
    1.8570    0.3712    1.3225 O   0  5  0  0  0  0  0  0  0  0  0  0
   -0.1023    1.4489   -0.1770 N   0  0  0  0  0  2  0  0  0  0  0  0
    2.7032    1.1319    0.6975 C   0  0  0  0  0  0  0  0  0  0  0  0
    2.2599    2.0544   -0.2507 C   0  0  0  0  0  0  0  0  0  0  0  0
    2.9872    2.7003   -0.7485 H   0  0  0  0  0  0  0  0  0  0  0  0
    0.9051    2.1551   -0.6648 C   0  0  1  0  0  3  0  0  0  0  0  0
    4.1292    0.9218    1.0388 C   0  0  0  0  0  0  0  0  0  0  0  0
    4.4415    0.0082    2.0718 C   0  0  0  0  0  0  0  0  0  0  0  0
    3.6140   -0.4947    2.5928 H   0  0  0  0  0  0  0  0  0  0  0  0
    5.7747   -0.2513    2.4083 C   0  0  0  0  0  0  0  0  0  0  0  0
    6.0057   -0.9640    3.2142 H   0  0  0  0  0  0  0  0  0  0  0  0
    6.8151    0.3958    1.7208 C   0  0  0  0  0  0  0  0  0  0  0  0
    7.8637    0.1911    1.9851 H   0  0  0  0  0  0  0  0  0  0  0  0
    6.5141    1.3068    0.6932 C   0  0  0  0  0  0  0  0  0  0  0  0
    7.3255    1.8140    0.1499 H   0  0  0  0  0  0  0  0  0  0  0  0
    5.1818    1.5685    0.3531 C   0  0  0  0  0  0  0  0  0  0  0  0
    4.9634    2.2714   -0.4632 H   0  0  0  0  0  0  0  0  0  0  0  0
   -1.4356    1.5863   -0.6777 C   0  0  0  0  0  0  0  0  0  0  0  0
   -1.8624    0.8784   -1.8146 C   0  0  0  0  0  0  0  0  0  0  0  0
   -1.1490    0.2623   -2.3776 H   0  0  0  0  0  0  0  0  0  0  0  0
   -3.2084    0.9281   -2.2067 C   0  0  0  0  0  0  0  0  0  0  0  0
   -3.5280    0.3550   -3.0914 H   0  0  0  0  0  0  0  0  0  0  0  0
   -4.1579    1.6746   -1.4853 C   0  0  0  0  0  0  0  0  0  0  0  0
   -3.7060    2.3969   -0.3600 C   0  0  0  0  0  0  0  0  0  0  0  0
   -4.4254    2.9915    0.2247 H   0  0  0  0  0  0  0  0  0  0  0  0
   -2.3712    2.3524    0.0480 C   0  0  0  0  0  0  0  0  0  0  0  0
   -2.0336    2.8833    0.9487 H   0  0  0  0  0  0  0  0  0  0  0  0
   -5.6174    1.6658   -1.8591 C   0  0  0  0  0  0  0  0  0  0  0  0
   -6.0628    2.6790   -1.7922 H   0  0  0  0  0  0  0  0  0  0  0  0
   -6.1905    1.0118   -1.1669 H   0  0  0  0  0  0  0  0  0  0  0  0
   -5.7761    1.2855   -2.8870 H   0  0  0  0  0  0  0  0  0  0  0  0
    0.6549    3.1355   -1.8333 C   0  0  0  0  0  0  0  0  0  0  0  0
    1.7382    3.9061   -2.0857 F   0  0  0  0  0  0  0  0  0  0  0  0
    0.3890    2.4470   -2.9727 F   0  0  0  0  0  0  0  0  0  0  0  0
   -0.3733    3.9688   -1.5954 F   0  0  0  0  0  0  0  0  0  0  0  0
  3  7  1  0  0  0  0
  3  1  1  0  0  0  0
  4  3  2  0  0  0  0
  5  4  1  0  0  0  0
  6  4  1  6  0  0  0
  6  2  1  0  0  0  0
  7  8  1  0  0  0  0
  8 10  2  0  0  0  0
  8  9  1  0  0  0  0
 10 11  1  0  0  0  0
 12 13  1  0  0  0  0
 12 10  1  0  0  0  0
 14 12  2  0  0  0  0
 15 14  1  0  0  0  0
 16 14  1  0  0  0  0
 16  7  2  0  0  0  0
 17 16  1  0  0  0  0
 18  2  1  0  0  0  0
 18 26  1  0  0  0  0
 19 18  2  0  0  0  0
 20 19  1  0  0  0  0
 21 19  1  0  0  0  0
 21 23  2  0  0  0  0
 22 21  1  0  0  0  0
 23 24  1  0  0  0  0
 24 26  2  0  0  0  0
 24 25  1  0  0  0  0
 26 27  1  0  0  0  0
 28 29  1  0  0  0  0
 28 23  1  0  0  0  0
 28 30  1  0  0  0  0
 31 28  1  0  0  0  0
 32 35  1  0  0  0  0
 32  6  1  0  0  0  0
 33 32  1  0  0  0  0
 34 32  1  0  0  0  0
M  CHG  1   1  -1
M  END
