4,5
q = -1.0, confidence = 0.016

 37 37  0  0  1  0  0  0  0  0999 V2000
    0.5800   -2.3287   -2.9447 F   0  0  0  0  0  0  0  0  0  0  0  0
    2.0937   -3.6628   -2.1327 F   0  0  0  0  0  0  0  0  0  0  0  0
    0.0088   -3.9818   -1.6275 F   0  0  0  0  0  0  0  0  0  0  0  0
    1.8902   -0.2448    1.3832 O   0  5  0  0  0  0  0  0  0  0  0  0
    0.0274   -1.4321   -0.1725 N   0  0  0  0  0  2  0  0  0  0  0  0
   -1.2848   -1.6720   -0.6913 C   0  0  0  0  0  0  0  0  0  0  0  0
   -2.1197   -2.6029   -0.0410 C   0  0  0  0  0  0  0  0  0  0  0  0
   -1.7258   -3.1517    0.8254 H   0  0  0  0  0  0  0  0  0  0  0  0
   -3.4300   -2.7975   -0.4851 C   0  0  0  0  0  0  0  0  0  0  0  0
   -4.0657   -3.5348    0.0305 H   0  0  0  0  0  0  0  0  0  0  0  0
   -3.9595   -2.0597   -1.5664 C   0  0  0  0  0  0  0  0  0  0  0  0
   -3.1112   -1.1356   -2.2046 C   0  0  0  0  0  0  0  0  0  0  0  0
   -3.4910   -0.5485   -3.0555 H   0  0  0  0  0  0  0  0  0  0  0  0
   -1.7888   -0.9411   -1.7815 C   0  0  0  0  0  0  0  0  0  0  0  0
   -1.1512   -0.2110   -2.2956 H   0  0  0  0  0  0  0  0  0  0  0  0
   -5.3948   -2.2360   -1.9921 C   0  0  0  0  0  0  0  0  0  0  0  0
   -5.6745   -3.3074   -2.0513 H   0  0  0  0  0  0  0  0  0  0  0  0
   -5.5896   -1.7738   -2.9791 H   0  0  0  0  0  0  0  0  0  0  0  0
   -6.0870   -1.7641   -1.2611 H   0  0  0  0  0  0  0  0  0  0  0  0
    1.0889   -2.0755   -0.6303 C   0  0  1  0  0  3  0  0  0  0  0  0
    0.9365   -3.0295   -1.8377 C   0  0  0  0  0  0  0  0  0  0  0  0
    2.4112   -1.9493   -0.1258 C   0  0  0  0  0  0  0  0  0  0  0  0
    3.1844   -2.5819   -0.5676 H   0  0  0  0  0  0  0  0  0  0  0  0
    2.7638   -1.0591    0.8867 C   0  0  0  0  0  0  0  0  0  0  0  0
    4.1461   -1.0314    1.5427 C   0  0  0  0  0  0  0  0  0  0  0  0
    4.0374   -1.9905    2.7569 C   0  0  0  0  0  0  0  0  0  0  0  0
    4.9868   -1.9775    3.3306 H   0  0  0  0  0  0  0  0  0  0  0  0
    3.8392   -3.0308    2.4301 H   0  0  0  0  0  0  0  0  0  0  0  0
    3.2138   -1.6814    3.4306 H   0  0  0  0  0  0  0  0  0  0  0  0
    4.4592    0.3918    2.0397 C   0  0  0  0  0  0  0  0  0  0  0  0
    3.6560    0.7700    2.7002 H   0  0  0  0  0  0  0  0  0  0  0  0
    4.5528    1.0959    1.1903 H   0  0  0  0  0  0  0  0  0  0  0  0
    5.4132    0.3881    2.6035 H   0  0  0  0  0  0  0  0  0  0  0  0
    5.2507   -1.5073    0.5854 C   0  0  0  0  0  0  0  0  0  0  0  0
    6.2363   -1.4268    1.0863 H   0  0  0  0  0  0  0  0  0  0  0  0
    5.2795   -0.8860   -0.3328 H   0  0  0  0  0  0  0  0  0  0  0  0
    5.1237   -2.5668    0.2866 H   0  0  0  0  0  0  0  0  0  0  0  0
  1 21  1  0  0  0  0
  2 21  1  0  0  0  0
  6  5  1  0  0  0  0
  6  7  1  0  0  0  0
  7  8  1  0  0  0  0
  9  7  2  0  0  0  0
  9 10  1  0  0  0  0
 11  9  1  0  0  0  0
 12 14  1  0  0  0  0
 12 11  2  0  0  0  0
 13 12  1  0  0  0  0
 14  6  2  0  0  0  0
 15 14  1  0  0  0  0
 16 11  1  0  0  0  0
 16 19  1  0  0  0  0
 17 16  1  0  0  0  0
 18 16  1  0  0  0  0
 20  5  1  6  0  0  0
 20 22  1  0  0  0  0
 21  3  1  0  0  0  0
 21 20  1  0  0  0  0
 22 24  2  0  0  0  0
 23 22  1  0  0  0  0
 24  4  1  0  0  0  0
 24 25  1  0  0  0  0
 25 30  1  0  0  0  0
 25 26  1  0  0  0  0
 26 27  1  0  0  0  0
 26 29  1  0  0  0  0
 28 26  1  0  0  0  0
 30 33  1  0  0  0  0
 30 31  1  0  0  0  0
 32 30  1  0  0  0  0
 34 35  1  0  0  0  0
 34 25  1  0  0  0  0
 36 34  1  0  0  0  0
 37 34  1  0  0  0  0
M  CHG  1   4  -1
M  END
