1,2
q = -1.0, confidence = 0.0

 32 33  0  0  0  0  0  0  0  0999 V2000
   -1.8458   -0.2985   -0.0421 O   0  5  0  0  0  0  0  0  0  0  0  0
    0.0739   -1.4462   -1.5413 N   0  0  0  0  0  2  0  0  0  0  0  0
   -2.7215   -1.1491   -0.5180 C   0  0  0  0  0  0  0  0  0  0  0  0
   -2.3070   -2.0984   -1.5060 C   0  0  0  0  0  0  0  0  0  0  0  0
   -3.2494   -3.0033   -2.0522 C   0  0  0  0  0  0  0  0  0  0  0  0
   -2.9150   -3.7295   -2.8101 H   0  0  0  0  0  0  0  0  0  0  0  0
   -4.5744   -2.9839   -1.6210 C   0  0  0  0  0  0  0  0  0  0  0  0
   -5.3042   -3.6977   -2.0290 H   0  0  0  0  0  0  0  0  0  0  0  0
   -4.9737   -2.0507   -0.6451 C   0  0  0  0  0  0  0  0  0  0  0  0
   -6.0159   -2.0579   -0.2913 H   0  0  0  0  0  0  0  0  0  0  0  0
   -4.0852   -1.1169   -0.0791 C   0  0  0  0  0  0  0  0  0  0  0  0
   -4.5500   -0.1139    0.9109 C   0  0  0  0  0  0  0  0  0  0  0  0
   -3.7337    0.3098    1.9855 C   0  0  0  0  0  0  0  0  0  0  0  0
   -2.7342   -0.1217    2.1175 H   0  0  0  0  0  0  0  0  0  0  0  0
   -4.1874    1.2830    2.8849 C   0  0  0  0  0  0  0  0  0  0  0  0
   -3.5263    1.6039    3.7039 H   0  0  0  0  0  0  0  0  0  0  0  0
   -5.4629    1.8507    2.7392 C   0  0  0  0  0  0  0  0  0  0  0  0
   -5.8121    2.6209    3.4438 H   0  0  0  0  0  0  0  0  0  0  0  0
   -6.2896    1.4302    1.6846 C   0  0  0  0  0  0  0  0  0  0  0  0
   -7.2902    1.8708    1.5559 H   0  0  0  0  0  0  0  0  0  0  0  0
   -5.8365    0.4601    0.7811 C   0  0  0  0  0  0  0  0  0  0  0  0
   -6.4776    0.1667   -0.0644 H   0  0  0  0  0  0  0  0  0  0  0  0
   -0.9383   -2.1446   -1.9699 C   0  0  0  0  0  3  0  0  0  0  0  0
   -0.7517   -2.8735   -2.7902 H   0  0  0  0  0  0  0  0  0  0  0  0
    1.3714   -1.7207   -2.1693 C   0  0  0  0  0  0  0  0  0  0  0  0
    1.1971   -2.2911   -3.1134 H   0  0  0  0  0  0  0  0  0  0  0  0
    1.8466   -0.7585   -2.4510 H   0  0  0  0  0  0  0  0  0  0  0  0
    2.2959   -2.5116   -1.2768 C   0  0  0  0  0  0  0  0  0  0  0  0
    1.8207   -3.3276   -0.7058 H   0  0  0  0  0  0  0  0  0  0  0  0
    3.6145   -2.2899   -1.1712 C   0  0  0  0  0  0  0  0  0  0  0  0
    4.1044   -1.4594   -1.7054 H   0  0  0  0  0  0  0  0  0  0  0  0
    4.2528   -2.9111   -0.5257 H   0  0  0  0  0  0  0  0  0  0  0  0
  3 11  1  0  0  0  0
  3  1  1  0  0  0  0
  4  3  2  0  0  0  0
  5  7  2  0  0  0  0
  5  4  1  0  0  0  0
  6  5  1  0  0  0  0
  7  9  1  0  0  0  0
  8  7  1  0  0  0  0
  9 10  1  0  0  0  0
  9 11  2  0  0  0  0
 11 12  1  0  0  0  0
 12 13  1  0  0  0  0
 13 14  1  0  0  0  0
 13 15  2  0  0  0  0
 15 16  1  0  0  0  0
 17 15  1  0  0  0  0
 17 18  1  0  0  0  0
 19 17  2  0  0  0  0
 20 19  1  0  0  0  0
 21 12  2  0  0  0  0
 21 19  1  0  0  0  0
 22 21  1  0  0  0  0
 23  2  1  0  0  0  0
 23  4  1  0  0  0  0
 24 23  1  0  0  0  0
 25  2  1  0  0  0  0
 25 28  1  0  0  0  0
 26 25  1  0  0  0  0
 27 25  1  0  0  0  0
 28 30  2  0  0  0  0
 28 29  1  0  0  0  0
 30 32  1  0  0  0  0
 31 30  1  0  0  0  0
M  CHG  1   1  -1
M  END
