1,5
q = -1.0, confidence = 0.008

 15 15  0  0  1  0  0  0  0  0999 V2000
    0.9666    1.5838   -0.1576 O   0  5  0  0  0  0  0  0  0  0  0  0
    2.2605    1.4699   -0.0690 C   0  0  0  0  0  0  0  0  0  0  0  0
    3.0231    2.4455   -0.0266 O   0  0  0  0  0  0  0  0  0  0  0  0
    2.7321    0.0318    0.0082 C   0  0  2  0  0  3  0  0  0  0  0  0
    1.6717   -0.8226    0.0946 N   0  0  0  0  0  2  0  0  0  0  0  0
    1.8701   -2.1335    0.2958 C   0  0  0  0  0  0  0  0  0  0  0  0
    3.1877   -2.6002    0.4313 C   0  0  0  0  0  0  0  0  0  0  0  0
    4.2444   -1.8042    0.2759 N   0  0  0  0  0  0  0  0  0  0  0  0
    4.0495   -0.4902    0.0417 C   0  0  0  0  0  0  0  0  0  0  0  0
    5.3720    0.2571   -0.2677 C   0  0  0  0  0  0  0  0  0  0  0  0
    6.3351   -0.4073   -0.5893 O   0  0  0  0  0  0  0  0  0  0  0  0
    5.3961    1.5743   -0.1541 O   0  0  0  0  0  0  0  0  0  0  0  0
    4.4654    1.9802   -0.0232 H   0  0  0  0  0  0  0  0  0  0  0  0
    3.3783   -3.6623    0.6641 H   0  0  0  0  0  0  0  0  0  0  0  0
    0.9724   -2.7673    0.3605 H   0  0  0  0  0  0  0  0  0  0  0  0
  1  2  1  0  0  0  0
  2  3  2  0  0  0  0
  4  2  1  1  0  0  0
  4  9  1  0  0  0  0
  4  5  1  0  0  0  0
  5  6  1  0  0  0  0
  6 15  1  0  0  0  0
  6  7  2  0  0  0  0
  7 14  1  0  0  0  0
  8  7  1  0  0  0  0
  9  8  2  0  0  0  0
 10 12  1  0  0  0  0
 10  9  1  0  0  0  0
 11 10  2  0  0  0  0
 12 13  1  0  0  0  0
M  CHG  1   1  -1
M  END
