1,4
q = -1.0, confidence = 0.002

 32 32  0  0  0  0  0  0  0  0999 V2000
    1.6890    0.5663    0.8404 O   0  5  0  0  0  0  0  0  0  0  0  0
    4.2063    0.5210    1.4444 O   0  0  0  0  0  0  0  0  0  0  0  0
   -5.0838    2.5751    0.2153 O   0  0  0  0  0  0  0  0  0  0  0  0
   -0.3880    1.7679   -0.8279 N   0  0  0  0  0  2  0  0  0  0  0  0
    5.5801    0.3926    1.7364 C   0  0  0  0  0  0  0  0  0  0  0  0
    5.9302    1.1777    2.4452 H   0  0  0  0  0  0  0  0  0  0  0  0
    6.2049    0.4466    0.8149 H   0  0  0  0  0  0  0  0  0  0  0  0
    5.7062   -0.6059    2.1926 H   0  0  0  0  0  0  0  0  0  0  0  0
    3.7880    1.6202    0.7630 C   0  0  0  0  0  0  0  0  0  0  0  0
    4.5935    2.6952    0.3905 C   0  0  0  0  0  0  0  0  0  0  0  0
    5.6557    2.7112    0.6722 H   0  0  0  0  0  0  0  0  0  0  0  0
    4.0563    3.7774   -0.3559 C   0  0  0  0  0  0  0  0  0  0  0  0
    4.7054    4.6216   -0.6298 H   0  0  0  0  0  0  0  0  0  0  0  0
    2.7279    3.7545   -0.7427 C   0  0  0  0  0  0  0  0  0  0  0  0
    2.3065    4.5785   -1.3403 H   0  0  0  0  0  0  0  0  0  0  0  0
    1.8723    2.6611   -0.3960 C   0  0  0  0  0  0  0  0  0  0  0  0
    2.3801    1.5781    0.4136 C   0  0  0  0  0  0  0  0  0  0  0  0
    0.5242    2.7021   -0.9011 C   0  0  0  0  0  3  0  0  0  0  0  0
    0.2497    3.6414   -1.4342 H   0  0  0  0  0  0  0  0  0  0  0  0
   -1.7182    2.0165   -1.3706 C   0  0  0  0  0  0  0  0  0  0  0  0
   -2.0170    1.1233   -1.9638 H   0  0  0  0  0  0  0  0  0  0  0  0
   -1.6909    2.8814   -2.0749 H   0  0  0  0  0  0  0  0  0  0  0  0
   -2.7588    2.2562   -0.2677 C   0  0  0  0  0  0  0  0  0  0  0  0
   -2.6831    1.4496    0.4903 H   0  0  0  0  0  0  0  0  0  0  0  0
   -2.5515    3.2224    0.2385 H   0  0  0  0  0  0  0  0  0  0  0  0
   -4.1755    2.2715   -0.8233 C   0  0  0  0  0  0  0  0  0  0  0  0
   -4.2709    3.0237   -1.6507 H   0  0  0  0  0  0  0  0  0  0  0  0
   -4.4168    1.2741   -1.2748 H   0  0  0  0  0  0  0  0  0  0  0  0
   -6.4128    2.6483   -0.2336 C   0  0  0  0  0  0  0  0  0  0  0  0
   -6.7665    1.6818   -0.6730 H   0  0  0  0  0  0  0  0  0  0  0  0
   -6.5532    3.4401   -1.0110 H   0  0  0  0  0  0  0  0  0  0  0  0
   -7.0530    2.8933    0.6367 H   0  0  0  0  0  0  0  0  0  0  0  0
  2  5  1  0  0  0  0
  5  8  1  0  0  0  0
  5  6  1  0  0  0  0
  7  5  1  0  0  0  0
  9  2  1  0  0  0  0
 10 11  1  0  0  0  0
 10  9  2  0  0  0  0
 12 10  1  0  0  0  0
 13 12  1  0  0  0  0
 14 16  1  0  0  0  0
 14 12  2  0  0  0  0
 15 14  1  0  0  0  0
 16 17  2  0  0  0  0
 17  9  1  0  0  0  0
 17  1  1  0  0  0  0
 18  4  1  0  0  0  0
 18 16  1  0  0  0  0
 19 18  1  0  0  0  0
 20  4  1  0  0  0  0
 20 23  1  0  0  0  0
 21 20  1  0  0  0  0
 22 20  1  0  0  0  0
 23 25  1  0  0  0  0
 23 24  1  0  0  0  0
 26 23  1  0  0  0  0
 26  3  1  0  0  0  0
 27 26  1  0  0  0  0
 28 26  1  0  0  0  0
 29  3  1  0  0  0  0
 29 32  1  0  0  0  0
 30 29  1  0  0  0  0
 31 29  1  0  0  0  0
M  CHG  1   1  -1
M  END
