6,12
q = -1.0, confidence = 0.0

 25 26  0  0  1  0  0  0  0  0999 V2000
   -4.1965   -1.9763   -0.3073 C   0  0  0  0  0  0  0  0  0  0  0  0
   -3.8815   -2.4461    0.6428 H   0  0  0  0  0  0  0  0  0  0  0  0
   -3.7260   -2.5375   -1.1379 H   0  0  0  0  0  0  0  0  0  0  0  0
   -5.2960   -1.9870   -0.4103 H   0  0  0  0  0  0  0  0  0  0  0  0
   -3.7601   -0.5889   -0.3570 N   0  0  0  0  0  0  0  0  0  0  0  0
   -2.4499   -0.2407   -0.4577 N   0  0  0  0  0  2  0  0  0  0  0  0
   -2.3971    1.1181   -0.5751 C   0  0  2  0  0  3  0  0  0  0  0  0
   -3.7233    1.6278   -0.5284 C   0  0  0  0  0  0  0  0  0  0  0  0
   -4.0330    2.6714   -0.6268 H   0  0  0  0  0  0  0  0  0  0  0  0
   -4.5476    0.5164   -0.3994 C   0  0  0  0  0  0  0  0  0  0  0  0
   -5.6382    0.4252   -0.3592 H   0  0  0  0  0  0  0  0  0  0  0  0
    0.0380   -0.1347   -1.3260 O   0  5  0  0  0  0  0  0  0  0  0  0
    0.0254    1.1789   -1.1711 C   0  0  0  0  0  0  0  0  0  0  0  0
   -1.1536    1.8605   -0.7455 C   0  0  0  0  0  0  0  0  0  0  0  0
   -1.1148    3.2628   -0.5619 C   0  0  0  0  0  0  0  0  0  0  0  0
   -2.0227    3.7800   -0.2129 H   0  0  0  0  0  0  0  0  0  0  0  0
    0.0440    4.0137   -0.7945 C   0  0  0  0  0  0  0  0  0  0  0  0
    1.1954    3.3210   -1.2437 C   0  0  0  0  0  0  0  0  0  0  0  0
    2.1208    3.8870   -1.4389 H   0  0  0  0  0  0  0  0  0  0  0  0
    1.1919    1.9401   -1.4322 C   0  0  0  0  0  0  0  0  0  0  0  0
    2.0904    1.4008   -1.7636 H   0  0  0  0  0  0  0  0  0  0  0  0
    0.0781    5.5059   -0.5768 C   0  0  0  0  0  0  0  0  0  0  0  0
    0.3525    6.0473   -1.5067 H   0  0  0  0  0  0  0  0  0  0  0  0
    0.8301    5.7891    0.1900 H   0  0  0  0  0  0  0  0  0  0  0  0
   -0.9042    5.8923   -0.2414 H   0  0  0  0  0  0  0  0  0  0  0  0
  1  2  1  0  0  0  0
  3  1  1  0  0  0  0
  4  1  1  0  0  0  0
  5  1  1  0  0  0  0
  6  5  1  0  0  0  0
  7 14  1  6  0  0  0
  7  8  1  0  0  0  0
  7  6  1  0  0  0  0
  8 10  2  0  0  0  0
  9  8  1  0  0  0  0
 10 11  1  0  0  0  0
 10  5  1  0  0  0  0
 12 13  1  0  0  0  0
 13 14  1  0  0  0  0
 14 15  2  0  0  0  0
 15 16  1  0  0  0  0
 17 22  1  0  0  0  0
 17 15  1  0  0  0  0
 18 17  2  0  0  0  0
 19 18  1  0  0  0  0
 20 18  1  0  0  0  0
 20 13  2  0  0  0  0
 21 20  1  0  0  0  0
 22 25  1  0  0  0  0
 22 24  1  0  0  0  0
 23 22  1  0  0  0  0
M  CHG  1  12  -1
M  END
