1,2
q = -1.0, confidence = 0.0

 26 27  0  0  1  0  0  0  0  0999 V2000
   -1.1531   -1.4708    0.2374 N   0  0  0  0  0  2  0  0  0  0  0  0
   -1.4255    1.1497   -0.3869 O   0  0  0  0  0  1  0  0  0  0  0  0
   -2.4693   -1.4548    0.2562 C   0  0  0  0  0  0  0  0  0  0  0  0
   -3.0495   -2.6573    0.4814 O   0  0  0  0  0  0  0  0  0  0  0  0
   -2.7144    0.9474   -0.2866 C   0  0  2  0  0  3  0  0  0  0  0  0
   -3.3190   -0.3134    0.0447 C   0  0  0  0  0  0  0  0  0  0  0  0
   -0.7062   -2.8786    0.3298 C   0  0  2  0  0  0  0  0  0  0  0  0
    0.1238   -2.9429    1.0583 H   0  0  0  0  0  0  0  0  0  0  0  0
   -3.5948    2.0477   -0.5244 C   0  0  0  0  0  0  0  0  0  0  0  0
   -3.1380    3.0139   -0.7845 H   0  0  0  0  0  0  0  0  0  0  0  0
   -0.2125   -3.3837   -1.0345 C   0  0  0  0  0  0  0  0  0  0  0  0
    0.5031   -2.6297   -1.4174 H   0  0  0  0  0  0  0  0  0  0  0  0
   -1.0716   -3.4010   -1.7409 H   0  0  0  0  0  0  0  0  0  0  0  0
   -4.9748    1.9028   -0.4276 C   0  0  0  0  0  0  0  0  0  0  0  0
   -5.6207    2.7753   -0.6141 H   0  0  0  0  0  0  0  0  0  0  0  0
   -4.7298   -0.4350    0.1396 C   0  0  0  0  0  0  0  0  0  0  0  0
   -5.1495   -1.4176    0.3989 H   0  0  0  0  0  0  0  0  0  0  0  0
   -1.9823   -3.5695    0.8397 C   0  0  0  0  0  0  0  0  0  0  0  0
   -2.1880   -4.5455    0.3596 H   0  0  0  0  0  0  0  0  0  0  0  0
   -1.9941   -3.6958    1.9435 H   0  0  0  0  0  0  0  0  0  0  0  0
   -5.5584    0.6577   -0.0923 C   0  0  0  0  0  0  0  0  0  0  0  0
   -6.6504    0.5559   -0.0164 H   0  0  0  0  0  0  0  0  0  0  0  0
    0.4566   -4.7545   -0.9588 C   0  0  0  0  0  0  0  0  0  0  0  0
   -0.2280   -5.5359   -0.5660 H   0  0  0  0  0  0  0  0  0  0  0  0
    1.3459   -4.7267   -0.2952 H   0  0  0  0  0  0  0  0  0  0  0  0
    0.7972   -5.0905   -1.9580 H   0  0  0  0  0  0  0  0  0  0  0  0
  1  3  1  0  0  0  0
  1  7  1  0  0  0  0
  3  4  1  0  0  0  0
  4 18  1  0  0  0  0
  5  2  1  6  0  0  0
  5  6  1  0  0  0  0
  6 16  1  0  0  0  0
  6  3  2  0  0  0  0
  7 18  1  0  0  0  0
  7  8  1  1  0  0  0
  9 14  2  0  0  0  0
  9  5  1  0  0  0  0
 10  9  1  0  0  0  0
 11 23  1  0  0  0  0
 11  7  1  0  0  0  0
 12 11  1  0  0  0  0
 13 11  1  0  0  0  0
 14 21  1  0  0  0  0
 15 14  1  0  0  0  0
 16 17  1  0  0  0  0
 18 20  1  0  0  0  0
 19 18  1  0  0  0  0
 21 22  1  0  0  0  0
 21 16  2  0  0  0  0
 23 24  1  0  0  0  0
 23 25  1  0  0  0  0
 26 23  1  0  0  0  0
M  END
