1,2
q = -1.0, confidence = 0.0

 35 36  0  0  1  0  0  0  0  0999 V2000
    0.1417    2.0301   -0.0252 N   0  0  0  0  0  2  0  0  0  0  0  0
   -1.9847    0.0515   -0.2716 O   0  0  0  0  0  1  0  0  0  0  0  0
   -6.3912    1.5796   -0.1381 O   0  0  0  0  0  0  0  0  0  0  0  0
   -0.9089    2.8195    0.0227 C   0  0  0  0  0  0  0  0  0  0  0  0
   -0.7003    3.9068    0.0728 H   0  0  0  0  0  0  0  0  0  0  0  0
   -2.2907    2.4542   -0.0006 C   0  0  0  0  0  0  0  0  0  0  0  0
   -3.2534    3.4976    0.0979 C   0  0  0  0  0  0  0  0  0  0  0  0
   -2.8877    4.5311    0.2090 H   0  0  0  0  0  0  0  0  0  0  0  0
   -4.6206    3.2651    0.0605 C   0  0  0  0  0  0  0  0  0  0  0  0
   -5.3227    4.1034    0.1441 H   0  0  0  0  0  0  0  0  0  0  0  0
   -5.0764    1.9228   -0.0912 C   0  0  0  0  0  0  0  0  0  0  0  0
   -4.1635    0.8700   -0.2002 C   0  0  0  0  0  0  0  0  0  0  0  0
   -4.5256   -0.1606   -0.3157 H   0  0  0  0  0  0  0  0  0  0  0  0
   -2.7603    1.0909   -0.1560 C   0  0  1  0  0  3  0  0  0  0  0  0
   -7.3685    2.5973   -0.0278 C   0  0  0  0  0  0  0  0  0  0  0  0
   -8.3510    2.0932   -0.0882 H   0  0  0  0  0  0  0  0  0  0  0  0
   -7.3007    3.1374    0.9430 H   0  0  0  0  0  0  0  0  0  0  0  0
   -7.2939    3.3388   -0.8543 H   0  0  0  0  0  0  0  0  0  0  0  0
    1.4392    2.6247    0.0231 C   0  0  0  0  0  0  0  0  0  0  0  0
    1.8796    3.2345    1.2078 C   0  0  0  0  0  0  0  0  0  0  0  0
    1.2083    3.2465    2.0794 H   0  0  0  0  0  0  0  0  0  0  0  0
    3.1640    3.7898    1.2867 C   0  0  0  0  0  0  0  0  0  0  0  0
    3.4971    4.2611    2.2247 H   0  0  0  0  0  0  0  0  0  0  0  0
    4.0359    3.7368    0.1845 C   0  0  0  0  0  0  0  0  0  0  0  0
    5.4316    4.3048    0.2534 C   0  0  0  0  0  0  0  0  0  0  0  0
    5.6145    5.0335   -0.5636 H   0  0  0  0  0  0  0  0  0  0  0  0
    5.6162    4.8193    1.2162 H   0  0  0  0  0  0  0  0  0  0  0  0
    6.1961    3.5063    0.1465 H   0  0  0  0  0  0  0  0  0  0  0  0
    3.5710    3.1228   -0.9975 C   0  0  0  0  0  0  0  0  0  0  0  0
    4.2376    3.0790   -1.8748 H   0  0  0  0  0  0  0  0  0  0  0  0
    2.2904    2.5586   -1.1091 C   0  0  0  0  0  0  0  0  0  0  0  0
    1.8330    1.8988   -2.3806 C   0  0  0  0  0  0  0  0  0  0  0  0
    1.6633    0.8139   -2.2125 H   0  0  0  0  0  0  0  0  0  0  0  0
    0.8673    2.3142   -2.7345 H   0  0  0  0  0  0  0  0  0  0  0  0
    2.5824    2.0164   -3.1861 H   0  0  0  0  0  0  0  0  0  0  0  0
  1  4  1  0  0  0  0
  1 19  1  0  0  0  0
  3 11  1  0  0  0  0
  3 15  1  0  0  0  0
  4  5  1  0  0  0  0
  6  4  2  0  0  0  0
  6  7  1  0  0  0  0
  7  8  1  0  0  0  0
  9  7  2  0  0  0  0
  9 10  1  0  0  0  0
 11  9  1  0  0  0  0
 12 14  1  0  0  0  0
 12 11  2  0  0  0  0
 13 12  1  0  0  0  0
 14  2  1  6  0  0  0
 14  6  1  0  0  0  0
 15 17  1  0  0  0  0
 16 15  1  0  0  0  0
 18 15  1  0  0  0  0
 19 20  1  0  0  0  0
 20 22  2  0  0  0  0
 20 21  1  0  0  0  0
 22 23  1  0  0  0  0
 24 25  1  0  0  0  0
 24 22  1  0  0  0  0
 25 27  1  0  0  0  0
 26 25  1  0  0  0  0
 28 25  1  0  0  0  0
 29 24  2  0  0  0  0
 30 29  1  0  0  0  0
 31 29  1  0  0  0  0
 31 19  2  0  0  0  0
 32 33  1  0  0  0  0
 32 31  1  0  0  0  0
 34 32  1  0  0  0  0
 35 32  1  0  0  0  0
M  END
