1,2
q = -1.0, confidence = 0.0

 35 36  0  0  0  0  0  0  0  0999 V2000
   -0.1417   -2.0302    0.0255 N   0  0  0  0  0  2  0  0  0  0  0  0
    1.9847   -0.0515    0.2719 O   0  5  0  0  0  0  0  0  0  0  0  0
    6.3912   -1.5794    0.1373 O   0  0  0  0  0  0  0  0  0  0  0  0
    0.9089   -2.8195   -0.0227 C   0  0  0  0  0  0  0  0  0  0  0  0
    0.7004   -3.9068   -0.0729 H   0  0  0  0  0  0  0  0  0  0  0  0
    2.2907   -2.4541    0.0004 C   0  0  0  0  0  0  0  0  0  0  0  0
    3.2534   -3.4975   -0.0986 C   0  0  0  0  0  3  0  0  0  0  0  0
    2.8877   -4.5309   -0.2097 H   0  0  0  0  0  0  0  0  0  0  0  0
    4.6206   -3.2649   -0.0614 C   0  0  0  0  0  0  0  0  0  0  0  0
    5.3227   -4.1032   -0.1453 H   0  0  0  0  0  0  0  0  0  0  0  0
    5.0764   -1.9227    0.0905 C   0  0  0  0  0  0  0  0  0  0  0  0
    4.1634   -0.8699    0.1999 C   0  0  0  0  0  0  0  0  0  0  0  0
    4.5256    0.1607    0.3155 H   0  0  0  0  0  0  0  0  0  0  0  0
    2.7603   -1.0908    0.1559 C   0  0  0  0  0  0  0  0  0  0  0  0
    7.3685   -2.5971    0.0265 C   0  0  0  0  0  0  0  0  0  0  0  0
    8.3510   -2.0930    0.0868 H   0  0  0  0  0  0  0  0  0  0  0  0
    7.3005   -3.1370   -0.9444 H   0  0  0  0  0  0  0  0  0  0  0  0
    7.2941   -3.3387    0.8529 H   0  0  0  0  0  0  0  0  0  0  0  0
   -1.4392   -2.6248   -0.0227 C   0  0  0  0  0  0  0  0  0  0  0  0
   -1.8795   -3.2348   -1.2073 C   0  0  0  0  0  0  0  0  0  0  0  0
   -1.2082   -3.2470   -2.0789 H   0  0  0  0  0  0  0  0  0  0  0  0
   -3.1639   -3.7901   -1.2862 C   0  0  0  0  0  0  0  0  0  0  0  0
   -3.4970   -4.2616   -2.2241 H   0  0  0  0  0  0  0  0  0  0  0  0
   -4.0359   -3.7369   -0.1840 C   0  0  0  0  0  0  0  0  0  0  0  0
   -5.4316   -4.3050   -0.2528 C   0  0  0  0  0  0  0  0  0  0  0  0
   -5.6144   -5.0336    0.5642 H   0  0  0  0  0  0  0  0  0  0  0  0
   -5.6162   -4.8196   -1.2156 H   0  0  0  0  0  0  0  0  0  0  0  0
   -6.1961   -3.5065   -0.1460 H   0  0  0  0  0  0  0  0  0  0  0  0
   -3.5710   -3.1228    0.9979 C   0  0  0  0  0  0  0  0  0  0  0  0
   -4.2376   -3.0789    1.8752 H   0  0  0  0  0  0  0  0  0  0  0  0
   -2.2904   -2.5586    1.1095 C   0  0  0  0  0  0  0  0  0  0  0  0
   -1.8330   -1.8986    2.3809 C   0  0  0  0  0  0  0  0  0  0  0  0
   -1.6644   -0.8135    2.2129 H   0  0  0  0  0  0  0  0  0  0  0  0
   -0.8668   -2.3132    2.7343 H   0  0  0  0  0  0  0  0  0  0  0  0
   -2.5820   -2.0170    3.1867 H   0  0  0  0  0  0  0  0  0  0  0  0
  4  6  2  0  0  0  0
  4  1  1  0  0  0  0
  5  4  1  0  0  0  0
  6 14  1  0  0  0  0
  7  9  1  0  0  0  0
  7  6  1  0  0  0  0
  8  7  1  0  0  0  0
  9 11  2  0  0  0  0
 10  9  1  0  0  0  0
 11  3  1  0  0  0  0
 11 12  1  0  0  0  0
 12 13  1  0  0  0  0
 14 12  2  0  0  0  0
 14  2  1  0  0  0  0
 15 16  1  0  0  0  0
 15  3  1  0  0  0  0
 15 18  1  0  0  0  0
 17 15  1  0  0  0  0
 19  1  1  0  0  0  0
 19 31  1  0  0  0  0
 20 19  2  0  0  0  0
 21 20  1  0  0  0  0
 22 20  1  0  0  0  0
 22 24  2  0  0  0  0
 23 22  1  0  0  0  0
 24 29  1  0  0  0  0
 25 24  1  0  0  0  0
 25 28  1  0  0  0  0
 25 26  1  0  0  0  0
 27 25  1  0  0  0  0
 29 31  2  0  0  0  0
 29 30  1  0  0  0  0
 31 32  1  0  0  0  0
 32 34  1  0  0  0  0
 32 35  1  0  0  0  0
 33 32  1  0  0  0  0
M  CHG  1   2  -1
M  END
