1,3
q = -1.0, confidence = 0.0

 20 22  0  0  1  0  0  0  0  0999 V2000
   -2.0320   -0.8508   -0.2955 N   0  0  0  0  0  2  0  0  0  0  0  0
   -3.6159    1.3564    1.2136 N   0  0  0  0  0  0  0  0  0  0  0  0
   -0.2246   -2.0156   -0.9935 O   0  0  0  0  0  1  0  0  0  0  0  0
   -6.6716   -1.2554   -1.4177 O   0  0  0  0  0  0  0  0  0  0  0  0
   -1.4806   -1.8996   -1.0399 C   0  0  2  0  0  3  0  0  0  0  0  0
   -2.3755   -2.7470   -1.8061 C   0  0  0  0  0  0  0  0  0  0  0  0
   -1.9212   -3.5719   -2.3720 H   0  0  0  0  0  0  0  0  0  0  0  0
   -3.7386   -2.4983   -1.8359 C   0  0  0  0  0  0  0  0  0  0  0  0
   -4.4217   -3.1242   -2.4309 H   0  0  0  0  0  0  0  0  0  0  0  0
   -4.2510   -1.4113   -1.0868 C   0  0  0  0  0  0  0  0  0  0  0  0
   -5.6161   -0.8704   -0.9284 C   0  0  0  0  0  0  0  0  0  0  0  0
   -5.4540    0.3178    0.0089 C   0  0  0  0  0  0  0  0  0  0  0  0
   -6.3773    1.2191    0.5251 C   0  0  0  0  0  0  0  0  0  0  0  0
   -7.4426    1.1498    0.2566 H   0  0  0  0  0  0  0  0  0  0  0  0
   -5.8814    2.2129    1.3996 C   0  0  0  0  0  0  0  0  0  0  0  0
   -6.5519    2.9635    1.8425 H   0  0  0  0  0  0  0  0  0  0  0  0
   -4.5165    2.2381    1.7154 C   0  0  0  0  0  0  0  0  0  0  0  0
   -4.1132    2.9970    2.4055 H   0  0  0  0  0  0  0  0  0  0  0  0
   -4.0927    0.4330    0.3725 C   0  0  0  0  0  0  0  0  0  0  0  0
   -3.3395   -0.6361   -0.3323 C   0  0  0  0  0  0  0  0  0  0  0  0
  2 17  1  0  0  0  0
  4 11  2  0  0  0  0
  5  3  1  6  0  0  0
  5  1  1  0  0  0  0
  6  5  1  0  0  0  0
  7  6  1  0  0  0  0
  8  6  2  0  0  0  0
  8 10  1  0  0  0  0
  9  8  1  0  0  0  0
 10 11  1  0  0  0  0
 10 20  2  0  0  0  0
 11 12  1  0  0  0  0
 12 19  1  0  0  0  0
 12 13  2  0  0  0  0
 13 15  1  0  0  0  0
 14 13  1  0  0  0  0
 15 17  2  0  0  0  0
 15 16  1  0  0  0  0
 17 18  1  0  0  0  0
 19  2  2  0  0  0  0
 20  1  1  0  0  0  0
 20 19  1  0  0  0  0
M  END
