2,3
q = -1.0, confidence = 0.0

 11 11  0  0  1  0  0  0  0  0999 V2000
   -3.7548    0.8643    0.5980 Cl  0  0  0  0  0  0  0  0  0  0  0  0
   -0.1272    0.5892   -2.6341 O   0  0  0  0  0  1  0  0  0  0  0  0
   -1.9062    0.8049   -1.2733 N   0  0  0  0  0  2  0  0  0  0  0  0
   -1.2923    1.0882   -2.4859 C   0  0  1  0  0  3  0  0  0  0  0  0
   -2.0058    1.8958   -3.4334 C   0  0  0  0  0  0  0  0  0  0  0  0
   -1.5259    2.1257   -4.3943 H   0  0  0  0  0  0  0  0  0  0  0  0
   -3.2793    2.3513   -3.1133 C   0  0  0  0  0  0  0  0  0  0  0  0
   -3.8368    2.9653   -3.8387 H   0  0  0  0  0  0  0  0  0  0  0  0
   -3.8816    2.0458   -1.8690 C   0  0  0  0  0  0  0  0  0  0  0  0
   -4.8819    2.3983   -1.5910 H   0  0  0  0  0  0  0  0  0  0  0  0
   -3.1225    1.2645   -0.9956 C   0  0  0  0  0  0  0  0  0  0  0  0
  3 11  1  0  0  0  0
  4  2  1  1  0  0  0
  4  3  1  0  0  0  0
  5  7  2  0  0  0  0
  5  4  1  0  0  0  0
  6  5  1  0  0  0  0
  7  9  1  0  0  0  0
  8  7  1  0  0  0  0
  9 10  1  0  0  0  0
  9 11  2  0  0  0  0
 11  1  1  0  0  0  0
M  END
