3,5
q = -1.0, confidence = 0.0

 32 33  0  0  1  0  0  0  0  0999 V2000
   -3.2823   -1.8622   -1.9111 Cl  0  0  0  0  0  0  0  0  0  0  0  0
   -7.4436    0.1399    0.8952 Cl  0  0  0  0  0  0  0  0  0  0  0  0
   -0.8393    0.5233    0.4469 O   0  0  0  0  0  1  0  0  0  0  0  0
   -1.4497   -0.6097    0.3733 C   0  0  2  0  0  3  0  0  0  0  0  0
    1.4707   -1.2379    0.1624 N   0  0  0  0  0  2  0  0  0  0  0  0
    3.3635   -1.9846   -1.2256 C   0  0  0  0  0  0  0  0  0  0  0  0
    2.6950   -2.0093   -2.0996 H   0  0  0  0  0  0  0  0  0  0  0  0
   -3.8467   -1.0003   -0.4957 C   0  0  0  0  0  0  0  0  0  0  0  0
    5.0404   -1.8967    1.0227 C   0  0  0  0  0  0  0  0  0  0  0  0
    5.6958   -1.8629    1.9066 H   0  0  0  0  0  0  0  0  0  0  0  0
    5.5703   -2.2478   -0.2320 C   0  0  0  0  0  0  0  0  0  0  0  0
    6.6393   -2.4878   -0.3344 H   0  0  0  0  0  0  0  0  0  0  0  0
    0.5192   -2.1669    0.1964 C   0  0  0  0  0  0  0  0  0  0  0  0
   -5.2328   -0.8142   -0.3667 C   0  0  0  0  0  0  0  0  0  0  0  0
   -5.9181   -1.2250   -1.1191 H   0  0  0  0  0  0  0  0  0  0  0  0
    4.7274   -2.2922   -1.3538 C   0  0  0  0  0  0  0  0  0  0  0  0
    5.1338   -2.5665   -2.3394 H   0  0  0  0  0  0  0  0  0  0  0  0
   -5.7230   -0.0856    0.7265 C   0  0  0  0  0  0  0  0  0  0  0  0
   -2.9403   -0.4727    0.4498 C   0  0  0  0  0  0  0  0  0  0  0  0
    2.8357   -1.6235    0.0307 C   0  0  0  0  0  0  0  0  0  0  0  0
    0.9126   -3.6280    0.1315 C   0  0  0  0  0  0  0  0  0  0  0  0
    1.7115   -3.8507    0.8663 H   0  0  0  0  0  0  0  0  0  0  0  0
    1.3174   -3.8953   -0.8652 H   0  0  0  0  0  0  0  0  0  0  0  0
    0.0421   -4.2754    0.3386 H   0  0  0  0  0  0  0  0  0  0  0  0
   -4.8492    0.4699    1.6762 C   0  0  0  0  0  0  0  0  0  0  0  0
   -5.2509    1.0428    2.5230 H   0  0  0  0  0  0  0  0  0  0  0  0
   -3.4736    0.2786    1.5194 C   0  0  0  0  0  0  0  0  0  0  0  0
   -2.7661    0.7071    2.2450 H   0  0  0  0  0  0  0  0  0  0  0  0
    3.6811   -1.5841    1.1596 C   0  0  0  0  0  0  0  0  0  0  0  0
    3.2422   -1.2727    2.1200 H   0  0  0  0  0  0  0  0  0  0  0  0
   -0.8687   -1.8768    0.2905 C   0  0  0  0  0  0  0  0  0  0  0  0
   -1.5524   -2.7339    0.2741 H   0  0  0  0  0  0  0  0  0  0  0  0
  1  8  1  0  0  0  0
  4  3  1  1  0  0  0
  4 19  1  0  0  0  0
  5 13  1  0  0  0  0
  6 20  1  0  0  0  0
  7  6  1  0  0  0  0
  8 14  2  0  0  0  0
  8 19  1  0  0  0  0
  9 29  1  0  0  0  0
  9 10  1  0  0  0  0
 11  9  2  0  0  0  0
 12 11  1  0  0  0  0
 13 31  2  0  0  0  0
 14 18  1  0  0  0  0
 15 14  1  0  0  0  0
 16  6  2  0  0  0  0
 16 11  1  0  0  0  0
 17 16  1  0  0  0  0
 18  2  1  0  0  0  0
 18 25  2  0  0  0  0
 19 27  2  0  0  0  0
 20  5  1  0  0  0  0
 20 29  2  0  0  0  0
 21 13  1  0  0  0  0
 21 24  1  0  0  0  0
 21 22  1  0  0  0  0
 23 21  1  0  0  0  0
 25 26  1  0  0  0  0
 27 25  1  0  0  0  0
 27 28  1  0  0  0  0
 29 30  1  0  0  0  0
 31  4  1  0  0  0  0
 32 31  1  0  0  0  0
M  END
