1,7
 OpenBabel05122313063D

 31 32  0  0  1  0  0  0  0  0999 V2000
    1.5817    1.5214   -1.1556 O   0  5  0  0  0  0  0  0  0  0  0  0
   -0.1677    3.0185    0.7971 C   0  0  0  0  0  3  0  0  0  0  0  0
   -0.7031    3.7893    1.3849 H   0  0  0  0  0  0  0  0  0  0  0  0
    0.8874    3.5609   -0.0171 C   0  0  0  0  0  0  0  0  0  0  0  0
    2.6787    3.5199   -1.7027 C   0  0  0  0  0  0  0  0  0  0  0  0
    3.2855    2.9316   -2.4067 H   0  0  0  0  0  0  0  0  0  0  0  0
   -0.5545    1.7743    0.9417 N   0  0  0  0  0  2  0  0  0  0  0  0
   -1.7124    1.4917    1.8154 C   0  0  2  0  0  0  0  0  0  0  0  0
   -1.4825    0.5166    2.2908 H   0  0  0  0  0  0  0  0  0  0  0  0
   -2.9854    1.2913    0.9965 C   0  0  0  0  0  0  0  0  0  0  0  0
   -5.3949    0.9300   -0.4324 C   0  0  0  0  0  0  0  0  0  0  0  0
   -6.3285    0.7825   -0.9963 H   0  0  0  0  0  0  0  0  0  0  0  0
   -1.9662    2.5041    2.9444 C   0  0  0  0  0  0  0  0  0  0  0  0
   -1.0522    2.6791    3.5487 H   0  0  0  0  0  0  0  0  0  0  0  0
   -2.7486    2.0965    3.6132 H   0  0  0  0  0  0  0  0  0  0  0  0
   -2.3405    3.4776    2.5706 H   0  0  0  0  0  0  0  0  0  0  0  0
   -3.2709    2.0793   -0.1333 C   0  0  0  0  0  0  0  0  0  0  0  0
   -2.5396    2.8251   -0.4791 H   0  0  0  0  0  0  0  0  0  0  0  0
   -4.4692    1.9020   -0.8418 C   0  0  0  0  0  0  0  0  0  0  0  0
   -4.6723    2.5187   -1.7305 H   0  0  0  0  0  0  0  0  0  0  0  0
   -3.9239    0.3237    1.4038 C   0  0  0  0  0  0  0  0  0  0  0  0
   -3.6975   -0.3139    2.2732 H   0  0  0  0  0  0  0  0  0  0  0  0
    2.8627    4.8869   -1.5519 C   0  0  0  0  0  0  0  0  0  0  0  0
    3.6341    5.3979   -2.1501 H   0  0  0  0  0  0  0  0  0  0  0  0
   -5.1186    0.1391    0.6946 C   0  0  0  0  0  0  0  0  0  0  0  0
   -5.8291   -0.6382    1.0139 H   0  0  0  0  0  0  0  0  0  0  0  0
    1.6964    2.7968   -0.9466 C   0  0  0  0  0  0  0  0  0  0  0  0
    2.0738    5.6328   -0.6393 C   0  0  0  0  0  0  0  0  0  0  0  0
    2.2223    6.7159   -0.5244 H   0  0  0  0  0  0  0  0  0  0  0  0
    1.1080    4.9669    0.1009 C   0  0  0  0  0  0  0  0  0  0  0  0
    0.4770    5.5282    0.8103 H   0  0  0  0  0  0  0  0  0  0  0  0
  1 27  1  0  0  0  0
  2  7  1  0  0  0  0
  2  3  1  0  0  0  0
  4 30  1  0  0  0  0
  4  2  1  0  0  0  0
  5 23  2  0  0  0  0
  5 27  1  0  0  0  0
  6  5  1  0  0  0  0
  7  8  1  0  0  0  0
  8  9  1  1  0  0  0
  8 13  1  0  0  0  0
 10 21  1  0  0  0  0
 10  8  1  0  0  0  0
 11 25  1  0  0  0  0
 12 11  1  0  0  0  0
 13 14  1  0  0  0  0
 13 15  1  0  0  0  0
 16 13  1  0  0  0  0
 17 10  2  0  0  0  0
 18 17  1  0  0  0  0
 19 11  2  0  0  0  0
 19 17  1  0  0  0  0
 20 19  1  0  0  0  0
 21 22  1  0  0  0  0
 23 28  1  0  0  0  0
 24 23  1  0  0  0  0
 25 26  1  0  0  0  0
 25 21  2  0  0  0  0
 27  4  2  0  0  0  0
 28 29  1  0  0  0  0
 28 30  2  0  0  0  0
 30 31  1  0  0  0  0
M  CHG  1   1  -1
M  END
