1,4
 OpenBabel05122313063D

 41 42  0  0  1  0  0  0  0  0999 V2000
    1.7862   -0.2110   -0.4706 O   0  0  0  0  0  1  0  0  0  0  0  0
   -6.4649   -3.3576   -0.9463 O   0  0  0  0  0  0  0  0  0  0  0  0
   -6.0519   -4.5184    0.8597 O   0  0  0  0  0  0  0  0  0  0  0  0
   -0.3452   -1.8937   -0.0939 N   0  0  0  0  0  2  0  0  0  0  0  0
   -5.7148   -3.7560   -0.0479 N   0  0  0  0  0  0  0  0  0  0  0  0
    6.1978   -2.0311   -0.5619 N   0  0  0  0  0  0  0  0  0  0  0  0
   -1.6830   -2.3623   -0.0722 C   0  0  0  0  0  0  0  0  0  0  0  0
   -2.5793   -1.9632   -1.0894 C   0  0  0  0  0  0  0  0  0  0  0  0
   -3.8933   -2.4274   -1.0961 C   0  0  0  0  0  0  0  0  0  0  0  0
   -4.3202   -3.2803   -0.0632 C   0  0  0  0  0  0  0  0  0  0  0  0
   -3.4523   -3.6867    0.9597 C   0  0  0  0  0  0  0  0  0  0  0  0
   -2.1331   -3.2251    0.9509 C   0  0  0  0  0  0  0  0  0  0  0  0
    0.6092   -2.8194   -0.0805 C   0  0  0  0  0  0  0  0  0  0  0  0
    2.0023   -2.5958   -0.1651 C   0  0  0  0  0  0  0  0  0  0  0  0
    2.5415   -1.2700   -0.3660 C   0  0  1  0  0  3  0  0  0  0  0  0
    3.9432   -1.1113   -0.4823 C   0  0  0  0  0  0  0  0  0  0  0  0
    4.8359   -2.2067   -0.4314 C   0  0  0  0  0  0  0  0  0  0  0  0
    4.2773   -3.5240   -0.2472 C   0  0  0  0  0  0  0  0  0  0  0  0
    2.9129   -3.6917   -0.1255 C   0  0  0  0  0  0  0  0  0  0  0  0
    6.7720   -0.6860   -0.5933 C   0  0  0  0  0  0  0  0  0  0  0  0
    6.8725   -0.0082    0.7768 C   0  0  0  0  0  0  0  0  0  0  0  0
    7.1219   -3.1591   -0.4911 C   0  0  0  0  0  0  0  0  0  0  0  0
    7.4802   -3.6169    0.9275 C   0  0  0  0  0  0  0  0  0  0  0  0
   -2.2188   -1.2826   -1.8726 H   0  0  0  0  0  0  0  0  0  0  0  0
   -4.6052   -2.1468   -1.8830 H   0  0  0  0  0  0  0  0  0  0  0  0
   -3.8342   -4.3465    1.7498 H   0  0  0  0  0  0  0  0  0  0  0  0
   -1.4437   -3.5037    1.7610 H   0  0  0  0  0  0  0  0  0  0  0  0
    0.2792   -3.8762   -0.0488 H   0  0  0  0  0  0  0  0  0  0  0  0
    4.2930   -0.0825   -0.6224 H   0  0  0  0  0  0  0  0  0  0  0  0
    4.9272   -4.4049   -0.1940 H   0  0  0  0  0  0  0  0  0  0  0  0
    2.5054   -4.7061    0.0133 H   0  0  0  0  0  0  0  0  0  0  0  0
    7.7770   -0.7685   -1.0546 H   0  0  0  0  0  0  0  0  0  0  0  0
    6.1735   -0.0587   -1.2867 H   0  0  0  0  0  0  0  0  0  0  0  0
    7.1994    1.0456    0.6762 H   0  0  0  0  0  0  0  0  0  0  0  0
    7.5900   -0.5339    1.4371 H   0  0  0  0  0  0  0  0  0  0  0  0
    5.8866   -0.0043    1.2822 H   0  0  0  0  0  0  0  0  0  0  0  0
    8.0432   -2.8586   -1.0312 H   0  0  0  0  0  0  0  0  0  0  0  0
    6.6998   -4.0062   -1.0706 H   0  0  0  0  0  0  0  0  0  0  0  0
    8.1561   -4.4954    0.8912 H   0  0  0  0  0  0  0  0  0  0  0  0
    7.9939   -2.8155    1.4937 H   0  0  0  0  0  0  0  0  0  0  0  0
    6.5734   -3.9038    1.4964 H   0  0  0  0  0  0  0  0  0  0  0  0
  2  5  2  0  0  0  0
  4 13  1  0  0  0  0
  4  7  1  0  0  0  0
  5  3  2  0  0  0  0
  6 22  1  0  0  0  0
  6 17  1  0  0  0  0
  7 12  1  0  0  0  0
  8  7  2  0  0  0  0
  9  8  1  0  0  0  0
  9 10  2  0  0  0  0
 10  5  1  0  0  0  0
 10 11  1  0  0  0  0
 11 26  1  0  0  0  0
 12 11  2  0  0  0  0
 12 27  1  0  0  0  0
 13 28  1  0  0  0  0
 14 19  1  0  0  0  0
 14 13  2  0  0  0  0
 15  1  1  6  0  0  0
 15 14  1  0  0  0  0
 16 17  2  0  0  0  0
 16 15  1  0  0  0  0
 17 18  1  0  0  0  0
 18 30  1  0  0  0  0
 18 19  2  0  0  0  0
 19 31  1  0  0  0  0
 20  6  1  0  0  0  0
 20 21  1  0  0  0  0
 21 36  1  0  0  0  0
 21 35  1  0  0  0  0
 22 23  1  0  0  0  0
 23 40  1  0  0  0  0
 23 41  1  0  0  0  0
 24  8  1  0  0  0  0
 25  9  1  0  0  0  0
 29 16  1  0  0  0  0
 32 20  1  0  0  0  0
 33 20  1  0  0  0  0
 34 21  1  0  0  0  0
 37 22  1  0  0  0  0
 38 22  1  0  0  0  0
 39 23  1  0  0  0  0
M  END
