3,23
 OpenBabel05122313063D

 25 27  0  0  0  0  0  0  0  0999 V2000
   -3.4103   -3.1508   -0.1366 Br  0  0  0  0  0  0  0  0  0  0  0  0
   -6.4327    1.0856   -2.4745 Br  0  0  0  0  0  0  0  0  0  0  0  0
   -0.8345    1.7016    0.9857 N   0  0  0  0  0  2  0  0  0  0  0  0
   -3.6625   -1.2970   -0.4501 C   0  0  0  0  0  0  0  0  0  0  0  0
   -4.7653   -0.8703   -1.1882 C   0  0  0  0  0  0  0  0  0  0  0  0
   -5.4768   -1.6071   -1.5842 H   0  0  0  0  0  0  0  0  0  0  0  0
   -4.9464    0.5063   -1.4345 C   0  0  0  0  0  0  0  0  0  0  0  0
   -4.0396    1.4368   -0.9330 C   0  0  0  0  0  3  0  0  0  0  0  0
   -4.1862    2.5035   -1.1568 H   0  0  0  0  0  0  0  0  0  0  0  0
   -2.9264    1.0080   -0.1710 C   0  0  0  0  0  0  0  0  0  0  0  0
   -2.6815   -0.3890    0.0758 C   0  0  0  0  0  0  0  0  0  0  0  0
   -2.0455    1.9663    0.4576 C   0  0  0  0  0  0  0  0  0  0  0  0
   -0.3673    2.8805    1.5749 C   0  0  0  0  0  0  0  0  0  0  0  0
    0.7945    3.1643    2.3152 C   0  0  0  0  0  0  0  0  0  0  0  0
    1.5492    2.3870    2.4771 H   0  0  0  0  0  0  0  0  0  0  0  0
    0.9509    4.4662    2.8038 C   0  0  0  0  0  0  0  0  0  0  0  0
    1.8544    4.7140    3.3804 H   0  0  0  0  0  0  0  0  0  0  0  0
   -0.0160    5.4726    2.5720 C   0  0  0  0  0  0  0  0  0  0  0  0
    0.1485    6.4839    2.9725 H   0  0  0  0  0  0  0  0  0  0  0  0
   -1.1843    5.2047    1.8473 C   0  0  0  0  0  0  0  0  0  0  0  0
   -1.9463    5.9785    1.6747 H   0  0  0  0  0  0  0  0  0  0  0  0
   -1.3401    3.8985    1.3619 C   0  0  0  0  0  0  0  0  0  0  0  0
   -1.6717   -0.8507    0.7565 O   0  5  0  0  0  0  0  0  0  0  0  0
   -2.3637    3.2888    0.6549 N   0  0  0  0  0  0  0  0  0  0  0  0
   -3.2636    3.7050    0.4215 H   0  0  0  0  0  0  0  0  0  0  0  0
  2  7  1  0  0  0  0
  3 13  1  0  0  0  0
  4  1  1  0  0  0  0
  4 11  2  0  0  0  0
  5  4  1  0  0  0  0
  6  5  1  0  0  0  0
  7  5  2  0  0  0  0
  7  8  1  0  0  0  0
  8 10  1  0  0  0  0
  9  8  1  0  0  0  0
 10 11  1  0  0  0  0
 10 12  2  0  0  0  0
 11 23  1  0  0  0  0
 12 24  1  0  0  0  0
 12  3  1  0  0  0  0
 13 14  1  0  0  0  0
 14 15  1  0  0  0  0
 14 16  2  0  0  0  0
 16 17  1  0  0  0  0
 18 16  1  0  0  0  0
 18 19  1  0  0  0  0
 20 18  2  0  0  0  0
 21 20  1  0  0  0  0
 22 13  2  0  0  0  0
 22 20  1  0  0  0  0
 24 22  1  0  0  0  0
 25 24  1  0  0  0  0
M  CHG  1  23  -1
M  END
