1,2
 OpenBabel05122313063D

 16 16  0  0  1  0  0  0  0  0999 V2000
    0.8127    1.8923    0.0003 O   0  0  0  0  0  1  0  0  0  0  0  0
    1.8004   -0.5127    0.0003 N   0  0  0  0  0  2  0  0  0  0  0  0
    2.2662   -1.7768    0.0013 C   0  0  0  0  0  3  0  0  0  0  0  0
    1.4900   -2.5656    0.0015 H   0  0  0  0  0  0  0  0  0  0  0  0
    3.6395   -2.0591    0.0015 C   0  0  0  0  0  0  0  0  0  0  0  0
    3.9652   -3.1089    0.0024 H   0  0  0  0  0  0  0  0  0  0  0  0
    4.5696   -1.0078    0.0005 C   0  0  0  0  0  0  0  0  0  0  0  0
    5.6511   -1.2078    0.0006 H   0  0  0  0  0  0  0  0  0  0  0  0
    4.0882    0.3045   -0.0005 C   0  0  0  0  0  0  0  0  0  0  0  0
    4.7765    1.1610   -0.0012 H   0  0  0  0  0  0  0  0  0  0  0  0
    2.6988    0.5292   -0.0005 C   0  0  0  0  0  0  0  0  0  0  0  0
    2.0782    1.8497   -0.0007 C   0  0  2  0  0  3  0  0  0  0  0  0
    2.8675    3.1217   -0.0018 C   0  0  0  0  0  0  0  0  0  0  0  0
    3.5221    3.1832   -0.8959 H   0  0  0  0  0  0  0  0  0  0  0  0
    3.5218    3.1848    0.8925 H   0  0  0  0  0  0  0  0  0  0  0  0
    2.1747    3.9819   -0.0026 H   0  0  0  0  0  0  0  0  0  0  0  0
  2  3  1  0  0  0  0
  3  4  1  0  0  0  0
  3  5  1  0  0  0  0
  5  6  1  0  0  0  0
  7  8  1  0  0  0  0
  7  5  2  0  0  0  0
  9 11  2  0  0  0  0
  9  7  1  0  0  0  0
 10  9  1  0  0  0  0
 11  2  1  0  0  0  0
 12 11  1  0  0  0  0
 12  1  1  1  0  0  0
 13 12  1  0  0  0  0
 13 15  1  0  0  0  0
 14 13  1  0  0  0  0
 16 13  1  0  0  0  0
M  END
