1,11
 OpenBabel05122313063D

 12 12  0  0  0  0  0  0  0  0999 V2000
    0.6901    1.1903    1.5997 N   0  0  0  0  0  2  0  0  0  0  0  0
    1.7244    2.0572    1.6111 C   0  0  0  0  0  3  0  0  0  0  0  0
    2.2107    2.2665    0.6446 H   0  0  0  0  0  0  0  0  0  0  0  0
    2.1326    2.6575    2.8092 C   0  0  0  0  0  0  0  0  0  0  0  0
    2.9820    3.3624    2.8121 H   0  0  0  0  0  0  0  0  0  0  0  0
    1.5239    2.4148    3.9826 N   0  0  0  0  0  0  0  0  0  0  0  0
    0.5039    1.5458    3.9541 C   0  0  0  0  0  0  0  0  0  0  0  0
   -0.0271    1.3073    4.8906 H   0  0  0  0  0  0  0  0  0  0  0  0
    0.0787    0.9092    2.7731 C   0  0  0  0  0  0  0  0  0  0  0  0
   -1.0429   -0.1269    2.7772 C   0  0  0  0  0  0  0  0  0  0  0  0
   -1.2398   -0.6992    1.6234 O   0  5  0  0  0  0  0  0  0  0  0  0
   -1.6390   -0.3507    3.8290 O   0  0  0  0  0  0  0  0  0  0  0  0
  1  2  1  0  0  0  0
  1  9  1  0  0  0  0
  2  4  1  0  0  0  0
  3  2  1  0  0  0  0
  4  5  1  0  0  0  0
  4  6  2  0  0  0  0
  7  6  1  0  0  0  0
  7  8  1  0  0  0  0
  9 10  1  0  0  0  0
  9  7  2  0  0  0  0
 10 12  2  0  0  0  0
 11 10  1  0  0  0  0
M  CHG  1  11  -1
M  END
