1,24
 OpenBabel05122313063D

 37 38  0  0  0  0  0  0  0  0999 V2000
    1.5519   -0.2444   -0.0134 O   0  5  0  0  0  0  0  0  0  0  0  0
    2.3743    0.7867    0.0605 C   0  0  0  0  0  0  0  0  0  0  0  0
    1.8112    2.0966    0.1713 C   0  0  0  0  0  0  0  0  0  0  0  0
    2.6732    3.2169    0.2402 C   0  0  0  0  0  0  0  0  0  0  0  0
    2.2358    4.2242    0.3230 H   0  0  0  0  0  0  0  0  0  0  0  0
    4.0528    3.0375    0.2058 C   0  0  0  0  0  0  0  0  0  0  0  0
    4.7284    3.9033    0.2598 H   0  0  0  0  0  0  0  0  0  0  0  0
    4.5879    1.7375    0.1020 C   0  0  0  0  0  0  0  0  0  0  0  0
    5.6802    1.6272    0.0783 H   0  0  0  0  0  0  0  0  0  0  0  0
    3.7874    0.5847    0.0263 C   0  0  0  0  0  0  0  0  0  0  0  0
    4.3776   -0.8315   -0.0873 C   0  0  0  0  0  0  0  0  0  0  0  0
    5.9167   -0.7980   -0.1006 C   0  0  0  0  0  0  0  0  0  0  0  0
    6.3031   -1.8333   -0.1813 H   0  0  0  0  0  0  0  0  0  0  0  0
    6.3333   -0.3606    0.8297 H   0  0  0  0  0  0  0  0  0  0  0  0
    6.3152   -0.2277   -0.9644 H   0  0  0  0  0  0  0  0  0  0  0  0
    3.9280   -1.6835    1.1249 C   0  0  0  0  0  0  0  0  0  0  0  0
    4.3828   -2.6932    1.0583 H   0  0  0  0  0  0  0  0  0  0  0  0
    2.8308   -1.8100    1.1613 H   0  0  0  0  0  0  0  0  0  0  0  0
    4.2600   -1.2209    2.0766 H   0  0  0  0  0  0  0  0  0  0  0  0
    3.9014   -1.4919   -1.4042 C   0  0  0  0  0  0  0  0  0  0  0  0
    4.3582   -2.4981   -1.5016 H   0  0  0  0  0  0  0  0  0  0  0  0
    4.2111   -0.8889   -2.2820 H   0  0  0  0  0  0  0  0  0  0  0  0
    2.8037   -1.6164   -1.4339 H   0  0  0  0  0  0  0  0  0  0  0  0
   -0.5579    1.4167    0.2118 N   0  0  0  0  0  2  0  0  0  0  0  0
    0.3819    2.3189    0.2141 C   0  0  0  0  0  3  0  0  0  0  0  0
    0.0725    3.3844    0.2646 H   0  0  0  0  0  0  0  0  0  0  0  0
   -1.9061    1.8654    0.1799 C   0  0  0  0  0  0  0  0  0  0  0  0
   -2.7841    1.5400    1.2336 C   0  0  0  0  0  0  0  0  0  0  0  0
   -2.3915    0.9644    2.0838 H   0  0  0  0  0  0  0  0  0  0  0  0
   -4.1216    1.9521    1.1701 C   0  0  0  0  0  0  0  0  0  0  0  0
   -4.8024    1.7068    1.9996 H   0  0  0  0  0  0  0  0  0  0  0  0
   -4.5957    2.6762    0.0619 C   0  0  0  0  0  0  0  0  0  0  0  0
   -5.6492    2.9906    0.0165 H   0  0  0  0  0  0  0  0  0  0  0  0
   -3.7191    2.9954   -0.9870 C   0  0  0  0  0  0  0  0  0  0  0  0
   -4.0834    3.5539   -1.8624 H   0  0  0  0  0  0  0  0  0  0  0  0
   -2.3756    2.5947   -0.9320 C   0  0  0  0  0  0  0  0  0  0  0  0
   -1.6870    2.7937   -1.7660 H   0  0  0  0  0  0  0  0  0  0  0  0
  1  2  1  0  0  0  0
  2  3  1  0  0  0  0
  3 25  1  0  0  0  0
  3  4  2  0  0  0  0
  4  5  1  0  0  0  0
  6  4  1  0  0  0  0
  6  7  1  0  0  0  0
  8  6  2  0  0  0  0
  9  8  1  0  0  0  0
 10  2  2  0  0  0  0
 10  8  1  0  0  0  0
 11 10  1  0  0  0  0
 11 16  1  0  0  0  0
 12 11  1  0  0  0  0
 12 14  1  0  0  0  0
 13 12  1  0  0  0  0
 15 12  1  0  0  0  0
 16 18  1  0  0  0  0
 16 19  1  0  0  0  0
 17 16  1  0  0  0  0
 20 11  1  0  0  0  0
 21 20  1  0  0  0  0
 22 20  1  0  0  0  0
 23 20  1  0  0  0  0
 24 25  1  0  0  0  0
 25 26  1  0  0  0  0
 27 24  1  0  0  0  0
 27 28  1  0  0  0  0
 28 29  1  0  0  0  0
 30 28  2  0  0  0  0
 30 31  1  0  0  0  0
 32 30  1  0  0  0  0
 33 32  1  0  0  0  0
 34 36  1  0  0  0  0
 34 32  2  0  0  0  0
 35 34  1  0  0  0  0
 36 27  2  0  0  0  0
 37 36  1  0  0  0  0
M  CHG  1   1  -1
M  END
