1,2
 OpenBabel05122313063D

 13 13  0  0  0  0  0  0  0  0999 V2000
   -1.2572    0.6786   -1.0719 N   0  0  0  0  0  2  0  0  0  0  0  0
   -1.3303   -0.7028    1.0772 O   0  5  0  0  0  0  0  0  0  0  0  0
   -2.4909   -0.3377    0.6275 C   0  0  0  0  0  0  0  0  0  0  0  0
   -3.7320   -0.6635    1.2468 C   0  0  0  0  0  0  0  0  0  0  0  0
   -4.9175   -0.2484    0.6518 C   0  0  0  0  0  0  0  0  0  0  0  0
   -4.9267    0.4965   -0.5661 C   0  0  0  0  0  0  0  0  0  0  0  0
   -3.7367    0.8342   -1.1968 C   0  0  0  0  0  0  0  0  0  0  0  0
   -2.5060    0.4336   -0.6078 C   0  0  0  0  0  0  0  0  0  0  0  0
   -3.7183   -1.2415    2.1818 H   0  0  0  0  0  0  0  0  0  0  0  0
   -1.1992    1.1723   -1.9766 H   0  0  0  0  0  0  0  0  0  0  0  0
   -5.8775   -0.5004    1.1281 H   0  0  0  0  0  0  0  0  0  0  0  0
   -5.8875    0.8040   -1.0045 H   0  0  0  0  0  0  0  0  0  0  0  0
   -3.7287    1.4100   -2.1358 H   0  0  0  0  0  0  0  0  0  0  0  0
  1  8  1  0  0  0  0
  3  2  1  0  0  0  0
  3  4  1  0  0  0  0
  4  9  1  0  0  0  0
  5 11  1  0  0  0  0
  5  4  2  0  0  0  0
  6  5  1  0  0  0  0
  7  8  1  0  0  0  0
  7  6  2  0  0  0  0
  8  3  2  0  0  0  0
 10  1  1  0  0  0  0
 12  6  1  0  0  0  0
 13  7  1  0  0  0  0
M  CHG  1   2  -1
M  END
