1,2
 OpenBabel05122313063D

 61 64  0  0  1  0  0  0  0  0999 V2000
   -1.0276    0.3868   -0.6258 O   0  0  0  0  0  1  0  0  0  0  0  0
    1.6939    0.5103   -0.0866 N   0  0  0  0  0  2  0  0  0  0  0  0
   -3.4017    0.0055    0.7835 C   0  0  0  0  0  0  0  0  0  0  0  0
   -2.5280    3.6236   -0.1783 C   0  0  0  0  0  0  0  0  0  0  0  0
    3.0013    0.1539    0.3821 C   0  0  0  0  0  0  0  0  0  0  0  0
   -1.0599    1.6119   -0.2432 C   0  0  1  0  0  3  0  0  0  0  0  0
    1.3565    1.7882    0.1288 C   0  0  0  0  0  0  0  0  0  0  0  0
    2.1680    2.4344    0.5196 H   0  0  0  0  0  0  0  0  0  0  0  0
   -2.3942    2.2216    0.0024 C   0  0  0  0  0  0  0  0  0  0  0  0
   -3.5200    1.4349    0.3814 C   0  0  0  0  0  0  0  0  0  0  0  0
   -4.7789    2.0646    0.4674 C   0  0  0  0  0  0  0  0  0  0  0  0
   -5.6502    1.4663    0.7746 H   0  0  0  0  0  0  0  0  0  0  0  0
   -4.2923   -0.9650    0.2814 C   0  0  0  0  0  0  0  0  0  0  0  0
   -5.0487   -0.6664   -0.4608 H   0  0  0  0  0  0  0  0  0  0  0  0
   -2.4289   -0.4020    1.7254 C   0  0  0  0  0  0  0  0  0  0  0  0
   -1.7339    0.3441    2.1390 H   0  0  0  0  0  0  0  0  0  0  0  0
   -0.0892    3.8701    0.3082 C   0  0  0  0  0  0  0  0  0  0  0  0
    0.8349    4.4272    0.0507 H   0  0  0  0  0  0  0  0  0  0  0  0
   -0.2692    4.0411    1.3959 H   0  0  0  0  0  0  0  0  0  0  0  0
   -3.7949    4.2184   -0.0731 C   0  0  0  0  0  0  0  0  0  0  0  0
   -3.8960    5.3049   -0.2234 H   0  0  0  0  0  0  0  0  0  0  0  0
    0.0921    2.3953    0.0068 C   0  0  0  0  0  0  0  0  0  0  0  0
   -4.9217    3.4378    0.2253 C   0  0  0  0  0  0  0  0  0  0  0  0
   -5.9134    3.9085    0.3059 H   0  0  0  0  0  0  0  0  0  0  0  0
   -2.3373   -1.7370    2.1320 C   0  0  0  0  0  0  0  0  0  0  0  0
   -1.5676   -2.0310    2.8628 H   0  0  0  0  0  0  0  0  0  0  0  0
   -3.2186   -2.6989    1.6083 C   0  0  0  0  0  0  0  0  0  0  0  0
   -3.1416   -3.7513    1.9212 H   0  0  0  0  0  0  0  0  0  0  0  0
    4.1572    0.5271   -0.3481 C   0  0  0  0  0  0  0  0  0  0  0  0
   -1.2809    4.4223   -0.4834 C   0  0  0  0  0  0  0  0  0  0  0  0
   -1.4541    5.4941   -0.2590 H   0  0  0  0  0  0  0  0  0  0  0  0
   -1.0518    4.3519   -1.5718 H   0  0  0  0  0  0  0  0  0  0  0  0
    4.0535    1.2518   -1.6856 C   0  0  0  0  0  0  0  0  0  0  0  0
    2.9855    1.2259   -1.9841 H   0  0  0  0  0  0  0  0  0  0  0  0
    3.0970   -0.5899    1.5906 C   0  0  0  0  0  0  0  0  0  0  0  0
    5.4179    0.1950    0.1871 C   0  0  0  0  0  0  0  0  0  0  0  0
    6.3283    0.4848   -0.3603 H   0  0  0  0  0  0  0  0  0  0  0  0
   -4.1983   -2.3062    0.6848 C   0  0  0  0  0  0  0  0  0  0  0  0
   -4.8903   -3.0519    0.2642 H   0  0  0  0  0  0  0  0  0  0  0  0
    5.5317   -0.5050    1.3927 C   0  0  0  0  0  0  0  0  0  0  0  0
    6.5256   -0.7535    1.7951 H   0  0  0  0  0  0  0  0  0  0  0  0
    1.8300   -1.0120    2.3244 C   0  0  0  0  0  0  0  0  0  0  0  0
    1.0496   -1.1228    1.5368 H   0  0  0  0  0  0  0  0  0  0  0  0
    4.3762   -0.9041    2.0800 C   0  0  0  0  0  0  0  0  0  0  0  0
    4.4727   -1.4707    3.0181 H   0  0  0  0  0  0  0  0  0  0  0  0
    4.4741    2.7272   -1.5652 C   0  0  0  0  0  0  0  0  0  0  0  0
    3.8586    3.2691   -0.8196 H   0  0  0  0  0  0  0  0  0  0  0  0
    4.3693    3.2496   -2.5386 H   0  0  0  0  0  0  0  0  0  0  0  0
    5.5341    2.8140   -1.2468 H   0  0  0  0  0  0  0  0  0  0  0  0
    1.3463    0.0880    3.2855 C   0  0  0  0  0  0  0  0  0  0  0  0
    0.3960   -0.2079    3.7777 H   0  0  0  0  0  0  0  0  0  0  0  0
    1.1680    1.0423    2.7517 H   0  0  0  0  0  0  0  0  0  0  0  0
    2.0974    0.2779    4.0807 H   0  0  0  0  0  0  0  0  0  0  0  0
    4.8549    0.5411   -2.7890 C   0  0  0  0  0  0  0  0  0  0  0  0
    4.5565   -0.5224   -2.8805 H   0  0  0  0  0  0  0  0  0  0  0  0
    5.9463    0.5698   -2.5907 H   0  0  0  0  0  0  0  0  0  0  0  0
    4.6850    1.0315   -3.7694 H   0  0  0  0  0  0  0  0  0  0  0  0
    1.9565   -2.3615    3.0393 C   0  0  0  0  0  0  0  0  0  0  0  0
    2.3271   -3.1504    2.3536 H   0  0  0  0  0  0  0  0  0  0  0  0
    0.9689   -2.6825    3.4301 H   0  0  0  0  0  0  0  0  0  0  0  0
    2.6470   -2.3158    3.9074 H   0  0  0  0  0  0  0  0  0  0  0  0
  2  7  1  0  0  0  0
  2  5  1  0  0  0  0
  3 15  1  0  0  0  0
  4 20  2  0  0  0  0
  4  9  1  0  0  0  0
  5 35  1  0  0  0  0
  6  1  1  1  0  0  0
  6  9  1  0  0  0  0
  6 22  1  0  0  0  0
  7  8  1  0  0  0  0
  9 10  2  0  0  0  0
 10 11  1  0  0  0  0
 10  3  1  0  0  0  0
 11 12  1  0  0  0  0
 13 38  1  0  0  0  0
 13  3  2  0  0  0  0
 14 13  1  0  0  0  0
 15 25  2  0  0  0  0
 15 16  1  0  0  0  0
 17 19  1  0  0  0  0
 18 17  1  0  0  0  0
 20 23  1  0  0  0  0
 21 20  1  0  0  0  0
 22  7  2  0  0  0  0
 22 17  1  0  0  0  0
 23 24  1  0  0  0  0
 23 11  2  0  0  0  0
 25 26  1  0  0  0  0
 27 28  1  0  0  0  0
 27 25  1  0  0  0  0
 29 36  1  0  0  0  0
 29  5  2  0  0  0  0
 30 31  1  0  0  0  0
 30  4  1  0  0  0  0
 30 17  1  0  0  0  0
 32 30  1  0  0  0  0
 33 46  1  0  0  0  0
 33 29  1  0  0  0  0
 34 33  1  0  0  0  0
 35 44  2  0  0  0  0
 35 42  1  0  0  0  0
 36 40  2  0  0  0  0
 37 36  1  0  0  0  0
 38 27  2  0  0  0  0
 39 38  1  0  0  0  0
 40 41  1  0  0  0  0
 40 44  1  0  0  0  0
 42 58  1  0  0  0  0
 42 50  1  0  0  0  0
 43 42  1  0  0  0  0
 44 45  1  0  0  0  0
 46 49  1  0  0  0  0
 46 47  1  0  0  0  0
 48 46  1  0  0  0  0
 50 51  1  0  0  0  0
 50 53  1  0  0  0  0
 52 50  1  0  0  0  0
 54 56  1  0  0  0  0
 54 33  1  0  0  0  0
 55 54  1  0  0  0  0
 57 54  1  0  0  0  0
 58 60  1  0  0  0  0
 58 61  1  0  0  0  0
 59 58  1  0  0  0  0
M  END
