1,2
 OpenBabel05122313063D

 16 17  0  0  0  0  0  0  0  0999 V2000
   -1.0893   -0.2261   -1.2754 O   0  5  0  0  0  0  0  0  0  0  0  0
    0.4018   -1.5551    0.4940 N   0  0  0  0  0  0  0  0  0  0  0  0
   -2.0609   -1.0857   -1.0000 C   0  0  0  0  0  0  0  0  0  0  0  0
    1.4554   -2.1299    1.1061 N   0  0  0  0  0  2  0  0  0  0  0  0
   -0.5977   -2.4747    0.4553 C   0  0  0  0  0  0  0  0  0  0  0  0
   -3.3355   -0.8763   -1.5948 C   0  0  0  0  0  0  0  0  0  0  0  0
   -1.8977   -2.2217   -0.1418 C   0  0  0  0  0  0  0  0  0  0  0  0
    1.1042   -3.3535    1.4336 N   0  0  0  0  0  0  0  0  0  0  0  0
   -0.1665   -3.6017    1.0510 N   0  0  0  0  0  0  0  0  0  0  0  0
   -3.4530   -0.0010   -2.2500 H   0  0  0  0  0  0  0  0  0  0  0  0
   -4.4013   -1.7400   -1.3338 C   0  0  0  0  0  0  0  0  0  0  0  0
   -2.9869   -3.0841    0.1037 C   0  0  0  0  0  0  0  0  0  0  0  0
   -5.3792   -1.5471   -1.8028 H   0  0  0  0  0  0  0  0  0  0  0  0
   -4.2378   -2.8464   -0.4742 C   0  0  0  0  0  0  0  0  0  0  0  0
   -2.8135   -3.9477    0.7633 H   0  0  0  0  0  0  0  0  0  0  0  0
   -5.0806   -3.5236   -0.2712 H   0  0  0  0  0  0  0  0  0  0  0  0
  1  3  1  0  0  0  0
  2  4  1  0  0  0  0
  3  7  1  0  0  0  0
  4  8  1  0  0  0  0
  5  2  2  0  0  0  0
  5  9  1  0  0  0  0
  6 11  1  0  0  0  0
  6  3  2  0  0  0  0
  7 12  2  0  0  0  0
  7  5  1  0  0  0  0
  9  8  2  0  0  0  0
 10  6  1  0  0  0  0
 11 14  2  0  0  0  0
 12 15  1  0  0  0  0
 13 11  1  0  0  0  0
 14 16  1  0  0  0  0
 14 12  1  0  0  0  0
M  CHG  1   1  -1
M  END
