3,4
 OpenBabel05122313063D

 35 37  0  0  1  0  0  0  0  0999 V2000
   -5.4012   -2.4590    0.2173 Cl  0  0  0  0  0  0  0  0  0  0  0  0
    3.3531   -1.2332   -0.7347 N   0  0  0  0  0  0  0  0  0  0  0  0
    2.2193    0.7178   -1.0029 O   0  0  0  0  0  1  0  0  0  0  0  0
   -1.4846    0.9459    0.3540 N   0  0  0  0  0  2  0  0  0  0  0  0
   -0.0719   -0.4492   -1.4353 O   0  0  0  0  0  0  0  0  0  0  0  0
   -2.0289   -0.2046   -0.1344 C   0  0  0  0  0  0  0  0  0  0  0  0
   -1.2621   -0.9870   -1.0601 C   0  0  0  0  0  0  0  0  0  0  0  0
    2.2630   -0.5327   -1.0826 C   0  0  1  0  0  3  0  0  0  0  0  0
   -3.3366   -0.6447    0.2659 C   0  0  0  0  0  0  0  0  0  0  0  0
    4.4931   -0.5647   -0.0710 C   0  0  0  0  0  0  0  0  0  0  0  0
    4.1356    0.3586    0.4227 H   0  0  0  0  0  0  0  0  0  0  0  0
    5.2512   -0.2775   -0.8321 H   0  0  0  0  0  0  0  0  0  0  0  0
    1.0544   -1.2996   -1.6244 C   0  0  0  0  0  0  0  0  0  0  0  0
    1.2025   -1.5025   -2.7093 H   0  0  0  0  0  0  0  0  0  0  0  0
    0.9104   -2.2560   -1.0863 H   0  0  0  0  0  0  0  0  0  0  0  0
    4.7466   -2.9415    0.1189 C   0  0  0  0  0  0  0  0  0  0  0  0
    4.7489   -3.8441    0.7595 H   0  0  0  0  0  0  0  0  0  0  0  0
    5.5104   -3.0872   -0.6740 H   0  0  0  0  0  0  0  0  0  0  0  0
   -2.1765    1.7080    1.1979 C   0  0  0  0  0  0  0  0  0  0  0  0
   -1.6690    2.6258    1.5397 H   0  0  0  0  0  0  0  0  0  0  0  0
   -3.4831    1.3664    1.6225 C   0  0  0  0  0  0  0  0  0  0  0  0
   -4.0197    2.0299    2.3147 H   0  0  0  0  0  0  0  0  0  0  0  0
   -1.7678   -2.1930   -1.5288 C   0  0  0  0  0  0  0  0  0  0  0  0
   -1.1865   -2.7988   -2.2377 H   0  0  0  0  0  0  0  0  0  0  0  0
   -3.0474   -2.6441   -1.1185 C   0  0  0  0  0  0  0  0  0  0  0  0
   -3.4395   -3.5966   -1.5005 H   0  0  0  0  0  0  0  0  0  0  0  0
   -3.8223   -1.8879   -0.2506 C   0  0  1  0  0  3  0  0  0  0  0  0
    3.3697   -2.6932   -0.5102 C   0  0  0  0  0  0  0  0  0  0  0  0
    3.2141   -3.2545   -1.4543 H   0  0  0  0  0  0  0  0  0  0  0  0
    2.5556   -2.9455    0.2048 H   0  0  0  0  0  0  0  0  0  0  0  0
   -4.0558    0.1899    1.1650 C   0  0  0  0  0  0  0  0  0  0  0  0
   -5.0619   -0.1202    1.4823 H   0  0  0  0  0  0  0  0  0  0  0  0
    5.0101   -1.6395    0.8890 C   0  0  0  0  0  0  0  0  0  0  0  0
    6.0736   -1.4935    1.1573 H   0  0  0  0  0  0  0  0  0  0  0  0
    4.4038   -1.6120    1.8181 H   0  0  0  0  0  0  0  0  0  0  0  0
  2 28  1  0  0  0  0
  2 10  1  0  0  0  0
  4 19  1  0  0  0  0
  5  7  1  0  0  0  0
  6  9  1  0  0  0  0
  6  4  1  0  0  0  0
  7  6  2  0  0  0  0
  8  3  1  6  0  0  0
  8  2  1  0  0  0  0
  9 31  2  0  0  0  0
 10 11  1  0  0  0  0
 10 33  1  0  0  0  0
 12 10  1  0  0  0  0
 13  5  1  0  0  0  0
 13 15  1  0  0  0  0
 13  8  1  0  0  0  0
 14 13  1  0  0  0  0
 16 17  1  0  0  0  0
 16 33  1  0  0  0  0
 18 16  1  0  0  0  0
 19 20  1  0  0  0  0
 19 21  2  0  0  0  0
 21 22  1  0  0  0  0
 23 25  2  0  0  0  0
 23  7  1  0  0  0  0
 24 23  1  0  0  0  0
 25 27  1  0  0  0  0
 26 25  1  0  0  0  0
 27  1  1  1  0  0  0
 27  9  1  0  0  0  0
 28 16  1  0  0  0  0
 28 30  1  0  0  0  0
 29 28  1  0  0  0  0
 31 32  1  0  0  0  0
 31 21  1  0  0  0  0
 33 34  1  0  0  0  0
 33 35  1  0  0  0  0
M  END
