1,2
 OpenBabel05122313063D

 55 57  0  0  1  0  0  0  0  0999 V2000
    0.2943   -0.5256    0.1814 N   0  0  0  0  0  2  0  0  0  0  0  0
    0.0541    2.0116   -0.5599 O   0  0  0  0  0  1  0  0  0  0  0  0
    1.1702    1.6480   -0.1235 C   0  0  2  0  0  3  0  0  0  0  0  0
    1.4022    0.1571   -0.0093 C   0  0  2  0  0  3  0  0  0  0  0  0
    2.1659    2.6404    0.3096 C   0  0  0  0  0  0  0  0  0  0  0  0
    1.9951    3.9844   -0.1079 C   0  0  0  0  0  0  0  0  0  0  0  0
    1.1568    4.2268   -0.7763 H   0  0  0  0  0  0  0  0  0  0  0  0
    2.8829    4.9730    0.3201 C   0  0  0  0  0  0  0  0  0  0  0  0
    2.7564    6.0113   -0.0200 H   0  0  0  0  0  0  0  0  0  0  0  0
    3.9375    4.6405    1.1911 C   0  0  0  0  0  0  0  0  0  0  0  0
    4.6342    5.4214    1.5313 H   0  0  0  0  0  0  0  0  0  0  0  0
    4.1014    3.3165    1.6321 C   0  0  0  0  0  0  0  0  0  0  0  0
    4.9163    3.0628    2.3256 H   0  0  0  0  0  0  0  0  0  0  0  0
    3.2302    2.3160    1.1889 C   0  0  0  0  0  0  0  0  0  0  0  0
    3.3651    1.2852    1.5431 H   0  0  0  0  0  0  0  0  0  0  0  0
    2.7520   -0.4063   -0.2308 C   0  0  0  0  0  0  0  0  0  0  0  0
    3.5614    0.1981   -1.2259 C   0  0  0  0  0  0  0  0  0  0  0  0
    3.1886    1.0706   -1.7825 H   0  0  0  0  0  0  0  0  0  0  0  0
    4.8256   -0.3197   -1.5289 C   0  0  0  0  0  0  0  0  0  0  0  0
    5.4331    0.1505   -2.3159 H   0  0  0  0  0  0  0  0  0  0  0  0
    5.3160   -1.4310   -0.8247 C   0  0  0  0  0  0  0  0  0  0  0  0
    6.3149   -1.8315   -1.0532 H   0  0  0  0  0  0  0  0  0  0  0  0
    4.5282   -2.0307    0.1724 C   0  0  0  0  0  0  0  0  0  0  0  0
    4.9100   -2.8988    0.7293 H   0  0  0  0  0  0  0  0  0  0  0  0
    3.2508   -1.5366    0.4605 C   0  0  0  0  0  0  0  0  0  0  0  0
    2.6472   -2.0234    1.2352 H   0  0  0  0  0  0  0  0  0  0  0  0
    0.2952   -1.9495    0.2646 C   0  0  0  0  0  0  0  0  0  0  0  0
    0.5232   -2.7327   -0.8983 C   0  0  0  0  0  0  0  0  0  0  0  0
    0.4589   -4.1309   -0.7522 C   0  0  0  0  0  0  0  0  0  0  0  0
    0.6217   -4.7672   -1.6348 H   0  0  0  0  0  0  0  0  0  0  0  0
    0.1947   -4.7269    0.4863 C   0  0  0  0  0  0  0  0  0  0  0  0
    0.1632   -5.8230    0.5728 H   0  0  0  0  0  0  0  0  0  0  0  0
   -0.0430   -3.9290    1.6139 C   0  0  0  0  0  0  0  0  0  0  0  0
   -0.2620   -4.4069    2.5789 H   0  0  0  0  0  0  0  0  0  0  0  0
   -0.0144   -2.5264    1.5274 C   0  0  0  0  0  0  0  0  0  0  0  0
    0.7663   -2.1203   -2.2729 C   0  0  0  0  0  0  0  0  0  0  0  0
    0.9667   -1.0389   -2.1429 H   0  0  0  0  0  0  0  0  0  0  0  0
   -0.2637   -1.6373    2.7410 C   0  0  0  0  0  0  0  0  0  0  0  0
   -0.7509   -0.7148    2.3528 H   0  0  0  0  0  0  0  0  0  0  0  0
   -1.2071   -2.2709    3.7709 C   0  0  0  0  0  0  0  0  0  0  0  0
   -2.1368   -2.6489    3.3017 H   0  0  0  0  0  0  0  0  0  0  0  0
   -1.4897   -1.5251    4.5402 H   0  0  0  0  0  0  0  0  0  0  0  0
   -0.7279   -3.1168    4.3044 H   0  0  0  0  0  0  0  0  0  0  0  0
    1.9958   -2.7231   -2.9707 C   0  0  0  0  0  0  0  0  0  0  0  0
    1.8444   -3.7928   -3.2199 H   0  0  0  0  0  0  0  0  0  0  0  0
    2.9001   -2.6458   -2.3358 H   0  0  0  0  0  0  0  0  0  0  0  0
    2.1965   -2.1914   -3.9222 H   0  0  0  0  0  0  0  0  0  0  0  0
   -0.4973   -2.2314   -3.1455 C   0  0  0  0  0  0  0  0  0  0  0  0
   -0.3268   -1.7758   -4.1419 H   0  0  0  0  0  0  0  0  0  0  0  0
   -1.3520   -1.7081   -2.6708 H   0  0  0  0  0  0  0  0  0  0  0  0
   -0.7894   -3.2900   -3.3003 H   0  0  0  0  0  0  0  0  0  0  0  0
    1.0497   -1.1929    3.4137 C   0  0  0  0  0  0  0  0  0  0  0  0
    1.6327   -2.0702    3.7619 H   0  0  0  0  0  0  0  0  0  0  0  0
    0.8368   -0.5565    4.2963 H   0  0  0  0  0  0  0  0  0  0  0  0
    1.6947   -0.6047    2.7314 H   0  0  0  0  0  0  0  0  0  0  0  0
  1 27  1  0  0  0  0
  3  2  1  1  0  0  0
  3  4  1  0  0  0  0
  3  5  1  0  0  0  0
  4  1  1  6  0  0  0
  5 14  1  0  0  0  0
  6  5  2  0  0  0  0
  6  8  1  0  0  0  0
  7  6  1  0  0  0  0
  8 10  2  0  0  0  0
  9  8  1  0  0  0  0
 10 11  1  0  0  0  0
 10 12  1  0  0  0  0
 12 13  1  0  0  0  0
 14 15  1  0  0  0  0
 14 12  2  0  0  0  0
 16  4  1  0  0  0  0
 16 25  1  0  0  0  0
 17 16  2  0  0  0  0
 18 17  1  0  0  0  0
 19 17  1  0  0  0  0
 19 21  2  0  0  0  0
 20 19  1  0  0  0  0
 21 23  1  0  0  0  0
 22 21  1  0  0  0  0
 23 25  2  0  0  0  0
 23 24  1  0  0  0  0
 25 26  1  0  0  0  0
 27 35  1  0  0  0  0
 28 29  1  0  0  0  0
 28 27  2  0  0  0  0
 29 31  2  0  0  0  0
 30 29  1  0  0  0  0
 31 32  1  0  0  0  0
 31 33  1  0  0  0  0
 33 34  1  0  0  0  0
 35 33  2  0  0  0  0
 35 38  1  0  0  0  0
 36 37  1  0  0  0  0
 36 28  1  0  0  0  0
 38 52  1  0  0  0  0
 38 40  1  0  0  0  0
 39 38  1  0  0  0  0
 40 43  1  0  0  0  0
 40 42  1  0  0  0  0
 41 40  1  0  0  0  0
 44 46  1  0  0  0  0
 44 36  1  0  0  0  0
 45 44  1  0  0  0  0
 47 44  1  0  0  0  0
 48 50  1  0  0  0  0
 48 36  1  0  0  0  0
 49 48  1  0  0  0  0
 51 48  1  0  0  0  0
 52 53  1  0  0  0  0
 52 54  1  0  0  0  0
 55 52  1  0  0  0  0
M  END
