1,3
 OpenBabel05122313063D

 49 51  0  0  0  0  0  0  0  0999 V2000
   -4.8036   -0.1944    0.9926 O   0  5  0  0  0  0  0  0  0  0  0  0
    3.3075    1.9389   -2.7477 O   0  0  0  0  0  0  0  0  0  0  0  0
   -2.2688    0.9935    0.2711 N   0  0  0  0  0  2  0  0  0  0  0  0
   10.5152   -0.5505    1.0225 N   0  0  0  0  0  0  0  0  0  0  0  0
   -5.1650    1.0418    1.1574 C   0  0  0  0  0  0  0  0  0  0  0  0
   -6.5196    1.2953    1.5497 C   0  0  0  0  0  0  0  0  0  0  0  0
   -7.1674    0.4192    1.6982 H   0  0  0  0  0  0  0  0  0  0  0  0
   -6.9881    2.5861    1.7526 C   0  0  0  0  0  0  0  0  0  0  0  0
   -8.0334    2.7356    2.0666 H   0  0  0  0  0  0  0  0  0  0  0  0
   -6.1447    3.7113    1.5665 C   0  0  0  0  0  0  0  0  0  0  0  0
   -6.5254    4.7291    1.7318 H   0  0  0  0  0  0  0  0  0  0  0  0
   -4.8315    3.5005    1.1735 C   0  0  0  0  0  0  0  0  0  0  0  0
   -4.1555    4.3575    1.0199 H   0  0  0  0  0  0  0  0  0  0  0  0
   -4.3101    2.1903    0.9578 C   0  0  0  0  0  0  0  0  0  0  0  0
   -2.9507    2.0852    0.5284 C   0  0  0  0  0  3  0  0  0  0  0  0
   -2.4082    3.0429    0.3999 H   0  0  0  0  0  0  0  0  0  0  0  0
   -0.9205    1.1338   -0.1674 C   0  0  0  0  0  0  0  0  0  0  0  0
   -0.6269    1.7485   -1.4020 C   0  0  0  0  0  0  0  0  0  0  0  0
   -1.4517    2.1390   -2.0179 H   0  0  0  0  0  0  0  0  0  0  0  0
    0.6983    1.8272   -1.8410 C   0  0  0  0  0  0  0  0  0  0  0  0
    0.9617    2.2847   -2.8063 H   0  0  0  0  0  0  0  0  0  0  0  0
    1.7557    1.3119   -1.0616 C   0  0  0  0  0  0  0  0  0  0  0  0
    1.4446    0.7163    0.1830 C   0  0  0  0  0  0  0  0  0  0  0  0
    2.2414    0.3135    0.8241 H   0  0  0  0  0  0  0  0  0  0  0  0
    0.1230    0.6200    0.6288 C   0  0  0  0  0  0  0  0  0  0  0  0
   -0.1440    0.1451    1.5859 H   0  0  0  0  0  0  0  0  0  0  0  0
    3.1491    1.4340   -1.6277 C   0  0  0  0  0  0  0  0  0  0  0  0
    4.2872    0.9448   -0.8256 C   0  0  0  0  0  0  0  0  0  0  0  0
    4.1004    0.5143    0.1685 H   0  0  0  0  0  0  0  0  0  0  0  0
    5.5583    1.0346   -1.3169 C   0  0  0  0  0  0  0  0  0  0  0  0
    5.6391    1.4848   -2.3230 H   0  0  0  0  0  0  0  0  0  0  0  0
    6.7971    0.6189   -0.6908 C   0  0  0  0  0  0  0  0  0  0  0  0
    6.8705    0.0250    0.5967 C   0  0  0  0  0  0  0  0  0  0  0  0
    5.9470   -0.1391    1.1721 H   0  0  0  0  0  0  0  0  0  0  0  0
    8.0806   -0.3595    1.1623 C   0  0  0  0  0  0  0  0  0  0  0  0
    8.0750   -0.8131    2.1615 H   0  0  0  0  0  0  0  0  0  0  0  0
    9.3133   -0.1712    0.4650 C   0  0  0  0  0  0  0  0  0  0  0  0
    9.2479    0.4245   -0.8284 C   0  0  0  0  0  0  0  0  0  0  0  0
   10.1634    0.5932   -1.4091 H   0  0  0  0  0  0  0  0  0  0  0  0
    8.0250    0.8022   -1.3766 C   0  0  0  0  0  0  0  0  0  0  0  0
    8.0063    1.2604   -2.3780 H   0  0  0  0  0  0  0  0  0  0  0  0
   10.5494   -1.1536    2.3408 C   0  0  0  0  0  0  0  0  0  0  0  0
   10.1401   -0.4749    3.1225 H   0  0  0  0  0  0  0  0  0  0  0  0
   11.5953   -1.3861    2.6095 H   0  0  0  0  0  0  0  0  0  0  0  0
    9.9686   -2.1022    2.3822 H   0  0  0  0  0  0  0  0  0  0  0  0
   11.7504   -0.3451    0.2915 C   0  0  0  0  0  0  0  0  0  0  0  0
   11.7605   -0.8968   -0.6753 H   0  0  0  0  0  0  0  0  0  0  0  0
   12.5995   -0.7084    0.8975 H   0  0  0  0  0  0  0  0  0  0  0  0
   11.9281    0.7303    0.0654 H   0  0  0  0  0  0  0  0  0  0  0  0
  1  5  1  0  0  0  0
  2 27  2  0  0  0  0
  3 15  1  0  0  0  0
  4 42  1  0  0  0  0
  5  6  1  0  0  0  0
  6  7  1  0  0  0  0
  6  8  2  0  0  0  0
  8  9  1  0  0  0  0
 10 11  1  0  0  0  0
 10  8  1  0  0  0  0
 12 10  2  0  0  0  0
 13 12  1  0  0  0  0
 14  5  2  0  0  0  0
 14 12  1  0  0  0  0
 15 14  1  0  0  0  0
 16 15  1  0  0  0  0
 17  3  1  0  0  0  0
 17 25  1  0  0  0  0
 18 17  2  0  0  0  0
 19 18  1  0  0  0  0
 20 18  1  0  0  0  0
 20 22  2  0  0  0  0
 21 20  1  0  0  0  0
 22 23  1  0  0  0  0
 23 25  2  0  0  0  0
 23 24  1  0  0  0  0
 25 26  1  0  0  0  0
 27 22  1  0  0  0  0
 27 28  1  0  0  0  0
 28 29  1  0  0  0  0
 30 28  2  0  0  0  0
 30 32  1  0  0  0  0
 31 30  1  0  0  0  0
 32 33  1  0  0  0  0
 33 35  2  0  0  0  0
 33 34  1  0  0  0  0
 35 36  1  0  0  0  0
 37  4  1  0  0  0  0
 37 35  1  0  0  0  0
 38 37  2  0  0  0  0
 39 38  1  0  0  0  0
 40 38  1  0  0  0  0
 40 32  2  0  0  0  0
 41 40  1  0  0  0  0
 42 45  1  0  0  0  0
 42 44  1  0  0  0  0
 42 43  1  0  0  0  0
 46 48  1  0  0  0  0
 46  4  1  0  0  0  0
 47 46  1  0  0  0  0
 49 46  1  0  0  0  0
M  CHG  1   1  -1
M  END
