1,4
 OpenBabel05122313063D

  9  8  0  0  0  0  0  0  0  0999 V2000
    0.5570   -1.8143    1.0279 N   0  0  0  0  0  0  0  0  0  0  0  0
    0.3791   -2.0389    2.0169 H   0  0  0  0  0  0  0  0  0  0  0  0
   -0.0681   -2.4062    0.4495 H   0  0  0  0  0  0  0  0  0  0  0  0
    1.4297   -0.3083   -0.9172 O   0  5  0  0  0  0  0  0  0  0  0  0
    3.3615   -1.4280   -1.2122 O   0  0  0  0  0  0  0  0  0  0  0  0
    2.3160   -1.2263   -0.6137 C   0  0  0  0  0  0  0  0  0  0  0  0
    1.9678   -2.0427    0.6561 C   0  0  0  0  0  0  0  0  0  0  0  0
    2.1988   -3.1129    0.4816 H   0  0  0  0  0  0  0  0  0  0  0  0
    2.6307   -1.7022    1.4792 H   0  0  0  0  0  0  0  0  0  0  0  0
  1  2  1  0  0  0  0
  3  1  1  0  0  0  0
  4  6  1  0  0  0  0
  5  6  2  0  0  0  0
  6  7  1  0  0  0  0
  7  1  1  0  0  0  0
  7  9  1  0  0  0  0
  8  7  1  0  0  0  0
M  CHG  1   4  -1
M  END
