1,5
 OpenBabel05122313063D

 38 39  0  0  1  0  0  0  0  0999 V2000
   -1.7930    0.5049   -0.0101 O   0  0  0  0  0  1  0  0  0  0  0  0
   -2.3085    1.6751   -0.2151 C   0  0  2  0  0  3  0  0  0  0  0  0
   -1.5611    2.8504   -0.3471 C   0  0  0  0  0  0  0  0  0  0  0  0
   -0.1533    2.9144   -0.2098 C   0  0  0  0  0  0  0  0  0  0  0  0
    0.6251    1.8368   -0.0421 N   0  0  0  0  0  2  0  0  0  0  0  0
    2.0140    2.0976    0.1813 C   0  0  0  0  0  0  0  0  0  0  0  0
    2.4679    2.2883    1.5091 C   0  0  0  0  0  0  0  0  0  0  0  0
    3.8148    2.6468    1.7114 C   0  0  0  0  0  0  0  0  0  0  0  0
    4.1757    2.8081    2.7395 H   0  0  0  0  0  0  0  0  0  0  0  0
    4.6902    2.7963    0.6261 C   0  0  0  0  0  0  0  0  0  0  0  0
    5.7385    3.0834    0.7987 H   0  0  0  0  0  0  0  0  0  0  0  0
    4.2358    2.5474   -0.6768 C   0  0  0  0  0  0  0  0  0  0  0  0
    4.9316    2.6218   -1.5269 H   0  0  0  0  0  0  0  0  0  0  0  0
    2.8981    2.1863   -0.9211 C   0  0  0  0  0  0  0  0  0  0  0  0
    2.4016    1.8801   -2.3075 C   0  0  0  0  0  0  0  0  0  0  0  0
    1.9176    0.8819   -2.3217 H   0  0  0  0  0  0  0  0  0  0  0  0
    3.2287    1.8877   -3.0423 H   0  0  0  0  0  0  0  0  0  0  0  0
    1.6318    2.6056   -2.6461 H   0  0  0  0  0  0  0  0  0  0  0  0
    1.5185    2.0962    2.6617 C   0  0  0  0  0  0  0  0  0  0  0  0
    2.0381    2.1955    3.6336 H   0  0  0  0  0  0  0  0  0  0  0  0
    1.0473    1.0920    2.6092 H   0  0  0  0  0  0  0  0  0  0  0  0
    0.6828    2.8274    2.6398 H   0  0  0  0  0  0  0  0  0  0  0  0
    0.4720    4.2943   -0.2270 C   0  0  0  0  0  0  0  0  0  0  0  0
    0.9692    4.5155    0.7392 H   0  0  0  0  0  0  0  0  0  0  0  0
   -0.2917    5.0692   -0.4179 H   0  0  0  0  0  0  0  0  0  0  0  0
    1.2629    4.3692   -0.9992 H   0  0  0  0  0  0  0  0  0  0  0  0
   -2.0964    3.7983   -0.4711 H   0  0  0  0  0  0  0  0  0  0  0  0
   -3.7989    1.7123   -0.2609 C   0  0  0  0  0  0  0  0  0  0  0  0
   -4.5055    2.7326   -0.9363 C   0  0  0  0  0  0  0  0  0  0  0  0
   -3.9541    3.5180   -1.4737 H   0  0  0  0  0  0  0  0  0  0  0  0
   -5.9062    2.7321   -0.9594 C   0  0  0  0  0  0  0  0  0  0  0  0
   -6.4427    3.5274   -1.4991 H   0  0  0  0  0  0  0  0  0  0  0  0
   -6.6241    1.7162   -0.3057 C   0  0  0  0  0  0  0  0  0  0  0  0
   -7.7247    1.7185   -0.3244 H   0  0  0  0  0  0  0  0  0  0  0  0
   -5.9290    0.6961    0.3634 C   0  0  0  0  0  0  0  0  0  0  0  0
   -6.4789   -0.1099    0.8728 H   0  0  0  0  0  0  0  0  0  0  0  0
   -4.5290    0.6902    0.3817 C   0  0  0  0  0  0  0  0  0  0  0  0
   -3.9784   -0.1074    0.8969 H   0  0  0  0  0  0  0  0  0  0  0  0
  2  1  1  1  0  0  0
  3  2  1  0  0  0  0
  3  4  2  0  0  0  0
  4  5  1  0  0  0  0
  5  6  1  0  0  0  0
  6  7  1  0  0  0  0
  7  8  2  0  0  0  0
  7 19  1  0  0  0  0
  8  9  1  0  0  0  0
 10 11  1  0  0  0  0
 10  8  1  0  0  0  0
 12 10  2  0  0  0  0
 13 12  1  0  0  0  0
 14 12  1  0  0  0  0
 14  6  2  0  0  0  0
 15 14  1  0  0  0  0
 16 15  1  0  0  0  0
 17 15  1  0  0  0  0
 18 15  1  0  0  0  0
 19 20  1  0  0  0  0
 21 19  1  0  0  0  0
 22 19  1  0  0  0  0
 23  4  1  0  0  0  0
 23 24  1  0  0  0  0
 25 23  1  0  0  0  0
 26 23  1  0  0  0  0
 27  3  1  0  0  0  0
 28  2  1  0  0  0  0
 28 37  1  0  0  0  0
 29 28  2  0  0  0  0
 30 29  1  0  0  0  0
 31 29  1  0  0  0  0
 31 33  2  0  0  0  0
 32 31  1  0  0  0  0
 33 35  1  0  0  0  0
 34 33  1  0  0  0  0
 35 37  2  0  0  0  0
 35 36  1  0  0  0  0
 37 38  1  0  0  0  0
M  END
