1,3
 OpenBabel05122313063D

 32 33  0  0  1  0  0  0  0  0999 V2000
   -0.5129   -1.6356   -1.0310 O   0  5  0  0  0  0  0  0  0  0  0  0
   -2.5832    1.1031    1.5289 O   0  0  0  0  0  0  0  0  0  0  0  0
   -0.5890    0.8130    0.5329 N   0  0  0  0  0  2  0  0  0  0  0  0
   -1.8071   -1.5835   -0.9036 C   0  0  0  0  0  0  0  0  0  0  0  0
   -2.5770   -2.5942   -1.5636 C   0  0  0  0  0  0  0  0  0  0  0  0
   -2.0233   -3.3143   -2.1828 H   0  0  0  0  0  0  0  0  0  0  0  0
   -3.9576   -2.6576   -1.4334 C   0  0  0  0  0  0  0  0  0  0  0  0
   -4.5137   -3.4444   -1.9673 H   0  0  0  0  0  0  0  0  0  0  0  0
   -4.6563   -1.7268   -0.6264 C   0  0  0  0  0  0  0  0  0  0  0  0
   -5.7497   -1.7819   -0.5274 H   0  0  0  0  0  0  0  0  0  0  0  0
   -3.9389   -0.7388    0.0352 C   0  0  0  0  0  0  0  0  0  0  0  0
   -4.4556   -0.0034    0.6671 H   0  0  0  0  0  0  0  0  0  0  0  0
   -2.5252   -0.6331   -0.0964 C   0  0  0  0  0  0  0  0  0  0  0  0
   -1.8429    0.4152    0.6217 C   0  0  1  0  0  3  0  0  0  0  0  0
   -0.4399    2.0476    1.3508 C   0  0  2  0  0  0  0  0  0  0  0  0
    0.5006    1.9952    1.9352 H   0  0  0  0  0  0  0  0  0  0  0  0
   -1.6602    1.9148    2.2786 C   0  0  0  0  0  0  0  0  0  0  0  0
   -1.4138    1.3782    3.2214 H   0  0  0  0  0  0  0  0  0  0  0  0
   -2.1628    2.8660    2.5250 H   0  0  0  0  0  0  0  0  0  0  0  0
   -0.4119    3.3869    0.5305 C   0  0  0  0  0  0  0  0  0  0  0  0
    0.9013    3.5116   -0.2602 C   0  0  0  0  0  0  0  0  0  0  0  0
    0.9110    4.4728   -0.8139 H   0  0  0  0  0  0  0  0  0  0  0  0
    1.0057    2.6937   -0.9984 H   0  0  0  0  0  0  0  0  0  0  0  0
    1.7766    3.5175    0.4232 H   0  0  0  0  0  0  0  0  0  0  0  0
   -0.4646    4.5620    1.5301 C   0  0  0  0  0  0  0  0  0  0  0  0
    0.3242    4.4737    2.3076 H   0  0  0  0  0  0  0  0  0  0  0  0
   -1.4432    4.6573    2.0422 H   0  0  0  0  0  0  0  0  0  0  0  0
   -0.2915    5.5147    0.9907 H   0  0  0  0  0  0  0  0  0  0  0  0
   -1.6029    3.4575   -0.4410 C   0  0  0  0  0  0  0  0  0  0  0  0
   -1.6039    4.4334   -0.9675 H   0  0  0  0  0  0  0  0  0  0  0  0
   -2.5755    3.3586    0.0826 H   0  0  0  0  0  0  0  0  0  0  0  0
   -1.5259    2.6584   -1.2049 H   0  0  0  0  0  0  0  0  0  0  0  0
  1  4  1  0  0  0  0
  2 17  1  0  0  0  0
  3 14  1  0  0  0  0
  3 15  1  0  0  0  0
  4 13  1  0  0  0  0
  5  7  1  0  0  0  0
  5  4  2  0  0  0  0
  6  5  1  0  0  0  0
  7  9  2  0  0  0  0
  8  7  1  0  0  0  0
  9 10  1  0  0  0  0
  9 11  1  0  0  0  0
 11 12  1  0  0  0  0
 13 11  2  0  0  0  0
 14 13  1  1  0  0  0
 14  2  1  0  0  0  0
 15 16  1  1  0  0  0
 15 17  1  0  0  0  0
 17 19  1  0  0  0  0
 17 18  1  0  0  0  0
 20 15  1  0  0  0  0
 20 25  1  0  0  0  0
 21 24  1  0  0  0  0
 21 20  1  0  0  0  0
 22 21  1  0  0  0  0
 23 21  1  0  0  0  0
 25 27  1  0  0  0  0
 25 26  1  0  0  0  0
 28 25  1  0  0  0  0
 29 31  1  0  0  0  0
 29 20  1  0  0  0  0
 30 29  1  0  0  0  0
 32 29  1  0  0  0  0
M  CHG  1   1  -1
M  END
