1,3
 OpenBabel05122313063D

 29 30  0  0  1  0  0  0  0  0999 V2000
   -1.0496   -1.6930   -0.0973 O   0  5  0  0  0  0  0  0  0  0  0  0
   -2.1322    2.3426    0.8759 O   0  0  0  0  0  0  0  0  0  0  0  0
   -0.3659    1.0137    0.4839 N   0  0  0  0  0  2  0  0  0  0  0  0
    1.6768    4.1934   -0.1777 C   0  0  0  0  0  0  0  0  0  0  0  0
    2.1573    4.6229   -1.0794 H   0  0  0  0  0  0  0  0  0  0  0  0
    2.4819    3.9242    0.5385 H   0  0  0  0  0  0  0  0  0  0  0  0
    1.0751    5.0044    0.2869 H   0  0  0  0  0  0  0  0  0  0  0  0
   -0.2473    3.3298   -1.5992 C   0  0  0  0  0  0  0  0  0  0  0  0
   -0.8231    2.4293   -1.8868 H   0  0  0  0  0  0  0  0  0  0  0  0
    0.2445    3.7058   -2.5185 H   0  0  0  0  0  0  0  0  0  0  0  0
   -0.9450    4.1209   -1.2518 H   0  0  0  0  0  0  0  0  0  0  0  0
    0.8099    2.9846   -0.5463 C   0  0  0  0  0  0  0  0  0  0  0  0
    1.4572    2.1966   -0.9868 H   0  0  0  0  0  0  0  0  0  0  0  0
    0.2139    2.3497    0.7339 C   0  0  1  0  0  0  0  0  0  0  0  0
    1.0244    2.2637    1.4845 H   0  0  0  0  0  0  0  0  0  0  0  0
   -0.9908    3.0962    1.3329 C   0  0  0  0  0  0  0  0  0  0  0  0
   -0.9895    3.0837    2.4445 H   0  0  0  0  0  0  0  0  0  0  0  0
   -1.0985    4.1404    0.9827 H   0  0  0  0  0  0  0  0  0  0  0  0
   -1.6766    1.1202    0.4973 C   0  0  1  0  0  3  0  0  0  0  0  0
   -2.6616    0.1178    0.1777 C   0  0  0  0  0  0  0  0  0  0  0  0
   -4.0366    0.4796    0.1842 C   0  0  0  0  0  0  0  0  0  0  0  0
   -4.2940    1.5257    0.4014 H   0  0  0  0  0  0  0  0  0  0  0  0
   -5.0322   -0.4524   -0.0829 C   0  0  0  0  0  0  0  0  0  0  0  0
   -6.0900   -0.1534   -0.0867 H   0  0  0  0  0  0  0  0  0  0  0  0
   -4.6600   -1.7913   -0.3511 C   0  0  0  0  0  0  0  0  0  0  0  0
   -5.4368   -2.5420   -0.5673 H   0  0  0  0  0  0  0  0  0  0  0  0
   -3.3254   -2.1769   -0.3518 C   0  0  0  0  0  0  0  0  0  0  0  0
   -3.0290   -3.2144   -0.5640 H   0  0  0  0  0  0  0  0  0  0  0  0
   -2.2726   -1.2411   -0.0991 C   0  0  0  0  0  0  0  0  0  0  0  0
  2 16  1  0  0  0  0
  3 19  1  0  0  0  0
  3 14  1  0  0  0  0
  4  7  1  0  0  0  0
  4  6  1  0  0  0  0
  5  4  1  0  0  0  0
  8 11  1  0  0  0  0
  8 12  1  0  0  0  0
  9  8  1  0  0  0  0
 10  8  1  0  0  0  0
 12  4  1  0  0  0  0
 12 14  1  0  0  0  0
 13 12  1  0  0  0  0
 14 16  1  0  0  0  0
 14 15  1  1  0  0  0
 16 17  1  0  0  0  0
 18 16  1  0  0  0  0
 19 20  1  1  0  0  0
 19  2  1  0  0  0  0
 20 21  1  0  0  0  0
 21 22  1  0  0  0  0
 23 21  2  0  0  0  0
 24 23  1  0  0  0  0
 25 23  1  0  0  0  0
 26 25  1  0  0  0  0
 27 25  2  0  0  0  0
 27 29  1  0  0  0  0
 28 27  1  0  0  0  0
 29  1  1  0  0  0  0
 29 20  2  0  0  0  0
M  CHG  1   1  -1
M  END
