1,2
 OpenBabel05122313063D

 31 32  0  0  1  0  0  0  0  0999 V2000
    0.8287   -0.4465   -1.9035 O   0  5  0  0  0  0  0  0  0  0  0  0
    0.9591    1.3923    0.4233 N   0  0  0  0  0  2  0  0  0  0  0  0
    2.1092   -0.2585   -1.9205 C   0  0  0  0  0  0  0  0  0  0  0  0
    2.8881   -0.8900   -2.9485 C   0  0  0  0  0  0  0  0  0  0  0  0
    2.3325   -1.4829   -3.6900 H   0  0  0  0  0  0  0  0  0  0  0  0
    4.2698   -0.7682   -3.0096 C   0  0  0  0  0  0  0  0  0  0  0  0
    4.8231   -1.2771   -3.8154 H   0  0  0  0  0  0  0  0  0  0  0  0
    4.9758    0.0082   -2.0567 C   0  0  0  0  0  0  0  0  0  0  0  0
    6.0688    0.1132   -2.1178 H   0  0  0  0  0  0  0  0  0  0  0  0
    4.2545    0.6544   -1.0610 C   0  0  0  0  0  0  0  0  0  0  0  0
    4.7801    1.2786   -0.3193 H   0  0  0  0  0  0  0  0  0  0  0  0
    2.8374    0.5525   -0.9566 C   0  0  0  0  0  0  0  0  0  0  0  0
    2.2213    1.3246    0.0901 C   0  0  0  0  0  3  0  0  0  0  0  0
    2.9330    1.9666    0.6577 H   0  0  0  0  0  0  0  0  0  0  0  0
    0.5902    2.3995    1.4454 C   0  0  2  0  0  0  0  0  0  0  0  0
    1.3390    2.3434    2.2697 H   0  0  0  0  0  0  0  0  0  0  0  0
   -0.7971    2.0977    2.0187 C   0  0  0  0  0  0  0  0  0  0  0  0
   -0.8108    1.1079    2.5204 H   0  0  0  0  0  0  0  0  0  0  0  0
   -1.5589    2.0869    1.2115 H   0  0  0  0  0  0  0  0  0  0  0  0
   -1.0790    2.8661    2.7641 H   0  0  0  0  0  0  0  0  0  0  0  0
    0.6670    3.8077    0.8658 C   0  0  0  0  0  0  0  0  0  0  0  0
   -0.0772    4.1524   -0.2819 C   0  0  0  0  0  0  0  0  0  0  0  0
   -0.7206    3.3975   -0.7663 H   0  0  0  0  0  0  0  0  0  0  0  0
    0.0012    5.4511   -0.8035 C   0  0  0  0  0  0  0  0  0  0  0  0
   -0.5823    5.7086   -1.7009 H   0  0  0  0  0  0  0  0  0  0  0  0
    0.8155    6.4196   -0.1919 C   0  0  0  0  0  0  0  0  0  0  0  0
    0.8738    7.4374   -0.6076 H   0  0  0  0  0  0  0  0  0  0  0  0
    1.5569    6.0820    0.9499 C   0  0  0  0  0  0  0  0  0  0  0  0
    2.1997    6.8324    1.4356 H   0  0  0  0  0  0  0  0  0  0  0  0
    1.4825    4.7806    1.4729 C   0  0  0  0  0  0  0  0  0  0  0  0
    2.0677    4.5149    2.3687 H   0  0  0  0  0  0  0  0  0  0  0  0
  2 15  1  0  0  0  0
  3  1  1  0  0  0  0
  3 12  1  0  0  0  0
  4  3  2  0  0  0  0
  5  4  1  0  0  0  0
  6  4  1  0  0  0  0
  6  8  2  0  0  0  0
  7  6  1  0  0  0  0
  8 10  1  0  0  0  0
  9  8  1  0  0  0  0
 10 12  2  0  0  0  0
 10 11  1  0  0  0  0
 12 13  1  0  0  0  0
 13  2  1  0  0  0  0
 13 14  1  0  0  0  0
 15 17  1  0  0  0  0
 15 16  1  1  0  0  0
 17 18  1  0  0  0  0
 17 20  1  0  0  0  0
 19 17  1  0  0  0  0
 21 15  1  0  0  0  0
 21 30  1  0  0  0  0
 22 21  2  0  0  0  0
 23 22  1  0  0  0  0
 24 22  1  0  0  0  0
 24 26  2  0  0  0  0
 25 24  1  0  0  0  0
 26 28  1  0  0  0  0
 27 26  1  0  0  0  0
 28 29  1  0  0  0  0
 28 30  2  0  0  0  0
 30 31  1  0  0  0  0
M  CHG  1   1  -1
M  END
