1,5
 OpenBabel05122313063D

 34 34  0  0  0  0  0  0  0  0999 V2000
   -0.5475    1.3060    0.2139 N   0  0  0  0  0  2  0  0  0  0  0  0
   -3.9981   -0.0584   -0.1370 N   0  3  0  0  0  0  0  0  0  0  0  0
   -3.3858   -0.2675    0.7297 H   0  0  0  0  0  0  0  0  0  0  0  0
   -3.3980   -0.5355   -0.8984 H   0  0  0  0  0  0  0  0  0  0  0  0
    1.1773   -1.1150    0.1156 O   0  5  0  0  0  0  0  0  0  0  0  0
    5.8530   -0.2076   -0.1374 O   0  0  0  0  0  0  0  0  0  0  0  0
    1.9141    1.2183    0.0960 C   0  0  0  0  0  0  0  0  0  0  0  0
    2.1211   -0.2256    0.0671 C   0  0  0  0  0  0  0  0  0  0  0  0
    3.4711   -0.6927   -0.0081 C   0  0  0  0  0  0  0  0  0  0  0  0
    3.5943   -1.7827   -0.0257 H   0  0  0  0  0  0  0  0  0  0  0  0
    4.5553    0.1841   -0.0599 C   0  0  0  0  0  0  0  0  0  0  0  0
    4.3505    1.5951   -0.0301 C   0  0  0  0  0  0  0  0  0  0  0  0
    5.2244    2.2590   -0.0674 H   0  0  0  0  0  0  0  0  0  0  0  0
    3.0584    2.0736    0.0505 C   0  0  0  0  0  0  0  0  0  0  0  0
    2.8879    3.1624    0.0807 H   0  0  0  0  0  0  0  0  0  0  0  0
    0.6392    1.8614    0.2058 C   0  0  0  0  0  3  0  0  0  0  0  0
    0.6809    2.9712    0.3065 H   0  0  0  0  0  0  0  0  0  0  0  0
   -1.7263    2.1248    0.4235 C   0  0  0  0  0  0  0  0  0  0  0  0
   -1.4330    3.1879    0.5813 H   0  0  0  0  0  0  0  0  0  0  0  0
   -2.2059    1.7824    1.3697 H   0  0  0  0  0  0  0  0  0  0  0  0
   -2.7373    2.0232   -0.7510 C   0  0  0  0  0  0  0  0  0  0  0  0
   -2.9416    3.0345   -1.1563 H   0  0  0  0  0  0  0  0  0  0  0  0
   -2.2697    1.4423   -1.5739 H   0  0  0  0  0  0  0  0  0  0  0  0
   -4.0936    1.3988   -0.4187 C   0  0  0  0  0  0  0  0  0  0  0  0
   -4.5641    1.8840    0.4632 H   0  0  0  0  0  0  0  0  0  0  0  0
   -4.7889    1.5222   -1.2746 H   0  0  0  0  0  0  0  0  0  0  0  0
   -5.2759   -0.7735    0.0323 C   0  0  0  0  0  0  0  0  0  0  0  0
   -5.8595   -0.3157    0.8538 H   0  0  0  0  0  0  0  0  0  0  0  0
   -5.0483   -1.8244    0.2893 H   0  0  0  0  0  0  0  0  0  0  0  0
   -5.8626   -0.7354   -0.9051 H   0  0  0  0  0  0  0  0  0  0  0  0
    6.1367   -1.5952   -0.1647 C   0  0  0  0  0  0  0  0  0  0  0  0
    5.7778   -2.1069    0.7557 H   0  0  0  0  0  0  0  0  0  0  0  0
    7.2368   -1.6884   -0.2269 H   0  0  0  0  0  0  0  0  0  0  0  0
    5.6771   -2.0922   -1.0476 H   0  0  0  0  0  0  0  0  0  0  0  0
  1 18  1  0  0  0  0
  2 27  1  0  0  0  0
  2  3  1  0  0  0  0
  4  2  1  0  0  0  0
  6 11  1  0  0  0  0
  7 16  1  0  0  0  0
  8  7  1  0  0  0  0
  8  5  1  0  0  0  0
  9  8  2  0  0  0  0
 10  9  1  0  0  0  0
 11 12  2  0  0  0  0
 11  9  1  0  0  0  0
 12 14  1  0  0  0  0
 13 12  1  0  0  0  0
 14 15  1  0  0  0  0
 14  7  2  0  0  0  0
 16  1  1  0  0  0  0
 16 17  1  0  0  0  0
 18 19  1  0  0  0  0
 18 20  1  0  0  0  0
 21 24  1  0  0  0  0
 21 18  1  0  0  0  0
 22 21  1  0  0  0  0
 23 21  1  0  0  0  0
 24  2  1  0  0  0  0
 24 25  1  0  0  0  0
 26 24  1  0  0  0  0
 27 29  1  0  0  0  0
 27 28  1  0  0  0  0
 30 27  1  0  0  0  0
 31  6  1  0  0  0  0
 31 32  1  0  0  0  0
 33 31  1  0  0  0  0
 34 31  1  0  0  0  0
M  CHG  2   2   1   5  -1
M  END
