1,25
 OpenBabel05122313063D

 33 34  0  0  0  0  0  0  0  0999 V2000
   -1.3203    0.6794   -1.3861 O   0  0  0  0  0  1  0  0  0  0  0  0
   -2.1104   -0.2509   -0.9757 N   0  0  0  0  0  0  0  0  0  0  0  0
   -2.0497   -1.6402   -1.5264 C   0  0  0  0  0  0  0  0  0  0  0  0
   -0.7679   -2.2789   -0.9719 C   0  0  0  0  0  0  0  0  0  0  0  0
   -0.6113   -3.2965   -1.3781 H   0  0  0  0  0  0  0  0  0  0  0  0
   -0.7951   -2.3319    0.1329 H   0  0  0  0  0  0  0  0  0  0  0  0
    0.0901   -1.6426   -1.2648 H   0  0  0  0  0  0  0  0  0  0  0  0
   -2.0011   -1.5908   -3.0512 C   0  0  0  0  0  0  0  0  0  0  0  0
   -2.8528   -1.0315   -3.4784 H   0  0  0  0  0  0  0  0  0  0  0  0
   -2.0016   -2.6178   -3.4657 H   0  0  0  0  0  0  0  0  0  0  0  0
   -1.0700   -1.0839   -3.3681 H   0  0  0  0  0  0  0  0  0  0  0  0
   -3.3709   -2.2247   -0.9130 C   0  0  0  0  0  0  0  0  0  0  0  0
   -3.3110   -3.6889   -0.4950 C   0  0  0  0  0  0  0  0  0  0  0  0
   -3.2062   -4.3348   -1.3886 H   0  0  0  0  0  0  0  0  0  0  0  0
   -4.2490   -3.9523    0.0285 H   0  0  0  0  0  0  0  0  0  0  0  0
   -2.4727   -3.8947    0.1951 H   0  0  0  0  0  0  0  0  0  0  0  0
   -4.6224   -1.9540   -1.7595 C   0  0  0  0  0  0  0  0  0  0  0  0
   -4.6714   -0.8981   -2.0895 H   0  0  0  0  0  0  0  0  0  0  0  0
   -5.5138   -2.1658   -1.1373 H   0  0  0  0  0  0  0  0  0  0  0  0
   -4.6508   -2.6084   -2.6518 H   0  0  0  0  0  0  0  0  0  0  0  0
   -3.5152   -1.3663    0.3424 N   0  0  0  0  0  0  0  0  0  0  0  0
   -4.2832   -1.6970    1.2856 O   0  0  0  0  0  1  0  0  0  0  0  0
   -2.8066   -0.2216    0.2143 C   0  0  0  0  0  3  0  0  0  0  0  0
   -2.6253    0.8039    1.2016 C   0  0  0  0  0  0  0  0  0  0  0  0
   -1.5482    1.6288    1.0999 N   0  0  0  0  0  0  0  0  0  0  0  0
   -1.5359    2.4482    2.1987 C   0  0  0  0  0  0  0  0  0  0  0  0
   -0.4140    3.3444    2.2949 C   0  0  0  0  0  0  0  0  0  0  0  0
   -0.3817    4.0614    3.1575 H   0  0  0  0  0  0  0  0  0  0  0  0
    0.5056    3.3304    1.4555 O   0  0  0  0  0  0  0  0  0  0  0  0
   -2.6618    2.1517    3.0207 C   0  0  0  0  0  0  0  0  0  0  0  0
   -2.9266    2.6508    3.9603 H   0  0  0  0  0  0  0  0  0  0  0  0
   -3.3495    1.1007    2.3972 C   0  0  0  0  0  3  0  0  0  0  0  0
   -4.2542    0.5809    2.7272 H   0  0  0  0  0  0  0  0  0  0  0  0
  1  2  1  0  0  0  0
  2 23  1  0  0  0  0
  3  2  1  0  0  0  0
  3  4  1  0  0  0  0
  3 12  1  0  0  0  0
  4  6  1  0  0  0  0
  5  4  1  0  0  0  0
  7  4  1  0  0  0  0
  8  3  1  0  0  0  0
  9  8  1  0  0  0  0
 10  8  1  0  0  0  0
 11  8  1  0  0  0  0
 12 13  1  0  0  0  0
 12 21  1  0  0  0  0
 13 15  1  0  0  0  0
 13 16  1  0  0  0  0
 14 13  1  0  0  0  0
 17 19  1  0  0  0  0
 17 12  1  0  0  0  0
 18 17  1  0  0  0  0
 20 17  1  0  0  0  0
 21 22  1  0  0  0  0
 23 21  1  0  0  0  0
 23 24  1  0  0  0  0
 24 32  1  0  0  0  0
 25 24  2  0  0  0  0
 25 26  1  0  0  0  0
 26 27  1  0  0  0  0
 26 30  2  0  0  0  0
 27 28  1  0  0  0  0
 29 27  2  0  0  0  0
 30 31  1  0  0  0  0
 32 33  1  0  0  0  0
 32 30  1  0  0  0  0
M  END
