1,2
 OpenBabel05122313063D

 29 30  0  0  1  0  0  0  0  0999 V2000
   -1.5895   -0.2871    0.5631 O   0  0  0  0  0  1  0  0  0  0  0  0
    0.7698   -1.4678    0.5436 N   0  0  0  0  0  2  0  0  0  0  0  0
   -0.3206   -2.2767    0.4000 C   0  0  2  0  0  3  0  0  0  0  0  0
   -2.7298   -2.1966   -0.0218 N   0  0  0  0  0  0  0  0  0  0  0  0
   -2.5966   -3.1560   -0.3444 H   0  0  0  0  0  0  0  0  0  0  0  0
   -4.4691   -0.4902    0.4458 C   0  0  0  0  0  0  0  0  0  0  0  0
   -3.7416    0.1448    0.9633 H   0  0  0  0  0  0  0  0  0  0  0  0
   -6.3356   -2.1357   -0.8623 C   0  0  0  0  0  0  0  0  0  0  0  0
   -7.0806   -2.7640   -1.3703 H   0  0  0  0  0  0  0  0  0  0  0  0
   -1.5967   -1.5156    0.2816 C   0  0  1  0  0  3  0  0  0  0  0  0
   -5.8074   -0.0859    0.3379 C   0  0  0  0  0  0  0  0  0  0  0  0
   -6.1009    0.8758    0.7786 H   0  0  0  0  0  0  0  0  0  0  0  0
   -4.0543   -1.7188   -0.1046 C   0  0  0  0  0  0  0  0  0  0  0  0
   -5.0065   -2.5357   -0.7567 C   0  0  0  0  0  0  0  0  0  0  0  0
   -4.6948   -3.4984   -1.1931 H   0  0  0  0  0  0  0  0  0  0  0  0
    1.0308   -4.2347    0.8391 C   0  0  0  0  0  0  0  0  0  0  0  0
    1.1360   -5.3245    0.9428 H   0  0  0  0  0  0  0  0  0  0  0  0
   -6.7534   -0.9003   -0.3178 C   0  0  0  0  0  0  0  0  0  0  0  0
    2.1244   -3.3836    1.0454 C   0  0  0  0  0  0  0  0  0  0  0  0
    3.1140   -3.7739    1.3192 H   0  0  0  0  0  0  0  0  0  0  0  0
    1.9530   -2.0010    0.8984 C   0  0  0  0  0  0  0  0  0  0  0  0
    2.7753   -1.2906    1.0597 H   0  0  0  0  0  0  0  0  0  0  0  0
   -0.2151   -3.6696    0.5365 C   0  0  0  0  0  0  0  0  0  0  0  0
   -1.1026   -4.3130    0.4472 H   0  0  0  0  0  0  0  0  0  0  0  0
   -8.5391    0.6341    0.0535 C   0  0  0  0  0  0  0  0  0  0  0  0
   -8.4098    0.6879    1.1576 H   0  0  0  0  0  0  0  0  0  0  0  0
   -9.6175    0.6820   -0.1848 H   0  0  0  0  0  0  0  0  0  0  0  0
   -8.0270    1.5071   -0.4096 H   0  0  0  0  0  0  0  0  0  0  0  0
   -8.0669   -0.5930   -0.4730 O   0  0  0  0  0  0  0  0  0  0  0  0
  2 21  1  0  0  0  0
  3 10  1  1  0  0  0
  3 23  1  0  0  0  0
  3  2  1  0  0  0  0
  4 10  1  0  0  0  0
  5  4  1  0  0  0  0
  6  7  1  0  0  0  0
  8 14  2  0  0  0  0
  8 18  1  0  0  0  0
  9  8  1  0  0  0  0
 10  1  1  1  0  0  0
 11  6  1  0  0  0  0
 11 12  1  0  0  0  0
 13  4  1  0  0  0  0
 13  6  2  0  0  0  0
 14 13  1  0  0  0  0
 15 14  1  0  0  0  0
 16 17  1  0  0  0  0
 16 19  1  0  0  0  0
 18 11  2  0  0  0  0
 19 20  1  0  0  0  0
 21 19  2  0  0  0  0
 21 22  1  0  0  0  0
 23 16  2  0  0  0  0
 24 23  1  0  0  0  0
 25 26  1  0  0  0  0
 27 25  1  0  0  0  0
 28 25  1  0  0  0  0
 29 18  1  0  0  0  0
 29 25  1  0  0  0  0
M  END
