2,3
 OpenBabel05122313063D

 40 42  0  0  1  0  0  0  0  0999 V2000
    5.9345   -3.1712   -0.0905 O   0  0  0  0  0  0  0  0  0  0  0  0
   -1.5505   -0.2411   -0.9455 O   0  5  0  0  0  0  0  0  0  0  0  0
    0.5006   -1.7503   -0.0736 N   0  0  0  0  0  2  0  0  0  0  0  0
    6.6206   -3.4806    1.1062 C   0  0  0  0  0  0  0  0  0  0  0  0
    6.6276   -2.6213    1.8152 H   0  0  0  0  0  0  0  0  0  0  0  0
    7.6623   -3.7166    0.8195 H   0  0  0  0  0  0  0  0  0  0  0  0
    6.1798   -4.3629    1.6234 H   0  0  0  0  0  0  0  0  0  0  0  0
    4.6092   -2.8541   -0.0085 C   0  0  0  0  0  0  0  0  0  0  0  0
    3.8743   -2.7983    1.1927 C   0  0  0  0  0  0  0  0  0  0  0  0
    4.3477   -3.0197    2.1584 H   0  0  0  0  0  0  0  0  0  0  0  0
    2.5197   -2.4274    1.1637 C   0  0  0  0  0  0  0  0  0  0  0  0
    1.9504   -2.3586    2.1023 H   0  0  0  0  0  0  0  0  0  0  0  0
    1.8728   -2.1299   -0.0471 C   0  0  0  0  0  0  0  0  0  0  0  0
    2.6222   -2.1725   -1.2418 C   0  0  0  0  0  0  0  0  0  0  0  0
    2.1266   -1.9061   -2.1865 H   0  0  0  0  0  0  0  0  0  0  0  0
    3.9689   -2.5364   -1.2264 C   0  0  0  0  0  0  0  0  0  0  0  0
    4.5633   -2.5660   -2.1508 H   0  0  0  0  0  0  0  0  0  0  0  0
   -0.0330   -4.1268    0.3483 C   0  0  0  0  0  0  0  0  0  0  0  0
    0.9715   -4.3383   -0.0588 H   0  0  0  0  0  0  0  0  0  0  0  0
   -0.7569   -4.8315   -0.1004 H   0  0  0  0  0  0  0  0  0  0  0  0
    0.0047   -4.3424    1.4375 H   0  0  0  0  0  0  0  0  0  0  0  0
   -0.4416   -2.6888    0.0942 C   0  0  2  0  0  3  0  0  0  0  0  0
   -1.8449   -2.4193    0.0033 C   0  0  0  0  0  0  0  0  0  0  0  0
   -2.8728   -3.4718    0.3823 C   0  0  0  0  0  0  0  0  0  0  0  0
   -3.0197   -4.2097   -0.4433 H   0  0  0  0  0  0  0  0  0  0  0  0
   -2.5229   -4.0561    1.2570 H   0  0  0  0  0  0  0  0  0  0  0  0
   -4.2249   -2.8331    0.7235 C   0  0  0  0  0  0  0  0  0  0  0  0
   -4.9852   -3.6084    0.9465 H   0  0  0  0  0  0  0  0  0  0  0  0
   -4.1073   -2.2179    1.6457 H   0  0  0  0  0  0  0  0  0  0  0  0
   -4.6946   -1.9324   -0.3884 C   0  0  0  0  0  0  0  0  0  0  0  0
   -3.7199   -1.1431   -1.0466 C   0  0  0  0  0  0  0  0  0  0  0  0
   -2.2987   -1.2447   -0.6298 C   0  0  0  0  0  0  0  0  0  0  0  0
   -4.1051   -0.2508   -2.0671 C   0  0  0  0  0  0  0  0  0  0  0  0
   -3.3258    0.3577   -2.5468 H   0  0  0  0  0  0  0  0  0  0  0  0
   -5.4481   -0.1526   -2.4491 C   0  0  0  0  0  0  0  0  0  0  0  0
   -5.7423    0.5343   -3.2575 H   0  0  0  0  0  0  0  0  0  0  0  0
   -6.4200   -0.9310   -1.7958 C   0  0  0  0  0  0  0  0  0  0  0  0
   -7.4779   -0.8581   -2.0922 H   0  0  0  0  0  0  0  0  0  0  0  0
   -6.0412   -1.8100   -0.7677 C   0  0  0  0  0  0  0  0  0  0  0  0
   -6.8027   -2.4154   -0.2508 H   0  0  0  0  0  0  0  0  0  0  0  0
  1  8  1  0  0  0  0
  1  4  1  0  0  0  0
  2 32  1  0  0  0  0
  3 13  1  0  0  0  0
  4  7  1  0  0  0  0
  4  5  1  0  0  0  0
  6  4  1  0  0  0  0
  8  9  1  0  0  0  0
  9 10  1  0  0  0  0
 11  9  2  0  0  0  0
 11 12  1  0  0  0  0
 13 11  1  0  0  0  0
 14 16  1  0  0  0  0
 14 13  2  0  0  0  0
 15 14  1  0  0  0  0
 16  8  2  0  0  0  0
 17 16  1  0  0  0  0
 18 21  1  0  0  0  0
 19 18  1  0  0  0  0
 20 18  1  0  0  0  0
 22  3  1  6  0  0  0
 22 18  1  0  0  0  0
 23 22  1  0  0  0  0
 23 24  1  0  0  0  0
 24 27  1  0  0  0  0
 24 26  1  0  0  0  0
 25 24  1  0  0  0  0
 27 28  1  0  0  0  0
 27 29  1  0  0  0  0
 30 27  1  0  0  0  0
 31 32  1  0  0  0  0
 31 30  2  0  0  0  0
 32 23  2  0  0  0  0
 33 31  1  0  0  0  0
 34 33  1  0  0  0  0
 35 33  2  0  0  0  0
 35 37  1  0  0  0  0
 36 35  1  0  0  0  0
 37 39  2  0  0  0  0
 38 37  1  0  0  0  0
 39 30  1  0  0  0  0
 39 40  1  0  0  0  0
M  CHG  1   2  -1
M  END
