1,3
 OpenBabel05122313063D

 28 28  0  0  0  0  0  0  0  0999 V2000
   -1.4928    1.0099    0.4623 O   0  5  0  0  0  0  0  0  0  0  0  0
    5.2711    2.1514    0.0968 O   0  0  0  0  0  0  0  0  0  0  0  0
    1.0614    1.5719   -0.3500 N   0  0  0  0  0  2  0  0  0  0  0  0
   -1.7449    2.2753    0.2741 C   0  0  0  0  0  0  0  0  0  0  0  0
   -3.0570    2.7689    0.5502 C   0  0  0  0  0  0  0  0  0  0  0  0
   -3.8068    2.0514    0.9149 H   0  0  0  0  0  0  0  0  0  0  0  0
   -3.3722    4.1106    0.3595 C   0  0  0  0  0  0  0  0  0  0  0  0
   -4.3952    4.4578    0.5744 H   0  0  0  0  0  0  0  0  0  0  0  0
   -2.4025    5.0341   -0.1025 C   0  0  0  0  0  0  0  0  0  0  0  0
   -2.6649    6.0917   -0.2473 H   0  0  0  0  0  0  0  0  0  0  0  0
   -1.1140    4.5814   -0.3623 C   0  0  0  0  0  3  0  0  0  0  0  0
   -0.3375    5.2814   -0.7110 H   0  0  0  0  0  0  0  0  0  0  0  0
   -0.7615    3.2157   -0.1850 C   0  0  0  0  0  0  0  0  0  0  0  0
    0.5859    2.7930   -0.4154 C   0  0  0  0  0  0  0  0  0  0  0  0
    1.3070    3.5986   -0.6618 H   0  0  0  0  0  0  0  0  0  0  0  0
    2.5150    1.4477   -0.5172 C   0  0  0  0  0  0  0  0  0  0  0  0
    2.9198    2.3879   -0.9444 H   0  0  0  0  0  0  0  0  0  0  0  0
    2.7196    0.6226   -1.2237 H   0  0  0  0  0  0  0  0  0  0  0  0
    3.2163    1.1587    0.8133 C   0  0  0  0  0  0  0  0  0  0  0  0
    3.0284    1.9941    1.5213 H   0  0  0  0  0  0  0  0  0  0  0  0
    2.7855    0.2400    1.2585 H   0  0  0  0  0  0  0  0  0  0  0  0
    4.7143    0.9706    0.6416 C   0  0  0  0  0  0  0  0  0  0  0  0
    5.1892    0.7279    1.6257 H   0  0  0  0  0  0  0  0  0  0  0  0
    4.9174    0.0979   -0.0326 H   0  0  0  0  0  0  0  0  0  0  0  0
    6.6530    2.0518   -0.1347 C   0  0  0  0  0  0  0  0  0  0  0  0
    7.2257    1.8543    0.8055 H   0  0  0  0  0  0  0  0  0  0  0  0
    6.9976    3.0148   -0.5598 H   0  0  0  0  0  0  0  0  0  0  0  0
    6.9028    1.2351   -0.8570 H   0  0  0  0  0  0  0  0  0  0  0  0
  2 22  1  0  0  0  0
  4  1  1  0  0  0  0
  4  5  2  0  0  0  0
  5  6  1  0  0  0  0
  7  5  1  0  0  0  0
  7  8  1  0  0  0  0
  9  7  2  0  0  0  0
 10  9  1  0  0  0  0
 11 13  1  0  0  0  0
 11  9  1  0  0  0  0
 12 11  1  0  0  0  0
 13  4  1  0  0  0  0
 14  3  1  0  0  0  0
 14 13  2  0  0  0  0
 15 14  1  0  0  0  0
 16  3  1  0  0  0  0
 16 19  1  0  0  0  0
 17 16  1  0  0  0  0
 18 16  1  0  0  0  0
 19 21  1  0  0  0  0
 19 20  1  0  0  0  0
 22 19  1  0  0  0  0
 22 23  1  0  0  0  0
 24 22  1  0  0  0  0
 25  2  1  0  0  0  0
 25 26  1  0  0  0  0
 27 25  1  0  0  0  0
 28 25  1  0  0  0  0
M  CHG  1   1  -1
M  END
