1,2
 OpenBabel05122313063D

 31 33  0  0  0  0  0  0  0  0999 V2000
    3.2546   -0.5452   -0.7576 O   0  5  0  0  0  0  0  0  0  0  0  0
    1.1272    0.9911   -0.4009 N   0  0  0  0  0  2  0  0  0  0  0  0
   -1.2883    1.0198   -0.3229 C   0  0  0  0  0  0  0  0  0  0  0  0
   -1.2544    0.0494   -0.8355 H   0  0  0  0  0  0  0  0  0  0  0  0
    3.4552    0.7468   -0.7971 C   0  0  0  0  0  0  0  0  0  0  0  0
   -3.1816   -1.0470   -1.0403 F   0  0  0  0  0  0  0  0  0  0  0  0
    4.7169    1.3413   -1.0174 C   0  0  0  0  0  0  0  0  0  0  0  0
    5.5813    0.6862   -1.1959 H   0  0  0  0  0  0  0  0  0  0  0  0
    2.3303    1.6183   -0.5854 C   0  0  0  0  0  0  0  0  0  0  0  0
   -0.0093    1.7194   -0.2960 C   0  0  0  0  0  0  0  0  0  0  0  0
    2.4779    3.0456   -0.5814 C   0  0  0  0  0  0  0  0  0  0  0  0
   -3.7878    0.9443    0.1210 C   0  0  0  0  0  0  0  0  0  0  0  0
    3.7655    3.5977   -0.7905 C   0  0  0  0  0  3  0  0  0  0  0  0
    3.8922    4.6899   -0.7922 H   0  0  0  0  0  0  0  0  0  0  0  0
    4.8524    2.7435   -1.0060 C   0  0  0  0  0  0  0  0  0  0  0  0
    5.8505    3.1773   -1.1749 H   0  0  0  0  0  0  0  0  0  0  0  0
   -4.1465   -0.2938   -0.4723 C   0  0  0  0  0  0  0  0  0  0  0  0
   -4.8788    1.6481    0.7013 C   0  0  0  0  0  0  0  0  0  0  0  0
   -2.4550    1.5285    0.1713 C   0  0  0  0  0  0  0  0  0  0  0  0
   -2.4249    2.5001    0.6887 H   0  0  0  0  0  0  0  0  0  0  0  0
   -6.1975    1.1922    0.7030 C   0  0  0  0  0  0  0  0  0  0  0  0
   -6.9961    1.7844    1.1669 H   0  0  0  0  0  0  0  0  0  0  0  0
    1.2841    3.7981   -0.3735 C   0  0  0  0  0  0  0  0  0  0  0  0
    1.3349    4.8977   -0.3483 H   0  0  0  0  0  0  0  0  0  0  0  0
   -6.4614   -0.0392    0.0926 C   0  0  0  0  0  0  0  0  0  0  0  0
   -5.4464   -0.7993   -0.5012 C   0  0  0  0  0  0  0  0  0  0  0  0
   -5.6596   -1.7644   -0.9780 H   0  0  0  0  0  0  0  0  0  0  0  0
   -7.7179   -0.5052    0.0775 F   0  0  0  0  0  0  0  0  0  0  0  0
    0.0730    3.1482   -0.2509 C   0  0  0  0  0  0  0  0  0  0  0  0
   -0.8598    3.7215   -0.1620 H   0  0  0  0  0  0  0  0  0  0  0  0
   -4.6246    2.8327    1.2861 F   0  0  0  0  0  0  0  0  0  0  0  0
  2 10  1  0  0  0  0
  3 10  1  0  0  0  0
  3 19  2  0  0  0  0
  4  3  1  0  0  0  0
  5  1  1  0  0  0  0
  5  9  2  0  0  0  0
  6 17  1  0  0  0  0
  7 15  2  0  0  0  0
  7  5  1  0  0  0  0
  8  7  1  0  0  0  0
  9 11  1  0  0  0  0
  9  2  1  0  0  0  0
 10 29  2  0  0  0  0
 11 23  2  0  0  0  0
 12 19  1  0  0  0  0
 12 18  1  0  0  0  0
 13 11  1  0  0  0  0
 14 13  1  0  0  0  0
 15 13  1  0  0  0  0
 16 15  1  0  0  0  0
 17 12  2  0  0  0  0
 18 21  2  0  0  0  0
 18 31  1  0  0  0  0
 19 20  1  0  0  0  0
 21 22  1  0  0  0  0
 23 24  1  0  0  0  0
 23 29  1  0  0  0  0
 25 21  1  0  0  0  0
 26 17  1  0  0  0  0
 26 25  2  0  0  0  0
 27 26  1  0  0  0  0
 28 25  1  0  0  0  0
 29 30  1  0  0  0  0
M  CHG  1   1  -1
M  END
