1,3
 OpenBabel05122313063D

 35 37  0  0  1  0  0  0  0  0999 V2000
   -3.0320   -0.6045   -1.1683 O   0  5  0  0  0  0  0  0  0  0  0  0
    7.5099    0.0999    0.3792 O   0  0  0  0  0  0  0  0  0  0  0  0
   -1.2588    1.1158   -0.2323 N   0  0  0  0  0  2  0  0  0  0  0  0
    2.1755    1.9674    0.7395 C   0  0  0  0  0  0  0  0  0  0  0  0
    2.0297    2.7541    1.5008 H   0  0  0  0  0  0  0  0  0  0  0  0
   -3.4690    0.6062   -0.9216 C   0  0  0  0  0  0  0  0  0  0  0  0
    3.5424    1.4772    0.5905 C   0  0  0  0  0  0  0  0  0  0  0  0
    6.2146    0.5087    0.3911 C   0  0  0  0  0  0  0  0  0  0  0  0
   -2.5401    1.5690   -0.3942 C   0  0  2  0  0  3  0  0  0  0  0  0
    4.5458    1.8789    1.5108 C   0  0  0  0  0  0  0  0  0  0  0  0
    4.2793    2.5766    2.3204 H   0  0  0  0  0  0  0  0  0  0  0  0
   -0.2726    1.9675    0.1355 C   0  0  0  0  0  0  0  0  0  0  0  0
    1.0971    1.4880    0.0582 C   0  0  0  0  0  0  0  0  0  0  0  0
    1.2193    0.6695   -0.6685 H   0  0  0  0  0  0  0  0  0  0  0  0
   -0.6068    3.3118    0.4960 C   0  0  0  0  0  0  0  0  0  0  0  0
    0.2062    3.9850    0.8012 H   0  0  0  0  0  0  0  0  0  0  0  0
    3.9286    0.5883   -0.4429 C   0  0  0  0  0  0  0  0  0  0  0  0
    3.1927    0.2829   -1.2023 H   0  0  0  0  0  0  0  0  0  0  0  0
    5.8534    1.4066    1.4203 C   0  0  0  0  0  0  0  0  0  0  0  0
    6.6277    1.7168    2.1366 H   0  0  0  0  0  0  0  0  0  0  0  0
    5.2374    0.1055   -0.5471 C   0  0  0  0  0  0  0  0  0  0  0  0
    5.4921   -0.5744   -1.3710 H   0  0  0  0  0  0  0  0  0  0  0  0
   -2.9360    2.9111   -0.0827 C   0  0  0  0  0  0  0  0  0  0  0  0
   -1.9069    3.7696    0.4088 C   0  0  0  0  0  0  0  0  0  0  0  0
   -2.1537    4.8081    0.6793 H   0  0  0  0  0  0  0  0  0  0  0  0
   -4.2868    3.2856   -0.2959 C   0  0  0  0  0  0  0  0  0  0  0  0
   -4.6081    4.3109   -0.0623 H   0  0  0  0  0  0  0  0  0  0  0  0
   -4.7983    1.0292   -1.1357 C   0  0  0  0  0  0  0  0  0  0  0  0
   -5.5179    0.3116   -1.5546 H   0  0  0  0  0  0  0  0  0  0  0  0
    7.9277   -0.7944   -0.6361 C   0  0  0  0  0  0  0  0  0  0  0  0
    7.8078   -0.3543   -1.6513 H   0  0  0  0  0  0  0  0  0  0  0  0
    7.3691   -1.7565   -0.5966 H   0  0  0  0  0  0  0  0  0  0  0  0
    9.0000   -0.9939   -0.4553 H   0  0  0  0  0  0  0  0  0  0  0  0
   -5.1840    2.3477   -0.8164 C   0  0  0  0  0  0  0  0  0  0  0  0
   -6.2303    2.6451   -0.9888 H   0  0  0  0  0  0  0  0  0  0  0  0
  1  6  1  0  0  0  0
  2  8  1  0  0  0  0
  3 12  1  0  0  0  0
  4  5  1  0  0  0  0
  7  4  1  0  0  0  0
  7 10  1  0  0  0  0
  8 19  1  0  0  0  0
  9  6  1  6  0  0  0
  9  3  1  0  0  0  0
  9 23  1  0  0  0  0
 10 11  1  0  0  0  0
 12 15  2  0  0  0  0
 13 12  1  0  0  0  0
 13  4  2  0  0  0  0
 14 13  1  0  0  0  0
 15 16  1  0  0  0  0
 17  7  2  0  0  0  0
 18 17  1  0  0  0  0
 19 10  2  0  0  0  0
 19 20  1  0  0  0  0
 21 17  1  0  0  0  0
 21  8  2  0  0  0  0
 22 21  1  0  0  0  0
 23 24  2  0  0  0  0
 24 15  1  0  0  0  0
 24 25  1  0  0  0  0
 26 23  1  0  0  0  0
 26 27  1  0  0  0  0
 28  6  2  0  0  0  0
 28 34  1  0  0  0  0
 29 28  1  0  0  0  0
 30 32  1  0  0  0  0
 30 33  1  0  0  0  0
 30  2  1  0  0  0  0
 31 30  1  0  0  0  0
 34 26  2  0  0  0  0
 35 34  1  0  0  0  0
M  CHG  1   1  -1
M  END
