1,2
 OpenBabel05122313063D

 32 34  0  0  0  0  0  0  0  0999 V2000
    1.2373   -1.6918    0.0644 O   0  5  0  0  0  0  0  0  0  0  0  0
    1.8455    0.9589    0.1638 N   0  0  0  0  0  0  0  0  0  0  0  0
    6.5882   -0.0484    0.0282 N   0  0  0  0  0  0  0  0  0  0  0  0
    7.4931   -0.9462   -0.0198 N   0  0  0  0  0  2  0  0  0  0  0  0
    2.0904    2.2677    0.2158 C   0  0  0  0  0  0  0  0  0  0  0  0
    1.2074    2.9267    0.2588 H   0  0  0  0  0  0  0  0  0  0  0  0
    3.4125    2.7722    0.2134 C   0  0  0  0  0  0  0  0  0  0  0  0
    3.5800    3.8580    0.2577 H   0  0  0  0  0  0  0  0  0  0  0  0
    4.4787    1.8824    0.1516 C   0  0  0  0  0  0  0  0  0  0  0  0
    5.5234    2.2243    0.1451 H   0  0  0  0  0  0  0  0  0  0  0  0
    4.2365    0.4822    0.0930 C   0  0  0  0  0  3  0  0  0  0  0  0
    5.2750   -0.5105    0.0308 C   0  0  0  0  0  0  0  0  0  0  0  0
    4.8985   -1.8703   -0.0226 C   0  0  0  0  0  0  0  0  0  0  0  0
    5.7165   -2.6044   -0.0711 H   0  0  0  0  0  0  0  0  0  0  0  0
    3.5623   -2.2830   -0.0161 C   0  0  0  0  0  0  0  0  0  0  0  0
    3.3020   -3.3513   -0.0598 H   0  0  0  0  0  0  0  0  0  0  0  0
    2.4930   -1.3512    0.0427 C   0  0  0  0  0  0  0  0  0  0  0  0
    2.8689    0.0602    0.0987 C   0  0  0  0  0  0  0  0  0  0  0  0
    8.8155   -0.4686   -0.0271 C   0  0  0  0  0  0  0  0  0  0  0  0
    9.1888    0.8987   -0.0007 C   0  0  0  0  0  0  0  0  0  0  0  0
    8.3930    1.6558    0.0278 H   0  0  0  0  0  0  0  0  0  0  0  0
   10.5361    1.2555   -0.0122 C   0  0  0  0  0  0  0  0  0  0  0  0
   10.8150    2.3220    0.0080 H   0  0  0  0  0  0  0  0  0  0  0  0
   11.5610    0.2783   -0.0501 C   0  0  0  0  0  0  0  0  0  0  0  0
   11.1798   -1.0783   -0.0763 C   0  0  0  0  0  0  0  0  0  0  0  0
   11.9589   -1.8565   -0.1061 H   0  0  0  0  0  0  0  0  0  0  0  0
    9.8303   -1.4491   -0.0657 C   0  0  0  0  0  0  0  0  0  0  0  0
    9.5212   -2.5047   -0.0866 H   0  0  0  0  0  0  0  0  0  0  0  0
   13.0102    0.6902   -0.0636 C   0  0  0  0  0  0  0  0  0  0  0  0
   13.6859   -0.1865   -0.0812 H   0  0  0  0  0  0  0  0  0  0  0  0
   13.2430    1.3164   -0.9508 H   0  0  0  0  0  0  0  0  0  0  0  0
   13.2652    1.2988    0.8295 H   0  0  0  0  0  0  0  0  0  0  0  0
  2  5  2  0  0  0  0
  3 12  2  0  0  0  0
  4  3  1  0  0  0  0
  5  6  1  0  0  0  0
  7  5  1  0  0  0  0
  7  8  1  0  0  0  0
  9  7  2  0  0  0  0
 10  9  1  0  0  0  0
 11 18  1  0  0  0  0
 11  9  1  0  0  0  0
 12 11  1  0  0  0  0
 13 15  2  0  0  0  0
 13 12  1  0  0  0  0
 14 13  1  0  0  0  0
 15 17  1  0  0  0  0
 16 15  1  0  0  0  0
 17  1  1  0  0  0  0
 17 18  2  0  0  0  0
 18  2  1  0  0  0  0
 19  4  1  0  0  0  0
 19 20  1  0  0  0  0
 20 21  1  0  0  0  0
 22 20  2  0  0  0  0
 22 23  1  0  0  0  0
 24 22  1  0  0  0  0
 25 27  1  0  0  0  0
 25 24  2  0  0  0  0
 26 25  1  0  0  0  0
 27 19  2  0  0  0  0
 28 27  1  0  0  0  0
 29 24  1  0  0  0  0
 29 32  1  0  0  0  0
 30 29  1  0  0  0  0
 31 29  1  0  0  0  0
M  CHG  1   1  -1
M  END
