2,3
 OpenBabel05122313063D

 41 42  0  0  0  0  0  0  0  0999 V2000
    4.0030   -2.8686    0.1501 S   0  0  0  0  0  0  0  0  0  0  0  0
    1.2479    1.3691   -0.1314 O   0  5  0  0  0  0  0  0  0  0  0  0
    1.4576   -1.1704   -0.1602 N   0  0  0  0  0  2  0  0  0  0  0  0
    3.9648   -1.0926   -0.0431 C   0  0  0  0  0  0  0  0  0  0  0  0
    2.6854   -0.4825   -0.1472 C   0  0  0  0  0  0  0  0  0  0  0  0
    2.4962    0.9294   -0.1408 C   0  0  0  0  0  0  0  0  0  0  0  0
    3.6436    1.7760   -0.1236 C   0  0  0  0  0  0  0  0  0  0  0  0
    4.8871    1.1342   -0.0418 C   0  0  0  0  0  0  0  0  0  0  0  0
    5.7717    1.7783   -0.0153 H   0  0  0  0  0  0  0  0  0  0  0  0
    5.1120   -0.2658    0.0251 C   0  0  0  0  0  0  0  0  0  0  0  0
    2.5261   -3.2478   -0.8663 C   0  0  0  0  0  0  0  0  0  0  0  0
    2.3404   -4.3334   -0.7635 H   0  0  0  0  0  0  0  0  0  0  0  0
    2.7528   -3.0350   -1.9370 H   0  0  0  0  0  0  0  0  0  0  0  0
    1.3525   -2.4453   -0.4131 C   0  0  0  0  0  3  0  0  0  0  0  0
    0.3427   -2.8809   -0.3309 H   0  0  0  0  0  0  0  0  0  0  0  0
    3.4971    3.3041   -0.1489 C   0  0  0  0  0  0  0  0  0  0  0  0
    2.7026    3.7214   -1.4088 C   0  0  0  0  0  0  0  0  0  0  0  0
    1.7138    3.2265   -1.4389 H   0  0  0  0  0  0  0  0  0  0  0  0
    2.5503    4.8209   -1.4218 H   0  0  0  0  0  0  0  0  0  0  0  0
    3.2557    3.4419   -2.3286 H   0  0  0  0  0  0  0  0  0  0  0  0
    2.7472    3.7589    1.1260 C   0  0  0  0  0  0  0  0  0  0  0  0
    1.7676    3.2524    1.2122 H   0  0  0  0  0  0  0  0  0  0  0  0
    3.3368    3.5164    2.0333 H   0  0  0  0  0  0  0  0  0  0  0  0
    2.5803    4.8564    1.1071 H   0  0  0  0  0  0  0  0  0  0  0  0
    4.8595    4.0177   -0.1834 C   0  0  0  0  0  0  0  0  0  0  0  0
    5.4686    3.7993    0.7172 H   0  0  0  0  0  0  0  0  0  0  0  0
    5.4512    3.7365   -1.0784 H   0  0  0  0  0  0  0  0  0  0  0  0
    4.7019    5.1145   -0.2183 H   0  0  0  0  0  0  0  0  0  0  0  0
    6.5516   -0.8157    0.1556 C   0  0  0  0  0  0  0  0  0  0  0  0
    7.5984    0.3142    0.2217 C   0  0  0  0  0  0  0  0  0  0  0  0
    7.6007    0.9368   -0.6953 H   0  0  0  0  0  0  0  0  0  0  0  0
    7.4420    0.9794    1.0947 H   0  0  0  0  0  0  0  0  0  0  0  0
    8.6082   -0.1320    0.3204 H   0  0  0  0  0  0  0  0  0  0  0  0
    6.6906   -1.6330    1.4610 C   0  0  0  0  0  0  0  0  0  0  0  0
    6.4663   -1.0004    2.3437 H   0  0  0  0  0  0  0  0  0  0  0  0
    6.0097   -2.5063    1.4951 H   0  0  0  0  0  0  0  0  0  0  0  0
    7.7256   -2.0197    1.5655 H   0  0  0  0  0  0  0  0  0  0  0  0
    6.8987   -1.6879   -1.0744 C   0  0  0  0  0  0  0  0  0  0  0  0
    6.8539   -1.0819   -2.0017 H   0  0  0  0  0  0  0  0  0  0  0  0
    7.9268   -2.0947   -0.9781 H   0  0  0  0  0  0  0  0  0  0  0  0
    6.2037   -2.5417   -1.1860 H   0  0  0  0  0  0  0  0  0  0  0  0
  3  5  1  0  0  0  0
  4 10  1  0  0  0  0
  4  1  1  0  0  0  0
  5  6  1  0  0  0  0
  5  4  2  0  0  0  0
  6  2  1  0  0  0  0
  6  7  2  0  0  0  0
  7  8  1  0  0  0  0
  8  9  1  0  0  0  0
  8 10  2  0  0  0  0
 10 29  1  0  0  0  0
 11 12  1  0  0  0  0
 11 14  1  0  0  0  0
 11  1  1  0  0  0  0
 13 11  1  0  0  0  0
 14 15  1  0  0  0  0
 14  3  1  0  0  0  0
 16  7  1  0  0  0  0
 16 21  1  0  0  0  0
 17 16  1  0  0  0  0
 18 17  1  0  0  0  0
 19 17  1  0  0  0  0
 20 17  1  0  0  0  0
 21 22  1  0  0  0  0
 21 23  1  0  0  0  0
 24 21  1  0  0  0  0
 25 16  1  0  0  0  0
 25 26  1  0  0  0  0
 27 25  1  0  0  0  0
 28 25  1  0  0  0  0
 29 30  1  0  0  0  0
 29 34  1  0  0  0  0
 30 33  1  0  0  0  0
 30 32  1  0  0  0  0
 31 30  1  0  0  0  0
 34 36  1  0  0  0  0
 34 37  1  0  0  0  0
 34 35  1  0  0  0  0
 38 40  1  0  0  0  0
 38 29  1  0  0  0  0
 39 38  1  0  0  0  0
 41 38  1  0  0  0  0
M  CHG  1   2  -1
M  END
