2,3
 OpenBabel05122313063D

 20 20  0  0  0  0  0  0  0  0999 V2000
    1.9008   -0.6246   -2.4817 O   0  0  0  0  0  1  0  0  0  0  0  0
    0.7850    1.4313    0.5056 O   0  5  0  0  0  0  0  0  0  0  0  0
    1.5879    0.1360   -1.5595 N   0  0  0  0  0  2  0  0  0  0  0  0
    2.5572    2.9807    0.6544 C   0  0  0  0  0  0  0  0  0  0  0  0
    2.3751    3.1423    2.0467 C   0  0  0  0  0  0  0  0  0  0  0  0
    1.7655    2.4014    2.5835 H   0  0  0  0  0  0  0  0  0  0  0  0
    2.9616    4.2210    2.7171 C   0  0  0  0  0  0  0  0  0  0  0  0
    2.8252    4.3303    3.8037 H   0  0  0  0  0  0  0  0  0  0  0  0
    3.7198    5.1659    2.0044 C   0  0  0  0  0  0  0  0  0  0  0  0
    4.1780    6.0167    2.5314 H   0  0  0  0  0  0  0  0  0  0  0  0
    3.8828    5.0286    0.6169 C   0  0  0  0  0  0  0  0  0  0  0  0
    4.4559    5.7790    0.0517 H   0  0  0  0  0  0  0  0  0  0  0  0
    3.3098    3.9410   -0.0569 C   0  0  0  0  0  0  0  0  0  0  0  0
    3.4160    3.8601   -1.1471 H   0  0  0  0  0  0  0  0  0  0  0  0
    1.8888    1.8337   -0.0088 C   0  0  0  0  0  0  0  0  0  0  0  0
    2.4167    1.1424   -1.1426 C   0  0  0  0  0  0  0  0  0  0  0  0
    3.7291    1.3175   -1.8367 C   0  0  0  0  0  0  0  0  0  0  0  0
    4.0845    0.3236   -2.1733 H   0  0  0  0  0  0  0  0  0  0  0  0
    4.4840    1.7738   -1.1714 H   0  0  0  0  0  0  0  0  0  0  0  0
    3.6363    1.9455   -2.7495 H   0  0  0  0  0  0  0  0  0  0  0  0
  1  3  1  0  0  0  0
  3 16  1  0  0  0  0
  4  5  1  0  0  0  0
  5  6  1  0  0  0  0
  5  7  2  0  0  0  0
  7  8  1  0  0  0  0
  9 10  1  0  0  0  0
  9  7  1  0  0  0  0
 11  9  2  0  0  0  0
 12 11  1  0  0  0  0
 13 11  1  0  0  0  0
 13  4  2  0  0  0  0
 14 13  1  0  0  0  0
 15  2  1  0  0  0  0
 15  4  1  0  0  0  0
 16 15  2  0  0  0  0
 17 19  1  0  0  0  0
 17 16  1  0  0  0  0
 18 17  1  0  0  0  0
 20 17  1  0  0  0  0
M  CHG  1   2  -1
M  END
