1,2
 OpenBabel05122313063D

 35 37  0  0  0  0  0  0  0  0999 V2000
    1.7026   -0.8386    0.7662 O   0  5  0  0  0  0  0  0  0  0  0  0
   -0.5844   -1.7355   -0.4840 N   0  0  0  0  0  2  0  0  0  0  0  0
   -6.1925   -1.5252   -2.0211 N   0  0  0  0  0  0  0  0  0  0  0  0
   -6.7607   -1.6941   -2.8482 H   0  0  0  0  0  0  0  0  0  0  0  0
    2.0307   -2.0973    0.8734 C   0  0  0  0  0  0  0  0  0  0  0  0
    3.2452   -2.4407    1.5445 C   0  0  0  0  0  0  0  0  0  0  0  0
    3.8465   -1.6238    1.9674 H   0  0  0  0  0  0  0  0  0  0  0  0
    3.6580   -3.7650    1.6451 C   0  0  0  0  0  0  0  0  0  0  0  0
    4.6028   -3.9929    2.1636 H   0  0  0  0  0  0  0  0  0  0  0  0
    2.8866   -4.8195    1.0962 C   0  0  0  0  0  0  0  0  0  0  0  0
    3.2253   -5.8617    1.1831 H   0  0  0  0  0  0  0  0  0  0  0  0
    1.6928   -4.5135    0.4550 C   0  0  0  0  0  3  0  0  0  0  0  0
    1.0682   -5.3154    0.0288 H   0  0  0  0  0  0  0  0  0  0  0  0
    1.2401   -3.1698    0.3349 C   0  0  0  0  0  0  0  0  0  0  0  0
   -0.0066   -2.9020   -0.3111 C   0  0  0  0  0  0  0  0  0  0  0  0
   -0.5459   -3.7917   -0.6964 H   0  0  0  0  0  0  0  0  0  0  0  0
   -1.9158   -1.7740   -1.1043 C   0  0  0  0  0  0  0  0  0  0  0  0
   -2.0161   -0.9113   -1.7859 H   0  0  0  0  0  0  0  0  0  0  0  0
   -2.0039   -2.7084   -1.7004 H   0  0  0  0  0  0  0  0  0  0  0  0
   -3.0285   -1.7058   -0.0493 C   0  0  0  0  0  0  0  0  0  0  0  0
   -2.7936   -0.8635    0.6317 H   0  0  0  0  0  0  0  0  0  0  0  0
   -2.9896   -2.6259    0.5777 H   0  0  0  0  0  0  0  0  0  0  0  0
   -4.8737   -1.9222   -1.8639 C   0  0  0  0  0  0  0  0  0  0  0  0
   -4.3662   -2.4770   -2.6614 H   0  0  0  0  0  0  0  0  0  0  0  0
   -4.3982   -1.5054   -0.6278 C   0  0  0  0  0  0  0  0  0  0  0  0
   -5.4923   -0.8038    0.0059 C   0  0  0  0  0  0  0  0  0  0  0  0
   -5.6321   -0.1267    1.2378 C   0  0  0  0  0  0  0  0  0  0  0  0
   -4.7892   -0.0762    1.9433 H   0  0  0  0  0  0  0  0  0  0  0  0
   -6.8493    0.4913    1.5373 C   0  0  0  0  0  0  0  0  0  0  0  0
   -6.9676    1.0257    2.4918 H   0  0  0  0  0  0  0  0  0  0  0  0
   -7.9371    0.4460    0.6293 C   0  0  0  0  0  0  0  0  0  0  0  0
   -8.8835    0.9414    0.8942 H   0  0  0  0  0  0  0  0  0  0  0  0
   -7.8301   -0.2140   -0.6000 C   0  0  0  0  0  0  0  0  0  0  0  0
   -8.6741   -0.2431   -1.3058 H   0  0  0  0  0  0  0  0  0  0  0  0
   -6.6033   -0.8327   -0.8999 C   0  0  0  0  0  0  0  0  0  0  0  0
  1  5  1  0  0  0  0
  2 15  1  0  0  0  0
  3 23  1  0  0  0  0
  3 35  1  0  0  0  0
  4  3  1  0  0  0  0
  5  6  2  0  0  0  0
  6  8  1  0  0  0  0
  6  7  1  0  0  0  0
  8  9  1  0  0  0  0
 10 11  1  0  0  0  0
 10  8  2  0  0  0  0
 12 10  1  0  0  0  0
 13 12  1  0  0  0  0
 14 12  1  0  0  0  0
 14  5  1  0  0  0  0
 15 14  2  0  0  0  0
 16 15  1  0  0  0  0
 17  2  1  0  0  0  0
 17 20  1  0  0  0  0
 18 17  1  0  0  0  0
 19 17  1  0  0  0  0
 20 22  1  0  0  0  0
 20 21  1  0  0  0  0
 23 25  2  0  0  0  0
 24 23  1  0  0  0  0
 25 20  1  0  0  0  0
 25 26  1  0  0  0  0
 26 27  1  0  0  0  0
 27 29  2  0  0  0  0
 27 28  1  0  0  0  0
 29 30  1  0  0  0  0
 31 32  1  0  0  0  0
 31 29  1  0  0  0  0
 33 31  2  0  0  0  0
 34 33  1  0  0  0  0
 35 33  1  0  0  0  0
 35 26  2  0  0  0  0
M  CHG  1   1  -1
M  END
