3,5
 OpenBabel05122313063D

 36 38  0  0  1  0  0  0  0  0999 V2000
    7.6054   -0.7226   -2.6592 F   0  0  0  0  0  0  0  0  0  0  0  0
   11.1943    0.2568    0.2306 F   0  0  0  0  0  0  0  0  0  0  0  0
    1.4927   -0.9391   -1.1129 O   0  5  0  0  0  0  0  0  0  0  0  0
    3.0860    2.2651    1.3305 O   0  0  0  0  0  0  0  0  0  0  0  0
    1.1684    1.2912    0.6957 N   0  0  0  0  0  2  0  0  0  0  0  0
    3.3181    0.3179   -0.0621 C   0  0  0  0  0  0  0  0  0  0  0  0
    2.7606   -0.7098   -0.9228 C   0  0  0  0  0  0  0  0  0  0  0  0
    3.7120   -1.5355   -1.6044 C   0  0  0  0  0  0  0  0  0  0  0  0
    3.2995   -2.3133   -2.2636 H   0  0  0  0  0  0  0  0  0  0  0  0
    5.0801   -1.3862   -1.4484 C   0  0  0  0  0  0  0  0  0  0  0  0
    5.7574   -2.0605   -1.9908 H   0  0  0  0  0  0  0  0  0  0  0  0
    5.6284   -0.3884   -0.5893 C   0  0  0  0  0  0  0  0  0  0  0  0
    4.7251    0.4441    0.0778 C   0  0  0  0  0  0  0  0  0  0  0  0
    5.1015    1.2493    0.7242 H   0  0  0  0  0  0  0  0  0  0  0  0
    7.0870   -0.2390   -0.3785 C   0  0  0  0  0  0  0  0  0  0  0  0
    8.0312   -0.4091   -1.4179 C   0  0  0  0  0  0  0  0  0  0  0  0
    9.4081   -0.2486   -1.2344 C   0  0  0  0  0  0  0  0  0  0  0  0
   10.1005   -0.3840   -2.0756 H   0  0  0  0  0  0  0  0  0  0  0  0
    9.8719    0.1017    0.0380 C   0  0  0  0  0  0  0  0  0  0  0  0
    8.9892    0.2866    1.1085 C   0  0  0  0  0  0  0  0  0  0  0  0
    9.3846    0.5497    2.0992 H   0  0  0  0  0  0  0  0  0  0  0  0
    7.6181    0.1109    0.8857 C   0  0  0  0  0  0  0  0  0  0  0  0
    6.9207    0.2279    1.7281 H   0  0  0  0  0  0  0  0  0  0  0  0
    2.4790    1.2635    0.6434 C   0  0  1  0  0  3  0  0  0  0  0  0
    2.0542    2.9635    2.0635 C   0  0  0  0  0  0  0  0  0  0  0  0
    2.2506    4.0498    1.9877 H   0  0  0  0  0  0  0  0  0  0  0  0
    2.1150    2.6519    3.1291 H   0  0  0  0  0  0  0  0  0  0  0  0
    0.7279    2.5192    1.3940 C   0  0  0  0  0  0  0  0  0  0  0  0
   -0.3744    2.1887    2.4030 C   0  0  0  0  0  0  0  0  0  0  0  0
   -1.2664    1.7959    1.8748 H   0  0  0  0  0  0  0  0  0  0  0  0
   -0.6811    3.0937    2.9649 H   0  0  0  0  0  0  0  0  0  0  0  0
   -0.0319    1.4210    3.1254 H   0  0  0  0  0  0  0  0  0  0  0  0
    0.2374    3.5278    0.3418 C   0  0  0  0  0  0  0  0  0  0  0  0
    1.0639    3.8083   -0.3417 H   0  0  0  0  0  0  0  0  0  0  0  0
   -0.1470    4.4479    0.8272 H   0  0  0  0  0  0  0  0  0  0  0  0
   -0.5702    3.0710   -0.2648 H   0  0  0  0  0  0  0  0  0  0  0  0
  1 16  1  0  0  0  0
  3  7  1  0  0  0  0
  4 25  1  0  0  0  0
  5 28  1  0  0  0  0
  6 13  1  0  0  0  0
  7  6  2  0  0  0  0
  8 10  2  0  0  0  0
  8  7  1  0  0  0  0
  9  8  1  0  0  0  0
 10 12  1  0  0  0  0
 11 10  1  0  0  0  0
 12 15  1  0  0  0  0
 12 13  2  0  0  0  0
 13 14  1  0  0  0  0
 15 22  1  0  0  0  0
 16 17  1  0  0  0  0
 16 15  2  0  0  0  0
 17 19  2  0  0  0  0
 18 17  1  0  0  0  0
 19  2  1  0  0  0  0
 19 20  1  0  0  0  0
 20 21  1  0  0  0  0
 22 20  2  0  0  0  0
 22 23  1  0  0  0  0
 24  6  1  6  0  0  0
 24  5  1  0  0  0  0
 24  4  1  0  0  0  0
 25 27  1  0  0  0  0
 26 25  1  0  0  0  0
 28 25  1  0  0  0  0
 28 29  1  0  0  0  0
 29 31  1  0  0  0  0
 29 32  1  0  0  0  0
 30 29  1  0  0  0  0
 33 35  1  0  0  0  0
 33 28  1  0  0  0  0
 34 33  1  0  0  0  0
 36 33  1  0  0  0  0
M  CHG  1   3  -1
M  END
