1,10
 OpenBabel05122313063D

 33 35  0  0  1  0  0  0  0  0999 V2000
    0.1888   -0.6124   -0.8546 N   0  0  0  0  0  0  0  0  0  0  0  0
    3.4695   -0.0454    1.6152 O   0  0  0  0  0  0  0  0  0  0  0  0
    3.5576   -0.3213    0.4007 C   0  0  0  0  0  0  0  0  0  0  0  0
    5.1053   -0.7512   -1.5956 C   0  0  0  0  0  0  0  0  0  0  0  0
    4.2290   -0.9440   -2.2309 H   0  0  0  0  0  0  0  0  0  0  0  0
    2.3098   -0.5073   -0.3606 C   0  0  0  0  0  0  0  0  0  0  0  0
    0.8675   -1.1699   -1.8844 N   0  0  0  0  0  0  0  0  0  0  0  0
    2.1454   -1.0960   -1.5970 N   0  0  0  0  0  0  0  0  0  0  0  0
    4.9064   -0.4402   -0.2313 C   0  0  0  0  0  0  0  0  0  0  0  0
   -0.9792    0.3139    1.3312 O   0  0  0  0  0  1  0  0  0  0  0  0
    1.1279    2.7101    0.3634 C   0  0  0  0  0  0  0  0  0  0  0  0
    1.2859    2.2276   -0.6133 H   0  0  0  0  0  0  0  0  0  0  0  0
    0.7522    1.9339    1.4743 C   0  0  0  0  0  0  0  0  0  0  0  0
    0.4290    0.4328    1.3643 C   0  0  2  0  0  0  0  0  0  0  0  0
    1.0251   -0.1911    0.1175 C   0  0  0  0  0  3  0  0  0  0  0  0
    0.8882   -0.2771    2.4990 O   0  0  0  0  0  0  0  0  0  0  0  0
    1.8822   -0.2457    2.4125 H   0  0  0  0  0  0  0  0  0  0  0  0
    6.0282   -0.2134    0.5991 C   0  0  0  0  0  0  0  0  0  0  0  0
    5.8440    0.0272    1.6563 H   0  0  0  0  0  0  0  0  0  0  0  0
    1.3016    4.0980    0.4924 C   0  0  0  0  0  0  0  0  0  0  0  0
    1.6054    4.6939   -0.3822 H   0  0  0  0  0  0  0  0  0  0  0  0
    1.0951    4.7215    1.7324 C   0  0  0  0  0  0  0  0  0  0  0  0
    1.2332    5.8088    1.8353 H   0  0  0  0  0  0  0  0  0  0  0  0
    0.5614    2.5616    2.7198 C   0  0  0  0  0  0  0  0  0  0  0  0
    0.2882    1.9369    3.5825 H   0  0  0  0  0  0  0  0  0  0  0  0
    6.4067   -0.8322   -2.1106 C   0  0  0  0  0  0  0  0  0  0  0  0
    6.5567   -1.0782   -3.1729 H   0  0  0  0  0  0  0  0  0  0  0  0
    0.7253    3.9473    2.8468 C   0  0  0  0  0  0  0  0  0  0  0  0
    0.5713    4.4296    3.8246 H   0  0  0  0  0  0  0  0  0  0  0  0
    7.5150   -0.6016   -1.2801 C   0  0  0  0  0  0  0  0  0  0  0  0
    8.5345   -0.6638   -1.6916 H   0  0  0  0  0  0  0  0  0  0  0  0
    7.3229   -0.2918    0.0785 C   0  0  0  0  0  0  0  0  0  0  0  0
    8.1907   -0.1110    0.7311 H   0  0  0  0  0  0  0  0  0  0  0  0
  1 15  1  0  0  0  0
  3  2  2  0  0  0  0
  4  9  1  0  0  0  0
  5  4  1  0  0  0  0
  6 15  1  0  0  0  0
  6  3  1  0  0  0  0
  7  8  1  0  0  0  0
  7  1  2  0  0  0  0
  8  6  2  0  0  0  0
  9  3  1  0  0  0  0
  9 18  2  0  0  0  0
 11 20  2  0  0  0  0
 11 13  1  0  0  0  0
 12 11  1  0  0  0  0
 13 24  2  0  0  0  0
 14 10  1  6  0  0  0
 14 13  1  0  0  0  0
 14 16  1  0  0  0  0
 15 14  1  0  0  0  0
 17 16  1  0  0  0  0
 18 19  1  0  0  0  0
 20 22  1  0  0  0  0
 21 20  1  0  0  0  0
 22 23  1  0  0  0  0
 22 28  2  0  0  0  0
 24 28  1  0  0  0  0
 24 25  1  0  0  0  0
 26  4  2  0  0  0  0
 26 30  1  0  0  0  0
 27 26  1  0  0  0  0
 28 29  1  0  0  0  0
 30 32  2  0  0  0  0
 31 30  1  0  0  0  0
 32 18  1  0  0  0  0
 32 33  1  0  0  0  0
M  END
