7,10
 OpenBabel05122313063D

 14 14  0  0  0  0  0  0  0  0999 V2000
   -2.0763    2.2593    2.1659 C   0  0  0  0  0  3  0  0  0  0  0  0
   -1.4216    2.4760    3.0180 H   0  0  0  0  0  0  0  0  0  0  0  0
   -5.3850    2.2664    0.6719 C   0  0  0  0  0  0  0  0  0  0  0  0
   -3.9178    2.1090    0.9264 C   0  0  0  0  0  0  0  0  0  0  0  0
   -2.8272    1.5848    0.2323 C   0  0  0  0  0  0  0  0  0  0  0  0
   -2.7723    0.9606   -1.1324 C   0  0  0  0  0  0  0  0  0  0  0  0
   -1.7026    1.6902    1.0220 N   0  0  0  0  0  2  0  0  0  0  0  0
   -3.4076    2.5298    2.1345 N   0  0  0  0  0  0  0  0  0  0  0  0
   -4.0120    2.9630    2.8416 H   0  0  0  0  0  0  0  0  0  0  0  0
   -1.6303    0.6295   -1.5865 O   0  5  0  0  0  0  0  0  0  0  0  0
   -3.8740    0.7599   -1.7220 O   0  0  0  0  0  0  0  0  0  0  0  0
   -5.8324    1.7961   -0.4743 O   0  0  0  0  0  0  0  0  0  0  0  0
   -5.0545    1.3572   -1.0262 H   0  0  0  0  0  0  0  0  0  0  0  0
   -6.0740    2.8057    1.5320 O   0  0  0  0  0  0  0  0  0  0  0  0
  1  2  1  0  0  0  0
  3  4  1  0  0  0  0
  3 14  2  0  0  0  0
  4  8  1  0  0  0  0
  5  4  2  0  0  0  0
  5  7  1  0  0  0  0
  6  5  1  0  0  0  0
  7  1  1  0  0  0  0
  8  1  1  0  0  0  0
  8  9  1  0  0  0  0
 10  6  1  0  0  0  0
 11  6  2  0  0  0  0
 12  3  1  0  0  0  0
 13 12  1  0  0  0  0
M  CHG  1  10  -1
M  END
