1,2
 OpenBabel05122313063D

 34 35  0  0  0  0  0  0  0  0999 V2000
   -2.1880   -1.2963    0.3392 O   0  5  0  0  0  0  0  0  0  0  0  0
   -0.5005    0.9464   -0.4882 N   0  0  0  0  0  2  0  0  0  0  0  0
    3.0977    1.2706   -0.1664 N   0  3  0  0  0  0  0  0  0  0  0  0
    3.3834    1.7684   -1.0295 H   0  0  0  0  0  0  0  0  0  0  0  0
   -3.1211   -0.4099    0.2336 C   0  0  0  0  0  0  0  0  0  0  0  0
   -4.4709   -0.7990    0.5404 C   0  0  0  0  0  0  0  0  0  0  0  0
   -4.6134   -1.8430    0.8560 H   0  0  0  0  0  0  0  0  0  0  0  0
   -5.5370    0.0825    0.4484 C   0  0  0  0  0  0  0  0  0  0  0  0
   -6.5510   -0.2691    0.6984 H   0  0  0  0  0  0  0  0  0  0  0  0
   -5.3451    1.4268    0.0345 C   0  0  0  0  0  0  0  0  0  0  0  0
   -6.1970    2.1176   -0.0402 H   0  0  0  0  0  0  0  0  0  0  0  0
   -4.0612    1.8461   -0.2767 C   0  0  0  0  0  0  0  0  0  0  0  0
   -3.8858    2.8845   -0.6053 H   0  0  0  0  0  0  0  0  0  0  0  0
   -2.9319    0.9771   -0.1866 C   0  0  0  0  0  0  0  0  0  0  0  0
   -1.6625    1.5382   -0.5499 C   0  0  0  0  0  3  0  0  0  0  0  0
   -1.6950    2.5878   -0.9288 H   0  0  0  0  0  0  0  0  0  0  0  0
    0.6955    1.6045   -0.9564 C   0  0  0  0  0  0  0  0  0  0  0  0
    0.4796    2.6099   -1.3895 H   0  0  0  0  0  0  0  0  0  0  0  0
    1.1132    0.9623   -1.7682 H   0  0  0  0  0  0  0  0  0  0  0  0
    1.7068    1.7120    0.2018 C   0  0  0  0  0  0  0  0  0  0  0  0
    1.7952    2.7483    0.5823 H   0  0  0  0  0  0  0  0  0  0  0  0
    1.3930    1.0368    1.0319 H   0  0  0  0  0  0  0  0  0  0  0  0
    4.1161    1.5727    0.9071 C   0  0  0  0  0  0  0  0  0  0  0  0
    3.6438    1.2349    1.8495 H   0  0  0  0  0  0  0  0  0  0  0  0
    4.2843    2.6650    0.9593 H   0  0  0  0  0  0  0  0  0  0  0  0
    5.3471    0.7266    0.5400 C   0  0  0  0  0  0  0  0  0  0  0  0
    5.7742    0.2725    1.4538 H   0  0  0  0  0  0  0  0  0  0  0  0
    6.1437    1.3467    0.0850 H   0  0  0  0  0  0  0  0  0  0  0  0
    4.8182   -0.3449   -0.4565 C   0  0  0  0  0  0  0  0  0  0  0  0
    5.1258   -1.3720   -0.1862 H   0  0  0  0  0  0  0  0  0  0  0  0
    5.2044   -0.1539   -1.4794 H   0  0  0  0  0  0  0  0  0  0  0  0
    3.3005   -0.2164   -0.4098 C   0  0  0  0  0  0  0  0  0  0  0  0
    2.7286   -0.5594   -1.2976 H   0  0  0  0  0  0  0  0  0  0  0  0
    2.8345   -0.7201    0.4676 H   0  0  0  0  0  0  0  0  0  0  0  0
  3 20  1  0  0  0  0
  3 23  1  0  0  0  0
  4  3  1  0  0  0  0
  5  1  1  0  0  0  0
  5  6  1  0  0  0  0
  6  7  1  0  0  0  0
  8  6  2  0  0  0  0
  8  9  1  0  0  0  0
 10  8  1  0  0  0  0
 11 10  1  0  0  0  0
 12 14  1  0  0  0  0
 12 10  2  0  0  0  0
 13 12  1  0  0  0  0
 14  5  2  0  0  0  0
 15  2  1  0  0  0  0
 15 14  1  0  0  0  0
 16 15  1  0  0  0  0
 17  2  1  0  0  0  0
 17 20  1  0  0  0  0
 18 17  1  0  0  0  0
 19 17  1  0  0  0  0
 20 21  1  0  0  0  0
 20 22  1  0  0  0  0
 23 25  1  0  0  0  0
 23 24  1  0  0  0  0
 26 23  1  0  0  0  0
 26 27  1  0  0  0  0
 28 26  1  0  0  0  0
 29 32  1  0  0  0  0
 29 30  1  0  0  0  0
 29 26  1  0  0  0  0
 31 29  1  0  0  0  0
 32  3  1  0  0  0  0
 32 34  1  0  0  0  0
 33 32  1  0  0  0  0
M  CHG  2   1  -1   3   1
M  END
