1,2
 OpenBabel05122313063D

 10  9  0  0  0  0  0  0  0  0999 V2000
    1.3727    0.0011   -1.5219 O   0  0  0  0  0  1  0  0  0  0  0  0
    1.2998   -1.2517    0.9611 N   0  0  0  0  0  0  0  0  0  0  0  0
    2.1060   -1.1650   -1.3397 C   0  0  0  0  0  0  0  0  0  0  0  0
    2.5393   -1.3131    0.1222 C   0  0  0  0  0  0  0  0  0  0  0  0
    0.8817   -2.1795    1.1235 H   0  0  0  0  0  0  0  0  0  0  0  0
    1.4841   -0.8099    1.8782 H   0  0  0  0  0  0  0  0  0  0  0  0
    3.0109   -1.1422   -1.9925 H   0  0  0  0  0  0  0  0  0  0  0  0
    1.5486   -2.1096   -1.6310 H   0  0  0  0  0  0  0  0  0  0  0  0
    3.1054   -2.2459    0.3293 H   0  0  0  0  0  0  0  0  0  0  0  0
    3.1456   -0.4318    0.4068 H   0  0  0  0  0  0  0  0  0  0  0  0
  1  3  1  0  0  0  0
  2  5  1  0  0  0  0
  2  6  1  0  0  0  0
  3  4  1  0  0  0  0
  4  9  1  0  0  0  0
  4 10  1  0  0  0  0
  4  2  1  0  0  0  0
  7  3  1  0  0  0  0
  8  3  1  0  0  0  0
M  END
