1,2
 OpenBabel05122313063D

 14 14  0  0  1  0  0  0  0  0999 V2000
    1.8635    0.0369    0.1154 N   0  0  0  0  0  2  0  0  0  0  0  0
    0.1149    1.8679   -0.1761 O   0  5  0  0  0  0  0  0  0  0  0  0
    1.6329    3.5299   -0.4285 O   0  0  0  0  0  0  0  0  0  0  0  0
    4.8946   -1.9464    0.4200 O   0  0  0  0  0  0  0  0  0  0  0  0
    4.3675   -2.7617    0.5276 H   0  0  0  0  0  0  0  0  0  0  0  0
    1.3511    2.3528   -0.2611 C   0  0  0  0  0  0  0  0  0  0  0  0
    2.3839    1.2710   -0.0953 C   0  0  1  0  0  3  0  0  0  0  0  0
    3.7675    1.4719   -0.1371 C   0  0  0  0  0  0  0  0  0  0  0  0
    4.1356    2.4932   -0.3121 H   0  0  0  0  0  0  0  0  0  0  0  0
    4.6232    0.3823    0.0383 C   0  0  0  0  0  0  0  0  0  0  0  0
    5.7172    0.4874    0.0085 H   0  0  0  0  0  0  0  0  0  0  0  0
    4.0633   -0.8965    0.2532 C   0  0  0  0  0  0  0  0  0  0  0  0
    2.6610   -1.0300    0.2888 C   0  0  0  0  0  0  0  0  0  0  0  0
    2.1507   -1.9956    0.4445 H   0  0  0  0  0  0  0  0  0  0  0  0
  1 13  1  0  0  0  0
  3  6  2  0  0  0  0
  4  5  1  0  0  0  0
  6  2  1  0  0  0  0
  7  6  1  1  0  0  0
  7  1  1  0  0  0  0
  8  7  1  0  0  0  0
  8 10  2  0  0  0  0
  9  8  1  0  0  0  0
 10 12  1  0  0  0  0
 11 10  1  0  0  0  0
 12 13  2  0  0  0  0
 12  4  1  0  0  0  0
 13 14  1  0  0  0  0
M  CHG  1   2  -1
M  END
