22,23
 OpenBabel05122313063D

 26 26  0  0  0  0  0  0  0  0999 V2000
   -3.0533   -0.6209   -0.2482 C   0  0  0  0  0  0  0  0  0  0  0  0
   -3.3094   -2.0264   -0.3344 C   0  0  0  0  0  0  0  0  0  0  0  0
   -4.6468   -2.4439   -0.5814 C   0  0  0  0  0  0  0  0  0  0  0  0
   -4.8578   -3.5232   -0.6447 H   0  0  0  0  0  0  0  0  0  0  0  0
   -5.6791   -1.5337   -0.7488 C   0  0  0  0  0  0  0  0  0  0  0  0
   -6.7113   -1.8548   -0.9442 H   0  0  0  0  0  0  0  0  0  0  0  0
   -5.4054   -0.1403   -0.6670 C   0  0  0  0  0  0  0  0  0  0  0  0
   -4.1022    0.3117   -0.4181 C   0  0  0  0  0  0  0  0  0  0  0  0
   -3.8438    1.3743   -0.3374 H   0  0  0  0  0  0  0  0  0  0  0  0
   -0.1445   -3.9941    0.1503 C   0  0  0  0  0  0  0  0  0  0  0  0
    0.7097   -3.9306   -0.5563 H   0  0  0  0  0  0  0  0  0  0  0  0
   -0.7462   -4.8895   -0.1146 H   0  0  0  0  0  0  0  0  0  0  0  0
    0.3736   -4.1474    1.5955 C   0  0  0  0  0  0  0  0  0  0  0  0
    0.8651   -5.1436    1.6639 H   0  0  0  0  0  0  0  0  0  0  0  0
    1.1564   -3.3763    1.7852 H   0  0  0  0  0  0  0  0  0  0  0  0
   -6.2555    2.0801   -0.7646 C   0  0  0  0  0  0  0  0  0  0  0  0
   -5.8605    2.3822    0.2308 H   0  0  0  0  0  0  0  0  0  0  0  0
   -7.2394    2.5574   -0.9275 H   0  0  0  0  0  0  0  0  0  0  0  0
   -5.5436    2.4314   -1.5441 H   0  0  0  0  0  0  0  0  0  0  0  0
   -2.2774   -3.0094   -0.1695 C   0  0  0  0  0  3  0  0  0  0  0  0
   -2.6104   -4.0649   -0.1844 H   0  0  0  0  0  0  0  0  0  0  0  0
   -0.9869   -2.8056   -0.0183 N   0  0  0  0  0  2  0  0  0  0  0  0
   -1.8440   -0.1783    0.0242 O   0  5  0  0  0  0  0  0  0  0  0  0
   -0.6593   -4.0851    2.5408 O   0  0  0  0  0  0  0  0  0  0  0  0
   -0.7920   -3.1217    2.7105 H   0  0  0  0  0  0  0  0  0  0  0  0
   -6.4711    0.6813   -0.8417 O   0  0  0  0  0  0  0  0  0  0  0  0
  1 23  1  0  0  0  0
  2  1  1  0  0  0  0
  2 20  1  0  0  0  0
  3  2  2  0  0  0  0
  4  3  1  0  0  0  0
  5  7  2  0  0  0  0
  5  3  1  0  0  0  0
  6  5  1  0  0  0  0
  7  8  1  0  0  0  0
  8  9  1  0  0  0  0
  8  1  2  0  0  0  0
 10 13  1  0  0  0  0
 11 10  1  0  0  0  0
 12 10  1  0  0  0  0
 13 14  1  0  0  0  0
 13 15  1  0  0  0  0
 13 24  1  0  0  0  0
 16 17  1  0  0  0  0
 18 16  1  0  0  0  0
 19 16  1  0  0  0  0
 20 22  1  0  0  0  0
 21 20  1  0  0  0  0
 22 10  1  0  0  0  0
 24 25  1  0  0  0  0
 26 16  1  0  0  0  0
 26  7  1  0  0  0  0
M  CHG  1  23  -1
M  END
