2,8
 OpenBabel05122313063D

 10  9  0  0  1  0  0  0  0  0999 V2000
   -3.0460    0.0022   -0.0939 C   0  0  1  0  0  3  0  0  0  0  0  0
   -2.1006    0.7855   -0.3147 O   0  0  0  0  0  1  0  0  0  0  0  0
   -4.3456    0.3708   -0.2934 N   0  0  0  0  0  0  0  0  0  0  0  0
   -4.4856    1.3623   -0.4882 H   0  0  0  0  0  0  0  0  0  0  0  0
   -5.0982   -0.1035    0.2047 H   0  0  0  0  0  0  0  0  0  0  0  0
   -2.8379   -1.2834    0.3512 N   0  0  0  0  0  0  0  0  0  0  0  0
   -3.5774   -1.9843    0.2674 H   0  0  0  0  0  0  0  0  0  0  0  0
   -1.5135   -1.7350    0.4577 N   0  0  0  0  0  0  0  0  0  0  0  0
   -1.2970   -2.4253   -0.2852 H   0  0  0  0  0  0  0  0  0  0  0  0
   -1.3281   -2.0721    1.4152 H   0  0  0  0  0  0  0  0  0  0  0  0
  1  2  1  6  0  0  0
  1  6  1  0  0  0  0
  3  1  1  0  0  0  0
  3  5  1  0  0  0  0
  4  3  1  0  0  0  0
  6  8  1  0  0  0  0
  7  6  1  0  0  0  0
  8 10  1  0  0  0  0
  9  8  1  0  0  0  0
M  END
