1,3
 OpenBabel05122313063D

 18 18  0  0  1  0  0  0  0  0999 V2000
    0.5368    1.6424    0.0174 N   0  0  0  0  0  2  0  0  0  0  0  0
    0.1051    2.5736    0.0275 H   0  0  0  0  0  0  0  0  0  0  0  0
    0.8964   -1.1606    0.0023 O   0  0  0  0  0  1  0  0  0  0  0  0
    2.1706   -0.8295   -0.0050 C   0  0  1  0  0  3  0  0  0  0  0  0
    2.6992    0.5152    0.0036 C   0  0  0  0  0  0  0  0  0  0  0  0
    4.1204    0.6791   -0.0026 C   0  0  0  0  0  0  0  0  0  0  0  0
    4.5420    1.6927    0.0043 H   0  0  0  0  0  0  0  0  0  0  0  0
    4.9911   -0.3986   -0.0180 C   0  0  0  0  0  0  0  0  0  0  0  0
    6.0774   -0.2339   -0.0227 H   0  0  0  0  0  0  0  0  0  0  0  0
    4.4627   -1.7111   -0.0278 C   0  0  0  0  0  0  0  0  0  0  0  0
    5.1411   -2.5778   -0.0404 H   0  0  0  0  0  0  0  0  0  0  0  0
    3.0910   -1.9197   -0.0212 C   0  0  0  0  0  0  0  0  0  0  0  0
    2.6677   -2.9340   -0.0292 H   0  0  0  0  0  0  0  0  0  0  0  0
    1.8557    1.6912    0.0186 C   0  0  0  0  0  0  0  0  0  0  0  0
    2.4852    3.0643    0.0349 C   0  0  0  0  0  0  0  0  0  0  0  0
    1.7156    3.8595    0.0467 H   0  0  0  0  0  0  0  0  0  0  0  0
    3.1243    3.2173   -0.8571 H   0  0  0  0  0  0  0  0  0  0  0  0
    3.1288    3.1945    0.9272 H   0  0  0  0  0  0  0  0  0  0  0  0
  1 14  1  0  0  0  0
  1  2  1  0  0  0  0
  4  3  1  1  0  0  0
  4  5  1  0  0  0  0
  5 14  2  0  0  0  0
  6  5  1  0  0  0  0
  6  7  1  0  0  0  0
  8  6  2  0  0  0  0
  9  8  1  0  0  0  0
 10 12  2  0  0  0  0
 10  8  1  0  0  0  0
 11 10  1  0  0  0  0
 12  4  1  0  0  0  0
 13 12  1  0  0  0  0
 14 15  1  0  0  0  0
 15 16  1  0  0  0  0
 15 18  1  0  0  0  0
 17 15  1  0  0  0  0
M  END
