2,3
 OpenBabel05122313063D

 18 18  0  0  0  0  0  0  0  0999 V2000
    2.1006   -2.2082   -0.9069 N   0  0  0  0  0  0  0  0  0  0  0  0
    2.0229    0.7807   -0.7686 N   0  0  0  0  0  2  0  0  0  0  0  0
    0.8913   -1.8465   -1.0730 O   0  0  0  0  0  1  0  0  0  0  0  0
    2.2911   -3.6558   -0.6607 C   0  0  0  0  0  0  0  0  0  0  0  0
    1.6651   -4.1979   -1.3919 H   0  0  0  0  0  0  0  0  0  0  0  0
    1.9397   -3.8606    0.3722 H   0  0  0  0  0  0  0  0  0  0  0  0
    3.3539   -3.9362   -0.7649 H   0  0  0  0  0  0  0  0  0  0  0  0
    3.1525   -1.4033   -0.8684 C   0  0  0  0  0  0  0  0  0  0  0  0
    4.1187   -1.9089   -0.7573 H   0  0  0  0  0  0  0  0  0  0  0  0
    3.1549    0.0461   -0.9351 C   0  0  0  0  0  0  0  0  0  0  0  0
    4.4095    0.6708   -1.1554 C   0  0  0  0  0  0  0  0  0  0  0  0
    5.3118    0.0504   -1.2594 H   0  0  0  0  0  0  0  0  0  0  0  0
    4.4828    2.0613   -1.2429 C   0  0  0  0  0  0  0  0  0  0  0  0
    5.4484    2.5588   -1.4186 H   0  0  0  0  0  0  0  0  0  0  0  0
    3.3035    2.8055   -1.0987 C   0  0  0  0  0  0  0  0  0  0  0  0
    3.3031    3.9028   -1.1610 H   0  0  0  0  0  0  0  0  0  0  0  0
    2.1061    2.1210   -0.8478 C   0  0  0  0  0  0  0  0  0  0  0  0
    1.1603    2.6600   -0.6970 H   0  0  0  0  0  0  0  0  0  0  0  0
  1  8  1  0  0  0  0
  1  4  1  0  0  0  0
  3  1  1  0  0  0  0
  4  6  1  0  0  0  0
  5  4  1  0  0  0  0
  7  4  1  0  0  0  0
  8  9  1  0  0  0  0
 10  8  2  0  0  0  0
 10  2  1  0  0  0  0
 11 10  1  0  0  0  0
 12 11  1  0  0  0  0
 13 11  2  0  0  0  0
 13 15  1  0  0  0  0
 14 13  1  0  0  0  0
 15 17  2  0  0  0  0
 16 15  1  0  0  0  0
 17  2  1  0  0  0  0
 17 18  1  0  0  0  0
M  END
