1,2
 OpenBabel05122313063D

 41 42  0  0  0  0  0  0  0  0999 V2000
   -1.3285    1.3777   -0.6302 O   0  5  0  0  0  0  0  0  0  0  0  0
    1.5745    1.1775   -0.5304 N   0  0  0  0  0  2  0  0  0  0  0  0
    2.2467   -0.9231   -2.3006 N   0  0  0  0  0  0  0  0  0  0  0  0
    3.4657    2.1084    1.3691 N   0  0  0  0  0  0  0  0  0  0  0  0
    0.2459    3.2281   -0.8706 C   0  0  0  0  0  0  0  0  0  0  0  0
   -1.0754    2.6435   -0.8165 C   0  0  0  0  0  0  0  0  0  0  0  0
   -2.1980    3.5114   -0.9982 C   0  0  0  0  0  0  0  0  0  0  0  0
   -2.0304    4.8766   -1.1927 C   0  0  0  0  0  0  0  0  0  0  0  0
   -0.7368    5.4561   -1.2352 C   0  0  0  0  0  0  0  0  0  0  0  0
    0.3707    4.6332   -1.0853 C   0  0  0  0  0  3  0  0  0  0  0  0
    1.4553    2.4636   -0.7876 C   0  0  0  0  0  0  0  0  0  0  0  0
    2.8902    0.6215   -0.5052 C   0  0  0  0  0  0  0  0  0  0  0  0
    3.2016   -0.4527   -1.3884 C   0  0  0  0  0  0  0  0  0  0  0  0
    4.4731   -1.0643   -1.2782 C   0  0  0  0  0  0  0  0  0  0  0  0
    5.4027   -0.6048   -0.3407 C   0  0  0  0  0  0  0  0  0  0  0  0
    5.0940    0.4533    0.5234 C   0  0  0  0  0  0  0  0  0  0  0  0
    3.8237    1.0694    0.4728 C   0  0  0  0  0  0  0  0  0  0  0  0
    1.6512   -0.0373   -3.2850 C   0  0  0  0  0  0  0  0  0  0  0  0
    2.3141   -2.3028   -2.7273 C   0  0  0  0  0  0  0  0  0  0  0  0
    4.5480    2.8709    1.9571 C   0  0  0  0  0  0  0  0  0  0  0  0
    2.4018    1.8177    2.3256 C   0  0  0  0  0  0  0  0  0  0  0  0
   -3.1939    3.0455   -0.9625 H   0  0  0  0  0  0  0  0  0  0  0  0
   -2.9187    5.5164   -1.3158 H   0  0  0  0  0  0  0  0  0  0  0  0
   -0.6142    6.5373   -1.3914 H   0  0  0  0  0  0  0  0  0  0  0  0
    1.3861    5.0593   -1.1293 H   0  0  0  0  0  0  0  0  0  0  0  0
    2.3957    3.0123   -0.9770 H   0  0  0  0  0  0  0  0  0  0  0  0
    4.7381   -1.8872   -1.9551 H   0  0  0  0  0  0  0  0  0  0  0  0
    6.3931   -1.0821   -0.2801 H   0  0  0  0  0  0  0  0  0  0  0  0
    5.8274    0.7772    1.2734 H   0  0  0  0  0  0  0  0  0  0  0  0
    0.5859   -0.3040   -3.4560 H   0  0  0  0  0  0  0  0  0  0  0  0
    1.6805    1.0112   -2.9481 H   0  0  0  0  0  0  0  0  0  0  0  0
    2.1867   -0.0958   -4.2656 H   0  0  0  0  0  0  0  0  0  0  0  0
    1.3116   -2.6135   -3.0904 H   0  0  0  0  0  0  0  0  0  0  0  0
    3.0398   -2.4844   -3.5614 H   0  0  0  0  0  0  0  0  0  0  0  0
    2.5793   -2.9568   -1.8748 H   0  0  0  0  0  0  0  0  0  0  0  0
    4.1343    3.7999    2.4016 H   0  0  0  0  0  0  0  0  0  0  0  0
    5.0945    2.3314    2.7734 H   0  0  0  0  0  0  0  0  0  0  0  0
    5.2844    3.1562    1.1806 H   0  0  0  0  0  0  0  0  0  0  0  0
    2.0251    2.7670    2.7603 H   0  0  0  0  0  0  0  0  0  0  0  0
    1.5510    1.3039    1.8377 H   0  0  0  0  0  0  0  0  0  0  0  0
    2.7573    1.1666    3.1625 H   0  0  0  0  0  0  0  0  0  0  0  0
  2 12  1  0  0  0  0
  3 13  1  0  0  0  0
  4 20  1  0  0  0  0
  4 21  1  0  0  0  0
  5  6  1  0  0  0  0
  5 11  2  0  0  0  0
  6  1  1  0  0  0  0
  7 22  1  0  0  0  0
  7  6  2  0  0  0  0
  8  7  1  0  0  0  0
  9  8  2  0  0  0  0
  9 10  1  0  0  0  0
 10  5  1  0  0  0  0
 11  2  1  0  0  0  0
 12 17  1  0  0  0  0
 13 14  1  0  0  0  0
 13 12  2  0  0  0  0
 14 15  2  0  0  0  0
 15 28  1  0  0  0  0
 15 16  1  0  0  0  0
 16 29  1  0  0  0  0
 17 16  2  0  0  0  0
 17  4  1  0  0  0  0
 18 31  1  0  0  0  0
 18  3  1  0  0  0  0
 19  3  1  0  0  0  0
 19 35  1  0  0  0  0
 20 36  1  0  0  0  0
 20 37  1  0  0  0  0
 21 39  1  0  0  0  0
 21 41  1  0  0  0  0
 23  8  1  0  0  0  0
 24  9  1  0  0  0  0
 25 10  1  0  0  0  0
 26 11  1  0  0  0  0
 27 14  1  0  0  0  0
 30 18  1  0  0  0  0
 32 18  1  0  0  0  0
 33 19  1  0  0  0  0
 34 19  1  0  0  0  0
 38 20  1  0  0  0  0
 40 21  1  0  0  0  0
M  CHG  1   1  -1
M  END
