3,4
 OpenBabel05122313063D

 25 26  0  0  0  0  0  0  0  0999 V2000
   -2.6893   -0.7675    2.8603 Br  0  0  0  0  0  0  0  0  0  0  0  0
   -2.6871   -0.7612   -2.8623 Br  0  0  0  0  0  0  0  0  0  0  0  0
    1.3292   -1.5066   -0.0011 O   0  5  0  0  0  0  0  0  0  0  0  0
   -1.5801   -1.2646   -0.0012 N   0  0  0  0  0  2  0  0  0  0  0  0
   -0.2721   -3.3527   -0.0025 C   0  0  0  0  0  0  0  0  0  0  0  0
    1.0567   -2.7821   -0.0020 C   0  0  0  0  0  0  0  0  0  0  0  0
    2.1690   -3.6810   -0.0025 C   0  0  0  0  0  0  0  0  0  0  0  0
    1.9853   -5.0562   -0.0034 C   0  0  0  0  0  0  0  0  0  0  0  0
    0.6834   -5.6213   -0.0040 C   0  0  0  0  0  0  0  0  0  0  0  0
   -0.4137   -4.7747   -0.0035 C   0  0  0  0  0  3  0  0  0  0  0  0
   -1.4726   -2.5782   -0.0021 C   0  0  0  0  0  0  0  0  0  0  0  0
   -2.8886   -0.7015   -0.0010 C   0  0  0  0  0  0  0  0  0  0  0  0
   -3.5369   -0.3704    1.2094 C   0  0  0  0  0  0  0  0  0  0  0  0
   -4.7904    0.2581    1.2170 C   0  0  0  0  0  0  0  0  0  0  0  0
   -5.4093    0.5731   -0.0005 C   0  0  0  0  0  0  0  0  0  0  0  0
   -4.7895    0.2608   -1.2183 C   0  0  0  0  0  0  0  0  0  0  0  0
   -3.5360   -0.3678   -1.2111 C   0  0  0  0  0  0  0  0  0  0  0  0
    3.1712   -3.2281   -0.0020 H   0  0  0  0  0  0  0  0  0  0  0  0
    2.8660   -5.7177   -0.0038 H   0  0  0  0  0  0  0  0  0  0  0  0
    0.5488   -6.7123   -0.0048 H   0  0  0  0  0  0  0  0  0  0  0  0
   -1.4336   -5.1916   -0.0040 H   0  0  0  0  0  0  0  0  0  0  0  0
   -2.4212   -3.1473   -0.0027 H   0  0  0  0  0  0  0  0  0  0  0  0
   -5.2680    0.5016    2.1758 H   0  0  0  0  0  0  0  0  0  0  0  0
   -6.3911    1.0696   -0.0003 H   0  0  0  0  0  0  0  0  0  0  0  0
   -5.2664    0.5063   -2.1769 H   0  0  0  0  0  0  0  0  0  0  0  0
  2 17  1  0  0  0  0
  4 12  1  0  0  0  0
  5 11  2  0  0  0  0
  5  6  1  0  0  0  0
  6  3  1  0  0  0  0
  7 18  1  0  0  0  0
  7  6  2  0  0  0  0
  8  7  1  0  0  0  0
  9 10  1  0  0  0  0
  9  8  2  0  0  0  0
 10  5  1  0  0  0  0
 11  4  1  0  0  0  0
 12 13  1  0  0  0  0
 13 14  2  0  0  0  0
 13  1  1  0  0  0  0
 14 23  1  0  0  0  0
 15 24  1  0  0  0  0
 15 14  1  0  0  0  0
 16 17  1  0  0  0  0
 16 15  2  0  0  0  0
 17 12  2  0  0  0  0
 19  8  1  0  0  0  0
 20  9  1  0  0  0  0
 21 10  1  0  0  0  0
 22 11  1  0  0  0  0
 25 16  1  0  0  0  0
M  CHG  1   3  -1
M  END
