1,2
 OpenBabel05122313063D

 41 42  0  0  1  0  0  0  0  0999 V2000
    1.3285   -1.3776    0.6305 O   0  0  0  0  0  1  0  0  0  0  0  0
   -1.5745   -1.1775    0.5304 N   0  0  0  0  0  2  0  0  0  0  0  0
   -2.2470    0.9230    2.3006 N   0  0  0  0  0  0  0  0  0  0  0  0
   -3.4654   -2.1082   -1.3695 N   0  0  0  0  0  0  0  0  0  0  0  0
   -0.2459   -3.2281    0.8707 C   0  0  0  0  0  0  0  0  0  0  0  0
    1.0754   -2.6435    0.8168 C   0  0  2  0  0  3  0  0  0  0  0  0
    2.1979   -3.5113    0.9987 C   0  0  0  0  0  0  0  0  0  0  0  0
    2.0304   -4.8766    1.1932 C   0  0  0  0  0  0  0  0  0  0  0  0
    0.7368   -5.4561    1.2355 C   0  0  0  0  0  0  0  0  0  0  0  0
   -0.3708   -4.6332    1.0854 C   0  0  0  0  0  0  0  0  0  0  0  0
   -1.4553   -2.4636    0.7876 C   0  0  0  0  0  0  0  0  0  0  0  0
   -2.8902   -0.6215    0.5051 C   0  0  0  0  0  0  0  0  0  0  0  0
   -3.2018    0.4526    1.3882 C   0  0  0  0  0  0  0  0  0  0  0  0
   -4.4732    1.0642    1.2779 C   0  0  0  0  0  0  0  0  0  0  0  0
   -5.4028    0.6048    0.3402 C   0  0  0  0  0  0  0  0  0  0  0  0
   -5.0939   -0.4533   -0.5239 C   0  0  0  0  0  0  0  0  0  0  0  0
   -3.8236   -1.0693   -0.4732 C   0  0  0  0  0  0  0  0  0  0  0  0
   -1.6516    0.0370    3.2851 C   0  0  0  0  0  0  0  0  0  0  0  0
   -2.3145    2.3026    2.7275 C   0  0  0  0  0  0  0  0  0  0  0  0
   -4.5475   -2.8708   -1.9578 C   0  0  0  0  0  0  0  0  0  0  0  0
   -2.4013   -1.8175   -2.3257 C   0  0  0  0  0  0  0  0  0  0  0  0
    3.1939   -3.0454    0.9631 H   0  0  0  0  0  0  0  0  0  0  0  0
    2.9186   -5.5164    1.3165 H   0  0  0  0  0  0  0  0  0  0  0  0
    0.6142   -6.5373    1.3918 H   0  0  0  0  0  0  0  0  0  0  0  0
   -1.3861   -5.0593    1.1293 H   0  0  0  0  0  0  0  0  0  0  0  0
   -2.3957   -3.0123    0.9768 H   0  0  0  0  0  0  0  0  0  0  0  0
   -4.7384    1.8870    1.9548 H   0  0  0  0  0  0  0  0  0  0  0  0
   -6.3931    1.0821    0.2795 H   0  0  0  0  0  0  0  0  0  0  0  0
   -5.8271   -0.7771   -1.2741 H   0  0  0  0  0  0  0  0  0  0  0  0
   -0.5863    0.3036    3.4561 H   0  0  0  0  0  0  0  0  0  0  0  0
   -1.6810   -1.0115    2.9481 H   0  0  0  0  0  0  0  0  0  0  0  0
   -2.1872    0.0955    4.2656 H   0  0  0  0  0  0  0  0  0  0  0  0
   -1.3122    2.6132    3.0910 H   0  0  0  0  0  0  0  0  0  0  0  0
   -3.0406    2.4841    3.5614 H   0  0  0  0  0  0  0  0  0  0  0  0
   -2.5794    2.9567    1.8750 H   0  0  0  0  0  0  0  0  0  0  0  0
   -4.1338   -3.7996   -2.4023 H   0  0  0  0  0  0  0  0  0  0  0  0
   -5.0939   -2.3311   -2.7741 H   0  0  0  0  0  0  0  0  0  0  0  0
   -5.2841   -3.1561   -1.1814 H   0  0  0  0  0  0  0  0  0  0  0  0
   -2.0246   -2.7667   -2.7605 H   0  0  0  0  0  0  0  0  0  0  0  0
   -1.5507   -1.3036   -1.8377 H   0  0  0  0  0  0  0  0  0  0  0  0
   -2.7567   -1.1663   -3.1627 H   0  0  0  0  0  0  0  0  0  0  0  0
  2 11  1  0  0  0  0
  3 19  1  0  0  0  0
  3 18  1  0  0  0  0
  4 17  1  0  0  0  0
  5 10  1  0  0  0  0
  6  1  1  1  0  0  0
  6  5  1  0  0  0  0
  6  7  1  0  0  0  0
  7  8  2  0  0  0  0
  8  9  1  0  0  0  0
  8 23  1  0  0  0  0
  9 24  1  0  0  0  0
 10 25  1  0  0  0  0
 10  9  2  0  0  0  0
 11  5  2  0  0  0  0
 11 26  1  0  0  0  0
 12  2  1  0  0  0  0
 12 13  1  0  0  0  0
 13  3  1  0  0  0  0
 14 13  2  0  0  0  0
 14 27  1  0  0  0  0
 15 14  1  0  0  0  0
 16 17  1  0  0  0  0
 16 15  2  0  0  0  0
 17 12  2  0  0  0  0
 18 30  1  0  0  0  0
 18 32  1  0  0  0  0
 19 33  1  0  0  0  0
 19 34  1  0  0  0  0
 20  4  1  0  0  0  0
 20 38  1  0  0  0  0
 21 40  1  0  0  0  0
 21  4  1  0  0  0  0
 22  7  1  0  0  0  0
 28 15  1  0  0  0  0
 29 16  1  0  0  0  0
 31 18  1  0  0  0  0
 35 19  1  0  0  0  0
 36 20  1  0  0  0  0
 37 20  1  0  0  0  0
 39 21  1  0  0  0  0
 41 21  1  0  0  0  0
M  END
