3,4
 OpenBabel05122313063D

 25 26  0  0  1  0  0  0  0  0999 V2000
    2.6893    0.7674   -2.8603 Br  0  0  0  0  0  0  0  0  0  0  0  0
    2.6870    0.7613    2.8623 Br  0  0  0  0  0  0  0  0  0  0  0  0
   -1.3292    1.5066    0.0011 O   0  0  0  0  0  1  0  0  0  0  0  0
    1.5801    1.2646    0.0012 N   0  0  0  0  0  2  0  0  0  0  0  0
    0.2721    3.3528    0.0025 C   0  0  0  0  0  0  0  0  0  0  0  0
   -1.0567    2.7821    0.0019 C   0  0  2  0  0  3  0  0  0  0  0  0
   -2.1689    3.6811    0.0023 C   0  0  0  0  0  0  0  0  0  0  0  0
   -1.9852    5.0562    0.0033 C   0  0  0  0  0  0  0  0  0  0  0  0
   -0.6833    5.6214    0.0038 C   0  0  0  0  0  0  0  0  0  0  0  0
    0.4138    4.7747    0.0035 C   0  0  0  0  0  0  0  0  0  0  0  0
    1.4726    2.5782    0.0021 C   0  0  0  0  0  0  0  0  0  0  0  0
    2.8886    0.7015    0.0010 C   0  0  0  0  0  0  0  0  0  0  0  0
    3.5369    0.3703   -1.2093 C   0  0  0  0  0  0  0  0  0  0  0  0
    4.7904   -0.2582   -1.2169 C   0  0  0  0  0  0  0  0  0  0  0  0
    5.4093   -0.5732    0.0006 C   0  0  0  0  0  0  0  0  0  0  0  0
    4.7895   -0.2608    1.2184 C   0  0  0  0  0  0  0  0  0  0  0  0
    3.5360    0.3678    1.2112 C   0  0  0  0  0  0  0  0  0  0  0  0
   -3.1711    3.2282    0.0019 H   0  0  0  0  0  0  0  0  0  0  0  0
   -2.8659    5.7177    0.0035 H   0  0  0  0  0  0  0  0  0  0  0  0
   -0.5488    6.7123    0.0046 H   0  0  0  0  0  0  0  0  0  0  0  0
    1.4337    5.1916    0.0039 H   0  0  0  0  0  0  0  0  0  0  0  0
    2.4212    3.1473    0.0027 H   0  0  0  0  0  0  0  0  0  0  0  0
    5.2680   -0.5017   -2.1757 H   0  0  0  0  0  0  0  0  0  0  0  0
    6.3911   -1.0697    0.0005 H   0  0  0  0  0  0  0  0  0  0  0  0
    5.2663   -0.5063    2.1770 H   0  0  0  0  0  0  0  0  0  0  0  0
  1 13  1  0  0  0  0
  4 11  1  0  0  0  0
  5 10  1  0  0  0  0
  6  3  1  1  0  0  0
  6  7  1  0  0  0  0
  6  5  1  0  0  0  0
  7  8  2  0  0  0  0
  8 19  1  0  0  0  0
  8  9  1  0  0  0  0
  9 20  1  0  0  0  0
 10  9  2  0  0  0  0
 10 21  1  0  0  0  0
 11  5  2  0  0  0  0
 11 22  1  0  0  0  0
 12  4  1  0  0  0  0
 12 17  1  0  0  0  0
 13 12  2  0  0  0  0
 14 13  1  0  0  0  0
 14 15  2  0  0  0  0
 15 16  1  0  0  0  0
 16 25  1  0  0  0  0
 17 16  2  0  0  0  0
 17  2  1  0  0  0  0
 18  7  1  0  0  0  0
 23 14  1  0  0  0  0
 24 15  1  0  0  0  0
M  END
