1,3
 OpenBabel05122313063D

 16 16  0  0  0  0  0  0  0  0999 V2000
   -1.1064   -1.1964    0.4586 O   0  5  0  0  0  0  0  0  0  0  0  0
   -2.3305   -0.6853    0.2434 C   0  0  0  0  0  0  0  0  0  0  0  0
   -1.0082    1.1540   -0.4061 N   0  0  0  0  0  2  0  0  0  0  0  0
   -3.5258    1.3072   -0.5161 C   0  0  0  0  0  0  0  0  0  0  0  0
   -3.5406    2.3370   -0.8993 H   0  0  0  0  0  0  0  0  0  0  0  0
   -4.7498   -0.6890    0.1988 C   0  0  0  0  0  0  0  0  0  0  0  0
   -5.7066   -1.2045    0.3715 H   0  0  0  0  0  0  0  0  0  0  0  0
   -4.7388    0.6280   -0.2877 C   0  0  0  0  0  0  0  0  0  0  0  0
   -5.6893    1.1422   -0.4967 H   0  0  0  0  0  0  0  0  0  0  0  0
   -2.3068    0.6527   -0.2500 C   0  0  0  0  0  0  0  0  0  0  0  0
   -0.9237    2.5236   -0.8902 C   0  0  0  0  0  0  0  0  0  0  0  0
    0.1273    2.8528   -0.9426 H   0  0  0  0  0  0  0  0  0  0  0  0
   -1.4679    3.2242   -0.2164 H   0  0  0  0  0  0  0  0  0  0  0  0
   -1.3724    2.6313   -1.9046 H   0  0  0  0  0  0  0  0  0  0  0  0
   -3.5391   -1.3563    0.4680 C   0  0  0  0  0  0  0  0  0  0  0  0
   -3.5169   -2.3875    0.8501 H   0  0  0  0  0  0  0  0  0  0  0  0
  2  1  1  0  0  0  0
  2 15  1  0  0  0  0
  3 10  1  0  0  0  0
  4  8  2  0  0  0  0
  4 10  1  0  0  0  0
  5  4  1  0  0  0  0
  6  7  1  0  0  0  0
  6 15  2  0  0  0  0
  8  6  1  0  0  0  0
  9  8  1  0  0  0  0
 10  2  2  0  0  0  0
 11  3  1  0  0  0  0
 11 13  1  0  0  0  0
 12 11  1  0  0  0  0
 14 11  1  0  0  0  0
 15 16  1  0  0  0  0
M  CHG  1   1  -1
M  END
