3,4
 OpenBabel05122313063D

 30 30  0  0  0  0  0  0  0  0999 V2000
    2.3629    3.0521   -0.0174 Br  0  0  0  0  0  0  0  0  0  0  0  0
    5.2643   -1.8582    0.0359 Br  0  0  0  0  0  0  0  0  0  0  0  0
    0.0162    1.1903   -0.0804 O   0  5  0  0  0  0  0  0  0  0  0  0
   -1.2698   -1.4664   -0.1985 N   0  0  0  0  0  2  0  0  0  0  0  0
   -4.5268   -1.4237   -0.2843 N   0  3  0  0  0  0  0  0  0  0  0  0
   -4.9192   -1.9590   -1.0776 H   0  0  0  0  0  0  0  0  0  0  0  0
   -4.0258   -0.5803   -0.7800 H   0  0  0  0  0  0  0  0  0  0  0  0
    1.1499   -0.9664   -0.0850 C   0  0  0  0  0  0  0  0  0  0  0  0
    1.0926    0.4882   -0.0651 C   0  0  0  0  0  0  0  0  0  0  0  0
    2.3752    1.1573   -0.0302 C   0  0  0  0  0  0  0  0  0  0  0  0
    3.5856    0.4770    0.0014 C   0  0  0  0  0  0  0  0  0  0  0  0
    4.5291    1.0388    0.0339 H   0  0  0  0  0  0  0  0  0  0  0  0
    3.5961   -0.9389   -0.0076 C   0  0  0  0  0  0  0  0  0  0  0  0
    2.4051   -1.6444   -0.0522 C   0  0  0  0  0  0  0  0  0  0  0  0
    2.4168   -2.7445   -0.0673 H   0  0  0  0  0  0  0  0  0  0  0  0
   -0.0101   -1.8140   -0.1661 C   0  0  0  0  0  3  0  0  0  0  0  0
    0.2238   -2.9028   -0.2166 H   0  0  0  0  0  0  0  0  0  0  0  0
   -2.2618   -2.5166   -0.3653 C   0  0  0  0  0  0  0  0  0  0  0  0
   -1.8419   -3.5060   -0.0731 H   0  0  0  0  0  0  0  0  0  0  0  0
   -2.5276   -2.5997   -1.4464 H   0  0  0  0  0  0  0  0  0  0  0  0
   -3.5343   -2.2676    0.4528 C   0  0  0  0  0  0  0  0  0  0  0  0
   -4.0347   -3.2212    0.7134 H   0  0  0  0  0  0  0  0  0  0  0  0
   -3.2826   -1.7111    1.3806 H   0  0  0  0  0  0  0  0  0  0  0  0
   -5.6384   -0.8652    0.5513 C   0  0  0  0  0  0  0  0  0  0  0  0
   -6.1601   -1.7174    1.0340 H   0  0  0  0  0  0  0  0  0  0  0  0
   -5.1274   -0.2602    1.3301 H   0  0  0  0  0  0  0  0  0  0  0  0
   -6.5641   -0.0099   -0.2969 C   0  0  0  0  0  0  0  0  0  0  0  0
   -5.9962    0.8181   -0.7662 H   0  0  0  0  0  0  0  0  0  0  0  0
   -7.3523    0.4292    0.3440 H   0  0  0  0  0  0  0  0  0  0  0  0
   -7.0670   -0.5946   -1.0958 H   0  0  0  0  0  0  0  0  0  0  0  0
  3  9  1  0  0  0  0
  4 16  1  0  0  0  0
  5 21  1  0  0  0  0
  5 24  1  0  0  0  0
  6  5  1  0  0  0  0
  7  5  1  0  0  0  0
  8  9  2  0  0  0  0
  8 14  1  0  0  0  0
  9 10  1  0  0  0  0
 10  1  1  0  0  0  0
 10 11  2  0  0  0  0
 11 12  1  0  0  0  0
 13 11  1  0  0  0  0
 13  2  1  0  0  0  0
 14 13  2  0  0  0  0
 15 14  1  0  0  0  0
 16  8  1  0  0  0  0
 17 16  1  0  0  0  0
 18  4  1  0  0  0  0
 18 19  1  0  0  0  0
 18 21  1  0  0  0  0
 20 18  1  0  0  0  0
 21 22  1  0  0  0  0
 21 23  1  0  0  0  0
 24 25  1  0  0  0  0
 24 26  1  0  0  0  0
 27 29  1  0  0  0  0
 27 24  1  0  0  0  0
 28 27  1  0  0  0  0
 30 27  1  0  0  0  0
M  CHG  2   3  -1   5   1
M  END
