1,17
 OpenBabel05122313063D

 17 18  0  0  1  0  0  0  0  0999 V2000
    1.0655    1.5375   -0.2126 O   0  5  0  0  0  0  0  0  0  0  0  0
    2.2560    1.0108   -0.1493 C   0  0  0  0  0  0  0  0  0  0  0  0
    3.4646    1.7084    0.0870 C   0  0  0  0  0  0  0  0  0  0  0  0
    3.4106    3.4377    0.2730 Cl  0  0  0  0  0  0  0  0  0  0  0  0
    4.6951    1.0225    0.1883 C   0  0  0  0  0  0  0  0  0  0  0  0
    5.6104    1.6007    0.3729 H   0  0  0  0  0  0  0  0  0  0  0  0
    4.7657   -0.3679    0.0761 C   0  0  0  0  0  0  0  0  0  0  0  0
    6.3092   -1.1746    0.2439 Cl  0  0  0  0  0  0  0  0  0  0  0  0
    3.5896   -1.1377   -0.1557 C   0  0  0  0  0  0  0  0  0  0  0  0
    3.5028   -2.5561   -0.2271 C   0  0  0  0  0  0  0  0  0  0  0  0
    4.4206   -3.1529   -0.1258 H   0  0  0  0  0  0  0  0  0  0  0  0
    2.2598   -3.1557   -0.3982 C   0  0  0  0  0  0  0  0  0  0  0  0
    2.1617   -4.2501   -0.4302 H   0  0  0  0  0  0  0  0  0  0  0  0
    1.0973   -2.3630   -0.5391 C   0  0  0  0  0  0  0  0  0  0  0  0
    0.1024   -2.8096   -0.6729 H   0  0  0  0  0  0  0  0  0  0  0  0
    2.3652   -0.4086   -0.2941 C   0  0  1  0  0  3  0  0  0  0  0  0
    1.1558   -1.0250   -0.5168 N   0  0  0  0  0  2  0  0  0  0  0  0
  1  2  1  0  0  0  0
  2  3  2  0  0  0  0
  3  5  1  0  0  0  0
  3  4  1  0  0  0  0
  5  6  1  0  0  0  0
  7  5  2  0  0  0  0
  7  8  1  0  0  0  0
  9  7  1  0  0  0  0
 10  9  2  0  0  0  0
 10 11  1  0  0  0  0
 12 10  1  0  0  0  0
 13 12  1  0  0  0  0
 14 17  1  0  0  0  0
 14 12  2  0  0  0  0
 15 14  1  0  0  0  0
 16 17  1  1  0  0  0
 16  9  1  0  0  0  0
 16  2  1  0  0  0  0
M  CHG  1   1  -1
M  END
