1,4
 OpenBabel05122313063D

 22 23  0  0  1  0  0  0  0  0999 V2000
    1.3331    1.2869   -0.0026 N   0  0  0  0  0  2  0  0  0  0  0  0
    1.0257    2.5979   -0.0021 N   0  0  0  0  0  0  0  0  0  0  0  0
    0.0060    2.7838   -0.0015 H   0  0  0  0  0  0  0  0  0  0  0  0
    1.2515   -1.3938   -0.0006 O   0  0  0  0  0  1  0  0  0  0  0  0
    2.5754   -1.3360   -0.0004 C   0  0  2  0  0  3  0  0  0  0  0  0
    3.2868   -2.5694   -0.0003 C   0  0  0  0  0  0  0  0  0  0  0  0
    2.6949   -3.4974   -0.0005 H   0  0  0  0  0  0  0  0  0  0  0  0
    4.6803   -2.6127    0.0001 C   0  0  0  0  0  0  0  0  0  0  0  0
    5.1909   -3.5883    0.0002 H   0  0  0  0  0  0  0  0  0  0  0  0
    5.4309   -1.4204    0.0002 C   0  0  0  0  0  0  0  0  0  0  0  0
    6.5300   -1.4485    0.0005 H   0  0  0  0  0  0  0  0  0  0  0  0
    4.7560   -0.1993    0.0001 C   0  0  0  0  0  0  0  0  0  0  0  0
    5.3344    0.7369   -0.0000 H   0  0  0  0  0  0  0  0  0  0  0  0
    3.3431   -0.1217   -0.0002 C   0  0  0  0  0  0  0  0  0  0  0  0
    2.6841    1.1765   -0.0003 C   0  0  0  0  0  0  0  0  0  0  0  0
    3.2281    2.4947    0.0016 C   0  0  0  0  0  0  0  0  0  0  0  0
    4.2847    2.7771    0.0037 H   0  0  0  0  0  0  0  0  0  0  0  0
    2.1417    3.3740    0.0006 C   0  0  0  0  0  0  0  0  0  0  0  0
    2.0807    4.8658    0.0004 C   0  0  0  0  0  0  0  0  0  0  0  0
    1.5428    5.2535    0.8904 H   0  0  0  0  0  0  0  0  0  0  0  0
    1.5588    5.2537   -0.8991 H   0  0  0  0  0  0  0  0  0  0  0  0
    3.1019    5.2880    0.0095 H   0  0  0  0  0  0  0  0  0  0  0  0
  1  2  1  0  0  0  0
  1 15  1  0  0  0  0
  2  3  1  0  0  0  0
  2 18  1  0  0  0  0
  5  4  1  1  0  0  0
  5  6  1  0  0  0  0
  5 14  1  0  0  0  0
  6  8  2  0  0  0  0
  7  6  1  0  0  0  0
  8  9  1  0  0  0  0
  8 10  1  0  0  0  0
 10 11  1  0  0  0  0
 12 10  2  0  0  0  0
 13 12  1  0  0  0  0
 14 12  1  0  0  0  0
 15 14  2  0  0  0  0
 15 16  1  0  0  0  0
 16 17  1  0  0  0  0
 18 16  2  0  0  0  0
 19 18  1  0  0  0  0
 19 22  1  0  0  0  0
 19 20  1  0  0  0  0
 21 19  1  0  0  0  0
M  END
