1,3
 OpenBabel05122313063D

 41 43  0  0  1  0  0  0  0  0999 V2000
   -0.7283    1.6361   -0.5342 O   0  5  0  0  0  0  0  0  0  0  0  0
   -2.1381    3.5850   -1.5166 O   0  0  0  0  0  0  0  0  0  0  0  0
    1.6477    0.8423    0.9821 N   0  0  0  0  0  2  0  0  0  0  0  0
   -0.1871    2.8148   -0.4490 C   0  0  0  0  0  0  0  0  0  0  0  0
   -0.9264    3.9323   -1.0010 C   0  0  0  0  0  0  0  0  0  0  0  0
   -0.4062    5.2256   -0.9720 C   0  0  0  0  0  0  0  0  0  0  0  0
   -0.9801    6.0605   -1.3978 H   0  0  0  0  0  0  0  0  0  0  0  0
    0.8665    5.4816   -0.3984 C   0  0  0  0  0  0  0  0  0  0  0  0
    1.2622    6.5074   -0.3940 H   0  0  0  0  0  0  0  0  0  0  0  0
    1.5942    4.4417    0.1529 C   0  0  0  0  0  0  0  0  0  0  0  0
    2.5798    4.6289    0.6076 H   0  0  0  0  0  0  0  0  0  0  0  0
    1.0900    3.1028    0.1583 C   0  0  0  0  0  0  0  0  0  0  0  0
    1.9195    2.1074    0.7903 C   0  0  0  0  0  3  0  0  0  0  0  0
    2.9040    2.4804    1.1456 H   0  0  0  0  0  0  0  0  0  0  0  0
    2.2414   -0.0993    3.1678 C   0  0  0  0  0  0  0  0  0  0  0  0
    2.3232    0.8963    3.6487 H   0  0  0  0  0  0  0  0  0  0  0  0
    2.8907   -0.8121    3.7127 H   0  0  0  0  0  0  0  0  0  0  0  0
    1.1909   -0.4360    3.2756 H   0  0  0  0  0  0  0  0  0  0  0  0
    2.6144   -0.0429    1.6825 C   0  0  2  0  0  0  0  0  0  0  0  0
    2.4222   -1.0510    1.2593 H   0  0  0  0  0  0  0  0  0  0  0  0
    4.0649    0.3063    1.3835 C   0  0  0  0  0  0  0  0  0  0  0  0
    4.8694    0.9538    2.3165 C   0  0  0  0  0  0  0  0  0  0  0  0
    4.4668    1.1930    3.3114 H   0  0  0  0  0  0  0  0  0  0  0  0
    6.2097    1.3178    2.0195 C   0  0  0  0  0  0  0  0  0  0  0  0
    6.8147    1.8292    2.7834 H   0  0  0  0  0  0  0  0  0  0  0  0
    6.7476    1.0311    0.7773 C   0  0  0  0  0  0  0  0  0  0  0  0
    7.7847    1.3120    0.5356 H   0  0  0  0  0  0  0  0  0  0  0  0
    5.9697    0.3632   -0.2142 C   0  0  0  0  0  0  0  0  0  0  0  0
    6.5136    0.0561   -1.4962 C   0  0  0  0  0  0  0  0  0  0  0  0
    7.5536    0.3496   -1.7092 H   0  0  0  0  0  0  0  0  0  0  0  0
    5.7539   -0.5964   -2.4551 C   0  0  0  0  0  0  0  0  0  0  0  0
    6.1858   -0.8245   -3.4417 H   0  0  0  0  0  0  0  0  0  0  0  0
    4.4175   -0.9719   -2.1608 C   0  0  0  0  0  0  0  0  0  0  0  0
    3.8081   -1.4948   -2.9134 H   0  0  0  0  0  0  0  0  0  0  0  0
    3.8532   -0.6880   -0.9241 C   0  0  0  0  0  0  0  0  0  0  0  0
    2.8168   -1.0109   -0.7441 H   0  0  0  0  0  0  0  0  0  0  0  0
    4.6061   -0.0122    0.0843 C   0  0  0  0  0  0  0  0  0  0  0  0
   -2.9725    4.6121   -2.0063 C   0  0  0  0  0  0  0  0  0  0  0  0
   -3.2043    5.3683   -1.2215 H   0  0  0  0  0  0  0  0  0  0  0  0
   -3.9131    4.1247   -2.3248 H   0  0  0  0  0  0  0  0  0  0  0  0
   -2.5204    5.1380   -2.8785 H   0  0  0  0  0  0  0  0  0  0  0  0
  1  4  1  0  0  0  0
  2  5  1  0  0  0  0
  3 19  1  0  0  0  0
  4 12  1  0  0  0  0
  5  6  1  0  0  0  0
  5  4  2  0  0  0  0
  6  8  2  0  0  0  0
  7  6  1  0  0  0  0
  8  9  1  0  0  0  0
  8 10  1  0  0  0  0
 10 12  2  0  0  0  0
 10 11  1  0  0  0  0
 12 13  1  0  0  0  0
 13  3  1  0  0  0  0
 13 14  1  0  0  0  0
 15 18  1  0  0  0  0
 15 16  1  0  0  0  0
 15 17  1  0  0  0  0
 19 20  1  6  0  0  0
 19 15  1  0  0  0  0
 21 19  1  0  0  0  0
 21 22  1  0  0  0  0
 22 23  1  0  0  0  0
 24 22  2  0  0  0  0
 24 25  1  0  0  0  0
 26 24  1  0  0  0  0
 27 26  1  0  0  0  0
 28 37  1  0  0  0  0
 28 26  2  0  0  0  0
 29 28  1  0  0  0  0
 30 29  1  0  0  0  0
 31 33  1  0  0  0  0
 31 29  2  0  0  0  0
 32 31  1  0  0  0  0
 33 35  2  0  0  0  0
 34 33  1  0  0  0  0
 35 36  1  0  0  0  0
 35 37  1  0  0  0  0
 37 21  2  0  0  0  0
 38  2  1  0  0  0  0
 38 39  1  0  0  0  0
 40 38  1  0  0  0  0
 41 38  1  0  0  0  0
M  CHG  1   1  -1
M  END
