1,2
 OpenBabel05122313063D

 41 43  0  0  1  0  0  0  0  0999 V2000
   -2.2187   -1.8902    1.3855 O   0  5  0  0  0  0  0  0  0  0  0  0
   -1.1570   -0.2877   -0.8707 N   0  0  0  0  0  2  0  0  0  0  0  0
   -5.9043   -1.4937   -0.5638 C   0  0  0  0  0  0  0  0  0  0  0  0
   -4.5319   -2.2915    1.2901 C   0  0  0  0  0  0  0  0  0  0  0  0
   -4.4234   -2.8210    2.2481 H   0  0  0  0  0  0  0  0  0  0  0  0
   -3.3339   -1.7403    0.7253 C   0  0  0  0  0  0  0  0  0  0  0  0
   -5.7672   -2.1762    0.6757 C   0  0  0  0  0  0  0  0  0  0  0  0
   -6.6717   -2.6097    1.1287 H   0  0  0  0  0  0  0  0  0  0  0  0
   -2.4133   -0.3529   -1.2197 C   0  0  0  0  0  3  0  0  0  0  0  0
   -2.7342    0.1904   -2.1318 H   0  0  0  0  0  0  0  0  0  0  0  0
   -3.4806   -1.0382   -0.5331 C   0  0  0  0  0  0  0  0  0  0  0  0
   -4.7700   -0.9376   -1.1473 C   0  0  0  0  0  0  0  0  0  0  0  0
   -4.8360   -0.3928   -2.1003 H   0  0  0  0  0  0  0  0  0  0  0  0
   -7.1717   -1.4427   -1.0798 O   0  0  0  0  0  0  0  0  0  0  0  0
   -7.3492   -0.7707   -2.3059 C   0  0  0  0  0  0  0  0  0  0  0  0
   -7.0629    0.3052   -2.2389 H   0  0  0  0  0  0  0  0  0  0  0  0
   -8.4248   -0.8392   -2.5550 H   0  0  0  0  0  0  0  0  0  0  0  0
   -6.7583   -1.2370   -3.1284 H   0  0  0  0  0  0  0  0  0  0  0  0
    1.0458   -0.3010   -1.9485 C   0  0  0  0  0  0  0  0  0  0  0  0
   -0.1806    0.5357   -1.5957 C   0  0  1  0  0  0  0  0  0  0  0  0
    0.1334    1.2992   -0.8521 H   0  0  0  0  0  0  0  0  0  0  0  0
   -0.7047    1.2838   -2.8265 C   0  0  0  0  0  0  0  0  0  0  0  0
   -1.0428    0.5812   -3.6150 H   0  0  0  0  0  0  0  0  0  0  0  0
    0.1170    1.8910   -3.2513 H   0  0  0  0  0  0  0  0  0  0  0  0
   -1.5329    1.9731   -2.5671 H   0  0  0  0  0  0  0  0  0  0  0  0
    2.3665    0.2658   -1.8984 C   0  0  0  0  0  0  0  0  0  0  0  0
    2.6273    1.6066   -1.4839 C   0  0  0  0  0  0  0  0  0  0  0  0
    1.7952    2.2563   -1.1813 H   0  0  0  0  0  0  0  0  0  0  0  0
    3.4930   -0.5549   -2.2820 C   0  0  0  0  0  0  0  0  0  0  0  0
    0.8816   -1.6164   -2.3688 C   0  0  0  0  0  0  0  0  0  0  0  0
   -0.1290   -2.0513   -2.3839 H   0  0  0  0  0  0  0  0  0  0  0  0
    1.9870   -2.4158   -2.7519 C   0  0  0  0  0  0  0  0  0  0  0  0
    1.8191   -3.4559   -3.0687 H   0  0  0  0  0  0  0  0  0  0  0  0
    3.2689   -1.8954   -2.7080 C   0  0  0  0  0  0  0  0  0  0  0  0
    4.1368   -2.5122   -2.9873 H   0  0  0  0  0  0  0  0  0  0  0  0
    3.9192    2.1114   -1.4446 C   0  0  0  0  0  0  0  0  0  0  0  0
    4.0873    3.1504   -1.1205 H   0  0  0  0  0  0  0  0  0  0  0  0
    4.8084   -0.0080   -2.2211 C   0  0  0  0  0  0  0  0  0  0  0  0
    5.6571   -0.6529   -2.4965 H   0  0  0  0  0  0  0  0  0  0  0  0
    5.0229    1.3005   -1.8181 C   0  0  0  0  0  0  0  0  0  0  0  0
    6.0441    1.7094   -1.7843 H   0  0  0  0  0  0  0  0  0  0  0  0
  3  7  1  0  0  0  0
  4  5  1  0  0  0  0
  6  4  1  0  0  0  0
  6  1  1  0  0  0  0
  7  8  1  0  0  0  0
  7  4  2  0  0  0  0
  9  2  1  0  0  0  0
  9 11  1  0  0  0  0
 10  9  1  0  0  0  0
 11  6  2  0  0  0  0
 12  3  2  0  0  0  0
 12 11  1  0  0  0  0
 13 12  1  0  0  0  0
 14  3  1  0  0  0  0
 15 16  1  0  0  0  0
 15 14  1  0  0  0  0
 17 15  1  0  0  0  0
 18 15  1  0  0  0  0
 19 26  1  0  0  0  0
 19 20  1  0  0  0  0
 20  2  1  0  0  0  0
 20 21  1  1  0  0  0
 22 25  1  0  0  0  0
 22 20  1  0  0  0  0
 23 22  1  0  0  0  0
 24 22  1  0  0  0  0
 26 27  1  0  0  0  0
 27 36  2  0  0  0  0
 27 28  1  0  0  0  0
 29 38  1  0  0  0  0
 29 26  2  0  0  0  0
 30 19  2  0  0  0  0
 31 30  1  0  0  0  0
 32 34  2  0  0  0  0
 32 30  1  0  0  0  0
 33 32  1  0  0  0  0
 34 29  1  0  0  0  0
 35 34  1  0  0  0  0
 36 37  1  0  0  0  0
 38 40  2  0  0  0  0
 39 38  1  0  0  0  0
 40 41  1  0  0  0  0
 40 36  1  0  0  0  0
M  CHG  1   1  -1
M  END
