7,8
 OpenBabel05122313063D

 34 34  0  0  1  0  0  0  0  0999 V2000
    2.9242   -2.0544   -0.9215 F   0  0  0  0  0  0  0  0  0  0  0  0
    4.0835   -2.4390    0.8784 F   0  0  0  0  0  0  0  0  0  0  0  0
    4.8794   -1.1208   -0.6689 F   0  0  0  0  0  0  0  0  0  0  0  0
    5.1626    0.4650    1.5677 F   0  0  0  0  0  0  0  0  0  0  0  0
    3.8740   -0.6818    2.9035 F   0  0  0  0  0  0  0  0  0  0  0  0
    3.3597    1.3709    2.4027 F   0  0  0  0  0  0  0  0  0  0  0  0
    1.8087   -0.6502    1.1213 O   0  0  0  0  0  1  0  0  0  0  0  0
    0.9798    0.2373   -1.4887 N   0  0  0  0  0  2  0  0  0  0  0  0
    3.0219   -0.2733    0.6827 C   0  0  0  0  0  0  0  0  0  0  0  0
    3.7460   -1.4808   -0.0087 C   0  0  0  0  0  0  0  0  0  0  0  0
    3.8726    0.2137    1.9030 C   0  0  0  0  0  0  0  0  0  0  0  0
    2.9859    0.9568   -0.3473 C   0  0  0  0  0  0  0  0  0  0  0  0
    2.2621    0.6079   -1.5825 C   0  0  1  0  0  3  0  0  0  0  0  0
    2.9798    0.4647   -2.8893 C   0  0  0  0  0  0  0  0  0  0  0  0
    0.1854   -0.0168   -2.5288 C   0  0  0  0  0  3  0  0  0  0  0  0
   -0.8917   -1.0472   -2.4661 C   0  0  0  0  0  0  0  0  0  0  0  0
    4.0223    1.2657   -0.5723 H   0  0  0  0  0  0  0  0  0  0  0  0
    2.4975    1.7817    0.2076 H   0  0  0  0  0  0  0  0  0  0  0  0
    4.0748    0.4158   -2.7438 H   0  0  0  0  0  0  0  0  0  0  0  0
    2.7672    1.3271   -3.5623 H   0  0  0  0  0  0  0  0  0  0  0  0
    2.6409   -0.4507   -3.4207 H   0  0  0  0  0  0  0  0  0  0  0  0
    0.3167    0.5651   -3.4574 H   0  0  0  0  0  0  0  0  0  0  0  0
   -1.1760   -1.3636   -3.4870 H   0  0  0  0  0  0  0  0  0  0  0  0
   -1.7787   -0.5596   -1.9708 H   0  0  0  0  0  0  0  0  0  0  0  0
   -0.1751   -1.9819   -0.3320 N   0  0  0  0  0  0  0  0  0  0  0  0
   -0.5624   -2.2351   -1.6025 C   0  0  0  0  0  0  0  0  0  0  0  0
    0.1567   -2.9939    0.4937 C   0  0  0  0  0  0  0  0  0  0  0  0
   -0.6612   -3.5579   -2.0687 C   0  0  0  0  0  0  0  0  0  0  0  0
    0.0695   -4.3308    0.0987 C   0  0  0  0  0  0  0  0  0  0  0  0
    0.5332   -2.6952    1.4835 H   0  0  0  0  0  0  0  0  0  0  0  0
   -0.3537   -4.6171   -1.2079 C   0  0  0  0  0  0  0  0  0  0  0  0
   -0.9768   -3.7432   -3.1055 H   0  0  0  0  0  0  0  0  0  0  0  0
    0.3387   -5.1295    0.8040 H   0  0  0  0  0  0  0  0  0  0  0  0
   -0.4307   -5.6578   -1.5572 H   0  0  0  0  0  0  0  0  0  0  0  0
  1 10  1  0  0  0  0
  3 10  1  0  0  0  0
  4 11  1  0  0  0  0
  9  7  1  0  0  0  0
  9 11  1  0  0  0  0
 10  9  1  0  0  0  0
 10  2  1  0  0  0  0
 11  6  1  0  0  0  0
 11  5  1  0  0  0  0
 12 18  1  0  0  0  0
 12  9  1  0  0  0  0
 13  8  1  1  0  0  0
 13 12  1  0  0  0  0
 14 19  1  0  0  0  0
 14 13  1  0  0  0  0
 15 16  1  0  0  0  0
 15  8  1  0  0  0  0
 16 24  1  0  0  0  0
 16 26  1  0  0  0  0
 17 12  1  0  0  0  0
 20 14  1  0  0  0  0
 21 14  1  0  0  0  0
 22 15  1  0  0  0  0
 23 16  1  0  0  0  0
 25 27  1  0  0  0  0
 26 25  2  0  0  0  0
 27 30  1  0  0  0  0
 28 26  1  0  0  0  0
 28 31  2  0  0  0  0
 29 27  2  0  0  0  0
 29 33  1  0  0  0  0
 31 29  1  0  0  0  0
 32 28  1  0  0  0  0
 34 31  1  0  0  0  0
M  END
