2,3
 OpenBabel05122313063D

 37 37  0  0  1  0  0  0  0  0999 V2000
    1.7770    0.6834    0.0460 C   0  0  0  0  0  3  0  0  0  0  0  0
    0.4816    0.4219    0.2559 N   0  0  0  0  0  2  0  0  0  0  0  0
   -1.5111   -0.8004   -1.2732 O   0  0  0  0  0  1  0  0  0  0  0  0
   -3.5866   -0.1544   -0.7102 O   0  0  0  0  0  0  0  0  0  0  0  0
    2.3831   -0.7706    1.9152 C   0  0  0  0  0  0  0  0  0  0  0  0
    3.2028   -0.6704    2.6566 H   0  0  0  0  0  0  0  0  0  0  0  0
    2.2430   -1.8475    1.6752 H   0  0  0  0  0  0  0  0  0  0  0  0
    1.4418   -0.3839    2.3444 H   0  0  0  0  0  0  0  0  0  0  0  0
    2.7282   -0.0292    0.7078 N   0  0  0  0  0  0  0  0  0  0  0  0
    2.1848    1.6171   -0.8778 N   0  0  0  0  0  0  0  0  0  0  0  0
    3.9766   -0.4358    0.0720 C   0  0  0  0  0  0  0  0  0  0  0  0
    3.9942   -1.5437    0.0113 H   0  0  0  0  0  0  0  0  0  0  0  0
    4.8596   -0.0747    0.6411 H   0  0  0  0  0  0  0  0  0  0  0  0
    4.0181   -0.0507   -0.9608 H   0  0  0  0  0  0  0  0  0  0  0  0
    3.3339    2.4792   -0.6666 C   0  0  0  0  0  0  0  0  0  0  0  0
    3.0101    3.5443   -0.6819 H   0  0  0  0  0  0  0  0  0  0  0  0
    4.1114    2.3465   -1.4506 H   0  0  0  0  0  0  0  0  0  0  0  0
    3.7870    2.2706    0.3192 H   0  0  0  0  0  0  0  0  0  0  0  0
    1.3363    1.9338   -2.0158 C   0  0  0  0  0  0  0  0  0  0  0  0
    1.9697    2.0540   -2.9193 H   0  0  0  0  0  0  0  0  0  0  0  0
    0.7572    2.8715   -1.8604 H   0  0  0  0  0  0  0  0  0  0  0  0
    0.6273    1.1034   -2.1865 H   0  0  0  0  0  0  0  0  0  0  0  0
   -0.4557    1.4486    0.3326 C   0  0  0  0  0  0  0  0  0  0  0  0
   -0.1038    2.6938    0.9195 C   0  0  0  0  0  0  0  0  0  0  0  0
    0.9274    2.8310    1.2774 H   0  0  0  0  0  0  0  0  0  0  0  0
   -1.0379    3.7166    1.0886 C   0  0  0  0  0  0  0  0  0  0  0  0
   -0.7225    4.6654    1.5496 H   0  0  0  0  0  0  0  0  0  0  0  0
   -2.3788    3.5296    0.7042 C   0  0  0  0  0  0  0  0  0  0  0  0
   -3.1207    4.3276    0.8505 H   0  0  0  0  0  0  0  0  0  0  0  0
   -2.7564    2.3080    0.1469 C   0  0  0  0  0  0  0  0  0  0  0  0
   -3.7981    2.1299   -0.1526 H   0  0  0  0  0  0  0  0  0  0  0  0
   -1.8181    1.2724   -0.0700 C   0  0  0  0  0  0  0  0  0  0  0  0
   -2.2628    0.0249   -0.7267 C   0  0  2  0  0  3  0  0  0  0  0  0
   -4.0403   -1.4448   -1.1621 C   0  0  0  0  0  0  0  0  0  0  0  0
   -5.1369   -1.4348   -1.0381 H   0  0  0  0  0  0  0  0  0  0  0  0
   -3.5746   -2.2287   -0.5317 H   0  0  0  0  0  0  0  0  0  0  0  0
   -3.7644   -1.6109   -2.2216 H   0  0  0  0  0  0  0  0  0  0  0  0
  1  2  1  0  0  0  0
  1  9  1  0  0  0  0
  2 23  1  0  0  0  0
  5  8  1  0  0  0  0
  5  6  1  0  0  0  0
  7  5  1  0  0  0  0
  9  5  1  0  0  0  0
 10 15  1  0  0  0  0
 10  1  1  0  0  0  0
 11 13  1  0  0  0  0
 11  9  1  0  0  0  0
 12 11  1  0  0  0  0
 14 11  1  0  0  0  0
 15 18  1  0  0  0  0
 16 15  1  0  0  0  0
 17 15  1  0  0  0  0
 19 21  1  0  0  0  0
 19 10  1  0  0  0  0
 20 19  1  0  0  0  0
 22 19  1  0  0  0  0
 23 24  1  0  0  0  0
 24 26  2  0  0  0  0
 24 25  1  0  0  0  0
 26 27  1  0  0  0  0
 28 29  1  0  0  0  0
 28 26  1  0  0  0  0
 30 28  2  0  0  0  0
 31 30  1  0  0  0  0
 32 30  1  0  0  0  0
 32 23  2  0  0  0  0
 33  3  1  6  0  0  0
 33  4  1  0  0  0  0
 33 32  1  0  0  0  0
 34 35  1  0  0  0  0
 34  4  1  0  0  0  0
 34 36  1  0  0  0  0
 37 34  1  0  0  0  0
M  END
