1,2
 OpenBabel05122313063D

 26 27  0  0  0  0  0  0  0  0999 V2000
    1.6428    0.6327    0.5929 O   0  5  0  0  0  0  0  0  0  0  0  0
   -0.7418    1.7720   -0.1102 N   0  0  0  0  0  2  0  0  0  0  0  0
   -3.0296    1.4220    0.6704 C   0  0  0  0  0  0  0  0  0  0  0  0
   -2.6265    0.9128    1.5556 H   0  0  0  0  0  0  0  0  0  0  0  0
   -5.3183    1.0387    1.4874 C   0  0  0  0  0  0  0  0  0  0  0  0
    1.3744    2.9908    0.1350 C   0  0  0  0  0  0  0  0  0  0  0  0
   -4.4206    1.5603    0.4968 C   0  0  0  0  0  0  0  0  0  0  0  0
   -2.1482    1.9250   -0.3009 C   0  0  0  0  0  0  0  0  0  0  0  0
   -4.9334    2.2018   -0.6580 C   0  0  0  0  0  0  0  0  0  0  0  0
   -6.0201    2.3004   -0.7871 H   0  0  0  0  0  0  0  0  0  0  0  0
    3.5324    2.0154    0.7944 C   0  0  0  0  0  0  0  0  0  0  0  0
    4.1128    1.1268    1.0813 H   0  0  0  0  0  0  0  0  0  0  0  0
    2.1466    1.8304    0.5002 C   0  0  0  0  0  0  0  0  0  0  0  0
   -2.6595    2.5544   -1.4501 C   0  0  0  0  0  0  0  0  0  0  0  0
   -1.9627    2.9099   -2.2234 H   0  0  0  0  0  0  0  0  0  0  0  0
   -0.0276    2.8841   -0.0953 C   0  0  0  0  0  0  0  0  0  0  0  0
   -0.5776    3.8347   -0.2373 H   0  0  0  0  0  0  0  0  0  0  0  0
    3.3574    4.4152    0.3401 C   0  0  0  0  0  0  0  0  0  0  0  0
    3.8364    5.4025    0.2766 H   0  0  0  0  0  0  0  0  0  0  0  0
   -6.0573    0.6110    2.2932 N   0  0  0  0  0  0  0  0  0  0  0  0
   -4.0464    2.6942   -1.6200 C   0  0  0  0  0  0  0  0  0  0  0  0
   -4.4372    3.1846   -2.5238 H   0  0  0  0  0  0  0  0  0  0  0  0
    4.1163    3.2731    0.7056 C   0  0  0  0  0  0  0  0  0  0  0  0
    5.1904    3.3822    0.9225 H   0  0  0  0  0  0  0  0  0  0  0  0
    2.0047    4.2677    0.0697 C   0  0  0  0  0  3  0  0  0  0  0  0
    1.3919    5.1415   -0.2041 H   0  0  0  0  0  0  0  0  0  0  0  0
  2 16  1  0  0  0  0
  3  4  1  0  0  0  0
  5 20  3  0  0  0  0
  6 13  1  0  0  0  0
  7  3  1  0  0  0  0
  7  5  1  0  0  0  0
  8  2  1  0  0  0  0
  8  3  2  0  0  0  0
  9  7  2  0  0  0  0
 10  9  1  0  0  0  0
 11 12  1  0  0  0  0
 13  1  1  0  0  0  0
 13 11  2  0  0  0  0
 14  8  1  0  0  0  0
 15 14  1  0  0  0  0
 16  6  2  0  0  0  0
 17 16  1  0  0  0  0
 18 23  2  0  0  0  0
 19 18  1  0  0  0  0
 21 14  2  0  0  0  0
 21  9  1  0  0  0  0
 22 21  1  0  0  0  0
 23 11  1  0  0  0  0
 23 24  1  0  0  0  0
 25  6  1  0  0  0  0
 25 18  1  0  0  0  0
 26 25  1  0  0  0  0
M  CHG  1   1  -1
M  END
