1,12
 OpenBabel05122313063D

 17 17  0  0  0  0  0  0  0  0999 V2000
   -0.9230    1.2213   -2.0076 N   0  0  0  0  0  2  0  0  0  0  0  0
   -0.3716    1.6367   -3.2318 C   0  0  0  0  0  0  0  0  0  0  0  0
    0.7605    1.3763   -3.6110 O   0  0  0  0  0  0  0  0  0  0  0  0
   -2.2763    1.6298   -1.8274 C   0  0  0  0  0  0  0  0  0  0  0  0
   -3.0018    1.9241   -2.7772 O   0  0  0  0  0  0  0  0  0  0  0  0
   -2.7891    1.7571   -0.4209 C   0  0  0  0  0  0  0  0  0  0  0  0
   -4.1456    2.1188   -0.2997 C   0  0  0  0  0  0  0  0  0  0  0  0
   -4.7190    2.3092    0.9579 C   0  0  0  0  0  0  0  0  0  0  0  0
   -3.9521    2.1891    2.1347 C   0  0  0  0  0  0  0  0  0  0  0  0
   -2.6054    1.8503    2.0245 C   0  0  0  0  0  0  0  0  0  0  0  0
   -1.9918    1.6002    0.7558 C   0  0  0  0  0  0  0  0  0  0  0  0
   -0.7325    1.2178    0.7316 O   0  5  0  0  0  0  0  0  0  0  0  0
   -6.4211    2.6765    1.0955 Cl  0  0  0  0  0  0  0  0  0  0  0  0
   -1.6400    1.6256    3.4539 Cl  0  0  0  0  0  0  0  0  0  0  0  0
   -4.4079    2.3365    3.1225 H   0  0  0  0  0  0  0  0  0  0  0  0
   -4.7275    2.2348   -1.2241 H   0  0  0  0  0  0  0  0  0  0  0  0
   -1.0886    2.2385   -3.8428 H   0  0  0  0  0  0  0  0  0  0  0  0
  1  4  1  0  0  0  0
  2  1  1  0  0  0  0
  3  2  2  0  0  0  0
  4  6  1  0  0  0  0
  5  4  2  0  0  0  0
  6  7  2  0  0  0  0
  6 11  1  0  0  0  0
  7  8  1  0  0  0  0
  8 13  1  0  0  0  0
  8  9  2  0  0  0  0
  9 15  1  0  0  0  0
 10  9  1  0  0  0  0
 10 14  1  0  0  0  0
 11 10  2  0  0  0  0
 12 11  1  0  0  0  0
 16  7  1  0  0  0  0
 17  2  1  0  0  0  0
M  CHG  1  12  -1
M  END
