2,3
 OpenBabel05122313063D

 25 26  0  0  0  0  0  0  0  0999 V2000
   -1.1611   -1.8442   -1.3189 S   0  0  0  0  0  1  0  0  0  0  0  0
   -1.7442    0.8872   -0.5551 N   0  0  0  0  0  2  0  0  0  0  0  0
    0.8526    1.2332    0.0649 O   0  5  0  0  0  0  0  0  0  0  0  0
   -2.7596   -1.1321   -1.3858 C   0  0  0  0  0  0  0  0  0  0  0  0
   -3.8876   -1.8451   -1.8499 C   0  0  0  0  0  0  0  0  0  0  0  0
   -3.7507   -2.8796   -2.1981 H   0  0  0  0  0  0  0  0  0  0  0  0
   -5.1542   -1.2526   -1.8461 C   0  0  0  0  0  0  0  0  0  0  0  0
   -6.0253   -1.8258   -2.1978 H   0  0  0  0  0  0  0  0  0  0  0  0
   -5.3221    0.0630   -1.3709 C   0  0  0  0  0  0  0  0  0  0  0  0
   -6.3236    0.5161   -1.3325 H   0  0  0  0  0  0  0  0  0  0  0  0
   -4.2122    0.7925   -0.9303 C   0  0  0  0  0  0  0  0  0  0  0  0
   -4.3505    1.8109   -0.5377 H   0  0  0  0  0  0  0  0  0  0  0  0
   -2.9250    0.2114   -0.9507 C   0  0  0  0  0  0  0  0  0  0  0  0
   -1.6802    2.1912   -0.7398 C   0  0  0  0  0  3  0  0  0  0  0  0
   -2.5637    2.6849   -1.1906 H   0  0  0  0  0  0  0  0  0  0  0  0
   -0.5658    3.0543   -0.4881 C   0  0  0  0  0  0  0  0  0  0  0  0
   -0.6958    4.4565   -0.6934 C   0  0  0  0  0  0  0  0  0  0  0  0
   -1.6792    4.8586   -0.9848 H   0  0  0  0  0  0  0  0  0  0  0  0
    0.3931    5.3059   -0.5345 C   0  0  0  0  0  0  0  0  0  0  0  0
    0.2804    6.3884   -0.6895 H   0  0  0  0  0  0  0  0  0  0  0  0
    1.6561    4.7646   -0.1895 C   0  0  0  0  0  0  0  0  0  0  0  0
    2.5230    5.4348   -0.0826 H   0  0  0  0  0  0  0  0  0  0  0  0
    1.8228    3.3959    0.0087 C   0  0  0  0  0  0  0  0  0  0  0  0
    2.7983    2.9553    0.2564 H   0  0  0  0  0  0  0  0  0  0  0  0
    0.7144    2.5197   -0.1223 C   0  0  0  0  0  0  0  0  0  0  0  0
  4  1  1  0  0  0  0
  4 13  1  0  0  0  0
  5  7  1  0  0  0  0
  5  4  2  0  0  0  0
  6  5  1  0  0  0  0
  7  9  2  0  0  0  0
  8  7  1  0  0  0  0
  9 10  1  0  0  0  0
  9 11  1  0  0  0  0
 11 12  1  0  0  0  0
 13 11  2  0  0  0  0
 13  2  1  0  0  0  0
 14  2  1  0  0  0  0
 14 16  1  0  0  0  0
 15 14  1  0  0  0  0
 16 25  1  0  0  0  0
 17 19  1  0  0  0  0
 17 16  2  0  0  0  0
 18 17  1  0  0  0  0
 19 21  2  0  0  0  0
 20 19  1  0  0  0  0
 21 22  1  0  0  0  0
 21 23  1  0  0  0  0
 23 24  1  0  0  0  0
 25 23  2  0  0  0  0
 25  3  1  0  0  0  0
M  CHG  1   3  -1
M  END
