1,3
 OpenBabel05122313063D

 36 38  0  0  1  0  0  0  0  0999 V2000
   -0.2666    1.0333   -0.2268 N   0  0  0  0  0  2  0  0  0  0  0  0
   -0.6275    3.1926    0.2025 O   0  0  0  0  0  0  0  0  0  0  0  0
    2.3288    0.3890   -0.9803 O   0  5  0  0  0  0  0  0  0  0  0  0
   -1.6546    1.2037   -0.1174 C   0  0  0  0  0  0  0  0  0  0  0  0
   -2.7442    0.3288   -0.2202 C   0  0  0  0  0  0  0  0  0  0  0  0
   -2.5712   -0.7129   -0.5121 H   0  0  0  0  0  0  0  0  0  0  0  0
   -4.0395    0.8444   -0.0091 C   0  0  0  0  0  0  0  0  0  0  0  0
   -4.1974    2.2244    0.2927 C   0  0  0  0  0  0  0  0  0  0  0  0
   -5.2062    2.6264    0.4505 H   0  0  0  0  0  0  0  0  0  0  0  0
   -3.1175    3.1179    0.3859 C   0  0  0  0  0  0  0  0  0  0  0  0
   -3.2581    4.1837    0.6102 H   0  0  0  0  0  0  0  0  0  0  0  0
   -1.8591    2.5683    0.1723 C   0  0  0  0  0  0  0  0  0  0  0  0
    0.2922    2.2323   -0.0517 C   0  0  2  0  0  3  0  0  0  0  0  0
    1.6853    2.5860   -0.1237 C   0  0  0  0  0  0  0  0  0  0  0  0
    2.6388    1.6319   -0.6009 C   0  0  0  0  0  0  0  0  0  0  0  0
    3.9924    2.0303   -0.7283 C   0  0  0  0  0  0  0  0  0  0  0  0
    4.7101    1.2957   -1.1199 H   0  0  0  0  0  0  0  0  0  0  0  0
    4.3880    3.3271   -0.3948 C   0  0  0  0  0  0  0  0  0  0  0  0
    5.4435    3.6162   -0.5083 H   0  0  0  0  0  0  0  0  0  0  0  0
    3.4493    4.2624    0.0870 C   0  0  0  0  0  0  0  0  0  0  0  0
    3.7677    5.2796    0.3555 H   0  0  0  0  0  0  0  0  0  0  0  0
    2.1101    3.8941    0.2158 C   0  0  0  0  0  0  0  0  0  0  0  0
    1.3635    4.6158    0.5757 H   0  0  0  0  0  0  0  0  0  0  0  0
   -5.2441   -0.1055   -0.1466 C   0  0  0  0  0  0  0  0  0  0  0  0
   -5.2900   -0.6410   -1.5967 C   0  0  0  0  0  0  0  0  0  0  0  0
   -6.1462   -1.3344   -1.7213 H   0  0  0  0  0  0  0  0  0  0  0  0
   -4.3666   -1.1923   -1.8649 H   0  0  0  0  0  0  0  0  0  0  0  0
   -5.4113    0.1875   -2.3228 H   0  0  0  0  0  0  0  0  0  0  0  0
   -5.0741   -1.2863    0.8367 C   0  0  0  0  0  0  0  0  0  0  0  0
   -5.0184   -0.9300    1.8854 H   0  0  0  0  0  0  0  0  0  0  0  0
   -4.1580   -1.8724    0.6228 H   0  0  0  0  0  0  0  0  0  0  0  0
   -5.9361   -1.9786    0.7560 H   0  0  0  0  0  0  0  0  0  0  0  0
   -6.5787    0.5947    0.1620 C   0  0  0  0  0  0  0  0  0  0  0  0
   -6.6106    0.9929    1.1963 H   0  0  0  0  0  0  0  0  0  0  0  0
   -7.4101   -0.1303    0.0612 H   0  0  0  0  0  0  0  0  0  0  0  0
   -6.7836    1.4270   -0.5407 H   0  0  0  0  0  0  0  0  0  0  0  0
  1  4  1  0  0  0  0
  1 13  1  0  0  0  0
  3 15  1  0  0  0  0
  4 12  1  0  0  0  0
  5  4  2  0  0  0  0
  5  7  1  0  0  0  0
  6  5  1  0  0  0  0
  7  8  2  0  0  0  0
  8 10  1  0  0  0  0
  8  9  1  0  0  0  0
 10 11  1  0  0  0  0
 12  2  1  0  0  0  0
 12 10  2  0  0  0  0
 13 14  1  6  0  0  0
 13  2  1  0  0  0  0
 14 22  1  0  0  0  0
 15 14  2  0  0  0  0
 16 15  1  0  0  0  0
 16 18  2  0  0  0  0
 17 16  1  0  0  0  0
 18 20  1  0  0  0  0
 19 18  1  0  0  0  0
 20 22  2  0  0  0  0
 20 21  1  0  0  0  0
 22 23  1  0  0  0  0
 24  7  1  0  0  0  0
 24 33  1  0  0  0  0
 24 29  1  0  0  0  0
 25 24  1  0  0  0  0
 26 25  1  0  0  0  0
 27 25  1  0  0  0  0
 28 25  1  0  0  0  0
 29 30  1  0  0  0  0
 31 29  1  0  0  0  0
 32 29  1  0  0  0  0
 33 34  1  0  0  0  0
 35 33  1  0  0  0  0
 36 33  1  0  0  0  0
M  CHG  1   3  -1
M  END
