1,5
 OpenBabel05122313063D

 30 31  0  0  0  0  0  0  0  0999 V2000
   -0.9434   -1.5945   -0.0282 O   0  5  0  0  0  0  0  0  0  0  0  0
   -3.0178   -6.2173   -0.3490 O   0  0  0  0  0  0  0  0  0  0  0  0
   -6.7247   -3.3732    0.3595 O   0  0  0  0  0  0  0  0  0  0  0  0
   -6.6002    5.1659   -0.1124 F   0  0  0  0  0  0  0  0  0  0  0  0
   -1.7147    0.7571    0.0110 N   0  0  0  0  0  2  0  0  0  0  0  0
   -2.7372   -0.1480    0.0182 N   0  0  0  0  0  0  0  0  0  0  0  0
   -2.2319   -1.3764   -0.0010 C   0  0  0  0  0  0  0  0  0  0  0  0
   -3.1432   -2.5418    0.0025 C   0  0  0  0  0  0  0  0  0  0  0  0
   -2.6113   -3.8332   -0.1756 C   0  0  0  0  0  0  0  0  0  0  0  0
   -1.5272   -3.9529   -0.3188 H   0  0  0  0  0  0  0  0  0  0  0  0
   -3.4727   -4.9462   -0.1765 C   0  0  0  0  0  0  0  0  0  0  0  0
   -4.8562   -4.7754    0.0041 C   0  0  0  0  0  0  0  0  0  0  0  0
   -5.5248   -5.6465    0.0050 H   0  0  0  0  0  0  0  0  0  0  0  0
   -5.3796   -3.4824    0.1849 C   0  0  0  0  0  0  0  0  0  0  0  0
   -4.5290   -2.3620    0.1830 C   0  0  0  0  0  0  0  0  0  0  0  0
   -4.9265   -1.3473    0.3312 H   0  0  0  0  0  0  0  0  0  0  0  0
   -1.9413    2.0540   -0.0066 C   0  0  0  0  0  3  0  0  0  0  0  0
   -1.0136    2.6478   -0.0049 H   0  0  0  0  0  0  0  0  0  0  0  0
   -3.1941    2.7873   -0.0333 C   0  0  0  0  0  0  0  0  0  0  0  0
   -4.4885    2.2017   -0.0903 C   0  0  0  0  0  0  0  0  0  0  0  0
   -4.5571    1.1075   -0.1166 H   0  0  0  0  0  0  0  0  0  0  0  0
   -5.6323    3.0035   -0.1180 C   0  0  0  0  0  0  0  0  0  0  0  0
   -6.6395    2.5650   -0.1653 H   0  0  0  0  0  0  0  0  0  0  0  0
   -5.4981    4.3988   -0.0875 C   0  0  0  0  0  0  0  0  0  0  0  0
   -4.2389    5.0134   -0.0339 C   0  0  0  0  0  0  0  0  0  0  0  0
   -4.1733    6.1104   -0.0141 H   0  0  0  0  0  0  0  0  0  0  0  0
   -3.1009    4.2058   -0.0090 C   0  0  0  0  0  0  0  0  0  0  0  0
   -2.1059    4.6758    0.0305 H   0  0  0  0  0  0  0  0  0  0  0  0
   -2.0506   -6.1810   -0.4662 H   0  0  0  0  0  0  0  0  0  0  0  0
   -6.9413   -2.4296    0.4753 H   0  0  0  0  0  0  0  0  0  0  0  0
  1  7  1  0  0  0  0
  2 11  1  0  0  0  0
  3 30  1  0  0  0  0
  4 24  1  0  0  0  0
  5  6  1  0  0  0  0
  7  8  1  0  0  0  0
  7  6  2  0  0  0  0
  8 15  1  0  0  0  0
  9  8  2  0  0  0  0
 10  9  1  0  0  0  0
 11  9  1  0  0  0  0
 11 12  2  0  0  0  0
 12 13  1  0  0  0  0
 12 14  1  0  0  0  0
 14  3  1  0  0  0  0
 15 14  2  0  0  0  0
 15 16  1  0  0  0  0
 17 18  1  0  0  0  0
 17  5  1  0  0  0  0
 19 27  1  0  0  0  0
 19 17  1  0  0  0  0
 20 19  2  0  0  0  0
 21 20  1  0  0  0  0
 22 20  1  0  0  0  0
 22 24  2  0  0  0  0
 23 22  1  0  0  0  0
 24 25  1  0  0  0  0
 25 26  1  0  0  0  0
 25 27  2  0  0  0  0
 27 28  1  0  0  0  0
 29  2  1  0  0  0  0
M  CHG  1   1  -1
M  END
