1,3
 OpenBabel05122313063D

 15 14  0  0  0  0  0  0  0  0999 V2000
   -3.0644    0.3323    0.1953 N   0  0  0  0  0  0  0  0  0  0  0  0
   -3.5818   -3.2618   -0.0356 O   0  5  0  0  0  0  0  0  0  0  0  0
   -1.6995   -2.0282   -0.2248 O   0  0  0  0  0  0  0  0  0  0  0  0
   -2.9653   -2.2100    0.0636 C   0  0  0  0  0  0  0  0  0  0  0  0
   -3.6516   -0.9620    0.6545 C   0  0  0  0  0  0  0  0  0  0  0  0
   -4.7421   -0.9900    0.4441 H   0  0  0  0  0  0  0  0  0  0  0  0
   -3.5183   -1.0221    1.7539 H   0  0  0  0  0  0  0  0  0  0  0  0
   -3.4083    1.3809    1.1793 C   0  0  0  0  0  0  0  0  0  0  0  0
   -3.0310    2.3619    0.8460 H   0  0  0  0  0  0  0  0  0  0  0  0
   -2.9372    1.1393    2.1496 H   0  0  0  0  0  0  0  0  0  0  0  0
   -4.5122    1.4420    1.3084 H   0  0  0  0  0  0  0  0  0  0  0  0
   -3.6045    0.6752   -1.1413 C   0  0  0  0  0  0  0  0  0  0  0  0
   -4.7066    0.8279   -1.0888 H   0  0  0  0  0  0  0  0  0  0  0  0
   -3.3863   -0.1486   -1.8458 H   0  0  0  0  0  0  0  0  0  0  0  0
   -3.1211    1.5966   -1.5153 H   0  0  0  0  0  0  0  0  0  0  0  0
  1  5  1  0  0  0  0
  1  8  1  0  0  0  0
  2  4  1  0  0  0  0
  3  4  2  0  0  0  0
  4  5  1  0  0  0  0
  5  7  1  0  0  0  0
  6  5  1  0  0  0  0
  8 11  1  0  0  0  0
  8 10  1  0  0  0  0
  9  8  1  0  0  0  0
 12 13  1  0  0  0  0
 12  1  1  0  0  0  0
 14 12  1  0  0  0  0
 15 12  1  0  0  0  0
M  CHG  1   2  -1
M  END
