1,4
 OpenBabel05122313063D

 36 38  0  0  1  0  0  0  0  0999 V2000
    1.8325    1.3287   -0.2325 O   0  0  0  0  0  1  0  0  0  0  0  0
   -2.4913    2.3288    1.6597 O   0  0  0  0  0  0  0  0  0  0  0  0
   -2.9269    3.1189    2.0306 H   0  0  0  0  0  0  0  0  0  0  0  0
   -0.5024    0.2679    0.4017 N   0  0  0  0  0  2  0  0  0  0  0  0
   -0.3806    1.6205    0.1886 N   0  0  0  0  0  0  0  0  0  0  0  0
   -1.1128    2.2240    0.6056 H   0  0  0  0  0  0  0  0  0  0  0  0
   -1.6779   -0.2722    0.5981 C   0  0  0  0  0  3  0  0  0  0  0  0
   -1.5920   -1.3673    0.7463 H   0  0  0  0  0  0  0  0  0  0  0  0
   -3.0277    0.2880    0.5294 C   0  0  0  0  0  0  0  0  0  0  0  0
   -4.0445   -0.5639   -0.0650 C   0  0  0  0  0  0  0  0  0  0  0  0
   -5.4137   -0.1129   -0.1225 C   0  0  0  0  0  0  0  0  0  0  0  0
   -5.7487    1.1638    0.4120 C   0  0  0  0  0  0  0  0  0  0  0  0
   -6.7942    1.5049    0.3697 H   0  0  0  0  0  0  0  0  0  0  0  0
   -4.7787    1.9686    0.9806 C   0  0  0  0  0  0  0  0  0  0  0  0
   -5.0425    2.9524    1.4030 H   0  0  0  0  0  0  0  0  0  0  0  0
   -3.4320    1.5308    1.0444 C   0  0  0  0  0  0  0  0  0  0  0  0
   -3.7330   -1.8394   -0.6245 C   0  0  0  0  0  0  0  0  0  0  0  0
   -2.6993   -2.2142   -0.6061 H   0  0  0  0  0  0  0  0  0  0  0  0
   -4.7273   -2.6275   -1.1897 C   0  0  0  0  0  0  0  0  0  0  0  0
   -4.4598   -3.6094   -1.6084 H   0  0  0  0  0  0  0  0  0  0  0  0
   -6.0736   -2.1845   -1.2394 C   0  0  0  0  0  0  0  0  0  0  0  0
   -6.8469   -2.8209   -1.6950 H   0  0  0  0  0  0  0  0  0  0  0  0
   -6.4067   -0.9456   -0.7156 C   0  0  0  0  0  0  0  0  0  0  0  0
   -7.4454   -0.5814   -0.7496 H   0  0  0  0  0  0  0  0  0  0  0  0
    0.8504    2.1117   -0.1124 C   0  0  2  0  0  3  0  0  0  0  0  0
    0.9940    3.5715   -0.2924 C   0  0  0  0  0  0  0  0  0  0  0  0
   -0.1110    4.4041   -0.5794 C   0  0  0  0  0  0  0  0  0  0  0  0
   -1.1124    3.9678   -0.7127 H   0  0  0  0  0  0  0  0  0  0  0  0
    0.0718    5.7833   -0.7404 C   0  0  0  0  0  0  0  0  0  0  0  0
   -0.7909    6.4249   -0.9748 H   0  0  0  0  0  0  0  0  0  0  0  0
    1.3544    6.3436   -0.6216 C   0  0  0  0  0  0  0  0  0  0  0  0
    1.4953    7.4274   -0.7501 H   0  0  0  0  0  0  0  0  0  0  0  0
    2.4580    5.5177   -0.3473 C   0  0  0  0  0  0  0  0  0  0  0  0
    3.4637    5.9546   -0.2563 H   0  0  0  0  0  0  0  0  0  0  0  0
    2.2819    4.1390   -0.1864 C   0  0  0  0  0  0  0  0  0  0  0  0
    3.1318    3.4776    0.0332 H   0  0  0  0  0  0  0  0  0  0  0  0
  2  3  1  0  0  0  0
  4  7  1  0  0  0  0
  5  4  1  0  0  0  0
  5  6  1  0  0  0  0
  7  8  1  0  0  0  0
  9  7  1  0  0  0  0
  9 16  1  0  0  0  0
 10  9  2  0  0  0  0
 11 10  1  0  0  0  0
 11 12  2  0  0  0  0
 12 14  1  0  0  0  0
 13 12  1  0  0  0  0
 14 16  2  0  0  0  0
 14 15  1  0  0  0  0
 16  2  1  0  0  0  0
 17 18  1  0  0  0  0
 17 10  1  0  0  0  0
 19 17  2  0  0  0  0
 20 19  1  0  0  0  0
 21 19  1  0  0  0  0
 21 23  2  0  0  0  0
 22 21  1  0  0  0  0
 23 11  1  0  0  0  0
 24 23  1  0  0  0  0
 25  1  1  6  0  0  0
 25  5  1  0  0  0  0
 26 35  1  0  0  0  0
 26 25  1  0  0  0  0
 27 26  2  0  0  0  0
 28 27  1  0  0  0  0
 29 31  2  0  0  0  0
 29 27  1  0  0  0  0
 30 29  1  0  0  0  0
 31 33  1  0  0  0  0
 32 31  1  0  0  0  0
 33 34  1  0  0  0  0
 33 35  2  0  0  0  0
 35 36  1  0  0  0  0
M  END
