1,2
q = -1.0, confidence = 0.0

 31 32  0  0  1  0  0  0  0  0999 V2000
   -1.5974   -2.6338    0.0360 O   0  5  0  0  0  0  0  0  0  0  0  0
    1.1115   -1.5957   -0.4426 N   0  0  0  0  0  2  0  0  0  0  0  0
    2.8137   -3.3693   -0.5876 C   0  0  0  0  0  0  0  0  0  0  0  0
    1.3796   -2.9077   -0.4177 C   0  0  1  0  0  3  0  0  0  0  0  0
    0.4044   -3.9234   -0.2330 C   0  0  0  0  0  0  0  0  0  0  0  0
   -0.9720   -3.7591   -0.0285 C   0  0  0  0  0  0  0  0  0  0  0  0
   -1.8597   -4.9711    0.1454 C   0  0  0  0  0  0  0  0  0  0  0  0
    2.2040   -0.7081   -0.6348 C   0  0  0  0  0  0  0  0  0  0  0  0
    2.6054   -0.3498   -1.9212 C   0  0  0  0  0  0  0  0  0  0  0  0
    3.6878    0.5426   -2.1235 C   0  0  0  0  0  0  0  0  0  0  0  0
    4.3648    1.0848   -1.0412 C   0  0  0  0  0  0  0  0  0  0  0  0
    3.9849    0.7507    0.2920 C   0  0  0  0  0  0  0  0  0  0  0  0
    2.8862   -0.1594    0.5079 C   0  0  0  0  0  0  0  0  0  0  0  0
    2.4973   -0.4748    1.8417 C   0  0  0  0  0  0  0  0  0  0  0  0
    3.1667    0.0801    2.9228 C   0  0  0  0  0  0  0  0  0  0  0  0
    4.2530    0.9722    2.7154 C   0  0  0  0  0  0  0  0  0  0  0  0
    4.6508    1.2992    1.4278 C   0  0  0  0  0  0  0  0  0  0  0  0
    3.2185   -3.0633   -1.5728 H   0  0  0  0  0  0  0  0  0  0  0  0
    2.8894   -4.4675   -0.4991 H   0  0  0  0  0  0  0  0  0  0  0  0
    3.4704   -2.9043    0.1753 H   0  0  0  0  0  0  0  0  0  0  0  0
    0.7774   -4.9557   -0.2480 H   0  0  0  0  0  0  0  0  0  0  0  0
   -2.6473   -4.9666   -0.6360 H   0  0  0  0  0  0  0  0  0  0  0  0
   -2.3811   -4.9107    1.1228 H   0  0  0  0  0  0  0  0  0  0  0  0
   -1.3000   -5.9227    0.0904 H   0  0  0  0  0  0  0  0  0  0  0  0
    2.0570   -0.7693   -2.7772 H   0  0  0  0  0  0  0  0  0  0  0  0
    3.9826    0.8077   -3.1501 H   0  0  0  0  0  0  0  0  0  0  0  0
    5.2049    1.7797   -1.1951 H   0  0  0  0  0  0  0  0  0  0  0  0
    1.6447   -1.1522    1.9936 H   0  0  0  0  0  0  0  0  0  0  0  0
    2.8516   -0.1672    3.9478 H   0  0  0  0  0  0  0  0  0  0  0  0
    4.7767    1.4059    3.5810 H   0  0  0  0  0  0  0  0  0  0  0  0
    5.4899    1.9930    1.2614 H   0  0  0  0  0  0  0  0  0  0  0  0
  3 19  1  0  0  0  0
  3  4  1  0  0  0  0
  3 20  1  0  0  0  0
  4  2  1  1  0  0  0
  4  5  1  0  0  0  0
  5  6  2  0  0  0  0
  6  1  1  0  0  0  0
  6  7  1  0  0  0  0
  7 23  1  0  0  0  0
  8  2  1  0  0  0  0
  8 13  1  0  0  0  0
  9  8  2  0  0  0  0
 10  9  1  0  0  0  0
 10 11  2  0  0  0  0
 11 12  1  0  0  0  0
 12 13  2  0  0  0  0
 12 17  1  0  0  0  0
 13 14  1  0  0  0  0
 14 28  1  0  0  0  0
 14 15  2  0  0  0  0
 15 29  1  0  0  0  0
 16 15  1  0  0  0  0
 16 30  1  0  0  0  0
 17 16  2  0  0  0  0
 18  3  1  0  0  0  0
 21  5  1  0  0  0  0
 22  7  1  0  0  0  0
 24  7  1  0  0  0  0
 25  9  1  0  0  0  0
 26 10  1  0  0  0  0
 27 11  1  0  0  0  0
 31 17  1  0  0  0  0
M  CHG  1   1  -1
M  END
