3,4
 OpenBabel05122313063D

 31 33  0  0  1  0  0  0  0  0999 V2000
    2.2224    0.6123   -0.2677 P   0  0  0  0  0  4  0  0  0  0  0  0
    2.7140   -0.3455   -3.2991 S   0  0  0  0  0  0  0  0  0  0  0  0
    0.9894   -1.3238   -1.6390 N   0  0  0  0  0  2  0  0  0  0  0  0
    1.1862    0.0750    0.7521 O   0  0  0  0  0  1  0  0  0  0  0  0
    1.9335   -0.3773   -1.7494 C   0  0  1  0  0  3  0  0  0  0  0  0
    1.7124   -1.6705   -3.8041 C   0  0  0  0  0  0  0  0  0  0  0  0
    1.8051   -2.0936   -4.8112 H   0  0  0  0  0  0  0  0  0  0  0  0
    0.8591   -2.0583   -2.7976 C   0  0  0  0  0  0  0  0  0  0  0  0
    0.1091   -2.8582   -2.8447 H   0  0  0  0  0  0  0  0  0  0  0  0
    3.9320    0.3559    0.2536 C   0  0  0  0  0  0  0  0  0  0  0  0
    5.0253    0.9057   -0.4524 C   0  0  0  0  0  0  0  0  0  0  0  0
    4.8611    1.5980   -1.2932 H   0  0  0  0  0  0  0  0  0  0  0  0
    6.3291    0.5547   -0.0780 C   0  0  0  0  0  0  0  0  0  0  0  0
    7.1865    0.9798   -0.6213 H   0  0  0  0  0  0  0  0  0  0  0  0
    6.5411   -0.3468    0.9812 C   0  0  0  0  0  0  0  0  0  0  0  0
    7.5680   -0.6277    1.2606 H   0  0  0  0  0  0  0  0  0  0  0  0
    5.4510   -0.8989    1.6717 C   0  0  0  0  0  0  0  0  0  0  0  0
    5.5975   -1.6321    2.4784 H   0  0  0  0  0  0  0  0  0  0  0  0
    4.1420   -0.5462    1.3149 C   0  0  0  0  0  0  0  0  0  0  0  0
    3.2862   -0.9980    1.8371 H   0  0  0  0  0  0  0  0  0  0  0  0
    1.9535    2.3536   -0.7002 C   0  0  0  0  0  0  0  0  0  0  0  0
    0.8163    2.6638   -1.4793 C   0  0  0  0  0  0  0  0  0  0  0  0
    0.1640    1.8521   -1.8391 H   0  0  0  0  0  0  0  0  0  0  0  0
    0.5033    4.0022   -1.7446 C   0  0  0  0  0  0  0  0  0  0  0  0
   -0.3863    4.2454   -2.3442 H   0  0  0  0  0  0  0  0  0  0  0  0
    1.3115    5.0311   -1.2315 C   0  0  0  0  0  0  0  0  0  0  0  0
    1.0605    6.0819   -1.4416 H   0  0  0  0  0  0  0  0  0  0  0  0
    2.4320    4.7239   -0.4438 C   0  0  0  0  0  0  0  0  0  0  0  0
    3.0596    5.5308   -0.0362 H   0  0  0  0  0  0  0  0  0  0  0  0
    2.7551    3.3855   -0.1720 C   0  0  0  0  0  0  0  0  0  0  0  0
    3.6289    3.1428    0.4512 H   0  0  0  0  0  0  0  0  0  0  0  0
  1 10  1  0  0  0  0
  1  4  1  0  0  0  0
  2  5  1  0  0  0  0
  5  3  1  0  0  0  0
  5  1  1  1  0  0  0
  6  2  1  0  0  0  0
  6  8  2  0  0  0  0
  7  6  1  0  0  0  0
  8  3  1  0  0  0  0
  9  8  1  0  0  0  0
 10 19  1  0  0  0  0
 11 13  1  0  0  0  0
 11 10  2  0  0  0  0
 12 11  1  0  0  0  0
 13 15  2  0  0  0  0
 14 13  1  0  0  0  0
 15 16  1  0  0  0  0
 15 17  1  0  0  0  0
 17 18  1  0  0  0  0
 19 17  2  0  0  0  0
 19 20  1  0  0  0  0
 21  1  1  0  0  0  0
 21 30  1  0  0  0  0
 22 21  2  0  0  0  0
 23 22  1  0  0  0  0
 24 22  1  0  0  0  0
 24 26  2  0  0  0  0
 25 24  1  0  0  0  0
 26 28  1  0  0  0  0
 27 26  1  0  0  0  0
 28 30  2  0  0  0  0
 28 29  1  0  0  0  0
 30 31  1  0  0  0  0
M  END
