37,38
 OpenBabel05122313063D

 38 40  0  0  1  0  0  0  0  0999 V2000
    3.1679   -0.3456    1.9678 C   0  0  0  0  0  0  0  0  0  0  0  0
    2.5978   -0.8985    2.7286 H   0  0  0  0  0  0  0  0  0  0  0  0
    4.3138    0.4044    2.3334 C   0  0  0  0  0  0  0  0  0  0  0  0
    4.6449    0.4059    3.3831 H   0  0  0  0  0  0  0  0  0  0  0  0
    5.0057    1.1428    1.3843 C   0  0  0  0  0  0  0  0  0  0  0  0
    5.8918    1.7321    1.6667 H   0  0  0  0  0  0  0  0  0  0  0  0
    4.5719    1.1586    0.0259 C   0  0  0  0  0  0  0  0  0  0  0  0
    5.2398    1.9261   -0.9742 C   0  0  0  0  0  0  0  0  0  0  0  0
    6.1241    2.5145   -0.6827 H   0  0  0  0  0  0  0  0  0  0  0  0
    4.7874    1.9392   -2.2854 C   0  0  0  0  0  0  0  0  0  0  0  0
    5.3128    2.5397   -3.0438 H   0  0  0  0  0  0  0  0  0  0  0  0
    3.6442    1.1803   -2.6540 C   0  0  0  0  0  0  0  0  0  0  0  0
    3.2882    1.2001   -3.6953 H   0  0  0  0  0  0  0  0  0  0  0  0
    2.9730    0.4192   -1.7077 C   0  0  0  0  0  0  0  0  0  0  0  0
    2.0795   -0.1621   -1.9790 H   0  0  0  0  0  0  0  0  0  0  0  0
    3.4149    0.3866   -0.3540 C   0  0  0  0  0  0  0  0  0  0  0  0
    2.7235   -0.3738    0.6498 C   0  0  0  0  0  0  0  0  0  0  0  0
    1.6406   -2.4239    0.1130 C   0  0  2  0  0  3  0  0  0  0  0  0
    2.9962   -3.0804    0.3581 C   0  0  0  0  0  0  0  0  0  0  0  0
    3.2079   -3.0388    1.4488 H   0  0  0  0  0  0  0  0  0  0  0  0
    3.7792   -2.4449   -0.1043 H   0  0  0  0  0  0  0  0  0  0  0  0
    3.1077   -4.5250   -0.1250 C   0  0  0  0  0  0  0  0  0  0  0  0
    4.0519   -4.9674    0.2538 H   0  0  0  0  0  0  0  0  0  0  0  0
    3.1675   -4.5524   -1.2356 H   0  0  0  0  0  0  0  0  0  0  0  0
    1.8881   -5.3167    0.3353 C   0  0  0  0  0  0  0  0  0  0  0  0
    1.9914   -6.3968    0.1042 H   0  0  0  0  0  0  0  0  0  0  0  0
    1.7951   -5.2345    1.4414 H   0  0  0  0  0  0  0  0  0  0  0  0
    0.6385   -4.7543   -0.3412 C   0  0  0  0  0  0  0  0  0  0  0  0
    0.6208   -5.1124   -1.3976 H   0  0  0  0  0  0  0  0  0  0  0  0
   -0.2689   -5.1932    0.1270 H   0  0  0  0  0  0  0  0  0  0  0  0
    0.5448   -3.2347   -0.3097 C   0  0  0  0  0  0  0  0  0  0  0  0
   -0.6346   -2.6408   -0.8053 C   0  0  0  0  0  0  0  0  0  0  0  0
   -1.7522   -3.4880   -1.3715 C   0  0  0  0  0  0  0  0  0  0  0  0
   -2.5239   -2.8294   -1.8093 H   0  0  0  0  0  0  0  0  0  0  0  0
   -1.3857   -4.1994   -2.1392 H   0  0  0  0  0  0  0  0  0  0  0  0
   -2.2228   -4.0939   -0.5686 H   0  0  0  0  0  0  0  0  0  0  0  0
    1.5500   -1.0953    0.2888 N   0  0  0  0  0  2  0  0  0  0  0  0
   -0.8692   -1.3748   -0.8533 O   0  5  0  0  0  0  0  0  0  0  0  0
  1  3  1  0  0  0  0
  1  2  1  0  0  0  0
  3  4  1  0  0  0  0
  5  6  1  0  0  0  0
  5  3  2  0  0  0  0
  7  5  1  0  0  0  0
  8  9  1  0  0  0  0
  8  7  2  0  0  0  0
 10  8  1  0  0  0  0
 11 10  1  0  0  0  0
 12 10  2  0  0  0  0
 12 14  1  0  0  0  0
 13 12  1  0  0  0  0
 14 16  2  0  0  0  0
 15 14  1  0  0  0  0
 16  7  1  0  0  0  0
 16 17  1  0  0  0  0
 17  1  2  0  0  0  0
 18 37  1  6  0  0  0
 18 19  1  0  0  0  0
 19 20  1  0  0  0  0
 21 19  1  0  0  0  0
 22 23  1  0  0  0  0
 22 25  1  0  0  0  0
 22 19  1  0  0  0  0
 24 22  1  0  0  0  0
 25 27  1  0  0  0  0
 26 25  1  0  0  0  0
 28 31  1  0  0  0  0
 28 30  1  0  0  0  0
 28 25  1  0  0  0  0
 29 28  1  0  0  0  0
 31 18  1  0  0  0  0
 32 31  2  0  0  0  0
 33 32  1  0  0  0  0
 33 36  1  0  0  0  0
 34 33  1  0  0  0  0
 35 33  1  0  0  0  0
 37 17  1  0  0  0  0
 38 32  1  0  0  0  0
M  CHG  1  38  -1
M  END
