3,29
 OpenBabel05122313063D

 58 63  0  0  1  0  0  0  0  0999 V2000
   -4.6791    0.8248    0.0506 O   0  0  0  0  0  0  0  0  0  0  0  0
   -3.3615    0.4626   -0.0879 C   0  0  2  0  0  3  0  0  0  0  0  0
   -3.1912   -0.8504   -0.0912 N   0  0  0  0  0  2  0  0  0  0  0  0
   -4.4520   -1.4146    0.0384 C   0  0  0  0  0  0  0  0  0  0  0  0
   -5.3817   -0.3573    0.1339 C   0  0  0  0  0  0  0  0  0  0  0  0
   -6.7536   -0.5582    0.2743 C   0  0  0  0  0  0  0  0  0  0  0  0
   -7.4629    0.2771    0.3482 H   0  0  0  0  0  0  0  0  0  0  0  0
   -7.1663   -1.9024    0.3114 C   0  0  0  0  0  0  0  0  0  0  0  0
   -8.2380   -2.1258    0.4205 H   0  0  0  0  0  0  0  0  0  0  0  0
   -6.2471   -2.9741    0.2060 C   0  0  0  0  0  0  0  0  0  0  0  0
   -6.6276   -4.0058    0.2307 H   0  0  0  0  0  0  0  0  0  0  0  0
   -4.8699   -2.7545    0.0644 C   0  0  0  0  0  0  0  0  0  0  0  0
   -4.1339   -3.5650   -0.0430 H   0  0  0  0  0  0  0  0  0  0  0  0
   -2.3527    1.4994   -0.1865 C   0  0  0  0  0  0  0  0  0  0  0  0
   -0.9901    1.1281   -0.5970 C   0  0  0  0  0  0  0  0  0  0  0  0
    0.0596    2.1318   -0.4475 C   0  0  0  0  0  0  0  0  0  0  0  0
   -0.3100    3.5251   -0.2412 C   0  0  0  0  0  0  0  0  0  0  0  0
   -1.6875    3.8616    0.0159 C   0  0  0  0  0  0  0  0  0  0  0  0
   -2.6652    2.8251    0.0757 C   0  0  0  0  0  0  0  0  0  0  0  0
   -3.7002    3.0921    0.3390 H   0  0  0  0  0  0  0  0  0  0  0  0
    0.6237    4.5959   -0.2791 C   0  0  0  0  0  0  0  0  0  0  0  0
    1.6802    4.3923   -0.5044 H   0  0  0  0  0  0  0  0  0  0  0  0
    0.2306    5.9156   -0.0688 C   0  0  0  0  0  0  0  0  0  0  0  0
    0.9829    6.7177   -0.1168 H   0  0  0  0  0  0  0  0  0  0  0  0
   -1.1217    6.2363    0.1960 C   0  0  0  0  0  0  0  0  0  0  0  0
   -1.4218    7.2811    0.3626 H   0  0  0  0  0  0  0  0  0  0  0  0
   -2.0632    5.2161    0.2355 C   0  0  0  0  0  0  0  0  0  0  0  0
   -3.1226    5.4397    0.4362 H   0  0  0  0  0  0  0  0  0  0  0  0
   -0.7418   -0.0295   -1.0525 O   0  5  0  0  0  0  0  0  0  0  0  0
    1.4190    1.7239   -0.3853 C   0  0  0  0  0  3  0  0  0  0  0  0
    2.1462    2.5222   -0.1757 H   0  0  0  0  0  0  0  0  0  0  0  0
    1.8937    0.4092   -0.4305 C   0  0  0  0  0  0  0  0  0  0  0  0
    1.1405   -0.3645   -0.6000 H   0  0  0  0  0  0  0  0  0  0  0  0
    3.2033   -0.0287   -0.2116 C   0  0  0  0  0  0  0  0  0  0  0  0
    3.4845   -1.3625   -0.1343 N   0  0  0  0  0  0  0  0  0  0  0  0
    4.8653   -1.5858    0.0286 C   0  0  0  0  0  0  0  0  0  0  0  0
    5.5274   -0.3419    0.0798 C   0  0  0  0  0  0  0  0  0  0  0  0
    4.4988    0.7720   -0.0399 C   0  0  0  0  0  0  0  0  0  0  0  0
    5.5586   -2.7995    0.1291 C   0  0  0  0  0  0  0  0  0  0  0  0
    5.0419   -3.7680    0.0861 H   0  0  0  0  0  0  0  0  0  0  0  0
    6.9546   -2.7363    0.2839 C   0  0  0  0  0  0  0  0  0  0  0  0
    7.5265   -3.6728    0.3641 H   0  0  0  0  0  0  0  0  0  0  0  0
    7.6282   -1.5036    0.3363 C   0  0  0  0  0  0  0  0  0  0  0  0
    8.7211   -1.4836    0.4575 H   0  0  0  0  0  0  0  0  0  0  0  0
    6.9123   -0.2937    0.2349 C   0  0  0  0  0  0  0  0  0  0  0  0
    7.4408    0.6712    0.2780 H   0  0  0  0  0  0  0  0  0  0  0  0
    2.4737   -2.4146   -0.1711 C   0  0  0  0  0  0  0  0  0  0  0  0
    2.9527   -3.3874    0.0282 H   0  0  0  0  0  0  0  0  0  0  0  0
    1.9722   -2.4622   -1.1589 H   0  0  0  0  0  0  0  0  0  0  0  0
    1.6956   -2.2243    0.6011 H   0  0  0  0  0  0  0  0  0  0  0  0
    4.4637    1.6005    1.2675 C   0  0  0  0  0  0  0  0  0  0  0  0
    3.7069    2.4067    1.2169 H   0  0  0  0  0  0  0  0  0  0  0  0
    5.4550    2.0647    1.4408 H   0  0  0  0  0  0  0  0  0  0  0  0
    4.2244    0.9583    2.1369 H   0  0  0  0  0  0  0  0  0  0  0  0
    4.7837    1.6646   -1.2663 C   0  0  0  0  0  0  0  0  0  0  0  0
    4.0073    2.4455   -1.3833 H   0  0  0  0  0  0  0  0  0  0  0  0
    4.8109    1.0644   -2.1963 H   0  0  0  0  0  0  0  0  0  0  0  0
    5.7653    2.1656   -1.1487 H   0  0  0  0  0  0  0  0  0  0  0  0
  1  5  1  0  0  0  0
  2 14  1  1  0  0  0
  2  1  1  0  0  0  0
  3  2  1  0  0  0  0
  3  4  1  0  0  0  0
  4 12  2  0  0  0  0
  4  5  1  0  0  0  0
  5  6  2  0  0  0  0
  6  8  1  0  0  0  0
  6  7  1  0  0  0  0
  8  9  1  0  0  0  0
 10 11  1  0  0  0  0
 10  8  2  0  0  0  0
 12 10  1  0  0  0  0
 13 12  1  0  0  0  0
 14 19  1  0  0  0  0
 15 16  1  0  0  0  0
 15 14  2  0  0  0  0
 16 30  1  0  0  0  0
 16 17  2  0  0  0  0
 17 18  1  0  0  0  0
 18 19  2  0  0  0  0
 18 27  1  0  0  0  0
 19 20  1  0  0  0  0
 21 17  1  0  0  0  0
 21 23  2  0  0  0  0
 22 21  1  0  0  0  0
 23 25  1  0  0  0  0
 24 23  1  0  0  0  0
 25 27  2  0  0  0  0
 25 26  1  0  0  0  0
 27 28  1  0  0  0  0
 29 15  1  0  0  0  0
 30 31  1  0  0  0  0
 32 30  1  0  0  0  0
 32 34  2  0  0  0  0
 33 32  1  0  0  0  0
 34 35  1  0  0  0  0
 34 38  1  0  0  0  0
 35 36  1  0  0  0  0
 36 37  2  0  0  0  0
 36 39  1  0  0  0  0
 37 45  1  0  0  0  0
 38 37  1  0  0  0  0
 38 51  1  0  0  0  0
 39 41  2  0  0  0  0
 40 39  1  0  0  0  0
 41 43  1  0  0  0  0
 41 42  1  0  0  0  0
 43 44  1  0  0  0  0
 45 46  1  0  0  0  0
 45 43  2  0  0  0  0
 47 35  1  0  0  0  0
 47 48  1  0  0  0  0
 47 50  1  0  0  0  0
 49 47  1  0  0  0  0
 51 53  1  0  0  0  0
 51 54  1  0  0  0  0
 52 51  1  0  0  0  0
 55 58  1  0  0  0  0
 55 38  1  0  0  0  0
 56 55  1  0  0  0  0
 57 55  1  0  0  0  0
M  CHG  1  29  -1
M  END
