1,3
 OpenBabel05122313063D

 19 19  0  0  1  0  0  0  0  0999 V2000
   -1.4847   -1.1842   -0.3967 O   0  0  0  0  0  1  0  0  0  0  0  0
   -0.4805    2.7897   -0.1520 O   0  0  0  0  0  0  0  0  0  0  0  0
   -1.1384    1.5920   -0.0770 N   0  0  0  0  0  2  0  0  0  0  0  0
   -2.7401   -0.9201   -0.0947 C   0  0  2  0  0  3  0  0  0  0  0  0
   -3.6346   -2.0167    0.0618 C   0  0  0  0  0  0  0  0  0  0  0  0
   -4.9824   -1.8312    0.3571 C   0  0  0  0  0  0  0  0  0  0  0  0
   -5.4971   -0.5296    0.5154 C   0  0  0  0  0  0  0  0  0  0  0  0
   -4.6430    0.5612    0.3633 C   0  0  0  0  0  0  0  0  0  0  0  0
   -3.2609    0.4200    0.0587 C   0  0  0  0  0  0  0  0  0  0  0  0
   -2.4532    1.6403   -0.0687 C   0  0  0  0  0  0  0  0  0  0  0  0
   -3.1194    2.9900   -0.1512 C   0  0  0  0  0  0  0  0  0  0  0  0
   -3.2154   -3.0256   -0.0670 H   0  0  0  0  0  0  0  0  0  0  0  0
   -5.6407   -2.7066    0.4696 H   0  0  0  0  0  0  0  0  0  0  0  0
   -6.5569   -0.3701    0.7603 H   0  0  0  0  0  0  0  0  0  0  0  0
   -5.0549    1.5696    0.5040 H   0  0  0  0  0  0  0  0  0  0  0  0
   -2.4317    3.7203   -0.6110 H   0  0  0  0  0  0  0  0  0  0  0  0
   -4.0525    2.9368   -0.7398 H   0  0  0  0  0  0  0  0  0  0  0  0
   -3.3749    3.3661    0.8620 H   0  0  0  0  0  0  0  0  0  0  0  0
    0.4780    2.4871   -0.1895 H   0  0  0  0  0  0  0  0  0  0  0  0
  2  3  1  0  0  0  0
  3 10  1  0  0  0  0
  4  1  1  6  0  0  0
  4  9  1  0  0  0  0
  4  5  1  0  0  0  0
  5  6  2  0  0  0  0
  6 13  1  0  0  0  0
  6  7  1  0  0  0  0
  7 14  1  0  0  0  0
  8 15  1  0  0  0  0
  8  7  2  0  0  0  0
  9  8  1  0  0  0  0
 10  9  2  0  0  0  0
 11 10  1  0  0  0  0
 11 18  1  0  0  0  0
 12  5  1  0  0  0  0
 16 11  1  0  0  0  0
 17 11  1  0  0  0  0
 19  2  1  0  0  0  0
M  END
