1,2
 OpenBabel05122313063D

 17 17  0  0  0  0  0  0  0  0999 V2000
   -0.9753   -1.2701    1.4478 O   0  0  0  0  0  1  0  0  0  0  0  0
   -2.2753    0.3741   -0.3262 N   0  0  0  0  0  2  0  0  0  0  0  0
   -2.3390    1.2657   -1.3529 C   0  0  0  0  0  3  0  0  0  0  0  0
   -1.6184    1.0954   -2.1633 H   0  0  0  0  0  0  0  0  0  0  0  0
   -3.2411    2.3253   -1.4003 C   0  0  0  0  0  0  0  0  0  0  0  0
   -3.2263    3.0000   -2.2672 H   0  0  0  0  0  0  0  0  0  0  0  0
   -4.1317    2.5060   -0.3347 C   0  0  0  0  0  0  0  0  0  0  0  0
   -4.8541    3.3354   -0.3258 H   0  0  0  0  0  0  0  0  0  0  0  0
   -4.0777    1.5904    0.7195 C   0  0  0  0  0  0  0  0  0  0  0  0
   -4.7635    1.6768    1.5747 H   0  0  0  0  0  0  0  0  0  0  0  0
   -3.1629    0.5209    0.7073 C   0  0  0  0  0  0  0  0  0  0  0  0
   -3.1718   -0.4744    1.8361 C   0  0  0  0  0  0  0  0  0  0  0  0
   -3.5292   -1.4498    1.4389 H   0  0  0  0  0  0  0  0  0  0  0  0
   -3.8800   -0.1351    2.6170 H   0  0  0  0  0  0  0  0  0  0  0  0
   -1.7820   -0.7127    2.4311 C   0  0  0  0  0  0  0  0  0  0  0  0
   -1.3372    0.2378    2.8176 H   0  0  0  0  0  0  0  0  0  0  0  0
   -1.8458   -1.4148    3.2928 H   0  0  0  0  0  0  0  0  0  0  0  0
  1 15  1  0  0  0  0
  2 11  1  0  0  0  0
  3  2  1  0  0  0  0
  4  3  1  0  0  0  0
  5  3  1  0  0  0  0
  5  7  2  0  0  0  0
  6  5  1  0  0  0  0
  7  8  1  0  0  0  0
  7  9  1  0  0  0  0
  9 10  1  0  0  0  0
 11  9  2  0  0  0  0
 11 12  1  0  0  0  0
 12 15  1  0  0  0  0
 12 14  1  0  0  0  0
 13 12  1  0  0  0  0
 15 16  1  0  0  0  0
 15 17  1  0  0  0  0
M  END
