27,28
 OpenBabel05122313063D

 30 31  0  0  0  0  0  0  0  0999 V2000
   -3.3091    1.7694    2.7102 Se  0  0  0  0  0  0  0  0  0  0  0  0
   -7.3239   -1.4185    0.0385 Se  0  0  0  0  0  0  0  0  0  0  0  0
   -3.1421   -0.9991   -0.4799 C   0  0  0  0  0  0  0  0  0  0  0  0
   -4.5001   -1.4314   -0.5603 C   0  0  0  0  0  0  0  0  0  0  0  0
   -4.7680   -2.1990   -1.3029 H   0  0  0  0  0  0  0  0  0  0  0  0
   -5.4777   -0.9007    0.2711 C   0  0  0  0  0  0  0  0  0  0  0  0
   -5.1106    0.0701    1.2394 C   0  0  0  0  0  0  0  0  0  0  0  0
   -5.8901    0.4948    1.8904 H   0  0  0  0  0  0  0  0  0  0  0  0
   -3.7894    0.4888    1.3758 C   0  0  0  0  0  0  0  0  0  0  0  0
   -2.7470   -0.0090    0.5007 C   0  0  0  0  0  0  0  0  0  0  0  0
   -2.2367   -1.6006   -1.4215 C   0  0  0  0  0  3  0  0  0  0  0  0
   -2.6909   -2.3844   -2.0686 H   0  0  0  0  0  0  0  0  0  0  0  0
   -0.2333   -2.0183   -2.6717 C   0  0  0  0  0  0  0  0  0  0  0  0
   -0.1951   -1.3611   -3.5696 H   0  0  0  0  0  0  0  0  0  0  0  0
   -0.7712   -2.9469   -2.9704 H   0  0  0  0  0  0  0  0  0  0  0  0
    1.1795   -2.3214   -2.2216 C   0  0  0  0  0  0  0  0  0  0  0  0
    1.4083   -3.2576   -1.1939 C   0  0  0  0  0  0  0  0  0  0  0  0
    0.5565   -3.8005   -0.7544 H   0  0  0  0  0  0  0  0  0  0  0  0
    2.7040   -3.4802   -0.7103 C   0  0  0  0  0  0  0  0  0  0  0  0
    2.8713   -4.1948    0.1085 H   0  0  0  0  0  0  0  0  0  0  0  0
    3.7886   -2.7689   -1.2494 C   0  0  0  0  0  0  0  0  0  0  0  0
    4.8020   -2.9266   -0.8520 H   0  0  0  0  0  0  0  0  0  0  0  0
    3.5729   -1.8398   -2.2769 C   0  0  0  0  0  0  0  0  0  0  0  0
    4.4180   -1.2703   -2.6914 H   0  0  0  0  0  0  0  0  0  0  0  0
    2.2731   -1.6165   -2.7575 C   0  0  0  0  0  0  0  0  0  0  0  0
    2.1009   -0.8759   -3.5550 H   0  0  0  0  0  0  0  0  0  0  0  0
   -0.9733   -1.3238   -1.6161 N   0  0  0  0  0  2  0  0  0  0  0  0
   -1.5401    0.4417    0.6389 O   0  5  0  0  0  0  0  0  0  0  0  0
   -7.4493   -2.1006    1.3563 H   0  0  0  0  0  0  0  0  0  0  0  0
   -1.9016    1.7297    2.2260 H   0  0  0  0  0  0  0  0  0  0  0  0
  2  6  1  0  0  0  0
  2 29  1  0  0  0  0
  3 10  1  0  0  0  0
  4  3  2  0  0  0  0
  4  6  1  0  0  0  0
  5  4  1  0  0  0  0
  6  7  2  0  0  0  0
  7  9  1  0  0  0  0
  7  8  1  0  0  0  0
  9  1  1  0  0  0  0
 10 28  1  0  0  0  0
 10  9  2  0  0  0  0
 11  3  1  0  0  0  0
 12 11  1  0  0  0  0
 13 16  1  0  0  0  0
 13 27  1  0  0  0  0
 14 13  1  0  0  0  0
 15 13  1  0  0  0  0
 16 17  1  0  0  0  0
 17 18  1  0  0  0  0
 17 19  2  0  0  0  0
 19 20  1  0  0  0  0
 21 22  1  0  0  0  0
 21 19  1  0  0  0  0
 23 21  2  0  0  0  0
 24 23  1  0  0  0  0
 25 23  1  0  0  0  0
 25 16  2  0  0  0  0
 26 25  1  0  0  0  0
 27 11  1  0  0  0  0
 30  1  1  0  0  0  0
M  CHG  1  28  -1
M  END
