1,3
 OpenBabel05122313063D

 23 24  0  0  0  0  0  0  0  0999 V2000
    0.0968   -1.2959   -1.9923 O   0  5  0  0  0  0  0  0  0  0  0  0
    1.9911   -2.0667   -2.9706 O   0  0  0  0  0  0  0  0  0  0  0  0
    1.5079   -0.1081   -0.0228 N   0  0  0  0  0  2  0  0  0  0  0  0
    2.1923    0.5257    0.9552 C   0  0  0  0  0  3  0  0  0  0  0  0
    1.5839    1.0567    1.7040 H   0  0  0  0  0  0  0  0  0  0  0  0
    3.5856    0.4959    1.0234 C   0  0  0  0  0  0  0  0  0  0  0  0
    4.0876    1.0044    1.8583 H   0  0  0  0  0  0  0  0  0  0  0  0
    4.3319   -0.2077    0.0468 C   0  0  0  0  0  0  0  0  0  0  0  0
    3.5913   -0.8512   -0.9666 C   0  0  0  0  0  0  0  0  0  0  0  0
    4.0556   -1.4055   -1.7951 H   0  0  0  0  0  0  0  0  0  0  0  0
    2.1961   -0.7842   -0.9759 C   0  0  0  0  0  0  0  0  0  0  0  0
    1.3862   -1.4587   -2.0879 C   0  0  0  0  0  0  0  0  0  0  0  0
    5.8116   -0.2652    0.0865 C   0  0  0  0  0  0  0  0  0  0  0  0
    6.5669    0.7872    0.6532 C   0  0  0  0  0  0  0  0  0  0  0  0
    6.0533    1.6774    1.0459 H   0  0  0  0  0  0  0  0  0  0  0  0
    7.9660    0.7294    0.6867 C   0  0  0  0  0  0  0  0  0  0  0  0
    8.5359    1.5643    1.1216 H   0  0  0  0  0  0  0  0  0  0  0  0
    8.6395   -0.3840    0.1590 C   0  0  0  0  0  0  0  0  0  0  0  0
    9.7386   -0.4301    0.1870 H   0  0  0  0  0  0  0  0  0  0  0  0
    7.9025   -1.4368   -0.4066 C   0  0  0  0  0  0  0  0  0  0  0  0
    8.4215   -2.3158   -0.8177 H   0  0  0  0  0  0  0  0  0  0  0  0
    6.5039   -1.3773   -0.4458 C   0  0  0  0  0  0  0  0  0  0  0  0
    5.9364   -2.2161   -0.8750 H   0  0  0  0  0  0  0  0  0  0  0  0
  2 12  2  0  0  0  0
  3  4  1  0  0  0  0
  4  6  1  0  0  0  0
  4  5  1  0  0  0  0
  6  7  1  0  0  0  0
  8 13  1  0  0  0  0
  8  6  2  0  0  0  0
  9  8  1  0  0  0  0
 10  9  1  0  0  0  0
 11  9  2  0  0  0  0
 11  3  1  0  0  0  0
 12  1  1  0  0  0  0
 12 11  1  0  0  0  0
 13 14  1  0  0  0  0
 14 16  2  0  0  0  0
 14 15  1  0  0  0  0
 16 17  1  0  0  0  0
 18 19  1  0  0  0  0
 18 16  1  0  0  0  0
 20 18  2  0  0  0  0
 21 20  1  0  0  0  0
 22 20  1  0  0  0  0
 22 13  2  0  0  0  0
 23 22  1  0  0  0  0
M  CHG  1   1  -1
M  END
