1,4
 OpenBabel05122313063D

 36 37  0  0  1  0  0  0  0  0999 V2000
    1.4538   -1.2599   -0.4774 O   0  5  0  0  0  0  0  0  0  0  0  0
   -3.1204   -1.9140    1.8774 O   0  0  0  0  0  0  0  0  0  0  0  0
   -3.5084   -1.4514   -2.3474 O   0  0  0  0  0  0  0  0  0  0  0  0
   -1.4551   -1.1668   -0.2243 N   0  0  0  0  0  2  0  0  0  0  0  0
    1.2364   -2.5251   -0.7168 C   0  0  0  0  0  0  0  0  0  0  0  0
    2.3640   -3.3490   -1.0278 C   0  0  0  0  0  0  0  0  0  0  0  0
    2.2266   -4.7115   -1.2659 C   0  0  0  0  0  0  0  0  0  0  0  0
    0.9571   -5.3359   -1.2155 C   0  0  0  0  0  0  0  0  0  0  0  0
   -0.1569   -4.5570   -0.9329 C   0  0  0  0  0  3  0  0  0  0  0  0
   -0.0582   -3.1562   -0.6894 C   0  0  0  0  0  0  0  0  0  0  0  0
   -1.2808   -2.4449   -0.4437 C   0  0  0  0  0  0  0  0  0  0  0  0
   -2.8298   -0.6527   -0.1125 C   0  0  2  0  0  0  0  0  0  0  0  0
   -3.7821   -1.5897    0.6631 C   0  0  2  0  0  0  0  0  0  0  0  0
   -5.1216   -0.9105    0.8921 C   0  0  0  0  0  0  0  0  0  0  0  0
   -6.2021   -1.1289    0.0154 C   0  0  0  0  0  0  0  0  0  0  0  0
   -7.4237   -0.4686    0.2155 C   0  0  0  0  0  0  0  0  0  0  0  0
   -7.5775    0.4149    1.2963 C   0  0  0  0  0  0  0  0  0  0  0  0
   -6.5046    0.6349    2.1756 C   0  0  0  0  0  0  0  0  0  0  0  0
   -5.2823   -0.0231    1.9743 C   0  0  0  0  0  0  0  0  0  0  0  0
   -3.3404   -0.3091   -1.5255 C   0  0  0  0  0  0  0  0  0  0  0  0
    3.3492   -2.8632   -1.0752 H   0  0  0  0  0  0  0  0  0  0  0  0
   -3.7417   -2.4461    2.4082 H   0  0  0  0  0  0  0  0  0  0  0  0
    3.1219   -5.3093   -1.4985 H   0  0  0  0  0  0  0  0  0  0  0  0
   -2.6219   -1.7331   -2.6400 H   0  0  0  0  0  0  0  0  0  0  0  0
    0.8557   -6.4145   -1.4011 H   0  0  0  0  0  0  0  0  0  0  0  0
   -1.1574   -5.0180   -0.8968 H   0  0  0  0  0  0  0  0  0  0  0  0
   -2.1850   -3.0800   -0.4517 H   0  0  0  0  0  0  0  0  0  0  0  0
   -2.7685    0.3006    0.4455 H   0  0  0  0  0  0  0  0  0  0  0  0
   -3.9739   -2.5007    0.0452 H   0  0  0  0  0  0  0  0  0  0  0  0
   -6.0733   -1.8156   -0.8368 H   0  0  0  0  0  0  0  0  0  0  0  0
   -8.2622   -0.6472   -0.4749 H   0  0  0  0  0  0  0  0  0  0  0  0
   -8.5367    0.9307    1.4553 H   0  0  0  0  0  0  0  0  0  0  0  0
   -6.6209    1.3256    3.0249 H   0  0  0  0  0  0  0  0  0  0  0  0
   -4.4364    0.1341    2.6606 H   0  0  0  0  0  0  0  0  0  0  0  0
   -4.3337    0.1750   -1.4369 H   0  0  0  0  0  0  0  0  0  0  0  0
   -2.6432    0.4369   -1.9678 H   0  0  0  0  0  0  0  0  0  0  0  0
  2 22  1  0  0  0  0
  3 20  1  0  0  0  0
  4 12  1  0  0  0  0
  5 10  1  0  0  0  0
  5  1  1  0  0  0  0
  6  5  2  0  0  0  0
  7  8  2  0  0  0  0
  7  6  1  0  0  0  0
  8  9  1  0  0  0  0
  9 26  1  0  0  0  0
  9 10  1  0  0  0  0
 10 11  2  0  0  0  0
 11  4  1  0  0  0  0
 12 28  1  1  0  0  0
 12 13  1  0  0  0  0
 13 29  1  6  0  0  0
 13 14  1  0  0  0  0
 13  2  1  0  0  0  0
 14 19  1  0  0  0  0
 15 16  1  0  0  0  0
 15 14  2  0  0  0  0
 16 17  2  0  0  0  0
 17 32  1  0  0  0  0
 17 18  1  0  0  0  0
 18 33  1  0  0  0  0
 19 18  2  0  0  0  0
 19 34  1  0  0  0  0
 20 35  1  0  0  0  0
 20 12  1  0  0  0  0
 21  6  1  0  0  0  0
 23  7  1  0  0  0  0
 24  3  1  0  0  0  0
 25  8  1  0  0  0  0
 27 11  1  0  0  0  0
 30 15  1  0  0  0  0
 31 16  1  0  0  0  0
 36 20  1  0  0  0  0
M  CHG  1   1  -1
M  END
