1,3
 OpenBabel05122313063D

 28 28  0  0  1  0  0  0  0  0999 V2000
   -1.4004    1.4186    0.1880 O   0  5  0  0  0  0  0  0  0  0  0  0
   -2.8435   -4.3024    0.1847 O   0  0  0  0  0  0  0  0  0  0  0  0
   -1.2926   -1.4937    0.0761 N   0  0  0  0  0  2  0  0  0  0  0  0
   -2.5880   -1.3079    0.0503 C   0  0  0  0  0  0  0  0  0  0  0  0
   -3.3199   -0.0704    0.1012 C   0  0  0  0  0  0  0  0  0  0  0  0
   -4.7419   -0.1566    0.0916 C   0  0  0  0  0  3  0  0  0  0  0  0
   -5.5465    0.9727    0.1820 C   0  0  0  0  0  0  0  0  0  0  0  0
   -4.9304    2.2410    0.2960 C   0  0  0  0  0  0  0  0  0  0  0  0
   -3.5447    2.3649    0.3049 C   0  0  0  0  0  0  0  0  0  0  0  0
   -2.6997    1.2218    0.1944 C   0  0  0  0  0  0  0  0  0  0  0  0
   -0.7827   -2.8793    0.0222 C   0  0  1  0  0  0  0  0  0  0  0  0
   -1.6237   -3.9066    0.7999 C   0  0  0  0  0  0  0  0  0  0  0  0
   -0.5305   -3.2753   -1.4451 C   0  0  0  0  0  0  0  0  0  0  0  0
    0.2355   -4.5876   -1.6128 C   0  0  0  0  0  0  0  0  0  0  0  0
   -3.2133   -2.2214   -0.0016 H   0  0  0  0  0  0  0  0  0  0  0  0
   -2.6213   -4.6870   -0.6837 H   0  0  0  0  0  0  0  0  0  0  0  0
   -5.1976   -1.1569    0.0188 H   0  0  0  0  0  0  0  0  0  0  0  0
   -6.6419    0.8820    0.1744 H   0  0  0  0  0  0  0  0  0  0  0  0
   -5.5517    3.1464    0.3803 H   0  0  0  0  0  0  0  0  0  0  0  0
   -3.0589    3.3472    0.3994 H   0  0  0  0  0  0  0  0  0  0  0  0
    0.2078   -2.8467    0.5170 H   0  0  0  0  0  0  0  0  0  0  0  0
   -0.9718   -4.7899    0.9979 H   0  0  0  0  0  0  0  0  0  0  0  0
   -1.8962   -3.4843    1.7887 H   0  0  0  0  0  0  0  0  0  0  0  0
   -1.5061   -3.3118   -1.9822 H   0  0  0  0  0  0  0  0  0  0  0  0
    0.0424   -2.4479   -1.9095 H   0  0  0  0  0  0  0  0  0  0  0  0
    0.4549   -4.7853   -2.6806 H   0  0  0  0  0  0  0  0  0  0  0  0
   -0.3222   -5.4662   -1.2250 H   0  0  0  0  0  0  0  0  0  0  0  0
    1.2053   -4.5479   -1.0756 H   0  0  0  0  0  0  0  0  0  0  0  0
  1 10  1  0  0  0  0
  2 12  1  0  0  0  0
  4  3  1  0  0  0  0
  4  5  2  0  0  0  0
  5 10  1  0  0  0  0
  6  5  1  0  0  0  0
  6  7  1  0  0  0  0
  7  8  2  0  0  0  0
  8  9  1  0  0  0  0
  8 19  1  0  0  0  0
  9 20  1  0  0  0  0
 10  9  2  0  0  0  0
 11  3  1  0  0  0  0
 11 21  1  1  0  0  0
 11 12  1  0  0  0  0
 12 22  1  0  0  0  0
 12 23  1  0  0  0  0
 13 11  1  0  0  0  0
 14 13  1  0  0  0  0
 14 27  1  0  0  0  0
 14 28  1  0  0  0  0
 15  4  1  0  0  0  0
 16  2  1  0  0  0  0
 17  6  1  0  0  0  0
 18  7  1  0  0  0  0
 24 13  1  0  0  0  0
 25 13  1  0  0  0  0
 26 14  1  0  0  0  0
M  CHG  1   1  -1
M  END
