1,5
 OpenBabel05122313063D

 31 32  0  0  1  0  0  0  0  0999 V2000
   -0.4420    1.9576   -0.1378 O   0  0  0  0  0  1  0  0  0  0  0  0
    0.3975    2.9591   -0.1235 C   0  0  2  0  0  3  0  0  0  0  0  0
    1.8047    2.8408    0.1631 C   0  0  0  0  0  0  0  0  0  0  0  0
    2.4222    1.6035    0.5464 C   0  0  0  0  0  0  0  0  0  0  0  0
    1.8867    0.4141    0.6316 N   0  0  0  0  0  2  0  0  0  0  0  0
    2.7455   -0.6713    1.1979 C   0  0  2  0  0  0  0  0  0  0  0  0
    2.9994   -0.4224    2.6848 C   0  0  0  0  0  0  0  0  0  0  0  0
    2.0336   -0.3389    3.2205 H   0  0  0  0  0  0  0  0  0  0  0  0
    3.5671    0.5127    2.8689 H   0  0  0  0  0  0  0  0  0  0  0  0
    3.5698   -1.2642    3.1243 H   0  0  0  0  0  0  0  0  0  0  0  0
    3.9829   -0.8745    0.3351 C   0  0  0  0  0  0  0  0  0  0  0  0
    3.8121   -1.4424   -0.9463 C   0  0  0  0  0  0  0  0  0  0  0  0
    4.9076   -1.6223   -1.8001 C   0  0  0  0  0  0  0  0  0  0  0  0
    6.1959   -1.2414   -1.3861 C   0  0  0  0  0  0  0  0  0  0  0  0
    6.3777   -0.6852   -0.1121 C   0  0  0  0  0  0  0  0  0  0  0  0
    5.2775   -0.5035    0.7438 C   0  0  0  0  0  0  0  0  0  0  0  0
    5.4391   -0.0755    1.7444 H   0  0  0  0  0  0  0  0  0  0  0  0
    7.3842   -0.3917    0.2237 H   0  0  0  0  0  0  0  0  0  0  0  0
    7.0576   -1.3839   -2.0558 H   0  0  0  0  0  0  0  0  0  0  0  0
    4.7579   -2.0681   -2.7954 H   0  0  0  0  0  0  0  0  0  0  0  0
    2.8005   -1.7452   -1.2600 H   0  0  0  0  0  0  0  0  0  0  0  0
    2.1331   -1.5867    1.0999 H   0  0  0  0  0  0  0  0  0  0  0  0
    3.4941    1.6861    0.8174 H   0  0  0  0  0  0  0  0  0  0  0  0
    2.6237    4.0063    0.1291 C   0  0  0  0  0  0  0  0  0  0  0  0
    2.1041    5.2594   -0.1673 C   0  0  0  0  0  0  0  0  0  0  0  0
    0.7174    5.3768   -0.4297 C   0  0  0  0  0  0  0  0  0  0  0  0
   -0.1145    4.2634   -0.4040 C   0  0  0  0  0  0  0  0  0  0  0  0
   -1.1922    4.3498   -0.6055 H   0  0  0  0  0  0  0  0  0  0  0  0
    0.2867    6.3642   -0.6590 H   0  0  0  0  0  0  0  0  0  0  0  0
    2.7546    6.1451   -0.1912 H   0  0  0  0  0  0  0  0  0  0  0  0
    3.6969    3.8906    0.3507 H   0  0  0  0  0  0  0  0  0  0  0  0
  2  1  1  1  0  0  0
  2  3  1  0  0  0  0
  3  4  2  0  0  0  0
  4  5  1  0  0  0  0
  4 23  1  0  0  0  0
  5  6  1  0  0  0  0
  6 22  1  6  0  0  0
  6  7  1  0  0  0  0
  7  9  1  0  0  0  0
  7 10  1  0  0  0  0
  7  8  1  0  0  0  0
 11 16  1  0  0  0  0
 11  6  1  0  0  0  0
 12 11  2  0  0  0  0
 13 14  2  0  0  0  0
 13 12  1  0  0  0  0
 14 15  1  0  0  0  0
 15 18  1  0  0  0  0
 15 16  2  0  0  0  0
 16 17  1  0  0  0  0
 19 14  1  0  0  0  0
 20 13  1  0  0  0  0
 21 12  1  0  0  0  0
 24  3  1  0  0  0  0
 24 31  1  0  0  0  0
 25 24  2  0  0  0  0
 26 27  2  0  0  0  0
 26 25  1  0  0  0  0
 27  2  1  0  0  0  0
 28 27  1  0  0  0  0
 29 26  1  0  0  0  0
 30 25  1  0  0  0  0
M  END
