1,2
 OpenBabel05122313063D

 25 26  0  0  0  0  0  0  0  0999 V2000
    0.5702   -0.7204   -1.7302 O   0  5  0  0  0  0  0  0  0  0  0  0
   -1.2785   -0.3682    0.3214 N   0  0  0  0  0  2  0  0  0  0  0  0
   -4.3831   -0.8005    1.3793 O   0  0  0  0  0  0  0  0  0  0  0  0
    0.3607   -1.9933   -1.5525 C   0  0  0  0  0  0  0  0  0  0  0  0
   -1.4569   -1.6478    0.1396 C   0  0  0  0  0  3  0  0  0  0  0  0
   -2.3338   -2.1214    0.6210 H   0  0  0  0  0  0  0  0  0  0  0  0
   -3.2047   -0.3675    1.9406 C   0  0  0  0  0  0  0  0  0  0  0  0
   -0.6149   -2.5202   -0.6314 C   0  0  0  0  0  0  0  0  0  0  0  0
    1.0873   -2.9267   -2.3531 C   0  0  0  0  0  0  0  0  0  0  0  0
    1.8337   -2.5163   -3.0486 H   0  0  0  0  0  0  0  0  0  0  0  0
   -2.2684    0.4143    1.0907 C   0  0  0  0  0  0  0  0  0  0  0  0
   -1.6924    1.1092    1.7286 H   0  0  0  0  0  0  0  0  0  0  0  0
   -2.8354    1.0333    0.3641 H   0  0  0  0  0  0  0  0  0  0  0  0
   -0.8292   -3.9225   -0.5574 C   0  0  0  0  0  0  0  0  0  0  0  0
   -1.5979   -4.2962    0.1385 H   0  0  0  0  0  0  0  0  0  0  0  0
    0.8632   -4.2961   -2.2419 C   0  0  0  0  0  0  0  0  0  0  0  0
    1.4491   -4.9887   -2.8668 H   0  0  0  0  0  0  0  0  0  0  0  0
   -5.0510   -1.5212    2.3248 C   0  0  0  0  0  0  0  0  0  0  0  0
   -6.0238   -1.9219    2.0225 H   0  0  0  0  0  0  0  0  0  0  0  0
   -0.0985   -4.8116   -1.3393 C   0  0  0  0  0  0  0  0  0  0  0  0
   -0.2682   -5.8952   -1.2635 H   0  0  0  0  0  0  0  0  0  0  0  0
   -3.1269   -0.8211    3.2413 C   0  0  0  0  0  0  0  0  0  0  0  0
   -2.3009   -0.6314    3.9361 H   0  0  0  0  0  0  0  0  0  0  0  0
   -4.3250   -1.5696    3.4916 C   0  0  0  0  0  0  0  0  0  0  0  0
   -4.6165   -2.0708    4.4210 H   0  0  0  0  0  0  0  0  0  0  0  0
  1  4  1  0  0  0  0
  2 11  1  0  0  0  0
  3  7  1  0  0  0  0
  3 18  1  0  0  0  0
  4  8  1  0  0  0  0
  5  2  1  0  0  0  0
  5  6  1  0  0  0  0
  7 22  2  0  0  0  0
  8 14  2  0  0  0  0
  8  5  1  0  0  0  0
  9 16  1  0  0  0  0
  9  4  2  0  0  0  0
 10  9  1  0  0  0  0
 11 12  1  0  0  0  0
 11  7  1  0  0  0  0
 13 11  1  0  0  0  0
 14 15  1  0  0  0  0
 16 20  2  0  0  0  0
 17 16  1  0  0  0  0
 18 24  2  0  0  0  0
 19 18  1  0  0  0  0
 20 21  1  0  0  0  0
 20 14  1  0  0  0  0
 22 24  1  0  0  0  0
 22 23  1  0  0  0  0
 24 25  1  0  0  0  0
M  CHG  1   1  -1
M  END
