1,4
 OpenBabel05122313063D

 16 16  0  0  1  0  0  0  0  0999 V2000
    2.0085   -0.3174   -0.0112 N   0  0  0  0  0  2  0  0  0  0  0  0
    2.2744   -1.5751   -0.4486 C   0  0  2  0  0  3  0  0  0  0  0  0
    1.1170   -2.5604   -0.4079 C   0  0  0  0  0  0  0  0  0  0  0  0
   -0.0242   -2.0242   -0.0431 O   0  5  0  0  0  0  0  0  0  0  0  0
    1.2968   -3.7447   -0.6632 O   0  0  0  0  0  0  0  0  0  0  0  0
    3.5512   -1.9566   -0.8722 C   0  0  0  0  0  0  0  0  0  0  0  0
    3.6814   -2.9979   -1.2015 H   0  0  0  0  0  0  0  0  0  0  0  0
    4.5786   -1.0056   -0.8657 C   0  0  0  0  0  0  0  0  0  0  0  0
    5.5871   -1.2615   -1.2232 H   0  0  0  0  0  0  0  0  0  0  0  0
    4.3049    0.2784   -0.3757 C   0  0  0  0  0  0  0  0  0  0  0  0
    5.0721    1.0631   -0.3196 H   0  0  0  0  0  0  0  0  0  0  0  0
    3.0137    0.5863    0.0821 C   0  0  0  0  0  0  0  0  0  0  0  0
    2.7860    1.9391    0.7097 C   0  0  0  0  0  0  0  0  0  0  0  0
    2.0122    1.8525    1.8055 O   0  0  0  0  0  0  0  0  0  0  0  0
    1.8119    2.7749    2.0773 H   0  0  0  0  0  0  0  0  0  0  0  0
    3.3299    2.9481    0.3094 O   0  0  0  0  0  0  0  0  0  0  0  0
  1 12  1  0  0  0  0
  2  3  1  1  0  0  0
  2  1  1  0  0  0  0
  3  4  1  0  0  0  0
  5  3  2  0  0  0  0
  6  8  2  0  0  0  0
  6  2  1  0  0  0  0
  7  6  1  0  0  0  0
  8 10  1  0  0  0  0
  9  8  1  0  0  0  0
 10 11  1  0  0  0  0
 10 12  2  0  0  0  0
 12 13  1  0  0  0  0
 13 14  1  0  0  0  0
 14 15  1  0  0  0  0
 16 13  2  0  0  0  0
M  CHG  1   4  -1
M  END
