2,12
 OpenBabel05122313063D

 26 27  0  0  1  0  0  0  0  0999 V2000
    3.5491   -1.4407   -0.1777 N   0  0  0  0  0  0  0  0  0  0  0  0
    2.3926   -0.7251   -0.2512 N   0  0  0  0  0  2  0  0  0  0  0  0
    2.7459    0.5664   -0.5392 C   0  0  1  0  0  3  0  0  0  0  0  0
    4.1605    0.6489   -0.6299 C   0  0  0  0  0  0  0  0  0  0  0  0
    4.7549    1.5310   -0.8821 H   0  0  0  0  0  0  0  0  0  0  0  0
    4.6269   -0.6355   -0.3857 C   0  0  0  0  0  0  0  0  0  0  0  0
    5.6415   -1.0456   -0.3540 H   0  0  0  0  0  0  0  0  0  0  0  0
    3.5805   -2.8625    0.1257 C   0  0  0  0  0  0  0  0  0  0  0  0
    4.6151   -3.2131   -0.0380 H   0  0  0  0  0  0  0  0  0  0  0  0
    2.8843   -3.3889   -0.5571 H   0  0  0  0  0  0  0  0  0  0  0  0
    3.2732   -3.0525    1.1711 H   0  0  0  0  0  0  0  0  0  0  0  0
    0.0005    0.0826   -1.1518 O   0  5  0  0  0  0  0  0  0  0  0  0
    0.4251    1.3393   -1.0644 C   0  0  0  0  0  0  0  0  0  0  0  0
    1.7727    1.6403   -0.7152 C   0  0  0  0  0  0  0  0  0  0  0  0
    2.1804    2.9934   -0.6090 C   0  0  0  0  0  0  0  0  0  0  0  0
    3.2166    3.2103   -0.3188 H   0  0  0  0  0  0  0  0  0  0  0  0
    1.2726    4.0356   -0.8496 C   0  0  0  0  0  0  0  0  0  0  0  0
   -0.0608    3.7287   -1.2126 C   0  0  0  0  0  0  0  0  0  0  0  0
   -0.7556    4.5615   -1.3944 H   0  0  0  0  0  0  0  0  0  0  0  0
   -0.4729    2.4047   -1.3215 C   0  0  0  0  0  0  0  0  0  0  0  0
   -1.5073    2.1466   -1.5898 H   0  0  0  0  0  0  0  0  0  0  0  0
    1.5748    5.3641   -0.7548 O   0  0  0  0  0  0  0  0  0  0  0  0
    2.8955    5.7230   -0.4115 C   0  0  0  0  0  0  0  0  0  0  0  0
    3.1835    5.3442    0.5964 H   0  0  0  0  0  0  0  0  0  0  0  0
    2.9310    6.8284   -0.4007 H   0  0  0  0  0  0  0  0  0  0  0  0
    3.6371    5.3462   -1.1530 H   0  0  0  0  0  0  0  0  0  0  0  0
  1  8  1  0  0  0  0
  2  1  1  0  0  0  0
  3 14  1  6  0  0  0
  3  2  1  0  0  0  0
  4  3  1  0  0  0  0
  4  6  2  0  0  0  0
  5  4  1  0  0  0  0
  6  7  1  0  0  0  0
  6  1  1  0  0  0  0
  8 11  1  0  0  0  0
  9  8  1  0  0  0  0
 10  8  1  0  0  0  0
 12 13  1  0  0  0  0
 13 14  1  0  0  0  0
 14 15  2  0  0  0  0
 15 16  1  0  0  0  0
 17 22  1  0  0  0  0
 17 15  1  0  0  0  0
 18 17  2  0  0  0  0
 19 18  1  0  0  0  0
 20 18  1  0  0  0  0
 20 13  2  0  0  0  0
 21 20  1  0  0  0  0
 22 23  1  0  0  0  0
 23 25  1  0  0  0  0
 23 24  1  0  0  0  0
 26 23  1  0  0  0  0
M  CHG  1  12  -1
M  END
