1,5
 OpenBabel05122313063D

 14 13  0  0  0  0  0  0  0  0999 V2000
    0.2120    0.5790   -1.2954 O   0  5  0  0  0  0  0  0  0  0  0  0
    1.9552    0.8193   -2.6651 O   0  0  0  0  0  0  0  0  0  0  0  0
    3.6421   -1.3037   -0.9188 O   0  5  0  0  0  0  0  0  0  0  0  0
    2.5862   -1.2763    1.1072 O   0  0  0  0  0  0  0  0  0  0  0  0
    1.5340    0.9470    0.9133 N   0  0  0  0  0  0  0  0  0  0  0  0
    2.3978    0.6981   -0.2779 C   0  0  0  0  0  0  0  0  0  0  0  0
    1.5282    0.7109   -1.5331 C   0  0  0  0  0  0  0  0  0  0  0  0
    2.9660   -0.7992   -0.0391 C   0  0  0  0  0  0  0  0  0  0  0  0
    3.5717    1.6624   -0.4073 C   0  0  0  0  0  0  0  0  0  0  0  0
    1.7404    1.8689    1.3283 H   0  0  0  0  0  0  0  0  0  0  0  0
    1.9152    0.1470    1.5276 H   0  0  0  0  0  0  0  0  0  0  0  0
    3.2344    2.7116   -0.5433 H   0  0  0  0  0  0  0  0  0  0  0  0
    4.1403    1.3665   -1.3089 H   0  0  0  0  0  0  0  0  0  0  0  0
    4.2468    1.5996    0.4691 H   0  0  0  0  0  0  0  0  0  0  0  0
  2  7  2  0  0  0  0
  3  8  1  0  0  0  0
  5 10  1  0  0  0  0
  5 11  1  0  0  0  0
  6  8  1  0  0  0  0
  6  5  1  0  0  0  0
  7  1  1  0  0  0  0
  7  6  1  0  0  0  0
  8  4  2  0  0  0  0
  9  6  1  0  0  0  0
  9 14  1  0  0  0  0
 12  9  1  0  0  0  0
 13  9  1  0  0  0  0
M  CHG  2   1  -1   3  -1
M  END
