1,26
 OpenBabel05122313063D

 27 29  0  0  1  0  0  0  0  0999 V2000
   -1.4551    1.0169   -0.0599 N   0  0  0  0  0  2  0  0  0  0  0  0
   -2.5273    0.2025   -0.3265 N   0  0  0  0  0  0  0  0  0  0  0  0
    0.2786    3.4408    0.6216 C   0  0  0  0  0  0  0  0  0  0  0  0
    0.8935    4.7025    0.9216 C   0  0  0  0  0  0  0  0  0  0  0  0
    1.9746    4.6803    1.1229 H   0  0  0  0  0  0  0  0  0  0  0  0
    0.1736    5.8879    0.9597 C   0  0  0  0  0  0  0  0  0  0  0  0
    0.6953    6.8291    1.1949 H   0  0  0  0  0  0  0  0  0  0  0  0
   -1.2203    5.9033    0.7022 C   0  0  0  0  0  0  0  0  0  0  0  0
   -1.7854    6.8456    0.7338 H   0  0  0  0  0  0  0  0  0  0  0  0
   -1.8619    4.7085    0.4096 C   0  0  0  0  0  0  0  0  0  0  0  0
   -2.9429    4.6967    0.2077 H   0  0  0  0  0  0  0  0  0  0  0  0
   -1.1513    3.4736    0.3604 C   0  0  0  0  0  0  0  0  0  0  0  0
   -1.8788    2.2764    0.0617 C   0  0  2  0  0  3  0  0  0  0  0  0
   -3.5773    0.9847   -0.3583 C   0  0  0  0  0  0  0  0  0  0  0  0
   -4.9636    0.6057   -0.5794 C   0  0  0  0  0  0  0  0  0  0  0  0
   -5.2937   -0.7692   -0.6458 C   0  0  0  0  0  0  0  0  0  0  0  0
   -4.5025   -1.5216   -0.5112 H   0  0  0  0  0  0  0  0  0  0  0  0
   -6.6210   -1.1523   -0.8618 C   0  0  0  0  0  0  0  0  0  0  0  0
   -6.8754   -2.2216   -0.9100 H   0  0  0  0  0  0  0  0  0  0  0  0
   -7.6264   -0.1800   -1.0103 C   0  0  0  0  0  0  0  0  0  0  0  0
   -8.6692   -0.4880   -1.1793 H   0  0  0  0  0  0  0  0  0  0  0  0
   -7.3001    1.1841   -0.9383 C   0  0  0  0  0  0  0  0  0  0  0  0
   -8.0857    1.9460   -1.0519 H   0  0  0  0  0  0  0  0  0  0  0  0
   -5.9745    1.5815   -0.7230 C   0  0  0  0  0  0  0  0  0  0  0  0
   -5.7128    2.6480   -0.6684 H   0  0  0  0  0  0  0  0  0  0  0  0
    1.0343    2.3843    0.6009 O   0  5  0  0  0  0  0  0  0  0  0  0
   -3.2357    2.2983   -0.1286 O   0  0  0  0  0  0  0  0  0  0  0  0
  1 13  1  0  0  0  0
  2  1  1  0  0  0  0
  3  4  1  0  0  0  0
  4  6  2  0  0  0  0
  4  5  1  0  0  0  0
  6  7  1  0  0  0  0
  8  9  1  0  0  0  0
  8  6  1  0  0  0  0
 10  8  2  0  0  0  0
 11 10  1  0  0  0  0
 12 10  1  0  0  0  0
 12  3  2  0  0  0  0
 13 12  1  1  0  0  0
 14  2  2  0  0  0  0
 14 27  1  0  0  0  0
 15 14  1  0  0  0  0
 16 15  1  0  0  0  0
 16 17  1  0  0  0  0
 18 16  2  0  0  0  0
 19 18  1  0  0  0  0
 20 22  2  0  0  0  0
 20 18  1  0  0  0  0
 21 20  1  0  0  0  0
 22 24  1  0  0  0  0
 23 22  1  0  0  0  0
 24 25  1  0  0  0  0
 24 15  2  0  0  0  0
 26  3  1  0  0  0  0
 27 13  1  0  0  0  0
M  CHG  1  26  -1
M  END
