1,2
 OpenBabel05122313063D

 33 34  0  0  1  0  0  0  0  0999 V2000
    1.5115   -0.6359   -0.7731 O   0  0  0  0  0  1  0  0  0  0  0  0
    0.6969    1.9345    0.0662 N   0  0  0  0  0  2  0  0  0  0  0  0
    4.3440    1.4007   -0.4658 N   0  0  0  0  0  0  0  0  0  0  0  0
    4.7169    2.0307    0.2538 H   0  0  0  0  0  0  0  0  0  0  0  0
    2.6839   -0.0920   -0.6273 N   0  0  0  0  0  0  0  0  0  0  0  0
   -0.1712    2.9603    0.2099 C   0  0  0  0  0  3  0  0  0  0  0  0
   -1.2069    2.6549    0.3948 H   0  0  0  0  0  0  0  0  0  0  0  0
    0.2034    4.3057    0.1551 C   0  0  0  0  0  0  0  0  0  0  0  0
   -0.5615    5.0834    0.2892 H   0  0  0  0  0  0  0  0  0  0  0  0
    1.5481    4.6285   -0.0908 C   0  0  0  0  0  0  0  0  0  0  0  0
    1.8789    5.6745   -0.1689 H   0  0  0  0  0  0  0  0  0  0  0  0
    2.4553    3.5831   -0.2612 C   0  0  0  0  0  0  0  0  0  0  0  0
    3.5055    3.7809   -0.5155 H   0  0  0  0  0  0  0  0  0  0  0  0
    2.0142    2.2402   -0.1665 C   0  0  0  0  0  0  0  0  0  0  0  0
    2.9760    1.1793   -0.3640 C   0  0  2  0  0  3  0  0  0  0  0  0
    3.8974   -0.8619   -1.0568 C   0  0  0  0  0  0  0  0  0  0  0  0
    3.8750   -2.2633   -0.4497 C   0  0  0  0  0  0  0  0  0  0  0  0
    3.0595   -2.8529   -0.9094 H   0  0  0  0  0  0  0  0  0  0  0  0
    4.8312   -2.7777   -0.6697 H   0  0  0  0  0  0  0  0  0  0  0  0
    3.7236   -2.2418    0.6474 H   0  0  0  0  0  0  0  0  0  0  0  0
    3.8335   -0.9316   -2.5913 C   0  0  0  0  0  0  0  0  0  0  0  0
    3.8723    0.0764   -3.0475 H   0  0  0  0  0  0  0  0  0  0  0  0
    4.6668   -1.5385   -2.9935 H   0  0  0  0  0  0  0  0  0  0  0  0
    2.8764   -1.4054   -2.8823 H   0  0  0  0  0  0  0  0  0  0  0  0
    5.0406    0.0809   -0.5025 C   0  0  0  0  0  0  0  0  0  0  0  0
    5.4863   -0.2931    0.9198 C   0  0  0  0  0  0  0  0  0  0  0  0
    4.6398   -0.3891    1.6323 H   0  0  0  0  0  0  0  0  0  0  0  0
    6.0422   -1.2506    0.9278 H   0  0  0  0  0  0  0  0  0  0  0  0
    6.1792    0.4869    1.2992 H   0  0  0  0  0  0  0  0  0  0  0  0
    6.2620    0.1607   -1.4235 C   0  0  0  0  0  0  0  0  0  0  0  0
    7.0225    0.8318   -0.9760 H   0  0  0  0  0  0  0  0  0  0  0  0
    6.7291   -0.8374   -1.5419 H   0  0  0  0  0  0  0  0  0  0  0  0
    6.0049    0.5575   -2.4220 H   0  0  0  0  0  0  0  0  0  0  0  0
  1  5  1  0  0  0  0
  2  6  1  0  0  0  0
  3 15  1  0  0  0  0
  3  4  1  0  0  0  0
  5 15  1  0  0  0  0
  6  7  1  0  0  0  0
  8  6  1  0  0  0  0
  8  9  1  0  0  0  0
 10  8  2  0  0  0  0
 11 10  1  0  0  0  0
 12 14  2  0  0  0  0
 12 10  1  0  0  0  0
 13 12  1  0  0  0  0
 14  2  1  0  0  0  0
 15 14  1  6  0  0  0
 16  5  1  0  0  0  0
 16 25  1  0  0  0  0
 16 17  1  0  0  0  0
 17 20  1  0  0  0  0
 18 17  1  0  0  0  0
 19 17  1  0  0  0  0
 21 16  1  0  0  0  0
 22 21  1  0  0  0  0
 23 21  1  0  0  0  0
 24 21  1  0  0  0  0
 25  3  1  0  0  0  0
 25 26  1  0  0  0  0
 26 28  1  0  0  0  0
 26 29  1  0  0  0  0
 26 27  1  0  0  0  0
 30 31  1  0  0  0  0
 30 25  1  0  0  0  0
 32 30  1  0  0  0  0
 33 30  1  0  0  0  0
M  END
