1,13
 OpenBabel05122313063D

 13 13  0  0  1  0  0  0  0  0999 V2000
   -1.8610    0.6898   -0.1273 N   0  0  0  0  0  2  0  0  0  0  0  0
   -3.0436    0.1046    0.1633 C   0  0  2  0  0  3  0  0  0  0  0  0
   -4.2451    0.8236    0.2729 C   0  0  0  0  0  0  0  0  0  0  0  0
   -5.1725    0.2815    0.4985 H   0  0  0  0  0  0  0  0  0  0  0  0
   -4.2247    2.2123    0.1024 C   0  0  0  0  0  0  0  0  0  0  0  0
   -5.1557    2.7932    0.1813 H   0  0  0  0  0  0  0  0  0  0  0  0
   -2.9974    2.8345   -0.1460 C   0  0  0  0  0  0  0  0  0  0  0  0
   -2.8676    3.9199   -0.2608 H   0  0  0  0  0  0  0  0  0  0  0  0
   -1.8464    2.0510   -0.2430 C   0  0  0  0  0  0  0  0  0  0  0  0
   -3.1314   -1.7598    0.4875 Br  0  0  0  0  0  0  0  0  0  0  0  0
   -0.4947    2.7048   -0.4388 C   0  0  0  0  0  0  0  0  0  0  0  0
   -0.4053    3.9175   -0.5891 O   0  5  0  0  0  0  0  0  0  0  0  0
    0.4982    1.8527   -0.4211 O   0  0  0  0  0  0  0  0  0  0  0  0
  1  2  1  0  0  0  0
  2  3  1  0  0  0  0
  2 10  1  1  0  0  0
  3  4  1  0  0  0  0
  5  6  1  0  0  0  0
  5  3  2  0  0  0  0
  7  5  1  0  0  0  0
  8  7  1  0  0  0  0
  9  7  2  0  0  0  0
  9  1  1  0  0  0  0
 11 13  2  0  0  0  0
 11  9  1  0  0  0  0
 12 11  1  0  0  0  0
M  CHG  1  12  -1
M  END
