1,3
 OpenBabel05122313063D

 23 24  0  0  1  0  0  0  0  0999 V2000
    1.8880   -0.3188    0.1894 N   0  0  0  0  0  2  0  0  0  0  0  0
    3.8719    0.7832   -0.5743 N   0  0  0  0  0  0  0  0  0  0  0  0
    0.4526    1.7988   -0.1704 O   0  5  0  0  0  0  0  0  0  0  0  0
    5.8846   -0.3616   -0.6603 O   0  0  0  0  0  0  0  0  0  0  0  0
    2.6170   -1.4280    0.5451 C   0  0  0  0  0  0  0  0  0  0  0  0
    3.9858   -1.5069    0.2680 C   0  0  0  0  0  0  0  0  0  0  0  0
    4.6979   -0.4111   -0.3522 C   0  0  0  0  0  0  0  0  0  0  0  0
    2.5313    0.7638   -0.3092 C   0  0  2  0  0  3  0  0  0  0  0  0
    1.7192    1.9392   -0.4763 C   0  0  0  0  0  0  0  0  0  0  0  0
    2.3448    3.1095   -0.9312 C   0  0  0  0  0  0  0  0  0  0  0  0
    1.7543    4.0277   -1.0553 H   0  0  0  0  0  0  0  0  0  0  0  0
    3.7301    3.0754   -1.2250 C   0  0  0  0  0  0  0  0  0  0  0  0
    4.2343    3.9780   -1.5982 H   0  0  0  0  0  0  0  0  0  0  0  0
    4.4802    1.9282   -1.0483 C   0  0  0  0  0  0  0  0  0  0  0  0
    5.5533    1.8113   -1.2412 H   0  0  0  0  0  0  0  0  0  0  0  0
    1.8984   -2.5047    1.3012 C   0  0  0  0  0  0  0  0  0  0  0  0
    2.6065   -3.1435    1.8566 H   0  0  0  0  0  0  0  0  0  0  0  0
    1.2939   -3.1334    0.6193 H   0  0  0  0  0  0  0  0  0  0  0  0
    1.1896   -2.0367    2.0121 H   0  0  0  0  0  0  0  0  0  0  0  0
    4.8131   -2.7154    0.6173 C   0  0  0  0  0  0  0  0  0  0  0  0
    4.9205   -2.8391    1.7162 H   0  0  0  0  0  0  0  0  0  0  0  0
    5.8261   -2.5982    0.1908 H   0  0  0  0  0  0  0  0  0  0  0  0
    4.3678   -3.6506    0.2226 H   0  0  0  0  0  0  0  0  0  0  0  0
  1  5  1  0  0  0  0
  2  7  1  0  0  0  0
  2  8  1  0  0  0  0
  4  7  2  0  0  0  0
  5 16  1  0  0  0  0
  6  5  2  0  0  0  0
  6 20  1  0  0  0  0
  7  6  1  0  0  0  0
  8  9  1  1  0  0  0
  8  1  1  0  0  0  0
  9  3  1  0  0  0  0
 10  9  2  0  0  0  0
 11 10  1  0  0  0  0
 12 14  2  0  0  0  0
 12 10  1  0  0  0  0
 13 12  1  0  0  0  0
 14  2  1  0  0  0  0
 15 14  1  0  0  0  0
 16 17  1  0  0  0  0
 16 19  1  0  0  0  0
 18 16  1  0  0  0  0
 20 21  1  0  0  0  0
 22 20  1  0  0  0  0
 23 20  1  0  0  0  0
M  CHG  1   3  -1
M  END
