1,2
 OpenBabel05122313063D

 26 27  0  0  1  0  0  0  0  0999 V2000
    1.8666   -0.0102    0.0047 N   0  0  0  0  0  2  0  0  0  0  0  0
    0.1317   -1.8189   -0.4590 O   0  5  0  0  0  0  0  0  0  0  0  0
    1.6560   -3.4825   -0.6690 O   0  0  0  0  0  0  0  0  0  0  0  0
   10.6001    1.0504   -0.3308 O   0  0  0  0  0  0  0  0  0  0  0  0
   11.0712    1.8640   -0.6124 H   0  0  0  0  0  0  0  0  0  0  0  0
    8.8746    2.4309   -0.8156 O   0  0  0  0  0  0  0  0  0  0  0  0
    1.3607   -2.3171   -0.4510 C   0  0  0  0  0  0  0  0  0  0  0  0
    2.3917   -1.2496   -0.1642 C   0  0  1  0  0  3  0  0  0  0  0  0
    3.7607   -1.4892   -0.0988 C   0  0  0  0  0  0  0  0  0  0  0  0
    4.0974   -2.5218   -0.2709 H   0  0  0  0  0  0  0  0  0  0  0  0
    4.6485   -0.4192    0.1512 C   0  0  0  0  0  0  0  0  0  0  0  0
    4.0702    0.8621    0.3201 C   0  0  0  0  0  0  0  0  0  0  0  0
    4.6985    1.7363    0.5400 H   0  0  0  0  0  0  0  0  0  0  0  0
    2.6872    1.0337    0.2452 C   0  0  0  0  0  0  0  0  0  0  0  0
    2.1936    2.0072    0.3862 H   0  0  0  0  0  0  0  0  0  0  0  0
    6.1126   -0.6279    0.2329 C   0  0  0  0  0  0  0  0  0  0  0  0
    6.6467   -1.8674    0.6593 C   0  0  0  0  0  0  0  0  0  0  0  0
    5.9667   -2.6790    0.9575 H   0  0  0  0  0  0  0  0  0  0  0  0
    8.0312   -2.0654    0.7382 C   0  0  0  0  0  0  0  0  0  0  0  0
    8.4238   -3.0338    1.0822 H   0  0  0  0  0  0  0  0  0  0  0  0
    8.9155   -1.0355    0.3889 C   0  0  0  0  0  0  0  0  0  0  0  0
   10.0030   -1.1801    0.4450 H   0  0  0  0  0  0  0  0  0  0  0  0
    8.3999    0.2037   -0.0401 C   0  0  0  0  0  0  0  0  0  0  0  0
    9.2795    1.3451   -0.4365 C   0  0  0  0  0  0  0  0  0  0  0  0
    7.0105    0.4011   -0.1134 C   0  0  0  0  0  0  0  0  0  0  0  0
    6.6553    1.3776   -0.4738 H   0  0  0  0  0  0  0  0  0  0  0  0
  1 14  1  0  0  0  0
  2  7  1  0  0  0  0
  3  7  2  0  0  0  0
  5  4  1  0  0  0  0
  6 24  2  0  0  0  0
  8  7  1  6  0  0  0
  8  9  1  0  0  0  0
  8  1  1  0  0  0  0
  9 11  2  0  0  0  0
 10  9  1  0  0  0  0
 11 16  1  0  0  0  0
 11 12  1  0  0  0  0
 12 13  1  0  0  0  0
 14 12  2  0  0  0  0
 14 15  1  0  0  0  0
 16 17  1  0  0  0  0
 17 19  2  0  0  0  0
 17 18  1  0  0  0  0
 19 20  1  0  0  0  0
 21 22  1  0  0  0  0
 21 19  1  0  0  0  0
 23 21  2  0  0  0  0
 24  4  1  0  0  0  0
 24 23  1  0  0  0  0
 25 23  1  0  0  0  0
 25 16  2  0  0  0  0
 26 25  1  0  0  0  0
M  CHG  1   2  -1
M  END
