3,4
 OpenBabel05122313063D

 17 18  0  0  1  0  0  0  0  0999 V2000
   -5.6393   -0.6645    0.9789 Br  0  0  0  0  0  0  0  0  0  0  0  0
   -2.0269    3.3515   -0.8353 Br  0  0  0  0  0  0  0  0  0  0  0  0
   -0.2229    0.7852   -1.3128 O   0  5  0  0  0  0  0  0  0  0  0  0
   -0.7048   -1.6716   -0.8274 N   0  0  0  0  0  2  0  0  0  0  0  0
   -0.8903   -2.9862   -0.6194 C   0  0  0  0  0  0  0  0  0  0  0  0
   -2.1140   -3.4931   -0.1342 C   0  0  0  0  0  0  0  0  0  0  0  0
   -3.1675   -2.6351    0.1594 C   0  0  0  0  0  0  0  0  0  0  0  0
   -3.0020   -1.2391   -0.0546 C   0  0  0  0  0  0  0  0  0  0  0  0
   -3.9553   -0.2107    0.2161 C   0  0  0  0  0  0  0  0  0  0  0  0
   -3.6684    1.1288   -0.0374 C   0  0  0  0  0  0  0  0  0  0  0  0
   -2.4139    1.5201   -0.5626 C   0  0  0  0  0  0  0  0  0  0  0  0
   -1.4325    0.5570   -0.8448 C   0  0  0  0  0  0  0  0  0  0  0  0
   -1.7437   -0.8115   -0.5794 C   0  0  1  0  0  3  0  0  0  0  0  0
   -0.0298   -3.6351   -0.8360 H   0  0  0  0  0  0  0  0  0  0  0  0
   -2.2131   -4.5776    0.0134 H   0  0  0  0  0  0  0  0  0  0  0  0
   -4.1235   -3.0107    0.5505 H   0  0  0  0  0  0  0  0  0  0  0  0
   -4.4172    1.9011    0.1839 H   0  0  0  0  0  0  0  0  0  0  0  0
  2 11  1  0  0  0  0
  3 12  1  0  0  0  0
  4  5  1  0  0  0  0
  4 13  1  0  0  0  0
  5  6  2  0  0  0  0
  6 15  1  0  0  0  0
  6  7  1  0  0  0  0
  7 16  1  0  0  0  0
  8  7  2  0  0  0  0
  8  9  1  0  0  0  0
  9  1  1  0  0  0  0
 10 17  1  0  0  0  0
 10  9  2  0  0  0  0
 11 10  1  0  0  0  0
 12 11  2  0  0  0  0
 13 12  1  1  0  0  0
 13  8  1  0  0  0  0
 14  5  1  0  0  0  0
M  CHG  1   3  -1
M  END
