1,2
 OpenBabel05122313063D

 51 53  0  0  0  0  0  0  0  0999 V2000
   -0.7609    0.0022   -1.9579 O   0  0  0  0  0  1  0  0  0  0  0  0
    0.1704   -0.3951    0.2867 N   0  0  0  0  0  2  0  0  0  0  0  0
    0.2396   -0.4914    1.6904 C   0  0  0  0  0  0  0  0  0  0  0  0
   -0.3343   -1.6461    2.2908 C   0  0  0  0  0  0  0  0  0  0  0  0
   -0.7084   -2.4471    1.6334 H   0  0  0  0  0  0  0  0  0  0  0  0
   -0.4101   -1.7775    3.6840 C   0  0  0  0  0  0  0  0  0  0  0  0
   -0.8630   -2.6830    4.1162 H   0  0  0  0  0  0  0  0  0  0  0  0
    0.1014   -0.7742    4.5199 C   0  0  0  0  0  0  0  0  0  0  0  0
    0.0522   -0.8786    5.6140 H   0  0  0  0  0  0  0  0  0  0  0  0
    0.6869    0.3649    3.9397 C   0  0  0  0  0  0  0  0  0  0  0  0
    1.0928    1.1608    4.5833 H   0  0  0  0  0  0  0  0  0  0  0  0
    0.7553    0.5163    2.5488 C   0  0  0  0  0  0  0  0  0  0  0  0
    1.2015    1.4211    2.1215 H   0  0  0  0  0  0  0  0  0  0  0  0
    1.2721    0.0696   -0.5943 C   0  0  0  0  0  0  0  0  0  0  0  0
    1.5549    1.5693   -0.3491 C   0  0  0  0  0  0  0  0  0  0  0  0
    0.5827    2.5295   -0.6947 C   0  0  0  0  0  0  0  0  0  0  0  0
   -0.3423    2.1913   -1.1750 H   0  0  0  0  0  0  0  0  0  0  0  0
    0.7683    3.8898   -0.4279 C   0  0  0  0  0  0  0  0  0  0  0  0
   -0.0147    4.6083   -0.7216 H   0  0  0  0  0  0  0  0  0  0  0  0
    1.9312    4.3596    0.2171 C   0  0  0  0  0  0  0  0  0  0  0  0
    2.8914    3.4000    0.5876 C   0  0  0  0  0  0  0  0  0  0  0  0
    3.8040    3.7236    1.1135 H   0  0  0  0  0  0  0  0  0  0  0  0
    2.7101    2.0362    0.3096 C   0  0  0  0  0  0  0  0  0  0  0  0
    3.4759    1.3228    0.6428 H   0  0  0  0  0  0  0  0  0  0  0  0
    2.1384    5.8290    0.4804 C   0  0  0  0  0  0  0  0  0  0  0  0
    1.2002    6.3213    0.8071 H   0  0  0  0  0  0  0  0  0  0  0  0
    2.4744    6.3556   -0.4389 H   0  0  0  0  0  0  0  0  0  0  0  0
    2.9080    6.0010    1.2580 H   0  0  0  0  0  0  0  0  0  0  0  0
    2.5372   -0.7834   -0.4382 C   0  0  0  0  0  0  0  0  0  0  0  0
    3.7349   -0.4218   -1.0951 C   0  0  0  0  0  0  0  0  0  0  0  0
    3.7888    0.5239   -1.6533 H   0  0  0  0  0  0  0  0  0  0  0  0
    4.8651   -1.2469   -1.0558 C   0  0  0  0  0  0  0  0  0  0  0  0
    5.7795   -0.9329   -1.5846 H   0  0  0  0  0  0  0  0  0  0  0  0
    4.8553   -2.4699   -0.3540 C   0  0  0  0  0  0  0  0  0  0  0  0
    3.6587   -2.8336    0.2904 C   0  0  0  0  0  0  0  0  0  0  0  0
    3.6068   -3.7895    0.8357 H   0  0  0  0  0  0  0  0  0  0  0  0
    2.5225   -2.0128    0.2460 C   0  0  0  0  0  0  0  0  0  0  0  0
    1.6025   -2.3511    0.7366 H   0  0  0  0  0  0  0  0  0  0  0  0
    6.0860   -3.3373   -0.2798 C   0  0  0  0  0  0  0  0  0  0  0  0
    6.7662   -2.9975    0.5311 H   0  0  0  0  0  0  0  0  0  0  0  0
    6.6671   -3.3040   -1.2232 H   0  0  0  0  0  0  0  0  0  0  0  0
    5.8288   -4.3939   -0.0689 H   0  0  0  0  0  0  0  0  0  0  0  0
    0.6585   -0.2188   -2.0739 C   0  0  0  0  0  0  0  0  0  0  0  0
    1.1980    0.7060   -3.1694 C   0  0  0  0  0  0  0  0  0  0  0  0
    0.7313    0.4197   -4.1323 H   0  0  0  0  0  0  0  0  0  0  0  0
    2.2937    0.5899   -3.2748 H   0  0  0  0  0  0  0  0  0  0  0  0
    0.9764    1.7696   -2.9759 H   0  0  0  0  0  0  0  0  0  0  0  0
    0.8839   -1.6752   -2.5082 C   0  0  0  0  0  0  0  0  0  0  0  0
    0.5837   -2.3889   -1.7205 H   0  0  0  0  0  0  0  0  0  0  0  0
    1.9408   -1.8598   -2.7752 H   0  0  0  0  0  0  0  0  0  0  0  0
    0.2524   -1.8661   -3.3984 H   0  0  0  0  0  0  0  0  0  0  0  0
  2  3  1  0  0  0  0
  3  4  2  0  0  0  0
  3 12  1  0  0  0  0
  4  6  1  0  0  0  0
  5  4  1  0  0  0  0
  6  7  1  0  0  0  0
  6  8  2  0  0  0  0
  8  9  1  0  0  0  0
 10  8  1  0  0  0  0
 10 11  1  0  0  0  0
 12 10  2  0  0  0  0
 13 12  1  0  0  0  0
 14 29  1  0  0  0  0
 14 15  1  0  0  0  0
 14  2  1  0  0  0  0
 15 23  1  0  0  0  0
 16 18  1  0  0  0  0
 16 15  2  0  0  0  0
 17 16  1  0  0  0  0
 18 20  2  0  0  0  0
 19 18  1  0  0  0  0
 20 25  1  0  0  0  0
 20 21  1  0  0  0  0
 21 22  1  0  0  0  0
 23 21  2  0  0  0  0
 23 24  1  0  0  0  0
 25 26  1  0  0  0  0
 25 28  1  0  0  0  0
 27 25  1  0  0  0  0
 29 37  1  0  0  0  0
 30 32  1  0  0  0  0
 30 29  2  0  0  0  0
 31 30  1  0  0  0  0
 32 34  2  0  0  0  0
 33 32  1  0  0  0  0
 34 39  1  0  0  0  0
 34 35  1  0  0  0  0
 35 36  1  0  0  0  0
 37 35  2  0  0  0  0
 37 38  1  0  0  0  0
 39 42  1  0  0  0  0
 39 40  1  0  0  0  0
 41 39  1  0  0  0  0
 43  1  1  0  0  0  0
 43 14  1  0  0  0  0
 44 47  1  0  0  0  0
 44 43  1  0  0  0  0
 45 44  1  0  0  0  0
 46 44  1  0  0  0  0
 48 43  1  0  0  0  0
 48 49  1  0  0  0  0
 50 48  1  0  0  0  0
 51 48  1  0  0  0  0
M  END
