17,18
 OpenBabel05122313063D

 20 21  0  0  1  0  0  0  0  0999 V2000
    2.1363   -0.9972   -1.5397 C   0  0  1  0  0  3  0  0  0  0  0  0
    4.0958   -0.2646   -0.7424 C   0  0  0  0  0  0  0  0  0  0  0  0
    3.0248    0.2563    0.0402 C   0  0  0  0  0  0  0  0  0  0  0  0
    1.1109   -1.7148   -2.3325 C   0  0  0  0  0  0  0  0  0  0  0  0
    1.5603   -2.3946   -3.0780 H   0  0  0  0  0  0  0  0  0  0  0  0
    0.4947   -0.9446   -2.8492 H   0  0  0  0  0  0  0  0  0  0  0  0
    3.2934    1.0917    1.1384 C   0  0  0  0  0  0  0  0  0  0  0  0
    2.4731    1.5060    1.7354 H   0  0  0  0  0  0  0  0  0  0  0  0
    4.6336    1.3815    1.4181 C   0  0  0  0  0  0  0  0  0  0  0  0
    4.8728    2.0364    2.2689 H   0  0  0  0  0  0  0  0  0  0  0  0
    5.4388    0.0256   -0.4642 C   0  0  0  0  0  0  0  0  0  0  0  0
    6.2570   -0.3826   -1.0750 H   0  0  0  0  0  0  0  0  0  0  0  0
    5.6890    0.8605    0.6324 C   0  0  0  0  0  0  0  0  0  0  0  0
    6.7282    1.1163    0.8864 H   0  0  0  0  0  0  0  0  0  0  0  0
    0.1973   -2.5324   -1.3771 C   0  0  0  0  0  0  0  0  0  0  0  0
    0.0308   -3.7341   -1.5338 O   0  5  0  0  0  0  0  0  0  0  0  0
   -0.3634   -1.8290   -0.4194 O   0  0  0  0  0  0  0  0  0  0  0  0
    1.8286   -0.2274   -0.4908 N   0  0  0  0  0  2  0  0  0  0  0  0
    3.4895   -1.0462   -1.7193 N   0  0  0  0  0  0  0  0  0  0  0  0
    3.9594   -1.5690   -2.4575 H   0  0  0  0  0  0  0  0  0  0  0  0
  1  4  1  1  0  0  0
  1 18  1  0  0  0  0
  2 11  2  0  0  0  0
  2  3  1  0  0  0  0
  3  7  2  0  0  0  0
  4 15  1  0  0  0  0
  5  4  1  0  0  0  0
  6  4  1  0  0  0  0
  7  9  1  0  0  0  0
  7  8  1  0  0  0  0
  9 10  1  0  0  0  0
 11 13  1  0  0  0  0
 12 11  1  0  0  0  0
 13 14  1  0  0  0  0
 13  9  2  0  0  0  0
 15 17  2  0  0  0  0
 16 15  1  0  0  0  0
 18  3  1  0  0  0  0
 19  1  1  0  0  0  0
 19  2  1  0  0  0  0
 20 19  1  0  0  0  0
M  CHG  1  16  -1
M  END
