1,14
 OpenBabel05122313063D

 27 28  0  0  1  0  0  0  0  0999 V2000
   -0.5235    1.4598    0.2248 N   0  0  0  0  0  2  0  0  0  0  0  0
   -1.1009    2.6874    0.2665 C   0  0  1  0  0  3  0  0  0  0  0  0
   -0.3063    3.8534    0.1621 C   0  0  0  0  0  0  0  0  0  0  0  0
   -0.8080    4.8312    0.1867 H   0  0  0  0  0  0  0  0  0  0  0  0
    1.0821    3.7700    0.0284 C   0  0  0  0  0  0  0  0  0  0  0  0
    1.7268    4.6575   -0.0575 H   0  0  0  0  0  0  0  0  0  0  0  0
    1.6780    2.5025    0.0212 C   0  0  0  0  0  0  0  0  0  0  0  0
    3.1657    2.3188   -0.0781 C   0  0  0  0  0  0  0  0  0  0  0  0
    3.6848    0.9500   -0.0137 C   0  0  0  0  0  3  0  0  0  0  0  0
    4.7697    0.8137   -0.0870 H   0  0  0  0  0  0  0  0  0  0  0  0
    2.8548   -0.1435    0.1420 C   0  0  0  0  0  0  0  0  0  0  0  0
    1.3987    0.0459    0.2240 C   0  0  0  0  0  0  0  0  0  0  0  0
    0.8353    1.3838    0.1192 C   0  0  0  0  0  0  0  0  0  0  0  0
    0.6307   -0.9349    0.4690 O   0  5  0  0  0  0  0  0  0  0  0  0
   -2.5872    2.7799    0.4149 C   0  0  0  0  0  0  0  0  0  0  0  0
   -3.0927    2.5112   -0.5351 H   0  0  0  0  0  0  0  0  0  0  0  0
   -2.8937    3.8058    0.6890 H   0  0  0  0  0  0  0  0  0  0  0  0
   -2.9490    2.0714    1.1849 H   0  0  0  0  0  0  0  0  0  0  0  0
    3.9036    3.3015   -0.2029 O   0  0  0  0  0  0  0  0  0  0  0  0
    3.2318   -1.4683    0.2318 N   0  0  0  0  0  0  0  0  0  0  0  0
    2.4392   -2.1130    0.3352 H   0  0  0  0  0  0  0  0  0  0  0  0
    4.5275   -1.9966    0.1762 C   0  0  0  0  0  0  0  0  0  0  0  0
    5.5179   -1.2915    0.0585 O   0  0  0  0  0  0  0  0  0  0  0  0
    4.5655   -3.5106    0.2574 C   0  0  0  0  0  0  0  0  0  0  0  0
    5.6164   -3.8320    0.3567 H   0  0  0  0  0  0  0  0  0  0  0  0
    4.1393   -3.9547   -0.6662 H   0  0  0  0  0  0  0  0  0  0  0  0
    3.9760   -3.8910    1.1161 H   0  0  0  0  0  0  0  0  0  0  0  0
  1  2  1  0  0  0  0
  2 15  1  6  0  0  0
  3  4  1  0  0  0  0
  3  2  1  0  0  0  0
  5  3  2  0  0  0  0
  6  5  1  0  0  0  0
  7  5  1  0  0  0  0
  7 13  2  0  0  0  0
  8  9  1  0  0  0  0
  8  7  1  0  0  0  0
  9 11  1  0  0  0  0
 10  9  1  0  0  0  0
 11 12  2  0  0  0  0
 11 20  1  0  0  0  0
 12 14  1  0  0  0  0
 13 12  1  0  0  0  0
 13  1  1  0  0  0  0
 15 17  1  0  0  0  0
 15 18  1  0  0  0  0
 16 15  1  0  0  0  0
 19  8  2  0  0  0  0
 20 21  1  0  0  0  0
 22 20  1  0  0  0  0
 22 24  1  0  0  0  0
 23 22  2  0  0  0  0
 24 25  1  0  0  0  0
 24 27  1  0  0  0  0
 26 24  1  0  0  0  0
M  CHG  1  14  -1
M  END
