1,2
 OpenBabel05122313063D

 27 28  0  0  1  0  0  0  0  0999 V2000
    1.4290    1.5173    1.5938 O   0  5  0  0  0  0  0  0  0  0  0  0
    1.7789    0.0436   -0.5993 N   0  0  0  0  0  2  0  0  0  0  0  0
   -0.5007   -1.1649   -1.8452 N   0  0  0  0  0  0  0  0  0  0  0  0
    2.8678    0.6538   -0.0758 C   0  0  1  0  0  3  0  0  0  0  0  0
    2.6274    1.4361    1.1386 C   0  0  0  0  0  0  0  0  0  0  0  0
    3.7679    2.0524    1.7215 C   0  0  0  0  0  0  0  0  0  0  0  0
    3.6211    2.6454    2.6355 H   0  0  0  0  0  0  0  0  0  0  0  0
    5.0392    1.9236    1.1369 C   0  0  0  0  0  0  0  0  0  0  0  0
    5.8907    2.4290    1.6202 H   0  0  0  0  0  0  0  0  0  0  0  0
    5.2686    1.1858   -0.0340 C   0  0  0  0  0  0  0  0  0  0  0  0
    6.2756    1.1074   -0.4685 H   0  0  0  0  0  0  0  0  0  0  0  0
    4.1829    0.5351   -0.6613 C   0  0  0  0  0  0  0  0  0  0  0  0
    4.2692   -0.2529   -1.8471 C   0  0  0  0  0  0  0  0  0  0  0  0
    5.2458   -0.3780   -2.3401 H   0  0  0  0  0  0  0  0  0  0  0  0
    3.1364   -0.8523   -2.3674 C   0  0  0  0  0  0  0  0  0  0  0  0
    3.1866   -1.4616   -3.2822 H   0  0  0  0  0  0  0  0  0  0  0  0
    1.8729   -0.6906   -1.7249 C   0  0  0  0  0  0  0  0  0  0  0  0
    0.6884   -1.3546   -2.2844 C   0  0  0  0  0  0  0  0  0  0  0  0
    0.9062   -2.0504   -3.1332 H   0  0  0  0  0  0  0  0  0  0  0  0
   -1.6006   -1.8679   -2.4606 C   0  0  0  0  0  0  0  0  0  0  0  0
   -1.2892   -2.8294   -2.9407 H   0  0  0  0  0  0  0  0  0  0  0  0
   -2.0244   -1.2283   -3.2695 H   0  0  0  0  0  0  0  0  0  0  0  0
   -2.7244   -2.1129   -1.4643 C   0  0  0  0  0  0  0  0  0  0  0  0
   -3.0531   -1.1349   -1.0534 H   0  0  0  0  0  0  0  0  0  0  0  0
   -3.5905   -2.5689   -1.9984 H   0  0  0  0  0  0  0  0  0  0  0  0
   -2.2803   -2.9751   -0.4145 O   0  0  0  0  0  0  0  0  0  0  0  0
   -2.7370   -2.6980    0.4005 H   0  0  0  0  0  0  0  0  0  0  0  0
  2  4  1  0  0  0  0
  4 12  1  1  0  0  0
  4  5  1  0  0  0  0
  5  1  1  0  0  0  0
  5  6  2  0  0  0  0
  6  7  1  0  0  0  0
  8  9  1  0  0  0  0
  8  6  1  0  0  0  0
 10  8  2  0  0  0  0
 11 10  1  0  0  0  0
 12 10  1  0  0  0  0
 13 12  2  0  0  0  0
 14 13  1  0  0  0  0
 15 13  1  0  0  0  0
 15 17  2  0  0  0  0
 16 15  1  0  0  0  0
 17  2  1  0  0  0  0
 18  3  2  0  0  0  0
 18 17  1  0  0  0  0
 19 18  1  0  0  0  0
 20  3  1  0  0  0  0
 20 23  1  0  0  0  0
 21 20  1  0  0  0  0
 22 20  1  0  0  0  0
 23 24  1  0  0  0  0
 23 26  1  0  0  0  0
 25 23  1  0  0  0  0
 26 27  1  0  0  0  0
M  CHG  1   1  -1
M  END
