2,6
 OpenBabel05122313063D

 32 33  0  0  0  0  0  0  0  0999 V2000
    4.5739   -2.4557    0.0150 S   0  0  0  0  0  0  0  0  0  0  0  0
    0.6858    0.8572   -0.0150 O   0  5  0  0  0  0  0  0  0  0  0  0
    5.4739    5.0060   -0.0461 O   0  0  0  0  0  0  0  0  0  0  0  0
    2.4400   -0.6726   -0.0136 N   0  0  0  0  0  0  0  0  0  0  0  0
    1.9603    0.5671   -0.0150 C   0  0  0  0  0  0  0  0  0  0  0  0
    1.4550   -1.6055   -0.0186 N   0  0  0  0  0  2  0  0  0  0  0  0
    1.7861   -2.8796   -0.0070 C   0  0  0  0  0  3  0  0  0  0  0  0
    0.9246   -3.5679   -0.0137 H   0  0  0  0  0  0  0  0  0  0  0  0
    3.1077   -3.4241    0.0100 C   0  0  0  0  0  0  0  0  0  0  0  0
    3.4024   -4.8039    0.0223 C   0  0  0  0  0  0  0  0  0  0  0  0
    2.3560   -5.8834    0.0218 C   0  0  0  0  0  0  0  0  0  0  0  0
    1.6951   -5.8173    0.9109 H   0  0  0  0  0  0  0  0  0  0  0  0
    2.8245   -6.8859    0.0248 H   0  0  0  0  0  0  0  0  0  0  0  0
    1.6988   -5.8206   -0.8702 H   0  0  0  0  0  0  0  0  0  0  0  0
    4.8044   -5.0434    0.0360 C   0  0  0  0  0  0  0  0  0  0  0  0
    5.2441   -6.0509    0.0466 H   0  0  0  0  0  0  0  0  0  0  0  0
    5.5552   -3.8780    0.0340 C   0  0  0  0  0  0  0  0  0  0  0  0
    6.6491   -3.7883    0.0420 H   0  0  0  0  0  0  0  0  0  0  0  0
    2.9089    1.7003   -0.0216 C   0  0  0  0  0  0  0  0  0  0  0  0
    2.4230    3.0257   -0.1159 C   0  0  0  0  0  0  0  0  0  0  0  0
    1.3380    3.1862   -0.1885 H   0  0  0  0  0  0  0  0  0  0  0  0
    3.3020    4.1063   -0.1223 C   0  0  0  0  0  0  0  0  0  0  0  0
    2.9392    5.1416   -0.1989 H   0  0  0  0  0  0  0  0  0  0  0  0
    4.6962    3.8909   -0.0337 C   0  0  0  0  0  0  0  0  0  0  0  0
    6.8783    4.8510    0.0351 C   0  0  0  0  0  0  0  0  0  0  0  0
    7.1871    4.3542    0.9822 H   0  0  0  0  0  0  0  0  0  0  0  0
    7.3079    5.8695    0.0073 H   0  0  0  0  0  0  0  0  0  0  0  0
    7.2814    4.2650   -0.8212 H   0  0  0  0  0  0  0  0  0  0  0  0
    5.1922    2.5715    0.0591 C   0  0  0  0  0  0  0  0  0  0  0  0
    6.2706    2.3767    0.1286 H   0  0  0  0  0  0  0  0  0  0  0  0
    4.3005    1.4926    0.0631 C   0  0  0  0  0  0  0  0  0  0  0  0
    4.6783    0.4630    0.1352 H   0  0  0  0  0  0  0  0  0  0  0  0
  1 17  1  0  0  0  0
  3 24  1  0  0  0  0
  3 25  1  0  0  0  0
  5  2  1  0  0  0  0
  5  4  2  0  0  0  0
  6  4  1  0  0  0  0
  6  7  1  0  0  0  0
  7  9  1  0  0  0  0
  8  7  1  0  0  0  0
  9  1  1  0  0  0  0
  9 10  2  0  0  0  0
 10 15  1  0  0  0  0
 11 10  1  0  0  0  0
 11 13  1  0  0  0  0
 11 12  1  0  0  0  0
 14 11  1  0  0  0  0
 15 16  1  0  0  0  0
 17 15  2  0  0  0  0
 17 18  1  0  0  0  0
 19  5  1  0  0  0  0
 19 31  1  0  0  0  0
 20 19  2  0  0  0  0
 21 20  1  0  0  0  0
 22 20  1  0  0  0  0
 22 24  2  0  0  0  0
 23 22  1  0  0  0  0
 24 29  1  0  0  0  0
 25 26  1  0  0  0  0
 27 25  1  0  0  0  0
 28 25  1  0  0  0  0
 29 31  2  0  0  0  0
 29 30  1  0  0  0  0
 31 32  1  0  0  0  0
M  CHG  1   2  -1
M  END
