1,2
 OpenBabel05122313063D

 32 32  0  0  1  0  0  0  0  0999 V2000
   -1.9853   -0.7512   -0.1756 N   0  0  0  0  0  2  0  0  0  0  0  0
   -2.1374    1.7163   -1.0068 O   0  5  0  0  0  0  0  0  0  0  0  0
   -4.3634    1.7890   -1.1175 O   0  0  0  0  0  0  0  0  0  0  0  0
   -2.8236   -2.8824   -0.2722 O   0  0  0  0  0  0  0  0  0  0  0  0
   -3.3467    1.1809   -0.8163 C   0  0  0  0  0  0  0  0  0  0  0  0
   -3.3509   -0.2195   -0.1787 C   0  0  2  0  0  0  0  0  0  0  0  0
   -4.0004   -0.2192    1.2390 C   0  0  0  0  0  0  0  0  0  0  0  0
   -5.5144    0.0003    1.1585 C   0  0  0  0  0  0  0  0  0  0  0  0
   -3.3308    0.7763    2.1912 C   0  0  0  0  0  0  0  0  0  0  0  0
   -1.8589   -2.1013   -0.3552 C   0  0  0  0  0  0  0  0  0  0  0  0
   -0.4842   -2.6435   -0.6571 C   0  0  0  0  0  0  0  0  0  0  0  0
    0.4322   -2.0014   -1.5145 C   0  0  0  0  0  0  0  0  0  0  0  0
    1.7106   -2.5353   -1.7214 C   0  0  0  0  0  0  0  0  0  0  0  0
    2.1167   -3.7258   -1.0820 C   0  0  0  0  0  0  0  0  0  0  0  0
    1.1733   -4.3947   -0.2730 C   0  0  0  0  0  0  0  0  0  0  0  0
   -0.1128   -3.8739   -0.0800 C   0  0  0  0  0  0  0  0  0  0  0  0
    3.5149   -4.2603   -1.2639 C   0  0  0  0  0  0  0  0  0  0  0  0
   -3.9810   -0.8826   -0.8093 H   0  0  0  0  0  0  0  0  0  0  0  0
   -3.8200   -1.2505    1.6117 H   0  0  0  0  0  0  0  0  0  0  0  0
   -5.9959   -0.7792    0.5335 H   0  0  0  0  0  0  0  0  0  0  0  0
   -5.9698   -0.0439    2.1693 H   0  0  0  0  0  0  0  0  0  0  0  0
   -5.7480    0.9838    0.7055 H   0  0  0  0  0  0  0  0  0  0  0  0
   -3.7270    0.6657    3.2213 H   0  0  0  0  0  0  0  0  0  0  0  0
   -2.2314    0.6254    2.2318 H   0  0  0  0  0  0  0  0  0  0  0  0
   -3.5182    1.8237    1.8722 H   0  0  0  0  0  0  0  0  0  0  0  0
    0.1347   -1.0699   -2.0207 H   0  0  0  0  0  0  0  0  0  0  0  0
    2.4118   -2.0183   -2.3966 H   0  0  0  0  0  0  0  0  0  0  0  0
    1.4556   -5.3447    0.2090 H   0  0  0  0  0  0  0  0  0  0  0  0
   -0.8556   -4.4027    0.5364 H   0  0  0  0  0  0  0  0  0  0  0  0
    3.8123   -4.2682   -2.3324 H   0  0  0  0  0  0  0  0  0  0  0  0
    3.6142   -5.2915   -0.8729 H   0  0  0  0  0  0  0  0  0  0  0  0
    4.2570   -3.6271   -0.7307 H   0  0  0  0  0  0  0  0  0  0  0  0
  2  5  1  0  0  0  0
  3  5  2  0  0  0  0
  5  6  1  0  0  0  0
  6 18  1  6  0  0  0
  6  1  1  0  0  0  0
  6  7  1  0  0  0  0
  7 19  1  0  0  0  0
  7  9  1  0  0  0  0
  8  7  1  0  0  0  0
  8 21  1  0  0  0  0
  9 24  1  0  0  0  0
  9 23  1  0  0  0  0
 10  4  2  0  0  0  0
 10  1  1  0  0  0  0
 11 10  1  0  0  0  0
 11 16  1  0  0  0  0
 12 11  2  0  0  0  0
 13 12  1  0  0  0  0
 13 14  2  0  0  0  0
 14 15  1  0  0  0  0
 15 16  2  0  0  0  0
 15 28  1  0  0  0  0
 16 29  1  0  0  0  0
 17 14  1  0  0  0  0
 17 31  1  0  0  0  0
 17 32  1  0  0  0  0
 20  8  1  0  0  0  0
 22  8  1  0  0  0  0
 25  9  1  0  0  0  0
 26 12  1  0  0  0  0
 27 13  1  0  0  0  0
 30 17  1  0  0  0  0
M  CHG  1   2  -1
M  END
