1,2
 OpenBabel05122313063D

 14 14  0  0  0  0  0  0  0  0999 V2000
   -1.3962   -0.9247    0.8732 O   0  5  0  0  0  0  0  0  0  0  0  0
   -1.3935    1.0226   -0.9835 N   0  0  0  0  0  0  0  0  0  0  0  0
   -2.5822   -0.4995    0.4758 C   0  0  0  0  0  0  0  0  0  0  0  0
   -2.6762    0.5373   -0.4995 C   0  0  0  0  0  0  0  0  0  0  0  0
   -3.9118    1.0305   -0.9261 C   0  0  0  0  0  0  0  0  0  0  0  0
   -5.0978    0.4933   -0.3965 C   0  0  0  0  0  0  0  0  0  0  0  0
   -5.0248   -0.5404    0.5579 C   0  0  0  0  0  0  0  0  0  0  0  0
   -3.7922   -1.0372    0.9918 C   0  0  0  0  0  0  0  0  0  0  0  0
   -1.3127    2.0486   -0.9336 H   0  0  0  0  0  0  0  0  0  0  0  0
   -1.2193    0.7268   -1.9579 H   0  0  0  0  0  0  0  0  0  0  0  0
   -3.9478    1.8359   -1.6773 H   0  0  0  0  0  0  0  0  0  0  0  0
   -6.0732    0.8778   -0.7280 H   0  0  0  0  0  0  0  0  0  0  0  0
   -5.9528   -0.9630    0.9729 H   0  0  0  0  0  0  0  0  0  0  0  0
   -3.7249   -1.8382    1.7424 H   0  0  0  0  0  0  0  0  0  0  0  0
  2  9  1  0  0  0  0
  2  4  1  0  0  0  0
  3  1  1  0  0  0  0
  3  8  1  0  0  0  0
  4  3  2  0  0  0  0
  5  4  1  0  0  0  0
  5  6  2  0  0  0  0
  6  7  1  0  0  0  0
  7 13  1  0  0  0  0
  7  8  2  0  0  0  0
  8 14  1  0  0  0  0
 10  2  1  0  0  0  0
 11  5  1  0  0  0  0
 12  6  1  0  0  0  0
M  CHG  1   1  -1
M  END
