1,4
 OpenBabel05122313063D

 39 39  0  0  0  0  0  0  0  0999 V2000
    0.4735    0.9522   -0.5402 N   0  0  0  0  0  2  0  0  0  0  0  0
   -3.1360    1.8583   -0.3906 N   0  3  0  0  0  0  0  0  0  0  0  0
   -3.1230    2.4613   -1.2327 H   0  0  0  0  0  0  0  0  0  0  0  0
    2.1079   -1.3693    0.1725 O   0  5  0  0  0  0  0  0  0  0  0  0
    2.9109    0.9010   -0.2643 C   0  0  0  0  0  0  0  0  0  0  0  0
    3.0637   -0.5061    0.0884 C   0  0  0  0  0  0  0  0  0  0  0  0
    4.4097   -0.9441    0.3419 C   0  0  0  0  0  0  0  0  0  0  0  0
    4.5339   -2.0050    0.6042 H   0  0  0  0  0  0  0  0  0  0  0  0
    5.4939   -0.0869    0.2706 C   0  0  0  0  0  0  0  0  0  0  0  0
    6.5024   -0.4801    0.4830 H   0  0  0  0  0  0  0  0  0  0  0  0
    5.3520    1.2912   -0.0727 C   0  0  0  0  0  0  0  0  0  0  0  0
    4.0654    1.7413   -0.3359 C   0  0  0  0  0  0  0  0  0  0  0  0
    3.9112    2.7987   -0.6139 H   0  0  0  0  0  0  0  0  0  0  0  0
    1.6573    1.5070   -0.5977 C   0  0  0  0  0  3  0  0  0  0  0  0
    1.7190    2.5620   -0.9571 H   0  0  0  0  0  0  0  0  0  0  0  0
   -0.6883    1.6594   -1.0161 C   0  0  0  0  0  0  0  0  0  0  0  0
   -1.1234    1.0509   -1.8446 H   0  0  0  0  0  0  0  0  0  0  0  0
   -0.4290    2.6666   -1.4263 H   0  0  0  0  0  0  0  0  0  0  0  0
   -1.7143    1.7821    0.1192 C   0  0  0  0  0  0  0  0  0  0  0  0
   -1.6432    0.9043    0.8043 H   0  0  0  0  0  0  0  0  0  0  0  0
   -1.5349    2.6900    0.7266 H   0  0  0  0  0  0  0  0  0  0  0  0
   -3.6677    0.5044   -0.8698 C   0  0  0  0  0  0  0  0  0  0  0  0
   -2.8542    0.0417   -1.4728 H   0  0  0  0  0  0  0  0  0  0  0  0
   -4.5182    0.7386   -1.5403 H   0  0  0  0  0  0  0  0  0  0  0  0
   -4.0459   -0.4493    0.2438 C   0  0  0  0  0  0  0  0  0  0  0  0
   -3.1962   -0.6460    0.9346 H   0  0  0  0  0  0  0  0  0  0  0  0
   -4.2697   -1.4233   -0.2332 H   0  0  0  0  0  0  0  0  0  0  0  0
   -4.9390   -0.1333    0.8190 H   0  0  0  0  0  0  0  0  0  0  0  0
   -4.0339    2.5397    0.6120 C   0  0  0  0  0  0  0  0  0  0  0  0
   -3.5420    3.5019    0.8558 H   0  0  0  0  0  0  0  0  0  0  0  0
   -4.0054    1.9139    1.5245 H   0  0  0  0  0  0  0  0  0  0  0  0
   -5.4481    2.7617    0.1051 C   0  0  0  0  0  0  0  0  0  0  0  0
   -5.4627    3.3369   -0.8440 H   0  0  0  0  0  0  0  0  0  0  0  0
   -6.0072    3.3534    0.8555 H   0  0  0  0  0  0  0  0  0  0  0  0
   -5.9985    1.8141   -0.0478 H   0  0  0  0  0  0  0  0  0  0  0  0
    6.5571    2.1940   -0.1440 C   0  0  0  0  0  0  0  0  0  0  0  0
    7.3025    1.8249   -0.8805 H   0  0  0  0  0  0  0  0  0  0  0  0
    7.0811    2.2555    0.8339 H   0  0  0  0  0  0  0  0  0  0  0  0
    6.2769    3.2245   -0.4385 H   0  0  0  0  0  0  0  0  0  0  0  0
  2 19  1  0  0  0  0
  2 29  1  0  0  0  0
  3  2  1  0  0  0  0
  5  6  1  0  0  0  0
  6  4  1  0  0  0  0
  6  7  2  0  0  0  0
  7  8  1  0  0  0  0
  9  7  1  0  0  0  0
  9 10  1  0  0  0  0
 11  9  2  0  0  0  0
 12  5  2  0  0  0  0
 12 11  1  0  0  0  0
 13 12  1  0  0  0  0
 14  1  1  0  0  0  0
 14  5  1  0  0  0  0
 15 14  1  0  0  0  0
 16  1  1  0  0  0  0
 16 19  1  0  0  0  0
 17 16  1  0  0  0  0
 18 16  1  0  0  0  0
 19 21  1  0  0  0  0
 19 20  1  0  0  0  0
 22  2  1  0  0  0  0
 22 25  1  0  0  0  0
 23 22  1  0  0  0  0
 24 22  1  0  0  0  0
 25 28  1  0  0  0  0
 25 26  1  0  0  0  0
 27 25  1  0  0  0  0
 29 30  1  0  0  0  0
 29 31  1  0  0  0  0
 32 29  1  0  0  0  0
 32 34  1  0  0  0  0
 33 32  1  0  0  0  0
 35 32  1  0  0  0  0
 36 11  1  0  0  0  0
 36 38  1  0  0  0  0
 37 36  1  0  0  0  0
 39 36  1  0  0  0  0
M  CHG  2   2   1   4  -1
M  END
