1,28
 OpenBabel05122313063D

 28 29  0  0  1  0  0  0  0  0999 V2000
    2.0616   -0.4990    0.0432 N   0  0  2  0  0  0  0  0  0  0  0  0
    2.5069   -0.7755   -1.3791 C   0  0  2  0  0  0  0  0  0  0  0  0
    2.3894   -1.8732   -1.4917 H   0  0  0  0  0  0  0  0  0  0  0  0
    3.9902   -0.3753   -1.5272 C   0  0  0  0  0  0  0  0  0  0  0  0
    4.5335   -1.1340   -2.1253 H   0  0  0  0  0  0  0  0  0  0  0  0
    4.0819    0.5866   -2.0756 H   0  0  0  0  0  0  0  0  0  0  0  0
    4.6128   -0.2532   -0.1208 C   0  0  1  0  0  0  0  0  0  0  0  0
    5.7143   -0.1518   -0.1886 H   0  0  0  0  0  0  0  0  0  0  0  0
    4.0204    0.9830    0.6094 C   0  0  2  0  0  0  0  0  0  0  0  0
    4.3054    0.9054    1.6807 H   0  0  0  0  0  0  0  0  0  0  0  0
    2.4706    0.8672    0.4809 C   0  0  0  0  0  0  0  0  0  0  0  0
    1.9539    1.0662    1.4385 H   0  0  0  0  0  0  0  0  0  0  0  0
    2.0785    1.5839   -0.2668 H   0  0  0  0  0  0  0  0  0  0  0  0
    2.6990   -1.4991    0.9413 C   0  0  0  0  0  0  0  0  0  0  0  0
    2.2418   -2.4821    0.7207 H   0  0  0  0  0  0  0  0  0  0  0  0
    2.4096   -1.2311    1.9756 H   0  0  0  0  0  0  0  0  0  0  0  0
    4.2352   -1.4976    0.7087 C   0  0  0  0  0  0  0  0  0  0  0  0
    4.7743   -1.4885    1.6776 H   0  0  0  0  0  0  0  0  0  0  0  0
    4.5533   -2.4149    0.1714 H   0  0  0  0  0  0  0  0  0  0  0  0
    1.4856   -0.1334   -2.3242 C   0  0  0  0  0  0  0  0  0  0  0  0
    1.6264    0.9876   -2.2787 H   0  0  0  0  0  0  0  0  0  0  0  0
    1.7600   -0.4182   -3.3730 H   0  0  0  0  0  0  0  0  0  0  0  0
    4.5256    2.3007    0.0958 C   0  0  0  0  0  0  0  0  0  0  0  0
    4.3038    2.5278   -0.9640 H   0  0  0  0  0  0  0  0  0  0  0  0
    5.2013    3.2057    0.8250 C   0  0  0  0  0  0  0  0  0  0  0  0
    5.4339    3.0260    1.8884 H   0  0  0  0  0  0  0  0  0  0  0  0
    5.5443    4.1577    0.3911 H   0  0  0  0  0  0  0  0  0  0  0  0
    0.2009   -0.5518   -2.0145 O   0  0  0  0  0  1  0  0  0  0  0  0
  1 11  1  1  0  0  0
  1 14  1  0  0  0  0
  2  3  1  6  0  0  0
  2  1  1  0  0  0  0
  4  2  1  0  0  0  0
  4  7  1  0  0  0  0
  5  4  1  0  0  0  0
  6  4  1  0  0  0  0
  7  8  1  6  0  0  0
  7  9  1  0  0  0  0
  7 17  1  0  0  0  0
  9 10  1  1  0  0  0
 11  9  1  0  0  0  0
 11 12  1  0  0  0  0
 13 11  1  0  0  0  0
 14 16  1  0  0  0  0
 15 14  1  0  0  0  0
 17 14  1  0  0  0  0
 17 18  1  0  0  0  0
 19 17  1  0  0  0  0
 20 21  1  0  0  0  0
 20 28  1  0  0  0  0
 20  2  1  0  0  0  0
 22 20  1  0  0  0  0
 23  9  1  0  0  0  0
 23 25  2  0  0  0  0
 24 23  1  0  0  0  0
 25 26  1  0  0  0  0
 27 25  1  0  0  0  0
M  END
