1,2
 OpenBabel05122313063D

 28 29  0  0  1  0  0  0  0  0999 V2000
    2.0582   -0.3044    0.1252 N   0  0  2  0  0  0  0  0  0  0  0  0
    0.2811   -0.2527   -2.0053 O   0  0  0  0  0  1  0  0  0  0  0  0
    2.5520    0.0173   -1.2711 C   0  0  1  0  0  0  0  0  0  0  0  0
    2.4086    1.1130   -1.3627 H   0  0  0  0  0  0  0  0  0  0  0  0
    4.0524   -0.3268   -1.3718 C   0  0  0  0  0  0  0  0  0  0  0  0
    4.2019   -1.2676   -1.9455 H   0  0  0  0  0  0  0  0  0  0  0  0
    4.5901    0.4773   -1.9112 H   0  0  0  0  0  0  0  0  0  0  0  0
    4.6135   -0.5021    0.0534 C   0  0  1  0  0  0  0  0  0  0  0  0
    5.7205   -0.5733    0.0290 H   0  0  0  0  0  0  0  0  0  0  0  0
    4.1909    0.7037    0.9462 C   0  0  2  0  0  0  0  0  0  0  0  0
    4.6321    0.5141    1.9507 H   0  0  0  0  0  0  0  0  0  0  0  0
    2.6407    0.6790    1.0748 C   0  0  0  0  0  0  0  0  0  0  0  0
    2.2990    0.3929    2.0871 H   0  0  0  0  0  0  0  0  0  0  0  0
    2.1834    1.6599    0.8522 H   0  0  0  0  0  0  0  0  0  0  0  0
    2.4659   -1.6784    0.5456 C   0  0  0  0  0  0  0  0  0  0  0  0
    2.0633   -2.3830   -0.2064 H   0  0  0  0  0  0  0  0  0  0  0  0
    1.9440   -1.8769    1.5007 H   0  0  0  0  0  0  0  0  0  0  0  0
    4.0083   -1.7760    0.6630 C   0  0  0  0  0  0  0  0  0  0  0  0
    4.3225   -1.8772    1.7224 H   0  0  0  0  0  0  0  0  0  0  0  0
    4.3822   -2.6712    0.1259 H   0  0  0  0  0  0  0  0  0  0  0  0
    1.5883   -0.6321   -2.2692 C   0  0  0  0  0  0  0  0  0  0  0  0
    1.8980   -0.3193   -3.2999 H   0  0  0  0  0  0  0  0  0  0  0  0
    1.7565   -1.7501   -2.2395 H   0  0  0  0  0  0  0  0  0  0  0  0
    4.8030    1.9904    0.4467 C   0  0  0  0  0  0  0  0  0  0  0  0
    5.9091    1.9683    0.4196 H   0  0  0  0  0  0  0  0  0  0  0  0
    4.1871    3.1125    0.0375 C   0  0  0  0  0  0  0  0  0  0  0  0
    3.0909    3.2230    0.0319 H   0  0  0  0  0  0  0  0  0  0  0  0
    4.7684    3.9804   -0.3095 H   0  0  0  0  0  0  0  0  0  0  0  0
  1 15  1  1  0  0  0
  1 12  1  0  0  0  0
  3  4  1  6  0  0  0
  3  1  1  0  0  0  0
  5  3  1  0  0  0  0
  5  8  1  0  0  0  0
  6  5  1  0  0  0  0
  7  5  1  0  0  0  0
  8  9  1  6  0  0  0
  8 18  1  0  0  0  0
  8 10  1  0  0  0  0
 10 12  1  0  0  0  0
 10 11  1  1  0  0  0
 12 13  1  0  0  0  0
 14 12  1  0  0  0  0
 15 18  1  0  0  0  0
 15 17  1  0  0  0  0
 16 15  1  0  0  0  0
 18 19  1  0  0  0  0
 20 18  1  0  0  0  0
 21 23  1  0  0  0  0
 21  2  1  0  0  0  0
 21  3  1  0  0  0  0
 22 21  1  0  0  0  0
 24 10  1  0  0  0  0
 25 24  1  0  0  0  0
 26 24  2  0  0  0  0
 27 26  1  0  0  0  0
 28 26  1  0  0  0  0
M  END
