1,2
 OpenBabel05122313063D

 30 31  0  0  1  0  0  0  0  0999 V2000
    0.6529    1.5363    0.9330 O   0  0  0  0  0  1  0  0  0  0  0  0
    2.6812    0.1548   -0.4220 N   0  0  2  0  0  0  0  0  0  0  0  0
    3.0092    1.1887    0.6280 C   0  0  1  0  0  0  0  0  0  0  0  0
    2.9785    0.6251    1.5838 H   0  0  0  0  0  0  0  0  0  0  0  0
    4.4284    1.7428    0.3800 C   0  0  0  0  0  0  0  0  0  0  0  0
    4.9774    1.8362    1.3376 H   0  0  0  0  0  0  0  0  0  0  0  0
    4.3765    2.7628   -0.0598 H   0  0  0  0  0  0  0  0  0  0  0  0
    5.1574    0.8024   -0.6013 C   0  0  1  0  0  0  0  0  0  0  0  0
    6.2303    1.0758   -0.6720 H   0  0  0  0  0  0  0  0  0  0  0  0
    5.0299   -0.6743   -0.1515 C   0  0  2  0  0  0  0  0  0  0  0  0
    5.5488   -1.2889   -0.9201 H   0  0  0  0  0  0  0  0  0  0  0  0
    3.5141   -1.0494   -0.1697 C   0  0  0  0  0  0  0  0  0  0  0  0
    3.2493   -1.7927   -0.9449 H   0  0  0  0  0  0  0  0  0  0  0  0
    3.1881   -1.4706    0.8023 H   0  0  0  0  0  0  0  0  0  0  0  0
    2.9658    0.6624   -1.7964 C   0  0  0  0  0  0  0  0  0  0  0  0
    2.3599    1.5773   -1.9427 H   0  0  0  0  0  0  0  0  0  0  0  0
    2.5777   -0.1038   -2.4941 H   0  0  0  0  0  0  0  0  0  0  0  0
    4.4811    0.9376   -1.9752 C   0  0  0  0  0  0  0  0  0  0  0  0
    4.9312    0.2203   -2.6918 H   0  0  0  0  0  0  0  0  0  0  0  0
    4.6449    1.9546   -2.3861 H   0  0  0  0  0  0  0  0  0  0  0  0
    1.8571    2.1890    0.6911 C   0  0  0  0  0  0  0  0  0  0  0  0
    2.0643    2.9193    1.5132 H   0  0  0  0  0  0  0  0  0  0  0  0
    1.8532    2.8000   -0.2560 H   0  0  0  0  0  0  0  0  0  0  0  0
    5.7056   -0.9676    1.1972 C   0  0  0  0  0  0  0  0  0  0  0  0
    6.7255   -0.5239    1.1883 H   0  0  0  0  0  0  0  0  0  0  0  0
    5.1546   -0.4469    2.0114 H   0  0  0  0  0  0  0  0  0  0  0  0
    5.8021   -2.4598    1.5198 C   0  0  0  0  0  0  0  0  0  0  0  0
    4.8013   -2.9372    1.5645 H   0  0  0  0  0  0  0  0  0  0  0  0
    6.2933   -2.6338    2.4980 H   0  0  0  0  0  0  0  0  0  0  0  0
    6.3890   -2.9995    0.7474 H   0  0  0  0  0  0  0  0  0  0  0  0
  2 15  1  6  0  0  0
  2 12  1  0  0  0  0
  2  3  1  0  0  0  0
  3 21  1  0  0  0  0
  3  4  1  1  0  0  0
  5  3  1  0  0  0  0
  5  6  1  0  0  0  0
  7  5  1  0  0  0  0
  8  9  1  6  0  0  0
  8 10  1  0  0  0  0
  8  5  1  0  0  0  0
 10 11  1  6  0  0  0
 10 24  1  0  0  0  0
 12 10  1  0  0  0  0
 12 14  1  0  0  0  0
 13 12  1  0  0  0  0
 16 15  1  0  0  0  0
 17 15  1  0  0  0  0
 18 15  1  0  0  0  0
 18  8  1  0  0  0  0
 19 18  1  0  0  0  0
 20 18  1  0  0  0  0
 21  1  1  0  0  0  0
 21 22  1  0  0  0  0
 23 21  1  0  0  0  0
 24 27  1  0  0  0  0
 24 26  1  0  0  0  0
 25 24  1  0  0  0  0
 27 28  1  0  0  0  0
 27 29  1  0  0  0  0
 30 27  1  0  0  0  0
M  END
