1,4
 OpenBabel05122313063D

 35 36  0  0  0  0  0  0  0  0999 V2000
   -0.7771    1.5617    0.2698 N   0  0  0  0  0  2  0  0  0  0  0  0
    4.6453    2.5513    1.5823 N   0  0  0  0  0  0  0  0  0  0  0  0
   -7.1530    3.0349   -1.0158 N   0  0  0  0  0  0  0  0  0  0  0  0
   -3.4113    0.3939    0.4233 O   0  5  0  0  0  0  0  0  0  0  0  0
   -7.5681    4.1260   -1.4077 O   0  0  0  0  0  0  0  0  0  0  0  0
   -7.8587    2.0430   -0.8200 O   0  0  0  0  0  0  0  0  0  0  0  0
   -3.8165    1.5264   -0.0369 C   0  0  0  0  0  0  0  0  0  0  0  0
   -5.2207    1.7175   -0.2421 C   0  0  0  0  0  0  0  0  0  0  0  0
   -5.9065    0.8953   -0.0051 H   0  0  0  0  0  0  0  0  0  0  0  0
   -5.6926    2.9086   -0.7673 C   0  0  0  0  0  0  0  0  0  0  0  0
   -4.8514    4.0019   -1.0811 C   0  0  0  0  0  0  0  0  0  0  0  0
   -5.2877    4.9243   -1.4817 H   0  0  0  0  0  0  0  0  0  0  0  0
   -3.4907    3.8473   -0.8535 C   0  0  0  0  0  3  0  0  0  0  0  0
   -2.8075    4.6836   -1.0721 H   0  0  0  0  0  0  0  0  0  0  0  0
   -2.9350    2.6328   -0.3537 C   0  0  0  0  0  0  0  0  0  0  0  0
   -1.5288    2.5924   -0.0717 C   0  0  0  0  0  0  0  0  0  0  0  0
   -1.0188    3.5759   -0.0965 H   0  0  0  0  0  0  0  0  0  0  0  0
    0.5794    1.8384    0.5980 C   0  0  0  0  0  0  0  0  0  0  0  0
    1.1360    1.3169    1.7823 C   0  0  0  0  0  0  0  0  0  0  0  0
    0.5022    0.7013    2.4369 H   0  0  0  0  0  0  0  0  0  0  0  0
    2.4672    1.5593    2.1191 C   0  0  0  0  0  0  0  0  0  0  0  0
    2.8543    1.1389    3.0555 H   0  0  0  0  0  0  0  0  0  0  0  0
    3.3140    2.3279    1.2696 C   0  0  0  0  0  0  0  0  0  0  0  0
    2.7411    2.8514    0.0771 C   0  0  0  0  0  0  0  0  0  0  0  0
    3.3527    3.4312   -0.6254 H   0  0  0  0  0  0  0  0  0  0  0  0
    1.4035    2.6091   -0.2458 C   0  0  0  0  0  0  0  0  0  0  0  0
    1.0009    2.9902   -1.1963 H   0  0  0  0  0  0  0  0  0  0  0  0
    5.1991    2.0138    2.8091 C   0  0  0  0  0  0  0  0  0  0  0  0
    5.0655    0.9120    2.8619 H   0  0  0  0  0  0  0  0  0  0  0  0
    4.7389    2.4563    3.7241 H   0  0  0  0  0  0  0  0  0  0  0  0
    6.2852    2.2153    2.8389 H   0  0  0  0  0  0  0  0  0  0  0  0
    5.4026    3.5242    0.8192 C   0  0  0  0  0  0  0  0  0  0  0  0
    4.9172    4.5273    0.8148 H   0  0  0  0  0  0  0  0  0  0  0  0
    5.5372    3.2104   -0.2397 H   0  0  0  0  0  0  0  0  0  0  0  0
    6.4075    3.6359    1.2649 H   0  0  0  0  0  0  0  0  0  0  0  0
  1 18  1  0  0  0  0
  2 28  1  0  0  0  0
  3  6  2  0  0  0  0
  3 10  1  0  0  0  0
  5  3  2  0  0  0  0
  7  4  1  0  0  0  0
  8  7  2  0  0  0  0
  8  9  1  0  0  0  0
 10  8  1  0  0  0  0
 11 13  1  0  0  0  0
 11 10  2  0  0  0  0
 12 11  1  0  0  0  0
 13 15  1  0  0  0  0
 14 13  1  0  0  0  0
 15 16  2  0  0  0  0
 15  7  1  0  0  0  0
 16  1  1  0  0  0  0
 17 16  1  0  0  0  0
 18 19  1  0  0  0  0
 19 21  2  0  0  0  0
 19 20  1  0  0  0  0
 21 22  1  0  0  0  0
 23  2  1  0  0  0  0
 23 21  1  0  0  0  0
 24 23  2  0  0  0  0
 25 24  1  0  0  0  0
 26 24  1  0  0  0  0
 26 18  2  0  0  0  0
 27 26  1  0  0  0  0
 28 31  1  0  0  0  0
 28 29  1  0  0  0  0
 28 30  1  0  0  0  0
 32 35  1  0  0  0  0
 32  2  1  0  0  0  0
 33 32  1  0  0  0  0
 34 32  1  0  0  0  0
M  CHG  1   4  -1
M  END
