1,2
 OpenBabel05122313063D

 24 25  0  0  0  0  0  0  0  0999 V2000
   -1.6684    0.7054    0.8300 O   0  5  0  0  0  0  0  0  0  0  0  0
   -0.1570    2.9434    0.1167 N   0  0  0  0  0  2  0  0  0  0  0  0
   -2.5803    2.6945   -0.0097 N   0  0  0  0  0  0  0  0  0  0  0  0
    0.8834    3.8147    0.2090 C   0  0  0  0  0  3  0  0  0  0  0  0
    1.8796    3.3584    0.2842 H   0  0  0  0  0  0  0  0  0  0  0  0
    0.7390    5.1983    0.1974 C   0  0  0  0  0  0  0  0  0  0  0  0
    1.6295    5.8369    0.2755 H   0  0  0  0  0  0  0  0  0  0  0  0
   -0.5576    5.7337    0.0689 C   0  0  0  0  0  0  0  0  0  0  0  0
   -0.7195    6.8222    0.0396 H   0  0  0  0  0  0  0  0  0  0  0  0
   -1.6321    4.8602   -0.0165 C   0  0  0  0  0  0  0  0  0  0  0  0
   -2.6693    5.2096   -0.1056 H   0  0  0  0  0  0  0  0  0  0  0  0
   -1.4457    3.4453    0.0329 C   0  0  0  0  0  0  0  0  0  0  0  0
   -2.6451    1.4359    0.3987 C   0  0  0  0  0  0  0  0  0  0  0  0
   -3.9886    0.7793    0.3710 C   0  0  0  0  0  0  0  0  0  0  0  0
   -5.1183    1.4678   -0.1184 C   0  0  0  0  0  0  0  0  0  0  0  0
   -4.9838    2.5101   -0.4411 H   0  0  0  0  0  0  0  0  0  0  0  0
   -6.3601    0.8246   -0.1916 C   0  0  0  0  0  0  0  0  0  0  0  0
   -7.2363    1.3664   -0.5803 H   0  0  0  0  0  0  0  0  0  0  0  0
   -6.4905   -0.5097    0.2323 C   0  0  0  0  0  0  0  0  0  0  0  0
   -7.4675   -1.0141    0.1741 H   0  0  0  0  0  0  0  0  0  0  0  0
   -5.3712   -1.1966    0.7311 C   0  0  0  0  0  0  0  0  0  0  0  0
   -5.4669   -2.2424    1.0611 H   0  0  0  0  0  0  0  0  0  0  0  0
   -4.1269   -0.5573    0.7993 C   0  0  0  0  0  0  0  0  0  0  0  0
   -3.2376   -1.0866    1.1676 H   0  0  0  0  0  0  0  0  0  0  0  0
  2  4  1  0  0  0  0
  3 12  1  0  0  0  0
  3 13  2  0  0  0  0
  4  5  1  0  0  0  0
  6  4  1  0  0  0  0
  6  7  1  0  0  0  0
  8  6  2  0  0  0  0
  9  8  1  0  0  0  0
 10 12  2  0  0  0  0
 10  8  1  0  0  0  0
 11 10  1  0  0  0  0
 12  2  1  0  0  0  0
 13  1  1  0  0  0  0
 14 13  1  0  0  0  0
 14 23  1  0  0  0  0
 15 14  2  0  0  0  0
 16 15  1  0  0  0  0
 17 15  1  0  0  0  0
 17 19  2  0  0  0  0
 18 17  1  0  0  0  0
 19 21  1  0  0  0  0
 20 19  1  0  0  0  0
 21 23  2  0  0  0  0
 21 22  1  0  0  0  0
 23 24  1  0  0  0  0
M  CHG  1   1  -1
M  END
