1,3
 OpenBabel05122313063D

 24 24  0  0  0  0  0  0  0  0999 V2000
    1.9058    0.6568    0.1270 O   0  5  0  0  0  0  0  0  0  0  0  0
    6.6766    0.4845   -0.0433 O   0  0  0  0  0  0  0  0  0  0  0  0
    0.5507   -1.9484    0.1393 N   0  0  0  0  0  2  0  0  0  0  0  0
   -0.4718   -2.8451    0.2893 N   0  0  0  0  0  0  0  0  0  0  0  0
    2.9851   -1.5277    0.0289 C   0  0  0  0  0  0  0  0  0  0  0  0
    2.9943   -0.0918    0.0668 C   0  0  0  0  0  0  0  0  0  0  0  0
    4.2406    0.5912    0.0494 C   0  0  0  0  0  0  0  0  0  0  0  0
    5.4521   -0.1082   -0.0167 C   0  0  0  0  0  0  0  0  0  0  0  0
    5.4532   -1.5258   -0.0629 C   0  0  0  0  0  0  0  0  0  0  0  0
    4.2405   -2.1970   -0.0375 C   0  0  0  0  0  3  0  0  0  0  0  0
    1.8035   -2.3508    0.0859 C   0  0  0  0  0  0  0  0  0  0  0  0
   -0.3113   -4.2036   -0.1593 C   0  0  0  0  0  0  0  0  0  0  0  0
    6.7419    1.8962    0.0035 C   0  0  0  0  0  0  0  0  0  0  0  0
   -1.3586   -2.3608    0.0696 H   0  0  0  0  0  0  0  0  0  0  0  0
    4.2040    1.6872    0.0839 H   0  0  0  0  0  0  0  0  0  0  0  0
    6.4138   -2.0556   -0.1142 H   0  0  0  0  0  0  0  0  0  0  0  0
    4.2374   -3.2984   -0.0658 H   0  0  0  0  0  0  0  0  0  0  0  0
    1.9840   -3.4376    0.1240 H   0  0  0  0  0  0  0  0  0  0  0  0
    0.1216   -4.2789   -1.1880 H   0  0  0  0  0  0  0  0  0  0  0  0
   -1.3107   -4.6779   -0.1598 H   0  0  0  0  0  0  0  0  0  0  0  0
    0.3352   -4.7981    0.5235 H   0  0  0  0  0  0  0  0  0  0  0  0
    7.8149    2.1625   -0.0266 H   0  0  0  0  0  0  0  0  0  0  0  0
    6.2941    2.3013    0.9389 H   0  0  0  0  0  0  0  0  0  0  0  0
    6.2279    2.3641   -0.8663 H   0  0  0  0  0  0  0  0  0  0  0  0
  2  8  1  0  0  0  0
  2 13  1  0  0  0  0
  3  4  1  0  0  0  0
  5  6  1  0  0  0  0
  5 11  2  0  0  0  0
  6  1  1  0  0  0  0
  7  6  2  0  0  0  0
  7 15  1  0  0  0  0
  8  7  1  0  0  0  0
  9 10  1  0  0  0  0
  9  8  2  0  0  0  0
 10  5  1  0  0  0  0
 11 18  1  0  0  0  0
 11  3  1  0  0  0  0
 12  4  1  0  0  0  0
 12 21  1  0  0  0  0
 13 23  1  0  0  0  0
 14  4  1  0  0  0  0
 16  9  1  0  0  0  0
 17 10  1  0  0  0  0
 19 12  1  0  0  0  0
 20 12  1  0  0  0  0
 22 13  1  0  0  0  0
 24 13  1  0  0  0  0
M  CHG  1   1  -1
M  END
