1,3
 OpenBabel05122313063D

 27 27  0  0  1  0  0  0  0  0999 V2000
   -1.9398   -0.5526    0.0001 O   0  0  0  0  0  1  0  0  0  0  0  0
   -6.6930   -0.2312   -0.0005 O   0  0  0  0  0  0  0  0  0  0  0  0
   -0.4998    1.9877    0.0001 N   0  0  0  0  0  2  0  0  0  0  0  0
    0.4287    3.0674    0.0001 N   0  0  0  0  0  0  0  0  0  0  0  0
   -2.9522    1.6574    0.0000 C   0  0  0  0  0  0  0  0  0  0  0  0
   -2.9942    0.2179   -0.0000 C   0  0  1  0  0  3  0  0  0  0  0  0
   -4.2667   -0.4278   -0.0002 C   0  0  0  0  0  0  0  0  0  0  0  0
   -5.4503    0.3143   -0.0003 C   0  0  0  0  0  0  0  0  0  0  0  0
   -5.4139    1.7396   -0.0002 C   0  0  0  0  0  0  0  0  0  0  0  0
   -4.1877    2.3748   -0.0000 C   0  0  0  0  0  0  0  0  0  0  0  0
   -1.7470    2.4185    0.0001 C   0  0  0  0  0  0  0  0  0  0  0  0
    1.1879    3.1653    1.2403 C   0  0  0  0  0  0  0  0  0  0  0  0
    1.1879    3.1652   -1.2402 C   0  0  0  0  0  0  0  0  0  0  0  0
   -6.8104   -1.6425   -0.0008 C   0  0  0  0  0  0  0  0  0  0  0  0
   -4.2630   -1.5246   -0.0003 H   0  0  0  0  0  0  0  0  0  0  0  0
   -6.3628    2.2922   -0.0002 H   0  0  0  0  0  0  0  0  0  0  0  0
   -4.1458    3.4756    0.0000 H   0  0  0  0  0  0  0  0  0  0  0  0
   -1.8454    3.5189    0.0000 H   0  0  0  0  0  0  0  0  0  0  0  0
    1.8915    2.3209    1.4102 H   0  0  0  0  0  0  0  0  0  0  0  0
    0.4813    3.2205    2.0923 H   0  0  0  0  0  0  0  0  0  0  0  0
    1.7600    4.1151    1.2125 H   0  0  0  0  0  0  0  0  0  0  0  0
    0.4813    3.2198   -2.0922 H   0  0  0  0  0  0  0  0  0  0  0  0
    1.8919    2.3210   -1.4098 H   0  0  0  0  0  0  0  0  0  0  0  0
    1.7596    4.1153   -1.2126 H   0  0  0  0  0  0  0  0  0  0  0  0
   -6.3441   -2.0943   -0.9044 H   0  0  0  0  0  0  0  0  0  0  0  0
   -7.8931   -1.8667   -0.0010 H   0  0  0  0  0  0  0  0  0  0  0  0
   -6.3445   -2.0947    0.9029 H   0  0  0  0  0  0  0  0  0  0  0  0
  2  8  1  0  0  0  0
  4  3  1  0  0  0  0
  4 12  1  0  0  0  0
  5 11  2  0  0  0  0
  6  5  1  0  0  0  0
  6  1  1  6  0  0  0
  7  6  1  0  0  0  0
  8  7  2  0  0  0  0
  8  9  1  0  0  0  0
  9 10  2  0  0  0  0
 10  5  1  0  0  0  0
 10 17  1  0  0  0  0
 11  3  1  0  0  0  0
 12 19  1  0  0  0  0
 12 20  1  0  0  0  0
 13 24  1  0  0  0  0
 13  4  1  0  0  0  0
 14  2  1  0  0  0  0
 14 27  1  0  0  0  0
 15  7  1  0  0  0  0
 16  9  1  0  0  0  0
 18 11  1  0  0  0  0
 21 12  1  0  0  0  0
 22 13  1  0  0  0  0
 23 13  1  0  0  0  0
 25 14  1  0  0  0  0
 26 14  1  0  0  0  0
M  END
