1,2
 OpenBabel05122313063D

 32 33  0  0  1  0  0  0  0  0999 V2000
    0.6323    1.9335    0.0001 N   0  0  0  0  0  2  0  0  0  0  0  0
   -1.9260    0.5491   -0.0009 O   0  0  0  0  0  1  0  0  0  0  0  0
   -0.1749    2.9707    0.0003 C   0  0  0  0  0  0  0  0  0  0  0  0
    0.3110    3.9666    0.0004 H   0  0  0  0  0  0  0  0  0  0  0  0
   -1.6054    2.9801    0.0002 C   0  0  0  0  0  0  0  0  0  0  0  0
   -2.3806    1.7784   -0.0003 C   0  0  1  0  0  3  0  0  0  0  0  0
   -3.8186    1.8827   -0.0004 C   0  0  0  0  0  0  0  0  0  0  0  0
   -4.4340    3.1319    0.0000 C   0  0  0  0  0  0  0  0  0  0  0  0
   -5.5334    3.1708   -0.0000 H   0  0  0  0  0  0  0  0  0  0  0  0
   -3.6579    4.3190    0.0005 C   0  0  0  0  0  0  0  0  0  0  0  0
   -4.1633    5.2955    0.0009 H   0  0  0  0  0  0  0  0  0  0  0  0
   -2.2741    4.2475    0.0006 C   0  0  0  0  0  0  0  0  0  0  0  0
   -1.6639    5.1635    0.0010 H   0  0  0  0  0  0  0  0  0  0  0  0
    2.0413    2.1845   -0.0001 C   0  0  0  0  0  0  0  0  0  0  0  0
    2.7202    2.2704   -1.2389 C   0  0  0  0  0  0  0  0  0  0  0  0
    4.1101    2.4931   -1.2147 C   0  0  0  0  0  0  0  0  0  0  0  0
    4.6556    2.5596   -2.1686 H   0  0  0  0  0  0  0  0  0  0  0  0
    4.8009    2.6113   -0.0005 C   0  0  0  0  0  0  0  0  0  0  0  0
    5.8888    2.7736   -0.0007 H   0  0  0  0  0  0  0  0  0  0  0  0
    4.1105    2.4932    1.2139 C   0  0  0  0  0  0  0  0  0  0  0  0
    4.6562    2.5599    2.1676 H   0  0  0  0  0  0  0  0  0  0  0  0
    2.7206    2.2705    1.2386 C   0  0  0  0  0  0  0  0  0  0  0  0
    1.9712    2.0885   -2.5315 C   0  0  0  0  0  0  0  0  0  0  0  0
    2.6514    2.1575   -3.4010 H   0  0  0  0  0  0  0  0  0  0  0  0
    1.1697    2.8452   -2.6585 H   0  0  0  0  0  0  0  0  0  0  0  0
    1.4709    1.0968   -2.5529 H   0  0  0  0  0  0  0  0  0  0  0  0
    1.9720    2.0887    2.5313 C   0  0  0  0  0  0  0  0  0  0  0  0
    2.6523    2.1579    3.4006 H   0  0  0  0  0  0  0  0  0  0  0  0
    1.4717    1.0969    2.5530 H   0  0  0  0  0  0  0  0  0  0  0  0
    1.1703    2.8453    2.6585 H   0  0  0  0  0  0  0  0  0  0  0  0
   -4.5315    0.7359   -0.0010 O   0  0  0  0  0  0  0  0  0  0  0  0
   -3.8676    0.0063   -0.0011 H   0  0  0  0  0  0  0  0  0  0  0  0
  1  3  1  0  0  0  0
  3  4  1  0  0  0  0
  5  3  2  0  0  0  0
  5 12  1  0  0  0  0
  6  2  1  6  0  0  0
  6  5  1  0  0  0  0
  7  6  1  0  0  0  0
  7  8  2  0  0  0  0
  8 10  1  0  0  0  0
  9  8  1  0  0  0  0
 10 12  2  0  0  0  0
 10 11  1  0  0  0  0
 12 13  1  0  0  0  0
 14  1  1  0  0  0  0
 14 22  1  0  0  0  0
 15 16  1  0  0  0  0
 15 14  2  0  0  0  0
 16 18  2  0  0  0  0
 17 16  1  0  0  0  0
 18 20  1  0  0  0  0
 19 18  1  0  0  0  0
 20 22  2  0  0  0  0
 20 21  1  0  0  0  0
 22 27  1  0  0  0  0
 23 15  1  0  0  0  0
 24 23  1  0  0  0  0
 25 23  1  0  0  0  0
 26 23  1  0  0  0  0
 27 29  1  0  0  0  0
 27 30  1  0  0  0  0
 27 28  1  0  0  0  0
 31  7  1  0  0  0  0
 32 31  1  0  0  0  0
M  END
