1,2
 OpenBabel05122313063D

 17 17  0  0  1  0  0  0  0  0999 V2000
   -1.6059    0.6603   -0.0955 N   0  0  0  0  0  0  0  0  0  0  0  0
   -1.4767   -2.0034   -0.0739 O   0  5  0  0  0  0  0  0  0  0  0  0
   -3.6972   -2.2351   -0.3459 O   0  0  0  0  0  0  0  0  0  0  0  0
   -3.3654    2.9087    0.0623 O   0  0  0  0  0  0  0  0  0  0  0  0
   -2.7320   -0.0641   -0.7812 C   0  0  1  0  0  0  0  0  0  0  0  0
   -2.6752   -1.5614   -0.3647 C   0  0  0  0  0  0  0  0  0  0  0  0
   -4.0271    0.6424   -0.3296 C   0  0  0  0  0  0  0  0  0  0  0  0
   -3.5742    1.6609    0.7310 C   0  0  1  0  0  0  0  0  0  0  0  0
   -2.2203    1.0928    1.1906 C   0  0  0  0  0  0  0  0  0  0  0  0
   -3.1973    3.5838    0.7455 H   0  0  0  0  0  0  0  0  0  0  0  0
   -2.5596   -0.0240   -1.8750 H   0  0  0  0  0  0  0  0  0  0  0  0
   -4.5410    1.1797   -1.1477 H   0  0  0  0  0  0  0  0  0  0  0  0
   -4.7197   -0.1214    0.0760 H   0  0  0  0  0  0  0  0  0  0  0  0
   -4.2997    1.7581    1.5689 H   0  0  0  0  0  0  0  0  0  0  0  0
   -2.3424    0.2029    1.8400 H   0  0  0  0  0  0  0  0  0  0  0  0
   -1.5727    1.8270    1.7094 H   0  0  0  0  0  0  0  0  0  0  0  0
   -1.4216    1.5274   -0.6238 H   0  0  0  0  0  0  0  0  0  0  0  0
  1  9  1  0  0  0  0
  4  8  1  0  0  0  0
  4 10  1  0  0  0  0
  5 11  1  6  0  0  0
  5  6  1  0  0  0  0
  5  7  1  0  0  0  0
  5  1  1  0  0  0  0
  6  3  2  0  0  0  0
  6  2  1  0  0  0  0
  7 13  1  0  0  0  0
  7  8  1  0  0  0  0
  8  9  1  0  0  0  0
  8 14  1  1  0  0  0
  9 16  1  0  0  0  0
  9 15  1  0  0  0  0
 12  7  1  0  0  0  0
 17  1  1  0  0  0  0
M  CHG  1   2  -1
M  END
