1,2
 OpenBabel05122313063D

 22 24  0  0  0  0  0  0  0  0999 V2000
   -0.1710   -1.2782   -1.2761 O   0  0  0  0  0  1  0  0  0  0  0  0
   -0.4885    1.2015   -0.3833 N   0  0  0  0  0  2  0  0  0  0  0  0
   -1.1729   -1.6141   -0.4989 N   0  0  0  0  0  0  0  0  0  0  0  0
   -0.2171    2.5086   -0.4366 C   0  0  0  0  0  0  0  0  0  0  0  0
   -1.2117    3.4957   -0.2725 C   0  0  0  0  0  0  0  0  0  0  0  0
   -2.4965    3.0914    0.0559 C   0  0  0  0  0  0  0  0  0  0  0  0
   -2.8049    1.7098    0.1640 C   0  0  0  0  0  0  0  0  0  0  0  0
   -4.0974    1.2576    0.5758 C   0  0  0  0  0  0  0  0  0  0  0  0
   -4.3473   -0.0858    0.7437 C   0  0  0  0  0  0  0  0  0  0  0  0
   -3.3589   -1.0704    0.4298 C   0  0  0  0  0  0  0  0  0  0  0  0
   -3.6266   -2.4859    0.4165 C   0  0  0  0  0  0  0  0  0  0  0  0
   -2.5635   -3.3459    0.3008 C   0  0  0  0  0  3  0  0  0  0  0  0
   -1.2993   -2.9056   -0.0256 C   0  0  0  0  0  0  0  0  0  0  0  0
   -2.0968   -0.6456   -0.0908 C   0  0  0  0  0  0  0  0  0  0  0  0
   -1.7668    0.7585   -0.1425 C   0  0  0  0  0  0  0  0  0  0  0  0
    0.8488    2.7608   -0.5655 H   0  0  0  0  0  0  0  0  0  0  0  0
   -0.9414    4.5570   -0.3587 H   0  0  0  0  0  0  0  0  0  0  0  0
   -3.2894    3.8289    0.2551 H   0  0  0  0  0  0  0  0  0  0  0  0
   -4.8781    2.0076    0.7725 H   0  0  0  0  0  0  0  0  0  0  0  0
   -5.3296   -0.4341    1.0959 H   0  0  0  0  0  0  0  0  0  0  0  0
   -4.6782   -2.8225    0.3778 H   0  0  0  0  0  0  0  0  0  0  0  0
   -0.3471   -3.4597    0.0289 H   0  0  0  0  0  0  0  0  0  0  0  0
  1  3  1  0  0  0  0
  2 15  1  0  0  0  0
  3 14  1  0  0  0  0
  3 13  1  0  0  0  0
  4  2  1  0  0  0  0
  4  5  2  0  0  0  0
  5  6  1  0  0  0  0
  6  7  2  0  0  0  0
  6 18  1  0  0  0  0
  7  8  1  0  0  0  0
  8  9  2  0  0  0  0
  8 19  1  0  0  0  0
  9 20  1  0  0  0  0
 10  9  1  0  0  0  0
 11 10  2  0  0  0  0
 12 11  1  0  0  0  0
 13 22  1  0  0  0  0
 13 12  2  0  0  0  0
 14 10  1  0  0  0  0
 15 14  2  0  0  0  0
 15  7  1  0  0  0  0
 16  4  1  0  0  0  0
 17  5  1  0  0  0  0
 21 11  1  0  0  0  0
M  END
