1,4
 OpenBabel05122313063D

 39 41  0  0  0  0  0  0  0  0999 V2000
   -3.1069   -0.2770   -1.3591 O   0  5  0  0  0  0  0  0  0  0  0  0
    4.0317   -5.3892   -0.3721 O   0  0  0  0  0  0  0  0  0  0  0  0
    7.0169   -2.2713    1.4648 O   0  0  0  0  0  0  0  0  0  0  0  0
   -0.6044    0.2634   -1.3148 N   0  0  0  0  0  2  0  0  0  0  0  0
   -1.4256    1.2829   -1.7363 C   0  0  0  0  0  0  0  0  0  0  0  0
   -2.8178    0.9637   -1.7265 C   0  0  0  0  0  0  0  0  0  0  0  0
   -3.7478    1.9430   -2.0987 C   0  0  0  0  0  0  0  0  0  0  0  0
   -4.8187    1.6963   -2.0877 H   0  0  0  0  0  0  0  0  0  0  0  0
   -3.2870    3.2239   -2.4864 C   0  0  0  0  0  0  0  0  0  0  0  0
   -4.0254    3.9861   -2.7792 H   0  0  0  0  0  0  0  0  0  0  0  0
   -1.9283    3.5413   -2.5122 C   0  0  0  0  0  3  0  0  0  0  0  0
   -1.5883    4.5398   -2.8257 H   0  0  0  0  0  0  0  0  0  0  0  0
   -0.9611    2.5674   -2.1388 C   0  0  0  0  0  0  0  0  0  0  0  0
    0.4540    2.7582   -2.1332 C   0  0  0  0  0  0  0  0  0  0  0  0
    0.8799    3.7265   -2.4357 H   0  0  0  0  0  0  0  0  0  0  0  0
    1.2745    1.7093   -1.7739 C   0  0  0  0  0  0  0  0  0  0  0  0
    2.3658    1.8187   -1.8139 H   0  0  0  0  0  0  0  0  0  0  0  0
    0.7464    0.4368   -1.3808 C   0  0  0  0  0  0  0  0  0  0  0  0
    1.6132   -0.6833   -1.0607 C   0  0  0  0  0  0  0  0  0  0  0  0
    1.1701   -1.6743   -1.2305 H   0  0  0  0  0  0  0  0  0  0  0  0
    2.8802   -0.5751   -0.5686 C   0  0  0  0  0  0  0  0  0  0  0  0
    3.2878    0.4234   -0.3414 H   0  0  0  0  0  0  0  0  0  0  0  0
    3.7548   -1.6927   -0.2255 C   0  0  0  0  0  0  0  0  0  0  0  0
    3.4100   -3.0325   -0.5178 C   0  0  0  0  0  0  0  0  0  0  0  0
    2.4671   -3.2492   -1.0339 H   0  0  0  0  0  0  0  0  0  0  0  0
    4.2786   -4.0719   -0.1407 C   0  0  0  0  0  0  0  0  0  0  0  0
    5.4904   -3.7843    0.5203 C   0  0  0  0  0  0  0  0  0  0  0  0
    6.1630   -4.6018    0.8117 H   0  0  0  0  0  0  0  0  0  0  0  0
    5.8312   -2.4531    0.8135 C   0  0  0  0  0  0  0  0  0  0  0  0
    4.9684   -1.4037    0.4423 C   0  0  0  0  0  0  0  0  0  0  0  0
    5.1939   -0.3582    0.6854 H   0  0  0  0  0  0  0  0  0  0  0  0
    2.8151   -5.7389   -1.0101 C   0  0  0  0  0  0  0  0  0  0  0  0
    1.9281   -5.4051   -0.4270 H   0  0  0  0  0  0  0  0  0  0  0  0
    2.8068   -6.8422   -1.0815 H   0  0  0  0  0  0  0  0  0  0  0  0
    2.7445   -5.3094   -2.0343 H   0  0  0  0  0  0  0  0  0  0  0  0
    7.4056   -0.9526    1.7859 C   0  0  0  0  0  0  0  0  0  0  0  0
    7.5416   -0.3250    0.8745 H   0  0  0  0  0  0  0  0  0  0  0  0
    8.3755   -1.0296    2.3121 H   0  0  0  0  0  0  0  0  0  0  0  0
    6.6713   -0.4487    2.4549 H   0  0  0  0  0  0  0  0  0  0  0  0
  2 26  1  0  0  0  0
  3 36  1  0  0  0  0
  5  6  2  0  0  0  0
  5  4  1  0  0  0  0
  6  1  1  0  0  0  0
  7  8  1  0  0  0  0
  7  6  1  0  0  0  0
  9  7  2  0  0  0  0
 10  9  1  0  0  0  0
 11  9  1  0  0  0  0
 11 13  1  0  0  0  0
 12 11  1  0  0  0  0
 13 14  2  0  0  0  0
 13  5  1  0  0  0  0
 14 16  1  0  0  0  0
 15 14  1  0  0  0  0
 16 18  2  0  0  0  0
 17 16  1  0  0  0  0
 18  4  1  0  0  0  0
 18 19  1  0  0  0  0
 19 21  2  0  0  0  0
 20 19  1  0  0  0  0
 21 22  1  0  0  0  0
 21 23  1  0  0  0  0
 23 30  1  0  0  0  0
 24 23  2  0  0  0  0
 24 26  1  0  0  0  0
 25 24  1  0  0  0  0
 26 27  2  0  0  0  0
 27 28  1  0  0  0  0
 27 29  1  0  0  0  0
 29  3  1  0  0  0  0
 30 31  1  0  0  0  0
 30 29  2  0  0  0  0
 32 33  1  0  0  0  0
 32  2  1  0  0  0  0
 34 32  1  0  0  0  0
 35 32  1  0  0  0  0
 36 38  1  0  0  0  0
 36 39  1  0  0  0  0
 37 36  1  0  0  0  0
M  CHG  1   1  -1
M  END
