1,2
 OpenBabel05122313063D

 33 35  0  0  0  0  0  0  0  0999 V2000
    0.5340    1.7302   -0.6650 N   0  0  0  0  0  2  0  0  0  0  0  0
    1.7467   -0.4954    0.3682 O   0  5  0  0  0  0  0  0  0  0  0  0
    1.7655    2.1807   -0.6988 C   0  0  0  0  0  0  0  0  0  0  0  0
   -0.4912    2.6696   -1.1259 C   0  0  0  0  0  0  0  0  0  0  0  0
    2.8856    0.1130    0.1572 C   0  0  0  0  0  0  0  0  0  0  0  0
    2.9575    1.4722   -0.3370 C   0  0  0  0  0  0  0  0  0  0  0  0
    1.9137    3.2155   -1.0645 H   0  0  0  0  0  0  0  0  0  0  0  0
   -1.2140    3.3431    0.0326 C   0  0  0  0  0  0  0  0  0  0  0  0
   -1.2474    2.1259   -1.7154 H   0  0  0  0  0  0  0  0  0  0  0  0
   -0.0362    3.4678   -1.7470 H   0  0  0  0  0  0  0  0  0  0  0  0
    4.0929   -0.5649    0.4224 C   0  0  0  0  0  0  0  0  0  0  0  0
    4.2057    2.0972   -0.5023 C   0  0  0  0  0  0  0  0  0  0  0  0
   -2.3795    3.9993   -0.4604 O   0  0  0  0  0  0  0  0  0  0  0  0
   -0.4041    4.3501    0.6024 O   0  0  0  0  0  0  0  0  0  0  0  0
   -1.4988    2.5858    0.8048 H   0  0  0  0  0  0  0  0  0  0  0  0
    5.3489    0.0593    0.2537 C   0  0  0  0  0  0  0  0  0  0  0  0
    4.0324   -1.6101    0.7622 H   0  0  0  0  0  0  0  0  0  0  0  0
    5.4158    1.4326   -0.2139 C   0  0  0  0  0  0  0  0  0  0  0  0
    4.2387    3.1339   -0.8758 H   0  0  0  0  0  0  0  0  0  0  0  0
   -2.5339    5.2088    0.2813 C   0  0  0  0  0  0  0  0  0  0  0  0
   -1.3360    5.1984    1.2559 C   0  0  0  0  0  0  0  0  0  0  0  0
    6.5800   -0.6178    0.5287 C   0  0  0  0  0  0  0  0  0  0  0  0
    6.6920    2.0561   -0.3777 C   0  0  0  0  0  3  0  0  0  0  0  0
   -3.5102    5.2236    0.8140 H   0  0  0  0  0  0  0  0  0  0  0  0
   -2.5004    6.0746   -0.4166 H   0  0  0  0  0  0  0  0  0  0  0  0
   -0.8703    6.1904    1.4137 H   0  0  0  0  0  0  0  0  0  0  0  0
   -1.6322    4.7767    2.2466 H   0  0  0  0  0  0  0  0  0  0  0  0
    7.7975    0.0184    0.3580 C   0  0  0  0  0  0  0  0  0  0  0  0
    6.5386   -1.6594    0.8832 H   0  0  0  0  0  0  0  0  0  0  0  0
    7.8598    1.3687   -0.0986 C   0  0  0  0  0  0  0  0  0  0  0  0
    6.7262    3.0984   -0.7325 H   0  0  0  0  0  0  0  0  0  0  0  0
    8.7317   -0.5213    0.5775 H   0  0  0  0  0  0  0  0  0  0  0  0
    8.8370    1.8576   -0.2272 H   0  0  0  0  0  0  0  0  0  0  0  0
  3  1  1  0  0  0  0
  3  6  2  0  0  0  0
  4  1  1  0  0  0  0
  4  8  1  0  0  0  0
  5  2  1  0  0  0  0
  5 11  2  0  0  0  0
  6  5  1  0  0  0  0
  7  3  1  0  0  0  0
  8 14  1  0  0  0  0
  8 15  1  0  0  0  0
  9  4  1  0  0  0  0
 10  4  1  0  0  0  0
 11 17  1  0  0  0  0
 12  6  1  0  0  0  0
 12 18  2  0  0  0  0
 13  8  1  0  0  0  0
 13 20  1  0  0  0  0
 14 21  1  0  0  0  0
 16 11  1  0  0  0  0
 16 22  2  0  0  0  0
 18 16  1  0  0  0  0
 19 12  1  0  0  0  0
 20 24  1  0  0  0  0
 20 21  1  0  0  0  0
 21 26  1  0  0  0  0
 21 27  1  0  0  0  0
 22 29  1  0  0  0  0
 23 18  1  0  0  0  0
 23 30  1  0  0  0  0
 25 20  1  0  0  0  0
 28 22  1  0  0  0  0
 28 32  1  0  0  0  0
 30 28  2  0  0  0  0
 31 23  1  0  0  0  0
 33 30  1  0  0  0  0
M  CHG  1   2  -1
M  END
