2,3
 OpenBabel05122313063D

 32 33  0  0  1  0  0  0  0  0999 V2000
   -0.4099   -2.8493   -0.0489 S   0  0  0  0  0  0  0  0  0  0  0  0
    1.1990   -2.6597   -0.0038 O   0  0  0  0  0  1  0  0  0  0  0  0
   -0.1319   -0.2411   -0.1747 N   0  0  0  0  0  2  0  0  0  0  0  0
   -1.0145   -1.2406   -0.0849 C   0  0  1  0  0  3  0  0  0  0  0  0
   -2.4910   -1.1173   -0.0731 C   0  0  0  0  0  0  0  0  0  0  0  0
   -3.2624   -1.8957    0.8176 C   0  0  0  0  0  0  0  0  0  0  0  0
   -4.6613   -1.8136    0.8091 C   0  0  0  0  0  0  0  0  0  0  0  0
   -5.3371   -0.9544   -0.0780 C   0  0  0  0  0  0  0  0  0  0  0  0
   -4.5585   -0.1806   -0.9679 C   0  0  0  0  0  0  0  0  0  0  0  0
   -3.1643   -0.2559   -0.9713 C   0  0  0  0  0  0  0  0  0  0  0  0
   -6.8400   -0.8464   -0.0800 C   0  0  0  0  0  0  0  0  0  0  0  0
   -0.5595    1.1090   -0.0570 C   0  0  0  0  0  0  0  0  0  0  0  0
   -1.1676    1.5811    1.1245 C   0  0  0  0  0  0  0  0  0  0  0  0
   -1.5477    2.9233    1.2348 C   0  0  0  0  0  0  0  0  0  0  0  0
   -1.3335    3.8389    0.1825 C   0  0  0  0  0  0  0  0  0  0  0  0
   -0.7247    3.3538   -0.9922 C   0  0  0  0  0  0  0  0  0  0  0  0
   -0.3389    2.0120   -1.1149 C   0  0  0  0  0  0  0  0  0  0  0  0
   -1.7175    5.2901    0.3262 C   0  0  0  0  0  0  0  0  0  0  0  0
   -2.7515   -2.5558    1.5345 H   0  0  0  0  0  0  0  0  0  0  0  0
   -5.2423   -2.4256    1.5168 H   0  0  0  0  0  0  0  0  0  0  0  0
   -7.3048   -1.5796    0.6068 H   0  0  0  0  0  0  0  0  0  0  0  0
   -7.1690    0.1669    0.2336 H   0  0  0  0  0  0  0  0  0  0  0  0
   -7.2548   -1.0161   -1.0951 H   0  0  0  0  0  0  0  0  0  0  0  0
   -5.0619    0.4947   -1.6780 H   0  0  0  0  0  0  0  0  0  0  0  0
   -2.5843    0.3520   -1.6791 H   0  0  0  0  0  0  0  0  0  0  0  0
   -1.3369    0.8799    1.9545 H   0  0  0  0  0  0  0  0  0  0  0  0
   -2.0232    3.2721    2.1656 H   0  0  0  0  0  0  0  0  0  0  0  0
   -1.8009    5.7903   -0.6585 H   0  0  0  0  0  0  0  0  0  0  0  0
   -2.6855    5.4060    0.8542 H   0  0  0  0  0  0  0  0  0  0  0  0
   -0.9599    5.8498    0.9163 H   0  0  0  0  0  0  0  0  0  0  0  0
   -0.5523    4.0426   -1.8347 H   0  0  0  0  0  0  0  0  0  0  0  0
    0.1186    1.6374   -2.0421 H   0  0  0  0  0  0  0  0  0  0  0  0
  1  2  1  0  0  0  0
  3 12  1  0  0  0  0
  4  3  1  6  0  0  0
  4  5  1  0  0  0  0
  4  1  1  0  0  0  0
  5  6  1  0  0  0  0
  6 19  1  0  0  0  0
  7  6  2  0  0  0  0
  7 20  1  0  0  0  0
  8  7  1  0  0  0  0
  9  8  2  0  0  0  0
 10  9  1  0  0  0  0
 10  5  2  0  0  0  0
 11  8  1  0  0  0  0
 11 22  1  0  0  0  0
 11 21  1  0  0  0  0
 12 13  1  0  0  0  0
 13 14  2  0  0  0  0
 13 26  1  0  0  0  0
 14 27  1  0  0  0  0
 15 18  1  0  0  0  0
 15 14  1  0  0  0  0
 16 15  2  0  0  0  0
 17 16  1  0  0  0  0
 17 12  2  0  0  0  0
 18 29  1  0  0  0  0
 18 30  1  0  0  0  0
 23 11  1  0  0  0  0
 24  9  1  0  0  0  0
 25 10  1  0  0  0  0
 28 18  1  0  0  0  0
 31 16  1  0  0  0  0
 32 17  1  0  0  0  0
M  END
