1,2
 OpenBabel05122313063D

 40 43  0  0  1  0  0  0  0  0999 V2000
   -0.9079   -1.3958   -1.0015 O   0  5  0  0  0  0  0  0  0  0  0  0
    1.0161    0.4200    0.0138 N   0  0  0  0  0  2  0  0  0  0  0  0
    0.3075    2.5298    0.0297 N   0  0  0  0  0  0  0  0  0  0  0  0
   -0.3292    3.3170   -0.0795 H   0  0  0  0  0  0  0  0  0  0  0  0
   -3.0795   -0.8063   -0.8679 N   0  0  0  0  0  0  0  0  0  0  0  0
   -3.2546   -1.7311   -1.2721 H   0  0  0  0  0  0  0  0  0  0  0  0
    2.1365    1.2436   -0.0257 C   0  0  0  0  0  0  0  0  0  0  0  0
    3.5081    0.9500   -0.1151 C   0  0  0  0  0  0  0  0  0  0  0  0
    3.8324   -0.0989   -0.1296 H   0  0  0  0  0  0  0  0  0  0  0  0
    4.4172    2.0131   -0.1654 C   0  0  0  0  0  0  0  0  0  0  0  0
    5.8939    1.7231   -0.2572 C   0  0  0  0  0  0  0  0  0  0  0  0
    6.3444    2.1659   -1.1709 H   0  0  0  0  0  0  0  0  0  0  0  0
    6.0837    0.6340   -0.2772 H   0  0  0  0  0  0  0  0  0  0  0  0
    6.4494    2.1495    0.6051 H   0  0  0  0  0  0  0  0  0  0  0  0
    3.9595    3.3760   -0.1336 C   0  0  0  0  0  0  0  0  0  0  0  0
    4.9598    4.5010   -0.1850 C   0  0  0  0  0  0  0  0  0  0  0  0
    4.4648    5.4903   -0.1551 H   0  0  0  0  0  0  0  0  0  0  0  0
    5.5771    4.4553   -1.1072 H   0  0  0  0  0  0  0  0  0  0  0  0
    5.6721    4.4498    0.6655 H   0  0  0  0  0  0  0  0  0  0  0  0
    2.5887    3.6665   -0.0612 C   0  0  0  0  0  0  0  0  0  0  0  0
    2.2371    4.7090   -0.0498 H   0  0  0  0  0  0  0  0  0  0  0  0
    1.6900    2.5918   -0.0119 C   0  0  0  0  0  0  0  0  0  0  0  0
   -0.0763    1.2072    0.0222 C   0  0  1  0  0  3  0  0  0  0  0  0
   -1.4613    0.7819   -0.0568 C   0  0  0  0  0  0  0  0  0  0  0  0
   -2.5133    1.6318    0.2546 C   0  0  0  0  0  0  0  0  0  0  0  0
   -2.3076    2.6108    0.7151 H   0  0  0  0  0  0  0  0  0  0  0  0
   -3.8805    1.2782    0.0304 C   0  0  0  0  0  0  0  0  0  0  0  0
   -4.9738    2.1195    0.3611 C   0  0  0  0  0  0  0  0  0  0  0  0
   -4.7600    3.0960    0.8237 H   0  0  0  0  0  0  0  0  0  0  0  0
   -6.2974    1.7404    0.1197 C   0  0  0  0  0  0  0  0  0  0  0  0
   -7.4557    2.6345    0.4801 C   0  0  0  0  0  0  0  0  0  0  0  0
   -8.1235    2.1464    1.2204 H   0  0  0  0  0  0  0  0  0  0  0  0
   -8.0779    2.8658   -0.4093 H   0  0  0  0  0  0  0  0  0  0  0  0
   -7.1130    3.5930    0.9143 H   0  0  0  0  0  0  0  0  0  0  0  0
   -6.5304    0.4734   -0.4782 C   0  0  0  0  0  0  0  0  0  0  0  0
   -7.5655    0.1553   -0.6772 H   0  0  0  0  0  0  0  0  0  0  0  0
   -5.4817   -0.3811   -0.8181 C   0  0  0  0  0  0  0  0  0  0  0  0
   -5.6841   -1.3606   -1.2778 H   0  0  0  0  0  0  0  0  0  0  0  0
   -4.1533    0.0114   -0.5634 C   0  0  2  0  0  3  0  0  0  0  0  0
   -1.7536   -0.5319   -0.6392 C   0  0  0  0  0  0  0  0  0  0  0  0
  1 40  1  0  0  0  0
  2 23  1  0  0  0  0
  4  3  1  0  0  0  0
  5 40  1  0  0  0  0
  5 39  1  0  0  0  0
  6  5  1  0  0  0  0
  7 22  1  0  0  0  0
  7  2  1  0  0  0  0
  8  7  2  0  0  0  0
  9  8  1  0  0  0  0
 10 15  2  0  0  0  0
 10  8  1  0  0  0  0
 11 10  1  0  0  0  0
 11 14  1  0  0  0  0
 12 11  1  0  0  0  0
 13 11  1  0  0  0  0
 15 20  1  0  0  0  0
 16 17  1  0  0  0  0
 16 15  1  0  0  0  0
 16 19  1  0  0  0  0
 18 16  1  0  0  0  0
 20 21  1  0  0  0  0
 20 22  2  0  0  0  0
 22  3  1  0  0  0  0
 23 24  1  6  0  0  0
 23  3  1  0  0  0  0
 24 25  1  0  0  0  0
 25 26  1  0  0  0  0
 27 25  2  0  0  0  0
 27 28  1  0  0  0  0
 28 29  1  0  0  0  0
 30 28  2  0  0  0  0
 30 31  1  0  0  0  0
 31 34  1  0  0  0  0
 31 32  1  0  0  0  0
 33 31  1  0  0  0  0
 35 30  1  0  0  0  0
 36 35  1  0  0  0  0
 37 35  2  0  0  0  0
 38 37  1  0  0  0  0
 39 37  1  1  0  0  0
 39 27  1  0  0  0  0
 40 24  2  0  0  0  0
M  CHG  1   1  -1
M  END
