3,6
 OpenBabel05122313063D

 34 37  0  0  1  0  0  0  0  0999 V2000
    5.7005    1.8773   -0.2424 F   0  0  0  0  0  0  0  0  0  0  0  0
    4.8113    4.3942   -0.1954 F   0  0  0  0  0  0  0  0  0  0  0  0
   -0.8736   -1.4030   -1.0008 O   0  5  0  0  0  0  0  0  0  0  0  0
   -3.0526   -0.8411   -0.8653 N   0  0  0  0  0  0  0  0  0  0  0  0
   -3.2168   -1.7684   -1.2688 H   0  0  0  0  0  0  0  0  0  0  0  0
    1.0265    0.4388    0.0142 N   0  0  0  0  0  2  0  0  0  0  0  0
    0.2915    2.5399    0.0219 N   0  0  0  0  0  0  0  0  0  0  0  0
   -0.3550    3.3187   -0.0898 H   0  0  0  0  0  0  0  0  0  0  0  0
    2.1360    1.2746   -0.0267 C   0  0  0  0  0  0  0  0  0  0  0  0
    3.5098    0.9798   -0.1116 C   0  0  0  0  0  0  0  0  0  0  0  0
    3.8680   -0.0587   -0.1133 H   0  0  0  0  0  0  0  0  0  0  0  0
    4.3766    2.0644   -0.1621 C   0  0  0  0  0  0  0  0  0  0  0  0
    3.9065    3.4090   -0.1401 C   0  0  0  0  0  0  0  0  0  0  0  0
    2.5481    3.7155   -0.0708 C   0  0  0  0  0  0  0  0  0  0  0  0
    2.2195    4.7630   -0.0663 H   0  0  0  0  0  0  0  0  0  0  0  0
    1.6714    2.6201   -0.0189 C   0  0  0  0  0  0  0  0  0  0  0  0
   -0.0752    1.2118    0.0198 C   0  0  1  0  0  3  0  0  0  0  0  0
   -1.4549    0.7683   -0.0579 C   0  0  0  0  0  0  0  0  0  0  0  0
   -2.5168    1.6052    0.2544 C   0  0  0  0  0  0  0  0  0  0  0  0
   -2.3234    2.5872    0.7142 H   0  0  0  0  0  0  0  0  0  0  0  0
   -3.8794    1.2339    0.0326 C   0  0  0  0  0  0  0  0  0  0  0  0
   -4.9825    2.0617    0.3647 C   0  0  0  0  0  0  0  0  0  0  0  0
   -4.7806    3.0411    0.8266 H   0  0  0  0  0  0  0  0  0  0  0  0
   -6.3013    1.6655    0.1253 C   0  0  0  0  0  0  0  0  0  0  0  0
   -7.4708    2.5445    0.4863 C   0  0  0  0  0  0  0  0  0  0  0  0
   -7.1407    3.5069    0.9214 H   0  0  0  0  0  0  0  0  0  0  0  0
   -8.1323    2.0469    1.2258 H   0  0  0  0  0  0  0  0  0  0  0  0
   -8.0956    2.7682   -0.4032 H   0  0  0  0  0  0  0  0  0  0  0  0
   -6.5183    0.3950   -0.4717 C   0  0  0  0  0  0  0  0  0  0  0  0
   -7.5496    0.0636   -0.6691 H   0  0  0  0  0  0  0  0  0  0  0  0
   -5.4599   -0.4465   -0.8128 C   0  0  0  0  0  0  0  0  0  0  0  0
   -5.6508   -1.4286   -1.2716 H   0  0  0  0  0  0  0  0  0  0  0  0
   -4.1362   -0.0369   -0.5601 C   0  0  2  0  0  3  0  0  0  0  0  0
   -1.7302   -0.5500   -0.6387 C   0  0  0  0  0  0  0  0  0  0  0  0
  1 12  1  0  0  0  0
  2 13  1  0  0  0  0
  3 34  1  0  0  0  0
  4 34  1  0  0  0  0
  4 33  1  0  0  0  0
  5  4  1  0  0  0  0
  6 17  1  0  0  0  0
  8  7  1  0  0  0  0
  9 16  1  0  0  0  0
  9  6  1  0  0  0  0
 10  9  2  0  0  0  0
 11 10  1  0  0  0  0
 12 13  2  0  0  0  0
 12 10  1  0  0  0  0
 13 14  1  0  0  0  0
 14 15  1  0  0  0  0
 14 16  2  0  0  0  0
 16  7  1  0  0  0  0
 17 18  1  6  0  0  0
 17  7  1  0  0  0  0
 18 19  1  0  0  0  0
 19 20  1  0  0  0  0
 21 19  2  0  0  0  0
 21 22  1  0  0  0  0
 22 23  1  0  0  0  0
 24 22  2  0  0  0  0
 24 25  1  0  0  0  0
 25 26  1  0  0  0  0
 25 27  1  0  0  0  0
 28 25  1  0  0  0  0
 29 24  1  0  0  0  0
 30 29  1  0  0  0  0
 31 29  2  0  0  0  0
 32 31  1  0  0  0  0
 33 31  1  1  0  0  0
 33 21  1  0  0  0  0
 34 18  2  0  0  0  0
M  CHG  1   3  -1
M  END
