1,2
 OpenBabel05122313063D

 31 32  0  0  0  0  0  0  0  0999 V2000
   -1.0127    0.2184    1.6127 O   0  5  0  0  0  0  0  0  0  0  0  0
    0.7267    0.6032   -0.4355 N   0  0  0  0  0  2  0  0  0  0  0  0
   -1.5619    1.3735    1.3067 C   0  0  0  0  0  0  0  0  0  0  0  0
   -1.0758    2.1472    0.2048 C   0  0  0  0  0  0  0  0  0  0  0  0
   -1.7096    3.3735   -0.1166 C   0  0  0  0  0  0  0  0  0  0  0  0
   -1.3239    3.9563   -0.9682 H   0  0  0  0  0  0  0  0  0  0  0  0
   -2.7888    3.8428    0.6314 C   0  0  0  0  0  0  0  0  0  0  0  0
   -3.2672    4.7995    0.3777 H   0  0  0  0  0  0  0  0  0  0  0  0
   -3.2613    3.0754    1.7190 C   0  0  0  0  0  0  0  0  0  0  0  0
   -4.1132    3.4394    2.3141 H   0  0  0  0  0  0  0  0  0  0  0  0
   -2.6663    1.8569    2.0522 C   0  0  0  0  0  0  0  0  0  0  0  0
   -3.0271    1.2456    2.8912 H   0  0  0  0  0  0  0  0  0  0  0  0
    0.0043    1.6717   -0.6281 C   0  0  0  0  0  3  0  0  0  0  0  0
    0.2020    2.2808   -1.5354 H   0  0  0  0  0  0  0  0  0  0  0  0
    1.7719    0.3549   -1.4262 C   0  0  0  0  0  0  0  0  0  0  0  0
    1.4561    0.7489   -2.4176 H   0  0  0  0  0  0  0  0  0  0  0  0
    1.9145   -0.7356   -1.5330 H   0  0  0  0  0  0  0  0  0  0  0  0
    3.1109    1.0229   -1.0244 C   0  0  0  0  0  0  0  0  0  0  0  0
    3.3647    0.7000    0.0044 H   0  0  0  0  0  0  0  0  0  0  0  0
    3.8938    0.6318   -1.7065 H   0  0  0  0  0  0  0  0  0  0  0  0
    3.0304    2.5277   -1.1222 C   0  0  0  0  0  0  0  0  0  0  0  0
    3.2757    3.1782   -2.3503 C   0  0  0  0  0  0  0  0  0  0  0  0
    3.6074    2.5852   -3.2186 H   0  0  0  0  0  0  0  0  0  0  0  0
    3.1056    4.5642   -2.4795 C   0  0  0  0  0  0  0  0  0  0  0  0
    3.3091    5.0541   -3.4442 H   0  0  0  0  0  0  0  0  0  0  0  0
    2.6795    5.3263   -1.3785 C   0  0  0  0  0  0  0  0  0  0  0  0
    2.5446    6.4142   -1.4781 H   0  0  0  0  0  0  0  0  0  0  0  0
    2.4354    4.6922   -0.1506 C   0  0  0  0  0  0  0  0  0  0  0  0
    2.1046    5.2801    0.7193 H   0  0  0  0  0  0  0  0  0  0  0  0
    2.6106    3.3050   -0.0218 C   0  0  0  0  0  0  0  0  0  0  0  0
    2.4116    2.8086    0.9409 H   0  0  0  0  0  0  0  0  0  0  0  0
  3  1  1  0  0  0  0
  3 11  1  0  0  0  0
  4  3  2  0  0  0  0
  5  4  1  0  0  0  0
  5  7  2  0  0  0  0
  6  5  1  0  0  0  0
  7  9  1  0  0  0  0
  8  7  1  0  0  0  0
  9 11  2  0  0  0  0
  9 10  1  0  0  0  0
 11 12  1  0  0  0  0
 13  2  1  0  0  0  0
 13  4  1  0  0  0  0
 14 13  1  0  0  0  0
 15 18  1  0  0  0  0
 15  2  1  0  0  0  0
 16 15  1  0  0  0  0
 17 15  1  0  0  0  0
 18 19  1  0  0  0  0
 20 18  1  0  0  0  0
 21 18  1  0  0  0  0
 21 30  1  0  0  0  0
 22 21  2  0  0  0  0
 23 22  1  0  0  0  0
 24 22  1  0  0  0  0
 24 26  2  0  0  0  0
 25 24  1  0  0  0  0
 26 28  1  0  0  0  0
 27 26  1  0  0  0  0
 28 30  2  0  0  0  0
 28 29  1  0  0  0  0
 30 31  1  0  0  0  0
M  CHG  1   1  -1
M  END
