1,2
 OpenBabel05122313063D

 46 47  0  0  0  0  0  0  0  0999 V2000
    1.6538   -0.1392    0.2175 O   0  5  0  0  0  0  0  0  0  0  0  0
   -0.9675   -0.7406    0.6098 N   0  0  0  0  0  2  0  0  0  0  0  0
    1.9636   -1.4273    0.1797 C   0  0  0  0  0  0  0  0  0  0  0  0
    0.9031   -2.3595    0.3688 C   0  0  0  0  0  0  0  0  0  0  0  0
    1.1890   -3.7438    0.3517 C   0  0  0  0  0  0  0  0  0  0  0  0
    0.3669   -4.4614    0.4996 H   0  0  0  0  0  0  0  0  0  0  0  0
    2.4953   -4.1812    0.1465 C   0  0  0  0  0  0  0  0  0  0  0  0
    2.7261   -5.2563    0.1299 H   0  0  0  0  0  0  0  0  0  0  0  0
    3.5279   -3.2418   -0.0413 C   0  0  0  0  0  0  0  0  0  0  0  0
    4.5473   -3.6166   -0.2027 H   0  0  0  0  0  0  0  0  0  0  0  0
    3.3084   -1.8524   -0.0329 C   0  0  0  0  0  0  0  0  0  0  0  0
    4.4376   -0.8344   -0.2653 C   0  0  0  0  0  0  0  0  0  0  0  0
    5.8003   -1.5332   -0.4238 C   0  0  0  0  0  0  0  0  0  0  0  0
    5.8223   -2.2159   -1.2975 H   0  0  0  0  0  0  0  0  0  0  0  0
    6.0802   -2.1122    0.4800 H   0  0  0  0  0  0  0  0  0  0  0  0
    6.5851   -0.7677   -0.5843 H   0  0  0  0  0  0  0  0  0  0  0  0
    4.1469   -0.0444   -1.5642 C   0  0  0  0  0  0  0  0  0  0  0  0
    4.0826   -0.7287   -2.4346 H   0  0  0  0  0  0  0  0  0  0  0  0
    4.9677    0.6776   -1.7540 H   0  0  0  0  0  0  0  0  0  0  0  0
    3.2061    0.5318   -1.4972 H   0  0  0  0  0  0  0  0  0  0  0  0
    4.5357    0.1371    0.9354 C   0  0  0  0  0  0  0  0  0  0  0  0
    4.7151   -0.4176    1.8789 H   0  0  0  0  0  0  0  0  0  0  0  0
    3.6212    0.7467    1.0506 H   0  0  0  0  0  0  0  0  0  0  0  0
    5.3857    0.8328    0.7806 H   0  0  0  0  0  0  0  0  0  0  0  0
   -0.4648   -1.9394    0.6048 C   0  0  0  0  0  3  0  0  0  0  0  0
   -1.1544   -2.7892    0.7929 H   0  0  0  0  0  0  0  0  0  0  0  0
   -2.4370   -0.6920    0.9668 C   0  0  0  0  0  0  0  0  0  0  0  0
   -2.5354   -0.8953    2.4899 C   0  0  0  0  0  0  0  0  0  0  0  0
   -2.2115   -1.9123    2.7873 H   0  0  0  0  0  0  0  0  0  0  0  0
   -3.5738   -0.7393    2.8418 H   0  0  0  0  0  0  0  0  0  0  0  0
   -1.8798   -0.1592    2.9919 H   0  0  0  0  0  0  0  0  0  0  0  0
   -3.0228    0.6823    0.6117 C   0  0  0  0  0  0  0  0  0  0  0  0
   -2.8875    0.9038   -0.4630 H   0  0  0  0  0  0  0  0  0  0  0  0
   -2.5416    1.4779    1.2090 H   0  0  0  0  0  0  0  0  0  0  0  0
   -4.1083    0.6781    0.8291 H   0  0  0  0  0  0  0  0  0  0  0  0
   -3.2128   -1.7508    0.1603 C   0  0  0  0  0  0  0  0  0  0  0  0
   -3.0330   -1.8161   -1.2395 C   0  0  0  0  0  0  0  0  0  0  0  0
   -2.2999   -1.1490   -1.7212 H   0  0  0  0  0  0  0  0  0  0  0  0
   -3.7563   -2.7323   -2.0131 C   0  0  0  0  0  0  0  0  0  0  0  0
   -3.5963   -2.7689   -3.1017 H   0  0  0  0  0  0  0  0  0  0  0  0
   -4.6789   -3.6015   -1.4062 C   0  0  0  0  0  0  0  0  0  0  0  0
   -5.2471   -4.3218   -2.0141 H   0  0  0  0  0  0  0  0  0  0  0  0
   -4.8661   -3.5444   -0.0188 C   0  0  0  0  0  0  0  0  0  0  0  0
   -5.5834   -4.2210    0.4708 H   0  0  0  0  0  0  0  0  0  0  0  0
   -4.1375   -2.6269    0.7582 C   0  0  0  0  0  0  0  0  0  0  0  0
   -4.3012   -2.6021    1.8446 H   0  0  0  0  0  0  0  0  0  0  0  0
  2 27  1  0  0  0  0
  3  1  1  0  0  0  0
  3  4  1  0  0  0  0
  4 25  1  0  0  0  0
  5  4  2  0  0  0  0
  5  6  1  0  0  0  0
  7  5  1  0  0  0  0
  8  7  1  0  0  0  0
  9 11  1  0  0  0  0
  9  7  2  0  0  0  0
 10  9  1  0  0  0  0
 11  3  2  0  0  0  0
 12 11  1  0  0  0  0
 12 21  1  0  0  0  0
 13 12  1  0  0  0  0
 13 15  1  0  0  0  0
 14 13  1  0  0  0  0
 16 13  1  0  0  0  0
 17 20  1  0  0  0  0
 17 12  1  0  0  0  0
 18 17  1  0  0  0  0
 19 17  1  0  0  0  0
 21 23  1  0  0  0  0
 21 22  1  0  0  0  0
 24 21  1  0  0  0  0
 25  2  1  0  0  0  0
 25 26  1  0  0  0  0
 27 28  1  0  0  0  0
 28 29  1  0  0  0  0
 28 30  1  0  0  0  0
 28 31  1  0  0  0  0
 32 35  1  0  0  0  0
 32 27  1  0  0  0  0
 32 34  1  0  0  0  0
 33 32  1  0  0  0  0
 36 45  1  0  0  0  0
 36 27  1  0  0  0  0
 37 36  2  0  0  0  0
 38 37  1  0  0  0  0
 39 41  2  0  0  0  0
 39 37  1  0  0  0  0
 40 39  1  0  0  0  0
 41 43  1  0  0  0  0
 42 41  1  0  0  0  0
 43 44  1  0  0  0  0
 43 45  2  0  0  0  0
 45 46  1  0  0  0  0
M  CHG  1   1  -1
M  END
