1,3
 OpenBabel05122313063D

 35 36  0  0  1  0  0  0  0  0999 V2000
   -0.2014    0.6971   -1.8960 O   0  0  0  0  0  1  0  0  0  0  0  0
    0.8727    1.4449   -2.0713 N   0  0  0  0  0  0  0  0  0  0  0  0
    1.8370   -0.0933   -0.6619 N   0  0  0  0  0  2  0  0  0  0  0  0
    2.0377    0.8306   -1.6522 C   0  0  1  0  0  3  0  0  0  0  0  0
    3.3440    1.0468   -2.1412 C   0  0  0  0  0  0  0  0  0  0  0  0
    4.3985    0.3174   -1.5944 C   0  0  0  0  0  0  0  0  0  0  0  0
    4.1735   -0.6564   -0.5899 C   0  0  0  0  0  0  0  0  0  0  0  0
    2.8360   -0.8393   -0.1854 C   0  0  0  0  0  0  0  0  0  0  0  0
    5.2625   -1.4375    0.0354 C   0  0  0  0  0  0  0  0  0  0  0  0
    6.4530   -1.7285   -0.6705 C   0  0  0  0  0  0  0  0  0  0  0  0
    7.4801   -2.4707   -0.0737 C   0  0  0  0  0  0  0  0  0  0  0  0
    7.3415   -2.9401    1.2423 C   0  0  0  0  0  0  0  0  0  0  0  0
    6.1645   -2.6603    1.9551 C   0  0  0  0  0  0  0  0  0  0  0  0
    5.1367   -1.9173    1.3611 C   0  0  0  0  0  0  0  0  0  0  0  0
    0.7144    2.9224   -2.3326 C   0  0  0  0  0  0  0  0  0  0  0  0
   -0.7624    3.2632   -2.0979 C   0  0  0  0  0  0  0  0  0  0  0  0
    1.5916    3.7275   -1.3604 C   0  0  0  0  0  0  0  0  0  0  0  0
    1.0890    3.1998   -3.8013 C   0  0  0  0  0  0  0  0  0  0  0  0
    3.5142    1.7516   -2.9639 H   0  0  0  0  0  0  0  0  0  0  0  0
    5.4200    0.5019   -1.9581 H   0  0  0  0  0  0  0  0  0  0  0  0
    2.5276   -1.5759    0.5739 H   0  0  0  0  0  0  0  0  0  0  0  0
    6.5649   -1.3947   -1.7131 H   0  0  0  0  0  0  0  0  0  0  0  0
    8.3935   -2.6936   -0.6460 H   0  0  0  0  0  0  0  0  0  0  0  0
    8.1482   -3.5241    1.7104 H   0  0  0  0  0  0  0  0  0  0  0  0
    6.0465   -3.0187    2.9889 H   0  0  0  0  0  0  0  0  0  0  0  0
    4.2301   -1.6871    1.9407 H   0  0  0  0  0  0  0  0  0  0  0  0
   -1.0446    3.0331   -1.0544 H   0  0  0  0  0  0  0  0  0  0  0  0
   -0.9077    4.3445   -2.2892 H   0  0  0  0  0  0  0  0  0  0  0  0
   -1.4237    2.6862   -2.7695 H   0  0  0  0  0  0  0  0  0  0  0  0
    2.6723    3.5400   -1.5108 H   0  0  0  0  0  0  0  0  0  0  0  0
    1.4161    4.8109   -1.5130 H   0  0  0  0  0  0  0  0  0  0  0  0
    1.3307    3.4612   -0.3177 H   0  0  0  0  0  0  0  0  0  0  0  0
    0.4787    2.5741   -4.4815 H   0  0  0  0  0  0  0  0  0  0  0  0
    0.9028    4.2653   -4.0431 H   0  0  0  0  0  0  0  0  0  0  0  0
    2.1580    2.9943   -4.0069 H   0  0  0  0  0  0  0  0  0  0  0  0
  2  1  1  0  0  0  0
  3  8  1  0  0  0  0
  4  2  1  6  0  0  0
  4  3  1  0  0  0  0
  5  4  1  0  0  0  0
  5  6  2  0  0  0  0
  6  7  1  0  0  0  0
  7  8  2  0  0  0  0
  7  9  1  0  0  0  0
  8 21  1  0  0  0  0
  9 14  1  0  0  0  0
 10 11  1  0  0  0  0
 10  9  2  0  0  0  0
 11 12  2  0  0  0  0
 12 24  1  0  0  0  0
 12 13  1  0  0  0  0
 13 25  1  0  0  0  0
 14 26  1  0  0  0  0
 14 13  2  0  0  0  0
 15 16  1  0  0  0  0
 15  2  1  0  0  0  0
 15 17  1  0  0  0  0
 16 27  1  0  0  0  0
 17 32  1  0  0  0  0
 18 15  1  0  0  0  0
 19  5  1  0  0  0  0
 20  6  1  0  0  0  0
 22 10  1  0  0  0  0
 23 11  1  0  0  0  0
 28 16  1  0  0  0  0
 29 16  1  0  0  0  0
 30 17  1  0  0  0  0
 31 17  1  0  0  0  0
 33 18  1  0  0  0  0
 34 18  1  0  0  0  0
 35 18  1  0  0  0  0
M  END
