1,6
 OpenBabel05122313063D

 22 22  0  0  0  0  0  0  0  0999 V2000
    1.2402    0.7298   -1.2588 O   0  5  0  0  0  0  0  0  0  0  0  0
    1.9933    1.6646   -0.7067 C   0  0  0  0  0  0  0  0  0  0  0  0
    2.5805    0.1071    1.1674 C   0  0  0  0  0  3  0  0  0  0  0  0
    3.1795   -0.0045    2.0910 H   0  0  0  0  0  0  0  0  0  0  0  0
    2.7163    1.3742    0.4906 C   0  0  0  0  0  0  0  0  0  0  0  0
    1.7893   -0.8932    0.8519 N   0  0  0  0  0  2  0  0  0  0  0  0
    2.1072    2.9403   -1.3027 C   0  0  0  0  0  0  0  0  0  0  0  0
    1.5354    3.1361   -2.2199 H   0  0  0  0  0  0  0  0  0  0  0  0
    3.5418    2.3797    1.0522 C   0  0  0  0  0  0  0  0  0  0  0  0
    4.0974    2.1508    1.9758 H   0  0  0  0  0  0  0  0  0  0  0  0
    3.6488    3.6389    0.4586 C   0  0  0  0  0  0  0  0  0  0  0  0
    4.2913    4.4101    0.9075 H   0  0  0  0  0  0  0  0  0  0  0  0
    2.9249    3.9136   -0.7204 C   0  0  0  0  0  0  0  0  0  0  0  0
    3.0015    4.9058   -1.1907 H   0  0  0  0  0  0  0  0  0  0  0  0
    1.7962   -1.9867    1.8498 C   0  0  0  0  0  0  0  0  0  0  0  0
    0.8770   -2.5875    1.7071 H   0  0  0  0  0  0  0  0  0  0  0  0
    1.7097   -1.5321    2.8632 H   0  0  0  0  0  0  0  0  0  0  0  0
    4.0139   -2.8539    0.9298 C   0  0  0  0  0  0  0  0  0  0  0  0
    4.0393   -2.1330    0.0981 H   0  0  0  0  0  0  0  0  0  0  0  0
    4.8351   -3.5838    0.9963 H   0  0  0  0  0  0  0  0  0  0  0  0
    2.9971   -2.8927    1.8053 C   0  0  0  0  0  0  0  0  0  0  0  0
    2.9873   -3.6613    2.5997 H   0  0  0  0  0  0  0  0  0  0  0  0
  1  2  1  0  0  0  0
  2  5  1  0  0  0  0
  3  4  1  0  0  0  0
  5  9  2  0  0  0  0
  5  3  1  0  0  0  0
  6  3  1  0  0  0  0
  6 15  1  0  0  0  0
  7 13  1  0  0  0  0
  7  2  2  0  0  0  0
  8  7  1  0  0  0  0
  9 10  1  0  0  0  0
 11 12  1  0  0  0  0
 11  9  1  0  0  0  0
 13 11  2  0  0  0  0
 14 13  1  0  0  0  0
 15 17  1  0  0  0  0
 16 15  1  0  0  0  0
 18 20  1  0  0  0  0
 18 21  2  0  0  0  0
 19 18  1  0  0  0  0
 21 15  1  0  0  0  0
 21 22  1  0  0  0  0
M  CHG  1   1  -1
M  END
