1,2
 OpenBabel05122313063D

 46 47  0  0  0  0  0  0  0  0999 V2000
    1.5418   -0.2714    0.0001 O   0  5  0  0  0  0  0  0  0  0  0  0
   -0.9252    0.5899    0.0002 N   0  0  0  0  0  2  0  0  0  0  0  0
   -2.3651    0.7020    0.0011 C   0  0  0  0  0  0  0  0  0  0  0  0
   -3.0445    0.7510    1.2371 C   0  0  0  0  0  0  0  0  0  0  0  0
   -4.4455    0.8663    1.2085 C   0  0  0  0  0  0  0  0  0  0  0  0
   -4.9904    0.9023    2.1657 H   0  0  0  0  0  0  0  0  0  0  0  0
   -5.1660    0.9240    0.0020 C   0  0  0  0  0  0  0  0  0  0  0  0
   -4.4458    0.8641   -1.2064 C   0  0  0  0  0  0  0  0  0  0  0  0
   -4.9910    0.8983   -2.1636 H   0  0  0  0  0  0  0  0  0  0  0  0
   -3.0463    0.7489   -1.2356 C   0  0  0  0  0  0  0  0  0  0  0  0
   -2.2855    0.6385    2.5329 C   0  0  0  0  0  0  0  0  0  0  0  0
   -2.9731    0.6438    3.3993 H   0  0  0  0  0  0  0  0  0  0  0  0
   -1.5594    1.4674    2.6695 H   0  0  0  0  0  0  0  0  0  0  0  0
   -1.6980   -0.3044    2.5654 H   0  0  0  0  0  0  0  0  0  0  0  0
   -6.6718    1.0084   -0.0035 C   0  0  0  0  0  0  0  0  0  0  0  0
   -7.0663    1.3551    0.9714 H   0  0  0  0  0  0  0  0  0  0  0  0
   -7.1242    0.0143   -0.2085 H   0  0  0  0  0  0  0  0  0  0  0  0
   -7.0395    1.6977   -0.7900 H   0  0  0  0  0  0  0  0  0  0  0  0
   -2.2870    0.6346   -2.5311 C   0  0  0  0  0  0  0  0  0  0  0  0
   -1.5603    1.4628   -2.6682 H   0  0  0  0  0  0  0  0  0  0  0  0
   -2.9743    0.6395   -3.3978 H   0  0  0  0  0  0  0  0  0  0  0  0
   -1.7002   -0.3088   -2.5625 H   0  0  0  0  0  0  0  0  0  0  0  0
   -0.3084    1.7557    0.0001 C   0  0  0  0  0  3  0  0  0  0  0  0
   -0.9608    2.6530    0.0004 H   0  0  0  0  0  0  0  0  0  0  0  0
    1.0975    2.0256   -0.0004 C   0  0  0  0  0  0  0  0  0  0  0  0
    1.5597    3.3673   -0.0009 C   0  0  0  0  0  0  0  0  0  0  0  0
    0.8281    4.1902   -0.0009 H   0  0  0  0  0  0  0  0  0  0  0  0
    2.9250    3.6163   -0.0013 C   0  0  0  0  0  0  0  0  0  0  0  0
    3.3046    4.6481   -0.0017 H   0  0  0  0  0  0  0  0  0  0  0  0
    3.8384    2.5357   -0.0012 C   0  0  0  0  0  0  0  0  0  0  0  0
    4.9115    2.7702   -0.0015 H   0  0  0  0  0  0  0  0  0  0  0  0
    3.4440    1.1894   -0.0007 C   0  0  0  0  0  0  0  0  0  0  0  0
    2.0334    0.9440   -0.0004 C   0  0  0  0  0  0  0  0  0  0  0  0
    4.4450    0.0246   -0.0005 C   0  0  0  0  0  0  0  0  0  0  0  0
    4.2362   -0.8351    1.2699 C   0  0  0  0  0  0  0  0  0  0  0  0
    4.4075   -0.2312    2.1844 H   0  0  0  0  0  0  0  0  0  0  0  0
    4.9617   -1.6743    1.2758 H   0  0  0  0  0  0  0  0  0  0  0  0
    3.2190   -1.2650    1.3247 H   0  0  0  0  0  0  0  0  0  0  0  0
    5.8989    0.5303   -0.0008 C   0  0  0  0  0  0  0  0  0  0  0  0
    6.5869   -0.3382   -0.0005 H   0  0  0  0  0  0  0  0  0  0  0  0
    6.1311    1.1363    0.8987 H   0  0  0  0  0  0  0  0  0  0  0  0
    6.1310    1.1356   -0.9008 H   0  0  0  0  0  0  0  0  0  0  0  0
    4.2360   -0.8358   -1.2704 C   0  0  0  0  0  0  0  0  0  0  0  0
    4.9614   -1.6750   -1.2759 H   0  0  0  0  0  0  0  0  0  0  0  0
    4.4071   -0.2324   -2.1852 H   0  0  0  0  0  0  0  0  0  0  0  0
    3.2186   -1.2657   -1.3247 H   0  0  0  0  0  0  0  0  0  0  0  0
  2  3  1  0  0  0  0
  3  4  1  0  0  0  0
  4 11  1  0  0  0  0
  5  4  2  0  0  0  0
  5  6  1  0  0  0  0
  7  5  1  0  0  0  0
  8  7  2  0  0  0  0
  9  8  1  0  0  0  0
 10  8  1  0  0  0  0
 10  3  2  0  0  0  0
 11 14  1  0  0  0  0
 11 13  1  0  0  0  0
 11 12  1  0  0  0  0
 15  7  1  0  0  0  0
 15 16  1  0  0  0  0
 17 15  1  0  0  0  0
 18 15  1  0  0  0  0
 19 10  1  0  0  0  0
 20 19  1  0  0  0  0
 21 19  1  0  0  0  0
 22 19  1  0  0  0  0
 23  2  1  0  0  0  0
 23 24  1  0  0  0  0
 25 33  1  0  0  0  0
 25 23  1  0  0  0  0
 26 25  2  0  0  0  0
 27 26  1  0  0  0  0
 28 30  2  0  0  0  0
 28 26  1  0  0  0  0
 29 28  1  0  0  0  0
 30 32  1  0  0  0  0
 31 30  1  0  0  0  0
 32 34  1  0  0  0  0
 32 33  2  0  0  0  0
 33  1  1  0  0  0  0
 34 35  1  0  0  0  0
 35 37  1  0  0  0  0
 35 38  1  0  0  0  0
 35 36  1  0  0  0  0
 39 40  1  0  0  0  0
 39 34  1  0  0  0  0
 39 41  1  0  0  0  0
 42 39  1  0  0  0  0
 43 34  1  0  0  0  0
 44 43  1  0  0  0  0
 45 43  1  0  0  0  0
 46 43  1  0  0  0  0
M  CHG  1   1  -1
M  END
