1,3
 OpenBabel05122313063D

 32 33  0  0  1  0  0  0  0  0999 V2000
   -1.6619   -0.5547   -0.6760 O   0  0  0  0  0  1  0  0  0  0  0  0
   -4.1843   -0.6343   -1.8033 O   0  0  0  0  0  0  0  0  0  0  0  0
    0.0169   -1.4303    1.2729 N   0  0  0  0  0  2  0  0  0  0  0  0
    1.4491   -3.4212   -0.3528 C   0  0  0  0  0  0  0  0  0  0  0  0
    0.3783   -3.6491   -0.2334 H   0  0  0  0  0  0  0  0  0  0  0  0
    2.1648   -3.9882   -1.4171 C   0  0  0  0  0  0  0  0  0  0  0  0
    1.6553   -4.6673   -2.1179 H   0  0  0  0  0  0  0  0  0  0  0  0
    3.5253   -3.6861   -1.5920 C   0  0  0  0  0  0  0  0  0  0  0  0
    4.0858   -4.1263   -2.4310 H   0  0  0  0  0  0  0  0  0  0  0  0
    4.1623   -2.8125   -0.6974 C   0  0  0  0  0  0  0  0  0  0  0  0
    5.2246   -2.5585   -0.8345 H   0  0  0  0  0  0  0  0  0  0  0  0
    3.4459   -2.2430    0.3663 C   0  0  0  0  0  0  0  0  0  0  0  0
    3.9358   -1.5337    1.0507 H   0  0  0  0  0  0  0  0  0  0  0  0
    2.0841   -2.5463    0.5508 C   0  0  0  0  0  0  0  0  0  0  0  0
    1.3185   -1.9415    1.7149 C   0  0  0  0  0  0  0  0  0  0  0  0
    1.1557   -2.7064    2.5073 H   0  0  0  0  0  0  0  0  0  0  0  0
    1.9116   -1.1132    2.1395 H   0  0  0  0  0  0  0  0  0  0  0  0
   -1.0553   -2.0485    1.7039 C   0  0  0  0  0  0  0  0  0  0  0  0
   -0.9152   -2.8142    2.4942 H   0  0  0  0  0  0  0  0  0  0  0  0
   -2.3915   -1.8881    1.2081 C   0  0  0  0  0  0  0  0  0  0  0  0
   -3.4773   -2.5197    1.8748 C   0  0  0  0  0  0  0  0  0  0  0  0
   -3.2812   -3.0397    2.8258 H   0  0  0  0  0  0  0  0  0  0  0  0
   -4.7590   -2.4850    1.3398 C   0  0  0  0  0  0  0  0  0  0  0  0
   -5.6005   -2.9583    1.8655 H   0  0  0  0  0  0  0  0  0  0  0  0
   -4.9671   -1.8595    0.0882 C   0  0  0  0  0  0  0  0  0  0  0  0
   -5.9625   -1.8382   -0.3804 H   0  0  0  0  0  0  0  0  0  0  0  0
   -3.9206   -1.2510   -0.6024 C   0  0  0  0  0  0  0  0  0  0  0  0
   -2.5991   -1.1925   -0.0318 C   0  0  2  0  0  3  0  0  0  0  0  0
   -3.5104   -1.1859   -2.9342 C   0  0  0  0  0  0  0  0  0  0  0  0
   -2.4075   -1.1575   -2.8078 H   0  0  0  0  0  0  0  0  0  0  0  0
   -3.7988   -0.5692   -3.8067 H   0  0  0  0  0  0  0  0  0  0  0  0
   -3.8311   -2.2368   -3.1120 H   0  0  0  0  0  0  0  0  0  0  0  0
  2 27  1  0  0  0  0
  3 18  1  0  0  0  0
  3 15  1  0  0  0  0
  4  5  1  0  0  0  0
  4 14  1  0  0  0  0
  6  4  2  0  0  0  0
  7  6  1  0  0  0  0
  8  6  1  0  0  0  0
  8 10  2  0  0  0  0
  9  8  1  0  0  0  0
 10 12  1  0  0  0  0
 11 10  1  0  0  0  0
 12 14  2  0  0  0  0
 12 13  1  0  0  0  0
 14 15  1  0  0  0  0
 15 17  1  0  0  0  0
 15 16  1  0  0  0  0
 18 19  1  0  0  0  0
 20 18  2  0  0  0  0
 20 21  1  0  0  0  0
 21 22  1  0  0  0  0
 23 24  1  0  0  0  0
 23 21  2  0  0  0  0
 25 23  1  0  0  0  0
 26 25  1  0  0  0  0
 27 28  1  0  0  0  0
 27 25  2  0  0  0  0
 28  1  1  6  0  0  0
 28 20  1  0  0  0  0
 29 30  1  0  0  0  0
 29  2  1  0  0  0  0
 31 29  1  0  0  0  0
 32 29  1  0  0  0  0
M  END
