1,2
 OpenBabel05122313063D

 27 27  0  0  0  0  0  0  0  0999 V2000
    1.5621    0.4996   -1.0497 O   0  5  0  0  0  0  0  0  0  0  0  0
    0.9028   -1.4409    1.0786 N   0  0  0  0  0  2  0  0  0  0  0  0
    2.7250   -0.0771   -0.9927 C   0  0  0  0  0  0  0  0  0  0  0  0
    2.1445   -1.7732    0.8347 C   0  0  0  0  0  3  0  0  0  0  0  0
    0.1621   -2.1422    2.1223 C   0  0  0  0  0  0  0  0  0  0  0  0
    3.7691    0.3977   -1.8522 C   0  0  0  0  0  0  0  0  0  0  0  0
    3.0578   -1.1820   -0.1064 C   0  0  0  0  0  0  0  0  0  0  0  0
    2.5687   -2.6131    1.4312 H   0  0  0  0  0  0  0  0  0  0  0  0
    0.7256   -3.0493    2.4446 H   0  0  0  0  0  0  0  0  0  0  0  0
    0.0955   -1.4722    3.0103 H   0  0  0  0  0  0  0  0  0  0  0  0
   -1.2543   -2.5174    1.6775 C   0  0  0  0  0  0  0  0  0  0  0  0
    3.5109    1.2312   -2.5219 H   0  0  0  0  0  0  0  0  0  0  0  0
    5.0383   -0.1654   -1.8500 C   0  0  0  0  0  0  0  0  0  0  0  0
    4.3736   -1.7336   -0.1420 C   0  0  0  0  0  0  0  0  0  0  0  0
   -1.8139   -1.5866    1.4354 H   0  0  0  0  0  0  0  0  0  0  0  0
   -1.7787   -2.9714    2.5465 H   0  0  0  0  0  0  0  0  0  0  0  0
   -1.3052   -3.4625    0.4752 C   0  0  0  0  0  0  0  0  0  0  0  0
    5.8073    0.2336   -2.5305 H   0  0  0  0  0  0  0  0  0  0  0  0
    5.3574   -1.2460   -0.9898 C   0  0  0  0  0  0  0  0  0  0  0  0
    4.5988   -2.5730    0.5369 H   0  0  0  0  0  0  0  0  0  0  0  0
   -0.7394   -4.3910    0.7153 H   0  0  0  0  0  0  0  0  0  0  0  0
   -0.7786   -2.9841   -0.3772 H   0  0  0  0  0  0  0  0  0  0  0  0
   -2.7326   -3.8065    0.0516 C   0  0  0  0  0  0  0  0  0  0  0  0
    6.3639   -1.6879   -0.9953 H   0  0  0  0  0  0  0  0  0  0  0  0
   -2.7439   -4.4930   -0.8186 H   0  0  0  0  0  0  0  0  0  0  0  0
   -3.2887   -2.8915   -0.2387 H   0  0  0  0  0  0  0  0  0  0  0  0
   -3.2962   -4.2968    0.8734 H   0  0  0  0  0  0  0  0  0  0  0  0
  1  3  1  0  0  0  0
  2  5  1  0  0  0  0
  3  7  1  0  0  0  0
  4  2  1  0  0  0  0
  4  8  1  0  0  0  0
  5  9  1  0  0  0  0
  5 10  1  0  0  0  0
  6 13  1  0  0  0  0
  6  3  2  0  0  0  0
  7  4  1  0  0  0  0
 11  5  1  0  0  0  0
 11 16  1  0  0  0  0
 12  6  1  0  0  0  0
 13 19  2  0  0  0  0
 14  7  2  0  0  0  0
 14 20  1  0  0  0  0
 15 11  1  0  0  0  0
 17 21  1  0  0  0  0
 17 11  1  0  0  0  0
 18 13  1  0  0  0  0
 19 14  1  0  0  0  0
 22 17  1  0  0  0  0
 23 17  1  0  0  0  0
 23 27  1  0  0  0  0
 24 19  1  0  0  0  0
 25 23  1  0  0  0  0
 26 23  1  0  0  0  0
M  CHG  1   1  -1
M  END
