1,2
 OpenBabel05122313063D

 55 56  0  0  0  0  0  0  0  0999 V2000
    1.5320    0.1878    0.1662 O   0  5  0  0  0  0  0  0  0  0  0  0
   -1.2383    0.4487   -0.0253 N   0  0  0  0  0  2  0  0  0  0  0  0
   -0.8687    1.7081   -0.2075 C   0  0  0  0  0  0  0  0  0  0  0  0
   -1.6939    2.4371   -0.3289 H   0  0  0  0  0  0  0  0  0  0  0  0
    0.4432    2.2643   -0.2851 C   0  0  0  0  0  0  0  0  0  0  0  0
    0.5547    3.6585   -0.5540 C   0  0  0  0  0  3  0  0  0  0  0  0
   -0.3678    4.2480   -0.6815 H   0  0  0  0  0  0  0  0  0  0  0  0
    1.7986    4.2549   -0.6598 C   0  0  0  0  0  0  0  0  0  0  0  0
    1.8936    5.3296   -0.8724 H   0  0  0  0  0  0  0  0  0  0  0  0
    2.9613    3.4607   -0.4963 C   0  0  0  0  0  0  0  0  0  0  0  0
    3.9364    3.9574   -0.5945 H   0  0  0  0  0  0  0  0  0  0  0  0
    2.9254    2.0919   -0.2217 C   0  0  0  0  0  0  0  0  0  0  0  0
    1.6263    1.4544   -0.1002 C   0  0  0  0  0  0  0  0  0  0  0  0
    4.2146    1.2693   -0.0426 C   0  0  0  0  0  0  0  0  0  0  0  0
    4.2365    0.0915   -1.0466 C   0  0  0  0  0  0  0  0  0  0  0  0
    4.2441    0.4721   -2.0885 H   0  0  0  0  0  0  0  0  0  0  0  0
    3.3509   -0.5561   -0.9197 H   0  0  0  0  0  0  0  0  0  0  0  0
    5.1517   -0.5198   -0.8997 H   0  0  0  0  0  0  0  0  0  0  0  0
    4.2762    0.7414    1.4100 C   0  0  0  0  0  0  0  0  0  0  0  0
    4.3565    1.5840    2.1266 H   0  0  0  0  0  0  0  0  0  0  0  0
    5.1614    0.0852    1.5492 H   0  0  0  0  0  0  0  0  0  0  0  0
    3.3667    0.1655    1.6547 H   0  0  0  0  0  0  0  0  0  0  0  0
    5.4805    2.1104   -0.2873 C   0  0  0  0  0  0  0  0  0  0  0  0
    5.5669    2.9552    0.4260 H   0  0  0  0  0  0  0  0  0  0  0  0
    5.5130    2.5212   -1.3170 H   0  0  0  0  0  0  0  0  0  0  0  0
    6.3774    1.4720   -0.1541 H   0  0  0  0  0  0  0  0  0  0  0  0
   -2.6657    0.2632   -0.0014 C   0  0  0  0  0  0  0  0  0  0  0  0
   -3.3492    0.3620    1.2353 C   0  0  0  0  0  0  0  0  0  0  0  0
   -4.7497    0.2233    1.2285 C   0  0  0  0  0  0  0  0  0  0  0  0
   -5.3054    0.3068    2.1747 H   0  0  0  0  0  0  0  0  0  0  0  0
   -5.4446   -0.0252    0.0378 C   0  0  0  0  0  0  0  0  0  0  0  0
   -6.5405   -0.1263    0.0511 H   0  0  0  0  0  0  0  0  0  0  0  0
   -4.7431   -0.1632   -1.1670 C   0  0  0  0  0  0  0  0  0  0  0  0
   -5.2942   -0.3823   -2.0938 H   0  0  0  0  0  0  0  0  0  0  0  0
   -3.3426   -0.0318   -1.2103 C   0  0  0  0  0  0  0  0  0  0  0  0
   -2.5624   -0.1944   -2.5092 C   0  0  0  0  0  0  0  0  0  0  0  0
   -1.5236   -0.4541   -2.2108 H   0  0  0  0  0  0  0  0  0  0  0  0
   -2.5062    1.1254   -3.2989 C   0  0  0  0  0  0  0  0  0  0  0  0
   -2.0424    1.9382   -2.7062 H   0  0  0  0  0  0  0  0  0  0  0  0
   -3.5266    1.4562   -3.5846 H   0  0  0  0  0  0  0  0  0  0  0  0
   -1.9120    1.0045   -4.2281 H   0  0  0  0  0  0  0  0  0  0  0  0
   -2.5785    0.6143    2.5255 C   0  0  0  0  0  0  0  0  0  0  0  0
   -1.5244    0.3291    2.3201 H   0  0  0  0  0  0  0  0  0  0  0  0
   -3.0726   -0.2543    3.6910 C   0  0  0  0  0  0  0  0  0  0  0  0
   -3.0806   -1.3287    3.4184 H   0  0  0  0  0  0  0  0  0  0  0  0
   -4.0984    0.0225    4.0112 H   0  0  0  0  0  0  0  0  0  0  0  0
   -2.4115   -0.1281    4.5725 H   0  0  0  0  0  0  0  0  0  0  0  0
   -2.5911    2.1071    2.8994 C   0  0  0  0  0  0  0  0  0  0  0  0
   -2.1531    2.7329    2.0969 H   0  0  0  0  0  0  0  0  0  0  0  0
   -2.0072    2.2875    3.8255 H   0  0  0  0  0  0  0  0  0  0  0  0
   -3.6287    2.4612    3.0739 H   0  0  0  0  0  0  0  0  0  0  0  0
   -3.0914   -1.3384   -3.3852 C   0  0  0  0  0  0  0  0  0  0  0  0
   -3.1589   -2.2871   -2.8152 H   0  0  0  0  0  0  0  0  0  0  0  0
   -2.4180   -1.5030   -4.2509 H   0  0  0  0  0  0  0  0  0  0  0  0
   -4.0987   -1.1180   -3.7956 H   0  0  0  0  0  0  0  0  0  0  0  0
  2 27  1  0  0  0  0
  3  2  1  0  0  0  0
  4  3  1  0  0  0  0
  5  3  2  0  0  0  0
  5 13  1  0  0  0  0
  6  5  1  0  0  0  0
  7  6  1  0  0  0  0
  8  6  1  0  0  0  0
  8 10  2  0  0  0  0
  9  8  1  0  0  0  0
 10 12  1  0  0  0  0
 11 10  1  0  0  0  0
 12 13  2  0  0  0  0
 12 14  1  0  0  0  0
 13  1  1  0  0  0  0
 14 19  1  0  0  0  0
 15 17  1  0  0  0  0
 15 18  1  0  0  0  0
 15 14  1  0  0  0  0
 16 15  1  0  0  0  0
 19 21  1  0  0  0  0
 19 22  1  0  0  0  0
 19 20  1  0  0  0  0
 23 26  1  0  0  0  0
 23 14  1  0  0  0  0
 23 24  1  0  0  0  0
 25 23  1  0  0  0  0
 27 28  1  0  0  0  0
 28 42  1  0  0  0  0
 29 28  2  0  0  0  0
 29 30  1  0  0  0  0
 31 32  1  0  0  0  0
 31 29  1  0  0  0  0
 33 31  2  0  0  0  0
 34 33  1  0  0  0  0
 35 33  1  0  0  0  0
 35 27  2  0  0  0  0
 36 37  1  0  0  0  0
 36 35  1  0  0  0  0
 38 39  1  0  0  0  0
 38 36  1  0  0  0  0
 40 38  1  0  0  0  0
 41 38  1  0  0  0  0
 42 48  1  0  0  0  0
 42 44  1  0  0  0  0
 43 42  1  0  0  0  0
 44 46  1  0  0  0  0
 44 47  1  0  0  0  0
 45 44  1  0  0  0  0
 48 51  1  0  0  0  0
 48 50  1  0  0  0  0
 49 48  1  0  0  0  0
 52 53  1  0  0  0  0
 52 36  1  0  0  0  0
 54 52  1  0  0  0  0
 55 52  1  0  0  0  0
M  CHG  1   1  -1
M  END
