16,21
 OpenBabel05122313063D

 30 30  0  0  1  0  0  0  0  0999 V2000
   -2.6863    1.2931   -1.6011 O   0  0  0  0  0  0  0  0  0  0  0  0
   -3.4136    1.6783   -1.0680 H   0  0  0  0  0  0  0  0  0  0  0  0
   -2.8047   -0.0691   -1.6055 C   0  0  0  0  0  0  0  0  0  0  0  0
   -4.0319   -0.7179   -1.3742 C   0  0  0  0  0  0  0  0  0  0  0  0
   -4.9435   -0.1146   -1.2516 H   0  0  0  0  0  0  0  0  0  0  0  0
   -4.0862   -2.1199   -1.3114 C   0  0  0  0  0  0  0  0  0  0  0  0
   -5.0526   -2.6183   -1.1366 H   0  0  0  0  0  0  0  0  0  0  0  0
   -2.9165   -2.8761   -1.4967 C   0  0  0  0  0  0  0  0  0  0  0  0
   -2.9508   -3.9743   -1.4459 H   0  0  0  0  0  0  0  0  0  0  0  0
   -1.7055   -2.2254   -1.7839 C   0  0  0  0  0  0  0  0  0  0  0  0
   -0.7737   -2.7935   -1.9350 H   0  0  0  0  0  0  0  0  0  0  0  0
   -1.6284   -0.8207   -1.8484 C   0  0  0  0  0  0  0  0  0  0  0  0
   -0.3565   -0.1114   -2.2477 C   0  0  0  0  0  0  0  0  0  0  0  0
    0.4406   -0.8453   -2.4704 H   0  0  0  0  0  0  0  0  0  0  0  0
   -0.5593    0.4785   -3.1705 H   0  0  0  0  0  0  0  0  0  0  0  0
    0.1444    0.8368   -1.2011 N   0  0  0  0  0  0  0  0  0  0  0  0
   -0.6822    1.2234   -0.7148 H   0  0  0  0  0  0  0  0  0  0  0  0
    0.9175    1.9750   -1.7784 C   0  0  2  0  0  0  0  0  0  0  0  0
    0.4602    2.2841   -2.7431 H   0  0  0  0  0  0  0  0  0  0  0  0
    2.3735    1.5108   -2.0020 C   0  0  0  0  0  0  0  0  0  0  0  0
    2.7048    0.5116   -1.2338 O   0  5  0  0  0  0  0  0  0  0  0  0
    3.1339    2.1461   -2.7314 O   0  0  0  0  0  0  0  0  0  0  0  0
    0.9448    3.2037   -0.8431 C   0  0  0  0  0  0  0  0  0  0  0  0
    1.3553    4.0388   -1.4454 H   0  0  0  0  0  0  0  0  0  0  0  0
   -0.0847    3.4738   -0.5353 H   0  0  0  0  0  0  0  0  0  0  0  0
    1.7911    3.0308    0.4280 C   0  0  0  0  0  0  0  0  0  0  0  0
    1.2814    2.8519    1.5421 O   0  0  0  0  0  0  0  0  0  0  0  0
    3.1339    3.1442    0.2501 N   0  0  0  0  0  0  0  0  0  0  0  0
    3.7206    2.8308    1.0267 H   0  0  0  0  0  0  0  0  0  0  0  0
    3.5378    3.0966   -0.6920 H   0  0  0  0  0  0  0  0  0  0  0  0
  1  2  1  0  0  0  0
  3  1  1  0  0  0  0
  3  4  1  0  0  0  0
  4  6  2  0  0  0  0
  4  5  1  0  0  0  0
  6  7  1  0  0  0  0
  8  9  1  0  0  0  0
  8  6  1  0  0  0  0
 10  8  2  0  0  0  0
 11 10  1  0  0  0  0
 12 10  1  0  0  0  0
 12  3  2  0  0  0  0
 13 12  1  0  0  0  0
 13 16  1  0  0  0  0
 14 13  1  0  0  0  0
 15 13  1  0  0  0  0
 16 17  1  0  0  0  0
 18 19  1  6  0  0  0
 18 16  1  0  0  0  0
 18 23  1  0  0  0  0
 20 18  1  0  0  0  0
 20 21  1  0  0  0  0
 22 20  2  0  0  0  0
 23 25  1  0  0  0  0
 23 26  1  0  0  0  0
 24 23  1  0  0  0  0
 26 27  2  0  0  0  0
 28 26  1  0  0  0  0
 28 29  1  0  0  0  0
 30 28  1  0  0  0  0
M  CHG  1  21  -1
M  END
