2,4
 OpenBabel05122313063D

 32 33  0  0  0  0  0  0  0  0999 V2000
    6.4231   -1.2702    0.4161 O   0  0  0  0  0  0  0  0  0  0  0  0
    1.7647   -0.2064    0.5711 O   0  5  0  0  0  0  0  0  0  0  0  0
   -1.2107   -4.1854   -0.2483 O   0  0  0  0  0  0  0  0  0  0  0  0
    0.1046   -1.5501   -1.1313 N   0  0  0  0  0  2  0  0  0  0  0  0
    5.1357   -1.4200    0.0102 C   0  0  0  0  0  0  0  0  0  0  0  0
    4.0582   -0.7033    0.5427 C   0  0  0  0  0  0  0  0  0  0  0  0
    4.1872    0.0286    1.3496 H   0  0  0  0  0  0  0  0  0  0  0  0
    2.7338   -0.9036    0.0494 C   0  0  0  0  0  0  0  0  0  0  0  0
    2.5313   -1.8787   -0.9864 C   0  0  0  0  0  0  0  0  0  0  0  0
    3.6503   -2.5979   -1.4927 C   0  0  0  0  0  3  0  0  0  0  0  0
    3.4775   -3.3483   -2.2807 H   0  0  0  0  0  0  0  0  0  0  0  0
    4.9334   -2.3801   -1.0228 C   0  0  0  0  0  0  0  0  0  0  0  0
    5.8031   -2.9264   -1.4116 H   0  0  0  0  0  0  0  0  0  0  0  0
    1.2162   -2.1737   -1.4506 C   0  0  0  0  0  0  0  0  0  0  0  0
    1.1297   -3.0383   -2.1391 H   0  0  0  0  0  0  0  0  0  0  0  0
   -1.1409   -2.1787   -1.6209 C   0  0  0  0  0  0  0  0  0  0  0  0
   -0.8943   -2.8347   -2.4832 H   0  0  0  0  0  0  0  0  0  0  0  0
   -1.8307   -1.3855   -1.9505 H   0  0  0  0  0  0  0  0  0  0  0  0
   -1.8001   -2.9809   -0.5523 C   0  0  0  0  0  0  0  0  0  0  0  0
   -2.8720   -2.7686    0.2863 C   0  0  0  0  0  0  0  0  0  0  0  0
   -3.5164   -1.8830    0.2938 H   0  0  0  0  0  0  0  0  0  0  0  0
   -2.9463   -3.9151    1.1468 C   0  0  0  0  0  0  0  0  0  0  0  0
   -3.6747   -4.1016    1.9438 H   0  0  0  0  0  0  0  0  0  0  0  0
   -1.9096   -4.7499    0.7860 C   0  0  0  0  0  0  0  0  0  0  0  0
   -1.4371   -6.0718    1.2763 C   0  0  0  0  0  0  0  0  0  0  0  0
   -1.4714   -6.8424    0.4771 H   0  0  0  0  0  0  0  0  0  0  0  0
   -0.3880   -6.0206    1.6369 H   0  0  0  0  0  0  0  0  0  0  0  0
   -2.0742   -6.4136    2.1130 H   0  0  0  0  0  0  0  0  0  0  0  0
    6.7037   -0.3292    1.4361 C   0  0  0  0  0  0  0  0  0  0  0  0
    7.7964   -0.3631    1.6019 H   0  0  0  0  0  0  0  0  0  0  0  0
    6.4121    0.7025    1.1370 H   0  0  0  0  0  0  0  0  0  0  0  0
    6.1834   -0.5830    2.3866 H   0  0  0  0  0  0  0  0  0  0  0  0
  1 29  1  0  0  0  0
  3 24  1  0  0  0  0
  5  1  1  0  0  0  0
  5  6  1  0  0  0  0
  6  7  1  0  0  0  0
  8  6  2  0  0  0  0
  8  2  1  0  0  0  0
  9  8  1  0  0  0  0
 10 12  1  0  0  0  0
 10  9  1  0  0  0  0
 11 10  1  0  0  0  0
 12  5  2  0  0  0  0
 13 12  1  0  0  0  0
 14  4  1  0  0  0  0
 14  9  2  0  0  0  0
 15 14  1  0  0  0  0
 16  4  1  0  0  0  0
 16 19  1  0  0  0  0
 17 16  1  0  0  0  0
 18 16  1  0  0  0  0
 19  3  1  0  0  0  0
 19 20  2  0  0  0  0
 20 21  1  0  0  0  0
 20 22  1  0  0  0  0
 22 23  1  0  0  0  0
 24 22  2  0  0  0  0
 24 25  1  0  0  0  0
 25 27  1  0  0  0  0
 25 28  1  0  0  0  0
 26 25  1  0  0  0  0
 29 30  1  0  0  0  0
 29 32  1  0  0  0  0
 31 29  1  0  0  0  0
M  CHG  1   2  -1
M  END
