2,4
 OpenBabel05122313063D

 41 42  0  0  1  0  0  0  0  0999 V2000
   -3.8237   -2.7433   -1.0488 Br  0  0  0  0  0  0  0  0  0  0  0  0
   -1.6864   -0.7251   -0.3587 O   0  0  0  0  0  1  0  0  0  0  0  0
    0.8450    1.2989    2.3771 O   0  0  0  0  0  0  0  0  0  0  0  0
   -0.6632    1.7732    0.2092 N   0  0  0  0  0  2  0  0  0  0  0  0
   -2.8265   -0.1222   -0.4774 C   0  0  1  0  0  3  0  0  0  0  0  0
   -4.0077   -0.8694   -0.7977 C   0  0  0  0  0  0  0  0  0  0  0  0
   -5.2562   -0.2686   -0.9365 C   0  0  0  0  0  0  0  0  0  0  0  0
   -5.4431    1.1272   -0.7545 C   0  0  0  0  0  0  0  0  0  0  0  0
   -4.3097    1.8749   -0.4307 C   0  0  0  0  0  0  0  0  0  0  0  0
   -3.0197    1.2947   -0.2964 C   0  0  0  0  0  0  0  0  0  0  0  0
   -1.9241    2.1324    0.0818 C   0  0  0  0  0  0  0  0  0  0  0  0
    0.2498    2.7745    0.6444 C   0  0  0  0  0  0  0  0  0  0  0  0
    0.3737    4.0074   -0.0119 C   0  0  0  0  0  0  0  0  0  0  0  0
    1.2753    4.9782    0.4529 C   0  0  0  0  0  0  0  0  0  0  0  0
    2.0698    4.7036    1.5735 C   0  0  0  0  0  0  0  0  0  0  0  0
    1.9666    3.4697    2.2376 C   0  0  0  0  0  0  0  0  0  0  0  0
    1.0528    2.5041    1.7863 C   0  0  0  0  0  0  0  0  0  0  0  0
    1.8498    0.7623    3.2195 C   0  0  0  0  0  0  0  0  0  0  0  0
   -6.8176    1.8061   -0.9013 C   0  0  0  0  0  0  0  0  0  0  0  0
   -6.7488    2.8558   -2.0335 C   0  0  0  0  0  0  0  0  0  0  0  0
   -7.9265    0.7959   -1.2432 C   0  0  0  0  0  0  0  0  0  0  0  0
   -7.1885    2.5042    0.4266 C   0  0  0  0  0  0  0  0  0  0  0  0
   -6.1051   -0.9157   -1.1924 H   0  0  0  0  0  0  0  0  0  0  0  0
   -4.3923    2.9621   -0.2727 H   0  0  0  0  0  0  0  0  0  0  0  0
   -2.1746    3.1824    0.3289 H   0  0  0  0  0  0  0  0  0  0  0  0
   -0.2237    4.1832   -0.9187 H   0  0  0  0  0  0  0  0  0  0  0  0
    1.3688    5.9378   -0.0762 H   0  0  0  0  0  0  0  0  0  0  0  0
    2.7912    5.4508    1.9366 H   0  0  0  0  0  0  0  0  0  0  0  0
    2.5980    3.2638    3.1124 H   0  0  0  0  0  0  0  0  0  0  0  0
    1.5455   -0.2822    3.4178 H   0  0  0  0  0  0  0  0  0  0  0  0
    1.9258    1.3127    4.1840 H   0  0  0  0  0  0  0  0  0  0  0  0
    2.8410    0.7702    2.7157 H   0  0  0  0  0  0  0  0  0  0  0  0
   -7.7280    3.3640   -2.1553 H   0  0  0  0  0  0  0  0  0  0  0  0
   -5.9889    3.6348   -1.8239 H   0  0  0  0  0  0  0  0  0  0  0  0
   -6.4841    2.3790   -2.9989 H   0  0  0  0  0  0  0  0  0  0  0  0
   -8.8977    1.3220   -1.3373 H   0  0  0  0  0  0  0  0  0  0  0  0
   -7.7331    0.2801   -2.2053 H   0  0  0  0  0  0  0  0  0  0  0  0
   -8.0402    0.0248   -0.4546 H   0  0  0  0  0  0  0  0  0  0  0  0
   -8.1743    3.0072    0.3411 H   0  0  0  0  0  0  0  0  0  0  0  0
   -6.4426    3.2741    0.7082 H   0  0  0  0  0  0  0  0  0  0  0  0
   -7.2458    1.7710    1.2564 H   0  0  0  0  0  0  0  0  0  0  0  0
  1  6  1  0  0  0  0
  3 18  1  0  0  0  0
  4 12  1  0  0  0  0
  5  2  1  1  0  0  0
  5 10  1  0  0  0  0
  6  5  1  0  0  0  0
  7  6  2  0  0  0  0
  7  8  1  0  0  0  0
  8  9  2  0  0  0  0
  9 10  1  0  0  0  0
  9 24  1  0  0  0  0
 10 11  2  0  0  0  0
 11  4  1  0  0  0  0
 11 25  1  0  0  0  0
 12 17  1  0  0  0  0
 13 14  1  0  0  0  0
 13 12  2  0  0  0  0
 14 15  2  0  0  0  0
 15 28  1  0  0  0  0
 15 16  1  0  0  0  0
 16 29  1  0  0  0  0
 17 16  2  0  0  0  0
 17  3  1  0  0  0  0
 18 30  1  0  0  0  0
 18 31  1  0  0  0  0
 19  8  1  0  0  0  0
 19 22  1  0  0  0  0
 20 34  1  0  0  0  0
 20 19  1  0  0  0  0
 21 19  1  0  0  0  0
 21 38  1  0  0  0  0
 22 40  1  0  0  0  0
 22 41  1  0  0  0  0
 23  7  1  0  0  0  0
 26 13  1  0  0  0  0
 27 14  1  0  0  0  0
 32 18  1  0  0  0  0
 33 20  1  0  0  0  0
 35 20  1  0  0  0  0
 36 21  1  0  0  0  0
 37 21  1  0  0  0  0
 39 22  1  0  0  0  0
M  END
