1,2
 OpenBabel05122313063D

 21 22  0  0  1  0  0  0  0  0999 V2000
    1.3478    1.2577   -0.7998 O   0  0  0  0  0  1  0  0  0  0  0  0
    1.3973   -1.4935    0.0134 N   0  0  0  0  0  2  0  0  0  0  0  0
    0.9102   -2.7576   -0.0326 C   0  0  0  0  0  0  0  0  0  0  0  0
    1.7246   -3.8814   -0.1450 C   0  0  0  0  0  0  0  0  0  0  0  0
    3.1115   -3.6851   -0.2401 C   0  0  0  0  0  0  0  0  0  0  0  0
    3.6111   -2.3869   -0.1925 C   0  0  0  0  0  0  0  0  0  0  0  0
    2.7482   -1.2677   -0.0382 C   0  0  0  0  0  0  0  0  0  0  0  0
    2.5992    1.2521   -0.3993 C   0  0  2  0  0  3  0  0  0  0  0  0
    3.3060    2.4929   -0.4461 C   0  0  0  0  0  0  0  0  0  0  0  0
    4.6228    2.6044   -0.0139 C   0  0  0  0  0  0  0  0  0  0  0  0
    5.3042    1.4755    0.4892 C   0  0  0  0  0  0  0  0  0  0  0  0
    4.6520    0.2451    0.5010 C   0  0  0  0  0  0  0  0  0  0  0  0
    3.3159    0.0841    0.0440 C   0  0  0  0  0  0  0  0  0  0  0  0
   -0.1837   -2.8266    0.0607 H   0  0  0  0  0  0  0  0  0  0  0  0
    1.2718   -4.8820   -0.1719 H   0  0  0  0  0  0  0  0  0  0  0  0
    3.7967   -4.5370   -0.3657 H   0  0  0  0  0  0  0  0  0  0  0  0
    4.6872   -2.2077   -0.3063 H   0  0  0  0  0  0  0  0  0  0  0  0
    2.7562    3.3637   -0.8329 H   0  0  0  0  0  0  0  0  0  0  0  0
    5.1253    3.5837   -0.0486 H   0  0  0  0  0  0  0  0  0  0  0  0
    6.3308    1.5627    0.8725 H   0  0  0  0  0  0  0  0  0  0  0  0
    5.1802   -0.6297    0.9082 H   0  0  0  0  0  0  0  0  0  0  0  0
  3  2  1  0  0  0  0
  3 14  1  0  0  0  0
  4  3  2  0  0  0  0
  5  6  2  0  0  0  0
  5  4  1  0  0  0  0
  6  7  1  0  0  0  0
  7  2  1  0  0  0  0
  7 13  2  0  0  0  0
  8  1  1  6  0  0  0
  8 13  1  0  0  0  0
  9  8  1  0  0  0  0
  9 10  2  0  0  0  0
 10 11  1  0  0  0  0
 11 12  2  0  0  0  0
 11 20  1  0  0  0  0
 12 21  1  0  0  0  0
 13 12  1  0  0  0  0
 15  4  1  0  0  0  0
 16  5  1  0  0  0  0
 17  6  1  0  0  0  0
 18  9  1  0  0  0  0
 19 10  1  0  0  0  0
M  END
