1,2
 OpenBabel05122313063D

 54 56  0  0  1  0  0  0  0  0999 V2000
   -0.9977   -1.0663   -0.0065 O   0  0  0  0  0  1  0  0  0  0  0  0
    0.5406    0.8235   -0.5423 N   0  0  0  0  0  2  0  0  0  0  0  0
   -0.8482    1.0839   -0.9479 C   0  0  1  0  0  0  0  0  0  0  0  0
   -1.1033    2.1495   -0.7550 H   0  0  0  0  0  0  0  0  0  0  0  0
   -1.0512    0.8779   -2.4885 C   0  0  0  0  0  0  0  0  0  0  0  0
   -0.1744    1.3997   -2.9195 H   0  0  0  0  0  0  0  0  0  0  0  0
   -0.9692   -0.5680   -2.9852 C   0  0  0  0  0  0  0  0  0  0  0  0
   -0.9342   -0.5852   -4.0941 H   0  0  0  0  0  0  0  0  0  0  0  0
   -1.8426   -1.1662   -2.6646 H   0  0  0  0  0  0  0  0  0  0  0  0
   -0.0570   -1.0870   -2.6230 H   0  0  0  0  0  0  0  0  0  0  0  0
   -2.2861    1.5830   -3.0701 C   0  0  0  0  0  0  0  0  0  0  0  0
   -2.1907    1.6663   -4.1725 H   0  0  0  0  0  0  0  0  0  0  0  0
   -2.3986    2.6112   -2.6670 H   0  0  0  0  0  0  0  0  0  0  0  0
   -3.2248    1.0373   -2.8590 H   0  0  0  0  0  0  0  0  0  0  0  0
   -1.6850    0.1657    0.0096 C   0  0  0  0  0  0  0  0  0  0  0  0
   -1.7046    0.6992    1.4655 C   0  0  0  0  0  0  0  0  0  0  0  0
   -1.7078   -0.2440    2.5128 C   0  0  0  0  0  0  0  0  0  0  0  0
   -1.6609   -1.3106    2.2522 H   0  0  0  0  0  0  0  0  0  0  0  0
   -1.7645    0.1627    3.8530 C   0  0  0  0  0  0  0  0  0  0  0  0
   -1.7675   -0.5944    4.6530 H   0  0  0  0  0  0  0  0  0  0  0  0
   -1.8208    1.5288    4.1767 C   0  0  0  0  0  0  0  0  0  0  0  0
   -1.8606    1.8520    5.2281 H   0  0  0  0  0  0  0  0  0  0  0  0
   -1.8367    2.4763    3.1429 C   0  0  0  0  0  0  0  0  0  0  0  0
   -1.8867    3.5507    3.3784 H   0  0  0  0  0  0  0  0  0  0  0  0
   -1.7870    2.0627    1.8015 C   0  0  0  0  0  0  0  0  0  0  0  0
   -1.8019    2.8273    1.0118 H   0  0  0  0  0  0  0  0  0  0  0  0
   -3.1586   -0.0223   -0.3858 C   0  0  0  0  0  0  0  0  0  0  0  0
   -4.0513    1.0689   -0.4094 C   0  0  0  0  0  0  0  0  0  0  0  0
   -3.6910    2.0776   -0.1614 H   0  0  0  0  0  0  0  0  0  0  0  0
   -5.3973    0.8900   -0.7538 C   0  0  0  0  0  0  0  0  0  0  0  0
   -6.0741    1.7580   -0.7752 H   0  0  0  0  0  0  0  0  0  0  0  0
   -5.8835   -0.3905   -1.0673 C   0  0  0  0  0  0  0  0  0  0  0  0
   -6.9413   -0.5323   -1.3363 H   0  0  0  0  0  0  0  0  0  0  0  0
   -5.0099   -1.4864   -1.0209 C   0  0  0  0  0  0  0  0  0  0  0  0
   -5.3802   -2.4978   -1.2496 H   0  0  0  0  0  0  0  0  0  0  0  0
   -3.6607   -1.3025   -0.6772 C   0  0  0  0  0  0  0  0  0  0  0  0
   -2.9726   -2.1564   -0.6219 H   0  0  0  0  0  0  0  0  0  0  0  0
    1.7187    2.6346   -1.9210 C   0  0  0  0  0  0  0  0  0  0  0  0
    0.7913    3.1636   -2.2344 H   0  0  0  0  0  0  0  0  0  0  0  0
    1.9310    1.8716   -2.6957 H   0  0  0  0  0  0  0  0  0  0  0  0
    2.8681    3.6492   -1.8389 C   0  0  0  0  0  0  0  0  0  0  0  0
    3.8118    3.1068   -1.6015 H   0  0  0  0  0  0  0  0  0  0  0  0
    3.0271    4.1295   -2.8274 H   0  0  0  0  0  0  0  0  0  0  0  0
    2.6101    4.7093   -0.7614 C   0  0  0  0  0  0  0  0  0  0  0  0
    1.7358    5.3282   -1.0653 H   0  0  0  0  0  0  0  0  0  0  0  0
    3.4723    5.4047   -0.6832 H   0  0  0  0  0  0  0  0  0  0  0  0
    2.3139    4.0605    0.5961 C   0  0  0  0  0  0  0  0  0  0  0  0
    2.0702    4.8353    1.3535 H   0  0  0  0  0  0  0  0  0  0  0  0
    3.2304    3.5447    0.9630 H   0  0  0  0  0  0  0  0  0  0  0  0
    1.1730    3.0398    0.4952 C   0  0  0  0  0  0  0  0  0  0  0  0
    0.2385    3.5707    0.2098 H   0  0  0  0  0  0  0  0  0  0  0  0
    0.9694    2.5689    1.4770 H   0  0  0  0  0  0  0  0  0  0  0  0
    1.4855    1.9506   -0.5547 C   0  0  0  0  0  0  0  0  0  0  0  0
    2.4640    1.5098   -0.2617 H   0  0  0  0  0  0  0  0  0  0  0  0
  1 15  1  0  0  0  0
  3  4  1  1  0  0  0
  3  2  1  0  0  0  0
  3 15  1  0  0  0  0
  5  3  1  0  0  0  0
  6  5  1  0  0  0  0
  7  9  1  0  0  0  0
  7 10  1  0  0  0  0
  7  5  1  0  0  0  0
  8  7  1  0  0  0  0
 11 14  1  0  0  0  0
 11 13  1  0  0  0  0
 11  5  1  0  0  0  0
 12 11  1  0  0  0  0
 15 16  1  0  0  0  0
 16 25  2  0  0  0  0
 16 17  1  0  0  0  0
 17 19  2  0  0  0  0
 18 17  1  0  0  0  0
 19 21  1  0  0  0  0
 19 20  1  0  0  0  0
 21 22  1  0  0  0  0
 23 24  1  0  0  0  0
 23 21  2  0  0  0  0
 25 23  1  0  0  0  0
 26 25  1  0  0  0  0
 27 15  1  0  0  0  0
 28 27  1  0  0  0  0
 28 29  1  0  0  0  0
 30 28  2  0  0  0  0
 31 30  1  0  0  0  0
 32 34  2  0  0  0  0
 32 30  1  0  0  0  0
 33 32  1  0  0  0  0
 34 36  1  0  0  0  0
 35 34  1  0  0  0  0
 36 37  1  0  0  0  0
 36 27  2  0  0  0  0
 38 41  1  0  0  0  0
 38 53  1  0  0  0  0
 39 38  1  0  0  0  0
 40 38  1  0  0  0  0
 41 42  1  0  0  0  0
 41 44  1  0  0  0  0
 43 41  1  0  0  0  0
 44 46  1  0  0  0  0
 44 47  1  0  0  0  0
 45 44  1  0  0  0  0
 47 49  1  0  0  0  0
 47 48  1  0  0  0  0
 50 47  1  0  0  0  0
 50 52  1  0  0  0  0
 51 50  1  0  0  0  0
 53  2  1  0  0  0  0
 53 54  1  0  0  0  0
 53 50  1  0  0  0  0
M  END
