1,2
 OpenBabel05122313063D

 32 32  0  0  0  0  0  0  0  0999 V2000
   -0.2464   -1.0970    0.1209 O   0  0  0  0  0  1  0  0  0  0  0  0
   -0.3638    1.3680    0.0563 N   0  0  0  0  0  2  0  0  0  0  0  0
   -0.2287    2.7089    0.0747 C   0  0  0  0  0  3  0  0  0  0  0  0
   -1.3158    3.5658    0.2611 C   0  0  0  0  0  0  0  0  0  0  0  0
   -2.5930    3.0031    0.4157 C   0  0  0  0  0  0  0  0  0  0  0  0
   -2.7334    1.6126    0.3589 C   0  0  0  0  0  0  0  0  0  0  0  0
   -1.5894    0.8141    0.1726 C   0  0  0  0  0  0  0  0  0  0  0  0
   -1.5888   -0.7031    0.0443 C   0  0  0  0  0  0  0  0  0  0  0  0
   -2.3837   -1.3805    1.2086 C   0  0  0  0  0  0  0  0  0  0  0  0
   -1.8348   -0.9583    2.5770 C   0  0  0  0  0  0  0  0  0  0  0  0
   -2.3750   -2.9080    1.0785 C   0  0  0  0  0  0  0  0  0  0  0  0
   -2.1189   -1.1239   -1.3836 C   0  0  0  0  0  0  0  0  0  0  0  0
   -1.3439   -0.4380   -2.5135 C   0  0  0  0  0  0  0  0  0  0  0  0
   -3.6285   -0.9523   -1.5846 C   0  0  0  0  0  0  0  0  0  0  0  0
    0.7902    3.0842   -0.1035 H   0  0  0  0  0  0  0  0  0  0  0  0
   -1.1601    4.6537    0.2807 H   0  0  0  0  0  0  0  0  0  0  0  0
   -3.4734    3.6448    0.5720 H   0  0  0  0  0  0  0  0  0  0  0  0
   -3.7187    1.1411    0.4697 H   0  0  0  0  0  0  0  0  0  0  0  0
   -3.4345   -1.0245    1.1378 H   0  0  0  0  0  0  0  0  0  0  0  0
   -0.7929   -1.3114    2.7002 H   0  0  0  0  0  0  0  0  0  0  0  0
   -2.4414   -1.3992    3.3930 H   0  0  0  0  0  0  0  0  0  0  0  0
   -1.8417    0.1423    2.7115 H   0  0  0  0  0  0  0  0  0  0  0  0
   -1.3314   -3.2743    1.0016 H   0  0  0  0  0  0  0  0  0  0  0  0
   -2.9271   -3.2646    0.1876 H   0  0  0  0  0  0  0  0  0  0  0  0
   -2.8423   -3.3750    1.9685 H   0  0  0  0  0  0  0  0  0  0  0  0
   -1.8774   -2.2065   -1.4315 H   0  0  0  0  0  0  0  0  0  0  0  0
   -1.5185    0.6576   -2.5361 H   0  0  0  0  0  0  0  0  0  0  0  0
   -1.6713   -0.8451   -3.4913 H   0  0  0  0  0  0  0  0  0  0  0  0
   -0.2535   -0.6135   -2.4413 H   0  0  0  0  0  0  0  0  0  0  0  0
   -3.9233   -1.3817   -2.5633 H   0  0  0  0  0  0  0  0  0  0  0  0
   -3.9197    0.1182   -1.6079 H   0  0  0  0  0  0  0  0  0  0  0  0
   -4.2341   -1.4601   -0.8083 H   0  0  0  0  0  0  0  0  0  0  0  0
  2  3  1  0  0  0  0
  2  7  1  0  0  0  0
  3  4  1  0  0  0  0
  4 16  1  0  0  0  0
  4  5  2  0  0  0  0
  5 17  1  0  0  0  0
  6  5  1  0  0  0  0
  6 18  1  0  0  0  0
  7  6  2  0  0  0  0
  8  1  1  0  0  0  0
  8  7  1  0  0  0  0
  8  9  1  0  0  0  0
  9 10  1  0  0  0  0
 10 20  1  0  0  0  0
 10 22  1  0  0  0  0
 10 21  1  0  0  0  0
 11  9  1  0  0  0  0
 11 25  1  0  0  0  0
 12  8  1  0  0  0  0
 13 29  1  0  0  0  0
 13 12  1  0  0  0  0
 14 12  1  0  0  0  0
 14 32  1  0  0  0  0
 15  3  1  0  0  0  0
 19  9  1  0  0  0  0
 23 11  1  0  0  0  0
 24 11  1  0  0  0  0
 26 12  1  0  0  0  0
 27 13  1  0  0  0  0
 28 13  1  0  0  0  0
 30 14  1  0  0  0  0
 31 14  1  0  0  0  0
M  END
