9,11
 OpenBabel05122313063D

 28 29  0  0  0  0  0  0  0  0999 V2000
   -5.3135    0.2158   -0.9090 N   0  0  0  0  0  0  0  0  0  0  0  0
   -6.4793    0.8616   -1.5132 C   0  0  0  0  0  0  0  0  0  0  0  0
   -4.2043    0.9811   -0.5958 C   0  0  0  0  0  0  0  0  0  0  0  0
   -5.3644   -1.1689   -0.6809 C   0  0  0  0  0  0  0  0  0  0  0  0
   -6.3450   -1.8406   -0.9635 O   0  0  0  0  0  0  0  0  0  0  0  0
   -4.2074   -1.7423   -0.1011 N   0  0  0  0  0  0  0  0  0  0  0  0
   -4.2160   -3.1853    0.1471 C   0  0  0  0  0  0  0  0  0  0  0  0
   -3.0430   -1.0648    0.2517 C   0  0  0  0  0  0  0  0  0  0  0  0
   -2.0893   -1.6664    0.7542 O   0  5  0  0  0  0  0  0  0  0  0  0
   -3.0657    0.3831   -0.0175 C   0  0  0  0  0  0  0  0  0  0  0  0
   -1.9943    1.1271    0.2959 N   0  0  0  0  0  2  0  0  0  0  0  0
   -2.0048    2.4442    0.0601 C   0  0  0  0  0  0  0  0  0  0  0  0
   -0.7886    3.2501    0.3981 C   0  0  0  0  0  0  0  0  0  0  0  0
   -3.1652    3.0312   -0.5500 C   0  0  0  0  0  0  0  0  0  0  0  0
   -3.2093    4.4956   -0.8733 C   0  0  0  0  0  0  0  0  0  0  0  0
   -4.2392    2.2976   -0.8629 N   0  0  0  0  0  0  0  0  0  0  0  0
   -6.1963    1.3355   -2.4723 H   0  0  0  0  0  0  0  0  0  0  0  0
   -6.8673    1.6502   -0.8411 H   0  0  0  0  0  0  0  0  0  0  0  0
   -7.2393    0.0795   -1.6753 H   0  0  0  0  0  0  0  0  0  0  0  0
   -3.3994   -3.6645   -0.4265 H   0  0  0  0  0  0  0  0  0  0  0  0
   -5.1972   -3.5766   -0.1665 H   0  0  0  0  0  0  0  0  0  0  0  0
   -4.0370   -3.3787    1.2219 H   0  0  0  0  0  0  0  0  0  0  0  0
   -1.0559    4.2446    0.8037 H   0  0  0  0  0  0  0  0  0  0  0  0
   -0.1759    3.3958   -0.5172 H   0  0  0  0  0  0  0  0  0  0  0  0
   -0.1541    2.7155    1.1277 H   0  0  0  0  0  0  0  0  0  0  0  0
   -2.3508    4.7884   -1.5120 H   0  0  0  0  0  0  0  0  0  0  0  0
   -3.1431    5.1105    0.0488 H   0  0  0  0  0  0  0  0  0  0  0  0
   -4.1529    4.7330   -1.3956 H   0  0  0  0  0  0  0  0  0  0  0  0
  1  4  1  0  0  0  0
  1  3  1  0  0  0  0
  2  1  1  0  0  0  0
  2 18  1  0  0  0  0
  3 10  1  0  0  0  0
  4  6  1  0  0  0  0
  5  4  2  0  0  0  0
  6  7  1  0  0  0  0
  6  8  1  0  0  0  0
  7 22  1  0  0  0  0
  8  9  1  0  0  0  0
 10  8  2  0  0  0  0
 10 11  1  0  0  0  0
 12 11  1  0  0  0  0
 12 13  1  0  0  0  0
 13 23  1  0  0  0  0
 13 25  1  0  0  0  0
 14 12  2  0  0  0  0
 15 14  1  0  0  0  0
 15 27  1  0  0  0  0
 16  3  2  0  0  0  0
 16 14  1  0  0  0  0
 17  2  1  0  0  0  0
 19  2  1  0  0  0  0
 20  7  1  0  0  0  0
 21  7  1  0  0  0  0
 24 13  1  0  0  0  0
 26 15  1  0  0  0  0
 28 15  1  0  0  0  0
M  CHG  1   9  -1
M  END
