2,3
 OpenBabel05122313063D

 30 32  0  0  1  0  0  0  0  0999 V2000
   -2.0463   -5.2379    0.5799 F   0  0  0  0  0  0  0  0  0  0  0  0
   -1.6099   -0.8681   -1.4487 O   0  5  0  0  0  0  0  0  0  0  0  0
    0.1862   -1.7442    0.6200 N   0  0  0  0  0  2  0  0  0  0  0  0
    1.0806   -3.4574    1.9481 C   0  0  0  0  0  0  0  0  0  0  0  0
    1.9448   -4.1455    1.8961 H   0  0  0  0  0  0  0  0  0  0  0  0
    0.6742   -3.4523    2.9829 H   0  0  0  0  0  0  0  0  0  0  0  0
   -0.4762   -2.8676    0.4256 C   0  0  1  0  0  3  0  0  0  0  0  0
   -1.6690   -3.0654   -0.3726 C   0  0  0  0  0  0  0  0  0  0  0  0
   -3.4989   -4.5666   -1.1147 C   0  0  0  0  0  0  0  0  0  0  0  0
   -4.0146   -5.5290   -1.0001 H   0  0  0  0  0  0  0  0  0  0  0  0
   -2.1374   -2.0448   -1.3044 C   0  0  0  0  0  0  0  0  0  0  0  0
    0.0559   -3.9440    1.0613 O   0  0  0  0  0  0  0  0  0  0  0  0
   -2.4037   -4.2914   -0.3085 C   0  0  0  0  0  0  0  0  0  0  0  0
   -3.2525   -2.3720   -2.1427 C   0  0  0  0  0  0  0  0  0  0  0  0
   -3.5742   -1.5944   -2.8493 H   0  0  0  0  0  0  0  0  0  0  0  0
   -3.9090   -3.5893   -2.0476 C   0  0  0  0  0  0  0  0  0  0  0  0
   -4.7737   -3.7952   -2.6976 H   0  0  0  0  0  0  0  0  0  0  0  0
    2.6785   -1.9470    0.6323 C   0  0  0  0  0  0  0  0  0  0  0  0
    3.8075   -1.3277    1.1982 C   0  0  0  0  0  0  0  0  0  0  0  0
    3.7251   -0.8594    2.1917 H   0  0  0  0  0  0  0  0  0  0  0  0
    5.0203   -1.2726    0.4959 C   0  0  0  0  0  0  0  0  0  0  0  0
    5.8880   -0.7636    0.9418 H   0  0  0  0  0  0  0  0  0  0  0  0
    5.1163   -1.8478   -0.7806 C   0  0  0  0  0  0  0  0  0  0  0  0
    6.0648   -1.8019   -1.3371 H   0  0  0  0  0  0  0  0  0  0  0  0
    3.9952   -2.4729   -1.3507 C   0  0  0  0  0  0  0  0  0  0  0  0
    4.0618   -2.9162   -2.3556 H   0  0  0  0  0  0  0  0  0  0  0  0
    2.7817   -2.5190   -0.6498 C   0  0  0  0  0  0  0  0  0  0  0  0
    1.8997   -2.9898   -1.1104 H   0  0  0  0  0  0  0  0  0  0  0  0
    1.3870   -2.0330    1.4272 C   0  0  1  0  0  0  0  0  0  0  0  0
    1.4424   -1.3031    2.2597 H   0  0  0  0  0  0  0  0  0  0  0  0
  2 11  1  0  0  0  0
  3 29  1  0  0  0  0
  4  6  1  0  0  0  0
  5  4  1  0  0  0  0
  7  8  1  6  0  0  0
  7  3  1  0  0  0  0
  7 12  1  0  0  0  0
  8 13  1  0  0  0  0
  9 10  1  0  0  0  0
  9 13  2  0  0  0  0
 11  8  2  0  0  0  0
 12  4  1  0  0  0  0
 13  1  1  0  0  0  0
 14 16  2  0  0  0  0
 14 11  1  0  0  0  0
 15 14  1  0  0  0  0
 16  9  1  0  0  0  0
 17 16  1  0  0  0  0
 18 19  1  0  0  0  0
 18 29  1  0  0  0  0
 19 20  1  0  0  0  0
 21 22  1  0  0  0  0
 21 19  2  0  0  0  0
 23 21  1  0  0  0  0
 24 23  1  0  0  0  0
 25 23  2  0  0  0  0
 25 27  1  0  0  0  0
 26 25  1  0  0  0  0
 27 18  2  0  0  0  0
 28 27  1  0  0  0  0
 29  4  1  0  0  0  0
 29 30  1  1  0  0  0
M  CHG  1   2  -1
M  END
