2,7
 OpenBabel05122313063D

 48 50  0  0  1  0  0  0  0  0999 V2000
   -1.4977   -0.4863   -0.7389 O   0  0  0  0  0  0  0  0  0  0  0  0
    0.6668   -0.7280   -1.0695 O   0  5  0  0  0  0  0  0  0  0  0  0
   -6.2345   -0.5093   -0.0260 N   0  0  0  0  0  0  0  0  0  0  0  0
    2.3019    1.3338   -0.3901 N   0  0  0  0  0  0  0  0  0  0  0  0
    3.5234    1.8667   -0.2936 N   0  0  0  0  0  0  0  0  0  0  0  0
    3.6618    2.8736   -0.1496 H   0  0  0  0  0  0  0  0  0  0  0  0
    4.4075   -0.2862   -0.1729 N   0  0  0  0  0  2  0  0  0  0  0  0
   -8.2168    0.9100   -0.5990 C   0  0  0  0  0  0  0  0  0  0  0  0
   -9.1512    1.3354   -0.1807 H   0  0  0  0  0  0  0  0  0  0  0  0
   -8.4905    0.2682   -1.4607 H   0  0  0  0  0  0  0  0  0  0  0  0
   -7.5988    1.7449   -0.9851 H   0  0  0  0  0  0  0  0  0  0  0  0
   -7.4628    0.1086    0.4655 C   0  0  0  0  0  0  0  0  0  0  0  0
   -7.2284    0.7446    1.3433 H   0  0  0  0  0  0  0  0  0  0  0  0
   -8.1088   -0.7046    0.8571 H   0  0  0  0  0  0  0  0  0  0  0  0
   -6.0671   -2.9414    0.5520 C   0  0  0  0  0  0  0  0  0  0  0  0
   -6.1824   -3.9598    0.1299 H   0  0  0  0  0  0  0  0  0  0  0  0
   -6.7704   -2.8438    1.4037 H   0  0  0  0  0  0  0  0  0  0  0  0
   -5.0380   -2.8498    0.9518 H   0  0  0  0  0  0  0  0  0  0  0  0
   -6.3459   -1.8812   -0.5164 C   0  0  0  0  0  0  0  0  0  0  0  0
   -5.6690   -2.0123   -1.3852 H   0  0  0  0  0  0  0  0  0  0  0  0
   -7.3724   -2.0063   -0.9198 H   0  0  0  0  0  0  0  0  0  0  0  0
   -5.0288    0.1524   -0.0100 C   0  0  0  0  0  0  0  0  0  0  0  0
   -3.8259   -0.4985   -0.3983 C   0  0  0  0  0  0  0  0  0  0  0  0
   -3.7952   -1.5506   -0.7023 H   0  0  0  0  0  0  0  0  0  0  0  0
   -2.6164    0.1924   -0.3678 C   0  0  1  0  0  3  0  0  0  0  0  0
   -0.2176    0.0456   -0.7192 C   0  0  0  0  0  0  0  0  0  0  0  0
   -0.0795    1.4551   -0.3243 C   0  0  0  0  0  0  0  0  0  0  0  0
   -1.2296    2.1481    0.0369 C   0  0  0  0  0  0  0  0  0  0  0  0
   -1.1606    3.1968    0.3617 H   0  0  0  0  0  0  0  0  0  0  0  0
   -2.5166    1.5492    0.0388 C   0  0  0  0  0  0  0  0  0  0  0  0
   -3.7233    2.1921    0.4211 C   0  0  0  0  0  0  0  0  0  0  0  0
   -3.6854    3.2456    0.7384 H   0  0  0  0  0  0  0  0  0  0  0  0
   -4.9391    1.5276    0.3984 C   0  0  0  0  0  0  0  0  0  0  0  0
   -5.8434    2.0756    0.6890 H   0  0  0  0  0  0  0  0  0  0  0  0
    1.2413    2.0941   -0.3037 C   0  0  0  0  0  0  0  0  0  0  0  0
    1.3596    3.5840   -0.0914 C   0  0  0  0  0  0  0  0  0  0  0  0
    2.1666    4.0173   -0.7197 H   0  0  0  0  0  0  0  0  0  0  0  0
    1.5908    3.8172    0.9713 H   0  0  0  0  0  0  0  0  0  0  0  0
    0.4374    4.1248   -0.3648 H   0  0  0  0  0  0  0  0  0  0  0  0
    4.6332    1.0389   -0.2230 C   0  0  1  0  0  3  0  0  0  0  0  0
    5.4521   -1.1368   -0.1445 C   0  0  0  0  0  0  0  0  0  0  0  0
    5.1568   -2.2025   -0.1256 H   0  0  0  0  0  0  0  0  0  0  0  0
    6.7772   -0.6923   -0.1435 C   0  0  0  0  0  0  0  0  0  0  0  0
    7.6032   -1.4160   -0.1155 H   0  0  0  0  0  0  0  0  0  0  0  0
    7.0153    0.6950   -0.1715 C   0  0  0  0  0  0  0  0  0  0  0  0
    8.0439    1.0863   -0.1659 H   0  0  0  0  0  0  0  0  0  0  0  0
    5.9386    1.5811   -0.2177 C   0  0  0  0  0  0  0  0  0  0  0  0
    6.0907    2.6701   -0.2597 H   0  0  0  0  0  0  0  0  0  0  0  0
  1 26  1  0  0  0  0
  2 26  1  0  0  0  0
  3 22  1  0  0  0  0
  3 12  1  0  0  0  0
  4 35  2  0  0  0  0
  4  5  1  0  0  0  0
  5  6  1  0  0  0  0
  7 41  1  0  0  0  0
  8  9  1  0  0  0  0
  8 12  1  0  0  0  0
 10  8  1  0  0  0  0
 11  8  1  0  0  0  0
 12 14  1  0  0  0  0
 12 13  1  0  0  0  0
 15 18  1  0  0  0  0
 15 17  1  0  0  0  0
 16 15  1  0  0  0  0
 19  3  1  0  0  0  0
 19 15  1  0  0  0  0
 20 19  1  0  0  0  0
 21 19  1  0  0  0  0
 22 33  1  0  0  0  0
 23 25  1  0  0  0  0
 23 22  2  0  0  0  0
 24 23  1  0  0  0  0
 25  1  1  1  0  0  0
 25 30  1  0  0  0  0
 26 27  2  0  0  0  0
 27 35  1  0  0  0  0
 27 28  1  0  0  0  0
 28 30  2  0  0  0  0
 28 29  1  0  0  0  0
 30 31  1  0  0  0  0
 31 32  1  0  0  0  0
 33 31  2  0  0  0  0
 33 34  1  0  0  0  0
 35 36  1  0  0  0  0
 36 38  1  0  0  0  0
 37 36  1  0  0  0  0
 39 36  1  0  0  0  0
 40  5  1  6  0  0  0
 40 47  1  0  0  0  0
 40  7  1  0  0  0  0
 41 43  2  0  0  0  0
 41 42  1  0  0  0  0
 43 44  1  0  0  0  0
 45 46  1  0  0  0  0
 45 43  1  0  0  0  0
 47 45  2  0  0  0  0
 48 47  1  0  0  0  0
M  CHG  1   2  -1
M  END
