1,3
 OpenBabel05122313063D

 26 26  0  0  1  0  0  0  0  0999 V2000
    1.2265   -0.9762    0.0427 N   0  0  0  0  0  2  0  0  0  0  0  0
    0.3253    0.9120   -1.5772 O   0  0  0  0  0  0  0  0  0  0  0  0
    0.1392    1.4266    1.2448 O   0  0  0  0  0  1  0  0  0  0  0  0
    1.5940   -2.1537    0.6035 C   0  0  0  0  0  3  0  0  0  0  0  0
    0.7939   -2.7292    1.0914 H   0  0  0  0  0  0  0  0  0  0  0  0
    2.9123   -2.6155    0.5678 C   0  0  0  0  0  0  0  0  0  0  0  0
    3.1634   -3.5767    1.0376 H   0  0  0  0  0  0  0  0  0  0  0  0
    3.8859   -1.8398   -0.0775 C   0  0  0  0  0  0  0  0  0  0  0  0
    4.9305   -2.1802   -0.1319 H   0  0  0  0  0  0  0  0  0  0  0  0
    3.5038   -0.6264   -0.6674 C   0  0  0  0  0  0  0  0  0  0  0  0
    4.2371   -0.0018   -1.1985 H   0  0  0  0  0  0  0  0  0  0  0  0
    2.1662   -0.2206   -0.5863 C   0  0  0  0  0  0  0  0  0  0  0  0
    1.6970    1.0974   -1.1823 C   0  0  2  0  0  0  0  0  0  0  0  0
    2.2950    1.3036   -2.0962 H   0  0  0  0  0  0  0  0  0  0  0  0
    1.8666    2.2869   -0.2184 C   0  0  0  0  0  0  0  0  0  0  0  0
    2.9440    2.4325    0.0082 H   0  0  0  0  0  0  0  0  0  0  0  0
    1.5624    3.2329   -0.7227 H   0  0  0  0  0  0  0  0  0  0  0  0
    1.0885    2.2122    1.0825 C   0  0  1  0  0  3  0  0  0  0  0  0
    1.4850    3.1388    2.1855 C   0  0  0  0  0  0  0  0  0  0  0  0
    0.7039    3.1744    2.9656 H   0  0  0  0  0  0  0  0  0  0  0  0
    1.7045    4.1553    1.8005 H   0  0  0  0  0  0  0  0  0  0  0  0
    2.4299    2.7673    2.6408 H   0  0  0  0  0  0  0  0  0  0  0  0
   -0.2112    1.8579   -2.5206 C   0  0  0  0  0  0  0  0  0  0  0  0
   -0.3638    2.8536   -2.0548 H   0  0  0  0  0  0  0  0  0  0  0  0
   -1.1841    1.4532   -2.8501 H   0  0  0  0  0  0  0  0  0  0  0  0
    0.4719    1.9407   -3.3903 H   0  0  0  0  0  0  0  0  0  0  0  0
  1  4  1  0  0  0  0
  2 13  1  0  0  0  0
  4  5  1  0  0  0  0
  6  4  1  0  0  0  0
  6  7  1  0  0  0  0
  8  6  2  0  0  0  0
  9  8  1  0  0  0  0
 10 12  2  0  0  0  0
 10  8  1  0  0  0  0
 11 10  1  0  0  0  0
 12  1  1  0  0  0  0
 13 14  1  6  0  0  0
 13 12  1  0  0  0  0
 13 15  1  0  0  0  0
 15 16  1  0  0  0  0
 15 18  1  0  0  0  0
 17 15  1  0  0  0  0
 18  3  1  6  0  0  0
 18 19  1  0  0  0  0
 19 22  1  0  0  0  0
 19 20  1  0  0  0  0
 21 19  1  0  0  0  0
 23 24  1  0  0  0  0
 23  2  1  0  0  0  0
 25 23  1  0  0  0  0
 26 23  1  0  0  0  0
M  END
