1,4
 OpenBabel05122313063D

 23 23  0  0  1  0  0  0  0  0999 V2000
   -0.9386   -0.8139    0.1113 N   0  0  0  0  0  2  0  0  0  0  0  0
    0.5864    1.2531   -2.3344 H   0  0  0  0  0  0  0  0  0  0  0  0
    0.1152    0.5796   -1.8067 O   0  0  0  0  0  0  0  0  0  0  0  0
    0.3988    1.5199    0.8550 O   0  0  0  0  0  1  0  0  0  0  0  0
   -1.4067   -1.8162    0.8898 C   0  0  0  0  0  3  0  0  0  0  0  0
   -0.6618   -2.3707    1.4788 H   0  0  0  0  0  0  0  0  0  0  0  0
   -2.7660   -2.1371    0.9539 C   0  0  0  0  0  0  0  0  0  0  0  0
   -3.0984   -2.9590    1.6036 H   0  0  0  0  0  0  0  0  0  0  0  0
   -3.6748   -1.4057    0.1768 C   0  0  0  0  0  0  0  0  0  0  0  0
   -4.7490   -1.6410    0.1966 H   0  0  0  0  0  0  0  0  0  0  0  0
   -3.1885   -0.3748   -0.6399 C   0  0  0  0  0  0  0  0  0  0  0  0
   -3.8674    0.2088   -1.2790 H   0  0  0  0  0  0  0  0  0  0  0  0
   -1.8151   -0.1039   -0.6462 C   0  0  0  0  0  0  0  0  0  0  0  0
   -1.2179    1.0162   -1.4768 C   0  0  1  0  0  0  0  0  0  0  0  0
   -1.8061    1.1230   -2.4128 H   0  0  0  0  0  0  0  0  0  0  0  0
   -1.2097    2.3664   -0.7419 C   0  0  0  0  0  0  0  0  0  0  0  0
   -0.7885    3.1587   -1.4048 H   0  0  0  0  0  0  0  0  0  0  0  0
   -2.2521    2.6974   -0.5486 H   0  0  0  0  0  0  0  0  0  0  0  0
   -0.4222    2.3999    0.5576 C   0  0  2  0  0  3  0  0  0  0  0  0
   -0.6565    3.5508    1.4833 C   0  0  0  0  0  0  0  0  0  0  0  0
    0.1222    3.5862    2.2656 H   0  0  0  0  0  0  0  0  0  0  0  0
   -1.6500    3.4255    1.9679 H   0  0  0  0  0  0  0  0  0  0  0  0
   -0.7001    4.5103    0.9285 H   0  0  0  0  0  0  0  0  0  0  0  0
  1  5  1  0  0  0  0
  2  3  1  0  0  0  0
  3 14  1  0  0  0  0
  5  7  1  0  0  0  0
  5  6  1  0  0  0  0
  7  8  1  0  0  0  0
  9 10  1  0  0  0  0
  9  7  2  0  0  0  0
 11  9  1  0  0  0  0
 12 11  1  0  0  0  0
 13 11  2  0  0  0  0
 13  1  1  0  0  0  0
 14 15  1  6  0  0  0
 14 16  1  0  0  0  0
 14 13  1  0  0  0  0
 16 18  1  0  0  0  0
 16 19  1  0  0  0  0
 17 16  1  0  0  0  0
 19  4  1  6  0  0  0
 19 20  1  0  0  0  0
 20 22  1  0  0  0  0
 20 21  1  0  0  0  0
 23 20  1  0  0  0  0
M  END
