3,4
 OpenBabel05122313063D

 36 36  0  0  0  0  0  0  0  0999 V2000
    4.2582   -2.4162   -0.1657 Cl  0  0  0  0  0  0  0  0  0  0  0  0
    6.0246    2.7121    0.1545 Cl  0  0  0  0  0  0  0  0  0  0  0  0
    1.6209   -1.2190   -0.2412 O   0  5  0  0  0  0  0  0  0  0  0  0
   -0.1600    1.0832   -0.1939 N   0  0  0  0  0  2  0  0  0  0  0  0
   -3.7853    1.6737    0.4738 N   0  3  0  0  0  0  0  0  0  0  0  0
    2.2936    1.1225   -0.0988 C   0  0  0  0  0  0  0  0  0  0  0  0
    2.5253   -0.3155   -0.1473 C   0  0  0  0  0  0  0  0  0  0  0  0
    3.9200   -0.7138   -0.1025 C   0  0  0  0  0  0  0  0  0  0  0  0
    4.9654    0.1939   -0.0059 C   0  0  0  0  0  0  0  0  0  0  0  0
    6.0015   -0.1682    0.0323 H   0  0  0  0  0  0  0  0  0  0  0  0
    4.6926    1.5834    0.0393 C   0  0  0  0  0  0  0  0  0  0  0  0
    3.3855    2.0369   -0.0128 C   0  0  0  0  0  0  0  0  0  0  0  0
    3.1815    3.1178    0.0139 H   0  0  0  0  0  0  0  0  0  0  0  0
    0.9850    1.7096   -0.1816 C   0  0  0  0  0  3  0  0  0  0  0  0
    0.9717    2.8225   -0.2576 H   0  0  0  0  0  0  0  0  0  0  0  0
   -1.3867    1.8185   -0.3942 C   0  0  0  0  0  0  0  0  0  0  0  0
   -1.8622    1.4019   -1.3133 H   0  0  0  0  0  0  0  0  0  0  0  0
   -1.1968    2.9046   -0.5648 H   0  0  0  0  0  0  0  0  0  0  0  0
   -2.3113    1.5925    0.8106 C   0  0  0  0  0  0  0  0  0  0  0  0
   -2.1268    2.3360    1.6116 H   0  0  0  0  0  0  0  0  0  0  0  0
   -2.1254    0.5810    1.2441 H   0  0  0  0  0  0  0  0  0  0  0  0
   -4.1547    2.9824   -0.1817 C   0  0  0  0  0  0  0  0  0  0  0  0
   -3.8461    2.8997   -1.2416 H   0  0  0  0  0  0  0  0  0  0  0  0
   -3.5227    3.7592    0.2920 H   0  0  0  0  0  0  0  0  0  0  0  0
   -5.6284    3.3234   -0.0362 C   0  0  0  0  0  0  0  0  0  0  0  0
   -6.2896    2.5855   -0.5305 H   0  0  0  0  0  0  0  0  0  0  0  0
   -5.8214    4.3062   -0.5077 H   0  0  0  0  0  0  0  0  0  0  0  0
   -5.9260    3.4049    1.0298 H   0  0  0  0  0  0  0  0  0  0  0  0
   -4.2926    0.4544   -0.2928 C   0  0  0  0  0  0  0  0  0  0  0  0
   -3.5140    0.1780   -1.0399 H   0  0  0  0  0  0  0  0  0  0  0  0
   -5.2041    0.7827   -0.8274 H   0  0  0  0  0  0  0  0  0  0  0  0
   -4.5641   -0.7177    0.6275 C   0  0  0  0  0  0  0  0  0  0  0  0
   -3.6402   -1.0692    1.1375 H   0  0  0  0  0  0  0  0  0  0  0  0
   -4.9166   -1.5647    0.0080 H   0  0  0  0  0  0  0  0  0  0  0  0
   -5.3513   -0.4909    1.3786 H   0  0  0  0  0  0  0  0  0  0  0  0
   -4.2757    1.6505    1.3862 H   0  0  0  0  0  0  0  0  0  0  0  0
  1  8  1  0  0  0  0
  3  7  1  0  0  0  0
  4 14  1  0  0  0  0
  5 19  1  0  0  0  0
  5 36  1  0  0  0  0
  6 12  1  0  0  0  0
  7  8  1  0  0  0  0
  7  6  2  0  0  0  0
  8  9  2  0  0  0  0
  9 10  1  0  0  0  0
  9 11  1  0  0  0  0
 11  2  1  0  0  0  0
 12 13  1  0  0  0  0
 12 11  2  0  0  0  0
 14  6  1  0  0  0  0
 15 14  1  0  0  0  0
 16  4  1  0  0  0  0
 16 19  1  0  0  0  0
 17 16  1  0  0  0  0
 18 16  1  0  0  0  0
 19 21  1  0  0  0  0
 19 20  1  0  0  0  0
 22 25  1  0  0  0  0
 22 24  1  0  0  0  0
 22  5  1  0  0  0  0
 23 22  1  0  0  0  0
 25 28  1  0  0  0  0
 26 25  1  0  0  0  0
 27 25  1  0  0  0  0
 29  5  1  0  0  0  0
 29 32  1  0  0  0  0
 30 29  1  0  0  0  0
 31 29  1  0  0  0  0
 32 33  1  0  0  0  0
 32 35  1  0  0  0  0
 34 32  1  0  0  0  0
M  CHG  2   3  -1   5   1
M  END
