1,5
 OpenBabel05122313063D

 37 37  0  0  0  0  0  0  0  0999 V2000
    0.0942    1.2372   -0.7315 N   0  0  0  0  0  2  0  0  0  0  0  0
   -3.1654    0.9847   -0.6690 N   0  3  0  0  0  0  0  0  0  0  0  0
   -2.6212    0.0528   -0.7937 H   0  0  0  0  0  0  0  0  0  0  0  0
   -3.5690    1.1288   -1.6119 H   0  0  0  0  0  0  0  0  0  0  0  0
    1.6215   -1.1329    0.2260 O   0  5  0  0  0  0  0  0  0  0  0  0
    6.2734   -0.6885    0.4066 O   0  0  0  0  0  0  0  0  0  0  0  0
    2.5409    1.0272   -0.4491 C   0  0  0  0  0  0  0  0  0  0  0  0
    2.6361   -0.3526    0.0310 C   0  0  0  0  0  0  0  0  0  0  0  0
    3.9435   -0.8551    0.2883 C   0  0  0  0  0  0  0  0  0  0  0  0
    4.0358   -1.8894    0.6457 H   0  0  0  0  0  0  0  0  0  0  0  0
    5.0930   -0.0817    0.1147 C   0  0  0  0  0  0  0  0  0  0  0  0
    4.9990    1.2660   -0.3448 C   0  0  0  0  0  0  0  0  0  0  0  0
    5.8905    1.8882   -0.4896 H   0  0  0  0  0  0  0  0  0  0  0  0
    3.7408    1.7785   -0.6148 C   0  0  0  0  0  0  0  0  0  0  0  0
    3.6533    2.8157   -0.9787 H   0  0  0  0  0  0  0  0  0  0  0  0
    1.3249    1.6879   -0.8075 C   0  0  0  0  0  3  0  0  0  0  0  0
    1.4627    2.7184   -1.2124 H   0  0  0  0  0  0  0  0  0  0  0  0
   -0.9682    2.0741   -1.2523 C   0  0  0  0  0  0  0  0  0  0  0  0
   -1.2575    1.7181   -2.2708 H   0  0  0  0  0  0  0  0  0  0  0  0
   -0.6140    3.1232   -1.3804 H   0  0  0  0  0  0  0  0  0  0  0  0
   -2.2154    2.1001   -0.3586 C   0  0  0  0  0  0  0  0  0  0  0  0
   -1.9250    1.9767    0.7055 H   0  0  0  0  0  0  0  0  0  0  0  0
   -2.7642    3.0520   -0.4880 H   0  0  0  0  0  0  0  0  0  0  0  0
   -4.2882    0.7541    0.3189 C   0  0  0  0  0  0  0  0  0  0  0  0
   -3.7527    0.5777    1.2775 H   0  0  0  0  0  0  0  0  0  0  0  0
   -5.0181   -0.5226   -0.0834 C   0  0  0  0  0  0  0  0  0  0  0  0
   -5.5273   -0.4147   -1.0652 H   0  0  0  0  0  0  0  0  0  0  0  0
   -5.7906   -0.7572    0.6736 H   0  0  0  0  0  0  0  0  0  0  0  0
   -4.3145   -1.3766   -0.1407 H   0  0  0  0  0  0  0  0  0  0  0  0
   -5.1954    1.9754    0.4096 C   0  0  0  0  0  0  0  0  0  0  0  0
   -4.6666    2.8768    0.7760 H   0  0  0  0  0  0  0  0  0  0  0  0
   -6.0127    1.7647    1.1258 H   0  0  0  0  0  0  0  0  0  0  0  0
   -5.6673    2.2109   -0.5689 H   0  0  0  0  0  0  0  0  0  0  0  0
    7.4764    0.0425    0.2599 C   0  0  0  0  0  0  0  0  0  0  0  0
    7.6414    0.3681   -0.7915 H   0  0  0  0  0  0  0  0  0  0  0  0
    8.2937   -0.6419    0.5539 H   0  0  0  0  0  0  0  0  0  0  0  0
    7.5032    0.9384    0.9196 H   0  0  0  0  0  0  0  0  0  0  0  0
  2 21  1  0  0  0  0
  2 24  1  0  0  0  0
  3  2  1  0  0  0  0
  4  2  1  0  0  0  0
  7  8  1  0  0  0  0
  8  5  1  0  0  0  0
  8  9  2  0  0  0  0
  9 10  1  0  0  0  0
 11  9  1  0  0  0  0
 11  6  1  0  0  0  0
 12 11  2  0  0  0  0
 13 12  1  0  0  0  0
 14  7  2  0  0  0  0
 14 12  1  0  0  0  0
 15 14  1  0  0  0  0
 16  1  1  0  0  0  0
 16  7  1  0  0  0  0
 17 16  1  0  0  0  0
 18  1  1  0  0  0  0
 18 21  1  0  0  0  0
 19 18  1  0  0  0  0
 20 18  1  0  0  0  0
 21 22  1  0  0  0  0
 23 21  1  0  0  0  0
 24 30  1  0  0  0  0
 24 25  1  0  0  0  0
 26 24  1  0  0  0  0
 26 28  1  0  0  0  0
 27 26  1  0  0  0  0
 29 26  1  0  0  0  0
 30 31  1  0  0  0  0
 30 32  1  0  0  0  0
 33 30  1  0  0  0  0
 34  6  1  0  0  0  0
 34 36  1  0  0  0  0
 34 37  1  0  0  0  0
 35 34  1  0  0  0  0
M  CHG  2   2   1   5  -1
M  END
