1,4
 OpenBabel05122313063D

 32 33  0  0  0  0  0  0  0  0999 V2000
   -1.3696    1.4192   -1.9038 O   0  5  0  0  0  0  0  0  0  0  0  0
   -6.4625   -2.2993    0.9362 O   0  0  0  0  0  0  0  0  0  0  0  0
   -6.9795   -2.2350    1.7603 H   0  0  0  0  0  0  0  0  0  0  0  0
   -1.0323    0.6803    0.9448 N   0  0  0  0  0  2  0  0  0  0  0  0
   -2.8229    2.0709   -0.0581 C   0  0  0  0  0  0  0  0  0  0  0  0
   -2.4128    2.0484   -1.4533 C   0  0  0  0  0  0  0  0  0  0  0  0
   -3.2299    2.7773   -2.3778 C   0  0  0  0  0  0  0  0  0  0  0  0
   -2.9172    2.7545   -3.4321 H   0  0  0  0  0  0  0  0  0  0  0  0
   -4.3586    3.4757   -1.9705 C   0  0  0  0  0  0  0  0  0  0  0  0
   -4.9550    4.0216   -2.7189 H   0  0  0  0  0  0  0  0  0  0  0  0
   -4.7578    3.4922   -0.6101 C   0  0  0  0  0  0  0  0  0  0  0  0
   -5.6565    4.0424   -0.2970 H   0  0  0  0  0  0  0  0  0  0  0  0
   -3.9945    2.7956    0.3149 C   0  0  0  0  0  0  0  0  0  0  0  0
   -4.2879    2.7868    1.3777 H   0  0  0  0  0  0  0  0  0  0  0  0
   -2.1379    1.3841    1.0008 C   0  0  0  0  0  3  0  0  0  0  0  0
   -2.6260    1.4662    1.9975 H   0  0  0  0  0  0  0  0  0  0  0  0
   -0.6165   -0.0327    2.1444 C   0  0  0  0  0  0  0  0  0  0  0  0
    0.4728    0.1208    2.3023 H   0  0  0  0  0  0  0  0  0  0  0  0
   -1.1421    0.3834    3.0343 H   0  0  0  0  0  0  0  0  0  0  0  0
   -0.9112   -1.5475    2.0309 C   0  0  0  0  0  0  0  0  0  0  0  0
   -0.5745   -2.0264    2.9746 H   0  0  0  0  0  0  0  0  0  0  0  0
   -0.3025   -1.9676    1.2049 H   0  0  0  0  0  0  0  0  0  0  0  0
   -2.3739   -1.8202    1.7740 C   0  0  0  0  0  0  0  0  0  0  0  0
   -3.3205   -1.7708    2.8150 C   0  0  0  0  0  0  0  0  0  0  0  0
   -2.9840   -1.6059    3.8519 H   0  0  0  0  0  0  0  0  0  0  0  0
   -4.6904   -1.9303    2.5617 C   0  0  0  0  0  0  0  0  0  0  0  0
   -5.4159   -1.8960    3.3919 H   0  0  0  0  0  0  0  0  0  0  0  0
   -5.1447   -2.1402    1.2443 C   0  0  0  0  0  0  0  0  0  0  0  0
   -4.2085   -2.1952    0.1930 C   0  0  0  0  0  0  0  0  0  0  0  0
   -4.5731   -2.3615   -0.8310 H   0  0  0  0  0  0  0  0  0  0  0  0
   -2.8445   -2.0369    0.4601 C   0  0  0  0  0  0  0  0  0  0  0  0
   -2.1153   -2.0847   -0.3649 H   0  0  0  0  0  0  0  0  0  0  0  0
  1  6  1  0  0  0  0
  2 28  1  0  0  0  0
  2  3  1  0  0  0  0
  4 15  1  0  0  0  0
  4 17  1  0  0  0  0
  5 13  1  0  0  0  0
  5 15  1  0  0  0  0
  6  5  2  0  0  0  0
  7  9  2  0  0  0  0
  7  6  1  0  0  0  0
  8  7  1  0  0  0  0
  9 11  1  0  0  0  0
 10  9  1  0  0  0  0
 11 12  1  0  0  0  0
 11 13  2  0  0  0  0
 13 14  1  0  0  0  0
 15 16  1  0  0  0  0
 17 18  1  0  0  0  0
 17 19  1  0  0  0  0
 20 17  1  0  0  0  0
 20 21  1  0  0  0  0
 22 20  1  0  0  0  0
 23 20  1  0  0  0  0
 23 24  1  0  0  0  0
 24 25  1  0  0  0  0
 26 24  2  0  0  0  0
 26 27  1  0  0  0  0
 28 26  1  0  0  0  0
 29 31  1  0  0  0  0
 29 28  2  0  0  0  0
 30 29  1  0  0  0  0
 31 23  2  0  0  0  0
 32 31  1  0  0  0  0
M  CHG  1   1  -1
M  END
