1,2
 OpenBabel05122313063D

 27 28  0  0  0  0  0  0  0  0999 V2000
    1.6948    0.2610   -1.8556 O   0  5  0  0  0  0  0  0  0  0  0  0
    0.0294    1.7366    0.0852 N   0  0  0  0  0  2  0  0  0  0  0  0
    2.5532    1.1944   -1.5866 C   0  0  0  0  0  0  0  0  0  0  0  0
    3.8240    1.1647   -2.2493 C   0  0  0  0  0  0  0  0  0  0  0  0
    4.8026    2.1162   -2.0044 C   0  0  0  0  0  0  0  0  0  0  0  0
    4.5801    3.1767   -1.0867 C   0  0  0  0  0  0  0  0  0  0  0  0
    3.3606    3.2504   -0.4346 C   0  0  0  0  0  0  0  0  0  0  0  0
    2.3232    2.2889   -0.6487 C   0  0  0  0  0  0  0  0  0  0  0  0
    1.1027    2.5048    0.0669 C   0  0  0  0  0  3  0  0  0  0  0  0
   -1.1387    2.1295    0.7618 C   0  0  0  0  0  0  0  0  0  0  0  0
   -1.9997    1.1418    1.2865 C   0  0  0  0  0  0  0  0  0  0  0  0
   -3.1818    1.4913    1.9460 C   0  0  0  0  0  0  0  0  0  0  0  0
   -3.5683    2.8464    2.1299 C   0  0  0  0  0  0  0  0  0  0  0  0
   -2.6913    3.7602    1.5595 C   0  0  0  0  0  3  0  0  0  0  0  0
   -1.5283    3.5022    0.8809 C   0  0  0  0  0  0  0  0  0  0  0  0
   -4.8170    3.2324    2.8814 C   0  0  0  0  0  0  0  0  0  0  0  0
    3.9865    0.3386   -2.9566 H   0  0  0  0  0  0  0  0  0  0  0  0
    5.7672    2.0475   -2.5319 H   0  0  0  0  0  0  0  0  0  0  0  0
    5.3605    3.9289   -0.9032 H   0  0  0  0  0  0  0  0  0  0  0  0
    3.1628    4.0713    0.2742 H   0  0  0  0  0  0  0  0  0  0  0  0
    1.0770    3.4246    0.6890 H   0  0  0  0  0  0  0  0  0  0  0  0
   -1.7216    0.0826    1.1869 H   0  0  0  0  0  0  0  0  0  0  0  0
   -3.8279    0.6963    2.3559 H   0  0  0  0  0  0  0  0  0  0  0  0
   -0.9348    4.2844    0.3778 H   0  0  0  0  0  0  0  0  0  0  0  0
   -5.5397    3.7422    2.2114 H   0  0  0  0  0  0  0  0  0  0  0  0
   -4.5827    3.9429    3.7001 H   0  0  0  0  0  0  0  0  0  0  0  0
   -5.3159    2.3457    3.3173 H   0  0  0  0  0  0  0  0  0  0  0  0
  1  3  1  0  0  0  0
  2 10  1  0  0  0  0
  3  8  1  0  0  0  0
  4  5  1  0  0  0  0
  4  3  2  0  0  0  0
  5  6  2  0  0  0  0
  6 19  1  0  0  0  0
  6  7  1  0  0  0  0
  7 20  1  0  0  0  0
  8  7  2  0  0  0  0
  8  9  1  0  0  0  0
  9  2  1  0  0  0  0
  9 21  1  0  0  0  0
 10 15  2  0  0  0  0
 10 11  1  0  0  0  0
 11 12  2  0  0  0  0
 12 13  1  0  0  0  0
 12 23  1  0  0  0  0
 13 16  1  0  0  0  0
 14 13  2  0  0  0  0
 15 14  1  0  0  0  0
 16 27  1  0  0  0  0
 16 26  1  0  0  0  0
 17  4  1  0  0  0  0
 18  5  1  0  0  0  0
 22 11  1  0  0  0  0
 24 15  1  0  0  0  0
 25 16  1  0  0  0  0
M  CHG  1   1  -1
M  END
