1,3
 OpenBabel05122313063D

 11 11  0  0  0  0  0  0  0  0999 V2000
   -0.1060   -1.4369    0.9527 O   0  5  0  0  0  0  0  0  0  0  0  0
   -2.0053   -2.4679    1.5671 O   0  0  0  0  0  0  0  0  0  0  0  0
   -1.2357    0.3721   -0.4776 N   0  0  0  0  0  0  0  0  0  0  0  0
   -1.4693   -1.5683    0.9437 C   0  0  0  0  0  0  0  0  0  0  0  0
   -2.0998   -0.5383    0.1066 C   0  0  0  0  0  3  0  0  0  0  0  0
   -3.4094   -0.2710   -0.3258 C   0  0  0  0  0  0  0  0  0  0  0  0
   -3.3220    0.8344   -1.2059 C   0  0  0  0  0  0  0  0  0  0  0  0
   -1.9647    1.2060   -1.2805 C   0  0  0  0  0  0  0  0  0  0  0  0
   -4.3054   -0.8297   -0.0332 H   0  0  0  0  0  0  0  0  0  0  0  0
   -4.1465    1.3230   -1.7386 H   0  0  0  0  0  0  0  0  0  0  0  0
   -1.5134    2.0187   -1.8676 H   0  0  0  0  0  0  0  0  0  0  0  0
  3  5  1  0  0  0  0
  4  1  1  0  0  0  0
  4  2  2  0  0  0  0
  5  4  1  0  0  0  0
  6  9  1  0  0  0  0
  6  5  1  0  0  0  0
  7  6  2  0  0  0  0
  8  7  1  0  0  0  0
  8  3  2  0  0  0  0
 10  7  1  0  0  0  0
 11  8  1  0  0  0  0
M  CHG  1   1  -1
M  END
