1,6
q = -1.0, confidence = 0.006

 23 23  0  0  0  0  0  0  0  0999 V2000
   -2.2056   -0.4089   -0.3981 N   0  0  0  0  0  0  0  0  0  0  0  0
   -2.2511   -1.4163   -0.6014 H   0  0  0  0  0  0  0  0  0  0  0  0
   -8.6188   -0.9764   -0.1625 O   0  0  0  0  0  0  0  0  0  0  0  0
   -8.8666   -1.8832    0.0971 H   0  0  0  0  0  0  0  0  0  0  0  0
   -2.8501    2.7630   -1.7337 O   0  5  0  0  0  0  0  0  0  0  0  0
   -0.8887    2.0074   -0.9074 O   0  0  0  0  0  0  0  0  0  0  0  0
   -7.2927   -0.8034    0.0861 C   0  0  0  0  0  0  0  0  0  0  0  0
   -6.7235    0.4495   -0.2209 C   0  0  0  0  0  0  0  0  0  0  0  0
   -7.3668    1.2315   -0.6490 H   0  0  0  0  0  0  0  0  0  0  0  0
   -5.3654    0.6785    0.0204 C   0  0  0  0  0  0  0  0  0  0  0  0
   -4.9285    1.6575   -0.2361 H   0  0  0  0  0  0  0  0  0  0  0  0
   -4.5400   -0.3291    0.5690 C   0  0  0  0  0  0  0  0  0  0  0  0
   -5.1218   -1.5756    0.8706 C   0  0  0  0  0  0  0  0  0  0  0  0
   -4.5008   -2.3751    1.3066 H   0  0  0  0  0  0  0  0  0  0  0  0
   -6.4816   -1.8170    0.6357 C   0  0  0  0  0  0  0  0  0  0  0  0
   -6.9227   -2.7963    0.8857 H   0  0  0  0  0  0  0  0  0  0  0  0
   -3.0632   -0.0979    0.7787 C   0  0  0  0  0  0  0  0  0  0  0  0
   -2.6744   -0.7187    1.6104 H   0  0  0  0  0  0  0  0  0  0  0  0
   -2.8786    0.9664    1.0384 H   0  0  0  0  0  0  0  0  0  0  0  0
   -2.5139    0.3751   -1.6061 C   0  0  0  0  0  0  0  0  0  0  0  0
   -3.5895    0.3496   -1.8761 H   0  0  0  0  0  0  0  0  0  0  0  0
   -1.9347   -0.0573   -2.4490 H   0  0  0  0  0  0  0  0  0  0  0  0
   -2.0893    1.8531   -1.4207 C   0  0  0  0  0  0  0  0  0  0  0  0
  1 17  1  0  0  0  0
  2  1  1  0  0  0  0
  3  7  1  0  0  0  0
  3  4  1  0  0  0  0
  5 23  1  0  0  0  0
  7 15  1  0  0  0  0
  8 10  1  0  0  0  0
  8  7  2  0  0  0  0
  9  8  1  0  0  0  0
 10 12  2  0  0  0  0
 11 10  1  0  0  0  0
 12 17  1  0  0  0  0
 12 13  1  0  0  0  0
 13 14  1  0  0  0  0
 15 13  2  0  0  0  0
 15 16  1  0  0  0  0
 17 19  1  0  0  0  0
 17 18  1  0  0  0  0
 20 23  1  0  0  0  0
 20  1  1  0  0  0  0
 21 20  1  0  0  0  0
 22 20  1  0  0  0  0
 23  6  2  0  0  0  0
M  CHG  1   5  -1
M  END
