1,2
 OpenBabel05122313063D

 39 40  0  0  1  0  0  0  0  0999 V2000
   -1.8125   -0.3586   -0.3244 O   0  0  0  0  0  1  0  0  0  0  0  0
    0.4747   -1.8622   -0.1157 N   0  0  0  0  0  2  0  0  0  0  0  0
    1.8559   -2.2511   -0.1733 C   0  0  0  0  0  0  0  0  0  0  0  0
   -2.4611   -1.4817   -0.2457 C   0  0  2  0  0  3  0  0  0  0  0  0
   -1.8138   -2.7592   -0.0955 C   0  0  0  0  0  0  0  0  0  0  0  0
   -5.8620   -0.1303   -0.5323 O   0  0  0  0  0  0  0  0  0  0  0  0
   -0.3883   -2.8563   -0.1065 C   0  0  0  0  0  0  0  0  0  0  0  0
    0.0318   -3.8808   -0.1329 H   0  0  0  0  0  0  0  0  0  0  0  0
   -2.5869   -3.9453    0.0085 C   0  0  0  0  0  0  0  0  0  0  0  0
   -2.0509   -4.9033    0.1166 H   0  0  0  0  0  0  0  0  0  0  0  0
   -3.9850   -3.9389   -0.0185 C   0  0  0  0  0  0  0  0  0  0  0  0
    2.5734   -2.0499   -1.3756 C   0  0  0  0  0  0  0  0  0  0  0  0
    2.4691   -2.8205    0.9668 C   0  0  0  0  0  0  0  0  0  0  0  0
   -4.6132   -2.6857   -0.1910 C   0  0  0  0  0  0  0  0  0  0  0  0
   -5.7122   -2.6040   -0.2399 H   0  0  0  0  0  0  0  0  0  0  0  0
    4.5659   -3.0258   -0.3086 C   0  0  0  0  0  0  0  0  0  0  0  0
   -3.9008   -1.4874   -0.3241 C   0  0  0  0  0  0  0  0  0  0  0  0
    1.7150   -2.9551    2.2657 C   0  0  0  0  0  0  0  0  0  0  0  0
    2.4055   -3.1782    3.1008 H   0  0  0  0  0  0  0  0  0  0  0  0
    1.1678   -2.0194    2.5014 H   0  0  0  0  0  0  0  0  0  0  0  0
    0.9565   -3.7656    2.2362 H   0  0  0  0  0  0  0  0  0  0  0  0
    3.9189   -2.4503   -1.4194 C   0  0  0  0  0  0  0  0  0  0  0  0
    4.4893   -2.2829   -2.3472 H   0  0  0  0  0  0  0  0  0  0  0  0
    3.8177   -3.2104    0.8682 C   0  0  0  0  0  0  0  0  0  0  0  0
    4.3100   -3.6359    1.7575 H   0  0  0  0  0  0  0  0  0  0  0  0
   -4.6372   -0.2262   -0.5546 C   0  0  0  0  0  0  0  0  0  0  0  0
   -3.9871    0.6582   -0.7697 H   0  0  0  0  0  0  0  0  0  0  0  0
   -4.7963   -5.2027    0.1177 C   0  0  0  0  0  0  0  0  0  0  0  0
   -4.1488   -6.0979    0.1908 H   0  0  0  0  0  0  0  0  0  0  0  0
   -5.4746   -5.3440   -0.7492 H   0  0  0  0  0  0  0  0  0  0  0  0
   -5.4375   -5.1755    1.0237 H   0  0  0  0  0  0  0  0  0  0  0  0
    1.9104   -1.3886   -2.5536 C   0  0  0  0  0  0  0  0  0  0  0  0
    1.5772   -0.3643   -2.2808 H   0  0  0  0  0  0  0  0  0  0  0  0
    2.6001   -1.3147   -3.4153 H   0  0  0  0  0  0  0  0  0  0  0  0
    1.0017   -1.9362   -2.8786 H   0  0  0  0  0  0  0  0  0  0  0  0
    6.0438   -3.3117   -0.3393 C   0  0  0  0  0  0  0  0  0  0  0  0
    6.3915   -3.5871   -1.3544 H   0  0  0  0  0  0  0  0  0  0  0  0
    6.5905   -2.3938   -0.0318 H   0  0  0  0  0  0  0  0  0  0  0  0
    6.3236   -4.1231    0.3610 H   0  0  0  0  0  0  0  0  0  0  0  0
  2  7  1  0  0  0  0
  3  2  1  0  0  0  0
  3 13  1  0  0  0  0
  4  1  1  6  0  0  0
  4  5  1  0  0  0  0
  5  9  1  0  0  0  0
  7  5  2  0  0  0  0
  8  7  1  0  0  0  0
  9 10  1  0  0  0  0
 11  9  2  0  0  0  0
 11 28  1  0  0  0  0
 12  3  2  0  0  0  0
 13 18  1  0  0  0  0
 14 11  1  0  0  0  0
 15 14  1  0  0  0  0
 16 24  1  0  0  0  0
 17  4  1  0  0  0  0
 17 14  2  0  0  0  0
 18 20  1  0  0  0  0
 18 19  1  0  0  0  0
 21 18  1  0  0  0  0
 22 12  1  0  0  0  0
 22 16  2  0  0  0  0
 23 22  1  0  0  0  0
 24 13  2  0  0  0  0
 24 25  1  0  0  0  0
 26  6  2  0  0  0  0
 26 17  1  0  0  0  0
 27 26  1  0  0  0  0
 28 29  1  0  0  0  0
 28 31  1  0  0  0  0
 30 28  1  0  0  0  0
 32 33  1  0  0  0  0
 32 12  1  0  0  0  0
 34 32  1  0  0  0  0
 35 32  1  0  0  0  0
 36 16  1  0  0  0  0
 36 38  1  0  0  0  0
 36 39  1  0  0  0  0
 37 36  1  0  0  0  0
M  END
