1,2
 OpenBabel05122313063D

 31 33  0  0  0  0  0  0  0  0999 V2000
    0.7823   -0.4991   -1.3703 N   0  0  0  0  0  2  0  0  0  0  0  0
    1.6345   -2.7832    0.2769 O   0  5  0  0  0  0  0  0  0  0  0  0
    2.0245   -0.6170   -1.7876 C   0  0  0  0  0  3  0  0  0  0  0  0
    2.4044    0.1458   -2.5000 H   0  0  0  0  0  0  0  0  0  0  0  0
    2.9702   -1.6280   -1.4174 C   0  0  0  0  0  0  0  0  0  0  0  0
    2.7364   -2.6459   -0.4000 C   0  0  0  0  0  0  0  0  0  0  0  0
    3.8192   -3.5423   -0.1228 C   0  0  0  0  0  0  0  0  0  0  0  0
    3.6365   -4.3052    0.6480 H   0  0  0  0  0  0  0  0  0  0  0  0
    5.0323   -3.4623   -0.7925 C   0  0  0  0  0  0  0  0  0  0  0  0
    5.8323   -4.1792   -0.5482 H   0  0  0  0  0  0  0  0  0  0  0  0
    5.2575   -2.4721   -1.7831 C   0  0  0  0  0  0  0  0  0  0  0  0
    6.2225   -2.4134   -2.3062 H   0  0  0  0  0  0  0  0  0  0  0  0
    4.2389   -1.5788   -2.0744 C   0  0  0  0  0  0  0  0  0  0  0  0
    4.3928   -0.7960   -2.8353 H   0  0  0  0  0  0  0  0  0  0  0  0
   -1.3697    0.5501   -1.6117 C   0  0  0  0  0  0  0  0  0  0  0  0
   -1.8288   -0.4461   -1.5111 H   0  0  0  0  0  0  0  0  0  0  0  0
    0.0221    0.6622   -1.6148 C   0  0  0  0  0  0  0  0  0  0  0  0
    0.6218    1.9559   -1.7294 C   0  0  0  0  0  0  0  0  0  0  0  0
    1.7147    2.0568   -1.6642 H   0  0  0  0  0  0  0  0  0  0  0  0
   -0.1694    3.0854   -1.8350 C   0  0  0  0  0  0  0  0  0  0  0  0
    0.3010    4.0794   -1.8921 H   0  0  0  0  0  0  0  0  0  0  0  0
   -1.5933    2.9994   -1.8208 C   0  0  0  0  0  0  0  0  0  0  0  0
   -2.2026    1.6953   -1.7060 C   0  0  0  0  0  0  0  0  0  0  0  0
   -3.6260    1.5993   -1.6575 C   0  0  0  0  0  0  0  0  0  0  0  0
   -4.0847    0.6029   -1.5602 H   0  0  0  0  0  0  0  0  0  0  0  0
   -4.4138    2.7390   -1.7198 C   0  0  0  0  0  0  0  0  0  0  0  0
   -5.5101    2.6522   -1.6780 H   0  0  0  0  0  0  0  0  0  0  0  0
   -3.8139    4.0230   -1.8366 C   0  0  0  0  0  0  0  0  0  0  0  0
   -4.4507    4.9191   -1.8876 H   0  0  0  0  0  0  0  0  0  0  0  0
   -2.4324    4.1483   -1.8853 C   0  0  0  0  0  0  0  0  0  0  0  0
   -1.9642    5.1415   -1.9724 H   0  0  0  0  0  0  0  0  0  0  0  0
  3  5  1  0  0  0  0
  3  1  1  0  0  0  0
  4  3  1  0  0  0  0
  5  6  1  0  0  0  0
  6  7  2  0  0  0  0
  6  2  1  0  0  0  0
  7  8  1  0  0  0  0
  9 10  1  0  0  0  0
  9  7  1  0  0  0  0
 11  9  2  0  0  0  0
 12 11  1  0  0  0  0
 13 11  1  0  0  0  0
 13  5  2  0  0  0  0
 14 13  1  0  0  0  0
 15 16  1  0  0  0  0
 17 15  1  0  0  0  0
 17  1  1  0  0  0  0
 18 19  1  0  0  0  0
 18 17  2  0  0  0  0
 20 22  2  0  0  0  0
 20 18  1  0  0  0  0
 21 20  1  0  0  0  0
 22 23  1  0  0  0  0
 23 24  1  0  0  0  0
 23 15  2  0  0  0  0
 24 25  1  0  0  0  0
 26 27  1  0  0  0  0
 26 24  2  0  0  0  0
 28 26  1  0  0  0  0
 29 28  1  0  0  0  0
 30 28  2  0  0  0  0
 30 22  1  0  0  0  0
 31 30  1  0  0  0  0
M  CHG  1   2  -1
M  END
