2,3
 OpenBabel05122313063D

 40 41  0  0  0  0  0  0  0  0999 V2000
   -2.7114   -1.0503   -1.3614 S   0  0  0  0  0  1  0  0  0  0  0  0
    0.9638   -0.4969   -0.2979 O   0  5  0  0  0  0  0  0  0  0  0  0
   -1.1818    1.0584   -0.1240 N   0  0  0  0  0  2  0  0  0  0  0  0
   -3.4046    0.4679   -0.8194 C   0  0  0  0  0  0  0  0  0  0  0  0
   -4.7742    0.7784   -0.9738 C   0  0  0  0  0  0  0  0  0  0  0  0
   -5.4328    0.0389   -1.4530 H   0  0  0  0  0  0  0  0  0  0  0  0
   -5.2824    1.9977   -0.5127 C   0  0  0  0  0  0  0  0  0  0  0  0
   -6.3536    2.2211   -0.6299 H   0  0  0  0  0  0  0  0  0  0  0  0
   -4.4358    2.9260    0.1244 C   0  0  0  0  0  0  0  0  0  0  0  0
   -4.8437    3.8667    0.5226 H   0  0  0  0  0  0  0  0  0  0  0  0
   -3.0739    2.6409    0.2741 C   0  0  0  0  0  0  0  0  0  0  0  0
   -2.4229    3.3551    0.8005 H   0  0  0  0  0  0  0  0  0  0  0  0
   -2.5453    1.4252   -0.2118 C   0  0  0  0  0  0  0  0  0  0  0  0
   -0.2648    2.0020   -0.1025 C   0  0  0  0  0  3  0  0  0  0  0  0
   -0.6110    3.0524   -0.1763 H   0  0  0  0  0  0  0  0  0  0  0  0
    1.1579    1.8379   -0.0322 C   0  0  0  0  0  0  0  0  0  0  0  0
    1.9848    2.9876    0.0839 C   0  0  0  0  0  0  0  0  0  0  0  0
    1.5087    3.9780    0.1696 H   0  0  0  0  0  0  0  0  0  0  0  0
    3.3709    2.8724    0.0943 C   0  0  0  0  0  0  0  0  0  0  0  0
    3.9325    1.5734   -0.0450 C   0  0  0  0  0  0  0  0  0  0  0  0
    5.0293    1.4988   -0.0514 H   0  0  0  0  0  0  0  0  0  0  0  0
    3.1808    0.4010   -0.1836 C   0  0  0  0  0  0  0  0  0  0  0  0
    1.7544    0.5427   -0.1596 C   0  0  0  0  0  0  0  0  0  0  0  0
    4.2731    4.0718    0.2356 C   0  0  0  0  0  0  0  0  0  0  0  0
    3.6944    5.0130    0.3051 H   0  0  0  0  0  0  0  0  0  0  0  0
    4.9643    4.1613   -0.6285 H   0  0  0  0  0  0  0  0  0  0  0  0
    4.9067    3.9961    1.1444 H   0  0  0  0  0  0  0  0  0  0  0  0
    3.8294   -0.9816   -0.3721 C   0  0  0  0  0  0  0  0  0  0  0  0
    5.3656   -0.8888   -0.3792 C   0  0  0  0  0  0  0  0  0  0  0  0
    5.7654   -0.4899    0.5755 H   0  0  0  0  0  0  0  0  0  0  0  0
    5.7406   -0.2530   -1.2068 H   0  0  0  0  0  0  0  0  0  0  0  0
    5.7927   -1.9015   -0.5202 H   0  0  0  0  0  0  0  0  0  0  0  0
    3.4108   -1.9210    0.7839 C   0  0  0  0  0  0  0  0  0  0  0  0
    3.9208   -2.9002    0.6764 H   0  0  0  0  0  0  0  0  0  0  0  0
    2.3218   -2.1038    0.7713 H   0  0  0  0  0  0  0  0  0  0  0  0
    3.6944   -1.4939    1.7679 H   0  0  0  0  0  0  0  0  0  0  0  0
    3.3737   -1.5877   -1.7219 C   0  0  0  0  0  0  0  0  0  0  0  0
    3.6499   -0.9224   -2.5651 H   0  0  0  0  0  0  0  0  0  0  0  0
    2.2811   -1.7598   -1.7488 H   0  0  0  0  0  0  0  0  0  0  0  0
    3.8748   -2.5649   -1.8802 H   0  0  0  0  0  0  0  0  0  0  0  0
  1  4  1  0  0  0  0
  2 23  1  0  0  0  0
  3 14  1  0  0  0  0
  4 13  1  0  0  0  0
  5  4  2  0  0  0  0
  5  7  1  0  0  0  0
  6  5  1  0  0  0  0
  7  9  2  0  0  0  0
  8  7  1  0  0  0  0
  9 11  1  0  0  0  0
  9 10  1  0  0  0  0
 11 12  1  0  0  0  0
 13  3  1  0  0  0  0
 13 11  2  0  0  0  0
 14 16  1  0  0  0  0
 15 14  1  0  0  0  0
 16 17  1  0  0  0  0
 17 19  2  0  0  0  0
 17 18  1  0  0  0  0
 19 24  1  0  0  0  0
 20 19  1  0  0  0  0
 21 20  1  0  0  0  0
 22 23  1  0  0  0  0
 22 20  2  0  0  0  0
 23 16  2  0  0  0  0
 24 25  1  0  0  0  0
 24 27  1  0  0  0  0
 26 24  1  0  0  0  0
 28 22  1  0  0  0  0
 28 33  1  0  0  0  0
 29 28  1  0  0  0  0
 29 30  1  0  0  0  0
 31 29  1  0  0  0  0
 32 29  1  0  0  0  0
 33 36  1  0  0  0  0
 34 33  1  0  0  0  0
 35 33  1  0  0  0  0
 37 28  1  0  0  0  0
 38 37  1  0  0  0  0
 39 37  1  0  0  0  0
 40 37  1  0  0  0  0
M  CHG  1   2  -1
M  END
