5,6
 OpenBabel05122313063D

 53 55  0  0  1  0  0  0  0  0999 V2000
    2.6677   -0.1740   -0.0628 Si  0  0  0  0  0  0  0  0  0  0  0  0
    4.5810    0.5933   -1.2367 Si  0  0  0  0  0  0  0  0  0  0  0  0
    2.6649    0.5637    2.1789 Si  0  0  0  0  0  0  0  0  0  0  0  0
    2.6943   -2.5436   -0.1728 Si  0  0  0  0  0  0  0  0  0  0  0  0
   -0.0350   -0.5997   -0.4362 O   0  0  0  0  0  0  0  0  0  0  0  0
   -0.6392    1.8225    0.0492 N   0  0  0  0  0  2  0  0  0  0  0  0
   -1.0557    3.0619    0.4086 C   0  0  0  0  0  3  0  0  0  0  0  0
   -0.3767    4.2207    0.0356 C   0  0  0  0  0  0  0  0  0  0  0  0
    0.7890    4.0953   -0.7443 C   0  0  0  0  0  0  0  0  0  0  0  0
    1.2398    2.8206   -1.0839 C   0  0  0  0  0  0  0  0  0  0  0  0
    0.5130    1.6905   -0.6599 C   0  0  0  0  0  0  0  0  0  0  0  0
    0.9299    0.2757   -0.9203 C   0  0  1  0  0  0  0  0  0  0  0  0
    4.6893    2.4607   -1.6143 C   0  0  0  0  0  0  0  0  0  0  0  0
    6.0954    0.1954   -0.1569 C   0  0  0  0  0  0  0  0  0  0  0  0
    4.7214   -0.3228   -2.8988 C   0  0  0  0  0  0  0  0  0  0  0  0
    3.0199    2.4300    2.2774 C   0  0  0  0  0  0  0  0  0  0  0  0
    1.0035    0.1961    3.0092 C   0  0  0  0  0  0  0  0  0  0  0  0
    4.0394   -0.3792    3.0944 C   0  0  0  0  0  0  0  0  0  0  0  0
    4.4806   -3.1911   -0.0418 C   0  0  0  0  0  0  0  0  0  0  0  0
    1.6975   -3.3170    1.2353 C   0  0  0  0  0  0  0  0  0  0  0  0
    1.9616   -3.0619   -1.8464 C   0  0  0  0  0  0  0  0  0  0  0  0
   -1.9635    3.0881    1.0295 H   0  0  0  0  0  0  0  0  0  0  0  0
   -0.7562    5.2024    0.3513 H   0  0  0  0  0  0  0  0  0  0  0  0
    1.3469    4.9865   -1.0694 H   0  0  0  0  0  0  0  0  0  0  0  0
    2.1615    2.6786   -1.6606 H   0  0  0  0  0  0  0  0  0  0  0  0
    1.1011    0.1359   -2.0185 H   0  0  0  0  0  0  0  0  0  0  0  0
    4.0367    2.7633   -2.4588 H   0  0  0  0  0  0  0  0  0  0  0  0
    5.7329    2.6974   -1.9119 H   0  0  0  0  0  0  0  0  0  0  0  0
    4.4375    3.0850   -0.7335 H   0  0  0  0  0  0  0  0  0  0  0  0
    6.1117   -0.8606    0.1745 H   0  0  0  0  0  0  0  0  0  0  0  0
    6.1096    0.8388    0.7465 H   0  0  0  0  0  0  0  0  0  0  0  0
    7.0272    0.3931   -0.7280 H   0  0  0  0  0  0  0  0  0  0  0  0
    4.7849   -1.4199   -2.7542 H   0  0  0  0  0  0  0  0  0  0  0  0
    5.6287    0.0040   -3.4494 H   0  0  0  0  0  0  0  0  0  0  0  0
    3.8414   -0.1194   -3.5435 H   0  0  0  0  0  0  0  0  0  0  0  0
    2.2392    3.0124    1.7473 H   0  0  0  0  0  0  0  0  0  0  0  0
    4.0009    2.6800    1.8234 H   0  0  0  0  0  0  0  0  0  0  0  0
    3.0374    2.7664    3.3357 H   0  0  0  0  0  0  0  0  0  0  0  0
    0.6925   -0.8578    2.8671 H   0  0  0  0  0  0  0  0  0  0  0  0
    0.1913    0.8403    2.6165 H   0  0  0  0  0  0  0  0  0  0  0  0
    1.0735    0.3886    4.1008 H   0  0  0  0  0  0  0  0  0  0  0  0
    3.8499   -1.4719    3.0739 H   0  0  0  0  0  0  0  0  0  0  0  0
    4.0772   -0.0620    4.1580 H   0  0  0  0  0  0  0  0  0  0  0  0
    5.0370   -0.1983    2.6468 H   0  0  0  0  0  0  0  0  0  0  0  0
    5.1258   -2.8363   -0.8702 H   0  0  0  0  0  0  0  0  0  0  0  0
    4.4719   -4.3014   -0.0714 H   0  0  0  0  0  0  0  0  0  0  0  0
    4.9500   -2.8853    0.9157 H   0  0  0  0  0  0  0  0  0  0  0  0
    2.1154   -3.0406    2.2248 H   0  0  0  0  0  0  0  0  0  0  0  0
    1.7295   -4.4243    1.1530 H   0  0  0  0  0  0  0  0  0  0  0  0
    0.6370   -2.9963    1.2068 H   0  0  0  0  0  0  0  0  0  0  0  0
    2.5389   -2.6442   -2.6961 H   0  0  0  0  0  0  0  0  0  0  0  0
    0.9169   -2.6997   -1.9187 H   0  0  0  0  0  0  0  0  0  0  0  0
    1.9561   -4.1679   -1.9441 H   0  0  0  0  0  0  0  0  0  0  0  0
  1  3  1  0  0  0  0
  1  5  1  0  0  0  0
  1 11  1  0  0  0  0
  2 14  1  0  0  0  0
  2  1  1  0  0  0  0
  3 16  1  0  0  0  0
  3 17  1  0  0  0  0
  3 18  1  0  0  0  0
  4  1  1  0  0  0  0
  4 19  1  0  0  0  0
  4 20  1  0  0  0  0
  6  7  1  0  0  0  0
  7 22  1  0  0  0  0
  8 23  1  0  0  0  0
  8  7  1  0  0  0  0
  9  8  2  0  0  0  0
 10  9  1  0  0  0  0
 10 11  2  0  0  0  0
 11  6  1  0  0  0  0
 12 26  1  6  0  0  0
 12 11  1  0  0  0  0
 12  5  1  0  0  0  0
 12  1  1  0  0  0  0
 13  2  1  0  0  0  0
 13 29  1  0  0  0  0
 14 30  1  0  0  0  0
 14 31  1  0  0  0  0
 15 33  1  0  0  0  0
 15  2  1  0  0  0  0
 16 38  1  0  0  0  0
 17 41  1  0  0  0  0
 18 43  1  0  0  0  0
 19 47  1  0  0  0  0
 20 48  1  0  0  0  0
 21  4  1  0  0  0  0
 24  9  1  0  0  0  0
 25 10  1  0  0  0  0
 27 13  1  0  0  0  0
 28 13  1  0  0  0  0
 32 14  1  0  0  0  0
 34 15  1  0  0  0  0
 35 15  1  0  0  0  0
 36 16  1  0  0  0  0
 37 16  1  0  0  0  0
 39 17  1  0  0  0  0
 40 17  1  0  0  0  0
 42 18  1  0  0  0  0
 44 18  1  0  0  0  0
 45 19  1  0  0  0  0
 46 19  1  0  0  0  0
 49 20  1  0  0  0  0
 50 20  1  0  0  0  0
 51 21  1  0  0  0  0
 52 21  1  0  0  0  0
 53 21  1  0  0  0  0
M  HYD  3   5   0   6   0   7   0
M  ZBO  2   2   0   3   0
M  END
