28,31
 OpenBabel05122313063D

 31 32  0  0  1  0  0  0  0  0999 V2000
   -2.4889    2.5002    1.6472 C   0  0  0  0  0  0  0  0  0  0  0  0
   -2.7574    3.1263    0.7772 H   0  0  0  0  0  0  0  0  0  0  0  0
   -3.3901    2.3130    2.7106 C   0  0  0  0  0  0  0  0  0  0  0  0
   -4.3923    2.7761    2.6956 H   0  0  0  0  0  0  0  0  0  0  0  0
   -1.8466    1.0190    3.7830 C   0  0  0  0  0  0  0  0  0  0  0  0
   -1.5843    0.4035    4.6604 H   0  0  0  0  0  0  0  0  0  0  0  0
   -0.9376    1.1697    2.7033 C   0  0  0  0  0  0  0  0  0  0  0  0
    0.3560    0.4759    2.6718 C   0  0  1  0  0  3  0  0  0  0  0  0
    1.0363   -0.0070    3.9181 C   0  0  0  0  0  0  0  0  0  0  0  0
    1.0413   -1.1170    3.9565 H   0  0  0  0  0  0  0  0  0  0  0  0
    0.5652    0.3895    4.8344 H   0  0  0  0  0  0  0  0  0  0  0  0
    2.1030    0.2935    3.8948 H   0  0  0  0  0  0  0  0  0  0  0  0
    2.4066   -0.8078    0.1874 C   0  0  0  0  0  0  0  0  0  0  0  0
    3.6994   -1.5333    0.0608 C   0  0  0  0  0  0  0  0  0  0  0  0
    4.5060   -1.8512    1.1698 C   0  0  0  0  0  0  0  0  0  0  0  0
    4.1724   -1.5601    2.1762 H   0  0  0  0  0  0  0  0  0  0  0  0
    5.7083   -2.5311    0.9572 C   0  0  0  0  0  0  0  0  0  0  0  0
    6.3603   -2.7952    1.8037 H   0  0  0  0  0  0  0  0  0  0  0  0
    6.0822   -2.8821   -0.3587 C   0  0  0  0  0  0  0  0  0  0  0  0
    4.1605   -1.9283   -1.2140 C   0  0  0  0  0  0  0  0  0  0  0  0
    3.5412   -1.6898   -2.0960 H   0  0  0  0  0  0  0  0  0  0  0  0
    7.3633   -3.6174   -0.6501 C   0  0  0  0  0  0  0  0  0  0  0  0
    7.9869   -3.0302   -1.3549 H   0  0  0  0  0  0  0  0  0  0  0  0
    7.1425   -4.5792   -1.1568 H   0  0  0  0  0  0  0  0  0  0  0  0
    7.9494   -3.8208    0.2658 H   0  0  0  0  0  0  0  0  0  0  0  0
   -1.2729    1.9465    1.6432 N   0  0  0  0  0  0  0  0  0  0  0  0
   -3.0613    1.5802    3.7865 N   0  0  0  0  0  0  0  0  0  0  0  0
    0.8982    0.2190    1.4917 N   0  0  0  0  0  2  0  0  0  0  0  0
    2.0701   -0.4280    1.4506 N   0  0  0  0  0  0  0  0  0  0  0  0
    5.3096   -2.5786   -1.4244 N   0  0  0  0  0  0  0  0  0  0  0  0
    1.7052   -0.5810   -0.8422 O   0  5  0  0  0  0  0  0  0  0  0  0
  1  3  1  0  0  0  0
  2  1  1  0  0  0  0
  3 27  2  0  0  0  0
  4  3  1  0  0  0  0
  5 27  1  0  0  0  0
  5  6  1  0  0  0  0
  7  5  2  0  0  0  0
  8 28  1  6  0  0  0
  8  7  1  0  0  0  0
  8  9  1  0  0  0  0
  9 10  1  0  0  0  0
  9 11  1  0  0  0  0
 12  9  1  0  0  0  0
 13 29  2  0  0  0  0
 14 13  1  0  0  0  0
 14 15  1  0  0  0  0
 15 16  1  0  0  0  0
 17 15  2  0  0  0  0
 17 18  1  0  0  0  0
 19 17  1  0  0  0  0
 20 14  2  0  0  0  0
 21 20  1  0  0  0  0
 22 19  1  0  0  0  0
 22 25  1  0  0  0  0
 23 22  1  0  0  0  0
 24 22  1  0  0  0  0
 26  1  2  0  0  0  0
 26  7  1  0  0  0  0
 29 28  1  0  0  0  0
 30 20  1  0  0  0  0
 30 19  2  0  0  0  0
 31 13  1  0  0  0  0
M  CHG  1  31  -1
M  END
