2,3
 OpenBabel05122313063D

 15 15  0  0  1  0  0  0  0  0999 V2000
   -7.0460   -0.8570    1.5104 Cl  0  0  0  0  0  0  0  0  0  0  0  0
   -0.7002   -1.4690    0.8605 N   0  0  0  0  0  2  0  0  0  0  0  0
   -1.6473    0.8448   -0.1844 O   0  0  0  0  0  1  0  0  0  0  0  0
   -3.0369   -0.8435    0.8941 C   0  0  0  0  0  0  0  0  0  0  0  0
   -2.8132    0.4119    0.2152 C   0  0  1  0  0  3  0  0  0  0  0  0
   -3.9584    1.2315   -0.0317 C   0  0  0  0  0  0  0  0  0  0  0  0
   -3.7928    2.1879   -0.5481 H   0  0  0  0  0  0  0  0  0  0  0  0
   -5.2331    0.8451    0.3606 C   0  0  0  0  0  0  0  0  0  0  0  0
   -6.0988    1.4926    0.1596 H   0  0  0  0  0  0  0  0  0  0  0  0
   -5.4329   -0.3902    1.0254 C   0  0  0  0  0  0  0  0  0  0  0  0
   -4.3508   -1.2199    1.2871 C   0  0  0  0  0  0  0  0  0  0  0  0
   -4.5073   -2.1787    1.8034 H   0  0  0  0  0  0  0  0  0  0  0  0
   -1.9416   -1.7240    1.1800 C   0  0  0  0  0  0  0  0  0  0  0  0
   -2.1744   -2.6722    1.7023 H   0  0  0  0  0  0  0  0  0  0  0  0
    0.0034   -2.1755    1.1165 H   0  0  0  0  0  0  0  0  0  0  0  0
  2 15  1  0  0  0  0
  2 13  1  0  0  0  0
  4 13  2  0  0  0  0
  4 11  1  0  0  0  0
  5  3  1  1  0  0  0
  5  4  1  0  0  0  0
  6  5  1  0  0  0  0
  6  8  2  0  0  0  0
  7  6  1  0  0  0  0
  8 10  1  0  0  0  0
  9  8  1  0  0  0  0
 10 11  2  0  0  0  0
 10  1  1  0  0  0  0
 11 12  1  0  0  0  0
 13 14  1  0  0  0  0
M  END
