1,6
 OpenBabel05122313063D

 25 26  0  0  1  0  0  0  0  0999 V2000
    1.6566   -0.7848   -1.4832 O   0  5  0  0  0  0  0  0  0  0  0  0
    2.4960   -2.7311   -2.2775 O   0  0  0  0  0  0  0  0  0  0  0  0
   -0.5599    1.7612    2.0822 O   0  0  0  0  0  0  0  0  0  0  0  0
   -0.1889    2.5126    2.5932 H   0  0  0  0  0  0  0  0  0  0  0  0
   -2.4236    2.6319    3.0246 O   0  0  0  0  0  0  0  0  0  0  0  0
   -0.6336   -1.7643   -0.9277 N   0  0  0  0  0  2  0  0  0  0  0  0
   -1.9569   -0.2443    0.9545 N   0  0  0  0  0  0  0  0  0  0  0  0
    1.5905   -2.0538   -1.8003 C   0  0  0  0  0  0  0  0  0  0  0  0
    0.2382   -2.6502   -1.4645 C   0  0  1  0  0  3  0  0  0  0  0  0
   -0.0803   -3.9995   -1.6288 C   0  0  0  0  0  0  0  0  0  0  0  0
    0.6813   -4.6537   -2.0774 H   0  0  0  0  0  0  0  0  0  0  0  0
   -1.3392   -4.4441   -1.2022 C   0  0  0  0  0  0  0  0  0  0  0  0
   -1.6332   -5.4983   -1.3148 H   0  0  0  0  0  0  0  0  0  0  0  0
   -2.2102   -3.5313   -0.5896 C   0  0  0  0  0  0  0  0  0  0  0  0
   -3.1773   -3.8633   -0.1870 H   0  0  0  0  0  0  0  0  0  0  0  0
   -1.8312   -2.1836   -0.4411 C   0  0  0  0  0  0  0  0  0  0  0  0
   -2.6516   -1.1885    0.2913 C   0  0  0  0  0  0  0  0  0  0  0  0
   -4.0610   -1.2324    0.2851 C   0  0  0  0  0  0  0  0  0  0  0  0
   -4.5938   -2.0032   -0.2900 H   0  0  0  0  0  0  0  0  0  0  0  0
   -4.7678   -0.2468    0.9852 C   0  0  0  0  0  0  0  0  0  0  0  0
   -5.8677   -0.2433    0.9860 H   0  0  0  0  0  0  0  0  0  0  0  0
   -4.0495    0.7462    1.6600 C   0  0  0  0  0  0  0  0  0  0  0  0
   -4.5371    1.5559    2.2202 H   0  0  0  0  0  0  0  0  0  0  0  0
   -2.6424    0.7028    1.6087 C   0  0  0  0  0  0  0  0  0  0  0  0
   -1.8864    1.7928    2.3198 C   0  0  0  0  0  0  0  0  0  0  0  0
  2  8  2  0  0  0  0
  3 25  1  0  0  0  0
  3  4  1  0  0  0  0
  6 16  1  0  0  0  0
  7 24  1  0  0  0  0
  8  1  1  0  0  0  0
  9  8  1  1  0  0  0
  9  6  1  0  0  0  0
 10  9  1  0  0  0  0
 10 12  2  0  0  0  0
 11 10  1  0  0  0  0
 12 14  1  0  0  0  0
 13 12  1  0  0  0  0
 14 16  2  0  0  0  0
 14 15  1  0  0  0  0
 16 17  1  0  0  0  0
 17  7  2  0  0  0  0
 18 17  1  0  0  0  0
 18 20  2  0  0  0  0
 19 18  1  0  0  0  0
 20 21  1  0  0  0  0
 20 22  1  0  0  0  0
 22 23  1  0  0  0  0
 24 22  2  0  0  0  0
 24 25  1  0  0  0  0
 25  5  2  0  0  0  0
M  CHG  1   1  -1
M  END
