4,8
 OpenBabel05122313063D

 28 28  0  0  1  0  0  0  0  0999 V2000
    1.8775   -0.0095   -1.2569 S   0  0  0  0  0  0  0  0  0  0  0  0
    1.2556    1.3036   -1.5779 O   0  0  0  0  0  0  0  0  0  0  0  0
    1.9747   -1.0347   -2.3272 O   0  0  0  0  0  0  0  0  0  0  0  0
   -0.5739   -2.6179    0.0026 O   0  5  0  0  0  0  0  0  0  0  0  0
    0.8507   -4.1726    0.7492 O   0  0  0  0  0  0  0  0  0  0  0  0
    1.2828   -1.0787    2.8153 O   0  0  0  0  0  0  0  0  0  0  0  0
    1.0294   -0.3141    2.2520 H   0  0  0  0  0  0  0  0  0  0  0  0
    1.1556   -0.5774    0.1507 N   0  0  0  0  0  2  0  0  0  0  0  0
    7.6242    1.2002    0.5020 C   0  0  0  0  0  0  0  0  0  0  0  0
    8.3665    0.7905   -0.2094 H   0  0  0  0  0  0  0  0  0  0  0  0
    7.8406    0.7721    1.5032 H   0  0  0  0  0  0  0  0  0  0  0  0
    7.7923    2.2946    0.5791 H   0  0  0  0  0  0  0  0  0  0  0  0
    6.2123    0.8933    0.0731 C   0  0  0  0  0  0  0  0  0  0  0  0
    5.9459    0.1271   -1.0785 C   0  0  0  0  0  0  0  0  0  0  0  0
    6.7867   -0.2529   -1.6800 H   0  0  0  0  0  0  0  0  0  0  0  0
    5.1161    1.3636    0.8319 C   0  0  0  0  0  0  0  0  0  0  0  0
    5.3031    1.9559    1.7418 H   0  0  0  0  0  0  0  0  0  0  0  0
    4.6309   -0.1665   -1.4700 C   0  0  0  0  0  0  0  0  0  0  0  0
    4.4115   -0.7720   -2.3614 H   0  0  0  0  0  0  0  0  0  0  0  0
    3.7998    1.0823    0.4533 C   0  0  0  0  0  0  0  0  0  0  0  0
    2.9526    1.4288    1.0635 H   0  0  0  0  0  0  0  0  0  0  0  0
    3.5656    0.3152   -0.7001 C   0  0  0  0  0  0  0  0  0  0  0  0
    1.6794   -1.9056    0.5626 C   0  0  2  0  0  0  0  0  0  0  0  0
    2.5116   -2.2334   -0.0974 H   0  0  0  0  0  0  0  0  0  0  0  0
    0.6144   -3.0144    0.4473 C   0  0  0  0  0  0  0  0  0  0  0  0
    2.2017   -1.7839    2.0069 C   0  0  0  0  0  0  0  0  0  0  0  0
    2.3316   -2.8048    2.4216 H   0  0  0  0  0  0  0  0  0  0  0  0
    3.2019   -1.2848    1.9839 H   0  0  0  0  0  0  0  0  0  0  0  0
  1 22  1  0  0  0  0
  1  8  1  0  0  0  0
  2  1  2  0  0  0  0
  3  1  2  0  0  0  0
  4 25  1  0  0  0  0
  7  6  1  0  0  0  0
  8 23  1  0  0  0  0
  9 12  1  0  0  0  0
  9 11  1  0  0  0  0
 10  9  1  0  0  0  0
 13  9  1  0  0  0  0
 13 16  1  0  0  0  0
 14 13  2  0  0  0  0
 15 14  1  0  0  0  0
 16 17  1  0  0  0  0
 18 14  1  0  0  0  0
 18 22  2  0  0  0  0
 19 18  1  0  0  0  0
 20 16  2  0  0  0  0
 20 21  1  0  0  0  0
 22 20  1  0  0  0  0
 23 24  1  6  0  0  0
 23 26  1  0  0  0  0
 25 23  1  0  0  0  0
 25  5  2  0  0  0  0
 26 27  1  0  0  0  0
 26  6  1  0  0  0  0
 28 26  1  0  0  0  0
M  CHG  1   4  -1
M  END
