1,2
 OpenBabel05122313063D

 31 33  0  0  1  0  0  0  0  0999 V2000
   -0.8506   -0.9594   -2.2051 O   0  5  0  0  0  0  0  0  0  0  0  0
    1.4917   -0.7982   -0.6591 N   0  0  0  0  0  2  0  0  0  0  0  0
    2.8172    0.9363   -1.1533 N   0  0  0  0  0  0  0  0  0  0  0  0
   -0.7953    0.3338   -2.2013 C   0  0  0  0  0  0  0  0  0  0  0  0
   -1.9102    1.0837   -2.7097 C   0  0  0  0  0  0  0  0  0  0  0  0
   -2.7451    0.4892   -3.1090 H   0  0  0  0  0  0  0  0  0  0  0  0
   -1.9660    2.4709   -2.6593 C   0  0  0  0  0  0  0  0  0  0  0  0
   -2.8604    2.9927   -3.0364 H   0  0  0  0  0  0  0  0  0  0  0  0
   -0.8972    3.2158   -2.1078 C   0  0  0  0  0  0  0  0  0  0  0  0
   -0.9497    4.3124   -2.0409 H   0  0  0  0  0  0  0  0  0  0  0  0
    0.2284    2.5359   -1.6453 C   0  0  0  0  0  0  0  0  0  0  0  0
    1.0347    3.1140   -1.1748 H   0  0  0  0  0  0  0  0  0  0  0  0
    0.3318    1.1191   -1.6936 C   0  0  0  0  0  0  0  0  0  0  0  0
    1.5151    0.4375   -1.1942 C   0  0  2  0  0  3  0  0  0  0  0  0
    2.7649   -1.1165   -0.2434 C   0  0  0  0  0  0  0  0  0  0  0  0
    3.2514   -2.2779    0.3842 C   0  0  0  0  0  0  0  0  0  0  0  0
    2.5772   -3.1360    0.5408 H   0  0  0  0  0  0  0  0  0  0  0  0
    4.6113   -2.2953    0.7283 C   0  0  0  0  0  0  0  0  0  0  0  0
    5.0341   -3.1861    1.2168 H   0  0  0  0  0  0  0  0  0  0  0  0
    5.4606   -1.2015    0.4362 C   0  0  0  0  0  0  0  0  0  0  0  0
    6.5242   -1.2581    0.7119 H   0  0  0  0  0  0  0  0  0  0  0  0
    4.9840   -0.0478   -0.2089 C   0  0  0  0  0  0  0  0  0  0  0  0
    5.6569    0.7907   -0.4385 H   0  0  0  0  0  0  0  0  0  0  0  0
    3.6196   -0.0201   -0.5343 C   0  0  0  0  0  0  0  0  0  0  0  0
    3.3592    2.1309   -1.7941 C   0  0  0  0  0  0  0  0  0  0  0  0
    2.6227    2.4683   -2.5476 H   0  0  0  0  0  0  0  0  0  0  0  0
    4.2670    1.8161   -2.3516 H   0  0  0  0  0  0  0  0  0  0  0  0
    3.7066    3.2521   -0.8158 C   0  0  0  0  0  0  0  0  0  0  0  0
    2.8119    3.5967   -0.2614 H   0  0  0  0  0  0  0  0  0  0  0  0
    4.1344    4.1150   -1.3636 H   0  0  0  0  0  0  0  0  0  0  0  0
    4.4492    2.9175   -0.0650 H   0  0  0  0  0  0  0  0  0  0  0  0
  1  4  1  0  0  0  0
  2 15  1  0  0  0  0
  3 24  1  0  0  0  0
  4 13  1  0  0  0  0
  5  7  1  0  0  0  0
  5  4  2  0  0  0  0
  6  5  1  0  0  0  0
  7  9  2  0  0  0  0
  8  7  1  0  0  0  0
  9 10  1  0  0  0  0
  9 11  1  0  0  0  0
 11 12  1  0  0  0  0
 13 11  2  0  0  0  0
 14 13  1  1  0  0  0
 14  3  1  0  0  0  0
 14  2  1  0  0  0  0
 15 16  1  0  0  0  0
 16 17  1  0  0  0  0
 16 18  2  0  0  0  0
 18 19  1  0  0  0  0
 20 21  1  0  0  0  0
 20 18  1  0  0  0  0
 22 20  2  0  0  0  0
 23 22  1  0  0  0  0
 24 15  2  0  0  0  0
 24 22  1  0  0  0  0
 25  3  1  0  0  0  0
 25 28  1  0  0  0  0
 26 25  1  0  0  0  0
 27 25  1  0  0  0  0
 28 29  1  0  0  0  0
 28 31  1  0  0  0  0
 30 28  1  0  0  0  0
M  CHG  1   1  -1
M  END
