1,5
 OpenBabel05122313063D

 27 29  0  0  1  0  0  0  0  0999 V2000
   -1.3479   -0.6200   -1.8487 O   0  5  0  0  0  0  0  0  0  0  0  0
   -5.7738   -2.1665   -2.6947 N   0  0  0  0  0  0  0  0  0  0  0  0
   -5.3656   -2.9592   -3.1890 H   0  0  0  0  0  0  0  0  0  0  0  0
   -6.6892   -2.3492   -2.2855 H   0  0  0  0  0  0  0  0  0  0  0  0
   -1.0012    1.4911    0.0887 N   0  0  0  0  0  2  0  0  0  0  0  0
   -2.8590    2.4868    0.8022 N   0  0  0  0  0  0  0  0  0  0  0  0
   -3.8487    2.7088    0.8842 H   0  0  0  0  0  0  0  0  0  0  0  0
   -2.6113   -0.5018   -1.5656 C   0  0  0  0  0  0  0  0  0  0  0  0
   -3.5334   -1.3550   -2.2380 C   0  0  0  0  0  0  0  0  0  0  0  0
   -3.0978   -2.0550   -2.9669 H   0  0  0  0  0  0  0  0  0  0  0  0
   -4.9132   -1.3443   -1.9935 C   0  0  0  0  0  0  0  0  0  0  0  0
   -5.4345   -0.4367   -1.0213 C   0  0  0  0  0  0  0  0  0  0  0  0
   -6.5120   -0.4243   -0.7992 H   0  0  0  0  0  0  0  0  0  0  0  0
   -4.5700    0.4219   -0.3636 C   0  0  0  0  0  0  0  0  0  0  0  0
   -5.0019    1.0944    0.3957 H   0  0  0  0  0  0  0  0  0  0  0  0
   -3.1673    0.4462   -0.6023 C   0  0  0  0  0  0  0  0  0  0  0  0
   -2.3503    1.4296    0.0649 C   0  0  2  0  0  3  0  0  0  0  0  0
   -0.6336    2.5973    0.8367 C   0  0  0  0  0  0  0  0  0  0  0  0
    0.6375    3.1063    1.1486 C   0  0  0  0  0  0  0  0  0  0  0  0
    1.5408    2.6091    0.7665 H   0  0  0  0  0  0  0  0  0  0  0  0
    0.6939    4.2636    1.9388 C   0  0  0  0  0  0  0  0  0  0  0  0
    1.6738    4.6896    2.2013 H   0  0  0  0  0  0  0  0  0  0  0  0
   -0.4805    4.9000    2.4014 C   0  0  0  0  0  0  0  0  0  0  0  0
   -0.3950    5.8077    3.0172 H   0  0  0  0  0  0  0  0  0  0  0  0
   -1.7575    4.4033    2.0901 C   0  0  0  0  0  0  0  0  0  0  0  0
   -2.6687    4.9042    2.4485 H   0  0  0  0  0  0  0  0  0  0  0  0
   -1.8115    3.2457    1.3029 C   0  0  0  0  0  0  0  0  0  0  0  0
  1  8  1  0  0  0  0
  2  4  1  0  0  0  0
  2 11  1  0  0  0  0
  3  2  1  0  0  0  0
  5 18  1  0  0  0  0
  6  7  1  0  0  0  0
  6 27  1  0  0  0  0
  8 16  1  0  0  0  0
  9 11  1  0  0  0  0
  9  8  2  0  0  0  0
 10  9  1  0  0  0  0
 11 12  2  0  0  0  0
 12 13  1  0  0  0  0
 12 14  1  0  0  0  0
 14 15  1  0  0  0  0
 16 14  2  0  0  0  0
 17 16  1  1  0  0  0
 17  5  1  0  0  0  0
 17  6  1  0  0  0  0
 18 19  2  0  0  0  0
 18 27  1  0  0  0  0
 19 21  1  0  0  0  0
 20 19  1  0  0  0  0
 21 22  1  0  0  0  0
 21 23  2  0  0  0  0
 23 24  1  0  0  0  0
 25 23  1  0  0  0  0
 25 26  1  0  0  0  0
 27 25  2  0  0  0  0
M  CHG  1   1  -1
M  END
