1,2
 OpenBabel05122313063D

 18 18  0  0  0  0  0  0  0  0999 V2000
    0.3354   -1.9796    0.0213 O   0  5  0  0  0  0  0  0  0  0  0  0
    2.0324    0.4357    0.0333 N   0  0  0  0  0  2  0  0  0  0  0  0
    2.3965    1.7408    0.1171 C   0  0  0  0  0  3  0  0  0  0  0  0
    1.5547    2.4455    0.1744 H   0  0  0  0  0  0  0  0  0  0  0  0
    3.7171    2.1754    0.1180 C   0  0  0  0  0  0  0  0  0  0  0  0
    3.9344    3.2499    0.1877 H   0  0  0  0  0  0  0  0  0  0  0  0
    4.7378    1.2080    0.0240 C   0  0  0  0  0  0  0  0  0  0  0  0
    5.7985    1.5021    0.0163 H   0  0  0  0  0  0  0  0  0  0  0  0
    4.3789   -0.1273   -0.0567 C   0  0  0  0  0  0  0  0  0  0  0  0
    5.1436   -0.9139   -0.1265 H   0  0  0  0  0  0  0  0  0  0  0  0
    3.0077   -0.5351   -0.0461 C   0  0  0  0  0  0  0  0  0  0  0  0
    2.7280   -1.9365   -0.1118 C   0  0  0  0  0  0  0  0  0  0  0  0
    3.6098   -2.5865   -0.1851 H   0  0  0  0  0  0  0  0  0  0  0  0
    1.4924   -2.5638   -0.0671 C   0  0  0  0  0  0  0  0  0  0  0  0
    1.3977   -4.0724   -0.1148 C   0  0  0  0  0  0  0  0  0  0  0  0
    0.7709   -4.3812   -0.9767 H   0  0  0  0  0  0  0  0  0  0  0  0
    2.3899   -4.5518   -0.1994 H   0  0  0  0  0  0  0  0  0  0  0  0
    0.8937   -4.4451    0.8009 H   0  0  0  0  0  0  0  0  0  0  0  0
  2  3  1  0  0  0  0
  3  5  1  0  0  0  0
  3  4  1  0  0  0  0
  5  6  1  0  0  0  0
  7  5  2  0  0  0  0
  8  7  1  0  0  0  0
  9 11  2  0  0  0  0
  9  7  1  0  0  0  0
 10  9  1  0  0  0  0
 11  2  1  0  0  0  0
 12 14  2  0  0  0  0
 12 11  1  0  0  0  0
 13 12  1  0  0  0  0
 14  1  1  0  0  0  0
 15 14  1  0  0  0  0
 15 18  1  0  0  0  0
 16 15  1  0  0  0  0
 17 15  1  0  0  0  0
M  CHG  1   1  -1
M  END
