2,5
 OpenBabel05122313063D

 33 33  0  0  0  0  0  0  0  0999 V2000
   -4.4499    0.8129   -1.1902 Br  0  0  0  0  0  0  0  0  0  0  0  0
    0.3731   -0.4745    1.7779 N   0  0  0  0  0  2  0  0  0  0  0  0
    4.4082   -1.2943    0.1412 N   0  3  0  0  0  0  0  0  0  0  0  0
    5.1049   -1.1573    0.8939 H   0  0  0  0  0  0  0  0  0  0  0  0
   -1.7048    0.6660    0.0337 O   0  5  0  0  0  0  0  0  0  0  0  0
   -1.9185   -1.3446    1.3777 C   0  0  0  0  0  0  0  0  0  0  0  0
   -2.3984   -0.3297    0.4471 C   0  0  0  0  0  0  0  0  0  0  0  0
   -3.7668   -0.4931    0.0055 C   0  0  0  0  0  0  0  0  0  0  0  0
   -4.5649   -1.5556    0.4074 C   0  0  0  0  0  0  0  0  0  0  0  0
   -5.5925   -1.6266    0.0215 H   0  0  0  0  0  0  0  0  0  0  0  0
   -4.0675   -2.5359    1.3022 C   0  0  0  0  0  0  0  0  0  0  0  0
   -4.7114   -3.3700    1.6148 H   0  0  0  0  0  0  0  0  0  0  0  0
   -2.7715   -2.4174    1.7771 C   0  0  0  0  0  0  0  0  0  0  0  0
   -2.3724   -3.1612    2.4861 H   0  0  0  0  0  0  0  0  0  0  0  0
   -0.6227   -1.3010    1.9927 C   0  0  0  0  0  3  0  0  0  0  0  0
   -0.4678   -2.0790    2.7764 H   0  0  0  0  0  0  0  0  0  0  0  0
    1.5310   -0.5781    2.6560 C   0  0  0  0  0  0  0  0  0  0  0  0
    1.4981   -1.5410    3.2217 H   0  0  0  0  0  0  0  0  0  0  0  0
    1.4782    0.2356    3.4139 H   0  0  0  0  0  0  0  0  0  0  0  0
    2.8640   -0.4171    1.9186 C   0  0  0  0  0  0  0  0  0  0  0  0
    2.8876    0.5996    1.4595 H   0  0  0  0  0  0  0  0  0  0  0  0
    3.6798   -0.4656    2.6750 H   0  0  0  0  0  0  0  0  0  0  0  0
    3.0778   -1.4734    0.8470 C   0  0  0  0  0  0  0  0  0  0  0  0
    3.0904   -2.4992    1.2695 H   0  0  0  0  0  0  0  0  0  0  0  0
    2.2951   -1.4207    0.0660 H   0  0  0  0  0  0  0  0  0  0  0  0
    4.4791   -0.0743   -0.7457 C   0  0  0  0  0  0  0  0  0  0  0  0
    5.5467    0.1185   -0.9580 H   0  0  0  0  0  0  0  0  0  0  0  0
    4.0047    0.7999   -0.2537 H   0  0  0  0  0  0  0  0  0  0  0  0
    3.9486   -0.3203   -1.6856 H   0  0  0  0  0  0  0  0  0  0  0  0
    4.7882   -2.5224   -0.6255 C   0  0  0  0  0  0  0  0  0  0  0  0
    4.8231   -3.3880    0.0606 H   0  0  0  0  0  0  0  0  0  0  0  0
    5.7763   -2.3605   -1.0929 H   0  0  0  0  0  0  0  0  0  0  0  0
    4.0202   -2.6673   -1.4153 H   0  0  0  0  0  0  0  0  0  0  0  0
  1  8  1  0  0  0  0
  2 15  1  0  0  0  0
  2 17  1  0  0  0  0
  3 23  1  0  0  0  0
  3  4  1  0  0  0  0
  5  7  1  0  0  0  0
  6 13  1  0  0  0  0
  6 15  1  0  0  0  0
  7  6  2  0  0  0  0
  8  9  2  0  0  0  0
  8  7  1  0  0  0  0
  9 11  1  0  0  0  0
 10  9  1  0  0  0  0
 11 12  1  0  0  0  0
 11 13  2  0  0  0  0
 13 14  1  0  0  0  0
 15 16  1  0  0  0  0
 17 18  1  0  0  0  0
 17 19  1  0  0  0  0
 20 17  1  0  0  0  0
 20 22  1  0  0  0  0
 21 20  1  0  0  0  0
 23 24  1  0  0  0  0
 23 20  1  0  0  0  0
 25 23  1  0  0  0  0
 26 28  1  0  0  0  0
 26  3  1  0  0  0  0
 27 26  1  0  0  0  0
 29 26  1  0  0  0  0
 30 31  1  0  0  0  0
 30  3  1  0  0  0  0
 32 30  1  0  0  0  0
 33 30  1  0  0  0  0
M  CHG  2   3   1   5  -1
M  END
