1,2
 OpenBabel05122313063D

 16 16  0  0  1  0  0  0  0  0999 V2000
    1.6893    0.7852   -0.2246 N   0  0  0  0  0  2  0  0  0  0  0  0
    0.9585   -1.5958    0.0931 O   0  5  0  0  0  0  0  0  0  0  0  0
    2.7475   -0.0659   -0.0632 C   0  0  1  0  0  3  0  0  0  0  0  0
    1.8692    2.1021   -0.4269 C   0  0  0  0  0  0  0  0  0  0  0  0
    2.2588   -1.4881    0.1161 C   0  0  0  0  0  0  0  0  0  0  0  0
    4.0769    0.4136   -0.0994 C   0  0  0  0  0  0  0  0  0  0  0  0
    3.1558    2.6456   -0.4829 C   0  0  0  0  0  0  0  0  0  0  0  0
    0.9521    2.7004   -0.5360 H   0  0  0  0  0  0  0  0  0  0  0  0
    3.0050   -2.4693    0.2434 O   0  0  0  0  0  0  0  0  0  0  0  0
    4.2517    1.7987   -0.3142 C   0  0  0  0  0  0  0  0  0  0  0  0
    5.4073   -0.3545    0.0721 C   0  0  0  0  0  0  0  0  0  0  0  0
    3.2863    3.7238   -0.6521 H   0  0  0  0  0  0  0  0  0  0  0  0
    5.2902    2.1613   -0.3367 H   0  0  0  0  0  0  0  0  0  0  0  0
    5.3853   -1.6600    0.2449 O   0  0  0  0  0  0  0  0  0  0  0  0
    6.4448    0.2875    0.0367 O   0  0  0  0  0  0  0  0  0  0  0  0
    4.4331   -2.0463    0.2501 H   0  0  0  0  0  0  0  0  0  0  0  0
  1  3  1  0  0  0  0
  2  5  1  0  0  0  0
  3  5  1  6  0  0  0
  4  1  1  0  0  0  0
  5  9  2  0  0  0  0
  6  3  1  0  0  0  0
  6 11  1  0  0  0  0
  7  4  2  0  0  0  0
  7 10  1  0  0  0  0
  8  4  1  0  0  0  0
 10  6  2  0  0  0  0
 11 14  1  0  0  0  0
 12  7  1  0  0  0  0
 13 10  1  0  0  0  0
 14 16  1  0  0  0  0
 15 11  2  0  0  0  0
M  CHG  1   2  -1
M  END
