4,6
 OpenBabel05122313063D

 30 31  0  0  0  0  0  0  0  0999 V2000
    0.8374   -2.6632   -2.6462 Br  0  0  0  0  0  0  0  0  0  0  0  0
    1.1407   -2.4429    3.0635 Br  0  0  0  0  0  0  0  0  0  0  0  0
   -5.9152   -4.4872   -0.2594 Cl  0  0  0  0  0  0  0  0  0  0  0  0
   -2.1624    0.0318    0.3038 O   0  5  0  0  0  0  0  0  0  0  0  0
   -6.1174    0.8847   -0.0198 O   0  0  0  0  0  0  0  0  0  0  0  0
   -0.0783   -1.8468    0.2446 N   0  0  0  0  0  2  0  0  0  0  0  0
   -2.9556   -0.9776    0.1737 C   0  0  0  0  0  0  0  0  0  0  0  0
   -4.3802   -0.7595    0.0782 C   0  0  0  0  0  0  0  0  0  0  0  0
   -5.2657   -1.8349   -0.0542 C   0  0  0  0  0  0  0  0  0  0  0  0
   -6.3402   -1.6061   -0.1270 H   0  0  0  0  0  0  0  0  0  0  0  0
   -4.7904   -3.1573   -0.0983 C   0  0  0  0  0  0  0  0  0  0  0  0
   -3.4208   -3.4090   -0.0212 C   0  0  0  0  0  3  0  0  0  0  0  0
   -3.0554   -4.4462   -0.0647 H   0  0  0  0  0  0  0  0  0  0  0  0
   -2.4878   -2.3472    0.1073 C   0  0  0  0  0  0  0  0  0  0  0  0
   -1.0963   -2.6805    0.1508 C   0  0  0  0  0  0  0  0  0  0  0  0
   -0.8565   -3.7601    0.0850 H   0  0  0  0  0  0  0  0  0  0  0  0
   -4.9270    0.6183    0.0991 C   0  0  0  0  0  0  0  0  0  0  0  0
   -4.1551    1.4242    0.2301 H   0  0  0  0  0  0  0  0  0  0  0  0
    1.2208   -2.4195    0.1967 C   0  0  0  0  0  0  0  0  0  0  0  0
    1.8491   -2.7307   -1.0302 C   0  0  0  0  0  0  0  0  0  0  0  0
    3.2036   -3.0768   -1.0975 C   0  0  0  0  0  0  0  0  0  0  0  0
    3.6603   -3.2673   -2.0786 H   0  0  0  0  0  0  0  0  0  0  0  0
    3.9802   -3.1466    0.0737 C   0  0  0  0  0  0  0  0  0  0  0  0
    3.3451   -2.9439    1.3137 C   0  0  0  0  0  0  0  0  0  0  0  0
    3.9111   -3.0419    2.2506 H   0  0  0  0  0  0  0  0  0  0  0  0
    1.9885   -2.6058    1.3680 C   0  0  0  0  0  0  0  0  0  0  0  0
    5.4628   -3.4008   -0.0042 C   0  0  0  0  0  0  0  0  0  0  0  0
    5.7155   -4.1058   -0.8206 H   0  0  0  0  0  0  0  0  0  0  0  0
    5.8601   -3.8081    0.9455 H   0  0  0  0  0  0  0  0  0  0  0  0
    5.9980   -2.4497   -0.2138 H   0  0  0  0  0  0  0  0  0  0  0  0
  1 20  1  0  0  0  0
  3 11  1  0  0  0  0
  5 17  2  0  0  0  0
  7  4  1  0  0  0  0
  8 17  1  0  0  0  0
  8  7  2  0  0  0  0
  9  8  1  0  0  0  0
 10  9  1  0  0  0  0
 11  9  2  0  0  0  0
 11 12  1  0  0  0  0
 12 14  1  0  0  0  0
 13 12  1  0  0  0  0
 14 15  2  0  0  0  0
 14  7  1  0  0  0  0
 15  6  1  0  0  0  0
 16 15  1  0  0  0  0
 17 18  1  0  0  0  0
 19  6  1  0  0  0  0
 19 26  1  0  0  0  0
 20 19  2  0  0  0  0
 21 20  1  0  0  0  0
 21 23  2  0  0  0  0
 22 21  1  0  0  0  0
 23 24  1  0  0  0  0
 24 26  2  0  0  0  0
 24 25  1  0  0  0  0
 26  2  1  0  0  0  0
 27 23  1  0  0  0  0
 27 29  1  0  0  0  0
 28 27  1  0  0  0  0
 30 27  1  0  0  0  0
M  CHG  1   4  -1
M  END
