1,27
 OpenBabel05122313063D

 33 34  0  0  0  0  0  0  0  0999 V2000
   -0.5764    1.9265   -0.1251 N   0  0  0  0  0  2  0  0  0  0  0  0
   -1.8902    2.1119   -0.3970 N   0  0  0  0  0  0  0  0  0  0  0  0
    1.3809    0.6570    1.4485 O   0  0  0  0  0  0  0  0  0  0  0  0
    2.1967    1.7119    1.1303 C   0  0  0  0  0  0  0  0  0  0  0  0
    0.1760    2.9527    0.1725 C   0  0  0  0  0  3  0  0  0  0  0  0
   -0.2699    3.9638    0.0904 H   0  0  0  0  0  0  0  0  0  0  0  0
    3.5764    1.7007    1.3893 C   0  0  0  0  0  0  0  0  0  0  0  0
    4.0519    0.8023    1.8023 H   0  0  0  0  0  0  0  0  0  0  0  0
    1.5829    2.8590    0.5380 C   0  0  0  0  0  0  0  0  0  0  0  0
    2.4004    3.9885    0.2929 C   0  0  0  0  0  0  0  0  0  0  0  0
    1.9291    4.8850   -0.1388 H   0  0  0  0  0  0  0  0  0  0  0  0
    3.7739    3.9787    0.5538 C   0  0  0  0  0  0  0  0  0  0  0  0
    4.3845    4.8661    0.3335 H   0  0  0  0  0  0  0  0  0  0  0  0
    4.3622    2.8231    1.0889 C   0  0  0  0  0  0  0  0  0  0  0  0
    5.4450    2.7848    1.2790 H   0  0  0  0  0  0  0  0  0  0  0  0
    1.8732   -0.3451    2.3429 C   0  0  0  0  0  0  0  0  0  0  0  0
    2.6698   -0.9597    1.8759 H   0  0  0  0  0  0  0  0  0  0  0  0
    1.0061   -0.9934    2.5609 H   0  0  0  0  0  0  0  0  0  0  0  0
    2.2508    0.1209    3.2769 H   0  0  0  0  0  0  0  0  0  0  0  0
   -4.1462    3.0570    0.3004 O   0  0  0  0  0  0  0  0  0  0  0  0
   -3.1352    2.9590    0.1394 H   0  0  0  0  0  0  0  0  0  0  0  0
   -3.9435    1.0260   -1.0212 C   0  0  0  0  0  0  0  0  0  0  0  0
   -4.6097   -0.0439   -1.6623 C   0  0  0  0  0  0  0  0  0  0  0  0
   -3.9849   -0.8087   -2.1458 H   0  0  0  0  0  0  0  0  0  0  0  0
   -2.4715    1.0249   -0.9764 C   0  0  0  0  0  0  0  0  0  0  0  0
   -4.7123    2.0356   -0.3537 C   0  0  0  0  0  0  0  0  0  0  0  0
   -1.8103    0.0168   -1.4134 O   0  5  0  0  0  0  0  0  0  0  0  0
   -6.7546    0.8662   -1.0089 C   0  0  0  0  0  0  0  0  0  0  0  0
   -7.8544    0.8086   -1.0034 H   0  0  0  0  0  0  0  0  0  0  0  0
   -6.1242    1.9314   -0.3631 C   0  0  0  0  0  0  0  0  0  0  0  0
   -6.6983    2.7137    0.1543 H   0  0  0  0  0  0  0  0  0  0  0  0
   -6.0015   -0.1319   -1.6637 C   0  0  0  0  0  0  0  0  0  0  0  0
   -6.5056   -0.9688   -2.1683 H   0  0  0  0  0  0  0  0  0  0  0  0
  1  5  1  0  0  0  0
  2  1  1  0  0  0  0
  3 16  1  0  0  0  0
  4  7  1  0  0  0  0
  4  3  1  0  0  0  0
  5  9  1  0  0  0  0
  6  5  1  0  0  0  0
  7  8  1  0  0  0  0
  9  4  2  0  0  0  0
 10  9  1  0  0  0  0
 10 12  2  0  0  0  0
 11 10  1  0  0  0  0
 12 14  1  0  0  0  0
 13 12  1  0  0  0  0
 14 15  1  0  0  0  0
 14  7  2  0  0  0  0
 16 18  1  0  0  0  0
 16 19  1  0  0  0  0
 17 16  1  0  0  0  0
 21 20  1  0  0  0  0
 22 25  1  0  0  0  0
 22 26  1  0  0  0  0
 23 22  2  0  0  0  0
 24 23  1  0  0  0  0
 25  2  2  0  0  0  0
 26 20  1  0  0  0  0
 27 25  1  0  0  0  0
 28 29  1  0  0  0  0
 28 30  1  0  0  0  0
 30 26  2  0  0  0  0
 30 31  1  0  0  0  0
 32 23  1  0  0  0  0
 32 28  2  0  0  0  0
 33 32  1  0  0  0  0
M  CHG  1  27  -1
M  END
