2,3
 OpenBabel05122313063D

 14 14  0  0  1  0  0  0  0  0999 V2000
   -0.2365    2.5723   -0.9131 Cl  0  0  0  0  0  0  0  0  0  0  0  0
    1.7523   -0.1795    0.1629 N   0  0  0  0  0  2  0  0  0  0  0  0
    0.0969   -0.1710   -1.9222 O   0  0  0  0  0  1  0  0  0  0  0  0
    1.9019    0.8248   -0.7188 C   0  0  1  0  0  3  0  0  0  0  0  0
    3.0018    1.6978   -0.6505 C   0  0  0  0  0  0  0  0  0  0  0  0
    3.0909    2.5190   -1.3762 H   0  0  0  0  0  0  0  0  0  0  0  0
    3.9476    1.4994    0.3601 C   0  0  0  0  0  0  0  0  0  0  0  0
    4.8219    2.1636    0.4385 H   0  0  0  0  0  0  0  0  0  0  0  0
    3.7793    0.4393    1.2723 C   0  0  0  0  0  0  0  0  0  0  0  0
    4.5124    0.2496    2.0692 H   0  0  0  0  0  0  0  0  0  0  0  0
    2.6584   -0.3859    1.1345 C   0  0  0  0  0  0  0  0  0  0  0  0
    2.4642   -1.2596    1.7803 H   0  0  0  0  0  0  0  0  0  0  0  0
    0.8328    0.8630   -1.7870 C   0  0  2  0  0  0  0  0  0  0  0  0
    1.0975    1.4457   -2.6952 H   0  0  0  0  0  0  0  0  0  0  0  0
  2 11  1  0  0  0  0
  3 13  1  0  0  0  0
  4 13  1  6  0  0  0
  4  5  1  0  0  0  0
  4  2  1  0  0  0  0
  5  7  2  0  0  0  0
  6  5  1  0  0  0  0
  7  8  1  0  0  0  0
  7  9  1  0  0  0  0
  9 10  1  0  0  0  0
 11  9  2  0  0  0  0
 11 12  1  0  0  0  0
 13 14  1  6  0  0  0
 13  1  1  0  0  0  0
M  END
