1,2
 OpenBabel05122313063D

 28 29  0  0  1  0  0  0  0  0999 V2000
   -0.2748    1.1596   -1.6868 O   0  0  0  0  0  1  0  0  0  0  0  0
    0.8118    1.0281    0.2436 N   0  0  0  0  0  2  0  0  0  0  0  0
    1.9797    0.8887    0.9971 C   0  0  0  0  0  0  0  0  0  0  0  0
    3.2699    0.8419    0.4087 C   0  0  0  0  0  0  0  0  0  0  0  0
    3.3718    0.9827   -0.6768 H   0  0  0  0  0  0  0  0  0  0  0  0
    4.3994    0.5784    1.1878 C   0  0  0  0  0  0  0  0  0  0  0  0
    5.3864    0.5364    0.6988 H   0  0  0  0  0  0  0  0  0  0  0  0
    4.3044    0.3362    2.5758 C   0  0  0  0  0  0  0  0  0  0  0  0
    3.0190    0.3659    3.1516 C   0  0  0  0  0  0  0  0  0  0  0  0
    2.9033    0.1595    4.2278 H   0  0  0  0  0  0  0  0  0  0  0  0
    1.8782    0.6311    2.3843 C   0  0  0  0  0  0  0  0  0  0  0  0
    0.8830    0.6056    2.8516 H   0  0  0  0  0  0  0  0  0  0  0  0
    5.5353    0.0623    3.4029 C   0  0  0  0  0  0  0  0  0  0  0  0
    6.1107    0.9937    3.5964 H   0  0  0  0  0  0  0  0  0  0  0  0
    6.2260   -0.6376    2.8891 H   0  0  0  0  0  0  0  0  0  0  0  0
    5.2767   -0.3742    4.3877 H   0  0  0  0  0  0  0  0  0  0  0  0
    0.6620    1.6305   -0.9446 C   0  0  2  0  0  3  0  0  0  0  0  0
    1.4437    2.8066   -1.4128 C   0  0  0  0  0  0  0  0  0  0  0  0
    2.0149    3.7249   -0.5062 C   0  0  0  0  0  0  0  0  0  0  0  0
    1.8993    3.5619    0.5749 H   0  0  0  0  0  0  0  0  0  0  0  0
    2.7119    4.8421   -0.9830 C   0  0  0  0  0  0  0  0  0  0  0  0
    3.1494    5.5583   -0.2710 H   0  0  0  0  0  0  0  0  0  0  0  0
    2.8490    5.0519   -2.3660 C   0  0  0  0  0  0  0  0  0  0  0  0
    3.4016    5.9285   -2.7376 H   0  0  0  0  0  0  0  0  0  0  0  0
    2.2735    4.1466   -3.2728 C   0  0  0  0  0  0  0  0  0  0  0  0
    2.3736    4.3133   -4.3563 H   0  0  0  0  0  0  0  0  0  0  0  0
    1.5668    3.0333   -2.7994 C   0  0  0  0  0  0  0  0  0  0  0  0
    1.0961    2.3183   -3.4895 H   0  0  0  0  0  0  0  0  0  0  0  0
  2  3  1  0  0  0  0
  3 11  1  0  0  0  0
  4  3  2  0  0  0  0
  4  6  1  0  0  0  0
  5  4  1  0  0  0  0
  6  8  2  0  0  0  0
  7  6  1  0  0  0  0
  8  9  1  0  0  0  0
  8 13  1  0  0  0  0
  9 10  1  0  0  0  0
 11 12  1  0  0  0  0
 11  9  2  0  0  0  0
 13 14  1  0  0  0  0
 13 16  1  0  0  0  0
 15 13  1  0  0  0  0
 17  1  1  1  0  0  0
 17  2  1  0  0  0  0
 18 17  1  0  0  0  0
 18 19  1  0  0  0  0
 19 20  1  0  0  0  0
 21 19  2  0  0  0  0
 21 22  1  0  0  0  0
 23 21  1  0  0  0  0
 24 23  1  0  0  0  0
 25 27  1  0  0  0  0
 25 23  2  0  0  0  0
 26 25  1  0  0  0  0
 27 18  2  0  0  0  0
 28 27  1  0  0  0  0
M  END
