1,4
 OpenBabel05122313063D

 27 29  0  0  1  0  0  0  0  0999 V2000
   -0.3798   -1.2714    0.0007 O   0  0  0  0  0  1  0  0  0  0  0  0
    3.7556    2.2535   -0.0002 O   0  0  0  0  0  0  0  0  0  0  0  0
    5.4465    0.2490   -0.0001 O   0  0  0  0  0  0  0  0  0  0  0  0
   -0.9361    1.3263    0.0002 N   0  0  0  0  0  2  0  0  0  0  0  0
   -1.2289    2.6347    0.0002 C   0  0  0  0  0  3  0  0  0  0  0  0
   -2.2955    2.9017    0.0002 H   0  0  0  0  0  0  0  0  0  0  0  0
   -0.2255    3.6217    0.0001 C   0  0  0  0  0  0  0  0  0  0  0  0
   -0.5160    4.6818    0.0001 H   0  0  0  0  0  0  0  0  0  0  0  0
    1.1187    3.2376    0.0001 C   0  0  0  0  0  0  0  0  0  0  0  0
    1.9469    3.9618   -0.0000 H   0  0  0  0  0  0  0  0  0  0  0  0
    1.4303    1.8668    0.0001 C   0  0  0  0  0  0  0  0  0  0  0  0
    2.8633    1.4061    0.0001 C   0  0  0  0  0  0  0  0  0  0  0  0
    3.0926   -0.0663    0.0002 C   0  0  0  0  0  0  0  0  0  0  0  0
    4.4169   -0.6120    0.0001 C   0  0  0  0  0  0  0  0  0  0  0  0
    4.5973   -2.0163    0.0002 C   0  0  0  0  0  0  0  0  0  0  0  0
    5.6111   -2.4362    0.0001 H   0  0  0  0  0  0  0  0  0  0  0  0
    3.4975   -2.8828    0.0004 C   0  0  0  0  0  0  0  0  0  0  0  0
    3.6673   -3.9698    0.0005 H   0  0  0  0  0  0  0  0  0  0  0  0
    2.1954   -2.3774    0.0005 C   0  0  0  0  0  0  0  0  0  0  0  0
    1.3161   -3.0355    0.0006 H   0  0  0  0  0  0  0  0  0  0  0  0
    1.9941   -0.9839    0.0003 C   0  0  0  0  0  0  0  0  0  0  0  0
    0.6133   -0.4926    0.0004 C   0  0  2  0  0  3  0  0  0  0  0  0
    0.3695    0.9484    0.0002 C   0  0  0  0  0  0  0  0  0  0  0  0
    6.7780   -0.2437   -0.0002 C   0  0  0  0  0  0  0  0  0  0  0  0
    6.9917   -0.8511   -0.9066 H   0  0  0  0  0  0  0  0  0  0  0  0
    6.9919   -0.8509    0.9063 H   0  0  0  0  0  0  0  0  0  0  0  0
    7.4290    0.6489   -0.0003 H   0  0  0  0  0  0  0  0  0  0  0  0
  2 12  2  0  0  0  0
  3 14  1  0  0  0  0
  5  4  1  0  0  0  0
  5  6  1  0  0  0  0
  7  5  1  0  0  0  0
  8  7  1  0  0  0  0
  9 11  1  0  0  0  0
  9  7  2  0  0  0  0
 10  9  1  0  0  0  0
 11 23  2  0  0  0  0
 12 11  1  0  0  0  0
 12 13  1  0  0  0  0
 13 21  1  0  0  0  0
 14 13  2  0  0  0  0
 14 15  1  0  0  0  0
 15 17  2  0  0  0  0
 16 15  1  0  0  0  0
 17 18  1  0  0  0  0
 17 19  1  0  0  0  0
 19 20  1  0  0  0  0
 21 22  1  0  0  0  0
 21 19  2  0  0  0  0
 22  1  1  1  0  0  0
 23  4  1  0  0  0  0
 23 22  1  0  0  0  0
 24  3  1  0  0  0  0
 24 26  1  0  0  0  0
 25 24  1  0  0  0  0
 27 24  1  0  0  0  0
M  END
