1,3
 OpenBabel05122313063D

 29 30  0  0  0  0  0  0  0  0999 V2000
   -1.5454   -0.4985   -2.0757 O   0  5  0  0  0  0  0  0  0  0  0  0
    5.4230   -1.7731    2.4083 O   0  0  0  0  0  0  0  0  0  0  0  0
    0.4740   -1.5944   -0.2131 N   0  0  0  0  0  2  0  0  0  0  0  0
   -2.1207   -1.6420   -1.8674 C   0  0  0  0  0  0  0  0  0  0  0  0
   -3.3602   -1.9152   -2.5343 C   0  0  0  0  0  0  0  0  0  0  0  0
   -4.0520   -3.1033   -2.3474 C   0  0  0  0  0  0  0  0  0  0  0  0
   -3.5506   -4.1143   -1.4872 C   0  0  0  0  0  0  0  0  0  0  0  0
   -2.3468   -3.8968   -0.8357 C   0  0  0  0  0  0  0  0  0  0  0  0
   -1.6018   -2.6867   -0.9918 C   0  0  0  0  0  0  0  0  0  0  0  0
   -0.3557   -2.6150   -0.2846 C   0  0  0  0  0  3  0  0  0  0  0  0
    1.7196   -1.7095    0.4418 C   0  0  0  0  0  0  0  0  0  0  0  0
    2.2825   -0.5528    1.0332 C   0  0  0  0  0  0  0  0  0  0  0  0
    3.5109   -0.6064    1.6851 C   0  0  0  0  0  0  0  0  0  0  0  0
    4.2297   -1.8209    1.7578 C   0  0  0  0  0  0  0  0  0  0  0  0
    3.6916   -2.9759    1.1528 C   0  0  0  0  0  0  0  0  0  0  0  0
    2.4519   -2.9131    0.5004 C   0  0  0  0  0  0  0  0  0  0  0  0
    6.1874   -2.9598    2.5001 C   0  0  0  0  0  0  0  0  0  0  0  0
   -3.7412   -1.1246   -3.1971 H   0  0  0  0  0  0  0  0  0  0  0  0
   -5.0050   -3.2628   -2.8767 H   0  0  0  0  0  0  0  0  0  0  0  0
   -4.1026   -5.0548   -1.3477 H   0  0  0  0  0  0  0  0  0  0  0  0
   -1.9313   -4.6736   -0.1724 H   0  0  0  0  0  0  0  0  0  0  0  0
   -0.0843   -3.5343    0.2776 H   0  0  0  0  0  0  0  0  0  0  0  0
    1.7327    0.3985    0.9866 H   0  0  0  0  0  0  0  0  0  0  0  0
    3.9477    0.2902    2.1474 H   0  0  0  0  0  0  0  0  0  0  0  0
    4.2409   -3.9267    1.1617 H   0  0  0  0  0  0  0  0  0  0  0  0
    2.0714   -3.8118   -0.0069 H   0  0  0  0  0  0  0  0  0  0  0  0
    6.4807   -3.3435    1.4968 H   0  0  0  0  0  0  0  0  0  0  0  0
    7.1015   -2.7012    3.0659 H   0  0  0  0  0  0  0  0  0  0  0  0
    5.6419   -3.7645    3.0428 H   0  0  0  0  0  0  0  0  0  0  0  0
  1  4  1  0  0  0  0
  2 17  1  0  0  0  0
  3 11  1  0  0  0  0
  4  9  1  0  0  0  0
  5  6  1  0  0  0  0
  5  4  2  0  0  0  0
  6  7  2  0  0  0  0
  7 20  1  0  0  0  0
  7  8  1  0  0  0  0
  8 21  1  0  0  0  0
  9  8  2  0  0  0  0
  9 10  1  0  0  0  0
 10  3  1  0  0  0  0
 10 22  1  0  0  0  0
 11 16  2  0  0  0  0
 11 12  1  0  0  0  0
 12 13  2  0  0  0  0
 13 14  1  0  0  0  0
 13 24  1  0  0  0  0
 14  2  1  0  0  0  0
 15 25  1  0  0  0  0
 15 14  2  0  0  0  0
 16 15  1  0  0  0  0
 17 29  1  0  0  0  0
 17 28  1  0  0  0  0
 18  5  1  0  0  0  0
 19  6  1  0  0  0  0
 23 12  1  0  0  0  0
 26 16  1  0  0  0  0
 27 17  1  0  0  0  0
M  CHG  1   1  -1
M  END
