1,2
 OpenBabel05122313063D

 23 24  0  0  0  0  0  0  0  0999 V2000
    0.1724   -0.8426   -2.1178 O   0  5  0  0  0  0  0  0  0  0  0  0
   -1.3465   -0.3727   -0.0086 N   0  0  0  0  0  2  0  0  0  0  0  0
   -0.8027   -0.0074   -2.3919 C   0  0  0  0  0  0  0  0  0  0  0  0
   -1.0084    0.5658   -3.4565 O   0  0  0  0  0  0  0  0  0  0  0  0
   -2.1859   -0.0483    0.9471 N   0  0  0  0  0  2  0  0  0  0  0  0
   -1.6845    0.2203   -1.1966 C   0  0  0  0  0  0  0  0  0  0  0  0
   -3.0867    0.7697    0.3708 N   0  0  0  0  0  0  0  0  0  0  0  0
   -2.8250    0.9683   -0.9523 C   0  0  0  0  0  0  0  0  0  0  0  0
   -3.4380    1.5969   -1.6031 H   0  0  0  0  0  0  0  0  0  0  0  0
   -4.1920    1.2993    1.1661 C   0  0  0  0  0  0  0  0  0  0  0  0
   -4.1793    2.4044    1.0848 H   0  0  0  0  0  0  0  0  0  0  0  0
   -3.9485    1.0288    2.2123 H   0  0  0  0  0  0  0  0  0  0  0  0
   -5.5319    0.7388    0.7394 C   0  0  0  0  0  0  0  0  0  0  0  0
   -6.5773    1.5965    0.3541 C   0  0  0  0  0  0  0  0  0  0  0  0
   -6.4183    2.6868    0.3596 H   0  0  0  0  0  0  0  0  0  0  0  0
   -7.8200    1.0713   -0.0351 C   0  0  0  0  0  0  0  0  0  0  0  0
   -8.6319    1.7510   -0.3342 H   0  0  0  0  0  0  0  0  0  0  0  0
   -8.0210   -0.3167   -0.0488 C   0  0  0  0  0  0  0  0  0  0  0  0
   -8.9927   -0.7301   -0.3582 H   0  0  0  0  0  0  0  0  0  0  0  0
   -6.9779   -1.1790    0.3302 C   0  0  0  0  0  0  0  0  0  0  0  0
   -7.1311   -2.2685    0.3193 H   0  0  0  0  0  0  0  0  0  0  0  0
   -5.7399   -0.6551    0.7245 C   0  0  0  0  0  0  0  0  0  0  0  0
   -4.9220   -1.3315    1.0197 H   0  0  0  0  0  0  0  0  0  0  0  0
  2  5  1  0  0  0  0
  3  1  1  0  0  0  0
  3  6  1  0  0  0  0
  4  3  2  0  0  0  0
  6  8  2  0  0  0  0
  6  2  1  0  0  0  0
  7  5  1  0  0  0  0
  7 10  1  0  0  0  0
  8  7  1  0  0  0  0
  9  8  1  0  0  0  0
 10 12  1  0  0  0  0
 11 10  1  0  0  0  0
 13 10  1  0  0  0  0
 14 15  1  0  0  0  0
 14 13  2  0  0  0  0
 16 14  1  0  0  0  0
 17 16  1  0  0  0  0
 18 16  2  0  0  0  0
 18 20  1  0  0  0  0
 19 18  1  0  0  0  0
 20 22  2  0  0  0  0
 21 20  1  0  0  0  0
 22 13  1  0  0  0  0
 22 23  1  0  0  0  0
M  CHG  1   1  -1
M  END
