1,2
 OpenBabel05122313063D

 23 24  0  0  1  0  0  0  0  0999 V2000
   -1.3435   -1.7294   -0.1152 N   0  0  0  0  0  2  0  0  0  0  0  0
   -1.2721    0.6081   -1.1466 O   0  5  0  0  0  0  0  0  0  0  0  0
   -2.5760    2.9558   -1.6362 O   0  0  0  0  0  0  0  0  0  0  0  0
   -2.7354    3.8873   -1.9019 H   0  0  0  0  0  0  0  0  0  0  0  0
   -3.9626    3.6948   -0.0136 O   0  0  0  0  0  0  0  0  0  0  0  0
   -1.3926   -3.0143    0.3108 C   0  0  0  0  0  0  0  0  0  0  0  0
   -2.3817   -3.4067    1.2583 C   0  0  0  0  0  0  0  0  0  0  0  0
   -2.3747   -4.4528    1.5954 H   0  0  0  0  0  0  0  0  0  0  0  0
   -3.3303   -2.5209    1.7393 C   0  0  0  0  0  0  0  0  0  0  0  0
   -4.0857   -2.8399    2.4732 H   0  0  0  0  0  0  0  0  0  0  0  0
   -3.3386   -1.1876    1.2455 C   0  0  0  0  0  0  0  0  0  0  0  0
   -4.2676   -0.1744    1.6251 C   0  0  0  0  0  0  0  0  0  0  0  0
   -5.0457   -0.4116    2.3652 H   0  0  0  0  0  0  0  0  0  0  0  0
   -4.1890    1.0855    1.0553 C   0  0  0  0  0  0  0  0  0  0  0  0
   -4.8960    1.8810    1.3329 H   0  0  0  0  0  0  0  0  0  0  0  0
   -3.2143    1.4228    0.0728 C   0  0  0  0  0  0  0  0  0  0  0  0
   -2.2590    0.4490   -0.2945 C   0  0  0  0  0  0  0  0  0  0  0  0
   -2.3261   -0.8543    0.3006 C   0  0  1  0  0  3  0  0  0  0  0  0
   -0.4297   -4.0335   -0.2151 C   0  0  0  0  0  0  0  0  0  0  0  0
   -0.3707   -3.9718   -1.3192 H   0  0  0  0  0  0  0  0  0  0  0  0
   -0.7550   -5.0482    0.0784 H   0  0  0  0  0  0  0  0  0  0  0  0
    0.5936   -3.8606    0.1735 H   0  0  0  0  0  0  0  0  0  0  0  0
   -3.2905    2.7949   -0.4991 C   0  0  0  0  0  0  0  0  0  0  0  0
  1 18  1  0  0  0  0
  1  6  1  0  0  0  0
  2 17  1  0  0  0  0
  3 23  1  0  0  0  0
  4  3  1  0  0  0  0
  6  7  2  0  0  0  0
  7  8  1  0  0  0  0
  7  9  1  0  0  0  0
  9 10  1  0  0  0  0
 11 12  1  0  0  0  0
 11  9  2  0  0  0  0
 12 13  1  0  0  0  0
 14 15  1  0  0  0  0
 14 12  2  0  0  0  0
 16 14  1  0  0  0  0
 17 16  2  0  0  0  0
 18 17  1  1  0  0  0
 18 11  1  0  0  0  0
 19 21  1  0  0  0  0
 19 22  1  0  0  0  0
 19  6  1  0  0  0  0
 20 19  1  0  0  0  0
 23  5  2  0  0  0  0
 23 16  1  0  0  0  0
M  CHG  1   2  -1
M  END
