1,2
 OpenBabel05122313063D

 25 26  0  0  1  0  0  0  0  0999 V2000
    1.9929    0.2131   -0.2287 O   0  0  0  0  0  1  0  0  0  0  0  0
    0.1286   -2.0590   -0.3137 N   0  0  0  0  0  2  0  0  0  0  0  0
    1.2994   -2.7354   -0.0488 C   0  0  0  0  0  0  0  0  0  0  0  0
    2.8445   -0.7298    0.0572 C   0  0  1  0  0  3  0  0  0  0  0  0
   -0.9978   -2.7547   -0.6111 C   0  0  0  0  0  0  0  0  0  0  0  0
   -1.8815   -2.1348   -0.8179 H   0  0  0  0  0  0  0  0  0  0  0  0
    1.2680   -4.1652   -0.0225 C   0  0  0  0  0  0  0  0  0  0  0  0
    2.2031   -4.6926    0.2133 H   0  0  0  0  0  0  0  0  0  0  0  0
   -1.0606   -4.1440   -0.6240 C   0  0  0  0  0  0  0  0  0  0  0  0
   -2.0078   -4.6421   -0.8718 H   0  0  0  0  0  0  0  0  0  0  0  0
    0.1068   -4.8670   -0.3041 C   0  0  0  0  0  0  0  0  0  0  0  0
    0.1029   -5.9675   -0.2856 H   0  0  0  0  0  0  0  0  0  0  0  0
    4.2407   -0.2385    0.2695 C   0  0  0  0  0  0  0  0  0  0  0  0
    6.8533    0.7588    0.6961 C   0  0  0  0  0  0  0  0  0  0  0  0
    7.8702    1.1458    0.8621 H   0  0  0  0  0  0  0  0  0  0  0  0
    5.3703   -1.0500    0.0260 C   0  0  0  0  0  0  0  0  0  0  0  0
    5.2344   -2.0706   -0.3610 H   0  0  0  0  0  0  0  0  0  0  0  0
    4.4433    1.0858    0.7181 C   0  0  0  0  0  0  0  0  0  0  0  0
    3.5644    1.7183    0.9075 H   0  0  0  0  0  0  0  0  0  0  0  0
    2.5502   -2.0831    0.1846 C   0  0  0  0  0  0  0  0  0  0  0  0
    3.3755   -2.7480    0.4673 H   0  0  0  0  0  0  0  0  0  0  0  0
    5.7371    1.5771    0.9345 C   0  0  0  0  0  0  0  0  0  0  0  0
    5.8764    2.6077    1.2955 H   0  0  0  0  0  0  0  0  0  0  0  0
    6.6641   -0.5553    0.2380 C   0  0  0  0  0  0  0  0  0  0  0  0
    7.5335   -1.1988    0.0340 H   0  0  0  0  0  0  0  0  0  0  0  0
  2  3  1  0  0  0  0
  3  7  1  0  0  0  0
  3 20  2  0  0  0  0
  4  1  1  1  0  0  0
  4 20  1  0  0  0  0
  4 13  1  0  0  0  0
  5  2  1  0  0  0  0
  6  5  1  0  0  0  0
  7  8  1  0  0  0  0
  9  5  2  0  0  0  0
  9 11  1  0  0  0  0
 10  9  1  0  0  0  0
 11 12  1  0  0  0  0
 11  7  2  0  0  0  0
 13 18  1  0  0  0  0
 14 15  1  0  0  0  0
 14 22  1  0  0  0  0
 16 24  1  0  0  0  0
 16 13  2  0  0  0  0
 17 16  1  0  0  0  0
 18 19  1  0  0  0  0
 18 22  2  0  0  0  0
 20 21  1  0  0  0  0
 22 23  1  0  0  0  0
 24 14  2  0  0  0  0
 25 24  1  0  0  0  0
M  END
