1,12
 OpenBabel05122313063D

 47 50  0  0  0  0  0  0  0  0999 V2000
   -1.8528    2.1292    0.3744 N   0  0  0  0  0  2  0  0  0  0  0  0
   -2.7178    3.1512    0.5419 C   0  0  0  0  0  3  0  0  0  0  0  0
   -3.7805    2.8810    0.6116 H   0  0  0  0  0  0  0  0  0  0  0  0
   -2.2910    4.4830    0.6211 C   0  0  0  0  0  0  0  0  0  0  0  0
   -3.0359    5.2787    0.7629 H   0  0  0  0  0  0  0  0  0  0  0  0
   -0.9233    4.7711    0.5159 C   0  0  0  0  0  0  0  0  0  0  0  0
   -0.5619    5.8089    0.5630 H   0  0  0  0  0  0  0  0  0  0  0  0
   -0.0235    3.7076    0.3664 C   0  0  0  0  0  0  0  0  0  0  0  0
    1.0630    3.8535    0.2986 H   0  0  0  0  0  0  0  0  0  0  0  0
   -0.5140    2.3971    0.3206 C   0  0  0  0  0  0  0  0  0  0  0  0
    0.3857    1.1940    0.2885 C   0  0  0  0  0  0  0  0  0  0  0  0
   -0.1676    0.0614    0.5149 O   0  5  0  0  0  0  0  0  0  0  0  0
    1.6748    1.4023    0.0456 N   0  0  0  0  0  0  0  0  0  0  0  0
    2.7020    0.0989   -0.0696 P   0  0  0  0  0  4  0  0  0  0  0  0
    3.1809   -0.5779    1.5473 C   0  0  0  0  0  0  0  0  0  0  0  0
    2.1775   -1.0789    2.4091 C   0  0  0  0  0  0  0  0  0  0  0  0
    1.1252   -1.0562    2.0900 H   0  0  0  0  0  0  0  0  0  0  0  0
    2.5377   -1.5883    3.6633 C   0  0  0  0  0  0  0  0  0  0  0  0
    1.7597   -1.9768    4.3375 H   0  0  0  0  0  0  0  0  0  0  0  0
    3.8851   -1.6007    4.0631 C   0  0  0  0  0  0  0  0  0  0  0  0
    4.1614   -2.0018    5.0498 H   0  0  0  0  0  0  0  0  0  0  0  0
    4.8786   -1.0990    3.2086 C   0  0  0  0  0  0  0  0  0  0  0  0
    5.9327   -1.1041    3.5227 H   0  0  0  0  0  0  0  0  0  0  0  0
    4.5321   -0.5849    1.9499 C   0  0  0  0  0  0  0  0  0  0  0  0
    5.3118   -0.1878    1.2833 H   0  0  0  0  0  0  0  0  0  0  0  0
    4.1846    0.7179   -0.8971 C   0  0  0  0  0  0  0  0  0  0  0  0
    5.0417   -0.1843   -1.5615 C   0  0  0  0  0  0  0  0  0  0  0  0
    4.7870   -1.2538   -1.6197 H   0  0  0  0  0  0  0  0  0  0  0  0
    6.2170    0.2920   -2.1586 C   0  0  0  0  0  0  0  0  0  0  0  0
    6.8864   -0.4069   -2.6814 H   0  0  0  0  0  0  0  0  0  0  0  0
    6.5335    1.6594   -2.0960 C   0  0  0  0  0  0  0  0  0  0  0  0
    7.4552    2.0301   -2.5690 H   0  0  0  0  0  0  0  0  0  0  0  0
    5.6751    2.5558   -1.4385 C   0  0  0  0  0  0  0  0  0  0  0  0
    5.9230    3.6268   -1.3971 H   0  0  0  0  0  0  0  0  0  0  0  0
    4.4977    2.0905   -0.8359 C   0  0  0  0  0  0  0  0  0  0  0  0
    3.8095    2.7792   -0.3255 H   0  0  0  0  0  0  0  0  0  0  0  0
    2.0228   -1.2525   -1.0868 C   0  0  0  0  0  0  0  0  0  0  0  0
    1.3949   -0.9082   -2.3023 C   0  0  0  0  0  0  0  0  0  0  0  0
    1.3225    0.1474   -2.6073 H   0  0  0  0  0  0  0  0  0  0  0  0
    0.8584   -1.9148   -3.1156 C   0  0  0  0  0  0  0  0  0  0  0  0
    0.3687   -1.6474   -4.0640 H   0  0  0  0  0  0  0  0  0  0  0  0
    0.9510   -3.2623   -2.7239 C   0  0  0  0  0  0  0  0  0  0  0  0
    0.5339   -4.0509   -3.3680 H   0  0  0  0  0  0  0  0  0  0  0  0
    1.5812   -3.6035   -1.5169 C   0  0  0  0  0  0  0  0  0  0  0  0
    1.6607   -4.6582   -1.2138 H   0  0  0  0  0  0  0  0  0  0  0  0
    2.1191   -2.6010   -0.6935 C   0  0  0  0  0  0  0  0  0  0  0  0
    2.6105   -2.8680    0.2538 H   0  0  0  0  0  0  0  0  0  0  0  0
  1  2  1  0  0  0  0
  2  3  1  0  0  0  0
  2  4  1  0  0  0  0
  4  5  1  0  0  0  0
  6  7  1  0  0  0  0
  6  4  2  0  0  0  0
  8  6  1  0  0  0  0
  9  8  1  0  0  0  0
 10  8  2  0  0  0  0
 10  1  1  0  0  0  0
 11 10  1  0  0  0  0
 11 12  1  0  0  0  0
 13 11  2  0  0  0  0
 14 13  1  0  0  0  0
 14 15  1  0  0  0  0
 15 24  2  0  0  0  0
 15 16  1  0  0  0  0
 16 18  2  0  0  0  0
 17 16  1  0  0  0  0
 18 20  1  0  0  0  0
 18 19  1  0  0  0  0
 20 21  1  0  0  0  0
 22 23  1  0  0  0  0
 22 20  2  0  0  0  0
 24 22  1  0  0  0  0
 25 24  1  0  0  0  0
 26 35  1  0  0  0  0
 26 14  1  0  0  0  0
 27 26  2  0  0  0  0
 28 27  1  0  0  0  0
 29 31  2  0  0  0  0
 29 27  1  0  0  0  0
 30 29  1  0  0  0  0
 31 33  1  0  0  0  0
 32 31  1  0  0  0  0
 33 34  1  0  0  0  0
 33 35  2  0  0  0  0
 35 36  1  0  0  0  0
 37 46  1  0  0  0  0
 37 14  1  0  0  0  0
 38 37  2  0  0  0  0
 39 38  1  0  0  0  0
 40 42  2  0  0  0  0
 40 38  1  0  0  0  0
 41 40  1  0  0  0  0
 42 44  1  0  0  0  0
 43 42  1  0  0  0  0
 44 45  1  0  0  0  0
 44 46  2  0  0  0  0
 46 47  1  0  0  0  0
M  CHG  1  12  -1
M  END
