5,6
 OpenBabel05122313063D

 33 34  0  0  0  0  0  0  0  0999 V2000
   -3.8570    2.0929   -2.0816 S   0  0  0  0  0  0  0  0  0  0  0  0
   -2.4961    2.0270   -2.1492 H   0  0  0  0  0  0  0  0  0  0  0  0
   -7.0353   -2.0685   -0.5401 S   0  0  0  0  0  0  0  0  0  0  0  0
   -6.6654   -3.3022   -0.1007 H   0  0  0  0  0  0  0  0  0  0  0  0
   -1.6989    0.5759   -0.7034 O   0  5  0  0  0  0  0  0  0  0  0  0
   -0.6122   -1.7240    0.4688 N   0  0  0  0  0  2  0  0  0  0  0  0
   -2.8336   -0.0760   -0.6756 C   0  0  0  0  0  0  0  0  0  0  0  0
   -1.8761   -2.0748    0.4780 C   0  0  0  0  0  3  0  0  0  0  0  0
   -2.1274   -3.0276    0.9882 H   0  0  0  0  0  0  0  0  0  0  0  0
   -2.9932   -1.3727   -0.0885 C   0  0  0  0  0  0  0  0  0  0  0  0
   -4.2742   -1.9893   -0.0252 C   0  0  0  0  0  0  0  0  0  0  0  0
   -4.3588   -2.9698    0.4685 H   0  0  0  0  0  0  0  0  0  0  0  0
   -5.2365   -0.1235   -1.2301 C   0  0  0  0  0  0  0  0  0  0  0  0
   -6.1020    0.3496   -1.7194 H   0  0  0  0  0  0  0  0  0  0  0  0
   -5.3941   -1.3768   -0.5849 C   0  0  0  0  0  0  0  0  0  0  0  0
    0.3170   -2.6639    1.1374 C   0  0  0  0  0  0  0  0  0  0  0  0
   -0.3126   -3.3418    1.7621 H   0  0  0  0  0  0  0  0  0  0  0  0
   -4.0001    0.5237   -1.2691 C   0  0  0  0  0  0  0  0  0  0  0  0
    1.0561   -3.5427    0.1183 C   0  0  0  0  0  0  0  0  0  0  0  0
    1.6204   -2.8762   -0.5582 H   0  0  0  0  0  0  0  0  0  0  0  0
    0.3104   -4.0910   -0.4953 H   0  0  0  0  0  0  0  0  0  0  0  0
    1.2758   -1.9423    2.0973 C   0  0  0  0  0  0  0  0  0  0  0  0
    0.6825   -1.3809    2.8499 H   0  0  0  0  0  0  0  0  0  0  0  0
    1.8637   -1.1969    1.5277 H   0  0  0  0  0  0  0  0  0  0  0  0
    2.9928   -3.7682    1.7348 C   0  0  0  0  0  0  0  0  0  0  0  0
    3.6342   -3.0975    1.1211 H   0  0  0  0  0  0  0  0  0  0  0  0
    3.6732   -4.4858    2.2388 H   0  0  0  0  0  0  0  0  0  0  0  0
    2.0237   -4.5118    0.8072 C   0  0  0  0  0  0  0  0  0  0  0  0
    1.4491   -5.2607    1.3990 H   0  0  0  0  0  0  0  0  0  0  0  0
    2.5846   -5.0821    0.0379 H   0  0  0  0  0  0  0  0  0  0  0  0
    2.2298   -2.9356    2.7728 C   0  0  0  0  0  0  0  0  0  0  0  0
    2.9349   -2.3860    3.4302 H   0  0  0  0  0  0  0  0  0  0  0  0
    1.6510   -3.6172    3.4372 H   0  0  0  0  0  0  0  0  0  0  0  0
  1 18  1  0  0  0  0
  2  1  1  0  0  0  0
  3  4  1  0  0  0  0
  5  7  1  0  0  0  0
  6  8  1  0  0  0  0
  6 16  1  0  0  0  0
  7 10  1  0  0  0  0
  8  9  1  0  0  0  0
 10 11  2  0  0  0  0
 10  8  1  0  0  0  0
 11 12  1  0  0  0  0
 13 15  2  0  0  0  0
 14 13  1  0  0  0  0
 15  3  1  0  0  0  0
 15 11  1  0  0  0  0
 16 17  1  0  0  0  0
 16 22  1  0  0  0  0
 18 13  1  0  0  0  0
 18  7  2  0  0  0  0
 19 28  1  0  0  0  0
 19 16  1  0  0  0  0
 20 19  1  0  0  0  0
 21 19  1  0  0  0  0
 22 31  1  0  0  0  0
 22 23  1  0  0  0  0
 24 22  1  0  0  0  0
 25 27  1  0  0  0  0
 25 31  1  0  0  0  0
 26 25  1  0  0  0  0
 28 29  1  0  0  0  0
 28 25  1  0  0  0  0
 30 28  1  0  0  0  0
 31 32  1  0  0  0  0
 31 33  1  0  0  0  0
M  CHG  1   5  -1
M  END
