1,2
 OpenBabel05122313063D

 17 18  0  0  0  0  0  0  0  0999 V2000
    0.5167   -0.3774   -2.9146 O   0  0  0  0  0  1  0  0  0  0  0  0
    1.5414   -1.9644   -0.9090 N   0  0  0  0  0  0  0  0  0  0  0  0
    1.4267   -1.1971   -3.1923 C   0  0  0  0  0  3  0  0  0  0  0  0
    1.8021   -1.2695   -4.2451 H   0  0  0  0  0  0  0  0  0  0  0  0
    2.0204   -2.0536   -2.2084 C   0  0  0  0  0  0  0  0  0  0  0  0
    3.0885   -2.9810   -2.3147 C   0  0  0  0  0  0  0  0  0  0  0  0
    3.6415   -3.2393   -3.2259 H   0  0  0  0  0  0  0  0  0  0  0  0
    3.2845   -3.4861   -1.0048 C   0  0  0  0  0  0  0  0  0  0  0  0
    4.1789   -4.4208   -0.4136 C   0  0  0  0  0  3  0  0  0  0  0  0
    4.9296   -4.9399   -1.0300 H   0  0  0  0  0  0  0  0  0  0  0  0
    4.0910   -4.6656    0.9526 C   0  0  0  0  0  0  0  0  0  0  0  0
    4.7776   -5.3858    1.4236 H   0  0  0  0  0  0  0  0  0  0  0  0
    3.1268   -3.9948    1.7664 C   0  0  0  0  0  0  0  0  0  0  0  0
    3.0966   -4.2114    2.8456 H   0  0  0  0  0  0  0  0  0  0  0  0
    2.2322   -3.0757    1.2270 C   0  0  0  0  0  0  0  0  0  0  0  0
    1.4904   -2.5526    1.8497 H   0  0  0  0  0  0  0  0  0  0  0  0
    2.2973   -2.8166   -0.1666 C   0  0  0  0  0  0  0  0  0  0  0  0
  2 17  1  0  0  0  0
  3  1  1  0  0  0  0
  3  5  1  0  0  0  0
  4  3  1  0  0  0  0
  5  2  2  0  0  0  0
  6  5  1  0  0  0  0
  6  8  2  0  0  0  0
  7  6  1  0  0  0  0
  8  9  1  0  0  0  0
  8 17  1  0  0  0  0
  9 11  1  0  0  0  0
 10  9  1  0  0  0  0
 11 12  1  0  0  0  0
 11 13  2  0  0  0  0
 13 14  1  0  0  0  0
 15 13  1  0  0  0  0
 15 16  1  0  0  0  0
 17 15  2  0  0  0  0
M  END
