3,5
 OpenBabel05122313063D

 25 26  0  0  1  0  0  0  0  0999 V2000
   -2.5207   -3.1603    0.0303 Cl  0  0  0  0  0  0  0  0  0  0  0  0
   -3.0120   -1.2630   -2.1733 Cl  0  0  0  0  0  0  0  0  0  0  0  0
   -0.2219   -1.4347   -0.1936 O   0  5  0  0  0  0  0  0  0  0  0  0
    0.2074    2.4120    0.1488 O   0  0  0  0  0  1  0  0  0  0  0  0
   -0.0290    1.2194    0.0279 N   0  0  0  0  0  2  0  0  0  0  0  0
   -1.2782   -0.7429   -0.2128 C   0  0  0  0  0  0  0  0  0  0  0  0
   -1.2813    0.6851   -0.0926 C   0  0  0  0  0  0  0  0  0  0  0  0
   -2.5249    1.4656   -0.1180 C   0  0  0  0  0  0  0  0  0  0  0  0
   -3.7453    0.7511    0.0469 C   0  0  0  0  0  0  0  0  0  0  0  0
   -3.6966   -0.7200    0.4126 C   0  0  1  0  0  0  0  0  0  0  0  0
   -2.6199   -1.4466   -0.4147 C   0  0  0  0  0  0  0  0  0  0  0  0
   -2.5747    2.8587   -0.3419 C   0  0  0  0  0  0  0  0  0  0  0  0
   -3.8092    3.5207   -0.4116 C   0  0  0  0  0  0  0  0  0  0  0  0
   -5.0088    2.8120   -0.2602 C   0  0  0  0  0  0  0  0  0  0  0  0
   -4.9685    1.4274   -0.0301 C   0  0  0  0  0  0  0  0  0  0  0  0
   -3.3006   -0.9128    1.7572 O   0  0  0  0  0  0  0  0  0  0  0  0
   -4.2413   -0.4826    2.7211 C   0  0  0  0  0  0  0  0  0  0  0  0
   -4.6805   -1.2027    0.2013 H   0  0  0  0  0  0  0  0  0  0  0  0
   -1.6411    3.4188   -0.4678 H   0  0  0  0  0  0  0  0  0  0  0  0
   -3.8278    4.6060   -0.5906 H   0  0  0  0  0  0  0  0  0  0  0  0
   -5.9756    3.3338   -0.3183 H   0  0  0  0  0  0  0  0  0  0  0  0
   -5.9030    0.8577    0.0938 H   0  0  0  0  0  0  0  0  0  0  0  0
   -4.4144    0.6170    2.6843 H   0  0  0  0  0  0  0  0  0  0  0  0
   -3.8247   -0.7471    3.7109 H   0  0  0  0  0  0  0  0  0  0  0  0
   -5.2226   -0.9985    2.5921 H   0  0  0  0  0  0  0  0  0  0  0  0
  2 11  1  0  0  0  0
  5  4  1  0  0  0  0
  6  3  1  0  0  0  0
  6  7  2  0  0  0  0
  7  5  1  0  0  0  0
  8  7  1  0  0  0  0
  8  9  1  0  0  0  0
  9 10  1  0  0  0  0
 10 18  1  6  0  0  0
 10 16  1  0  0  0  0
 11  6  1  0  0  0  0
 11  1  1  0  0  0  0
 11 10  1  0  0  0  0
 12  8  2  0  0  0  0
 13 12  1  0  0  0  0
 13 14  2  0  0  0  0
 14 15  1  0  0  0  0
 15  9  2  0  0  0  0
 15 22  1  0  0  0  0
 16 17  1  0  0  0  0
 17 24  1  0  0  0  0
 19 12  1  0  0  0  0
 20 13  1  0  0  0  0
 21 14  1  0  0  0  0
 23 17  1  0  0  0  0
 25 17  1  0  0  0  0
M  CHG  1   3  -1
M  END
