2,3
 OpenBabel05122313063D

 25 26  0  0  0  0  0  0  0  0999 V2000
   -5.8954    1.8049    2.0059 Cl  0  0  0  0  0  0  0  0  0  0  0  0
    1.6512    0.5598   -1.7246 O   0  5  0  0  0  0  0  0  0  0  0  0
   -0.3288    1.4929   -0.1422 N   0  0  0  0  0  2  0  0  0  0  0  0
    1.8353    2.6066   -0.4659 C   0  0  0  0  0  0  0  0  0  0  0  0
    2.3433    1.6208   -1.3948 C   0  0  0  0  0  0  0  0  0  0  0  0
    3.6407    1.8144   -1.9510 C   0  0  0  0  0  0  0  0  0  0  0  0
    4.0066    1.0528   -2.6547 H   0  0  0  0  0  0  0  0  0  0  0  0
    4.4142    2.9109   -1.5908 C   0  0  0  0  0  0  0  0  0  0  0  0
    5.4208    3.0299   -2.0204 H   0  0  0  0  0  0  0  0  0  0  0  0
    3.9253    3.8749   -0.6693 C   0  0  0  0  0  0  0  0  0  0  0  0
    4.5467    4.7395   -0.3941 H   0  0  0  0  0  0  0  0  0  0  0  0
    2.6595    3.7214   -0.1237 C   0  0  0  0  0  0  0  0  0  0  0  0
    2.2645    4.4673    0.5845 H   0  0  0  0  0  0  0  0  0  0  0  0
    0.5276    2.4963    0.0822 C   0  0  0  0  0  3  0  0  0  0  0  0
    0.1871    3.2993    0.7619 H   0  0  0  0  0  0  0  0  0  0  0  0
   -1.6450    1.5869    0.3965 C   0  0  0  0  0  0  0  0  0  0  0  0
   -2.4468    2.7164    0.1352 C   0  0  0  0  0  0  0  0  0  0  0  0
   -2.0496    3.5296   -0.4900 H   0  0  0  0  0  0  0  0  0  0  0  0
   -3.7536    2.7895    0.6334 C   0  0  0  0  0  0  0  0  0  0  0  0
   -4.3875    3.6617    0.4211 H   0  0  0  0  0  0  0  0  0  0  0  0
   -4.2634    1.7254    1.3953 C   0  0  0  0  0  0  0  0  0  0  0  0
   -3.4735    0.5948    1.6649 C   0  0  0  0  0  0  0  0  0  0  0  0
   -3.8854   -0.2305    2.2619 H   0  0  0  0  0  0  0  0  0  0  0  0
   -2.1687    0.5300    1.1668 C   0  0  0  0  0  0  0  0  0  0  0  0
   -1.5422   -0.3470    1.3755 H   0  0  0  0  0  0  0  0  0  0  0  0
  2  5  1  0  0  0  0
  3 14  1  0  0  0  0
  3 16  1  0  0  0  0
  4 12  1  0  0  0  0
  4 14  1  0  0  0  0
  5  4  2  0  0  0  0
  6  8  2  0  0  0  0
  6  5  1  0  0  0  0
  7  6  1  0  0  0  0
  8 10  1  0  0  0  0
  9  8  1  0  0  0  0
 10 11  1  0  0  0  0
 10 12  2  0  0  0  0
 12 13  1  0  0  0  0
 14 15  1  0  0  0  0
 16 24  1  0  0  0  0
 17 16  2  0  0  0  0
 17 19  1  0  0  0  0
 18 17  1  0  0  0  0
 19 21  2  0  0  0  0
 20 19  1  0  0  0  0
 21 22  1  0  0  0  0
 21  1  1  0  0  0  0
 22 23  1  0  0  0  0
 24 25  1  0  0  0  0
 24 22  2  0  0  0  0
M  CHG  1   2  -1
M  END
