1,3
 OpenBabel05122313063D

 29 30  0  0  1  0  0  0  0  0999 V2000
   -0.5187    0.3002   -1.7493 O   0  5  0  0  0  0  0  0  0  0  0  0
   -2.0504    1.9493   -1.9002 O   0  0  0  0  0  0  0  0  0  0  0  0
   -1.4339   -0.5739    0.5879 N   0  0  0  0  0  0  0  0  0  0  0  0
   -1.2393   -0.6754    1.5985 H   0  0  0  0  0  0  0  0  0  0  0  0
   -2.5663   -1.4488    0.2078 C   0  0  0  0  0  0  0  0  0  0  0  0
   -2.4424   -2.4390    0.6849 H   0  0  0  0  0  0  0  0  0  0  0  0
   -2.5176   -1.5872   -0.8909 H   0  0  0  0  0  0  0  0  0  0  0  0
   -3.8175   -0.6550    0.6170 C   0  0  0  0  0  0  0  0  0  0  0  0
   -4.7083   -0.9484    0.0264 H   0  0  0  0  0  0  0  0  0  0  0  0
   -4.0548   -0.8479    1.6849 H   0  0  0  0  0  0  0  0  0  0  0  0
   -3.4064    0.8222    0.4042 C   0  0  0  0  0  0  0  0  0  0  0  0
   -3.7006    1.4501    1.2706 H   0  0  0  0  0  0  0  0  0  0  0  0
   -3.8470    1.2828   -0.5020 H   0  0  0  0  0  0  0  0  0  0  0  0
   -1.8633    0.8087    0.2221 C   0  0  2  0  0  0  0  0  0  0  0  0
   -1.4683    1.0475   -1.2851 C   0  0  0  0  0  0  0  0  0  0  0  0
   -1.1658    1.8804    1.0912 C   0  0  0  0  0  0  0  0  0  0  0  0
   -1.6352    2.8436    0.8051 H   0  0  0  0  0  0  0  0  0  0  0  0
   -1.4336    1.6844    2.1543 H   0  0  0  0  0  0  0  0  0  0  0  0
    0.3347    1.9698    0.9368 C   0  0  0  0  0  0  0  0  0  0  0  0
    1.1960    1.2363    1.7767 C   0  0  0  0  0  0  0  0  0  0  0  0
    0.7793    0.6032    2.5756 H   0  0  0  0  0  0  0  0  0  0  0  0
    2.5819    1.2460    1.5690 C   0  0  0  0  0  0  0  0  0  0  0  0
    3.2276    0.6228    2.2050 H   0  0  0  0  0  0  0  0  0  0  0  0
    3.1277    1.9923    0.5152 C   0  0  0  0  0  0  0  0  0  0  0  0
    4.2126    1.9742    0.3294 H   0  0  0  0  0  0  0  0  0  0  0  0
    2.2812    2.7346   -0.3221 C   0  0  0  0  0  0  0  0  0  0  0  0
    2.7004    3.3055   -1.1650 H   0  0  0  0  0  0  0  0  0  0  0  0
    0.8956    2.7256   -0.1122 C   0  0  0  0  0  0  0  0  0  0  0  0
    0.2267    3.2705   -0.7966 H   0  0  0  0  0  0  0  0  0  0  0  0
  1 15  1  0  0  0  0
  2 15  2  0  0  0  0
  3  4  1  0  0  0  0
  5  3  1  0  0  0  0
  5  8  1  0  0  0  0
  5  6  1  0  0  0  0
  7  5  1  0  0  0  0
  8 10  1  0  0  0  0
  9  8  1  0  0  0  0
 11  8  1  0  0  0  0
 11 12  1  0  0  0  0
 13 11  1  0  0  0  0
 14 15  1  6  0  0  0
 14 11  1  0  0  0  0
 14  3  1  0  0  0  0
 14 16  1  0  0  0  0
 16 18  1  0  0  0  0
 17 16  1  0  0  0  0
 19 16  1  0  0  0  0
 19 20  1  0  0  0  0
 20 21  1  0  0  0  0
 22 20  2  0  0  0  0
 22 23  1  0  0  0  0
 24 22  1  0  0  0  0
 25 24  1  0  0  0  0
 26 28  1  0  0  0  0
 26 24  2  0  0  0  0
 27 26  1  0  0  0  0
 28 19  2  0  0  0  0
 29 28  1  0  0  0  0
M  CHG  1   1  -1
M  END
