1,7
 OpenBabel05122313063D

 17 17  0  0  0  0  0  0  0  0999 V2000
   -1.5543    1.2519    0.0010 O   0  5  0  0  0  0  0  0  0  0  0  0
   -2.8306    0.8873    0.0005 C   0  0  0  0  0  0  0  0  0  0  0  0
   -3.3135   -0.4711    0.0002 C   0  0  0  0  0  0  0  0  0  0  0  0
   -2.4573   -1.6552    0.0002 C   0  0  0  0  0  0  0  0  0  0  0  0
   -3.0522   -2.8592    0.0005 O   0  0  0  0  0  0  0  0  0  0  0  0
   -2.3209   -3.5201    0.0003 H   0  0  0  0  0  0  0  0  0  0  0  0
   -1.1446   -1.6036   -0.0004 N   0  0  0  0  0  2  0  0  0  0  0  0
   -0.5212   -2.8391   -0.0004 O   0  0  0  0  0  0  0  0  0  0  0  0
    0.4511   -2.5781   -0.0007 H   0  0  0  0  0  0  0  0  0  0  0  0
   -4.7159   -0.7000   -0.0000 C   0  0  0  0  0  3  0  0  0  0  0  0
   -5.6353    0.3452   -0.0001 C   0  0  0  0  0  0  0  0  0  0  0  0
   -5.1619    1.6727    0.0000 C   0  0  0  0  0  0  0  0  0  0  0  0
   -3.7941    1.9333    0.0003 C   0  0  0  0  0  0  0  0  0  0  0  0
   -3.4132    2.9651    0.0004 H   0  0  0  0  0  0  0  0  0  0  0  0
   -5.8716    2.5144   -0.0001 H   0  0  0  0  0  0  0  0  0  0  0  0
   -6.7139    0.1333   -0.0003 H   0  0  0  0  0  0  0  0  0  0  0  0
   -5.0647   -1.7415   -0.0001 H   0  0  0  0  0  0  0  0  0  0  0  0
  2  1  1  0  0  0  0
  3  2  1  0  0  0  0
  4  3  2  0  0  0  0
  4  5  1  0  0  0  0
  6  5  1  0  0  0  0
  7  4  1  0  0  0  0
  8  7  1  0  0  0  0
  9  8  1  0  0  0  0
 10  3  1  0  0  0  0
 11 10  1  0  0  0  0
 11 12  2  0  0  0  0
 12 13  1  0  0  0  0
 13 14  1  0  0  0  0
 13  2  2  0  0  0  0
 15 12  1  0  0  0  0
 16 11  1  0  0  0  0
 17 10  1  0  0  0  0
M  CHG  1   1  -1
M  END
