1,2
 OpenBabel05122313063D

 28 29  0  0  0  0  0  0  0  0999 V2000
    1.5331    0.0809    0.0242 N   0  0  0  0  0  2  0  0  0  0  0  0
   -0.9578    1.6322    0.2172 O   0  5  0  0  0  0  0  0  0  0  0  0
    5.4039   -3.9244    0.0134 F   0  0  0  0  0  0  0  0  0  0  0  0
   -0.1397    2.6499    0.1632 C   0  0  0  0  0  0  0  0  0  0  0  0
    1.2924    2.5518    0.0402 C   0  0  0  0  0  0  0  0  0  0  0  0
    2.0687    3.7509   -0.0093 C   0  0  0  0  0  3  0  0  0  0  0  0
    3.1630    3.6490   -0.1000 H   0  0  0  0  0  0  0  0  0  0  0  0
    1.5067    5.0206    0.0523 C   0  0  0  0  0  0  0  0  0  0  0  0
    0.0893    5.0960    0.1803 C   0  0  0  0  0  0  0  0  0  0  0  0
   -0.3900    6.0873    0.2371 H   0  0  0  0  0  0  0  0  0  0  0  0
   -0.7044    3.9608    0.2381 C   0  0  0  0  0  0  0  0  0  0  0  0
   -1.7969    4.0306    0.3423 H   0  0  0  0  0  0  0  0  0  0  0  0
    2.0070    1.3133    0.0025 C   0  0  0  0  0  0  0  0  0  0  0  0
    3.1097    1.3996   -0.0212 H   0  0  0  0  0  0  0  0  0  0  0  0
    2.5157   -0.9679    0.0109 C   0  0  0  0  0  0  0  0  0  0  0  0
    3.3508   -1.1349   -1.1067 C   0  0  0  0  0  0  0  0  0  0  0  0
    3.2119   -0.4884   -1.9854 H   0  0  0  0  0  0  0  0  0  0  0  0
    4.3332   -2.1356   -1.1116 C   0  0  0  0  0  0  0  0  0  0  0  0
    4.9921   -2.2910   -1.9775 H   0  0  0  0  0  0  0  0  0  0  0  0
    4.4632   -2.9608    0.0103 C   0  0  0  0  0  0  0  0  0  0  0  0
    3.6357   -2.8105    1.1316 C   0  0  0  0  0  0  0  0  0  0  0  0
    3.7665   -3.4822    1.9917 H   0  0  0  0  0  0  0  0  0  0  0  0
    2.6532   -1.8155    1.1251 C   0  0  0  0  0  0  0  0  0  0  0  0
    1.9796   -1.6856    1.9831 H   0  0  0  0  0  0  0  0  0  0  0  0
    2.3404    6.2753   -0.0070 C   0  0  0  0  0  0  0  0  0  0  0  0
    2.2036    6.8987    0.9020 H   0  0  0  0  0  0  0  0  0  0  0  0
    2.0601    6.9102   -0.8742 H   0  0  0  0  0  0  0  0  0  0  0  0
    3.4194    6.0432   -0.0959 H   0  0  0  0  0  0  0  0  0  0  0  0
  4  2  1  0  0  0  0
  4 11  2  0  0  0  0
  5  4  1  0  0  0  0
  6  5  1  0  0  0  0
  6  8  1  0  0  0  0
  7  6  1  0  0  0  0
  8  9  2  0  0  0  0
  9 10  1  0  0  0  0
  9 11  1  0  0  0  0
 11 12  1  0  0  0  0
 13  1  1  0  0  0  0
 13  5  2  0  0  0  0
 14 13  1  0  0  0  0
 15  1  1  0  0  0  0
 15 23  1  0  0  0  0
 16 15  2  0  0  0  0
 17 16  1  0  0  0  0
 18 16  1  0  0  0  0
 18 20  2  0  0  0  0
 19 18  1  0  0  0  0
 20  3  1  0  0  0  0
 20 21  1  0  0  0  0
 21 22  1  0  0  0  0
 23 21  2  0  0  0  0
 23 24  1  0  0  0  0
 25  8  1  0  0  0  0
 25 26  1  0  0  0  0
 27 25  1  0  0  0  0
 28 25  1  0  0  0  0
M  CHG  1   2  -1
M  END
