3,4
 OpenBabel05122313063D

 43 44  0  0  0  0  0  0  0  0999 V2000
   -2.1533    3.6250    0.2058 Cl  0  0  0  0  0  0  0  0  0  0  0  0
    2.7190    5.8963   -0.6258 Cl  0  0  0  0  0  0  0  0  0  0  0  0
    1.6961   -0.4337   -0.0128 N   0  0  0  0  0  2  0  0  0  0  0  0
   -0.6406    1.1179    0.2109 O   0  5  0  0  0  0  0  0  0  0  0  0
    2.2179    0.7654   -0.1907 C   0  0  0  0  0  0  0  0  0  0  0  0
    3.3072    0.8075   -0.3939 H   0  0  0  0  0  0  0  0  0  0  0  0
    1.5534    2.0366   -0.1712 C   0  0  0  0  0  0  0  0  0  0  0  0
    2.3408    3.2050   -0.3723 C   0  0  0  0  0  3  0  0  0  0  0  0
    3.4265    3.1082   -0.5197 H   0  0  0  0  0  0  0  0  0  0  0  0
    1.7501    4.4614   -0.3828 C   0  0  0  0  0  0  0  0  0  0  0  0
    0.3523    4.5988   -0.2016 C   0  0  0  0  0  0  0  0  0  0  0  0
   -0.1139    5.5929   -0.2164 H   0  0  0  0  0  0  0  0  0  0  0  0
   -0.4258    3.4640   -0.0087 C   0  0  0  0  0  0  0  0  0  0  0  0
    0.1282    2.1359    0.0232 C   0  0  0  0  0  0  0  0  0  0  0  0
    2.6419   -1.5105   -0.0920 C   0  0  0  0  0  0  0  0  0  0  0  0
    3.5124   -1.7628    1.0023 C   0  0  0  0  0  0  0  0  0  0  0  0
    4.4113   -2.8403    0.8835 C   0  0  0  0  0  0  0  0  0  0  0  0
    5.0994   -3.0632    1.7108 H   0  0  0  0  0  0  0  0  0  0  0  0
    4.4453   -3.6370   -0.2683 C   0  0  0  0  0  0  0  0  0  0  0  0
    5.1592   -4.4718   -0.3366 H   0  0  0  0  0  0  0  0  0  0  0  0
    3.5695   -3.3754   -1.3287 C   0  0  0  0  0  0  0  0  0  0  0  0
    3.5974   -4.0104   -2.2262 H   0  0  0  0  0  0  0  0  0  0  0  0
    2.6506   -2.3130   -1.2612 C   0  0  0  0  0  0  0  0  0  0  0  0
    1.6912   -2.0023   -2.4017 C   0  0  0  0  0  0  0  0  0  0  0  0
    0.7950   -1.5444   -1.9240 H   0  0  0  0  0  0  0  0  0  0  0  0
    2.2906   -0.9561   -3.3584 C   0  0  0  0  0  0  0  0  0  0  0  0
    2.5604   -0.0216   -2.8277 H   0  0  0  0  0  0  0  0  0  0  0  0
    1.5679   -0.6931   -4.1583 H   0  0  0  0  0  0  0  0  0  0  0  0
    3.2104   -1.3465   -3.8417 H   0  0  0  0  0  0  0  0  0  0  0  0
    1.2220   -3.2464   -3.1639 C   0  0  0  0  0  0  0  0  0  0  0  0
    2.0408   -3.7104   -3.7524 H   0  0  0  0  0  0  0  0  0  0  0  0
    0.4224   -2.9756   -3.8830 H   0  0  0  0  0  0  0  0  0  0  0  0
    0.8199   -4.0161   -2.4748 H   0  0  0  0  0  0  0  0  0  0  0  0
    3.4266   -0.9284    2.2797 C   0  0  0  0  0  0  0  0  0  0  0  0
    3.3390    0.1368    1.9750 H   0  0  0  0  0  0  0  0  0  0  0  0
    4.6659   -1.0324    3.1751 C   0  0  0  0  0  0  0  0  0  0  0  0
    4.7720   -2.0450    3.6167 H   0  0  0  0  0  0  0  0  0  0  0  0
    4.5847   -0.3183    4.0188 H   0  0  0  0  0  0  0  0  0  0  0  0
    5.5986   -0.8024    2.6215 H   0  0  0  0  0  0  0  0  0  0  0  0
    2.1481   -1.2731    3.0658 C   0  0  0  0  0  0  0  0  0  0  0  0
    1.2448   -1.1215    2.4407 H   0  0  0  0  0  0  0  0  0  0  0  0
    2.0570   -0.6353    3.9686 H   0  0  0  0  0  0  0  0  0  0  0  0
    2.1614   -2.3346    3.3883 H   0  0  0  0  0  0  0  0  0  0  0  0
  2 10  1  0  0  0  0
  5  7  2  0  0  0  0
  5  3  1  0  0  0  0
  6  5  1  0  0  0  0
  7 14  1  0  0  0  0
  8  7  1  0  0  0  0
  9  8  1  0  0  0  0
 10  8  1  0  0  0  0
 10 11  2  0  0  0  0
 11 13  1  0  0  0  0
 12 11  1  0  0  0  0
 13 14  2  0  0  0  0
 13  1  1  0  0  0  0
 14  4  1  0  0  0  0
 15  3  1  0  0  0  0
 15 16  1  0  0  0  0
 16 34  1  0  0  0  0
 17 16  2  0  0  0  0
 17 18  1  0  0  0  0
 19 17  1  0  0  0  0
 20 19  1  0  0  0  0
 21 23  1  0  0  0  0
 21 19  2  0  0  0  0
 22 21  1  0  0  0  0
 23 15  2  0  0  0  0
 24 25  1  0  0  0  0
 24 23  1  0  0  0  0
 26 27  1  0  0  0  0
 26 24  1  0  0  0  0
 28 26  1  0  0  0  0
 29 26  1  0  0  0  0
 30 33  1  0  0  0  0
 30 24  1  0  0  0  0
 31 30  1  0  0  0  0
 32 30  1  0  0  0  0
 34 40  1  0  0  0  0
 34 36  1  0  0  0  0
 35 34  1  0  0  0  0
 36 37  1  0  0  0  0
 36 38  1  0  0  0  0
 39 36  1  0  0  0  0
 40 43  1  0  0  0  0
 40 42  1  0  0  0  0
 41 40  1  0  0  0  0
M  CHG  1   4  -1
M  END
