1,2
 OpenBabel05122313063D

 25 25  0  0  1  0  0  0  0  0999 V2000
    1.3822   -1.0746   -0.5993 O   0  0  0  0  0  1  0  0  0  0  0  0
    1.0462    1.5590   -0.3360 N   0  0  0  0  0  2  0  0  0  0  0  0
    2.6314   -0.8629   -0.2781 C   0  0  1  0  0  3  0  0  0  0  0  0
    3.5059   -1.9907   -0.2118 C   0  0  0  0  0  0  0  0  0  0  0  0
    3.0748   -2.9741   -0.4508 H   0  0  0  0  0  0  0  0  0  0  0  0
    4.8352   -1.8535    0.1718 C   0  0  0  0  0  0  0  0  0  0  0  0
    5.4757   -2.7469    0.2394 H   0  0  0  0  0  0  0  0  0  0  0  0
    5.3616   -0.5815    0.4911 C   0  0  0  0  0  0  0  0  0  0  0  0
    6.4046   -0.4741    0.8217 H   0  0  0  0  0  0  0  0  0  0  0  0
    4.5436    0.5392    0.3770 C   0  0  0  0  0  0  0  0  0  0  0  0
    4.9641    1.5235    0.6281 H   0  0  0  0  0  0  0  0  0  0  0  0
    3.1812    0.4455   -0.0206 C   0  0  0  0  0  0  0  0  0  0  0  0
    2.3653    1.6292   -0.2682 C   0  0  0  0  0  0  0  0  0  0  0  0
    3.0595    2.9467   -0.5271 C   0  0  0  0  0  0  0  0  0  0  0  0
    2.8380    3.2944   -1.5578 H   0  0  0  0  0  0  0  0  0  0  0  0
    4.1540    2.8650   -0.4420 H   0  0  0  0  0  0  0  0  0  0  0  0
    2.6936    3.7353    0.1590 H   0  0  0  0  0  0  0  0  0  0  0  0
    0.2904    2.7706   -0.7055 C   0  0  0  0  0  0  0  0  0  0  0  0
   -0.6897    2.4335   -1.0926 H   0  0  0  0  0  0  0  0  0  0  0  0
    0.7991    3.3148   -1.5289 H   0  0  0  0  0  0  0  0  0  0  0  0
    0.0429    3.6914    0.4625 C   0  0  0  0  0  0  0  0  0  0  0  0
   -0.3659    3.1880    1.3539 H   0  0  0  0  0  0  0  0  0  0  0  0
    0.2410    5.0208    0.4455 C   0  0  0  0  0  0  0  0  0  0  0  0
    0.6424    5.5355   -0.4446 H   0  0  0  0  0  0  0  0  0  0  0  0
   -0.0052    5.6489    1.3158 H   0  0  0  0  0  0  0  0  0  0  0  0
  2 13  1  0  0  0  0
  3  1  1  6  0  0  0
  3  4  1  0  0  0  0
  3 12  1  0  0  0  0
  4  6  2  0  0  0  0
  5  4  1  0  0  0  0
  6  7  1  0  0  0  0
  6  8  1  0  0  0  0
  8  9  1  0  0  0  0
 10  8  2  0  0  0  0
 10 11  1  0  0  0  0
 12 10  1  0  0  0  0
 13 12  2  0  0  0  0
 14 16  1  0  0  0  0
 14 13  1  0  0  0  0
 14 17  1  0  0  0  0
 15 14  1  0  0  0  0
 18  2  1  0  0  0  0
 18 21  1  0  0  0  0
 19 18  1  0  0  0  0
 20 18  1  0  0  0  0
 21 22  1  0  0  0  0
 23 21  2  0  0  0  0
 23 25  1  0  0  0  0
 24 23  1  0  0  0  0
M  END
