1,4
 OpenBabel05122313063D

 14 14  0  0  1  0  0  0  0  0999 V2000
   -0.6666   -2.0418    0.2748 O   0  5  0  0  0  0  0  0  0  0  0  0
   -2.4651   -3.3789    0.3297 O   0  0  0  0  0  0  0  0  0  0  0  0
   -4.8056    2.4387   -0.3341 O   0  0  0  0  0  0  0  0  0  0  0  0
   -2.2985    0.0818   -0.3588 N   0  0  0  0  0  2  0  0  0  0  0  0
   -2.8754    1.2122   -0.6143 N   0  0  0  0  0  2  0  0  0  0  0  0
   -1.9571   -2.2627    0.1935 C   0  0  0  0  0  0  0  0  0  0  0  0
   -2.8403   -1.0837   -0.0982 C   0  0  2  0  0  3  0  0  0  0  0  0
   -4.3293   -1.1645   -0.1178 C   0  0  0  0  0  0  0  0  0  0  0  0
   -4.6949   -1.3454   -1.1549 H   0  0  0  0  0  0  0  0  0  0  0  0
   -4.6221   -2.0572    0.4749 H   0  0  0  0  0  0  0  0  0  0  0  0
   -4.8808    0.1404    0.4437 C   0  0  0  0  0  0  0  0  0  0  0  0
   -4.6710    0.2163    1.5339 H   0  0  0  0  0  0  0  0  0  0  0  0
   -5.9704    0.2542    0.3025 H   0  0  0  0  0  0  0  0  0  0  0  0
   -4.2130    1.3853   -0.1944 C   0  0  0  0  0  0  0  0  0  0  0  0
  3 14  2  0  0  0  0
  4  7  1  0  0  0  0
  5  4  1  0  0  0  0
  5 14  1  0  0  0  0
  6  1  1  0  0  0  0
  6  2  2  0  0  0  0
  7  6  1  6  0  0  0
  8  7  1  0  0  0  0
  8 11  1  0  0  0  0
  8 10  1  0  0  0  0
  9  8  1  0  0  0  0
 11 12  1  0  0  0  0
 13 11  1  0  0  0  0
 14 11  1  0  0  0  0
M  CHG  1   1  -1
M  END
