1,2
 OpenBabel05122313063D

 37 37  0  0  0  0  0  0  0  0999 V2000
   -1.8946   -0.3883   -0.6694 O   0  5  0  0  0  0  0  0  0  0  0  0
   -0.1553    2.0612   -0.4272 N   0  0  0  0  0  0  0  0  0  0  0  0
   -2.6767    1.8771   -0.4824 C   0  0  0  0  0  0  0  0  0  0  0  0
   -5.1168    0.9296    0.4802 C   0  0  0  0  0  0  0  0  0  0  0  0
   -6.0823    0.5224    0.8231 H   0  0  0  0  0  0  0  0  0  0  0  0
   -2.8591    0.4686   -0.3425 C   0  0  0  0  0  0  0  0  0  0  0  0
   -4.4132   -1.4843    0.1909 C   0  0  0  0  0  0  0  0  0  0  0  0
   -4.1503   -1.8513    1.2091 H   0  0  0  0  0  0  0  0  0  0  0  0
   -3.7243   -2.0202   -0.5148 H   0  0  0  0  0  0  0  0  0  0  0  0
   -4.9176    2.3238    0.4131 C   0  0  0  0  0  0  0  0  0  0  0  0
   -4.1320    0.0028    0.1108 C   0  0  0  0  0  0  0  0  0  0  0  0
   -5.8111   -1.8276   -0.0452 N   0  0  0  0  0  0  0  0  0  0  0  0
   -3.6840    2.7735   -0.0891 C   0  0  0  0  0  0  0  0  0  0  0  0
   -3.5052    3.8567   -0.2016 H   0  0  0  0  0  0  0  0  0  0  0  0
   -0.1172    2.7689    0.8702 C   0  0  0  0  0  0  0  0  0  0  0  0
    0.8070    2.4774    1.4021 H   0  0  0  0  0  0  0  0  0  0  0  0
   -0.1291    3.8716    0.7094 H   0  0  0  0  0  0  0  0  0  0  0  0
   -1.0059    2.4845    1.4639 H   0  0  0  0  0  0  0  0  0  0  0  0
    0.9896    2.4743   -1.2651 C   0  0  0  0  0  0  0  0  0  0  0  0
    1.9223    2.2255   -0.7338 H   0  0  0  0  0  0  0  0  0  0  0  0
    0.9572    1.9255   -2.2248 H   0  0  0  0  0  0  0  0  0  0  0  0
    0.9418    3.5685   -1.4671 H   0  0  0  0  0  0  0  0  0  0  0  0
   -1.4295    2.3470   -1.1633 C   0  0  0  0  0  0  0  0  0  0  0  0
   -1.4815    3.4448   -1.3438 H   0  0  0  0  0  0  0  0  0  0  0  0
   -1.3220    1.8417   -2.1463 H   0  0  0  0  0  0  0  0  0  0  0  0
   -6.1310   -3.1671    0.4031 C   0  0  0  0  0  0  0  0  0  0  0  0
   -5.8929   -3.2778    1.4812 H   0  0  0  0  0  0  0  0  0  0  0  0
   -7.2148   -3.3638    0.2705 H   0  0  0  0  0  0  0  0  0  0  0  0
   -5.5737   -3.9718   -0.1519 H   0  0  0  0  0  0  0  0  0  0  0  0
   -5.9899    3.2849    0.8634 C   0  0  0  0  0  0  0  0  0  0  0  0
   -6.9849    3.0068    0.4584 H   0  0  0  0  0  0  0  0  0  0  0  0
   -6.0900    3.2985    1.9707 H   0  0  0  0  0  0  0  0  0  0  0  0
   -5.7705    4.3220    0.5405 H   0  0  0  0  0  0  0  0  0  0  0  0
   -6.2052   -1.6079   -1.4254 C   0  0  0  0  0  0  0  0  0  0  0  0
   -7.2946   -1.7808   -1.5427 H   0  0  0  0  0  0  0  0  0  0  0  0
   -5.9882   -0.5621   -1.7194 H   0  0  0  0  0  0  0  0  0  0  0  0
   -5.6697   -2.2842   -2.1461 H   0  0  0  0  0  0  0  0  0  0  0  0
  1  6  1  0  0  0  0
  2 15  1  0  0  0  0
  3  6  2  0  0  0  0
  3 13  1  0  0  0  0
  4  5  1  0  0  0  0
  6 11  1  0  0  0  0
  7  8  1  0  0  0  0
  9  7  1  0  0  0  0
 10  4  1  0  0  0  0
 10 30  1  0  0  0  0
 11  7  1  0  0  0  0
 11  4  2  0  0  0  0
 12  7  1  0  0  0  0
 12 26  1  0  0  0  0
 13 10  2  0  0  0  0
 14 13  1  0  0  0  0
 15 16  1  0  0  0  0
 15 18  1  0  0  0  0
 17 15  1  0  0  0  0
 19 20  1  0  0  0  0
 19  2  1  0  0  0  0
 21 19  1  0  0  0  0
 22 19  1  0  0  0  0
 23  3  1  0  0  0  0
 23  2  1  0  0  0  0
 24 23  1  0  0  0  0
 25 23  1  0  0  0  0
 26 27  1  0  0  0  0
 28 26  1  0  0  0  0
 29 26  1  0  0  0  0
 30 32  1  0  0  0  0
 31 30  1  0  0  0  0
 33 30  1  0  0  0  0
 34 12  1  0  0  0  0
 35 34  1  0  0  0  0
 36 34  1  0  0  0  0
 37 34  1  0  0  0  0
M  CHG  1   1  -1
M  END
