1,3
 OpenBabel05122313063D

 28 30  0  0  1  0  0  0  0  0999 V2000
   -0.4972   -2.0329    1.0920 N   0  0  0  0  0  2  0  0  0  0  0  0
   -1.3900   -2.8536    1.7063 N   0  0  0  0  0  0  0  0  0  0  0  0
    1.0769   -0.9502   -0.7603 O   0  5  0  0  0  0  0  0  0  0  0  0
    2.0925   -0.9813    0.0843 C   0  0  0  0  0  0  0  0  0  0  0  0
    3.3804   -0.5228   -0.3648 C   0  0  0  0  0  0  0  0  0  0  0  0
    4.4613   -0.4462    0.5785 C   0  0  0  0  0  0  0  0  0  0  0  0
    4.2386   -0.8737    1.9237 C   0  0  0  0  0  0  0  0  0  0  0  0
    5.0610   -0.7976    2.6508 H   0  0  0  0  0  0  0  0  0  0  0  0
    3.0191   -1.4043    2.3029 C   0  0  0  0  0  0  0  0  0  0  0  0
    2.8777   -1.7569    3.3355 H   0  0  0  0  0  0  0  0  0  0  0  0
    1.9231   -1.4881    1.3902 C   0  0  0  0  0  0  0  0  0  0  0  0
    0.6850   -2.1623    1.7671 C   0  0  2  0  0  3  0  0  0  0  0  0
    0.5076   -3.0739    2.8411 C   0  0  0  0  0  0  0  0  0  0  0  0
    1.2673   -3.4158    3.5484 H   0  0  0  0  0  0  0  0  0  0  0  0
   -0.8149   -3.4825    2.7668 C   0  0  0  0  0  0  0  0  0  0  0  0
   -1.3953   -4.1794    3.3795 H   0  0  0  0  0  0  0  0  0  0  0  0
   -2.7686   -3.0121    1.2739 C   0  0  0  0  0  0  0  0  0  0  0  0
   -3.1903   -3.8655    1.8342 H   0  0  0  0  0  0  0  0  0  0  0  0
   -2.7874   -3.2322    0.1876 H   0  0  0  0  0  0  0  0  0  0  0  0
   -3.3552   -2.0974    1.4762 H   0  0  0  0  0  0  0  0  0  0  0  0
    3.5921   -0.1498   -1.7191 C   0  0  0  0  0  0  0  0  0  0  0  0
    2.7462   -0.2250   -2.4179 H   0  0  0  0  0  0  0  0  0  0  0  0
    4.8408    0.2939   -2.1344 C   0  0  0  0  0  0  0  0  0  0  0  0
    5.0043    0.5691   -3.1873 H   0  0  0  0  0  0  0  0  0  0  0  0
    5.9055    0.4057   -1.2028 C   0  0  0  0  0  0  0  0  0  0  0  0
    6.8880    0.7717   -1.5385 H   0  0  0  0  0  0  0  0  0  0  0  0
    5.7184    0.0464    0.1263 C   0  0  0  0  0  0  0  0  0  0  0  0
    6.5472    0.1222    0.8474 H   0  0  0  0  0  0  0  0  0  0  0  0
  1  2  1  0  0  0  0
  1 12  1  0  0  0  0
  2 15  1  0  0  0  0
  3  4  1  0  0  0  0
  4 11  1  0  0  0  0
  5  4  2  0  0  0  0
  5  6  1  0  0  0  0
  6  7  2  0  0  0  0
  7  9  1  0  0  0  0
  7  8  1  0  0  0  0
  9 10  1  0  0  0  0
 11  9  2  0  0  0  0
 12 11  1  6  0  0  0
 12 13  1  0  0  0  0
 13 14  1  0  0  0  0
 15 13  2  0  0  0  0
 15 16  1  0  0  0  0
 17 20  1  0  0  0  0
 17  2  1  0  0  0  0
 17 18  1  0  0  0  0
 19 17  1  0  0  0  0
 21  5  1  0  0  0  0
 22 21  1  0  0  0  0
 23 21  2  0  0  0  0
 23 25  1  0  0  0  0
 24 23  1  0  0  0  0
 25 27  2  0  0  0  0
 26 25  1  0  0  0  0
 27  6  1  0  0  0  0
 27 28  1  0  0  0  0
M  CHG  1   3  -1
M  END
