1,2
 OpenBabel05122313063D

 19 18  0  0  1  0  0  0  0  0999 V2000
   -1.2771   -0.7566   -1.2604 O   0  0  0  0  0  1  0  0  0  0  0  0
   -0.2278   -1.8506    1.0159 N   0  0  0  0  0  0  0  0  0  0  0  0
   -1.4171   -2.4741    0.3584 C   0  0  0  0  0  0  0  0  0  0  0  0
   -1.3774   -2.1338   -1.1369 C   0  0  1  0  0  0  0  0  0  0  0  0
    0.9706   -2.6978    0.8534 C   0  0  0  0  0  0  0  0  0  0  0  0
   -0.4624   -1.6334    2.4575 C   0  0  0  0  0  0  0  0  0  0  0  0
   -2.6317   -2.6255   -1.8639 C   0  0  0  0  0  0  0  0  0  0  0  0
   -1.4420   -3.5672    0.5780 H   0  0  0  0  0  0  0  0  0  0  0  0
   -2.3171   -1.9970    0.7937 H   0  0  0  0  0  0  0  0  0  0  0  0
   -0.4931   -2.6669   -1.5923 H   0  0  0  0  0  0  0  0  0  0  0  0
    1.8562   -2.1610    1.2418 H   0  0  0  0  0  0  0  0  0  0  0  0
    0.8408   -3.6479    1.4185 H   0  0  0  0  0  0  0  0  0  0  0  0
    1.1338   -2.9228   -0.2137 H   0  0  0  0  0  0  0  0  0  0  0  0
    0.4211   -1.1324    2.8935 H   0  0  0  0  0  0  0  0  0  0  0  0
   -0.6348   -2.6070    2.9678 H   0  0  0  0  0  0  0  0  0  0  0  0
   -1.3354   -0.9722    2.5855 H   0  0  0  0  0  0  0  0  0  0  0  0
   -2.7251   -3.7305   -1.8243 H   0  0  0  0  0  0  0  0  0  0  0  0
   -3.5363   -2.1660   -1.4151 H   0  0  0  0  0  0  0  0  0  0  0  0
   -2.5843   -2.3134   -2.9252 H   0  0  0  0  0  0  0  0  0  0  0  0
  1  4  1  0  0  0  0
  2  6  1  0  0  0  0
  3  8  1  0  0  0  0
  3  9  1  0  0  0  0
  3  2  1  0  0  0  0
  4 10  1  6  0  0  0
  4  3  1  0  0  0  0
  5  2  1  0  0  0  0
  5 11  1  0  0  0  0
  5 12  1  0  0  0  0
  6 16  1  0  0  0  0
  6 14  1  0  0  0  0
  6 15  1  0  0  0  0
  7 17  1  0  0  0  0
  7 18  1  0  0  0  0
  7  4  1  0  0  0  0
 13  5  1  0  0  0  0
 19  7  1  0  0  0  0
M  END
