1,3
 OpenBabel05122313063D

 39 40  0  0  0  0  0  0  0  0999 V2000
    1.7474   -1.7024    0.3030 O   0  0  0  0  0  1  0  0  0  0  0  0
    2.6920   -1.0064   -0.3867 N   0  0  0  0  0  0  0  0  0  0  0  0
    1.0645    0.3702   -1.2474 N   0  0  0  0  0  2  0  0  0  0  0  0
    2.3430    0.0407   -1.1504 C   0  0  0  0  0  3  0  0  0  0  0  0
    3.1629    0.5496   -1.6853 H   0  0  0  0  0  0  0  0  0  0  0  0
    4.0335   -1.4934   -0.2727 C   0  0  0  0  0  0  0  0  0  0  0  0
    4.9650   -0.7694    0.5064 C   0  0  0  0  0  0  0  0  0  0  0  0
    6.2703   -1.2898    0.6120 C   0  0  0  0  0  0  0  0  0  0  0  0
    7.0150   -0.7461    1.2139 H   0  0  0  0  0  0  0  0  0  0  0  0
    6.6190   -2.4917   -0.0167 C   0  0  0  0  0  0  0  0  0  0  0  0
    7.6415   -2.8862    0.0848 H   0  0  0  0  0  0  0  0  0  0  0  0
    5.6680   -3.2013   -0.7653 C   0  0  0  0  0  0  0  0  0  0  0  0
    5.9434   -4.1494   -1.2527 H   0  0  0  0  0  0  0  0  0  0  0  0
    4.3563   -2.7169   -0.9076 C   0  0  0  0  0  0  0  0  0  0  0  0
    4.5773    0.5073    1.2088 C   0  0  0  0  0  0  0  0  0  0  0  0
    4.5895    1.3792    0.5215 H   0  0  0  0  0  0  0  0  0  0  0  0
    5.2820    0.7313    2.0322 H   0  0  0  0  0  0  0  0  0  0  0  0
    3.5539    0.4477    1.6281 H   0  0  0  0  0  0  0  0  0  0  0  0
    3.3156   -3.4499   -1.7093 C   0  0  0  0  0  0  0  0  0  0  0  0
    3.7048   -4.4097   -2.0972 H   0  0  0  0  0  0  0  0  0  0  0  0
    2.9783   -2.8377   -2.5728 H   0  0  0  0  0  0  0  0  0  0  0  0
    2.4151   -3.6358   -1.0908 H   0  0  0  0  0  0  0  0  0  0  0  0
    0.5828    1.5390   -1.8680 C   0  0  0  0  0  0  0  0  0  0  0  0
   -0.4745    1.3915   -2.8114 C   0  0  0  0  0  0  0  0  0  0  0  0
   -1.0453    2.5460   -3.3752 C   0  0  0  0  0  0  0  0  0  0  0  0
   -1.8576    2.4316   -4.1104 H   0  0  0  0  0  0  0  0  0  0  0  0
   -0.5940    3.8250   -3.0198 C   0  0  0  0  0  0  0  0  0  0  0  0
   -1.0522    4.7192   -3.4686 H   0  0  0  0  0  0  0  0  0  0  0  0
    0.4342    3.9573   -2.0780 C   0  0  0  0  0  0  0  0  0  0  0  0
    0.7740    4.9597   -1.7726 H   0  0  0  0  0  0  0  0  0  0  0  0
    1.0349    2.8322   -1.4811 C   0  0  0  0  0  0  0  0  0  0  0  0
   -0.9609    0.0173   -3.1912 C   0  0  0  0  0  0  0  0  0  0  0  0
   -1.3723   -0.5408   -2.3201 H   0  0  0  0  0  0  0  0  0  0  0  0
   -0.1338   -0.6091   -3.5857 H   0  0  0  0  0  0  0  0  0  0  0  0
   -1.7513    0.0751   -3.9642 H   0  0  0  0  0  0  0  0  0  0  0  0
    2.0801    3.0143   -0.4097 C   0  0  0  0  0  0  0  0  0  0  0  0
    3.1108    2.8359   -0.7830 H   0  0  0  0  0  0  0  0  0  0  0  0
    1.9124    2.3198    0.4384 H   0  0  0  0  0  0  0  0  0  0  0  0
    2.0504    4.0443   -0.0077 H   0  0  0  0  0  0  0  0  0  0  0  0
  2  6  1  0  0  0  0
  2  1  1  0  0  0  0
  3  4  1  0  0  0  0
  4  2  1  0  0  0  0
  5  4  1  0  0  0  0
  6  7  1  0  0  0  0
  7  8  2  0  0  0  0
  7 15  1  0  0  0  0
  8  9  1  0  0  0  0
 10 11  1  0  0  0  0
 10  8  1  0  0  0  0
 12 10  2  0  0  0  0
 13 12  1  0  0  0  0
 14 12  1  0  0  0  0
 14  6  2  0  0  0  0
 15 18  1  0  0  0  0
 15 17  1  0  0  0  0
 16 15  1  0  0  0  0
 19 22  1  0  0  0  0
 19 14  1  0  0  0  0
 20 19  1  0  0  0  0
 21 19  1  0  0  0  0
 23 31  1  0  0  0  0
 23  3  1  0  0  0  0
 24 23  2  0  0  0  0
 25 27  2  0  0  0  0
 25 24  1  0  0  0  0
 26 25  1  0  0  0  0
 27 29  1  0  0  0  0
 28 27  1  0  0  0  0
 29 30  1  0  0  0  0
 29 31  2  0  0  0  0
 31 36  1  0  0  0  0
 32 24  1  0  0  0  0
 32 33  1  0  0  0  0
 34 32  1  0  0  0  0
 35 32  1  0  0  0  0
 36 39  1  0  0  0  0
 36 38  1  0  0  0  0
 37 36  1  0  0  0  0
M  END
