1,9
 OpenBabel05122313063D

 23 23  0  0  0  0  0  0  0  0999 V2000
    1.3446   -1.1555    1.8736 O   0  5  0  0  0  0  0  0  0  0  0  0
   -5.3532   -0.1659   -0.0845 O   0  0  0  0  0  0  0  0  0  0  0  0
   -6.1986    1.6973    1.5833 O   0  0  0  0  0  0  0  0  0  0  0  0
   -8.2314    1.6126    0.7297 O   0  0  0  0  0  0  0  0  0  0  0  0
   -0.0476   -0.6582    3.6160 N   0  0  0  0  0  0  0  0  0  0  0  0
    0.7573   -0.6609    4.2389 H   0  0  0  0  0  0  0  0  0  0  0  0
   -0.9885   -0.6851    4.0048 H   0  0  0  0  0  0  0  0  0  0  0  0
   -0.9333   -1.2819    1.5611 N   0  0  0  0  0  0  0  0  0  0  0  0
   -0.5456   -1.5929    0.3100 N   0  0  0  0  0  2  0  0  0  0  0  0
   -7.0448    1.2640    0.7889 N   0  0  0  0  0  0  0  0  0  0  0  0
    0.1263   -1.0445    2.3294 C   0  0  0  0  0  0  0  0  0  0  0  0
   -1.5044   -1.7985   -0.5999 C   0  0  0  0  0  0  0  0  0  0  0  0
   -1.1547   -2.1416   -1.5834 H   0  0  0  0  0  0  0  0  0  0  0  0
   -2.8649   -1.4667   -0.3707 C   0  0  0  0  0  0  0  0  0  0  0  0
   -3.0870   -0.9746    0.5877 H   0  0  0  0  0  0  0  0  0  0  0  0
   -3.8763   -1.6237   -1.2935 C   0  0  0  0  0  3  0  0  0  0  0  0
   -3.7089   -2.1736   -2.2332 H   0  0  0  0  0  0  0  0  0  0  0  0
   -5.1716   -1.0472   -1.1248 C   0  0  0  0  0  0  0  0  0  0  0  0
   -6.3678   -1.1461   -1.8522 C   0  0  0  0  0  0  0  0  0  0  0  0
   -6.5240   -1.7745   -2.7357 H   0  0  0  0  0  0  0  0  0  0  0  0
   -7.3098   -0.2964   -1.2221 C   0  0  0  0  0  0  0  0  0  0  0  0
   -8.3516   -0.0979   -1.4900 H   0  0  0  0  0  0  0  0  0  0  0  0
   -6.6333    0.2749   -0.1555 C   0  0  0  0  0  0  0  0  0  0  0  0
  1 11  1  0  0  0  0
  4 10  2  0  0  0  0
  5  7  1  0  0  0  0
  5  6  1  0  0  0  0
  8 11  2  0  0  0  0
  9  8  1  0  0  0  0
 10  3  2  0  0  0  0
 11  5  1  0  0  0  0
 12 14  2  0  0  0  0
 12  9  1  0  0  0  0
 13 12  1  0  0  0  0
 14 15  1  0  0  0  0
 16 18  1  0  0  0  0
 16 14  1  0  0  0  0
 17 16  1  0  0  0  0
 18  2  1  0  0  0  0
 19 21  1  0  0  0  0
 19 18  2  0  0  0  0
 20 19  1  0  0  0  0
 21 23  2  0  0  0  0
 22 21  1  0  0  0  0
 23  2  1  0  0  0  0
 23 10  1  0  0  0  0
M  CHG  1   1  -1
M  END
