1,2
 OpenBabel05122313063D

 31 33  0  0  0  0  0  0  0  0999 V2000
   -0.4719   -1.8946   -0.1596 O   0  5  0  0  0  0  0  0  0  0  0  0
    0.0094    0.9378   -0.0965 N   0  0  0  0  0  2  0  0  0  0  0  0
   -1.7199   -1.5520   -0.1457 C   0  0  0  0  0  0  0  0  0  0  0  0
   -2.6792   -2.6271   -0.2454 C   0  0  0  0  0  0  0  0  0  0  0  0
   -2.2678   -3.6420   -0.3436 H   0  0  0  0  0  0  0  0  0  0  0  0
   -4.0288   -2.3905   -0.2093 C   0  0  0  0  0  0  0  0  0  0  0  0
   -4.7394   -3.2294   -0.2827 H   0  0  0  0  0  0  0  0  0  0  0  0
   -4.5577   -1.0643   -0.0668 C   0  0  0  0  0  0  0  0  0  0  0  0
   -3.6473    0.0461    0.0256 C   0  0  0  0  0  0  0  0  0  0  0  0
   -2.2053   -0.2005   -0.0417 C   0  0  0  0  0  0  0  0  0  0  0  0
   -5.6040    1.5245    0.2407 C   0  0  0  0  0  0  0  0  0  0  0  0
   -6.0044    2.5418    0.3690 H   0  0  0  0  0  0  0  0  0  0  0  0
   -4.2246    1.3371    0.1885 C   0  0  0  0  0  0  0  0  0  0  0  0
   -3.5844    2.2242    0.2890 H   0  0  0  0  0  0  0  0  0  0  0  0
   -6.4882    0.4276    0.1370 C   0  0  0  0  0  0  0  0  0  0  0  0
   -7.5763    0.5832    0.1792 H   0  0  0  0  0  0  0  0  0  0  0  0
   -5.9602   -0.8493   -0.0119 C   0  0  0  0  0  0  0  0  0  0  0  0
   -6.6254   -1.7239   -0.0879 H   0  0  0  0  0  0  0  0  0  0  0  0
   -1.3156    0.9111   -0.0467 C   0  0  0  0  0  3  0  0  0  0  0  0
   -1.7917    1.9075   -0.0405 H   0  0  0  0  0  0  0  0  0  0  0  0
    0.5822    2.2476   -0.1160 C   0  0  0  0  0  0  0  0  0  0  0  0
    1.0999    2.7723   -1.3165 C   0  0  0  0  0  0  0  0  0  0  0  0
    1.0419    2.1615   -2.2294 H   0  0  0  0  0  0  0  0  0  0  0  0
    1.2035    4.3038    1.0346 C   0  0  0  0  0  0  0  0  0  0  0  0
    1.2416    4.8999    1.9591 H   0  0  0  0  0  0  0  0  0  0  0  0
    1.7217    4.8243   -0.1613 C   0  0  0  0  0  0  0  0  0  0  0  0
    2.1690    5.8293   -0.1794 H   0  0  0  0  0  0  0  0  0  0  0  0
    1.6633    4.0563   -1.3359 C   0  0  0  0  0  0  0  0  0  0  0  0
    2.0576    4.4617   -2.2802 H   0  0  0  0  0  0  0  0  0  0  0  0
    0.6342    3.0213    1.0605 C   0  0  0  0  0  0  0  0  0  0  0  0
    0.2276    2.6009    1.9925 H   0  0  0  0  0  0  0  0  0  0  0  0
  1  3  1  0  0  0  0
  2 19  1  0  0  0  0
  3 10  1  0  0  0  0
  4  6  1  0  0  0  0
  4  3  2  0  0  0  0
  5  4  1  0  0  0  0
  6  8  2  0  0  0  0
  7  6  1  0  0  0  0
  8 17  1  0  0  0  0
  8  9  1  0  0  0  0
  9 13  1  0  0  0  0
 10  9  2  0  0  0  0
 11 12  1  0  0  0  0
 13 11  2  0  0  0  0
 13 14  1  0  0  0  0
 15 16  1  0  0  0  0
 15 11  1  0  0  0  0
 17 15  2  0  0  0  0
 18 17  1  0  0  0  0
 19 10  1  0  0  0  0
 19 20  1  0  0  0  0
 21  2  1  0  0  0  0
 21 30  1  0  0  0  0
 22 21  2  0  0  0  0
 23 22  1  0  0  0  0
 24 30  2  0  0  0  0
 24 25  1  0  0  0  0
 26 24  1  0  0  0  0
 27 26  1  0  0  0  0
 28 22  1  0  0  0  0
 28 26  2  0  0  0  0
 29 28  1  0  0  0  0
 30 31  1  0  0  0  0
M  CHG  1   1  -1
M  END
