3,4
 OpenBabel05122313063D

 36 37  0  0  0  0  0  0  0  0999 V2000
    3.6313    3.0638    0.3233 Cl  0  0  0  0  0  0  0  0  0  0  0  0
    6.8611   -1.2671   -0.2694 Cl  0  0  0  0  0  0  0  0  0  0  0  0
    1.4720    1.1343    0.0520 O   0  5  0  0  0  0  0  0  0  0  0  0
    0.4462   -1.5962   -0.4185 N   0  0  0  0  0  2  0  0  0  0  0  0
   -2.6516   -1.8441   -0.2680 N   0  0  0  0  0  0  0  0  0  0  0  0
   -4.7092   -0.0579   -1.0490 N   0  3  0  0  0  0  0  0  0  0  0  0
   -4.6963    0.9797   -1.3562 H   0  0  0  0  0  0  0  0  0  0  0  0
   -5.6799   -0.4087   -1.0765 H   0  0  0  0  0  0  0  0  0  0  0  0
    2.6157    0.5630   -0.0339 C   0  0  0  0  0  0  0  0  0  0  0  0
    3.8241    1.3552    0.0805 C   0  0  0  0  0  0  0  0  0  0  0  0
    5.0953    0.8028    0.0109 C   0  0  0  0  0  0  0  0  0  0  0  0
    5.9783    1.4484    0.1104 H   0  0  0  0  0  0  0  0  0  0  0  0
    5.2499   -0.5923   -0.1863 C   0  0  0  0  0  0  0  0  0  0  0  0
    4.1368   -1.4055   -0.3139 C   0  0  0  0  0  0  0  0  0  0  0  0
    4.2658   -2.4865   -0.4729 H   0  0  0  0  0  0  0  0  0  0  0  0
    2.8187   -0.8597   -0.2474 C   0  0  0  0  0  0  0  0  0  0  0  0
    1.7442   -1.7949   -0.4237 C   0  0  0  0  0  3  0  0  0  0  0  0
    2.0871   -2.8398   -0.5991 H   0  0  0  0  0  0  0  0  0  0  0  0
   -0.3836   -2.7653   -0.6906 C   0  0  0  0  0  0  0  0  0  0  0  0
    0.1990   -3.6983   -0.5183 H   0  0  0  0  0  0  0  0  0  0  0  0
   -0.6501   -2.7727   -1.7734 H   0  0  0  0  0  0  0  0  0  0  0  0
   -1.6660   -2.8350    0.1431 C   0  0  0  0  0  0  0  0  0  0  0  0
   -1.4133   -2.6349    1.2038 H   0  0  0  0  0  0  0  0  0  0  0  0
   -2.0680   -3.8799    0.0870 H   0  0  0  0  0  0  0  0  0  0  0  0
   -3.6609   -1.4842    0.7152 C   0  0  0  0  0  0  0  0  0  0  0  0
   -3.2324   -1.4247    1.7336 H   0  0  0  0  0  0  0  0  0  0  0  0
   -4.4943   -2.2382    0.7541 H   0  0  0  0  0  0  0  0  0  0  0  0
   -4.1933   -0.1044    0.3718 C   0  0  0  0  0  0  0  0  0  0  0  0
   -5.0109    0.2192    1.0421 H   0  0  0  0  0  0  0  0  0  0  0  0
   -3.3686    0.6267    0.4391 H   0  0  0  0  0  0  0  0  0  0  0  0
   -3.8730   -0.7832   -2.0752 C   0  0  0  0  0  0  0  0  0  0  0  0
   -4.5082   -0.9314   -2.9694 H   0  0  0  0  0  0  0  0  0  0  0  0
   -3.0464   -0.0992   -2.3326 H   0  0  0  0  0  0  0  0  0  0  0  0
   -3.3025   -2.0893   -1.5413 C   0  0  0  0  0  0  0  0  0  0  0  0
   -4.1012   -2.8773   -1.4570 H   0  0  0  0  0  0  0  0  0  0  0  0
   -2.5744   -2.4544   -2.2926 H   0  0  0  0  0  0  0  0  0  0  0  0
  2 13  1  0  0  0  0
  5 22  1  0  0  0  0
  5 25  1  0  0  0  0
  6 28  1  0  0  0  0
  7  6  1  0  0  0  0
  8  6  1  0  0  0  0
  9  3  1  0  0  0  0
  9 10  1  0  0  0  0
 10  1  1  0  0  0  0
 11 10  2  0  0  0  0
 11 12  1  0  0  0  0
 13 11  1  0  0  0  0
 14 16  1  0  0  0  0
 14 13  2  0  0  0  0
 15 14  1  0  0  0  0
 16  9  2  0  0  0  0
 17  4  1  0  0  0  0
 17 16  1  0  0  0  0
 18 17  1  0  0  0  0
 19 20  1  0  0  0  0
 19  4  1  0  0  0  0
 19 22  1  0  0  0  0
 21 19  1  0  0  0  0
 22 23  1  0  0  0  0
 24 22  1  0  0  0  0
 25 27  1  0  0  0  0
 25 26  1  0  0  0  0
 28 30  1  0  0  0  0
 28 25  1  0  0  0  0
 28 29  1  0  0  0  0
 31 34  1  0  0  0  0
 31  6  1  0  0  0  0
 32 31  1  0  0  0  0
 33 31  1  0  0  0  0
 34 35  1  0  0  0  0
 34  5  1  0  0  0  0
 36 34  1  0  0  0  0
M  CHG  2   3  -1   6   1
M  END
