1,2
 OpenBabel05122313063D

 19 20  0  0  0  0  0  0  0  0999 V2000
    1.7009   -1.1473   -0.2440 O   0  5  0  0  0  0  0  0  0  0  0  0
    1.1669    1.2696   -0.2546 N   0  0  0  0  0  2  0  0  0  0  0  0
    0.8897    2.2589   -0.2867 H   0  0  0  0  0  0  0  0  0  0  0  0
    2.7578   -0.4078   -0.5378 C   0  0  0  0  0  0  0  0  0  0  0  0
    4.0443   -0.8734   -0.7995 C   0  0  0  0  0  0  0  0  0  0  0  0
    4.2481   -1.9535   -0.7685 H   0  0  0  0  0  0  0  0  0  0  0  0
    5.0818    0.0485   -1.1117 C   0  0  0  0  0  0  0  0  0  0  0  0
    6.4134   -0.3862   -1.3891 C   0  0  0  0  0  0  0  0  0  0  0  0
    6.6290   -1.4655   -1.3561 H   0  0  0  0  0  0  0  0  0  0  0  0
    7.4177    0.5196   -1.6941 C   0  0  0  0  0  0  0  0  0  0  0  0
    8.4365    0.1600   -1.9043 H   0  0  0  0  0  0  0  0  0  0  0  0
    7.1401    1.9146   -1.7385 C   0  0  0  0  0  0  0  0  0  0  0  0
    7.9442    2.6250   -1.9826 H   0  0  0  0  0  0  0  0  0  0  0  0
    5.8602    2.3759   -1.4757 C   0  0  0  0  0  0  0  0  0  0  0  0
    5.6387    3.4544   -1.5092 H   0  0  0  0  0  0  0  0  0  0  0  0
    4.7998    1.4737   -1.1572 C   0  0  0  0  0  0  0  0  0  0  0  0
    3.4833    1.9329   -0.8868 C   0  0  0  0  0  0  0  0  0  0  0  0
    3.2619    3.0114   -0.9215 H   0  0  0  0  0  0  0  0  0  0  0  0
    2.4824    1.0131   -0.5742 C   0  0  0  0  0  0  0  0  0  0  0  0
  3  2  1  0  0  0  0
  4  1  1  0  0  0  0
  5  6  1  0  0  0  0
  5  4  2  0  0  0  0
  7  5  1  0  0  0  0
  8  9  1  0  0  0  0
  8  7  2  0  0  0  0
 10  8  1  0  0  0  0
 11 10  1  0  0  0  0
 12 10  2  0  0  0  0
 12 14  1  0  0  0  0
 13 12  1  0  0  0  0
 14 16  2  0  0  0  0
 15 14  1  0  0  0  0
 16  7  1  0  0  0  0
 16 17  1  0  0  0  0
 17 19  2  0  0  0  0
 18 17  1  0  0  0  0
 19  4  1  0  0  0  0
 19  2  1  0  0  0  0
M  CHG  1   1  -1
M  END
