1,4
 OpenBabel05122313063D

 39 40  0  0  1  0  0  0  0  0999 V2000
    1.7430    0.2848   -0.6195 O   0  5  0  0  0  0  0  0  0  0  0  0
    3.5356   -3.3543   -0.1759 O   0  0  0  0  0  0  0  0  0  0  0  0
    1.6550   -4.4109    0.3802 O   0  0  0  0  0  0  0  0  0  0  0  0
   -0.7255   -0.9413   -0.1341 N   0  0  0  0  0  2  0  0  0  0  0  0
   -0.7348   -3.3694   -0.4277 C   0  0  0  0  0  0  0  0  0  0  0  0
   -0.7417   -3.9349    0.5249 H   0  0  0  0  0  0  0  0  0  0  0  0
   -0.1931   -4.0162   -1.1403 H   0  0  0  0  0  0  0  0  0  0  0  0
   -1.7741   -3.2128   -0.7637 H   0  0  0  0  0  0  0  0  0  0  0  0
   -0.0126   -2.0571   -0.2268 C   0  0  1  0  0  3  0  0  0  0  0  0
    1.4399   -2.0757   -0.2025 C   0  0  0  0  0  0  0  0  0  0  0  0
    2.1207   -3.3443    0.0275 C   0  0  0  0  0  0  0  0  0  0  0  0
    2.2124   -0.9123   -0.5058 C   0  0  0  0  0  0  0  0  0  0  0  0
    3.6266   -1.0605   -0.7452 C   0  0  0  0  0  0  0  0  0  0  0  0
    4.2065   -0.1700   -1.0166 H   0  0  0  0  0  0  0  0  0  0  0  0
    4.2342   -2.2680   -0.5547 C   0  0  0  0  0  0  0  0  0  0  0  0
    5.6946   -2.5436   -0.7011 C   0  0  0  0  0  0  0  0  0  0  0  0
    6.2408   -1.6423   -1.0325 H   0  0  0  0  0  0  0  0  0  0  0  0
    5.8582   -3.3625   -1.4316 H   0  0  0  0  0  0  0  0  0  0  0  0
    6.1149   -2.8876    0.2665 H   0  0  0  0  0  0  0  0  0  0  0  0
   -2.1502   -1.0181   -0.2498 C   0  0  0  0  0  0  0  0  0  0  0  0
   -2.9282   -1.2898    0.9018 C   0  0  0  0  0  0  0  0  0  0  0  0
   -4.3268   -1.3427    0.7577 C   0  0  0  0  0  0  0  0  0  0  0  0
   -4.9380   -1.5568    1.6498 H   0  0  0  0  0  0  0  0  0  0  0  0
   -4.9657   -1.1216   -0.4768 C   0  0  0  0  0  0  0  0  0  0  0  0
   -4.1581   -0.8695   -1.6023 C   0  0  0  0  0  0  0  0  0  0  0  0
   -4.6330   -0.7196   -2.5858 H   0  0  0  0  0  0  0  0  0  0  0  0
   -2.7546   -0.8289   -1.5168 C   0  0  0  0  0  0  0  0  0  0  0  0
   -1.8982   -0.6651   -2.7456 C   0  0  0  0  0  0  0  0  0  0  0  0
   -1.0435    0.0160   -2.5606 H   0  0  0  0  0  0  0  0  0  0  0  0
   -2.4871   -0.2891   -3.6041 H   0  0  0  0  0  0  0  0  0  0  0  0
   -1.4531   -1.6383   -3.0464 H   0  0  0  0  0  0  0  0  0  0  0  0
   -2.2698   -1.5408    2.2320 C   0  0  0  0  0  0  0  0  0  0  0  0
   -1.8465   -2.5672    2.2769 H   0  0  0  0  0  0  0  0  0  0  0  0
   -2.9986   -1.4501    3.0603 H   0  0  0  0  0  0  0  0  0  0  0  0
   -1.4154   -0.8561    2.4082 H   0  0  0  0  0  0  0  0  0  0  0  0
   -6.4703   -1.1333   -0.5848 C   0  0  0  0  0  0  0  0  0  0  0  0
   -6.8977   -0.1340   -0.3512 H   0  0  0  0  0  0  0  0  0  0  0  0
   -6.9242   -1.8525    0.1255 H   0  0  0  0  0  0  0  0  0  0  0  0
   -6.8051   -1.3996   -1.6067 H   0  0  0  0  0  0  0  0  0  0  0  0
  1 12  1  0  0  0  0
  2 11  1  0  0  0  0
  5  9  1  0  0  0  0
  5  6  1  0  0  0  0
  7  5  1  0  0  0  0
  8  5  1  0  0  0  0
  9 10  1  0  0  0  0
  9  4  1  6  0  0  0
 10 11  1  0  0  0  0
 11  3  2  0  0  0  0
 12 10  2  0  0  0  0
 13 15  2  0  0  0  0
 13 12  1  0  0  0  0
 14 13  1  0  0  0  0
 15  2  1  0  0  0  0
 16 15  1  0  0  0  0
 16 19  1  0  0  0  0
 17 16  1  0  0  0  0
 18 16  1  0  0  0  0
 20  4  1  0  0  0  0
 20 21  1  0  0  0  0
 21 32  1  0  0  0  0
 22 21  2  0  0  0  0
 22 23  1  0  0  0  0
 24 22  1  0  0  0  0
 25 27  1  0  0  0  0
 25 24  2  0  0  0  0
 26 25  1  0  0  0  0
 27 20  2  0  0  0  0
 28 29  1  0  0  0  0
 28 27  1  0  0  0  0
 30 28  1  0  0  0  0
 31 28  1  0  0  0  0
 32 33  1  0  0  0  0
 32 35  1  0  0  0  0
 32 34  1  0  0  0  0
 36 24  1  0  0  0  0
 36 37  1  0  0  0  0
 36 38  1  0  0  0  0
 39 36  1  0  0  0  0
M  CHG  1   1  -1
M  END
