3,8
 OpenBabel05122313063D

 63 67  0  0  1  0  0  0  0  0999 V2000
    9.4679    0.5028    0.8679 F   0  0  0  0  0  0  0  0  0  0  0  0
    9.5695   -0.6264   -0.9930 F   0  0  0  0  0  0  0  0  0  0  0  0
   -0.8609    0.1640   -1.1218 O   0  5  0  0  0  0  0  0  0  0  0  0
   -4.8755    0.6930   -0.1470 O   0  0  0  0  0  0  0  0  0  0  0  0
    9.6445   -1.6775    0.9162 F   0  0  0  0  0  0  0  0  0  0  0  0
   -1.7979    6.3141    0.2307 O   0  0  0  0  0  0  0  0  0  0  0  0
    3.3986   -0.8443    0.0131 N   0  0  0  0  0  0  0  0  0  0  0  0
   -3.3095   -0.8411   -0.2973 N   0  0  0  0  0  2  0  0  0  0  0  0
   -4.5024   -1.4973   -0.1479 N   0  0  0  0  0  0  0  0  0  0  0  0
    4.7960   -0.9904    0.1111 C   0  0  0  0  0  0  0  0  0  0  0  0
    1.7059    0.8189   -0.3251 C   0  0  0  0  0  0  0  0  0  0  0  0
    0.9903   -0.0075   -0.3907 H   0  0  0  0  0  0  0  0  0  0  0  0
   -1.2195    1.2899   -0.6728 C   0  0  0  0  0  0  0  0  0  0  0  0
   -3.5405    0.4695   -0.2894 C   0  0  2  0  0  3  0  0  0  0  0  0
   -0.2453    2.3723   -0.4608 C   0  0  0  0  0  0  0  0  0  0  0  0
   -3.0194    2.8911   -0.0978 C   0  0  0  0  0  0  0  0  0  0  0  0
   -4.0822    3.1058    0.1010 H   0  0  0  0  0  0  0  0  0  0  0  0
   -2.0873    3.9566   -0.0760 C   0  0  0  0  0  0  0  0  0  0  0  0
   -2.6135    1.5772   -0.3471 C   0  0  0  0  0  0  0  0  0  0  0  0
    1.1584    2.0952   -0.3810 C   0  0  0  0  0  3  0  0  0  0  0  0
    1.8049    2.9810   -0.2626 H   0  0  0  0  0  0  0  0  0  0  0  0
    3.0525    0.4611   -0.1496 C   0  0  0  0  0  0  0  0  0  0  0  0
    7.5582   -0.7583    0.2517 C   0  0  0  0  0  0  0  0  0  0  0  0
   -0.7186    3.6800   -0.2307 C   0  0  0  0  0  0  0  0  0  0  0  0
   -0.0148    4.5223   -0.1226 H   0  0  0  0  0  0  0  0  0  0  0  0
   -5.4247   -0.5674   -0.0626 C   0  0  0  0  0  0  0  0  0  0  0  0
    5.5520   -2.1589    0.2716 C   0  0  0  0  0  0  0  0  0  0  0  0
    5.0846   -3.1501    0.3417 H   0  0  0  0  0  0  0  0  0  0  0  0
    4.3062    2.2760    1.0998 C   0  0  0  0  0  0  0  0  0  0  0  0
    3.5022    3.0326    1.0256 H   0  0  0  0  0  0  0  0  0  0  0  0
    5.2763    2.8075    1.1617 H   0  0  0  0  0  0  0  0  0  0  0  0
    4.1618    1.7073    2.0386 H   0  0  0  0  0  0  0  0  0  0  0  0
   -6.8599   -0.7251    0.0954 C   0  0  0  0  0  0  0  0  0  0  0  0
    4.3096    1.3329   -0.1280 C   0  0  0  0  0  0  0  0  0  0  0  0
    2.4463   -1.9499    0.0895 C   0  0  0  0  0  0  0  0  0  0  0  0
    1.9142   -2.1067   -0.8730 H   0  0  0  0  0  0  0  0  0  0  0  0
    1.6711   -1.7430    0.8607 H   0  0  0  0  0  0  0  0  0  0  0  0
    2.9844   -2.8754    0.3511 H   0  0  0  0  0  0  0  0  0  0  0  0
    6.9469   -2.0227    0.3403 C   0  0  0  0  0  0  0  0  0  0  0  0
    7.5748   -2.9151    0.4710 H   0  0  0  0  0  0  0  0  0  0  0  0
    4.4755    2.1203   -1.4464 C   0  0  0  0  0  0  0  0  0  0  0  0
    4.4775    1.4396   -2.3195 H   0  0  0  0  0  0  0  0  0  0  0  0
    5.4357    2.6731   -1.4349 H   0  0  0  0  0  0  0  0  0  0  0  0
    3.6555    2.8518   -1.5798 H   0  0  0  0  0  0  0  0  0  0  0  0
    5.3964    0.2823    0.0230 C   0  0  0  0  0  0  0  0  0  0  0  0
   -7.7199    0.3908    0.1688 C   0  0  0  0  0  0  0  0  0  0  0  0
   -7.3041    1.4064    0.1039 H   0  0  0  0  0  0  0  0  0  0  0  0
   -9.0980    0.2026    0.3232 C   0  0  0  0  0  0  0  0  0  0  0  0
   -9.7602    1.0805    0.3793 H   0  0  0  0  0  0  0  0  0  0  0  0
    6.7798    0.4087    0.0953 C   0  0  0  0  0  0  0  0  0  0  0  0
    7.2687    1.3924    0.0404 H   0  0  0  0  0  0  0  0  0  0  0  0
   -7.4059   -2.0276    0.1783 C   0  0  0  0  0  0  0  0  0  0  0  0
   -6.7299   -2.8928    0.1196 H   0  0  0  0  0  0  0  0  0  0  0  0
   -2.5361    5.3418    0.1738 C   0  0  0  0  0  0  0  0  0  0  0  0
   -3.6556    5.4463    0.3149 H   0  0  0  0  0  0  0  0  0  0  0  0
   -9.6562   -1.0890    0.4083 C   0  0  0  0  0  0  0  0  0  0  0  0
   -8.7817   -2.1975    0.3322 C   0  0  0  0  0  0  0  0  0  0  0  0
   -9.1951   -3.2163    0.3957 H   0  0  0  0  0  0  0  0  0  0  0  0
    9.0642   -0.6430    0.2662 C   0  0  0  0  0  0  0  0  0  0  0  0
  -11.1384   -1.2945    0.5771 C   0  0  0  0  0  0  0  0  0  0  0  0
  -11.3614   -1.8366    1.5200 H   0  0  0  0  0  0  0  0  0  0  0  0
  -11.5541   -1.9088   -0.2486 H   0  0  0  0  0  0  0  0  0  0  0  0
  -11.6874   -0.3339    0.5986 H   0  0  0  0  0  0  0  0  0  0  0  0
  2 59  1  0  0  0  0
  3 13  1  0  0  0  0
  4 26  1  0  0  0  0
  7 35  1  0  0  0  0
  7 10  1  0  0  0  0
  8 14  1  0  0  0  0
  8  9  1  0  0  0  0
  9 26  2  0  0  0  0
 10 27  1  0  0  0  0
 11 22  2  0  0  0  0
 12 11  1  0  0  0  0
 13 15  2  0  0  0  0
 13 19  1  0  0  0  0
 14 19  1  1  0  0  0
 14  4  1  0  0  0  0
 15 20  1  0  0  0  0
 15 24  1  0  0  0  0
 16 18  1  0  0  0  0
 16 17  1  0  0  0  0
 18 54  1  0  0  0  0
 19 16  2  0  0  0  0
 20 11  1  0  0  0  0
 20 21  1  0  0  0  0
 22 34  1  0  0  0  0
 22  7  1  0  0  0  0
 23 59  1  0  0  0  0
 23 39  1  0  0  0  0
 24 25  1  0  0  0  0
 24 18  2  0  0  0  0
 26 33  1  0  0  0  0
 27 39  2  0  0  0  0
 27 28  1  0  0  0  0
 29 31  1  0  0  0  0
 29 32  1  0  0  0  0
 30 29  1  0  0  0  0
 33 46  2  0  0  0  0
 33 52  1  0  0  0  0
 34 45  1  0  0  0  0
 34 29  1  0  0  0  0
 35 38  1  0  0  0  0
 35 37  1  0  0  0  0
 36 35  1  0  0  0  0
 39 40  1  0  0  0  0
 41 43  1  0  0  0  0
 41 34  1  0  0  0  0
 42 41  1  0  0  0  0
 44 41  1  0  0  0  0
 45 50  1  0  0  0  0
 45 10  2  0  0  0  0
 46 48  1  0  0  0  0
 47 46  1  0  0  0  0
 48 49  1  0  0  0  0
 48 56  2  0  0  0  0
 50 23  2  0  0  0  0
 51 50  1  0  0  0  0
 52 57  2  0  0  0  0
 53 52  1  0  0  0  0
 54  6  2  0  0  0  0
 54 55  1  0  0  0  0
 56 60  1  0  0  0  0
 57 58  1  0  0  0  0
 57 56  1  0  0  0  0
 59  1  1  0  0  0  0
 59  5  1  0  0  0  0
 60 63  1  0  0  0  0
 60 61  1  0  0  0  0
 62 60  1  0  0  0  0
M  CHG  1   3  -1
M  END
