1,2
 OpenBabel05122313063D

 41 42  0  0  1  0  0  0  0  0999 V2000
    1.7760    0.2111   -1.3739 O   0  5  0  0  0  0  0  0  0  0  0  0
   -0.0418    1.5410    0.2353 N   0  0  0  0  0  2  0  0  0  0  0  0
    2.5517    1.2402   -1.1906 C   0  0  0  0  0  0  0  0  0  0  0  0
    3.8042    1.2933   -1.8777 C   0  0  0  0  0  0  0  0  0  0  0  0
    4.6890    2.3483   -1.6797 C   0  0  0  0  0  0  0  0  0  0  0  0
    4.3733    3.4115   -0.7978 C   0  0  0  0  0  0  0  0  0  0  0  0
    3.1450    3.4019   -0.1458 C   0  0  0  0  0  0  0  0  0  0  0  0
    2.2124    2.3438   -0.3276 C   0  0  0  0  0  0  0  0  0  0  0  0
    0.9260    2.4275    0.2995 C   0  0  0  0  0  3  0  0  0  0  0  0
   -1.3155    1.9465    0.8594 C   0  0  2  0  0  0  0  0  0  0  0  0
   -1.7666    0.8534    1.8530 C   0  0  0  0  0  0  0  0  0  0  0  0
   -3.0028    1.2302    2.6734 C   0  0  2  0  0  0  0  0  0  0  0  0
   -3.4329    0.0769    3.5827 C   0  0  0  0  0  0  0  0  0  0  0  0
   -4.1152    1.6804    1.7222 C   0  0  0  0  0  0  0  0  0  0  0  0
   -3.6354    2.8251    0.8172 C   0  0  0  0  0  0  0  0  0  0  0  0
   -2.4476    2.4401   -0.0519 C   0  0  0  0  0  0  0  0  0  0  0  0
   -2.4374    2.6277   -1.4026 C   0  0  0  0  0  0  0  0  0  0  0  0
   -1.3172    2.2951   -2.3598 C   0  0  0  0  0  0  0  0  0  0  0  0
   -3.6130    3.2065   -2.1633 C   0  0  0  0  0  0  0  0  0  0  0  0
    4.0409    0.4643   -2.5599 H   0  0  0  0  0  0  0  0  0  0  0  0
    5.6508    2.3525   -2.2166 H   0  0  0  0  0  0  0  0  0  0  0  0
    5.0827    4.2371   -0.6436 H   0  0  0  0  0  0  0  0  0  0  0  0
    2.8654    4.2329    0.5223 H   0  0  0  0  0  0  0  0  0  0  0  0
    0.7236    3.3630    0.8605 H   0  0  0  0  0  0  0  0  0  0  0  0
   -1.0791    2.8399    1.4912 H   0  0  0  0  0  0  0  0  0  0  0  0
   -0.9122    0.6399    2.5281 H   0  0  0  0  0  0  0  0  0  0  0  0
   -1.9785   -0.0723    1.2841 H   0  0  0  0  0  0  0  0  0  0  0  0
   -2.7410    2.1047    3.3157 H   0  0  0  0  0  0  0  0  0  0  0  0
   -4.3151    0.3508    4.1966 H   0  0  0  0  0  0  0  0  0  0  0  0
   -3.7050   -0.8155    2.9800 H   0  0  0  0  0  0  0  0  0  0  0  0
   -2.6175   -0.2227    4.2733 H   0  0  0  0  0  0  0  0  0  0  0  0
   -5.0093    2.0000    2.2994 H   0  0  0  0  0  0  0  0  0  0  0  0
   -4.4281    0.8177    1.0923 H   0  0  0  0  0  0  0  0  0  0  0  0
   -3.3401    3.6788    1.4737 H   0  0  0  0  0  0  0  0  0  0  0  0
   -4.4787    3.1898    0.2061 H   0  0  0  0  0  0  0  0  0  0  0  0
   -1.7170    1.6861   -3.1988 H   0  0  0  0  0  0  0  0  0  0  0  0
   -0.9151    3.2261   -2.8170 H   0  0  0  0  0  0  0  0  0  0  0  0
   -0.4822    1.7343   -1.9198 H   0  0  0  0  0  0  0  0  0  0  0  0
   -4.0632    2.4289   -2.8204 H   0  0  0  0  0  0  0  0  0  0  0  0
   -4.4210    3.6274   -1.5402 H   0  0  0  0  0  0  0  0  0  0  0  0
   -3.2646    4.0114   -2.8459 H   0  0  0  0  0  0  0  0  0  0  0  0
  1  3  1  0  0  0  0
  2  9  1  0  0  0  0
  2 10  1  0  0  0  0
  3  8  1  0  0  0  0
  4  5  1  0  0  0  0
  4  3  2  0  0  0  0
  5  6  2  0  0  0  0
  6 22  1  0  0  0  0
  6  7  1  0  0  0  0
  7 23  1  0  0  0  0
  8  7  2  0  0  0  0
  8  9  1  0  0  0  0
  9 24  1  0  0  0  0
 10 25  1  1  0  0  0
 10 11  1  0  0  0  0
 11 26  1  0  0  0  0
 11 12  1  0  0  0  0
 12 28  1  1  0  0  0
 12 13  1  0  0  0  0
 13 29  1  0  0  0  0
 13 31  1  0  0  0  0
 14 32  1  0  0  0  0
 14 12  1  0  0  0  0
 15 34  1  0  0  0  0
 15 14  1  0  0  0  0
 16 15  1  0  0  0  0
 16 10  1  0  0  0  0
 17 16  2  0  0  0  0
 18 38  1  0  0  0  0
 18 17  1  0  0  0  0
 19 40  1  0  0  0  0
 19 17  1  0  0  0  0
 20  4  1  0  0  0  0
 21  5  1  0  0  0  0
 27 11  1  0  0  0  0
 30 13  1  0  0  0  0
 33 14  1  0  0  0  0
 35 15  1  0  0  0  0
 36 18  1  0  0  0  0
 37 18  1  0  0  0  0
 39 19  1  0  0  0  0
 41 19  1  0  0  0  0
M  CHG  1   1  -1
M  END
