1,10
 OpenBabel05122313063D

 18 18  0  0  0  0  0  0  0  0999 V2000
   -0.7753   -0.5668   -1.2464 N   0  0  0  0  0  2  0  0  0  0  0  0
   -0.1918   -0.1178   -2.4394 C   0  0  0  0  0  0  0  0  0  0  0  0
   -2.0810   -1.0216   -1.0985 C   0  0  0  0  0  0  0  0  0  0  0  0
   -2.3988   -1.8827   -0.0207 C   0  0  0  0  0  0  0  0  0  0  0  0
   -3.7220   -2.2708    0.2247 C   0  0  0  0  0  0  0  0  0  0  0  0
   -4.7805   -1.8402   -0.6012 C   0  0  0  0  0  0  0  0  0  0  0  0
   -4.4508   -1.0110   -1.6955 C   0  0  0  0  0  0  0  0  0  0  0  0
   -3.1370   -0.6065   -1.9506 C   0  0  0  0  0  0  0  0  0  0  0  0
   -6.2022   -2.2818   -0.3579 C   0  0  0  0  0  0  0  0  0  0  0  0
    1.0267    0.3321   -2.0598 O   0  5  0  0  0  0  0  0  0  0  0  0
   -0.6493   -0.0950   -3.5685 O   0  0  0  0  0  0  0  0  0  0  0  0
   -1.5851   -2.2455    0.6224 H   0  0  0  0  0  0  0  0  0  0  0  0
   -3.9374   -2.9396    1.0746 H   0  0  0  0  0  0  0  0  0  0  0  0
   -5.2537   -0.6640   -2.3669 H   0  0  0  0  0  0  0  0  0  0  0  0
   -2.8987    0.0383   -2.8062 H   0  0  0  0  0  0  0  0  0  0  0  0
   -6.9216   -1.4514   -0.5116 H   0  0  0  0  0  0  0  0  0  0  0  0
   -6.5002   -3.0946   -1.0558 H   0  0  0  0  0  0  0  0  0  0  0  0
   -6.3406   -2.6678    0.6715 H   0  0  0  0  0  0  0  0  0  0  0  0
  1  3  1  0  0  0  0
  2 10  1  0  0  0  0
  2  1  1  0  0  0  0
  3  4  1  0  0  0  0
  4  5  2  0  0  0  0
  4 12  1  0  0  0  0
  5 13  1  0  0  0  0
  6  9  1  0  0  0  0
  6  5  1  0  0  0  0
  7  6  2  0  0  0  0
  8  7  1  0  0  0  0
  8  3  2  0  0  0  0
  9 18  1  0  0  0  0
 11  2  2  0  0  0  0
 14  7  1  0  0  0  0
 15  8  1  0  0  0  0
 16  9  1  0  0  0  0
 17  9  1  0  0  0  0
M  CHG  1  10  -1
M  END
