18,31
 OpenBabel05122313063D

 31 32  0  0  1  0  0  0  0  0999 V2000
   -2.4109    1.4918   -0.8119 C   0  0  0  0  0  0  0  0  0  0  0  0
   -3.3675    1.4096    0.2535 C   0  0  0  0  0  0  0  0  0  0  0  0
   -2.8012    1.2753   -2.1287 C   0  0  0  0  0  0  0  0  0  0  0  0
   -2.0365    1.3051   -2.9190 H   0  0  0  0  0  0  0  0  0  0  0  0
   -4.7375    1.1021   -0.0743 C   0  0  0  0  0  0  0  0  0  0  0  0
   -3.0054    1.5939    1.6186 C   0  0  0  0  0  0  0  0  0  0  0  0
   -1.9559    1.8116    1.8648 H   0  0  0  0  0  0  0  0  0  0  0  0
   -3.9553    1.4805    2.6236 C   0  0  0  0  0  0  0  0  0  0  0  0
   -3.6602    1.6190    3.6748 H   0  0  0  0  0  0  0  0  0  0  0  0
   -4.1522    0.9853   -2.4426 C   0  0  0  0  0  0  0  0  0  0  0  0
   -4.4375    0.8127   -3.4911 H   0  0  0  0  0  0  0  0  0  0  0  0
   -5.6859    0.9936    0.9847 C   0  0  0  0  0  0  0  0  0  0  0  0
   -6.7304    0.7534    0.7321 H   0  0  0  0  0  0  0  0  0  0  0  0
   -5.1014    0.8965   -1.4365 C   0  0  0  0  0  0  0  0  0  0  0  0
   -6.1485    0.6539   -1.6741 H   0  0  0  0  0  0  0  0  0  0  0  0
   -5.3063    1.1783    2.3052 C   0  0  0  0  0  0  0  0  0  0  0  0
   -6.0501    1.0865    3.1111 H   0  0  0  0  0  0  0  0  0  0  0  0
   -1.0332    1.6942   -0.5040 N   0  0  0  0  0  2  0  0  0  0  0  0
    0.8566    3.2112   -0.2862 C   0  0  0  0  0  0  0  0  0  0  0  0
    1.1707    4.2576   -0.3687 H   0  0  0  0  0  0  0  0  0  0  0  0
   -0.5166    2.9180   -0.5474 C   0  0  2  0  0  3  0  0  0  0  0  0
   -1.4190    4.0834   -0.8883 C   0  0  0  0  0  0  0  0  0  0  0  0
   -1.8198    3.9824   -1.9164 H   0  0  0  0  0  0  0  0  0  0  0  0
   -0.8780    5.0426   -0.8080 H   0  0  0  0  0  0  0  0  0  0  0  0
   -2.2973    4.1038   -0.2122 H   0  0  0  0  0  0  0  0  0  0  0  0
    1.8287    2.2818    0.0618 C   0  0  0  0  0  0  0  0  0  0  0  0
    3.2792    2.7379    0.2878 C   0  0  0  0  0  0  0  0  0  0  0  0
    4.1056    2.1241   -0.5864 F   0  0  0  0  0  0  0  0  0  0  0  0
    3.4339    4.0733    0.1340 F   0  0  0  0  0  0  0  0  0  0  0  0
    3.6873    2.4171    1.5347 F   0  0  0  0  0  0  0  0  0  0  0  0
    1.7101    1.0168    0.2383 O   0  5  0  0  0  0  0  0  0  0  0  0
  1 18  1  0  0  0  0
  1  2  1  0  0  0  0
  2  6  1  0  0  0  0
  3  1  2  0  0  0  0
  4  3  1  0  0  0  0
  5  2  2  0  0  0  0
  5 12  1  0  0  0  0
  6  7  1  0  0  0  0
  6  8  2  0  0  0  0
  8  9  1  0  0  0  0
 10  3  1  0  0  0  0
 10 14  2  0  0  0  0
 11 10  1  0  0  0  0
 12 16  2  0  0  0  0
 13 12  1  0  0  0  0
 14  5  1  0  0  0  0
 15 14  1  0  0  0  0
 16  8  1  0  0  0  0
 16 17  1  0  0  0  0
 19 26  2  0  0  0  0
 20 19  1  0  0  0  0
 21 18  1  1  0  0  0
 21 19  1  0  0  0  0
 22 24  1  0  0  0  0
 22 21  1  0  0  0  0
 22 25  1  0  0  0  0
 23 22  1  0  0  0  0
 26 31  1  0  0  0  0
 26 27  1  0  0  0  0
 27 30  1  0  0  0  0
 28 27  1  0  0  0  0
 29 27  1  0  0  0  0
M  CHG  1  31  -1
M  END
