1,7
 OpenBabel05122313063D

 28 27  0  0  1  0  0  0  0  0999 V2000
    1.5702   -2.0733    0.0080 O   0  0  0  0  0  1  0  0  0  0  0  0
    3.5812   -3.0082    0.2213 O   0  0  0  0  0  0  0  0  0  0  0  0
    5.8126   -1.4370   -0.3255 O   0  0  0  0  0  0  0  0  0  0  0  0
    5.4107    0.2819    1.1098 O   0  0  0  0  0  0  0  0  0  0  0  0
    4.6763    1.8388   -1.0832 O   0  0  0  0  0  0  0  0  0  0  0  0
    3.0864    2.9191    0.1344 O   0  0  0  0  0  0  0  0  0  0  0  0
    1.5529    0.7612   -0.0616 N   0  0  0  0  0  2  0  0  0  0  0  0
    2.8292   -1.9074    0.0837 C   0  0  2  0  0  3  0  0  0  0  0  0
    3.5429   -0.6666    0.0619 C   0  0  0  0  0  0  0  0  0  0  0  0
    2.8677    0.5713   -0.0670 C   0  0  0  0  0  0  0  0  0  0  0  0
    3.6829    1.8184   -0.3859 C   0  0  0  0  0  0  0  0  0  0  0  0
    3.6845    4.1940   -0.2085 C   0  0  0  0  0  0  0  0  0  0  0  0
    3.1876    4.6976   -1.5526 C   0  0  0  0  0  0  0  0  0  0  0  0
    5.0267   -0.6835    0.2134 C   0  0  0  0  0  0  0  0  0  0  0  0
    6.8166    0.5270    1.1659 C   0  0  0  0  0  0  0  0  0  0  0  0
    2.9016   -4.2656    0.2489 C   0  0  0  0  0  0  0  0  0  0  0  0
    1.2862    1.7434   -0.1926 H   0  0  0  0  0  0  0  0  0  0  0  0
    3.3907    4.8670    0.6198 H   0  0  0  0  0  0  0  0  0  0  0  0
    4.7864    4.0726   -0.2097 H   0  0  0  0  0  0  0  0  0  0  0  0
    3.6081    5.7029   -1.7563 H   0  0  0  0  0  0  0  0  0  0  0  0
    2.0823    4.7794   -1.5671 H   0  0  0  0  0  0  0  0  0  0  0  0
    3.5096    4.0210   -2.3678 H   0  0  0  0  0  0  0  0  0  0  0  0
    6.9837    1.1902    2.0341 H   0  0  0  0  0  0  0  0  0  0  0  0
    7.1530    1.0270    0.2331 H   0  0  0  0  0  0  0  0  0  0  0  0
    7.3807   -0.4196    1.2813 H   0  0  0  0  0  0  0  0  0  0  0  0
    3.6945   -5.0262    0.3603 H   0  0  0  0  0  0  0  0  0  0  0  0
    2.3376   -4.4343   -0.6904 H   0  0  0  0  0  0  0  0  0  0  0  0
    2.1919   -4.3190    1.0992 H   0  0  0  0  0  0  0  0  0  0  0  0
  2 16  1  0  0  0  0
  3 14  2  0  0  0  0
  4 15  1  0  0  0  0
  5 11  2  0  0  0  0
  8  1  1  1  0  0  0
  8  2  1  0  0  0  0
  9  8  1  0  0  0  0
  9 14  1  0  0  0  0
 10  7  1  0  0  0  0
 10  9  2  0  0  0  0
 11 10  1  0  0  0  0
 11  6  1  0  0  0  0
 12  6  1  0  0  0  0
 12 18  1  0  0  0  0
 13 12  1  0  0  0  0
 14  4  1  0  0  0  0
 15 25  1  0  0  0  0
 15 23  1  0  0  0  0
 16 26  1  0  0  0  0
 16 28  1  0  0  0  0
 17  7  1  0  0  0  0
 19 12  1  0  0  0  0
 20 13  1  0  0  0  0
 21 13  1  0  0  0  0
 22 13  1  0  0  0  0
 24 15  1  0  0  0  0
 27 16  1  0  0  0  0
M  END
