1,2
 OpenBabel05122313063D

 15 15  0  0  0  0  0  0  0  0999 V2000
    0.4802   -0.6591   -0.8905 O   0  5  0  0  0  0  0  0  0  0  0  0
    1.3955   -1.2831    1.4002 N   0  0  0  0  0  2  0  0  0  0  0  0
    1.7529   -1.4737    2.3415 H   0  0  0  0  0  0  0  0  0  0  0  0
    2.3481   -1.1157    0.4313 C   0  0  0  0  0  0  0  0  0  0  0  0
    1.7567   -0.7741   -0.8590 C   0  0  0  0  0  0  0  0  0  0  0  0
    6.4552   -1.4268    0.7206 O   0  0  0  0  0  0  0  0  0  0  0  0
    5.9966   -1.1513   -0.4024 N   0  0  0  0  0  0  0  0  0  0  0  0
    6.7116   -0.9709   -1.4046 O   0  0  0  0  0  0  0  0  0  0  0  0
    3.7360   -1.2335    0.5802 C   0  0  0  0  0  0  0  0  0  0  0  0
    4.2048   -1.4798    1.5429 H   0  0  0  0  0  0  0  0  0  0  0  0
    2.6381   -0.5872   -1.9707 C   0  0  0  0  0  0  0  0  0  0  0  0
    2.1932   -0.3359   -2.9451 H   0  0  0  0  0  0  0  0  0  0  0  0
    4.5592   -1.0338   -0.5471 C   0  0  0  0  0  0  0  0  0  0  0  0
    4.0146   -0.7148   -1.8143 C   0  0  0  0  0  0  0  0  0  0  0  0
    4.7128   -0.5722   -2.6499 H   0  0  0  0  0  0  0  0  0  0  0  0
  1  5  1  0  0  0  0
  2  3  1  0  0  0  0
  4  9  1  0  0  0  0
  4  2  1  0  0  0  0
  5  4  2  0  0  0  0
  7  6  2  0  0  0  0
  8  7  2  0  0  0  0
  9 10  1  0  0  0  0
 11 14  2  0  0  0  0
 11  5  1  0  0  0  0
 12 11  1  0  0  0  0
 13  7  1  0  0  0  0
 13  9  2  0  0  0  0
 14 13  1  0  0  0  0
 15 14  1  0  0  0  0
M  CHG  1   1  -1
M  END
