1,2
 OpenBabel05122313063D

 24 24  0  0  1  0  0  0  0  0999 V2000
    1.6948    0.5963   -0.4832 O   0  0  0  0  0  1  0  0  0  0  0  0
    0.6406   -1.7803    0.3775 N   0  0  0  0  0  2  0  0  0  0  0  0
    2.8652    0.0565   -0.2865 C   0  0  1  0  0  3  0  0  0  0  0  0
    1.9072   -2.1159    0.4457 C   0  0  0  0  0  0  0  0  0  0  0  0
   -0.3201   -2.8765    0.5597 C   0  0  0  0  0  0  0  0  0  0  0  0
    3.0438   -1.2834    0.1985 C   0  0  0  0  0  0  0  0  0  0  0  0
    4.0383    0.8172   -0.5809 C   0  0  0  0  0  0  0  0  0  0  0  0
    2.1337   -3.1693    0.7090 H   0  0  0  0  0  0  0  0  0  0  0  0
   -0.9539   -3.3084   -0.7667 C   0  0  0  0  0  0  0  0  0  0  0  0
    0.2033   -3.7394    1.0277 H   0  0  0  0  0  0  0  0  0  0  0  0
   -1.1131   -2.5353    1.2498 H   0  0  0  0  0  0  0  0  0  0  0  0
    4.3544   -1.8029    0.3829 C   0  0  0  0  0  0  0  0  0  0  0  0
    5.3070    0.2821   -0.3829 C   0  0  0  0  0  0  0  0  0  0  0  0
    3.9023    1.8391   -0.9639 H   0  0  0  0  0  0  0  0  0  0  0  0
   -2.0177   -4.3885   -0.5791 C   0  0  0  0  0  0  0  0  0  0  0  0
   -1.3974   -2.4103   -1.2428 H   0  0  0  0  0  0  0  0  0  0  0  0
   -0.1522   -3.6664   -1.4491 H   0  0  0  0  0  0  0  0  0  0  0  0
    5.4802   -1.0367    0.1050 C   0  0  0  0  0  0  0  0  0  0  0  0
    4.4611   -2.8359    0.7521 H   0  0  0  0  0  0  0  0  0  0  0  0
    6.1911    0.8979   -0.6116 H   0  0  0  0  0  0  0  0  0  0  0  0
   -2.4593   -4.6920   -1.5490 H   0  0  0  0  0  0  0  0  0  0  0  0
   -2.8464   -4.0272    0.0648 H   0  0  0  0  0  0  0  0  0  0  0  0
   -1.5993   -5.2999   -0.1024 H   0  0  0  0  0  0  0  0  0  0  0  0
    6.4889   -1.4469    0.2556 H   0  0  0  0  0  0  0  0  0  0  0  0
  2  4  1  0  0  0  0
  2  5  1  0  0  0  0
  3  1  1  6  0  0  0
  3  6  1  0  0  0  0
  4  8  1  0  0  0  0
  5 10  1  0  0  0  0
  5 11  1  0  0  0  0
  6 12  1  0  0  0  0
  6  4  2  0  0  0  0
  7 13  2  0  0  0  0
  7  3  1  0  0  0  0
  9 15  1  0  0  0  0
  9  5  1  0  0  0  0
 12 19  1  0  0  0  0
 13 18  1  0  0  0  0
 14  7  1  0  0  0  0
 15 23  1  0  0  0  0
 15 22  1  0  0  0  0
 16  9  1  0  0  0  0
 17  9  1  0  0  0  0
 18 24  1  0  0  0  0
 18 12  2  0  0  0  0
 20 13  1  0  0  0  0
 21 15  1  0  0  0  0
M  END
