2,3
 OpenBabel05122313063D

  8  7  0  0  0  0  0  0  0  0999 V2000
    0.7393    4.4588    0.7935 O   0  5  0  0  0  0  0  0  0  0  0  0
    0.4280    2.2233    1.0586 O   0  0  0  0  0  0  0  0  0  0  0  0
   -0.3475    2.0499   -1.5252 N   0  0  0  0  0  0  0  0  0  0  0  0
   -0.0088    1.7596   -2.4541 H   0  0  0  0  0  0  0  0  0  0  0  0
   -1.3681    2.2073   -1.6059 H   0  0  0  0  0  0  0  0  0  0  0  0
    0.3600    3.1809   -1.0595 N   0  0  0  0  0  0  0  0  0  0  0  0
    0.1026    4.0734   -1.4963 H   0  0  0  0  0  0  0  0  0  0  0  0
    0.5168    3.3272    0.3808 C   0  0  0  0  0  0  0  0  0  0  0  0
  3  6  1  0  0  0  0
  4  3  1  0  0  0  0
  5  3  1  0  0  0  0
  6  8  1  0  0  0  0
  7  6  1  0  0  0  0
  8  1  1  0  0  0  0
  8  2  2  0  0  0  0
M  CHG  1   1  -1
M  END
