1,2
 OpenBabel05122313063D

 22 23  0  0  1  0  0  0  0  0999 V2000
    1.1453   -2.1265   -0.0036 O   0  5  0  0  0  0  0  0  0  0  0  0
   -0.5760   -0.0521   -0.0758 N   0  0  0  0  0  2  0  0  0  0  0  0
   -1.4495    1.0221   -0.0903 C   0  0  2  0  0  3  0  0  0  0  0  0
   -0.9338    2.3448   -0.1434 C   0  0  0  0  0  0  0  0  0  0  0  0
    0.1511    2.4811   -0.1703 H   0  0  0  0  0  0  0  0  0  0  0  0
   -1.7803    3.4413   -0.1572 C   0  0  0  0  0  0  0  0  0  0  0  0
   -1.3537    4.4545   -0.1972 H   0  0  0  0  0  0  0  0  0  0  0  0
   -3.1845    3.2596   -0.1184 C   0  0  0  0  0  0  0  0  0  0  0  0
   -3.8518    4.1343   -0.1298 H   0  0  0  0  0  0  0  0  0  0  0  0
   -3.7262    1.9843   -0.0634 C   0  0  0  0  0  0  0  0  0  0  0  0
   -4.8110    1.8296   -0.0312 H   0  0  0  0  0  0  0  0  0  0  0  0
   -2.8873    0.8313   -0.0449 C   0  0  0  0  0  0  0  0  0  0  0  0
   -3.3865   -0.5162    0.0218 C   0  0  0  0  0  0  0  0  0  0  0  0
   -2.4680   -1.5570    0.0447 C   0  0  0  0  0  0  0  0  0  0  0  0
   -2.7688   -2.6109    0.0975 H   0  0  0  0  0  0  0  0  0  0  0  0
   -1.0841   -1.2911   -0.0006 C   0  0  0  0  0  0  0  0  0  0  0  0
   -0.1233   -2.4726    0.0234 C   0  0  0  0  0  0  0  0  0  0  0  0
   -4.8543   -0.8420    0.0689 C   0  0  0  0  0  0  0  0  0  0  0  0
   -5.7757   -0.0427    0.0373 O   0  0  0  0  0  0  0  0  0  0  0  0
   -0.5586   -3.6161    0.0386 O   0  0  0  0  0  0  0  0  0  0  0  0
   -5.0669   -2.1768    0.1521 O   0  0  0  0  0  0  0  0  0  0  0  0
   -6.0419   -2.2857    0.1769 H   0  0  0  0  0  0  0  0  0  0  0  0
  1 17  1  0  0  0  0
  2 16  1  0  0  0  0
  3  4  1  1  0  0  0
  3  2  1  0  0  0  0
  3 12  1  0  0  0  0
  5  4  1  0  0  0  0
  6  4  2  0  0  0  0
  6  8  1  0  0  0  0
  7  6  1  0  0  0  0
  8 10  2  0  0  0  0
  9  8  1  0  0  0  0
 10 12  1  0  0  0  0
 10 11  1  0  0  0  0
 12 13  2  0  0  0  0
 13 14  1  0  0  0  0
 13 18  1  0  0  0  0
 14 15  1  0  0  0  0
 16 17  1  0  0  0  0
 16 14  2  0  0  0  0
 17 20  2  0  0  0  0
 18 21  1  0  0  0  0
 19 18  2  0  0  0  0
 21 22  1  0  0  0  0
M  CHG  1   1  -1
M  END
