1,2
 OpenBabel05122313063D

 22 22  0  0  1  0  0  0  0  0999 V2000
    2.3070    1.7722    0.1867 N   0  0  0  0  0  0  0  0  0  0  0  0
    1.4415    0.0055   -1.5459 O   0  5  0  0  0  0  0  0  0  0  0  0
    3.4438   -0.9523   -1.8167 O   0  0  0  0  0  0  0  0  0  0  0  0
   -2.3313   -2.4273    1.0782 O   0  0  0  0  0  0  0  0  0  0  0  0
    2.6982   -0.1892   -1.2212 C   0  0  0  0  0  0  0  0  0  0  0  0
    3.1383    0.5537    0.0630 C   0  0  2  0  0  0  0  0  0  0  0  0
    2.9244   -0.4005    1.2751 C   0  0  0  0  0  0  0  0  0  0  0  0
    1.5454   -1.0005    1.3105 C   0  0  2  0  0  3  0  0  0  0  0  0
    1.2511   -2.1724    0.5534 C   0  0  0  0  0  0  0  0  0  0  0  0
   -0.0343   -2.6763    0.4872 C   0  0  0  0  0  0  0  0  0  0  0  0
   -1.1442   -2.0473    1.2074 C   0  0  0  0  0  0  0  0  0  0  0  0
   -0.7835   -0.9194    2.0721 C   0  0  0  0  0  0  0  0  0  0  0  0
    0.5029   -0.4034    2.0834 C   0  0  0  0  0  0  0  0  0  0  0  0
    2.4679    2.2336    1.0951 H   0  0  0  0  0  0  0  0  0  0  0  0
    2.5800    2.4486   -0.5413 H   0  0  0  0  0  0  0  0  0  0  0  0
    4.2171    0.8007    0.0032 H   0  0  0  0  0  0  0  0  0  0  0  0
    3.6871   -1.1979    1.1847 H   0  0  0  0  0  0  0  0  0  0  0  0
    3.1411    0.1565    2.2121 H   0  0  0  0  0  0  0  0  0  0  0  0
    2.0626   -2.6530   -0.0150 H   0  0  0  0  0  0  0  0  0  0  0  0
   -0.2709   -3.5687   -0.1117 H   0  0  0  0  0  0  0  0  0  0  0  0
   -1.5822   -0.5217    2.7159 H   0  0  0  0  0  0  0  0  0  0  0  0
    0.7533    0.4402    2.7493 H   0  0  0  0  0  0  0  0  0  0  0  0
  1 14  1  0  0  0  0
  2  5  1  0  0  0  0
  3  5  2  0  0  0  0
  4 11  2  0  0  0  0
  5  6  1  0  0  0  0
  6 16  1  6  0  0  0
  6  1  1  0  0  0  0
  6  7  1  0  0  0  0
  7 18  1  0  0  0  0
  8  7  1  6  0  0  0
  8 13  1  0  0  0  0
  9  8  1  0  0  0  0
 10  9  2  0  0  0  0
 10 11  1  0  0  0  0
 11 12  1  0  0  0  0
 12 13  2  0  0  0  0
 12 21  1  0  0  0  0
 13 22  1  0  0  0  0
 15  1  1  0  0  0  0
 17  7  1  0  0  0  0
 19  9  1  0  0  0  0
 20 10  1  0  0  0  0
M  CHG  1   2  -1
M  END
