1,17
 OpenBabel05122313063D

 46 47  0  0  0  0  0  0  0  0999 V2000
    2.3087   -0.9347   -0.6795 O   0  0  0  0  0  1  0  0  0  0  0  0
    2.8402    0.2484   -0.6013 N   0  0  0  0  0  0  0  0  0  0  0  0
    2.0886    1.4144   -0.7074 C   0  0  0  0  0  0  0  0  0  0  0  0
    2.7795    2.6428   -0.6899 C   0  0  0  0  0  0  0  0  0  0  0  0
    2.1894    3.5651   -0.7645 H   0  0  0  0  0  0  0  0  0  0  0  0
    4.1678    2.7098   -0.5594 C   0  0  0  0  0  0  0  0  0  0  0  0
    4.6794    3.6816   -0.5336 H   0  0  0  0  0  0  0  0  0  0  0  0
    4.8883    1.5077   -0.4547 C   0  0  0  0  0  0  0  0  0  0  0  0
    5.9817    1.4949   -0.3466 H   0  0  0  0  0  0  0  0  0  0  0  0
    4.2064    0.3001   -0.4740 C   0  0  0  0  0  0  0  0  0  0  0  0
    4.6659   -0.6932   -0.3885 H   0  0  0  0  0  0  0  0  0  0  0  0
    0.6209    1.3736   -0.8518 C   0  0  0  0  0  0  0  0  0  0  0  0
   -0.0003    2.5204   -1.6118 C   0  0  0  0  0  0  0  0  0  0  0  0
   -0.9889    2.2203   -2.0047 H   0  0  0  0  0  0  0  0  0  0  0  0
    0.6494    2.8389   -2.4487 H   0  0  0  0  0  0  0  0  0  0  0  0
   -0.1727    3.3994   -0.9554 H   0  0  0  0  0  0  0  0  0  0  0  0
   -0.1130    0.4292   -0.3012 N   0  0  0  0  0  2  0  0  0  0  0  0
   -1.5449    0.5686   -0.3434 C   0  0  0  0  0  0  0  0  0  0  0  0
   -2.1755    1.4700    0.5537 C   0  0  0  0  0  0  0  0  0  0  0  0
   -3.5778    1.5643    0.4942 C   0  0  0  0  0  0  0  0  0  0  0  0
   -4.0965    2.2436    1.1875 H   0  0  0  0  0  0  0  0  0  0  0  0
   -4.3235    0.8048   -0.4147 C   0  0  0  0  0  0  0  0  0  0  0  0
   -5.4194    0.8999   -0.4430 H   0  0  0  0  0  0  0  0  0  0  0  0
   -3.6740   -0.0870   -1.2760 C   0  0  0  0  0  0  0  0  0  0  0  0
   -4.2640   -0.6950   -1.9785 H   0  0  0  0  0  0  0  0  0  0  0  0
   -2.2761   -0.2352   -1.2522 C   0  0  0  0  0  0  0  0  0  0  0  0
   -1.4086    2.2667    1.6050 C   0  0  0  0  0  0  0  0  0  0  0  0
   -0.3239    2.1348    1.4148 H   0  0  0  0  0  0  0  0  0  0  0  0
   -1.6801    1.7100    3.0150 C   0  0  0  0  0  0  0  0  0  0  0  0
   -2.7497    1.8295    3.2862 H   0  0  0  0  0  0  0  0  0  0  0  0
   -1.0757    2.2540    3.7698 H   0  0  0  0  0  0  0  0  0  0  0  0
   -1.4327    0.6314    3.0606 H   0  0  0  0  0  0  0  0  0  0  0  0
   -1.7176    3.7724    1.5361 C   0  0  0  0  0  0  0  0  0  0  0  0
   -1.5521    4.1923    0.5223 H   0  0  0  0  0  0  0  0  0  0  0  0
   -1.0797    4.3328    2.2496 H   0  0  0  0  0  0  0  0  0  0  0  0
   -2.7724    3.9821    1.8076 H   0  0  0  0  0  0  0  0  0  0  0  0
   -1.5938   -1.2435   -2.1673 C   0  0  0  0  0  0  0  0  0  0  0  0
   -0.5027   -1.1953   -1.9697 H   0  0  0  0  0  0  0  0  0  0  0  0
   -1.8073   -0.9045   -3.6516 C   0  0  0  0  0  0  0  0  0  0  0  0
   -2.8808   -0.9508   -3.9296 H   0  0  0  0  0  0  0  0  0  0  0  0
   -1.2648   -1.6249   -4.2972 H   0  0  0  0  0  0  0  0  0  0  0  0
   -1.4434    0.1151   -3.8953 H   0  0  0  0  0  0  0  0  0  0  0  0
   -2.0446   -2.6744   -1.8266 C   0  0  0  0  0  0  0  0  0  0  0  0
   -1.8885   -2.8822   -0.7494 H   0  0  0  0  0  0  0  0  0  0  0  0
   -1.4647   -3.4140   -2.4153 H   0  0  0  0  0  0  0  0  0  0  0  0
   -3.1200   -2.8245   -2.0565 H   0  0  0  0  0  0  0  0  0  0  0  0
  1  2  1  0  0  0  0
  2 10  1  0  0  0  0
  3  4  1  0  0  0  0
  3  2  1  0  0  0  0
  4  6  2  0  0  0  0
  5  4  1  0  0  0  0
  6  7  1  0  0  0  0
  6  8  1  0  0  0  0
  8  9  1  0  0  0  0
 10  8  2  0  0  0  0
 10 11  1  0  0  0  0
 12  3  2  0  0  0  0
 12 17  1  0  0  0  0
 13 16  1  0  0  0  0
 13 12  1  0  0  0  0
 14 13  1  0  0  0  0
 15 13  1  0  0  0  0
 18 17  1  0  0  0  0
 18 19  1  0  0  0  0
 19 27  1  0  0  0  0
 20 19  2  0  0  0  0
 20 21  1  0  0  0  0
 22 20  1  0  0  0  0
 23 22  1  0  0  0  0
 24 26  1  0  0  0  0
 24 22  2  0  0  0  0
 25 24  1  0  0  0  0
 26 18  2  0  0  0  0
 27 29  1  0  0  0  0
 28 27  1  0  0  0  0
 29 32  1  0  0  0  0
 29 30  1  0  0  0  0
 29 31  1  0  0  0  0
 33 27  1  0  0  0  0
 33 36  1  0  0  0  0
 33 35  1  0  0  0  0
 34 33  1  0  0  0  0
 37 38  1  0  0  0  0
 37 43  1  0  0  0  0
 37 26  1  0  0  0  0
 39 37  1  0  0  0  0
 40 39  1  0  0  0  0
 41 39  1  0  0  0  0
 42 39  1  0  0  0  0
 43 44  1  0  0  0  0
 45 43  1  0  0  0  0
 46 43  1  0  0  0  0
M  END
