1,12
 OpenBabel05122313063D

 12 11  0  0  0  0  0  0  0  0999 V2000
    1.7650   -1.6738    0.2093 O   0  0  0  0  0  1  0  0  0  0  0  0
    3.1621   -1.4006    0.2288 C   0  0  0  0  0  0  0  0  0  0  0  0
    3.5841   -1.6262   -0.7795 H   0  0  0  0  0  0  0  0  0  0  0  0
    3.6664   -2.0684    0.9621 H   0  0  0  0  0  0  0  0  0  0  0  0
    3.3832    0.0723    0.5717 C   0  0  0  0  0  0  0  0  0  0  0  0
    3.4902    0.2207    1.6782 H   0  0  0  0  0  0  0  0  0  0  0  0
    4.3310    0.4543    0.1226 H   0  0  0  0  0  0  0  0  0  0  0  0
    2.2914    2.2276    0.4237 C   0  0  0  0  0  0  0  0  0  0  0  0
    1.3753    2.7555    0.1024 H   0  0  0  0  0  0  0  0  0  0  0  0
    3.1667    2.7250   -0.0578 H   0  0  0  0  0  0  0  0  0  0  0  0
    2.4034    2.3765    1.5266 H   0  0  0  0  0  0  0  0  0  0  0  0
    2.2304    0.8249    0.0736 N   0  0  0  0  0  2  0  0  0  0  0  0
  1  2  1  0  0  0  0
  2  5  1  0  0  0  0
  2  4  1  0  0  0  0
  3  2  1  0  0  0  0
  5  6  1  0  0  0  0
  7  5  1  0  0  0  0
  8 11  1  0  0  0  0
  9  8  1  0  0  0  0
 10  8  1  0  0  0  0
 12  8  1  0  0  0  0
 12  5  1  0  0  0  0
M  END
