1,27
 OpenBabel05122313063D

 27 29  0  0  0  0  0  0  0  0999 V2000
   -0.5371    1.4247   -0.1378 N   0  0  0  0  0  2  0  0  0  0  0  0
   -1.6444    1.6556   -0.8647 C   0  0  0  0  0  0  0  0  0  0  0  0
   -1.5603    2.3435   -2.1186 C   0  0  0  0  0  0  0  0  0  0  0  0
   -2.4856    2.5243   -2.6816 H   0  0  0  0  0  0  0  0  0  0  0  0
   -0.3511    2.8227   -2.5835 C   0  0  0  0  0  0  0  0  0  0  0  0
   -0.2921    3.3683   -3.5383 H   0  0  0  0  0  0  0  0  0  0  0  0
    2.1116    3.1315   -2.1617 C   0  0  0  0  0  3  0  0  0  0  0  0
    2.2320    3.6897   -3.1019 H   0  0  0  0  0  0  0  0  0  0  0  0
    3.1928    2.9082   -1.3147 C   0  0  0  0  0  0  0  0  0  0  0  0
    4.1881    3.2911   -1.5871 H   0  0  0  0  0  0  0  0  0  0  0  0
    3.0484    2.1857   -0.1069 C   0  0  0  0  0  0  0  0  0  0  0  0
    3.9077    1.9870    0.5481 H   0  0  0  0  0  0  0  0  0  0  0  0
    1.8002    1.6757    0.2597 C   0  0  0  0  0  0  0  0  0  0  0  0
    0.6616    1.9146   -0.5793 C   0  0  0  0  0  0  0  0  0  0  0  0
    0.8254    2.6401   -1.8062 C   0  0  0  0  0  0  0  0  0  0  0  0
   -2.9850    1.2654   -0.3635 C   0  0  0  0  0  0  0  0  0  0  0  0
   -3.9755    0.8115   -1.2652 C   0  0  0  0  0  0  0  0  0  0  0  0
   -3.7231    0.6684   -2.3266 H   0  0  0  0  0  0  0  0  0  0  0  0
   -5.2618    0.4942   -0.8131 C   0  0  0  0  0  0  0  0  0  0  0  0
   -6.0159    0.1268   -1.5254 H   0  0  0  0  0  0  0  0  0  0  0  0
   -5.5814    0.6307    0.5481 C   0  0  0  0  0  0  0  0  0  0  0  0
   -6.5930    0.3837    0.9052 H   0  0  0  0  0  0  0  0  0  0  0  0
   -4.6057    1.0843    1.4501 C   0  0  0  0  0  0  0  0  0  0  0  0
   -4.8472    1.1948    2.5179 H   0  0  0  0  0  0  0  0  0  0  0  0
   -3.3171    1.4022    1.0018 C   0  0  0  0  0  0  0  0  0  0  0  0
   -2.5581    1.7572    1.7131 H   0  0  0  0  0  0  0  0  0  0  0  0
    1.6265    0.9563    1.3646 O   0  5  0  0  0  0  0  0  0  0  0  0
  2 16  1  0  0  0  0
  2  1  1  0  0  0  0
  3  2  2  0  0  0  0
  4  3  1  0  0  0  0
  5  3  1  0  0  0  0
  5 15  2  0  0  0  0
  6  5  1  0  0  0  0
  7 15  1  0  0  0  0
  7  9  1  0  0  0  0
  8  7  1  0  0  0  0
  9 11  2  0  0  0  0
 10  9  1  0  0  0  0
 11 13  1  0  0  0  0
 11 12  1  0  0  0  0
 13 27  1  0  0  0  0
 14  1  1  0  0  0  0
 14 13  2  0  0  0  0
 15 14  1  0  0  0  0
 16 25  1  0  0  0  0
 17 19  1  0  0  0  0
 17 16  2  0  0  0  0
 18 17  1  0  0  0  0
 19 21  2  0  0  0  0
 20 19  1  0  0  0  0
 21 22  1  0  0  0  0
 21 23  1  0  0  0  0
 23 24  1  0  0  0  0
 25 23  2  0  0  0  0
 25 26  1  0  0  0  0
M  CHG  1  27  -1
M  END
