1,2
 OpenBabel05122313063D

 66 71  0  0  1  0  0  0  0  0999 V2000
    2.1279    0.8733    0.6206 N   0  0  0  0  0  2  0  0  0  0  0  0
   -0.3815    0.1260    0.8747 O   0  5  0  0  0  0  0  0  0  0  0  0
    1.7103    0.5553   -2.1959 O   0  0  0  0  0  0  0  0  0  0  0  0
   -0.7860    1.2872    0.4201 C   0  0  0  0  0  0  0  0  0  0  0  0
    0.1752    2.3368    0.2649 C   0  0  0  0  0  0  0  0  0  0  0  0
   -0.2407    3.6251   -0.1607 C   0  0  0  0  0  0  0  0  0  0  0  0
    0.5165    4.4186   -0.2728 H   0  0  0  0  0  0  0  0  0  0  0  0
   -1.5773    3.8848   -0.4552 C   0  0  0  0  0  0  0  0  0  0  0  0
   -2.4964    2.8038   -0.3721 C   0  0  0  0  0  0  0  0  0  0  0  0
   -3.5415    3.0088   -0.6468 H   0  0  0  0  0  0  0  0  0  0  0  0
   -2.1494    1.5073    0.0274 C   0  0  0  0  0  0  0  0  0  0  0  0
    1.5784    2.0245    0.3066 C   0  0  0  0  0  3  0  0  0  0  0  0
    2.2497    2.8164   -0.0862 H   0  0  0  0  0  0  0  0  0  0  0  0
   -2.0539    5.2534   -0.8718 C   0  0  0  0  0  0  0  0  0  0  0  0
   -1.2091    5.9559   -1.0089 H   0  0  0  0  0  0  0  0  0  0  0  0
   -2.7338    5.6924   -0.1109 H   0  0  0  0  0  0  0  0  0  0  0  0
   -2.6237    5.2149   -1.8235 H   0  0  0  0  0  0  0  0  0  0  0  0
    3.5051    0.7321    0.2894 C   0  0  0  0  0  0  0  0  0  0  0  0
    3.8841   -0.3084   -0.5979 C   0  0  0  0  0  0  0  0  0  0  0  0
    5.2558   -0.4737   -0.8788 C   0  0  0  0  0  0  0  0  0  0  0  0
    5.5545   -1.2733   -1.5736 H   0  0  0  0  0  0  0  0  0  0  0  0
    6.2258    0.3675   -0.3157 C   0  0  0  0  0  0  0  0  0  0  0  0
    7.2890    0.2162   -0.5546 H   0  0  0  0  0  0  0  0  0  0  0  0
    5.8340    1.4014    0.5476 C   0  0  0  0  0  0  0  0  0  0  0  0
    6.5866    2.0632    1.0019 H   0  0  0  0  0  0  0  0  0  0  0  0
    4.4772    1.5816    0.8478 C   0  0  0  0  0  0  0  0  0  0  0  0
    4.1571    2.3600    1.5563 H   0  0  0  0  0  0  0  0  0  0  0  0
    2.8828   -1.2408   -1.1832 C   0  0  0  0  0  0  0  0  0  0  0  0
    1.7798   -0.7827   -1.9639 C   0  0  0  0  0  0  0  0  0  0  0  0
    0.8561   -1.7098   -2.4881 C   0  0  0  0  0  0  0  0  0  0  0  0
   -0.0089   -1.3618   -3.0672 H   0  0  0  0  0  0  0  0  0  0  0  0
    1.0461   -3.0858   -2.2913 C   0  0  0  0  0  0  0  0  0  0  0  0
    0.3156   -3.7937   -2.7118 H   0  0  0  0  0  0  0  0  0  0  0  0
    2.1509   -3.5550   -1.5687 C   0  0  0  0  0  0  0  0  0  0  0  0
    2.2989   -4.6325   -1.4089 H   0  0  0  0  0  0  0  0  0  0  0  0
    3.0504   -2.6307   -1.0197 C   0  0  0  0  0  0  0  0  0  0  0  0
    3.9028   -2.9808   -0.4180 H   0  0  0  0  0  0  0  0  0  0  0  0
    0.6098    1.0671   -2.9297 C   0  0  0  0  0  0  0  0  0  0  0  0
    0.7436    2.1636   -2.9622 H   0  0  0  0  0  0  0  0  0  0  0  0
   -0.3581    0.8443   -2.4303 H   0  0  0  0  0  0  0  0  0  0  0  0
    0.5890    0.6688   -3.9683 H   0  0  0  0  0  0  0  0  0  0  0  0
   -3.1471    0.3482    0.0321 C   0  0  1  0  0  0  0  0  0  0  0  0
   -4.5517    0.7676   -0.4653 C   0  0  0  0  0  0  0  0  0  0  0  0
   -4.9597    1.5695    0.1876 H   0  0  0  0  0  0  0  0  0  0  0  0
   -4.4784    1.1900   -1.4912 H   0  0  0  0  0  0  0  0  0  0  0  0
   -2.6353   -0.7777   -0.9167 C   0  0  0  0  0  0  0  0  0  0  0  0
   -2.5530   -0.3645   -1.9467 H   0  0  0  0  0  0  0  0  0  0  0  0
   -1.6220   -1.0971   -0.6067 H   0  0  0  0  0  0  0  0  0  0  0  0
   -3.3141   -0.2345    1.4662 C   0  0  0  0  0  0  0  0  0  0  0  0
   -2.3258   -0.5373    1.8580 H   0  0  0  0  0  0  0  0  0  0  0  0
   -3.7035    0.5634    2.1346 H   0  0  0  0  0  0  0  0  0  0  0  0
   -5.5212   -0.4313   -0.4707 C   0  0  1  0  0  0  0  0  0  0  0  0
   -6.5135   -0.0871   -0.8333 H   0  0  0  0  0  0  0  0  0  0  0  0
   -3.5957   -1.9797   -0.9080 C   0  0  2  0  0  0  0  0  0  0  0  0
   -3.1913   -2.7679   -1.5794 H   0  0  0  0  0  0  0  0  0  0  0  0
   -4.2714   -1.4396    1.4570 C   0  0  2  0  0  0  0  0  0  0  0  0
   -4.3559   -1.8389    2.4903 H   0  0  0  0  0  0  0  0  0  0  0  0
   -4.9821   -1.5318   -1.4037 C   0  0  0  0  0  0  0  0  0  0  0  0
   -5.6844   -2.3931   -1.4221 H   0  0  0  0  0  0  0  0  0  0  0  0
   -4.9101   -1.1500   -2.4454 H   0  0  0  0  0  0  0  0  0  0  0  0
   -3.7090   -2.5320    0.5263 C   0  0  0  0  0  0  0  0  0  0  0  0
   -4.3717   -3.4242    0.5398 H   0  0  0  0  0  0  0  0  0  0  0  0
   -2.7104   -2.8619    0.8853 H   0  0  0  0  0  0  0  0  0  0  0  0
   -5.6567   -0.9942    0.9562 C   0  0  0  0  0  0  0  0  0  0  0  0
   -6.0767   -0.2206    1.6349 H   0  0  0  0  0  0  0  0  0  0  0  0
   -6.3657   -1.8502    0.9624 H   0  0  0  0  0  0  0  0  0  0  0  0
  3 29  1  0  0  0  0
  4  2  1  0  0  0  0
  5 12  1  0  0  0  0
  5  4  1  0  0  0  0
  6  5  2  0  0  0  0
  7  6  1  0  0  0  0
  8  9  2  0  0  0  0
  8  6  1  0  0  0  0
  9 11  1  0  0  0  0
 10  9  1  0  0  0  0
 11  4  2  0  0  0  0
 12  1  1  0  0  0  0
 13 12  1  0  0  0  0
 14  8  1  0  0  0  0
 14 16  1  0  0  0  0
 15 14  1  0  0  0  0
 17 14  1  0  0  0  0
 18  1  1  0  0  0  0
 18 26  1  0  0  0  0
 19 18  2  0  0  0  0
 20 19  1  0  0  0  0
 20 22  2  0  0  0  0
 21 20  1  0  0  0  0
 22 24  1  0  0  0  0
 23 22  1  0  0  0  0
 24 26  2  0  0  0  0
 24 25  1  0  0  0  0
 26 27  1  0  0  0  0
 28 36  1  0  0  0  0
 28 19  1  0  0  0  0
 29 28  2  0  0  0  0
 30 32  2  0  0  0  0
 30 29  1  0  0  0  0
 31 30  1  0  0  0  0
 32 34  1  0  0  0  0
 33 32  1  0  0  0  0
 34 35  1  0  0  0  0
 34 36  2  0  0  0  0
 36 37  1  0  0  0  0
 38 40  1  0  0  0  0
 38  3  1  0  0  0  0
 39 38  1  0  0  0  0
 41 38  1  0  0  0  0
 42 11  1  1  0  0  0
 42 49  1  0  0  0  0
 43 42  1  0  0  0  0
 43 44  1  0  0  0  0
 45 43  1  0  0  0  0
 46 54  1  0  0  0  0
 46 48  1  0  0  0  0
 46 42  1  0  0  0  0
 47 46  1  0  0  0  0
 49 50  1  0  0  0  0
 49 51  1  0  0  0  0
 52 53  1  6  0  0  0
 52 43  1  0  0  0  0
 52 64  1  0  0  0  0
 54 55  1  6  0  0  0
 54 61  1  0  0  0  0
 56 49  1  0  0  0  0
 56 57  1  1  0  0  0
 58 54  1  0  0  0  0
 58 52  1  0  0  0  0
 59 58  1  0  0  0  0
 60 58  1  0  0  0  0
 61 62  1  0  0  0  0
 61 63  1  0  0  0  0
 61 56  1  0  0  0  0
 64 66  1  0  0  0  0
 64 56  1  0  0  0  0
 64 65  1  0  0  0  0
M  CHG  1   2  -1
M  END
