1,2
 OpenBabel05122313063D

 18 19  0  0  1  0  0  0  0  0999 V2000
   -1.3051    1.6431   -0.0375 O   0  5  0  0  0  0  0  0  0  0  0  0
   -1.8116   -1.0287   -0.1249 N   0  0  0  0  0  2  0  0  0  0  0  0
   -7.4978    0.6657    0.1198 O   0  0  0  0  0  0  0  0  0  0  0  0
   -2.8656   -0.1686   -0.0504 C   0  0  1  0  0  3  0  0  0  0  0  0
   -6.5955   -0.1752    0.0594 N   0  0  0  0  0  0  0  0  0  0  0  0
   -3.6421    2.1626    0.0675 C   0  0  0  0  0  0  0  0  0  0  0  0
   -3.4137    3.2385    0.1057 H   0  0  0  0  0  0  0  0  0  0  0  0
   -2.5417    1.2614   -0.0017 C   0  0  0  0  0  0  0  0  0  0  0  0
   -4.9580    1.6999    0.0896 C   0  0  0  0  0  0  0  0  0  0  0  0
   -5.8158    2.3896    0.1450 H   0  0  0  0  0  0  0  0  0  0  0  0
   -4.2141   -0.6365   -0.0286 C   0  0  0  0  0  0  0  0  0  0  0  0
   -5.2741    0.3273    0.0426 C   0  0  0  0  0  0  0  0  0  0  0  0
   -3.3193   -2.8948   -0.1518 C   0  0  0  0  0  0  0  0  0  0  0  0
   -3.4488   -3.9859   -0.1915 H   0  0  0  0  0  0  0  0  0  0  0  0
   -2.0151   -2.3458   -0.1708 C   0  0  0  0  0  0  0  0  0  0  0  0
   -1.1125   -2.9768   -0.2233 H   0  0  0  0  0  0  0  0  0  0  0  0
   -4.4163   -2.0443   -0.0805 C   0  0  0  0  0  0  0  0  0  0  0  0
   -5.4503   -2.4176   -0.0614 H   0  0  0  0  0  0  0  0  0  0  0  0
  1  8  1  0  0  0  0
  4  2  1  6  0  0  0
  4 11  1  0  0  0  0
  4  8  1  0  0  0  0
  5  3  2  0  0  0  0
  6  9  1  0  0  0  0
  6  7  1  0  0  0  0
  8  6  2  0  0  0  0
  9 10  1  0  0  0  0
 11 12  1  0  0  0  0
 12  5  1  0  0  0  0
 12  9  2  0  0  0  0
 13 17  1  0  0  0  0
 14 13  1  0  0  0  0
 15 13  2  0  0  0  0
 15  2  1  0  0  0  0
 16 15  1  0  0  0  0
 17 18  1  0  0  0  0
 17 11  2  0  0  0  0
M  CHG  1   1  -1
M  END
