1,2
 OpenBabel05122313063D

 18 19  0  0  0  0  0  0  0  0999 V2000
    1.3051   -1.6432    0.0391 O   0  5  0  0  0  0  0  0  0  0  0  0
    1.8116    1.0287    0.1266 N   0  0  0  0  0  0  0  0  0  0  0  0
    7.4976   -0.6654   -0.1241 O   0  5  0  0  0  0  0  0  0  0  0  0
    2.8655    0.1687    0.0508 C   0  0  0  0  0  0  0  0  0  0  0  0
    6.5953    0.1755   -0.0626 N   0  0  0  0  0  0  0  0  0  0  0  0
    3.6420   -2.1625   -0.0683 C   0  0  0  0  0  0  0  0  0  0  0  0
    3.4136   -3.2384   -0.1065 H   0  0  0  0  0  0  0  0  0  0  0  0
    2.5417   -1.2613    0.0022 C   0  0  0  0  0  0  0  0  0  0  0  0
    4.9579   -1.6998   -0.0916 C   0  0  0  0  0  3  0  0  0  0  0  0
    5.8157   -2.3893   -0.1481 H   0  0  0  0  0  0  0  0  0  0  0  0
    4.2140    0.6366    0.0278 C   0  0  0  0  0  0  0  0  0  0  0  0
    5.2740   -0.3272   -0.0447 C   0  0  0  0  0  0  0  0  0  0  0  0
    3.3192    2.8948    0.1523 C   0  0  0  0  0  0  0  0  0  0  0  0
    3.4488    3.9859    0.1920 H   0  0  0  0  0  0  0  0  0  0  0  0
    2.0150    2.3458    0.1725 C   0  0  0  0  0  0  0  0  0  0  0  0
    1.1125    2.9768    0.2259 H   0  0  0  0  0  0  0  0  0  0  0  0
    4.4162    2.0444    0.0797 C   0  0  0  0  0  0  0  0  0  0  0  0
    5.4501    2.4178    0.0597 H   0  0  0  0  0  0  0  0  0  0  0  0
  2 15  1  0  0  0  0
  3  5  1  0  0  0  0
  4  2  2  0  0  0  0
  5 12  2  0  0  0  0
  6  8  2  0  0  0  0
  7  6  1  0  0  0  0
  8  1  1  0  0  0  0
  8  4  1  0  0  0  0
  9  6  1  0  0  0  0
  9 12  1  0  0  0  0
 10  9  1  0  0  0  0
 11  4  1  0  0  0  0
 11 17  2  0  0  0  0
 12 11  1  0  0  0  0
 13 15  2  0  0  0  0
 13 14  1  0  0  0  0
 15 16  1  0  0  0  0
 17 13  1  0  0  0  0
 18 17  1  0  0  0  0
M  CHG  2   1  -1   3  -1
M  END
