2,3
 OpenBabel05122313063D

 34 36  0  0  0  0  0  0  0  0999 V2000
   -1.1513   -0.0075   -0.2551 P   0  0  0  0  0  4  0  0  0  0  0  0
    0.0059    0.0333   -1.2770 O   0  0  0  0  0  1  0  0  0  0  0  0
    0.9429    0.1553    1.4465 N   0  0  0  0  0  2  0  0  0  0  0  0
    1.5679    0.2973    2.6330 C   0  0  0  0  0  3  0  0  0  0  0  0
    2.6610    0.4060    2.6014 H   0  0  0  0  0  0  0  0  0  0  0  0
    0.8727    0.2971    3.8478 C   0  0  0  0  0  0  0  0  0  0  0  0
    1.4299    0.4105    4.7883 H   0  0  0  0  0  0  0  0  0  0  0  0
   -0.5207    0.1479    3.8379 C   0  0  0  0  0  0  0  0  0  0  0  0
   -1.0933    0.1367    4.7771 H   0  0  0  0  0  0  0  0  0  0  0  0
   -1.1716    0.0203    2.6038 C   0  0  0  0  0  0  0  0  0  0  0  0
   -2.2647   -0.0842    2.5431 H   0  0  0  0  0  0  0  0  0  0  0  0
   -0.4053    0.0297    1.4309 C   0  0  0  0  0  0  0  0  0  0  0  0
   -2.1562    1.5019   -0.3546 C   0  0  0  0  0  0  0  0  0  0  0  0
   -3.4654    1.5902    0.1655 C   0  0  0  0  0  0  0  0  0  0  0  0
   -3.9577    0.7051    0.5968 H   0  0  0  0  0  0  0  0  0  0  0  0
   -4.1467    2.8144    0.1198 C   0  0  0  0  0  0  0  0  0  0  0  0
   -5.1700    2.8862    0.5179 H   0  0  0  0  0  0  0  0  0  0  0  0
   -3.5241    3.9445   -0.4374 C   0  0  0  0  0  0  0  0  0  0  0  0
   -4.0633    4.9035   -0.4735 H   0  0  0  0  0  0  0  0  0  0  0  0
   -2.2176    3.8550   -0.9433 C   0  0  0  0  0  0  0  0  0  0  0  0
   -1.7269    4.7429   -1.3696 H   0  0  0  0  0  0  0  0  0  0  0  0
   -1.5233    2.6369   -0.9042 C   0  0  0  0  0  0  0  0  0  0  0  0
   -0.4823    2.5593   -1.2634 H   0  0  0  0  0  0  0  0  0  0  0  0
   -2.2486   -1.4482   -0.3408 C   0  0  0  0  0  0  0  0  0  0  0  0
   -3.4045   -1.4120   -1.1501 C   0  0  0  0  0  0  0  0  0  0  0  0
   -3.6816   -0.4896   -1.6821 H   0  0  0  0  0  0  0  0  0  0  0  0
   -4.1981   -2.5603   -1.2811 C   0  0  0  0  0  0  0  0  0  0  0  0
   -5.0983   -2.5326   -1.9131 H   0  0  0  0  0  0  0  0  0  0  0  0
   -3.8395   -3.7422   -0.6131 C   0  0  0  0  0  0  0  0  0  0  0  0
   -4.4646   -4.6421   -0.7177 H   0  0  0  0  0  0  0  0  0  0  0  0
   -2.6776   -3.7838    0.1753 C   0  0  0  0  0  0  0  0  0  0  0  0
   -2.3847   -4.7166    0.6797 H   0  0  0  0  0  0  0  0  0  0  0  0
   -1.8741   -2.6439    0.3093 C   0  0  0  0  0  0  0  0  0  0  0  0
   -0.9291   -2.6878    0.8735 H   0  0  0  0  0  0  0  0  0  0  0  0
  1 12  1  0  0  0  0
  2  1  1  0  0  0  0
  3  4  1  0  0  0  0
  4  6  1  0  0  0  0
  5  4  1  0  0  0  0
  6  7  1  0  0  0  0
  8  6  2  0  0  0  0
  8  9  1  0  0  0  0
 10  8  1  0  0  0  0
 11 10  1  0  0  0  0
 12  3  1  0  0  0  0
 12 10  2  0  0  0  0
 13  1  1  0  0  0  0
 13 14  1  0  0  0  0
 14 15  1  0  0  0  0
 16 14  2  0  0  0  0
 16 17  1  0  0  0  0
 18 16  1  0  0  0  0
 19 18  1  0  0  0  0
 20 22  1  0  0  0  0
 20 18  2  0  0  0  0
 21 20  1  0  0  0  0
 22 13  2  0  0  0  0
 23 22  1  0  0  0  0
 24  1  1  0  0  0  0
 24 33  1  0  0  0  0
 25 24  2  0  0  0  0
 26 25  1  0  0  0  0
 27 25  1  0  0  0  0
 27 29  2  0  0  0  0
 28 27  1  0  0  0  0
 29 31  1  0  0  0  0
 30 29  1  0  0  0  0
 31 33  2  0  0  0  0
 31 32  1  0  0  0  0
 33 34  1  0  0  0  0
M  END
