1,4
 OpenBabel05122313063D

 20 20  0  0  1  0  0  0  0  0999 V2000
   -0.7881   -0.3014   -0.8635 O   0  0  0  0  0  1  0  0  0  0  0  0
   -1.3446   -0.1663   -3.0134 N   0  0  0  0  0  0  0  0  0  0  0  0
   -1.9596    0.1120   -3.7809 H   0  0  0  0  0  0  0  0  0  0  0  0
   -0.3953   -1.1311   -3.1973 N   0  0  0  0  0  2  0  0  0  0  0  0
   -0.2938   -1.3826   -4.1845 H   0  0  0  0  0  0  0  0  0  0  0  0
   -1.5229    0.2386   -1.7260 C   0  0  1  0  0  3  0  0  0  0  0  0
   -2.5513    1.2457   -1.3947 C   0  0  0  0  0  0  0  0  0  0  0  0
   -2.8973    1.3912   -0.0336 C   0  0  0  0  0  0  0  0  0  0  0  0
   -2.3915    0.7628    0.7137 H   0  0  0  0  0  0  0  0  0  0  0  0
   -3.8676    2.3192    0.3488 C   0  0  0  0  0  0  0  0  0  0  0  0
   -4.1243    2.4141    1.4155 H   0  0  0  0  0  0  0  0  0  0  0  0
   -4.5204    3.1338   -0.6022 C   0  0  0  0  0  0  0  0  0  0  0  0
   -4.1553    2.9924   -1.9576 C   0  0  0  0  0  0  0  0  0  0  0  0
   -4.6352    3.6309   -2.7155 H   0  0  0  0  0  0  0  0  0  0  0  0
   -3.1841    2.0653   -2.3527 C   0  0  0  0  0  0  0  0  0  0  0  0
   -2.9040    2.0133   -3.4170 H   0  0  0  0  0  0  0  0  0  0  0  0
   -5.5823    4.1136   -0.1768 C   0  0  0  0  0  0  0  0  0  0  0  0
   -5.8299    4.8298   -0.9838 H   0  0  0  0  0  0  0  0  0  0  0  0
   -5.2660    4.6908    0.7155 H   0  0  0  0  0  0  0  0  0  0  0  0
   -6.5192    3.5845    0.1001 H   0  0  0  0  0  0  0  0  0  0  0  0
  2  6  1  0  0  0  0
  3  2  1  0  0  0  0
  4  2  1  0  0  0  0
  5  4  1  0  0  0  0
  6  7  1  0  0  0  0
  6  1  1  1  0  0  0
  7  8  1  0  0  0  0
  8 10  2  0  0  0  0
  8  9  1  0  0  0  0
 10 11  1  0  0  0  0
 12 17  1  0  0  0  0
 12 10  1  0  0  0  0
 13 12  2  0  0  0  0
 14 13  1  0  0  0  0
 15 13  1  0  0  0  0
 15  7  2  0  0  0  0
 16 15  1  0  0  0  0
 17 20  1  0  0  0  0
 17 19  1  0  0  0  0
 18 17  1  0  0  0  0
M  END
