2,3
 OpenBabel05122313063D

 36 36  0  0  1  0  0  0  0  0999 V2000
    4.1015    1.3615   -0.1484 H   0  0  0  0  0  0  0  0  0  0  0  0
    1.7174   -0.5303    1.2358 O   0  5  0  0  0  0  0  0  0  0  0  0
    0.7334    1.5954   -0.5237 N   0  0  0  0  0  2  0  0  0  0  0  0
    0.7000    4.3797   -2.6637 O   0  0  0  0  0  1  0  0  0  0  0  0
    0.9677    3.3738   -1.9437 N   0  0  0  0  0  0  0  0  0  0  0  0
    2.8373   -0.0119    0.8762 C   0  0  0  0  0  0  0  0  0  0  0  0
    4.1067   -0.6692    1.4229 C   0  0  0  0  0  0  0  0  0  0  0  0
    5.2283   -0.2067    1.2944 O   0  0  0  0  0  0  0  0  0  0  0  0
    3.8236   -1.8362    2.0345 O   0  0  0  0  0  0  0  0  0  0  0  0
    4.9488   -2.5530    2.5921 C   0  0  0  0  0  0  0  0  0  0  0  0
    5.2945   -2.0469    3.9828 C   0  0  0  0  0  0  0  0  0  0  0  0
    3.0551    1.0746    0.0169 C   0  0  0  0  0  0  0  0  0  0  0  0
    2.0344    1.8315   -0.6150 C   0  0  1  0  0  3  0  0  0  0  0  0
    2.3395    3.0342   -1.4968 C   0  0  0  0  0  0  0  0  0  0  0  0
    2.9377    4.2169   -0.7108 C   0  0  0  0  0  0  0  0  0  0  0  0
    3.2062    2.6889   -2.7197 C   0  0  0  0  0  0  0  0  0  0  0  0
   -0.0702    2.5677   -1.2550 C   0  0  0  0  0  0  0  0  0  0  0  0
   -0.9788    1.8892   -2.2890 C   0  0  0  0  0  0  0  0  0  0  0  0
   -0.8774    3.4593   -0.2954 C   0  0  0  0  0  0  0  0  0  0  0  0
    5.8138   -2.4485    1.9055 H   0  0  0  0  0  0  0  0  0  0  0  0
    4.6205   -3.6103    2.6116 H   0  0  0  0  0  0  0  0  0  0  0  0
    6.1030   -2.6668    4.4200 H   0  0  0  0  0  0  0  0  0  0  0  0
    4.4146   -2.0997    4.6541 H   0  0  0  0  0  0  0  0  0  0  0  0
    5.6504   -0.9993    3.9400 H   0  0  0  0  0  0  0  0  0  0  0  0
    2.3622    4.4133    0.2145 H   0  0  0  0  0  0  0  0  0  0  0  0
    2.8885    5.1172   -1.3548 H   0  0  0  0  0  0  0  0  0  0  0  0
    3.9919    4.0187   -0.4370 H   0  0  0  0  0  0  0  0  0  0  0  0
    2.8193    1.7897   -3.2376 H   0  0  0  0  0  0  0  0  0  0  0  0
    4.2580    2.5079   -2.4256 H   0  0  0  0  0  0  0  0  0  0  0  0
    3.1686    3.5444   -3.4228 H   0  0  0  0  0  0  0  0  0  0  0  0
   -1.7882    1.3216   -1.7881 H   0  0  0  0  0  0  0  0  0  0  0  0
   -0.3902    1.1995   -2.9245 H   0  0  0  0  0  0  0  0  0  0  0  0
   -1.4275    2.6696   -2.9332 H   0  0  0  0  0  0  0  0  0  0  0  0
   -1.6352    2.8616    0.2472 H   0  0  0  0  0  0  0  0  0  0  0  0
   -1.3668    4.2619   -0.8803 H   0  0  0  0  0  0  0  0  0  0  0  0
   -0.2022    3.9238    0.4491 H   0  0  0  0  0  0  0  0  0  0  0  0
  1 12  1  0  0  0  0
  4  5  1  0  0  0  0
  5 14  1  0  0  0  0
  5 17  1  0  0  0  0
  6  2  1  0  0  0  0
  6  7  1  0  0  0  0
  7  9  1  0  0  0  0
  8  7  2  0  0  0  0
  9 10  1  0  0  0  0
 10 21  1  0  0  0  0
 10 11  1  0  0  0  0
 11 22  1  0  0  0  0
 11 23  1  0  0  0  0
 12  6  2  0  0  0  0
 13  3  1  0  0  0  0
 13 12  1  6  0  0  0
 14 15  1  0  0  0  0
 14 13  1  0  0  0  0
 15 27  1  0  0  0  0
 15 25  1  0  0  0  0
 16 29  1  0  0  0  0
 16 14  1  0  0  0  0
 17  3  1  0  0  0  0
 17 19  1  0  0  0  0
 18 31  1  0  0  0  0
 18 17  1  0  0  0  0
 19 34  1  0  0  0  0
 19 36  1  0  0  0  0
 20 10  1  0  0  0  0
 24 11  1  0  0  0  0
 26 15  1  0  0  0  0
 28 16  1  0  0  0  0
 30 16  1  0  0  0  0
 32 18  1  0  0  0  0
 33 18  1  0  0  0  0
 35 19  1  0  0  0  0
M  CHG  1   2  -1
M  END
