1,3
 OpenBabel05122313063D

 16 16  0  0  0  0  0  0  0  0999 V2000
   -0.6909   -0.0749   -0.0008 O   0  5  0  0  0  0  0  0  0  0  0  0
   -1.9115   -2.0065    0.0007 N   0  0  0  0  0  0  0  0  0  0  0  0
   -0.6598   -2.4939    0.0009 N   0  0  0  0  0  2  0  0  0  0  0  0
   -1.8357   -0.6680   -0.0002 C   0  0  0  0  0  0  0  0  0  0  0  0
   -3.0909    0.1161   -0.0005 C   0  0  0  0  0  0  0  0  0  0  0  0
   -3.0263    1.5271   -0.0012 C   0  0  0  0  0  0  0  0  0  0  0  0
   -4.1999    2.2929   -0.0015 C   0  0  0  0  0  0  0  0  0  0  0  0
   -5.4568    1.6644   -0.0010 C   0  0  0  0  0  0  0  0  0  0  0  0
   -5.5285    0.2584   -0.0003 C   0  0  0  0  0  0  0  0  0  0  0  0
   -4.3586   -0.5101   -0.0000 C   0  0  0  0  0  0  0  0  0  0  0  0
   -2.0290    1.9912   -0.0015 H   0  0  0  0  0  0  0  0  0  0  0  0
   -4.1355    3.3930   -0.0020 H   0  0  0  0  0  0  0  0  0  0  0  0
   -6.3791    2.2669   -0.0013 H   0  0  0  0  0  0  0  0  0  0  0  0
   -6.5108   -0.2412    0.0000 H   0  0  0  0  0  0  0  0  0  0  0  0
   -4.3890   -1.6093    0.0005 H   0  0  0  0  0  0  0  0  0  0  0  0
   -0.6611   -3.5207    0.0013 H   0  0  0  0  0  0  0  0  0  0  0  0
  1  4  1  0  0  0  0
  2  3  1  0  0  0  0
  3 16  1  0  0  0  0
  4  2  2  0  0  0  0
  5  4  1  0  0  0  0
  5 10  1  0  0  0  0
  6  5  2  0  0  0  0
  7  6  1  0  0  0  0
  7  8  2  0  0  0  0
  8  9  1  0  0  0  0
  9 10  2  0  0  0  0
  9 14  1  0  0  0  0
 10 15  1  0  0  0  0
 11  6  1  0  0  0  0
 12  7  1  0  0  0  0
 13  8  1  0  0  0  0
M  CHG  1   1  -1
M  END
