1,4
 OpenBabel05122313063D

  7  6  0  0  0  0  0  0  0  0999 V2000
    1.5983   -1.4454    0.0001 O   0  5  0  0  0  0  0  0  0  0  0  0
    3.8622   -1.4172   -0.0001 O   0  0  0  0  0  0  0  0  0  0  0  0
    1.2222    2.4374   -0.0003 O   0  0  0  0  0  1  0  0  0  0  0  0
    1.4798    1.1636    0.0000 N   0  0  0  0  0  2  0  0  0  0  0  0
    2.7779   -0.8343    0.0000 C   0  0  0  0  0  0  0  0  0  0  0  0
    2.6936    0.6601   -0.0000 C   0  0  0  0  0  3  0  0  0  0  0  0
    3.5746    1.3196   -0.0003 H   0  0  0  0  0  0  0  0  0  0  0  0
  2  5  2  0  0  0  0
  3  4  1  0  0  0  0
  5  1  1  0  0  0  0
  6  5  1  0  0  0  0
  6  4  1  0  0  0  0
  7  6  1  0  0  0  0
M  CHG  1   1  -1
M  END
