3,7
q = -1.0, confidence = 0.088

 34 35  0  0  0  0  0  0  0  0999 V2000
    8.1660    2.4965    0.2295 O   0  0  0  0  0  0  0  0  0  0  0  0
    8.5908    0.4086   -0.2619 O   0  0  0  0  0  0  0  0  0  0  0  0
    1.8709   -0.7964   -1.2709 O   0  5  0  0  0  0  0  0  0  0  0  0
   -3.3101    2.9494   -0.9434 O   0  0  0  0  0  0  0  0  0  0  0  0
    7.8291    1.3672   -0.1278 N   0  0  0  0  0  0  0  0  0  0  0  0
    1.3910    1.4588   -1.0729 N   0  0  0  0  0  0  0  0  0  0  0  0
    0.1173    1.0088   -1.2099 N   0  0  0  0  0  2  0  0  0  0  0  0
    3.6841    0.7071   -0.9065 C   0  0  0  0  0  0  0  0  0  0  0  0
    4.6136   -0.3429   -1.0741 C   0  0  0  0  0  0  0  0  0  0  0  0
    4.2435   -1.3249   -1.3999 H   0  0  0  0  0  0  0  0  0  0  0  0
    5.9732   -0.1302   -0.8290 C   0  0  0  0  0  0  0  0  0  0  0  0
    6.7232   -0.9228   -0.9507 H   0  0  0  0  0  0  0  0  0  0  0  0
    6.3913    1.1416   -0.4116 C   0  0  0  0  0  0  0  0  0  0  0  0
    5.4898    2.2035   -0.2420 C   0  0  0  0  0  0  0  0  0  0  0  0
    5.8731    3.1782    0.0876 H   0  0  0  0  0  0  0  0  0  0  0  0
    4.1337    1.9810   -0.4918 C   0  0  0  0  0  0  0  0  0  0  0  0
    3.3951    2.7826   -0.3545 H   0  0  0  0  0  0  0  0  0  0  0  0
    2.2416    0.4419   -1.1153 C   0  0  0  0  0  0  0  0  0  0  0  0
   -0.9123    1.8152   -1.2944 C   0  0  0  0  0  3  0  0  0  0  0  0
   -1.8665    1.2857   -1.4086 H   0  0  0  0  0  0  0  0  0  0  0  0
   -0.9786    3.2608   -1.2423 C   0  0  0  0  0  0  0  0  0  0  0  0
   -2.2857    3.8314   -1.0709 C   0  0  0  0  0  0  0  0  0  0  0  0
   -2.4472    5.2278   -1.0258 C   0  0  0  0  0  0  0  0  0  0  0  0
   -3.4436    5.6693   -0.8939 H   0  0  0  0  0  0  0  0  0  0  0  0
   -1.3270    6.0651   -1.1460 C   0  0  0  0  0  0  0  0  0  0  0  0
   -1.4680    7.1562   -1.1101 H   0  0  0  0  0  0  0  0  0  0  0  0
   -0.0419    5.5247   -1.3105 C   0  0  0  0  0  0  0  0  0  0  0  0
    0.8297    6.1881   -1.4089 H   0  0  0  0  0  0  0  0  0  0  0  0
    0.1279    4.1369   -1.3545 C   0  0  0  0  0  0  0  0  0  0  0  0
    1.1192    3.6861   -1.4866 H   0  0  0  0  0  0  0  0  0  0  0  0
   -4.6280    3.4325   -0.7509 C   0  0  0  0  0  0  0  0  0  0  0  0
   -5.2717    2.5379   -0.6606 H   0  0  0  0  0  0  0  0  0  0  0  0
   -4.9723    4.0468   -1.6119 H   0  0  0  0  0  0  0  0  0  0  0  0
   -4.7110    4.0358    0.1798 H   0  0  0  0  0  0  0  0  0  0  0  0
  2  5  2  0  0  0  0
  3 18  1  0  0  0  0
  4 31  1  0  0  0  0
  5  1  2  0  0  0  0
  7  6  1  0  0  0  0
  8 16  1  0  0  0  0
  9  8  2  0  0  0  0
  9 11  1  0  0  0  0
 10  9  1  0  0  0  0
 11 13  2  0  0  0  0
 12 11  1  0  0  0  0
 13 14  1  0  0  0  0
 13  5  1  0  0  0  0
 14 15  1  0  0  0  0
 16 17  1  0  0  0  0
 16 14  2  0  0  0  0
 18  6  2  0  0  0  0
 18  8  1  0  0  0  0
 19 21  1  0  0  0  0
 19  7  1  0  0  0  0
 20 19  1  0  0  0  0
 21 22  1  0  0  0  0
 22 23  2  0  0  0  0
 22  4  1  0  0  0  0
 23 24  1  0  0  0  0
 25 26  1  0  0  0  0
 25 23  1  0  0  0  0
 27 25  2  0  0  0  0
 28 27  1  0  0  0  0
 29 27  1  0  0  0  0
 29 21  2  0  0  0  0
 30 29  1  0  0  0  0
 31 32  1  0  0  0  0
 31 34  1  0  0  0  0
 33 31  1  0  0  0  0
M  CHG  1   3  -1
M  END
