1,9
 OpenBabel05122313063D

 32 32  0  0  1  0  0  0  0  0999 V2000
   -0.2737   -1.7828   -0.4236 O   0  0  0  0  0  1  0  0  0  0  0  0
   -0.0657   -4.1115   -0.6018 C   0  0  0  0  0  0  0  0  0  0  0  0
   -1.1460   -3.9815   -0.7990 H   0  0  0  0  0  0  0  0  0  0  0  0
    0.0945   -4.7429    0.2941 H   0  0  0  0  0  0  0  0  0  0  0  0
    0.4370   -4.6568   -1.4233 H   0  0  0  0  0  0  0  0  0  0  0  0
    0.5512   -2.7582   -0.3917 C   0  0  1  0  0  3  0  0  0  0  0  0
    2.5650   -4.8634   -0.1542 O   0  0  0  0  0  0  0  0  0  0  0  0
    2.5276   -1.3255   -0.1632 N   0  0  0  0  0  0  0  0  0  0  0  0
    1.8730   -0.2245   -0.1375 N   0  0  0  0  0  2  0  0  0  0  0  0
    1.9622   -2.5550   -0.2016 C   0  0  0  0  0  0  0  0  0  0  0  0
    2.9284   -3.6871   -0.1254 C   0  0  0  0  0  0  0  0  0  0  0  0
    4.3999   -3.3271    0.0055 C   0  0  0  0  0  0  0  0  0  0  0  0
    4.9883   -4.2619   -0.0063 H   0  0  0  0  0  0  0  0  0  0  0  0
    4.7234   -2.6494   -0.8084 H   0  0  0  0  0  0  0  0  0  0  0  0
    4.5869   -2.7788    0.9513 H   0  0  0  0  0  0  0  0  0  0  0  0
    2.7154    0.9495   -0.1726 C   0  0  0  0  0  0  0  0  0  0  0  0
    3.4575    1.2999    0.9762 C   0  0  0  0  0  0  0  0  0  0  0  0
    4.2360    2.4713    0.9206 C   0  0  0  0  0  0  0  0  0  0  0  0
    4.8200    2.7649    1.8069 H   0  0  0  0  0  0  0  0  0  0  0  0
    4.2681    3.2629   -0.2357 C   0  0  0  0  0  0  0  0  0  0  0  0
    4.8823    4.1756   -0.2605 H   0  0  0  0  0  0  0  0  0  0  0  0
    3.5142    2.8951   -1.3591 C   0  0  0  0  0  0  0  0  0  0  0  0
    3.5360    3.5171   -2.2675 H   0  0  0  0  0  0  0  0  0  0  0  0
    2.7185    1.7353   -1.3462 C   0  0  0  0  0  0  0  0  0  0  0  0
    3.3905    0.4577    2.2226 C   0  0  0  0  0  0  0  0  0  0  0  0
    3.9156    0.9479    3.0640 H   0  0  0  0  0  0  0  0  0  0  0  0
    2.3371    0.2786    2.5238 H   0  0  0  0  0  0  0  0  0  0  0  0
    3.8472   -0.5405    2.0619 H   0  0  0  0  0  0  0  0  0  0  0  0
    1.8715    1.3481   -2.5300 C   0  0  0  0  0  0  0  0  0  0  0  0
    2.0632    2.0109   -3.3950 H   0  0  0  0  0  0  0  0  0  0  0  0
    2.0587    0.3011   -2.8438 H   0  0  0  0  0  0  0  0  0  0  0  0
    0.7903    1.4135   -2.2793 H   0  0  0  0  0  0  0  0  0  0  0  0
  2  6  1  0  0  0  0
  2  4  1  0  0  0  0
  3  2  1  0  0  0  0
  5  2  1  0  0  0  0
  6  1  1  6  0  0  0
  6 10  1  0  0  0  0
  7 11  2  0  0  0  0
  8  9  1  0  0  0  0
 10  8  2  0  0  0  0
 10 11  1  0  0  0  0
 11 12  1  0  0  0  0
 12 15  1  0  0  0  0
 13 12  1  0  0  0  0
 14 12  1  0  0  0  0
 16  9  1  0  0  0  0
 16 17  1  0  0  0  0
 17 25  1  0  0  0  0
 18 17  2  0  0  0  0
 18 19  1  0  0  0  0
 20 18  1  0  0  0  0
 21 20  1  0  0  0  0
 22 24  1  0  0  0  0
 22 20  2  0  0  0  0
 23 22  1  0  0  0  0
 24 16  2  0  0  0  0
 25 27  1  0  0  0  0
 25 26  1  0  0  0  0
 28 25  1  0  0  0  0
 29 32  1  0  0  0  0
 29 24  1  0  0  0  0
 30 29  1  0  0  0  0
 31 29  1  0  0  0  0
M  END
