1,4
 OpenBabel05122313063D

 24 24  0  0  0  0  0  0  0  0999 V2000
    1.6632   -0.8457   -0.0353 O   0  5  0  0  0  0  0  0  0  0  0  0
    2.8238   -0.2524   -0.1015 C   0  0  0  0  0  0  0  0  0  0  0  0
    2.9962    1.0394   -0.7281 C   0  0  0  0  0  0  0  0  0  0  0  0
    0.6240    1.4115   -1.0586 N   0  0  0  0  0  2  0  0  0  0  0  0
    1.8681    1.7456   -1.3376 C   0  0  0  0  0  0  0  0  0  0  0  0
   -0.3074    2.1833   -1.6753 O   0  0  0  0  0  0  0  0  0  0  0  0
   -1.1939    1.8939   -1.2877 H   0  0  0  0  0  0  0  0  0  0  0  0
    2.0746    2.8896   -2.2931 C   0  0  0  0  0  0  0  0  0  0  0  0
    1.3855    2.7784   -3.1524 H   0  0  0  0  0  0  0  0  0  0  0  0
    3.1114    2.9456   -2.6628 H   0  0  0  0  0  0  0  0  0  0  0  0
    1.8043    3.8551   -1.8155 H   0  0  0  0  0  0  0  0  0  0  0  0
    4.2805    1.6151   -0.7715 C   0  0  0  0  0  3  0  0  0  0  0  0
    4.3955    2.6148   -1.2147 H   0  0  0  0  0  0  0  0  0  0  0  0
    5.4334    0.9866   -0.2615 C   0  0  0  0  0  0  0  0  0  0  0  0
    6.7734    1.6771   -0.3002 C   0  0  0  0  0  0  0  0  0  0  0  0
    7.5971    0.9743   -0.0706 H   0  0  0  0  0  0  0  0  0  0  0  0
    6.8240    2.5025    0.4418 H   0  0  0  0  0  0  0  0  0  0  0  0
    6.9733    2.1251   -1.2951 H   0  0  0  0  0  0  0  0  0  0  0  0
    5.2787   -0.2888    0.2870 C   0  0  0  0  0  0  0  0  0  0  0  0
    6.1351   -0.8574    0.6736 H   0  0  0  0  0  0  0  0  0  0  0  0
    4.0146   -0.8959    0.3720 C   0  0  0  0  0  0  0  0  0  0  0  0
    3.9830   -2.2349    0.9615 N   0  0  0  0  0  0  0  0  0  0  0  0
    2.8949   -2.7239    1.3093 O   0  0  0  0  0  0  0  0  0  0  0  0
    5.0558   -2.8293    1.0974 O   0  0  0  0  0  0  0  0  0  0  0  0
  2  1  1  0  0  0  0
  2 21  2  0  0  0  0
  3  2  1  0  0  0  0
  5  4  1  0  0  0  0
  5  3  2  0  0  0  0
  6  7  1  0  0  0  0
  6  4  1  0  0  0  0
  8 11  1  0  0  0  0
  8  5  1  0  0  0  0
  9  8  1  0  0  0  0
 10  8  1  0  0  0  0
 12  3  1  0  0  0  0
 12 14  1  0  0  0  0
 13 12  1  0  0  0  0
 14 19  2  0  0  0  0
 15 14  1  0  0  0  0
 15 16  1  0  0  0  0
 15 17  1  0  0  0  0
 18 15  1  0  0  0  0
 19 21  1  0  0  0  0
 19 20  1  0  0  0  0
 21 22  1  0  0  0  0
 22 24  2  0  0  0  0
 22 23  2  0  0  0  0
M  CHG  1   1  -1
M  END
