11,16
 OpenBabel05122313063D

 24 25  0  0  0  0  0  0  0  0999 V2000
   -2.3562    1.7880   -0.6439 N   0  0  0  0  0  0  0  0  0  0  0  0
   -3.3400    2.6451   -0.9349 C   0  0  0  0  0  0  0  0  0  0  0  0
   -4.3686    2.2554   -0.8396 H   0  0  0  0  0  0  0  0  0  0  0  0
   -3.1077    3.9700   -1.3370 C   0  0  0  0  0  0  0  0  0  0  0  0
   -3.9474    4.6426   -1.5629 H   0  0  0  0  0  0  0  0  0  0  0  0
   -1.7755    4.4051   -1.4313 C   0  0  0  0  0  0  0  0  0  0  0  0
   -1.5450    5.4380   -1.7337 H   0  0  0  0  0  0  0  0  0  0  0  0
   -0.7377    3.5185   -1.1267 C   0  0  0  0  0  0  0  0  0  0  0  0
    0.3091    3.8499   -1.1787 H   0  0  0  0  0  0  0  0  0  0  0  0
   -1.0758    2.2036   -0.7347 C   0  0  0  0  0  0  0  0  0  0  0  0
   -0.1756    1.1906   -0.3761 N   0  0  0  0  0  2  0  0  0  0  0  0
    1.1254    1.2835   -0.5058 C   0  0  0  0  0  3  0  0  0  0  0  0
    1.5635    2.2122   -0.9304 H   0  0  0  0  0  0  0  0  0  0  0  0
    2.0744    0.2676   -0.1603 C   0  0  0  0  0  0  0  0  0  0  0  0
    1.7017   -1.0616    0.3021 C   0  0  0  0  0  0  0  0  0  0  0  0
    0.4784   -1.4626    0.4744 O   0  5  0  0  0  0  0  0  0  0  0  0
    2.7745   -1.9800    0.5458 C   0  0  0  0  0  0  0  0  0  0  0  0
    2.4969   -2.9835    0.9005 H   0  0  0  0  0  0  0  0  0  0  0  0
    4.1063   -1.6327    0.3713 C   0  0  0  0  0  0  0  0  0  0  0  0
    4.9030   -2.3617    0.5804 H   0  0  0  0  0  0  0  0  0  0  0  0
    4.4491   -0.3307   -0.0743 C   0  0  0  0  0  0  0  0  0  0  0  0
    6.2822    0.1281   -0.3117 Br  0  0  0  0  0  0  0  0  0  0  0  0
    3.4524    0.5951   -0.3376 C   0  0  0  0  0  0  0  0  0  0  0  0
    3.7168    1.6036   -0.6909 H   0  0  0  0  0  0  0  0  0  0  0  0
  2  3  1  0  0  0  0
  2  1  2  0  0  0  0
  4  2  1  0  0  0  0
  5  4  1  0  0  0  0
  6  4  2  0  0  0  0
  6  8  1  0  0  0  0
  7  6  1  0  0  0  0
  8 10  2  0  0  0  0
  9  8  1  0  0  0  0
 10  1  1  0  0  0  0
 10 11  1  0  0  0  0
 12 11  1  0  0  0  0
 12 14  1  0  0  0  0
 13 12  1  0  0  0  0
 14 15  1  0  0  0  0
 15 16  1  0  0  0  0
 15 17  2  0  0  0  0
 17 18  1  0  0  0  0
 19 17  1  0  0  0  0
 19 20  1  0  0  0  0
 21 19  2  0  0  0  0
 22 21  1  0  0  0  0
 23 14  2  0  0  0  0
 23 21  1  0  0  0  0
 24 23  1  0  0  0  0
M  CHG  1  16  -1
M  END
