4,14
 OpenBabel05122313063D

 28 28  0  0  1  0  0  0  0  0999 V2000
   -6.0605    1.0924   -0.6298 C   0  0  0  0  0  0  0  0  0  0  0  0
   -6.4667    1.9857   -1.1210 H   0  0  0  0  0  0  0  0  0  0  0  0
   -8.2927    0.3966    0.0974 N   0  0  0  0  0  0  0  0  0  0  0  0
   -0.6932   -1.7014   -0.2598 O   0  0  0  0  0  1  0  0  0  0  0  0
   -9.1427   -0.5385    0.8033 C   0  0  0  0  0  0  0  0  0  0  0  0
   -9.0710   -1.5674    0.3834 H   0  0  0  0  0  0  0  0  0  0  0  0
   -8.8941   -0.6045    1.8880 H   0  0  0  0  0  0  0  0  0  0  0  0
  -10.1955   -0.2138    0.7177 H   0  0  0  0  0  0  0  0  0  0  0  0
   -2.6145   -2.7940   -1.0316 C   0  0  0  0  0  0  0  0  0  0  0  0
   -2.3550   -3.7308   -0.4973 H   0  0  0  0  0  0  0  0  0  0  0  0
   -3.7128   -2.7002   -1.1042 H   0  0  0  0  0  0  0  0  0  0  0  0
   -2.1756   -2.8434   -2.0527 H   0  0  0  0  0  0  0  0  0  0  0  0
   -2.0599   -1.6641   -0.3227 N   0  0  0  0  0  0  0  0  0  0  0  0
   -1.7590    0.5489   -0.0019 N   0  0  0  0  0  2  0  0  0  0  0  0
   -2.1379    1.4321    0.3495 H   0  0  0  0  0  0  0  0  0  0  0  0
   -8.8635    1.5841   -0.5022 C   0  0  0  0  0  0  0  0  0  0  0  0
   -9.9587    1.5785   -0.3558 H   0  0  0  0  0  0  0  0  0  0  0  0
   -8.4643    2.5211   -0.0497 H   0  0  0  0  0  0  0  0  0  0  0  0
   -8.6689    1.6358   -1.5977 H   0  0  0  0  0  0  0  0  0  0  0  0
   -6.9273    0.1825    0.0411 C   0  0  0  0  0  0  0  0  0  0  0  0
   -4.0937   -0.2715   -0.0908 C   0  0  0  0  0  0  0  0  0  0  0  0
   -6.3283   -0.9546    0.6554 C   0  0  0  0  0  0  0  0  0  0  0  0
   -6.9446   -1.6751    1.2082 H   0  0  0  0  0  0  0  0  0  0  0  0
   -4.9499   -1.1661    0.5907 C   0  0  0  0  0  0  0  0  0  0  0  0
   -4.5173   -2.0355    1.1084 H   0  0  0  0  0  0  0  0  0  0  0  0
   -2.6332   -0.4516   -0.1421 C   0  0  2  0  0  3  0  0  0  0  0  0
   -4.6856    0.8632   -0.6904 C   0  0  0  0  0  0  0  0  0  0  0  0
   -4.0429    1.5735   -1.2329 H   0  0  0  0  0  0  0  0  0  0  0  0
  1 20  1  0  0  0  0
  2  1  1  0  0  0  0
  3  5  1  0  0  0  0
  5  7  1  0  0  0  0
  6  5  1  0  0  0  0
  8  5  1  0  0  0  0
  9 10  1  0  0  0  0
  9 13  1  0  0  0  0
 11  9  1  0  0  0  0
 12  9  1  0  0  0  0
 13  4  1  0  0  0  0
 13 26  1  0  0  0  0
 14 15  1  0  0  0  0
 16 17  1  0  0  0  0
 16 18  1  0  0  0  0
 16  3  1  0  0  0  0
 19 16  1  0  0  0  0
 20  3  1  0  0  0  0
 20 22  2  0  0  0  0
 21 24  2  0  0  0  0
 22 23  1  0  0  0  0
 24 22  1  0  0  0  0
 24 25  1  0  0  0  0
 26 21  1  0  0  0  0
 26 14  1  1  0  0  0
 27  1  2  0  0  0  0
 27 21  1  0  0  0  0
 28 27  1  0  0  0  0
M  END
