1,2
 OpenBabel05122313063D

 31 31  0  0  1  0  0  0  0  0999 V2000
    0.0843   -0.4203   -0.3303 O   0  5  0  0  0  0  0  0  0  0  0  0
    1.9316    1.3602   -1.1056 N   0  0  0  0  0  2  0  0  0  0  0  0
   -2.2376    0.1156   -0.2801 C   0  0  0  0  0  0  0  0  0  0  0  0
   -3.1071    1.0077    0.4153 C   0  0  0  0  0  0  0  0  0  0  0  0
   -4.4205    0.5866    0.6899 C   0  0  0  0  0  0  0  0  0  0  0  0
   -4.9134   -0.6637    0.2823 C   0  0  0  0  0  0  0  0  0  0  0  0
   -4.0371   -1.5206   -0.4132 C   0  0  0  0  0  0  0  0  0  0  0  0
   -2.7100   -1.1703   -0.6925 C   0  0  0  0  0  0  0  0  0  0  0  0
   -2.6905    2.3760    0.9035 C   0  0  0  0  0  0  0  0  0  0  0  0
   -1.8494   -2.1460   -1.4593 C   0  0  0  0  0  0  0  0  0  0  0  0
   -6.3312   -1.0802    0.5629 C   0  0  0  0  0  0  0  0  0  0  0  0
   -0.8353    0.4944   -0.5591 C   0  0  0  0  0  0  0  0  0  0  0  0
   -0.4624    1.7198   -1.1246 C   0  0  0  0  0  0  0  0  0  0  0  0
    0.8760    2.0667   -1.4888 C   0  0  2  0  0  3  0  0  0  0  0  0
    1.0683    3.2797   -2.3634 C   0  0  0  0  0  0  0  0  0  0  0  0
    2.8092    1.7028   -1.5132 H   0  0  0  0  0  0  0  0  0  0  0  0
   -5.0837    1.2652    1.2492 H   0  0  0  0  0  0  0  0  0  0  0  0
   -4.4061   -2.5008   -0.7550 H   0  0  0  0  0  0  0  0  0  0  0  0
   -1.6364    2.4132    1.2373 H   0  0  0  0  0  0  0  0  0  0  0  0
   -3.3293    2.6933    1.7495 H   0  0  0  0  0  0  0  0  0  0  0  0
   -2.8050    3.1469    0.1123 H   0  0  0  0  0  0  0  0  0  0  0  0
   -1.2746   -1.6479   -2.2656 H   0  0  0  0  0  0  0  0  0  0  0  0
   -2.4745   -2.9328   -1.9217 H   0  0  0  0  0  0  0  0  0  0  0  0
   -1.1117   -2.6433   -0.7978 H   0  0  0  0  0  0  0  0  0  0  0  0
   -6.9094   -1.1663   -0.3811 H   0  0  0  0  0  0  0  0  0  0  0  0
   -6.8538   -0.3554    1.2150 H   0  0  0  0  0  0  0  0  0  0  0  0
   -6.3685   -2.0763    1.0492 H   0  0  0  0  0  0  0  0  0  0  0  0
   -1.2632    2.3910   -1.4580 H   0  0  0  0  0  0  0  0  0  0  0  0
    0.6576    4.1795   -1.8610 H   0  0  0  0  0  0  0  0  0  0  0  0
    0.5130    3.1656   -3.3163 H   0  0  0  0  0  0  0  0  0  0  0  0
    2.1347    3.4653   -2.5936 H   0  0  0  0  0  0  0  0  0  0  0  0
  3  4  1  0  0  0  0
  4  5  2  0  0  0  0
  4  9  1  0  0  0  0
  5 17  1  0  0  0  0
  6 11  1  0  0  0  0
  6  5  1  0  0  0  0
  7  6  2  0  0  0  0
  8  7  1  0  0  0  0
  8  3  2  0  0  0  0
  9 19  1  0  0  0  0
  9 20  1  0  0  0  0
 10 24  1  0  0  0  0
 10  8  1  0  0  0  0
 11 27  1  0  0  0  0
 11 26  1  0  0  0  0
 12  1  1  0  0  0  0
 12  3  1  0  0  0  0
 13 12  2  0  0  0  0
 14 13  1  6  0  0  0
 14  2  1  0  0  0  0
 15 29  1  0  0  0  0
 15 14  1  0  0  0  0
 16  2  1  0  0  0  0
 18  7  1  0  0  0  0
 21  9  1  0  0  0  0
 22 10  1  0  0  0  0
 23 10  1  0  0  0  0
 25 11  1  0  0  0  0
 28 13  1  0  0  0  0
 30 15  1  0  0  0  0
 31 15  1  0  0  0  0
M  CHG  1   1  -1
M  END
