4,8
 OpenBabel05122313063D

 19 19  0  0  1  0  0  0  0  0999 V2000
   -0.5169    1.2789    2.9841 C   0  0  0  0  0  0  0  0  0  0  0  0
   -1.0293    1.9606    1.8259 C   0  0  0  0  0  0  0  0  0  0  0  0
   -1.5879    2.9028    1.9625 H   0  0  0  0  0  0  0  0  0  0  0  0
   -0.8870    1.5499    0.5897 N   0  0  0  0  0  2  0  0  0  0  0  0
   -1.4535    2.3521   -0.3533 O   0  0  0  0  0  0  0  0  0  0  0  0
   -1.2185    1.8425   -1.1969 H   0  0  0  0  0  0  0  0  0  0  0  0
    0.2161    0.0537    2.8791 C   0  0  2  0  0  3  0  0  0  0  0  0
    0.4710   -0.5323    1.7179 O   0  0  0  0  0  1  0  0  0  0  0  0
    0.6840   -0.5494    4.0746 C   0  0  0  0  0  0  0  0  0  0  0  0
    1.2470   -1.4911    3.9943 H   0  0  0  0  0  0  0  0  0  0  0  0
    0.4383    0.0326    5.3166 C   0  0  0  0  0  0  0  0  0  0  0  0
    0.8177   -0.4658    6.2233 H   0  0  0  0  0  0  0  0  0  0  0  0
   -0.2851    1.2456    5.4441 C   0  0  0  0  0  0  0  0  0  0  0  0
   -0.7470    1.8412    4.2683 C   0  0  0  0  0  0  0  0  0  0  0  0
   -1.3137    2.7848    4.3259 H   0  0  0  0  0  0  0  0  0  0  0  0
   -0.5357    1.8561    6.8001 C   0  0  0  0  0  0  0  0  0  0  0  0
   -1.1275    2.7888    6.7237 H   0  0  0  0  0  0  0  0  0  0  0  0
   -1.0894    1.1592    7.4640 H   0  0  0  0  0  0  0  0  0  0  0  0
    0.4155    2.1027    7.3174 H   0  0  0  0  0  0  0  0  0  0  0  0
  1 14  1  0  0  0  0
  2  3  1  0  0  0  0
  2  1  2  0  0  0  0
  4  2  1  0  0  0  0
  5  4  1  0  0  0  0
  6  5  1  0  0  0  0
  7  8  1  1  0  0  0
  7  1  1  0  0  0  0
  7  9  1  0  0  0  0
  9 11  2  0  0  0  0
 10  9  1  0  0  0  0
 11 13  1  0  0  0  0
 11 12  1  0  0  0  0
 13 16  1  0  0  0  0
 14 15  1  0  0  0  0
 14 13  2  0  0  0  0
 16 19  1  0  0  0  0
 16 18  1  0  0  0  0
 17 16  1  0  0  0  0
M  END
