1,4
 OpenBabel05122313063D

 34 35  0  0  1  0  0  0  0  0999 V2000
    0.1334    0.2921   -0.8859 N   0  0  0  0  0  2  0  0  0  0  0  0
    0.7706    1.6099   -1.0222 C   0  0  1  0  0  0  0  0  0  0  0  0
   -0.2305    2.7006   -0.5700 C   0  0  0  0  0  0  0  0  0  0  0  0
   -1.3089    2.2117    0.0336 O   0  5  0  0  0  0  0  0  0  0  0  0
   -0.0137    3.8869   -0.7272 O   0  0  0  0  0  0  0  0  0  0  0  0
    0.8839   -0.9578   -1.7912 S   0  0  0  0  0  0  0  0  0  0  0  0
   -0.0172   -2.1341   -1.7401 O   0  0  0  0  0  0  0  0  0  0  0  0
    1.3094   -0.3884   -3.0904 O   0  0  0  0  0  0  0  0  0  0  0  0
    2.3606   -1.3655   -0.8590 C   0  0  0  0  0  0  0  0  0  0  0  0
    2.2565   -2.1534    0.2955 C   0  0  0  0  0  0  0  0  0  0  0  0
    3.3975   -2.3559    1.0821 C   0  0  0  0  0  0  0  0  0  0  0  0
    4.6369   -1.7802    0.7329 C   0  0  0  0  0  0  0  0  0  0  0  0
    4.7142   -1.0229   -0.4555 C   0  0  0  0  0  0  0  0  0  0  0  0
    3.5868   -0.8121   -1.2550 C   0  0  0  0  0  0  0  0  0  0  0  0
    5.8455   -1.9310    1.6184 C   0  0  0  0  0  0  0  0  0  0  0  0
    2.0444    1.7740   -0.2031 C   0  0  0  0  0  0  0  0  0  0  0  0
    2.1700    1.1886    1.0705 C   0  0  0  0  0  0  0  0  0  0  0  0
    3.3398    1.3666    1.8206 C   0  0  0  0  0  0  0  0  0  0  0  0
    4.3927    2.1465    1.3136 C   0  0  0  0  0  0  0  0  0  0  0  0
    4.2624    2.7530    0.0544 C   0  0  0  0  0  0  0  0  0  0  0  0
    3.0934    2.5684   -0.6990 C   0  0  0  0  0  0  0  0  0  0  0  0
    1.0025    1.8004   -2.0905 H   0  0  0  0  0  0  0  0  0  0  0  0
    1.2892   -2.5941    0.5721 H   0  0  0  0  0  0  0  0  0  0  0  0
    3.3256   -2.9689    1.9944 H   0  0  0  0  0  0  0  0  0  0  0  0
    5.6752   -0.5737   -0.7502 H   0  0  0  0  0  0  0  0  0  0  0  0
    3.6351   -0.2096   -2.1723 H   0  0  0  0  0  0  0  0  0  0  0  0
    6.7531   -2.1799    1.0323 H   0  0  0  0  0  0  0  0  0  0  0  0
    6.0562   -0.9759    2.1466 H   0  0  0  0  0  0  0  0  0  0  0  0
    5.7012   -2.7152    2.3862 H   0  0  0  0  0  0  0  0  0  0  0  0
    1.3492    0.5658    1.4573 H   0  0  0  0  0  0  0  0  0  0  0  0
    3.4328    0.8887    2.8081 H   0  0  0  0  0  0  0  0  0  0  0  0
    5.3129    2.2844    1.9020 H   0  0  0  0  0  0  0  0  0  0  0  0
    5.0791    3.3720   -0.3476 H   0  0  0  0  0  0  0  0  0  0  0  0
    2.9888    3.0415   -1.6872 H   0  0  0  0  0  0  0  0  0  0  0  0
  2 22  1  6  0  0  0
  2  1  1  0  0  0  0
  2  3  1  0  0  0  0
  2 16  1  0  0  0  0
  3  4  1  0  0  0  0
  5  3  2  0  0  0  0
  6  7  2  0  0  0  0
  6  1  1  0  0  0  0
  6  9  1  0  0  0  0
  8  6  2  0  0  0  0
  9 10  1  0  0  0  0
 10 23  1  0  0  0  0
 10 11  2  0  0  0  0
 11 24  1  0  0  0  0
 12 11  1  0  0  0  0
 12 15  1  0  0  0  0
 13 12  2  0  0  0  0
 14  9  2  0  0  0  0
 14 13  1  0  0  0  0
 15 28  1  0  0  0  0
 15 29  1  0  0  0  0
 16 17  1  0  0  0  0
 17 30  1  0  0  0  0
 17 18  2  0  0  0  0
 18 31  1  0  0  0  0
 19 18  1  0  0  0  0
 19 32  1  0  0  0  0
 20 19  2  0  0  0  0
 21 16  2  0  0  0  0
 21 20  1  0  0  0  0
 25 13  1  0  0  0  0
 26 14  1  0  0  0  0
 27 15  1  0  0  0  0
 33 20  1  0  0  0  0
 34 21  1  0  0  0  0
M  CHG  1   4  -1
M  END
