1,4
 OpenBabel05122313063D

 24 24  0  0  0  0  0  0  0  0999 V2000
    0.5018    0.8747   -0.5938 N   0  0  0  0  0  2  0  0  0  0  0  0
    0.8821    2.2497   -0.2663 C   0  0  0  0  0  0  0  0  0  0  0  0
   -0.1684    2.8789    0.6510 C   0  0  0  0  0  0  0  0  0  0  0  0
   -1.1917    2.0666    0.9198 O   0  5  0  0  0  0  0  0  0  0  0  0
   -0.0722    4.0109    1.0883 O   0  0  0  0  0  0  0  0  0  0  0  0
    1.5798    0.0990   -1.6581 S   0  0  0  0  0  0  0  0  0  0  0  0
    1.0115   -1.2275   -1.9962 O   0  0  0  0  0  0  0  0  0  0  0  0
    1.9623    1.0477   -2.7281 O   0  0  0  0  0  0  0  0  0  0  0  0
    3.0250   -0.1703   -0.6228 C   0  0  0  0  0  0  0  0  0  0  0  0
    2.9783   -1.1395    0.3935 C   0  0  0  0  0  0  0  0  0  0  0  0
    4.0980   -1.3187    1.2106 C   0  0  0  0  0  0  0  0  0  0  0  0
    5.2694   -0.5472    1.0298 C   0  0  0  0  0  0  0  0  0  0  0  0
    5.2846    0.4134   -0.0004 C   0  0  0  0  0  0  0  0  0  0  0  0
    4.1696    0.6092   -0.8296 C   0  0  0  0  0  0  0  0  0  0  0  0
    6.4673   -0.7619    1.9184 C   0  0  0  0  0  0  0  0  0  0  0  0
    0.9788    2.8673   -1.1846 H   0  0  0  0  0  0  0  0  0  0  0  0
    1.8660    2.2906    0.2543 H   0  0  0  0  0  0  0  0  0  0  0  0
    2.0705   -1.7432    0.5329 H   0  0  0  0  0  0  0  0  0  0  0  0
    4.0695   -2.0767    2.0095 H   0  0  0  0  0  0  0  0  0  0  0  0
    6.1886    1.0222   -0.1578 H   0  0  0  0  0  0  0  0  0  0  0  0
    4.1734    1.3521   -1.6402 H   0  0  0  0  0  0  0  0  0  0  0  0
    7.2739   -0.0358    1.7019 H   0  0  0  0  0  0  0  0  0  0  0  0
    6.1958   -0.6642    2.9897 H   0  0  0  0  0  0  0  0  0  0  0  0
    6.8845   -1.7823    1.7856 H   0  0  0  0  0  0  0  0  0  0  0  0
  1  2  1  0  0  0  0
  2 17  1  0  0  0  0
  2  3  1  0  0  0  0
  3  4  1  0  0  0  0
  3  5  2  0  0  0  0
  6  9  1  0  0  0  0
  6  1  1  0  0  0  0
  7  6  2  0  0  0  0
  8  6  2  0  0  0  0
  9 10  1  0  0  0  0
 10 18  1  0  0  0  0
 10 11  2  0  0  0  0
 11 19  1  0  0  0  0
 12 11  1  0  0  0  0
 12 15  1  0  0  0  0
 13 12  2  0  0  0  0
 14  9  2  0  0  0  0
 14 13  1  0  0  0  0
 15 23  1  0  0  0  0
 16  2  1  0  0  0  0
 20 13  1  0  0  0  0
 21 14  1  0  0  0  0
 22 15  1  0  0  0  0
 24 15  1  0  0  0  0
M  CHG  1   4  -1
M  END
