1,3
 OpenBabel05122313063D

 44 45  0  0  0  0  0  0  0  0999 V2000
   -0.7711   -1.5959   -0.0590 O   0  5  0  0  0  0  0  0  0  0  0  0
   -2.7736   -0.3088   -0.0389 N   0  0  0  0  0  0  0  0  0  0  0  0
   -0.5869    0.6101   -0.0221 N   0  0  0  0  0  2  0  0  0  0  0  0
   -0.4156    2.8964   -3.6447 C   0  0  0  0  0  0  0  0  0  0  0  0
   -1.1260    3.6978   -3.9358 H   0  0  0  0  0  0  0  0  0  0  0  0
   -0.2343    2.2856   -4.5531 H   0  0  0  0  0  0  0  0  0  0  0  0
    0.5402    3.3855   -3.3659 H   0  0  0  0  0  0  0  0  0  0  0  0
   -1.4838   -0.4791   -0.0386 C   0  0  0  0  0  0  0  0  0  0  0  0
   -3.7185   -1.3276   -0.0356 C   0  0  0  0  0  0  0  0  0  0  0  0
   -5.0769   -0.9211   -0.1381 C   0  0  0  0  0  0  0  0  0  0  0  0
   -5.2765    0.1581   -0.2171 H   0  0  0  0  0  0  0  0  0  0  0  0
   -6.1194   -1.8530   -0.1383 C   0  0  0  0  0  0  0  0  0  0  0  0
   -7.1612   -1.5047   -0.2213 H   0  0  0  0  0  0  0  0  0  0  0  0
   -5.8435   -3.2275   -0.0303 C   0  0  0  0  0  0  0  0  0  0  0  0
   -6.6623   -3.9631   -0.0285 H   0  0  0  0  0  0  0  0  0  0  0  0
   -4.5072   -3.6481    0.0774 C   0  0  0  0  0  0  0  0  0  0  0  0
   -4.2786   -4.7228    0.1653 H   0  0  0  0  0  0  0  0  0  0  0  0
   -3.4546   -2.7234    0.0744 C   0  0  0  0  0  0  0  0  0  0  0  0
   -2.4122   -3.0554    0.1574 H   0  0  0  0  0  0  0  0  0  0  0  0
   -0.9759    1.9674    0.0330 C   0  0  0  0  0  0  0  0  0  0  0  0
   -1.1565    2.5982    1.2994 C   0  0  0  0  0  0  0  0  0  0  0  0
   -1.4372    3.9765    1.3324 C   0  0  0  0  0  0  0  0  0  0  0  0
   -1.5798    4.4741    2.3036 H   0  0  0  0  0  0  0  0  0  0  0  0
   -1.5383    4.7256    0.1533 C   0  0  0  0  0  0  0  0  0  0  0  0
   -1.7561    5.8037    0.2002 H   0  0  0  0  0  0  0  0  0  0  0  0
   -1.3679    4.0959   -1.0864 C   0  0  0  0  0  0  0  0  0  0  0  0
   -1.4592    4.6873   -2.0097 H   0  0  0  0  0  0  0  0  0  0  0  0
   -1.0919    2.7191   -1.1734 C   0  0  0  0  0  0  0  0  0  0  0  0
   -0.9785    2.0181   -2.5199 C   0  0  0  0  0  0  0  0  0  0  0  0
   -0.2842    1.1652   -2.3600 H   0  0  0  0  0  0  0  0  0  0  0  0
   -2.3406    1.4241   -2.9311 C   0  0  0  0  0  0  0  0  0  0  0  0
   -2.7683    0.8077   -2.1167 H   0  0  0  0  0  0  0  0  0  0  0  0
   -2.2399    0.7986   -3.8433 H   0  0  0  0  0  0  0  0  0  0  0  0
   -3.0615    2.2386   -3.1548 H   0  0  0  0  0  0  0  0  0  0  0  0
   -1.0815    1.7812    2.5817 C   0  0  0  0  0  0  0  0  0  0  0  0
   -0.4351    0.9069    2.3461 H   0  0  0  0  0  0  0  0  0  0  0  0
   -0.4553    2.5314    3.7653 C   0  0  0  0  0  0  0  0  0  0  0  0
   -0.3128    1.8426    4.6238 H   0  0  0  0  0  0  0  0  0  0  0  0
   -1.1071    3.3549    4.1242 H   0  0  0  0  0  0  0  0  0  0  0  0
    0.5296    2.9711    3.5099 H   0  0  0  0  0  0  0  0  0  0  0  0
   -2.4758    1.2403    2.9541 C   0  0  0  0  0  0  0  0  0  0  0  0
   -3.1472    2.0768    3.2419 H   0  0  0  0  0  0  0  0  0  0  0  0
   -2.4138    0.5416    3.8149 H   0  0  0  0  0  0  0  0  0  0  0  0
   -2.9348    0.7128    2.0958 H   0  0  0  0  0  0  0  0  0  0  0  0
  1  8  1  0  0  0  0
  2  8  2  0  0  0  0
  2  9  1  0  0  0  0
  3 20  1  0  0  0  0
  4  7  1  0  0  0  0
  4 29  1  0  0  0  0
  5  4  1  0  0  0  0
  6  4  1  0  0  0  0
  8  3  1  0  0  0  0
  9 18  1  0  0  0  0
 10  9  2  0  0  0  0
 11 10  1  0  0  0  0
 12 10  1  0  0  0  0
 12 14  2  0  0  0  0
 13 12  1  0  0  0  0
 14 15  1  0  0  0  0
 14 16  1  0  0  0  0
 16 17  1  0  0  0  0
 18 16  2  0  0  0  0
 18 19  1  0  0  0  0
 20 21  1  0  0  0  0
 21 22  2  0  0  0  0
 21 35  1  0  0  0  0
 22 23  1  0  0  0  0
 24 25  1  0  0  0  0
 24 22  1  0  0  0  0
 26 24  2  0  0  0  0
 27 26  1  0  0  0  0
 28 26  1  0  0  0  0
 28 20  2  0  0  0  0
 29 30  1  0  0  0  0
 29 28  1  0  0  0  0
 31 29  1  0  0  0  0
 31 32  1  0  0  0  0
 33 31  1  0  0  0  0
 34 31  1  0  0  0  0
 35 41  1  0  0  0  0
 35 37  1  0  0  0  0
 36 35  1  0  0  0  0
 37 39  1  0  0  0  0
 37 38  1  0  0  0  0
 40 37  1  0  0  0  0
 41 42  1  0  0  0  0
 41 43  1  0  0  0  0
 44 41  1  0  0  0  0
M  CHG  1   1  -1
M  END
