1,3
 OpenBabel05122313063D

 31 32  0  0  1  0  0  0  0  0999 V2000
   -1.2187   -1.4077   -0.0052 O   0  5  0  0  0  0  0  0  0  0  0  0
   -3.3041    4.0905    0.0481 O   0  0  0  0  0  0  0  0  0  0  0  0
   -1.3394    1.2516   -0.5494 N   0  0  0  0  0  2  0  0  0  0  0  0
   -3.2963   -0.2059   -0.2056 C   0  0  0  0  0  0  0  0  0  0  0  0
   -2.6339    1.0100   -0.5454 C   0  0  0  0  0  0  0  0  0  0  0  0
   -3.2736    1.8551   -0.8567 H   0  0  0  0  0  0  0  0  0  0  0  0
   -4.7446   -0.2572   -0.1242 C   0  0  1  0  0  3  0  0  0  0  0  0
   -5.3904   -1.5302    0.0574 C   0  0  0  0  0  0  0  0  0  0  0  0
   -2.2799    3.7278    0.9755 C   0  0  0  0  0  0  0  0  0  0  0  0
   -2.1685    4.4969    1.7760 H   0  0  0  0  0  0  0  0  0  0  0  0
   -2.5218    2.7638    1.4860 H   0  0  0  0  0  0  0  0  0  0  0  0
   -0.9811    2.6221   -0.9528 C   0  0  0  0  0  0  0  0  0  0  0  0
    0.0161    2.6025   -1.4237 H   0  0  0  0  0  0  0  0  0  0  0  0
   -1.7176    2.9782   -1.7021 H   0  0  0  0  0  0  0  0  0  0  0  0
   -3.2042   -2.6440    0.1542 C   0  0  0  0  0  0  0  0  0  0  0  0
   -2.5836   -3.5455    0.2628 H   0  0  0  0  0  0  0  0  0  0  0  0
   -2.5197   -1.3866   -0.0131 C   0  0  0  0  0  0  0  0  0  0  0  0
   -0.9562    3.5970    0.2332 C   0  0  0  0  0  0  0  0  0  0  0  0
   -0.6578    4.5939   -0.1572 H   0  0  0  0  0  0  0  0  0  0  0  0
   -0.1739    3.2712    0.9482 H   0  0  0  0  0  0  0  0  0  0  0  0
   -4.5777   -2.7055    0.1799 C   0  0  0  0  0  0  0  0  0  0  0  0
   -5.0813   -3.6768    0.3109 H   0  0  0  0  0  0  0  0  0  0  0  0
   -6.8077   -1.6012    0.1253 C   0  0  0  0  0  0  0  0  0  0  0  0
   -7.2775   -2.5884    0.2604 H   0  0  0  0  0  0  0  0  0  0  0  0
   -5.5722    0.9002   -0.1917 C   0  0  0  0  0  0  0  0  0  0  0  0
   -5.1109    1.8956   -0.2717 H   0  0  0  0  0  0  0  0  0  0  0  0
   -7.5895   -0.4558    0.0308 C   0  0  0  0  0  0  0  0  0  0  0  0
   -8.6863   -0.5227    0.0850 H   0  0  0  0  0  0  0  0  0  0  0  0
   -6.9590    0.8020   -0.1205 C   0  0  0  0  0  0  0  0  0  0  0  0
   -7.5700    1.7163   -0.1745 H   0  0  0  0  0  0  0  0  0  0  0  0
   -4.1202    4.2474    0.5554 H   0  0  0  0  0  0  0  0  0  0  0  0
  2 31  1  0  0  0  0
  2  9  1  0  0  0  0
  3  5  1  0  0  0  0
  4 17  1  0  0  0  0
  5  4  2  0  0  0  0
  6  5  1  0  0  0  0
  7  4  1  1  0  0  0
  7  8  1  0  0  0  0
  8 23  1  0  0  0  0
  8 21  2  0  0  0  0
  9 11  1  0  0  0  0
  9 10  1  0  0  0  0
 12  3  1  0  0  0  0
 12 18  1  0  0  0  0
 13 12  1  0  0  0  0
 14 12  1  0  0  0  0
 15 21  1  0  0  0  0
 15 16  1  0  0  0  0
 17  1  1  0  0  0  0
 17 15  2  0  0  0  0
 18 20  1  0  0  0  0
 18  9  1  0  0  0  0
 19 18  1  0  0  0  0
 21 22  1  0  0  0  0
 23 24  1  0  0  0  0
 25  7  1  0  0  0  0
 25 29  2  0  0  0  0
 26 25  1  0  0  0  0
 27 28  1  0  0  0  0
 27 23  2  0  0  0  0
 29 27  1  0  0  0  0
 30 29  1  0  0  0  0
M  CHG  1   1  -1
M  END
