2,3
 OpenBabel05122313063D

 32 33  0  0  1  0  0  0  0  0999 V2000
    7.9227    0.3020    0.1014 Cl  0  0  0  0  0  0  0  0  0  0  0  0
    1.2892   -0.2546   -0.0329 O   0  5  0  0  0  0  0  0  0  0  0  0
   -1.0666    1.4821   -0.0257 N   0  0  0  0  0  2  0  0  0  0  0  0
    1.8982    0.8829   -0.0837 C   0  0  0  0  0  0  0  0  0  0  0  0
    3.9972   -0.4440   -0.3871 C   0  0  0  0  0  0  0  0  0  0  0  0
    3.3517   -1.2750   -0.7045 H   0  0  0  0  0  0  0  0  0  0  0  0
    1.2770    2.1343   -0.1920 C   0  0  0  0  0  0  0  0  0  0  0  0
    1.9301    3.0049   -0.3204 H   0  0  0  0  0  0  0  0  0  0  0  0
   -0.1144    2.4094   -0.1564 C   0  0  1  0  0  3  0  0  0  0  0  0
    6.1882    0.4834    0.0505 C   0  0  0  0  0  0  0  0  0  0  0  0
   -3.2688    1.6327   -1.0848 C   0  0  0  0  0  0  0  0  0  0  0  0
   -2.8251    1.1287   -1.9579 H   0  0  0  0  0  0  0  0  0  0  0  0
   -4.3049    2.9229    1.1895 C   0  0  0  0  0  0  0  0  0  0  0  0
   -4.7076    3.4230    2.0837 H   0  0  0  0  0  0  0  0  0  0  0  0
   -0.5140    3.8653   -0.2967 C   0  0  0  0  0  0  0  0  0  0  0  0
   -1.3482    3.9774   -1.0169 H   0  0  0  0  0  0  0  0  0  0  0  0
    0.3445    4.4663   -0.6463 H   0  0  0  0  0  0  0  0  0  0  0  0
   -0.8644    4.2923    0.6642 H   0  0  0  0  0  0  0  0  0  0  0  0
    4.2156    1.8483    0.3752 C   0  0  0  0  0  0  0  0  0  0  0  0
    3.7669    2.8017    0.6893 H   0  0  0  0  0  0  0  0  0  0  0  0
    3.3875    0.7796   -0.0311 C   0  0  0  0  0  0  0  0  0  0  0  0
   -2.4306    1.8918    0.0200 C   0  0  0  0  0  0  0  0  0  0  0  0
    5.3868   -0.5977   -0.3536 C   0  0  0  0  0  0  0  0  0  0  0  0
    5.8592   -1.5472   -0.6422 H   0  0  0  0  0  0  0  0  0  0  0  0
   -2.9560    2.5374    1.1572 C   0  0  0  0  0  0  0  0  0  0  0  0
   -2.2979    2.7219    2.0199 H   0  0  0  0  0  0  0  0  0  0  0  0
   -4.6162    2.0172   -1.0426 C   0  0  0  0  0  0  0  0  0  0  0  0
   -5.2642    1.8157   -1.9097 H   0  0  0  0  0  0  0  0  0  0  0  0
   -5.1408    2.6615    0.0924 C   0  0  0  0  0  0  0  0  0  0  0  0
   -6.1991    2.9615    0.1199 H   0  0  0  0  0  0  0  0  0  0  0  0
    5.6075    1.7087    0.4187 C   0  0  0  0  0  0  0  0  0  0  0  0
    6.2489    2.5395    0.7444 H   0  0  0  0  0  0  0  0  0  0  0  0
  3 22  1  0  0  0  0
  4  2  1  0  0  0  0
  4 21  1  0  0  0  0
  5 23  2  0  0  0  0
  5 21  1  0  0  0  0
  6  5  1  0  0  0  0
  7  4  2  0  0  0  0
  8  7  1  0  0  0  0
  9  7  1  6  0  0  0
  9  3  1  0  0  0  0
 10  1  1  0  0  0  0
 10 31  2  0  0  0  0
 11 27  2  0  0  0  0
 11 22  1  0  0  0  0
 12 11  1  0  0  0  0
 13 14  1  0  0  0  0
 15  9  1  0  0  0  0
 15 18  1  0  0  0  0
 16 15  1  0  0  0  0
 17 15  1  0  0  0  0
 19 31  1  0  0  0  0
 19 20  1  0  0  0  0
 21 19  2  0  0  0  0
 22 25  2  0  0  0  0
 23 10  1  0  0  0  0
 24 23  1  0  0  0  0
 25 13  1  0  0  0  0
 25 26  1  0  0  0  0
 27 29  1  0  0  0  0
 28 27  1  0  0  0  0
 29 30  1  0  0  0  0
 29 13  2  0  0  0  0
 31 32  1  0  0  0  0
M  CHG  1   2  -1
M  END
