3,16
 OpenBabel05122313063D

 32 34  0  0  1  0  0  0  0  0999 V2000
    0.6675    4.1507   -0.4142 O   0  0  0  0  0  0  0  0  0  0  0  0
    0.5634    2.8053   -0.4850 C   0  0  1  0  0  3  0  0  0  0  0  0
    1.6509    2.1505   -0.1065 N   0  0  0  0  0  2  0  0  0  0  0  0
    2.6413    3.1537    0.4131 C   0  0  0  0  0  0  0  0  0  0  0  0
    2.0605    4.4514   -0.1881 C   0  0  0  0  0  0  0  0  0  0  0  0
    2.1249    5.3237    0.4887 H   0  0  0  0  0  0  0  0  0  0  0  0
    2.5206    4.7039   -1.1684 H   0  0  0  0  0  0  0  0  0  0  0  0
    2.5696    3.1846    1.9484 C   0  0  0  0  0  0  0  0  0  0  0  0
    2.8363    2.1947    2.3615 H   0  0  0  0  0  0  0  0  0  0  0  0
    1.5464    3.4457    2.2862 H   0  0  0  0  0  0  0  0  0  0  0  0
    3.2755    3.9432    2.3436 H   0  0  0  0  0  0  0  0  0  0  0  0
    4.0575    2.8747   -0.0907 C   0  0  0  0  0  0  0  0  0  0  0  0
    4.4541    1.9487    0.3655 H   0  0  0  0  0  0  0  0  0  0  0  0
    4.7268    3.7148    0.1856 H   0  0  0  0  0  0  0  0  0  0  0  0
    4.0692    2.7565   -1.1916 H   0  0  0  0  0  0  0  0  0  0  0  0
    0.2746    0.1362   -1.3010 O   0  5  0  0  0  0  0  0  0  0  0  0
   -0.7789    0.8987   -1.2883 C   0  0  0  0  0  0  0  0  0  0  0  0
   -0.7008    2.2693   -0.9125 C   0  0  0  0  0  0  0  0  0  0  0  0
   -1.8626    3.1065   -0.9677 C   0  0  0  0  0  0  0  0  0  0  0  0
   -1.7531    4.1667   -0.7004 H   0  0  0  0  0  0  0  0  0  0  0  0
   -3.0925    2.5878   -1.3031 C   0  0  0  0  0  0  0  0  0  0  0  0
   -3.9874    3.2274   -1.3061 H   0  0  0  0  0  0  0  0  0  0  0  0
   -4.4939    0.6163   -1.9338 C   0  0  0  0  0  0  0  0  0  0  0  0
   -5.3903    1.2552   -1.9070 H   0  0  0  0  0  0  0  0  0  0  0  0
   -4.6020   -0.7349   -2.2441 C   0  0  0  0  0  0  0  0  0  0  0  0
   -5.5898   -1.1691   -2.4628 H   0  0  0  0  0  0  0  0  0  0  0  0
   -3.4489   -1.5576   -2.2809 C   0  0  0  0  0  0  0  0  0  0  0  0
   -3.5443   -2.6261   -2.5254 H   0  0  0  0  0  0  0  0  0  0  0  0
   -2.2007   -1.0159   -1.9982 C   0  0  0  0  0  0  0  0  0  0  0  0
   -1.2920   -1.6335   -2.0088 H   0  0  0  0  0  0  0  0  0  0  0  0
   -2.0705    0.3556   -1.6623 C   0  0  0  0  0  0  0  0  0  0  0  0
   -3.2318    1.1999   -1.6361 C   0  0  0  0  0  0  0  0  0  0  0  0
  1  5  1  0  0  0  0
  2 18  1  1  0  0  0
  2  1  1  0  0  0  0
  2  3  1  0  0  0  0
  3  4  1  0  0  0  0
  4  8  1  0  0  0  0
  5  4  1  0  0  0  0
  5  6  1  0  0  0  0
  7  5  1  0  0  0  0
  8 10  1  0  0  0  0
  8 11  1  0  0  0  0
  8  9  1  0  0  0  0
 12 14  1  0  0  0  0
 12 13  1  0  0  0  0
 12  4  1  0  0  0  0
 15 12  1  0  0  0  0
 16 17  1  0  0  0  0
 17 18  1  0  0  0  0
 19 18  2  0  0  0  0
 19 20  1  0  0  0  0
 21 19  1  0  0  0  0
 22 21  1  0  0  0  0
 23 24  1  0  0  0  0
 23 32  1  0  0  0  0
 25 23  2  0  0  0  0
 26 25  1  0  0  0  0
 27 25  1  0  0  0  0
 27 29  2  0  0  0  0
 28 27  1  0  0  0  0
 29 31  1  0  0  0  0
 30 29  1  0  0  0  0
 31 32  1  0  0  0  0
 31 17  2  0  0  0  0
 32 21  2  0  0  0  0
M  CHG  1  16  -1
M  END
