3,4
 OpenBabel05122313063D

 39 41  0  0  0  0  0  0  0  0999 V2000
   -3.4991   -0.7345    3.9387 F   0  0  0  0  0  0  0  0  0  0  0  0
   -4.3762   -3.8260    0.4823 F   0  0  0  0  0  0  0  0  0  0  0  0
    1.7780   -0.3961   -0.8668 O   0  5  0  0  0  0  0  0  0  0  0  0
   -0.1704   -1.4982    0.5475 N   0  0  0  0  0  2  0  0  0  0  0  0
    0.8217   -2.2709    0.9527 C   0  0  0  0  0  3  0  0  0  0  0  0
    0.5742   -3.0380    1.7165 H   0  0  0  0  0  0  0  0  0  0  0  0
    2.1835   -2.2323    0.5365 C   0  0  0  0  0  0  0  0  0  0  0  0
    3.1648   -3.2022    1.1635 C   0  0  0  0  0  0  0  0  0  0  0  0
    2.8955   -3.3645    2.2290 H   0  0  0  0  0  0  0  0  0  0  0  0
    3.0851   -4.1999    0.6734 H   0  0  0  0  0  0  0  0  0  0  0  0
    4.6010   -2.6912    1.0412 C   0  0  0  0  0  0  0  0  0  0  0  0
    5.3140   -3.4522    1.4184 H   0  0  0  0  0  0  0  0  0  0  0  0
    4.7230   -1.7899    1.6815 H   0  0  0  0  0  0  0  0  0  0  0  0
    4.9033   -2.3445   -0.4171 C   0  0  0  0  0  0  0  0  0  0  0  0
    4.7292   -3.2451   -1.0464 H   0  0  0  0  0  0  0  0  0  0  0  0
    5.9722   -2.0786   -0.5445 H   0  0  0  0  0  0  0  0  0  0  0  0
    4.0234   -1.1849   -0.9355 C   0  0  0  0  0  0  0  0  0  0  0  0
    2.6076   -1.2822   -0.3982 C   0  0  0  0  0  0  0  0  0  0  0  0
    4.0106   -1.1205   -2.4885 C   0  0  0  0  0  0  0  0  0  0  0  0
    3.1929   -0.4392   -2.7992 H   0  0  0  0  0  0  0  0  0  0  0  0
    3.8135   -2.1101   -2.9484 H   0  0  0  0  0  0  0  0  0  0  0  0
    5.3789   -0.5231   -2.8518 C   0  0  0  0  0  0  0  0  0  0  0  0
    5.3601   -0.0278   -3.8428 H   0  0  0  0  0  0  0  0  0  0  0  0
    6.1450   -1.3230   -2.9151 H   0  0  0  0  0  0  0  0  0  0  0  0
    5.7116    0.4578   -1.6945 C   0  0  0  0  0  0  0  0  0  0  0  0
    6.7399    0.2913   -1.3151 H   0  0  0  0  0  0  0  0  0  0  0  0
    5.6718    1.5144   -2.0259 H   0  0  0  0  0  0  0  0  0  0  0  0
    4.6519    0.1990   -0.5945 C   0  0  0  0  0  0  0  0  0  0  0  0
    3.8525    0.9643   -0.6363 H   0  0  0  0  0  0  0  0  0  0  0  0
    5.0690    0.2182    0.4316 H   0  0  0  0  0  0  0  0  0  0  0  0
   -1.4505   -1.7602    1.1139 C   0  0  0  0  0  0  0  0  0  0  0  0
   -1.8541   -1.0801    2.2782 C   0  0  0  0  0  0  0  0  0  0  0  0
   -1.2059   -0.3322    2.7524 H   0  0  0  0  0  0  0  0  0  0  0  0
   -3.1095   -1.3747    2.8226 C   0  0  0  0  0  0  0  0  0  0  0  0
   -3.9754   -2.3128    2.2481 C   0  0  0  0  0  0  0  0  0  0  0  0
   -4.9598   -2.5240    2.6846 H   0  0  0  0  0  0  0  0  0  0  0  0
   -3.5464   -2.9484    1.0763 C   0  0  0  0  0  0  0  0  0  0  0  0
   -2.3024   -2.6925    0.4914 C   0  0  0  0  0  0  0  0  0  0  0  0
   -2.0026   -3.1811   -0.4448 H   0  0  0  0  0  0  0  0  0  0  0  0
  2 37  1  0  0  0  0
  3 18  1  0  0  0  0
  4  5  1  0  0  0  0
  4 31  1  0  0  0  0
  5  6  1  0  0  0  0
  7  5  1  0  0  0  0
  7  8  1  0  0  0  0
  8  9  1  0  0  0  0
 10  8  1  0  0  0  0
 11  8  1  0  0  0  0
 11 12  1  0  0  0  0
 11 13  1  0  0  0  0
 14 11  1  0  0  0  0
 15 14  1  0  0  0  0
 16 14  1  0  0  0  0
 17 28  1  0  0  0  0
 17 14  1  0  0  0  0
 17 18  1  0  0  0  0
 18  7  2  0  0  0  0
 19 17  1  0  0  0  0
 20 19  1  0  0  0  0
 21 19  1  0  0  0  0
 22 19  1  0  0  0  0
 22 25  1  0  0  0  0
 23 22  1  0  0  0  0
 24 22  1  0  0  0  0
 25 26  1  0  0  0  0
 25 28  1  0  0  0  0
 27 25  1  0  0  0  0
 28 30  1  0  0  0  0
 29 28  1  0  0  0  0
 31 32  1  0  0  0  0
 32 33  1  0  0  0  0
 32 34  2  0  0  0  0
 34  1  1  0  0  0  0
 35 36  1  0  0  0  0
 35 34  1  0  0  0  0
 37 35  2  0  0  0  0
 38 37  1  0  0  0  0
 38 31  2  0  0  0  0
 39 38  1  0  0  0  0
M  CHG  1   3  -1
M  END
