2,5
q = -1.0, confidence = 0.002

 26 27  0  0  1  0  0  0  0  0999 V2000
   -3.5250   -2.1581    0.2743 S   0  0  0  0  0  0  0  0  0  0  0  0
    3.1644   -1.2206   -1.1181 O   0  5  0  0  0  0  0  0  0  0  0  0
    2.2552   -3.2058   -0.0925 C   0  0  0  0  0  0  0  0  0  0  0  0
    2.3825   -4.2965   -0.0775 H   0  0  0  0  0  0  0  0  0  0  0  0
    0.9716   -1.3941    0.8765 N   0  0  0  0  0  2  0  0  0  0  0  0
    3.1104   -2.4990   -0.9663 C   0  0  0  0  0  0  0  0  0  0  0  0
    1.2232   -2.7029    0.7453 C   0  0  2  0  0  3  0  0  0  0  0  0
   -1.8721   -2.1592    0.2894 N   0  0  0  0  0  0  0  0  0  0  0  0
    0.4226   -3.7159    1.5280 C   0  0  0  0  0  0  0  0  0  0  0  0
    0.0986   -3.3026    2.5033 H   0  0  0  0  0  0  0  0  0  0  0  0
    1.0147   -4.6337    1.6989 H   0  0  0  0  0  0  0  0  0  0  0  0
   -0.4945   -3.9836    0.9651 H   0  0  0  0  0  0  0  0  0  0  0  0
   -0.1477   -0.8639    1.5320 C   0  0  0  0  0  0  0  0  0  0  0  0
   -1.5021   -1.2368    1.1979 C   0  0  0  0  0  0  0  0  0  0  0  0
   -2.6316   -0.5593    1.8382 C   0  0  0  0  0  0  0  0  0  0  0  0
    0.0041    0.1897    2.4369 C   0  0  0  0  0  0  0  0  0  0  0  0
    1.0274    0.5234    2.6671 H   0  0  0  0  0  0  0  0  0  0  0  0
   -1.1034    0.8364    3.0570 C   0  0  0  0  0  0  0  0  0  0  0  0
   -0.8974    1.6493    3.7696 H   0  0  0  0  0  0  0  0  0  0  0  0
    4.0789   -3.2783   -1.8291 C   0  0  0  0  0  0  0  0  0  0  0  0
    4.0082   -4.3719   -1.6855 H   0  0  0  0  0  0  0  0  0  0  0  0
    5.1143   -2.9452   -1.6099 H   0  0  0  0  0  0  0  0  0  0  0  0
    3.8920   -3.0367   -2.8957 H   0  0  0  0  0  0  0  0  0  0  0  0
   -3.8331   -0.9996    1.4058 N   0  0  0  0  0  0  0  0  0  0  0  0
   -2.4141    0.4805    2.7872 C   0  0  0  0  0  0  0  0  0  0  0  0
   -3.2721    0.9811    3.2547 H   0  0  0  0  0  0  0  0  0  0  0  0
  1  8  1  0  0  0  0
  1 24  1  0  0  0  0
  2  6  1  0  0  0  0
  3  4  1  0  0  0  0
  5 13  1  0  0  0  0
  6  3  2  0  0  0  0
  7  3  1  1  0  0  0
  7  5  1  0  0  0  0
  7  9  1  0  0  0  0
  8 14  2  0  0  0  0
  9 11  1  0  0  0  0
  9 10  1  0  0  0  0
 12  9  1  0  0  0  0
 13 16  2  0  0  0  0
 14 13  1  0  0  0  0
 14 15  1  0  0  0  0
 15 25  1  0  0  0  0
 16 17  1  0  0  0  0
 16 18  1  0  0  0  0
 18 19  1  0  0  0  0
 20 21  1  0  0  0  0
 20 22  1  0  0  0  0
 20  6  1  0  0  0  0
 23 20  1  0  0  0  0
 24 15  2  0  0  0  0
 25 18  2  0  0  0  0
 25 26  1  0  0  0  0
M  CHG  1   2  -1
M  END
