1,2
 OpenBabel05122313063D

 32 33  0  0  0  0  0  0  0  0999 V2000
    0.2280    1.1705   -0.7219 O   0  5  0  0  0  0  0  0  0  0  0  0
   -1.1444   -1.3182   -1.6180 N   0  0  0  0  0  2  0  0  0  0  0  0
    1.0547    0.8426   -1.6556 C   0  0  0  0  0  0  0  0  0  0  0  0
    0.9347   -0.2983   -2.4751 C   0  0  0  0  0  0  0  0  0  0  0  0
   -0.0939   -1.2591   -2.4284 C   0  0  0  0  0  3  0  0  0  0  0  0
    2.2194    1.7618   -1.8063 C   0  0  0  0  0  0  0  0  0  0  0  0
    2.6033    2.5543   -0.7009 C   0  0  0  0  0  0  0  0  0  0  0  0
    3.6939    3.4228   -0.7899 C   0  0  0  0  0  0  0  0  0  0  0  0
    4.4363    3.5460   -1.9847 C   0  0  0  0  0  0  0  0  0  0  0  0
    4.0401    2.7640   -3.0885 C   0  0  0  0  0  0  0  0  0  0  0  0
    2.9543    1.8837   -3.0037 C   0  0  0  0  0  0  0  0  0  0  0  0
    5.6215    4.4734   -2.0648 C   0  0  0  0  0  0  0  0  0  0  0  0
   -2.0052   -2.4440   -1.7246 C   0  0  0  0  0  0  0  0  0  0  0  0
   -1.4816   -3.7509   -1.6259 C   0  0  0  0  0  0  0  0  0  0  0  0
   -2.3333   -4.8612   -1.7174 C   0  0  0  0  0  0  0  0  0  0  0  0
   -3.7130   -4.6838   -1.9035 C   0  0  0  0  0  0  0  0  0  0  0  0
   -4.2369   -3.3836   -1.9975 C   0  0  0  0  0  0  0  0  0  0  0  0
   -3.3931   -2.2693   -1.9086 C   0  0  0  0  0  0  0  0  0  0  0  0
    1.7185   -0.4777   -3.2209 H   0  0  0  0  0  0  0  0  0  0  0  0
   -0.0301   -2.0732   -3.1767 H   0  0  0  0  0  0  0  0  0  0  0  0
    2.0303    2.4569    0.2327 H   0  0  0  0  0  0  0  0  0  0  0  0
    3.9825    4.0232    0.0879 H   0  0  0  0  0  0  0  0  0  0  0  0
    4.5912    2.8539   -4.0381 H   0  0  0  0  0  0  0  0  0  0  0  0
    2.6573    1.3072   -3.8921 H   0  0  0  0  0  0  0  0  0  0  0  0
    5.3899    5.4671   -1.6299 H   0  0  0  0  0  0  0  0  0  0  0  0
    5.9556    4.6234   -3.1096 H   0  0  0  0  0  0  0  0  0  0  0  0
    6.4839    4.0675   -1.4936 H   0  0  0  0  0  0  0  0  0  0  0  0
   -0.4056   -3.8808   -1.4383 H   0  0  0  0  0  0  0  0  0  0  0  0
   -1.9139   -5.8747   -1.6252 H   0  0  0  0  0  0  0  0  0  0  0  0
   -4.3806   -5.5559   -1.9673 H   0  0  0  0  0  0  0  0  0  0  0  0
   -5.3169   -3.2335   -2.1463 H   0  0  0  0  0  0  0  0  0  0  0  0
   -3.8003   -1.2516   -1.9931 H   0  0  0  0  0  0  0  0  0  0  0  0
  3  1  1  0  0  0  0
  4  5  1  0  0  0  0
  4  3  2  0  0  0  0
  5  2  1  0  0  0  0
  6  3  1  0  0  0  0
  6  7  1  0  0  0  0
  7 21  1  0  0  0  0
  8  7  2  0  0  0  0
  8 22  1  0  0  0  0
  9  8  1  0  0  0  0
 10 11  1  0  0  0  0
 10  9  2  0  0  0  0
 11  6  2  0  0  0  0
 12  9  1  0  0  0  0
 12 25  1  0  0  0  0
 12 27  1  0  0  0  0
 13 14  1  0  0  0  0
 13  2  1  0  0  0  0
 14 28  1  0  0  0  0
 15 14  2  0  0  0  0
 15 29  1  0  0  0  0
 16 15  1  0  0  0  0
 17 18  1  0  0  0  0
 17 16  2  0  0  0  0
 18 13  2  0  0  0  0
 19  4  1  0  0  0  0
 20  5  1  0  0  0  0
 23 10  1  0  0  0  0
 24 11  1  0  0  0  0
 26 12  1  0  0  0  0
 30 16  1  0  0  0  0
 31 17  1  0  0  0  0
 32 18  1  0  0  0  0
M  CHG  1   1  -1
M  END
