2,3
 OpenBabel05122313063D

 28 28  0  0  0  0  0  0  0  0999 V2000
    0.5283    2.9352    0.0002 O   0  0  0  0  0  1  0  0  0  0  0  0
   -0.8074   -0.6865    0.0001 O   0  5  0  0  0  0  0  0  0  0  0  0
    0.1038    1.7365    0.0001 N   0  0  0  0  0  2  0  0  0  0  0  0
   -1.3088    1.5929    0.0000 C   0  0  0  0  0  0  0  0  0  0  0  0
   -2.1960    2.6856    0.0000 C   0  0  0  0  0  0  0  0  0  0  0  0
   -1.7694    3.6983    0.0000 H   0  0  0  0  0  0  0  0  0  0  0  0
   -3.5701    2.4424   -0.0000 C   0  0  0  0  0  0  0  0  0  0  0  0
   -4.0149    1.0927   -0.0000 C   0  0  0  0  0  0  0  0  0  0  0  0
   -5.1013    0.9225   -0.0001 H   0  0  0  0  0  0  0  0  0  0  0  0
   -3.1616   -0.0205    0.0000 C   0  0  0  0  0  0  0  0  0  0  0  0
   -1.7480    0.2419    0.0000 C   0  0  0  0  0  0  0  0  0  0  0  0
   -4.5753    3.5684    0.0000 C   0  0  0  0  0  0  0  0  0  0  0  0
   -5.2382    3.5260   -0.8907 H   0  0  0  0  0  0  0  0  0  0  0  0
   -4.0753    4.5563   -0.0001 H   0  0  0  0  0  0  0  0  0  0  0  0
   -5.2380    3.5261    0.8909 H   0  0  0  0  0  0  0  0  0  0  0  0
   -3.6985   -1.4607   -0.0000 C   0  0  0  0  0  0  0  0  0  0  0  0
   -3.1928   -2.1901   -1.2652 C   0  0  0  0  0  0  0  0  0  0  0  0
   -3.5818   -1.6998   -2.1808 H   0  0  0  0  0  0  0  0  0  0  0  0
   -3.5294   -3.2481   -1.2708 H   0  0  0  0  0  0  0  0  0  0  0  0
   -2.0890   -2.1693   -1.3066 H   0  0  0  0  0  0  0  0  0  0  0  0
   -3.1927   -2.1902    1.2650 C   0  0  0  0  0  0  0  0  0  0  0  0
   -3.5816   -1.7000    2.1807 H   0  0  0  0  0  0  0  0  0  0  0  0
   -2.0889   -2.1695    1.3064 H   0  0  0  0  0  0  0  0  0  0  0  0
   -3.5293   -3.2483    1.2705 H   0  0  0  0  0  0  0  0  0  0  0  0
   -5.2357   -1.5168    0.0000 C   0  0  0  0  0  0  0  0  0  0  0  0
   -5.6686   -1.0311   -0.8978 H   0  0  0  0  0  0  0  0  0  0  0  0
   -5.6685   -1.0312    0.8980 H   0  0  0  0  0  0  0  0  0  0  0  0
   -5.5671   -2.5753   -0.0000 H   0  0  0  0  0  0  0  0  0  0  0  0
  3  1  1  0  0  0  0
  4  3  1  0  0  0  0
  5  6  1  0  0  0  0
  5  4  2  0  0  0  0
  7 12  1  0  0  0  0
  7  5  1  0  0  0  0
  8  7  2  0  0  0  0
  8 10  1  0  0  0  0
  9  8  1  0  0  0  0
 10 11  2  0  0  0  0
 11  4  1  0  0  0  0
 11  2  1  0  0  0  0
 12 15  1  0  0  0  0
 13 12  1  0  0  0  0
 14 12  1  0  0  0  0
 16 10  1  0  0  0  0
 16 25  1  0  0  0  0
 16 21  1  0  0  0  0
 17 16  1  0  0  0  0
 18 17  1  0  0  0  0
 19 17  1  0  0  0  0
 20 17  1  0  0  0  0
 21 24  1  0  0  0  0
 21 23  1  0  0  0  0
 21 22  1  0  0  0  0
 25 27  1  0  0  0  0
 26 25  1  0  0  0  0
 28 25  1  0  0  0  0
M  CHG  1   2  -1
M  END
