5,10
 OpenBabel05122313063D

 21 21  0  0  1  0  0  0  0  0999 V2000
   -5.1277    1.1902   -0.1594 C   0  0  0  0  0  0  0  0  0  0  0  0
   -5.8909    0.3934   -0.1549 H   0  0  0  0  0  0  0  0  0  0  0  0
   -5.1758    1.7331   -1.1257 H   0  0  0  0  0  0  0  0  0  0  0  0
   -5.3237    1.8897    0.6788 H   0  0  0  0  0  0  0  0  0  0  0  0
   -0.2919   -1.3805    0.4603 O   0  5  0  0  0  0  0  0  0  0  0  0
   -3.8280    0.5437    0.0045 N   0  0  0  0  0  0  0  0  0  0  0  0
   -0.1654    2.5534    0.1212 O   0  0  0  0  0  1  0  0  0  0  0  0
   -4.8660   -1.5135    0.0554 O   0  0  0  0  0  0  0  0  0  0  0  0
   -2.6875    1.3092    0.0479 C   0  0  2  0  0  3  0  0  0  0  0  0
   -0.2022    1.2921    0.1672 N   0  0  0  0  0  2  0  0  0  0  0  0
   -2.5728   -1.4791    0.2634 N   0  0  0  0  0  0  0  0  0  0  0  0
   -2.7352    2.6399   -0.0377 N   0  0  0  0  0  0  0  0  0  0  0  0
   -3.5994    3.1522   -0.2011 H   0  0  0  0  0  0  0  0  0  0  0  0
   -1.7699    3.0639   -0.0032 H   0  0  0  0  0  0  0  0  0  0  0  0
   -3.8247   -0.8812    0.1046 C   0  0  0  0  0  0  0  0  0  0  0  0
   -1.3793   -0.7730    0.3007 C   0  0  0  0  0  0  0  0  0  0  0  0
   -1.4368    0.6550    0.1849 C   0  0  0  0  0  0  0  0  0  0  0  0
   -2.4949   -2.9416    0.3431 C   0  0  0  0  0  0  0  0  0  0  0  0
   -3.5180   -3.3394    0.2470 H   0  0  0  0  0  0  0  0  0  0  0  0
   -2.0496   -3.2402    1.3108 H   0  0  0  0  0  0  0  0  0  0  0  0
   -1.8463   -3.3156   -0.4715 H   0  0  0  0  0  0  0  0  0  0  0  0
  1  2  1  0  0  0  0
  1  6  1  0  0  0  0
  1  4  1  0  0  0  0
  3  1  1  0  0  0  0
  6  9  1  0  0  0  0
  6 15  1  0  0  0  0
  7 10  1  0  0  0  0
  8 15  2  0  0  0  0
  9 12  1  6  0  0  0
  9 17  1  0  0  0  0
 10 17  1  0  0  0  0
 11 16  1  0  0  0  0
 11 18  1  0  0  0  0
 12 14  1  0  0  0  0
 13 12  1  0  0  0  0
 15 11  1  0  0  0  0
 16  5  1  0  0  0  0
 17 16  2  0  0  0  0
 18 20  1  0  0  0  0
 19 18  1  0  0  0  0
 21 18  1  0  0  0  0
M  CHG  1   5  -1
M  END
