7,8
 OpenBabel05122313063D

 41 43  0  0  1  0  0  0  0  0999 V2000
   -3.8528    2.9275    2.1950 F   0  0  0  0  0  0  0  0  0  0  0  0
   -4.0004    3.7612    0.1858 F   0  0  0  0  0  0  0  0  0  0  0  0
   -2.0509    3.5915    1.1555 F   0  0  0  0  0  0  0  0  0  0  0  0
   -6.8363    0.8121   -1.1126 F   0  0  0  0  0  0  0  0  0  0  0  0
   -7.7096   -1.1547   -0.7790 F   0  0  0  0  0  0  0  0  0  0  0  0
   -6.8286   -0.0652    0.8882 F   0  0  0  0  0  0  0  0  0  0  0  0
    0.6791    0.1958   -0.3886 O   0  0  0  0  0  1  0  0  0  0  0  0
    1.4119   -2.4086    0.1894 N   0  0  0  0  0  0  0  0  0  0  0  0
    1.4049   -2.8183   -0.7573 H   0  0  0  0  0  0  0  0  0  0  0  0
   -4.2096    0.9446    0.1291 N   0  0  0  0  0  0  0  0  0  0  0  0
   -0.2695   -0.8116   -0.5180 C   0  0  1  0  0  0  0  0  0  0  0  0
   -0.2334   -1.2943   -1.5373 H   0  0  0  0  0  0  0  0  0  0  0  0
    0.0195   -1.9535    0.5054 C   0  0  2  0  0  0  0  0  0  0  0  0
   -0.6793   -2.8084    0.3517 H   0  0  0  0  0  0  0  0  0  0  0  0
   -0.0713   -1.4798    1.9573 C   0  0  0  0  0  0  0  0  0  0  0  0
   -1.1311   -1.2440    2.1819 H   0  0  0  0  0  0  0  0  0  0  0  0
    0.5001   -0.5312    2.0402 H   0  0  0  0  0  0  0  0  0  0  0  0
    0.4838   -2.5099    2.9461 C   0  0  0  0  0  0  0  0  0  0  0  0
    0.4547   -2.0993    3.9761 H   0  0  0  0  0  0  0  0  0  0  0  0
   -0.1650   -3.4149    2.9509 H   0  0  0  0  0  0  0  0  0  0  0  0
    1.9115   -2.9073    2.5615 C   0  0  0  0  0  0  0  0  0  0  0  0
    2.3091   -3.6909    3.2382 H   0  0  0  0  0  0  0  0  0  0  0  0
    2.5903   -2.0310    2.6413 H   0  0  0  0  0  0  0  0  0  0  0  0
    1.9624   -3.4201    1.1276 C   0  0  0  0  0  0  0  0  0  0  0  0
    3.0068   -3.6141    0.8130 H   0  0  0  0  0  0  0  0  0  0  0  0
    1.3707   -4.3603    1.0331 H   0  0  0  0  0  0  0  0  0  0  0  0
   -1.6656   -0.2346   -0.3395 C   0  0  0  0  0  0  0  0  0  0  0  0
   -1.7901    1.0431    0.1907 C   0  0  0  0  0  0  0  0  0  0  0  0
   -0.8803    1.6050    0.4316 H   0  0  0  0  0  0  0  0  0  0  0  0
   -3.0828    1.5805    0.3980 C   0  0  0  0  0  0  0  0  0  0  0  0
   -3.2524    2.9781    0.9871 C   0  0  0  0  0  0  0  0  0  0  0  0
   -4.1256   -0.3007   -0.4080 C   0  0  0  0  0  0  0  0  0  0  0  0
   -5.3432   -0.9962   -0.7178 C   0  0  0  0  0  0  0  0  0  0  0  0
   -6.6795   -0.3376   -0.4249 C   0  0  0  0  0  0  0  0  0  0  0  0
   -5.3005   -2.2603   -1.2875 C   0  0  0  0  0  0  0  0  0  0  0  0
   -6.2422   -2.7757   -1.5202 H   0  0  0  0  0  0  0  0  0  0  0  0
   -4.0592   -2.8802   -1.5807 C   0  0  0  0  0  0  0  0  0  0  0  0
   -4.0499   -3.8745   -2.0513 H   0  0  0  0  0  0  0  0  0  0  0  0
   -2.8664   -2.2393   -1.2874 C   0  0  0  0  0  0  0  0  0  0  0  0
   -1.9130   -2.7249   -1.5392 H   0  0  0  0  0  0  0  0  0  0  0  0
   -2.8608   -0.9472   -0.6830 C   0  0  0  0  0  0  0  0  0  0  0  0
  2 31  1  0  0  0  0
  4 34  1  0  0  0  0
  5 34  1  0  0  0  0
  8 13  1  0  0  0  0
  8 24  1  0  0  0  0
  9  8  1  0  0  0  0
 10 30  1  0  0  0  0
 11 12  1  6  0  0  0
 11  7  1  0  0  0  0
 11 27  1  0  0  0  0
 11 13  1  0  0  0  0
 13 14  1  6  0  0  0
 13 15  1  0  0  0  0
 15 17  1  0  0  0  0
 15 16  1  0  0  0  0
 15 18  1  0  0  0  0
 18 20  1  0  0  0  0
 18 19  1  0  0  0  0
 21 23  1  0  0  0  0
 21 18  1  0  0  0  0
 21 22  1  0  0  0  0
 24 21  1  0  0  0  0
 25 24  1  0  0  0  0
 26 24  1  0  0  0  0
 27 28  1  0  0  0  0
 28 30  2  0  0  0  0
 28 29  1  0  0  0  0
 30 31  1  0  0  0  0
 31  3  1  0  0  0  0
 31  1  1  0  0  0  0
 32 10  2  0  0  0  0
 33 34  1  0  0  0  0
 33 32  1  0  0  0  0
 34  6  1  0  0  0  0
 35 33  2  0  0  0  0
 36 35  1  0  0  0  0
 37 35  1  0  0  0  0
 37 39  2  0  0  0  0
 38 37  1  0  0  0  0
 39 41  1  0  0  0  0
 40 39  1  0  0  0  0
 41 32  1  0  0  0  0
 41 27  2  0  0  0  0
M  END
