1,2
 OpenBabel05122313063D

 20 20  0  0  0  0  0  0  0  0999 V2000
    0.1508   -0.9353   -2.1307 O   0  0  0  0  0  1  0  0  0  0  0  0
    1.7653   -0.4586   -0.0718 N   0  0  0  0  0  0  0  0  0  0  0  0
    2.7626   -0.3642    0.8317 C   0  0  0  0  0  3  0  0  0  0  0  0
    3.9538   -0.9973    0.3200 C   0  0  0  0  0  0  0  0  0  0  0  0
    3.6459   -1.4930   -0.9573 C   0  0  0  0  0  0  0  0  0  0  0  0
    2.2733   -1.1480   -1.1857 C   0  0  0  0  0  0  0  0  0  0  0  0
    1.3642   -1.3655   -2.2254 C   0  0  0  0  0  3  0  0  0  0  0  0
    2.6088    0.3111    2.1570 C   0  0  0  0  0  0  0  0  0  0  0  0
    5.2703   -1.0722    1.0316 C   0  0  0  0  0  0  0  0  0  0  0  0
    4.5516   -2.2048   -1.9128 C   0  0  0  0  0  0  0  0  0  0  0  0
    1.6480   -1.8961   -3.1571 H   0  0  0  0  0  0  0  0  0  0  0  0
    2.3812    1.3912    2.0419 H   0  0  0  0  0  0  0  0  0  0  0  0
    3.5370    0.2283    2.7511 H   0  0  0  0  0  0  0  0  0  0  0  0
    1.7830   -0.1296    2.7530 H   0  0  0  0  0  0  0  0  0  0  0  0
    5.1609   -1.4216    2.0792 H   0  0  0  0  0  0  0  0  0  0  0  0
    5.9635   -1.7689    0.5225 H   0  0  0  0  0  0  0  0  0  0  0  0
    5.7777   -0.0843    1.0737 H   0  0  0  0  0  0  0  0  0  0  0  0
    5.2869   -2.8401   -1.3802 H   0  0  0  0  0  0  0  0  0  0  0  0
    3.9897   -2.8566   -2.6101 H   0  0  0  0  0  0  0  0  0  0  0  0
    5.1360   -1.4903   -2.5319 H   0  0  0  0  0  0  0  0  0  0  0  0
  2  3  1  0  0  0  0
  3  8  1  0  0  0  0
  4  3  1  0  0  0  0
  4  9  1  0  0  0  0
  5  4  2  0  0  0  0
  6  5  1  0  0  0  0
  6  2  2  0  0  0  0
  7  1  1  0  0  0  0
  7  6  1  0  0  0  0
  8 13  1  0  0  0  0
  8 14  1  0  0  0  0
  9 17  1  0  0  0  0
  9 15  1  0  0  0  0
 10 18  1  0  0  0  0
 10  5  1  0  0  0  0
 11  7  1  0  0  0  0
 12  8  1  0  0  0  0
 16  9  1  0  0  0  0
 19 10  1  0  0  0  0
 20 10  1  0  0  0  0
M  END
