1,2
 OpenBabel05122313063D

 30 30  0  0  0  0  0  0  0  0999 V2000
   -1.8204   -1.2972   -0.1417 O   0  5  0  0  0  0  0  0  0  0  0  0
   -0.5300    1.3838   -0.1768 N   0  0  0  0  0  2  0  0  0  0  0  0
    3.1265    0.7156    0.2002 N   0  3  0  0  0  0  0  0  0  0  0  0
    2.5841    0.4084   -0.6790 H   0  0  0  0  0  0  0  0  0  0  0  0
    2.6288    0.1189    0.9492 H   0  0  0  0  0  0  0  0  0  0  0  0
   -2.9447    0.8733   -0.0430 C   0  0  0  0  0  0  0  0  0  0  0  0
   -2.8999   -0.5833   -0.0580 C   0  0  0  0  0  0  0  0  0  0  0  0
   -4.1603   -1.2643    0.0131 C   0  0  0  0  0  0  0  0  0  0  0  0
   -4.1212   -2.3632   -0.0021 H   0  0  0  0  0  0  0  0  0  0  0  0
   -5.3649   -0.5820    0.1025 C   0  0  0  0  0  0  0  0  0  0  0  0
   -6.3054   -1.1529    0.1606 H   0  0  0  0  0  0  0  0  0  0  0  0
   -5.4043    0.8359    0.1172 C   0  0  0  0  0  0  0  0  0  0  0  0
   -6.3631    1.3694    0.1842 H   0  0  0  0  0  0  0  0  0  0  0  0
   -4.2087    1.5331    0.0395 C   0  0  0  0  0  0  0  0  0  0  0  0
   -4.2141    2.6360    0.0413 H   0  0  0  0  0  0  0  0  0  0  0  0
   -1.7929    1.7255   -0.1465 C   0  0  0  0  0  3  0  0  0  0  0  0
   -2.0249    2.8135   -0.2212 H   0  0  0  0  0  0  0  0  0  0  0  0
    0.4774    2.4126   -0.3698 C   0  0  0  0  0  0  0  0  0  0  0  0
   -0.0132    3.3996   -0.5285 H   0  0  0  0  0  0  0  0  0  0  0  0
    1.0218    2.1745   -1.3127 H   0  0  0  0  0  0  0  0  0  0  0  0
    1.4758    2.5065    0.8152 C   0  0  0  0  0  0  0  0  0  0  0  0
    1.1184    1.8535    1.6395 H   0  0  0  0  0  0  0  0  0  0  0  0
    1.4768    3.5395    1.2173 H   0  0  0  0  0  0  0  0  0  0  0  0
    2.9310    2.1598    0.4991 C   0  0  0  0  0  0  0  0  0  0  0  0
    3.3107    2.7377   -0.3703 H   0  0  0  0  0  0  0  0  0  0  0  0
    3.5773    2.4034    1.3673 H   0  0  0  0  0  0  0  0  0  0  0  0
    4.5238    0.2675    0.0449 C   0  0  0  0  0  0  0  0  0  0  0  0
    5.0139    0.8384   -0.7664 H   0  0  0  0  0  0  0  0  0  0  0  0
    4.5128   -0.8062   -0.2185 H   0  0  0  0  0  0  0  0  0  0  0  0
    5.0761    0.4157    0.9920 H   0  0  0  0  0  0  0  0  0  0  0  0
  1  7  1  0  0  0  0
  2 16  1  0  0  0  0
  3 24  1  0  0  0  0
  3  5  1  0  0  0  0
  4  3  1  0  0  0  0
  6 14  1  0  0  0  0
  7  6  2  0  0  0  0
  7  8  1  0  0  0  0
  8 10  2  0  0  0  0
  9  8  1  0  0  0  0
 10 12  1  0  0  0  0
 10 11  1  0  0  0  0
 12 13  1  0  0  0  0
 14 15  1  0  0  0  0
 14 12  2  0  0  0  0
 16  6  1  0  0  0  0
 17 16  1  0  0  0  0
 18  2  1  0  0  0  0
 18 21  1  0  0  0  0
 19 18  1  0  0  0  0
 20 18  1  0  0  0  0
 21 23  1  0  0  0  0
 21 22  1  0  0  0  0
 24 21  1  0  0  0  0
 24 26  1  0  0  0  0
 25 24  1  0  0  0  0
 27  3  1  0  0  0  0
 27 30  1  0  0  0  0
 28 27  1  0  0  0  0
 29 27  1  0  0  0  0
M  CHG  2   1  -1   3   1
M  END
