2,3
 OpenBabel05122313063D

 30 30  0  0  1  0  0  0  0  0999 V2000
   -6.1224   -1.0721    0.3978 Cl  0  0  0  0  0  0  0  0  0  0  0  0
   -0.1742   -1.2042   -0.1623 N   0  0  0  0  0  2  0  0  0  0  0  0
    2.1695   -0.1451   -1.3240 O   0  5  0  0  0  0  0  0  0  0  0  0
   -2.1821   -0.8661    1.2097 C   0  0  0  0  0  0  0  0  0  0  0  0
   -1.5296   -0.5886    2.0495 H   0  0  0  0  0  0  0  0  0  0  0  0
    2.4731   -4.6158    0.1598 O   0  0  0  0  0  0  0  0  0  0  0  0
   -3.5755   -0.8141    1.3388 C   0  0  0  0  0  0  0  0  0  0  0  0
   -4.0422   -0.5104    2.2867 H   0  0  0  0  0  0  0  0  0  0  0  0
   -4.3859   -1.1557    0.2426 C   0  0  0  0  0  0  0  0  0  0  0  0
    4.0809   -1.4557   -1.4800 C   0  0  0  0  0  0  0  0  0  0  0  0
    4.0621   -1.1749   -2.5515 H   0  0  0  0  0  0  0  0  0  0  0  0
    4.4650   -2.4862   -1.3900 H   0  0  0  0  0  0  0  0  0  0  0  0
    4.7809   -0.7535   -0.9814 H   0  0  0  0  0  0  0  0  0  0  0  0
    2.6802   -1.2697   -0.9366 C   0  0  0  0  0  0  0  0  0  0  0  0
    0.5753   -2.2870    0.0109 C   0  0  1  0  0  3  0  0  0  0  0  0
   -1.5955   -1.2523   -0.0106 C   0  0  0  0  0  0  0  0  0  0  0  0
   -3.8133   -1.5596   -0.9737 C   0  0  0  0  0  0  0  0  0  0  0  0
   -4.4600   -1.8192   -1.8229 H   0  0  0  0  0  0  0  0  0  0  0  0
    2.0125   -2.2762   -0.2019 C   0  0  0  0  0  0  0  0  0  0  0  0
   -0.0821   -3.5741    0.4495 C   0  0  0  0  0  0  0  0  0  0  0  0
   -1.1674   -3.4479    0.5972 H   0  0  0  0  0  0  0  0  0  0  0  0
    0.3703   -3.9289    1.3968 H   0  0  0  0  0  0  0  0  0  0  0  0
    0.1153   -4.3782   -0.2827 H   0  0  0  0  0  0  0  0  0  0  0  0
    2.8174   -3.4444    0.2928 C   0  0  0  0  0  0  0  0  0  0  0  0
   -2.4194   -1.6055   -1.0964 C   0  0  0  0  0  0  0  0  0  0  0  0
   -1.9558   -1.8973   -2.0496 H   0  0  0  0  0  0  0  0  0  0  0  0
    4.0514   -3.1256    1.1375 C   0  0  0  0  0  0  0  0  0  0  0  0
    3.7275   -3.2217    2.1965 H   0  0  0  0  0  0  0  0  0  0  0  0
    4.4511   -2.1035    1.0120 H   0  0  0  0  0  0  0  0  0  0  0  0
    4.8406   -3.8836    0.9687 H   0  0  0  0  0  0  0  0  0  0  0  0
  2 16  1  0  0  0  0
  2 15  1  0  0  0  0
  3 14  1  0  0  0  0
  4  7  1  0  0  0  0
  4  5  1  0  0  0  0
  6 24  2  0  0  0  0
  7  8  1  0  0  0  0
  9  1  1  0  0  0  0
  9  7  2  0  0  0  0
 10 12  1  0  0  0  0
 10 13  1  0  0  0  0
 10 14  1  0  0  0  0
 11 10  1  0  0  0  0
 14 19  2  0  0  0  0
 15 19  1  1  0  0  0
 15 20  1  0  0  0  0
 16  4  2  0  0  0  0
 17  9  1  0  0  0  0
 18 17  1  0  0  0  0
 19 24  1  0  0  0  0
 20 21  1  0  0  0  0
 20 22  1  0  0  0  0
 23 20  1  0  0  0  0
 24 27  1  0  0  0  0
 25 17  2  0  0  0  0
 25 16  1  0  0  0  0
 26 25  1  0  0  0  0
 27 28  1  0  0  0  0
 29 27  1  0  0  0  0
 30 27  1  0  0  0  0
M  CHG  1   3  -1
M  END
