3,7
 OpenBabel05122313063D

 51 54  0  0  1  0  0  0  0  0999 V2000
    1.7019    2.8374   -1.9780 O   0  0  0  0  0  0  0  0  0  0  0  0
   -0.8122    3.2107   -0.8586 O   0  0  0  0  0  0  0  0  0  0  0  0
   -3.0853   -0.2380   -1.0363 O   0  0  0  0  0  1  0  0  0  0  0  0
    3.0991    0.2697    1.9149 N   0  0  0  0  0  0  0  0  0  0  0  0
   -1.4213    0.9149   -2.0665 N   0  0  0  0  0  0  0  0  0  0  0  0
   -0.8615    1.7806   -2.0489 H   0  0  0  0  0  0  0  0  0  0  0  0
   -0.1134   -1.6443   -0.8229 N   0  0  0  0  0  2  0  0  0  0  0  0
    2.3054    2.0347    0.1045 N   0  0  0  0  0  0  0  0  0  0  0  0
    1.8894    1.7290    1.0025 H   0  0  0  0  0  0  0  0  0  0  0  0
    3.4285   -0.6282    2.8320 C   0  0  0  0  0  0  0  0  0  0  0  0
    2.7501   -0.7244    3.6981 H   0  0  0  0  0  0  0  0  0  0  0  0
    4.5908   -1.4437    2.7407 C   0  0  0  0  0  0  0  0  0  0  0  0
    4.8124   -2.1722    3.5344 H   0  0  0  0  0  0  0  0  0  0  0  0
    5.4296   -1.2945    1.6463 C   0  0  0  0  0  0  0  0  0  0  0  0
    6.3423   -1.9024    1.5433 H   0  0  0  0  0  0  0  0  0  0  0  0
    5.1061   -0.3467    0.6331 C   0  0  0  0  0  0  0  0  0  0  0  0
    5.8841   -0.1373   -0.5423 C   0  0  0  0  0  0  0  0  0  0  0  0
    6.8089   -0.7160   -0.6871 H   0  0  0  0  0  0  0  0  0  0  0  0
    5.4622    0.7879   -1.4890 C   0  0  0  0  0  0  0  0  0  0  0  0
    6.0612    0.9488   -2.3983 H   0  0  0  0  0  0  0  0  0  0  0  0
    4.2655    1.5323   -1.3274 C   0  0  0  0  0  0  0  0  0  0  0  0
    3.9259    2.2301   -2.1018 H   0  0  0  0  0  0  0  0  0  0  0  0
    3.4876    1.3595   -0.1801 C   0  0  0  0  0  0  0  0  0  0  0  0
    3.9027    0.4144    0.8277 C   0  0  0  0  0  0  0  0  0  0  0  0
    1.5174    2.7454   -0.7654 C   0  0  0  0  0  0  0  0  0  0  0  0
    0.3605    3.4797   -0.0791 C   0  0  0  0  0  0  0  0  0  0  0  0
    0.2034    3.1381    0.9628 H   0  0  0  0  0  0  0  0  0  0  0  0
    0.5922    4.5687   -0.0978 H   0  0  0  0  0  0  0  0  0  0  0  0
   -2.0144    3.1696   -0.2134 C   0  0  0  0  0  0  0  0  0  0  0  0
   -2.4014    4.1833    0.6815 C   0  0  0  0  0  0  0  0  0  0  0  0
   -1.7095    5.0116    0.8888 H   0  0  0  0  0  0  0  0  0  0  0  0
   -3.6602    4.1404    1.2897 C   0  0  0  0  0  0  0  0  0  0  0  0
   -3.9545    4.9434    1.9819 H   0  0  0  0  0  0  0  0  0  0  0  0
   -4.5445    3.0824    1.0170 C   0  0  0  0  0  0  0  0  0  0  0  0
   -5.5371    3.0517    1.4887 H   0  0  0  0  0  0  0  0  0  0  0  0
   -4.1439    2.0576    0.1578 C   0  0  0  0  0  0  0  0  0  0  0  0
   -4.8088    1.2066   -0.0467 H   0  0  0  0  0  0  0  0  0  0  0  0
   -2.8783    2.0711   -0.4679 C   0  0  0  0  0  0  0  0  0  0  0  0
   -2.4636    0.8501   -1.2149 C   0  0  2  0  0  3  0  0  0  0  0  0
   -0.8973   -0.2794   -2.7129 C   0  0  0  0  0  0  0  0  0  0  0  0
   -0.5273    0.0013   -3.7173 H   0  0  0  0  0  0  0  0  0  0  0  0
   -1.7350   -0.9954   -2.8293 H   0  0  0  0  0  0  0  0  0  0  0  0
    0.2209   -0.9438   -1.9328 C   0  0  1  0  0  3  0  0  0  0  0  0
    1.5575   -0.8282   -2.3430 C   0  0  0  0  0  0  0  0  0  0  0  0
    1.8035   -0.2238   -3.2276 H   0  0  0  0  0  0  0  0  0  0  0  0
    2.5635   -1.4655   -1.6047 C   0  0  0  0  0  0  0  0  0  0  0  0
    3.6177   -1.3772   -1.9059 H   0  0  0  0  0  0  0  0  0  0  0  0
    2.2029   -2.1986   -0.4685 C   0  0  0  0  0  0  0  0  0  0  0  0
    2.9560   -2.7100    0.1474 H   0  0  0  0  0  0  0  0  0  0  0  0
    0.8527   -2.2533   -0.1075 C   0  0  0  0  0  0  0  0  0  0  0  0
    0.5104   -2.8219    0.7713 H   0  0  0  0  0  0  0  0  0  0  0  0
  1 25  2  0  0  0  0
  2 29  1  0  0  0  0
  2 26  1  0  0  0  0
  4 10  1  0  0  0  0
  5  6  1  0  0  0  0
  5 39  1  0  0  0  0
  7 50  1  0  0  0  0
  8  9  1  0  0  0  0
 10 11  1  0  0  0  0
 12 10  2  0  0  0  0
 12 13  1  0  0  0  0
 14 12  1  0  0  0  0
 15 14  1  0  0  0  0
 16 24  1  0  0  0  0
 16 14  2  0  0  0  0
 17 16  1  0  0  0  0
 18 17  1  0  0  0  0
 19 21  1  0  0  0  0
 19 17  2  0  0  0  0
 20 19  1  0  0  0  0
 21 23  2  0  0  0  0
 22 21  1  0  0  0  0
 23  8  1  0  0  0  0
 23 24  1  0  0  0  0
 24  4  2  0  0  0  0
 25 26  1  0  0  0  0
 25  8  1  0  0  0  0
 26 27  1  0  0  0  0
 28 26  1  0  0  0  0
 29 30  1  0  0  0  0
 30 31  1  0  0  0  0
 30 32  2  0  0  0  0
 32 33  1  0  0  0  0
 34 32  1  0  0  0  0
 34 35  1  0  0  0  0
 36 34  2  0  0  0  0
 37 36  1  0  0  0  0
 38 29  2  0  0  0  0
 38 36  1  0  0  0  0
 39  3  1  1  0  0  0
 39 38  1  0  0  0  0
 40  5  1  0  0  0  0
 41 40  1  0  0  0  0
 42 40  1  0  0  0  0
 43 40  1  1  0  0  0
 43  7  1  0  0  0  0
 44 43  1  0  0  0  0
 44 46  2  0  0  0  0
 45 44  1  0  0  0  0
 46 48  1  0  0  0  0
 47 46  1  0  0  0  0
 48 50  2  0  0  0  0
 48 49  1  0  0  0  0
 50 51  1  0  0  0  0
M  END
