1,3
 OpenBabel05122313063D

 19 20  0  0  1  0  0  0  0  0999 V2000
   -1.1780   -0.1467   -1.4149 O   0  5  0  0  0  0  0  0  0  0  0  0
   -1.3580   -3.6622    0.9777 N   0  0  0  0  0  0  0  0  0  0  0  0
   -0.1974   -1.8136    0.6834 N   0  0  0  0  0  2  0  0  0  0  0  0
   -2.3314   -0.7545   -1.2133 C   0  0  0  0  0  0  0  0  0  0  0  0
   -3.4625   -0.3318   -1.9691 C   0  0  0  0  0  0  0  0  0  0  0  0
   -3.3079    0.4942   -2.6786 H   0  0  0  0  0  0  0  0  0  0  0  0
   -4.7115   -0.9272   -1.8119 C   0  0  0  0  0  0  0  0  0  0  0  0
   -5.5643   -0.5638   -2.4056 H   0  0  0  0  0  0  0  0  0  0  0  0
   -4.8959   -1.9794   -0.8887 C   0  0  0  0  0  0  0  0  0  0  0  0
   -5.8861   -2.4351   -0.7483 H   0  0  0  0  0  0  0  0  0  0  0  0
   -3.8035   -2.4285   -0.1502 C   0  0  0  0  0  0  0  0  0  0  0  0
   -3.9548   -3.2360    0.5848 H   0  0  0  0  0  0  0  0  0  0  0  0
   -2.5155   -1.8509   -0.2984 C   0  0  0  0  0  0  0  0  0  0  0  0
   -1.3860   -2.4073    0.4230 C   0  0  2  0  0  3  0  0  0  0  0  0
   -0.1387   -3.8720    1.5894 C   0  0  0  0  0  0  0  0  0  0  0  0
    0.1120   -4.8071    2.0981 H   0  0  0  0  0  0  0  0  0  0  0  0
    0.5803   -2.7115    1.3968 C   0  0  0  0  0  0  0  0  0  0  0  0
    1.5921   -2.4649    1.7312 H   0  0  0  0  0  0  0  0  0  0  0  0
   -2.1046   -4.3499    0.8779 H   0  0  0  0  0  0  0  0  0  0  0  0
  1  4  1  0  0  0  0
  2 15  1  0  0  0  0
  3 17  1  0  0  0  0
  4 13  1  0  0  0  0
  5  7  1  0  0  0  0
  5  4  2  0  0  0  0
  6  5  1  0  0  0  0
  7  9  2  0  0  0  0
  8  7  1  0  0  0  0
  9 10  1  0  0  0  0
  9 11  1  0  0  0  0
 11 12  1  0  0  0  0
 13 11  2  0  0  0  0
 14 13  1  1  0  0  0
 14  3  1  0  0  0  0
 14  2  1  0  0  0  0
 15 16  1  0  0  0  0
 17 15  2  0  0  0  0
 17 18  1  0  0  0  0
 19  2  1  0  0  0  0
M  CHG  1   1  -1
M  END
