1,2
 OpenBabel05122313063D

 15 14  0  0  1  0  0  0  0  0999 V2000
    0.5766   -2.0481   -0.0002 O   0  0  0  0  0  1  0  0  0  0  0  0
    2.6679   -0.0481    0.0001 N   0  0  0  0  0  2  0  0  0  0  0  0
    1.2262   -4.3098   -0.0003 C   0  0  0  0  0  0  0  0  0  0  0  0
    1.5945   -2.8431   -0.0002 C   0  0  2  0  0  3  0  0  0  0  0  0
    2.9437   -2.4598    0.0000 C   0  0  0  0  0  0  0  0  0  0  0  0
    3.4392   -1.1284    0.0002 C   0  0  0  0  0  0  0  0  0  0  0  0
    4.9436   -0.9524    0.0005 C   0  0  0  0  0  0  0  0  0  0  0  0
    3.2207    0.8118    0.0002 H   0  0  0  0  0  0  0  0  0  0  0  0
    0.6025   -4.5345    0.8892 H   0  0  0  0  0  0  0  0  0  0  0  0
    2.1109   -4.9727   -0.0003 H   0  0  0  0  0  0  0  0  0  0  0  0
    0.6026   -4.5343   -0.8899 H   0  0  0  0  0  0  0  0  0  0  0  0
    3.6913   -3.2648    0.0001 H   0  0  0  0  0  0  0  0  0  0  0  0
    5.2352    0.1166    0.0003 H   0  0  0  0  0  0  0  0  0  0  0  0
    5.3942   -1.4357   -0.8904 H   0  0  0  0  0  0  0  0  0  0  0  0
    5.3938   -1.4353    0.8918 H   0  0  0  0  0  0  0  0  0  0  0  0
  2  6  1  0  0  0  0
  2  8  1  0  0  0  0
  3  4  1  0  0  0  0
  3  9  1  0  0  0  0
  4  1  1  1  0  0  0
  4  5  1  0  0  0  0
  5 12  1  0  0  0  0
  5  6  2  0  0  0  0
  6  7  1  0  0  0  0
  7 15  1  0  0  0  0
 10  3  1  0  0  0  0
 11  3  1  0  0  0  0
 13  7  1  0  0  0  0
 14  7  1  0  0  0  0
M  END
