1,2
 OpenBabel05122313063D

 22 22  0  0  1  0  0  0  0  0999 V2000
   -1.8715    0.0826    0.0260 O   0  5  0  0  0  0  0  0  0  0  0  0
    0.0594   -2.0814    0.0036 N   0  0  0  0  0  2  0  0  0  0  0  0
   -0.9174   -4.3222    0.0013 C   0  0  0  0  0  0  0  0  0  0  0  0
   -1.0448   -2.8140   -0.0040 C   0  0  1  0  0  3  0  0  0  0  0  0
   -2.3591   -2.2717   -0.0094 C   0  0  0  0  0  0  0  0  0  0  0  0
   -2.7019   -0.9097    0.0065 C   0  0  0  0  0  0  0  0  0  0  0  0
   -4.1480   -0.5181    0.0369 C   0  0  0  0  0  0  0  0  0  0  0  0
   -5.1557   -1.3024   -0.5651 C   0  0  0  0  0  0  0  0  0  0  0  0
   -6.4972   -0.8976   -0.5253 C   0  0  0  0  0  0  0  0  0  0  0  0
   -6.8574    0.2950    0.1227 C   0  0  0  0  0  0  0  0  0  0  0  0
   -5.8632    1.0841    0.7244 C   0  0  0  0  0  0  0  0  0  0  0  0
   -4.5215    0.6848    0.6757 C   0  0  0  0  0  0  0  0  0  0  0  0
    0.9163   -2.6437    0.0062 H   0  0  0  0  0  0  0  0  0  0  0  0
   -1.4200   -4.7595   -0.8853 H   0  0  0  0  0  0  0  0  0  0  0  0
   -1.4100   -4.7513    0.8976 H   0  0  0  0  0  0  0  0  0  0  0  0
    0.1415   -4.6464   -0.0027 H   0  0  0  0  0  0  0  0  0  0  0  0
   -3.1827   -2.9966    0.0228 H   0  0  0  0  0  0  0  0  0  0  0  0
   -4.8800   -2.2255   -1.0961 H   0  0  0  0  0  0  0  0  0  0  0  0
   -7.2679   -1.5151   -1.0116 H   0  0  0  0  0  0  0  0  0  0  0  0
   -7.9113    0.6107    0.1555 H   0  0  0  0  0  0  0  0  0  0  0  0
   -6.1381    2.0180    1.2389 H   0  0  0  0  0  0  0  0  0  0  0  0
   -3.7362    1.2923    1.1477 H   0  0  0  0  0  0  0  0  0  0  0  0
  2 13  1  0  0  0  0
  3 15  1  0  0  0  0
  4  5  1  1  0  0  0
  4  3  1  0  0  0  0
  4  2  1  0  0  0  0
  5  6  2  0  0  0  0
  5 17  1  0  0  0  0
  6  1  1  0  0  0  0
  6  7  1  0  0  0  0
  7 12  1  0  0  0  0
  8  9  1  0  0  0  0
  8  7  2  0  0  0  0
  9 10  2  0  0  0  0
 10 20  1  0  0  0  0
 10 11  1  0  0  0  0
 11 21  1  0  0  0  0
 12 11  2  0  0  0  0
 12 22  1  0  0  0  0
 14  3  1  0  0  0  0
 16  3  1  0  0  0  0
 18  8  1  0  0  0  0
 19  9  1  0  0  0  0
M  CHG  1   1  -1
M  END
