3,6
 OpenBabel05122313063D

 26 27  0  0  0  0  0  0  0  0999 V2000
   -4.0974   -2.5360   -1.3420 O   0  0  0  0  0  0  0  0  0  0  0  0
   -3.0957   -2.3825   -1.3011 H   0  0  0  0  0  0  0  0  0  0  0  0
   -1.7766    0.6941    0.0768 O   0  5  0  0  0  0  0  0  0  0  0  0
    2.3307   -1.4865   -2.0027 O   0  0  0  0  0  0  0  0  0  0  0  0
   -1.8254   -1.4166   -0.8645 N   0  0  0  0  0  0  0  0  0  0  0  0
   -0.4578   -1.3281   -0.8989 N   0  0  0  0  0  2  0  0  0  0  0  0
   -4.6648   -1.4407   -0.8299 C   0  0  0  0  0  0  0  0  0  0  0  0
   -6.0773   -1.3808   -0.7637 C   0  0  0  0  0  0  0  0  0  0  0  0
   -6.6430   -2.2441   -1.1423 H   0  0  0  0  0  0  0  0  0  0  0  0
   -6.7184   -0.2609   -0.2361 C   0  0  0  0  0  0  0  0  0  0  0  0
   -7.8183   -0.2392   -0.1967 H   0  0  0  0  0  0  0  0  0  0  0  0
   -5.9764    0.8409    0.2450 C   0  0  0  0  0  0  0  0  0  0  0  0
   -6.4918    1.7200    0.6573 H   0  0  0  0  0  0  0  0  0  0  0  0
   -4.5856    0.8013    0.1878 C   0  0  0  0  0  0  0  0  0  0  0  0
   -3.9786    1.6438    0.5495 H   0  0  0  0  0  0  0  0  0  0  0  0
   -3.9052   -0.3240   -0.3422 C   0  0  0  0  0  0  0  0  0  0  0  0
   -2.4410   -0.3281   -0.3768 C   0  0  0  0  0  0  0  0  0  0  0  0
    0.1258   -2.3879   -1.4341 C   0  0  0  0  0  3  0  0  0  0  0  0
   -0.5368   -3.2410   -1.6628 H   0  0  0  0  0  0  0  0  0  0  0  0
    1.4893   -2.5595   -1.8248 C   0  0  0  0  0  0  0  0  0  0  0  0
    2.1567   -3.7273   -2.1915 C   0  0  0  0  0  0  0  0  0  0  0  0
    1.7368   -4.7388   -2.1687 H   0  0  0  0  0  0  0  0  0  0  0  0
    3.4688   -3.3413   -2.5924 C   0  0  0  0  0  0  0  0  0  0  0  0
    4.2762   -3.9922   -2.9447 H   0  0  0  0  0  0  0  0  0  0  0  0
    3.5187   -1.9701   -2.4637 C   0  0  0  0  0  0  0  0  0  0  0  0
    4.2923   -1.2224   -2.6639 H   0  0  0  0  0  0  0  0  0  0  0  0
  1  2  1  0  0  0  0
  1  7  1  0  0  0  0
  4 20  1  0  0  0  0
  5 17  2  0  0  0  0
  6  5  1  0  0  0  0
  7  8  2  0  0  0  0
  7 16  1  0  0  0  0
  8 10  1  0  0  0  0
  9  8  1  0  0  0  0
 10 11  1  0  0  0  0
 10 12  2  0  0  0  0
 12 13  1  0  0  0  0
 14 12  1  0  0  0  0
 14 15  1  0  0  0  0
 16 14  2  0  0  0  0
 17 16  1  0  0  0  0
 17  3  1  0  0  0  0
 18  6  1  0  0  0  0
 19 18  1  0  0  0  0
 20 18  1  0  0  0  0
 21 22  1  0  0  0  0
 21 20  2  0  0  0  0
 23 25  2  0  0  0  0
 23 21  1  0  0  0  0
 24 23  1  0  0  0  0
 25  4  1  0  0  0  0
 26 25  1  0  0  0  0
M  CHG  1   3  -1
M  END
