1,2
 OpenBabel05122313063D

 29 31  0  0  0  0  0  0  0  0999 V2000
   -0.2924    0.7650   -1.6468 O   0  5  0  0  0  0  0  0  0  0  0  0
    0.2208   -0.3983    0.7575 N   0  0  0  0  0  0  0  0  0  0  0  0
    1.2759   -0.0060   -0.0209 C   0  0  0  0  0  0  0  0  0  0  0  0
    0.9431    0.6220   -1.2947 C   0  0  0  0  0  0  0  0  0  0  0  0
    0.4406   -0.9968    1.9313 C   0  0  0  0  0  0  0  0  0  0  0  0
   -0.4527   -1.2907    2.5049 H   0  0  0  0  0  0  0  0  0  0  0  0
    2.6325   -0.2033    0.3928 C   0  0  0  0  0  3  0  0  0  0  0  0
    3.6977    0.2400   -0.4666 C   0  0  0  0  0  0  0  0  0  0  0  0
    3.3589    0.8532   -1.6975 C   0  0  0  0  0  0  0  0  0  0  0  0
    4.1992    1.1798   -2.3281 H   0  0  0  0  0  0  0  0  0  0  0  0
    4.9939    0.0301   -0.0194 N   0  0  0  0  0  0  0  0  0  0  0  0
    2.0398    1.0402   -2.1052 C   0  0  0  0  0  0  0  0  0  0  0  0
    1.8044    1.5178   -3.0681 H   0  0  0  0  0  0  0  0  0  0  0  0
    5.9276    0.4303   -0.7945 N   0  0  0  0  0  2  0  0  0  0  0  0
    2.8414   -0.8372    1.6490 C   0  0  0  0  0  0  0  0  0  0  0  0
    3.8769   -0.9963    1.9808 H   0  0  0  0  0  0  0  0  0  0  0  0
    1.7508   -1.2345    2.4111 C   0  0  0  0  0  0  0  0  0  0  0  0
    1.8862   -1.7297    3.3836 H   0  0  0  0  0  0  0  0  0  0  0  0
    7.2344    0.2083   -0.3211 C   0  0  0  0  0  0  0  0  0  0  0  0
    7.5578   -0.4069    0.9140 C   0  0  0  0  0  0  0  0  0  0  0  0
    6.7335   -0.7403    1.5596 H   0  0  0  0  0  0  0  0  0  0  0  0
    8.2799    0.6445   -1.1669 C   0  0  0  0  0  0  0  0  0  0  0  0
    7.9995    1.1186   -2.1193 H   0  0  0  0  0  0  0  0  0  0  0  0
    8.8951   -0.5756    1.2819 C   0  0  0  0  0  0  0  0  0  0  0  0
    9.1413   -1.0543    2.2429 H   0  0  0  0  0  0  0  0  0  0  0  0
    9.9316   -0.1384    0.4339 C   0  0  0  0  0  0  0  0  0  0  0  0
   10.9826   -0.2750    0.7312 H   0  0  0  0  0  0  0  0  0  0  0  0
    9.6178    0.4722   -0.7918 C   0  0  0  0  0  0  0  0  0  0  0  0
   10.4233    0.8160   -1.4588 H   0  0  0  0  0  0  0  0  0  0  0  0
  1  4  1  0  0  0  0
  2  5  2  0  0  0  0
  3  7  1  0  0  0  0
  3  2  1  0  0  0  0
  4  3  2  0  0  0  0
  5 17  1  0  0  0  0
  5  6  1  0  0  0  0
  7 15  1  0  0  0  0
  8 11  2  0  0  0  0
  8  7  1  0  0  0  0
  9  8  1  0  0  0  0
 10  9  1  0  0  0  0
 12  9  2  0  0  0  0
 12  4  1  0  0  0  0
 13 12  1  0  0  0  0
 14 19  1  0  0  0  0
 14 11  1  0  0  0  0
 15 16  1  0  0  0  0
 15 17  2  0  0  0  0
 17 18  1  0  0  0  0
 19 20  1  0  0  0  0
 20 24  2  0  0  0  0
 20 21  1  0  0  0  0
 22 28  1  0  0  0  0
 22 19  2  0  0  0  0
 23 22  1  0  0  0  0
 24 25  1  0  0  0  0
 26 27  1  0  0  0  0
 26 24  1  0  0  0  0
 28 26  2  0  0  0  0
 29 28  1  0  0  0  0
M  CHG  1   1  -1
M  END
