1,3
 OpenBabel05122313063D

 40 43  0  0  0  0  0  0  0  0999 V2000
    1.1203    1.4565    0.5785 O   0  5  0  0  0  0  0  0  0  0  0  0
    2.7345   -0.1895    0.5737 N   0  0  0  0  0  0  0  0  0  0  0  0
    1.6337   -0.9631    0.3021 N   0  0  0  0  0  2  0  0  0  0  0  0
    2.3623    1.0776    0.6964 C   0  0  0  0  0  0  0  0  0  0  0  0
    3.3744    2.1237    0.9586 C   0  0  0  0  0  0  0  0  0  0  0  0
    4.7489    1.8078    1.0180 C   0  0  0  0  0  0  0  0  0  0  0  0
    5.0549    0.7620    0.8738 H   0  0  0  0  0  0  0  0  0  0  0  0
    5.6889    2.8190    1.2508 C   0  0  0  0  0  0  0  0  0  0  0  0
    6.7602    2.5703    1.2943 H   0  0  0  0  0  0  0  0  0  0  0  0
    5.2683    4.1492    1.4276 C   0  0  0  0  0  0  0  0  0  0  0  0
    6.0111    4.9411    1.6098 H   0  0  0  0  0  0  0  0  0  0  0  0
    3.9005    4.4654    1.3735 C   0  0  0  0  0  0  0  0  0  0  0  0
    3.5648    5.5044    1.5139 H   0  0  0  0  0  0  0  0  0  0  0  0
    2.9555    3.4586    1.1414 C   0  0  0  0  0  0  0  0  0  0  0  0
    1.8824    3.6879    1.0957 H   0  0  0  0  0  0  0  0  0  0  0  0
    1.8644   -2.2425    0.1039 C   0  0  0  0  0  3  0  0  0  0  0  0
    2.9144   -2.5437    0.2805 H   0  0  0  0  0  0  0  0  0  0  0  0
    0.9082   -3.2550   -0.3329 C   0  0  0  0  0  0  0  0  0  0  0  0
    0.9090   -4.5100    0.3535 C   0  0  0  0  0  0  0  0  0  0  0  0
    1.7433   -4.7657    1.4898 C   0  0  0  0  0  0  0  0  0  0  0  0
    2.4040   -3.9698    1.8620 H   0  0  0  0  0  0  0  0  0  0  0  0
    1.7179   -5.9854    2.1422 C   0  0  0  0  0  0  0  0  0  0  0  0
    2.3736   -6.1535    3.0098 H   0  0  0  0  0  0  0  0  0  0  0  0
    0.8385   -7.0221    1.7118 C   0  0  0  0  0  0  0  0  0  0  0  0
    0.8260   -7.9849    2.2445 H   0  0  0  0  0  0  0  0  0  0  0  0
   -0.0028   -6.8079    0.6380 C   0  0  0  0  0  0  0  0  0  0  0  0
   -0.6982   -7.5934    0.3032 H   0  0  0  0  0  0  0  0  0  0  0  0
   -0.0000   -5.5599   -0.0665 C   0  0  0  0  0  0  0  0  0  0  0  0
   -0.8878   -5.3170   -1.1295 C   0  0  0  0  0  0  0  0  0  0  0  0
   -1.6033   -6.1020   -1.4215 H   0  0  0  0  0  0  0  0  0  0  0  0
   -0.8980   -4.0924   -1.8213 C   0  0  0  0  0  0  0  0  0  0  0  0
   -1.8260   -3.8570   -2.8875 C   0  0  0  0  0  0  0  0  0  0  0  0
   -2.5443   -4.6529   -3.1372 H   0  0  0  0  0  0  0  0  0  0  0  0
   -1.8224   -2.6656   -3.5830 C   0  0  0  0  0  0  0  0  0  0  0  0
   -2.5437   -2.4924   -4.3955 H   0  0  0  0  0  0  0  0  0  0  0  0
   -0.8614   -1.6629   -3.2626 C   0  0  0  0  0  0  0  0  0  0  0  0
   -0.8403   -0.7318   -3.8489 H   0  0  0  0  0  0  0  0  0  0  0  0
    0.0429   -1.8489   -2.2322 C   0  0  0  0  0  0  0  0  0  0  0  0
    0.7853   -1.0690   -2.0166 H   0  0  0  0  0  0  0  0  0  0  0  0
    0.0374   -3.0475   -1.4480 C   0  0  0  0  0  0  0  0  0  0  0  0
  1  4  1  0  0  0  0
  2  4  2  0  0  0  0
  3  2  1  0  0  0  0
  4  5  1  0  0  0  0
  5  6  2  0  0  0  0
  5 14  1  0  0  0  0
  6  8  1  0  0  0  0
  7  6  1  0  0  0  0
  8  9  1  0  0  0  0
  8 10  2  0  0  0  0
 10 11  1  0  0  0  0
 12 10  1  0  0  0  0
 12 13  1  0  0  0  0
 14 12  2  0  0  0  0
 15 14  1  0  0  0  0
 16 17  1  0  0  0  0
 16  3  1  0  0  0  0
 18 16  1  0  0  0  0
 18 19  1  0  0  0  0
 19 20  1  0  0  0  0
 20 21  1  0  0  0  0
 20 22  2  0  0  0  0
 22 23  1  0  0  0  0
 24 22  1  0  0  0  0
 24 25  1  0  0  0  0
 26 24  2  0  0  0  0
 27 26  1  0  0  0  0
 28 19  2  0  0  0  0
 28 26  1  0  0  0  0
 29 28  1  0  0  0  0
 30 29  1  0  0  0  0
 31 40  1  0  0  0  0
 31 29  2  0  0  0  0
 32 31  1  0  0  0  0
 33 32  1  0  0  0  0
 34 36  1  0  0  0  0
 34 32  2  0  0  0  0
 35 34  1  0  0  0  0
 36 38  2  0  0  0  0
 37 36  1  0  0  0  0
 38 39  1  0  0  0  0
 38 40  1  0  0  0  0
 40 18  2  0  0  0  0
M  CHG  1   1  -1
M  END
