2,3
 OpenBabel05122313063D

 23 24  0  0  1  0  0  0  0  0999 V2000
    0.9934    3.5076    0.2224 O   0  5  0  0  0  0  0  0  0  0  0  0
   -0.5205    1.8591    0.0246 O   0  0  0  0  0  0  0  0  0  0  0  0
    1.4144   -0.0220   -0.3332 N   0  0  0  0  0  0  0  0  0  0  0  0
    1.5500    0.1218   -1.3472 H   0  0  0  0  0  0  0  0  0  0  0  0
    2.2733   -1.1443    0.0898 C   0  0  0  0  0  0  0  0  0  0  0  0
    2.0049   -2.0347   -0.5123 H   0  0  0  0  0  0  0  0  0  0  0  0
    1.9942   -1.3951    1.1357 H   0  0  0  0  0  0  0  0  0  0  0  0
    1.7951    1.2363    0.3588 C   0  0  1  0  0  0  0  0  0  0  0  0
    1.7987    0.9884    1.4443 H   0  0  0  0  0  0  0  0  0  0  0  0
    3.1892    1.6806   -0.0673 C   0  0  0  0  0  0  0  0  0  0  0  0
    3.1296    2.1238   -1.0875 H   0  0  0  0  0  0  0  0  0  0  0  0
    3.5170    2.5143    0.5848 H   0  0  0  0  0  0  0  0  0  0  0  0
    4.1859    0.5378   -0.0518 C   0  0  0  0  0  0  0  0  0  0  0  0
    3.7494   -0.8089   -0.0064 C   0  0  0  0  0  0  0  0  0  0  0  0
    4.6982   -1.8497   -0.0204 C   0  0  0  0  0  0  0  0  0  0  0  0
    4.3485   -2.8942    0.0111 H   0  0  0  0  0  0  0  0  0  0  0  0
    6.0696   -1.5731   -0.0763 C   0  0  0  0  0  0  0  0  0  0  0  0
    6.7982   -2.3976   -0.0881 H   0  0  0  0  0  0  0  0  0  0  0  0
    6.5070   -0.2389   -0.1225 C   0  0  0  0  0  0  0  0  0  0  0  0
    7.5824   -0.0094   -0.1671 H   0  0  0  0  0  0  0  0  0  0  0  0
    5.5692    0.8009   -0.1126 C   0  0  0  0  0  0  0  0  0  0  0  0
    5.9098    1.8481   -0.1493 H   0  0  0  0  0  0  0  0  0  0  0  0
    0.7036    2.3188    0.1776 C   0  0  0  0  0  0  0  0  0  0  0  0
  2 23  2  0  0  0  0
  3  5  1  0  0  0  0
  3  8  1  0  0  0  0
  4  3  1  0  0  0  0
  5  7  1  0  0  0  0
  6  5  1  0  0  0  0
  8  9  1  1  0  0  0
 10 13  1  0  0  0  0
 10  8  1  0  0  0  0
 10 12  1  0  0  0  0
 11 10  1  0  0  0  0
 13 14  1  0  0  0  0
 14  5  1  0  0  0  0
 15 14  2  0  0  0  0
 15 16  1  0  0  0  0
 17 15  1  0  0  0  0
 18 17  1  0  0  0  0
 19 21  1  0  0  0  0
 19 17  2  0  0  0  0
 20 19  1  0  0  0  0
 21 13  2  0  0  0  0
 22 21  1  0  0  0  0
 23  1  1  0  0  0  0
 23  8  1  0  0  0  0
M  CHG  1   1  -1
M  END
