1,2
 OpenBabel05122313063D

 14 14  0  0  1  0  0  0  0  0999 V2000
   -1.0779   -0.3628   -2.0285 O   0  5  0  0  0  0  0  0  0  0  0  0
   -2.2444   -1.0409   -0.2676 N   0  0  0  0  0  2  0  0  0  0  0  0
   -3.3267   -1.5110    0.3798 C   0  0  2  0  0  3  0  0  0  0  0  0
   -2.2304   -0.8385   -1.6102 C   0  0  0  0  0  0  0  0  0  0  0  0
   -4.4880   -1.8200   -0.3499 C   0  0  0  0  0  0  0  0  0  0  0  0
   -5.3747   -2.2100    0.1689 H   0  0  0  0  0  0  0  0  0  0  0  0
   -3.3678   -1.1205   -2.4044 C   0  0  0  0  0  0  0  0  0  0  0  0
   -3.3362   -0.9529   -3.4893 H   0  0  0  0  0  0  0  0  0  0  0  0
   -3.2249   -1.6508    1.8720 C   0  0  0  0  0  0  0  0  0  0  0  0
   -2.2615   -2.1191    2.1523 H   0  0  0  0  0  0  0  0  0  0  0  0
   -4.0627   -2.2430    2.2848 H   0  0  0  0  0  0  0  0  0  0  0  0
   -3.2356   -0.6485    2.3506 H   0  0  0  0  0  0  0  0  0  0  0  0
   -4.4941   -1.6187   -1.7450 C   0  0  0  0  0  0  0  0  0  0  0  0
   -5.4005   -1.8579   -2.3233 H   0  0  0  0  0  0  0  0  0  0  0  0
  1  4  1  0  0  0  0
  2  3  1  0  0  0  0
  3  9  1  1  0  0  0
  4  2  1  0  0  0  0
  5  6  1  0  0  0  0
  5  3  1  0  0  0  0
  7 13  1  0  0  0  0
  7  4  2  0  0  0  0
  8  7  1  0  0  0  0
  9 10  1  0  0  0  0
  9 11  1  0  0  0  0
  9 12  1  0  0  0  0
 13  5  2  0  0  0  0
 14 13  1  0  0  0  0
M  CHG  1   1  -1
M  END
