1,2
 OpenBabel05122313063D

 34 34  0  0  1  0  0  0  0  0999 V2000
    2.2787   -0.9148   -0.6954 O   0  5  0  0  0  0  0  0  0  0  0  0
   -0.5924   -1.0459   -0.5384 N   0  0  0  0  0  2  0  0  0  0  0  0
    2.1110   -1.9712   -1.4141 C   0  0  0  0  0  0  0  0  0  0  0  0
    0.8916   -2.6121   -1.6612 C   0  0  0  0  0  0  0  0  0  0  0  0
    0.9170   -3.5181   -2.2796 H   0  0  0  0  0  0  0  0  0  0  0  0
   -0.3881   -2.1021   -1.3269 C   0  0  2  0  0  3  0  0  0  0  0  0
   -1.8866   -0.4408   -0.5252 C   0  0  0  0  0  0  0  0  0  0  0  0
   -2.8013   -0.7244    0.5219 C   0  0  0  0  0  0  0  0  0  0  0  0
   -4.0266   -0.0346    0.5417 C   0  0  0  0  0  0  0  0  0  0  0  0
   -4.7373   -0.2510    1.3567 H   0  0  0  0  0  0  0  0  0  0  0  0
   -4.3742    0.9135   -0.4402 C   0  0  0  0  0  0  0  0  0  0  0  0
   -5.6889    1.6502   -0.3683 C   0  0  0  0  0  0  0  0  0  0  0  0
   -5.7248    2.3283    0.5108 H   0  0  0  0  0  0  0  0  0  0  0  0
   -6.5420    0.9482   -0.2636 H   0  0  0  0  0  0  0  0  0  0  0  0
   -5.8634    2.2651   -1.2724 H   0  0  0  0  0  0  0  0  0  0  0  0
   -3.4577    1.1506   -1.4794 C   0  0  0  0  0  0  0  0  0  0  0  0
   -3.7124    1.8784   -2.2675 H   0  0  0  0  0  0  0  0  0  0  0  0
   -2.2195    0.4841   -1.5472 C   0  0  0  0  0  0  0  0  0  0  0  0
   -1.2715    0.7299   -2.6944 C   0  0  0  0  0  0  0  0  0  0  0  0
   -1.4738    1.7016   -3.1855 H   0  0  0  0  0  0  0  0  0  0  0  0
   -1.3678   -0.0566   -3.4741 H   0  0  0  0  0  0  0  0  0  0  0  0
   -0.2151    0.7012   -2.3611 H   0  0  0  0  0  0  0  0  0  0  0  0
   -2.4802   -1.7630    1.5629 C   0  0  0  0  0  0  0  0  0  0  0  0
   -2.7340   -2.7802    1.1910 H   0  0  0  0  0  0  0  0  0  0  0  0
   -3.0697   -1.6013    2.4866 H   0  0  0  0  0  0  0  0  0  0  0  0
   -1.3985   -1.7957    1.8060 H   0  0  0  0  0  0  0  0  0  0  0  0
   -1.5874   -2.7803   -1.9560 C   0  0  0  0  0  0  0  0  0  0  0  0
   -2.0590   -2.1341   -2.7242 H   0  0  0  0  0  0  0  0  0  0  0  0
   -2.3679   -2.9883   -1.1985 H   0  0  0  0  0  0  0  0  0  0  0  0
   -1.2911   -3.7296   -2.4374 H   0  0  0  0  0  0  0  0  0  0  0  0
    3.3829   -2.4929   -2.0419 C   0  0  0  0  0  0  0  0  0  0  0  0
    4.0963   -2.7713   -1.2392 H   0  0  0  0  0  0  0  0  0  0  0  0
    3.8652   -1.6912   -2.6383 H   0  0  0  0  0  0  0  0  0  0  0  0
    3.2052   -3.3701   -2.6903 H   0  0  0  0  0  0  0  0  0  0  0  0
  2  7  1  0  0  0  0
  3  1  1  0  0  0  0
  4  3  2  0  0  0  0
  5  4  1  0  0  0  0
  6  4  1  6  0  0  0
  6  2  1  0  0  0  0
  7  8  1  0  0  0  0
  8  9  2  0  0  0  0
  8 23  1  0  0  0  0
  9 10  1  0  0  0  0
 11 12  1  0  0  0  0
 11  9  1  0  0  0  0
 12 14  1  0  0  0  0
 12 13  1  0  0  0  0
 15 12  1  0  0  0  0
 16 11  2  0  0  0  0
 17 16  1  0  0  0  0
 18 16  1  0  0  0  0
 18  7  2  0  0  0  0
 19 22  1  0  0  0  0
 19 18  1  0  0  0  0
 20 19  1  0  0  0  0
 21 19  1  0  0  0  0
 23 26  1  0  0  0  0
 23 25  1  0  0  0  0
 24 23  1  0  0  0  0
 27  6  1  0  0  0  0
 27 29  1  0  0  0  0
 28 27  1  0  0  0  0
 30 27  1  0  0  0  0
 31  3  1  0  0  0  0
 31 32  1  0  0  0  0
 33 31  1  0  0  0  0
 34 31  1  0  0  0  0
M  CHG  1   1  -1
M  END
