9,17
 OpenBabel05122313063D

 29 30  0  0  0  0  0  0  0  0999 V2000
    7.8749   -1.0291   -0.5365 C   0  0  0  0  0  0  0  0  0  0  0  0
    6.9140   -0.6436    0.3306 C   0  0  0  0  0  0  0  0  0  0  0  0
    5.4713   -0.9122    0.2454 C   0  0  0  0  0  0  0  0  0  0  0  0
    4.6144   -0.4127    1.2561 C   0  0  0  0  0  0  0  0  0  0  0  0
    3.2351   -0.6271    1.2196 C   0  0  0  0  0  0  0  0  0  0  0  0
    2.6677   -1.3704    0.1681 C   0  0  0  0  0  0  0  0  0  0  0  0
    3.5031   -1.8729   -0.8506 C   0  0  0  0  0  0  0  0  0  0  0  0
    4.8812   -1.6481   -0.8092 C   0  0  0  0  0  0  0  0  0  0  0  0
    1.2619   -1.5957    0.1322 N   0  0  0  0  0  2  0  0  0  0  0  0
    0.8397   -2.8416    0.0903 C   0  0  0  0  0  0  0  0  0  0  0  0
   -0.5075   -3.3223    0.0715 C   0  0  0  0  0  0  0  0  0  0  0  0
   -0.7034   -4.7345   -0.0046 C   0  0  0  0  0  3  0  0  0  0  0  0
   -1.9691   -5.3003    0.0191 C   0  0  0  0  0  0  0  0  0  0  0  0
   -3.0976   -4.4485    0.1371 C   0  0  0  0  0  0  0  0  0  0  0  0
   -2.9517   -3.0709    0.2240 C   0  0  0  0  0  0  0  0  0  0  0  0
   -1.6591   -2.4560    0.1848 C   0  0  0  0  0  0  0  0  0  0  0  0
   -1.6106   -1.1588    0.2651 O   0  5  0  0  0  0  0  0  0  0  0  0
    7.6535   -1.6153   -1.4425 H   0  0  0  0  0  0  0  0  0  0  0  0
    8.9290   -0.7656   -0.3649 H   0  0  0  0  0  0  0  0  0  0  0  0
    7.2185   -0.0564    1.2152 H   0  0  0  0  0  0  0  0  0  0  0  0
    5.0493    0.1629    2.0882 H   0  0  0  0  0  0  0  0  0  0  0  0
    2.5788   -0.2222    2.0024 H   0  0  0  0  0  0  0  0  0  0  0  0
    3.0539   -2.4220   -1.6916 H   0  0  0  0  0  0  0  0  0  0  0  0
    5.5102   -2.0440   -1.6202 H   0  0  0  0  0  0  0  0  0  0  0  0
    1.6242   -3.6236    0.1044 H   0  0  0  0  0  0  0  0  0  0  0  0
    0.1882   -5.3774   -0.0835 H   0  0  0  0  0  0  0  0  0  0  0  0
   -2.0970   -6.3901   -0.0466 H   0  0  0  0  0  0  0  0  0  0  0  0
   -4.1088   -4.8848    0.1613 H   0  0  0  0  0  0  0  0  0  0  0  0
   -3.8182   -2.4001    0.3174 H   0  0  0  0  0  0  0  0  0  0  0  0
  1 19  1  0  0  0  0
  1  2  2  0  0  0  0
  2 20  1  0  0  0  0
  3  2  1  0  0  0  0
  3  4  1  0  0  0  0
  4 21  1  0  0  0  0
  5  4  2  0  0  0  0
  5 22  1  0  0  0  0
  6  5  1  0  0  0  0
  7  8  1  0  0  0  0
  7  6  2  0  0  0  0
  8  3  2  0  0  0  0
  9  6  1  0  0  0  0
 10 25  1  0  0  0  0
 10  9  1  0  0  0  0
 11 10  2  0  0  0  0
 11 16  1  0  0  0  0
 12 13  1  0  0  0  0
 12 11  1  0  0  0  0
 13 14  2  0  0  0  0
 14 28  1  0  0  0  0
 14 15  1  0  0  0  0
 15 29  1  0  0  0  0
 16 15  2  0  0  0  0
 16 17  1  0  0  0  0
 18  1  1  0  0  0  0
 23  7  1  0  0  0  0
 24  8  1  0  0  0  0
 26 12  1  0  0  0  0
 27 13  1  0  0  0  0
M  CHG  1  17  -1
M  END
