9,17
 OpenBabel05122313063D

 29 30  0  0  1  0  0  0  0  0999 V2000
   -7.8751    1.0296    0.5353 C   0  0  0  0  0  0  0  0  0  0  0  0
   -6.9140    0.6439   -0.3315 C   0  0  0  0  0  0  0  0  0  0  0  0
   -5.4713    0.9124   -0.2460 C   0  0  0  0  0  0  0  0  0  0  0  0
   -4.6142    0.4126   -1.2564 C   0  0  0  0  0  0  0  0  0  0  0  0
   -3.2349    0.6269   -1.2197 C   0  0  0  0  0  0  0  0  0  0  0  0
   -2.6677    1.3704   -0.1683 C   0  0  0  0  0  0  0  0  0  0  0  0
   -3.5033    1.8732    0.8501 C   0  0  0  0  0  0  0  0  0  0  0  0
   -4.8814    1.6485    0.8085 C   0  0  0  0  0  0  0  0  0  0  0  0
   -1.2619    1.5956   -0.1322 N   0  0  0  0  0  2  0  0  0  0  0  0
   -0.8397    2.8415   -0.0901 C   0  0  0  0  0  0  0  0  0  0  0  0
    0.5076    3.3222   -0.0711 C   0  0  0  0  0  0  0  0  0  0  0  0
    0.7034    4.7344    0.0052 C   0  0  0  0  0  0  0  0  0  0  0  0
    1.9692    5.3001   -0.0182 C   0  0  0  0  0  0  0  0  0  0  0  0
    3.0977    4.4483   -0.1361 C   0  0  0  0  0  0  0  0  0  0  0  0
    2.9518    3.0707   -0.2233 C   0  0  0  0  0  0  0  0  0  0  0  0
    1.6592    2.4558   -0.1843 C   0  0  2  0  0  3  0  0  0  0  0  0
    1.6106    1.1587   -0.2649 O   0  0  0  0  0  1  0  0  0  0  0  0
   -7.6538    1.6160    1.4413 H   0  0  0  0  0  0  0  0  0  0  0  0
   -8.9292    0.7662    0.3636 H   0  0  0  0  0  0  0  0  0  0  0  0
   -7.2184    0.0565   -1.2160 H   0  0  0  0  0  0  0  0  0  0  0  0
   -5.0490   -0.1631   -2.0885 H   0  0  0  0  0  0  0  0  0  0  0  0
   -2.5786    0.2218   -2.0023 H   0  0  0  0  0  0  0  0  0  0  0  0
   -3.0542    2.4224    1.6911 H   0  0  0  0  0  0  0  0  0  0  0  0
   -5.5105    2.0446    1.6193 H   0  0  0  0  0  0  0  0  0  0  0  0
   -1.6242    3.6236   -0.1044 H   0  0  0  0  0  0  0  0  0  0  0  0
   -0.1881    5.3773    0.0841 H   0  0  0  0  0  0  0  0  0  0  0  0
    2.0971    6.3899    0.0476 H   0  0  0  0  0  0  0  0  0  0  0  0
    4.1089    4.8846   -0.1601 H   0  0  0  0  0  0  0  0  0  0  0  0
    3.8182    2.3999   -0.3166 H   0  0  0  0  0  0  0  0  0  0  0  0
  1 18  1  0  0  0  0
  2  3  1  0  0  0  0
  2  1  2  0  0  0  0
  3  8  1  0  0  0  0
  4  5  1  0  0  0  0
  4  3  2  0  0  0  0
  5  6  2  0  0  0  0
  6  9  1  0  0  0  0
  6  7  1  0  0  0  0
  7 23  1  0  0  0  0
  8  7  2  0  0  0  0
  8 24  1  0  0  0  0
  9 10  1  0  0  0  0
 10 11  2  0  0  0  0
 11 12  1  0  0  0  0
 12 26  1  0  0  0  0
 13 12  2  0  0  0  0
 13 27  1  0  0  0  0
 14 13  1  0  0  0  0
 15 16  1  0  0  0  0
 15 14  2  0  0  0  0
 16 17  1  6  0  0  0
 16 11  1  0  0  0  0
 19  1  1  0  0  0  0
 20  2  1  0  0  0  0
 21  4  1  0  0  0  0
 22  5  1  0  0  0  0
 25 10  1  0  0  0  0
 28 14  1  0  0  0  0
 29 15  1  0  0  0  0
M  END
