21,22
 OpenBabel05122313063D

 23 24  0  0  0  0  0  0  0  0999 V2000
    2.5607    1.4582    0.2235 C   0  0  0  0  0  0  0  0  0  0  0  0
    3.2472    2.7117    0.3086 C   0  0  0  0  0  0  0  0  0  0  0  0
    2.6317    3.5950    0.5332 H   0  0  0  0  0  0  0  0  0  0  0  0
    4.6162    2.8151    0.1037 C   0  0  0  0  0  0  0  0  0  0  0  0
    5.1008    3.8023    0.1665 H   0  0  0  0  0  0  0  0  0  0  0  0
    5.3839    1.6658   -0.1923 C   0  0  0  0  0  0  0  0  0  0  0  0
    6.4667    1.7432   -0.3664 H   0  0  0  0  0  0  0  0  0  0  0  0
    4.7503    0.4304   -0.2561 C   0  0  0  0  0  3  0  0  0  0  0  0
    5.3348   -0.4731   -0.4715 H   0  0  0  0  0  0  0  0  0  0  0  0
    3.3496    0.2838   -0.0439 C   0  0  0  0  0  0  0  0  0  0  0  0
    2.7871   -1.0673   -0.0407 C   0  0  0  0  0  0  0  0  0  0  0  0
    3.4016   -3.3893   -0.2669 C   0  0  0  0  0  0  0  0  0  0  0  0
    4.3093   -3.9591    0.0104 H   0  0  0  0  0  0  0  0  0  0  0  0
    3.1773   -3.5886   -1.3394 H   0  0  0  0  0  0  0  0  0  0  0  0
    2.2043   -3.6999    0.6051 C   0  0  0  0  0  0  0  0  0  0  0  0
    2.4736   -3.5386    1.6703 H   0  0  0  0  0  0  0  0  0  0  0  0
    1.8939   -4.7580    0.4941 H   0  0  0  0  0  0  0  0  0  0  0  0
    1.0755   -2.7703    0.1824 C   0  0  0  0  0  0  0  0  0  0  0  0
    0.6338   -3.0938   -0.7831 H   0  0  0  0  0  0  0  0  0  0  0  0
    0.2366   -2.7941    0.9023 H   0  0  0  0  0  0  0  0  0  0  0  0
    1.5102   -1.3722    0.0483 N   0  0  0  0  0  2  0  0  0  0  0  0
    1.2661    1.4911    0.4019 O   0  5  0  0  0  0  0  0  0  0  0  0
    3.7607   -2.0113   -0.1157 O   0  0  0  0  0  0  0  0  0  0  0  0
  1  2  2  0  0  0  0
  1 22  1  0  0  0  0
  2  3  1  0  0  0  0
  4  5  1  0  0  0  0
  4  2  1  0  0  0  0
  6  4  2  0  0  0  0
  7  6  1  0  0  0  0
  8  6  1  0  0  0  0
  8 10  1  0  0  0  0
  9  8  1  0  0  0  0
 10 11  2  0  0  0  0
 10  1  1  0  0  0  0
 11 21  1  0  0  0  0
 12 23  1  0  0  0  0
 12 13  1  0  0  0  0
 12 15  1  0  0  0  0
 14 12  1  0  0  0  0
 15 16  1  0  0  0  0
 17 15  1  0  0  0  0
 18 15  1  0  0  0  0
 18 20  1  0  0  0  0
 19 18  1  0  0  0  0
 21 18  1  0  0  0  0
 23 11  1  0  0  0  0
M  CHG  1  22  -1
M  END
