1,7
 OpenBabel05122313063D

 31 32  0  0  1  0  0  0  0  0999 V2000
    0.2579    1.5455    0.0083 O   0  0  0  0  0  1  0  0  0  0  0  0
    2.6460    1.7041   -0.2404 C   0  0  0  0  0  0  0  0  0  0  0  0
    4.9534    3.2917   -0.4909 C   0  0  0  0  0  0  0  0  0  0  0  0
    5.8591    3.9099   -0.5851 H   0  0  0  0  0  0  0  0  0  0  0  0
    4.0169   -2.3797    1.4186 C   0  0  0  0  0  0  0  0  0  0  0  0
    4.6370   -2.3642    2.3286 H   0  0  0  0  0  0  0  0  0  0  0  0
    1.2617   -0.3981   -0.1447 N   0  0  0  0  0  2  0  0  0  0  0  0
    4.1723   -3.4100    0.4867 C   0  0  0  0  0  0  0  0  0  0  0  0
    4.9095   -4.2086    0.6599 H   0  0  0  0  0  0  0  0  0  0  0  0
    3.3879   -3.4112   -0.6726 C   0  0  0  0  0  0  0  0  0  0  0  0
    3.5163   -4.2039   -1.4260 H   0  0  0  0  0  0  0  0  0  0  0  0
    1.4097    0.9085   -0.1118 C   0  0  2  0  0  3  0  0  0  0  0  0
    2.2659   -1.3776    0.0582 C   0  0  0  0  0  0  0  0  0  0  0  0
    3.0250   -0.2409    2.2558 C   0  0  0  0  0  0  0  0  0  0  0  0
    3.2905   -0.6337    3.2566 H   0  0  0  0  0  0  0  0  0  0  0  0
    2.0238    0.2196    2.3317 H   0  0  0  0  0  0  0  0  0  0  0  0
    3.7517    0.5634    2.0121 H   0  0  0  0  0  0  0  0  0  0  0  0
    3.0796   -1.3448    1.2310 C   0  0  0  0  0  0  0  0  0  0  0  0
    3.7976    1.1849   -0.8713 C   0  0  0  0  0  0  0  0  0  0  0  0
    3.7898    0.1602   -1.2674 H   0  0  0  0  0  0  0  0  0  0  0  0
    2.4305   -2.4094   -0.9102 C   0  0  0  0  0  0  0  0  0  0  0  0
    4.9433    1.9798   -0.9949 C   0  0  0  0  0  0  0  0  0  0  0  0
    5.8368    1.5728   -1.4913 H   0  0  0  0  0  0  0  0  0  0  0  0
    3.8059    3.8157    0.1271 C   0  0  0  0  0  0  0  0  0  0  0  0
    3.8102    4.8446    0.5172 H   0  0  0  0  0  0  0  0  0  0  0  0
    2.6537    3.0291    0.2459 C   0  0  0  0  0  0  0  0  0  0  0  0
    1.7449    3.4230    0.7224 H   0  0  0  0  0  0  0  0  0  0  0  0
    1.6452   -2.4173   -2.1909 C   0  0  0  0  0  0  0  0  0  0  0  0
    2.0361   -3.1854   -2.8850 H   0  0  0  0  0  0  0  0  0  0  0  0
    1.6706   -1.4306   -2.6934 H   0  0  0  0  0  0  0  0  0  0  0  0
    0.5732   -2.6284   -2.0025 H   0  0  0  0  0  0  0  0  0  0  0  0
  2 12  1  0  0  0  0
  2 26  1  0  0  0  0
  3 24  1  0  0  0  0
  4  3  1  0  0  0  0
  5  6  1  0  0  0  0
  7 12  1  0  0  0  0
  7 13  1  0  0  0  0
  8  9  1  0  0  0  0
  8  5  2  0  0  0  0
 10  8  1  0  0  0  0
 11 10  1  0  0  0  0
 12  1  1  6  0  0  0
 13 18  2  0  0  0  0
 14 16  1  0  0  0  0
 14 15  1  0  0  0  0
 17 14  1  0  0  0  0
 18  5  1  0  0  0  0
 18 14  1  0  0  0  0
 19  2  2  0  0  0  0
 20 19  1  0  0  0  0
 21 10  2  0  0  0  0
 21 13  1  0  0  0  0
 22 19  1  0  0  0  0
 22  3  2  0  0  0  0
 23 22  1  0  0  0  0
 24 26  2  0  0  0  0
 24 25  1  0  0  0  0
 26 27  1  0  0  0  0
 28 31  1  0  0  0  0
 28 21  1  0  0  0  0
 29 28  1  0  0  0  0
 30 28  1  0  0  0  0
M  END
