3,5
 OpenBabel05122313063D

 26 26  0  0  0  0  0  0  0  0999 V2000
   -2.8717    0.4542   -1.5755 O   0  0  0  0  0  0  0  0  0  0  0  0
   -3.7431    1.5089    0.2416 O   0  0  0  0  0  0  0  0  0  0  0  0
    1.9803   -0.0776   -0.6002 O   0  5  0  0  0  0  0  0  0  0  0  0
    3.2022    1.7803   -0.1713 O   0  0  0  0  0  0  0  0  0  0  0  0
   -0.3227    1.2509   -0.3251 N   0  0  0  0  0  2  0  0  0  0  0  0
    0.8343    1.9529   -0.1503 C   0  0  0  0  0  0  0  0  0  0  0  0
    0.8664    3.3355    0.0839 C   0  0  0  0  0  0  0  0  0  0  0  0
    1.8380    3.8333    0.1995 H   0  0  0  0  0  0  0  0  0  0  0  0
   -0.3457    4.0236    0.1861 C   0  0  0  0  0  0  0  0  0  0  0  0
   -0.3642    5.1021    0.3993 H   0  0  0  0  0  0  0  0  0  0  0  0
   -1.5387    3.3089    0.0106 C   0  0  0  0  0  0  0  0  0  0  0  0
   -2.5194    3.7975    0.0833 H   0  0  0  0  0  0  0  0  0  0  0  0
   -1.4896    1.9337   -0.2752 C   0  0  0  0  0  0  0  0  0  0  0  0
   -2.7578    1.1938   -0.6197 C   0  0  0  0  0  0  0  0  0  0  0  0
   -4.9908    0.8241    0.0181 C   0  0  0  0  0  0  0  0  0  0  0  0
   -5.3595    1.0097   -1.0098 H   0  0  0  0  0  0  0  0  0  0  0  0
   -5.6936    1.2256    0.7682 H   0  0  0  0  0  0  0  0  0  0  0  0
   -4.8460   -0.2649    0.1600 H   0  0  0  0  0  0  0  0  0  0  0  0
    2.0569    1.1301   -0.2964 C   0  0  0  0  0  0  0  0  0  0  0  0
    4.4278    0.9926   -0.2590 C   0  0  0  0  0  0  0  0  0  0  0  0
    4.2542    0.0347    0.2703 H   0  0  0  0  0  0  0  0  0  0  0  0
    5.1645    1.5944    0.3056 H   0  0  0  0  0  0  0  0  0  0  0  0
    4.8536    0.7764   -1.6990 C   0  0  0  0  0  0  0  0  0  0  0  0
    5.8283    0.2489   -1.7160 H   0  0  0  0  0  0  0  0  0  0  0  0
    4.9759    1.7412   -2.2298 H   0  0  0  0  0  0  0  0  0  0  0  0
    4.1189    0.1532   -2.2440 H   0  0  0  0  0  0  0  0  0  0  0  0
  1 14  2  0  0  0  0
  3 19  1  0  0  0  0
  5 13  1  0  0  0  0
  5  6  1  0  0  0  0
  6  7  1  0  0  0  0
  7  9  2  0  0  0  0
  7  8  1  0  0  0  0
  9 10  1  0  0  0  0
 11 12  1  0  0  0  0
 11  9  1  0  0  0  0
 13 11  2  0  0  0  0
 14 13  1  0  0  0  0
 14  2  1  0  0  0  0
 15 18  1  0  0  0  0
 15  2  1  0  0  0  0
 15 17  1  0  0  0  0
 16 15  1  0  0  0  0
 19  4  1  0  0  0  0
 19  6  2  0  0  0  0
 20  4  1  0  0  0  0
 20 21  1  0  0  0  0
 20 22  1  0  0  0  0
 23 20  1  0  0  0  0
 24 23  1  0  0  0  0
 25 23  1  0  0  0  0
 26 23  1  0  0  0  0
M  CHG  1   3  -1
M  END
