1,2
 OpenBabel05122313063D

 35 35  0  0  1  0  0  0  0  0999 V2000
   -0.1573    1.2810   -0.4234 O   0  0  0  0  0  1  0  0  0  0  0  0
    1.2447   -0.3206    0.2493 N   0  0  0  0  0  2  0  0  0  0  0  0
    2.0368    1.9332   -0.1799 N   0  0  0  0  0  0  0  0  0  0  0  0
    1.0659    0.9535   -0.1346 C   0  0  2  0  0  3  0  0  0  0  0  0
    3.3149    1.8079    0.5519 C   0  0  0  0  0  0  0  0  0  0  0  0
    4.5347    1.9723   -0.3630 C   0  0  0  0  0  0  0  0  0  0  0  0
    3.3834    2.7577    1.7576 C   0  0  0  0  0  0  0  0  0  0  0  0
    1.7344    3.2468   -0.7935 C   0  0  0  0  0  0  0  0  0  0  0  0
    0.7281    4.0950   -0.0002 C   0  0  0  0  0  0  0  0  0  0  0  0
    1.3506    3.1129   -2.2726 C   0  0  0  0  0  0  0  0  0  0  0  0
    2.4036   -1.0879    0.1368 C   0  0  0  0  0  0  0  0  0  0  0  0
    3.2060   -1.0790   -1.0337 C   0  0  0  0  0  0  0  0  0  0  0  0
    4.3164   -1.9243   -1.1517 C   0  0  0  0  0  0  0  0  0  0  0  0
    4.6543   -2.8118   -0.1159 C   0  0  0  0  0  0  0  0  0  0  0  0
    3.8578   -2.8434    1.0408 C   0  0  0  0  0  0  0  0  0  0  0  0
    2.7488   -1.9963    1.1678 C   0  0  0  0  0  0  0  0  0  0  0  0
    3.3359    0.7773    0.9487 H   0  0  0  0  0  0  0  0  0  0  0  0
    5.4636    1.7689    0.2059 H   0  0  0  0  0  0  0  0  0  0  0  0
    4.4957    1.2648   -1.2118 H   0  0  0  0  0  0  0  0  0  0  0  0
    4.6152    3.0032   -0.7661 H   0  0  0  0  0  0  0  0  0  0  0  0
    4.3046    2.5568    2.3407 H   0  0  0  0  0  0  0  0  0  0  0  0
    3.4154    3.8228    1.4488 H   0  0  0  0  0  0  0  0  0  0  0  0
    2.5145    2.6141    2.4285 H   0  0  0  0  0  0  0  0  0  0  0  0
    2.7026    3.7875   -0.7638 H   0  0  0  0  0  0  0  0  0  0  0  0
    1.0236    4.1777    1.0632 H   0  0  0  0  0  0  0  0  0  0  0  0
    0.6803    5.1194   -0.4229 H   0  0  0  0  0  0  0  0  0  0  0  0
   -0.2805    3.6460   -0.0421 H   0  0  0  0  0  0  0  0  0  0  0  0
    0.3819    2.5892   -2.3807 H   0  0  0  0  0  0  0  0  0  0  0  0
    1.2617    4.1154   -2.7376 H   0  0  0  0  0  0  0  0  0  0  0  0
    2.1220    2.5422   -2.8270 H   0  0  0  0  0  0  0  0  0  0  0  0
    2.9265   -0.4086   -1.8592 H   0  0  0  0  0  0  0  0  0  0  0  0
    4.9194   -1.8988   -2.0731 H   0  0  0  0  0  0  0  0  0  0  0  0
    5.5233   -3.4790   -0.2142 H   0  0  0  0  0  0  0  0  0  0  0  0
    4.1035   -3.5383    1.8590 H   0  0  0  0  0  0  0  0  0  0  0  0
    2.1240   -2.0218    2.0719 H   0  0  0  0  0  0  0  0  0  0  0  0
  3  4  1  0  0  0  0
  3  5  1  0  0  0  0
  4  1  1  1  0  0  0
  4  2  1  0  0  0  0
  5 17  1  0  0  0  0
  5  7  1  0  0  0  0
  6 18  1  0  0  0  0
  6  5  1  0  0  0  0
  7 21  1  0  0  0  0
  7 23  1  0  0  0  0
  8 24  1  0  0  0  0
  8  3  1  0  0  0  0
  8  9  1  0  0  0  0
  9 25  1  0  0  0  0
 10  8  1  0  0  0  0
 11  2  1  0  0  0  0
 11 16  1  0  0  0  0
 12 11  2  0  0  0  0
 13 12  1  0  0  0  0
 13 14  2  0  0  0  0
 14 15  1  0  0  0  0
 15 16  2  0  0  0  0
 15 34  1  0  0  0  0
 16 35  1  0  0  0  0
 19  6  1  0  0  0  0
 20  6  1  0  0  0  0
 22  7  1  0  0  0  0
 26  9  1  0  0  0  0
 27  9  1  0  0  0  0
 28 10  1  0  0  0  0
 29 10  1  0  0  0  0
 30 10  1  0  0  0  0
 31 12  1  0  0  0  0
 32 13  1  0  0  0  0
 33 14  1  0  0  0  0
M  END
