2,3
 OpenBabel05122313063D

 35 37  0  0  0  0  0  0  0  0999 V2000
    6.2521    3.5604   -0.4431 Cl  0  0  0  0  0  0  0  0  0  0  0  0
    1.6945    0.2235   -2.1854 O   0  5  0  0  0  0  0  0  0  0  0  0
    0.1614    1.6229   -0.0812 N   0  0  0  0  0  2  0  0  0  0  0  0
    2.6351    1.0357   -1.7964 C   0  0  0  0  0  0  0  0  0  0  0  0
   -4.8850    4.0924    1.8463 N   0  0  0  0  0  0  0  0  0  0  0  0
    3.9136    0.9488   -2.4369 C   0  0  0  0  0  0  0  0  0  0  0  0
    5.0005    1.7138   -2.0398 C   0  0  0  0  0  0  0  0  0  0  0  0
    4.8619    2.6430   -0.9808 C   0  0  0  0  0  0  0  0  0  0  0  0
    3.6338    2.8033   -0.3572 C   0  0  0  0  0  0  0  0  0  0  0  0
    2.5039    2.0211   -0.7354 C   0  0  0  0  0  0  0  0  0  0  0  0
    1.2912    2.2699    0.0055 C   0  0  0  0  0  3  0  0  0  0  0  0
   -0.9777    2.0374    0.7229 C   0  0  0  0  0  0  0  0  0  0  0  0
   -2.1078    2.6238   -0.1519 C   0  0  0  0  0  0  0  0  0  0  0  0
   -3.3373    2.9497    0.6415 C   0  0  0  0  0  0  0  0  0  0  0  0
   -3.7099    4.1970    1.1227 C   0  0  0  0  0  0  0  0  0  0  0  0
   -4.3470    2.0209    1.1030 C   0  0  0  0  0  0  0  0  0  0  0  0
   -4.5512    0.6318    0.9399 C   0  0  0  0  0  0  0  0  0  0  0  0
   -5.6810    0.0381    1.5106 C   0  0  0  0  0  0  0  0  0  0  0  0
   -6.6144    0.8054    2.2508 C   0  0  0  0  0  0  0  0  0  0  0  0
   -6.4420    2.1821    2.4328 C   0  0  0  0  0  0  0  0  0  0  0  0
   -5.3074    2.7769    1.8530 C   0  0  0  0  0  0  0  0  0  0  0  0
   -5.3788    4.8693    2.2802 H   0  0  0  0  0  0  0  0  0  0  0  0
    4.0083    0.2129   -3.2483 H   0  0  0  0  0  0  0  0  0  0  0  0
    5.9776    1.5975   -2.5304 H   0  0  0  0  0  0  0  0  0  0  0  0
    3.5302    3.5328    0.4603 H   0  0  0  0  0  0  0  0  0  0  0  0
    1.3477    3.1067    0.7388 H   0  0  0  0  0  0  0  0  0  0  0  0
   -1.3692    1.1480    1.2635 H   0  0  0  0  0  0  0  0  0  0  0  0
   -0.6703    2.7825    1.4917 H   0  0  0  0  0  0  0  0  0  0  0  0
   -2.3394    1.8905   -0.9542 H   0  0  0  0  0  0  0  0  0  0  0  0
   -1.7215    3.5325   -0.6588 H   0  0  0  0  0  0  0  0  0  0  0  0
   -3.2187    5.1685    0.9899 H   0  0  0  0  0  0  0  0  0  0  0  0
   -3.8416    0.0249    0.3605 H   0  0  0  0  0  0  0  0  0  0  0  0
   -5.8572   -1.0390    1.3703 H   0  0  0  0  0  0  0  0  0  0  0  0
   -7.4952    0.3104    2.6870 H   0  0  0  0  0  0  0  0  0  0  0  0
   -7.1711    2.7770    3.0039 H   0  0  0  0  0  0  0  0  0  0  0  0
  2  4  1  0  0  0  0
  3 11  1  0  0  0  0
  3 12  1  0  0  0  0
  4 10  1  0  0  0  0
  5 21  1  0  0  0  0
  5 22  1  0  0  0  0
  6  7  1  0  0  0  0
  6  4  2  0  0  0  0
  7  8  2  0  0  0  0
  8  1  1  0  0  0  0
  8  9  1  0  0  0  0
  9 25  1  0  0  0  0
 10  9  2  0  0  0  0
 10 11  1  0  0  0  0
 11 26  1  0  0  0  0
 12 27  1  0  0  0  0
 12 28  1  0  0  0  0
 13 14  1  0  0  0  0
 13 12  1  0  0  0  0
 14 16  1  0  0  0  0
 14 15  2  0  0  0  0
 15  5  1  0  0  0  0
 16 21  1  0  0  0  0
 17 16  2  0  0  0  0
 17 18  1  0  0  0  0
 18 19  2  0  0  0  0
 19 20  1  0  0  0  0
 19 34  1  0  0  0  0
 20 35  1  0  0  0  0
 21 20  2  0  0  0  0
 23  6  1  0  0  0  0
 24  7  1  0  0  0  0
 29 13  1  0  0  0  0
 30 13  1  0  0  0  0
 31 15  1  0  0  0  0
 32 17  1  0  0  0  0
 33 18  1  0  0  0  0
M  CHG  1   2  -1
M  END
