1,9
 OpenBabel05122313063D

 15 15  0  0  0  0  0  0  0  0999 V2000
   -0.9689    0.8990    0.0013 N   0  0  0  0  0  2  0  0  0  0  0  0
   -1.6147    2.1075    0.0004 C   0  0  0  0  0  0  0  0  0  0  0  0
   -0.8384    3.3042    0.0003 C   0  0  0  0  0  0  0  0  0  0  0  0
   -1.4455    4.5598   -0.0007 C   0  0  0  0  0  0  0  0  0  0  0  0
   -2.8506    4.6657   -0.0015 C   0  0  0  0  0  0  0  0  0  0  0  0
   -3.6240    3.4981   -0.0013 C   0  0  0  0  0  0  0  0  0  0  0  0
   -3.0386    2.2208   -0.0004 C   0  0  0  0  0  0  0  0  0  0  0  0
   -3.9651    1.0258   -0.0002 C   0  0  0  0  0  0  0  0  0  0  0  0
   -3.3755   -0.1475    0.0003 O   0  5  0  0  0  0  0  0  0  0  0  0
   -5.1860    1.1819   -0.0003 O   0  0  0  0  0  0  0  0  0  0  0  0
    0.0620    0.9791    0.0016 H   0  0  0  0  0  0  0  0  0  0  0  0
    0.2594    3.2102    0.0010 H   0  0  0  0  0  0  0  0  0  0  0  0
   -0.8201    5.4669   -0.0008 H   0  0  0  0  0  0  0  0  0  0  0  0
   -3.3343    5.6548   -0.0023 H   0  0  0  0  0  0  0  0  0  0  0  0
   -4.7244    3.5244   -0.0018 H   0  0  0  0  0  0  0  0  0  0  0  0
  1 11  1  0  0  0  0
  2  1  1  0  0  0  0
  3  2  1  0  0  0  0
  3 12  1  0  0  0  0
  4  3  2  0  0  0  0
  5  6  2  0  0  0  0
  5  4  1  0  0  0  0
  6  7  1  0  0  0  0
  7  8  1  0  0  0  0
  7  2  2  0  0  0  0
  8  9  1  0  0  0  0
 10  8  2  0  0  0  0
 13  4  1  0  0  0  0
 14  5  1  0  0  0  0
 15  6  1  0  0  0  0
M  CHG  1   9  -1
M  END
