2,3
 OpenBabel05122313063D

 24 25  0  0  1  0  0  0  0  0999 V2000
   -2.2724    3.1497    0.6989 N   0  0  0  0  0  0  0  0  0  0  0  0
   -0.4177    1.8991   -0.0641 N   0  0  0  0  0  2  0  0  0  0  0  0
    1.8400    0.3107   -0.0113 O   0  0  0  0  0  1  0  0  0  0  0  0
    0.4554    2.8506    0.2034 C   0  0  0  0  0  0  0  0  0  0  0  0
    0.0555    3.8798    0.2781 H   0  0  0  0  0  0  0  0  0  0  0  0
    1.8636    2.6970    0.3717 C   0  0  0  0  0  0  0  0  0  0  0  0
    2.4942    1.4106    0.2111 C   0  0  2  0  0  3  0  0  0  0  0  0
    3.9215    1.3529    0.2873 C   0  0  0  0  0  0  0  0  0  0  0  0
    4.3934    0.3692    0.1511 H   0  0  0  0  0  0  0  0  0  0  0  0
    4.6690    2.4961    0.5429 C   0  0  0  0  0  0  0  0  0  0  0  0
    5.7658    2.4175    0.6088 H   0  0  0  0  0  0  0  0  0  0  0  0
    4.0469    3.7589    0.7223 C   0  0  0  0  0  0  0  0  0  0  0  0
    4.6530    4.6534    0.9249 H   0  0  0  0  0  0  0  0  0  0  0  0
    2.6648    3.8470    0.6288 C   0  0  0  0  0  0  0  0  0  0  0  0
    2.1587    4.8186    0.7470 H   0  0  0  0  0  0  0  0  0  0  0  0
   -1.7668    2.3473   -0.2490 C   0  0  0  0  0  0  0  0  0  0  0  0
   -2.4769    1.9681   -1.4069 C   0  0  0  0  0  0  0  0  0  0  0  0
   -1.9855    1.3520   -2.1785 H   0  0  0  0  0  0  0  0  0  0  0  0
   -3.7847    2.4389   -1.5507 C   0  0  0  0  0  0  0  0  0  0  0  0
   -4.3687    2.1688   -2.4439 H   0  0  0  0  0  0  0  0  0  0  0  0
   -4.3380    3.2580   -0.5509 C   0  0  0  0  0  0  0  0  0  0  0  0
   -5.3668    3.6405   -0.6243 H   0  0  0  0  0  0  0  0  0  0  0  0
   -3.5328    3.5925    0.5459 C   0  0  0  0  0  0  0  0  0  0  0  0
   -3.9175    4.2491    1.3462 H   0  0  0  0  0  0  0  0  0  0  0  0
  2  4  1  0  0  0  0
  4  5  1  0  0  0  0
  4  6  2  0  0  0  0
  6 14  1  0  0  0  0
  7  3  1  6  0  0  0
  7  8  1  0  0  0  0
  7  6  1  0  0  0  0
  8 10  2  0  0  0  0
  9  8  1  0  0  0  0
 10 11  1  0  0  0  0
 10 12  1  0  0  0  0
 12 13  1  0  0  0  0
 14 12  2  0  0  0  0
 14 15  1  0  0  0  0
 16  2  1  0  0  0  0
 16  1  2  0  0  0  0
 17 16  1  0  0  0  0
 18 17  1  0  0  0  0
 19 17  2  0  0  0  0
 19 21  1  0  0  0  0
 20 19  1  0  0  0  0
 21 23  2  0  0  0  0
 22 21  1  0  0  0  0
 23  1  1  0  0  0  0
 23 24  1  0  0  0  0
M  END
