1,18
 OpenBabel05122313063D

 22 22  0  0  1  0  0  0  0  0999 V2000
    1.8306   -0.9075    0.7275 O   0  0  0  0  0  1  0  0  0  0  0  0
    2.2529   -1.7828   -0.0391 C   0  0  1  0  0  3  0  0  0  0  0  0
    3.4067   -2.4396    0.1147 O   0  0  0  0  0  0  0  0  0  0  0  0
    4.3173   -1.9191    1.1365 C   0  0  0  0  0  0  0  0  0  0  0  0
    4.9116   -2.8019    1.4354 H   0  0  0  0  0  0  0  0  0  0  0  0
    3.7108   -1.5675    1.9926 H   0  0  0  0  0  0  0  0  0  0  0  0
    5.1897   -0.8263    0.5767 C   0  0  0  0  0  0  0  0  0  0  0  0
    4.7365    0.5089    0.5384 C   0  0  0  0  0  0  0  0  0  0  0  0
    3.7497    0.7701    0.9477 H   0  0  0  0  0  0  0  0  0  0  0  0
    5.5284    1.5110   -0.0393 C   0  0  0  0  0  0  0  0  0  0  0  0
    5.1391    2.5401   -0.0731 H   0  0  0  0  0  0  0  0  0  0  0  0
    6.7869    1.1919   -0.5739 C   0  0  0  0  0  0  0  0  0  0  0  0
    7.4099    1.9793   -1.0254 H   0  0  0  0  0  0  0  0  0  0  0  0
    7.2514   -0.1330   -0.5322 C   0  0  0  0  0  0  0  0  0  0  0  0
    8.2393   -0.3860   -0.9466 H   0  0  0  0  0  0  0  0  0  0  0  0
    6.4538   -1.1367    0.0361 C   0  0  0  0  0  0  0  0  0  0  0  0
    6.8153   -2.1774    0.0636 H   0  0  0  0  0  0  0  0  0  0  0  0
    0.3593   -1.6537   -1.4802 N   0  0  0  0  0  0  0  0  0  0  0  0
    0.3928   -1.1913   -2.3993 H   0  0  0  0  0  0  0  0  0  0  0  0
   -0.4091   -2.3567   -1.4281 H   0  0  0  0  0  0  0  0  0  0  0  0
    1.5900   -2.2094   -1.1567 N   0  0  0  0  0  0  0  0  0  0  0  0
    2.0022   -2.9616   -1.7157 H   0  0  0  0  0  0  0  0  0  0  0  0
  2  3  1  0  0  0  0
  2  1  1  1  0  0  0
  3  4  1  0  0  0  0
  4  5  1  0  0  0  0
  4  6  1  0  0  0  0
  7  4  1  0  0  0  0
  8  7  1  0  0  0  0
  8  9  1  0  0  0  0
 10  8  2  0  0  0  0
 11 10  1  0  0  0  0
 12 14  2  0  0  0  0
 12 10  1  0  0  0  0
 13 12  1  0  0  0  0
 14 16  1  0  0  0  0
 15 14  1  0  0  0  0
 16 17  1  0  0  0  0
 16  7  2  0  0  0  0
 18 20  1  0  0  0  0
 18 21  1  0  0  0  0
 19 18  1  0  0  0  0
 21  2  1  0  0  0  0
 22 21  1  0  0  0  0
M  END
