1,4
 OpenBabel05122313063D

 17 17  0  0  1  0  0  0  0  0999 V2000
    1.2070    0.1482    0.1204 O   0  0  0  0  0  1  0  0  0  0  0  0
    2.2434   -0.0619   -1.8412 N   0  0  0  0  0  0  0  0  0  0  0  0
    2.9086   -0.5070   -2.4770 H   0  0  0  0  0  0  0  0  0  0  0  0
    1.2817    0.7811   -2.3150 N   0  0  0  0  0  2  0  0  0  0  0  0
    1.3792    0.9433   -3.3211 H   0  0  0  0  0  0  0  0  0  0  0  0
    2.1545   -0.3691   -0.5190 C   0  0  2  0  0  3  0  0  0  0  0  0
    3.1406   -1.2958    0.0829 C   0  0  0  0  0  0  0  0  0  0  0  0
    2.8068   -1.8863    1.3200 C   0  0  0  0  0  0  0  0  0  0  0  0
    1.8400   -1.6279    1.7756 H   0  0  0  0  0  0  0  0  0  0  0  0
    3.6933   -2.7768    1.9366 C   0  0  0  0  0  0  0  0  0  0  0  0
    3.4241   -3.2375    2.8988 H   0  0  0  0  0  0  0  0  0  0  0  0
    4.9240   -3.0805    1.3309 C   0  0  0  0  0  0  0  0  0  0  0  0
    5.6214   -3.7785    1.8180 H   0  0  0  0  0  0  0  0  0  0  0  0
    5.2701   -2.4832    0.1075 C   0  0  0  0  0  0  0  0  0  0  0  0
    6.2417   -2.7030   -0.3595 H   0  0  0  0  0  0  0  0  0  0  0  0
    4.3858   -1.5921   -0.5134 C   0  0  0  0  0  0  0  0  0  0  0  0
    4.6925   -1.1010   -1.4506 H   0  0  0  0  0  0  0  0  0  0  0  0
  2  6  1  0  0  0  0
  3  2  1  0  0  0  0
  4  2  1  0  0  0  0
  5  4  1  0  0  0  0
  6  7  1  0  0  0  0
  6  1  1  6  0  0  0
  7  8  1  0  0  0  0
  8  9  1  0  0  0  0
  8 10  2  0  0  0  0
 10 11  1  0  0  0  0
 12 13  1  0  0  0  0
 12 10  1  0  0  0  0
 14 12  2  0  0  0  0
 15 14  1  0  0  0  0
 16  7  2  0  0  0  0
 16 14  1  0  0  0  0
 17 16  1  0  0  0  0
M  END
