1,2
 OpenBabel05122313063D

 33 33  0  0  0  0  0  0  0  0999 V2000
   -2.1850   -0.7708   -1.3342 O   0  5  0  0  0  0  0  0  0  0  0  0
   -0.7178   -0.7341    1.2448 N   0  0  0  0  0  2  0  0  0  0  0  0
    3.2635    1.1020    1.2461 N   0  3  0  0  0  0  0  0  0  0  0  0
   -3.0933   -0.1559    0.8453 C   0  0  0  0  0  0  0  0  0  0  0  0
   -3.1752   -0.3937   -0.5917 C   0  0  0  0  0  0  0  0  0  0  0  0
   -4.4616   -0.2095   -1.2007 C   0  0  0  0  0  0  0  0  0  0  0  0
   -4.5214   -0.4037   -2.2815 H   0  0  0  0  0  0  0  0  0  0  0  0
   -5.5661    0.2122   -0.4761 C   0  0  0  0  0  0  0  0  0  0  0  0
   -6.5284    0.3552   -0.9931 H   0  0  0  0  0  0  0  0  0  0  0  0
   -5.4779    0.4615    0.9189 C   0  0  0  0  0  0  0  0  0  0  0  0
   -6.3603    0.7922    1.4849 H   0  0  0  0  0  0  0  0  0  0  0  0
   -4.2615    0.2664    1.5525 C   0  0  0  0  0  0  0  0  0  0  0  0
   -4.1739    0.4335    2.6391 H   0  0  0  0  0  0  0  0  0  0  0  0
   -1.9256   -0.4036    1.6396 C   0  0  0  0  0  3  0  0  0  0  0  0
   -2.0947   -0.3262    2.7393 H   0  0  0  0  0  0  0  0  0  0  0  0
    0.2398   -1.1253    2.2716 C   0  0  0  0  0  0  0  0  0  0  0  0
    0.2090   -2.2315    2.3919 H   0  0  0  0  0  0  0  0  0  0  0  0
   -0.0541   -0.6933    3.2587 H   0  0  0  0  0  0  0  0  0  0  0  0
    1.6893   -0.7571    1.9310 C   0  0  0  0  0  0  0  0  0  0  0  0
    2.3443   -1.1333    2.7465 H   0  0  0  0  0  0  0  0  0  0  0  0
    1.9795   -1.3062    1.0147 H   0  0  0  0  0  0  0  0  0  0  0  0
    1.8756    0.7386    1.7369 C   0  0  0  0  0  0  0  0  0  0  0  0
    1.1726    1.1312    0.9756 H   0  0  0  0  0  0  0  0  0  0  0  0
    1.7236    1.2977    2.6819 H   0  0  0  0  0  0  0  0  0  0  0  0
    3.5735    0.5317   -0.1143 C   0  0  0  0  0  0  0  0  0  0  0  0
    2.7271    0.7640   -0.7862 H   0  0  0  0  0  0  0  0  0  0  0  0
    3.7108   -0.5674   -0.0481 H   0  0  0  0  0  0  0  0  0  0  0  0
    4.5023    1.0027   -0.4809 H   0  0  0  0  0  0  0  0  0  0  0  0
    3.4756    2.5851    1.2824 C   0  0  0  0  0  0  0  0  0  0  0  0
    4.5246    2.8003    1.0105 H   0  0  0  0  0  0  0  0  0  0  0  0
    3.2611    2.9542    2.3017 H   0  0  0  0  0  0  0  0  0  0  0  0
    2.7881    3.0596    0.5454 H   0  0  0  0  0  0  0  0  0  0  0  0
    3.9335    0.6733    1.9084 H   0  0  0  0  0  0  0  0  0  0  0  0
  1  5  1  0  0  0  0
  2 14  1  0  0  0  0
  2 16  1  0  0  0  0
  3 29  1  0  0  0  0
  3 22  1  0  0  0  0
  3 33  1  0  0  0  0
  4 12  1  0  0  0  0
  4 14  1  0  0  0  0
  5  4  2  0  0  0  0
  6  5  1  0  0  0  0
  6  8  2  0  0  0  0
  7  6  1  0  0  0  0
  8 10  1  0  0  0  0
  9  8  1  0  0  0  0
 10 11  1  0  0  0  0
 10 12  2  0  0  0  0
 12 13  1  0  0  0  0
 14 15  1  0  0  0  0
 16 17  1  0  0  0  0
 16 18  1  0  0  0  0
 19 16  1  0  0  0  0
 19 20  1  0  0  0  0
 21 19  1  0  0  0  0
 22 19  1  0  0  0  0
 22 24  1  0  0  0  0
 23 22  1  0  0  0  0
 25 27  1  0  0  0  0
 25  3  1  0  0  0  0
 26 25  1  0  0  0  0
 28 25  1  0  0  0  0
 29 31  1  0  0  0  0
 30 29  1  0  0  0  0
 32 29  1  0  0  0  0
M  CHG  2   1  -1   3   1
M  END
