1,2
 OpenBabel05122313063D

 27 27  0  0  0  0  0  0  0  0999 V2000
   -0.6787    1.4263   -0.5302 N   0  0  0  0  0  2  0  0  0  0  0  0
   -1.0118   -1.3997    0.2593 O   0  5  0  0  0  0  0  0  0  0  0  0
   -2.2816   -1.1239    0.1025 C   0  0  0  0  0  0  0  0  0  0  0  0
   -3.2177   -2.1708    0.3640 C   0  0  0  0  0  0  0  0  0  0  0  0
   -2.8122   -3.1415    0.6839 H   0  0  0  0  0  0  0  0  0  0  0  0
   -4.5848   -1.9725    0.2173 C   0  0  0  0  0  0  0  0  0  0  0  0
   -5.2750   -2.8051    0.4250 H   0  0  0  0  0  0  0  0  0  0  0  0
   -5.0994   -0.7177   -0.1921 C   0  0  0  0  0  0  0  0  0  0  0  0
   -6.1824   -0.5675   -0.3042 H   0  0  0  0  0  0  0  0  0  0  0  0
   -4.2119    0.3188   -0.4423 C   0  0  0  0  0  3  0  0  0  0  0  0
   -4.5901    1.3062   -0.7523 H   0  0  0  0  0  0  0  0  0  0  0  0
   -2.8009    0.1556   -0.3068 C   0  0  0  0  0  0  0  0  0  0  0  0
   -1.9841    1.3080   -0.5544 C   0  0  0  0  0  0  0  0  0  0  0  0
   -2.5458    2.2339   -0.7889 H   0  0  0  0  0  0  0  0  0  0  0  0
   -0.1150    2.7695   -0.7039 C   0  0  0  0  0  0  0  0  0  0  0  0
   -0.8844    3.4192   -1.1782 H   0  0  0  0  0  0  0  0  0  0  0  0
    0.7533    2.6907   -1.3850 H   0  0  0  0  0  0  0  0  0  0  0  0
    0.3471    3.4012    0.6246 C   0  0  0  0  0  0  0  0  0  0  0  0
    1.0731    2.6892    1.0729 H   0  0  0  0  0  0  0  0  0  0  0  0
   -0.8131    3.6077    1.6014 C   0  0  0  0  0  0  0  0  0  0  0  0
   -1.5756    4.3006    1.1829 H   0  0  0  0  0  0  0  0  0  0  0  0
   -0.4517    4.0473    2.5528 H   0  0  0  0  0  0  0  0  0  0  0  0
   -1.3189    2.6534    1.8518 H   0  0  0  0  0  0  0  0  0  0  0  0
    1.0910    4.7063    0.3241 C   0  0  0  0  0  0  0  0  0  0  0  0
    1.9702    4.5206   -0.3252 H   0  0  0  0  0  0  0  0  0  0  0  0
    1.4540    5.1785    1.2589 H   0  0  0  0  0  0  0  0  0  0  0  0
    0.4322    5.4411   -0.1869 H   0  0  0  0  0  0  0  0  0  0  0  0
  3  2  1  0  0  0  0
  3  4  2  0  0  0  0
  4  5  1  0  0  0  0
  6  4  1  0  0  0  0
  6  7  1  0  0  0  0
  8  6  2  0  0  0  0
  9  8  1  0  0  0  0
 10 12  1  0  0  0  0
 10  8  1  0  0  0  0
 11 10  1  0  0  0  0
 12  3  1  0  0  0  0
 13  1  1  0  0  0  0
 13 12  2  0  0  0  0
 14 13  1  0  0  0  0
 15  1  1  0  0  0  0
 15 18  1  0  0  0  0
 16 15  1  0  0  0  0
 17 15  1  0  0  0  0
 18 19  1  0  0  0  0
 18 20  1  0  0  0  0
 20 23  1  0  0  0  0
 20 22  1  0  0  0  0
 21 20  1  0  0  0  0
 24 18  1  0  0  0  0
 24 26  1  0  0  0  0
 25 24  1  0  0  0  0
 27 24  1  0  0  0  0
M  CHG  1   2  -1
M  END
