1,5
 OpenBabel05122313063D

 40 43  0  0  0  0  0  0  0  0999 V2000
   -1.8807   -0.6645    0.2203 O   0  5  0  0  0  0  0  0  0  0  0  0
   -4.5004   -0.2344    1.1886 N   0  0  0  0  0  0  0  0  0  0  0  0
   -4.6235   -1.1453    0.2211 N   0  0  0  0  0  0  0  0  0  0  0  0
   -5.7353   -1.1162   -0.5281 N   0  0  0  0  0  0  0  0  0  0  0  0
    0.7577   -1.8457    0.4207 N   0  0  0  0  0  2  0  0  0  0  0  0
   -2.2636   -1.8955    0.1243 C   0  0  0  0  0  0  0  0  0  0  0  0
   -3.6726   -2.1940    0.0629 C   0  0  0  0  0  0  0  0  0  0  0  0
   -4.1466   -3.4823   -0.1682 C   0  0  0  0  0  0  0  0  0  0  0  0
   -5.2359   -3.6128   -0.2493 H   0  0  0  0  0  0  0  0  0  0  0  0
   -3.2750   -4.5926   -0.2845 C   0  0  0  0  0  0  0  0  0  0  0  0
   -1.9135   -4.3462   -0.1244 C   0  0  0  0  0  3  0  0  0  0  0  0
   -1.2044   -5.1896   -0.1552 H   0  0  0  0  0  0  0  0  0  0  0  0
   -1.3840   -3.0394    0.0737 C   0  0  0  0  0  0  0  0  0  0  0  0
   -5.6407    0.4867    1.0704 C   0  0  0  0  0  0  0  0  0  0  0  0
   -6.1030    1.6059    1.8073 C   0  0  0  0  0  0  0  0  0  0  0  0
   -5.5052    2.0216    2.6305 H   0  0  0  0  0  0  0  0  0  0  0  0
   -7.3267    2.1469    1.4321 C   0  0  0  0  0  0  0  0  0  0  0  0
   -7.7245    3.0171    1.9763 H   0  0  0  0  0  0  0  0  0  0  0  0
   -8.0940    1.6051    0.3522 C   0  0  0  0  0  0  0  0  0  0  0  0
   -9.0557    2.0774    0.1002 H   0  0  0  0  0  0  0  0  0  0  0  0
   -7.6631    0.5023   -0.3767 C   0  0  0  0  0  0  0  0  0  0  0  0
   -8.2524    0.0827   -1.2044 H   0  0  0  0  0  0  0  0  0  0  0  0
   -6.4180   -0.0675   -0.0074 C   0  0  0  0  0  0  0  0  0  0  0  0
   -3.8235   -5.9733   -0.5382 C   0  0  0  0  0  0  0  0  0  0  0  0
   -3.0230   -6.7378   -0.5156 H   0  0  0  0  0  0  0  0  0  0  0  0
   -4.5838   -6.2553    0.2196 H   0  0  0  0  0  0  0  0  0  0  0  0
   -4.3205   -6.0356   -1.5294 H   0  0  0  0  0  0  0  0  0  0  0  0
    0.0248   -2.9313    0.3157 C   0  0  0  0  0  0  0  0  0  0  0  0
    0.5462   -3.8930    0.4854 H   0  0  0  0  0  0  0  0  0  0  0  0
    2.1317   -2.0048    0.7737 C   0  0  0  0  0  0  0  0  0  0  0  0
    2.9373   -2.9642    0.1283 C   0  0  0  0  0  0  0  0  0  0  0  0
    2.5279   -3.5369   -0.7169 H   0  0  0  0  0  0  0  0  0  0  0  0
    4.2603   -3.1625    0.5452 C   0  0  0  0  0  0  0  0  0  0  0  0
    4.8878   -3.9052    0.0315 H   0  0  0  0  0  0  0  0  0  0  0  0
    4.7970   -2.3915    1.5871 C   0  0  0  0  0  0  0  0  0  0  0  0
    5.8434   -2.5330    1.8938 H   0  0  0  0  0  0  0  0  0  0  0  0
    4.0028   -1.4133    2.2082 C   0  0  0  0  0  0  0  0  0  0  0  0
    4.4244   -0.7879    3.0088 H   0  0  0  0  0  0  0  0  0  0  0  0
    2.6764   -1.2176    1.8068 C   0  0  0  0  0  0  0  0  0  0  0  0
    2.0425   -0.4613    2.2909 H   0  0  0  0  0  0  0  0  0  0  0  0
  3  2  1  0  0  0  0
  4 23  2  0  0  0  0
  4  3  1  0  0  0  0
  5 30  1  0  0  0  0
  6  1  1  0  0  0  0
  7  6  2  0  0  0  0
  7  3  1  0  0  0  0
  8  7  1  0  0  0  0
  9  8  1  0  0  0  0
 10  8  2  0  0  0  0
 10 11  1  0  0  0  0
 11 13  1  0  0  0  0
 12 11  1  0  0  0  0
 13  6  1  0  0  0  0
 13 28  2  0  0  0  0
 14  2  2  0  0  0  0
 14 15  1  0  0  0  0
 15 16  1  0  0  0  0
 17 15  2  0  0  0  0
 17 18  1  0  0  0  0
 19 17  1  0  0  0  0
 20 19  1  0  0  0  0
 21 23  1  0  0  0  0
 21 19  2  0  0  0  0
 22 21  1  0  0  0  0
 23 14  1  0  0  0  0
 24 25  1  0  0  0  0
 24 10  1  0  0  0  0
 24 26  1  0  0  0  0
 27 24  1  0  0  0  0
 28  5  1  0  0  0  0
 28 29  1  0  0  0  0
 30 39  1  0  0  0  0
 31 33  1  0  0  0  0
 31 30  2  0  0  0  0
 32 31  1  0  0  0  0
 33 35  2  0  0  0  0
 34 33  1  0  0  0  0
 35 36  1  0  0  0  0
 35 37  1  0  0  0  0
 37 38  1  0  0  0  0
 39 37  2  0  0  0  0
 39 40  1  0  0  0  0
M  CHG  1   1  -1
M  END
