1,4
 OpenBabel05122313063D

 37 38  0  0  0  0  0  0  0  0999 V2000
    0.2631    0.2016   -1.3621 O   0  5  0  0  0  0  0  0  0  0  0  0
    5.8549   -0.9933    1.2062 O   0  0  0  0  0  0  0  0  0  0  0  0
    6.4872    0.0296   -0.6234 O   0  0  0  0  0  0  0  0  0  0  0  0
   -1.9567   -1.0913   -0.4908 N   0  0  0  0  0  2  0  0  0  0  0  0
   -0.1960   -0.1952    1.5839 N   0  0  0  0  0  0  0  0  0  0  0  0
    5.6325   -0.4216    0.1373 N   0  0  0  0  0  0  0  0  0  0  0  0
   -1.8796   -1.5477   -1.7647 C   0  0  0  0  0  3  0  0  0  0  0  0
   -1.4192   -0.8656   -2.4924 H   0  0  0  0  0  0  0  0  0  0  0  0
   -2.3165   -2.8264   -2.1190 C   0  0  0  0  0  0  0  0  0  0  0  0
   -2.2409   -3.1518   -3.1659 H   0  0  0  0  0  0  0  0  0  0  0  0
   -2.8297   -3.6677   -1.1228 C   0  0  0  0  0  0  0  0  0  0  0  0
   -3.1758   -4.6830   -1.3661 H   0  0  0  0  0  0  0  0  0  0  0  0
   -2.8902   -3.1932    0.1938 C   0  0  0  0  0  0  0  0  0  0  0  0
   -3.2819   -3.8239    1.0045 H   0  0  0  0  0  0  0  0  0  0  0  0
   -2.4521   -1.8929    0.4909 C   0  0  0  0  0  0  0  0  0  0  0  0
   -2.5167   -1.3126    1.8740 C   0  0  0  0  0  0  0  0  0  0  0  0
   -2.9875   -2.0435    2.5593 H   0  0  0  0  0  0  0  0  0  0  0  0
   -3.1900   -0.4328    1.8385 H   0  0  0  0  0  0  0  0  0  0  0  0
   -1.1759   -0.8905    2.4920 C   0  0  0  0  0  0  0  0  0  0  0  0
   -1.3951   -0.2052    3.3321 H   0  0  0  0  0  0  0  0  0  0  0  0
   -0.6619   -1.7737    2.9266 H   0  0  0  0  0  0  0  0  0  0  0  0
    0.5951    0.7584    2.4100 C   0  0  0  0  0  0  0  0  0  0  0  0
   -0.0784    1.4926    2.8841 H   0  0  0  0  0  0  0  0  0  0  0  0
    1.3353    1.2734    1.7733 H   0  0  0  0  0  0  0  0  0  0  0  0
    1.1393    0.2091    3.2082 H   0  0  0  0  0  0  0  0  0  0  0  0
    0.7711   -1.2242    1.0284 C   0  0  0  0  0  0  0  0  0  0  0  0
    0.1764   -1.9425    0.4321 H   0  0  0  0  0  0  0  0  0  0  0  0
    1.2011   -1.7757    1.8915 H   0  0  0  0  0  0  0  0  0  0  0  0
    1.8747   -0.6294    0.2103 C   0  0  0  0  0  0  0  0  0  0  0  0
    3.2185   -0.7744    0.5734 C   0  0  0  0  0  0  0  0  0  0  0  0
    3.5221   -1.2960    1.4928 H   0  0  0  0  0  0  0  0  0  0  0  0
    4.2188   -0.2620   -0.2612 C   0  0  0  0  0  0  0  0  0  0  0  0
    3.9063    0.3965   -1.4612 C   0  0  0  0  0  0  0  0  0  0  0  0
    4.7283    0.7758   -2.0839 H   0  0  0  0  0  0  0  0  0  0  0  0
    2.5686    0.5619   -1.8194 C   0  0  0  0  0  0  0  0  0  0  0  0
    2.2911    1.0750   -2.7515 H   0  0  0  0  0  0  0  0  0  0  0  0
    1.5292    0.0581   -0.9914 C   0  0  0  0  0  0  0  0  0  0  0  0
  1 37  1  0  0  0  0
  3  6  2  0  0  0  0
  4 15  1  0  0  0  0
  5 22  1  0  0  0  0
  5 19  1  0  0  0  0
  6  2  2  0  0  0  0
  7  4  1  0  0  0  0
  8  7  1  0  0  0  0
  9  7  1  0  0  0  0
  9 11  2  0  0  0  0
 10  9  1  0  0  0  0
 11 13  1  0  0  0  0
 12 11  1  0  0  0  0
 13 15  2  0  0  0  0
 13 14  1  0  0  0  0
 15 16  1  0  0  0  0
 16 19  1  0  0  0  0
 16 17  1  0  0  0  0
 18 16  1  0  0  0  0
 19 21  1  0  0  0  0
 19 20  1  0  0  0  0
 22 23  1  0  0  0  0
 22 25  1  0  0  0  0
 24 22  1  0  0  0  0
 26  5  1  0  0  0  0
 26 28  1  0  0  0  0
 27 26  1  0  0  0  0
 29 30  1  0  0  0  0
 29 26  1  0  0  0  0
 30 31  1  0  0  0  0
 32  6  1  0  0  0  0
 32 30  2  0  0  0  0
 33 32  1  0  0  0  0
 34 33  1  0  0  0  0
 35 33  2  0  0  0  0
 35 37  1  0  0  0  0
 36 35  1  0  0  0  0
 37 29  2  0  0  0  0
M  CHG  1   1  -1
M  END
