1,3
 OpenBabel05122313063D

 30 31  0  0  0  0  0  0  0  0999 V2000
   -1.6981   -1.8608    0.3231 O   0  5  0  0  0  0  0  0  0  0  0  0
   -5.4816    2.1697   -0.1173 O   0  0  0  0  0  0  0  0  0  0  0  0
    0.3423    0.2198   -0.0574 N   0  0  0  0  0  2  0  0  0  0  0  0
    6.5957    2.9841   -0.0966 N   0  0  0  0  0  0  0  0  0  0  0  0
   -2.4974   -0.8671    0.2130 C   0  0  0  0  0  0  0  0  0  0  0  0
   -2.1019    0.5232    0.0014 C   0  0  0  0  0  0  0  0  0  0  0  0
   -3.1028    1.5442   -0.1128 C   0  0  0  0  0  0  0  0  0  0  0  0
   -2.7541    2.5753   -0.2744 H   0  0  0  0  0  0  0  0  0  0  0  0
   -4.4567    1.2537   -0.0210 C   0  0  0  0  0  0  0  0  0  0  0  0
   -4.8573   -0.0969    0.1929 C   0  0  0  0  0  0  0  0  0  0  0  0
   -5.9361   -0.3070    0.2647 H   0  0  0  0  0  0  0  0  0  0  0  0
   -3.9213   -1.1057    0.3044 C   0  0  0  0  0  0  0  0  0  0  0  0
   -4.2251   -2.1505    0.4669 H   0  0  0  0  0  0  0  0  0  0  0  0
   -0.7433    0.9598   -0.0914 C   0  0  0  0  0  3  0  0  0  0  0  0
   -0.6174    2.0587   -0.2300 H   0  0  0  0  0  0  0  0  0  0  0  0
    1.6064    0.8105   -0.0408 C   0  0  0  0  0  0  0  0  0  0  0  0
    2.6812    0.1225   -0.6618 C   0  0  0  0  0  0  0  0  0  0  0  0
    2.4713   -0.8441   -1.1530 H   0  0  0  0  0  0  0  0  0  0  0  0
    3.9575    0.6777   -0.6771 C   0  0  0  0  0  0  0  0  0  0  0  0
    4.7817    0.1429   -1.1711 H   0  0  0  0  0  0  0  0  0  0  0  0
    4.2118    1.9300   -0.0591 C   0  0  0  0  0  0  0  0  0  0  0  0
    3.1473    2.6040    0.5875 C   0  0  0  0  0  0  0  0  0  0  0  0
    3.3424    3.5603    1.0949 H   0  0  0  0  0  0  0  0  0  0  0  0
    1.8674    2.0499    0.5987 C   0  0  0  0  0  0  0  0  0  0  0  0
    1.0595    2.5591    1.1442 H   0  0  0  0  0  0  0  0  0  0  0  0
    5.5216    2.5040   -0.0778 C   0  0  0  0  0  0  0  0  0  0  0  0
   -5.1230    3.5112   -0.3329 C   0  0  0  0  0  0  0  0  0  0  0  0
   -4.4955    3.9194    0.4951 H   0  0  0  0  0  0  0  0  0  0  0  0
   -6.0641    4.0923   -0.3865 H   0  0  0  0  0  0  0  0  0  0  0  0
   -4.5599    3.6498   -1.2866 H   0  0  0  0  0  0  0  0  0  0  0  0
  2  9  1  0  0  0  0
  3 16  1  0  0  0  0
  4 26  3  0  0  0  0
  5 12  1  0  0  0  0
  5  1  1  0  0  0  0
  6  5  2  0  0  0  0
  7  9  2  0  0  0  0
  7  6  1  0  0  0  0
  8  7  1  0  0  0  0
  9 10  1  0  0  0  0
 10 11  1  0  0  0  0
 10 12  2  0  0  0  0
 12 13  1  0  0  0  0
 14  3  1  0  0  0  0
 14  6  1  0  0  0  0
 15 14  1  0  0  0  0
 16 24  1  0  0  0  0
 17 16  2  0  0  0  0
 18 17  1  0  0  0  0
 19 17  1  0  0  0  0
 19 21  2  0  0  0  0
 20 19  1  0  0  0  0
 21 22  1  0  0  0  0
 22 24  2  0  0  0  0
 22 23  1  0  0  0  0
 24 25  1  0  0  0  0
 26 21  1  0  0  0  0
 27  2  1  0  0  0  0
 27 28  1  0  0  0  0
 29 27  1  0  0  0  0
 30 27  1  0  0  0  0
M  CHG  1   1  -1
M  END
