1,5
 OpenBabel05122313063D

 14 14  0  0  1  0  0  0  0  0999 V2000
   -1.2290   -2.2961    0.7571 O   0  5  0  0  0  0  0  0  0  0  0  0
   -2.1412   -3.2942   -1.0750 O   0  0  0  0  0  0  0  0  0  0  0  0
   -1.5212    2.3065    0.5102 O   0  5  0  0  0  0  0  0  0  0  0  0
   -3.4800    3.3648    0.0308 O   0  0  0  0  0  0  0  0  0  0  0  0
   -2.6449   -0.0930    0.0019 N   0  0  0  0  0  2  0  0  0  0  0  0
   -5.3180   -0.3797   -0.6515 N   0  0  0  0  0  0  0  0  0  0  0  0
   -2.1067   -2.4429   -0.1633 C   0  0  0  0  0  0  0  0  0  0  0  0
   -3.1446   -1.3212   -0.2268 C   0  0  2  0  0  3  0  0  0  0  0  0
   -4.5008   -1.4439   -0.5863 C   0  0  0  0  0  0  0  0  0  0  0  0
   -4.9197   -2.4374   -0.8180 H   0  0  0  0  0  0  0  0  0  0  0  0
   -4.7845    0.8294   -0.4062 C   0  0  0  0  0  0  0  0  0  0  0  0
   -5.4324    1.7191   -0.4633 H   0  0  0  0  0  0  0  0  0  0  0  0
   -3.4211    0.9969   -0.0894 C   0  0  0  0  0  0  0  0  0  0  0  0
   -2.7713    2.3654    0.1679 C   0  0  0  0  0  0  0  0  0  0  0  0
  2  7  2  0  0  0  0
  4 14  2  0  0  0  0
  6  9  2  0  0  0  0
  6 11  1  0  0  0  0
  7  1  1  0  0  0  0
  8  7  1  6  0  0  0
  8  5  1  0  0  0  0
  9  8  1  0  0  0  0
 10  9  1  0  0  0  0
 11 13  2  0  0  0  0
 12 11  1  0  0  0  0
 13  5  1  0  0  0  0
 13 14  1  0  0  0  0
 14  3  1  0  0  0  0
M  CHG  2   1  -1   3  -1
M  END
