1,2
 OpenBabel05122313063D

 25 24  0  0  0  0  0  0  0  0999 V2000
   -0.9719   -1.4512   -0.6306 O   0  0  0  0  0  1  0  0  0  0  0  0
   -1.6870    0.9414    0.2859 N   0  0  0  0  0  0  0  0  0  0  0  0
   -2.2604   -1.4642   -0.0769 C   0  0  0  0  0  0  0  0  0  0  0  0
   -2.7726   -0.0045   -0.1287 C   0  0  0  0  0  0  0  0  0  0  0  0
   -2.2381   -2.0401    1.3581 C   0  0  0  0  0  0  0  0  0  0  0  0
   -3.1674   -2.3439   -0.9554 C   0  0  0  0  0  0  0  0  0  0  0  0
   -1.7560    1.3187    1.7145 C   0  0  0  0  0  0  0  0  0  0  0  0
   -1.6401    2.1614   -0.5789 C   0  0  0  0  0  0  0  0  0  0  0  0
   -2.8710    3.0661   -0.5332 C   0  0  0  0  0  0  0  0  0  0  0  0
   -3.6958    0.1726    0.4673 H   0  0  0  0  0  0  0  0  0  0  0  0
   -3.0058    0.2179   -1.1884 H   0  0  0  0  0  0  0  0  0  0  0  0
   -3.2202   -1.9663    1.8716 H   0  0  0  0  0  0  0  0  0  0  0  0
   -1.4720   -1.5201    1.9670 H   0  0  0  0  0  0  0  0  0  0  0  0
   -1.9465   -3.1088    1.3163 H   0  0  0  0  0  0  0  0  0  0  0  0
   -4.2103   -2.3847   -0.5780 H   0  0  0  0  0  0  0  0  0  0  0  0
   -2.7620   -3.3751   -0.9763 H   0  0  0  0  0  0  0  0  0  0  0  0
   -3.1742   -1.9609   -1.9955 H   0  0  0  0  0  0  0  0  0  0  0  0
   -0.8408    1.8905    1.9585 H   0  0  0  0  0  0  0  0  0  0  0  0
   -2.6653    1.9211    1.9322 H   0  0  0  0  0  0  0  0  0  0  0  0
   -1.7880    0.4106    2.3396 H   0  0  0  0  0  0  0  0  0  0  0  0
   -0.7187    2.6953   -0.2729 H   0  0  0  0  0  0  0  0  0  0  0  0
   -1.4723    1.8004   -1.6136 H   0  0  0  0  0  0  0  0  0  0  0  0
   -3.8000    2.5312   -0.8184 H   0  0  0  0  0  0  0  0  0  0  0  0
   -3.0289    3.5233    0.4635 H   0  0  0  0  0  0  0  0  0  0  0  0
   -2.7339    3.8968   -1.2540 H   0  0  0  0  0  0  0  0  0  0  0  0
  1  3  1  0  0  0  0
  2  7  1  0  0  0  0
  3  5  1  0  0  0  0
  4  3  1  0  0  0  0
  4  2  1  0  0  0  0
  4 10  1  0  0  0  0
  5 12  1  0  0  0  0
  5 13  1  0  0  0  0
  6 15  1  0  0  0  0
  6  3  1  0  0  0  0
  7 19  1  0  0  0  0
  7 18  1  0  0  0  0
  7 20  1  0  0  0  0
  8  9  1  0  0  0  0
  8 21  1  0  0  0  0
  8  2  1  0  0  0  0
  9 24  1  0  0  0  0
 11  4  1  0  0  0  0
 14  5  1  0  0  0  0
 16  6  1  0  0  0  0
 17  6  1  0  0  0  0
 22  8  1  0  0  0  0
 23  9  1  0  0  0  0
 25  9  1  0  0  0  0
M  END
