1,2
 OpenBabel05122313063D

 49 52  0  0  0  0  0  0  0  0999 V2000
   -0.1039   -2.4695   -0.0002 O   0  5  0  0  0  0  0  0  0  0  0  0
    0.3100    0.2584   -0.0006 N   0  0  0  0  0  2  0  0  0  0  0  0
   -1.0737   -1.7036   -0.0008 C   0  0  0  0  0  0  0  0  0  0  0  0
   -0.8977   -0.1957   -0.0008 C   0  0  0  0  0  0  0  0  0  0  0  0
   -2.2387    0.4061   -0.0015 C   0  0  0  0  0  0  0  0  0  0  0  0
   -3.1537   -0.6935   -0.0020 C   0  0  0  0  0  0  0  0  0  0  0  0
   -2.5164   -1.9718   -0.0016 C   0  0  0  0  0  0  0  0  0  0  0  0
   -3.2871   -3.1305   -0.0020 C   0  0  0  0  0  0  0  0  0  0  0  0
   -2.8150   -4.1237   -0.0017 H   0  0  0  0  0  0  0  0  0  0  0  0
   -4.7019   -2.9920   -0.0028 C   0  0  0  0  0  0  0  0  0  0  0  0
   -5.3241   -3.8992   -0.0031 H   0  0  0  0  0  0  0  0  0  0  0  0
   -5.3279   -1.7415   -0.0033 C   0  0  0  0  0  0  0  0  0  0  0  0
   -6.4274   -1.6821   -0.0039 H   0  0  0  0  0  0  0  0  0  0  0  0
   -4.5623   -0.5360   -0.0029 C   0  0  0  0  0  0  0  0  0  0  0  0
   -5.0468    0.8079   -0.0034 C   0  0  0  0  0  0  0  0  0  0  0  0
   -6.1317    0.9939   -0.0041 H   0  0  0  0  0  0  0  0  0  0  0  0
   -4.1553    1.8815   -0.0031 C   0  0  0  0  0  0  0  0  0  0  0  0
   -4.5549    2.9065   -0.0036 H   0  0  0  0  0  0  0  0  0  0  0  0
   -2.7410    1.7048   -0.0021 C   0  0  0  0  0  0  0  0  0  0  0  0
   -2.0691    2.5743   -0.0018 H   0  0  0  0  0  0  0  0  0  0  0  0
    0.5229    1.6771    0.0000 C   0  0  0  0  0  0  0  0  0  0  0  0
    0.6180    2.3592    1.2417 C   0  0  0  0  0  0  0  0  0  0  0  0
    0.8222    3.7513    1.2092 C   0  0  0  0  0  0  0  0  0  0  0  0
    0.9007    4.2966    2.1621 H   0  0  0  0  0  0  0  0  0  0  0  0
    0.9286    4.4482    0.0009 C   0  0  0  0  0  0  0  0  0  0  0  0
    1.0927    5.5363    0.0013 H   0  0  0  0  0  0  0  0  0  0  0  0
    0.8277    3.7513   -1.2079 C   0  0  0  0  0  0  0  0  0  0  0  0
    0.9104    4.2965   -2.1605 H   0  0  0  0  0  0  0  0  0  0  0  0
    0.6237    2.3592   -1.2412 C   0  0  0  0  0  0  0  0  0  0  0  0
    0.5082    1.6451    2.5811 C   0  0  0  0  0  0  0  0  0  0  0  0
    0.2945    0.5769    2.3857 H   0  0  0  0  0  0  0  0  0  0  0  0
   -0.6438    2.2010    3.4341 C   0  0  0  0  0  0  0  0  0  0  0  0
   -0.7435    1.6189    4.3728 H   0  0  0  0  0  0  0  0  0  0  0  0
   -1.6119    2.1473    2.8949 H   0  0  0  0  0  0  0  0  0  0  0  0
   -0.4754    3.2607    3.7183 H   0  0  0  0  0  0  0  0  0  0  0  0
    1.8510    1.6847    3.3300 C   0  0  0  0  0  0  0  0  0  0  0  0
    1.7849    1.1044    4.2723 H   0  0  0  0  0  0  0  0  0  0  0  0
    2.1428    2.7248    3.5858 H   0  0  0  0  0  0  0  0  0  0  0  0
    2.6545    1.2393    2.7118 H   0  0  0  0  0  0  0  0  0  0  0  0
    0.5185    1.6449   -2.5808 C   0  0  0  0  0  0  0  0  0  0  0  0
    0.3049    0.5766   -2.3858 H   0  0  0  0  0  0  0  0  0  0  0  0
    1.8633    1.6852   -3.3260 C   0  0  0  0  0  0  0  0  0  0  0  0
    1.7999    1.1050   -4.2686 H   0  0  0  0  0  0  0  0  0  0  0  0
    2.6653    1.2401   -2.7057 H   0  0  0  0  0  0  0  0  0  0  0  0
    2.1554    2.7255   -3.5810 H   0  0  0  0  0  0  0  0  0  0  0  0
   -0.6316    2.2000   -3.4370 C   0  0  0  0  0  0  0  0  0  0  0  0
   -0.7283    1.6178   -4.3760 H   0  0  0  0  0  0  0  0  0  0  0  0
   -0.4632    3.2598   -3.7206 H   0  0  0  0  0  0  0  0  0  0  0  0
   -1.6011    2.1456   -2.9003 H   0  0  0  0  0  0  0  0  0  0  0  0
  2 21  1  0  0  0  0
  3  4  2  0  0  0  0
  3  1  1  0  0  0  0
  4  2  1  0  0  0  0
  5  4  1  0  0  0  0
  6  7  1  0  0  0  0
  6  5  1  0  0  0  0
  7  3  1  0  0  0  0
  8  9  1  0  0  0  0
  8  7  2  0  0  0  0
 10  8  1  0  0  0  0
 11 10  1  0  0  0  0
 12 14  1  0  0  0  0
 12 10  2  0  0  0  0
 13 12  1  0  0  0  0
 14  6  2  0  0  0  0
 15 17  2  0  0  0  0
 15 14  1  0  0  0  0
 16 15  1  0  0  0  0
 17 19  1  0  0  0  0
 18 17  1  0  0  0  0
 19 20  1  0  0  0  0
 19  5  2  0  0  0  0
 21 22  1  0  0  0  0
 22 30  1  0  0  0  0
 23 22  2  0  0  0  0
 23 24  1  0  0  0  0
 25 26  1  0  0  0  0
 25 23  1  0  0  0  0
 27 25  2  0  0  0  0
 28 27  1  0  0  0  0
 29 27  1  0  0  0  0
 29 21  2  0  0  0  0
 30 36  1  0  0  0  0
 30 32  1  0  0  0  0
 31 30  1  0  0  0  0
 32 35  1  0  0  0  0
 32 33  1  0  0  0  0
 34 32  1  0  0  0  0
 36 38  1  0  0  0  0
 36 37  1  0  0  0  0
 39 36  1  0  0  0  0
 40 41  1  0  0  0  0
 40 29  1  0  0  0  0
 42 44  1  0  0  0  0
 42 40  1  0  0  0  0
 43 42  1  0  0  0  0
 45 42  1  0  0  0  0
 46 49  1  0  0  0  0
 46 40  1  0  0  0  0
 47 46  1  0  0  0  0
 48 46  1  0  0  0  0
M  CHG  1   1  -1
M  END
