3,5
 OpenBabel05122313063D

 37 38  0  0  0  0  0  0  0  0999 V2000
   -4.4001   -2.5965    0.3175 Br  0  0  0  0  0  0  0  0  0  0  0  0
   -7.3170    2.1133   -0.3080 Cl  0  0  0  0  0  0  0  0  0  0  0  0
   -0.9267    1.9496   -0.7336 N   0  0  0  0  0  2  0  0  0  0  0  0
    0.6315    0.0067   -2.5410 N   0  0  0  0  0  0  0  0  0  0  0  0
   -2.1250   -0.7272   -0.2709 O   0  5  0  0  0  0  0  0  0  0  0  0
   -0.2176   -2.5347   -3.6353 O   0  0  0  0  0  0  0  0  0  0  0  0
   -3.3265    1.3752   -0.5282 C   0  0  0  0  0  0  0  0  0  0  0  0
   -3.2207   -0.0564   -0.2788 C   0  0  0  0  0  0  0  0  0  0  0  0
   -4.4793   -0.7266   -0.0310 C   0  0  0  0  0  0  0  0  0  0  0  0
   -5.7103   -0.0828   -0.0344 C   0  0  0  0  0  0  0  0  0  0  0  0
   -6.6342   -0.6436    0.1621 H   0  0  0  0  0  0  0  0  0  0  0  0
   -5.7663    1.3060   -0.2953 C   0  0  0  0  0  0  0  0  0  0  0  0
   -4.5981    2.0145   -0.5425 C   0  0  0  0  0  3  0  0  0  0  0  0
   -4.6531    3.0941   -0.7481 H   0  0  0  0  0  0  0  0  0  0  0  0
   -2.1942    2.2313   -0.8128 C   0  0  0  0  0  0  0  0  0  0  0  0
   -2.4703    3.2628   -1.1403 H   0  0  0  0  0  0  0  0  0  0  0  0
    0.0470    2.9222   -1.2077 C   0  0  0  0  0  0  0  0  0  0  0  0
    0.9121    2.9268   -0.5113 H   0  0  0  0  0  0  0  0  0  0  0  0
   -0.3957    3.9461   -1.2241 H   0  0  0  0  0  0  0  0  0  0  0  0
    0.5463    2.5767   -2.6208 C   0  0  0  0  0  0  0  0  0  0  0  0
    1.2248    3.3963   -2.9379 H   0  0  0  0  0  0  0  0  0  0  0  0
   -0.3120    2.6051   -3.3257 H   0  0  0  0  0  0  0  0  0  0  0  0
    1.3458    1.2814   -2.7801 C   0  0  0  0  0  0  0  0  0  0  0  0
    1.7589    1.2656   -3.8209 H   0  0  0  0  0  0  0  0  0  0  0  0
    2.2100    1.3071   -2.0870 H   0  0  0  0  0  0  0  0  0  0  0  0
   -0.5571   -0.1290   -3.4059 C   0  0  0  0  0  0  0  0  0  0  0  0
   -0.2758    0.0816   -4.4690 H   0  0  0  0  0  0  0  0  0  0  0  0
   -1.3182    0.6150   -3.0991 H   0  0  0  0  0  0  0  0  0  0  0  0
   -1.1652   -1.5269   -3.3146 C   0  0  0  0  0  0  0  0  0  0  0  0
   -1.5805   -1.6854   -2.2909 H   0  0  0  0  0  0  0  0  0  0  0  0
   -1.9963   -1.6160   -4.0419 H   0  0  0  0  0  0  0  0  0  0  0  0
    1.5662   -1.1059   -2.8095 C   0  0  0  0  0  0  0  0  0  0  0  0
    2.4030   -1.0568   -2.0836 H   0  0  0  0  0  0  0  0  0  0  0  0
    2.0025   -0.9915   -3.8341 H   0  0  0  0  0  0  0  0  0  0  0  0
    0.8675   -2.4595   -2.7313 C   0  0  0  0  0  0  0  0  0  0  0  0
    1.5819   -3.2636   -2.9993 H   0  0  0  0  0  0  0  0  0  0  0  0
    0.5179   -2.6423   -1.6865 H   0  0  0  0  0  0  0  0  0  0  0  0
  2 12  1  0  0  0  0
  6 29  1  0  0  0  0
  6 35  1  0  0  0  0
  7  8  1  0  0  0  0
  8  5  1  0  0  0  0
  8  9  2  0  0  0  0
  9  1  1  0  0  0  0
 10  9  1  0  0  0  0
 10 11  1  0  0  0  0
 12 10  2  0  0  0  0
 13  7  1  0  0  0  0
 13 12  1  0  0  0  0
 14 13  1  0  0  0  0
 15  3  1  0  0  0  0
 15  7  2  0  0  0  0
 16 15  1  0  0  0  0
 17  3  1  0  0  0  0
 17 18  1  0  0  0  0
 19 17  1  0  0  0  0
 20 17  1  0  0  0  0
 21 20  1  0  0  0  0
 22 20  1  0  0  0  0
 23 20  1  0  0  0  0
 23  4  1  0  0  0  0
 23 25  1  0  0  0  0
 24 23  1  0  0  0  0
 26 29  1  0  0  0  0
 26 28  1  0  0  0  0
 26  4  1  0  0  0  0
 27 26  1  0  0  0  0
 29 30  1  0  0  0  0
 31 29  1  0  0  0  0
 32 35  1  0  0  0  0
 32  4  1  0  0  0  0
 32 33  1  0  0  0  0
 34 32  1  0  0  0  0
 35 37  1  0  0  0  0
 36 35  1  0  0  0  0
M  CHG  1   5  -1
M  END
