2,4
 OpenBabel05122313063D

 36 37  0  0  1  0  0  0  0  0999 V2000
    5.2594    1.4596   -0.1260 S   0  0  0  0  0  0  0  0  0  0  0  0
    2.5838   -1.4943   -0.0038 O   0  0  0  0  0  1  0  0  0  0  0  0
   -2.1015   -2.0070    0.4652 O   0  0  0  0  0  0  0  0  0  0  0  0
   -0.0726   -0.1021    0.0151 N   0  0  0  0  0  2  0  0  0  0  0  0
   -1.4232    0.1405   -0.0394 N   0  0  0  0  0  0  0  0  0  0  0  0
   -1.7448    1.0294   -0.4358 H   0  0  0  0  0  0  0  0  0  0  0  0
   -0.6497    2.6248   -0.9519 F   0  0  0  0  0  0  0  0  0  0  0  0
    1.0851    3.3407    0.1559 F   0  0  0  0  0  0  0  0  0  0  0  0
   -0.6156    2.5088    1.2288 F   0  0  0  0  0  0  0  0  0  0  0  0
    6.8237    0.7260   -0.1830 C   0  0  0  0  0  0  0  0  0  0  0  0
    7.7212    1.3557   -0.2235 H   0  0  0  0  0  0  0  0  0  0  0  0
    6.7425   -0.6569   -0.1696 C   0  0  0  0  0  0  0  0  0  0  0  0
    7.6255   -1.3103   -0.2005 H   0  0  0  0  0  0  0  0  0  0  0  0
    5.4000   -1.1236   -0.1111 C   0  0  0  0  0  0  0  0  0  0  0  0
    5.0852   -2.1748   -0.0897 H   0  0  0  0  0  0  0  0  0  0  0  0
    4.4604   -0.0980   -0.0799 C   0  0  0  0  0  0  0  0  0  0  0  0
    2.9917   -0.2833   -0.0171 C   0  0  2  0  0  3  0  0  0  0  0  0
    2.1686    0.8800    0.0272 C   0  0  0  0  0  0  0  0  0  0  0  0
    2.6879    1.8454    0.0480 H   0  0  0  0  0  0  0  0  0  0  0  0
    0.7610    0.9547    0.0444 C   0  0  0  0  0  0  0  0  0  0  0  0
    0.1670    2.3633    0.1274 C   0  0  0  0  0  0  0  0  0  0  0  0
   -2.3698   -0.8281    0.1876 C   0  0  0  0  0  0  0  0  0  0  0  0
   -3.7790   -0.3376    0.0554 C   0  0  0  0  0  0  0  0  0  0  0  0
   -4.1527    1.0141    0.2111 C   0  0  0  0  0  0  0  0  0  0  0  0
   -3.4010    1.7762    0.4702 H   0  0  0  0  0  0  0  0  0  0  0  0
   -5.4947    1.3979    0.0870 C   0  0  0  0  0  0  0  0  0  0  0  0
   -5.7685    2.4562    0.2215 H   0  0  0  0  0  0  0  0  0  0  0  0
   -6.5033    0.4532   -0.1880 C   0  0  0  0  0  0  0  0  0  0  0  0
   -6.1220   -0.9007   -0.3208 C   0  0  0  0  0  0  0  0  0  0  0  0
   -6.8937   -1.6604   -0.5244 H   0  0  0  0  0  0  0  0  0  0  0  0
   -4.7871   -1.2919   -0.1941 C   0  0  0  0  0  0  0  0  0  0  0  0
   -4.4896   -2.3470   -0.2821 H   0  0  0  0  0  0  0  0  0  0  0  0
   -7.9459    0.8637   -0.3345 C   0  0  0  0  0  0  0  0  0  0  0  0
   -8.0949    1.9334   -0.0924 H   0  0  0  0  0  0  0  0  0  0  0  0
   -8.6055    0.2662    0.3280 H   0  0  0  0  0  0  0  0  0  0  0  0
   -8.3039    0.6998   -1.3731 H   0  0  0  0  0  0  0  0  0  0  0  0
  1 16  1  0  0  0  0
  4 20  1  0  0  0  0
  5  4  1  0  0  0  0
  5 22  1  0  0  0  0
  6  5  1  0  0  0  0
  7 21  1  0  0  0  0
 10 12  2  0  0  0  0
 10  1  1  0  0  0  0
 11 10  1  0  0  0  0
 12 14  1  0  0  0  0
 13 12  1  0  0  0  0
 14 15  1  0  0  0  0
 14 16  2  0  0  0  0
 16 17  1  0  0  0  0
 17  2  1  1  0  0  0
 17 18  1  0  0  0  0
 18 20  2  0  0  0  0
 18 19  1  0  0  0  0
 20 21  1  0  0  0  0
 21  8  1  0  0  0  0
 21  9  1  0  0  0  0
 22  3  2  0  0  0  0
 23 22  1  0  0  0  0
 23 24  1  0  0  0  0
 24 25  1  0  0  0  0
 26 24  2  0  0  0  0
 26 27  1  0  0  0  0
 28 26  1  0  0  0  0
 29 31  1  0  0  0  0
 29 28  2  0  0  0  0
 30 29  1  0  0  0  0
 31 23  2  0  0  0  0
 32 31  1  0  0  0  0
 33 28  1  0  0  0  0
 33 34  1  0  0  0  0
 33 35  1  0  0  0  0
 36 33  1  0  0  0  0
M  END
