1,2
 OpenBabel05122313063D

 39 38  0  0  0  0  0  0  0  0999 V2000
   -1.4539   -1.2599    0.2965 O   0  0  0  0  0  1  0  0  0  0  0  0
   -1.5238    1.0889   -0.4020 N   0  0  0  0  0  2  0  0  0  0  0  0
   -2.5249   -0.1199    0.0124 P   0  0  0  0  0  4  0  0  0  0  0  0
   -1.6109    2.5060   -0.7075 C   0  0  0  0  0  0  0  0  0  0  0  0
   -3.4727    0.1965    1.6137 C   0  0  0  0  0  0  0  0  0  0  0  0
   -3.5968   -0.7383   -1.4127 C   0  0  0  0  0  0  0  0  0  0  0  0
   -1.0270    3.3586    0.4315 C   0  0  0  0  0  0  0  0  0  0  0  0
   -0.8853    2.8090   -2.0282 C   0  0  0  0  0  0  0  0  0  0  0  0
   -2.6860    2.7814   -0.8350 H   0  0  0  0  0  0  0  0  0  0  0  0
   -4.2888    1.4977    1.5184 C   0  0  0  0  0  0  0  0  0  0  0  0
   -2.3784    0.3509    2.6900 C   0  0  0  0  0  0  0  0  0  0  0  0
   -4.3793   -0.9885    1.9812 C   0  0  0  0  0  0  0  0  0  0  0  0
   -2.6593   -0.7198   -2.6374 C   0  0  0  0  0  0  0  0  0  0  0  0
   -4.0304   -2.1916   -1.1468 C   0  0  0  0  0  0  0  0  0  0  0  0
   -4.8082    0.1705   -1.6696 C   0  0  0  0  0  0  0  0  0  0  0  0
   -1.0496    4.4400    0.1836 H   0  0  0  0  0  0  0  0  0  0  0  0
   -1.5894    3.2093    1.3752 H   0  0  0  0  0  0  0  0  0  0  0  0
    0.0237    3.0509    0.6037 H   0  0  0  0  0  0  0  0  0  0  0  0
   -0.9368    3.8886   -2.2786 H   0  0  0  0  0  0  0  0  0  0  0  0
    0.1777    2.5125   -1.9286 H   0  0  0  0  0  0  0  0  0  0  0  0
   -1.3296    2.2354   -2.8659 H   0  0  0  0  0  0  0  0  0  0  0  0
   -5.1012    1.4387    0.7693 H   0  0  0  0  0  0  0  0  0  0  0  0
   -4.7598    1.7061    2.5028 H   0  0  0  0  0  0  0  0  0  0  0  0
   -3.6488    2.3660    1.2688 H   0  0  0  0  0  0  0  0  0  0  0  0
   -1.8019   -0.5852    2.8145 H   0  0  0  0  0  0  0  0  0  0  0  0
   -1.6612    1.1522    2.4265 H   0  0  0  0  0  0  0  0  0  0  0  0
   -2.8559    0.6083    3.6590 H   0  0  0  0  0  0  0  0  0  0  0  0
   -5.2577   -1.0712    1.3115 H   0  0  0  0  0  0  0  0  0  0  0  0
   -3.8233   -1.9467    1.9571 H   0  0  0  0  0  0  0  0  0  0  0  0
   -4.7658   -0.8481    3.0135 H   0  0  0  0  0  0  0  0  0  0  0  0
   -1.7441   -1.3145   -2.4477 H   0  0  0  0  0  0  0  0  0  0  0  0
   -3.1913   -1.1587   -3.5076 H   0  0  0  0  0  0  0  0  0  0  0  0
   -2.3416    0.3075   -2.8951 H   0  0  0  0  0  0  0  0  0  0  0  0
   -4.7958   -2.2722   -0.3533 H   0  0  0  0  0  0  0  0  0  0  0  0
   -4.4667   -2.6181   -2.0752 H   0  0  0  0  0  0  0  0  0  0  0  0
   -3.1598   -2.8121   -0.8572 H   0  0  0  0  0  0  0  0  0  0  0  0
   -5.5577    0.1122   -0.8557 H   0  0  0  0  0  0  0  0  0  0  0  0
   -4.5110    1.2321   -1.7958 H   0  0  0  0  0  0  0  0  0  0  0  0
   -5.3155   -0.1432   -2.6069 H   0  0  0  0  0  0  0  0  0  0  0  0
  2  3  1  0  0  0  0
  3  1  1  0  0  0  0
  3  5  1  0  0  0  0
  4  2  1  0  0  0  0
  4  7  1  0  0  0  0
  5 12  1  0  0  0  0
  5 11  1  0  0  0  0
  6 14  1  0  0  0  0
  6  3  1  0  0  0  0
  7 18  1  0  0  0  0
  7 17  1  0  0  0  0
  8 20  1  0  0  0  0
  8  4  1  0  0  0  0
  9  4  1  0  0  0  0
 10  5  1  0  0  0  0
 10 23  1  0  0  0  0
 11 25  1  0  0  0  0
 11 27  1  0  0  0  0
 12 30  1  0  0  0  0
 13 31  1  0  0  0  0
 13  6  1  0  0  0  0
 14 36  1  0  0  0  0
 14 34  1  0  0  0  0
 15  6  1  0  0  0  0
 15 37  1  0  0  0  0
 16  7  1  0  0  0  0
 19  8  1  0  0  0  0
 21  8  1  0  0  0  0
 22 10  1  0  0  0  0
 24 10  1  0  0  0  0
 26 11  1  0  0  0  0
 28 12  1  0  0  0  0
 29 12  1  0  0  0  0
 32 13  1  0  0  0  0
 33 13  1  0  0  0  0
 35 14  1  0  0  0  0
 38 15  1  0  0  0  0
 39 15  1  0  0  0  0
M  END
