1,3
 OpenBabel05122313063D

 24 25  0  0  1  0  0  0  0  0999 V2000
    1.3234   -2.5195   -0.2035 O   0  0  0  0  0  1  0  0  0  0  0  0
    2.7244    0.1101   -0.3945 N   0  0  0  0  0  0  0  0  0  0  0  0
    1.4561    0.3192   -0.4284 N   0  0  0  0  0  2  0  0  0  0  0  0
    2.4736    2.6393    0.7615 F   0  0  0  0  0  0  0  0  0  0  0  0
   -0.1727    0.7402   -2.6815 F   0  0  0  0  0  0  0  0  0  0  0  0
    2.6027   -2.3710   -0.0523 C   0  0  1  0  0  3  0  0  0  0  0  0
    3.4062   -3.5405    0.1279 C   0  0  0  0  0  0  0  0  0  0  0  0
    2.8786   -4.5047    0.1455 H   0  0  0  0  0  0  0  0  0  0  0  0
    4.7800   -3.4550    0.2982 C   0  0  0  0  0  0  0  0  0  0  0  0
    5.3599   -4.3780    0.4550 H   0  0  0  0  0  0  0  0  0  0  0  0
    5.4516   -2.2017    0.2704 C   0  0  0  0  0  0  0  0  0  0  0  0
    6.5418   -2.1532    0.4021 H   0  0  0  0  0  0  0  0  0  0  0  0
    4.7159   -1.0505    0.0569 C   0  0  0  0  0  0  0  0  0  0  0  0
    5.1872   -0.0589   -0.0027 H   0  0  0  0  0  0  0  0  0  0  0  0
    3.2931   -1.0900   -0.0965 C   0  0  0  0  0  0  0  0  0  0  0  0
    1.1633    1.6287   -0.9328 C   0  0  0  0  0  0  0  0  0  0  0  0
    1.7252    2.7815   -0.3399 C   0  0  0  0  0  0  0  0  0  0  0  0
    1.4882    4.0597   -0.8485 C   0  0  0  0  0  0  0  0  0  0  0  0
    1.9360    4.9222   -0.3366 H   0  0  0  0  0  0  0  0  0  0  0  0
    0.6730    4.2041   -1.9817 C   0  0  0  0  0  0  0  0  0  0  0  0
    0.4795    5.2072   -2.3884 H   0  0  0  0  0  0  0  0  0  0  0  0
    0.1002    3.0841   -2.5978 C   0  0  0  0  0  0  0  0  0  0  0  0
   -0.5404    3.1676   -3.4860 H   0  0  0  0  0  0  0  0  0  0  0  0
    0.3544    1.8123   -2.0732 C   0  0  0  0  0  0  0  0  0  0  0  0
  2 15  2  0  0  0  0
  3  2  1  0  0  0  0
  5 24  1  0  0  0  0
  6  1  1  6  0  0  0
  6  7  1  0  0  0  0
  7  8  1  0  0  0  0
  7  9  2  0  0  0  0
  9 10  1  0  0  0  0
 11  9  1  0  0  0  0
 11 12  1  0  0  0  0
 13 11  2  0  0  0  0
 14 13  1  0  0  0  0
 15  6  1  0  0  0  0
 15 13  1  0  0  0  0
 16  3  1  0  0  0  0
 16 17  1  0  0  0  0
 17  4  1  0  0  0  0
 18 17  2  0  0  0  0
 18 19  1  0  0  0  0
 20 18  1  0  0  0  0
 21 20  1  0  0  0  0
 22 24  1  0  0  0  0
 22 20  2  0  0  0  0
 23 22  1  0  0  0  0
 24 16  2  0  0  0  0
M  END
