1,3
 OpenBabel05122313063D

 18 17  0  0  0  0  0  0  0  0999 V2000
   -0.7805   -1.7752    0.0001 O   0  5  0  0  0  0  0  0  0  0  0  0
   -2.1457   -1.5864    0.0000 N   0  0  0  0  0  0  0  0  0  0  0  0
   -1.5367    0.6566    0.0001 N   0  0  0  0  0  2  0  0  0  0  0  0
   -1.8035    1.6431    0.0001 H   0  0  0  0  0  0  0  0  0  0  0  0
   -2.5005   -0.3329    0.0000 C   0  0  0  0  0  0  0  0  0  0  0  0
   -3.9805    0.0498   -0.0000 C   0  0  0  0  0  0  0  0  0  0  0  0
   -4.8549   -1.2146    0.0000 C   0  0  0  0  0  0  0  0  0  0  0  0
   -4.6492   -1.8385    0.8905 H   0  0  0  0  0  0  0  0  0  0  0  0
   -5.9276   -0.9310   -0.0000 H   0  0  0  0  0  0  0  0  0  0  0  0
   -4.2855    0.8846    1.2631 C   0  0  0  0  0  0  0  0  0  0  0  0
   -4.0670    0.3020    2.1804 H   0  0  0  0  0  0  0  0  0  0  0  0
   -5.3557    1.1769    1.2833 H   0  0  0  0  0  0  0  0  0  0  0  0
   -3.6817    1.8139    1.3014 H   0  0  0  0  0  0  0  0  0  0  0  0
   -4.6491   -1.8386   -0.8904 H   0  0  0  0  0  0  0  0  0  0  0  0
   -4.2854    0.8845   -1.2633 C   0  0  0  0  0  0  0  0  0  0  0  0
   -4.0669    0.3018   -2.1805 H   0  0  0  0  0  0  0  0  0  0  0  0
   -5.3556    1.1768   -1.2835 H   0  0  0  0  0  0  0  0  0  0  0  0
   -3.6816    1.8138   -1.3016 H   0  0  0  0  0  0  0  0  0  0  0  0
  2  5  2  0  0  0  0
  2  1  1  0  0  0  0
  4  3  1  0  0  0  0
  5  3  1  0  0  0  0
  6  7  1  0  0  0  0
  6  5  1  0  0  0  0
  6 10  1  0  0  0  0
  7  8  1  0  0  0  0
  9  7  1  0  0  0  0
 10 12  1  0  0  0  0
 10 13  1  0  0  0  0
 10 11  1  0  0  0  0
 14  7  1  0  0  0  0
 15  6  1  0  0  0  0
 16 15  1  0  0  0  0
 17 15  1  0  0  0  0
 18 15  1  0  0  0  0
M  CHG  1   1  -1
M  END
