1,2
 OpenBabel05122313063D

 28 29  0  0  0  0  0  0  0  0999 V2000
    1.3814   -1.1546   -0.4401 O   0  5  0  0  0  0  0  0  0  0  0  0
    1.2226    1.4469    0.3104 N   0  0  0  0  0  2  0  0  0  0  0  0
    5.5393   -0.9328   -0.2344 C   0  0  0  0  0  0  0  0  0  0  0  0
    4.7798    0.2453    0.0946 C   0  0  0  0  0  0  0  0  0  0  0  0
    3.3273    0.1932    0.0176 C   0  0  0  0  0  0  0  0  0  0  0  0
    0.2121    3.4445   -0.7326 C   0  0  0  0  0  0  0  0  0  0  0  0
   -0.5731    2.8815   -1.2650 H   0  0  0  0  0  0  0  0  0  0  0  0
    3.4703   -2.1738   -0.6794 C   0  0  0  0  0  0  0  0  0  0  0  0
    2.9361   -3.0906   -0.9676 H   0  0  0  0  0  0  0  0  0  0  0  0
    6.9583   -0.9064   -0.1715 C   0  0  0  0  0  3  0  0  0  0  0  0
    7.5104   -1.8239   -0.4298 H   0  0  0  0  0  0  0  0  0  0  0  0
    6.9020    1.4038    0.5374 C   0  0  0  0  0  0  0  0  0  0  0  0
    7.4299    2.3198    0.8440 H   0  0  0  0  0  0  0  0  0  0  0  0
    4.8418   -2.1248   -0.6189 C   0  0  0  0  0  0  0  0  0  0  0  0
    5.4351   -3.0197   -0.8660 H   0  0  0  0  0  0  0  0  0  0  0  0
    0.7014    2.8098    0.5409 C   0  0  0  0  0  0  0  0  0  0  0  0
   -0.1371    2.7326    1.2591 H   0  0  0  0  0  0  0  0  0  0  0  0
    1.4994    3.4344    0.9952 H   0  0  0  0  0  0  0  0  0  0  0  0
    2.6729   -1.0185   -0.3564 C   0  0  0  0  0  0  0  0  0  0  0  0
    7.6401    0.2437    0.2066 C   0  0  0  0  0  0  0  0  0  0  0  0
    8.7391    0.2533    0.2521 H   0  0  0  0  0  0  0  0  0  0  0  0
    2.5353    1.3495    0.2809 C   0  0  0  0  0  0  0  0  0  0  0  0
    3.0866    2.2876    0.4724 H   0  0  0  0  0  0  0  0  0  0  0  0
    5.5109    1.4027    0.4846 C   0  0  0  0  0  0  0  0  0  0  0  0
    4.9803    2.3247    0.7608 H   0  0  0  0  0  0  0  0  0  0  0  0
    0.6637    4.6127   -1.2180 C   0  0  0  0  0  0  0  0  0  0  0  0
    1.4496    5.1887   -0.7001 H   0  0  0  0  0  0  0  0  0  0  0  0
    0.2605    5.0436   -2.1478 H   0  0  0  0  0  0  0  0  0  0  0  0
  1 19  1  0  0  0  0
  2 16  1  0  0  0  0
  3 10  1  0  0  0  0
  3  4  1  0  0  0  0
  4 24  2  0  0  0  0
  5  4  1  0  0  0  0
  5 22  2  0  0  0  0
  6 16  1  0  0  0  0
  7  6  1  0  0  0  0
  8 14  1  0  0  0  0
  8 19  2  0  0  0  0
  9  8  1  0  0  0  0
 10 20  1  0  0  0  0
 11 10  1  0  0  0  0
 12 13  1  0  0  0  0
 14  3  2  0  0  0  0
 15 14  1  0  0  0  0
 16 18  1  0  0  0  0
 16 17  1  0  0  0  0
 19  5  1  0  0  0  0
 20 21  1  0  0  0  0
 20 12  2  0  0  0  0
 22  2  1  0  0  0  0
 22 23  1  0  0  0  0
 24 12  1  0  0  0  0
 24 25  1  0  0  0  0
 26  6  2  0  0  0  0
 26 27  1  0  0  0  0
 28 26  1  0  0  0  0
M  CHG  1   1  -1
M  END
