1,4
 OpenBabel05122313063D

 23 22  0  0  1  0  0  0  0  0999 V2000
    1.1905    0.9383   -2.0008 N   0  0  0  0  0  0  0  0  0  0  0  0
   -0.1762    1.1455   -2.5303 C   0  0  0  0  0  0  0  0  0  0  0  0
   -1.0811    1.4977   -1.3716 C   0  0  2  0  0  3  0  0  0  0  0  0
   -0.7208    1.1751   -0.2095 O   0  0  0  0  0  1  0  0  0  0  0  0
   -2.2651    2.0885   -1.5900 N   0  0  0  0  0  0  0  0  0  0  0  0
   -3.2687    2.0800   -0.5390 C   0  0  0  0  0  0  0  0  0  0  0  0
   -3.6820    0.6299   -0.2276 C   0  0  0  0  0  0  0  0  0  0  0  0
   -3.5087   -0.2872   -1.0041 O   0  0  0  0  0  0  0  0  0  0  0  0
   -4.2364    0.5547    0.9870 O   0  0  0  0  0  0  0  0  0  0  0  0
   -4.6530   -0.7744    1.4235 C   0  0  0  0  0  0  0  0  0  0  0  0
   -3.4896   -1.5296    2.0411 C   0  0  0  0  0  0  0  0  0  0  0  0
    1.6609    0.1991   -2.5438 H   0  0  0  0  0  0  0  0  0  0  0  0
    1.7535    1.7973   -2.0878 H   0  0  0  0  0  0  0  0  0  0  0  0
   -0.5453    0.1646   -2.9038 H   0  0  0  0  0  0  0  0  0  0  0  0
   -0.2185    1.8843   -3.3572 H   0  0  0  0  0  0  0  0  0  0  0  0
   -2.5717    2.2102   -2.5573 H   0  0  0  0  0  0  0  0  0  0  0  0
   -4.1514    2.6605   -0.8697 H   0  0  0  0  0  0  0  0  0  0  0  0
   -2.8757    2.5603    0.3773 H   0  0  0  0  0  0  0  0  0  0  0  0
   -5.0671   -1.3152    0.5499 H   0  0  0  0  0  0  0  0  0  0  0  0
   -5.4604   -0.5807    2.1543 H   0  0  0  0  0  0  0  0  0  0  0  0
   -3.8411   -2.5135    2.4109 H   0  0  0  0  0  0  0  0  0  0  0  0
   -2.6916   -1.7103    1.2932 H   0  0  0  0  0  0  0  0  0  0  0  0
   -3.0661   -0.9725    2.9006 H   0  0  0  0  0  0  0  0  0  0  0  0
  2  1  1  0  0  0  0
  2  3  1  0  0  0  0
  3  4  1  6  0  0  0
  5  3  1  0  0  0  0
  5  6  1  0  0  0  0
  6  7  1  0  0  0  0
  6 18  1  0  0  0  0
  7  9  1  0  0  0  0
  8  7  2  0  0  0  0
  9 10  1  0  0  0  0
 10 11  1  0  0  0  0
 10 20  1  0  0  0  0
 11 21  1  0  0  0  0
 11 23  1  0  0  0  0
 12  1  1  0  0  0  0
 13  1  1  0  0  0  0
 14  2  1  0  0  0  0
 15  2  1  0  0  0  0
 16  5  1  0  0  0  0
 17  6  1  0  0  0  0
 19 10  1  0  0  0  0
 22 11  1  0  0  0  0
M  END
