1,2
 OpenBabel05122313063D

 19 20  0  0  1  0  0  0  0  0999 V2000
    1.8698   -0.3432    0.8310 N   0  0  0  0  0  2  0  0  0  0  0  0
    1.6231   -1.6283   -1.6403 O   0  0  0  0  0  1  0  0  0  0  0  0
    1.8911   -0.1368   -3.2267 O   0  5  0  0  0  0  0  0  0  0  0  0
    2.1300   -0.5881   -2.1083 N   0  3  0  0  0  3  0  0  0  0  0  0
    1.7984   -0.2621    2.1573 C   0  0  0  0  0  0  0  0  0  0  0  0
    0.8827   -0.6848    2.6098 H   0  0  0  0  0  0  0  0  0  0  0  0
    2.7979    0.3537    2.9517 C   0  0  0  0  0  0  0  0  0  0  0  0
    2.6849    0.3789    4.0446 H   0  0  0  0  0  0  0  0  0  0  0  0
    3.8774    0.9400    2.3177 C   0  0  0  0  0  0  0  0  0  0  0  0
    4.6625    1.4598    2.8885 H   0  0  0  0  0  0  0  0  0  0  0  0
    5.0660    1.4873    0.2030 C   0  0  0  0  0  0  0  0  0  0  0  0
    5.8487    1.9951    0.7872 H   0  0  0  0  0  0  0  0  0  0  0  0
    5.1337    1.4396   -1.1810 C   0  0  0  0  0  0  0  0  0  0  0  0
    5.9678    1.9134   -1.7183 H   0  0  0  0  0  0  0  0  0  0  0  0
    4.1278    0.7669   -1.9101 C   0  0  0  0  0  0  0  0  0  0  0  0
    4.1530    0.7179   -3.0071 H   0  0  0  0  0  0  0  0  0  0  0  0
    3.0794    0.1333   -1.2543 C   0  0  0  0  0  0  0  0  0  0  0  0
    2.9411    0.1879    0.1765 C   0  0  1  0  0  3  0  0  0  0  0  0
    3.9806    0.8839    0.8987 C   0  0  0  0  0  0  0  0  0  0  0  0
  1  5  1  0  0  0  0
  3  4  1  0  0  0  0
  4  2  1  0  0  0  0
  4 17  1  0  0  0  0
  5  6  1  0  0  0  0
  5  7  2  0  0  0  0
  7  8  1  0  0  0  0
  9 10  1  0  0  0  0
  9  7  1  0  0  0  0
 11 12  1  0  0  0  0
 11 19  1  0  0  0  0
 13 11  2  0  0  0  0
 14 13  1  0  0  0  0
 15 17  2  0  0  0  0
 15 13  1  0  0  0  0
 16 15  1  0  0  0  0
 18 17  1  6  0  0  0
 18  1  1  0  0  0  0
 18 19  1  0  0  0  0
 19  9  2  0  0  0  0
M  CHG  2   3  -1   4   1
M  END
