2,3
 OpenBabel05122313063D

 33 33  0  0  0  0  0  0  0  0999 V2000
   -6.3769    1.1066    0.3317 Cl  0  0  0  0  0  0  0  0  0  0  0  0
   -1.2132   -1.6203   -0.5845 O   0  5  0  0  0  0  0  0  0  0  0  0
   -0.1282    0.1905    1.4739 N   0  0  0  0  0  2  0  0  0  0  0  0
    3.5302    2.1627    0.3789 N   0  3  0  0  0  0  0  0  0  0  0  0
   -2.4478    0.0974    0.6254 C   0  0  0  0  0  0  0  0  0  0  0  0
   -2.3106   -0.9889   -0.3374 C   0  0  0  0  0  0  0  0  0  0  0  0
   -3.5086   -1.3841   -1.0273 C   0  0  0  0  0  0  0  0  0  0  0  0
   -3.4098   -2.2127   -1.7434 H   0  0  0  0  0  0  0  0  0  0  0  0
   -4.7244   -0.7503   -0.8323 C   0  0  0  0  0  0  0  0  0  0  0  0
   -5.6181   -1.0663   -1.3905 H   0  0  0  0  0  0  0  0  0  0  0  0
   -4.8308    0.3189    0.0951 C   0  0  0  0  0  0  0  0  0  0  0  0
   -3.7175    0.7222    0.8135 C   0  0  0  0  0  0  0  0  0  0  0  0
   -3.8109    1.5368    1.5481 H   0  0  0  0  0  0  0  0  0  0  0  0
   -1.3919    0.5377    1.4921 C   0  0  0  0  0  3  0  0  0  0  0  0
   -1.7151    1.2437    2.2931 H   0  0  0  0  0  0  0  0  0  0  0  0
    0.7107    0.6326    2.5792 C   0  0  0  0  0  0  0  0  0  0  0  0
    0.7643   -0.1799    3.3379 H   0  0  0  0  0  0  0  0  0  0  0  0
    0.2533    1.5157    3.0883 H   0  0  0  0  0  0  0  0  0  0  0  0
    2.1507    0.9288    2.1379 C   0  0  0  0  0  0  0  0  0  0  0  0
    2.7509    1.2179    3.0277 H   0  0  0  0  0  0  0  0  0  0  0  0
    2.5566   -0.0297    1.7452 H   0  0  0  0  0  0  0  0  0  0  0  0
    2.1827    2.0004    1.0640 C   0  0  0  0  0  0  0  0  0  0  0  0
    1.4761    1.7559    0.2392 H   0  0  0  0  0  0  0  0  0  0  0  0
    1.9283    3.0030    1.4648 H   0  0  0  0  0  0  0  0  0  0  0  0
    3.4369    3.2397   -0.6586 C   0  0  0  0  0  0  0  0  0  0  0  0
    2.7071    2.8889   -1.4166 H   0  0  0  0  0  0  0  0  0  0  0  0
    4.4311    3.3910   -1.1159 H   0  0  0  0  0  0  0  0  0  0  0  0
    3.0831    4.1727   -0.1840 H   0  0  0  0  0  0  0  0  0  0  0  0
    4.0648    0.8964   -0.2365 C   0  0  0  0  0  0  0  0  0  0  0  0
    3.3336    0.5669   -1.0042 H   0  0  0  0  0  0  0  0  0  0  0  0
    4.1542    0.1055    0.5271 H   0  0  0  0  0  0  0  0  0  0  0  0
    5.0473    1.1264   -0.6868 H   0  0  0  0  0  0  0  0  0  0  0  0
    4.2065    2.4632    1.1017 H   0  0  0  0  0  0  0  0  0  0  0  0
  2  6  1  0  0  0  0
  3 14  1  0  0  0  0
  3 16  1  0  0  0  0
  4 22  1  0  0  0  0
  4 33  1  0  0  0  0
  5 12  1  0  0  0  0
  5 14  1  0  0  0  0
  6  5  2  0  0  0  0
  7  9  2  0  0  0  0
  7  6  1  0  0  0  0
  8  7  1  0  0  0  0
  9 11  1  0  0  0  0
 10  9  1  0  0  0  0
 11  1  1  0  0  0  0
 11 12  2  0  0  0  0
 12 13  1  0  0  0  0
 14 15  1  0  0  0  0
 16 18  1  0  0  0  0
 16 17  1  0  0  0  0
 19 16  1  0  0  0  0
 19 20  1  0  0  0  0
 21 19  1  0  0  0  0
 22 24  1  0  0  0  0
 22 19  1  0  0  0  0
 23 22  1  0  0  0  0
 25 28  1  0  0  0  0
 25  4  1  0  0  0  0
 26 25  1  0  0  0  0
 27 25  1  0  0  0  0
 29  4  1  0  0  0  0
 29 31  1  0  0  0  0
 30 29  1  0  0  0  0
 32 29  1  0  0  0  0
M  CHG  2   2  -1   4   1
M  END
