5,6
 OpenBabel05122313063D

 21 22  0  0  1  0  0  0  0  0999 V2000
   -3.5926    2.8051    0.8988 F   0  0  0  0  0  0  0  0  0  0  0  0
   -3.3568    2.8025   -1.2716 F   0  0  0  0  0  0  0  0  0  0  0  0
   -2.6807    4.5174   -0.0960 F   0  0  0  0  0  0  0  0  0  0  0  0
    2.0842    3.4843    0.4136 O   0  0  0  0  0  0  0  0  0  0  0  0
   -1.4255    1.2245   -0.1877 O   0  5  0  0  0  0  0  0  0  0  0  0
    1.3171    1.4171   -0.0613 N   0  0  0  0  0  2  0  0  0  0  0  0
    2.7199    1.3977   -0.1786 C   0  0  0  0  0  0  0  0  0  0  0  0
    3.1771    2.6951    0.1440 C   0  0  0  0  0  0  0  0  0  0  0  0
    4.5141    3.0837    0.1398 C   0  0  0  0  0  0  0  0  0  0  0  0
    4.8131    4.1075    0.4025 H   0  0  0  0  0  0  0  0  0  0  0  0
    5.4386    2.0949   -0.2349 C   0  0  0  0  0  0  0  0  0  0  0  0
    6.5107    2.3393   -0.2576 H   0  0  0  0  0  0  0  0  0  0  0  0
    5.0083    0.8017   -0.6010 C   0  0  0  0  0  0  0  0  0  0  0  0
    5.7534    0.0546   -0.9122 H   0  0  0  0  0  0  0  0  0  0  0  0
    3.6552    0.4310   -0.5873 C   0  0  0  0  0  0  0  0  0  0  0  0
    3.3436   -0.5690   -0.8930 H   0  0  0  0  0  0  0  0  0  0  0  0
    0.9954    2.6824    0.2562 C   0  0  2  0  0  3  0  0  0  0  0  0
   -0.2898    3.2696    0.3222 C   0  0  0  0  0  0  0  0  0  0  0  0
   -0.3691    4.3449    0.5104 H   0  0  0  0  0  0  0  0  0  0  0  0
   -1.3961    2.5037    0.0216 C   0  0  0  0  0  0  0  0  0  0  0  0
   -2.7663    3.1725   -0.1167 C   0  0  0  0  0  0  0  0  0  0  0  0
  2 21  1  0  0  0  0
  5 20  1  0  0  0  0
  6 17  1  0  0  0  0
  7  6  1  0  0  0  0
  7  8  1  0  0  0  0
  8  4  1  0  0  0  0
  9  8  2  0  0  0  0
  9 10  1  0  0  0  0
 11  9  1  0  0  0  0
 12 11  1  0  0  0  0
 13 15  1  0  0  0  0
 13 11  2  0  0  0  0
 14 13  1  0  0  0  0
 15  7  2  0  0  0  0
 16 15  1  0  0  0  0
 17 18  1  6  0  0  0
 17  4  1  0  0  0  0
 18 19  1  0  0  0  0
 20 18  2  0  0  0  0
 21  3  1  0  0  0  0
 21 20  1  0  0  0  0
 21  1  1  0  0  0  0
M  CHG  1   5  -1
M  END
