1,2
 OpenBabel05122313063D

 35 38  0  0  0  0  0  0  0  0999 V2000
   -1.3972    0.3582   -1.5880 O   0  5  0  0  0  0  0  0  0  0  0  0
   -1.4444   -0.2720    0.9629 N   0  0  0  0  0  2  0  0  0  0  0  0
   -1.2908   -0.7058    2.1621 N   0  0  0  0  0  2  0  0  0  0  0  0
    0.7363    0.5244    2.4220 N   0  0  0  0  0  0  0  0  0  0  0  0
   -2.4960   -0.0708   -1.1165 C   0  0  0  0  0  0  0  0  0  0  0  0
   -3.6564   -0.2282   -1.9989 C   0  0  0  0  0  0  0  0  0  0  0  0
   -3.5068    0.0797   -3.3710 C   0  0  0  0  0  0  0  0  0  0  0  0
   -2.5194    0.4246   -3.7094 H   0  0  0  0  0  0  0  0  0  0  0  0
   -4.5793   -0.0565   -4.2489 C   0  0  0  0  0  0  0  0  0  0  0  0
   -4.4601    0.1812   -5.3165 H   0  0  0  0  0  0  0  0  0  0  0  0
   -5.8207   -0.5061   -3.7534 C   0  0  0  0  0  0  0  0  0  0  0  0
   -6.6768   -0.6212   -4.4358 H   0  0  0  0  0  0  0  0  0  0  0  0
   -5.9773   -0.8098   -2.4002 C   0  0  0  0  0  0  0  0  0  0  0  0
   -6.9585   -1.1594   -2.0524 H   0  0  0  0  0  0  0  0  0  0  0  0
   -4.9044   -0.6799   -1.4820 C   0  0  0  0  0  0  0  0  0  0  0  0
   -5.0386   -0.9850   -0.0501 C   0  0  0  0  0  0  0  0  0  0  0  0
   -6.2794   -1.3947    0.4913 C   0  0  0  0  0  0  0  0  0  0  0  0
   -7.1520   -1.4874   -0.1692 H   0  0  0  0  0  0  0  0  0  0  0  0
   -6.4378   -1.6834    1.8472 C   0  0  0  0  0  0  0  0  0  0  0  0
   -7.4192   -1.9995    2.2316 H   0  0  0  0  0  0  0  0  0  0  0  0
   -5.3339   -1.5650    2.7083 C   0  0  0  0  0  0  0  0  0  0  0  0
   -5.4398   -1.7876    3.7811 H   0  0  0  0  0  0  0  0  0  0  0  0
   -4.0927   -1.1680    2.2087 C   0  0  0  0  0  0  0  0  0  0  0  0
   -3.2251   -1.0897    2.8722 H   0  0  0  0  0  0  0  0  0  0  0  0
   -3.9070   -0.8658    0.8321 C   0  0  0  0  0  0  0  0  0  0  0  0
   -2.6291   -0.4158    0.2854 C   0  0  0  0  0  0  0  0  0  0  0  0
   -0.0729   -0.4861    2.8019 C   0  0  0  0  0  0  0  0  0  0  0  0
    0.2483   -1.3523    3.8759 C   0  0  0  0  0  0  0  0  0  0  0  0
   -0.4624   -2.1421    4.1572 H   0  0  0  0  0  0  0  0  0  0  0  0
    1.4771   -1.1880    4.5197 C   0  0  0  0  0  0  0  0  0  0  0  0
    1.7648   -1.8568    5.3451 H   0  0  0  0  0  0  0  0  0  0  0  0
    2.3403   -0.1627    4.0937 C   0  0  0  0  0  0  0  0  0  0  0  0
    3.3182   -0.0006    4.5698 H   0  0  0  0  0  0  0  0  0  0  0  0
    1.9114    0.6695    3.0463 C   0  0  0  0  0  0  0  0  0  0  0  0
    2.5480    1.5013    2.6931 H   0  0  0  0  0  0  0  0  0  0  0  0
  1  5  1  0  0  0  0
  2  3  1  0  0  0  0
  3 27  1  0  0  0  0
  4 27  2  0  0  0  0
  4 34  1  0  0  0  0
  5 26  1  0  0  0  0
  6 15  1  0  0  0  0
  6  5  2  0  0  0  0
  7  6  1  0  0  0  0
  8  7  1  0  0  0  0
  9 11  1  0  0  0  0
  9  7  2  0  0  0  0
 10  9  1  0  0  0  0
 11 13  2  0  0  0  0
 12 11  1  0  0  0  0
 13 14  1  0  0  0  0
 13 15  1  0  0  0  0
 15 16  2  0  0  0  0
 16 17  1  0  0  0  0
 16 25  1  0  0  0  0
 17 19  2  0  0  0  0
 18 17  1  0  0  0  0
 19 20  1  0  0  0  0
 19 21  1  0  0  0  0
 21 22  1  0  0  0  0
 23 21  2  0  0  0  0
 23 24  1  0  0  0  0
 25 23  1  0  0  0  0
 26 25  2  0  0  0  0
 26  2  1  0  0  0  0
 27 28  1  0  0  0  0
 28 29  1  0  0  0  0
 28 30  2  0  0  0  0
 30 31  1  0  0  0  0
 32 30  1  0  0  0  0
 32 33  1  0  0  0  0
 34 32  2  0  0  0  0
 35 34  1  0  0  0  0
M  CHG  1   1  -1
M  END
