1,2
 OpenBabel05122313063D

 31 33  0  0  0  0  0  0  0  0999 V2000
   -1.5980    1.4565    1.1303 O   0  5  0  0  0  0  0  0  0  0  0  0
    0.5783    1.2832   -0.8836 N   0  0  0  0  0  2  0  0  0  0  0  0
    1.7996    0.8274   -1.4563 C   0  0  0  0  0  0  0  0  0  0  0  0
    1.7823    0.0764   -2.6283 C   0  0  0  0  0  0  0  0  0  0  0  0
    0.8242   -0.0919   -3.1381 H   0  0  0  0  0  0  0  0  0  0  0  0
    2.9675   -0.5085   -3.1335 C   0  0  0  0  0  0  0  0  0  0  0  0
    2.9196   -1.1085   -4.0541 H   0  0  0  0  0  0  0  0  0  0  0  0
    4.1696   -0.3544   -2.4604 C   0  0  0  0  0  0  0  0  0  0  0  0
    5.0892   -0.8274   -2.8375 H   0  0  0  0  0  0  0  0  0  0  0  0
    4.2343    0.4150   -1.2638 C   0  0  0  0  0  0  0  0  0  0  0  0
    3.0347    1.0361   -0.7496 C   0  0  0  0  0  0  0  0  0  0  0  0
    3.1210    1.8028    0.4500 C   0  0  0  0  0  0  0  0  0  0  0  0
    2.2146    2.2750    0.8520 H   0  0  0  0  0  0  0  0  0  0  0  0
    4.3259    1.9448    1.1213 C   0  0  0  0  0  0  0  0  0  0  0  0
    4.3662    2.5334    2.0502 H   0  0  0  0  0  0  0  0  0  0  0  0
    5.5042    1.3283    0.6227 C   0  0  0  0  0  0  0  0  0  0  0  0
    6.4554    1.4457    1.1639 H   0  0  0  0  0  0  0  0  0  0  0  0
    5.4554    0.5836   -0.5456 C   0  0  0  0  0  0  0  0  0  0  0  0
    6.3655    0.1066   -0.9421 H   0  0  0  0  0  0  0  0  0  0  0  0
    0.3178    2.5714   -0.9098 C   0  0  0  0  0  3  0  0  0  0  0  0
    1.0133    3.2075   -1.4969 H   0  0  0  0  0  0  0  0  0  0  0  0
   -0.7606    3.2718   -0.2729 C   0  0  0  0  0  0  0  0  0  0  0  0
   -0.8991    4.6549   -0.6022 C   0  0  0  0  0  0  0  0  0  0  0  0
   -0.2072    5.0767   -1.3501 H   0  0  0  0  0  0  0  0  0  0  0  0
   -1.8616    5.4631   -0.0170 C   0  0  0  0  0  0  0  0  0  0  0  0
   -1.9510    6.5229   -0.2955 H   0  0  0  0  0  0  0  0  0  0  0  0
   -2.7217    4.8968    0.9597 C   0  0  0  0  0  0  0  0  0  0  0  0
   -3.4895    5.5254    1.4389 H   0  0  0  0  0  0  0  0  0  0  0  0
   -2.6107    3.5630    1.3236 C   0  0  0  0  0  0  0  0  0  0  0  0
   -3.2711    3.1164    2.0814 H   0  0  0  0  0  0  0  0  0  0  0  0
   -1.6420    2.6864    0.7261 C   0  0  0  0  0  0  0  0  0  0  0  0
  3  2  1  0  0  0  0
  3 11  1  0  0  0  0
  4  3  2  0  0  0  0
  5  4  1  0  0  0  0
  6  4  1  0  0  0  0
  6  8  2  0  0  0  0
  7  6  1  0  0  0  0
  8 10  1  0  0  0  0
  9  8  1  0  0  0  0
 10 11  2  0  0  0  0
 10 18  1  0  0  0  0
 11 12  1  0  0  0  0
 12 13  1  0  0  0  0
 12 14  2  0  0  0  0
 14 15  1  0  0  0  0
 16 14  1  0  0  0  0
 16 17  1  0  0  0  0
 18 16  2  0  0  0  0
 19 18  1  0  0  0  0
 20  2  1  0  0  0  0
 20 22  1  0  0  0  0
 21 20  1  0  0  0  0
 22 31  1  0  0  0  0
 23 22  2  0  0  0  0
 23 25  1  0  0  0  0
 24 23  1  0  0  0  0
 25 27  2  0  0  0  0
 26 25  1  0  0  0  0
 27 29  1  0  0  0  0
 27 28  1  0  0  0  0
 29 30  1  0  0  0  0
 31  1  1  0  0  0  0
 31 29  2  0  0  0  0
M  CHG  1   1  -1
M  END
