3,5
q = -1.0, confidence = 0.002

 20 21  0  0  1  0  0  0  0  0999 V2000
   -2.5291   -0.1266   -1.4513 C   0  0  2  0  0  3  0  0  0  0  0  0
   -1.7559   -0.2115   -2.7373 C   0  0  0  0  0  0  0  0  0  0  0  0
   -0.4622   -0.1747   -2.5045 O   0  5  0  0  0  0  0  0  0  0  0  0
   -2.2941   -0.3029   -3.8378 O   0  0  0  0  0  0  0  0  0  0  0  0
   -1.8735   -0.0315   -0.2828 N   0  0  0  0  0  2  0  0  0  0  0  0
   -3.8858   -0.1334   -1.2677 N   0  0  0  0  0  0  0  0  0  0  0  0
   -4.1147   -0.0372    0.0984 C   0  0  0  0  0  0  0  0  0  0  0  0
   -5.3060   -0.0012    0.8423 C   0  0  0  0  0  0  0  0  0  0  0  0
   -6.2917   -0.0511    0.3589 H   0  0  0  0  0  0  0  0  0  0  0  0
   -5.1774    0.1011    2.2314 C   0  0  0  0  0  0  0  0  0  0  0  0
   -6.0837    0.1323    2.8537 H   0  0  0  0  0  0  0  0  0  0  0  0
   -3.9066    0.1653    2.8580 C   0  0  0  0  0  0  0  0  0  0  0  0
   -3.8564    0.2450    3.9538 H   0  0  0  0  0  0  0  0  0  0  0  0
   -2.7203    0.1298    2.1195 C   0  0  0  0  0  0  0  0  0  0  0  0
   -1.7411    0.1801    2.6132 H   0  0  0  0  0  0  0  0  0  0  0  0
   -2.8296    0.0271    0.7184 C   0  0  0  0  0  0  0  0  0  0  0  0
   -4.9090   -0.2238   -2.3010 C   0  0  0  0  0  0  0  0  0  0  0  0
   -5.5572    0.6742   -2.2694 H   0  0  0  0  0  0  0  0  0  0  0  0
   -5.5323   -1.1249   -2.1363 H   0  0  0  0  0  0  0  0  0  0  0  0
   -4.3976   -0.2892   -3.2785 H   0  0  0  0  0  0  0  0  0  0  0  0
  1  2  1  1  0  0  0
  1  6  1  0  0  0  0
  1  5  1  0  0  0  0
  2  3  1  0  0  0  0
  4  2  2  0  0  0  0
  5 16  1  0  0  0  0
  6  7  1  0  0  0  0
  7 16  2  0  0  0  0
  7  8  1  0  0  0  0
  8 10  2  0  0  0  0
  9  8  1  0  0  0  0
 10 11  1  0  0  0  0
 10 12  1  0  0  0  0
 12 13  1  0  0  0  0
 14 15  1  0  0  0  0
 14 12  2  0  0  0  0
 16 14  1  0  0  0  0
 17 18  1  0  0  0  0
 17 19  1  0  0  0  0
 17  6  1  0  0  0  0
 20 17  1  0  0  0  0
M  CHG  1   3  -1
M  END
