1,2
 OpenBabel05122313063D

 48 50  0  0  0  0  0  0  0  0999 V2000
    0.5976    0.6054   -0.1336 O   0  5  0  0  0  0  0  0  0  0  0  0
   -2.1391    0.5064   -0.2006 N   0  0  0  0  0  2  0  0  0  0  0  0
    3.1856    0.7433   -0.1976 N   0  0  0  0  0  4  0  0  0  0  0  0
    0.5211    1.8926   -0.1578 C   0  0  0  0  0  0  0  0  0  0  0  0
   -0.7496    2.5648   -0.1917 C   0  0  0  0  0  0  0  0  0  0  0  0
   -0.7694    3.9715   -0.2282 C   0  0  0  0  0  0  0  0  0  0  0  0
    0.4056    4.7643   -0.2218 C   0  0  0  0  0  0  0  0  0  0  0  0
    1.6370    4.1096   -0.2117 C   0  0  0  0  0  0  0  0  0  0  0  0
    1.7292    2.6863   -0.1892 C   0  0  0  0  0  0  0  0  0  0  0  0
    0.3042    6.2686   -0.2342 C   0  0  0  0  0  0  0  0  0  0  0  0
   -1.9781    1.8179   -0.2852 C   0  0  0  0  0  3  0  0  0  0  0  0
   -3.4957    0.0468   -0.3789 C   0  0  0  0  0  0  0  0  0  0  0  0
   -3.8146   -0.8028   -1.4524 C   0  0  0  0  0  0  0  0  0  0  0  0
   -5.1372   -1.2264   -1.6173 C   0  0  0  0  0  0  0  0  0  0  0  0
   -6.1569   -0.8334   -0.7226 C   0  0  0  0  0  0  0  0  0  0  0  0
   -5.8061    0.0068    0.3519 C   0  0  0  0  0  0  0  0  0  0  0  0
   -4.4874    0.4482    0.5307 C   0  0  0  0  0  0  0  0  0  0  0  0
   -7.5696   -1.3279   -0.9033 C   0  0  0  0  0  0  0  0  0  0  0  0
    3.0035    2.0573   -0.2154 C   0  0  0  0  0  0  0  0  0  0  0  0
    4.3939    0.0239   -0.2668 C   0  0  0  0  0  0  0  0  0  0  0  0
    4.3058   -1.3771   -0.4148 C   0  0  0  0  0  0  0  0  0  0  0  0
    5.4730   -2.1384   -0.5042 C   0  0  0  0  0  0  0  0  0  0  0  0
    6.7506   -1.5411   -0.4475 C   0  0  0  0  0  0  0  0  0  0  0  0
    6.8147   -0.1396   -0.2963 C   0  0  0  0  0  0  0  0  0  0  0  0
    5.6586    0.6422   -0.2045 C   0  0  0  0  0  0  0  0  0  0  0  0
    7.9986   -2.3801   -0.5269 C   0  0  0  0  0  0  0  0  0  0  0  0
   -1.7493    4.4759   -0.2658 H   0  0  0  0  0  0  0  0  0  0  0  0
    2.5693    4.6969   -0.2239 H   0  0  0  0  0  0  0  0  0  0  0  0
   -0.2921    6.6267   -1.0990 H   0  0  0  0  0  0  0  0  0  0  0  0
   -0.1984    6.6453    0.6812 H   0  0  0  0  0  0  0  0  0  0  0  0
    1.3021    6.7442   -0.2901 H   0  0  0  0  0  0  0  0  0  0  0  0
   -2.8896    2.4032   -0.5017 H   0  0  0  0  0  0  0  0  0  0  0  0
   -3.0145   -1.1239   -2.1357 H   0  0  0  0  0  0  0  0  0  0  0  0
   -5.3856   -1.8860   -2.4638 H   0  0  0  0  0  0  0  0  0  0  0  0
   -6.5789    0.3141    1.0738 H   0  0  0  0  0  0  0  0  0  0  0  0
   -4.2084    1.0753    1.3900 H   0  0  0  0  0  0  0  0  0  0  0  0
   -8.2756   -0.8079   -0.2274 H   0  0  0  0  0  0  0  0  0  0  0  0
   -7.9201   -1.1824   -1.9456 H   0  0  0  0  0  0  0  0  0  0  0  0
   -7.6411   -2.4157   -0.6900 H   0  0  0  0  0  0  0  0  0  0  0  0
    3.9016    2.6938   -0.2730 H   0  0  0  0  0  0  0  0  0  0  0  0
    3.3142   -1.8559   -0.4470 H   0  0  0  0  0  0  0  0  0  0  0  0
    5.3881   -3.2301   -0.6198 H   0  0  0  0  0  0  0  0  0  0  0  0
    7.7984    0.3522   -0.2438 H   0  0  0  0  0  0  0  0  0  0  0  0
    5.7554    1.7296   -0.0744 H   0  0  0  0  0  0  0  0  0  0  0  0
    8.9091   -1.7564   -0.6111 H   0  0  0  0  0  0  0  0  0  0  0  0
    8.1081   -3.0164    0.3769 H   0  0  0  0  0  0  0  0  0  0  0  0
    7.9683   -3.0664   -1.3978 H   0  0  0  0  0  0  0  0  0  0  0  0
    2.2869    0.2030   -0.1403 H   0  0  0  0  0  0  0  0  0  0  0  0
  3 48  1  0  0  0  0
  4  1  1  0  0  0  0
  5  4  2  0  0  0  0
  6  7  2  0  0  0  0
  6  5  1  0  0  0  0
  7  8  1  0  0  0  0
  8  9  2  0  0  0  0
  9  4  1  0  0  0  0
 10  7  1  0  0  0  0
 10 30  1  0  0  0  0
 11  2  1  0  0  0  0
 11  5  1  0  0  0  0
 12  2  1  0  0  0  0
 12 17  1  0  0  0  0
 13 12  2  0  0  0  0
 14 13  1  0  0  0  0
 14 15  2  0  0  0  0
 15 16  1  0  0  0  0
 16 17  2  0  0  0  0
 16 35  1  0  0  0  0
 17 36  1  0  0  0  0
 18 15  1  0  0  0  0
 18 39  1  0  0  0  0
 18 37  1  0  0  0  0
 19  3  2  0  0  0  0
 19  9  1  0  0  0  0
 20 25  1  0  0  0  0
 20  3  1  0  0  0  0
 21 20  2  0  0  0  0
 22 23  2  0  0  0  0
 22 21  1  0  0  0  0
 23 24  1  0  0  0  0
 24 43  1  0  0  0  0
 24 25  2  0  0  0  0
 25 44  1  0  0  0  0
 26 23  1  0  0  0  0
 26 46  1  0  0  0  0
 27  6  1  0  0  0  0
 28  8  1  0  0  0  0
 29 10  1  0  0  0  0
 31 10  1  0  0  0  0
 32 11  1  0  0  0  0
 33 13  1  0  0  0  0
 34 14  1  0  0  0  0
 38 18  1  0  0  0  0
 40 19  1  0  0  0  0
 41 21  1  0  0  0  0
 42 22  1  0  0  0  0
 45 26  1  0  0  0  0
 47 26  1  0  0  0  0
M  CHG  1   1  -1
M  END
