1,15
 OpenBabel05122313063D

 32 33  0  0  1  0  0  0  0  0999 V2000
    1.0939   -0.5973   -1.3674 O   0  5  0  0  0  0  0  0  0  0  0  0
    2.3570   -0.2708   -1.2008 C   0  0  0  0  0  0  0  0  0  0  0  0
    3.3469   -0.8285   -2.0557 C   0  0  0  0  0  0  0  0  0  0  0  0
    3.0099   -1.5295   -2.8322 H   0  0  0  0  0  0  0  0  0  0  0  0
    4.6889   -0.5086   -1.9068 C   0  0  0  0  0  0  0  0  0  0  0  0
    5.4558   -0.9393   -2.5672 H   0  0  0  0  0  0  0  0  0  0  0  0
    6.4455    0.6459   -0.7974 O   0  0  0  0  0  0  0  0  0  0  0  0
    6.5854    1.2912   -0.0803 H   0  0  0  0  0  0  0  0  0  0  0  0
    5.1061    0.3908   -0.8871 C   0  0  0  0  0  0  0  0  0  0  0  0
    4.1556    0.9691   -0.0490 C   0  0  0  0  0  0  0  0  0  0  0  0
    4.4679    1.6814    0.7336 H   0  0  0  0  0  0  0  0  0  0  0  0
    2.7708    0.6561   -0.1824 C   0  0  0  0  0  0  0  0  0  0  0  0
    1.8016    1.2874    0.6471 C   0  0  0  0  0  3  0  0  0  0  0  0
    2.1537    2.1274    1.2760 H   0  0  0  0  0  0  0  0  0  0  0  0
    0.5034    0.9803    0.7113 N   0  0  0  0  0  2  0  0  0  0  0  0
   -0.3033    1.9492    1.5225 C   0  0  2  0  0  0  0  0  0  0  0  0
    0.2314    2.0873    2.4896 H   0  0  0  0  0  0  0  0  0  0  0  0
   -1.7274    1.4833    1.8280 C   0  0  0  0  0  0  0  0  0  0  0  0
   -1.7474    0.5281    2.3797 H   0  0  0  0  0  0  0  0  0  0  0  0
   -2.3189    1.3640    0.9018 H   0  0  0  0  0  0  0  0  0  0  0  0
   -2.2208    2.2576    2.4478 H   0  0  0  0  0  0  0  0  0  0  0  0
   -0.3346    3.2979    0.8110 C   0  0  0  0  0  0  0  0  0  0  0  0
    0.0677    4.4711    1.4736 C   0  0  0  0  0  0  0  0  0  0  0  0
    0.4287    4.4091    2.5133 H   0  0  0  0  0  0  0  0  0  0  0  0
    0.0134    5.7153    0.8239 C   0  0  0  0  0  0  0  0  0  0  0  0
    0.3334    6.6250    1.3549 H   0  0  0  0  0  0  0  0  0  0  0  0
   -0.4429    5.7951   -0.4999 C   0  0  0  0  0  0  0  0  0  0  0  0
   -0.4829    6.7679   -1.0134 H   0  0  0  0  0  0  0  0  0  0  0  0
   -0.8462    4.6261   -1.1681 C   0  0  0  0  0  0  0  0  0  0  0  0
   -1.2037    4.6817   -2.2078 H   0  0  0  0  0  0  0  0  0  0  0  0
   -0.7952    3.3854   -0.5191 C   0  0  0  0  0  0  0  0  0  0  0  0
   -1.1116    2.4702   -1.0449 H   0  0  0  0  0  0  0  0  0  0  0  0
  1  2  1  0  0  0  0
  2 12  1  0  0  0  0
  3  5  1  0  0  0  0
  3  2  2  0  0  0  0
  4  3  1  0  0  0  0
  5  9  2  0  0  0  0
  6  5  1  0  0  0  0
  7  8  1  0  0  0  0
  9  7  1  0  0  0  0
  9 10  1  0  0  0  0
 10 11  1  0  0  0  0
 12 10  2  0  0  0  0
 12 13  1  0  0  0  0
 13 15  1  0  0  0  0
 13 14  1  0  0  0  0
 15 16  1  0  0  0  0
 16 18  1  0  0  0  0
 16 17  1  1  0  0  0
 18 19  1  0  0  0  0
 18 21  1  0  0  0  0
 20 18  1  0  0  0  0
 22 23  1  0  0  0  0
 22 16  1  0  0  0  0
 23 24  1  0  0  0  0
 25 26  1  0  0  0  0
 25 23  2  0  0  0  0
 27 25  1  0  0  0  0
 28 27  1  0  0  0  0
 29 31  1  0  0  0  0
 29 27  2  0  0  0  0
 30 29  1  0  0  0  0
 31 22  2  0  0  0  0
 32 31  1  0  0  0  0
M  CHG  1   1  -1
M  END
