1,2
 OpenBabel05122313063D

 28 29  0  0  0  0  0  0  0  0999 V2000
   -1.5354   -0.6104   -0.8465 O   0  5  0  0  0  0  0  0  0  0  0  0
   -0.8097    1.6650   -0.1980 N   0  0  0  0  0  2  0  0  0  0  0  0
   -2.0455    1.6395   -0.8014 N   0  0  0  0  0  0  0  0  0  0  0  0
   -4.6162   -0.5280   -0.6601 C   0  0  0  0  0  0  0  0  0  0  0  0
   -0.2901    2.8104    0.1893 C   0  0  0  0  0  3  0  0  0  0  0  0
    0.7026    2.7383    0.6602 H   0  0  0  0  0  0  0  0  0  0  0  0
   -2.3384    0.3835   -1.1004 C   0  0  0  0  0  0  0  0  0  0  0  0
   -5.0252    0.2540    0.4394 C   0  0  0  0  0  0  0  0  0  0  0  0
   -4.6579    1.2890    0.5265 H   0  0  0  0  0  0  0  0  0  0  0  0
   -5.0657   -1.8577   -0.7519 C   0  0  0  0  0  0  0  0  0  0  0  0
   -4.7438   -2.4792   -1.6024 H   0  0  0  0  0  0  0  0  0  0  0  0
   -3.6822    0.0606   -1.7035 C   0  0  0  0  0  0  0  0  0  0  0  0
   -3.5333   -0.6632   -2.5285 H   0  0  0  0  0  0  0  0  0  0  0  0
   -4.1044    0.9940   -2.1235 H   0  0  0  0  0  0  0  0  0  0  0  0
   -0.1291    5.1475    0.5583 O   0  0  0  0  0  0  0  0  0  0  0  0
   -0.8832    4.1035    0.0572 C   0  0  0  0  0  0  0  0  0  0  0  0
   -2.0722    4.6080   -0.4682 C   0  0  0  0  0  0  0  0  0  0  0  0
   -2.8468    3.9915   -0.9308 H   0  0  0  0  0  0  0  0  0  0  0  0
   -5.8744   -0.2804    1.4180 C   0  0  0  0  0  0  0  0  0  0  0  0
   -6.1864    0.3426    2.2703 H   0  0  0  0  0  0  0  0  0  0  0  0
   -0.8300    6.2872    0.3526 C   0  0  0  0  0  0  0  0  0  0  0  0
   -0.3550    7.2104    0.7011 H   0  0  0  0  0  0  0  0  0  0  0  0
   -6.3246   -1.6072    1.3142 C   0  0  0  0  0  0  0  0  0  0  0  0
   -6.9913   -2.0273    2.0827 H   0  0  0  0  0  0  0  0  0  0  0  0
   -5.9170   -2.3947    0.2270 C   0  0  0  0  0  0  0  0  0  0  0  0
   -6.2617   -3.4365    0.1396 H   0  0  0  0  0  0  0  0  0  0  0  0
   -2.0315    6.0188   -0.2742 C   0  0  0  0  0  0  0  0  0  0  0  0
   -2.7928    6.7526   -0.5608 H   0  0  0  0  0  0  0  0  0  0  0  0
  2  5  1  0  0  0  0
  3  2  1  0  0  0  0
  4  8  1  0  0  0  0
  5  6  1  0  0  0  0
  7  1  1  0  0  0  0
  7  3  2  0  0  0  0
  8  9  1  0  0  0  0
  8 19  2  0  0  0  0
 10  4  2  0  0  0  0
 10 25  1  0  0  0  0
 11 10  1  0  0  0  0
 12  7  1  0  0  0  0
 12  4  1  0  0  0  0
 13 12  1  0  0  0  0
 14 12  1  0  0  0  0
 16  5  1  0  0  0  0
 16 15  1  0  0  0  0
 17 27  1  0  0  0  0
 17 16  2  0  0  0  0
 18 17  1  0  0  0  0
 19 20  1  0  0  0  0
 21 15  1  0  0  0  0
 21 22  1  0  0  0  0
 23 19  1  0  0  0  0
 23 24  1  0  0  0  0
 25 23  2  0  0  0  0
 26 25  1  0  0  0  0
 27 21  2  0  0  0  0
 28 27  1  0  0  0  0
M  CHG  1   1  -1
M  END
