1,2
 OpenBabel05122313063D

 29 29  0  0  0  0  0  0  0  0999 V2000
   -1.3098   -1.0485   -0.8855 O   0  5  0  0  0  0  0  0  0  0  0  0
   -1.0842    1.7153   -0.1527 N   0  0  0  0  0  0  0  0  0  0  0  0
   -2.5883   -0.8907   -0.5699 C   0  0  0  0  0  0  0  0  0  0  0  0
   -3.1770    0.4097   -0.5772 C   0  0  0  0  0  0  0  0  0  0  0  0
   -4.5279    0.5811   -0.2416 C   0  0  0  0  0  0  0  0  0  0  0  0
   -5.3335   -0.5216    0.0868 C   0  0  0  0  0  0  0  0  0  0  0  0
   -4.7690   -1.8098    0.0680 C   0  0  0  0  0  0  0  0  0  0  0  0
   -3.4187   -1.9984   -0.2516 C   0  0  0  0  0  0  0  0  0  0  0  0
   -2.2866    1.5237   -1.0261 C   0  0  0  0  0  0  0  0  0  0  0  0
   -0.2295    2.8055   -0.7097 C   0  0  0  0  0  0  0  0  0  0  0  0
    0.5068    2.4211   -1.9861 C   0  0  0  0  0  0  0  0  0  0  0  0
   -1.4705    2.0003    1.2650 C   0  0  0  0  0  0  0  0  0  0  0  0
   -2.2888    3.2678    1.5091 C   0  0  0  0  0  0  0  0  0  0  0  0
   -4.9602    1.5958   -0.2558 H   0  0  0  0  0  0  0  0  0  0  0  0
   -6.3926   -0.3792    0.3467 H   0  0  0  0  0  0  0  0  0  0  0  0
   -5.3929   -2.6838    0.3136 H   0  0  0  0  0  0  0  0  0  0  0  0
   -2.9779   -3.0067   -0.2699 H   0  0  0  0  0  0  0  0  0  0  0  0
   -2.8500    2.4802   -1.0878 H   0  0  0  0  0  0  0  0  0  0  0  0
   -1.8976    1.2931   -2.0380 H   0  0  0  0  0  0  0  0  0  0  0  0
   -0.8663    3.7014   -0.8865 H   0  0  0  0  0  0  0  0  0  0  0  0
    0.5062    3.0511    0.0771 H   0  0  0  0  0  0  0  0  0  0  0  0
    1.1445    3.2663   -2.3133 H   0  0  0  0  0  0  0  0  0  0  0  0
    1.1656    1.5489   -1.8037 H   0  0  0  0  0  0  0  0  0  0  0  0
   -0.1759    2.1754   -2.8230 H   0  0  0  0  0  0  0  0  0  0  0  0
   -2.0459    1.1182    1.6127 H   0  0  0  0  0  0  0  0  0  0  0  0
   -0.5184    2.0308    1.8293 H   0  0  0  0  0  0  0  0  0  0  0  0
   -2.4860    3.3580    2.5957 H   0  0  0  0  0  0  0  0  0  0  0  0
   -1.7551    4.1870    1.1960 H   0  0  0  0  0  0  0  0  0  0  0  0
   -3.2732    3.2429    1.0010 H   0  0  0  0  0  0  0  0  0  0  0  0
  1  3  1  0  0  0  0
  2 12  1  0  0  0  0
  3  8  1  0  0  0  0
  4  3  2  0  0  0  0
  4  5  1  0  0  0  0
  5  6  2  0  0  0  0
  6 15  1  0  0  0  0
  7  6  1  0  0  0  0
  7 16  1  0  0  0  0
  8  7  2  0  0  0  0
  9  4  1  0  0  0  0
  9  2  1  0  0  0  0
 10  2  1  0  0  0  0
 10 21  1  0  0  0  0
 11 23  1  0  0  0  0
 11 10  1  0  0  0  0
 12 13  1  0  0  0  0
 12 25  1  0  0  0  0
 12 26  1  0  0  0  0
 13 27  1  0  0  0  0
 14  5  1  0  0  0  0
 17  8  1  0  0  0  0
 18  9  1  0  0  0  0
 19  9  1  0  0  0  0
 20 10  1  0  0  0  0
 22 11  1  0  0  0  0
 24 11  1  0  0  0  0
 28 13  1  0  0  0  0
 29 13  1  0  0  0  0
M  CHG  1   1  -1
M  END
