1,12
 OpenBabel05122313063D

 25 26  0  0  0  0  0  0  0  0999 V2000
    2.3280   -0.2347   -2.3104 O   0  5  0  0  0  0  0  0  0  0  0  0
    3.2594   -0.1452   -1.4956 C   0  0  0  0  0  0  0  0  0  0  0  0
    4.5072   -0.6686   -1.7431 N   0  0  0  0  0  0  0  0  0  0  0  0
    5.6418   -0.6602   -0.9100 C   0  0  0  0  0  0  0  0  0  0  0  0
    5.4815    0.0327    0.3021 N   0  0  0  0  0  0  0  0  0  0  0  0
    6.6133    0.0848    1.2268 C   0  0  0  0  0  0  0  0  0  0  0  0
    6.3435   -0.4000    2.1842 H   0  0  0  0  0  0  0  0  0  0  0  0
    6.8867    1.1366    1.4347 H   0  0  0  0  0  0  0  0  0  0  0  0
    7.4515   -0.4478    0.7469 H   0  0  0  0  0  0  0  0  0  0  0  0
    4.2826    0.6300    0.6538 C   0  0  0  0  0  0  0  0  0  0  0  0
    3.1695    0.5585   -0.2071 C   0  0  0  0  0  0  0  0  0  0  0  0
    1.9984    1.1100    0.1422 N   0  0  0  0  0  2  0  0  0  0  0  0
    1.8841    1.7692    1.3029 C   0  0  0  0  0  0  0  0  0  0  0  0
    0.5753    2.3939    1.6691 C   0  0  0  0  0  0  0  0  0  0  0  0
   -0.1323    2.3712    0.8210 H   0  0  0  0  0  0  0  0  0  0  0  0
    0.7185    3.4411    2.0046 H   0  0  0  0  0  0  0  0  0  0  0  0
    0.0959    1.8354    2.4988 H   0  0  0  0  0  0  0  0  0  0  0  0
    3.0335    1.8356    2.1648 C   0  0  0  0  0  0  0  0  0  0  0  0
    2.9528    2.5394    3.4860 C   0  0  0  0  0  0  0  0  0  0  0  0
    3.9114    2.4363    4.0241 H   0  0  0  0  0  0  0  0  0  0  0  0
    2.1341    2.1222    4.1079 H   0  0  0  0  0  0  0  0  0  0  0  0
    2.7261    3.6178    3.3505 H   0  0  0  0  0  0  0  0  0  0  0  0
    4.1981    1.2652    1.8347 N   0  0  0  0  0  0  0  0  0  0  0  0
    6.6766   -1.2082   -1.2448 O   0  0  0  0  0  0  0  0  0  0  0  0
    4.6283   -1.1969   -2.6135 H   0  0  0  0  0  0  0  0  0  0  0  0
  1  2  1  0  0  0  0
  2 11  2  0  0  0  0
  3  2  1  0  0  0  0
  3  4  1  0  0  0  0
  4  5  1  0  0  0  0
  5 10  1  0  0  0  0
  5  6  1  0  0  0  0
  6  8  1  0  0  0  0
  6  7  1  0  0  0  0
  9  6  1  0  0  0  0
 10 23  2  0  0  0  0
 11 12  1  0  0  0  0
 11 10  1  0  0  0  0
 12 13  1  0  0  0  0
 13 14  1  0  0  0  0
 13 18  2  0  0  0  0
 14 16  1  0  0  0  0
 14 17  1  0  0  0  0
 15 14  1  0  0  0  0
 18 19  1  0  0  0  0
 19 20  1  0  0  0  0
 19 21  1  0  0  0  0
 22 19  1  0  0  0  0
 23 18  1  0  0  0  0
 24  4  2  0  0  0  0
 25  3  1  0  0  0  0
M  CHG  1   1  -1
M  END
