1,5
 OpenBabel05122313063D

 15 15  0  0  0  0  0  0  0  0999 V2000
   -1.8999    0.3533    0.4088 N   0  0  0  0  0  2  0  0  0  0  0  0
   -2.4132   -3.2102    0.3040 N   0  0  0  0  0  0  0  0  0  0  0  0
   -1.7947   -4.0236    0.3092 H   0  0  0  0  0  0  0  0  0  0  0  0
   -3.4129   -3.3570    0.1791 H   0  0  0  0  0  0  0  0  0  0  0  0
   -0.6174   -1.8380    0.4899 O   0  5  0  0  0  0  0  0  0  0  0  0
   -2.6946   -0.7598    0.3630 C   0  0  0  0  0  0  0  0  0  0  0  0
   -4.0894   -0.6678    0.3767 C   0  0  0  0  0  0  0  0  0  0  0  0
   -4.7141   -1.5725    0.3476 H   0  0  0  0  0  0  0  0  0  0  0  0
   -4.6863    0.6002    0.4370 C   0  0  0  0  0  0  0  0  0  0  0  0
   -5.7810    0.7009    0.4455 H   0  0  0  0  0  0  0  0  0  0  0  0
   -3.8600    1.7327    0.4977 C   0  0  0  0  0  0  0  0  0  0  0  0
   -4.2856    2.7443    0.5594 H   0  0  0  0  0  0  0  0  0  0  0  0
   -2.4697    1.5731    0.4851 C   0  0  0  0  0  0  0  0  0  0  0  0
   -1.7698    2.4198    0.5362 H   0  0  0  0  0  0  0  0  0  0  0  0
   -1.8676   -1.9895    0.3677 C   0  0  0  0  0  0  0  0  0  0  0  0
  1 13  1  0  0  0  0
  2  3  1  0  0  0  0
  2 15  1  0  0  0  0
  4  2  1  0  0  0  0
  6 15  2  0  0  0  0
  6  7  1  0  0  0  0
  6  1  1  0  0  0  0
  7  9  2  0  0  0  0
  8  7  1  0  0  0  0
  9 10  1  0  0  0  0
  9 11  1  0  0  0  0
 11 12  1  0  0  0  0
 13 11  2  0  0  0  0
 13 14  1  0  0  0  0
 15  5  1  0  0  0  0
M  CHG  1   5  -1
M  END
