1,4
 OpenBabel05122313063D

 32 32  0  0  1  0  0  0  0  0999 V2000
   -0.5226    1.9230    0.5891 N   0  0  0  0  0  2  0  0  0  0  0  0
    0.1996    1.7924    3.4092 O   0  0  0  0  0  0  0  0  0  0  0  0
   -0.3075    2.5736    3.7015 H   0  0  0  0  0  0  0  0  0  0  0  0
   -1.5525   -0.4256   -0.8518 O   0  5  0  0  0  0  0  0  0  0  0  0
   -3.6237   -1.6290   -1.8629 O   0  0  0  0  0  0  0  0  0  0  0  0
    1.1091    2.2128    2.3841 C   0  0  0  0  0  0  0  0  0  0  0  0
    1.6394    1.2984    2.0455 H   0  0  0  0  0  0  0  0  0  0  0  0
    1.8710    2.9078    2.8021 H   0  0  0  0  0  0  0  0  0  0  0  0
    0.4168    2.8659    1.1833 C   0  0  1  0  0  0  0  0  0  0  0  0
   -0.1544    3.7581    1.5554 H   0  0  0  0  0  0  0  0  0  0  0  0
    1.4573    3.3596    0.1561 C   0  0  0  0  0  0  0  0  0  0  0  0
    2.1587    4.0386    0.6891 H   0  0  0  0  0  0  0  0  0  0  0  0
    2.0387    2.4831   -0.1991 H   0  0  0  0  0  0  0  0  0  0  0  0
    0.8358    4.0787   -1.0383 C   0  0  0  0  0  0  0  0  0  0  0  0
    0.1798    3.3978   -1.6166 H   0  0  0  0  0  0  0  0  0  0  0  0
    1.6229    4.4405   -1.7293 H   0  0  0  0  0  0  0  0  0  0  0  0
    0.2275    4.9562   -0.7305 H   0  0  0  0  0  0  0  0  0  0  0  0
   -1.7328    2.3299    0.3034 C   0  0  0  0  0  3  0  0  0  0  0  0
   -1.9942    3.3778    0.5813 H   0  0  0  0  0  0  0  0  0  0  0  0
   -2.7983    1.6009   -0.3293 C   0  0  0  0  0  0  0  0  0  0  0  0
   -2.6455    0.2626   -0.8561 C   0  0  0  0  0  0  0  0  0  0  0  0
   -3.8286   -0.3512   -1.4358 C   0  0  0  0  0  0  0  0  0  0  0  0
   -5.0387    0.3346   -1.5121 C   0  0  0  0  0  0  0  0  0  0  0  0
   -5.9207   -0.1478   -1.9563 H   0  0  0  0  0  0  0  0  0  0  0  0
   -5.1538    1.6607   -1.0152 C   0  0  0  0  0  0  0  0  0  0  0  0
   -6.1165    2.1865   -1.0914 H   0  0  0  0  0  0  0  0  0  0  0  0
   -4.0576    2.2727   -0.4358 C   0  0  0  0  0  0  0  0  0  0  0  0
   -4.1369    3.2978   -0.0393 H   0  0  0  0  0  0  0  0  0  0  0  0
   -4.7134   -2.3150   -2.4357 C   0  0  0  0  0  0  0  0  0  0  0  0
   -5.5639   -2.4207   -1.7226 H   0  0  0  0  0  0  0  0  0  0  0  0
   -4.3452   -3.3225   -2.7068 H   0  0  0  0  0  0  0  0  0  0  0  0
   -5.0900   -1.8087   -3.3546 H   0  0  0  0  0  0  0  0  0  0  0  0
  1  9  1  0  0  0  0
  2  3  1  0  0  0  0
  5 22  1  0  0  0  0
  6  8  1  0  0  0  0
  6  2  1  0  0  0  0
  7  6  1  0  0  0  0
  9 10  1  1  0  0  0
  9  6  1  0  0  0  0
 11 12  1  0  0  0  0
 11  9  1  0  0  0  0
 13 11  1  0  0  0  0
 14 17  1  0  0  0  0
 14 11  1  0  0  0  0
 15 14  1  0  0  0  0
 16 14  1  0  0  0  0
 18 19  1  0  0  0  0
 18  1  1  0  0  0  0
 20 18  1  0  0  0  0
 21  4  1  0  0  0  0
 21 20  2  0  0  0  0
 22 21  1  0  0  0  0
 23 22  2  0  0  0  0
 23 25  1  0  0  0  0
 24 23  1  0  0  0  0
 25 27  2  0  0  0  0
 26 25  1  0  0  0  0
 27 20  1  0  0  0  0
 27 28  1  0  0  0  0
 29  5  1  0  0  0  0
 29 30  1  0  0  0  0
 31 29  1  0  0  0  0
 32 29  1  0  0  0  0
M  CHG  1   4  -1
M  END
