1,2
 OpenBabel05122313063D

 30 32  0  0  0  0  0  0  0  0999 V2000
   -1.5388    0.9079    0.5115 O   0  5  0  0  0  0  0  0  0  0  0  0
    1.0480    1.6217   -0.0140 N   0  0  0  0  0  2  0  0  0  0  0  0
    4.4427    2.0760   -1.4336 N   0  0  0  0  0  0  0  0  0  0  0  0
   -1.8202    2.1760    0.4261 C   0  0  0  0  0  0  0  0  0  0  0  0
   -3.1683    2.5967    0.6483 C   0  0  0  0  0  0  0  0  0  0  0  0
   -3.9116    1.8198    0.8777 H   0  0  0  0  0  0  0  0  0  0  0  0
   -3.5174    3.9390    0.5615 C   0  0  0  0  0  0  0  0  0  0  0  0
   -4.5666    4.2312    0.7254 H   0  0  0  0  0  0  0  0  0  0  0  0
   -2.5512    4.9360    0.2678 C   0  0  0  0  0  0  0  0  0  0  0  0
   -2.8453    5.9934    0.2060 H   0  0  0  0  0  0  0  0  0  0  0  0
   -1.2312    4.5569    0.0679 C   0  0  0  0  0  3  0  0  0  0  0  0
   -0.4600    5.3137   -0.1485 H   0  0  0  0  0  0  0  0  0  0  0  0
   -0.8379    3.1889    0.1351 C   0  0  0  0  0  0  0  0  0  0  0  0
    0.5362    2.8408   -0.0153 C   0  0  0  0  0  0  0  0  0  0  0  0
    1.2494    3.6839   -0.0976 H   0  0  0  0  0  0  0  0  0  0  0  0
    2.4632    1.5357   -0.1318 C   0  0  0  0  0  0  0  0  0  0  0  0
    3.2213    0.8484    0.8060 C   0  0  0  0  0  0  0  0  0  0  0  0
    2.7303    0.3612    1.6612 H   0  0  0  0  0  0  0  0  0  0  0  0
    4.6267    0.7649    0.6391 C   0  0  0  0  0  0  0  0  0  0  0  0
    5.4781    0.0669    1.5459 C   0  0  0  0  0  0  0  0  0  0  0  0
    5.0296   -0.4296    2.4204 H   0  0  0  0  0  0  0  0  0  0  0  0
    6.8452    0.0114    1.3219 C   0  0  0  0  0  0  0  0  0  0  0  0
    7.4957   -0.5308    2.0248 H   0  0  0  0  0  0  0  0  0  0  0  0
    7.4165    0.6506    0.1861 C   0  0  0  0  0  0  0  0  0  0  0  0
    8.5038    0.5974    0.0242 H   0  0  0  0  0  0  0  0  0  0  0  0
    6.6146    1.3347   -0.7152 C   0  0  0  0  0  0  0  0  0  0  0  0
    7.0271    1.8343   -1.6036 H   0  0  0  0  0  0  0  0  0  0  0  0
    5.2049    1.4085   -0.5175 C   0  0  0  0  0  0  0  0  0  0  0  0
    3.1368    2.1253   -1.2467 C   0  0  0  0  0  0  0  0  0  0  0  0
    2.5315    2.6412   -2.0160 H   0  0  0  0  0  0  0  0  0  0  0  0
  3 29  2  0  0  0  0
  3 28  1  0  0  0  0
  4  1  1  0  0  0  0
  4  5  2  0  0  0  0
  5  6  1  0  0  0  0
  7  5  1  0  0  0  0
  7  8  1  0  0  0  0
  9  7  2  0  0  0  0
 10  9  1  0  0  0  0
 11 13  1  0  0  0  0
 11  9  1  0  0  0  0
 12 11  1  0  0  0  0
 13  4  1  0  0  0  0
 14  2  1  0  0  0  0
 14 13  2  0  0  0  0
 15 14  1  0  0  0  0
 16  2  1  0  0  0  0
 16 17  2  0  0  0  0
 17 18  1  0  0  0  0
 19 17  1  0  0  0  0
 19 20  1  0  0  0  0
 20 21  1  0  0  0  0
 22 20  2  0  0  0  0
 22 23  1  0  0  0  0
 24 22  1  0  0  0  0
 25 24  1  0  0  0  0
 26 28  1  0  0  0  0
 26 24  2  0  0  0  0
 27 26  1  0  0  0  0
 28 19  2  0  0  0  0
 29 16  1  0  0  0  0
 30 29  1  0  0  0  0
M  CHG  1   1  -1
M  END
