1,2
 OpenBabel05122313063D

 33 34  0  0  0  0  0  0  0  0999 V2000
   -1.7584   -0.1882   -1.6454 O   0  5  0  0  0  0  0  0  0  0  0  0
   -1.1370    1.9431   -0.2044 N   0  0  0  0  0  2  0  0  0  0  0  0
   -0.8591    2.9609    0.5184 N   0  0  0  0  0  2  0  0  0  0  0  0
   -2.6127    0.7998   -1.6764 C   0  0  0  0  0  0  0  0  0  0  0  0
   -3.8044    0.7682   -2.4570 C   0  0  0  0  0  0  0  0  0  0  0  0
   -4.0233   -0.1396   -3.0370 H   0  0  0  0  0  0  0  0  0  0  0  0
   -4.6546    1.8665   -2.4649 C   0  0  0  0  0  0  0  0  0  0  0  0
   -5.5757    1.8258   -3.0688 H   0  0  0  0  0  0  0  0  0  0  0  0
   -4.3804    3.0516   -1.7156 C   0  0  0  0  0  0  0  0  0  0  0  0
   -5.3423    4.2114   -1.7579 C   0  0  0  0  0  0  0  0  0  0  0  0
   -4.9906    5.0544   -1.1327 H   0  0  0  0  0  0  0  0  0  0  0  0
   -6.3496    3.9165   -1.3943 H   0  0  0  0  0  0  0  0  0  0  0  0
   -5.4767    4.5896   -2.7936 H   0  0  0  0  0  0  0  0  0  0  0  0
   -3.2115    3.0958   -0.9550 C   0  0  0  0  0  0  0  0  0  0  0  0
   -2.9428    3.9818   -0.3621 H   0  0  0  0  0  0  0  0  0  0  0  0
   -2.3383    1.9853   -0.9273 C   0  0  0  0  0  0  0  0  0  0  0  0
    0.3708    3.0197    1.1909 C   0  0  0  0  0  0  0  0  0  0  0  0
    0.3840    2.7421    2.5848 C   0  0  0  0  0  0  0  0  0  0  0  0
    1.6098    2.8500    3.2695 C   0  0  0  0  0  0  0  0  0  0  0  0
    1.6386    2.6284    4.3484 H   0  0  0  0  0  0  0  0  0  0  0  0
    2.7764    3.2462    2.5990 C   0  0  0  0  0  0  0  0  0  0  0  0
    3.7267    3.3273    3.1477 H   0  0  0  0  0  0  0  0  0  0  0  0
    2.7292    3.5573    1.2309 C   0  0  0  0  0  0  0  0  0  0  0  0
    3.6430    3.8806    0.7085 H   0  0  0  0  0  0  0  0  0  0  0  0
    1.5329    3.4571    0.5015 C   0  0  0  0  0  0  0  0  0  0  0  0
   -0.8863    2.3082    3.2644 C   0  0  0  0  0  0  0  0  0  0  0  0
   -0.7455    2.2017    4.3570 H   0  0  0  0  0  0  0  0  0  0  0  0
   -1.2578    1.3440    2.8528 H   0  0  0  0  0  0  0  0  0  0  0  0
   -1.6971    3.0429    3.0774 H   0  0  0  0  0  0  0  0  0  0  0  0
    1.4601    3.8004   -0.9628 C   0  0  0  0  0  0  0  0  0  0  0  0
    1.2712    2.8995   -1.5813 H   0  0  0  0  0  0  0  0  0  0  0  0
    2.4026    4.2646   -1.3095 H   0  0  0  0  0  0  0  0  0  0  0  0
    0.6233    4.5019   -1.1610 H   0  0  0  0  0  0  0  0  0  0  0  0
  2  3  1  0  0  0  0
  3 17  1  0  0  0  0
  4  1  1  0  0  0  0
  4 16  1  0  0  0  0
  5  4  2  0  0  0  0
  6  5  1  0  0  0  0
  7  5  1  0  0  0  0
  7  9  2  0  0  0  0
  8  7  1  0  0  0  0
  9 14  1  0  0  0  0
 10  9  1  0  0  0  0
 10 12  1  0  0  0  0
 10 11  1  0  0  0  0
 13 10  1  0  0  0  0
 14 16  2  0  0  0  0
 14 15  1  0  0  0  0
 16  2  1  0  0  0  0
 17 18  1  0  0  0  0
 18 26  1  0  0  0  0
 18 19  2  0  0  0  0
 19 20  1  0  0  0  0
 21 22  1  0  0  0  0
 21 19  1  0  0  0  0
 23 21  2  0  0  0  0
 24 23  1  0  0  0  0
 25 17  2  0  0  0  0
 25 23  1  0  0  0  0
 26 27  1  0  0  0  0
 28 26  1  0  0  0  0
 29 26  1  0  0  0  0
 30 25  1  0  0  0  0
 31 30  1  0  0  0  0
 32 30  1  0  0  0  0
 33 30  1  0  0  0  0
M  CHG  1   1  -1
M  END
