1,4
 OpenBabel05122313063D

 55 55  0  0  1  0  0  0  0  0999 V2000
   -0.2528    1.1637   -0.1610 O   0  5  0  0  0  0  0  0  0  0  0  0
    1.8670   -2.4246    2.4517 O   0  0  0  0  0  0  0  0  0  0  0  0
    1.4873   -1.5111    2.5669 H   0  0  0  0  0  0  0  0  0  0  0  0
    1.2239   -1.2703   -0.0465 N   0  0  0  0  0  2  0  0  0  0  0  0
   -1.3159    0.4207   -0.1191 C   0  0  0  0  0  0  0  0  0  0  0  0
   -2.6115    1.0572   -0.1685 C   0  0  0  0  0  0  0  0  0  0  0  0
   -3.7405    0.2391   -0.1192 C   0  0  0  0  0  0  0  0  0  0  0  0
   -4.7271    0.7226   -0.1484 H   0  0  0  0  0  0  0  0  0  0  0  0
   -3.7024   -1.1813   -0.0301 C   0  0  0  0  0  0  0  0  0  0  0  0
   -2.4455   -1.7769    0.0022 C   0  0  0  0  0  0  0  0  0  0  0  0
   -2.3392   -2.8702    0.0643 H   0  0  0  0  0  0  0  0  0  0  0  0
   -1.2502   -1.0091   -0.0396 C   0  0  0  0  0  0  0  0  0  0  0  0
   -0.0047   -1.7252   -0.0312 C   0  0  0  0  0  3  0  0  0  0  0  0
   -0.1106   -2.8279   -0.0179 H   0  0  0  0  0  0  0  0  0  0  0  0
   -2.7059    2.5905   -0.2622 C   0  0  0  0  0  0  0  0  0  0  0  0
   -4.1703    3.0648   -0.3028 C   0  0  0  0  0  0  0  0  0  0  0  0
   -4.1939    4.1710   -0.3777 H   0  0  0  0  0  0  0  0  0  0  0  0
   -4.7268    2.7815    0.6149 H   0  0  0  0  0  0  0  0  0  0  0  0
   -4.7181    2.6595   -1.1792 H   0  0  0  0  0  0  0  0  0  0  0  0
   -2.0258    3.2360    0.9706 C   0  0  0  0  0  0  0  0  0  0  0  0
   -0.9412    3.0212    0.9944 H   0  0  0  0  0  0  0  0  0  0  0  0
   -2.4849    2.8657    1.9106 H   0  0  0  0  0  0  0  0  0  0  0  0
   -2.1577    4.3384    0.9331 H   0  0  0  0  0  0  0  0  0  0  0  0
   -2.0076    3.0800   -1.5549 C   0  0  0  0  0  0  0  0  0  0  0  0
   -0.9355    2.8105   -1.5572 H   0  0  0  0  0  0  0  0  0  0  0  0
   -2.0887    4.1852   -1.6287 H   0  0  0  0  0  0  0  0  0  0  0  0
   -2.4897    2.6387   -2.4522 H   0  0  0  0  0  0  0  0  0  0  0  0
   -5.0198   -1.9730    0.0260 C   0  0  0  0  0  0  0  0  0  0  0  0
   -5.8300   -1.5364    1.2681 C   0  0  0  0  0  0  0  0  0  0  0  0
   -6.0578   -0.4521    1.2451 H   0  0  0  0  0  0  0  0  0  0  0  0
   -5.2603   -1.7380    2.1978 H   0  0  0  0  0  0  0  0  0  0  0  0
   -6.7947   -2.0849    1.3238 H   0  0  0  0  0  0  0  0  0  0  0  0
   -5.8470   -1.6912   -1.2491 C   0  0  0  0  0  0  0  0  0  0  0  0
   -6.8121   -2.2413   -1.2238 H   0  0  0  0  0  0  0  0  0  0  0  0
   -5.2904   -2.0063   -2.1549 H   0  0  0  0  0  0  0  0  0  0  0  0
   -6.0755   -0.6120   -1.3565 H   0  0  0  0  0  0  0  0  0  0  0  0
   -4.7776   -3.4891    0.1176 C   0  0  0  0  0  0  0  0  0  0  0  0
   -5.7471   -4.0274    0.1577 H   0  0  0  0  0  0  0  0  0  0  0  0
   -4.2051   -3.7572    1.0285 H   0  0  0  0  0  0  0  0  0  0  0  0
   -4.2183   -3.8676   -0.7619 H   0  0  0  0  0  0  0  0  0  0  0  0
    2.2833   -2.2921    0.0463 C   0  0  2  0  0  0  0  0  0  0  0  0
    1.7727   -3.2801   -0.0422 H   0  0  0  0  0  0  0  0  0  0  0  0
    2.8705   -2.2920    1.4830 C   0  0  0  0  0  0  0  0  0  0  0  0
    3.5433   -3.1726    1.5654 H   0  0  0  0  0  0  0  0  0  0  0  0
    3.5002   -1.3881    1.6477 H   0  0  0  0  0  0  0  0  0  0  0  0
    3.2910   -2.2136   -1.1237 C   0  0  0  0  0  0  0  0  0  0  0  0
    3.6542   -1.1691   -1.2045 H   0  0  0  0  0  0  0  0  0  0  0  0
    2.5842   -2.5373   -2.4451 C   0  0  0  0  0  0  0  0  0  0  0  0
    2.1620   -3.5664   -2.4307 H   0  0  0  0  0  0  0  0  0  0  0  0
    3.2945   -2.4710   -3.2948 H   0  0  0  0  0  0  0  0  0  0  0  0
    1.7736   -1.8079   -2.6372 H   0  0  0  0  0  0  0  0  0  0  0  0
    4.5004   -3.1309   -0.9010 C   0  0  0  0  0  0  0  0  0  0  0  0
    5.1162   -2.8181   -0.0345 H   0  0  0  0  0  0  0  0  0  0  0  0
    5.1565   -3.1194   -1.7953 H   0  0  0  0  0  0  0  0  0  0  0  0
    4.1869   -4.1848   -0.7342 H   0  0  0  0  0  0  0  0  0  0  0  0
  1  5  1  0  0  0  0
  2  3  1  0  0  0  0
  4 13  1  0  0  0  0
  4 41  1  0  0  0  0
  5 12  1  0  0  0  0
  6  7  1  0  0  0  0
  6  5  2  0  0  0  0
  7  9  2  0  0  0  0
  8  7  1  0  0  0  0
  9 10  1  0  0  0  0
  9 28  1  0  0  0  0
 10 11  1  0  0  0  0
 12 13  1  0  0  0  0
 12 10  2  0  0  0  0
 13 14  1  0  0  0  0
 15  6  1  0  0  0  0
 15 20  1  0  0  0  0
 16 15  1  0  0  0  0
 16 18  1  0  0  0  0
 17 16  1  0  0  0  0
 19 16  1  0  0  0  0
 20 21  1  0  0  0  0
 20 22  1  0  0  0  0
 23 20  1  0  0  0  0
 24 15  1  0  0  0  0
 25 24  1  0  0  0  0
 26 24  1  0  0  0  0
 27 24  1  0  0  0  0
 28 37  1  0  0  0  0
 28 29  1  0  0  0  0
 29 32  1  0  0  0  0
 29 31  1  0  0  0  0
 30 29  1  0  0  0  0
 33 34  1  0  0  0  0
 33 28  1  0  0  0  0
 35 33  1  0  0  0  0
 36 33  1  0  0  0  0
 37 38  1  0  0  0  0
 37 39  1  0  0  0  0
 40 37  1  0  0  0  0
 41 42  1  6  0  0  0
 41 43  1  0  0  0  0
 43 44  1  0  0  0  0
 43 45  1  0  0  0  0
 43  2  1  0  0  0  0
 46 52  1  0  0  0  0
 46 41  1  0  0  0  0
 47 46  1  0  0  0  0
 48 49  1  0  0  0  0
 48 46  1  0  0  0  0
 50 48  1  0  0  0  0
 51 48  1  0  0  0  0
 52 55  1  0  0  0  0
 52 53  1  0  0  0  0
 54 52  1  0  0  0  0
M  CHG  1   1  -1
M  END
