1,3
 OpenBabel05122313063D

 47 49  0  0  0  0  0  0  0  0999 V2000
    0.5299    1.8340    0.0484 O   0  5  0  0  0  0  0  0  0  0  0  0
   -4.8528    1.2125    0.2833 O   0  0  0  0  0  0  0  0  0  0  0  0
   -0.4074   -0.6563    0.0281 N   0  0  0  0  0  2  0  0  0  0  0  0
   -1.3184    0.3473    0.1054 C   0  0  0  0  0  0  0  0  0  0  0  0
   -0.7224    1.7093    0.1123 C   0  0  0  0  0  0  0  0  0  0  0  0
   -1.5944    2.8880    0.1946 C   0  0  0  0  0  0  0  0  0  0  0  0
   -1.0442    4.1876    0.2142 C   0  0  0  0  0  0  0  0  0  0  0  0
    0.0492    4.2983    0.1727 H   0  0  0  0  0  0  0  0  0  0  0  0
   -1.8875    5.3014    0.2892 C   0  0  0  0  0  0  0  0  0  0  0  0
   -1.4606    6.3155    0.3057 H   0  0  0  0  0  0  0  0  0  0  0  0
   -3.2831    5.1220    0.3445 C   0  0  0  0  0  0  0  0  0  0  0  0
   -3.9449    6.0000    0.4031 H   0  0  0  0  0  0  0  0  0  0  0  0
   -3.8336    3.8320    0.3267 C   0  0  0  0  0  0  0  0  0  0  0  0
   -4.9181    3.6501    0.3696 H   0  0  0  0  0  0  0  0  0  0  0  0
   -2.9991    2.7078    0.2529 C   0  0  0  0  0  0  0  0  0  0  0  0
   -3.6140    1.3280    0.2408 C   0  0  0  0  0  0  0  0  0  0  0  0
   -2.7107    0.2079    0.1758 C   0  0  0  0  0  3  0  0  0  0  0  0
   -3.1662   -0.7916    0.1746 H   0  0  0  0  0  0  0  0  0  0  0  0
   -0.8679   -2.0003    0.0071 C   0  0  0  0  0  0  0  0  0  0  0  0
   -0.7692   -2.7825    1.1915 C   0  0  0  0  0  0  0  0  0  0  0  0
   -1.2031   -4.1193    1.1461 C   0  0  0  0  0  0  0  0  0  0  0  0
   -1.1368   -4.7399    2.0518 H   0  0  0  0  0  0  0  0  0  0  0  0
   -1.7192   -4.6738   -0.0329 C   0  0  0  0  0  0  0  0  0  0  0  0
   -2.0575   -5.7211   -0.0472 H   0  0  0  0  0  0  0  0  0  0  0  0
   -1.7958   -3.8954   -1.1937 C   0  0  0  0  0  0  0  0  0  0  0  0
   -2.1893   -4.3395   -2.1214 H   0  0  0  0  0  0  0  0  0  0  0  0
   -1.3729   -2.5530   -1.2005 C   0  0  0  0  0  0  0  0  0  0  0  0
   -1.4170   -1.7413   -2.4893 C   0  0  0  0  0  0  0  0  0  0  0  0
   -1.1216   -0.7044   -2.2355 H   0  0  0  0  0  0  0  0  0  0  0  0
   -0.3835   -2.2708   -3.4994 C   0  0  0  0  0  0  0  0  0  0  0  0
    0.6386   -2.2516   -3.0704 H   0  0  0  0  0  0  0  0  0  0  0  0
   -0.3814   -1.6524   -4.4208 H   0  0  0  0  0  0  0  0  0  0  0  0
   -0.6075   -3.3169   -3.7954 H   0  0  0  0  0  0  0  0  0  0  0  0
   -2.8285   -1.6857   -3.0946 C   0  0  0  0  0  0  0  0  0  0  0  0
   -2.8393   -1.0396   -3.9964 H   0  0  0  0  0  0  0  0  0  0  0  0
   -3.5602   -1.2734   -2.3718 H   0  0  0  0  0  0  0  0  0  0  0  0
   -3.1825   -2.6912   -3.4041 H   0  0  0  0  0  0  0  0  0  0  0  0
   -0.2337   -2.1606    2.4737 C   0  0  0  0  0  0  0  0  0  0  0  0
    0.4648   -1.3539    2.1599 H   0  0  0  0  0  0  0  0  0  0  0  0
    0.5543   -3.1438    3.3482 C   0  0  0  0  0  0  0  0  0  0  0  0
   -0.0972   -3.9277    3.7876 H   0  0  0  0  0  0  0  0  0  0  0  0
    1.0286   -2.6079    4.1955 H   0  0  0  0  0  0  0  0  0  0  0  0
    1.3533   -3.6524    2.7713 H   0  0  0  0  0  0  0  0  0  0  0  0
   -1.3702   -1.4940    3.2719 C   0  0  0  0  0  0  0  0  0  0  0  0
   -1.9152   -0.7489    2.6598 H   0  0  0  0  0  0  0  0  0  0  0  0
   -0.9719   -0.9786    4.1706 H   0  0  0  0  0  0  0  0  0  0  0  0
   -2.1070   -2.2523    3.6106 H   0  0  0  0  0  0  0  0  0  0  0  0
  1  5  1  0  0  0  0
  3  4  1  0  0  0  0
  4  5  2  0  0  0  0
  4 17  1  0  0  0  0
  5  6  1  0  0  0  0
  6  7  2  0  0  0  0
  6 15  1  0  0  0  0
  7  9  1  0  0  0  0
  8  7  1  0  0  0  0
  9 10  1  0  0  0  0
  9 11  2  0  0  0  0
 11 12  1  0  0  0  0
 13 11  1  0  0  0  0
 13 14  1  0  0  0  0
 15 13  2  0  0  0  0
 16 15  1  0  0  0  0
 16  2  2  0  0  0  0
 17 16  1  0  0  0  0
 18 17  1  0  0  0  0
 19  3  1  0  0  0  0
 19 20  1  0  0  0  0
 20 38  1  0  0  0  0
 21 20  2  0  0  0  0
 21 22  1  0  0  0  0
 23 21  1  0  0  0  0
 24 23  1  0  0  0  0
 25 23  2  0  0  0  0
 26 25  1  0  0  0  0
 27 25  1  0  0  0  0
 27 19  2  0  0  0  0
 28 29  1  0  0  0  0
 28 27  1  0  0  0  0
 30 31  1  0  0  0  0
 30 28  1  0  0  0  0
 32 30  1  0  0  0  0
 33 30  1  0  0  0  0
 34 28  1  0  0  0  0
 34 36  1  0  0  0  0
 35 34  1  0  0  0  0
 37 34  1  0  0  0  0
 38 44  1  0  0  0  0
 38 40  1  0  0  0  0
 39 38  1  0  0  0  0
 40 41  1  0  0  0  0
 40 42  1  0  0  0  0
 43 40  1  0  0  0  0
 44 47  1  0  0  0  0
 44 46  1  0  0  0  0
 45 44  1  0  0  0  0
M  CHG  1   1  -1
M  END
