1,3
 OpenBabel05122313063D

 33 35  0  0  0  0  0  0  0  0999 V2000
    0.6230    0.7948   -0.5596 N   0  0  0  0  0  2  0  0  0  0  0  0
   -0.3230    1.6446   -0.6865 N   0  0  0  0  0  2  0  0  0  0  0  0
    2.5857   -0.9415   -0.1829 O   0  5  0  0  0  0  0  0  0  0  0  0
    4.5944    2.0805   -0.4398 C   0  0  0  0  0  0  0  0  0  0  0  0
    5.6502    2.3962   -0.4114 H   0  0  0  0  0  0  0  0  0  0  0  0
    3.5875    3.0797   -0.6251 C   0  0  0  0  0  0  0  0  0  0  0  0
    2.2565    2.6717   -0.6672 C   0  0  0  0  0  0  0  0  0  0  0  0
    1.4384    3.3897   -0.8194 H   0  0  0  0  0  0  0  0  0  0  0  0
    1.9270    1.3020   -0.5229 C   0  0  0  0  0  0  0  0  0  0  0  0
    2.9321    0.3053   -0.3360 C   0  0  0  0  0  0  0  0  0  0  0  0
   -1.6250    1.2249   -0.9426 C   0  0  0  0  0  0  0  0  0  0  0  0
   -1.9399    0.4281   -2.0507 C   0  0  0  0  0  0  0  0  0  0  0  0
   -1.1247    0.0485   -2.6853 H   0  0  0  0  0  0  0  0  0  0  0  0
   -3.2880    0.0989   -2.3255 C   0  0  0  0  0  0  0  0  0  0  0  0
   -3.5146   -0.5197   -3.2076 H   0  0  0  0  0  0  0  0  0  0  0  0
   -4.3160    0.5326   -1.4968 C   0  0  0  0  0  0  0  0  0  0  0  0
   -5.3617    0.2607   -1.7080 H   0  0  0  0  0  0  0  0  0  0  0  0
   -4.0334    1.3499   -0.3618 C   0  0  0  0  0  0  0  0  0  0  0  0
   -2.6692    1.7247   -0.0850 C   0  0  0  0  0  0  0  0  0  0  0  0
   -2.3859    2.5323    1.0533 C   0  0  0  0  0  0  0  0  0  0  0  0
   -1.3395    2.8131    1.2448 H   0  0  0  0  0  0  0  0  0  0  0  0
   -3.4077    2.9583    1.8912 C   0  0  0  0  0  0  0  0  0  0  0  0
   -3.1766    3.5880    2.7638 H   0  0  0  0  0  0  0  0  0  0  0  0
   -4.7536    2.5900    1.6244 C   0  0  0  0  0  0  0  0  0  0  0  0
   -5.5566    2.9317    2.2950 H   0  0  0  0  0  0  0  0  0  0  0  0
   -5.0570    1.8053    0.5215 C   0  0  0  0  0  0  0  0  0  0  0  0
   -6.0993    1.5188    0.3105 H   0  0  0  0  0  0  0  0  0  0  0  0
    4.2928    0.7332   -0.3028 C   0  0  0  0  0  0  0  0  0  0  0  0
    5.0759   -0.0260   -0.1664 H   0  0  0  0  0  0  0  0  0  0  0  0
    3.9806    4.5263   -0.7834 C   0  0  0  0  0  0  0  0  0  0  0  0
    3.0938    5.1766   -0.9098 H   0  0  0  0  0  0  0  0  0  0  0  0
    4.6370    4.6735   -1.6672 H   0  0  0  0  0  0  0  0  0  0  0  0
    4.5479    4.8922    0.0987 H   0  0  0  0  0  0  0  0  0  0  0  0
  1  9  1  0  0  0  0
  2  1  1  0  0  0  0
  4  5  1  0  0  0  0
  4 28  1  0  0  0  0
  6  4  2  0  0  0  0
  7  6  1  0  0  0  0
  7  9  2  0  0  0  0
  8  7  1  0  0  0  0
  9 10  1  0  0  0  0
 10 28  2  0  0  0  0
 10  3  1  0  0  0  0
 11  2  1  0  0  0  0
 11 19  1  0  0  0  0
 12 11  2  0  0  0  0
 13 12  1  0  0  0  0
 14 12  1  0  0  0  0
 14 16  2  0  0  0  0
 15 14  1  0  0  0  0
 16 18  1  0  0  0  0
 17 16  1  0  0  0  0
 18 19  2  0  0  0  0
 18 26  1  0  0  0  0
 19 20  1  0  0  0  0
 20 21  1  0  0  0  0
 20 22  2  0  0  0  0
 22 23  1  0  0  0  0
 24 22  1  0  0  0  0
 24 25  1  0  0  0  0
 26 24  2  0  0  0  0
 27 26  1  0  0  0  0
 28 29  1  0  0  0  0
 30  6  1  0  0  0  0
 30 33  1  0  0  0  0
 31 30  1  0  0  0  0
 32 30  1  0  0  0  0
M  CHG  1   3  -1
M  END
