1,2
 OpenBabel05122313063D

 36 37  0  0  0  0  0  0  0  0999 V2000
   -1.6690   -0.9127   -0.6450 O   0  5  0  0  0  0  0  0  0  0  0  0
   -1.0426    1.6725    0.4755 N   0  0  0  0  0  2  0  0  0  0  0  0
   -3.3075    0.7764   -0.0081 C   0  0  0  0  0  0  0  0  0  0  0  0
   -2.9000   -0.4911   -0.5356 C   0  0  0  0  0  0  0  0  0  0  0  0
   -3.9029   -1.4099   -1.0090 C   0  0  0  0  0  0  0  0  0  0  0  0
   -5.2390   -1.1045   -0.9476 C   0  0  0  0  0  0  0  0  0  0  0  0
   -5.6990    0.1392   -0.4053 C   0  0  0  0  0  0  0  0  0  0  0  0
   -7.0880    0.4292   -0.3382 C   0  0  0  0  0  3  0  0  0  0  0  0
   -7.5491    1.6260    0.1952 C   0  0  0  0  0  0  0  0  0  0  0  0
   -6.6104    2.5631    0.6838 C   0  0  0  0  0  0  0  0  0  0  0  0
   -5.2442    2.3007    0.6287 C   0  0  0  0  0  0  0  0  0  0  0  0
   -4.7321    1.0906    0.0783 C   0  0  0  0  0  0  0  0  0  0  0  0
   -2.3530    1.7598    0.4067 C   0  0  0  0  0  0  0  0  0  0  0  0
   -0.3093    2.8818    0.8716 C   0  0  0  0  0  0  0  0  0  0  0  0
    0.3536    3.5827   -0.3178 C   0  0  0  0  0  0  0  0  0  0  0  0
    1.2294    4.7608    0.1114 C   0  0  0  0  0  0  0  0  0  0  0  0
    1.9392    5.4519   -1.0566 C   0  0  0  0  0  0  0  0  0  0  0  0
    2.8271    6.6190   -0.6244 C   0  0  0  0  0  0  0  0  0  0  0  0
   -3.5443   -2.3657   -1.4177 H   0  0  0  0  0  0  0  0  0  0  0  0
   -5.9873   -1.8249   -1.3144 H   0  0  0  0  0  0  0  0  0  0  0  0
   -7.7966   -0.3228   -0.7196 H   0  0  0  0  0  0  0  0  0  0  0  0
   -8.6268    1.8408    0.2429 H   0  0  0  0  0  0  0  0  0  0  0  0
   -6.9591    3.5121    1.1191 H   0  0  0  0  0  0  0  0  0  0  0  0
   -4.5619    3.0581    1.0379 H   0  0  0  0  0  0  0  0  0  0  0  0
   -2.7638    2.7401    0.7037 H   0  0  0  0  0  0  0  0  0  0  0  0
   -1.0116    3.5750    1.3838 H   0  0  0  0  0  0  0  0  0  0  0  0
    0.4718    2.5859    1.5975 H   0  0  0  0  0  0  0  0  0  0  0  0
   -0.4319    3.9239   -1.0279 H   0  0  0  0  0  0  0  0  0  0  0  0
    0.9707    2.8378   -0.8614 H   0  0  0  0  0  0  0  0  0  0  0  0
    1.9916    4.3996    0.8390 H   0  0  0  0  0  0  0  0  0  0  0  0
    0.6166    5.5079    0.6660 H   0  0  0  0  0  0  0  0  0  0  0  0
    2.5481    4.6982   -1.6034 H   0  0  0  0  0  0  0  0  0  0  0  0
    1.1785    5.8078   -1.7865 H   0  0  0  0  0  0  0  0  0  0  0  0
    3.3288    7.0966   -1.4900 H   0  0  0  0  0  0  0  0  0  0  0  0
    3.6194    6.2836    0.0774 H   0  0  0  0  0  0  0  0  0  0  0  0
    2.2386    7.4038   -0.1043 H   0  0  0  0  0  0  0  0  0  0  0  0
  1  4  1  0  0  0  0
  2 14  1  0  0  0  0
  3 12  1  0  0  0  0
  3 13  2  0  0  0  0
  4  3  1  0  0  0  0
  5  6  1  0  0  0  0
  5  4  2  0  0  0  0
  6  7  2  0  0  0  0
  7  8  1  0  0  0  0
  7 12  1  0  0  0  0
  8  9  1  0  0  0  0
  9 22  1  0  0  0  0
  9 10  2  0  0  0  0
 10 23  1  0  0  0  0
 11 10  1  0  0  0  0
 11 24  1  0  0  0  0
 12 11  2  0  0  0  0
 13  2  1  0  0  0  0
 13 25  1  0  0  0  0
 14 26  1  0  0  0  0
 14 27  1  0  0  0  0
 15 16  1  0  0  0  0
 15 14  1  0  0  0  0
 16 31  1  0  0  0  0
 16 30  1  0  0  0  0
 17 18  1  0  0  0  0
 17 16  1  0  0  0  0
 18 36  1  0  0  0  0
 18 35  1  0  0  0  0
 19  5  1  0  0  0  0
 20  6  1  0  0  0  0
 21  8  1  0  0  0  0
 28 15  1  0  0  0  0
 29 15  1  0  0  0  0
 32 17  1  0  0  0  0
 33 17  1  0  0  0  0
 34 18  1  0  0  0  0
M  CHG  1   1  -1
M  END
