1,3
 OpenBabel05122313063D

 23 25  0  0  0  0  0  0  0  0999 V2000
   -0.1464    0.7548   -1.4591 O   0  5  0  0  0  0  0  0  0  0  0  0
   -2.3306    1.0123   -1.9321 O   0  0  0  0  0  0  0  0  0  0  0  0
   -0.5433   -0.5629    0.7635 N   0  0  0  0  0  0  0  0  0  0  0  0
   -2.3323   -1.2346    1.9682 N   0  0  0  0  0  0  0  0  0  0  0  0
   -5.2267   -0.7837    1.3059 N   0  0  0  0  0  0  0  0  0  0  0  0
   -4.5828    0.2851   -0.5930 N   0  0  0  0  0  0  0  0  0  0  0  0
   -1.4398    0.5895   -1.1767 C   0  0  0  0  0  0  0  0  0  0  0  0
   -1.6732   -0.1470    0.0798 C   0  0  0  0  0  0  0  0  0  0  0  0
   -0.9986   -1.2042    1.8785 C   0  0  0  0  0  3  0  0  0  0  0  0
   -0.3159   -1.6519    2.6149 H   0  0  0  0  0  0  0  0  0  0  0  0
   -2.7843   -0.5771    0.8512 C   0  0  0  0  0  0  0  0  0  0  0  0
   -4.1965   -0.3815    0.5606 C   0  0  0  0  0  0  0  0  0  0  0  0
   -5.9564    0.3165   -0.5951 C   0  0  0  0  0  0  0  0  0  0  0  0
   -6.9013    0.8475   -1.4900 C   0  0  0  0  0  0  0  0  0  0  0  0
   -6.5951    1.3659   -2.4109 H   0  0  0  0  0  0  0  0  0  0  0  0
   -8.2531    0.6873   -1.1569 C   0  0  0  0  0  0  0  0  0  0  0  0
   -9.0246    1.0890   -1.8320 H   0  0  0  0  0  0  0  0  0  0  0  0
   -8.6514    0.0194    0.0294 C   0  0  0  0  0  0  0  0  0  0  0  0
   -9.7254   -0.0828    0.2492 H   0  0  0  0  0  0  0  0  0  0  0  0
   -7.7111   -0.5093    0.9205 C   0  0  0  0  0  0  0  0  0  0  0  0
   -8.0127   -1.0287    1.8420 H   0  0  0  0  0  0  0  0  0  0  0  0
   -6.3412   -0.3637    0.6127 C   0  0  0  0  0  0  0  0  0  0  0  0
   -3.8870    0.6621   -1.2815 H   0  0  0  0  0  0  0  0  0  0  0  0
  1  7  1  0  0  0  0
  2  7  2  0  0  0  0
  3  9  1  0  0  0  0
  6 12  1  0  0  0  0
  7  8  1  0  0  0  0
  8  3  2  0  0  0  0
  8 11  1  0  0  0  0
  9  4  1  0  0  0  0
  9 10  1  0  0  0  0
 11  4  2  0  0  0  0
 12 11  1  0  0  0  0
 12  5  2  0  0  0  0
 13  6  1  0  0  0  0
 13 22  1  0  0  0  0
 14 16  1  0  0  0  0
 14 13  2  0  0  0  0
 15 14  1  0  0  0  0
 16 18  2  0  0  0  0
 17 16  1  0  0  0  0
 18 19  1  0  0  0  0
 18 20  1  0  0  0  0
 20 21  1  0  0  0  0
 22 20  2  0  0  0  0
 22  5  1  0  0  0  0
 23  6  1  0  0  0  0
M  CHG  1   1  -1
M  END
