1,4
 OpenBabel05122313063D

 13 13  0  0  0  0  0  0  0  0999 V2000
   -1.3267    1.5539    1.2573 O   0  5  0  0  0  0  0  0  0  0  0  0
   -3.4832    1.9929    1.7695 O   0  0  0  0  0  0  0  0  0  0  0  0
   -3.0460    2.6464    2.3608 H   0  0  0  0  0  0  0  0  0  0  0  0
   -2.1462   -0.3968   -0.5422 N   0  0  0  0  0  2  0  0  0  0  0  0
   -4.3896    0.1128    0.1134 N   0  0  0  0  0  0  0  0  0  0  0  0
   -2.5264    1.3430    1.1204 C   0  0  0  0  0  0  0  0  0  0  0  0
   -3.0710    0.2893    0.1734 C   0  0  0  0  0  0  0  0  0  0  0  0
   -4.8455   -0.8317   -0.7240 C   0  0  0  0  0  0  0  0  0  0  0  0
   -5.9393   -0.9715   -0.7680 H   0  0  0  0  0  0  0  0  0  0  0  0
   -2.6067   -1.3476   -1.3823 C   0  0  0  0  0  0  0  0  0  0  0  0
   -1.8579   -1.9074   -1.9633 H   0  0  0  0  0  0  0  0  0  0  0  0
   -3.9764   -1.6066   -1.5073 C   0  0  0  0  0  0  0  0  0  0  0  0
   -4.3460   -2.3823   -2.1926 H   0  0  0  0  0  0  0  0  0  0  0  0
  2  3  1  0  0  0  0
  4  7  1  0  0  0  0
  5  7  1  0  0  0  0
  6  1  1  0  0  0  0
  6  2  1  0  0  0  0
  7  6  2  0  0  0  0
  8  5  2  0  0  0  0
  9  8  1  0  0  0  0
 10  4  1  0  0  0  0
 11 10  1  0  0  0  0
 12 10  2  0  0  0  0
 12  8  1  0  0  0  0
 13 12  1  0  0  0  0
M  CHG  1   1  -1
M  END
