1,3
 OpenBabel05122313063D

 15 15  0  0  1  0  0  0  0  0999 V2000
    1.2583   -1.8302   -0.1380 O   0  5  0  0  0  0  0  0  0  0  0  0
    3.3215   -2.6017    0.3702 O   0  0  0  0  0  0  0  0  0  0  0  0
    1.9277    0.6169   -0.4053 N   0  0  0  0  0  2  0  0  0  0  0  0
    2.5936   -1.6988    0.0105 C   0  0  0  0  0  0  0  0  0  0  0  0
    3.0828   -0.2865   -0.3338 C   0  0  2  0  0  0  0  0  0  0  0  0
    4.0573    0.3621    0.6576 C   0  0  0  0  0  0  0  0  0  0  0  0
    3.8134    1.8576    0.4012 C   0  0  0  0  0  0  0  0  0  0  0  0
    2.2998    1.9400    0.1127 C   0  0  0  0  0  0  0  0  0  0  0  0
    3.5710   -0.3689   -1.3377 H   0  0  0  0  0  0  0  0  0  0  0  0
    3.7827    0.0856    1.6977 H   0  0  0  0  0  0  0  0  0  0  0  0
    5.1045    0.0430    0.5006 H   0  0  0  0  0  0  0  0  0  0  0  0
    4.1218    2.5053    1.2452 H   0  0  0  0  0  0  0  0  0  0  0  0
    4.3875    2.1807   -0.4921 H   0  0  0  0  0  0  0  0  0  0  0  0
    2.0578    2.7438   -0.6156 H   0  0  0  0  0  0  0  0  0  0  0  0
    1.7203    2.1659    1.0376 H   0  0  0  0  0  0  0  0  0  0  0  0
  1  4  1  0  0  0  0
  3  5  1  0  0  0  0
  3  8  1  0  0  0  0
  4  2  2  0  0  0  0
  5  9  1  6  0  0  0
  5  4  1  0  0  0  0
  5  6  1  0  0  0  0
  6 10  1  0  0  0  0
  7  6  1  0  0  0  0
  7 12  1  0  0  0  0
  8  7  1  0  0  0  0
  8 15  1  0  0  0  0
 11  6  1  0  0  0  0
 13  7  1  0  0  0  0
 14  8  1  0  0  0  0
M  CHG  1   1  -1
M  END
