1,2
 OpenBabel05122313063D

 38 39  0  0  1  0  0  0  0  0999 V2000
   -1.0805   -0.9584   -0.1232 N   0  0  0  0  0  2  0  0  0  0  0  0
   -1.4098    1.2992   -1.6550 O   0  5  0  0  0  0  0  0  0  0  0  0
   -2.8012    3.6999   -1.3560 F   0  0  0  0  0  0  0  0  0  0  0  0
   -4.6167    2.5759   -0.8953 F   0  0  0  0  0  0  0  0  0  0  0  0
   -3.6983    2.4154   -2.8712 F   0  0  0  0  0  0  0  0  0  0  0  0
   -0.3825   -2.0867    0.4078 C   0  0  0  0  0  0  0  0  0  0  0  0
    0.4005   -1.9612    1.5719 C   0  0  0  0  0  0  0  0  0  0  0  0
    0.4500   -0.9914    2.0852 H   0  0  0  0  0  0  0  0  0  0  0  0
    1.1066   -3.0671    2.0674 C   0  0  0  0  0  0  0  0  0  0  0  0
    1.7174   -2.9562    2.9763 H   0  0  0  0  0  0  0  0  0  0  0  0
    1.0394   -4.3025    1.4061 C   0  0  0  0  0  0  0  0  0  0  0  0
    1.5996   -5.1674    1.7909 H   0  0  0  0  0  0  0  0  0  0  0  0
    0.2619   -4.4252    0.2430 C   0  0  0  0  0  0  0  0  0  0  0  0
    0.2159   -5.3864   -0.2904 H   0  0  0  0  0  0  0  0  0  0  0  0
   -0.4403   -3.3247   -0.2633 C   0  0  0  0  0  0  0  0  0  0  0  0
   -1.0224   -3.3943   -1.1931 H   0  0  0  0  0  0  0  0  0  0  0  0
   -2.2868   -0.6696    0.3337 C   0  0  2  0  0  3  0  0  0  0  0  0
   -2.9597   -1.5190    1.4000 C   0  0  0  0  0  0  0  0  0  0  0  0
   -2.2691   -2.3470    1.6559 H   0  0  0  0  0  0  0  0  0  0  0  0
   -3.2188   -0.7286    2.7014 C   0  0  0  0  0  0  0  0  0  0  0  0
   -2.2631   -0.3071    3.0783 H   0  0  0  0  0  0  0  0  0  0  0  0
   -3.8808    0.1394    2.4882 H   0  0  0  0  0  0  0  0  0  0  0  0
   -3.8674   -1.6222    3.7661 C   0  0  0  0  0  0  0  0  0  0  0  0
   -4.0731   -1.0300    4.6822 H   0  0  0  0  0  0  0  0  0  0  0  0
   -3.1449   -2.4158    4.0615 H   0  0  0  0  0  0  0  0  0  0  0  0
   -5.1536   -2.2776    3.2469 C   0  0  0  0  0  0  0  0  0  0  0  0
   -5.5866   -2.9445    4.0211 H   0  0  0  0  0  0  0  0  0  0  0  0
   -5.9137   -1.4871    3.0544 H   0  0  0  0  0  0  0  0  0  0  0  0
   -4.8990   -3.0565    1.9501 C   0  0  0  0  0  0  0  0  0  0  0  0
   -5.8439   -3.4931    1.5652 H   0  0  0  0  0  0  0  0  0  0  0  0
   -4.2216   -3.9137    2.1627 H   0  0  0  0  0  0  0  0  0  0  0  0
   -4.2609   -2.1672    0.8758 C   0  0  0  0  0  0  0  0  0  0  0  0
   -4.9818   -1.3751    0.5767 H   0  0  0  0  0  0  0  0  0  0  0  0
   -4.0395   -2.7519   -0.0410 H   0  0  0  0  0  0  0  0  0  0  0  0
   -3.0418    0.4542   -0.1550 C   0  0  0  0  0  0  0  0  0  0  0  0
   -4.0432    0.6230    0.2555 H   0  0  0  0  0  0  0  0  0  0  0  0
   -2.5706    1.3494   -1.0864 C   0  0  0  0  0  0  0  0  0  0  0  0
   -3.4348    2.5252   -1.5536 C   0  0  0  0  0  0  0  0  0  0  0  0
  1 17  1  0  0  0  0
  1  6  1  0  0  0  0
  2 37  1  0  0  0  0
  5 38  1  0  0  0  0
  6  7  1  0  0  0  0
  7  9  2  0  0  0  0
  7  8  1  0  0  0  0
  9 10  1  0  0  0  0
 11 12  1  0  0  0  0
 11  9  1  0  0  0  0
 13 11  2  0  0  0  0
 14 13  1  0  0  0  0
 15 13  1  0  0  0  0
 15  6  2  0  0  0  0
 16 15  1  0  0  0  0
 17 35  1  6  0  0  0
 17 18  1  0  0  0  0
 18 19  1  0  0  0  0
 18 20  1  0  0  0  0
 20 21  1  0  0  0  0
 20 23  1  0  0  0  0
 22 20  1  0  0  0  0
 23 25  1  0  0  0  0
 23 24  1  0  0  0  0
 26 23  1  0  0  0  0
 26 27  1  0  0  0  0
 28 26  1  0  0  0  0
 29 31  1  0  0  0  0
 29 26  1  0  0  0  0
 30 29  1  0  0  0  0
 32 18  1  0  0  0  0
 32 29  1  0  0  0  0
 33 32  1  0  0  0  0
 34 32  1  0  0  0  0
 35 36  1  0  0  0  0
 37 35  2  0  0  0  0
 38  3  1  0  0  0  0
 38 37  1  0  0  0  0
 38  4  1  0  0  0  0
M  CHG  1   2  -1
M  END
