1,21
 OpenBabel05122313063D

 24 23  0  0  1  0  0  0  0  0999 V2000
   -2.5006   -1.6562   -0.4626 N   0  0  0  0  0  2  0  0  0  0  0  0
   -2.6549   -2.6532   -0.6340 H   0  0  0  0  0  0  0  0  0  0  0  0
   -3.6280   -0.9725   -0.3961 C   0  0  2  0  0  3  0  0  0  0  0  0
   -3.6524    0.4407   -0.1656 C   0  0  0  0  0  0  0  0  0  0  0  0
   -4.6243    0.9421   -0.0986 H   0  0  0  0  0  0  0  0  0  0  0  0
   -2.5232    1.2355   -0.0319 C   0  0  0  0  0  0  0  0  0  0  0  0
   -4.9871   -1.6923   -0.5668 C   0  0  0  0  0  0  0  0  0  0  0  0
   -5.8227   -1.4967    0.7184 C   0  0  0  0  0  0  0  0  0  0  0  0
   -5.3016   -1.9214    1.6000 H   0  0  0  0  0  0  0  0  0  0  0  0
   -6.8021   -2.0079    0.6167 H   0  0  0  0  0  0  0  0  0  0  0  0
   -6.0200   -0.4272    0.9251 H   0  0  0  0  0  0  0  0  0  0  0  0
   -5.7299   -1.0827   -1.7768 C   0  0  0  0  0  0  0  0  0  0  0  0
   -5.9226   -0.0010   -1.6411 H   0  0  0  0  0  0  0  0  0  0  0  0
   -6.7084   -1.5866   -1.9163 H   0  0  0  0  0  0  0  0  0  0  0  0
   -5.1416   -1.2071   -2.7082 H   0  0  0  0  0  0  0  0  0  0  0  0
   -4.8098   -3.2013   -0.8102 C   0  0  0  0  0  0  0  0  0  0  0  0
   -4.3043   -3.7047    0.0398 H   0  0  0  0  0  0  0  0  0  0  0  0
   -4.2380   -3.4098   -1.7382 H   0  0  0  0  0  0  0  0  0  0  0  0
   -5.8028   -3.6783   -0.9263 H   0  0  0  0  0  0  0  0  0  0  0  0
   -2.6854    2.7485    0.1590 C   0  0  0  0  0  0  0  0  0  0  0  0
   -1.2834    0.8896   -0.0710 O   0  5  0  0  0  0  0  0  0  0  0  0
   -1.9042    3.1920    1.1729 F   0  0  0  0  0  0  0  0  0  0  0  0
   -2.3002    3.4174   -0.9601 F   0  0  0  0  0  0  0  0  0  0  0  0
   -3.9579    3.1176    0.4285 F   0  0  0  0  0  0  0  0  0  0  0  0
  2  1  1  0  0  0  0
  3  1  1  1  0  0  0
  3  4  1  0  0  0  0
  4  5  1  0  0  0  0
  4  6  2  0  0  0  0
  6 20  1  0  0  0  0
  7  3  1  0  0  0  0
  7  8  1  0  0  0  0
  8 11  1  0  0  0  0
  8  9  1  0  0  0  0
 10  8  1  0  0  0  0
 12 13  1  0  0  0  0
 12  7  1  0  0  0  0
 14 12  1  0  0  0  0
 15 12  1  0  0  0  0
 16  7  1  0  0  0  0
 16 17  1  0  0  0  0
 18 16  1  0  0  0  0
 19 16  1  0  0  0  0
 20 24  1  0  0  0  0
 20 22  1  0  0  0  0
 21  6  1  0  0  0  0
 23 20  1  0  0  0  0
M  CHG  1  21  -1
M  END
