1,4
 OpenBabel05122313063D

 30 31  0  0  1  0  0  0  0  0999 V2000
   -1.3954   -0.3872   -1.2109 O   0  0  0  0  0  1  0  0  0  0  0  0
   -6.5791   -3.2881    0.8066 O   0  0  0  0  0  0  0  0  0  0  0  0
   -7.2519   -2.5641   -1.1469 O   0  0  0  0  0  0  0  0  0  0  0  0
   -0.5615   -1.4079    1.1965 N   0  0  0  0  0  2  0  0  0  0  0  0
   -6.3940   -2.7055   -0.2682 N   0  0  0  0  0  0  0  0  0  0  0  0
   -2.7993   -1.7056    0.2378 C   0  0  0  0  0  0  0  0  0  0  0  0
   -2.5263   -0.9631   -0.9712 C   0  0  2  0  0  3  0  0  0  0  0  0
   -3.5675   -0.8990   -1.9574 C   0  0  0  0  0  0  0  0  0  0  0  0
   -3.3449   -0.3777   -2.8993 H   0  0  0  0  0  0  0  0  0  0  0  0
   -4.8153   -1.4564   -1.7315 C   0  0  0  0  0  0  0  0  0  0  0  0
   -5.6252   -1.3893   -2.4704 H   0  0  0  0  0  0  0  0  0  0  0  0
   -5.0691   -2.1367   -0.5168 C   0  0  0  0  0  0  0  0  0  0  0  0
   -4.0696   -2.2786    0.4448 C   0  0  0  0  0  0  0  0  0  0  0  0
   -4.2972   -2.8418    1.3610 H   0  0  0  0  0  0  0  0  0  0  0  0
   -1.7597   -1.9300    1.2022 C   0  0  0  0  0  0  0  0  0  0  0  0
   -1.9990   -2.6536    2.0077 H   0  0  0  0  0  0  0  0  0  0  0  0
    0.3848   -1.9413    2.1795 C   0  0  0  0  0  0  0  0  0  0  0  0
    0.9060   -1.0957    2.6603 H   0  0  0  0  0  0  0  0  0  0  0  0
   -0.1841   -2.4933    2.9610 H   0  0  0  0  0  0  0  0  0  0  0  0
    1.4028   -2.8760    1.5511 C   0  0  0  0  0  0  0  0  0  0  0  0
    1.0026   -3.8865    0.6560 C   0  0  0  0  0  0  0  0  0  0  0  0
   -0.0521   -3.9576    0.3484 H   0  0  0  0  0  0  0  0  0  0  0  0
    1.9349   -4.8012    0.1459 C   0  0  0  0  0  0  0  0  0  0  0  0
    1.6030   -5.5901   -0.5466 H   0  0  0  0  0  0  0  0  0  0  0  0
    3.2855   -4.7169    0.5229 C   0  0  0  0  0  0  0  0  0  0  0  0
    4.0153   -5.4427    0.1328 H   0  0  0  0  0  0  0  0  0  0  0  0
    3.6976   -3.6995    1.3968 C   0  0  0  0  0  0  0  0  0  0  0  0
    4.7555   -3.6166    1.6904 H   0  0  0  0  0  0  0  0  0  0  0  0
    2.7621   -2.7832    1.9008 C   0  0  0  0  0  0  0  0  0  0  0  0
    3.0916   -1.9837    2.5807 H   0  0  0  0  0  0  0  0  0  0  0  0
  3  5  2  0  0  0  0
  4 15  1  0  0  0  0
  4 17  1  0  0  0  0
  5  2  2  0  0  0  0
  6 13  1  0  0  0  0
  6 15  2  0  0  0  0
  7  1  1  6  0  0  0
  7  6  1  0  0  0  0
  8 10  2  0  0  0  0
  8  7  1  0  0  0  0
  9  8  1  0  0  0  0
 10 12  1  0  0  0  0
 11 10  1  0  0  0  0
 12  5  1  0  0  0  0
 12 13  2  0  0  0  0
 13 14  1  0  0  0  0
 15 16  1  0  0  0  0
 17 18  1  0  0  0  0
 17 19  1  0  0  0  0
 20 29  1  0  0  0  0
 20 17  1  0  0  0  0
 21 20  2  0  0  0  0
 22 21  1  0  0  0  0
 23 25  2  0  0  0  0
 23 21  1  0  0  0  0
 24 23  1  0  0  0  0
 25 27  1  0  0  0  0
 26 25  1  0  0  0  0
 27 28  1  0  0  0  0
 27 29  2  0  0  0  0
 29 30  1  0  0  0  0
M  END
