1,7
 OpenBabel05122313063D

 22 23  0  0  1  0  0  0  0  0999 V2000
   -0.9877    1.8819   -1.1023 O   0  5  0  0  0  0  0  0  0  0  0  0
    1.6274    0.2347    1.3157 O   0  0  0  0  0  0  0  0  0  0  0  0
    0.3742    3.6534   -1.5253 O   0  0  0  0  0  0  0  0  0  0  0  0
    2.8975    0.9879    1.1602 C   0  0  2  0  0  0  0  0  0  0  0  0
    0.1305    2.5723   -1.0023 C   0  0  0  0  0  0  0  0  0  0  0  0
    1.1224    1.8952   -0.0976 C   0  0  2  0  0  3  0  0  0  0  0  0
    0.7054    0.8111    0.4795 N   0  0  0  0  0  2  0  0  0  0  0  0
    2.5200    2.2287    0.2983 C   0  0  0  0  0  0  0  0  0  0  0  0
    3.9429    0.0874    0.5483 C   0  0  0  0  0  0  0  0  0  0  0  0
    3.6268   -0.7296   -0.5567 C   0  0  0  0  0  0  0  0  0  0  0  0
    5.2546    0.0930    1.0573 C   0  0  0  0  0  0  0  0  0  0  0  0
    6.2504   -0.6973    0.4631 C   0  0  0  0  0  0  0  0  0  0  0  0
    4.6238   -1.5222   -1.1422 C   0  0  0  0  0  0  0  0  0  0  0  0
    5.9356   -1.5068   -0.6391 C   0  0  0  0  0  0  0  0  0  0  0  0
    3.1971    1.2791    2.1864 H   0  0  0  0  0  0  0  0  0  0  0  0
    2.5605    3.1858    0.8582 H   0  0  0  0  0  0  0  0  0  0  0  0
    3.1711    2.3412   -0.5919 H   0  0  0  0  0  0  0  0  0  0  0  0
    2.5986   -0.7602   -0.9571 H   0  0  0  0  0  0  0  0  0  0  0  0
    5.4990    0.7219    1.9288 H   0  0  0  0  0  0  0  0  0  0  0  0
    7.2737   -0.6860    0.8681 H   0  0  0  0  0  0  0  0  0  0  0  0
    4.3686   -2.1598   -2.0023 H   0  0  0  0  0  0  0  0  0  0  0  0
    6.7135   -2.1313   -1.1043 H   0  0  0  0  0  0  0  0  0  0  0  0
  1  5  1  0  0  0  0
  3  5  2  0  0  0  0
  4  2  1  0  0  0  0
  4 15  1  1  0  0  0
  6  5  1  1  0  0  0
  6  8  1  0  0  0  0
  6  7  1  0  0  0  0
  7  2  1  0  0  0  0
  8 16  1  0  0  0  0
  8  4  1  0  0  0  0
  9 11  1  0  0  0  0
  9  4  1  0  0  0  0
 10  9  2  0  0  0  0
 11 19  1  0  0  0  0
 12 20  1  0  0  0  0
 12 11  2  0  0  0  0
 13 14  2  0  0  0  0
 13 10  1  0  0  0  0
 14 12  1  0  0  0  0
 17  8  1  0  0  0  0
 18 10  1  0  0  0  0
 21 13  1  0  0  0  0
 22 14  1  0  0  0  0
M  CHG  1   1  -1
M  END
