1,2
 OpenBabel05122313063D

 17 18  0  0  0  0  0  0  0  0999 V2000
   -0.8796    2.6309   -0.2746 O   0  5  0  0  0  0  0  0  0  0  0  0
   -1.8941    0.7722    0.2762 N   0  0  0  0  0  2  0  0  0  0  0  0
   -2.0296    2.0350   -0.2036 C   0  0  0  0  0  0  0  0  0  0  0  0
   -3.3073    2.5428   -0.5975 C   0  0  0  0  0  0  0  0  0  0  0  0
   -3.3861    3.5799   -0.9513 H   0  0  0  0  0  0  0  0  0  0  0  0
   -4.3896    1.6868   -0.5334 C   0  0  0  0  0  0  0  0  0  0  0  0
   -5.3929    2.0360   -0.8252 H   0  0  0  0  0  0  0  0  0  0  0  0
   -5.3051   -0.6106   -0.1134 C   0  0  0  0  0  3  0  0  0  0  0  0
   -6.3096   -0.2594   -0.3981 H   0  0  0  0  0  0  0  0  0  0  0  0
   -5.0934   -1.9405    0.2337 C   0  0  0  0  0  0  0  0  0  0  0  0
   -5.9314   -2.6531    0.2334 H   0  0  0  0  0  0  0  0  0  0  0  0
   -3.7888   -2.3814    0.5709 C   0  0  0  0  0  0  0  0  0  0  0  0
   -3.6192   -3.4404    0.8188 H   0  0  0  0  0  0  0  0  0  0  0  0
   -2.7148   -1.4972    0.5844 C   0  0  0  0  0  0  0  0  0  0  0  0
   -1.6966   -1.8349    0.8198 H   0  0  0  0  0  0  0  0  0  0  0  0
   -2.9174   -0.1302    0.2571 C   0  0  0  0  0  0  0  0  0  0  0  0
   -4.2329    0.3212   -0.1258 C   0  0  0  0  0  0  0  0  0  0  0  0
  1  3  1  0  0  0  0
  3  2  1  0  0  0  0
  4  6  1  0  0  0  0
  4  3  2  0  0  0  0
  5  4  1  0  0  0  0
  6 17  2  0  0  0  0
  7  6  1  0  0  0  0
  8 10  1  0  0  0  0
  9  8  1  0  0  0  0
 10 12  2  0  0  0  0
 11 10  1  0  0  0  0
 12 14  1  0  0  0  0
 12 13  1  0  0  0  0
 14 15  1  0  0  0  0
 16  2  1  0  0  0  0
 16 14  2  0  0  0  0
 17  8  1  0  0  0  0
 17 16  1  0  0  0  0
M  CHG  1   1  -1
M  END
