1,2
 OpenBabel05122313063D

 20 21  0  0  0  0  0  0  0  0999 V2000
   -0.9296    2.4997   -0.0613 O   0  5  0  0  0  0  0  0  0  0  0  0
   -1.7622    0.5327    0.4102 N   0  0  0  0  0  2  0  0  0  0  0  0
   -2.0208    1.7998    0.0057 C   0  0  0  0  0  0  0  0  0  0  0  0
   -3.3455    2.2121   -0.3288 C   0  0  0  0  0  0  0  0  0  0  0  0
   -3.5150    3.2588   -0.6194 H   0  0  0  0  0  0  0  0  0  0  0  0
   -4.3749    1.2837   -0.3006 C   0  0  0  0  0  0  0  0  0  0  0  0
   -5.0451   -1.1280    0.0131 C   0  0  0  0  0  3  0  0  0  0  0  0
   -6.0894   -0.8769   -0.2223 H   0  0  0  0  0  0  0  0  0  0  0  0
   -4.7014   -2.4511    0.2755 C   0  0  0  0  0  0  0  0  0  0  0  0
   -5.4726   -3.2352    0.2526 H   0  0  0  0  0  0  0  0  0  0  0  0
   -3.3549   -2.7885    0.5537 C   0  0  0  0  0  0  0  0  0  0  0  0
   -3.0791   -3.8389    0.7333 H   0  0  0  0  0  0  0  0  0  0  0  0
   -2.3721   -1.8055    0.5938 C   0  0  0  0  0  0  0  0  0  0  0  0
   -1.3194   -2.0540    0.7835 H   0  0  0  0  0  0  0  0  0  0  0  0
   -2.7100   -0.4469    0.3544 C   0  0  0  0  0  0  0  0  0  0  0  0
   -4.0704   -0.0937    0.0274 C   0  0  0  0  0  0  0  0  0  0  0  0
   -5.7830    1.6907   -0.6406 C   0  0  0  0  0  0  0  0  0  0  0  0
   -5.8426    2.7713   -0.8688 H   0  0  0  0  0  0  0  0  0  0  0  0
   -6.4790    1.4775    0.1976 H   0  0  0  0  0  0  0  0  0  0  0  0
   -6.1651    1.1323   -1.5208 H   0  0  0  0  0  0  0  0  0  0  0  0
  1  3  1  0  0  0  0
  3  2  1  0  0  0  0
  4  6  1  0  0  0  0
  4  3  2  0  0  0  0
  5  4  1  0  0  0  0
  6 16  2  0  0  0  0
  7 16  1  0  0  0  0
  7  9  1  0  0  0  0
  8  7  1  0  0  0  0
  9 11  2  0  0  0  0
 10  9  1  0  0  0  0
 11 13  1  0  0  0  0
 11 12  1  0  0  0  0
 13 14  1  0  0  0  0
 15  2  1  0  0  0  0
 15 13  2  0  0  0  0
 16 15  1  0  0  0  0
 17  6  1  0  0  0  0
 17 19  1  0  0  0  0
 18 17  1  0  0  0  0
 20 17  1  0  0  0  0
M  CHG  1   1  -1
M  END
