3,4
 OpenBabel05122313063D

 45 48  0  0  0  0  0  0  0  0999 V2000
    2.8512    0.0918    0.0075 P   0  0  0  0  0  4  0  0  0  0  0  0
    0.1890    4.3616   -0.0552 S   0  0  0  0  0  0  0  0  0  0  0  0
   -1.6395    2.5554   -0.0719 N   0  0  0  0  0  2  0  0  0  0  0  0
   -0.1302    0.3721    0.0579 O   0  5  0  0  0  0  0  0  0  0  0  0
    1.9084    1.5663   -0.0223 C   0  0  0  0  0  3  0  0  0  0  0  0
    2.4485    2.5204   -0.0750 H   0  0  0  0  0  0  0  0  0  0  0  0
    0.5152    1.4868    0.0042 C   0  0  0  0  0  0  0  0  0  0  0  0
   -0.3251    2.6987   -0.0380 C   0  0  0  0  0  0  0  0  0  0  0  0
   -1.4704    4.8532   -0.1127 C   0  0  0  0  0  0  0  0  0  0  0  0
   -1.7453    5.9140   -0.1402 H   0  0  0  0  0  0  0  0  0  0  0  0
   -2.3007    3.7503   -0.1145 C   0  0  0  0  0  0  0  0  0  0  0  0
   -3.3990    3.7377   -0.1459 H   0  0  0  0  0  0  0  0  0  0  0  0
    4.6059    0.5710    0.1197 C   0  0  0  0  0  0  0  0  0  0  0  0
    5.2330    1.1192   -1.0192 C   0  0  0  0  0  0  0  0  0  0  0  0
    4.6802    1.2014   -1.9677 H   0  0  0  0  0  0  0  0  0  0  0  0
    6.5646    1.5488   -0.9393 C   0  0  0  0  0  0  0  0  0  0  0  0
    7.0546    1.9754   -1.8273 H   0  0  0  0  0  0  0  0  0  0  0  0
    7.2717    1.4306    0.2692 C   0  0  0  0  0  0  0  0  0  0  0  0
    8.3183    1.7655    0.3273 H   0  0  0  0  0  0  0  0  0  0  0  0
    6.6470    0.8844    1.4010 C   0  0  0  0  0  0  0  0  0  0  0  0
    7.2005    0.7912    2.3473 H   0  0  0  0  0  0  0  0  0  0  0  0
    5.3128    0.4545    1.3317 C   0  0  0  0  0  0  0  0  0  0  0  0
    4.8196    0.0263    2.2171 H   0  0  0  0  0  0  0  0  0  0  0  0
    2.4703   -0.9327    1.4685 C   0  0  0  0  0  0  0  0  0  0  0  0
    2.9570   -2.2525    1.5680 C   0  0  0  0  0  0  0  0  0  0  0  0
    3.5412   -2.6969    0.7490 H   0  0  0  0  0  0  0  0  0  0  0  0
    2.6700   -3.0129    2.7095 C   0  0  0  0  0  0  0  0  0  0  0  0
    3.0455   -4.0442    2.7859 H   0  0  0  0  0  0  0  0  0  0  0  0
    1.8910   -2.4657    3.7432 C   0  0  0  0  0  0  0  0  0  0  0  0
    1.6525   -3.0720    4.6300 H   0  0  0  0  0  0  0  0  0  0  0  0
    1.4001   -1.1552    3.6376 C   0  0  0  0  0  0  0  0  0  0  0  0
    0.7613   -0.7306    4.4255 H   0  0  0  0  0  0  0  0  0  0  0  0
    1.6913   -0.3822    2.5047 C   0  0  0  0  0  0  0  0  0  0  0  0
    1.2828    0.6339    2.4134 H   0  0  0  0  0  0  0  0  0  0  0  0
    2.6883   -0.9004   -1.5171 C   0  0  0  0  0  0  0  0  0  0  0  0
    1.5663   -0.7226   -2.3519 C   0  0  0  0  0  0  0  0  0  0  0  0
    0.7649   -0.0122   -2.1012 H   0  0  0  0  0  0  0  0  0  0  0  0
    1.4489   -1.4881   -3.5213 C   0  0  0  0  0  0  0  0  0  0  0  0
    0.5658   -1.3389   -4.1602 H   0  0  0  0  0  0  0  0  0  0  0  0
    2.4372   -2.4254   -3.8601 C   0  0  0  0  0  0  0  0  0  0  0  0
    2.3379   -3.0240   -4.7784 H   0  0  0  0  0  0  0  0  0  0  0  0
    3.5602   -2.5943   -3.0327 C   0  0  0  0  0  0  0  0  0  0  0  0
    4.3442   -3.3175   -3.3031 H   0  0  0  0  0  0  0  0  0  0  0  0
    3.6926   -1.8304   -1.8644 C   0  0  0  0  0  0  0  0  0  0  0  0
    4.5918   -1.9411   -1.2385 H   0  0  0  0  0  0  0  0  0  0  0  0
  1 13  1  0  0  0  0
  1 24  1  0  0  0  0
  2  8  1  0  0  0  0
  3  8  1  0  0  0  0
  5  7  1  0  0  0  0
  5  1  1  0  0  0  0
  6  5  1  0  0  0  0
  7  4  1  0  0  0  0
  8  7  2  0  0  0  0
  9  2  1  0  0  0  0
 10  9  1  0  0  0  0
 11  9  2  0  0  0  0
 11  3  1  0  0  0  0
 12 11  1  0  0  0  0
 13 22  1  0  0  0  0
 14 16  1  0  0  0  0
 14 13  2  0  0  0  0
 15 14  1  0  0  0  0
 16 18  2  0  0  0  0
 17 16  1  0  0  0  0
 18 19  1  0  0  0  0
 18 20  1  0  0  0  0
 20 21  1  0  0  0  0
 22 20  2  0  0  0  0
 22 23  1  0  0  0  0
 24 25  2  0  0  0  0
 24 33  1  0  0  0  0
 25 27  1  0  0  0  0
 26 25  1  0  0  0  0
 27 28  1  0  0  0  0
 27 29  2  0  0  0  0
 29 30  1  0  0  0  0
 31 29  1  0  0  0  0
 31 32  1  0  0  0  0
 33 31  2  0  0  0  0
 34 33  1  0  0  0  0
 35  1  1  0  0  0  0
 36 37  1  0  0  0  0
 36 35  2  0  0  0  0
 38 36  1  0  0  0  0
 39 38  1  0  0  0  0
 40 38  2  0  0  0  0
 40 42  1  0  0  0  0
 41 40  1  0  0  0  0
 42 44  2  0  0  0  0
 43 42  1  0  0  0  0
 44 35  1  0  0  0  0
 44 45  1  0  0  0  0
M  CHG  1   4  -1
M  END
