2,3
 OpenBabel05122313063D

 31 32  0  0  1  0  0  0  0  0999 V2000
   -1.7016   -4.5303    0.0925 Br  0  0  0  0  0  0  0  0  0  0  0  0
    0.5116    1.6372   -1.5523 N   0  0  0  0  0  2  0  0  0  0  0  0
    0.5949    3.2895    0.8728 O   0  5  0  0  0  0  0  0  0  0  0  0
    1.7728    3.6176    0.4252 C   0  0  0  0  0  0  0  0  0  0  0  0
    2.5581    4.5552    1.1694 C   0  0  0  0  0  0  0  0  0  0  0  0
    2.0981    4.9722    2.0773 H   0  0  0  0  0  0  0  0  0  0  0  0
    3.8398    4.9170    0.7748 C   0  0  0  0  0  0  0  0  0  0  0  0
    4.4087    5.6375    1.3837 H   0  0  0  0  0  0  0  0  0  0  0  0
    4.4253    4.3746   -0.3962 C   0  0  0  0  0  0  0  0  0  0  0  0
    5.4401    4.6666   -0.7016 H   0  0  0  0  0  0  0  0  0  0  0  0
    3.6883    3.4753   -1.1534 C   0  0  0  0  0  0  0  0  0  0  0  0
    4.1169    3.0501   -2.0761 H   0  0  0  0  0  0  0  0  0  0  0  0
    2.3702    3.0740   -0.7826 C   0  0  0  0  0  0  0  0  0  0  0  0
    1.6997    2.1673   -1.6764 C   0  0  0  0  0  3  0  0  0  0  0  0
    2.2774    1.9027   -2.5912 H   0  0  0  0  0  0  0  0  0  0  0  0
   -0.0017    0.7997   -2.6531 C   0  0  2  0  0  0  0  0  0  0  0  0
    0.8474    0.5791   -3.3406 H   0  0  0  0  0  0  0  0  0  0  0  0
   -1.0723    1.5774   -3.4266 C   0  0  0  0  0  0  0  0  0  0  0  0
   -0.6124    2.4511   -3.9286 H   0  0  0  0  0  0  0  0  0  0  0  0
   -1.8508    1.9611   -2.7377 H   0  0  0  0  0  0  0  0  0  0  0  0
   -1.5435    0.9332   -4.1947 H   0  0  0  0  0  0  0  0  0  0  0  0
   -0.4727   -0.5270   -2.0744 C   0  0  0  0  0  0  0  0  0  0  0  0
    0.4502   -1.5800   -1.9252 C   0  0  0  0  0  0  0  0  0  0  0  0
    1.4861   -1.4553   -2.2782 H   0  0  0  0  0  0  0  0  0  0  0  0
    0.0826   -2.7874   -1.3205 C   0  0  0  0  0  0  0  0  0  0  0  0
    0.8124   -3.6010   -1.2139 H   0  0  0  0  0  0  0  0  0  0  0  0
   -1.2244   -2.9316   -0.8303 C   0  0  0  0  0  0  0  0  0  0  0  0
   -2.1705   -1.9087   -0.9826 C   0  0  0  0  0  0  0  0  0  0  0  0
   -3.1953   -2.0317   -0.6047 H   0  0  0  0  0  0  0  0  0  0  0  0
   -1.7893   -0.7156   -1.6145 C   0  0  0  0  0  0  0  0  0  0  0  0
   -2.5398    0.0770   -1.7366 H   0  0  0  0  0  0  0  0  0  0  0  0
  4  3  1  0  0  0  0
  4  5  1  0  0  0  0
  5  6  1  0  0  0  0
  7  5  2  0  0  0  0
  7  8  1  0  0  0  0
  9  7  1  0  0  0  0
 10  9  1  0  0  0  0
 11 13  1  0  0  0  0
 11  9  2  0  0  0  0
 12 11  1  0  0  0  0
 13  4  2  0  0  0  0
 14  2  1  0  0  0  0
 14 13  1  0  0  0  0
 15 14  1  0  0  0  0
 16 17  1  6  0  0  0
 16 22  1  0  0  0  0
 16  2  1  0  0  0  0
 18 20  1  0  0  0  0
 18 16  1  0  0  0  0
 19 18  1  0  0  0  0
 21 18  1  0  0  0  0
 22 23  2  0  0  0  0
 22 30  1  0  0  0  0
 23 25  1  0  0  0  0
 24 23  1  0  0  0  0
 25 26  1  0  0  0  0
 25 27  2  0  0  0  0
 27  1  1  0  0  0  0
 28 27  1  0  0  0  0
 28 29  1  0  0  0  0
 30 28  2  0  0  0  0
 31 30  1  0  0  0  0
M  CHG  1   3  -1
M  END
