4,6
 OpenBabel05122313063D

 15 15  0  0  1  0  0  0  0  0999 V2000
   -2.5195    3.2617   -0.0298 S   0  0  0  0  0  0  0  0  0  0  0  0
   -3.0558   -2.7312   -1.0570 F   0  0  0  0  0  0  0  0  0  0  0  0
   -3.0509   -2.7226    1.1238 F   0  0  0  0  0  0  0  0  0  0  0  0
   -0.4590    1.6904   -0.0310 N   0  0  0  0  0  2  0  0  0  0  0  0
   -4.5014   -1.5082    0.0321 F   0  0  0  0  0  0  0  0  0  0  0  0
   -0.9859   -1.2272    0.0222 O   0  5  0  0  0  0  0  0  0  0  0  0
   -2.2039   -0.8003    0.0230 C   0  0  0  0  0  0  0  0  0  0  0  0
   -2.6588    0.5095    0.0187 C   0  0  0  0  0  0  0  0  0  0  0  0
   -3.7420    0.6790    0.0256 H   0  0  0  0  0  0  0  0  0  0  0  0
    0.0198    2.9891   -0.0666 C   0  0  0  0  0  0  0  0  0  0  0  0
    1.1012    3.1660   -0.0953 H   0  0  0  0  0  0  0  0  0  0  0  0
   -1.8147    1.6515   -0.0077 C   0  0  2  0  0  3  0  0  0  0  0  0
   -3.2199   -1.9473    0.0307 C   0  0  0  0  0  0  0  0  0  0  0  0
   -0.9337    3.9700   -0.0712 C   0  0  0  0  0  0  0  0  0  0  0  0
   -0.7901    5.0554   -0.1006 H   0  0  0  0  0  0  0  0  0  0  0  0
  1 12  1  0  0  0  0
  2 13  1  0  0  0  0
  4 12  1  0  0  0  0
  6  7  1  0  0  0  0
  7 13  1  0  0  0  0
  8  7  2  0  0  0  0
  8  9  1  0  0  0  0
 10  4  1  0  0  0  0
 11 10  1  0  0  0  0
 12  8  1  6  0  0  0
 13  5  1  0  0  0  0
 13  3  1  0  0  0  0
 14 10  2  0  0  0  0
 14  1  1  0  0  0  0
 15 14  1  0  0  0  0
M  CHG  1   6  -1
M  END
