1,4
 OpenBabel05122313063D

 13 12  0  0  1  0  0  0  0  0999 V2000
    1.6733   -1.5161   -0.0833 N   0  0  0  0  0  0  0  0  0  0  0  0
    1.6105   -2.3562    0.5076 H   0  0  0  0  0  0  0  0  0  0  0  0
    1.7765   -1.8534   -1.0538 H   0  0  0  0  0  0  0  0  0  0  0  0
    1.4347    1.1661    0.0035 O   0  0  0  0  0  1  0  0  0  0  0  0
    2.8809   -0.7084    0.2812 C   0  0  0  0  0  0  0  0  0  0  0  0
    3.8131   -1.2231   -0.0412 H   0  0  0  0  0  0  0  0  0  0  0  0
    2.8856   -0.5961    1.3843 H   0  0  0  0  0  0  0  0  0  0  0  0
    2.6866    0.6702   -0.3597 C   0  0  2  0  0  0  0  0  0  0  0  0
    2.7743    0.5174   -1.4772 H   0  0  0  0  0  0  0  0  0  0  0  0
    3.7683    1.6621    0.0635 C   0  0  0  0  0  0  0  0  0  0  0  0
    3.5516    2.6482   -0.3906 H   0  0  0  0  0  0  0  0  0  0  0  0
    4.7795    1.3381   -0.2590 H   0  0  0  0  0  0  0  0  0  0  0  0
    3.7582    1.7879    1.1655 H   0  0  0  0  0  0  0  0  0  0  0  0
  1  5  1  0  0  0  0
  1  2  1  0  0  0  0
  3  1  1  0  0  0  0
  5  7  1  0  0  0  0
  6  5  1  0  0  0  0
  8  9  1  6  0  0  0
  8  4  1  0  0  0  0
  8 10  1  0  0  0  0
  8  5  1  0  0  0  0
 10 13  1  0  0  0  0
 11 10  1  0  0  0  0
 12 10  1  0  0  0  0
M  END
