1,3
 OpenBabel05122313063D

 23 22  0  0  1  0  0  0  0  0999 V2000
    0.2304    2.0041   -0.0000 O   0  5  0  0  0  0  0  0  0  0  0  0
    2.6195   -1.5813   -0.0001 N   0  0  0  0  0  0  0  0  0  0  0  0
    2.0495   -0.2951   -0.0000 N   0  0  0  0  0  2  0  0  0  0  0  0
    4.4219    0.3379    0.0001 C   0  0  0  0  0  0  0  0  0  0  0  0
    4.6819   -0.2746   -0.8854 H   0  0  0  0  0  0  0  0  0  0  0  0
    5.0420    1.2532    0.0001 H   0  0  0  0  0  0  0  0  0  0  0  0
    4.6819   -0.2744    0.8857 H   0  0  0  0  0  0  0  0  0  0  0  0
    2.9501    0.6921    0.0001 C   0  0  1  0  0  3  0  0  0  0  0  0
    2.6254    2.0762    0.0001 C   0  0  0  0  0  0  0  0  0  0  0  0
    3.4748    2.7709    0.0001 H   0  0  0  0  0  0  0  0  0  0  0  0
    1.3487    2.6447   -0.0000 C   0  0  0  0  0  0  0  0  0  0  0  0
    1.1874    4.1499   -0.0002 C   0  0  0  0  0  0  0  0  0  0  0  0
    0.6047    4.4639   -0.8908 H   0  0  0  0  0  0  0  0  0  0  0  0
    0.6042    4.4641    0.8900 H   0  0  0  0  0  0  0  0  0  0  0  0
    2.1585    4.6779   -0.0001 H   0  0  0  0  0  0  0  0  0  0  0  0
    2.4488   -2.3042    1.2484 C   0  0  0  0  0  0  0  0  0  0  0  0
    3.0245   -3.2501    1.1851 H   0  0  0  0  0  0  0  0  0  0  0  0
    2.8746   -1.7033    2.0789 H   0  0  0  0  0  0  0  0  0  0  0  0
    1.3896   -2.5433    1.4914 H   0  0  0  0  0  0  0  0  0  0  0  0
    2.4487   -2.3041   -1.2486 C   0  0  0  0  0  0  0  0  0  0  0  0
    2.8746   -1.7032   -2.0791 H   0  0  0  0  0  0  0  0  0  0  0  0
    3.0243   -3.2501   -1.1854 H   0  0  0  0  0  0  0  0  0  0  0  0
    1.3894   -2.5430   -1.4917 H   0  0  0  0  0  0  0  0  0  0  0  0
  1 11  1  0  0  0  0
  2  3  1  0  0  0  0
  2 16  1  0  0  0  0
  4  7  1  0  0  0  0
  5  4  1  0  0  0  0
  6  4  1  0  0  0  0
  8  3  1  6  0  0  0
  8  4  1  0  0  0  0
  9  8  1  0  0  0  0
 10  9  1  0  0  0  0
 11  9  2  0  0  0  0
 12 15  1  0  0  0  0
 12 11  1  0  0  0  0
 12 14  1  0  0  0  0
 13 12  1  0  0  0  0
 16 19  1  0  0  0  0
 16 18  1  0  0  0  0
 17 16  1  0  0  0  0
 20 22  1  0  0  0  0
 20  2  1  0  0  0  0
 21 20  1  0  0  0  0
 23 20  1  0  0  0  0
M  CHG  1   1  -1
M  END
