1,2
 OpenBabel05122313063D

 21 21  0  0  0  0  0  0  0  0999 V2000
    1.7221   -0.8968   -0.6625 O   0  5  0  0  0  0  0  0  0  0  0  0
    0.6802    1.2512    0.8716 N   0  0  0  0  0  2  0  0  0  0  0  0
    1.9214    1.4263    0.9281 C   0  0  0  0  0  2  0  0  0  0  0  0
    3.0641    0.8561    0.3102 C   0  0  0  0  0  0  0  0  0  0  0  0
    2.9149   -0.3990   -0.3900 C   0  0  0  0  0  0  0  0  0  0  0  0
    4.0810   -1.0890   -0.8025 C   0  0  0  0  0  0  0  0  0  0  0  0
    3.9560   -2.0601   -1.3028 H   0  0  0  0  0  0  0  0  0  0  0  0
    5.3384   -0.5129   -0.6222 C   0  0  0  0  0  0  0  0  0  0  0  0
    6.2309   -1.0528   -0.9746 H   0  0  0  0  0  0  0  0  0  0  0  0
    5.4850    0.7533   -0.0084 C   0  0  0  0  0  0  0  0  0  0  0  0
    6.4840    1.1958    0.1129 H   0  0  0  0  0  0  0  0  0  0  0  0
    4.3601    1.4197    0.4659 C   0  0  0  0  0  0  0  0  0  0  0  0
    4.4463    2.3824    0.9906 H   0  0  0  0  0  0  0  0  0  0  0  0
   -0.2937    1.8185    1.8318 C   0  0  0  0  0  0  0  0  0  0  0  0
    0.1872    1.9066    2.8272 H   0  0  0  0  0  0  0  0  0  0  0  0
   -1.1306    1.0962    1.9023 H   0  0  0  0  0  0  0  0  0  0  0  0
   -0.8011    3.1543    1.3617 C   0  0  0  0  0  0  0  0  0  0  0  0
   -1.2829    3.1512    0.3696 H   0  0  0  0  0  0  0  0  0  0  0  0
   -0.6945    4.2847    2.0784 C   0  0  0  0  0  0  0  0  0  0  0  0
   -0.2044    4.2993    3.0665 H   0  0  0  0  0  0  0  0  0  0  0  0
   -1.0993    5.2385    1.7059 H   0  0  0  0  0  0  0  0  0  0  0  0
  1  5  1  0  0  0  0
  2  3  1  0  0  0  0
  2 14  1  0  0  0  0
  4 12  1  0  0  0  0
  4  3  1  0  0  0  0
  5  4  2  0  0  0  0
  6  8  2  0  0  0  0
  6  5  1  0  0  0  0
  7  6  1  0  0  0  0
  8 10  1  0  0  0  0
  9  8  1  0  0  0  0
 10 11  1  0  0  0  0
 10 12  2  0  0  0  0
 12 13  1  0  0  0  0
 14 16  1  0  0  0  0
 14 15  1  0  0  0  0
 17 14  1  0  0  0  0
 17 19  2  0  0  0  0
 18 17  1  0  0  0  0
 19 20  1  0  0  0  0
 21 19  1  0  0  0  0
M  CHG  1   1  -1
M  END
