1,3
 OpenBabel05122313063D

 19 19  0  0  0  0  0  0  0  0999 V2000
    1.4573    1.1295    0.2126 O   0  5  0  0  0  0  0  0  0  0  0  0
    0.4178   -2.7279    0.2524 O   0  0  0  0  0  0  0  0  0  0  0  0
    1.0826   -1.5398    0.1360 N   0  0  0  0  0  2  0  0  0  0  0  0
    3.2550   -0.4802   -0.0648 C   0  0  0  0  0  0  0  0  0  0  0  0
    2.7362    0.8584    0.0002 C   0  0  0  0  0  0  0  0  0  0  0  0
    3.6250    1.9555   -0.1466 C   0  0  0  0  0  0  0  0  0  0  0  0
    4.9870    1.7599   -0.3658 C   0  0  0  0  0  0  0  0  0  0  0  0
    5.5070    0.4539   -0.4511 C   0  0  0  0  0  0  0  0  0  0  0  0
    4.6484   -0.6340   -0.3002 C   0  0  0  0  0  3  0  0  0  0  0  0
    2.3989   -1.6530    0.0964 C   0  0  0  0  0  0  0  0  0  0  0  0
    2.9568   -3.0454    0.2045 C   0  0  0  0  0  0  0  0  0  0  0  0
    3.1993    2.9678   -0.0837 H   0  0  0  0  0  0  0  0  0  0  0  0
    5.6502    2.6313   -0.4778 H   0  0  0  0  0  0  0  0  0  0  0  0
    6.5777    0.2877   -0.6371 H   0  0  0  0  0  0  0  0  0  0  0  0
    5.0679   -1.6456   -0.3817 H   0  0  0  0  0  0  0  0  0  0  0  0
    4.0472   -3.0559    0.3577 H   0  0  0  0  0  0  0  0  0  0  0  0
    2.4651   -3.5704    1.0464 H   0  0  0  0  0  0  0  0  0  0  0  0
    2.7094   -3.6327   -0.7042 H   0  0  0  0  0  0  0  0  0  0  0  0
   -0.5451   -2.4042    0.2564 H   0  0  0  0  0  0  0  0  0  0  0  0
  2 19  1  0  0  0  0
  3  2  1  0  0  0  0
  4  5  1  0  0  0  0
  4 10  2  0  0  0  0
  5  1  1  0  0  0  0
  6 12  1  0  0  0  0
  6  5  2  0  0  0  0
  7  6  1  0  0  0  0
  8  7  2  0  0  0  0
  8  9  1  0  0  0  0
  9  4  1  0  0  0  0
 10  3  1  0  0  0  0
 10 11  1  0  0  0  0
 11 16  1  0  0  0  0
 11 17  1  0  0  0  0
 13  7  1  0  0  0  0
 14  8  1  0  0  0  0
 15  9  1  0  0  0  0
 18 11  1  0  0  0  0
M  CHG  1   1  -1
M  END
