1,3
 OpenBabel05122313063D

 36 36  0  0  0  0  0  0  0  0999 V2000
    1.7537    0.0134    0.6532 O   0  5  0  0  0  0  0  0  0  0  0  0
    4.0929    1.0071    1.3062 O   0  0  0  0  0  0  0  0  0  0  0  0
    0.2620   -1.7046   -0.8435 N   0  0  0  0  0  2  0  0  0  0  0  0
   -1.0022   -1.7810    1.9082 N   0  0  0  0  0  0  0  0  0  0  0  0
    2.7892   -0.5930    0.1606 C   0  0  0  0  0  0  0  0  0  0  0  0
    4.1037   -0.1071    0.5141 C   0  0  0  0  0  0  0  0  0  0  0  0
    5.2509   -0.7438    0.0393 C   0  0  0  0  0  0  0  0  0  0  0  0
    6.2452   -0.3619    0.3091 H   0  0  0  0  0  0  0  0  0  0  0  0
    5.1526   -1.8834   -0.8015 C   0  0  0  0  0  0  0  0  0  0  0  0
    6.0705   -2.3703   -1.1608 H   0  0  0  0  0  0  0  0  0  0  0  0
    3.9052   -2.3677   -1.1654 C   0  0  0  0  0  3  0  0  0  0  0  0
    3.8140   -3.2487   -1.8200 H   0  0  0  0  0  0  0  0  0  0  0  0
    2.7170   -1.7311   -0.7044 C   0  0  0  0  0  0  0  0  0  0  0  0
    1.4324   -2.2514   -1.0698 C   0  0  0  0  0  0  0  0  0  0  0  0
    1.4413   -3.2328   -1.5886 H   0  0  0  0  0  0  0  0  0  0  0  0
   -0.9002   -2.5480   -1.1570 C   0  0  0  0  0  0  0  0  0  0  0  0
   -0.6382   -3.2040   -2.0164 H   0  0  0  0  0  0  0  0  0  0  0  0
   -1.7400   -1.8941   -1.4520 H   0  0  0  0  0  0  0  0  0  0  0  0
   -1.3223   -3.4364    0.0242 C   0  0  0  0  0  0  0  0  0  0  0  0
   -0.4695   -4.0853    0.3226 H   0  0  0  0  0  0  0  0  0  0  0  0
   -2.1090   -4.1277   -0.3468 H   0  0  0  0  0  0  0  0  0  0  0  0
   -1.9043   -2.7099    1.2400 C   0  0  0  0  0  0  0  0  0  0  0  0
   -2.7860   -2.1272    0.9013 H   0  0  0  0  0  0  0  0  0  0  0  0
   -2.2918   -3.4857    1.9593 H   0  0  0  0  0  0  0  0  0  0  0  0
   -1.6931   -0.9760    2.8973 C   0  0  0  0  0  0  0  0  0  0  0  0
   -2.0588   -1.5755    3.7749 H   0  0  0  0  0  0  0  0  0  0  0  0
   -2.5679   -0.4759    2.4370 H   0  0  0  0  0  0  0  0  0  0  0  0
   -1.0144   -0.1875    3.2815 H   0  0  0  0  0  0  0  0  0  0  0  0
    0.1985   -2.3860    2.4501 C   0  0  0  0  0  0  0  0  0  0  0  0
   -0.0129   -3.1328    3.2626 H   0  0  0  0  0  0  0  0  0  0  0  0
    0.8531   -1.5936    2.8641 H   0  0  0  0  0  0  0  0  0  0  0  0
    0.7779   -2.8953    1.6563 H   0  0  0  0  0  0  0  0  0  0  0  0
    5.3346    1.5558    1.6917 C   0  0  0  0  0  0  0  0  0  0  0  0
    5.1087    2.4382    2.3193 H   0  0  0  0  0  0  0  0  0  0  0  0
    5.9375    1.8812    0.8129 H   0  0  0  0  0  0  0  0  0  0  0  0
    5.9412    0.8349    2.2860 H   0  0  0  0  0  0  0  0  0  0  0  0
  2 33  1  0  0  0  0
  4 29  1  0  0  0  0
  4 25  1  0  0  0  0
  5  6  2  0  0  0  0
  5  1  1  0  0  0  0
  6  2  1  0  0  0  0
  7  8  1  0  0  0  0
  7  6  1  0  0  0  0
  9  7  2  0  0  0  0
 10  9  1  0  0  0  0
 11  9  1  0  0  0  0
 11 13  1  0  0  0  0
 12 11  1  0  0  0  0
 13  5  1  0  0  0  0
 14  3  1  0  0  0  0
 14 13  2  0  0  0  0
 15 14  1  0  0  0  0
 16  3  1  0  0  0  0
 16 19  1  0  0  0  0
 17 16  1  0  0  0  0
 18 16  1  0  0  0  0
 19 20  1  0  0  0  0
 19 22  1  0  0  0  0
 21 19  1  0  0  0  0
 22  4  1  0  0  0  0
 22 24  1  0  0  0  0
 23 22  1  0  0  0  0
 25 28  1  0  0  0  0
 25 26  1  0  0  0  0
 27 25  1  0  0  0  0
 29 31  1  0  0  0  0
 29 30  1  0  0  0  0
 32 29  1  0  0  0  0
 33 36  1  0  0  0  0
 33 34  1  0  0  0  0
 35 33  1  0  0  0  0
M  CHG  1   1  -1
M  END
