1,26
 OpenBabel05122313063D

 26 26  0  0  1  0  0  0  0  0999 V2000
   -1.5875   -0.9780   -0.7475 O   0  0  0  0  0  1  0  0  0  0  0  0
   -2.7148   -0.4185   -0.1020 C   0  0  0  0  0  0  0  0  0  0  0  0
   -3.6284    0.1967   -1.2034 C   0  0  0  0  0  0  0  0  0  0  0  0
   -4.9512    0.8114   -0.7525 C   0  0  0  0  0  0  0  0  0  0  0  0
   -3.4140   -1.5411    0.7038 C   0  0  0  0  0  0  0  0  0  0  0  0
   -3.8129   -2.7474   -0.1437 C   0  0  0  0  0  0  0  0  0  0  0  0
   -2.2218    0.6926    0.8270 C   0  0  2  0  0  3  0  0  0  0  0  0
   -2.9484    1.2443    1.8985 C   0  0  0  0  0  0  0  0  0  0  0  0
   -2.3841    2.2964    2.6321 C   0  0  0  0  0  0  0  0  0  0  0  0
   -1.1133    2.7771    2.2802 C   0  0  0  0  0  0  0  0  0  0  0  0
   -0.4486    2.1682    1.2100 C   0  0  0  0  0  0  0  0  0  0  0  0
   -3.9405    0.8505    2.1567 H   0  0  0  0  0  0  0  0  0  0  0  0
   -2.9351    2.7399    3.4755 H   0  0  0  0  0  0  0  0  0  0  0  0
   -0.6407    3.6051    2.8274 H   0  0  0  0  0  0  0  0  0  0  0  0
    0.5539    2.4759    0.8717 H   0  0  0  0  0  0  0  0  0  0  0  0
   -3.0147    0.9479   -1.7418 H   0  0  0  0  0  0  0  0  0  0  0  0
   -3.8097   -0.6201   -1.9317 H   0  0  0  0  0  0  0  0  0  0  0  0
   -4.8030    1.6707   -0.0668 H   0  0  0  0  0  0  0  0  0  0  0  0
   -5.6070    0.0775   -0.2394 H   0  0  0  0  0  0  0  0  0  0  0  0
   -5.5133    1.1927   -1.6283 H   0  0  0  0  0  0  0  0  0  0  0  0
   -4.3056   -1.1252    1.2185 H   0  0  0  0  0  0  0  0  0  0  0  0
   -2.7156   -1.8550    1.5091 H   0  0  0  0  0  0  0  0  0  0  0  0
   -4.1967   -3.5693    0.4930 H   0  0  0  0  0  0  0  0  0  0  0  0
   -4.6077   -2.4945   -0.8738 H   0  0  0  0  0  0  0  0  0  0  0  0
   -2.9413   -3.1219   -0.7153 H   0  0  0  0  0  0  0  0  0  0  0  0
   -0.9943    1.1538    0.5198 N   0  0  0  0  0  2  0  0  0  0  0  0
  1  2  1  0  0  0  0
  2  5  1  0  0  0  0
  3  4  1  0  0  0  0
  3  2  1  0  0  0  0
  4 19  1  0  0  0  0
  4 18  1  0  0  0  0
  5 21  1  0  0  0  0
  5 22  1  0  0  0  0
  6 23  1  0  0  0  0
  6  5  1  0  0  0  0
  7  2  1  6  0  0  0
  7  8  1  0  0  0  0
  8 12  1  0  0  0  0
  8  9  2  0  0  0  0
  9 13  1  0  0  0  0
 10  9  1  0  0  0  0
 10 14  1  0  0  0  0
 11 10  2  0  0  0  0
 15 11  1  0  0  0  0
 16  3  1  0  0  0  0
 17  3  1  0  0  0  0
 20  4  1  0  0  0  0
 24  6  1  0  0  0  0
 25  6  1  0  0  0  0
 26  7  1  0  0  0  0
 26 11  1  0  0  0  0
M  END
