1,4
 OpenBabel05122313063D

 39 40  0  0  0  0  0  0  0  0999 V2000
    0.5714    0.6351   -0.9774 N   0  0  0  0  0  2  0  0  0  0  0  0
   -2.8675    1.8876   -1.2681 N   0  3  0  0  0  0  0  0  0  0  0  0
    6.6642    1.2187   -0.6425 N   0  0  0  0  0  0  0  0  0  0  0  0
    1.8448   -1.1047    1.0181 O   0  5  0  0  0  0  0  0  0  0  0  0
    6.6375    2.0593   -1.5489 O   0  0  0  0  0  0  0  0  0  0  0  0
    7.6886    0.8434   -0.0636 O   0  0  0  0  0  0  0  0  0  0  0  0
    2.9700    0.4692   -0.4637 C   0  0  0  0  0  0  0  0  0  0  0  0
    2.9156   -0.5348    0.6011 C   0  0  0  0  0  0  0  0  0  0  0  0
    4.1733   -0.9009    1.2056 C   0  0  0  0  0  0  0  0  0  0  0  0
    4.1262   -1.6552    2.0039 H   0  0  0  0  0  0  0  0  0  0  0  0
    5.3742   -0.3427    0.8151 C   0  0  0  0  0  0  0  0  0  0  0  0
    6.3276   -0.6250    1.2823 H   0  0  0  0  0  0  0  0  0  0  0  0
    5.3935    0.6249   -0.2223 C   0  0  0  0  0  0  0  0  0  0  0  0
    4.2183    1.0162   -0.8483 C   0  0  0  0  0  0  0  0  0  0  0  0
    4.2816    1.7662   -1.6506 H   0  0  0  0  0  0  0  0  0  0  0  0
    1.8211    0.9475   -1.1841 C   0  0  0  0  0  3  0  0  0  0  0  0
    2.0502    1.6598   -2.0105 H   0  0  0  0  0  0  0  0  0  0  0  0
   -0.4543    1.1914   -1.8363 C   0  0  0  0  0  0  0  0  0  0  0  0
   -1.0077    0.3331   -2.2829 H   0  0  0  0  0  0  0  0  0  0  0  0
   -0.0130    1.7752   -2.6767 H   0  0  0  0  0  0  0  0  0  0  0  0
   -1.3942    2.0723   -0.9957 C   0  0  0  0  0  0  0  0  0  0  0  0
   -1.2663    1.8253    0.0826 H   0  0  0  0  0  0  0  0  0  0  0  0
   -1.1823    3.1500   -1.1352 H   0  0  0  0  0  0  0  0  0  0  0  0
   -3.3678    0.4852   -0.9620 C   0  0  0  0  0  0  0  0  0  0  0  0
   -3.1499    0.3272    0.1171 H   0  0  0  0  0  0  0  0  0  0  0  0
   -2.7443   -0.2453   -1.5147 H   0  0  0  0  0  0  0  0  0  0  0  0
   -4.8465    0.3549   -1.2872 C   0  0  0  0  0  0  0  0  0  0  0  0
   -5.1422   -0.6841   -1.0395 H   0  0  0  0  0  0  0  0  0  0  0  0
   -5.0094    0.4668   -2.3842 H   0  0  0  0  0  0  0  0  0  0  0  0
   -5.6862    1.3790   -0.5178 C   0  0  0  0  0  0  0  0  0  0  0  0
   -6.7548    1.3088   -0.8024 H   0  0  0  0  0  0  0  0  0  0  0  0
   -5.6272    1.1587    0.5697 H   0  0  0  0  0  0  0  0  0  0  0  0
   -5.1578    2.7936   -0.7808 C   0  0  0  0  0  0  0  0  0  0  0  0
   -5.6834    3.5464   -0.1591 H   0  0  0  0  0  0  0  0  0  0  0  0
   -5.3462    3.0833   -1.8397 H   0  0  0  0  0  0  0  0  0  0  0  0
   -3.6673    2.9042   -0.4821 C   0  0  0  0  0  0  0  0  0  0  0  0
   -3.2604    3.9039   -0.7306 H   0  0  0  0  0  0  0  0  0  0  0  0
   -3.4368    2.6873    0.5816 H   0  0  0  0  0  0  0  0  0  0  0  0
   -3.0449    2.0624   -2.2751 H   0  0  0  0  0  0  0  0  0  0  0  0
  2 21  1  0  0  0  0
  2 24  1  0  0  0  0
  2 36  1  0  0  0  0
  3 13  1  0  0  0  0
  3  6  2  0  0  0  0
  5  3  2  0  0  0  0
  7  8  1  0  0  0  0
  8  4  1  0  0  0  0
  8  9  2  0  0  0  0
  9 10  1  0  0  0  0
 11  9  1  0  0  0  0
 11 12  1  0  0  0  0
 13 11  2  0  0  0  0
 14  7  2  0  0  0  0
 14 13  1  0  0  0  0
 15 14  1  0  0  0  0
 16  1  1  0  0  0  0
 16  7  1  0  0  0  0
 17 16  1  0  0  0  0
 18 21  1  0  0  0  0
 18  1  1  0  0  0  0
 19 18  1  0  0  0  0
 20 18  1  0  0  0  0
 21 22  1  0  0  0  0
 23 21  1  0  0  0  0
 24 25  1  0  0  0  0
 26 24  1  0  0  0  0
 27 28  1  0  0  0  0
 27 24  1  0  0  0  0
 27 30  1  0  0  0  0
 29 27  1  0  0  0  0
 30 32  1  0  0  0  0
 31 30  1  0  0  0  0
 33 30  1  0  0  0  0
 33 36  1  0  0  0  0
 33 34  1  0  0  0  0
 35 33  1  0  0  0  0
 36 38  1  0  0  0  0
 37 36  1  0  0  0  0
 39  2  1  0  0  0  0
M  CHG  2   2   1   4  -1
M  END
