1,3
 OpenBabel05122313063D

 26 27  0  0  1  0  0  0  0  0999 V2000
    0.2298   -2.4615    0.1385 O   0  5  0  0  0  0  0  0  0  0  0  0
   -1.3379   -3.9707    0.6861 O   0  0  0  0  0  0  0  0  0  0  0  0
   -1.4136   -0.3347    0.4263 N   0  0  0  0  0  0  0  0  0  0  0  0
   -4.8598    1.1471   -1.7857 N   0  0  0  0  0  0  0  0  0  0  0  0
   -5.3811    1.1161   -0.5056 C   0  0  0  0  0  0  0  0  0  0  0  0
   -0.9948   -2.8181    0.4494 C   0  0  0  0  0  0  0  0  0  0  0  0
   -2.0439   -1.6862    0.5173 C   0  0  2  0  0  0  0  0  0  0  0  0
   -3.1013   -1.9008   -0.5959 C   0  0  0  0  0  0  0  0  0  0  0  0
   -4.0118    0.0698   -1.9663 C   0  0  0  0  0  0  0  0  0  0  0  0
   -3.9706   -0.7008   -0.8111 C   0  0  0  0  0  0  0  0  0  0  0  0
   -4.8395   -0.0443    0.1428 C   0  0  0  0  0  0  0  0  0  0  0  0
   -5.2177   -0.3161    1.4777 C   0  0  0  0  0  0  0  0  0  0  0  0
   -6.2695    1.9912    0.1431 C   0  0  0  0  0  0  0  0  0  0  0  0
   -6.6174    1.6968    1.4663 C   0  0  0  0  0  0  0  0  0  0  0  0
   -6.0982    0.5557    2.1261 C   0  0  0  0  0  0  0  0  0  0  0  0
   -1.4627    0.1575    1.3278 H   0  0  0  0  0  0  0  0  0  0  0  0
   -1.9627    0.2287   -0.2463 H   0  0  0  0  0  0  0  0  0  0  0  0
   -5.0689    1.8529   -2.4888 H   0  0  0  0  0  0  0  0  0  0  0  0
   -2.5443   -1.7745    1.5030 H   0  0  0  0  0  0  0  0  0  0  0  0
   -2.5737   -2.1400   -1.5389 H   0  0  0  0  0  0  0  0  0  0  0  0
   -3.6808   -2.7994   -0.3030 H   0  0  0  0  0  0  0  0  0  0  0  0
   -3.4684   -0.0803   -2.9063 H   0  0  0  0  0  0  0  0  0  0  0  0
   -4.8350   -1.2089    1.9956 H   0  0  0  0  0  0  0  0  0  0  0  0
   -6.6783    2.8752   -0.3694 H   0  0  0  0  0  0  0  0  0  0  0  0
   -7.3105    2.3626    2.0022 H   0  0  0  0  0  0  0  0  0  0  0  0
   -6.4007    0.3511    3.1641 H   0  0  0  0  0  0  0  0  0  0  0  0
  1  6  1  0  0  0  0
  3  7  1  0  0  0  0
  3 16  1  0  0  0  0
  4  5  1  0  0  0  0
  5 11  2  0  0  0  0
  5 13  1  0  0  0  0
  6  7  1  0  0  0  0
  6  2  2  0  0  0  0
  7 19  1  1  0  0  0
  8 21  1  0  0  0  0
  8  7  1  0  0  0  0
  9  4  1  0  0  0  0
  9 10  2  0  0  0  0
 10  8  1  0  0  0  0
 10 11  1  0  0  0  0
 11 12  1  0  0  0  0
 12 23  1  0  0  0  0
 12 15  2  0  0  0  0
 13 14  2  0  0  0  0
 14 25  1  0  0  0  0
 14 15  1  0  0  0  0
 15 26  1  0  0  0  0
 17  3  1  0  0  0  0
 18  4  1  0  0  0  0
 20  8  1  0  0  0  0
 22  9  1  0  0  0  0
 24 13  1  0  0  0  0
M  CHG  1   1  -1
M  END
