1,2
 OpenBabel05122313063D

 27 27  0  0  1  0  0  0  0  0999 V2000
   -0.6544   -1.6428   -1.4210 O   0  5  0  0  0  0  0  0  0  0  0  0
   -1.0103    1.1072   -1.1864 N   0  0  0  0  0  2  0  0  0  0  0  0
   -1.8836   -1.6398   -1.8540 C   0  0  0  0  0  0  0  0  0  0  0  0
   -2.4397   -2.8868   -2.2778 C   0  0  0  0  0  0  0  0  0  0  0  0
   -3.7709   -3.0059   -2.6586 C   0  0  0  0  0  0  0  0  0  0  0  0
   -4.6135   -1.8723   -2.6574 C   0  0  0  0  0  0  0  0  0  0  0  0
   -4.0805   -0.6324   -2.3126 C   0  0  0  0  0  0  0  0  0  0  0  0
   -2.7231   -0.4621   -1.9227 C   0  0  0  0  0  0  0  0  0  0  0  0
   -2.1819    0.8917   -1.7391 C   0  0  2  0  0  3  0  0  0  0  0  0
   -3.0494    2.0317   -2.2369 C   0  0  0  0  0  0  0  0  0  0  0  0
   -0.4115    2.4407   -1.1942 C   0  0  0  0  0  0  0  0  0  0  0  0
    0.2352    2.7818   -2.5440 C   0  0  0  0  0  0  0  0  0  0  0  0
    1.0676    4.0615   -2.4844 C   0  0  0  0  0  0  0  0  0  0  0  0
   -1.7681   -3.7573   -2.2477 H   0  0  0  0  0  0  0  0  0  0  0  0
   -4.1705   -3.9905   -2.9488 H   0  0  0  0  0  0  0  0  0  0  0  0
   -5.6737   -1.9609   -2.9355 H   0  0  0  0  0  0  0  0  0  0  0  0
   -4.7456    0.2415   -2.3343 H   0  0  0  0  0  0  0  0  0  0  0  0
   -3.3786    1.8549   -3.2782 H   0  0  0  0  0  0  0  0  0  0  0  0
   -3.9621    2.0945   -1.6090 H   0  0  0  0  0  0  0  0  0  0  0  0
   -2.5472    3.0101   -2.1913 H   0  0  0  0  0  0  0  0  0  0  0  0
    0.3708    2.4440   -0.4157 H   0  0  0  0  0  0  0  0  0  0  0  0
   -1.1438    3.2244   -0.8991 H   0  0  0  0  0  0  0  0  0  0  0  0
   -0.5498    2.8681   -3.3261 H   0  0  0  0  0  0  0  0  0  0  0  0
    0.8665    1.9174   -2.8329 H   0  0  0  0  0  0  0  0  0  0  0  0
    1.5210    4.2971   -3.4680 H   0  0  0  0  0  0  0  0  0  0  0  0
    0.4552    4.9368   -2.1813 H   0  0  0  0  0  0  0  0  0  0  0  0
    1.8944    3.9680   -1.7493 H   0  0  0  0  0  0  0  0  0  0  0  0
  3  1  1  0  0  0  0
  4 14  1  0  0  0  0
  4  3  2  0  0  0  0
  5  6  2  0  0  0  0
  5  4  1  0  0  0  0
  6  7  1  0  0  0  0
  7  8  2  0  0  0  0
  8  3  1  0  0  0  0
  8  9  1  0  0  0  0
  9  2  1  6  0  0  0
 10 20  1  0  0  0  0
 10  9  1  0  0  0  0
 10 19  1  0  0  0  0
 11  2  1  0  0  0  0
 11 22  1  0  0  0  0
 11 21  1  0  0  0  0
 12 13  1  0  0  0  0
 12 11  1  0  0  0  0
 13 26  1  0  0  0  0
 13 27  1  0  0  0  0
 15  5  1  0  0  0  0
 16  6  1  0  0  0  0
 17  7  1  0  0  0  0
 18 10  1  0  0  0  0
 23 12  1  0  0  0  0
 24 12  1  0  0  0  0
 25 13  1  0  0  0  0
M  CHG  1   1  -1
M  END
