2,5
 OpenBabel05122313063D

 21 21  0  0  0  0  0  0  0  0999 V2000
   -5.7028    2.7900    0.5806 O   0  0  0  0  0  0  0  0  0  0  0  0
   -1.6056    0.6769   -0.4531 O   0  5  0  0  0  0  0  0  0  0  0  0
   -1.3761   -3.0864    0.3108 O   0  0  0  0  0  1  0  0  0  0  0  0
   -3.8583    0.8878   -0.4415 N   0  0  0  0  0  0  0  0  0  0  0  0
   -1.5185   -1.8922    0.0840 N   0  0  0  0  0  2  0  0  0  0  0  0
   -4.7988   -2.9192    0.2259 N   0  0  0  0  0  0  0  0  0  0  0  0
   -3.7134    2.3161   -0.7469 C   0  0  0  0  0  0  0  0  0  0  0  0
   -4.2397    2.5209   -1.7048 H   0  0  0  0  0  0  0  0  0  0  0  0
   -2.6406    2.5474   -0.8665 H   0  0  0  0  0  0  0  0  0  0  0  0
   -4.3476    3.1465    0.3723 C   0  0  0  0  0  0  0  0  0  0  0  0
   -3.7546    3.0080    1.3105 H   0  0  0  0  0  0  0  0  0  0  0  0
   -4.3311    4.2219    0.1052 H   0  0  0  0  0  0  0  0  0  0  0  0
   -5.8219    1.4198    0.9162 C   0  0  0  0  0  0  0  0  0  0  0  0
   -6.9008    1.2086    1.0533 H   0  0  0  0  0  0  0  0  0  0  0  0
   -5.2953    1.2011    1.8788 H   0  0  0  0  0  0  0  0  0  0  0  0
   -5.2492    0.5131   -0.1797 C   0  0  0  0  0  0  0  0  0  0  0  0
   -5.3315   -0.5452    0.1155 H   0  0  0  0  0  0  0  0  0  0  0  0
   -5.8310    0.6531   -1.1171 H   0  0  0  0  0  0  0  0  0  0  0  0
   -2.7484    0.1174   -0.3086 C   0  0  0  0  0  0  0  0  0  0  0  0
   -2.7681   -1.3188   -0.0244 C   0  0  0  0  0  0  0  0  0  0  0  0
   -3.8849   -2.1857    0.1128 C   0  0  0  0  0  0  0  0  0  0  0  0
  1 13  1  0  0  0  0
  2 19  1  0  0  0  0
  4 19  1  0  0  0  0
  4 16  1  0  0  0  0
  5  3  1  0  0  0  0
  7  4  1  0  0  0  0
  7 10  1  0  0  0  0
  8  7  1  0  0  0  0
  9  7  1  0  0  0  0
 10  1  1  0  0  0  0
 10 11  1  0  0  0  0
 12 10  1  0  0  0  0
 13 14  1  0  0  0  0
 13 15  1  0  0  0  0
 16 17  1  0  0  0  0
 16 13  1  0  0  0  0
 18 16  1  0  0  0  0
 19 20  2  0  0  0  0
 20  5  1  0  0  0  0
 20 21  1  0  0  0  0
 21  6  3  0  0  0  0
M  CHG  1   2  -1
M  END
