1,4
 OpenBabel05122313063D

 17 17  0  0  1  0  0  0  0  0999 V2000
    2.5903   -0.0741    0.0707 N   0  0  0  0  0  2  0  0  0  0  0  0
    3.1271   -1.3240   -0.0286 C   0  0  1  0  0  3  0  0  0  0  0  0
    2.1278   -2.4639   -0.1989 C   0  0  0  0  0  0  0  0  0  0  0  0
    0.8855   -2.0571   -0.1774 O   0  5  0  0  0  0  0  0  0  0  0  0
    2.5239   -3.6175   -0.3405 O   0  0  0  0  0  0  0  0  0  0  0  0
    4.4957   -1.5574    0.0098 C   0  0  0  0  0  0  0  0  0  0  0  0
    4.8536   -2.5925   -0.0820 H   0  0  0  0  0  0  0  0  0  0  0  0
    5.3765   -0.4657    0.1629 C   0  0  0  0  0  0  0  0  0  0  0  0
    6.6951   -0.7419    0.1988 O   0  0  0  0  0  0  0  0  0  0  0  0
    7.6128    0.3319    0.3513 C   0  0  0  0  0  0  0  0  0  0  0  0
    7.5406    1.0546   -0.4906 H   0  0  0  0  0  0  0  0  0  0  0  0
    8.6209   -0.1206    0.3548 H   0  0  0  0  0  0  0  0  0  0  0  0
    7.4531    0.8736    1.3092 H   0  0  0  0  0  0  0  0  0  0  0  0
    4.8180    0.8285    0.2665 C   0  0  0  0  0  0  0  0  0  0  0  0
    5.4377    1.7259    0.3863 H   0  0  0  0  0  0  0  0  0  0  0  0
    3.4285    0.9734    0.2149 C   0  0  0  0  0  0  0  0  0  0  0  0
    2.9557    1.9643    0.2901 H   0  0  0  0  0  0  0  0  0  0  0  0
  1 16  1  0  0  0  0
  2  3  1  6  0  0  0
  2  6  1  0  0  0  0
  2  1  1  0  0  0  0
  3  4  1  0  0  0  0
  5  3  2  0  0  0  0
  6  8  2  0  0  0  0
  7  6  1  0  0  0  0
  8  9  1  0  0  0  0
  8 14  1  0  0  0  0
  9 10  1  0  0  0  0
 10 12  1  0  0  0  0
 10 13  1  0  0  0  0
 11 10  1  0  0  0  0
 14 15  1  0  0  0  0
 16 14  2  0  0  0  0
 16 17  1  0  0  0  0
M  CHG  1   4  -1
M  END
