2,3
q = -1.0, confidence = 0.002

 27 28  0  0  0  0  0  0  0  0999 V2000
    7.2909    0.4497   -0.1086 Cl  0  0  0  0  0  0  0  0  0  0  0  0
    1.6206   -1.0505    0.5413 O   0  5  0  0  0  0  0  0  0  0  0  0
    1.0095    1.7525    0.2361 N   0  0  0  0  0  2  0  0  0  0  0  0
    0.7698    4.0269   -0.3507 N   0  0  0  0  0  0  0  0  0  0  0  0
    3.2469    0.7240    0.1561 C   0  0  0  0  0  0  0  0  0  0  0  0
    2.8486   -0.6451    0.3957 C   0  0  0  0  0  0  0  0  0  0  0  0
    0.3018    2.9893    0.3497 C   0  0  0  0  0  0  0  0  0  0  0  0
    5.2243   -1.2913    0.3423 C   0  0  0  0  0  0  0  0  0  0  0  0
    6.0047   -2.0632    0.4108 H   0  0  0  0  0  0  0  0  0  0  0  0
    4.6300    1.0403    0.0109 C   0  0  0  0  0  3  0  0  0  0  0  0
    4.9255    2.0852   -0.1636 H   0  0  0  0  0  0  0  0  0  0  0  0
   -0.9926    5.3927    0.5523 C   0  0  0  0  0  0  0  0  0  0  0  0
   -1.4923    6.3713    0.6003 H   0  0  0  0  0  0  0  0  0  0  0  0
    5.6004    0.0523    0.0892 C   0  0  0  0  0  0  0  0  0  0  0  0
    0.1433    5.2175   -0.2626 C   0  0  0  0  0  0  0  0  0  0  0  0
    3.8870   -1.6252    0.5005 C   0  0  0  0  0  0  0  0  0  0  0  0
    3.5791   -2.6619    0.6981 H   0  0  0  0  0  0  0  0  0  0  0  0
   -1.4654    4.3040    1.3021 C   0  0  0  0  0  0  0  0  0  0  0  0
   -2.3403    4.4159    1.9601 H   0  0  0  0  0  0  0  0  0  0  0  0
   -0.8142    3.0721    1.2069 C   0  0  0  0  0  0  0  0  0  0  0  0
   -1.1416    2.1923    1.7754 H   0  0  0  0  0  0  0  0  0  0  0  0
    2.3211    1.8151    0.1607 C   0  0  0  0  0  0  0  0  0  0  0  0
    2.7486    2.8354    0.1250 H   0  0  0  0  0  0  0  0  0  0  0  0
    0.7193    6.3402   -1.0849 C   0  0  0  0  0  0  0  0  0  0  0  0
    1.7780    6.5170   -0.8054 H   0  0  0  0  0  0  0  0  0  0  0  0
    0.1546    7.2823   -0.9553 H   0  0  0  0  0  0  0  0  0  0  0  0
    0.7179    6.0669   -2.1598 H   0  0  0  0  0  0  0  0  0  0  0  0
  1 14  1  0  0  0  0
  3  7  1  0  0  0  0
  4 15  2  0  0  0  0
  4  7  1  0  0  0  0
  5 22  2  0  0  0  0
  5  6  1  0  0  0  0
  6 16  2  0  0  0  0
  6  2  1  0  0  0  0
  7 20  2  0  0  0  0
  8  9  1  0  0  0  0
  8 16  1  0  0  0  0
 10 14  1  0  0  0  0
 10  5  1  0  0  0  0
 11 10  1  0  0  0  0
 12 13  1  0  0  0  0
 12 18  2  0  0  0  0
 14  8  2  0  0  0  0
 15 12  1  0  0  0  0
 16 17  1  0  0  0  0
 18 19  1  0  0  0  0
 20 18  1  0  0  0  0
 20 21  1  0  0  0  0
 22  3  1  0  0  0  0
 23 22  1  0  0  0  0
 24 26  1  0  0  0  0
 24 25  1  0  0  0  0
 24 15  1  0  0  0  0
 27 24  1  0  0  0  0
M  CHG  1   2  -1
M  END
