1,28
 OpenBabel05122313063D

 29 29  0  0  0  0  0  0  0  0999 V2000
    0.9156   -1.2145   -0.4867 O   0  5  0  0  0  0  0  0  0  0  0  0
    4.8977    2.0534    1.2109 O   0  0  0  0  0  0  0  0  0  0  0  0
    4.8373    1.4540    1.9786 H   0  0  0  0  0  0  0  0  0  0  0  0
   -1.4480    3.1649   -1.5558 O   0  0  0  0  0  0  0  0  0  0  0  0
   -1.3216    2.1948   -1.7907 H   0  0  0  0  0  0  0  0  0  0  0  0
    2.2243   -1.1487   -0.3877 C   0  0  0  0  0  0  0  0  0  0  0  0
    2.9654   -2.3791   -0.4312 C   0  0  0  0  0  0  0  0  0  0  0  0
    2.2144   -3.6661   -0.6213 C   0  0  0  0  0  0  0  0  0  0  0  0
    1.6711   -3.6701   -1.5894 H   0  0  0  0  0  0  0  0  0  0  0  0
    1.4368   -3.7929    0.1609 H   0  0  0  0  0  0  0  0  0  0  0  0
    2.9230   -4.5132   -0.5905 H   0  0  0  0  0  0  0  0  0  0  0  0
    4.9580   -1.2509   -0.1257 C   0  0  0  0  0  0  0  0  0  0  0  0
    6.0576   -1.3278   -0.0376 H   0  0  0  0  0  0  0  0  0  0  0  0
    4.3563    0.0084   -0.0630 C   0  0  0  0  0  0  0  0  0  0  0  0
    5.2189    1.2407    0.0829 C   0  0  0  0  0  0  0  0  0  0  0  0
    6.2890    0.9233    0.0987 H   0  0  0  0  0  0  0  0  0  0  0  0
    5.0974    1.9042   -0.8006 H   0  0  0  0  0  0  0  0  0  0  0  0
    2.9279    0.0726   -0.1847 C   0  0  0  0  0  0  0  0  0  0  0  0
    2.2473    1.3352   -0.1064 C   0  0  0  0  0  3  0  0  0  0  0  0
    2.8762    2.1902    0.2051 H   0  0  0  0  0  0  0  0  0  0  0  0
    0.6400    2.9534   -0.2993 C   0  0  0  0  0  0  0  0  0  0  0  0
    1.3906    3.5836    0.2069 H   0  0  0  0  0  0  0  0  0  0  0  0
   -0.4271    3.6396   -0.8315 C   0  0  0  0  0  0  0  0  0  0  0  0
   -0.5550    5.1183   -0.5984 C   0  0  0  0  0  0  0  0  0  0  0  0
   -0.5946    5.6505   -1.5715 H   0  0  0  0  0  0  0  0  0  0  0  0
    0.2777    5.5227    0.0043 H   0  0  0  0  0  0  0  0  0  0  0  0
   -1.5137    5.3377   -0.0820 H   0  0  0  0  0  0  0  0  0  0  0  0
    0.9724    1.5915   -0.3777 N   0  0  0  0  0  2  0  0  0  0  0  0
    4.2923   -2.4118   -0.2985 N   0  0  0  0  0  0  0  0  0  0  0  0
  1  6  1  0  0  0  0
  2  3  1  0  0  0  0
  4 23  1  0  0  0  0
  5  4  1  0  0  0  0
  6 18  1  0  0  0  0
  7  6  2  0  0  0  0
  7 29  1  0  0  0  0
  8 11  1  0  0  0  0
  8  7  1  0  0  0  0
  8 10  1  0  0  0  0
  9  8  1  0  0  0  0
 12 14  1  0  0  0  0
 12 13  1  0  0  0  0
 14 15  1  0  0  0  0
 15 16  1  0  0  0  0
 15  2  1  0  0  0  0
 17 15  1  0  0  0  0
 18 19  1  0  0  0  0
 18 14  2  0  0  0  0
 19 20  1  0  0  0  0
 21 22  1  0  0  0  0
 23 24  1  0  0  0  0
 23 21  2  0  0  0  0
 24 27  1  0  0  0  0
 24 26  1  0  0  0  0
 25 24  1  0  0  0  0
 28 21  1  0  0  0  0
 28 19  1  0  0  0  0
 29 12  2  0  0  0  0
M  CHG  1   1  -1
M  END
