1,4
 OpenBabel05122313063D

 26 26  0  0  1  0  0  0  0  0999 V2000
   -0.9865   -1.0577    0.2100 N   0  0  0  0  0  2  0  0  0  0  0  0
   -0.5035    0.7785   -1.5766 O   0  0  0  0  0  0  0  0  0  0  0  0
   -0.3015    1.5399   -2.1549 H   0  0  0  0  0  0  0  0  0  0  0  0
   -0.0722    1.4992    1.1530 O   0  0  0  0  0  1  0  0  0  0  0  0
   -1.1220   -2.2158    0.9016 C   0  0  0  0  0  3  0  0  0  0  0  0
   -0.1953   -2.6504    1.3035 H   0  0  0  0  0  0  0  0  0  0  0  0
   -2.3617   -2.8269    1.1005 C   0  0  0  0  0  0  0  0  0  0  0  0
   -2.4204   -3.7651    1.6697 H   0  0  0  0  0  0  0  0  0  0  0  0
   -3.5048   -2.2210    0.5625 C   0  0  0  0  0  0  0  0  0  0  0  0
   -4.4983   -2.6732    0.6977 H   0  0  0  0  0  0  0  0  0  0  0  0
   -3.3636   -1.0302   -0.1638 C   0  0  0  0  0  0  0  0  0  0  0  0
   -4.2443   -0.5465   -0.6068 H   0  0  0  0  0  0  0  0  0  0  0  0
   -2.0899   -0.4692   -0.3286 C   0  0  0  0  0  0  0  0  0  0  0  0
   -1.8778    0.8447   -1.0932 C   0  0  1  0  0  0  0  0  0  0  0  0
   -2.0438    2.0593   -0.1485 C   0  0  0  0  0  0  0  0  0  0  0  0
   -1.8880    2.9999   -0.7285 H   0  0  0  0  0  0  0  0  0  0  0  0
   -3.0979    2.1195    0.1950 H   0  0  0  0  0  0  0  0  0  0  0  0
   -1.1298    2.1448    1.0616 C   0  0  2  0  0  3  0  0  0  0  0  0
   -1.5321    3.0707    2.1637 C   0  0  0  0  0  0  0  0  0  0  0  0
   -2.3638    2.6028    2.7361 H   0  0  0  0  0  0  0  0  0  0  0  0
   -1.9281    4.0270    1.7655 H   0  0  0  0  0  0  0  0  0  0  0  0
   -0.6857    3.2517    2.8499 H   0  0  0  0  0  0  0  0  0  0  0  0
   -2.7967    0.9772   -2.3071 C   0  0  0  0  0  0  0  0  0  0  0  0
   -2.5302    1.8852   -2.8858 H   0  0  0  0  0  0  0  0  0  0  0  0
   -3.8559    1.0896   -2.0088 H   0  0  0  0  0  0  0  0  0  0  0  0
   -2.7015    0.0935   -2.9657 H   0  0  0  0  0  0  0  0  0  0  0  0
  1  5  1  0  0  0  0
  3  2  1  0  0  0  0
  5  7  1  0  0  0  0
  5  6  1  0  0  0  0
  7  8  1  0  0  0  0
  9 10  1  0  0  0  0
  9  7  2  0  0  0  0
 11  9  1  0  0  0  0
 12 11  1  0  0  0  0
 13 11  2  0  0  0  0
 13  1  1  0  0  0  0
 14  2  1  6  0  0  0
 14 13  1  0  0  0  0
 14 15  1  0  0  0  0
 15 17  1  0  0  0  0
 15 18  1  0  0  0  0
 16 15  1  0  0  0  0
 18  4  1  6  0  0  0
 18 19  1  0  0  0  0
 19 20  1  0  0  0  0
 19 22  1  0  0  0  0
 21 19  1  0  0  0  0
 23 25  1  0  0  0  0
 23 14  1  0  0  0  0
 24 23  1  0  0  0  0
 26 23  1  0  0  0  0
M  END
