1,4
 OpenBabel05122313063D

 30 31  0  0  1  0  0  0  0  0999 V2000
   -1.2687    1.0728    0.1221 N   0  0  0  0  0  2  0  0  0  0  0  0
    0.2708   -0.1838   -1.6626 O   0  0  0  0  0  0  0  0  0  0  0  0
   -0.2239   -0.1079   -2.5016 H   0  0  0  0  0  0  0  0  0  0  0  0
    0.7584   -0.6335    1.0292 O   0  0  0  0  0  1  0  0  0  0  0  0
   -2.2696    1.6598    0.8174 C   0  0  0  0  0  3  0  0  0  0  0  0
   -2.9828    0.9875    1.3161 H   0  0  0  0  0  0  0  0  0  0  0  0
   -2.3982    3.0491    0.9090 C   0  0  0  0  0  0  0  0  0  0  0  0
   -3.2273    3.4792    1.4881 H   0  0  0  0  0  0  0  0  0  0  0  0
   -1.4671    3.8631    0.2489 C   0  0  0  0  0  0  0  0  0  0  0  0
   -1.5472    4.9592    0.2932 H   0  0  0  0  0  0  0  0  0  0  0  0
   -0.4353    3.2543   -0.4798 C   0  0  0  0  0  0  0  0  0  0  0  0
    0.3067    3.8585   -1.0226 H   0  0  0  0  0  0  0  0  0  0  0  0
   -0.3631    1.8561   -0.5196 C   0  0  0  0  0  0  0  0  0  0  0  0
    0.7450    1.1202   -1.2511 C   0  0  1  0  0  0  0  0  0  0  0  0
    1.0439    1.6986   -2.1503 H   0  0  0  0  0  0  0  0  0  0  0  0
    1.7903    0.0263    0.8239 C   0  0  1  0  0  3  0  0  0  0  0  0
    2.9760   -0.1153    1.7305 C   0  0  0  0  0  0  0  0  0  0  0  0
    2.7095   -0.7720    2.5795 H   0  0  0  0  0  0  0  0  0  0  0  0
    3.2456    0.8889    2.1255 H   0  0  0  0  0  0  0  0  0  0  0  0
    4.1700   -0.6723    0.9111 C   0  0  0  0  0  0  0  0  0  0  0  0
    3.9361   -1.7139    0.6035 H   0  0  0  0  0  0  0  0  0  0  0  0
    5.0597   -0.7295    1.5688 H   0  0  0  0  0  0  0  0  0  0  0  0
    4.4489    0.1876   -0.3244 C   0  0  0  0  0  0  0  0  0  0  0  0
    4.8023    1.1943   -0.0099 H   0  0  0  0  0  0  0  0  0  0  0  0
    5.2709   -0.2576   -0.9203 H   0  0  0  0  0  0  0  0  0  0  0  0
    3.2026    0.3355   -1.2027 C   0  0  0  0  0  0  0  0  0  0  0  0
    2.9007   -0.6487   -1.6187 H   0  0  0  0  0  0  0  0  0  0  0  0
    3.4000    1.0046   -2.0657 H   0  0  0  0  0  0  0  0  0  0  0  0
    2.0041    0.9108   -0.3944 C   0  0  1  0  0  0  0  0  0  0  0  0
    2.3114    1.9099   -0.0120 H   0  0  0  0  0  0  0  0  0  0  0  0
  1  5  1  0  0  0  0
  2 14  1  0  0  0  0
  3  2  1  0  0  0  0
  5  7  1  0  0  0  0
  5  6  1  0  0  0  0
  7  8  1  0  0  0  0
  9 10  1  0  0  0  0
  9  7  2  0  0  0  0
 11  9  1  0  0  0  0
 12 11  1  0  0  0  0
 13 11  2  0  0  0  0
 13  1  1  0  0  0  0
 14 15  1  6  0  0  0
 14 13  1  0  0  0  0
 14 29  1  0  0  0  0
 16  4  1  6  0  0  0
 16 17  1  0  0  0  0
 17 19  1  0  0  0  0
 17 18  1  0  0  0  0
 20 22  1  0  0  0  0
 20 17  1  0  0  0  0
 21 20  1  0  0  0  0
 23 24  1  0  0  0  0
 23 20  1  0  0  0  0
 25 23  1  0  0  0  0
 26 29  1  0  0  0  0
 26 23  1  0  0  0  0
 27 26  1  0  0  0  0
 28 26  1  0  0  0  0
 29 30  1  1  0  0  0
 29 16  1  0  0  0  0
M  END
