1,4
 OpenBabel05122313063D

 28 28  0  0  1  0  0  0  0  0999 V2000
    0.0934    1.5815    0.1164 N   0  0  0  0  0  2  0  0  0  0  0  0
   -0.5145   -0.3518   -1.5982 O   0  0  0  0  0  0  0  0  0  0  0  0
   -0.7710   -1.2291   -1.9461 H   0  0  0  0  0  0  0  0  0  0  0  0
   -0.4686   -0.9980    1.1408 O   0  5  0  0  0  0  0  0  0  0  0  0
   -4.4650   -1.6760    0.5094 O   0  0  0  0  0  0  0  0  0  0  0  0
   -5.3783   -1.8260    0.1933 H   0  0  0  0  0  0  0  0  0  0  0  0
    0.5732    2.6986    0.7157 C   0  0  0  0  0  3  0  0  0  0  0  0
    1.6123    2.6482    1.0722 H   0  0  0  0  0  0  0  0  0  0  0  0
   -0.2039    3.8475    0.8778 C   0  0  0  0  0  0  0  0  0  0  0  0
    0.2272    4.7295    1.3715 H   0  0  0  0  0  0  0  0  0  0  0  0
   -1.5224    3.8470    0.3992 C   0  0  0  0  0  0  0  0  0  0  0  0
   -2.1588    4.7377    0.5057 H   0  0  0  0  0  0  0  0  0  0  0  0
   -2.0128    2.6959   -0.2308 C   0  0  0  0  0  0  0  0  0  0  0  0
   -3.0363    2.6656   -0.6319 H   0  0  0  0  0  0  0  0  0  0  0  0
   -1.1797    1.5766   -0.3556 C   0  0  0  0  0  0  0  0  0  0  0  0
   -1.6809    0.3033   -1.0267 C   0  0  2  0  0  0  0  0  0  0  0  0
   -2.3268    0.6210   -1.8663 H   0  0  0  0  0  0  0  0  0  0  0  0
   -2.4578   -0.6079   -0.0912 C   0  0  0  0  0  0  0  0  0  0  0  0
   -1.7206   -1.1222    1.0784 C   0  0  0  0  0  0  0  0  0  0  0  0
   -2.3823   -1.8044    2.2382 C   0  0  0  0  0  0  0  0  0  0  0  0
   -2.7737   -2.7948    1.9273 H   0  0  0  0  0  0  0  0  0  0  0  0
   -3.2560   -1.2353    2.6088 H   0  0  0  0  0  0  0  0  0  0  0  0
   -1.6325   -1.9423    3.0370 H   0  0  0  0  0  0  0  0  0  0  0  0
   -3.7898   -0.9059   -0.3556 C   0  0  2  0  0  3  0  0  0  0  0  0
   -4.5958   -0.4315   -1.5307 C   0  0  0  0  0  0  0  0  0  0  0  0
   -5.1768   -1.2798   -1.9503 H   0  0  0  0  0  0  0  0  0  0  0  0
   -4.0030    0.0004   -2.3539 H   0  0  0  0  0  0  0  0  0  0  0  0
   -5.3280    0.3372   -1.2006 H   0  0  0  0  0  0  0  0  0  0  0  0
  1  7  1  0  0  0  0
  2 16  1  0  0  0  0
  3  2  1  0  0  0  0
  6  5  1  0  0  0  0
  7  9  1  0  0  0  0
  7  8  1  0  0  0  0
  9 10  1  0  0  0  0
 11 12  1  0  0  0  0
 11  9  2  0  0  0  0
 13 11  1  0  0  0  0
 14 13  1  0  0  0  0
 15 13  2  0  0  0  0
 15  1  1  0  0  0  0
 16 17  1  6  0  0  0
 16 15  1  0  0  0  0
 16 18  1  0  0  0  0
 18 19  2  0  0  0  0
 19  4  1  0  0  0  0
 19 20  1  0  0  0  0
 20 22  1  0  0  0  0
 20 23  1  0  0  0  0
 21 20  1  0  0  0  0
 24 18  1  1  0  0  0
 24  5  1  0  0  0  0
 25 28  1  0  0  0  0
 25 24  1  0  0  0  0
 26 25  1  0  0  0  0
 27 25  1  0  0  0  0
M  CHG  1   4  -1
M  END
