5,9
 OpenBabel05122313063D

 30 31  0  0  1  0  0  0  0  0999 V2000
    1.3676   -1.0336   -1.6204 N   0  0  0  0  0  0  0  0  0  0  0  0
   -0.8309   -3.8371   -0.8985 N   0  0  0  0  0  0  0  0  0  0  0  0
   -1.8079   -3.9605   -0.6216 H   0  0  0  0  0  0  0  0  0  0  0  0
   -0.4421   -4.4988   -1.5680 H   0  0  0  0  0  0  0  0  0  0  0  0
   -1.1404   -1.5577   -0.4815 N   0  0  0  0  0  2  0  0  0  0  0  0
   -2.4420   -1.8154   -0.2529 N   0  0  0  0  0  0  0  0  0  0  0  0
   -4.5557   -3.1143   -0.8408 O   0  0  0  0  0  0  0  0  0  0  0  0
   -3.5893   -2.7734   -0.8275 H   0  0  0  0  0  0  0  0  0  0  0  0
   -2.6461    0.2817    0.7491 O   0  5  0  0  0  0  0  0  0  0  0  0
    2.0101   -3.3206   -1.1787 C   0  0  0  0  0  0  0  0  0  0  0  0
    1.7319   -4.3169   -0.8066 H   0  0  0  0  0  0  0  0  0  0  0  0
    3.3323   -3.0313   -1.5390 C   0  0  0  0  0  0  0  0  0  0  0  0
    4.1093   -3.8069   -1.4718 H   0  0  0  0  0  0  0  0  0  0  0  0
    3.6558   -1.7319   -1.9493 C   0  0  0  0  0  0  0  0  0  0  0  0
    4.6828   -1.4534   -2.2227 H   0  0  0  0  0  0  0  0  0  0  0  0
    2.6344   -0.7662   -1.9574 C   0  0  0  0  0  0  0  0  0  0  0  0
    2.8591    0.2782   -2.2319 H   0  0  0  0  0  0  0  0  0  0  0  0
    1.0471   -2.2895   -1.2392 C   0  0  0  0  0  0  0  0  0  0  0  0
   -0.3670   -2.5506   -0.8759 C   0  0  1  0  0  3  0  0  0  0  0  0
   -3.1471   -0.8145    0.3445 C   0  0  0  0  0  0  0  0  0  0  0  0
   -4.5986   -1.0811    0.4938 C   0  0  0  0  0  0  0  0  0  0  0  0
   -5.3805   -0.1744    1.2433 C   0  0  0  0  0  0  0  0  0  0  0  0
   -4.8593    0.6856    1.6898 H   0  0  0  0  0  0  0  0  0  0  0  0
   -6.7524   -0.3669    1.4183 C   0  0  0  0  0  0  0  0  0  0  0  0
   -7.3439    0.3459    2.0115 H   0  0  0  0  0  0  0  0  0  0  0  0
   -7.3684   -1.4901    0.8297 C   0  0  0  0  0  0  0  0  0  0  0  0
   -8.4495   -1.6557    0.9594 H   0  0  0  0  0  0  0  0  0  0  0  0
   -6.6221   -2.4015    0.0792 C   0  0  0  0  0  0  0  0  0  0  0  0
   -7.0887   -3.2800   -0.3899 H   0  0  0  0  0  0  0  0  0  0  0  0
   -5.2308   -2.2209   -0.1017 C   0  0  0  0  0  0  0  0  0  0  0  0
  1 18  1  0  0  0  0
  2 19  1  0  0  0  0
  2  3  1  0  0  0  0
  4  2  1  0  0  0  0
  5  6  1  0  0  0  0
  6 20  2  0  0  0  0
  7  8  1  0  0  0  0
  7 30  1  0  0  0  0
 10 11  1  0  0  0  0
 12 13  1  0  0  0  0
 12 10  1  0  0  0  0
 14 12  2  0  0  0  0
 15 14  1  0  0  0  0
 16 14  1  0  0  0  0
 16  1  2  0  0  0  0
 17 16  1  0  0  0  0
 18 10  2  0  0  0  0
 18 19  1  0  0  0  0
 19  5  1  1  0  0  0
 20 21  1  0  0  0  0
 20  9  1  0  0  0  0
 21 22  1  0  0  0  0
 22 24  2  0  0  0  0
 22 23  1  0  0  0  0
 24 25  1  0  0  0  0
 26 27  1  0  0  0  0
 26 24  1  0  0  0  0
 28 26  2  0  0  0  0
 29 28  1  0  0  0  0
 30 28  1  0  0  0  0
 30 21  2  0  0  0  0
M  CHG  1   9  -1
M  END
