1,2
 OpenBabel05122313063D

 24 25  0  0  1  0  0  0  0  0999 V2000
    1.1013    0.3951   -1.6396 N   0  0  0  0  0  2  0  0  0  0  0  0
    1.2667   -0.1947    0.7744 O   0  0  0  0  0  1  0  0  0  0  0  0
    0.9413    0.5428   -2.9782 C   0  0  0  0  0  3  0  0  0  0  0  0
    0.2074   -0.1305   -3.4432 H   0  0  0  0  0  0  0  0  0  0  0  0
    1.6564    1.4968   -3.7025 C   0  0  0  0  0  0  0  0  0  0  0  0
    1.4891    1.5833   -4.7850 H   0  0  0  0  0  0  0  0  0  0  0  0
    2.5831    2.3140   -3.0364 C   0  0  0  0  0  0  0  0  0  0  0  0
    3.1741    3.0612   -3.5862 H   0  0  0  0  0  0  0  0  0  0  0  0
    2.7460    2.1516   -1.6540 C   0  0  0  0  0  0  0  0  0  0  0  0
    3.4643    2.7547   -1.0801 H   0  0  0  0  0  0  0  0  0  0  0  0
    1.9843    1.1894   -0.9842 C   0  0  0  0  0  0  0  0  0  0  0  0
    2.0123    0.9575    0.5232 C   0  0  2  0  0  0  0  0  0  0  0  0
    1.5116    1.8368    1.0076 H   0  0  0  0  0  0  0  0  0  0  0  0
    3.4221    0.8568    1.0796 C   0  0  0  0  0  0  0  0  0  0  0  0
    3.9920    1.9331    1.7814 C   0  0  0  0  0  0  0  0  0  0  0  0
    3.3944    2.8409    1.9656 H   0  0  0  0  0  0  0  0  0  0  0  0
    5.3093    1.8469    2.2608 C   0  0  0  0  0  0  0  0  0  0  0  0
    5.7496    2.6916    2.8123 H   0  0  0  0  0  0  0  0  0  0  0  0
    6.0548    0.6774    2.0482 C   0  0  0  0  0  0  0  0  0  0  0  0
    7.0853    0.6047    2.4283 H   0  0  0  0  0  0  0  0  0  0  0  0
    5.4808   -0.4040    1.3572 C   0  0  0  0  0  0  0  0  0  0  0  0
    6.0609   -1.3255    1.1966 H   0  0  0  0  0  0  0  0  0  0  0  0
    4.1698   -0.3182    0.8694 C   0  0  0  0  0  0  0  0  0  0  0  0
    3.7095   -1.1618    0.3288 H   0  0  0  0  0  0  0  0  0  0  0  0
  1 11  1  0  0  0  0
  3  1  1  0  0  0  0
  4  3  1  0  0  0  0
  5  7  2  0  0  0  0
  5  3  1  0  0  0  0
  6  5  1  0  0  0  0
  7  9  1  0  0  0  0
  8  7  1  0  0  0  0
  9 10  1  0  0  0  0
  9 11  2  0  0  0  0
 11 12  1  0  0  0  0
 12  2  1  0  0  0  0
 12 13  1  1  0  0  0
 12 14  1  0  0  0  0
 14 15  1  0  0  0  0
 15 16  1  0  0  0  0
 15 17  2  0  0  0  0
 17 18  1  0  0  0  0
 19 17  1  0  0  0  0
 19 20  1  0  0  0  0
 21 19  2  0  0  0  0
 22 21  1  0  0  0  0
 23 14  2  0  0  0  0
 23 21  1  0  0  0  0
 24 23  1  0  0  0  0
M  END
