1,2
 OpenBabel05122313063D

 16 17  0  0  1  0  0  0  0  0999 V2000
    1.2385   -1.6638   -0.0831 O   0  5  0  0  0  0  0  0  0  0  0  0
    1.8476    0.9980   -0.1962 N   0  0  0  0  0  2  0  0  0  0  0  0
    6.4811   -0.2828    0.1520 O   0  0  0  0  0  0  0  0  0  0  0  0
    3.4598   -2.2344    0.0883 N   0  0  0  0  0  0  0  0  0  0  0  0
    2.5012   -1.3272   -0.0171 C   0  0  0  0  0  0  0  0  0  0  0  0
    2.8595    0.1010   -0.0810 C   0  0  1  0  0  3  0  0  0  0  0  0
    4.2085    0.5124   -0.0256 C   0  0  0  0  0  0  0  0  0  0  0  0
    4.7450   -1.7985    0.1363 N   0  0  0  0  0  0  0  0  0  0  0  0
    5.4406   -2.5473    0.2213 H   0  0  0  0  0  0  0  0  0  0  0  0
    3.4399    2.7986   -0.1932 C   0  0  0  0  0  0  0  0  0  0  0  0
    3.6206    3.8820   -0.2368 H   0  0  0  0  0  0  0  0  0  0  0  0
    5.2708   -0.5113    0.0952 C   0  0  0  0  0  0  0  0  0  0  0  0
    4.4958    1.8888   -0.0833 C   0  0  0  0  0  0  0  0  0  0  0  0
    5.5496    2.2041   -0.0363 H   0  0  0  0  0  0  0  0  0  0  0  0
    2.1195    2.3077   -0.2437 C   0  0  0  0  0  0  0  0  0  0  0  0
    1.2462    2.9769   -0.3210 H   0  0  0  0  0  0  0  0  0  0  0  0
  1  5  1  0  0  0  0
  4  8  1  0  0  0  0
  5  4  2  0  0  0  0
  6  2  1  6  0  0  0
  6  7  1  0  0  0  0
  6  5  1  0  0  0  0
  7 12  1  0  0  0  0
  8  9  1  0  0  0  0
 10 13  1  0  0  0  0
 11 10  1  0  0  0  0
 12  8  1  0  0  0  0
 12  3  2  0  0  0  0
 13 14  1  0  0  0  0
 13  7  2  0  0  0  0
 15  2  1  0  0  0  0
 15 10  2  0  0  0  0
 16 15  1  0  0  0  0
M  CHG  1   1  -1
M  END
