1,3
 OpenBabel05122313063D

 29 30  0  0  1  0  0  0  0  0999 V2000
   -0.0939   -1.1622    1.0220 N   0  0  0  0  0  2  0  0  0  0  0  0
    2.1065   -0.8473    3.7695 O   0  5  0  0  0  0  0  0  0  0  0  0
    2.3720   -1.0554    1.5321 O   0  0  0  0  0  0  0  0  0  0  0  0
   -1.9361    0.0786   -2.0146 O   0  0  0  0  0  0  0  0  0  0  0  0
   -1.6957    1.6751   -0.4133 O   0  0  0  0  0  0  0  0  0  0  0  0
   -8.5053    0.3338   -0.5830 O   0  0  0  0  0  0  0  0  0  0  0  0
   -9.2434    0.6598   -1.1414 H   0  0  0  0  0  0  0  0  0  0  0  0
   -7.3996    1.3845   -2.2534 O   0  0  0  0  0  0  0  0  0  0  0  0
   -0.8959   -0.1085   -1.9468 H   0  0  0  0  0  0  0  0  0  0  0  0
    1.6562   -0.9352    2.6331 C   0  0  0  0  0  0  0  0  0  0  0  0
    0.1792   -0.9213    2.3314 C   0  0  1  0  0  3  0  0  0  0  0  0
   -0.8401   -0.6553    3.2487 C   0  0  0  0  0  0  0  0  0  0  0  0
   -0.5554   -0.4838    4.2972 H   0  0  0  0  0  0  0  0  0  0  0  0
   -2.1561   -0.5238    2.7823 C   0  0  0  0  0  0  0  0  0  0  0  0
   -2.9602   -0.1894    3.4553 H   0  0  0  0  0  0  0  0  0  0  0  0
   -2.4311   -0.7511    1.4153 C   0  0  0  0  0  0  0  0  0  0  0  0
   -1.3680   -1.1771    0.5974 C   0  0  0  0  0  0  0  0  0  0  0  0
   -1.5276   -1.4586   -0.4501 H   0  0  0  0  0  0  0  0  0  0  0  0
   -3.7199   -0.4049    0.7672 C   0  0  0  0  0  0  0  0  0  0  0  0
   -3.6929    0.3545   -0.4416 C   0  0  0  0  0  0  0  0  0  0  0  0
   -2.3423    0.8024   -0.9780 C   0  0  0  0  0  0  0  0  0  0  0  0
   -4.8950    0.7009   -1.0677 C   0  0  0  0  0  0  0  0  0  0  0  0
   -4.9012    1.2770   -2.0046 H   0  0  0  0  0  0  0  0  0  0  0  0
   -6.1307    0.3334   -0.4998 C   0  0  0  0  0  0  0  0  0  0  0  0
   -7.3744    0.7463   -1.2147 C   0  0  0  0  0  0  0  0  0  0  0  0
   -6.1616   -0.3988    0.7033 C   0  0  0  0  0  0  0  0  0  0  0  0
   -7.1286   -0.6854    1.1384 H   0  0  0  0  0  0  0  0  0  0  0  0
   -4.9628   -0.7625    1.3262 C   0  0  0  0  0  0  0  0  0  0  0  0
   -4.9832   -1.3557    2.2532 H   0  0  0  0  0  0  0  0  0  0  0  0
  1 11  1  0  0  0  0
  3 10  2  0  0  0  0
  4  9  1  0  0  0  0
  4 21  1  0  0  0  0
  7  6  1  0  0  0  0
  8 25  2  0  0  0  0
 10  2  1  0  0  0  0
 11 10  1  6  0  0  0
 11 12  1  0  0  0  0
 12 13  1  0  0  0  0
 14 12  2  0  0  0  0
 14 15  1  0  0  0  0
 16 14  1  0  0  0  0
 17  1  1  0  0  0  0
 17 16  2  0  0  0  0
 18 17  1  0  0  0  0
 19 28  1  0  0  0  0
 19 16  1  0  0  0  0
 20 19  2  0  0  0  0
 21 20  1  0  0  0  0
 21  5  2  0  0  0  0
 22 24  2  0  0  0  0
 22 20  1  0  0  0  0
 23 22  1  0  0  0  0
 24 26  1  0  0  0  0
 25  6  1  0  0  0  0
 25 24  1  0  0  0  0
 26 27  1  0  0  0  0
 26 28  2  0  0  0  0
 28 29  1  0  0  0  0
M  CHG  1   2  -1
M  END
