1,2
 OpenBabel05122313063D

 58 62  0  0  1  0  0  0  0  0999 V2000
   -2.1637    0.4951    0.6374 O   0  0  0  0  0  1  0  0  0  0  0  0
   -3.6463   -1.3358   -0.4575 N   0  0  0  0  0  0  0  0  0  0  0  0
   -0.0426   -0.3060   -0.0116 C   0  0  0  0  0  0  0  0  0  0  0  0
    2.0890   -0.3177   -1.1939 C   0  0  0  0  0  0  0  0  0  0  0  0
    2.6644   -0.4327   -2.1247 H   0  0  0  0  0  0  0  0  0  0  0  0
    2.7684   -0.0248    0.0046 C   0  0  0  0  0  0  0  0  0  0  0  0
   -1.5203   -0.4249    0.0007 C   0  0  1  0  0  3  0  0  0  0  0  0
    0.6340    0.0200    1.1829 C   0  0  0  0  0  0  0  0  0  0  0  0
    0.0482    0.1542    2.1040 H   0  0  0  0  0  0  0  0  0  0  0  0
    0.6961   -0.4597   -1.2018 C   0  0  0  0  0  0  0  0  0  0  0  0
    0.1669   -0.6722   -2.1416 H   0  0  0  0  0  0  0  0  0  0  0  0
    2.0272    0.1469    1.1918 C   0  0  0  0  0  0  0  0  0  0  0  0
    2.5578    0.3789    2.1275 H   0  0  0  0  0  0  0  0  0  0  0  0
   -2.2563   -1.4633   -0.6100 C   0  0  0  0  0  3  0  0  0  0  0  0
   -1.9595   -2.7502   -1.1790 C   0  0  0  0  0  0  0  0  0  0  0  0
   -3.2047   -3.3659   -1.3462 C   0  0  0  0  0  0  0  0  0  0  0  0
   -3.3816   -4.3732   -1.7449 H   0  0  0  0  0  0  0  0  0  0  0  0
   -4.2215   -2.4771   -0.8798 C   0  0  0  0  0  0  0  0  0  0  0  0
   -0.6285   -3.3698   -1.4810 C   0  0  0  0  0  0  0  0  0  0  0  0
   -0.7349   -4.4660   -1.5952 H   0  0  0  0  0  0  0  0  0  0  0  0
    0.1111   -3.1785   -0.6778 H   0  0  0  0  0  0  0  0  0  0  0  0
   -0.1815   -2.9853   -2.4223 H   0  0  0  0  0  0  0  0  0  0  0  0
   -5.6880   -2.7517   -0.7955 C   0  0  0  0  0  0  0  0  0  0  0  0
   -6.0906   -2.3925    0.1725 H   0  0  0  0  0  0  0  0  0  0  0  0
   -5.8793   -3.8386   -0.8725 H   0  0  0  0  0  0  0  0  0  0  0  0
   -6.2589   -2.2604   -1.6128 H   0  0  0  0  0  0  0  0  0  0  0  0
    4.6756   -2.4365    0.4162 C   0  0  0  0  0  0  0  0  0  0  0  0
    5.0417   -1.0559    0.2077 C   0  0  0  0  0  0  0  0  0  0  0  0
    6.9522   -2.2053    0.4240 C   0  0  0  0  0  0  0  0  0  0  0  0
    4.2539    0.0983    0.0164 C   0  0  0  0  0  3  0  0  0  0  0  0
    5.8837   -3.1327    0.5477 C   0  0  0  0  0  0  0  0  0  0  0  0
    5.9984   -4.2096    0.7190 H   0  0  0  0  0  0  0  0  0  0  0  0
    5.3577    3.5473   -0.4954 C   0  0  0  0  0  0  0  0  0  0  0  0
    5.3023    4.6289   -0.6668 H   0  0  0  0  0  0  0  0  0  0  0  0
    4.8512    1.3631   -0.1641 C   0  0  0  0  0  0  0  0  0  0  0  0
    6.5579    2.8020   -0.3505 C   0  0  0  0  0  0  0  0  0  0  0  0
    4.2739    2.6673   -0.3831 C   0  0  0  0  0  0  0  0  0  0  0  0
    6.4373   -0.9674    0.2214 N   0  0  0  0  0  0  0  0  0  0  0  0
    6.2431    1.4979   -0.1538 N   0  0  0  0  0  0  0  0  0  0  0  0
    7.2737    0.3396    0.0397 B   0  0  0  0  0  0  0  0  0  0  0  0
    8.0909    0.2319   -1.0941 F   0  0  0  0  0  0  0  0  0  0  0  0
    8.0506    0.5748    1.1823 F   0  0  0  0  0  0  0  0  0  0  0  0
    3.3090   -3.0449    0.4850 C   0  0  0  0  0  0  0  0  0  0  0  0
    3.3826   -4.1284    0.6981 H   0  0  0  0  0  0  0  0  0  0  0  0
    2.7498   -2.9193   -0.4646 H   0  0  0  0  0  0  0  0  0  0  0  0
    2.6825   -2.5802    1.2727 H   0  0  0  0  0  0  0  0  0  0  0  0
    8.4189   -2.4592    0.4926 C   0  0  0  0  0  0  0  0  0  0  0  0
    8.9116   -2.1305   -0.4449 H   0  0  0  0  0  0  0  0  0  0  0  0
    8.6268   -3.5309    0.6628 H   0  0  0  0  0  0  0  0  0  0  0  0
    8.8762   -1.8593    1.3055 H   0  0  0  0  0  0  0  0  0  0  0  0
    2.8289    3.0474   -0.4803 C   0  0  0  0  0  0  0  0  0  0  0  0
    2.7313    4.1303   -0.6872 H   0  0  0  0  0  0  0  0  0  0  0  0
    2.2747    2.8243    0.4537 H   0  0  0  0  0  0  0  0  0  0  0  0
    2.3049    2.4931   -1.2849 H   0  0  0  0  0  0  0  0  0  0  0  0
    7.9665    3.2861   -0.3948 C   0  0  0  0  0  0  0  0  0  0  0  0
    8.4898    3.0374    0.5507 H   0  0  0  0  0  0  0  0  0  0  0  0
    8.0041    4.3777   -0.5615 H   0  0  0  0  0  0  0  0  0  0  0  0
    8.5268    2.7688   -1.1999 H   0  0  0  0  0  0  0  0  0  0  0  0
  3  7  1  0  0  0  0
  3  8  1  0  0  0  0
  4  6  2  0  0  0  0
  5  4  1  0  0  0  0
  6 30  1  0  0  0  0
  6 12  1  0  0  0  0
  7  1  1  1  0  0  0
  8 12  2  0  0  0  0
  8  9  1  0  0  0  0
 10  4  1  0  0  0  0
 10  3  2  0  0  0  0
 11 10  1  0  0  0  0
 12 13  1  0  0  0  0
 14  2  1  0  0  0  0
 14  7  1  0  0  0  0
 15 14  1  0  0  0  0
 16 15  2  0  0  0  0
 16 18  1  0  0  0  0
 17 16  1  0  0  0  0
 18 23  1  0  0  0  0
 18  2  2  0  0  0  0
 19 15  1  0  0  0  0
 19 21  1  0  0  0  0
 20 19  1  0  0  0  0
 22 19  1  0  0  0  0
 23 24  1  0  0  0  0
 25 23  1  0  0  0  0
 26 23  1  0  0  0  0
 27 43  1  0  0  0  0
 27 31  1  0  0  0  0
 28 38  1  0  0  0  0
 28 27  2  0  0  0  0
 29 47  1  0  0  0  0
 29 31  2  0  0  0  0
 30 28  1  0  0  0  0
 31 32  1  0  0  0  0
 33 37  1  0  0  0  0
 33 36  2  0  0  0  0
 34 33  1  0  0  0  0
 35 39  1  0  0  0  0
 35 30  1  0  0  0  0
 36 39  1  0  0  0  0
 37 35  2  0  0  0  0
 38 29  1  0  0  0  0
 39 40  1  0  0  0  0
 40 38  1  0  0  0  0
 40 42  1  0  0  0  0
 41 40  1  0  0  0  0
 43 44  1  0  0  0  0
 43 46  1  0  0  0  0
 45 43  1  0  0  0  0
 47 49  1  0  0  0  0
 47 50  1  0  0  0  0
 48 47  1  0  0  0  0
 51 37  1  0  0  0  0
 51 53  1  0  0  0  0
 52 51  1  0  0  0  0
 54 51  1  0  0  0  0
 55 36  1  0  0  0  0
 55 56  1  0  0  0  0
 57 55  1  0  0  0  0
 58 55  1  0  0  0  0
M  END
