1,4
 OpenBabel05122313063D

 13 12  0  0  0  0  0  0  0  0999 V2000
   -1.4375   -0.1468    2.4045 O   0  5  0  0  0  0  0  0  0  0  0  0
   -1.6015   -0.2446    4.6398 O   0  0  0  0  0  0  0  0  0  0  0  0
    3.0549   -0.6676    1.0537 O   0  0  0  0  0  0  0  0  0  0  0  0
    1.2289   -0.3189    2.3794 N   0  0  0  0  0  2  0  0  0  0  0  0
    0.6170   -0.2615    3.6944 C   0  0  0  0  0  0  0  0  0  0  0  0
    0.8785   -1.1412    4.3229 H   0  0  0  0  0  0  0  0  0  0  0  0
    0.9361    0.6367    4.2731 H   0  0  0  0  0  0  0  0  0  0  0  0
   -0.9216   -0.2185    3.6271 C   0  0  0  0  0  0  0  0  0  0  0  0
    2.5415   -0.5714    2.1932 C   0  0  0  0  0  0  0  0  0  0  0  0
    3.4211   -0.7479    3.4227 C   0  0  0  0  0  0  0  0  0  0  0  0
    3.3659    0.1377    4.0879 H   0  0  0  0  0  0  0  0  0  0  0  0
    4.4634   -0.8979    3.0924 H   0  0  0  0  0  0  0  0  0  0  0  0
    3.0990   -1.6232    4.0236 H   0  0  0  0  0  0  0  0  0  0  0  0
  1  8  1  0  0  0  0
  3  9  2  0  0  0  0
  4  5  1  0  0  0  0
  5  7  1  0  0  0  0
  5  6  1  0  0  0  0
  8  5  1  0  0  0  0
  8  2  2  0  0  0  0
  9  4  1  0  0  0  0
  9 10  1  0  0  0  0
 10 13  1  0  0  0  0
 10 11  1  0  0  0  0
 12 10  1  0  0  0  0
M  CHG  1   1  -1
M  END
