1,2
 OpenBabel05122313063D

 28 27  0  0  1  0  0  0  0  0999 V2000
    1.0478   -0.7404   -1.7192 N   0  0  0  0  0  2  0  0  0  0  0  0
    1.3919    0.9155    0.7460 O   0  5  0  0  0  0  0  0  0  0  0  0
   -1.4067   -2.0117   -1.1571 O   0  0  0  0  0  0  0  0  0  0  0  0
    2.6533    3.2650    1.3655 F   0  0  0  0  0  0  0  0  0  0  0  0
    3.9129    1.5478    1.8460 F   0  0  0  0  0  0  0  0  0  0  0  0
    4.3315    2.7515    0.0702 F   0  0  0  0  0  0  0  0  0  0  0  0
    2.3896    1.2927    0.0480 C   0  0  0  0  0  0  0  0  0  0  0  0
    2.7592    0.9208   -1.2478 C   0  0  0  0  0  0  0  0  0  0  0  0
    3.6551    1.4022   -1.6563 H   0  0  0  0  0  0  0  0  0  0  0  0
    2.1254   -0.0573   -2.0799 C   0  0  1  0  0  3  0  0  0  0  0  0
    3.3307    2.2360    0.8232 C   0  0  0  0  0  0  0  0  0  0  0  0
    2.7819   -0.2969   -3.4284 C   0  0  0  0  0  0  0  0  0  0  0  0
    3.0806   -1.3568   -3.5589 H   0  0  0  0  0  0  0  0  0  0  0  0
    3.6830    0.3303   -3.5438 H   0  0  0  0  0  0  0  0  0  0  0  0
    2.0872   -0.0504   -4.2582 H   0  0  0  0  0  0  0  0  0  0  0  0
    0.5049   -1.7919   -2.5796 C   0  0  1  0  0  0  0  0  0  0  0  0
    0.7511   -1.6041   -3.6472 H   0  0  0  0  0  0  0  0  0  0  0  0
    1.0677   -3.1634   -2.1739 C   0  0  0  0  0  0  0  0  0  0  0  0
    2.1670   -3.1931   -2.3104 H   0  0  0  0  0  0  0  0  0  0  0  0
    0.6229   -3.9724   -2.7882 H   0  0  0  0  0  0  0  0  0  0  0  0
    0.8474   -3.3633   -1.1077 H   0  0  0  0  0  0  0  0  0  0  0  0
   -1.0212   -1.7578   -2.5007 C   0  0  0  0  0  0  0  0  0  0  0  0
   -1.3975   -0.7563   -2.8144 H   0  0  0  0  0  0  0  0  0  0  0  0
   -1.4542   -2.5309   -3.1797 H   0  0  0  0  0  0  0  0  0  0  0  0
   -2.8117   -1.9668   -0.9695 C   0  0  0  0  0  0  0  0  0  0  0  0
   -3.2399   -1.0048   -1.3257 H   0  0  0  0  0  0  0  0  0  0  0  0
   -3.0027   -2.0651    0.1143 H   0  0  0  0  0  0  0  0  0  0  0  0
   -3.3090   -2.8050   -1.5101 H   0  0  0  0  0  0  0  0  0  0  0  0
  3 25  1  0  0  0  0
  6 11  1  0  0  0  0
  7  2  1  0  0  0  0
  7 11  1  0  0  0  0
  8  7  2  0  0  0  0
  9  8  1  0  0  0  0
 10  1  1  1  0  0  0
 10  8  1  0  0  0  0
 11  4  1  0  0  0  0
 11  5  1  0  0  0  0
 12 10  1  0  0  0  0
 13 12  1  0  0  0  0
 14 12  1  0  0  0  0
 15 12  1  0  0  0  0
 16 17  1  6  0  0  0
 16 22  1  0  0  0  0
 16 18  1  0  0  0  0
 16  1  1  0  0  0  0
 18 21  1  0  0  0  0
 19 18  1  0  0  0  0
 20 18  1  0  0  0  0
 22  3  1  0  0  0  0
 23 22  1  0  0  0  0
 24 22  1  0  0  0  0
 25 27  1  0  0  0  0
 26 25  1  0  0  0  0
 28 25  1  0  0  0  0
M  CHG  1   2  -1
M  END
