1,2
 OpenBabel05122313063D

 30 32  0  0  0  0  0  0  0  0999 V2000
   -1.1742   -0.8404   -1.9140 O   0  5  0  0  0  0  0  0  0  0  0  0
   -1.2070    1.4563   -0.1135 N   0  0  0  0  0  2  0  0  0  0  0  0
   -1.7113    3.3767    1.1977 N   0  0  0  0  0  0  0  0  0  0  0  0
   -2.5017    1.1651   -0.1568 C   0  0  0  0  0  3  0  0  0  0  0  0
   -3.1354    0.0522   -0.7769 C   0  0  0  0  0  0  0  0  0  0  0  0
   -2.4434   -0.8362   -1.6966 C   0  0  0  0  0  0  0  0  0  0  0  0
   -3.2403   -1.7687   -2.4649 C   0  0  0  0  0  0  0  0  0  0  0  0
   -4.5929   -1.8933   -2.2833 C   0  0  0  0  0  0  0  0  0  0  0  0
   -5.2995   -1.1042   -1.3142 C   0  0  0  0  0  0  0  0  0  0  0  0
   -4.5708   -0.1313   -0.5464 C   0  0  0  0  0  0  0  0  0  0  0  0
   -5.3026    0.5939    0.4363 C   0  0  0  0  0  0  0  0  0  0  0  0
   -6.6696    0.3975    0.6247 C   0  0  0  0  0  0  0  0  0  0  0  0
   -7.3799   -0.5446   -0.1521 C   0  0  0  0  0  0  0  0  0  0  0  0
   -6.6914   -1.2872   -1.1052 C   0  0  0  0  0  0  0  0  0  0  0  0
   -0.7992    2.6386    0.5376 C   0  0  0  0  0  0  0  0  0  0  0  0
    0.5680    3.0014    0.4799 C   0  0  0  0  0  0  0  0  0  0  0  0
   -1.3029    4.4840    1.8275 C   0  0  0  0  0  0  0  0  0  0  0  0
    0.0308    4.9245    1.8419 C   0  0  0  0  0  0  0  0  0  0  0  0
    0.9802    4.1591    1.1448 C   0  0  0  0  0  0  0  0  0  0  0  0
   -3.1495    1.9092    0.3411 H   0  0  0  0  0  0  0  0  0  0  0  0
   -2.6905   -2.3868   -3.1896 H   0  0  0  0  0  0  0  0  0  0  0  0
   -5.1656   -2.6255   -2.8757 H   0  0  0  0  0  0  0  0  0  0  0  0
   -4.7875    1.3163    1.0846 H   0  0  0  0  0  0  0  0  0  0  0  0
   -7.1957    0.9805    1.3962 H   0  0  0  0  0  0  0  0  0  0  0  0
   -8.4585   -0.6948    0.0033 H   0  0  0  0  0  0  0  0  0  0  0  0
   -7.2172   -2.0388   -1.7152 H   0  0  0  0  0  0  0  0  0  0  0  0
    1.2714    2.3869   -0.1007 H   0  0  0  0  0  0  0  0  0  0  0  0
   -2.0836    5.0595    2.3575 H   0  0  0  0  0  0  0  0  0  0  0  0
    0.3116    5.8416    2.3797 H   0  0  0  0  0  0  0  0  0  0  0  0
    2.0373    4.4643    1.1139 H   0  0  0  0  0  0  0  0  0  0  0  0
  1  6  1  0  0  0  0
  2 15  1  0  0  0  0
  3 17  1  0  0  0  0
  4  2  1  0  0  0  0
  4 20  1  0  0  0  0
  5 10  1  0  0  0  0
  5  4  1  0  0  0  0
  6  5  2  0  0  0  0
  7  8  2  0  0  0  0
  7  6  1  0  0  0  0
  8  9  1  0  0  0  0
  9 14  2  0  0  0  0
  9 10  1  0  0  0  0
 10 11  2  0  0  0  0
 11 12  1  0  0  0  0
 11 23  1  0  0  0  0
 12 24  1  0  0  0  0
 13 25  1  0  0  0  0
 13 12  2  0  0  0  0
 14 13  1  0  0  0  0
 15  3  2  0  0  0  0
 16 15  1  0  0  0  0
 16 19  2  0  0  0  0
 17 18  2  0  0  0  0
 17 28  1  0  0  0  0
 18 29  1  0  0  0  0
 19 18  1  0  0  0  0
 21  7  1  0  0  0  0
 22  8  1  0  0  0  0
 26 14  1  0  0  0  0
 27 16  1  0  0  0  0
 30 19  1  0  0  0  0
M  CHG  1   1  -1
M  END
