1,4
 OpenBabel05122313063D

 22 22  0  0  1  0  0  0  0  0999 V2000
   -0.2217    1.3574    1.0798 O   0  5  0  0  0  0  0  0  0  0  0  0
    0.0664   -1.5051   -1.6770 O   0  0  0  0  0  0  0  0  0  0  0  0
   -5.8495   -2.9287   -1.2836 O   0  0  0  0  0  0  0  0  0  0  0  0
   -1.8741   -0.3396   -0.4935 N   0  0  0  0  0  2  0  0  0  0  0  0
   -1.3069    2.0482    1.2201 C   0  0  0  0  0  0  0  0  0  0  0  0
   -1.2251    3.3190    1.8811 C   0  0  0  0  0  0  0  0  0  0  0  0
   -2.3649    4.0451    2.1969 C   0  0  0  0  0  0  0  0  0  0  0  0
   -3.6543    3.5814    1.8282 C   0  0  0  0  0  0  0  0  0  0  0  0
   -3.7680    2.3840    1.1362 C   0  0  0  0  0  0  0  0  0  0  0  0
   -2.6244    1.6017    0.8003 C   0  0  0  0  0  0  0  0  0  0  0  0
   -2.8191    0.4300    0.0043 C   0  0  0  0  0  3  0  0  0  0  0  0
   -2.1677   -1.4863   -1.2989 C   0  0  2  0  0  3  0  0  0  0  0  0
   -1.1529   -1.9401   -2.1257 C   0  0  0  0  0  2  0  0  0  0  0  0
   -4.6153   -2.4955   -1.2780 C   0  0  0  0  0  0  0  0  0  0  0  0
   -3.4797   -2.0264   -1.3082 C   0  0  0  0  0  0  0  0  0  0  0  0
    0.7231   -1.4825   -2.4044 H   0  0  0  0  0  0  0  0  0  0  0  0
   -5.8731   -3.8662   -1.0001 H   0  0  0  0  0  0  0  0  0  0  0  0
   -0.2212    3.6624    2.1691 H   0  0  0  0  0  0  0  0  0  0  0  0
   -2.2640    4.9977    2.7407 H   0  0  0  0  0  0  0  0  0  0  0  0
   -4.5488    4.1714    2.0739 H   0  0  0  0  0  0  0  0  0  0  0  0
   -4.7581    2.0180    0.8202 H   0  0  0  0  0  0  0  0  0  0  0  0
   -3.8633    0.1639   -0.2541 H   0  0  0  0  0  0  0  0  0  0  0  0
  1  5  1  0  0  0  0
  3 14  1  0  0  0  0
  3 17  1  0  0  0  0
  4 11  1  0  0  0  0
  5  6  1  0  0  0  0
  6 18  1  0  0  0  0
  6  7  2  0  0  0  0
  7 19  1  0  0  0  0
  8 20  1  0  0  0  0
  8  7  1  0  0  0  0
  9  8  2  0  0  0  0
 10  9  1  0  0  0  0
 10  5  2  0  0  0  0
 11 10  1  0  0  0  0
 12 13  1  6  0  0  0
 12  4  1  0  0  0  0
 13  2  1  0  0  0  0
 15 12  1  0  0  0  0
 15 14  3  0  0  0  0
 16  2  1  0  0  0  0
 21  9  1  0  0  0  0
 22 11  1  0  0  0  0
M  CHG  1   1  -1
M  END
