1,2
 OpenBabel05122313063D

 31 32  0  0  1  0  0  0  0  0999 V2000
   -0.5466    1.3804   -0.8524 O   0  0  0  0  0  1  0  0  0  0  0  0
    1.6041    0.9043    0.8601 N   0  0  0  0  0  2  0  0  0  0  0  0
   -0.7528    2.4296   -0.0903 C   0  0  2  0  0  3  0  0  0  0  0  0
   -1.9052    3.2294   -0.3518 C   0  0  0  0  0  0  0  0  0  0  0  0
   -2.5672    2.9029   -1.1665 H   0  0  0  0  0  0  0  0  0  0  0  0
   -2.2087    4.3418    0.4250 C   0  0  0  0  0  0  0  0  0  0  0  0
   -3.1258    4.9139    0.2143 H   0  0  0  0  0  0  0  0  0  0  0  0
   -1.3644    4.7263    1.4901 C   0  0  0  0  0  0  0  0  0  0  0  0
   -1.6150    5.5915    2.1206 H   0  0  0  0  0  0  0  0  0  0  0  0
   -0.2046    3.9947    1.7312 C   0  0  0  0  0  0  0  0  0  0  0  0
    0.4508    4.2988    2.5606 H   0  0  0  0  0  0  0  0  0  0  0  0
    0.1398    2.8476    0.9648 C   0  0  0  0  0  0  0  0  0  0  0  0
    1.4157    2.1664    1.1842 C   0  0  0  0  0  0  0  0  0  0  0  0
    2.5706    2.9589    1.7579 C   0  0  0  0  0  0  0  0  0  0  0  0
    3.4525    2.8712    1.0920 H   0  0  0  0  0  0  0  0  0  0  0  0
    2.8740    2.5682    2.7516 H   0  0  0  0  0  0  0  0  0  0  0  0
    2.3261    4.0281    1.8586 H   0  0  0  0  0  0  0  0  0  0  0  0
    2.9325    0.3056    0.9783 C   0  0  0  0  0  0  0  0  0  0  0  0
    2.7775   -0.7915    1.0355 H   0  0  0  0  0  0  0  0  0  0  0  0
    3.4170    0.6031    1.9319 H   0  0  0  0  0  0  0  0  0  0  0  0
    3.8534    0.6327   -0.1867 C   0  0  0  0  0  0  0  0  0  0  0  0
    3.3538    1.0639   -1.4314 C   0  0  0  0  0  0  0  0  0  0  0  0
    2.2695    1.2032   -1.5623 H   0  0  0  0  0  0  0  0  0  0  0  0
    4.2299    1.3173   -2.4987 C   0  0  0  0  0  0  0  0  0  0  0  0
    3.8231    1.6539   -3.4646 H   0  0  0  0  0  0  0  0  0  0  0  0
    5.6131    1.1439   -2.3400 C   0  0  0  0  0  0  0  0  0  0  0  0
    6.2978    1.3448   -3.1779 H   0  0  0  0  0  0  0  0  0  0  0  0
    6.1185    0.7164   -1.1015 C   0  0  0  0  0  0  0  0  0  0  0  0
    7.2024    0.5825   -0.9633 H   0  0  0  0  0  0  0  0  0  0  0  0
    5.2446    0.4651   -0.0342 C   0  0  0  0  0  0  0  0  0  0  0  0
    5.6476    0.1330    0.9365 H   0  0  0  0  0  0  0  0  0  0  0  0
  2 18  1  0  0  0  0
  2 13  1  0  0  0  0
  3  1  1  6  0  0  0
  3 12  1  0  0  0  0
  4  3  1  0  0  0  0
  4  6  2  0  0  0  0
  5  4  1  0  0  0  0
  6  8  1  0  0  0  0
  7  6  1  0  0  0  0
  8 10  2  0  0  0  0
  8  9  1  0  0  0  0
 10 11  1  0  0  0  0
 12 13  2  0  0  0  0
 12 10  1  0  0  0  0
 13 14  1  0  0  0  0
 14 17  1  0  0  0  0
 14 16  1  0  0  0  0
 15 14  1  0  0  0  0
 18 19  1  0  0  0  0
 18 20  1  0  0  0  0
 21 30  1  0  0  0  0
 21 18  1  0  0  0  0
 22 21  2  0  0  0  0
 23 22  1  0  0  0  0
 24 26  2  0  0  0  0
 24 22  1  0  0  0  0
 25 24  1  0  0  0  0
 26 28  1  0  0  0  0
 27 26  1  0  0  0  0
 28 29  1  0  0  0  0
 28 30  2  0  0  0  0
 30 31  1  0  0  0  0
M  END
