1,3
 OpenBabel05122313063D

 23 24  0  0  0  0  0  0  0  0999 V2000
   -2.1675    0.3333   -0.0194 N   0  0  0  0  0  0  0  0  0  0  0  0
   -1.2223    2.6117   -0.1224 C   0  0  0  0  0  0  0  0  0  0  0  0
   -0.0669    2.0367   -0.2801 O   0  5  0  0  0  0  0  0  0  0  0  0
   -4.4289    0.7240    0.0273 N   0  0  0  0  0  0  0  0  0  0  0  0
   -4.6129    3.1921    0.0443 C   0  0  0  0  0  0  0  0  0  0  0  0
   -1.3848    3.8475   -0.0797 O   0  0  0  0  0  0  0  0  0  0  0  0
   -4.5480   -4.2814   -0.1092 N   0  0  0  0  0  0  0  0  0  0  0  0
   -4.8319   -5.2631   -0.1467 H   0  0  0  0  0  0  0  0  0  0  0  0
   -2.3840    1.6761   -0.0244 C   0  0  0  0  0  0  0  0  0  0  0  0
   -3.9231    4.3349    0.0343 O   0  0  0  0  0  0  0  0  0  0  0  0
   -3.8026    1.9132    0.0136 C   0  0  0  0  0  0  0  0  0  0  0  0
   -5.8293    3.1578    0.0797 O   0  0  0  0  0  0  0  0  0  0  0  0
   -3.4371   -0.2082    0.0062 C   0  0  0  0  0  3  0  0  0  0  0  0
   -3.7667   -1.6064   -0.0211 C   0  0  0  0  0  0  0  0  0  0  0  0
   -5.1489   -1.9793   -0.0516 C   0  0  0  0  0  0  0  0  0  0  0  0
   -5.9033   -1.1798   -0.0437 H   0  0  0  0  0  0  0  0  0  0  0  0
   -5.5097   -3.3072   -0.0972 C   0  0  0  0  0  3  0  0  0  0  0  0
   -6.5535   -3.6482   -0.1274 H   0  0  0  0  0  0  0  0  0  0  0  0
   -3.2177   -3.9716   -0.0715 C   0  0  0  0  0  0  0  0  0  0  0  0
   -2.5093   -4.8123   -0.0774 H   0  0  0  0  0  0  0  0  0  0  0  0
   -2.8018   -2.6572   -0.0279 C   0  0  0  0  0  0  0  0  0  0  0  0
   -1.7152   -2.4592    0.0177 H   0  0  0  0  0  0  0  0  0  0  0  0
   -2.9147    4.1800    0.0027 H   0  0  0  0  0  0  0  0  0  0  0  0
  1 13  1  0  0  0  0
  2  6  2  0  0  0  0
  2  9  1  0  0  0  0
  3  2  1  0  0  0  0
  5 12  2  0  0  0  0
  7 17  1  0  0  0  0
  7 19  1  0  0  0  0
  8  7  1  0  0  0  0
  9  1  2  0  0  0  0
  9 11  1  0  0  0  0
 10  5  1  0  0  0  0
 11  4  2  0  0  0  0
 11  5  1  0  0  0  0
 13  4  1  0  0  0  0
 14 13  1  0  0  0  0
 15 16  1  0  0  0  0
 15 14  2  0  0  0  0
 17 15  1  0  0  0  0
 18 17  1  0  0  0  0
 19 21  2  0  0  0  0
 20 19  1  0  0  0  0
 21 14  1  0  0  0  0
 21 22  1  0  0  0  0
 23 10  1  0  0  0  0
M  CHG  1   3  -1
M  END
