1,5
 OpenBabel05122313063D

 15 15  0  0  1  0  0  0  0  0999 V2000
    2.2669   -1.8847   -0.3825 O   0  5  0  0  0  0  0  0  0  0  0  0
    4.4724   -1.3959   -0.2879 O   0  0  0  0  0  0  0  0  0  0  0  0
    0.1167    4.4955   -0.4304 O   0  5  0  0  0  0  0  0  0  0  0  0
    2.1661    5.3478    0.1549 O   0  0  0  0  0  0  0  0  0  0  0  0
    1.5494    0.6349   -0.2340 N   0  0  0  0  0  2  0  0  0  0  0  0
    3.3100   -1.0318   -0.2886 C   0  0  0  0  0  0  0  0  0  0  0  0
    2.8926    0.4096   -0.2099 C   0  0  1  0  0  3  0  0  0  0  0  0
    3.8070    1.4651   -0.1424 C   0  0  0  0  0  0  0  0  0  0  0  0
    4.8783    1.2157   -0.1260 H   0  0  0  0  0  0  0  0  0  0  0  0
    3.3169    2.7779   -0.0795 C   0  0  0  0  0  0  0  0  0  0  0  0
    3.9603    3.6664    0.0252 H   0  0  0  0  0  0  0  0  0  0  0  0
    1.9326    3.0098   -0.1367 C   0  0  0  0  0  0  0  0  0  0  0  0
    1.3374    4.4519   -0.1329 C   0  0  0  0  0  0  0  0  0  0  0  0
    1.0787    1.9006   -0.2170 C   0  0  0  0  0  0  0  0  0  0  0  0
   -0.0076    2.0726   -0.2761 H   0  0  0  0  0  0  0  0  0  0  0  0
  1  6  1  0  0  0  0
  3 13  1  0  0  0  0
  5 14  1  0  0  0  0
  5  7  1  0  0  0  0
  6  2  2  0  0  0  0
  7  6  1  6  0  0  0
  7  8  1  0  0  0  0
  8  9  1  0  0  0  0
  8 10  2  0  0  0  0
 10 11  1  0  0  0  0
 12 13  1  0  0  0  0
 12 10  1  0  0  0  0
 13  4  2  0  0  0  0
 14 12  2  0  0  0  0
 15 14  1  0  0  0  0
M  CHG  2   1  -1   3  -1
M  END
