2,6
 OpenBabel05122313063D

 48 48  0  0  0  0  0  0  0  0999 V2000
    4.0549   -0.3532   -0.5317 Si  0  0  0  0  0  0  0  0  0  0  0  0
   -3.2874   -0.3074    0.7922 O   0  5  0  0  0  0  0  0  0  0  0  0
    3.5346    1.1166    0.1065 O   0  0  0  0  0  0  0  0  0  0  0  0
    5.4832   -0.0781   -1.3566 O   0  0  0  0  0  0  0  0  0  0  0  0
    4.3769   -1.4676    0.6683 O   0  0  0  0  0  0  0  0  0  0  0  0
   -1.1165   -0.9566   -1.0460 N   0  0  0  0  0  2  0  0  0  0  0  0
   -3.7807   -1.4319    0.3687 C   0  0  0  0  0  0  0  0  0  0  0  0
   -5.0635   -1.8287    0.8657 C   0  0  0  0  0  0  0  0  0  0  0  0
   -5.5478   -1.1576    1.5897 H   0  0  0  0  0  0  0  0  0  0  0  0
   -5.6586   -3.0196    0.4703 C   0  0  0  0  0  0  0  0  0  0  0  0
   -6.6387   -3.2967    0.8901 H   0  0  0  0  0  0  0  0  0  0  0  0
   -5.0246   -3.8823   -0.4586 C   0  0  0  0  0  0  0  0  0  0  0  0
   -5.5019   -4.8242   -0.7639 H   0  0  0  0  0  0  0  0  0  0  0  0
   -3.7914   -3.5112   -0.9764 C   0  0  0  0  0  0  0  0  0  0  0  0
   -3.2816   -4.1601   -1.7073 H   0  0  0  0  0  0  0  0  0  0  0  0
   -3.1443   -2.3012   -0.5907 C   0  0  0  0  0  0  0  0  0  0  0  0
   -1.8962   -1.9922   -1.2224 C   0  0  0  0  0  3  0  0  0  0  0  0
   -1.5614   -2.7329   -1.9783 H   0  0  0  0  0  0  0  0  0  0  0  0
    0.1328   -0.9270   -1.8105 C   0  0  0  0  0  0  0  0  0  0  0  0
    0.2270    0.0645   -2.2994 H   0  0  0  0  0  0  0  0  0  0  0  0
    0.0840   -1.6784   -2.6308 H   0  0  0  0  0  0  0  0  0  0  0  0
    1.3710   -1.1719   -0.9410 C   0  0  0  0  0  0  0  0  0  0  0  0
    1.3561   -2.2119   -0.5576 H   0  0  0  0  0  0  0  0  0  0  0  0
    1.2673   -0.5377   -0.0384 H   0  0  0  0  0  0  0  0  0  0  0  0
    2.6867   -0.8864   -1.6846 C   0  0  0  0  0  0  0  0  0  0  0  0
    2.5623   -0.0413   -2.3989 H   0  0  0  0  0  0  0  0  0  0  0  0
    3.0190   -1.7521   -2.2953 H   0  0  0  0  0  0  0  0  0  0  0  0
    4.4058    2.0934    0.6791 C   0  0  0  0  0  0  0  0  0  0  0  0
    5.4516    1.9152    0.3421 H   0  0  0  0  0  0  0  0  0  0  0  0
    4.3923    1.9886    1.7891 H   0  0  0  0  0  0  0  0  0  0  0  0
    3.9554    3.4883    0.2775 C   0  0  0  0  0  0  0  0  0  0  0  0
    3.9871    3.6054   -0.8243 H   0  0  0  0  0  0  0  0  0  0  0  0
    4.6149    4.2568    0.7294 H   0  0  0  0  0  0  0  0  0  0  0  0
    2.9171    3.6819    0.6153 H   0  0  0  0  0  0  0  0  0  0  0  0
    6.6773   -0.8466   -1.2435 C   0  0  0  0  0  0  0  0  0  0  0  0
    6.9657   -0.9568   -0.1734 H   0  0  0  0  0  0  0  0  0  0  0  0
    7.4798   -0.2628   -1.7441 H   0  0  0  0  0  0  0  0  0  0  0  0
    6.5434   -2.2223   -1.8834 C   0  0  0  0  0  0  0  0  0  0  0  0
    5.7924   -2.8308   -1.3391 H   0  0  0  0  0  0  0  0  0  0  0  0
    7.5093   -2.7668   -1.8531 H   0  0  0  0  0  0  0  0  0  0  0  0
    6.2275   -2.1331   -2.9427 H   0  0  0  0  0  0  0  0  0  0  0  0
    4.0626   -1.4099    2.0594 C   0  0  0  0  0  0  0  0  0  0  0  0
    4.9838   -1.6971    2.6140 H   0  0  0  0  0  0  0  0  0  0  0  0
    3.8164   -0.3653    2.3586 H   0  0  0  0  0  0  0  0  0  0  0  0
    2.9152   -2.3390    2.4213 C   0  0  0  0  0  0  0  0  0  0  0  0
    1.9535   -2.0009    1.9845 H   0  0  0  0  0  0  0  0  0  0  0  0
    2.7832   -2.3717    3.5224 H   0  0  0  0  0  0  0  0  0  0  0  0
    3.1275   -3.3689    2.0696 H   0  0  0  0  0  0  0  0  0  0  0  0
  1  3  1  0  0  0  0
  1  5  1  0  0  0  0
  3 28  1  0  0  0  0
  4 35  1  0  0  0  0
  4  1  1  0  0  0  0
  5 42  1  0  0  0  0
  7  2  1  0  0  0  0
  7  8  1  0  0  0  0
  8  9  1  0  0  0  0
 10  8  2  0  0  0  0
 10 11  1  0  0  0  0
 12 10  1  0  0  0  0
 13 12  1  0  0  0  0
 14 16  1  0  0  0  0
 14 12  2  0  0  0  0
 15 14  1  0  0  0  0
 16  7  2  0  0  0  0
 17  6  1  0  0  0  0
 17 16  1  0  0  0  0
 18 17  1  0  0  0  0
 19  6  1  0  0  0  0
 19 22  1  0  0  0  0
 20 19  1  0  0  0  0
 21 19  1  0  0  0  0
 22 23  1  0  0  0  0
 22 24  1  0  0  0  0
 25 22  1  0  0  0  0
 25  1  1  0  0  0  0
 26 25  1  0  0  0  0
 27 25  1  0  0  0  0
 28 30  1  0  0  0  0
 29 28  1  0  0  0  0
 31 34  1  0  0  0  0
 31 28  1  0  0  0  0
 31 33  1  0  0  0  0
 32 31  1  0  0  0  0
 35 36  1  0  0  0  0
 37 35  1  0  0  0  0
 38 40  1  0  0  0  0
 38 39  1  0  0  0  0
 38 35  1  0  0  0  0
 41 38  1  0  0  0  0
 42 44  1  0  0  0  0
 42 45  1  0  0  0  0
 42 43  1  0  0  0  0
 45 47  1  0  0  0  0
 46 45  1  0  0  0  0
 48 45  1  0  0  0  0
M  CHG  1   2  -1
M  END
