1,2
 OpenBabel05122313063D

 41 42  0  0  1  0  0  0  0  0999 V2000
   -0.9992    0.2089    1.6365 O   0  5  0  0  0  0  0  0  0  0  0  0
   -0.7476    1.6302   -0.5967 N   0  0  0  0  0  2  0  0  0  0  0  0
    1.7380    1.3847    1.1522 N   0  0  0  0  0  0  0  0  0  0  0  0
    2.4942    0.8022    1.5290 H   0  0  0  0  0  0  0  0  0  0  0  0
    1.1536    1.6999    1.9375 H   0  0  0  0  0  0  0  0  0  0  0  0
   -2.8751    1.0675    0.3939 C   0  0  0  0  0  0  0  0  0  0  0  0
   -2.2820    0.3620    1.4929 C   0  0  0  0  0  0  0  0  0  0  0  0
   -3.1598   -0.1834    2.5004 C   0  0  0  0  0  0  0  0  0  0  0  0
   -2.6830   -0.6166    3.3927 H   0  0  0  0  0  0  0  0  0  0  0  0
   -4.5263   -0.1985    2.3327 C   0  0  0  0  0  0  0  0  0  0  0  0
   -5.1753   -0.6448    3.1032 H   0  0  0  0  0  0  0  0  0  0  0  0
   -5.1319    0.3092    1.1384 C   0  0  0  0  0  0  0  0  0  0  0  0
   -6.5233    0.1630    0.8926 C   0  0  0  0  0  0  0  0  0  0  0  0
   -7.1414   -0.3246    1.6634 H   0  0  0  0  0  0  0  0  0  0  0  0
   -7.0987    0.6041   -0.2947 C   0  0  0  0  0  0  0  0  0  0  0  0
   -8.1767    0.4772   -0.4736 H   0  0  0  0  0  0  0  0  0  0  0  0
   -6.2764    1.1961   -1.2827 C   0  0  0  0  0  0  0  0  0  0  0  0
   -6.7149    1.5142   -2.2411 H   0  0  0  0  0  0  0  0  0  0  0  0
   -4.9113    1.3615   -1.0651 C   0  0  0  0  0  0  0  0  0  0  0  0
   -4.2911    1.7806   -1.8705 H   0  0  0  0  0  0  0  0  0  0  0  0
   -4.2920    0.9516    0.1550 C   0  0  2  0  0  3  0  0  0  0  0  0
   -2.0031    1.9585   -0.3709 C   0  0  0  0  0  0  0  0  0  0  0  0
   -2.5269    3.3332   -0.7438 C   0  0  0  0  0  0  0  0  0  0  0  0
   -2.4992    3.5184   -1.8381 H   0  0  0  0  0  0  0  0  0  0  0  0
   -3.5644    3.4691   -0.3950 H   0  0  0  0  0  0  0  0  0  0  0  0
   -1.9008    4.1161   -0.2686 H   0  0  0  0  0  0  0  0  0  0  0  0
    0.1845    2.5704   -1.2128 C   0  0  0  0  0  0  0  0  0  0  0  0
    0.8092    1.9786   -1.9109 H   0  0  0  0  0  0  0  0  0  0  0  0
   -0.3648    3.3176   -1.8200 H   0  0  0  0  0  0  0  0  0  0  0  0
    1.0942    3.3150   -0.2155 C   0  0  0  0  0  0  0  0  0  0  0  0
    0.4792    3.7325    0.6146 H   0  0  0  0  0  0  0  0  0  0  0  0
    1.5238    4.1895   -0.7480 H   0  0  0  0  0  0  0  0  0  0  0  0
    2.2578    2.5011    0.3698 C   0  0  1  0  0  0  0  0  0  0  0  0
    2.8119    2.0505   -0.4859 H   0  0  0  0  0  0  0  0  0  0  0  0
    3.2556    3.4055    1.1250 C   0  0  0  0  0  0  0  0  0  0  0  0
    2.7232    3.8999    1.9697 H   0  0  0  0  0  0  0  0  0  0  0  0
    3.5775    4.2239    0.4436 H   0  0  0  0  0  0  0  0  0  0  0  0
    4.4869    2.6590    1.6403 C   0  0  0  0  0  0  0  0  0  0  0  0
    5.0271    2.1479    0.8158 H   0  0  0  0  0  0  0  0  0  0  0  0
    5.1991    3.3454    2.1400 H   0  0  0  0  0  0  0  0  0  0  0  0
    4.2129    1.8786    2.3803 H   0  0  0  0  0  0  0  0  0  0  0  0
  2 22  1  0  0  0  0
  3  4  1  0  0  0  0
  3  5  1  0  0  0  0
  6  7  1  0  0  0  0
  7  1  1  0  0  0  0
  7  8  2  0  0  0  0
  8  9  1  0  0  0  0
 10  8  1  0  0  0  0
 10 11  1  0  0  0  0
 12 10  2  0  0  0  0
 13 12  1  0  0  0  0
 13 14  1  0  0  0  0
 15 13  2  0  0  0  0
 16 15  1  0  0  0  0
 17 19  2  0  0  0  0
 17 15  1  0  0  0  0
 18 17  1  0  0  0  0
 20 19  1  0  0  0  0
 21 19  1  6  0  0  0
 21  6  1  0  0  0  0
 21 12  1  0  0  0  0
 22  6  2  0  0  0  0
 23 25  1  0  0  0  0
 23 22  1  0  0  0  0
 23 26  1  0  0  0  0
 24 23  1  0  0  0  0
 27  2  1  0  0  0  0
 27 30  1  0  0  0  0
 28 27  1  0  0  0  0
 29 27  1  0  0  0  0
 30 33  1  0  0  0  0
 30 31  1  0  0  0  0
 32 30  1  0  0  0  0
 33 34  1  6  0  0  0
 33 35  1  0  0  0  0
 33  3  1  0  0  0  0
 35 38  1  0  0  0  0
 35 36  1  0  0  0  0
 37 35  1  0  0  0  0
 38 40  1  0  0  0  0
 38 41  1  0  0  0  0
 39 38  1  0  0  0  0
M  CHG  1   1  -1
M  END
