1,2
 OpenBabel05122313063D

 27 27  0  0  0  0  0  0  0  0999 V2000
    1.5059   -0.7371   -1.2473 O   0  5  0  0  0  0  0  0  0  0  0  0
    0.9190    1.2882    0.4875 N   0  0  0  0  0  2  0  0  0  0  0  0
    2.7766   -0.4359   -1.1029 C   0  0  0  0  0  0  0  0  0  0  0  0
    3.7641   -1.1443   -1.8427 C   0  0  0  0  0  0  0  0  0  0  0  0
    3.4192   -1.9252   -2.5361 H   0  0  0  0  0  0  0  0  0  0  0  0
    5.1155   -0.8586   -1.6766 C   0  0  0  0  0  0  0  0  0  0  0  0
    5.8653   -1.4254   -2.2500 H   0  0  0  0  0  0  0  0  0  0  0  0
    5.5368    0.1513   -0.7737 C   0  0  0  0  0  0  0  0  0  0  0  0
    6.6076    0.3699   -0.6503 H   0  0  0  0  0  0  0  0  0  0  0  0
    4.5884    0.8661   -0.0541 C   0  0  0  0  0  0  0  0  0  0  0  0
    4.9023    1.6617    0.6410 H   0  0  0  0  0  0  0  0  0  0  0  0
    3.1946    0.6014   -0.1974 C   0  0  0  0  0  0  0  0  0  0  0  0
    2.2444    1.3940    0.5160 C   0  0  0  0  0  3  0  0  0  0  0  0
    2.6863    2.1898    1.1376 H   0  0  0  0  0  0  0  0  0  0  0  0
    0.1141    2.3432    1.2198 C   0  0  0  0  0  0  0  0  0  0  0  0
   -1.0983    1.6810    1.8933 C   0  0  0  0  0  0  0  0  0  0  0  0
   -1.7721    1.2128    1.1578 H   0  0  0  0  0  0  0  0  0  0  0  0
   -1.6771    2.4485    2.4442 H   0  0  0  0  0  0  0  0  0  0  0  0
   -0.7770    0.9051    2.6156 H   0  0  0  0  0  0  0  0  0  0  0  0
   -0.3449    3.3717    0.1692 C   0  0  0  0  0  0  0  0  0  0  0  0
    0.5322    3.8699   -0.2913 H   0  0  0  0  0  0  0  0  0  0  0  0
   -0.9776    4.1492    0.6429 H   0  0  0  0  0  0  0  0  0  0  0  0
   -0.9270    2.8731   -0.6283 H   0  0  0  0  0  0  0  0  0  0  0  0
    0.9214    3.0606    2.3195 C   0  0  0  0  0  0  0  0  0  0  0  0
    1.3571    2.3423    3.0432 H   0  0  0  0  0  0  0  0  0  0  0  0
    0.2365    3.7288    2.8764 H   0  0  0  0  0  0  0  0  0  0  0  0
    1.7321    3.6993    1.9173 H   0  0  0  0  0  0  0  0  0  0  0  0
  1  3  1  0  0  0  0
  2 13  1  0  0  0  0
  2 15  1  0  0  0  0
  3 12  1  0  0  0  0
  4  6  1  0  0  0  0
  4  3  2  0  0  0  0
  5  4  1  0  0  0  0
  6  8  2  0  0  0  0
  7  6  1  0  0  0  0
  8  9  1  0  0  0  0
  8 10  1  0  0  0  0
 10 11  1  0  0  0  0
 12 10  2  0  0  0  0
 12 13  1  0  0  0  0
 13 14  1  0  0  0  0
 15 16  1  0  0  0  0
 15 24  1  0  0  0  0
 16 18  1  0  0  0  0
 16 19  1  0  0  0  0
 17 16  1  0  0  0  0
 20 22  1  0  0  0  0
 20 15  1  0  0  0  0
 21 20  1  0  0  0  0
 23 20  1  0  0  0  0
 24 26  1  0  0  0  0
 24 25  1  0  0  0  0
 27 24  1  0  0  0  0
M  CHG  1   1  -1
M  END
