1,10
 OpenBabel05122313063D

 40 40  0  0  1  0  0  0  0  0999 V2000
    0.5702   -1.5993   -1.2924 O   0  0  0  0  0  1  0  0  0  0  0  0
   -1.2290    2.4299   -0.9240 N   0  0  0  0  0  0  0  0  0  0  0  0
   -1.3519    1.4464    0.0303 C   0  0  0  0  0  3  0  0  0  0  0  0
    2.6979   -2.1457   -0.8278 O   0  0  0  0  0  0  0  0  0  0  0  0
   -2.5124    1.3758    0.7378 N   0  0  0  0  0  0  0  0  0  0  0  0
   -0.3920    2.2084   -2.0923 C   0  0  0  0  0  0  0  0  0  0  0  0
   -0.8971    2.6293   -2.9867 H   0  0  0  0  0  0  0  0  0  0  0  0
   -0.2516    1.1223   -2.2413 H   0  0  0  0  0  0  0  0  0  0  0  0
    0.6078    2.6868   -1.9908 H   0  0  0  0  0  0  0  0  0  0  0  0
   -0.3932    0.5356    0.2291 N   0  0  0  0  0  2  0  0  0  0  0  0
   -1.7211    3.7811   -0.7250 C   0  0  0  0  0  0  0  0  0  0  0  0
   -2.1782    3.8731    0.2767 H   0  0  0  0  0  0  0  0  0  0  0  0
   -2.4758    4.0725   -1.4881 H   0  0  0  0  0  0  0  0  0  0  0  0
   -0.8743    4.5015   -0.7881 H   0  0  0  0  0  0  0  0  0  0  0  0
   -3.8062    1.6855    0.1399 C   0  0  0  0  0  0  0  0  0  0  0  0
   -4.3402    2.4735    0.7125 H   0  0  0  0  0  0  0  0  0  0  0  0
   -4.4140    0.7572    0.1182 H   0  0  0  0  0  0  0  0  0  0  0  0
   -3.6714    2.0138   -0.9046 H   0  0  0  0  0  0  0  0  0  0  0  0
   -2.5751    0.5996    1.9706 C   0  0  0  0  0  0  0  0  0  0  0  0
   -1.5580    0.4334    2.3681 H   0  0  0  0  0  0  0  0  0  0  0  0
   -3.0423   -0.3907    1.7756 H   0  0  0  0  0  0  0  0  0  0  0  0
   -3.1861    1.1452    2.7194 H   0  0  0  0  0  0  0  0  0  0  0  0
    0.9521    0.8995    0.2348 C   0  0  0  0  0  0  0  0  0  0  0  0
    1.3531    2.1501    0.7758 C   0  0  0  0  0  0  0  0  0  0  0  0
    0.5761    2.8308    1.1545 H   0  0  0  0  0  0  0  0  0  0  0  0
    2.6949    2.5123    0.8756 C   0  0  0  0  0  0  0  0  0  0  0  0
    2.9540    3.4937    1.3051 H   0  0  0  0  0  0  0  0  0  0  0  0
    3.7292    1.6372    0.4694 C   0  0  0  0  0  0  0  0  0  0  0  0
    3.3454    0.3940   -0.0446 C   0  0  0  0  0  0  0  0  0  0  0  0
    4.1136   -0.3241   -0.3647 H   0  0  0  0  0  0  0  0  0  0  0  0
    1.9903    0.0164   -0.1934 C   0  0  0  0  0  0  0  0  0  0  0  0
    5.1778    2.0314    0.6025 C   0  0  0  0  0  0  0  0  0  0  0  0
    5.4059    2.9458    0.0152 H   0  0  0  0  0  0  0  0  0  0  0  0
    5.8515    1.2268    0.2506 H   0  0  0  0  0  0  0  0  0  0  0  0
    5.4406    2.2547    1.6578 H   0  0  0  0  0  0  0  0  0  0  0  0
    1.6721   -1.2892   -0.8081 C   0  0  1  0  0  3  0  0  0  0  0  0
    2.3731   -3.4878   -1.2374 C   0  0  0  0  0  0  0  0  0  0  0  0
    1.5950   -3.8914   -0.5589 H   0  0  0  0  0  0  0  0  0  0  0  0
    3.3122   -4.0611   -1.1504 H   0  0  0  0  0  0  0  0  0  0  0  0
    1.9972   -3.5023   -2.2791 H   0  0  0  0  0  0  0  0  0  0  0  0
  2 11  1  0  0  0  0
  2  3  1  0  0  0  0
  3 10  1  0  0  0  0
  3  5  1  0  0  0  0
  4 36  1  0  0  0  0
  5 19  1  0  0  0  0
  6  9  1  0  0  0  0
  6  2  1  0  0  0  0
  7  6  1  0  0  0  0
  8  6  1  0  0  0  0
 10 23  1  0  0  0  0
 11 12  1  0  0  0  0
 13 11  1  0  0  0  0
 14 11  1  0  0  0  0
 15 16  1  0  0  0  0
 15  5  1  0  0  0  0
 17 15  1  0  0  0  0
 18 15  1  0  0  0  0
 19 20  1  0  0  0  0
 19 22  1  0  0  0  0
 21 19  1  0  0  0  0
 23 24  1  0  0  0  0
 24 26  2  0  0  0  0
 24 25  1  0  0  0  0
 26 27  1  0  0  0  0
 28 32  1  0  0  0  0
 28 26  1  0  0  0  0
 29 28  2  0  0  0  0
 30 29  1  0  0  0  0
 31 29  1  0  0  0  0
 31 23  2  0  0  0  0
 32 35  1  0  0  0  0
 33 32  1  0  0  0  0
 34 32  1  0  0  0  0
 36  1  1  6  0  0  0
 36 31  1  0  0  0  0
 37 39  1  0  0  0  0
 37  4  1  0  0  0  0
 37 38  1  0  0  0  0
 40 37  1  0  0  0  0
M  END
