1,3
 OpenBabel05122313063D

 13 13  0  0  1  0  0  0  0  0999 V2000
    1.4149   -1.4579   -0.2907 O   0  5  0  0  0  0  0  0  0  0  0  0
    3.6190   -1.8259    0.0204 O   0  0  0  0  0  0  0  0  0  0  0  0
    1.6204    1.2614   -0.3331 N   0  0  0  0  0  0  0  0  0  0  0  0
    2.6654   -1.0740   -0.1097 C   0  0  0  0  0  0  0  0  0  0  0  0
    2.8658    0.4472   -0.0260 C   0  0  2  0  0  0  0  0  0  0  0  0
    2.9051    1.0847    1.3895 C   0  0  0  0  0  0  0  0  0  0  0  0
    1.8751    2.1168    0.8824 C   0  0  0  0  0  0  0  0  0  0  0  0
    1.6366    1.7727   -1.2282 H   0  0  0  0  0  0  0  0  0  0  0  0
    3.7204    0.7480   -0.6641 H   0  0  0  0  0  0  0  0  0  0  0  0
    3.8833    1.4749    1.7227 H   0  0  0  0  0  0  0  0  0  0  0  0
    2.4982    0.4079    2.1647 H   0  0  0  0  0  0  0  0  0  0  0  0
    2.3258    3.0863    0.5888 H   0  0  0  0  0  0  0  0  0  0  0  0
    0.9640    2.2985    1.4813 H   0  0  0  0  0  0  0  0  0  0  0  0
  1  4  1  0  0  0  0
  3  5  1  0  0  0  0
  3  7  1  0  0  0  0
  4  5  1  0  0  0  0
  4  2  2  0  0  0  0
  5  9  1  6  0  0  0
  5  6  1  0  0  0  0
  6 10  1  0  0  0  0
  6 11  1  0  0  0  0
  7  6  1  0  0  0  0
  7 13  1  0  0  0  0
  8  3  1  0  0  0  0
 12  7  1  0  0  0  0
M  CHG  1   1  -1
M  END
