1,2
 OpenBabel05122313063D

 25 25  0  0  1  0  0  0  0  0999 V2000
    1.3792    1.2872    1.0711 O   0  5  0  0  0  0  0  0  0  0  0  0
   -0.9927    1.1808   -0.2810 N   0  0  0  0  0  2  0  0  0  0  0  0
   -1.1798   -0.6502   -2.4116 F   0  0  0  0  0  0  0  0  0  0  0  0
   -3.4362    1.9893    0.7952 F   0  0  0  0  0  0  0  0  0  0  0  0
    2.8261    3.1485    0.8772 C   0  0  0  0  0  0  0  0  0  0  0  0
    2.8927    3.2727    1.9776 H   0  0  0  0  0  0  0  0  0  0  0  0
    2.9215    4.1343    0.3875 H   0  0  0  0  0  0  0  0  0  0  0  0
    3.6726    2.4987    0.5734 H   0  0  0  0  0  0  0  0  0  0  0  0
    1.5355    2.4615    0.5336 C   0  0  0  0  0  0  0  0  0  0  0  0
    0.5853    3.0213   -0.3092 C   0  0  0  0  0  0  0  0  0  0  0  0
    0.7950    4.0124   -0.7305 H   0  0  0  0  0  0  0  0  0  0  0  0
   -0.6261    2.3786   -0.7185 C   0  0  1  0  0  3  0  0  0  0  0  0
   -1.4981    3.1219   -1.7031 C   0  0  0  0  0  0  0  0  0  0  0  0
   -1.0153    4.0528   -2.0495 H   0  0  0  0  0  0  0  0  0  0  0  0
   -2.4668    3.3814   -1.2301 H   0  0  0  0  0  0  0  0  0  0  0  0
   -1.7232    2.4843   -2.5810 H   0  0  0  0  0  0  0  0  0  0  0  0
   -2.2273    0.6504   -0.7307 C   0  0  0  0  0  0  0  0  0  0  0  0
   -2.3029   -0.3204   -1.7523 C   0  0  0  0  0  0  0  0  0  0  0  0
   -3.5017   -0.9469   -2.1088 C   0  0  0  0  0  0  0  0  0  0  0  0
   -3.4842   -1.7026   -2.9062 H   0  0  0  0  0  0  0  0  0  0  0  0
   -4.6846   -0.5876   -1.4462 C   0  0  0  0  0  0  0  0  0  0  0  0
   -5.6331   -1.0739   -1.7165 H   0  0  0  0  0  0  0  0  0  0  0  0
   -4.6649    0.4005   -0.4509 C   0  0  0  0  0  0  0  0  0  0  0  0
   -5.5757    0.7209    0.0736 H   0  0  0  0  0  0  0  0  0  0  0  0
   -3.4492    1.0081   -0.1194 C   0  0  0  0  0  0  0  0  0  0  0  0
  3 18  1  0  0  0  0
  5  6  1  0  0  0  0
  7  5  1  0  0  0  0
  8  5  1  0  0  0  0
  9  5  1  0  0  0  0
  9  1  1  0  0  0  0
 10  9  2  0  0  0  0
 11 10  1  0  0  0  0
 12 10  1  6  0  0  0
 12  2  1  0  0  0  0
 13 15  1  0  0  0  0
 13 12  1  0  0  0  0
 14 13  1  0  0  0  0
 16 13  1  0  0  0  0
 17  2  1  0  0  0  0
 17 25  1  0  0  0  0
 18 17  2  0  0  0  0
 19 18  1  0  0  0  0
 19 21  2  0  0  0  0
 20 19  1  0  0  0  0
 21 23  1  0  0  0  0
 22 21  1  0  0  0  0
 23 25  2  0  0  0  0
 23 24  1  0  0  0  0
 25  4  1  0  0  0  0
M  CHG  1   1  -1
M  END
