3,4
 OpenBabel05122313063D

 30 31  0  0  1  0  0  0  0  0999 V2000
   -4.8922    2.0116    0.3606 O   0  0  0  0  0  0  0  0  0  0  0  0
   -5.7272    2.4959    0.4982 H   0  0  0  0  0  0  0  0  0  0  0  0
   -1.7703   -0.6901   -0.3342 O   0  0  0  0  0  1  0  0  0  0  0  0
   -0.9398    1.6710    0.1292 N   0  0  0  0  0  2  0  0  0  0  0  0
   -2.2914    1.4219    0.2238 N   0  0  0  0  0  0  0  0  0  0  0  0
   -2.9780    2.1692    0.3694 H   0  0  0  0  0  0  0  0  0  0  0  0
   -5.1763    0.6948    0.1006 C   0  0  0  0  0  0  0  0  0  0  0  0
   -4.1016   -0.2120   -0.1165 C   0  0  0  0  0  0  0  0  0  0  0  0
   -2.6766    0.1529   -0.0793 C   0  0  1  0  0  3  0  0  0  0  0  0
   -4.4234   -1.5628   -0.3908 C   0  0  0  0  0  0  0  0  0  0  0  0
   -3.5826   -2.2504   -0.5556 H   0  0  0  0  0  0  0  0  0  0  0  0
    0.8337    3.3750   -0.1664 C   0  0  0  0  0  0  0  0  0  0  0  0
    1.4328    3.2963    0.7681 H   0  0  0  0  0  0  0  0  0  0  0  0
    1.3101    2.7165   -0.9192 H   0  0  0  0  0  0  0  0  0  0  0  0
   -0.5771    2.9223    0.0901 C   0  0  0  0  0  3  0  0  0  0  0  0
   -5.7452   -2.0080   -0.4453 C   0  0  0  0  0  0  0  0  0  0  0  0
   -5.9618   -3.0646   -0.6587 H   0  0  0  0  0  0  0  0  0  0  0  0
   -6.5058    0.2452    0.0471 C   0  0  0  0  0  0  0  0  0  0  0  0
   -7.3219    0.9666    0.2202 H   0  0  0  0  0  0  0  0  0  0  0  0
   -1.5188    4.1068    0.1688 C   0  0  0  0  0  0  0  0  0  0  0  0
   -2.1723    4.1241   -0.7359 H   0  0  0  0  0  0  0  0  0  0  0  0
   -2.1965    4.0636    1.0503 H   0  0  0  0  0  0  0  0  0  0  0  0
   -0.5703    5.3219    0.1941 C   0  0  0  0  0  0  0  0  0  0  0  0
   -0.2773    5.5373    1.2438 H   0  0  0  0  0  0  0  0  0  0  0  0
   -1.0348    6.2411   -0.2141 H   0  0  0  0  0  0  0  0  0  0  0  0
   -6.7944   -1.0987   -0.2242 C   0  0  0  0  0  0  0  0  0  0  0  0
   -7.8422   -1.4319   -0.2621 H   0  0  0  0  0  0  0  0  0  0  0  0
    0.6568    4.8421   -0.6007 C   0  0  0  0  0  0  0  0  0  0  0  0
    0.4370    4.8806   -1.6892 H   0  0  0  0  0  0  0  0  0  0  0  0
    1.5586    5.4606   -0.4243 H   0  0  0  0  0  0  0  0  0  0  0  0
  1  2  1  0  0  0  0
  4  5  1  0  0  0  0
  5  6  1  0  0  0  0
  7  1  1  0  0  0  0
  8  9  1  0  0  0  0
  8  7  2  0  0  0  0
  9  3  1  6  0  0  0
  9  5  1  0  0  0  0
 10  8  1  0  0  0  0
 11 10  1  0  0  0  0
 12 15  1  0  0  0  0
 12 13  1  0  0  0  0
 14 12  1  0  0  0  0
 15  4  1  0  0  0  0
 15 20  1  0  0  0  0
 16 10  2  0  0  0  0
 16 26  1  0  0  0  0
 17 16  1  0  0  0  0
 18  7  1  0  0  0  0
 18 19  1  0  0  0  0
 20 23  1  0  0  0  0
 20 22  1  0  0  0  0
 21 20  1  0  0  0  0
 23 24  1  0  0  0  0
 25 23  1  0  0  0  0
 26 18  2  0  0  0  0
 27 26  1  0  0  0  0
 28 30  1  0  0  0  0
 28 12  1  0  0  0  0
 28 23  1  0  0  0  0
 29 28  1  0  0  0  0
M  END
