2,3
 OpenBabel05122313063D

 10  9  0  0  0  0  0  0  0  0999 V2000
    3.6464    0.0016   -1.1942 S   0  0  0  0  0  0  0  0  0  0  0  0
    0.6722   -0.0006    1.3378 O   0  0  0  0  0  1  0  0  0  0  0  0
    0.9257    0.0013   -1.0539 N   0  0  0  0  0  2  0  0  0  0  0  0
    1.9607   -0.0001    0.9280 N   0  0  0  0  0  0  0  0  0  0  0  0
    2.9758   -0.0010    1.9466 C   0  0  0  0  0  0  0  0  0  0  0  0
    2.1455    0.0009   -0.4363 C   0  0  0  0  0  0  0  0  0  0  0  0
    0.9985    0.0019   -2.0752 H   0  0  0  0  0  0  0  0  0  0  0  0
    3.9476   -0.0007    1.4158 H   0  0  0  0  0  0  0  0  0  0  0  0
    2.8888   -0.9046    2.5865 H   0  0  0  0  0  0  0  0  0  0  0  0
    2.8890    0.9017    2.5879 H   0  0  0  0  0  0  0  0  0  0  0  0
  1  6  2  0  0  0  0
  3  6  1  0  0  0  0
  4  2  1  0  0  0  0
  4  5  1  0  0  0  0
  5  9  1  0  0  0  0
  5 10  1  0  0  0  0
  6  4  1  0  0  0  0
  7  3  1  0  0  0  0
  8  5  1  0  0  0  0
M  END
