3,4
 OpenBabel05122313063D

 24 23  0  0  0  0  0  0  0  0999 V2000
   -1.2949    2.5550    0.8476 O   0  0  0  0  0  0  0  0  0  0  0  0
   -2.4360   -1.5679    1.8897 O   0  0  0  0  0  0  0  0  0  0  0  0
    0.5216   -0.2622   -1.9603 O   0  0  0  0  0  1  0  0  0  0  0  0
   -1.9767   -0.0707   -0.7168 N   0  0  0  0  0  0  0  0  0  0  0  0
   -2.9072    0.8530    0.0056 C   0  0  0  0  0  0  0  0  0  0  0  0
   -2.4885    2.3176    0.1516 C   0  0  0  0  0  0  0  0  0  0  0  0
   -2.5071   -1.4694   -0.5952 C   0  0  0  0  0  0  0  0  0  0  0  0
   -2.0911   -2.2078    0.6878 C   0  0  0  0  0  0  0  0  0  0  0  0
   -1.8116    0.3275   -2.1522 C   0  0  0  0  0  0  0  0  0  0  0  0
   -0.6239   -0.3984   -2.7728 C   0  0  0  0  0  0  0  0  0  0  0  0
   -1.1073    1.7649    1.4333 H   0  0  0  0  0  0  0  0  0  0  0  0
   -1.7016   -0.9139    2.0798 H   0  0  0  0  0  0  0  0  0  0  0  0
   -3.0676    0.3917    0.9999 H   0  0  0  0  0  0  0  0  0  0  0  0
   -3.8885    0.8247   -0.5242 H   0  0  0  0  0  0  0  0  0  0  0  0
   -2.4136    2.8069   -0.8469 H   0  0  0  0  0  0  0  0  0  0  0  0
   -3.3665    2.8047    0.6505 H   0  0  0  0  0  0  0  0  0  0  0  0
   -2.1277   -2.0580   -1.4528 H   0  0  0  0  0  0  0  0  0  0  0  0
   -3.6158   -1.4193   -0.6832 H   0  0  0  0  0  0  0  0  0  0  0  0
   -2.5988   -3.1989    0.6503 H   0  0  0  0  0  0  0  0  0  0  0  0
   -0.9940   -2.4055    0.6119 H   0  0  0  0  0  0  0  0  0  0  0  0
   -2.7596    0.1378   -2.7086 H   0  0  0  0  0  0  0  0  0  0  0  0
   -1.6158    1.4167   -2.1651 H   0  0  0  0  0  0  0  0  0  0  0  0
   -0.8703   -1.4777   -2.9328 H   0  0  0  0  0  0  0  0  0  0  0  0
   -0.4335    0.0300   -3.7848 H   0  0  0  0  0  0  0  0  0  0  0  0
  1 11  1  0  0  0  0
  2 12  1  0  0  0  0
  4  7  1  0  0  0  0
  4  5  1  0  0  0  0
  5  6  1  0  0  0  0
  5 13  1  0  0  0  0
  6 16  1  0  0  0  0
  6  1  1  0  0  0  0
  7  8  1  0  0  0  0
  8  2  1  0  0  0  0
  9  4  1  0  0  0  0
 10  9  1  0  0  0  0
 10  3  1  0  0  0  0
 14  5  1  0  0  0  0
 15  6  1  0  0  0  0
 17  7  1  0  0  0  0
 18  7  1  0  0  0  0
 19  8  1  0  0  0  0
 20  8  1  0  0  0  0
 21  9  1  0  0  0  0
 22  9  1  0  0  0  0
 23 10  1  0  0  0  0
 24 10  1  0  0  0  0
M  END
