1,2
 OpenBabel05122313063D

 32 33  0  0  1  0  0  0  0  0999 V2000
   -0.9454   -1.1500    0.1015 N   0  0  0  0  0  2  0  0  0  0  0  0
    1.5099    0.2765   -0.5097 O   0  5  0  0  0  0  0  0  0  0  0  0
    1.3167   -2.0327    0.1061 C   0  0  0  0  0  0  0  0  0  0  0  0
    1.8961   -2.9518    0.2485 H   0  0  0  0  0  0  0  0  0  0  0  0
   -2.3309   -1.3590    0.3045 C   0  0  0  0  0  0  0  0  0  0  0  0
   -3.2142   -1.3744   -0.7938 C   0  0  0  0  0  0  0  0  0  0  0  0
   -2.7936   -1.2616   -1.8052 H   0  0  0  0  0  0  0  0  0  0  0  0
   -2.8739   -1.4582    1.6025 C   0  0  0  0  0  0  0  0  0  0  0  0
   -4.2512   -1.5579    1.8202 C   0  0  0  0  0  0  0  0  0  0  0  0
   -4.6249   -1.6267    2.8519 H   0  0  0  0  0  0  0  0  0  0  0  0
   -5.1274   -1.5600    0.7245 C   0  0  0  0  0  0  0  0  0  0  0  0
   -6.2157   -1.6296    0.8587 H   0  0  0  0  0  0  0  0  0  0  0  0
    2.0287   -0.8701   -0.2308 C   0  0  0  0  0  0  0  0  0  0  0  0
   -0.6196   -3.5136    0.6668 C   0  0  0  0  0  0  0  0  0  0  0  0
   -0.9719   -3.4972    1.7185 H   0  0  0  0  0  0  0  0  0  0  0  0
    0.1642   -4.2865    0.5763 H   0  0  0  0  0  0  0  0  0  0  0  0
   -1.4825   -3.8034    0.0351 H   0  0  0  0  0  0  0  0  0  0  0  0
    4.2995   -1.8450    0.4052 C   0  0  0  0  0  0  0  0  0  0  0  0
    3.8089   -2.6013    1.0344 H   0  0  0  0  0  0  0  0  0  0  0  0
   -0.0851   -2.1552    0.2680 C   0  0  1  0  0  3  0  0  0  0  0  0
    4.1851    0.0931   -1.0547 C   0  0  0  0  0  0  0  0  0  0  0  0
    3.5753    0.8320   -1.5932 H   0  0  0  0  0  0  0  0  0  0  0  0
    5.6974   -1.8239    0.3346 C   0  0  0  0  0  0  0  0  0  0  0  0
    6.3142   -2.5534    0.8785 H   0  0  0  0  0  0  0  0  0  0  0  0
    5.5809    0.1230   -1.1396 C   0  0  0  0  0  0  0  0  0  0  0  0
    6.1083    0.8767   -1.7418 H   0  0  0  0  0  0  0  0  0  0  0  0
    3.5216   -0.8928   -0.2896 C   0  0  0  0  0  0  0  0  0  0  0  0
   -2.0352   -1.4294    2.6661 F   0  0  0  0  0  0  0  0  0  0  0  0
    7.6653   -0.8156   -0.5143 F   0  0  0  0  0  0  0  0  0  0  0  0
   -5.4274   -1.4444   -1.6226 F   0  0  0  0  0  0  0  0  0  0  0  0
    6.3223   -0.8394   -0.4419 C   0  0  0  0  0  0  0  0  0  0  0  0
   -4.5893   -1.4663   -0.5676 C   0  0  0  0  0  0  0  0  0  0  0  0
  1  5  1  0  0  0  0
  2 13  1  0  0  0  0
  3  4  1  0  0  0  0
  3 20  1  0  0  0  0
  5  8  1  0  0  0  0
  6 32  1  0  0  0  0
  6  5  2  0  0  0  0
  7  6  1  0  0  0  0
  8  9  2  0  0  0  0
  8 28  1  0  0  0  0
  9 10  1  0  0  0  0
 11 12  1  0  0  0  0
 11  9  1  0  0  0  0
 13  3  2  0  0  0  0
 14 15  1  0  0  0  0
 16 14  1  0  0  0  0
 17 14  1  0  0  0  0
 18 19  1  0  0  0  0
 20  1  1  1  0  0  0
 20 14  1  0  0  0  0
 21 27  1  0  0  0  0
 22 21  1  0  0  0  0
 23 18  1  0  0  0  0
 23 24  1  0  0  0  0
 25 21  2  0  0  0  0
 25 31  1  0  0  0  0
 26 25  1  0  0  0  0
 27 13  1  0  0  0  0
 27 18  2  0  0  0  0
 29 31  1  0  0  0  0
 30 32  1  0  0  0  0
 31 23  2  0  0  0  0
 32 11  2  0  0  0  0
M  CHG  1   2  -1
M  END
