1,4
 OpenBabel05122313063D

 22 22  0  0  1  0  0  0  0  0999 V2000
    1.4133   -0.7837   -0.0489 N   0  0  0  0  0  2  0  0  0  0  0  0
    2.5109    0.1956    0.1341 C   0  0  2  0  0  0  0  0  0  0  0  0
    2.0901    1.4551   -0.6293 C   0  0  1  0  0  0  0  0  0  0  0  0
    0.7217    1.7150   -0.3281 O   0  0  0  0  0  1  0  0  0  0  0  0
    2.9097    2.7154   -0.3321 C   0  0  0  0  0  0  0  0  0  0  0  0
    2.8942    3.1604    1.1311 C   0  0  0  0  0  0  0  0  0  0  0  0
    3.8483   -0.3887   -0.2945 C   0  0  0  0  0  0  0  0  0  0  0  0
    3.9826   -1.7602    0.3367 C   0  0  0  0  0  0  0  0  0  0  0  0
    2.9115   -2.6130   -0.0746 O   0  0  0  0  0  0  0  0  0  0  0  0
    1.6268   -2.1369   -0.1748 C   0  0  0  0  0  0  0  0  0  0  0  0
    0.7483   -2.9607   -0.4013 O   0  0  0  0  0  0  0  0  0  0  0  0
    2.5591    0.4496    1.2195 H   0  0  0  0  0  0  0  0  0  0  0  0
    2.1753    1.2220   -1.7210 H   0  0  0  0  0  0  0  0  0  0  0  0
    3.9510    2.5567   -0.6882 H   0  0  0  0  0  0  0  0  0  0  0  0
    2.4900    3.5212   -0.9709 H   0  0  0  0  0  0  0  0  0  0  0  0
    3.3835    4.1472    1.2533 H   0  0  0  0  0  0  0  0  0  0  0  0
    3.4249    2.4470    1.7942 H   0  0  0  0  0  0  0  0  0  0  0  0
    1.8518    3.2439    1.4976 H   0  0  0  0  0  0  0  0  0  0  0  0
    4.6795    0.2713    0.0268 H   0  0  0  0  0  0  0  0  0  0  0  0
    3.8928   -0.4798   -1.4010 H   0  0  0  0  0  0  0  0  0  0  0  0
    4.9129   -2.2787    0.0309 H   0  0  0  0  0  0  0  0  0  0  0  0
    3.9878   -1.6787    1.4483 H   0  0  0  0  0  0  0  0  0  0  0  0
  1  2  1  0  0  0  0
  2 12  1  1  0  0  0
  3 13  1  6  0  0  0
  3  5  1  0  0  0  0
  3  4  1  0  0  0  0
  3  2  1  0  0  0  0
  5  6  1  0  0  0  0
  6 16  1  0  0  0  0
  6 18  1  0  0  0  0
  6 17  1  0  0  0  0
  7 19  1  0  0  0  0
  7  2  1  0  0  0  0
  7  8  1  0  0  0  0
  8 22  1  0  0  0  0
  9  8  1  0  0  0  0
 10  9  1  0  0  0  0
 10  1  1  0  0  0  0
 11 10  2  0  0  0  0
 14  5  1  0  0  0  0
 15  5  1  0  0  0  0
 20  7  1  0  0  0  0
 21  8  1  0  0  0  0
M  END
