1,3
 OpenBabel05122313063D

 32 32  0  0  1  0  0  0  0  0999 V2000
    0.6724   -2.4808   -0.0054 O   0  0  0  0  0  1  0  0  0  0  0  0
   -5.1965    1.1049    1.3889 O   0  0  0  0  0  0  0  0  0  0  0  0
   -2.0961   -1.6228    0.8303 N   0  0  0  0  0  2  0  0  0  0  0  0
    0.9661   -4.7731   -0.4672 C   0  0  0  0  0  0  0  0  0  0  0  0
    0.0712   -3.6105   -0.0814 C   0  0  2  0  0  3  0  0  0  0  0  0
   -1.2968   -3.8394    0.1437 C   0  0  0  0  0  0  0  0  0  0  0  0
   -2.3045   -2.9041    0.5143 C   0  0  0  0  0  0  0  0  0  0  0  0
   -3.7205   -3.4620    0.5242 C   0  0  0  0  0  0  0  0  0  0  0  0
   -3.2445   -0.7793    1.1113 C   0  0  0  0  0  0  0  0  0  0  0  0
   -3.7178    0.0269   -0.0858 C   0  0  0  0  0  0  0  0  0  0  0  0
   -3.1794   -0.1296   -1.3704 C   0  0  0  0  0  0  0  0  0  0  0  0
   -3.6062    0.6710   -2.4461 C   0  0  0  0  0  0  0  0  0  0  0  0
   -4.5901    1.6441   -2.2342 C   0  0  0  0  0  0  0  0  0  0  0  0
   -5.1540    1.8187   -0.9576 C   0  0  0  0  0  0  0  0  0  0  0  0
   -4.7210    1.0120    0.1109 C   0  0  0  0  0  0  0  0  0  0  0  0
   -6.1666    2.0908    1.6788 C   0  0  0  0  0  0  0  0  0  0  0  0
    1.7479   -4.9072    0.3089 H   0  0  0  0  0  0  0  0  0  0  0  0
    1.5003   -4.5326   -1.4092 H   0  0  0  0  0  0  0  0  0  0  0  0
    0.4129   -5.7227   -0.5898 H   0  0  0  0  0  0  0  0  0  0  0  0
   -1.6430   -4.8694   -0.0141 H   0  0  0  0  0  0  0  0  0  0  0  0
   -4.3787   -2.8928   -0.1638 H   0  0  0  0  0  0  0  0  0  0  0  0
   -4.1778   -3.4077    1.5338 H   0  0  0  0  0  0  0  0  0  0  0  0
   -3.7233   -4.5195    0.2067 H   0  0  0  0  0  0  0  0  0  0  0  0
   -2.9901   -0.0667    1.9204 H   0  0  0  0  0  0  0  0  0  0  0  0
   -4.1038   -1.3549    1.5135 H   0  0  0  0  0  0  0  0  0  0  0  0
   -2.3926   -0.8846   -1.5164 H   0  0  0  0  0  0  0  0  0  0  0  0
   -3.1642    0.5312   -3.4438 H   0  0  0  0  0  0  0  0  0  0  0  0
   -4.9335    2.2796   -3.0649 H   0  0  0  0  0  0  0  0  0  0  0  0
   -5.9256    2.5851   -0.8053 H   0  0  0  0  0  0  0  0  0  0  0  0
   -6.3943    2.0006    2.7572 H   0  0  0  0  0  0  0  0  0  0  0  0
   -7.1036    1.9356    1.0975 H   0  0  0  0  0  0  0  0  0  0  0  0
   -5.7883    3.1176    1.4736 H   0  0  0  0  0  0  0  0  0  0  0  0
  2 16  1  0  0  0  0
  3  9  1  0  0  0  0
  4  5  1  0  0  0  0
  4 17  1  0  0  0  0
  5  1  1  6  0  0  0
  5  6  1  0  0  0  0
  6  7  2  0  0  0  0
  7  8  1  0  0  0  0
  7  3  1  0  0  0  0
  8 22  1  0  0  0  0
  9 25  1  0  0  0  0
  9 24  1  0  0  0  0
 10 15  1  0  0  0  0
 10  9  1  0  0  0  0
 11 10  2  0  0  0  0
 12 13  2  0  0  0  0
 12 11  1  0  0  0  0
 13 14  1  0  0  0  0
 14 29  1  0  0  0  0
 14 15  2  0  0  0  0
 15  2  1  0  0  0  0
 16 30  1  0  0  0  0
 18  4  1  0  0  0  0
 19  4  1  0  0  0  0
 20  6  1  0  0  0  0
 21  8  1  0  0  0  0
 23  8  1  0  0  0  0
 26 11  1  0  0  0  0
 27 12  1  0  0  0  0
 28 13  1  0  0  0  0
 31 16  1  0  0  0  0
 32 16  1  0  0  0  0
M  END
