2,3
 OpenBabel05122313063D

 27 28  0  0  0  0  0  0  0  0999 V2000
    2.8940    0.3562    0.0392 N   0  0  0  0  0  0  0  0  0  0  0  0
    2.2602   -0.8468    0.0538 N   0  0  0  0  0  2  0  0  0  0  0  0
    0.7416    1.2266    0.0238 O   0  5  0  0  0  0  0  0  0  0  0  0
    2.0307    1.3712    0.0279 C   0  0  0  0  0  0  0  0  0  0  0  0
    2.5670    2.7561    0.0103 C   0  0  0  0  0  0  0  0  0  0  0  0
    3.9401    3.0196    0.2045 C   0  0  0  0  0  0  0  0  0  0  0  0
    4.6225    2.1767    0.3819 H   0  0  0  0  0  0  0  0  0  0  0  0
    4.4140    4.3371    0.1858 C   0  0  0  0  0  0  0  0  0  0  0  0
    5.4853    4.5354    0.3427 H   0  0  0  0  0  0  0  0  0  0  0  0
    3.5256    5.4049   -0.0294 C   0  0  0  0  0  0  0  0  0  0  0  0
    3.9012    6.4396   -0.0450 H   0  0  0  0  0  0  0  0  0  0  0  0
    2.1580    5.1481   -0.2229 C   0  0  0  0  0  0  0  0  0  0  0  0
    1.4590    5.9813   -0.3936 H   0  0  0  0  0  0  0  0  0  0  0  0
    1.6786    3.8323   -0.2012 C   0  0  0  0  0  0  0  0  0  0  0  0
    0.6121    3.6112   -0.3496 H   0  0  0  0  0  0  0  0  0  0  0  0
    2.9732   -1.9562    0.0581 C   0  0  0  0  0  3  0  0  0  0  0  0
    2.4032   -2.8950    0.0864 H   0  0  0  0  0  0  0  0  0  0  0  0
    4.4213   -2.1572    0.0302 C   0  0  0  0  0  0  0  0  0  0  0  0
    4.7603   -3.4739    0.1023 N   0  0  0  0  0  0  0  0  0  0  0  0
    6.0541   -3.7986    0.0817 C   0  0  0  0  0  0  0  0  0  0  0  0
    6.2884   -4.8772    0.1441 H   0  0  0  0  0  0  0  0  0  0  0  0
    7.0953   -2.8557   -0.0154 C   0  0  0  0  0  0  0  0  0  0  0  0
    8.1455   -3.1835   -0.0290 H   0  0  0  0  0  0  0  0  0  0  0  0
    6.7495   -1.4994   -0.0974 C   0  0  0  0  0  0  0  0  0  0  0  0
    7.5283   -0.7256   -0.1804 H   0  0  0  0  0  0  0  0  0  0  0  0
    5.3987   -1.1348   -0.0738 C   0  0  0  0  0  0  0  0  0  0  0  0
    5.0615   -0.0937   -0.1374 H   0  0  0  0  0  0  0  0  0  0  0  0
  1  2  1  0  0  0  0
  2 16  1  0  0  0  0
  3  4  1  0  0  0  0
  4  1  2  0  0  0  0
  5  4  1  0  0  0  0
  5  6  1  0  0  0  0
  6  7  1  0  0  0  0
  8  6  2  0  0  0  0
  8  9  1  0  0  0  0
 10  8  1  0  0  0  0
 11 10  1  0  0  0  0
 12 14  1  0  0  0  0
 12 10  2  0  0  0  0
 13 12  1  0  0  0  0
 14  5  2  0  0  0  0
 15 14  1  0  0  0  0
 16 17  1  0  0  0  0
 18 16  1  0  0  0  0
 18 19  1  0  0  0  0
 20 19  2  0  0  0  0
 20 21  1  0  0  0  0
 22 20  1  0  0  0  0
 23 22  1  0  0  0  0
 24 26  1  0  0  0  0
 24 22  2  0  0  0  0
 25 24  1  0  0  0  0
 26 18  2  0  0  0  0
 27 26  1  0  0  0  0
M  CHG  1   3  -1
M  END
