1,39
 OpenBabel05122313063D

 58 59  0  0  1  0  0  0  0  0999 V2000
    0.5099    1.3493   -1.0477 O   0  5  0  0  0  0  0  0  0  0  0  0
   -0.5974    0.6668   -0.7905 C   0  0  0  0  0  0  0  0  0  0  0  0
   -1.7914    1.3133   -0.3102 C   0  0  0  0  0  0  0  0  0  0  0  0
   -2.8958    0.5069    0.0057 C   0  0  0  0  0  0  0  0  0  0  0  0
   -3.7981    0.9988    0.3947 H   0  0  0  0  0  0  0  0  0  0  0  0
   -2.9292   -0.8987   -0.1534 C   0  0  0  0  0  0  0  0  0  0  0  0
   -1.7824   -1.4990   -0.6938 C   0  0  0  0  0  0  0  0  0  0  0  0
   -1.7540   -2.5829   -0.8843 H   0  0  0  0  0  0  0  0  0  0  0  0
   -0.6387   -0.7440   -1.0105 C   0  0  0  0  0  0  0  0  0  0  0  0
   -1.8530    2.8497   -0.2021 C   0  0  0  0  0  0  0  0  0  0  0  0
   -3.2306    3.3467    0.2706 C   0  0  0  0  0  0  0  0  0  0  0  0
   -3.2271    4.4547    0.3176 H   0  0  0  0  0  0  0  0  0  0  0  0
   -3.4851    2.9724    1.2836 H   0  0  0  0  0  0  0  0  0  0  0  0
   -4.0420    3.0451   -0.4226 H   0  0  0  0  0  0  0  0  0  0  0  0
   -1.5794    3.4539   -1.6004 C   0  0  0  0  0  0  0  0  0  0  0  0
   -1.6109    4.5629   -1.5535 H   0  0  0  0  0  0  0  0  0  0  0  0
   -2.3481    3.1187   -2.3262 H   0  0  0  0  0  0  0  0  0  0  0  0
   -0.5849    3.1407   -1.9689 H   0  0  0  0  0  0  0  0  0  0  0  0
   -0.7942    3.3682    0.7980 C   0  0  0  0  0  0  0  0  0  0  0  0
    0.2146    3.0187    0.5102 H   0  0  0  0  0  0  0  0  0  0  0  0
   -1.0204    3.0183    1.8262 H   0  0  0  0  0  0  0  0  0  0  0  0
   -0.7919    4.4782    0.8135 H   0  0  0  0  0  0  0  0  0  0  0  0
   -4.1904   -1.6858    0.2428 C   0  0  0  0  0  0  0  0  0  0  0  0
   -4.4723   -1.4748    1.7480 C   0  0  0  0  0  0  0  0  0  0  0  0
   -5.3856   -2.0241    2.0598 H   0  0  0  0  0  0  0  0  0  0  0  0
   -4.6241   -0.4037    1.9884 H   0  0  0  0  0  0  0  0  0  0  0  0
   -3.6235   -1.8396    2.3622 H   0  0  0  0  0  0  0  0  0  0  0  0
   -4.0316   -3.1947   -0.0109 C   0  0  0  0  0  0  0  0  0  0  0  0
   -3.1905   -3.6230    0.5715 H   0  0  0  0  0  0  0  0  0  0  0  0
   -3.8543   -3.4147   -1.0831 H   0  0  0  0  0  0  0  0  0  0  0  0
   -4.9546   -3.7297    0.2919 H   0  0  0  0  0  0  0  0  0  0  0  0
   -5.3979   -1.1809   -0.5795 C   0  0  0  0  0  0  0  0  0  0  0  0
   -5.2223   -1.3249   -1.6648 H   0  0  0  0  0  0  0  0  0  0  0  0
   -5.5851   -0.1018   -0.4108 H   0  0  0  0  0  0  0  0  0  0  0  0
   -6.3215   -1.7310   -0.3014 H   0  0  0  0  0  0  0  0  0  0  0  0
    0.5545   -1.3970   -1.6534 C   0  0  0  0  0  0  0  0  0  0  0  0
    0.3147   -2.4540   -1.9214 H   0  0  0  0  0  0  0  0  0  0  0  0
    0.8011   -0.8582   -2.5943 H   0  0  0  0  0  0  0  0  0  0  0  0
    1.8100   -1.3804   -0.8541 N   0  0  0  0  0  0  0  0  0  0  0  0
    2.9532   -1.9233   -1.6201 C   0  0  0  0  0  0  0  0  0  0  0  0
    3.2293   -1.2276   -2.4377 H   0  0  0  0  0  0  0  0  0  0  0  0
    2.6555   -2.8937   -2.0876 H   0  0  0  0  0  0  0  0  0  0  0  0
    4.0541   -2.1289   -0.5756 C   0  0  0  0  0  0  0  0  0  0  0  0
    4.6773   -1.2177   -0.4931 H   0  0  0  0  0  0  0  0  0  0  0  0
    4.7225   -2.9665   -0.8516 H   0  0  0  0  0  0  0  0  0  0  0  0
    3.2839   -2.3777    0.7441 C   0  0  0  0  0  0  0  0  0  0  0  0
    3.5875   -1.6453    1.5172 H   0  0  0  0  0  0  0  0  0  0  0  0
    3.4533   -3.3900    1.1586 H   0  0  0  0  0  0  0  0  0  0  0  0
    1.7887   -2.1805    0.3991 C   0  0  1  0  0  0  0  0  0  0  0  0
    1.3078   -3.1676    0.1891 H   0  0  0  0  0  0  0  0  0  0  0  0
    0.9906   -1.5063    1.5098 C   0  0  0  0  0  0  0  0  0  0  0  0
   -0.0982   -1.5181    1.2906 H   0  0  0  0  0  0  0  0  0  0  0  0
    1.1662   -2.0530    2.4672 H   0  0  0  0  0  0  0  0  0  0  0  0
    1.4491   -0.1628    1.6256 O   0  0  0  0  0  0  0  0  0  0  0  0
    0.7154    0.6095    2.5667 C   0  0  0  0  0  0  0  0  0  0  0  0
   -0.3584    0.6671    2.2813 H   0  0  0  0  0  0  0  0  0  0  0  0
    1.1466    1.6272    2.5626 H   0  0  0  0  0  0  0  0  0  0  0  0
    0.8070    0.1741    3.5870 H   0  0  0  0  0  0  0  0  0  0  0  0
  1  2  1  0  0  0  0
  2  3  1  0  0  0  0
  3 10  1  0  0  0  0
  3  4  2  0  0  0  0
  4  5  1  0  0  0  0
  6  4  1  0  0  0  0
  6 23  1  0  0  0  0
  7  6  2  0  0  0  0
  8  7  1  0  0  0  0
  9  2  2  0  0  0  0
  9  7  1  0  0  0  0
 10 11  1  0  0  0  0
 10 19  1  0  0  0  0
 11 12  1  0  0  0  0
 11 13  1  0  0  0  0
 14 11  1  0  0  0  0
 15 16  1  0  0  0  0
 15 10  1  0  0  0  0
 17 15  1  0  0  0  0
 18 15  1  0  0  0  0
 19 22  1  0  0  0  0
 19 21  1  0  0  0  0
 20 19  1  0  0  0  0
 23 24  1  0  0  0  0
 24 26  1  0  0  0  0
 24 25  1  0  0  0  0
 24 27  1  0  0  0  0
 28 23  1  0  0  0  0
 28 31  1  0  0  0  0
 28 29  1  0  0  0  0
 30 28  1  0  0  0  0
 32 34  1  0  0  0  0
 32 35  1  0  0  0  0
 32 23  1  0  0  0  0
 33 32  1  0  0  0  0
 36  9  1  0  0  0  0
 36 39  1  0  0  0  0
 37 36  1  0  0  0  0
 38 36  1  0  0  0  0
 39 49  1  0  0  0  0
 40 39  1  0  0  0  0
 40 43  1  0  0  0  0
 41 40  1  0  0  0  0
 42 40  1  0  0  0  0
 43 44  1  0  0  0  0
 43 46  1  0  0  0  0
 45 43  1  0  0  0  0
 46 48  1  0  0  0  0
 46 47  1  0  0  0  0
 49 50  1  6  0  0  0
 49 46  1  0  0  0  0
 49 51  1  0  0  0  0
 51 54  1  0  0  0  0
 51 53  1  0  0  0  0
 52 51  1  0  0  0  0
 54 55  1  0  0  0  0
 55 58  1  0  0  0  0
 56 55  1  0  0  0  0
 57 55  1  0  0  0  0
M  CHG  1   1  -1
M  END
