1,2
 OpenBabel05122313063D

 29 30  0  0  0  0  0  0  0  0999 V2000
    0.7290    1.5053   -1.2730 N   0  0  0  0  0  2  0  0  0  0  0  0
    1.6142   -0.2640    0.9033 O   0  5  0  0  0  0  0  0  0  0  0  0
    6.0973    0.4497    2.3759 O   0  0  0  0  0  0  0  0  0  0  0  0
   -1.8234    3.0775   -0.8530 O   0  0  0  0  0  0  0  0  0  0  0  0
    2.9184    1.5102   -0.1469 C   0  0  0  0  0  0  0  0  0  0  0  0
    2.7119    0.4137    0.7917 C   0  0  0  0  0  0  0  0  0  0  0  0
    3.8053    0.0692    1.6487 C   0  0  0  0  0  0  0  0  0  0  0  0
    3.6192   -0.7587    2.3439 H   0  0  0  0  0  0  0  0  0  0  0  0
    5.0264    0.7404    1.5920 C   0  0  0  0  0  0  0  0  0  0  0  0
    5.2263    1.8117    0.6709 C   0  0  0  0  0  0  0  0  0  0  0  0
    6.1988    2.3217    0.6539 H   0  0  0  0  0  0  0  0  0  0  0  0
    4.1850    2.1723   -0.1603 C   0  0  0  0  0  0  0  0  0  0  0  0
    4.3252    3.0025   -0.8722 H   0  0  0  0  0  0  0  0  0  0  0  0
    5.9738   -0.5987    3.3196 C   0  0  0  0  0  0  0  0  0  0  0  0
    5.1698   -0.3937    4.0608 H   0  0  0  0  0  0  0  0  0  0  0  0
    6.9448   -0.6640    3.8447 H   0  0  0  0  0  0  0  0  0  0  0  0
    5.7587   -1.5733    2.8269 H   0  0  0  0  0  0  0  0  0  0  0  0
    1.9342    1.9812   -1.0717 C   0  0  0  0  0  3  0  0  0  0  0  0
    2.2489    2.8502   -1.6943 H   0  0  0  0  0  0  0  0  0  0  0  0
   -0.1200    2.1030   -2.3029 C   0  0  0  0  0  0  0  0  0  0  0  0
   -0.1036    1.4657   -3.2153 H   0  0  0  0  0  0  0  0  0  0  0  0
    0.2708    3.1054   -2.5963 H   0  0  0  0  0  0  0  0  0  0  0  0
   -1.5396    2.1907   -1.8567 C   0  0  0  0  0  0  0  0  0  0  0  0
   -2.6770    1.4858   -2.1897 C   0  0  0  0  0  0  0  0  0  0  0  0
   -2.7493    0.6963   -2.9454 H   0  0  0  0  0  0  0  0  0  0  0  0
   -3.7229    1.9741   -1.3385 C   0  0  0  0  0  0  0  0  0  0  0  0
   -4.7627    1.6333   -1.2998 H   0  0  0  0  0  0  0  0  0  0  0  0
   -3.1419    2.9335   -0.5440 C   0  0  0  0  0  0  0  0  0  0  0  0
   -3.5154    3.5722    0.2624 H   0  0  0  0  0  0  0  0  0  0  0  0
  1 18  1  0  0  0  0
  3 14  1  0  0  0  0
  4 28  1  0  0  0  0
  5  6  1  0  0  0  0
  6  2  1  0  0  0  0
  6  7  2  0  0  0  0
  7  8  1  0  0  0  0
  9  7  1  0  0  0  0
  9  3  1  0  0  0  0
 10  9  2  0  0  0  0
 11 10  1  0  0  0  0
 12  5  2  0  0  0  0
 12 10  1  0  0  0  0
 13 12  1  0  0  0  0
 14 16  1  0  0  0  0
 14 15  1  0  0  0  0
 17 14  1  0  0  0  0
 18  5  1  0  0  0  0
 19 18  1  0  0  0  0
 20 23  1  0  0  0  0
 20  1  1  0  0  0  0
 21 20  1  0  0  0  0
 22 20  1  0  0  0  0
 23  4  1  0  0  0  0
 24 23  2  0  0  0  0
 24 26  1  0  0  0  0
 25 24  1  0  0  0  0
 26 27  1  0  0  0  0
 26 28  2  0  0  0  0
 28 29  1  0  0  0  0
M  CHG  1   2  -1
M  END
