3,6
 OpenBabel05122313063D

 35 38  0  0  1  0  0  0  0  0999 V2000
    1.8444   -4.6815   -1.5374 O   0  0  0  0  0  0  0  0  0  0  0  0
    2.0616   -3.7409   -1.2075 H   0  0  0  0  0  0  0  0  0  0  0  0
   -0.6570   -1.2597   -1.3526 O   0  5  0  0  0  0  0  0  0  0  0  0
    3.9747   -3.1361   -0.1059 O   0  0  0  0  0  0  0  0  0  0  0  0
    1.4481   -2.2000   -0.9812 N   0  0  0  0  0  0  0  0  0  0  0  0
    1.8186   -1.0062   -0.5296 N   0  0  0  0  0  2  0  0  0  0  0  0
    0.5729   -4.7046   -1.9180 C   0  0  0  0  0  0  0  0  0  0  0  0
   -0.3058   -3.5642   -1.8751 C   0  0  0  0  0  0  0  0  0  0  0  0
   -1.6552   -3.7066   -2.2914 C   0  0  0  0  0  0  0  0  0  0  0  0
   -2.2948   -2.8140   -2.2346 H   0  0  0  0  0  0  0  0  0  0  0  0
   -2.1466   -4.9238   -2.7494 C   0  0  0  0  0  0  0  0  0  0  0  0
   -3.1945   -5.0180   -3.0689 H   0  0  0  0  0  0  0  0  0  0  0  0
   -1.2792   -6.0407   -2.7992 C   0  0  0  0  0  0  0  0  0  0  0  0
   -1.6558   -7.0099   -3.1620 H   0  0  0  0  0  0  0  0  0  0  0  0
    0.0481   -5.9357   -2.3933 C   0  0  0  0  0  0  0  0  0  0  0  0
    0.7313   -6.7966   -2.4238 H   0  0  0  0  0  0  0  0  0  0  0  0
    0.1399   -2.2582   -1.3953 C   0  0  0  0  0  0  0  0  0  0  0  0
    3.0425   -0.8487   -0.0534 C   0  0  2  0  0  3  0  0  0  0  0  0
    4.0638   -1.9515    0.1927 C   0  0  0  0  0  0  0  0  0  0  0  0
    5.1909   -1.2803    0.9169 C   0  0  0  0  0  0  0  0  0  0  0  0
    6.3941   -1.7535    1.4242 C   0  0  0  0  0  0  0  0  0  0  0  0
    6.6632   -2.8167    1.3340 H   0  0  0  0  0  0  0  0  0  0  0  0
    7.2677   -0.8228    2.0549 C   0  0  0  0  0  0  0  0  0  0  0  0
    8.2241   -1.1829    2.4636 H   0  0  0  0  0  0  0  0  0  0  0  0
    6.9547    0.5351    2.1629 C   0  0  0  0  0  0  0  0  0  0  0  0
    7.6629    1.2234    2.6500 H   0  0  0  0  0  0  0  0  0  0  0  0
    5.2710    2.4003    1.6441 C   0  0  0  0  0  0  0  0  0  0  0  0
    5.8908    3.1863    2.1020 H   0  0  0  0  0  0  0  0  0  0  0  0
    4.0530    2.7244    1.0482 C   0  0  0  0  0  0  0  0  0  0  0  0
    3.7289    3.7763    1.0301 H   0  0  0  0  0  0  0  0  0  0  0  0
    3.2057    1.7522    0.4343 C   0  0  0  0  0  0  0  0  0  0  0  0
    2.2853    2.0827   -0.0730 H   0  0  0  0  0  0  0  0  0  0  0  0
    3.6031    0.4112    0.4492 C   0  0  0  0  0  0  0  0  0  0  0  0
    4.8700    0.0933    1.0353 C   0  0  0  0  0  0  0  0  0  0  0  0
    5.7277    1.0455    1.6403 C   0  0  0  0  0  0  0  0  0  0  0  0
  1  2  1  0  0  0  0
  4 19  2  0  0  0  0
  5  6  1  0  0  0  0
  7  8  1  0  0  0  0
  7  1  1  0  0  0  0
  8 17  1  0  0  0  0
  9 10  1  0  0  0  0
  9  8  2  0  0  0  0
 11  9  1  0  0  0  0
 12 11  1  0  0  0  0
 13 11  2  0  0  0  0
 13 15  1  0  0  0  0
 14 13  1  0  0  0  0
 15  7  2  0  0  0  0
 16 15  1  0  0  0  0
 17  3  1  0  0  0  0
 17  5  2  0  0  0  0
 18  6  1  1  0  0  0
 18 19  1  0  0  0  0
 18 33  1  0  0  0  0
 19 20  1  0  0  0  0
 20 34  2  0  0  0  0
 20 21  1  0  0  0  0
 21 23  2  0  0  0  0
 22 21  1  0  0  0  0
 23 25  1  0  0  0  0
 23 24  1  0  0  0  0
 25 26  1  0  0  0  0
 27 28  1  0  0  0  0
 29 27  2  0  0  0  0
 30 29  1  0  0  0  0
 31 33  2  0  0  0  0
 31 29  1  0  0  0  0
 32 31  1  0  0  0  0
 33 34  1  0  0  0  0
 34 35  1  0  0  0  0
 35 27  1  0  0  0  0
 35 25  2  0  0  0  0
M  CHG  1   3  -1
M  END
