1,3
 OpenBabel05122313063D

 32 34  0  0  1  0  0  0  0  0999 V2000
    0.5156   -1.5858   -1.0842 N   0  0  0  0  0  2  0  0  0  0  0  0
    2.4486   -1.1808   -2.4308 C   0  0  0  0  0  0  0  0  0  0  0  0
    1.7915   -0.2413   -3.0614 O   0  5  0  0  0  0  0  0  0  0  0  0
    3.7896   -1.5260   -2.7124 C   0  0  0  0  0  0  0  0  0  0  0  0
    4.2988   -0.9907   -3.5267 H   0  0  0  0  0  0  0  0  0  0  0  0
   -3.5033   -3.6483    4.1249 N   0  0  0  0  0  0  0  0  0  0  0  0
    4.4599   -2.5214   -1.9684 C   0  0  0  0  0  0  0  0  0  0  0  0
    5.5039   -2.7563   -2.2298 H   0  0  0  0  0  0  0  0  0  0  0  0
    3.8510   -3.2113   -0.9151 C   0  0  0  0  0  0  0  0  0  0  0  0
    4.3975   -3.9747   -0.3428 H   0  0  0  0  0  0  0  0  0  0  0  0
    2.5056   -2.9141   -0.5852 C   0  0  0  0  0  0  0  0  0  0  0  0
    1.8061   -1.9186   -1.3477 C   0  0  1  0  0  3  0  0  0  0  0  0
    1.7632   -3.5235    0.4727 C   0  0  0  0  0  0  0  0  0  0  0  0
    2.2487   -4.2960    1.0894 H   0  0  0  0  0  0  0  0  0  0  0  0
    0.4562   -3.1525    0.7295 C   0  0  0  0  0  0  0  0  0  0  0  0
   -0.1062   -3.6264    1.5456 H   0  0  0  0  0  0  0  0  0  0  0  0
   -0.1755   -2.1522   -0.0761 C   0  0  0  0  0  0  0  0  0  0  0  0
   -1.5318   -1.6637    0.1220 C   0  0  0  0  0  0  0  0  0  0  0  0
   -1.8824   -0.9836   -0.6711 H   0  0  0  0  0  0  0  0  0  0  0  0
   -2.3491   -1.9529    1.1725 C   0  0  0  0  0  0  0  0  0  0  0  0
   -1.9928   -2.6446    1.9534 H   0  0  0  0  0  0  0  0  0  0  0  0
   -3.6837   -1.4023    1.3875 C   0  0  0  0  0  0  0  0  0  0  0  0
   -4.4642   -1.8450    2.5038 C   0  0  0  0  0  0  0  0  0  0  0  0
   -5.7529   -1.3168    2.7419 C   0  0  0  0  0  0  0  0  0  0  0  0
   -6.3266   -1.6786    3.6068 H   0  0  0  0  0  0  0  0  0  0  0  0
   -6.2836   -0.3468    1.8861 C   0  0  0  0  0  0  0  0  0  0  0  0
   -7.2859    0.0637    2.0771 H   0  0  0  0  0  0  0  0  0  0  0  0
   -5.5276    0.1002    0.7866 C   0  0  0  0  0  0  0  0  0  0  0  0
   -5.9270    0.8691    0.1089 H   0  0  0  0  0  0  0  0  0  0  0  0
   -4.2541   -0.4191    0.5440 C   0  0  0  0  0  0  0  0  0  0  0  0
   -3.6876   -0.0422   -0.3190 H   0  0  0  0  0  0  0  0  0  0  0  0
   -3.9408   -2.8363    3.3969 C   0  0  0  0  0  0  0  0  0  0  0  0
  1 17  1  0  0  0  0
  3  2  1  0  0  0  0
  4  2  2  0  0  0  0
  4  7  1  0  0  0  0
  5  4  1  0  0  0  0
  7  9  2  0  0  0  0
  8  7  1  0  0  0  0
  9 11  1  0  0  0  0
  9 10  1  0  0  0  0
 11 13  2  0  0  0  0
 12  2  1  1  0  0  0
 12  1  1  0  0  0  0
 12 11  1  0  0  0  0
 13 15  1  0  0  0  0
 13 14  1  0  0  0  0
 15 16  1  0  0  0  0
 17 18  1  0  0  0  0
 17 15  2  0  0  0  0
 18 20  2  0  0  0  0
 19 18  1  0  0  0  0
 20 22  1  0  0  0  0
 20 21  1  0  0  0  0
 22 23  1  0  0  0  0
 23 24  2  0  0  0  0
 23 32  1  0  0  0  0
 24 25  1  0  0  0  0
 26 27  1  0  0  0  0
 26 24  1  0  0  0  0
 28 26  2  0  0  0  0
 29 28  1  0  0  0  0
 30 28  1  0  0  0  0
 30 22  2  0  0  0  0
 31 30  1  0  0  0  0
 32  6  3  0  0  0  0
M  CHG  1   3  -1
M  END
