1,3
 OpenBabel05122313063D

 62 63  0  0  1  0  0  0  0  0999 V2000
    1.7291    1.1459   -0.4041 O   0  0  0  0  0  1  0  0  0  0  0  0
    6.1450   -0.3723   -0.0165 O   0  0  0  0  0  0  0  0  0  0  0  0
   -0.4094   -0.8527   -0.2737 N   0  0  0  0  0  2  0  0  0  0  0  0
    0.6709   -1.6127   -0.2139 C   0  0  0  0  0  0  0  0  0  0  0  0
    0.4946   -2.7033   -0.3053 H   0  0  0  0  0  0  0  0  0  0  0  0
    2.0416   -1.2367   -0.1071 C   0  0  0  0  0  0  0  0  0  0  0  0
    2.9972   -2.2832    0.0376 C   0  0  0  0  0  0  0  0  0  0  0  0
    2.6248   -3.3173    0.1190 H   0  0  0  0  0  0  0  0  0  0  0  0
    4.3634   -2.0538    0.0851 C   0  0  0  0  0  0  0  0  0  0  0  0
    5.0586   -2.8929    0.2081 H   0  0  0  0  0  0  0  0  0  0  0  0
    4.8298   -0.7114   -0.0425 C   0  0  0  0  0  0  0  0  0  0  0  0
    3.9258    0.3410   -0.2096 C   0  0  0  0  0  0  0  0  0  0  0  0
    4.3089    1.3652   -0.3127 H   0  0  0  0  0  0  0  0  0  0  0  0
    2.5178    0.1323   -0.2389 C   0  0  1  0  0  3  0  0  0  0  0  0
    7.1291   -1.3882    0.1541 C   0  0  0  0  0  0  0  0  0  0  0  0
    7.0563   -2.1374   -0.6690 H   0  0  0  0  0  0  0  0  0  0  0  0
    6.9587   -1.9330    1.1123 H   0  0  0  0  0  0  0  0  0  0  0  0
    8.4980   -0.7260    0.1526 C   0  0  0  0  0  0  0  0  0  0  0  0
    8.5255    0.0326    0.9642 H   0  0  0  0  0  0  0  0  0  0  0  0
    8.6188   -0.1655   -0.7994 H   0  0  0  0  0  0  0  0  0  0  0  0
    9.6414   -1.7281    0.3254 C   0  0  0  0  0  0  0  0  0  0  0  0
    9.5012   -2.2934    1.2747 H   0  0  0  0  0  0  0  0  0  0  0  0
    9.5949   -2.4898   -0.4857 H   0  0  0  0  0  0  0  0  0  0  0  0
   11.0278   -1.0786    0.3267 C   0  0  0  0  0  0  0  0  0  0  0  0
   11.0760   -0.3173    1.1380 H   0  0  0  0  0  0  0  0  0  0  0  0
   11.1687   -0.5119   -0.6215 H   0  0  0  0  0  0  0  0  0  0  0  0
   12.1780   -2.0753    0.4975 C   0  0  0  0  0  0  0  0  0  0  0  0
   12.0317   -2.6410    1.4448 H   0  0  0  0  0  0  0  0  0  0  0  0
   12.1245   -2.8351   -0.3140 H   0  0  0  0  0  0  0  0  0  0  0  0
   13.5585   -1.4182    0.4978 C   0  0  0  0  0  0  0  0  0  0  0  0
   14.3694   -2.1637    0.6229 H   0  0  0  0  0  0  0  0  0  0  0  0
   13.6533   -0.6798    1.3214 H   0  0  0  0  0  0  0  0  0  0  0  0
   13.7468   -0.8756   -0.4523 H   0  0  0  0  0  0  0  0  0  0  0  0
   -1.6472   -1.5169   -0.5066 C   0  0  0  0  0  0  0  0  0  0  0  0
   -2.4869   -1.0698   -1.5451 C   0  0  0  0  0  0  0  0  0  0  0  0
   -2.1490   -0.2318   -2.1716 H   0  0  0  0  0  0  0  0  0  0  0  0
   -3.7393   -1.6586   -1.7380 C   0  0  0  0  0  0  0  0  0  0  0  0
   -4.3914   -1.2867   -2.5443 H   0  0  0  0  0  0  0  0  0  0  0  0
   -4.1976   -2.7010   -0.9050 C   0  0  0  0  0  0  0  0  0  0  0  0
   -3.3355   -3.1611    0.1095 C   0  0  0  0  0  0  0  0  0  0  0  0
   -3.6697   -3.9724    0.7760 H   0  0  0  0  0  0  0  0  0  0  0  0
   -2.0731   -2.5845    0.3085 C   0  0  0  0  0  0  0  0  0  0  0  0
   -1.4313   -2.9245    1.1351 H   0  0  0  0  0  0  0  0  0  0  0  0
   -5.6069   -3.2269   -1.0296 C   0  0  0  0  0  0  0  0  0  0  0  0
   -5.6462   -4.2901   -0.7086 H   0  0  0  0  0  0  0  0  0  0  0  0
   -5.9241   -3.2070   -2.0945 H   0  0  0  0  0  0  0  0  0  0  0  0
   -6.6056   -2.4070   -0.1915 C   0  0  0  0  0  0  0  0  0  0  0  0
   -6.2844   -2.4309    0.8739 H   0  0  0  0  0  0  0  0  0  0  0  0
   -6.5384   -1.3388   -0.4957 H   0  0  0  0  0  0  0  0  0  0  0  0
   -8.0526   -2.8896   -0.3061 C   0  0  0  0  0  0  0  0  0  0  0  0
   -8.1104   -3.9601   -0.0039 H   0  0  0  0  0  0  0  0  0  0  0  0
   -8.3655   -2.8650   -1.3747 H   0  0  0  0  0  0  0  0  0  0  0  0
   -9.0398   -2.0717    0.5305 C   0  0  0  0  0  0  0  0  0  0  0  0
   -8.7254   -2.0970    1.5989 H   0  0  0  0  0  0  0  0  0  0  0  0
   -8.9781   -1.0013    0.2288 H   0  0  0  0  0  0  0  0  0  0  0  0
  -10.4921   -2.5458    0.4196 C   0  0  0  0  0  0  0  0  0  0  0  0
  -10.5493   -3.6159    0.7202 H   0  0  0  0  0  0  0  0  0  0  0  0
  -10.8023   -2.5202   -0.6489 H   0  0  0  0  0  0  0  0  0  0  0  0
  -11.4685   -1.7217    1.2595 C   0  0  0  0  0  0  0  0  0  0  0  0
  -12.5101   -2.0879    1.1586 H   0  0  0  0  0  0  0  0  0  0  0  0
  -11.4588   -0.6537    0.9565 H   0  0  0  0  0  0  0  0  0  0  0  0
  -11.2041   -1.7589    2.3372 H   0  0  0  0  0  0  0  0  0  0  0  0
  2 15  1  0  0  0  0
  3  4  1  0  0  0  0
  4  6  2  0  0  0  0
  5  4  1  0  0  0  0
  6  7  1  0  0  0  0
  7  9  2  0  0  0  0
  7  8  1  0  0  0  0
  9 10  1  0  0  0  0
 11  2  1  0  0  0  0
 11  9  1  0  0  0  0
 12 11  2  0  0  0  0
 13 12  1  0  0  0  0
 14  1  1  6  0  0  0
 14 12  1  0  0  0  0
 14  6  1  0  0  0  0
 15 17  1  0  0  0  0
 16 15  1  0  0  0  0
 18 15  1  0  0  0  0
 18 21  1  0  0  0  0
 18 19  1  0  0  0  0
 20 18  1  0  0  0  0
 21 24  1  0  0  0  0
 21 22  1  0  0  0  0
 23 21  1  0  0  0  0
 24 27  1  0  0  0  0
 24 25  1  0  0  0  0
 26 24  1  0  0  0  0
 27 30  1  0  0  0  0
 27 28  1  0  0  0  0
 29 27  1  0  0  0  0
 30 31  1  0  0  0  0
 30 32  1  0  0  0  0
 33 30  1  0  0  0  0
 34  3  1  0  0  0  0
 34 42  1  0  0  0  0
 35 34  2  0  0  0  0
 36 35  1  0  0  0  0
 37 35  1  0  0  0  0
 37 39  2  0  0  0  0
 38 37  1  0  0  0  0
 39 40  1  0  0  0  0
 40 42  2  0  0  0  0
 40 41  1  0  0  0  0
 42 43  1  0  0  0  0
 44 39  1  0  0  0  0
 44 45  1  0  0  0  0
 44 47  1  0  0  0  0
 46 44  1  0  0  0  0
 47 48  1  0  0  0  0
 49 47  1  0  0  0  0
 50 47  1  0  0  0  0
 50 51  1  0  0  0  0
 50 53  1  0  0  0  0
 52 50  1  0  0  0  0
 53 54  1  0  0  0  0
 55 53  1  0  0  0  0
 56 53  1  0  0  0  0
 56 57  1  0  0  0  0
 56 59  1  0  0  0  0
 58 56  1  0  0  0  0
 59 62  1  0  0  0  0
 60 59  1  0  0  0  0
 61 59  1  0  0  0  0
M  END
