1,31
 OpenBabel05122313063D

 33 34  0  0  0  0  0  0  0  0999 V2000
    0.6788    0.1016    0.5212 O   0  0  0  0  0  1  0  0  0  0  0  0
    1.9342    0.0025   -0.3766 P   0  0  0  0  0  4  0  0  0  0  0  0
    2.9025   -1.4793    0.0431 C   0  0  0  0  0  0  0  0  0  0  0  0
    2.3189   -2.4003    0.9360 C   0  0  0  0  0  0  0  0  0  0  0  0
    1.3107   -2.2010    1.3357 H   0  0  0  0  0  0  0  0  0  0  0  0
    3.0013   -3.5876    1.2450 C   0  0  0  0  0  0  0  0  0  0  0  0
    2.5409   -4.3126    1.9329 H   0  0  0  0  0  0  0  0  0  0  0  0
    4.2529   -3.8564    0.6704 C   0  0  0  0  0  0  0  0  0  0  0  0
    4.7838   -4.7883    0.9178 H   0  0  0  0  0  0  0  0  0  0  0  0
    4.8257   -2.9451   -0.2338 C   0  0  0  0  0  0  0  0  0  0  0  0
    5.8009   -3.1625   -0.6950 H   0  0  0  0  0  0  0  0  0  0  0  0
    4.1508   -1.7592   -0.5547 C   0  0  0  0  0  0  0  0  0  0  0  0
    4.5996   -1.0549   -1.2731 H   0  0  0  0  0  0  0  0  0  0  0  0
    2.9601    1.4943   -0.1970 C   0  0  0  0  0  0  0  0  0  0  0  0
    2.3332    2.7242   -0.5035 C   0  0  0  0  0  0  0  0  0  0  0  0
    1.2814    2.7374   -0.8450 H   0  0  0  0  0  0  0  0  0  0  0  0
    3.0414    3.9216   -0.3345 C   0  0  0  0  0  0  0  0  0  0  0  0
    2.5533    4.8783   -0.5745 H   0  0  0  0  0  0  0  0  0  0  0  0
    4.3607    3.9035    0.1489 C   0  0  0  0  0  0  0  0  0  0  0  0
    4.9109    4.8474    0.2829 H   0  0  0  0  0  0  0  0  0  0  0  0
    4.9736    2.6837    0.4749 C   0  0  0  0  0  0  0  0  0  0  0  0
    6.0005    2.6688    0.8702 H   0  0  0  0  0  0  0  0  0  0  0  0
    4.2759    1.4776    0.3069 C   0  0  0  0  0  0  0  0  0  0  0  0
    4.7540    0.5260    0.5814 H   0  0  0  0  0  0  0  0  0  0  0  0
    1.5162   -0.1799   -2.1532 C   0  0  0  0  0  0  0  0  0  0  0  0
    1.1218    0.7979   -2.5032 H   0  0  0  0  0  0  0  0  0  0  0  0
    2.4651   -0.3835   -2.6900 H   0  0  0  0  0  0  0  0  0  0  0  0
    0.4898   -1.2973   -2.3958 C   0  0  0  0  0  0  0  0  0  0  0  0
    0.5814   -1.6422   -3.4496 H   0  0  0  0  0  0  0  0  0  0  0  0
    0.6829   -2.1751   -1.7439 H   0  0  0  0  0  0  0  0  0  0  0  0
   -0.8717   -0.8244   -2.1223 N   0  0  0  0  0  0  0  0  0  0  0  0
   -1.5950   -1.5352   -2.3274 H   0  0  0  0  0  0  0  0  0  0  0  0
   -1.1008   -0.0142   -2.7229 H   0  0  0  0  0  0  0  0  0  0  0  0
  2 14  1  0  0  0  0
  2  3  1  0  0  0  0
  2  1  1  0  0  0  0
  3  4  1  0  0  0  0
  4  6  2  0  0  0  0
  4  5  1  0  0  0  0
  6  7  1  0  0  0  0
  8  9  1  0  0  0  0
  8  6  1  0  0  0  0
 10  8  2  0  0  0  0
 11 10  1  0  0  0  0
 12 10  1  0  0  0  0
 12  3  2  0  0  0  0
 13 12  1  0  0  0  0
 14 23  1  0  0  0  0
 15 17  1  0  0  0  0
 15 14  2  0  0  0  0
 16 15  1  0  0  0  0
 17 19  2  0  0  0  0
 18 17  1  0  0  0  0
 19 20  1  0  0  0  0
 19 21  1  0  0  0  0
 21 22  1  0  0  0  0
 23 21  2  0  0  0  0
 23 24  1  0  0  0  0
 25  2  1  0  0  0  0
 26 25  1  0  0  0  0
 27 25  1  0  0  0  0
 28 25  1  0  0  0  0
 28 31  1  0  0  0  0
 28 30  1  0  0  0  0
 29 28  1  0  0  0  0
 32 31  1  0  0  0  0
 33 31  1  0  0  0  0
M  END
