1,2
 OpenBabel05122313063D

 30 30  0  0  0  0  0  0  0  0999 V2000
   -1.6960    0.2861   -0.1643 O   0  5  0  0  0  0  0  0  0  0  0  0
   -0.5537   -1.6640    1.6986 N   0  0  0  0  0  2  0  0  0  0  0  0
    0.4176   -2.3996    2.4855 C   0  0  0  0  0  0  0  0  0  0  0  0
   -1.7744   -2.1198    1.5846 C   0  0  0  0  0  3  0  0  0  0  0  0
   -2.8781   -1.5722    0.8387 C   0  0  0  0  0  0  0  0  0  0  0  0
   -2.7972   -0.3915   -0.0066 C   0  0  0  0  0  0  0  0  0  0  0  0
   -3.9961    0.0400   -0.6993 C   0  0  0  0  0  0  0  0  0  0  0  0
   -5.1685   -0.6989   -0.5244 C   0  0  0  0  0  0  0  0  0  0  0  0
   -5.2453   -1.8526    0.2916 C   0  0  0  0  0  0  0  0  0  0  0  0
   -4.1106   -2.2778    0.9588 C   0  0  0  0  0  0  0  0  0  0  0  0
   -3.9545    1.2881   -1.6025 C   0  0  0  0  0  0  0  0  0  0  0  0
   -3.5372    2.5259   -0.7715 C   0  0  0  0  0  0  0  0  0  0  0  0
   -2.9497    1.0625   -2.7577 C   0  0  0  0  0  0  0  0  0  0  0  0
   -5.3281    1.5906   -2.2288 C   0  0  0  0  0  0  0  0  0  0  0  0
   -2.0119   -3.0602    2.1329 H   0  0  0  0  0  0  0  0  0  0  0  0
   -6.0820   -0.3776   -1.0435 H   0  0  0  0  0  0  0  0  0  0  0  0
   -6.1952   -2.3977    0.3884 H   0  0  0  0  0  0  0  0  0  0  0  0
   -4.1408   -3.1737    1.6006 H   0  0  0  0  0  0  0  0  0  0  0  0
    1.2847   -2.6816    1.8511 H   0  0  0  0  0  0  0  0  0  0  0  0
    0.8144   -1.7599    3.3028 H   0  0  0  0  0  0  0  0  0  0  0  0
   -0.0149   -3.3214    2.9336 H   0  0  0  0  0  0  0  0  0  0  0  0
   -3.5135    3.4282   -1.4175 H   0  0  0  0  0  0  0  0  0  0  0  0
   -4.2632    2.7108    0.0468 H   0  0  0  0  0  0  0  0  0  0  0  0
   -2.5336    2.3822   -0.3314 H   0  0  0  0  0  0  0  0  0  0  0  0
   -1.9352    0.8615   -2.3688 H   0  0  0  0  0  0  0  0  0  0  0  0
   -3.2635    0.2027   -3.3843 H   0  0  0  0  0  0  0  0  0  0  0  0
   -2.9080    1.9613   -3.4079 H   0  0  0  0  0  0  0  0  0  0  0  0
   -5.6852    0.7611   -2.8725 H   0  0  0  0  0  0  0  0  0  0  0  0
   -6.1028    1.7926   -1.4609 H   0  0  0  0  0  0  0  0  0  0  0  0
   -5.2492    2.4939   -2.8667 H   0  0  0  0  0  0  0  0  0  0  0  0
  1  6  1  0  0  0  0
  2  3  1  0  0  0  0
  3 21  1  0  0  0  0
  3 20  1  0  0  0  0
  4  2  1  0  0  0  0
  4 15  1  0  0  0  0
  5 10  1  0  0  0  0
  5  4  1  0  0  0  0
  6  5  2  0  0  0  0
  7  8  2  0  0  0  0
  7  6  1  0  0  0  0
  8  9  1  0  0  0  0
  9 17  1  0  0  0  0
  9 10  2  0  0  0  0
 10 18  1  0  0  0  0
 11 12  1  0  0  0  0
 11  7  1  0  0  0  0
 12 24  1  0  0  0  0
 12 23  1  0  0  0  0
 13 25  1  0  0  0  0
 13 11  1  0  0  0  0
 14 11  1  0  0  0  0
 14 29  1  0  0  0  0
 16  8  1  0  0  0  0
 19  3  1  0  0  0  0
 22 12  1  0  0  0  0
 26 13  1  0  0  0  0
 27 13  1  0  0  0  0
 28 14  1  0  0  0  0
 30 14  1  0  0  0  0
M  CHG  1   1  -1
M  END
