1,2
 OpenBabel05122313063D

 35 36  0  0  1  0  0  0  0  0999 V2000
   -1.4951    0.3880   -0.7898 O   0  0  0  0  0  1  0  0  0  0  0  0
    2.7921    0.3326   -0.1454 N   0  0  0  0  0  2  0  0  0  0  0  0
    5.2768   -0.7811   -0.6644 N   0  0  0  0  0  0  0  0  0  0  0  0
    0.6205   -1.1970   -0.4984 N   0  0  0  0  0  0  0  0  0  0  0  0
   -0.6035   -1.7060   -0.3188 N   0  0  0  0  0  0  0  0  0  0  0  0
   -0.7388   -2.4327    0.4000 H   0  0  0  0  0  0  0  0  0  0  0  0
   -2.8945   -1.4108   -0.3867 N   0  0  0  0  0  0  0  0  0  0  0  0
   -2.8855   -2.4290   -0.2979 H   0  0  0  0  0  0  0  0  0  0  0  0
    3.8549    1.1193   -0.3395 C   0  0  0  0  0  3  0  0  0  0  0  0
    3.6678    2.2074   -0.3135 H   0  0  0  0  0  0  0  0  0  0  0  0
    5.1155    0.5441   -0.5695 C   0  0  0  0  0  0  0  0  0  0  0  0
    6.0128    1.1754   -0.6890 H   0  0  0  0  0  0  0  0  0  0  0  0
    4.2014   -1.5768   -0.5138 C   0  0  0  0  0  0  0  0  0  0  0  0
    2.9278   -1.0099   -0.2177 C   0  0  0  0  0  0  0  0  0  0  0  0
    4.4254   -3.0499   -0.7290 C   0  0  0  0  0  0  0  0  0  0  0  0
    5.3194   -3.1802   -1.3663 H   0  0  0  0  0  0  0  0  0  0  0  0
    3.5560   -3.5428   -1.2044 H   0  0  0  0  0  0  0  0  0  0  0  0
    4.6299   -3.5721    0.2299 H   0  0  0  0  0  0  0  0  0  0  0  0
    1.6754   -1.7881   -0.0188 C   0  0  0  0  0  0  0  0  0  0  0  0
    1.6071   -3.0304    0.8231 C   0  0  0  0  0  0  0  0  0  0  0  0
    0.9770   -2.7909    1.7108 H   0  0  0  0  0  0  0  0  0  0  0  0
    2.5947   -3.3439    1.2001 H   0  0  0  0  0  0  0  0  0  0  0  0
    1.1507   -3.8871    0.2827 H   0  0  0  0  0  0  0  0  0  0  0  0
   -1.6778   -0.7989   -0.5187 C   0  0  2  0  0  3  0  0  0  0  0  0
   -4.1782   -0.8241   -0.3741 C   0  0  0  0  0  0  0  0  0  0  0  0
   -5.2774   -1.6865   -0.1706 C   0  0  0  0  0  0  0  0  0  0  0  0
   -5.1057   -2.7664   -0.0310 H   0  0  0  0  0  0  0  0  0  0  0  0
   -6.5801   -1.1764   -0.1403 C   0  0  0  0  0  0  0  0  0  0  0  0
   -7.4255   -1.8622    0.0198 H   0  0  0  0  0  0  0  0  0  0  0  0
   -6.8042    0.1990   -0.3096 C   0  0  0  0  0  0  0  0  0  0  0  0
   -7.8272    0.6020   -0.2847 H   0  0  0  0  0  0  0  0  0  0  0  0
   -5.7090    1.0527   -0.5120 C   0  0  0  0  0  0  0  0  0  0  0  0
   -5.8712    2.1326   -0.6476 H   0  0  0  0  0  0  0  0  0  0  0  0
   -4.3976    0.5587   -0.5496 C   0  0  0  0  0  0  0  0  0  0  0  0
   -3.5447    1.2257   -0.7179 H   0  0  0  0  0  0  0  0  0  0  0  0
  3 11  2  0  0  0  0
  3 13  1  0  0  0  0
  4  5  1  0  0  0  0
  4 19  2  0  0  0  0
  5  6  1  0  0  0  0
  7 25  1  0  0  0  0
  7  8  1  0  0  0  0
  9 10  1  0  0  0  0
  9  2  1  0  0  0  0
 11  9  1  0  0  0  0
 12 11  1  0  0  0  0
 13 14  2  0  0  0  0
 14  2  1  0  0  0  0
 14 19  1  0  0  0  0
 15 13  1  0  0  0  0
 15 18  1  0  0  0  0
 16 15  1  0  0  0  0
 17 15  1  0  0  0  0
 19 20  1  0  0  0  0
 20 22  1  0  0  0  0
 20 21  1  0  0  0  0
 23 20  1  0  0  0  0
 24  1  1  6  0  0  0
 24  7  1  0  0  0  0
 24  5  1  0  0  0  0
 25 26  1  0  0  0  0
 26 28  2  0  0  0  0
 26 27  1  0  0  0  0
 28 29  1  0  0  0  0
 30 31  1  0  0  0  0
 30 28  1  0  0  0  0
 32 30  2  0  0  0  0
 33 32  1  0  0  0  0
 34 32  1  0  0  0  0
 34 25  2  0  0  0  0
 35 34  1  0  0  0  0
M  END
