1,2
 OpenBabel05122313063D

 28 28  0  0  1  0  0  0  0  0999 V2000
    0.0819    1.8946   -0.5038 N   0  0  0  0  0  2  0  0  0  0  0  0
    1.7848   -0.0882    0.3529 O   0  0  0  0  0  1  0  0  0  0  0  0
    4.2768   -0.7083    1.3715 C   0  0  0  0  0  0  0  0  0  0  0  0
    3.3832   -1.0691    1.9006 H   0  0  0  0  0  0  0  0  0  0  0  0
    5.5521   -1.1755    1.7137 C   0  0  0  0  0  0  0  0  0  0  0  0
    5.6640   -1.9174    2.5193 H   0  0  0  0  0  0  0  0  0  0  0  0
    6.6853   -0.6987    1.0347 C   0  0  0  0  0  0  0  0  0  0  0  0
    7.6873   -1.0687    1.2999 H   0  0  0  0  0  0  0  0  0  0  0  0
    6.5314    0.2514    0.0114 C   0  0  0  0  0  0  0  0  0  0  0  0
    7.4129    0.6215   -0.5342 H   0  0  0  0  0  0  0  0  0  0  0  0
    5.2575    0.7260   -0.3269 C   0  0  0  0  0  0  0  0  0  0  0  0
    5.1486    1.4512   -1.1464 H   0  0  0  0  0  0  0  0  0  0  0  0
    4.1109    0.2539    0.3497 C   0  0  0  0  0  0  0  0  0  0  0  0
    2.7357    0.7224    0.0103 C   0  0  2  0  0  3  0  0  0  0  0  0
    2.5140    1.9595   -0.5956 C   0  0  0  0  0  0  0  0  0  0  0  0
    3.3789    2.5867   -0.8393 H   0  0  0  0  0  0  0  0  0  0  0  0
    1.2230    2.5320   -0.7723 C   0  0  0  0  0  0  0  0  0  0  0  0
    1.2141    3.9663   -1.2741 C   0  0  0  0  0  0  0  0  0  0  0  0
    2.2444    4.3095   -1.4744 H   0  0  0  0  0  0  0  0  0  0  0  0
    0.7620    4.6599   -0.5366 H   0  0  0  0  0  0  0  0  0  0  0  0
    0.6316    4.0635   -2.2132 H   0  0  0  0  0  0  0  0  0  0  0  0
   -1.1569    2.6791   -0.5095 C   0  0  0  0  0  0  0  0  0  0  0  0
   -1.9820    2.0186   -0.8268 H   0  0  0  0  0  0  0  0  0  0  0  0
   -1.0945    3.5008   -1.2501 H   0  0  0  0  0  0  0  0  0  0  0  0
   -1.4665    3.2371    0.8813 C   0  0  0  0  0  0  0  0  0  0  0  0
   -2.4383    3.7718    0.8861 H   0  0  0  0  0  0  0  0  0  0  0  0
   -0.6828    3.9415    1.2285 H   0  0  0  0  0  0  0  0  0  0  0  0
   -1.5179    2.4056    1.6120 H   0  0  0  0  0  0  0  0  0  0  0  0
  3  5  1  0  0  0  0
  3  4  1  0  0  0  0
  5  6  1  0  0  0  0
  7  8  1  0  0  0  0
  7  5  2  0  0  0  0
  9  7  1  0  0  0  0
 10  9  1  0  0  0  0
 11  9  2  0  0  0  0
 11 13  1  0  0  0  0
 12 11  1  0  0  0  0
 13  3  2  0  0  0  0
 14 13  1  0  0  0  0
 14  2  1  1  0  0  0
 15 14  1  0  0  0  0
 16 15  1  0  0  0  0
 17 15  2  0  0  0  0
 17  1  1  0  0  0  0
 18 17  1  0  0  0  0
 18 20  1  0  0  0  0
 19 18  1  0  0  0  0
 21 18  1  0  0  0  0
 22  1  1  0  0  0  0
 22 25  1  0  0  0  0
 23 22  1  0  0  0  0
 24 22  1  0  0  0  0
 25 26  1  0  0  0  0
 25 27  1  0  0  0  0
 25 28  1  0  0  0  0
M  END
