1,2
 OpenBabel05122313063D

 35 36  0  0  1  0  0  0  0  0999 V2000
   -0.3348   -1.7215   -1.3194 N   0  0  0  0  0  2  0  0  0  0  0  0
    1.6624   -0.5376    0.5146 O   0  5  0  0  0  0  0  0  0  0  0  0
    4.2887   -0.5868    1.2669 C   0  0  0  0  0  0  0  0  0  0  0  0
    3.7636    0.3703    1.1440 H   0  0  0  0  0  0  0  0  0  0  0  0
    5.5724   -0.6375    1.8231 C   0  0  0  0  0  0  0  0  0  0  0  0
    6.0645    0.2966    2.1350 H   0  0  0  0  0  0  0  0  0  0  0  0
    6.2267   -1.8704    1.9795 C   0  0  0  0  0  0  0  0  0  0  0  0
    7.2341   -1.9126    2.4217 H   0  0  0  0  0  0  0  0  0  0  0  0
    5.5855   -3.0531    1.5744 C   0  0  0  0  0  0  0  0  0  0  0  0
    6.0849   -4.0249    1.7084 H   0  0  0  0  0  0  0  0  0  0  0  0
    4.3057   -3.0022    1.0055 C   0  0  0  0  0  0  0  0  0  0  0  0
    3.8085   -3.9387    0.7130 H   0  0  0  0  0  0  0  0  0  0  0  0
    3.6417   -1.7672    0.8384 C   0  0  0  0  0  0  0  0  0  0  0  0
    2.2794   -1.6329    0.2258 C   0  0  0  0  0  0  0  0  0  0  0  0
    1.7914   -2.6589   -0.6147 C   0  0  0  0  0  0  0  0  0  0  0  0
    2.4505   -3.5224   -0.7636 H   0  0  0  0  0  0  0  0  0  0  0  0
    0.5383   -2.7282   -1.2911 C   0  0  1  0  0  3  0  0  0  0  0  0
    0.2149   -4.0310   -1.9962 C   0  0  0  0  0  0  0  0  0  0  0  0
    1.0350   -4.7609   -1.8785 H   0  0  0  0  0  0  0  0  0  0  0  0
    0.0449   -3.8745   -3.0817 H   0  0  0  0  0  0  0  0  0  0  0  0
   -0.7124   -4.4799   -1.5844 H   0  0  0  0  0  0  0  0  0  0  0  0
   -1.6450   -1.8631   -1.9263 C   0  0  0  0  0  0  0  0  0  0  0  0
   -1.6331   -2.5639   -2.7910 H   0  0  0  0  0  0  0  0  0  0  0  0
   -1.9388   -0.8764   -2.3464 H   0  0  0  0  0  0  0  0  0  0  0  0
   -2.7418   -2.3030   -0.9624 C   0  0  0  0  0  0  0  0  0  0  0  0
   -4.0887   -2.2301   -1.3708 C   0  0  0  0  0  0  0  0  0  0  0  0
   -4.3307   -1.8442   -2.3745 H   0  0  0  0  0  0  0  0  0  0  0  0
   -5.1220   -2.6305   -0.5132 C   0  0  0  0  0  0  0  0  0  0  0  0
   -6.1684   -2.5596   -0.8472 H   0  0  0  0  0  0  0  0  0  0  0  0
   -4.8236   -3.1094    0.7738 C   0  0  0  0  0  0  0  0  0  0  0  0
   -5.6335   -3.4210    1.4508 H   0  0  0  0  0  0  0  0  0  0  0  0
   -3.4862   -3.1770    1.1918 C   0  0  0  0  0  0  0  0  0  0  0  0
   -3.2413   -3.5371    2.2026 H   0  0  0  0  0  0  0  0  0  0  0  0
   -2.4521   -2.7761    0.3297 C   0  0  0  0  0  0  0  0  0  0  0  0
   -1.4074   -2.8075    0.6719 H   0  0  0  0  0  0  0  0  0  0  0  0
  3  5  1  0  0  0  0
  4  3  1  0  0  0  0
  5  7  2  0  0  0  0
  5  6  1  0  0  0  0
  7  8  1  0  0  0  0
  9 10  1  0  0  0  0
  9  7  1  0  0  0  0
 11  9  2  0  0  0  0
 12 11  1  0  0  0  0
 13 11  1  0  0  0  0
 13  3  2  0  0  0  0
 14  2  1  0  0  0  0
 14 13  1  0  0  0  0
 15 14  2  0  0  0  0
 16 15  1  0  0  0  0
 17  1  1  1  0  0  0
 17 15  1  0  0  0  0
 18 19  1  0  0  0  0
 18 21  1  0  0  0  0
 18 17  1  0  0  0  0
 20 18  1  0  0  0  0
 22  1  1  0  0  0  0
 22 25  1  0  0  0  0
 23 22  1  0  0  0  0
 24 22  1  0  0  0  0
 25 34  1  0  0  0  0
 26 25  2  0  0  0  0
 26 28  1  0  0  0  0
 27 26  1  0  0  0  0
 28 30  2  0  0  0  0
 29 28  1  0  0  0  0
 30 32  1  0  0  0  0
 30 31  1  0  0  0  0
 32 33  1  0  0  0  0
 34 35  1  0  0  0  0
 34 32  2  0  0  0  0
M  CHG  1   2  -1
M  END
