2,3
 OpenBabel05122313063D

 22 23  0  0  0  0  0  0  0  0999 V2000
    7.4244    0.2063   -0.4968 Br  0  0  0  0  0  0  0  0  0  0  0  0
    1.4694   -0.8595   -0.9842 O   0  5  0  0  0  0  0  0  0  0  0  0
    1.1356    1.3485    0.9614 N   0  0  0  0  0  2  0  0  0  0  0  0
    3.2517    0.4632    0.0304 C   0  0  0  0  0  0  0  0  0  0  0  0
    2.7323   -0.5723   -0.8438 C   0  0  0  0  0  0  0  0  0  0  0  0
    3.6913   -1.3292   -1.5894 C   0  0  0  0  0  0  0  0  0  0  0  0
    3.2952   -2.1087   -2.2564 H   0  0  0  0  0  0  0  0  0  0  0  0
    5.0577   -1.1055   -1.4900 C   0  0  0  0  0  0  0  0  0  0  0  0
    5.7644   -1.7094   -2.0779 H   0  0  0  0  0  0  0  0  0  0  0  0
    5.5471   -0.0943   -0.6284 C   0  0  0  0  0  0  0  0  0  0  0  0
    4.6601    0.6736    0.1118 C   0  0  0  0  0  0  0  0  0  0  0  0
    5.0409    1.4635    0.7771 H   0  0  0  0  0  0  0  0  0  0  0  0
    2.4397    1.3374    0.8376 C   0  0  0  0  0  3  0  0  0  0  0  0
    3.0090    2.0938    1.4219 H   0  0  0  0  0  0  0  0  0  0  0  0
    0.5345    2.3384    1.8035 C   0  0  0  0  0  0  0  0  0  0  0  0
    1.2570    2.9245    2.4017 H   0  0  0  0  0  0  0  0  0  0  0  0
   -0.8206    2.0577    2.4189 C   0  0  0  0  0  0  0  0  0  0  0  0
   -1.2822    1.0848    2.1856 H   0  0  0  0  0  0  0  0  0  0  0  0
   -0.9924    2.4075    3.4484 H   0  0  0  0  0  0  0  0  0  0  0  0
   -0.7043    3.0610    1.3038 C   0  0  0  0  0  0  0  0  0  0  0  0
   -0.7868    4.1337    1.5370 H   0  0  0  0  0  0  0  0  0  0  0  0
   -1.0734    2.7593    0.3104 H   0  0  0  0  0  0  0  0  0  0  0  0
  2  5  1  0  0  0  0
  3 15  1  0  0  0  0
  4 11  1  0  0  0  0
  4 13  1  0  0  0  0
  5  4  2  0  0  0  0
  6  8  2  0  0  0  0
  6  5  1  0  0  0  0
  7  6  1  0  0  0  0
  8 10  1  0  0  0  0
  9  8  1  0  0  0  0
 10  1  1  0  0  0  0
 10 11  2  0  0  0  0
 11 12  1  0  0  0  0
 13  3  1  0  0  0  0
 13 14  1  0  0  0  0
 15 16  1  0  0  0  0
 15 17  1  0  0  0  0
 17 19  1  0  0  0  0
 18 17  1  0  0  0  0
 20 21  1  0  0  0  0
 20 15  1  0  0  0  0
 20 17  1  0  0  0  0
 22 20  1  0  0  0  0
M  CHG  1   2  -1
M  END
