1,3
 OpenBabel05122313063D

 19 20  0  0  1  0  0  0  0  0999 V2000
   -0.8649   -1.6766   -0.8529 O   0  5  0  0  0  0  0  0  0  0  0  0
   -2.1850   -3.3439   -0.1947 O   0  0  0  0  0  0  0  0  0  0  0  0
   -1.9183    1.0029   -0.1825 N   0  0  0  0  0  2  0  0  0  0  0  0
   -1.9431    2.3464   -0.2716 C   0  0  0  0  0  0  0  0  0  0  0  0
   -0.9572    2.8345   -0.3023 H   0  0  0  0  0  0  0  0  0  0  0  0
   -3.1355    3.0918   -0.2427 C   0  0  0  0  0  0  0  0  0  0  0  0
   -3.0888    4.1855   -0.3344 H   0  0  0  0  0  0  0  0  0  0  0  0
   -4.3297    2.4207   -0.0420 C   0  0  0  0  0  0  0  0  0  0  0  0
   -5.2838    2.9655    0.0293 H   0  0  0  0  0  0  0  0  0  0  0  0
   -4.3392    1.0039    0.0803 C   0  0  0  0  0  0  0  0  0  0  0  0
   -5.5553    0.3032    0.3094 C   0  0  0  0  0  0  0  0  0  0  0  0
   -6.4837    0.8841    0.4193 H   0  0  0  0  0  0  0  0  0  0  0  0
   -5.5567   -1.0791    0.3914 C   0  0  0  0  0  0  0  0  0  0  0  0
   -6.4913   -1.6279    0.5802 H   0  0  0  0  0  0  0  0  0  0  0  0
   -4.3514   -1.7878    0.2082 C   0  0  0  0  0  0  0  0  0  0  0  0
   -4.3262   -2.8872    0.2297 H   0  0  0  0  0  0  0  0  0  0  0  0
   -3.1237   -1.1592   -0.0350 C   0  0  0  0  0  0  0  0  0  0  0  0
   -1.9914   -2.1399   -0.3557 C   0  0  0  0  0  0  0  0  0  0  0  0
   -3.0928    0.2775   -0.0508 C   0  0  2  0  0  3  0  0  0  0  0  0
  1 18  1  0  0  0  0
  4  6  2  0  0  0  0
  4  3  1  0  0  0  0
  5  4  1  0  0  0  0
  6  8  1  0  0  0  0
  7  6  1  0  0  0  0
  8  9  1  0  0  0  0
  8 10  2  0  0  0  0
 10 11  1  0  0  0  0
 11 13  2  0  0  0  0
 11 12  1  0  0  0  0
 13 14  1  0  0  0  0
 15 16  1  0  0  0  0
 15 13  1  0  0  0  0
 17 15  2  0  0  0  0
 18  2  2  0  0  0  0
 18 17  1  0  0  0  0
 19  3  1  1  0  0  0
 19 17  1  0  0  0  0
 19 10  1  0  0  0  0
M  CHG  1   1  -1
M  END
