1,37
 OpenBabel05122313063D

 63 66  0  0  1  0  0  0  0  0999 V2000
    1.5201   -1.2426    0.3859 O   0  5  0  0  0  0  0  0  0  0  0  0
    2.1882   -0.0947    0.2856 C   0  0  0  0  0  0  0  0  0  0  0  0
    1.4381    1.0854    0.0326 C   0  0  0  0  0  0  0  0  0  0  0  0
    2.1224    2.3087   -0.1564 C   0  0  0  0  0  0  0  0  0  0  0  0
    1.5507    3.2111   -0.4119 H   0  0  0  0  0  0  0  0  0  0  0  0
    3.5136    2.3889   -0.0595 C   0  0  0  0  0  0  0  0  0  0  0  0
    4.2920    3.6972   -0.2765 C   0  0  0  0  0  0  0  0  0  0  0  0
    3.3606    4.8797   -0.5935 C   0  0  0  0  0  0  0  0  0  0  0  0
    3.9593    5.8003   -0.7420 H   0  0  0  0  0  0  0  0  0  0  0  0
    2.6494    5.0786    0.2342 H   0  0  0  0  0  0  0  0  0  0  0  0
    2.7791    4.7102   -1.5226 H   0  0  0  0  0  0  0  0  0  0  0  0
    5.2685    3.5137   -1.4610 C   0  0  0  0  0  0  0  0  0  0  0  0
    5.8479    4.4443   -1.6324 H   0  0  0  0  0  0  0  0  0  0  0  0
    4.7199    3.2706   -2.3931 H   0  0  0  0  0  0  0  0  0  0  0  0
    5.9928    2.6965   -1.2737 H   0  0  0  0  0  0  0  0  0  0  0  0
    5.0885    4.0331    1.0050 C   0  0  0  0  0  0  0  0  0  0  0  0
    5.6656    4.9705    0.8666 H   0  0  0  0  0  0  0  0  0  0  0  0
    5.8085    3.2321    1.2651 H   0  0  0  0  0  0  0  0  0  0  0  0
    4.4092    4.1700    1.8705 H   0  0  0  0  0  0  0  0  0  0  0  0
    4.2168    1.1989    0.2462 C   0  0  0  0  0  0  0  0  0  0  0  0
    5.3089    1.2551    0.3349 H   0  0  0  0  0  0  0  0  0  0  0  0
    3.6072   -0.0506    0.4242 C   0  0  0  0  0  0  0  0  0  0  0  0
    4.4219   -1.3190    0.7322 C   0  0  0  0  0  0  0  0  0  0  0  0
    5.9188   -1.0001    0.9033 C   0  0  0  0  0  0  0  0  0  0  0  0
    6.4635   -1.9336    1.1468 H   0  0  0  0  0  0  0  0  0  0  0  0
    6.1020   -0.2829    1.7292 H   0  0  0  0  0  0  0  0  0  0  0  0
    6.3683   -0.5895   -0.0236 H   0  0  0  0  0  0  0  0  0  0  0  0
    4.2791   -2.3212   -0.4374 C   0  0  0  0  0  0  0  0  0  0  0  0
    4.9133   -3.2112   -0.2466 H   0  0  0  0  0  0  0  0  0  0  0  0
    4.6070   -1.8634   -1.3924 H   0  0  0  0  0  0  0  0  0  0  0  0
    3.2398   -2.6740   -0.5608 H   0  0  0  0  0  0  0  0  0  0  0  0
    3.9206   -1.9591    2.0488 C   0  0  0  0  0  0  0  0  0  0  0  0
    4.5177   -2.8662    2.2745 H   0  0  0  0  0  0  0  0  0  0  0  0
    2.8586   -2.2592    1.9869 H   0  0  0  0  0  0  0  0  0  0  0  0
    4.0351   -1.2548    2.8978 H   0  0  0  0  0  0  0  0  0  0  0  0
   -0.0181    1.0497    0.0415 C   0  0  1  0  0  3  0  0  0  0  0  0
   -0.8647   -0.0121    0.0452 N   0  0  0  0  0  2  0  0  0  0  0  0
   -2.1638    0.4912    0.1152 C   0  0  0  0  0  0  0  0  0  0  0  0
   -2.1060    1.8879    0.1445 C   0  0  0  0  0  0  0  0  0  0  0  0
   -0.7595    2.1939    0.0876 N   0  0  0  0  0  0  0  0  0  0  0  0
   -0.3711    3.1285    0.2098 H   0  0  0  0  0  0  0  0  0  0  0  0
   -3.1364    2.9268    0.2128 C   0  0  0  0  0  0  0  0  0  0  0  0
   -4.3764    2.6919    0.8533 C   0  0  0  0  0  0  0  0  0  0  0  0
   -4.5743    1.7123    1.3090 H   0  0  0  0  0  0  0  0  0  0  0  0
   -5.3408    3.7042    0.9205 C   0  0  0  0  0  0  0  0  0  0  0  0
   -6.2981    3.5048    1.4250 H   0  0  0  0  0  0  0  0  0  0  0  0
   -5.0915    4.9678    0.3593 C   0  0  0  0  0  0  0  0  0  0  0  0
   -5.8534    5.7595    0.4160 H   0  0  0  0  0  0  0  0  0  0  0  0
   -3.8645    5.2131   -0.2764 C   0  0  0  0  0  0  0  0  0  0  0  0
   -3.6620    6.1958   -0.7284 H   0  0  0  0  0  0  0  0  0  0  0  0
   -2.8977    4.2023   -0.3532 C   0  0  0  0  0  0  0  0  0  0  0  0
   -1.9565    4.3980   -0.8910 H   0  0  0  0  0  0  0  0  0  0  0  0
   -3.4173   -0.2948    0.1126 C   0  0  0  0  0  0  0  0  0  0  0  0
   -4.2869   -0.1951   -0.9940 C   0  0  0  0  0  0  0  0  0  0  0  0
   -3.9870    0.4143   -1.8593 H   0  0  0  0  0  0  0  0  0  0  0  0
   -5.5077   -0.8814   -0.9985 C   0  0  0  0  0  0  0  0  0  0  0  0
   -6.1728   -0.8077   -1.8721 H   0  0  0  0  0  0  0  0  0  0  0  0
   -5.8762   -1.6681    0.1044 C   0  0  0  0  0  0  0  0  0  0  0  0
   -6.8324   -2.2129    0.0984 H   0  0  0  0  0  0  0  0  0  0  0  0
   -5.0211   -1.7604    1.2141 C   0  0  0  0  0  0  0  0  0  0  0  0
   -5.3050   -2.3762    2.0807 H   0  0  0  0  0  0  0  0  0  0  0  0
   -3.7995   -1.0737    1.2239 C   0  0  0  0  0  0  0  0  0  0  0  0
   -3.1239   -1.1538    2.0864 H   0  0  0  0  0  0  0  0  0  0  0  0
  2  1  1  0  0  0  0
  2 22  1  0  0  0  0
  3  2  2  0  0  0  0
  4  6  2  0  0  0  0
  4  3  1  0  0  0  0
  5  4  1  0  0  0  0
  6 20  1  0  0  0  0
  7  6  1  0  0  0  0
  7 16  1  0  0  0  0
  8  7  1  0  0  0  0
  8 10  1  0  0  0  0
  9  8  1  0  0  0  0
 11  8  1  0  0  0  0
 12 15  1  0  0  0  0
 12  7  1  0  0  0  0
 13 12  1  0  0  0  0
 14 12  1  0  0  0  0
 16 18  1  0  0  0  0
 16 19  1  0  0  0  0
 17 16  1  0  0  0  0
 20 21  1  0  0  0  0
 20 22  2  0  0  0  0
 22 23  1  0  0  0  0
 23 24  1  0  0  0  0
 23 32  1  0  0  0  0
 24 25  1  0  0  0  0
 24 26  1  0  0  0  0
 27 24  1  0  0  0  0
 28 29  1  0  0  0  0
 28 23  1  0  0  0  0
 30 28  1  0  0  0  0
 31 28  1  0  0  0  0
 32 33  1  0  0  0  0
 32 35  1  0  0  0  0
 34 32  1  0  0  0  0
 36  3  1  1  0  0  0
 36 37  1  0  0  0  0
 36 40  1  0  0  0  0
 37 38  1  0  0  0  0
 38 39  2  0  0  0  0
 39 42  1  0  0  0  0
 40 39  1  0  0  0  0
 40 41  1  0  0  0  0
 42 43  1  0  0  0  0
 43 45  2  0  0  0  0
 43 44  1  0  0  0  0
 45 46  1  0  0  0  0
 47 48  1  0  0  0  0
 47 45  1  0  0  0  0
 49 47  2  0  0  0  0
 50 49  1  0  0  0  0
 51 49  1  0  0  0  0
 51 42  2  0  0  0  0
 52 51  1  0  0  0  0
 53 38  1  0  0  0  0
 53 62  1  0  0  0  0
 54 53  2  0  0  0  0
 55 54  1  0  0  0  0
 56 54  1  0  0  0  0
 56 58  2  0  0  0  0
 57 56  1  0  0  0  0
 58 60  1  0  0  0  0
 59 58  1  0  0  0  0
 60 62  2  0  0  0  0
 60 61  1  0  0  0  0
 62 63  1  0  0  0  0
M  CHG  1   1  -1
M  END
