2,3
 OpenBabel05122313063D

 25 26  0  0  0  0  0  0  0  0999 V2000
   -4.9830    0.6216   -1.4396 Cl  0  0  0  0  0  0  0  0  0  0  0  0
    2.4217   -0.5362   -0.3007 O   0  5  0  0  0  0  0  0  0  0  0  0
   -0.0952    0.8959    0.2132 N   0  0  0  0  0  2  0  0  0  0  0  0
    2.9131    0.6487   -0.3300 C   0  0  0  0  0  0  0  0  0  0  0  0
    4.3222    0.8014   -0.5946 C   0  0  0  0  0  0  0  0  0  0  0  0
    4.8868   -0.1276   -0.7609 H   0  0  0  0  0  0  0  0  0  0  0  0
    4.9327    2.0444   -0.6345 C   0  0  0  0  0  0  0  0  0  0  0  0
    6.0148    2.1085   -0.8369 H   0  0  0  0  0  0  0  0  0  0  0  0
    4.1883    3.2364   -0.4224 C   0  0  0  0  0  0  0  0  0  0  0  0
    4.6806    4.2195   -0.4584 H   0  0  0  0  0  0  0  0  0  0  0  0
    2.8266    3.1324   -0.1776 C   0  0  0  0  0  0  0  0  0  0  0  0
    2.2236    4.0432   -0.0212 H   0  0  0  0  0  0  0  0  0  0  0  0
    2.1562    1.8741   -0.1207 C   0  0  0  0  0  0  0  0  0  0  0  0
    0.7438    1.9024    0.1017 C   0  0  0  0  0  3  0  0  0  0  0  0
    0.2973    2.9159    0.1681 H   0  0  0  0  0  0  0  0  0  0  0  0
   -1.4634    1.2225    0.4311 C   0  0  0  0  0  0  0  0  0  0  0  0
   -2.4291    0.8041   -0.5079 C   0  0  0  0  0  0  0  0  0  0  0  0
   -2.0884    0.2258   -1.3849 H   0  0  0  0  0  0  0  0  0  0  0  0
   -3.7700    1.1280   -0.2802 C   0  0  0  0  0  0  0  0  0  0  0  0
   -4.1784    1.8529    0.8544 C   0  0  0  0  0  0  0  0  0  0  0  0
   -5.2427    2.0813    1.0040 H   0  0  0  0  0  0  0  0  0  0  0  0
   -3.2051    2.2583    1.7779 C   0  0  0  0  0  0  0  0  0  0  0  0
   -3.5096    2.8140    2.6783 H   0  0  0  0  0  0  0  0  0  0  0  0
   -1.8513    1.9506    1.5742 C   0  0  0  0  0  0  0  0  0  0  0  0
   -1.0867    2.2430    2.3086 H   0  0  0  0  0  0  0  0  0  0  0  0
  1 19  1  0  0  0  0
  3 16  1  0  0  0  0
  4  2  1  0  0  0  0
  4 13  1  0  0  0  0
  5  4  2  0  0  0  0
  6  5  1  0  0  0  0
  7  5  1  0  0  0  0
  7  9  2  0  0  0  0
  8  7  1  0  0  0  0
  9 11  1  0  0  0  0
 10  9  1  0  0  0  0
 11 13  2  0  0  0  0
 11 12  1  0  0  0  0
 13 14  1  0  0  0  0
 14 15  1  0  0  0  0
 14  3  1  0  0  0  0
 16 24  1  0  0  0  0
 17 19  1  0  0  0  0
 17 16  2  0  0  0  0
 18 17  1  0  0  0  0
 19 20  2  0  0  0  0
 20 21  1  0  0  0  0
 20 22  1  0  0  0  0
 22 23  1  0  0  0  0
 24 22  2  0  0  0  0
 24 25  1  0  0  0  0
M  CHG  1   2  -1
M  END
