1,2
 OpenBabel05122313063D

 29 30  0  0  1  0  0  0  0  0999 V2000
    1.2624    1.3821   -0.4504 O   0  5  0  0  0  0  0  0  0  0  0  0
    1.3408   -1.3242   -0.3320 N   0  0  0  0  0  2  0  0  0  0  0  0
    2.5660    1.3249   -0.5507 C   0  0  0  0  0  0  0  0  0  0  0  0
    3.2934    2.5518   -0.6370 C   0  0  0  0  0  0  0  0  0  0  0  0
    2.7143    3.4866   -0.6071 H   0  0  0  0  0  0  0  0  0  0  0  0
    4.6787    2.5625   -0.7622 C   0  0  0  0  0  0  0  0  0  0  0  0
    5.2041    3.5282   -0.8309 H   0  0  0  0  0  0  0  0  0  0  0  0
    5.4192    1.3570   -0.8048 C   0  0  0  0  0  0  0  0  0  0  0  0
    6.5137    1.3781   -0.9060 H   0  0  0  0  0  0  0  0  0  0  0  0
    4.7420    0.1457   -0.7144 C   0  0  0  0  0  3  0  0  0  0  0  0
    5.2861   -0.8093   -0.7382 H   0  0  0  0  0  0  0  0  0  0  0  0
    3.3292    0.1081   -0.5835 C   0  0  0  0  0  0  0  0  0  0  0  0
    2.6403   -1.1472   -0.4464 C   0  0  0  0  0  0  0  0  0  0  0  0
    3.3763   -2.2814   -0.3938 O   0  0  0  0  0  0  0  0  0  0  0  0
    2.4403   -3.3866   -0.3943 C   0  0  0  0  0  0  0  0  0  0  0  0
    2.4393   -3.8356   -1.4101 H   0  0  0  0  0  0  0  0  0  0  0  0
    2.7992   -4.1406    0.3325 H   0  0  0  0  0  0  0  0  0  0  0  0
    1.0893   -2.7483   -0.0250 C   0  0  1  0  0  0  0  0  0  0  0  0
    0.2702   -3.1104   -0.6735 H   0  0  0  0  0  0  0  0  0  0  0  0
    0.6465   -2.9339    1.4473 C   0  0  0  0  0  0  0  0  0  0  0  0
   -0.2672   -2.3104    1.5392 H   0  0  0  0  0  0  0  0  0  0  0  0
    0.2525   -4.3911    1.7079 C   0  0  0  0  0  0  0  0  0  0  0  0
   -0.1501   -4.5131    2.7333 H   0  0  0  0  0  0  0  0  0  0  0  0
    1.1211   -5.0785    1.6159 H   0  0  0  0  0  0  0  0  0  0  0  0
   -0.5273   -4.7337    0.9968 H   0  0  0  0  0  0  0  0  0  0  0  0
    1.6812   -2.4222    2.4542 C   0  0  0  0  0  0  0  0  0  0  0  0
    1.9126   -1.3514    2.2856 H   0  0  0  0  0  0  0  0  0  0  0  0
    2.6341   -2.9905    2.4031 H   0  0  0  0  0  0  0  0  0  0  0  0
    1.2974   -2.5209    3.4895 H   0  0  0  0  0  0  0  0  0  0  0  0
  2 18  1  0  0  0  0
  3  1  1  0  0  0  0
  4  5  1  0  0  0  0
  4  3  2  0  0  0  0
  6  4  1  0  0  0  0
  7  6  1  0  0  0  0
  8  6  2  0  0  0  0
  8 10  1  0  0  0  0
  9  8  1  0  0  0  0
 10 12  1  0  0  0  0
 11 10  1  0  0  0  0
 12  3  1  0  0  0  0
 12 13  2  0  0  0  0
 13 14  1  0  0  0  0
 13  2  1  0  0  0  0
 15 14  1  0  0  0  0
 15 18  1  0  0  0  0
 15 17  1  0  0  0  0
 16 15  1  0  0  0  0
 18 19  1  6  0  0  0
 18 20  1  0  0  0  0
 20 21  1  0  0  0  0
 20 22  1  0  0  0  0
 20 26  1  0  0  0  0
 22 23  1  0  0  0  0
 24 22  1  0  0  0  0
 25 22  1  0  0  0  0
 26 29  1  0  0  0  0
 27 26  1  0  0  0  0
 28 26  1  0  0  0  0
M  CHG  1   1  -1
M  END
