1,2
 OpenBabel05122313063D

 50 52  0  0  1  0  0  0  0  0999 V2000
   -1.8904   -0.2566    0.0553 O   0  0  0  0  0  1  0  0  0  0  0  0
    0.1166    1.6643   -0.3717 N   0  0  0  0  0  2  0  0  0  0  0  0
   -2.6654    0.7418    0.3730 C   0  0  1  0  0  3  0  0  0  0  0  0
   -4.0551    0.5042    0.7252 C   0  0  0  0  0  0  0  0  0  0  0  0
   -4.8535    1.5991    1.0636 C   0  0  0  0  0  0  0  0  0  0  0  0
   -5.9096    1.4282    1.3140 H   0  0  0  0  0  0  0  0  0  0  0  0
   -4.3718    2.9296    1.1099 C   0  0  0  0  0  0  0  0  0  0  0  0
   -5.0459    3.7506    1.3938 H   0  0  0  0  0  0  0  0  0  0  0  0
   -3.0455    3.1714    0.7992 C   0  0  0  0  0  0  0  0  0  0  0  0
   -2.6356    4.1940    0.8342 H   0  0  0  0  0  0  0  0  0  0  0  0
   -2.1827    2.1075    0.4111 C   0  0  0  0  0  0  0  0  0  0  0  0
   -0.8206    2.4427    0.1346 C   0  0  0  0  0  0  0  0  0  0  0  0
   -0.5195    3.4768    0.4002 H   0  0  0  0  0  0  0  0  0  0  0  0
   -4.6165   -0.9285    0.7348 C   0  0  0  0  0  0  0  0  0  0  0  0
   -3.8811   -1.7316    1.8340 C   0  0  0  0  0  0  0  0  0  0  0  0
   -2.7864   -1.6716    1.7008 H   0  0  0  0  0  0  0  0  0  0  0  0
   -4.1887   -2.7987    1.8149 H   0  0  0  0  0  0  0  0  0  0  0  0
   -4.1271   -1.3237    2.8354 H   0  0  0  0  0  0  0  0  0  0  0  0
   -4.4247   -1.5811   -0.6557 C   0  0  0  0  0  0  0  0  0  0  0  0
   -5.0272   -1.0468   -1.4184 H   0  0  0  0  0  0  0  0  0  0  0  0
   -4.7602   -2.6395   -0.6368 H   0  0  0  0  0  0  0  0  0  0  0  0
   -3.3654   -1.5400   -0.9659 H   0  0  0  0  0  0  0  0  0  0  0  0
   -6.1216   -0.9700    1.0554 C   0  0  0  0  0  0  0  0  0  0  0  0
   -6.3471   -0.5593    2.0604 H   0  0  0  0  0  0  0  0  0  0  0  0
   -6.4706   -2.0226    1.0429 H   0  0  0  0  0  0  0  0  0  0  0  0
   -6.7214   -0.4104    0.3090 H   0  0  0  0  0  0  0  0  0  0  0  0
    1.4151    2.2400   -0.5055 C   0  0  0  0  0  0  0  0  0  0  0  0
    1.5998    3.3918   -1.2937 C   0  0  0  0  0  0  0  0  0  0  0  0
    0.7326    3.8129   -1.8243 H   0  0  0  0  0  0  0  0  0  0  0  0
    2.8679    3.9766   -1.4181 C   0  0  0  0  0  0  0  0  0  0  0  0
    2.9988    4.8730   -2.0430 H   0  0  0  0  0  0  0  0  0  0  0  0
    3.9612    3.4082   -0.7500 C   0  0  0  0  0  0  0  0  0  0  0  0
    4.9612    3.8593   -0.8366 H   0  0  0  0  0  0  0  0  0  0  0  0
    3.7807    2.2540    0.0283 C   0  0  0  0  0  0  0  0  0  0  0  0
    4.6403    1.8061    0.5492 H   0  0  0  0  0  0  0  0  0  0  0  0
    2.5203    1.6452    0.1614 C   0  0  0  0  0  0  0  0  0  0  0  0
    2.3053    0.4054    1.0064 C   0  0  0  0  0  0  0  0  0  0  0  0
    1.5392   -0.2121    0.4666 H   0  0  0  0  0  0  0  0  0  0  0  0
    1.8128    0.6895    1.9614 H   0  0  0  0  0  0  0  0  0  0  0  0
    3.5214   -0.4389    1.2855 C   0  0  0  0  0  0  0  0  0  0  0  0
    3.9209   -0.7314    2.6044 C   0  0  0  0  0  0  0  0  0  0  0  0
    3.3498   -0.3043    3.4442 H   0  0  0  0  0  0  0  0  0  0  0  0
    5.0289   -1.5551    2.8602 C   0  0  0  0  0  0  0  0  0  0  0  0
    5.3223   -1.7690    3.8995 H   0  0  0  0  0  0  0  0  0  0  0  0
    5.7615   -2.1015    1.7959 C   0  0  0  0  0  0  0  0  0  0  0  0
    6.6310   -2.7466    1.9937 H   0  0  0  0  0  0  0  0  0  0  0  0
    5.3781   -1.8155    0.4746 C   0  0  0  0  0  0  0  0  0  0  0  0
    5.9475   -2.2371   -0.3682 H   0  0  0  0  0  0  0  0  0  0  0  0
    4.2712   -0.9933    0.2236 C   0  0  0  0  0  0  0  0  0  0  0  0
    3.9807   -0.7658   -0.8141 H   0  0  0  0  0  0  0  0  0  0  0  0
  2 12  1  0  0  0  0
  3  1  1  1  0  0  0
  3 11  1  0  0  0  0
  3  4  1  0  0  0  0
  4 14  1  0  0  0  0
  4  5  2  0  0  0  0
  5  7  1  0  0  0  0
  5  6  1  0  0  0  0
  7  8  1  0  0  0  0
  9 10  1  0  0  0  0
  9  7  2  0  0  0  0
 11  9  1  0  0  0  0
 12 13  1  0  0  0  0
 12 11  2  0  0  0  0
 14 23  1  0  0  0  0
 14 15  1  0  0  0  0
 15 18  1  0  0  0  0
 16 15  1  0  0  0  0
 17 15  1  0  0  0  0
 19 21  1  0  0  0  0
 19 14  1  0  0  0  0
 20 19  1  0  0  0  0
 22 19  1  0  0  0  0
 23 24  1  0  0  0  0
 25 23  1  0  0  0  0
 26 23  1  0  0  0  0
 27  2  1  0  0  0  0
 27 36  1  0  0  0  0
 28 27  2  0  0  0  0
 29 28  1  0  0  0  0
 30 28  1  0  0  0  0
 30 32  2  0  0  0  0
 31 30  1  0  0  0  0
 32 34  1  0  0  0  0
 33 32  1  0  0  0  0
 34 36  2  0  0  0  0
 34 35  1  0  0  0  0
 36 37  1  0  0  0  0
 37 40  1  0  0  0  0
 37 39  1  0  0  0  0
 38 37  1  0  0  0  0
 40 41  1  0  0  0  0
 41 43  2  0  0  0  0
 41 42  1  0  0  0  0
 43 44  1  0  0  0  0
 45 46  1  0  0  0  0
 45 43  1  0  0  0  0
 47 45  2  0  0  0  0
 48 47  1  0  0  0  0
 49 47  1  0  0  0  0
 49 40  2  0  0  0  0
 50 49  1  0  0  0  0
M  END
