1,2
 OpenBabel05122313063D

 34 35  0  0  1  0  0  0  0  0999 V2000
   -0.9941   -1.6404   -0.7252 N   0  0  0  0  0  2  0  0  0  0  0  0
   -1.4742    1.0363   -1.1528 O   0  0  0  0  0  1  0  0  0  0  0  0
   -2.7262    0.7039   -1.2381 C   0  0  2  0  0  3  0  0  0  0  0  0
   -3.7170    1.7176   -1.4681 C   0  0  0  0  0  0  0  0  0  0  0  0
   -5.0738    1.4231   -1.5676 C   0  0  0  0  0  0  0  0  0  0  0  0
   -5.7963    2.2301   -1.7478 H   0  0  0  0  0  0  0  0  0  0  0  0
   -5.5143    0.0872   -1.4298 C   0  0  0  0  0  0  0  0  0  0  0  0
   -4.5977   -0.9316   -1.2002 C   0  0  0  0  0  0  0  0  0  0  0  0
   -4.9430   -1.9684   -1.0812 H   0  0  0  0  0  0  0  0  0  0  0  0
   -3.2115   -0.6394   -1.1086 C   0  0  0  0  0  0  0  0  0  0  0  0
   -2.2989   -1.7084   -0.8287 C   0  0  0  0  0  0  0  0  0  0  0  0
   -2.7661   -2.6966   -0.6537 H   0  0  0  0  0  0  0  0  0  0  0  0
   -0.3323   -2.8560   -0.2437 C   0  0  0  0  0  0  0  0  0  0  0  0
    0.6095   -3.0038   -0.7999 H   0  0  0  0  0  0  0  0  0  0  0  0
   -0.9984   -3.7280   -0.4217 H   0  0  0  0  0  0  0  0  0  0  0  0
   -0.0148   -2.7587    1.2725 C   0  0  2  0  0  0  0  0  0  0  0  0
    0.6837   -1.9043    1.3891 H   0  0  0  0  0  0  0  0  0  0  0  0
    0.7078   -4.0279    1.7383 C   0  0  0  0  0  0  0  0  0  0  0  0
    0.9403   -3.9735    2.8199 H   0  0  0  0  0  0  0  0  0  0  0  0
    1.6579   -4.1529    1.1820 H   0  0  0  0  0  0  0  0  0  0  0  0
    0.0965   -4.9386    1.5708 H   0  0  0  0  0  0  0  0  0  0  0  0
   -1.2803   -2.4343    2.0470 C   0  0  0  0  0  0  0  0  0  0  0  0
   -2.2837   -3.4030    2.2558 C   0  0  0  0  0  0  0  0  0  0  0  0
   -2.1174   -4.4420    1.9296 H   0  0  0  0  0  0  0  0  0  0  0  0
   -3.5007   -3.0618    2.8658 C   0  0  0  0  0  0  0  0  0  0  0  0
   -4.2712   -3.8333    3.0182 H   0  0  0  0  0  0  0  0  0  0  0  0
   -3.7383   -1.7410    3.2793 C   0  0  0  0  0  0  0  0  0  0  0  0
   -4.6953   -1.4716    3.7512 H   0  0  0  0  0  0  0  0  0  0  0  0
   -2.7445   -0.7689    3.0884 C   0  0  0  0  0  0  0  0  0  0  0  0
   -2.9154    0.2695    3.4111 H   0  0  0  0  0  0  0  0  0  0  0  0
   -1.5295   -1.1164    2.4796 C   0  0  0  0  0  0  0  0  0  0  0  0
   -0.7557   -0.3486    2.3275 H   0  0  0  0  0  0  0  0  0  0  0  0
   -3.1854    3.3711   -1.6332 Cl  0  0  0  0  0  0  0  0  0  0  0  0
   -7.2215   -0.2634   -1.5432 Cl  0  0  0  0  0  0  0  0  0  0  0  0
  1 13  1  0  0  0  0
  3  2  1  1  0  0  0
  3 10  1  0  0  0  0
  4  3  1  0  0  0  0
  5  4  2  0  0  0  0
  5  7  1  0  0  0  0
  6  5  1  0  0  0  0
  7  8  2  0  0  0  0
  8 10  1  0  0  0  0
  8  9  1  0  0  0  0
 10 11  2  0  0  0  0
 11  1  1  0  0  0  0
 11 12  1  0  0  0  0
 13 16  1  0  0  0  0
 14 13  1  0  0  0  0
 15 13  1  0  0  0  0
 16 17  1  1  0  0  0
 16 18  1  0  0  0  0
 16 22  1  0  0  0  0
 18 19  1  0  0  0  0
 20 18  1  0  0  0  0
 21 18  1  0  0  0  0
 22 23  2  0  0  0  0
 22 31  1  0  0  0  0
 23 25  1  0  0  0  0
 24 23  1  0  0  0  0
 25 26  1  0  0  0  0
 25 27  2  0  0  0  0
 27 28  1  0  0  0  0
 29 27  1  0  0  0  0
 29 30  1  0  0  0  0
 31 29  2  0  0  0  0
 32 31  1  0  0  0  0
 33  4  1  0  0  0  0
 34  7  1  0  0  0  0
M  END
