3,4
 OpenBabel05122313063D

 34 35  0  0  1  0  0  0  0  0999 V2000
   -6.1313    3.9211    0.1368 Cl  0  0  0  0  0  0  0  0  0  0  0  0
   -4.1989   -0.4470    2.7283 Cl  0  0  0  0  0  0  0  0  0  0  0  0
   -1.7300    0.1540    1.3410 O   0  5  0  0  0  0  0  0  0  0  0  0
   -0.1613    1.7063   -0.5873 N   0  0  0  0  0  2  0  0  0  0  0  0
   -2.6493    1.0127    1.0332 C   0  0  0  0  0  0  0  0  0  0  0  0
   -3.5784    3.0031   -0.1527 C   0  0  0  0  0  0  0  0  0  0  0  0
   -3.9537    0.8856    1.6346 C   0  0  0  0  0  0  0  0  0  0  0  0
   -4.8091    2.8281    0.4642 C   0  0  0  0  0  0  0  0  0  0  0  0
   -5.0031    1.7570    1.3659 C   0  0  0  0  0  0  0  0  0  0  0  0
    3.3965    2.9307   -1.1019 C   0  0  0  0  0  0  0  0  0  0  0  0
   -1.2685    2.3965   -0.6053 C   0  0  0  0  0  3  0  0  0  0  0  0
   -2.4946    2.1155    0.1037 C   0  0  0  0  0  0  0  0  0  0  0  0
    2.0845    2.7551   -0.3552 C   0  0  1  0  0  0  0  0  0  0  0  0
    5.8416    3.2048   -2.5032 C   0  0  0  0  0  0  0  0  0  0  0  0
    4.5324    2.1884   -0.7219 C   0  0  0  0  0  0  0  0  0  0  0  0
    1.6111    4.0428    0.3308 C   0  0  0  0  0  0  0  0  0  0  0  0
    3.5076    3.8172   -2.1935 C   0  0  0  0  0  0  0  0  0  0  0  0
    1.0057    2.1849   -1.3131 C   0  0  0  0  0  0  0  0  0  0  0  0
    5.7451    2.3242   -1.4150 C   0  0  0  0  0  0  0  0  0  0  0  0
    4.7179    3.9531   -2.8896 C   0  0  0  0  0  0  0  0  0  0  0  0
   -5.9767    1.6092    1.8520 H   0  0  0  0  0  0  0  0  0  0  0  0
   -3.4356    3.8368   -0.8559 H   0  0  0  0  0  0  0  0  0  0  0  0
    1.4442    1.3304   -1.8704 H   0  0  0  0  0  0  0  0  0  0  0  0
    0.7110    2.9581   -2.0600 H   0  0  0  0  0  0  0  0  0  0  0  0
    2.2480    1.9865    0.4294 H   0  0  0  0  0  0  0  0  0  0  0  0
    0.6810    3.8720    0.9100 H   0  0  0  0  0  0  0  0  0  0  0  0
    1.4142    4.8505   -0.4050 H   0  0  0  0  0  0  0  0  0  0  0  0
    2.3816    4.4113    1.0358 H   0  0  0  0  0  0  0  0  0  0  0  0
    4.4653    1.5080    0.1405 H   0  0  0  0  0  0  0  0  0  0  0  0
   -1.2907    3.3108   -1.2398 H   0  0  0  0  0  0  0  0  0  0  0  0
    2.6375    4.4168   -2.5059 H   0  0  0  0  0  0  0  0  0  0  0  0
    6.7916    3.3112   -3.0486 H   0  0  0  0  0  0  0  0  0  0  0  0
    6.6206    1.7361   -1.0995 H   0  0  0  0  0  0  0  0  0  0  0  0
    4.7850    4.6499   -3.7393 H   0  0  0  0  0  0  0  0  0  0  0  0
  1  8  1  0  0  0  0
  5  3  1  0  0  0  0
  5  7  1  0  0  0  0
  6 12  1  0  0  0  0
  6  8  2  0  0  0  0
  7  2  1  0  0  0  0
  8  9  1  0  0  0  0
  9  7  2  0  0  0  0
  9 21  1  0  0  0  0
 10 15  1  0  0  0  0
 10 13  1  0  0  0  0
 11  4  1  0  0  0  0
 11 12  1  0  0  0  0
 12  5  2  0  0  0  0
 13 16  1  0  0  0  0
 13 25  1  1  0  0  0
 14 19  1  0  0  0  0
 15 29  1  0  0  0  0
 16 26  1  0  0  0  0
 16 28  1  0  0  0  0
 17 10  2  0  0  0  0
 18  4  1  0  0  0  0
 18 13  1  0  0  0  0
 19 33  1  0  0  0  0
 19 15  2  0  0  0  0
 20 14  2  0  0  0  0
 20 17  1  0  0  0  0
 22  6  1  0  0  0  0
 23 18  1  0  0  0  0
 24 18  1  0  0  0  0
 27 16  1  0  0  0  0
 30 11  1  0  0  0  0
 31 17  1  0  0  0  0
 32 14  1  0  0  0  0
 34 20  1  0  0  0  0
M  CHG  1   3  -1
M  END
