1,7
 OpenBabel05122313063D

 31 32  0  0  1  0  0  0  0  0999 V2000
   -1.5880    1.5901   -0.4386 O   0  5  0  0  0  0  0  0  0  0  0  0
    2.0843   -0.5840   -1.3891 O   0  0  0  0  0  0  0  0  0  0  0  0
    3.2180   -3.0758    1.0167 O   0  0  0  0  0  0  0  0  0  0  0  0
    2.1695    3.0611    0.1866 N   0  0  0  0  0  0  0  0  0  0  0  0
    1.5014    5.0730   -0.7432 N   0  0  0  0  0  0  0  0  0  0  0  0
   -0.0683    3.3413   -0.5619 N   0  0  0  0  0  0  0  0  0  0  0  0
    0.2170   -0.0645    0.6027 N   0  0  0  0  0  2  0  0  0  0  0  0
    2.7862    1.0459    1.2068 N   0  0  0  0  0  0  0  0  0  0  0  0
    1.2219    3.7936   -0.3708 C   0  0  2  0  0  3  0  0  0  0  0  0
   -0.4352    2.0392   -0.2293 C   0  0  0  0  0  0  0  0  0  0  0  0
    1.3392   -0.9457    0.9495 C   0  0  2  0  0  0  0  0  0  0  0  0
    2.3596   -0.2014    1.8270 C   0  0  0  0  0  0  0  0  0  0  0  0
    0.5812    1.2290    0.3434 C   0  0  0  0  0  0  0  0  0  0  0  0
    1.8643    1.7971    0.5744 C   0  0  0  0  0  0  0  0  0  0  0  0
    1.9055   -1.5531   -0.3841 C   0  0  2  0  0  0  0  0  0  0  0  0
    3.2423   -2.2871   -0.1717 C   0  0  2  0  0  0  0  0  0  0  0  0
    3.6361   -3.0952   -1.4028 C   0  0  0  0  0  0  0  0  0  0  0  0
   -0.8018    3.9334   -0.9619 H   0  0  0  0  0  0  0  0  0  0  0  0
    0.9449   -1.7858    1.5496 H   0  0  0  0  0  0  0  0  0  0  0  0
    3.6913    1.4685    1.4161 H   0  0  0  0  0  0  0  0  0  0  0  0
    0.8954    5.5882   -1.3787 H   0  0  0  0  0  0  0  0  0  0  0  0
    2.4806    5.3506   -0.6860 H   0  0  0  0  0  0  0  0  0  0  0  0
    1.1411   -2.3014   -0.7047 H   0  0  0  0  0  0  0  0  0  0  0  0
    4.0171   -1.5090    0.0074 H   0  0  0  0  0  0  0  0  0  0  0  0
    3.2271   -0.8618    2.0038 H   0  0  0  0  0  0  0  0  0  0  0  0
    1.8888    0.0058    2.8155 H   0  0  0  0  0  0  0  0  0  0  0  0
    1.2078   -0.5110   -1.8455 H   0  0  0  0  0  0  0  0  0  0  0  0
    2.6073   -3.8203    0.8539 H   0  0  0  0  0  0  0  0  0  0  0  0
    3.6581   -2.4395   -2.2939 H   0  0  0  0  0  0  0  0  0  0  0  0
    4.6306   -3.5616   -1.2634 H   0  0  0  0  0  0  0  0  0  0  0  0
    2.8929   -3.8994   -1.5936 H   0  0  0  0  0  0  0  0  0  0  0  0
  1 10  1  0  0  0  0
  2 15  1  0  0  0  0
  4 14  2  0  0  0  0
  5 22  1  0  0  0  0
  6  9  1  0  0  0  0
  6 10  1  0  0  0  0
  7 11  1  0  0  0  0
  8 20  1  0  0  0  0
  8 12  1  0  0  0  0
  9  5  1  1  0  0  0
  9  4  1  0  0  0  0
 10 13  2  0  0  0  0
 11 19  1  1  0  0  0
 11 12  1  0  0  0  0
 12 25  1  0  0  0  0
 12 26  1  0  0  0  0
 13 14  1  0  0  0  0
 13  7  1  0  0  0  0
 14  8  1  0  0  0  0
 15 23  1  6  0  0  0
 15 16  1  0  0  0  0
 15 11  1  0  0  0  0
 16 24  1  1  0  0  0
 16  3  1  0  0  0  0
 17 30  1  0  0  0  0
 17 16  1  0  0  0  0
 18  6  1  0  0  0  0
 21  5  1  0  0  0  0
 27  2  1  0  0  0  0
 28  3  1  0  0  0  0
 29 17  1  0  0  0  0
 31 17  1  0  0  0  0
M  CHG  1   1  -1
M  END
