2,3
 OpenBabel05122313063D

 18 17  0  0  1  0  0  0  0  0999 V2000
    5.3074    0.0843    0.2954 F   0  0  0  0  0  0  0  0  0  0  0  0
    1.8963   -0.6322   -0.1436 O   0  5  0  0  0  0  0  0  0  0  0  0
    0.5744    1.9788   -0.0588 N   0  0  0  0  0  2  0  0  0  0  0  0
    2.1384    3.8642    0.0921 C   0  0  0  0  0  0  0  0  0  0  0  0
    1.8403    4.3539   -0.8584 H   0  0  0  0  0  0  0  0  0  0  0  0
    3.2161    4.0434    0.2499 H   0  0  0  0  0  0  0  0  0  0  0  0
    1.5726    4.3736    0.8987 H   0  0  0  0  0  0  0  0  0  0  0  0
    4.4431   -1.1891   -1.2529 F   0  0  0  0  0  0  0  0  0  0  0  0
    1.8317    2.3830    0.0587 C   0  0  2  0  0  3  0  0  0  0  0  0
    4.1747   -1.6985    0.8511 F   0  0  0  0  0  0  0  0  0  0  0  0
    2.9630    1.5078    0.1372 C   0  0  0  0  0  0  0  0  0  0  0  0
    3.9485    1.9704    0.2600 H   0  0  0  0  0  0  0  0  0  0  0  0
    2.9224    0.1324    0.0026 C   0  0  0  0  0  0  0  0  0  0  0  0
    4.2313   -0.6677   -0.0239 C   0  0  0  0  0  0  0  0  0  0  0  0
   -0.4571    2.9994   -0.2257 C   0  0  0  0  0  0  0  0  0  0  0  0
   -0.5327    3.6474    0.6745 H   0  0  0  0  0  0  0  0  0  0  0  0
   -1.4368    2.5206   -0.3779 H   0  0  0  0  0  0  0  0  0  0  0  0
   -0.2351    3.6517   -1.0966 H   0  0  0  0  0  0  0  0  0  0  0  0
  2 13  1  0  0  0  0
  4  6  1  0  0  0  0
  4  7  1  0  0  0  0
  5  4  1  0  0  0  0
  8 14  1  0  0  0  0
  9  3  1  6  0  0  0
  9  4  1  0  0  0  0
  9 11  1  0  0  0  0
 11 12  1  0  0  0  0
 13 11  2  0  0  0  0
 14 13  1  0  0  0  0
 14  1  1  0  0  0  0
 14 10  1  0  0  0  0
 15  3  1  0  0  0  0
 15 16  1  0  0  0  0
 17 15  1  0  0  0  0
 18 15  1  0  0  0  0
M  CHG  1   2  -1
M  END
