1,2
 OpenBabel05122313063D

 19 19  0  0  1  0  0  0  0  0999 V2000
   -0.7387    0.3706   -0.3809 N   0  0  0  0  0  2  0  0  0  0  0  0
    1.4781    1.8047   -0.7301 O   0  5  0  0  0  0  0  0  0  0  0  0
   -3.2765    1.5575   -0.2991 C   0  0  0  0  0  0  0  0  0  0  0  0
   -4.2802    2.0034   -0.2592 H   0  0  0  0  0  0  0  0  0  0  0  0
   -2.1318    2.3364   -0.4683 C   0  0  0  0  0  0  0  0  0  0  0  0
   -2.1436    3.4303   -0.5780 H   0  0  0  0  0  0  0  0  0  0  0  0
   -0.8746    1.7169   -0.5013 C   0  0  2  0  0  3  0  0  0  0  0  0
   -1.8355   -0.3918   -0.2226 C   0  0  0  0  0  0  0  0  0  0  0  0
   -1.6880   -1.4769   -0.1163 H   0  0  0  0  0  0  0  0  0  0  0  0
   -3.1283    0.1581   -0.1766 C   0  0  0  0  0  0  0  0  0  0  0  0
    0.3059    3.7445   -0.8934 O   0  0  0  0  0  0  0  0  0  0  0  0
    0.4024    2.5253   -0.7181 C   0  0  0  0  0  0  0  0  0  0  0  0
   -4.1966   -1.9867    0.0807 O   0  0  0  0  0  0  0  0  0  0  0  0
   -5.4642   -0.1052    0.0668 O   0  0  0  0  0  0  0  0  0  0  0  0
   -4.2747   -0.7726    0.0013 C   0  0  0  0  0  0  0  0  0  0  0  0
   -6.6090   -0.9384    0.2426 C   0  0  0  0  0  0  0  0  0  0  0  0
   -7.4817   -0.2613    0.2771 H   0  0  0  0  0  0  0  0  0  0  0  0
   -6.5362   -1.5224    1.1832 H   0  0  0  0  0  0  0  0  0  0  0  0
   -6.7115   -1.6583   -0.5956 H   0  0  0  0  0  0  0  0  0  0  0  0
  1  8  1  0  0  0  0
  2 12  1  0  0  0  0
  3  4  1  0  0  0  0
  3 10  1  0  0  0  0
  5  3  2  0  0  0  0
  6  5  1  0  0  0  0
  7 12  1  6  0  0  0
  7  5  1  0  0  0  0
  7  1  1  0  0  0  0
  8 10  2  0  0  0  0
  8  9  1  0  0  0  0
 10 15  1  0  0  0  0
 11 12  2  0  0  0  0
 14 16  1  0  0  0  0
 15 14  1  0  0  0  0
 15 13  2  0  0  0  0
 16 17  1  0  0  0  0
 16 18  1  0  0  0  0
 19 16  1  0  0  0  0
M  CHG  1   2  -1
M  END
