1,2
 OpenBabel05122313063D

 37 39  0  0  1  0  0  0  0  0999 V2000
    2.7106    0.4626   -0.7510 O   0  5  0  0  0  0  0  0  0  0  0  0
    0.2060   -0.9688   -0.8090 N   0  0  0  0  0  2  0  0  0  0  0  0
    1.0399   -1.9738   -0.8229 C   0  0  0  0  0  3  0  0  0  0  0  0
    2.4617   -1.9498   -0.6237 C   0  0  0  0  0  0  0  0  0  0  0  0
    3.1356   -3.1975   -0.4962 C   0  0  0  0  0  0  0  0  0  0  0  0
    4.5132   -3.2741   -0.3357 C   0  0  0  0  0  0  0  0  0  0  0  0
    5.2626   -2.0713   -0.3219 C   0  0  0  0  0  0  0  0  0  0  0  0
    4.6424   -0.8357   -0.4603 C   0  0  0  0  0  0  0  0  0  0  0  0
    3.2226   -0.7230   -0.6159 C   0  0  0  0  0  0  0  0  0  0  0  0
   -1.2101   -1.1985   -1.1675 C   0  0  2  0  0  0  0  0  0  0  0  0
   -2.0916   -1.3808    0.0634 C   0  0  0  0  0  0  0  0  0  0  0  0
   -1.5996   -1.9961    1.2102 C   0  0  0  0  0  0  0  0  0  0  0  0
   -2.4161   -2.2064    2.3518 C   0  0  0  0  0  0  0  0  0  0  0  0
   -3.7384   -1.7961    2.3482 C   0  0  0  0  0  0  0  0  0  0  0  0
   -4.2931   -1.1590    1.1998 C   0  0  0  0  0  0  0  0  0  0  0  0
   -5.6492   -0.7171    1.1816 C   0  0  0  0  0  0  0  0  0  0  0  0
   -6.1818   -0.0832    0.0702 C   0  0  0  0  0  0  0  0  0  0  0  0
   -5.3704    0.1361   -1.0736 C   0  0  0  0  0  0  0  0  0  0  0  0
   -4.0481   -0.2854   -1.0908 C   0  0  0  0  0  0  0  0  0  0  0  0
   -3.4648   -0.9465    0.0339 C   0  0  0  0  0  0  0  0  0  0  0  0
   -1.4341   -2.3351   -2.1783 C   0  0  0  0  0  0  0  0  0  0  0  0
    0.6201   -2.9787   -1.0167 H   0  0  0  0  0  0  0  0  0  0  0  0
    2.5309   -4.1190   -0.5261 H   0  0  0  0  0  0  0  0  0  0  0  0
    5.0138   -4.2471   -0.2318 H   0  0  0  0  0  0  0  0  0  0  0  0
    6.3572   -2.1134   -0.2037 H   0  0  0  0  0  0  0  0  0  0  0  0
    5.2203    0.1001   -0.4621 H   0  0  0  0  0  0  0  0  0  0  0  0
   -1.4927   -0.2610   -1.6844 H   0  0  0  0  0  0  0  0  0  0  0  0
   -0.5471   -2.3135    1.2422 H   0  0  0  0  0  0  0  0  0  0  0  0
   -1.9883   -2.6954    3.2401 H   0  0  0  0  0  0  0  0  0  0  0  0
   -4.3797   -1.9521    3.2294 H   0  0  0  0  0  0  0  0  0  0  0  0
   -6.2678   -0.8885    2.0764 H   0  0  0  0  0  0  0  0  0  0  0  0
   -7.2295    0.2533    0.0725 H   0  0  0  0  0  0  0  0  0  0  0  0
   -5.7918    0.6448   -1.9538 H   0  0  0  0  0  0  0  0  0  0  0  0
   -3.4421   -0.0993   -1.9887 H   0  0  0  0  0  0  0  0  0  0  0  0
   -0.7856   -2.1854   -3.0637 H   0  0  0  0  0  0  0  0  0  0  0  0
   -1.2497   -3.3378   -1.7448 H   0  0  0  0  0  0  0  0  0  0  0  0
   -2.4908   -2.3199   -2.5082 H   0  0  0  0  0  0  0  0  0  0  0  0
  1  9  1  0  0  0  0
  3  2  1  0  0  0  0
  3  4  1  0  0  0  0
  4  9  2  0  0  0  0
  4  5  1  0  0  0  0
  5  6  2  0  0  0  0
  6  7  1  0  0  0  0
  6 24  1  0  0  0  0
  7 25  1  0  0  0  0
  8  7  2  0  0  0  0
  9  8  1  0  0  0  0
 10 27  1  6  0  0  0
 10  2  1  0  0  0  0
 10 11  1  0  0  0  0
 11 12  1  0  0  0  0
 12 28  1  0  0  0  0
 12 13  2  0  0  0  0
 13 29  1  0  0  0  0
 14 13  1  0  0  0  0
 14 30  1  0  0  0  0
 15 14  2  0  0  0  0
 16 15  1  0  0  0  0
 16 31  1  0  0  0  0
 17 32  1  0  0  0  0
 17 16  2  0  0  0  0
 18 17  1  0  0  0  0
 19 18  2  0  0  0  0
 19 20  1  0  0  0  0
 20 11  2  0  0  0  0
 20 15  1  0  0  0  0
 21 36  1  0  0  0  0
 21 10  1  0  0  0  0
 22  3  1  0  0  0  0
 23  5  1  0  0  0  0
 26  8  1  0  0  0  0
 33 18  1  0  0  0  0
 34 19  1  0  0  0  0
 35 21  1  0  0  0  0
 37 21  1  0  0  0  0
M  CHG  1   1  -1
M  END
