1,2
 OpenBabel05122313063D

 32 33  0  0  1  0  0  0  0  0999 V2000
    0.0298    1.4685   -0.2937 N   0  0  0  0  0  2  0  0  0  0  0  0
   -1.8729    0.2048    1.1616 O   0  5  0  0  0  0  0  0  0  0  0  0
   -1.9684    3.8560   -2.1280 F   0  0  0  0  0  0  0  0  0  0  0  0
    0.1405    4.0297   -1.6560 F   0  0  0  0  0  0  0  0  0  0  0  0
   -0.5459    2.5021   -3.0665 F   0  0  0  0  0  0  0  0  0  0  0  0
   -3.6552   -0.1376    3.0272 F   0  0  0  0  0  0  0  0  0  0  0  0
   -4.9239    1.2563   -1.3458 F   0  0  0  0  0  0  0  0  0  0  0  0
    1.8018    1.0460   -1.9574 C   0  0  0  0  0  0  0  0  0  0  0  0
    1.1246    0.3804   -2.5092 H   0  0  0  0  0  0  0  0  0  0  0  0
    3.1265    1.2200   -2.3861 C   0  0  0  0  0  0  0  0  0  0  0  0
    3.4756    0.6922   -3.2858 H   0  0  0  0  0  0  0  0  0  0  0  0
    4.0034    2.0427   -1.6648 C   0  0  0  0  0  0  0  0  0  0  0  0
    5.0435    2.1709   -1.9996 H   0  0  0  0  0  0  0  0  0  0  0  0
    3.5503    2.6891   -0.5022 C   0  0  0  0  0  0  0  0  0  0  0  0
    4.2346    3.3269    0.0776 H   0  0  0  0  0  0  0  0  0  0  0  0
    2.2326    2.5183   -0.0633 C   0  0  0  0  0  0  0  0  0  0  0  0
    1.8709    2.9905    0.8604 H   0  0  0  0  0  0  0  0  0  0  0  0
    1.3475    1.7031   -0.7988 C   0  0  0  0  0  0  0  0  0  0  0  0
   -1.0201    2.1181   -0.7648 C   0  0  2  0  0  3  0  0  0  0  0  0
   -2.3692    1.9152   -0.3612 C   0  0  0  0  0  0  0  0  0  0  0  0
   -3.1402    2.5166   -0.8456 H   0  0  0  0  0  0  0  0  0  0  0  0
   -2.7547    0.9240    0.5396 C   0  0  0  0  0  0  0  0  0  0  0  0
   -4.1715    0.5874    0.8179 C   0  0  0  0  0  0  0  0  0  0  0  0
   -4.5574    0.0047    2.0547 C   0  0  0  0  0  0  0  0  0  0  0  0
   -5.8667   -0.4133    2.3151 C   0  0  0  0  0  0  0  0  0  0  0  0
   -6.0923   -0.8485    3.2981 H   0  0  0  0  0  0  0  0  0  0  0  0
   -6.8452   -0.2590    1.3249 C   0  0  0  0  0  0  0  0  0  0  0  0
   -7.8766   -0.5875    1.5196 H   0  0  0  0  0  0  0  0  0  0  0  0
   -6.5194    0.3155    0.0885 C   0  0  0  0  0  0  0  0  0  0  0  0
   -7.2609    0.4455   -0.7113 H   0  0  0  0  0  0  0  0  0  0  0  0
   -5.2058    0.7298   -0.1396 C   0  0  0  0  0  0  0  0  0  0  0  0
   -0.8407    3.1447   -1.9078 C   0  0  0  0  0  0  0  0  0  0  0  0
  3 32  1  0  0  0  0
  5 32  1  0  0  0  0
  7 31  1  0  0  0  0
  8 18  1  0  0  0  0
  9  8  1  0  0  0  0
 10  8  2  0  0  0  0
 10 12  1  0  0  0  0
 11 10  1  0  0  0  0
 12 14  2  0  0  0  0
 13 12  1  0  0  0  0
 14 16  1  0  0  0  0
 14 15  1  0  0  0  0
 16 17  1  0  0  0  0
 18  1  1  0  0  0  0
 18 16  2  0  0  0  0
 19 20  1  6  0  0  0
 19  1  1  0  0  0  0
 20 22  2  0  0  0  0
 21 20  1  0  0  0  0
 22 23  1  0  0  0  0
 22  2  1  0  0  0  0
 23 24  1  0  0  0  0
 24 25  2  0  0  0  0
 24  6  1  0  0  0  0
 25 26  1  0  0  0  0
 27 28  1  0  0  0  0
 27 25  1  0  0  0  0
 29 27  2  0  0  0  0
 30 29  1  0  0  0  0
 31 29  1  0  0  0  0
 31 23  2  0  0  0  0
 32  4  1  0  0  0  0
 32 19  1  0  0  0  0
M  CHG  1   2  -1
M  END
