1,2
 OpenBabel05122313063D

 49 51  0  0  1  0  0  0  0  0999 V2000
   -0.5627   -1.2430    0.6394 O   0  0  0  0  0  1  0  0  0  0  0  0
    1.4256    0.7716   -0.6179 N   0  0  0  0  0  2  0  0  0  0  0  0
    2.5027    1.6688   -0.8141 C   0  0  0  0  0  0  0  0  0  0  0  0
    3.8225    1.1864   -0.9841 C   0  0  0  0  0  0  0  0  0  0  0  0
    4.9098    2.0536   -1.1495 C   0  0  0  0  0  0  0  0  0  0  0  0
    4.6971    3.4394   -1.1608 C   0  0  0  0  0  0  0  0  0  0  0  0
    3.3964    3.9323   -0.9803 C   0  0  0  0  0  0  0  0  0  0  0  0
    2.2886    3.0821   -0.7951 C   0  0  0  0  0  0  0  0  0  0  0  0
    0.9322    3.6673   -0.4976 C   0  0  0  0  0  0  0  0  0  0  0  0
    0.3727    0.8821   -1.5391 C   0  0  0  0  0  0  0  0  0  0  0  0
   -0.9608    0.8506   -1.2507 C   0  0  0  0  0  0  0  0  0  0  0  0
   -1.5415    0.8774    0.1290 C   0  0  1  0  0  0  0  0  0  0  0  0
   -2.7578    1.7786    0.2199 C   0  0  0  0  0  0  0  0  0  0  0  0
   -3.8555    1.6451   -0.6573 C   0  0  0  0  0  0  0  0  0  0  0  0
   -4.9783    2.4764   -0.5349 C   0  0  0  0  0  0  0  0  0  0  0  0
   -5.0272    3.4613    0.4646 C   0  0  0  0  0  0  0  0  0  0  0  0
   -3.9402    3.6106    1.3396 C   0  0  0  0  0  0  0  0  0  0  0  0
   -2.8192    2.7763    1.2147 C   0  0  0  0  0  0  0  0  0  0  0  0
   -1.7869   -0.5823    0.7650 C   0  0  1  0  0  0  0  0  0  0  0  0
   -2.8740   -1.3306   -0.0128 C   0  0  0  0  0  0  0  0  0  0  0  0
   -2.5438   -1.9507   -1.2343 C   0  0  0  0  0  0  0  0  0  0  0  0
   -3.5203   -2.5899   -2.0110 C   0  0  0  0  0  0  0  0  0  0  0  0
   -4.8551   -2.6263   -1.5758 C   0  0  0  0  0  0  0  0  0  0  0  0
   -5.1966   -2.0195   -0.3585 C   0  0  0  0  0  0  0  0  0  0  0  0
   -4.2158   -1.3776    0.4146 C   0  0  0  0  0  0  0  0  0  0  0  0
   -2.1363   -0.4325    2.2516 C   0  0  0  0  0  0  0  0  0  0  0  0
    3.9867    0.1002   -0.9851 H   0  0  0  0  0  0  0  0  0  0  0  0
    5.9225    1.6420   -1.2792 H   0  0  0  0  0  0  0  0  0  0  0  0
    5.5389    4.1349   -1.2963 H   0  0  0  0  0  0  0  0  0  0  0  0
    3.2274    5.0211   -0.9576 H   0  0  0  0  0  0  0  0  0  0  0  0
    0.2127    3.5369   -1.3310 H   0  0  0  0  0  0  0  0  0  0  0  0
    0.4707    3.1621    0.3759 H   0  0  0  0  0  0  0  0  0  0  0  0
    1.0102    4.7492   -0.2771 H   0  0  0  0  0  0  0  0  0  0  0  0
    0.6726    1.0194   -2.5998 H   0  0  0  0  0  0  0  0  0  0  0  0
   -1.6536    0.8875   -2.1050 H   0  0  0  0  0  0  0  0  0  0  0  0
   -0.7542    1.2863    0.8000 H   0  0  0  0  0  0  0  0  0  0  0  0
   -3.8368    0.8757   -1.4428 H   0  0  0  0  0  0  0  0  0  0  0  0
   -5.8244    2.3516   -1.2279 H   0  0  0  0  0  0  0  0  0  0  0  0
   -5.9086    4.1139    0.5581 H   0  0  0  0  0  0  0  0  0  0  0  0
   -3.9623    4.3839    2.1228 H   0  0  0  0  0  0  0  0  0  0  0  0
   -1.9668    2.8990    1.9020 H   0  0  0  0  0  0  0  0  0  0  0  0
   -1.5007   -1.9192   -1.5680 H   0  0  0  0  0  0  0  0  0  0  0  0
   -3.2360   -3.0659   -2.9623 H   0  0  0  0  0  0  0  0  0  0  0  0
   -5.6245   -3.1288   -2.1818 H   0  0  0  0  0  0  0  0  0  0  0  0
   -6.2385   -2.0411   -0.0037 H   0  0  0  0  0  0  0  0  0  0  0  0
   -4.5131   -0.8972    1.3564 H   0  0  0  0  0  0  0  0  0  0  0  0
   -2.2994   -1.4293    2.7057 H   0  0  0  0  0  0  0  0  0  0  0  0
   -1.3008    0.0630    2.7799 H   0  0  0  0  0  0  0  0  0  0  0  0
   -3.0416    0.1831    2.4075 H   0  0  0  0  0  0  0  0  0  0  0  0
  3  8  1  0  0  0  0
  3  2  1  0  0  0  0
  4  3  2  0  0  0  0
  5  4  1  0  0  0  0
  6  5  2  0  0  0  0
  6  7  1  0  0  0  0
  7 30  1  0  0  0  0
  7  8  2  0  0  0  0
  8  9  1  0  0  0  0
  9 33  1  0  0  0  0
  9 32  1  0  0  0  0
 10 11  2  0  0  0  0
 10  2  1  0  0  0  0
 11 12  1  0  0  0  0
 12 13  1  0  0  0  0
 12 19  1  0  0  0  0
 12 36  1  1  0  0  0
 13 18  1  0  0  0  0
 14 15  1  0  0  0  0
 14 13  2  0  0  0  0
 15 16  2  0  0  0  0
 16 39  1  0  0  0  0
 16 17  1  0  0  0  0
 17 40  1  0  0  0  0
 18 17  2  0  0  0  0
 18 41  1  0  0  0  0
 19  1  1  6  0  0  0
 19 26  1  0  0  0  0
 20 25  1  0  0  0  0
 20 19  1  0  0  0  0
 21 20  2  0  0  0  0
 22 23  2  0  0  0  0
 22 21  1  0  0  0  0
 23 24  1  0  0  0  0
 24 45  1  0  0  0  0
 24 25  2  0  0  0  0
 25 46  1  0  0  0  0
 26 49  1  0  0  0  0
 26 47  1  0  0  0  0
 26 48  1  0  0  0  0
 27  4  1  0  0  0  0
 28  5  1  0  0  0  0
 29  6  1  0  0  0  0
 31  9  1  0  0  0  0
 34 10  1  0  0  0  0
 35 11  1  0  0  0  0
 37 14  1  0  0  0  0
 38 15  1  0  0  0  0
 42 21  1  0  0  0  0
 43 22  1  0  0  0  0
 44 23  1  0  0  0  0
M  END
