1,2
 OpenBabel05122313063D

 40 41  0  0  0  0  0  0  0  0999 V2000
    1.8680    0.8769   -0.0837 O   0  5  0  0  0  0  0  0  0  0  0  0
    0.1642   -0.7561   -1.3602 N   0  0  0  0  0  2  0  0  0  0  0  0
    2.8831    0.1855   -0.5517 C   0  0  0  0  0  0  0  0  0  0  0  0
    4.2313    0.6410   -0.3916 C   0  0  0  0  0  0  0  0  0  0  0  0
    5.2437   -0.2263   -0.8247 C   0  0  0  0  0  0  0  0  0  0  0  0
    6.2906    0.0827   -0.6941 H   0  0  0  0  0  0  0  0  0  0  0  0
    5.0107   -1.4847   -1.4377 C   0  0  0  0  0  0  0  0  0  0  0  0
    3.6887   -1.8563   -1.6722 C   0  0  0  0  0  0  0  0  0  0  0  0
    3.4606   -2.7992   -2.1957 H   0  0  0  0  0  0  0  0  0  0  0  0
    2.6161   -1.0309   -1.2530 C   0  0  0  0  0  0  0  0  0  0  0  0
    1.2728   -1.4094   -1.6066 C   0  0  0  0  0  3  0  0  0  0  0  0
    1.1901   -2.3453   -2.1990 H   0  0  0  0  0  0  0  0  0  0  0  0
   -1.0502   -1.3424   -1.8119 C   0  0  0  0  0  0  0  0  0  0  0  0
   -1.9521   -0.5774   -2.5782 C   0  0  0  0  0  0  0  0  0  0  0  0
   -1.6803    0.4549   -2.8373 H   0  0  0  0  0  0  0  0  0  0  0  0
   -3.1675   -1.1402   -2.9847 C   0  0  0  0  0  0  0  0  0  0  0  0
   -3.8642   -0.5387   -3.5876 H   0  0  0  0  0  0  0  0  0  0  0  0
   -3.5047   -2.4568   -2.6271 C   0  0  0  0  0  0  0  0  0  0  0  0
   -4.4700   -2.8842   -2.9366 H   0  0  0  0  0  0  0  0  0  0  0  0
   -2.6046   -3.2217   -1.8712 C   0  0  0  0  0  0  0  0  0  0  0  0
   -2.8597   -4.2518   -1.5799 H   0  0  0  0  0  0  0  0  0  0  0  0
   -1.3799   -2.6710   -1.4688 C   0  0  0  0  0  0  0  0  0  0  0  0
   -0.6804   -3.2591   -0.8566 H   0  0  0  0  0  0  0  0  0  0  0  0
    4.5307    2.0496    0.1527 C   0  0  0  0  0  0  0  0  0  0  0  0
    6.0447    2.3233    0.2079 C   0  0  0  0  0  0  0  0  0  0  0  0
    6.5693    1.6267    0.8938 H   0  0  0  0  0  0  0  0  0  0  0  0
    6.2162    3.3513    0.5844 H   0  0  0  0  0  0  0  0  0  0  0  0
    6.5208    2.2538   -0.7912 H   0  0  0  0  0  0  0  0  0  0  0  0
    3.8886    3.0857   -0.8037 C   0  0  0  0  0  0  0  0  0  0  0  0
    4.3176    2.9984   -1.8227 H   0  0  0  0  0  0  0  0  0  0  0  0
    4.0881    4.1127   -0.4342 H   0  0  0  0  0  0  0  0  0  0  0  0
    2.7925    2.9561   -0.8770 H   0  0  0  0  0  0  0  0  0  0  0  0
    3.9620    2.2397    1.5769 C   0  0  0  0  0  0  0  0  0  0  0  0
    2.8594    2.1702    1.5947 H   0  0  0  0  0  0  0  0  0  0  0  0
    4.2428    3.2444    1.9549 H   0  0  0  0  0  0  0  0  0  0  0  0
    4.3806    1.4853    2.2729 H   0  0  0  0  0  0  0  0  0  0  0  0
    6.1711   -2.3607   -1.8362 C   0  0  0  0  0  0  0  0  0  0  0  0
    5.8340   -3.2596   -2.3877 H   0  0  0  0  0  0  0  0  0  0  0  0
    6.7392   -2.7056   -0.9462 H   0  0  0  0  0  0  0  0  0  0  0  0
    6.8902   -1.8151   -2.4820 H   0  0  0  0  0  0  0  0  0  0  0  0
  3  4  1  0  0  0  0
  3  1  1  0  0  0  0
  4 24  1  0  0  0  0
  5  6  1  0  0  0  0
  5  4  2  0  0  0  0
  7  5  1  0  0  0  0
  8  7  2  0  0  0  0
  8 10  1  0  0  0  0
  9  8  1  0  0  0  0
 10  3  2  0  0  0  0
 11  2  1  0  0  0  0
 11 10  1  0  0  0  0
 12 11  1  0  0  0  0
 13 22  1  0  0  0  0
 13  2  1  0  0  0  0
 14 13  2  0  0  0  0
 15 14  1  0  0  0  0
 16 18  2  0  0  0  0
 16 14  1  0  0  0  0
 17 16  1  0  0  0  0
 18 20  1  0  0  0  0
 19 18  1  0  0  0  0
 20 21  1  0  0  0  0
 20 22  2  0  0  0  0
 22 23  1  0  0  0  0
 24 25  1  0  0  0  0
 24 33  1  0  0  0  0
 25 27  1  0  0  0  0
 25 26  1  0  0  0  0
 28 25  1  0  0  0  0
 29 31  1  0  0  0  0
 29 24  1  0  0  0  0
 30 29  1  0  0  0  0
 32 29  1  0  0  0  0
 33 34  1  0  0  0  0
 33 35  1  0  0  0  0
 33 36  1  0  0  0  0
 37  7  1  0  0  0  0
 37 39  1  0  0  0  0
 38 37  1  0  0  0  0
 40 37  1  0  0  0  0
M  CHG  1   1  -1
M  END
