1,8
 OpenBabel05122313063D

 27 28  0  0  1  0  0  0  0  0999 V2000
    1.8301    1.3599   -0.0003 N   0  0  0  0  0  2  0  0  0  0  0  0
    2.6861    2.3923   -0.0004 C   0  0  0  0  0  3  0  0  0  0  0  0
    2.2394    3.7210   -0.0004 C   0  0  0  0  0  0  0  0  0  0  0  0
    0.8616    3.9729   -0.0003 C   0  0  0  0  0  0  0  0  0  0  0  0
   -0.0264    2.8878   -0.0003 C   0  0  0  0  0  0  0  0  0  0  0  0
    0.4974    1.5853   -0.0002 C   0  0  0  0  0  0  0  0  0  0  0  0
   -0.3081    0.3173   -0.0002 C   0  0  1  0  0  3  0  0  0  0  0  0
    0.2826   -0.7705   -0.0000 O   0  0  0  0  0  1  0  0  0  0  0  0
   -1.6657    0.4519   -0.0001 N   0  0  0  0  0  0  0  0  0  0  0  0
   -2.6380   -0.5439   -0.0001 C   0  0  0  0  0  0  0  0  0  0  0  0
   -2.3216   -1.9245   -0.0003 C   0  0  0  0  0  0  0  0  0  0  0  0
   -3.3358   -2.8849   -0.0004 C   0  0  0  0  0  0  0  0  0  0  0  0
   -4.6934   -2.5141   -0.0003 C   0  0  0  0  0  0  0  0  0  0  0  0
   -5.0303   -1.1617   -0.0001 C   0  0  0  0  0  0  0  0  0  0  0  0
   -4.0232   -0.1798    0.0000 C   0  0  0  0  0  0  0  0  0  0  0  0
   -4.4811    1.2185    0.0004 N   0  0  0  0  0  0  0  0  0  0  0  0
   -3.6261    2.1348    0.0008 O   0  0  0  0  0  0  0  0  0  0  0  0
   -5.6842    1.4406    0.0001 O   0  0  0  0  0  0  0  0  0  0  0  0
    3.7542    2.1264   -0.0005 H   0  0  0  0  0  0  0  0  0  0  0  0
    2.9712    4.5412   -0.0004 H   0  0  0  0  0  0  0  0  0  0  0  0
    0.4765    5.0030   -0.0003 H   0  0  0  0  0  0  0  0  0  0  0  0
   -1.1109    3.0703   -0.0004 H   0  0  0  0  0  0  0  0  0  0  0  0
   -2.1027    1.3941    0.0000 H   0  0  0  0  0  0  0  0  0  0  0  0
   -6.0734   -0.8206    0.0000 H   0  0  0  0  0  0  0  0  0  0  0  0
   -5.4840   -3.2777   -0.0003 H   0  0  0  0  0  0  0  0  0  0  0  0
   -3.0556   -3.9488   -0.0005 H   0  0  0  0  0  0  0  0  0  0  0  0
   -1.2649   -2.2158   -0.0004 H   0  0  0  0  0  0  0  0  0  0  0  0
  1  6  1  0  0  0  0
  2  1  1  0  0  0  0
  3  2  1  0  0  0  0
  3  4  2  0  0  0  0
  4 21  1  0  0  0  0
  4  5  1  0  0  0  0
  5  6  2  0  0  0  0
  6  7  1  0  0  0  0
  7  9  1  0  0  0  0
  7  8  1  1  0  0  0
  9 23  1  0  0  0  0
 10  9  1  0  0  0  0
 10 15  1  0  0  0  0
 11 10  2  0  0  0  0
 12 11  1  0  0  0  0
 12 13  2  0  0  0  0
 13 14  1  0  0  0  0
 14 24  1  0  0  0  0
 14 15  2  0  0  0  0
 15 16  1  0  0  0  0
 16 17  2  0  0  0  0
 18 16  2  0  0  0  0
 19  2  1  0  0  0  0
 20  3  1  0  0  0  0
 22  5  1  0  0  0  0
 25 13  1  0  0  0  0
 26 12  1  0  0  0  0
 27 11  1  0  0  0  0
M  END
