1,3
 OpenBabel05122313063D

 34 35  0  0  1  0  0  0  0  0999 V2000
    1.5912   -0.4535   -1.3457 O   0  0  0  0  0  1  0  0  0  0  0  0
   -2.2918   -0.2772   -0.7300 N   0  0  0  0  0  0  0  0  0  0  0  0
   -0.0405    0.9790   -0.1805 N   0  0  0  0  0  2  0  0  0  0  0  0
    2.1490    0.5490   -0.6875 N   0  0  0  0  0  0  0  0  0  0  0  0
   -3.3647   -1.0694   -0.8030 C   0  0  0  0  0  0  0  0  0  0  0  0
   -4.6298   -0.6837   -0.3264 C   0  0  0  0  0  0  0  0  0  0  0  0
   -4.7673    0.5840    0.2545 C   0  0  0  0  0  0  0  0  0  0  0  0
   -3.6426    1.4162    0.3440 C   0  0  0  0  0  0  0  0  0  0  0  0
   -2.4179    0.9392   -0.1548 C   0  0  0  0  0  0  0  0  0  0  0  0
   -1.1554    1.7218   -0.1017 C   0  0  2  0  0  3  0  0  0  0  0  0
   -1.0543    3.1257   -0.0296 C   0  0  0  0  0  0  0  0  0  0  0  0
    0.2163    3.7127   -0.1273 C   0  0  0  0  0  0  0  0  0  0  0  0
    1.3576    2.9213   -0.3334 C   0  0  0  0  0  0  0  0  0  0  0  0
    1.1871    1.5265   -0.3644 C   0  0  0  0  0  0  0  0  0  0  0  0
    3.3022    0.1997    0.2279 C   0  0  0  0  0  0  0  0  0  0  0  0
    2.7267   -0.4247    1.5135 C   0  0  0  0  0  0  0  0  0  0  0  0
    4.1650   -0.8188   -0.5246 C   0  0  0  0  0  0  0  0  0  0  0  0
    4.1001    1.4703    0.5433 C   0  0  0  0  0  0  0  0  0  0  0  0
   -3.2028   -2.0638   -1.2521 H   0  0  0  0  0  0  0  0  0  0  0  0
   -5.4848   -1.3707   -0.4055 H   0  0  0  0  0  0  0  0  0  0  0  0
   -5.7382    0.9187    0.6492 H   0  0  0  0  0  0  0  0  0  0  0  0
   -3.7106    2.4034    0.8232 H   0  0  0  0  0  0  0  0  0  0  0  0
   -1.9558    3.7454    0.0672 H   0  0  0  0  0  0  0  0  0  0  0  0
    0.3160    4.8080   -0.1003 H   0  0  0  0  0  0  0  0  0  0  0  0
    2.3386    3.3710   -0.5248 H   0  0  0  0  0  0  0  0  0  0  0  0
    3.5543   -0.6684    2.2094 H   0  0  0  0  0  0  0  0  0  0  0  0
    2.0285    0.2621    2.0323 H   0  0  0  0  0  0  0  0  0  0  0  0
    2.1779   -1.3623    1.2919 H   0  0  0  0  0  0  0  0  0  0  0  0
    3.5675   -1.7157   -0.7716 H   0  0  0  0  0  0  0  0  0  0  0  0
    4.5628   -0.3866   -1.4643 H   0  0  0  0  0  0  0  0  0  0  0  0
    5.0174   -1.1169    0.1164 H   0  0  0  0  0  0  0  0  0  0  0  0
    4.4347    1.9783   -0.3835 H   0  0  0  0  0  0  0  0  0  0  0  0
    5.0017    1.1889    1.1212 H   0  0  0  0  0  0  0  0  0  0  0  0
    3.5238    2.1837    1.1643 H   0  0  0  0  0  0  0  0  0  0  0  0
  1  4  1  0  0  0  0
  2  9  1  0  0  0  0
  3 10  1  0  0  0  0
  4 14  1  0  0  0  0
  4 15  1  0  0  0  0
  5  2  2  0  0  0  0
  5  6  1  0  0  0  0
  6  7  2  0  0  0  0
  7  8  1  0  0  0  0
  7 21  1  0  0  0  0
  8 22  1  0  0  0  0
  9  8  2  0  0  0  0
 10  9  1  6  0  0  0
 10 11  1  0  0  0  0
 11 23  1  0  0  0  0
 12 24  1  0  0  0  0
 12 11  2  0  0  0  0
 13 12  1  0  0  0  0
 14 13  2  0  0  0  0
 14  3  1  0  0  0  0
 15 18  1  0  0  0  0
 15 16  1  0  0  0  0
 16 27  1  0  0  0  0
 16 26  1  0  0  0  0
 17 31  1  0  0  0  0
 17 15  1  0  0  0  0
 18 33  1  0  0  0  0
 18 34  1  0  0  0  0
 19  5  1  0  0  0  0
 20  6  1  0  0  0  0
 25 13  1  0  0  0  0
 28 16  1  0  0  0  0
 29 17  1  0  0  0  0
 30 17  1  0  0  0  0
 32 18  1  0  0  0  0
M  END
