1,2
 OpenBabel05122313063D

 24 24  0  0  1  0  0  0  0  0999 V2000
    1.6392    1.1439   -0.1936 O   0  0  0  0  0  1  0  0  0  0  0  0
    1.1178   -1.7138    0.0899 N   0  0  0  0  0  2  0  0  0  0  0  0
    0.4096   -3.0187    0.0836 C   0  0  0  0  0  0  0  0  0  0  0  0
   -0.5232   -2.8351    0.6491 H   0  0  0  0  0  0  0  0  0  0  0  0
    1.1665   -4.1629    0.7614 C   0  0  0  0  0  0  0  0  0  0  0  0
    1.5152   -3.8804    1.7751 H   0  0  0  0  0  0  0  0  0  0  0  0
    0.4813   -5.0268    0.8678 H   0  0  0  0  0  0  0  0  0  0  0  0
    2.0392   -4.5175    0.1741 H   0  0  0  0  0  0  0  0  0  0  0  0
    0.0061   -3.3623   -1.3554 C   0  0  0  0  0  0  0  0  0  0  0  0
   -0.5864   -2.5381   -1.7958 H   0  0  0  0  0  0  0  0  0  0  0  0
    0.9032   -3.5343   -1.9865 H   0  0  0  0  0  0  0  0  0  0  0  0
   -0.6134   -4.2815   -1.3716 H   0  0  0  0  0  0  0  0  0  0  0  0
    2.4242   -1.7073    0.0904 C   0  0  0  0  0  0  0  0  0  0  0  0
    2.9306   -2.6892    0.1446 H   0  0  0  0  0  0  0  0  0  0  0  0
    3.3267   -0.5915    0.0247 C   0  0  0  0  0  0  0  0  0  0  0  0
    2.8868    0.7716   -0.1214 C   0  0  1  0  0  3  0  0  0  0  0  0
    3.8915    1.7865   -0.2015 C   0  0  0  0  0  0  0  0  0  0  0  0
    3.5487    2.8253   -0.3151 H   0  0  0  0  0  0  0  0  0  0  0  0
    5.2440    1.4747   -0.1339 C   0  0  0  0  0  0  0  0  0  0  0  0
    5.9869    2.2856   -0.1958 H   0  0  0  0  0  0  0  0  0  0  0  0
    5.6777    0.1345    0.0123 C   0  0  0  0  0  0  0  0  0  0  0  0
    6.7494   -0.1045    0.0641 H   0  0  0  0  0  0  0  0  0  0  0  0
    4.7225   -0.8707    0.0868 C   0  0  0  0  0  0  0  0  0  0  0  0
    5.0355   -1.9219    0.1962 H   0  0  0  0  0  0  0  0  0  0  0  0
  2 13  1  0  0  0  0
  3  2  1  0  0  0  0
  3  4  1  0  0  0  0
  3  5  1  0  0  0  0
  5  7  1  0  0  0  0
  5  6  1  0  0  0  0
  8  5  1  0  0  0  0
  9  3  1  0  0  0  0
 10  9  1  0  0  0  0
 11  9  1  0  0  0  0
 12  9  1  0  0  0  0
 13 14  1  0  0  0  0
 15 23  1  0  0  0  0
 15 13  2  0  0  0  0
 16  1  1  6  0  0  0
 16 15  1  0  0  0  0
 17 19  2  0  0  0  0
 17 16  1  0  0  0  0
 18 17  1  0  0  0  0
 19 21  1  0  0  0  0
 20 19  1  0  0  0  0
 21 22  1  0  0  0  0
 21 23  2  0  0  0  0
 23 24  1  0  0  0  0
M  END
