1,6
 OpenBabel05122313063D

 14 13  0  0  0  0  0  0  0  0999 V2000
    0.9525    0.5847   -0.6834 O   0  5  0  0  0  0  0  0  0  0  0  0
    0.9547   -0.7787   -2.5195 O   0  0  0  0  0  0  0  0  0  0  0  0
    1.4594   -0.3913   -1.4619 C   0  0  0  0  0  0  0  0  0  0  0  0
    2.5926   -0.9458   -0.9159 N   0  0  0  0  0  0  0  0  0  0  0  0
    3.0393   -1.6980   -1.4428 H   0  0  0  0  0  0  0  0  0  0  0  0
    0.9396   -0.2498    1.8122 N   0  0  0  0  0  0  0  0  0  0  0  0
    0.5476   -0.5282    2.7250 H   0  0  0  0  0  0  0  0  0  0  0  0
    1.2318    0.7347    1.9315 H   0  0  0  0  0  0  0  0  0  0  0  0
    3.0652   -0.6105    0.4099 C   0  0  0  0  0  0  0  0  0  0  0  0
    3.2479    0.4834    0.4917 H   0  0  0  0  0  0  0  0  0  0  0  0
    4.0480   -1.1025    0.5511 H   0  0  0  0  0  0  0  0  0  0  0  0
    2.1786   -1.0640    1.5851 C   0  0  0  0  0  0  0  0  0  0  0  0
    1.8678   -2.1180    1.4429 H   0  0  0  0  0  0  0  0  0  0  0  0
    2.7965   -1.0155    2.5076 H   0  0  0  0  0  0  0  0  0  0  0  0
  2  3  2  0  0  0  0
  3  4  1  0  0  0  0
  3  1  1  0  0  0  0
  4  9  1  0  0  0  0
  5  4  1  0  0  0  0
  6  8  1  0  0  0  0
  6  7  1  0  0  0  0
  9 10  1  0  0  0  0
  9 11  1  0  0  0  0
  9 12  1  0  0  0  0
 12  6  1  0  0  0  0
 12 14  1  0  0  0  0
 13 12  1  0  0  0  0
M  CHG  1   1  -1
M  END
