1,2
 OpenBabel05122313063D

 37 39  0  0  0  0  0  0  0  0999 V2000
   -1.2447    3.6343   -1.0587 O   0  5  0  0  0  0  0  0  0  0  0  0
    0.6303    1.3757   -1.4697 N   0  0  0  0  0  2  0  0  0  0  0  0
   -1.5533    3.3896   -2.2978 C   0  0  0  0  0  0  0  0  0  0  0  0
    1.7246    0.5211   -1.2377 C   0  0  0  0  0  0  0  0  0  0  0  0
   -0.9770    2.3174   -3.0984 C   0  0  0  0  0  0  0  0  0  0  0  0
    0.0528    1.4282   -2.6556 C   0  0  0  0  0  3  0  0  0  0  0  0
    0.3889    0.6946   -3.4178 H   0  0  0  0  0  0  0  0  0  0  0  0
   -1.4333    2.1315   -4.4418 C   0  0  0  0  0  0  0  0  0  0  0  0
   -0.9855    1.3125   -5.0282 H   0  0  0  0  0  0  0  0  0  0  0  0
   -2.5411    4.2127   -2.9284 C   0  0  0  0  0  0  0  0  0  0  0  0
   -2.9639    5.0246   -2.3190 H   0  0  0  0  0  0  0  0  0  0  0  0
    4.9640   -2.0374   -0.2864 N   0  0  0  0  0  0  0  0  0  0  0  0
    2.6297    0.1354   -2.2632 C   0  0  0  0  0  0  0  0  0  0  0  0
    2.5072    0.5386   -3.2794 H   0  0  0  0  0  0  0  0  0  0  0  0
   -2.4000    2.9432   -5.0117 C   0  0  0  0  0  0  0  0  0  0  0  0
   -2.7319    2.7787   -6.0466 H   0  0  0  0  0  0  0  0  0  0  0  0
    1.9539    0.0604    0.0800 C   0  0  0  0  0  0  0  0  0  0  0  0
    1.2682    0.3660    0.8824 H   0  0  0  0  0  0  0  0  0  0  0  0
   -2.9513    3.9963   -4.2363 C   0  0  0  0  0  0  0  0  0  0  0  0
   -3.7177    4.6528   -4.6778 H   0  0  0  0  0  0  0  0  0  0  0  0
    3.7007   -0.7077   -1.9848 C   0  0  0  0  0  0  0  0  0  0  0  0
    4.4176   -1.0077   -2.7622 H   0  0  0  0  0  0  0  0  0  0  0  0
    5.7572   -2.3645   -1.2223 N   0  0  0  0  0  0  0  0  0  0  0  0
    8.9746   -4.9297   -0.2899 C   0  0  0  0  0  0  0  0  0  0  0  0
    9.8213   -5.5978   -0.0703 H   0  0  0  0  0  0  0  0  0  0  0  0
    7.7003   -3.5994   -1.8711 C   0  0  0  0  0  0  0  0  0  0  0  0
    7.5143   -3.2031   -2.8802 H   0  0  0  0  0  0  0  0  0  0  0  0
    8.7784   -4.4497   -1.5952 C   0  0  0  0  0  0  0  0  0  0  0  0
    9.4702   -4.7404   -2.4001 H   0  0  0  0  0  0  0  0  0  0  0  0
    3.9109   -1.1864   -0.6678 C   0  0  0  0  0  0  0  0  0  0  0  0
    3.0264   -0.7855    0.3577 C   0  0  0  0  0  0  0  0  0  0  0  0
    3.2126   -1.1581    1.3754 H   0  0  0  0  0  0  0  0  0  0  0  0
    8.0882   -4.5564    0.7404 C   0  0  0  0  0  0  0  0  0  0  0  0
    8.2473   -4.9354    1.7619 H   0  0  0  0  0  0  0  0  0  0  0  0
    6.8100   -3.2236   -0.8416 C   0  0  0  0  0  0  0  0  0  0  0  0
    7.0107   -3.7092    0.4733 C   0  0  0  0  0  0  0  0  0  0  0  0
    6.3016   -3.3982    1.2532 H   0  0  0  0  0  0  0  0  0  0  0  0
  2  4  1  0  0  0  0
  3  1  1  0  0  0  0
  4 17  1  0  0  0  0
  5  6  1  0  0  0  0
  5  3  2  0  0  0  0
  6  2  1  0  0  0  0
  7  6  1  0  0  0  0
  8  5  1  0  0  0  0
  9  8  1  0  0  0  0
 10 11  1  0  0  0  0
 10  3  1  0  0  0  0
 13 21  1  0  0  0  0
 13  4  2  0  0  0  0
 14 13  1  0  0  0  0
 15  8  2  0  0  0  0
 15 19  1  0  0  0  0
 16 15  1  0  0  0  0
 17 31  2  0  0  0  0
 17 18  1  0  0  0  0
 19 10  2  0  0  0  0
 20 19  1  0  0  0  0
 21 30  2  0  0  0  0
 22 21  1  0  0  0  0
 23 35  1  0  0  0  0
 23 12  2  0  0  0  0
 24 25  1  0  0  0  0
 24 33  1  0  0  0  0
 26 28  1  0  0  0  0
 26 35  2  0  0  0  0
 27 26  1  0  0  0  0
 28 24  2  0  0  0  0
 29 28  1  0  0  0  0
 30 12  1  0  0  0  0
 30 31  1  0  0  0  0
 31 32  1  0  0  0  0
 33 34  1  0  0  0  0
 35 36  1  0  0  0  0
 36 33  2  0  0  0  0
 36 37  1  0  0  0  0
M  CHG  1   1  -1
M  END
