3,4
 OpenBabel05122313063D

 22 23  0  0  0  0  0  0  0  0999 V2000
   -3.7541    3.0107    0.6078 Br  0  0  0  0  0  0  0  0  0  0  0  0
   -7.2928   -1.3540   -0.3205 Br  0  0  0  0  0  0  0  0  0  0  0  0
   -1.6596    0.8078    0.3016 O   0  5  0  0  0  0  0  0  0  0  0  0
   -0.7519   -1.7620    0.1280 N   0  0  0  0  0  2  0  0  0  0  0  0
   -3.1116   -1.0931   -0.0128 C   0  0  0  0  0  0  0  0  0  0  0  0
   -2.8491    0.3086    0.1796 C   0  0  0  0  0  0  0  0  0  0  0  0
   -4.0064    1.1564    0.2663 C   0  0  0  0  0  0  0  0  0  0  0  0
   -5.3026    0.6708    0.1167 C   0  0  0  0  0  0  0  0  0  0  0  0
   -6.1552    1.3605    0.1777 H   0  0  0  0  0  0  0  0  0  0  0  0
   -5.5147   -0.7086   -0.1088 C   0  0  0  0  0  0  0  0  0  0  0  0
   -4.4363   -1.5828   -0.1596 C   0  0  0  0  0  3  0  0  0  0  0  0
   -4.5993   -2.6607   -0.3051 H   0  0  0  0  0  0  0  0  0  0  0  0
   -2.0309   -2.0341    0.0379 C   0  0  0  0  0  0  0  0  0  0  0  0
   -2.3203   -3.1016    0.0341 H   0  0  0  0  0  0  0  0  0  0  0  0
    0.1570   -2.8743    0.3222 C   0  0  0  0  0  0  0  0  0  0  0  0
    0.8665   -2.9871   -0.5109 H   0  0  0  0  0  0  0  0  0  0  0  0
    0.7376   -3.1105    1.6901 C   0  0  0  0  0  0  0  0  0  0  0  0
    0.3548   -2.4750    2.5042 H   0  0  0  0  0  0  0  0  0  0  0  0
    1.8104   -3.3485    1.7463 H   0  0  0  0  0  0  0  0  0  0  0  0
   -0.2294   -4.1126    1.0952 C   0  0  0  0  0  0  0  0  0  0  0  0
   -1.2303   -4.1787    1.5496 H   0  0  0  0  0  0  0  0  0  0  0  0
    0.1582   -5.0753    0.7270 H   0  0  0  0  0  0  0  0  0  0  0  0
  2 10  1  0  0  0  0
  4 15  1  0  0  0  0
  5 13  2  0  0  0  0
  5  6  1  0  0  0  0
  6  7  2  0  0  0  0
  6  3  1  0  0  0  0
  7  1  1  0  0  0  0
  8  9  1  0  0  0  0
  8  7  1  0  0  0  0
 10  8  2  0  0  0  0
 11 10  1  0  0  0  0
 11  5  1  0  0  0  0
 12 11  1  0  0  0  0
 13  4  1  0  0  0  0
 14 13  1  0  0  0  0
 15 20  1  0  0  0  0
 15 17  1  0  0  0  0
 16 15  1  0  0  0  0
 17 19  1  0  0  0  0
 17 18  1  0  0  0  0
 20 21  1  0  0  0  0
 20 17  1  0  0  0  0
 22 20  1  0  0  0  0
M  CHG  1   3  -1
M  END
