1,16
 OpenBabel05122313063D

 28 29  0  0  1  0  0  0  0  0999 V2000
    0.5519    2.3662    0.4813 N   0  0  0  0  0  2  0  0  0  0  0  0
    3.0896    1.8135   -1.0567 N   0  0  0  0  0  0  0  0  0  0  0  0
   -0.2216    4.2547    1.7546 C   0  0  0  0  0  0  0  0  0  0  0  0
   -0.7776    4.6305    2.6254 H   0  0  0  0  0  0  0  0  0  0  0  0
    1.9190    2.5376   -1.5309 C   0  0  0  0  0  0  0  0  0  0  0  0
    2.2331    3.3027   -2.2693 H   0  0  0  0  0  0  0  0  0  0  0  0
    1.2401    1.8151   -2.0386 H   0  0  0  0  0  0  0  0  0  0  0  0
   -0.1088    2.8737    1.5335 C   0  0  0  0  0  3  0  0  0  0  0  0
   -0.5702    2.1362    2.2107 H   0  0  0  0  0  0  0  0  0  0  0  0
    1.1513    3.1944   -0.3997 C   0  0  0  0  0  0  0  0  0  0  0  0
    1.0855    4.5902   -0.2490 C   0  0  0  0  0  0  0  0  0  0  0  0
    1.5802    5.2452   -0.9820 H   0  0  0  0  0  0  0  0  0  0  0  0
    0.3832    5.1272    0.8405 C   0  0  0  0  0  0  0  0  0  0  0  0
    0.3140    6.2175    0.9750 H   0  0  0  0  0  0  0  0  0  0  0  0
    3.8484    2.3541   -0.6374 H   0  0  0  0  0  0  0  0  0  0  0  0
    2.1753   -0.2898   -1.1520 O   0  0  0  0  0  1  0  0  0  0  0  0
    4.3187   -1.1383    0.6170 C   0  0  0  0  0  0  0  0  0  0  0  0
    3.3213   -1.4859    0.9322 H   0  0  0  0  0  0  0  0  0  0  0  0
    5.4903   -1.6757    1.1659 C   0  0  0  0  0  0  0  0  0  0  0  0
    5.4206   -2.4847    1.9089 H   0  0  0  0  0  0  0  0  0  0  0  0
    6.8376   -0.1410   -0.1578 C   0  0  0  0  0  0  0  0  0  0  0  0
    7.8220    0.2371   -0.4732 H   0  0  0  0  0  0  0  0  0  0  0  0
    3.1278    0.4585   -0.8768 C   0  0  2  0  0  3  0  0  0  0  0  0
    4.4065   -0.0830   -0.3143 C   0  0  0  0  0  0  0  0  0  0  0  0
    6.7485   -1.1843    0.7779 C   0  0  0  0  0  0  0  0  0  0  0  0
    7.6657   -1.6167    1.2065 H   0  0  0  0  0  0  0  0  0  0  0  0
    5.6687    0.4142   -0.6988 C   0  0  0  0  0  0  0  0  0  0  0  0
    5.7386    1.2164   -1.4505 H   0  0  0  0  0  0  0  0  0  0  0  0
  1  8  1  0  0  0  0
  2 23  1  0  0  0  0
  2 15  1  0  0  0  0
  3  4  1  0  0  0  0
  5  2  1  0  0  0  0
  5 10  1  0  0  0  0
  6  5  1  0  0  0  0
  7  5  1  0  0  0  0
  8  3  1  0  0  0  0
  8  9  1  0  0  0  0
 10 11  2  0  0  0  0
 10  1  1  0  0  0  0
 11 13  1  0  0  0  0
 12 11  1  0  0  0  0
 13 14  1  0  0  0  0
 13  3  2  0  0  0  0
 17 18  1  0  0  0  0
 17 19  1  0  0  0  0
 19 20  1  0  0  0  0
 21 25  1  0  0  0  0
 22 21  1  0  0  0  0
 23 16  1  1  0  0  0
 23 24  1  0  0  0  0
 24 17  2  0  0  0  0
 25 19  2  0  0  0  0
 25 26  1  0  0  0  0
 27 24  1  0  0  0  0
 27 21  2  0  0  0  0
 28 27  1  0  0  0  0
M  END
