28,31
 OpenBabel05122313063D

 31 33  0  0  0  0  0  0  0  0999 V2000
   -2.0338    3.6102   -0.2656 C   0  0  0  0  0  0  0  0  0  0  0  0
   -2.0438    2.2770   -0.7809 C   0  0  0  0  0  0  0  0  0  0  0  0
   -3.2880    1.6028   -0.8476 C   0  0  0  0  0  0  0  0  0  0  0  0
   -3.2762    0.5682   -1.2184 H   0  0  0  0  0  0  0  0  0  0  0  0
   -4.4821    2.2229   -0.4682 C   0  0  0  0  0  0  0  0  0  0  0  0
   -5.4326    1.6757   -0.5483 H   0  0  0  0  0  0  0  0  0  0  0  0
   -4.4550    3.5340    0.0357 C   0  0  0  0  0  0  0  0  0  0  0  0
   -5.3835    4.0313    0.3536 H   0  0  0  0  0  0  0  0  0  0  0  0
   -3.2332    4.2149    0.1450 C   0  0  0  0  0  0  0  0  0  0  0  0
   -3.2029    5.2418    0.5475 H   0  0  0  0  0  0  0  0  0  0  0  0
    0.1686    2.0455   -1.6335 C   0  0  0  0  0  0  0  0  0  0  0  0
    0.2559    3.0907   -1.9986 H   0  0  0  0  0  0  0  0  0  0  0  0
    1.3741    1.2286   -1.7486 C   0  0  0  0  0  0  0  0  0  0  0  0
    2.5543    1.7445   -2.3613 C   0  0  0  0  0  0  0  0  0  0  0  0
    2.5073    2.7353   -2.8370 H   0  0  0  0  0  0  0  0  0  0  0  0
    3.7355    1.0262   -2.3207 C   0  0  0  0  0  0  0  0  0  0  0  0
    4.6541    1.4346   -2.7702 H   0  0  0  0  0  0  0  0  0  0  0  0
    3.7819   -0.2473   -1.6761 C   0  0  0  0  0  0  0  0  0  0  0  0
    4.9387   -1.0439   -1.5116 C   0  0  0  0  0  3  0  0  0  0  0  0
    5.9016   -0.6955   -1.9120 H   0  0  0  0  0  0  0  0  0  0  0  0
    4.8383   -2.2675   -0.8326 C   0  0  0  0  0  0  0  0  0  0  0  0
    5.7467   -2.8791   -0.7079 H   0  0  0  0  0  0  0  0  0  0  0  0
    3.6248   -2.7589   -0.3149 C   0  0  0  0  0  0  0  0  0  0  0  0
    3.5737   -3.7401    0.1808 H   0  0  0  0  0  0  0  0  0  0  0  0
    2.4150   -2.0230   -0.4678 C   0  0  0  0  0  0  0  0  0  0  0  0
    2.5358   -0.7266   -1.1364 C   0  0  0  0  0  0  0  0  0  0  0  0
   -0.9054    1.5598   -1.1051 N   0  0  0  0  0  0  0  0  0  0  0  0
    1.4021    0.0110   -1.1690 N   0  0  0  0  0  2  0  0  0  0  0  0
   -0.8270    4.2460   -0.1498 O   0  0  0  0  0  0  0  0  0  0  0  0
   -0.9697    5.0830    0.3302 H   0  0  0  0  0  0  0  0  0  0  0  0
    1.2603   -2.3946   -0.0509 O   0  5  0  0  0  0  0  0  0  0  0  0
  1 29  1  0  0  0  0
  1  9  1  0  0  0  0
  2  1  2  0  0  0  0
  3  2  1  0  0  0  0
  3  5  2  0  0  0  0
  4  3  1  0  0  0  0
  5  7  1  0  0  0  0
  6  5  1  0  0  0  0
  7  9  2  0  0  0  0
  7  8  1  0  0  0  0
  9 10  1  0  0  0  0
 11 27  2  0  0  0  0
 12 11  1  0  0  0  0
 13 11  1  0  0  0  0
 13 28  1  0  0  0  0
 14 16  1  0  0  0  0
 14 13  2  0  0  0  0
 15 14  1  0  0  0  0
 16 18  2  0  0  0  0
 17 16  1  0  0  0  0
 18 19  1  0  0  0  0
 18 26  1  0  0  0  0
 19 21  1  0  0  0  0
 20 19  1  0  0  0  0
 21 22  1  0  0  0  0
 21 23  2  0  0  0  0
 23 24  1  0  0  0  0
 25 23  1  0  0  0  0
 25 31  1  0  0  0  0
 26 25  2  0  0  0  0
 27  2  1  0  0  0  0
 28 26  1  0  0  0  0
 29 30  1  0  0  0  0
M  CHG  1  31  -1
M  END
