5,18
 OpenBabel05122313063D

 20 21  0  0  1  0  0  0  0  0999 V2000
   -2.3089   -3.0484   -0.0103 C   0  0  0  0  0  0  0  0  0  0  0  0
   -2.5090   -4.1286   -0.0095 H   0  0  0  0  0  0  0  0  0  0  0  0
   -3.6787    1.6185   -0.0029 C   0  0  0  0  0  0  0  0  0  0  0  0
   -4.4422    2.4074    0.0005 H   0  0  0  0  0  0  0  0  0  0  0  0
   -0.0178    1.3223   -0.0056 O   0  5  0  0  0  0  0  0  0  0  0  0
   -4.0524    0.2778   -0.0076 C   0  0  0  0  0  0  0  0  0  0  0  0
   -0.9474   -2.6237   -0.0074 C   0  0  0  0  0  0  0  0  0  0  0  0
   -3.3511   -2.1427   -0.0122 C   0  0  0  0  0  0  0  0  0  0  0  0
   -4.3996   -2.4737   -0.0136 H   0  0  0  0  0  0  0  0  0  0  0  0
   -3.0675   -0.7536   -0.0102 C   0  0  0  0  0  0  0  0  0  0  0  0
    0.1294   -3.6592   -0.0000 C   0  0  0  0  0  0  0  0  0  0  0  0
   -0.3149   -4.6709   -0.0043 H   0  0  0  0  0  0  0  0  0  0  0  0
    0.7882   -3.5487    0.8838 H   0  0  0  0  0  0  0  0  0  0  0  0
    0.8046   -3.5473   -0.8710 H   0  0  0  0  0  0  0  0  0  0  0  0
   -1.2909    1.0038   -0.0053 C   0  0  0  0  0  0  0  0  0  0  0  0
   -1.6840   -0.3727   -0.0089 C   0  0  1  0  0  3  0  0  0  0  0  0
   -2.3150    1.9763   -0.0015 C   0  0  0  0  0  0  0  0  0  0  0  0
   -0.6546   -1.3065   -0.0085 N   0  0  0  0  0  2  0  0  0  0  0  0
   -1.8551    3.6526    0.0038 Cl  0  0  0  0  0  0  0  0  0  0  0  0
   -5.7483   -0.1433   -0.0096 Cl  0  0  0  0  0  0  0  0  0  0  0  0
  1  2  1  0  0  0  0
  1  7  2  0  0  0  0
  3 17  1  0  0  0  0
  3  4  1  0  0  0  0
  5 15  1  0  0  0  0
  6  3  2  0  0  0  0
  7 11  1  0  0  0  0
  8  1  1  0  0  0  0
  8 10  2  0  0  0  0
  9  8  1  0  0  0  0
 10  6  1  0  0  0  0
 11 13  1  0  0  0  0
 12 11  1  0  0  0  0
 14 11  1  0  0  0  0
 15 17  2  0  0  0  0
 16 10  1  1  0  0  0
 16 18  1  0  0  0  0
 16 15  1  0  0  0  0
 17 19  1  0  0  0  0
 18  7  1  0  0  0  0
 20  6  1  0  0  0  0
M  CHG  1   5  -1
M  END
