3,4
q = -1.0, confidence = 0.026

 32 32  0  0  0  0  0  0  0  0999 V2000
    3.7879    2.8949    1.0243 Br  0  0  0  0  0  0  0  0  0  0  0  0
    7.3011   -1.3738   -0.3587 Br  0  0  0  0  0  0  0  0  0  0  0  0
    1.6838    0.7285    0.5662 O   0  5  0  0  0  0  0  0  0  0  0  0
    0.7497   -1.7775   -0.0604 N   0  0  0  0  0  2  0  0  0  0  0  0
   -0.6776   -1.0266    2.5102 N   0  0  0  0  0  0  0  0  0  0  0  0
    3.1221   -1.1210   -0.0058 C   0  0  0  0  0  0  0  0  0  0  0  0
    2.8683    0.2493    0.3587 C   0  0  0  0  0  0  0  0  0  0  0  0
    4.0332    1.0776    0.5141 C   0  0  0  0  0  0  0  0  0  0  0  0
    5.3271    0.6064    0.3032 C   0  0  0  0  0  0  0  0  0  0  0  0
    6.1832    1.2835    0.4256 H   0  0  0  0  0  0  0  0  0  0  0  0
    5.5285   -0.7417   -0.0676 C   0  0  0  0  0  0  0  0  0  0  0  0
    4.4422   -1.5978   -0.2110 C   0  0  0  0  0  3  0  0  0  0  0  0
    4.5980   -2.6521   -0.4829 H   0  0  0  0  0  0  0  0  0  0  0  0
    2.0297   -2.0495   -0.0972 C   0  0  0  0  0  0  0  0  0  0  0  0
    2.3176   -3.1178   -0.1796 H   0  0  0  0  0  0  0  0  0  0  0  0
   -0.1409   -2.9419    0.0411 C   0  0  0  0  0  0  0  0  0  0  0  0
    0.3479   -3.8050   -0.4615 H   0  0  0  0  0  0  0  0  0  0  0  0
   -1.0772   -2.7118   -0.4954 H   0  0  0  0  0  0  0  0  0  0  0  0
   -0.4468   -3.3334    1.4954 C   0  0  0  0  0  0  0  0  0  0  0  0
   -1.0207   -4.2834    1.4614 H   0  0  0  0  0  0  0  0  0  0  0  0
    0.5044   -3.5746    2.0188 H   0  0  0  0  0  0  0  0  0  0  0  0
   -1.2786   -2.3408    2.3121 C   0  0  0  0  0  0  0  0  0  0  0  0
   -2.2478   -2.1866    1.7932 H   0  0  0  0  0  0  0  0  0  0  0  0
   -1.5247   -2.8241    3.2983 H   0  0  0  0  0  0  0  0  0  0  0  0
    0.5840   -1.0417    3.2277 C   0  0  0  0  0  0  0  0  0  0  0  0
    1.0004   -0.0154    3.2601 H   0  0  0  0  0  0  0  0  0  0  0  0
    1.3281   -1.6738    2.7061 H   0  0  0  0  0  0  0  0  0  0  0  0
    0.4850   -1.4181    4.2807 H   0  0  0  0  0  0  0  0  0  0  0  0
   -1.6171   -0.0900    3.1001 C   0  0  0  0  0  0  0  0  0  0  0  0
   -1.9016   -0.3583    4.1528 H   0  0  0  0  0  0  0  0  0  0  0  0
   -2.5457   -0.0508    2.4972 H   0  0  0  0  0  0  0  0  0  0  0  0
   -1.1758    0.9272    3.1151 H   0  0  0  0  0  0  0  0  0  0  0  0
  2 11  1  0  0  0  0
  4 16  1  0  0  0  0
  5 29  1  0  0  0  0
  5 25  1  0  0  0  0
  6  7  1  0  0  0  0
  7  8  2  0  0  0  0
  7  3  1  0  0  0  0
  8  1  1  0  0  0  0
  9 10  1  0  0  0  0
  9  8  1  0  0  0  0
 11  9  2  0  0  0  0
 12 11  1  0  0  0  0
 12  6  1  0  0  0  0
 13 12  1  0  0  0  0
 14  4  1  0  0  0  0
 14  6  2  0  0  0  0
 15 14  1  0  0  0  0
 16 19  1  0  0  0  0
 17 16  1  0  0  0  0
 18 16  1  0  0  0  0
 19 21  1  0  0  0  0
 19 22  1  0  0  0  0
 20 19  1  0  0  0  0
 22  5  1  0  0  0  0
 22 24  1  0  0  0  0
 23 22  1  0  0  0  0
 25 26  1  0  0  0  0
 25 28  1  0  0  0  0
 27 25  1  0  0  0  0
 29 32  1  0  0  0  0
 29 30  1  0  0  0  0
 31 29  1  0  0  0  0
M  CHG  1   3  -1
M  END
