2,3
 OpenBabel05122313063D

 23 23  0  0  0  0  0  0  0  0999 V2000
    0.6827   -0.8560    1.4499 O   0  0  0  0  0  0  0  0  0  0  0  0
    0.4582    2.2349   -1.5871 O   0  0  0  0  0  1  0  0  0  0  0  0
    1.9160    0.5118   -0.4022 N   0  0  0  0  0  2  0  0  0  0  0  0
    2.5021    1.1789   -1.3752 N   0  0  0  0  0  2  0  0  0  0  0  0
    1.7012    2.0387   -1.9327 N   0  0  0  0  0  0  0  0  0  0  0  0
   -0.0992   -1.5547    2.4019 C   0  0  0  0  0  0  0  0  0  0  0  0
   -1.1018   -1.0908    2.3725 H   0  0  0  0  0  0  0  0  0  0  0  0
    0.3275   -1.4613    3.4246 H   0  0  0  0  0  0  0  0  0  0  0  0
   -0.1881   -2.6318    2.1407 H   0  0  0  0  0  0  0  0  0  0  0  0
    1.9825   -1.2332    1.2320 C   0  0  0  0  0  0  0  0  0  0  0  0
    2.6360   -2.2675    1.9143 C   0  0  0  0  0  0  0  0  0  0  0  0
    2.1076   -2.8415    2.6873 H   0  0  0  0  0  0  0  0  0  0  0  0
    3.9761   -2.5718    1.6077 C   0  0  0  0  0  0  0  0  0  0  0  0
    4.4834   -3.3848    2.1479 H   0  0  0  0  0  0  0  0  0  0  0  0
    4.6536   -1.8404    0.6218 C   0  0  0  0  0  0  0  0  0  0  0  0
    5.7014   -2.0762    0.3821 H   0  0  0  0  0  0  0  0  0  0  0  0
    4.0032   -0.8046   -0.0650 C   0  0  0  0  0  0  0  0  0  0  0  0
    4.5192   -0.2228   -0.8407 H   0  0  0  0  0  0  0  0  0  0  0  0
    2.6618   -0.4807    0.2251 C   0  0  0  0  0  0  0  0  0  0  0  0
    2.2228    2.8645   -3.0068 C   0  0  0  0  0  0  0  0  0  0  0  0
    1.5995    2.7153   -3.9110 H   0  0  0  0  0  0  0  0  0  0  0  0
    3.2701    2.5737   -3.1983 H   0  0  0  0  0  0  0  0  0  0  0  0
    2.1604    3.9303   -2.7080 H   0  0  0  0  0  0  0  0  0  0  0  0
  1  6  1  0  0  0  0
  3 19  1  0  0  0  0
  4  3  1  0  0  0  0
  5  2  1  0  0  0  0
  5  4  1  0  0  0  0
  6  8  1  0  0  0  0
  7  6  1  0  0  0  0
  9  6  1  0  0  0  0
 10  1  1  0  0  0  0
 10 11  1  0  0  0  0
 11 12  1  0  0  0  0
 13 11  2  0  0  0  0
 13 14  1  0  0  0  0
 15 13  1  0  0  0  0
 16 15  1  0  0  0  0
 17 19  1  0  0  0  0
 17 15  2  0  0  0  0
 18 17  1  0  0  0  0
 19 10  2  0  0  0  0
 20 23  1  0  0  0  0
 20  5  1  0  0  0  0
 21 20  1  0  0  0  0
 22 20  1  0  0  0  0
M  END
