1,35
 OpenBabel05122313063D

 48 50  0  0  0  0  0  0  0  0999 V2000
    0.4342   -0.9815   -0.1056 O   0  5  0  0  0  0  0  0  0  0  0  0
   -3.6323    1.5845    0.0382 O   0  0  0  0  0  0  0  0  0  0  0  0
   -1.6867    2.6635    0.0474 O   0  0  0  0  0  0  0  0  0  0  0  0
   -8.0079   -0.3616    0.0562 N   0  0  0  0  0  0  0  0  0  0  0  0
    0.6068    1.2841    0.0130 N   0  0  0  0  0  0  0  0  0  0  0  0
    0.1110    2.1890    0.1254 H   0  0  0  0  0  0  0  0  0  0  0  0
   -0.1340    0.1475   -0.0330 C   0  0  0  0  0  0  0  0  0  0  0  0
   -1.5986    0.2601   -0.0059 C   0  0  0  0  0  0  0  0  0  0  0  0
   -2.2429    1.5714    0.0278 C   0  0  0  0  0  0  0  0  0  0  0  0
   -4.3987    0.4556    0.0245 C   0  0  0  0  0  0  0  0  0  0  0  0
   -3.7862   -0.8309   -0.0005 C   0  0  0  0  0  0  0  0  0  0  0  0
   -2.3715   -0.8932   -0.0182 C   0  0  0  0  0  3  0  0  0  0  0  0
   -1.8565   -1.8656   -0.0411 H   0  0  0  0  0  0  0  0  0  0  0  0
   -4.6563   -1.9548   -0.0050 C   0  0  0  0  0  0  0  0  0  0  0  0
   -4.2147   -2.9626   -0.0307 H   0  0  0  0  0  0  0  0  0  0  0  0
   -6.0326   -1.8089    0.0128 C   0  0  0  0  0  0  0  0  0  0  0  0
   -6.6577   -2.7093   -0.0098 H   0  0  0  0  0  0  0  0  0  0  0  0
   -6.6426   -0.5070    0.0396 C   0  0  0  0  0  0  0  0  0  0  0  0
   -8.6385    0.9554   -0.0099 C   0  0  0  0  0  0  0  0  0  0  0  0
   -9.6240    0.8256   -0.5032 H   0  0  0  0  0  0  0  0  0  0  0  0
   -8.0510    1.6058   -0.6894 H   0  0  0  0  0  0  0  0  0  0  0  0
   -8.8181    1.6197    1.3574 C   0  0  0  0  0  0  0  0  0  0  0  0
   -9.3172    2.6034    1.2495 H   0  0  0  0  0  0  0  0  0  0  0  0
   -9.4418    0.9931    2.0266 H   0  0  0  0  0  0  0  0  0  0  0  0
   -7.8431    1.7813    1.8583 H   0  0  0  0  0  0  0  0  0  0  0  0
   -8.9086   -1.5092    0.1467 C   0  0  0  0  0  0  0  0  0  0  0  0
   -9.8249   -1.1680    0.6718 H   0  0  0  0  0  0  0  0  0  0  0  0
   -8.4591   -2.2762    0.8094 H   0  0  0  0  0  0  0  0  0  0  0  0
   -9.2750   -2.1114   -1.2118 C   0  0  0  0  0  0  0  0  0  0  0  0
   -9.9788   -2.9585   -1.0862 H   0  0  0  0  0  0  0  0  0  0  0  0
   -9.7620   -1.3583   -1.8638 H   0  0  0  0  0  0  0  0  0  0  0  0
   -8.3762   -2.4843   -1.7420 H   0  0  0  0  0  0  0  0  0  0  0  0
   -5.7802    0.6256    0.0453 C   0  0  0  0  0  0  0  0  0  0  0  0
   -6.1597    1.6527    0.0848 H   0  0  0  0  0  0  0  0  0  0  0  0
    1.9722    1.1742    0.0100 N   0  0  0  0  0  2  0  0  0  0  0  0
    2.7254    2.2435   -0.0299 C   0  0  0  0  0  3  0  0  0  0  0  0
    3.8022    1.9953    0.0668 H   0  0  0  0  0  0  0  0  0  0  0  0
    2.3543    3.6526   -0.1384 C   0  0  0  0  0  0  0  0  0  0  0  0
    1.1825    4.1589   -0.7582 C   0  0  0  0  0  0  0  0  0  0  0  0
    0.4550    3.4869   -1.2325 H   0  0  0  0  0  0  0  0  0  0  0  0
    0.9509    5.5386   -0.8196 C   0  0  0  0  0  0  0  0  0  0  0  0
    0.0361    5.9086   -1.3064 H   0  0  0  0  0  0  0  0  0  0  0  0
    1.8751    6.4428   -0.2726 C   0  0  0  0  0  0  0  0  0  0  0  0
    1.6835    7.5255   -0.3199 H   0  0  0  0  0  0  0  0  0  0  0  0
    3.0528    5.9584    0.3220 C   0  0  0  0  0  0  0  0  0  0  0  0
    3.7903    6.6602    0.7399 H   0  0  0  0  0  0  0  0  0  0  0  0
    3.2950    4.5828    0.3777 C   0  0  0  0  0  0  0  0  0  0  0  0
    4.2201    4.1988    0.8340 H   0  0  0  0  0  0  0  0  0  0  0  0
  1  7  1  0  0  0  0
  4 26  1  0  0  0  0
  5  6  1  0  0  0  0
  7  8  2  0  0  0  0
  7  5  1  0  0  0  0
  8  9  1  0  0  0  0
  9  2  1  0  0  0  0
  9  3  2  0  0  0  0
 10  2  1  0  0  0  0
 10 33  1  0  0  0  0
 11 10  2  0  0  0  0
 12  8  1  0  0  0  0
 12 11  1  0  0  0  0
 13 12  1  0  0  0  0
 14 11  1  0  0  0  0
 14 16  2  0  0  0  0
 15 14  1  0  0  0  0
 16 18  1  0  0  0  0
 17 16  1  0  0  0  0
 18 33  2  0  0  0  0
 18  4  1  0  0  0  0
 19  4  1  0  0  0  0
 19 22  1  0  0  0  0
 20 19  1  0  0  0  0
 21 19  1  0  0  0  0
 22 25  1  0  0  0  0
 22 24  1  0  0  0  0
 23 22  1  0  0  0  0
 26 27  1  0  0  0  0
 26 28  1  0  0  0  0
 29 30  1  0  0  0  0
 29 26  1  0  0  0  0
 31 29  1  0  0  0  0
 32 29  1  0  0  0  0
 33 34  1  0  0  0  0
 35  5  1  0  0  0  0
 36 35  1  0  0  0  0
 36 37  1  0  0  0  0
 38 36  1  0  0  0  0
 38 47  1  0  0  0  0
 39 38  2  0  0  0  0
 40 39  1  0  0  0  0
 41 39  1  0  0  0  0
 41 43  2  0  0  0  0
 42 41  1  0  0  0  0
 43 45  1  0  0  0  0
 44 43  1  0  0  0  0
 45 47  2  0  0  0  0
 45 46  1  0  0  0  0
 47 48  1  0  0  0  0
M  CHG  1   1  -1
M  END
