20,21
 OpenBabel05122313063D

 22 22  0  0  0  0  0  0  0  0999 V2000
    2.2070   -0.7656    0.1529 C   0  0  0  0  0  0  0  0  0  0  0  0
    3.2709   -1.7229    0.1937 C   0  0  0  0  0  0  0  0  0  0  0  0
    4.5482   -1.4218   -0.2626 C   0  0  0  0  0  0  0  0  0  0  0  0
    4.8577   -0.1390   -0.7792 C   0  0  0  0  0  0  0  0  0  0  0  0
    3.8584    0.8235   -0.8142 C   0  0  0  0  0  3  0  0  0  0  0  0
    2.5337    0.5552   -0.3604 C   0  0  0  0  0  0  0  0  0  0  0  0
    1.6046    1.6524   -0.3771 C   0  0  0  0  0  0  0  0  0  0  0  0
   -0.4448    2.8450    0.0100 C   0  0  0  0  0  0  0  0  0  0  0  0
   -1.9156    2.4946   -0.2164 C   0  0  0  0  0  0  0  0  0  0  0  0
    3.0251   -2.7191    0.5905 H   0  0  0  0  0  0  0  0  0  0  0  0
    5.3320   -2.1950   -0.2222 H   0  0  0  0  0  0  0  0  0  0  0  0
    5.8715    0.0902   -1.1372 H   0  0  0  0  0  0  0  0  0  0  0  0
    4.0792    1.8341   -1.1965 H   0  0  0  0  0  0  0  0  0  0  0  0
    2.0340    2.6298   -0.6968 H   0  0  0  0  0  0  0  0  0  0  0  0
   -0.0971    3.6035   -0.7272 H   0  0  0  0  0  0  0  0  0  0  0  0
   -0.3440    3.2941    1.0249 H   0  0  0  0  0  0  0  0  0  0  0  0
   -2.0679    2.1700   -1.2738 H   0  0  0  0  0  0  0  0  0  0  0  0
   -2.5432    3.3994   -0.0497 H   0  0  0  0  0  0  0  0  0  0  0  0
   -3.0143    0.8644    0.2148 H   0  0  0  0  0  0  0  0  0  0  0  0
    0.3437    1.6247   -0.0390 N   0  0  0  0  0  2  0  0  0  0  0  0
    1.0235   -1.1035    0.5697 O   0  5  0  0  0  0  0  0  0  0  0  0
   -2.2706    1.4538    0.6814 O   0  0  0  0  0  0  0  0  0  0  0  0
  1  2  2  0  0  0  0
  1 21  1  0  0  0  0
  2 10  1  0  0  0  0
  3 11  1  0  0  0  0
  3  2  1  0  0  0  0
  4  3  2  0  0  0  0
  5  4  1  0  0  0  0
  5  6  1  0  0  0  0
  6  1  1  0  0  0  0
  7  6  2  0  0  0  0
  7 20  1  0  0  0  0
  8 16  1  0  0  0  0
  9 18  1  0  0  0  0
  9  8  1  0  0  0  0
  9 22  1  0  0  0  0
 12  4  1  0  0  0  0
 13  5  1  0  0  0  0
 14  7  1  0  0  0  0
 15  8  1  0  0  0  0
 17  9  1  0  0  0  0
 19 22  1  0  0  0  0
 20  8  1  0  0  0  0
M  CHG  1  21  -1
M  END
