1,15
 OpenBabel05122313063D

 30 31  0  0  0  0  0  0  0  0999 V2000
    2.3655    0.5681    1.3626 O   0  5  0  0  0  0  0  0  0  0  0  0
    3.0983   -0.2345    0.6333 C   0  0  0  0  0  0  0  0  0  0  0  0
    4.4911   -0.4356    0.8628 C   0  0  0  0  0  0  0  0  0  0  0  0
    4.9728    0.1213    1.6793 H   0  0  0  0  0  0  0  0  0  0  0  0
    5.2005   -1.3247    0.0674 C   0  0  0  0  0  0  0  0  0  0  0  0
    6.2766   -1.4682    0.2566 H   0  0  0  0  0  0  0  0  0  0  0  0
    4.5881   -2.0671   -0.9917 C   0  0  0  0  0  0  0  0  0  0  0  0
    5.4123   -3.0184   -1.8193 C   0  0  0  0  0  0  0  0  0  0  0  0
    4.8026   -3.5176   -2.5959 H   0  0  0  0  0  0  0  0  0  0  0  0
    5.8707   -3.8076   -1.1871 H   0  0  0  0  0  0  0  0  0  0  0  0
    6.2483   -2.4929   -2.3269 H   0  0  0  0  0  0  0  0  0  0  0  0
    3.2278   -1.8793   -1.2246 C   0  0  0  0  0  0  0  0  0  0  0  0
    2.7008   -2.4263   -2.0188 H   0  0  0  0  0  0  0  0  0  0  0  0
    2.4885   -0.9652   -0.4342 C   0  0  0  0  0  0  0  0  0  0  0  0
    1.1111   -0.7322   -0.5977 N   0  0  0  0  0  2  0  0  0  0  0  0
    0.4922   -1.5466   -1.3604 N   0  0  0  0  0  2  0  0  0  0  0  0
   -0.8200   -1.3365   -1.7606 C   0  0  0  0  0  0  0  0  0  0  0  0
   -1.1343   -0.2628   -2.6265 C   0  0  0  0  0  0  0  0  0  0  0  0
   -0.3378    0.4492   -2.8867 H   0  0  0  0  0  0  0  0  0  0  0  0
   -2.4157   -0.1388   -3.1717 C   0  0  0  0  0  0  0  0  0  0  0  0
   -2.6368    0.7011   -3.8479 H   0  0  0  0  0  0  0  0  0  0  0  0
   -3.4124   -1.0857   -2.8756 C   0  0  0  0  0  0  0  0  0  0  0  0
   -4.4161   -0.9921   -3.3146 H   0  0  0  0  0  0  0  0  0  0  0  0
   -3.1116   -2.1593   -2.0309 C   0  0  0  0  0  0  0  0  0  0  0  0
   -3.8737   -2.9139   -1.7922 H   0  0  0  0  0  0  0  0  0  0  0  0
   -1.8287   -2.3004   -1.4632 C   0  0  0  0  0  0  0  0  0  0  0  0
   -1.5156   -3.4201   -0.5370 C   0  0  0  0  0  0  0  0  0  0  0  0
   -0.4741   -3.5520    0.0902 O   0  0  0  0  0  0  0  0  0  0  0  0
   -2.5366   -4.3106   -0.4292 O   0  0  0  0  0  0  0  0  0  0  0  0
   -2.2106   -5.0066    0.1810 H   0  0  0  0  0  0  0  0  0  0  0  0
  2  3  1  0  0  0  0
  2  1  1  0  0  0  0
  3  4  1  0  0  0  0
  5  6  1  0  0  0  0
  5  3  2  0  0  0  0
  7  5  1  0  0  0  0
  8 10  1  0  0  0  0
  8  7  1  0  0  0  0
  9  8  1  0  0  0  0
 11  8  1  0  0  0  0
 12  7  2  0  0  0  0
 12 14  1  0  0  0  0
 13 12  1  0  0  0  0
 14  2  2  0  0  0  0
 15 14  1  0  0  0  0
 16 15  1  0  0  0  0
 17 26  1  0  0  0  0
 17 16  1  0  0  0  0
 18 17  2  0  0  0  0
 19 18  1  0  0  0  0
 20 22  2  0  0  0  0
 20 18  1  0  0  0  0
 21 20  1  0  0  0  0
 22 24  1  0  0  0  0
 23 22  1  0  0  0  0
 24 25  1  0  0  0  0
 24 26  2  0  0  0  0
 26 27  1  0  0  0  0
 27 29  1  0  0  0  0
 27 28  2  0  0  0  0
 29 30  1  0  0  0  0
M  CHG  1   1  -1
M  END
