1,4
 OpenBabel05122313063D

 38 39  0  0  0  0  0  0  0  0999 V2000
    1.1749   -0.0646    1.2621 O   0  5  0  0  0  0  0  0  0  0  0  0
    1.7906   -0.5071    3.7516 O   0  0  0  0  0  0  0  0  0  0  0  0
   -4.5701   -3.6218   -0.1619 O   0  0  0  0  0  0  0  0  0  0  0  0
    0.0198   -0.9864   -1.1605 N   0  0  0  0  0  2  0  0  0  0  0  0
   -2.8272   -1.7494   -1.3881 N   0  0  0  0  0  0  0  0  0  0  0  0
    0.2104   -2.2630    0.9511 C   0  0  0  0  0  0  0  0  0  0  0  0
    0.8315   -1.2266    1.7213 C   0  0  0  0  0  0  0  0  0  0  0  0
    1.1536   -1.5235    3.1016 C   0  0  0  0  0  0  0  0  0  0  0  0
    0.8315   -2.7600    3.6608 C   0  0  0  0  0  0  0  0  0  0  0  0
    1.0717   -2.9686    4.7126 H   0  0  0  0  0  0  0  0  0  0  0  0
    0.1990   -3.7655    2.8836 C   0  0  0  0  0  0  0  0  0  0  0  0
   -0.0492   -4.7317    3.3458 H   0  0  0  0  0  0  0  0  0  0  0  0
   -0.0962   -3.5212    1.5524 C   0  0  0  0  0  0  0  0  0  0  0  0
   -0.5830   -4.2927    0.9353 H   0  0  0  0  0  0  0  0  0  0  0  0
   -0.1495   -2.0606   -0.4252 C   0  0  0  0  0  3  0  0  0  0  0  0
   -0.6307   -2.9283   -0.9124 H   0  0  0  0  0  0  0  0  0  0  0  0
   -0.7126   -0.9764   -2.4221 C   0  0  0  0  0  0  0  0  0  0  0  0
   -0.6045   -1.9617   -2.9316 H   0  0  0  0  0  0  0  0  0  0  0  0
   -0.2948   -0.1885   -3.0752 H   0  0  0  0  0  0  0  0  0  0  0  0
   -2.2106   -0.6927   -2.1634 C   0  0  0  0  0  0  0  0  0  0  0  0
   -2.2838    0.2588   -1.6021 H   0  0  0  0  0  0  0  0  0  0  0  0
   -2.7158   -0.5458   -3.1503 H   0  0  0  0  0  0  0  0  0  0  0  0
   -3.6906   -1.3521   -0.2875 C   0  0  0  0  0  0  0  0  0  0  0  0
   -4.6674   -0.9369   -0.6591 H   0  0  0  0  0  0  0  0  0  0  0  0
   -3.1867   -0.5569    0.2957 H   0  0  0  0  0  0  0  0  0  0  0  0
   -3.9867   -2.5633    0.5911 C   0  0  0  0  0  0  0  0  0  0  0  0
   -3.0386   -2.9074    1.0735 H   0  0  0  0  0  0  0  0  0  0  0  0
   -4.7119   -2.3021    1.3876 H   0  0  0  0  0  0  0  0  0  0  0  0
   -3.7086   -4.0212   -1.2103 C   0  0  0  0  0  0  0  0  0  0  0  0
   -4.2246   -4.8318   -1.7640 H   0  0  0  0  0  0  0  0  0  0  0  0
   -2.7547   -4.4351   -0.7927 H   0  0  0  0  0  0  0  0  0  0  0  0
   -3.3744   -2.8584   -2.1479 C   0  0  0  0  0  0  0  0  0  0  0  0
   -2.6329   -3.1978   -2.9035 H   0  0  0  0  0  0  0  0  0  0  0  0
   -4.3018   -2.5587   -2.7078 H   0  0  0  0  0  0  0  0  0  0  0  0
    2.1087   -0.6967    5.1125 C   0  0  0  0  0  0  0  0  0  0  0  0
    1.2000   -0.8755    5.7320 H   0  0  0  0  0  0  0  0  0  0  0  0
    2.5986    0.2338    5.4561 H   0  0  0  0  0  0  0  0  0  0  0  0
    2.8083   -1.5513    5.2648 H   0  0  0  0  0  0  0  0  0  0  0  0
  1  7  1  0  0  0  0
  2 35  1  0  0  0  0
  3 26  1  0  0  0  0
  4 15  1  0  0  0  0
  5 23  1  0  0  0  0
  6 13  2  0  0  0  0
  6  7  1  0  0  0  0
  7  8  2  0  0  0  0
  8  9  1  0  0  0  0
  8  2  1  0  0  0  0
  9 10  1  0  0  0  0
 11 12  1  0  0  0  0
 11  9  2  0  0  0  0
 13 11  1  0  0  0  0
 14 13  1  0  0  0  0
 15  6  1  0  0  0  0
 16 15  1  0  0  0  0
 17 20  1  0  0  0  0
 17  4  1  0  0  0  0
 18 17  1  0  0  0  0
 19 17  1  0  0  0  0
 20 21  1  0  0  0  0
 20  5  1  0  0  0  0
 22 20  1  0  0  0  0
 23 25  1  0  0  0  0
 23 26  1  0  0  0  0
 24 23  1  0  0  0  0
 26 27  1  0  0  0  0
 26 28  1  0  0  0  0
 29 31  1  0  0  0  0
 29  3  1  0  0  0  0
 30 29  1  0  0  0  0
 32  5  1  0  0  0  0
 32 29  1  0  0  0  0
 33 32  1  0  0  0  0
 34 32  1  0  0  0  0
 35 38  1  0  0  0  0
 35 37  1  0  0  0  0
 35 36  1  0  0  0  0
M  CHG  1   1  -1
M  END
