1,2
 OpenBabel05122313063D

 13 12  0  0  1  0  0  0  0  0999 V2000
    1.1768    1.5325    1.1753 O   0  0  0  0  0  1  0  0  0  0  0  0
    0.0924    1.2428   -1.2380 N   0  0  0  0  0  0  0  0  0  0  0  0
    0.5853    1.3466   -2.1379 H   0  0  0  0  0  0  0  0  0  0  0  0
   -0.9034    0.9094   -1.4084 H   0  0  0  0  0  0  0  0  0  0  0  0
    0.0388    2.4871   -0.5843 N   0  0  0  0  0  0  0  0  0  0  0  0
    0.2019    3.5674    1.4884 N   0  0  0  0  0  0  0  0  0  0  0  0
    0.4943    3.4855    2.4617 H   0  0  0  0  0  0  0  0  0  0  0  0
   -0.6293    4.1279    1.3084 H   0  0  0  0  0  0  0  0  0  0  0  0
    0.4855    2.4729    0.7207 C   0  0  2  0  0  3  0  0  0  0  0  0
   -0.9360    3.4502   -1.0752 C   0  0  0  0  0  0  0  0  0  0  0  0
   -1.9624    3.1997   -0.7287 H   0  0  0  0  0  0  0  0  0  0  0  0
   -0.9231    3.4355   -2.1813 H   0  0  0  0  0  0  0  0  0  0  0  0
   -0.6489    4.4719   -0.7590 H   0  0  0  0  0  0  0  0  0  0  0  0
  2  5  1  0  0  0  0
  3  2  1  0  0  0  0
  4  2  1  0  0  0  0
  5  9  1  0  0  0  0
  6  7  1  0  0  0  0
  8  6  1  0  0  0  0
  9  1  1  6  0  0  0
  9  6  1  0  0  0  0
 10 13  1  0  0  0  0
 10 11  1  0  0  0  0
 10  5  1  0  0  0  0
 12 10  1  0  0  0  0
M  END
