2,3
 OpenBabel05122313063D

 26 27  0  0  0  0  0  0  0  0999 V2000
   -5.5184    1.6890    0.1351 Br  0  0  0  0  0  0  0  0  0  0  0  0
   -0.8806   -2.1938   -0.3403 O   0  5  0  0  0  0  0  0  0  0  0  0
    0.8535    0.1465    0.0493 N   0  0  0  0  0  2  0  0  0  0  0  0
    6.6834    3.7158    0.1227 N   0  0  0  0  0  0  0  0  0  0  0  0
   -1.6056    0.1098   -0.0176 C   0  0  0  0  0  0  0  0  0  0  0  0
   -1.8101   -1.3243   -0.2323 C   0  0  0  0  0  0  0  0  0  0  0  0
   -3.1863   -1.7559   -0.3293 C   0  0  0  0  0  0  0  0  0  0  0  0
   -3.3442   -2.8323   -0.4927 H   0  0  0  0  0  0  0  0  0  0  0  0
   -4.2584   -0.8869   -0.2227 C   0  0  0  0  0  0  0  0  0  0  0  0
   -5.2908   -1.2597   -0.3012 H   0  0  0  0  0  0  0  0  0  0  0  0
   -4.0268    0.4970   -0.0095 C   0  0  0  0  0  0  0  0  0  0  0  0
   -2.7319    0.9786    0.0898 C   0  0  0  0  0  0  0  0  0  0  0  0
   -2.5543    2.0534    0.2519 H   0  0  0  0  0  0  0  0  0  0  0  0
   -0.3172    0.7335    0.0811 C   0  0  0  0  0  3  0  0  0  0  0  0
   -0.3452    1.8391    0.2178 H   0  0  0  0  0  0  0  0  0  0  0  0
    2.0303    0.9017    0.0426 C   0  0  0  0  0  0  0  0  0  0  0  0
    2.1334    2.1491   -0.6225 C   0  0  0  0  0  0  0  0  0  0  0  0
    1.2743    2.5333   -1.1916 H   0  0  0  0  0  0  0  0  0  0  0  0
    3.3285    2.8688   -0.6051 C   0  0  0  0  0  0  0  0  0  0  0  0
    3.4044    3.8313   -1.1319 H   0  0  0  0  0  0  0  0  0  0  0  0
    4.4596    2.3559    0.0746 C   0  0  0  0  0  0  0  0  0  0  0  0
    4.3635    1.0960    0.7197 C   0  0  0  0  0  0  0  0  0  0  0  0
    5.2423    0.6870    1.2389 H   0  0  0  0  0  0  0  0  0  0  0  0
    3.1723    0.3752    0.6976 C   0  0  0  0  0  0  0  0  0  0  0  0
    3.0829   -0.6012    1.2060 H   0  0  0  0  0  0  0  0  0  0  0  0
    5.6823    3.0987    0.0990 C   0  0  0  0  0  0  0  0  0  0  0  0
  2  6  1  0  0  0  0
  3 14  1  0  0  0  0
  5 14  1  0  0  0  0
  5 12  1  0  0  0  0
  6  5  2  0  0  0  0
  7  6  1  0  0  0  0
  7  9  2  0  0  0  0
  8  7  1  0  0  0  0
  9 11  1  0  0  0  0
 10  9  1  0  0  0  0
 11 12  2  0  0  0  0
 11  1  1  0  0  0  0
 12 13  1  0  0  0  0
 14 15  1  0  0  0  0
 16  3  1  0  0  0  0
 16 24  1  0  0  0  0
 17 19  1  0  0  0  0
 17 16  2  0  0  0  0
 18 17  1  0  0  0  0
 19 21  2  0  0  0  0
 20 19  1  0  0  0  0
 21 26  1  0  0  0  0
 21 22  1  0  0  0  0
 22 23  1  0  0  0  0
 24 22  2  0  0  0  0
 24 25  1  0  0  0  0
 26  4  3  0  0  0  0
M  CHG  1   2  -1
M  END
