1,2
 OpenBabel05122313063D

 28 28  0  0  1  0  0  0  0  0999 V2000
    2.6206    0.5772   -0.0000 O   0  0  0  0  0  1  0  0  0  0  0  0
   -0.2455    0.9938    0.0000 N   0  0  0  0  0  2  0  0  0  0  0  0
    4.0176    2.4727   -0.0000 C   0  0  0  0  0  0  0  0  0  0  0  0
    4.5763    2.1154    0.8893 H   0  0  0  0  0  0  0  0  0  0  0  0
    4.0001    3.5776   -0.0000 H   0  0  0  0  0  0  0  0  0  0  0  0
    4.5762    2.1154   -0.8893 H   0  0  0  0  0  0  0  0  0  0  0  0
    2.6344    1.8697    0.0000 C   0  0  2  0  0  3  0  0  0  0  0  0
    1.5012    2.6931    0.0000 C   0  0  0  0  0  0  0  0  0  0  0  0
    1.6764    3.7766    0.0000 H   0  0  0  0  0  0  0  0  0  0  0  0
    0.1458    2.2773    0.0000 C   0  0  0  0  0  0  0  0  0  0  0  0
   -0.9105    3.3602    0.0000 C   0  0  0  0  0  0  0  0  0  0  0  0
   -1.5713    3.2694    0.8852 H   0  0  0  0  0  0  0  0  0  0  0  0
   -1.5713    3.2695   -0.8851 H   0  0  0  0  0  0  0  0  0  0  0  0
   -0.4477    4.3627    0.0000 H   0  0  0  0  0  0  0  0  0  0  0  0
   -1.6557    0.7158    0.0000 C   0  0  0  0  0  0  0  0  0  0  0  0
   -2.3468    0.5486    1.2135 C   0  0  0  0  0  0  0  0  0  0  0  0
   -1.7985    0.6628    2.1603 H   0  0  0  0  0  0  0  0  0  0  0  0
   -3.7089    0.2210    1.2070 C   0  0  0  0  0  0  0  0  0  0  0  0
   -4.2349    0.0878    2.1656 H   0  0  0  0  0  0  0  0  0  0  0  0
   -4.4166    0.0478   -0.0000 C   0  0  0  0  0  0  0  0  0  0  0  0
   -3.7089    0.2211   -1.2070 C   0  0  0  0  0  0  0  0  0  0  0  0
   -4.2349    0.0879   -2.1656 H   0  0  0  0  0  0  0  0  0  0  0  0
   -2.3468    0.5486   -1.2135 C   0  0  0  0  0  0  0  0  0  0  0  0
   -1.7985    0.6629   -2.1603 H   0  0  0  0  0  0  0  0  0  0  0  0
   -5.8703   -0.3518   -0.0000 C   0  0  0  0  0  0  0  0  0  0  0  0
   -6.3987    0.0260   -0.8975 H   0  0  0  0  0  0  0  0  0  0  0  0
   -6.3986    0.0258    0.8976 H   0  0  0  0  0  0  0  0  0  0  0  0
   -5.9772   -1.4581   -0.0002 H   0  0  0  0  0  0  0  0  0  0  0  0
  2 10  1  0  0  0  0
  3  7  1  0  0  0  0
  3  4  1  0  0  0  0
  5  3  1  0  0  0  0
  6  3  1  0  0  0  0
  7  1  1  1  0  0  0
  7  8  1  0  0  0  0
  8  9  1  0  0  0  0
  8 10  2  0  0  0  0
 10 11  1  0  0  0  0
 11 14  1  0  0  0  0
 11 12  1  0  0  0  0
 13 11  1  0  0  0  0
 15  2  1  0  0  0  0
 15 16  1  0  0  0  0
 16 17  1  0  0  0  0
 18 16  2  0  0  0  0
 18 19  1  0  0  0  0
 20 18  1  0  0  0  0
 21 20  2  0  0  0  0
 22 21  1  0  0  0  0
 23 21  1  0  0  0  0
 23 15  2  0  0  0  0
 24 23  1  0  0  0  0
 25 20  1  0  0  0  0
 25 27  1  0  0  0  0
 26 25  1  0  0  0  0
 28 25  1  0  0  0  0
M  END
