1,2
 OpenBabel05122313063D

 24 25  0  0  0  0  0  0  0  0999 V2000
    1.7763   -0.5831    0.3704 O   0  5  0  0  0  0  0  0  0  0  0  0
   -0.6740   -1.9568    0.2240 N   0  0  0  0  0  2  0  0  0  0  0  0
    2.2930   -1.7284    0.0111 C   0  0  0  0  0  0  0  0  0  0  0  0
    3.7107   -1.8131   -0.1373 C   0  0  0  0  0  0  0  0  0  0  0  0
    4.3234   -2.9972   -0.5431 C   0  0  0  0  0  0  0  0  0  0  0  0
    3.5619   -4.1579   -0.8096 C   0  0  0  0  0  0  0  0  0  0  0  0
    2.1798   -4.1080   -0.6394 C   0  0  0  0  0  0  0  0  0  0  0  0
    1.5114   -2.9213   -0.2326 C   0  0  0  0  0  0  0  0  0  0  0  0
    0.0887   -2.9658   -0.0264 C   0  0  0  0  0  2  0  0  0  0  0  0
   -2.8164   -1.6566    1.4486 C   0  0  0  0  0  0  0  0  0  0  0  0
   -4.1953   -1.8877    1.5473 C   0  0  0  0  0  0  0  0  0  0  0  0
   -4.8699   -2.6279    0.5632 C   0  0  0  0  0  0  0  0  0  0  0  0
   -4.1427   -3.1570   -0.5157 C   0  0  0  0  0  0  0  0  0  0  0  0
   -2.7614   -2.9409   -0.6098 C   0  0  0  0  0  0  0  0  0  0  0  0
   -2.0856   -2.1787    0.3657 C   0  0  0  0  0  0  0  0  0  0  0  0
    4.2954   -0.9032    0.0686 H   0  0  0  0  0  0  0  0  0  0  0  0
    5.4192   -3.0227   -0.6580 H   0  0  0  0  0  0  0  0  0  0  0  0
    4.0546   -5.0867   -1.1323 H   0  0  0  0  0  0  0  0  0  0  0  0
    1.5522   -4.9960   -0.8102 H   0  0  0  0  0  0  0  0  0  0  0  0
   -2.3046   -1.0688    2.2178 H   0  0  0  0  0  0  0  0  0  0  0  0
   -4.7497   -1.4789    2.4062 H   0  0  0  0  0  0  0  0  0  0  0  0
   -5.9541   -2.7994    0.6414 H   0  0  0  0  0  0  0  0  0  0  0  0
   -4.6536   -3.7507   -1.2895 H   0  0  0  0  0  0  0  0  0  0  0  0
   -2.1688   -3.3705   -1.4310 H   0  0  0  0  0  0  0  0  0  0  0  0
  2 15  1  0  0  0  0
  3  1  1  0  0  0  0
  4  3  1  0  0  0  0
  4 16  1  0  0  0  0
  5  4  2  0  0  0  0
  6  7  2  0  0  0  0
  6  5  1  0  0  0  0
  7  8  1  0  0  0  0
  8  9  1  0  0  0  0
  8  3  2  0  0  0  0
  9  2  1  0  0  0  0
 10 11  1  0  0  0  0
 10 20  1  0  0  0  0
 11 21  1  0  0  0  0
 12 22  1  0  0  0  0
 12 11  2  0  0  0  0
 13 12  1  0  0  0  0
 14 13  2  0  0  0  0
 14 15  1  0  0  0  0
 15 10  2  0  0  0  0
 17  5  1  0  0  0  0
 18  6  1  0  0  0  0
 19  7  1  0  0  0  0
 23 13  1  0  0  0  0
 24 14  1  0  0  0  0
M  CHG  1   1  -1
M  END
