1,4
 OpenBabel05122313063D

 18 18  0  0  0  0  0  0  0  0999 V2000
   -0.0759   -1.4764   -1.6083 O   0  5  0  0  0  0  0  0  0  0  0  0
    1.2809   -3.2874   -1.5324 O   0  0  0  0  0  0  0  0  0  0  0  0
    4.1276    1.5398    1.2730 O   0  0  0  0  0  0  0  0  0  0  0  0
    1.7687    0.1921   -0.9818 N   0  0  0  0  0  2  0  0  0  0  0  0
    3.0190   -1.5812    0.0310 N   0  0  0  0  0  0  0  0  0  0  0  0
    3.7266   -0.6658    0.7107 N   0  0  0  0  0  0  0  0  0  0  0  0
    2.6633    1.0656   -0.4588 N   0  0  0  0  0  0  0  0  0  0  0  0
    1.0593   -2.1041   -1.3517 C   0  0  0  0  0  0  0  0  0  0  0  0
    2.0500   -1.1380   -0.7259 C   0  0  0  0  0  0  0  0  0  0  0  0
    4.5825   -1.1620    1.7762 C   0  0  0  0  0  0  0  0  0  0  0  0
    4.9705   -2.1486    1.4679 H   0  0  0  0  0  0  0  0  0  0  0  0
    3.9902   -1.2699    2.7094 H   0  0  0  0  0  0  0  0  0  0  0  0
    5.4009   -0.4415    1.9482 H   0  0  0  0  0  0  0  0  0  0  0  0
    3.5238    0.7177    0.6044 C   0  0  0  0  0  0  0  0  0  0  0  0
    2.6477    2.4375   -0.9466 C   0  0  0  0  0  0  0  0  0  0  0  0
    1.6769    2.9138   -0.7070 H   0  0  0  0  0  0  0  0  0  0  0  0
    2.7795    2.4222   -2.0472 H   0  0  0  0  0  0  0  0  0  0  0  0
    3.4794    2.9728   -0.4589 H   0  0  0  0  0  0  0  0  0  0  0  0
  1  8  1  0  0  0  0
  2  8  2  0  0  0  0
  4  9  1  0  0  0  0
  4  7  1  0  0  0  0
  5  6  1  0  0  0  0
  6 10  1  0  0  0  0
  7 14  1  0  0  0  0
  8  9  1  0  0  0  0
  9  5  2  0  0  0  0
 10 13  1  0  0  0  0
 10 12  1  0  0  0  0
 11 10  1  0  0  0  0
 14  6  1  0  0  0  0
 14  3  2  0  0  0  0
 15 16  1  0  0  0  0
 15 18  1  0  0  0  0
 15  7  1  0  0  0  0
 17 15  1  0  0  0  0
M  CHG  1   1  -1
M  END
