3,6
 OpenBabel05122313063D

 38 41  0  0  1  0  0  0  0  0999 V2000
   -2.9110    0.7260    0.9147 S   0  0  0  0  0  0  0  0  0  0  0  0
   -3.1827    0.1700   -0.8488 N   0  0  0  0  0  0  0  0  0  0  0  0
   -1.6568   -2.2946   -1.2304 N   0  0  0  0  0  2  0  0  0  0  0  0
   -1.7175    0.0147    1.4512 O   0  0  0  0  0  0  0  0  0  0  0  0
   -4.2177    0.6675    1.6110 O   0  0  0  0  0  0  0  0  0  0  0  0
   -2.0557    0.3237   -1.5576 O   0  0  0  0  0  1  0  0  0  0  0  0
   -2.4570    2.4329    0.6168 C   0  0  0  0  0  0  0  0  0  0  0  0
   -1.1176    2.7422    0.2614 C   0  0  0  0  0  0  0  0  0  0  0  0
   -0.7903    4.0673    0.0278 C   0  0  0  0  0  0  0  0  0  0  0  0
   -1.7606    5.1070    0.1476 C   0  0  0  0  0  0  0  0  0  0  0  0
   -1.4410    6.4765   -0.0846 C   0  0  0  0  0  0  0  0  0  0  0  0
   -2.4064    7.4642    0.0438 C   0  0  0  0  0  0  0  0  0  0  0  0
   -3.7376    7.1269    0.4119 C   0  0  0  0  0  0  0  0  0  0  0  0
   -4.0832    5.8047    0.6456 C   0  0  0  0  0  0  0  0  0  0  0  0
   -3.1144    4.7657    0.5193 C   0  0  0  0  0  0  0  0  0  0  0  0
   -3.4413    3.3991    0.7464 C   0  0  0  0  0  0  0  0  0  0  0  0
   -4.4630    3.1080    1.0322 H   0  0  0  0  0  0  0  0  0  0  0  0
   -3.7766   -1.1203   -0.8446 C   0  0  0  0  0  0  0  0  0  0  0  0
   -5.1516   -1.1951   -0.6036 C   0  0  0  0  0  0  0  0  0  0  0  0
   -5.8291   -2.4329   -0.6107 C   0  0  0  0  0  0  0  0  0  0  0  0
   -6.9120   -2.4563   -0.4182 H   0  0  0  0  0  0  0  0  0  0  0  0
   -5.1432   -3.6049   -0.8955 C   0  0  0  0  0  0  0  0  0  0  0  0
   -3.7412   -3.5765   -1.1402 C   0  0  0  0  0  0  0  0  0  0  0  0
   -3.0048   -4.7558   -1.4431 C   0  0  0  0  0  0  0  0  0  0  0  0
   -3.5368   -5.7172   -1.5090 H   0  0  0  0  0  0  0  0  0  0  0  0
   -1.6372   -4.6734   -1.6532 C   0  0  0  0  0  0  0  0  0  0  0  0
   -0.9933   -3.4268   -1.5205 C   0  0  0  0  0  0  0  0  0  0  0  0
   -3.0265   -2.3252   -1.0778 C   0  0  2  0  0  3  0  0  0  0  0  0
   -0.3738    1.9375    0.1689 H   0  0  0  0  0  0  0  0  0  0  0  0
    0.2392    4.3331   -0.2588 H   0  0  0  0  0  0  0  0  0  0  0  0
   -0.4097    6.7372   -0.3693 H   0  0  0  0  0  0  0  0  0  0  0  0
   -2.1437    8.5172   -0.1399 H   0  0  0  0  0  0  0  0  0  0  0  0
   -4.4938    7.9203    0.5098 H   0  0  0  0  0  0  0  0  0  0  0  0
   -5.1121    5.5358    0.9304 H   0  0  0  0  0  0  0  0  0  0  0  0
   -5.6889   -0.2557   -0.4204 H   0  0  0  0  0  0  0  0  0  0  0  0
   -5.6670   -4.5713   -0.9453 H   0  0  0  0  0  0  0  0  0  0  0  0
   -1.0357   -5.5574   -1.9075 H   0  0  0  0  0  0  0  0  0  0  0  0
    0.0925   -3.3388   -1.6420 H   0  0  0  0  0  0  0  0  0  0  0  0
  1  4  2  0  0  0  0
  1  5  2  0  0  0  0
  2 18  1  0  0  0  0
  2  1  1  0  0  0  0
  6  2  1  0  0  0  0
  7 16  1  0  0  0  0
  7  1  1  0  0  0  0
  8  7  2  0  0  0  0
  9 10  2  0  0  0  0
  9  8  1  0  0  0  0
 10 15  1  0  0  0  0
 11 12  2  0  0  0  0
 11 10  1  0  0  0  0
 12 13  1  0  0  0  0
 13 33  1  0  0  0  0
 13 14  2  0  0  0  0
 14 34  1  0  0  0  0
 15 14  1  0  0  0  0
 15 16  2  0  0  0  0
 16 17  1  0  0  0  0
 18 19  2  0  0  0  0
 19 35  1  0  0  0  0
 20 19  1  0  0  0  0
 20 21  1  0  0  0  0
 22 20  2  0  0  0  0
 23 28  1  0  0  0  0
 23 22  1  0  0  0  0
 24 23  2  0  0  0  0
 25 24  1  0  0  0  0
 26 27  2  0  0  0  0
 26 24  1  0  0  0  0
 27  3  1  0  0  0  0
 28  3  1  1  0  0  0
 28 18  1  0  0  0  0
 29  8  1  0  0  0  0
 30  9  1  0  0  0  0
 31 11  1  0  0  0  0
 32 12  1  0  0  0  0
 36 22  1  0  0  0  0
 37 26  1  0  0  0  0
 38 27  1  0  0  0  0
M  END
