2,5
 OpenBabel05122313063D

 45 47  0  0  0  0  0  0  0  0999 V2000
   -2.2511   -0.1705   -1.2926 Se  0  0  0  0  0  0  0  0  0  0  0  0
    0.9910   -2.4021    0.6953 O   0  5  0  0  0  0  0  0  0  0  0  0
    2.2487   -2.1680    0.4654 C   0  0  0  0  0  0  0  0  0  0  0  0
    2.7878    1.6297    0.1503 C   0  0  0  0  0  0  0  0  0  0  0  0
    0.7155    0.3717    0.0364 N   0  0  0  0  0  2  0  0  0  0  0  0
    2.0367    0.3319    0.0728 C   0  0  0  0  0  0  0  0  0  0  0  0
    2.8204   -0.8879    0.0853 C   0  0  0  0  0  0  0  0  0  0  0  0
    2.8599    2.4772   -0.9741 C   0  0  0  0  0  0  0  0  0  0  0  0
    2.3803    2.1674   -1.9151 H   0  0  0  0  0  0  0  0  0  0  0  0
   -3.5828   -0.0743    1.2690 C   0  0  0  0  0  0  0  0  0  0  0  0
   -3.1116   -1.0626    1.4012 H   0  0  0  0  0  0  0  0  0  0  0  0
   -3.3586    0.6485    0.0837 C   0  0  0  0  0  0  0  0  0  0  0  0
    3.1531   -3.2675    0.6399 C   0  0  0  0  0  0  0  0  0  0  0  0
    2.7065   -4.2212    0.9553 H   0  0  0  0  0  0  0  0  0  0  0  0
    4.2256   -0.8103   -0.1640 C   0  0  0  0  0  3  0  0  0  0  0  0
    4.6475    0.1555   -0.4771 H   0  0  0  0  0  0  0  0  0  0  0  0
    3.5655    3.6883   -0.9047 C   0  0  0  0  0  0  0  0  0  0  0  0
    3.6275    4.3367   -1.7918 H   0  0  0  0  0  0  0  0  0  0  0  0
   -4.4181    0.4756    2.2536 C   0  0  0  0  0  0  0  0  0  0  0  0
   -4.5955   -0.0858    3.1834 H   0  0  0  0  0  0  0  0  0  0  0  0
   -0.0168    1.6081    0.3434 C   0  0  0  0  0  0  0  0  0  0  0  0
    0.6400    2.3257    0.8747 H   0  0  0  0  0  0  0  0  0  0  0  0
   -0.8243    1.3266    1.0497 H   0  0  0  0  0  0  0  0  0  0  0  0
   -0.6395    2.3220   -0.8646 C   0  0  0  0  0  0  0  0  0  0  0  0
   -1.3974    3.0263   -0.4648 H   0  0  0  0  0  0  0  0  0  0  0  0
    0.1308    2.9450   -1.3678 H   0  0  0  0  0  0  0  0  0  0  0  0
    4.1952    4.0680    0.2909 C   0  0  0  0  0  0  0  0  0  0  0  0
    4.7448    5.0197    0.3464 H   0  0  0  0  0  0  0  0  0  0  0  0
   -1.2682    1.4310   -1.9339 C   0  0  0  0  0  0  0  0  0  0  0  0
   -0.4970    0.9509   -2.5697 H   0  0  0  0  0  0  0  0  0  0  0  0
   -1.9418    2.0034   -2.6014 H   0  0  0  0  0  0  0  0  0  0  0  0
    4.5111   -3.1444    0.3896 C   0  0  0  0  0  0  0  0  0  0  0  0
    5.1642   -4.0231    0.5115 H   0  0  0  0  0  0  0  0  0  0  0  0
    4.1315    3.2253    1.4129 C   0  0  0  0  0  0  0  0  0  0  0  0
    4.6301    3.5158    2.3500 H   0  0  0  0  0  0  0  0  0  0  0  0
    3.4413    2.0069    1.3415 C   0  0  0  0  0  0  0  0  0  0  0  0
    3.4024    1.3341    2.2113 H   0  0  0  0  0  0  0  0  0  0  0  0
   -3.9753    1.8928   -0.1338 C   0  0  0  0  0  0  0  0  0  0  0  0
   -3.8257    2.4416   -1.0758 H   0  0  0  0  0  0  0  0  0  0  0  0
   -5.0199    1.7296    2.0593 C   0  0  0  0  0  0  0  0  0  0  0  0
   -5.6678    2.1576    2.8390 H   0  0  0  0  0  0  0  0  0  0  0  0
    5.0620   -1.9091   -0.0331 C   0  0  0  0  0  0  0  0  0  0  0  0
    6.1361   -1.8194   -0.2494 H   0  0  0  0  0  0  0  0  0  0  0  0
   -4.8003    2.4345    0.8655 C   0  0  0  0  0  0  0  0  0  0  0  0
   -5.2783    3.4125    0.7033 H   0  0  0  0  0  0  0  0  0  0  0  0
  1 12  1  0  0  0  0
  3 13  2  0  0  0  0
  3  2  1  0  0  0  0
  4 36  1  0  0  0  0
  5  6  1  0  0  0  0
  5 21  1  0  0  0  0
  6  7  2  0  0  0  0
  6  4  1  0  0  0  0
  7  3  1  0  0  0  0
  8 17  1  0  0  0  0
  8  4  2  0  0  0  0
  9  8  1  0  0  0  0
 10 11  1  0  0  0  0
 10 19  1  0  0  0  0
 12 10  2  0  0  0  0
 13 14  1  0  0  0  0
 15 42  1  0  0  0  0
 15  7  1  0  0  0  0
 16 15  1  0  0  0  0
 17 27  2  0  0  0  0
 18 17  1  0  0  0  0
 19 20  1  0  0  0  0
 21 22  1  0  0  0  0
 21 23  1  0  0  0  0
 24 25  1  0  0  0  0
 24 21  1  0  0  0  0
 26 24  1  0  0  0  0
 27 28  1  0  0  0  0
 27 34  1  0  0  0  0
 29  1  1  0  0  0  0
 29 24  1  0  0  0  0
 30 29  1  0  0  0  0
 31 29  1  0  0  0  0
 32 33  1  0  0  0  0
 32 13  1  0  0  0  0
 34 35  1  0  0  0  0
 36 34  2  0  0  0  0
 36 37  1  0  0  0  0
 38 12  1  0  0  0  0
 38 44  2  0  0  0  0
 39 38  1  0  0  0  0
 40 19  2  0  0  0  0
 40 41  1  0  0  0  0
 42 32  2  0  0  0  0
 43 42  1  0  0  0  0
 44 40  1  0  0  0  0
 45 44  1  0  0  0  0
M  CHG  1   2  -1
M  END
