1,2
 OpenBabel05122313063D

 18 19  0  0  0  0  0  0  0  0999 V2000
    0.8240   -1.6073   -0.8843 O   0  5  0  0  0  0  0  0  0  0  0  0
    1.4792    0.7930   -0.1284 N   0  0  0  0  0  2  0  0  0  0  0  0
    0.0553    3.9200    0.6415 N   0  0  0  0  0  0  0  0  0  0  0  0
    1.8323    2.0542    0.2530 C   0  0  0  0  0  0  0  0  0  0  0  0
    3.1898    2.4692    0.4154 C   0  0  0  0  0  0  0  0  0  0  0  0
    3.3813    3.5033    0.7334 H   0  0  0  0  0  0  0  0  0  0  0  0
    4.2209    1.5883    0.1584 C   0  0  0  0  0  0  0  0  0  0  0  0
    5.2692    1.9010    0.2740 H   0  0  0  0  0  0  0  0  0  0  0  0
    3.9151    0.2650   -0.2707 C   0  0  0  0  0  0  0  0  0  0  0  0
    4.8798   -0.7214   -0.5789 C   0  0  0  0  0  3  0  0  0  0  0  0
    5.9473   -0.4760   -0.4884 H   0  0  0  0  0  0  0  0  0  0  0  0
    4.4673   -1.9935   -0.9900 C   0  0  0  0  0  0  0  0  0  0  0  0
    5.2265   -2.7528   -1.2315 H   0  0  0  0  0  0  0  0  0  0  0  0
    3.1063   -2.3383   -1.1032 C   0  0  0  0  0  0  0  0  0  0  0  0
    2.7979   -3.3405   -1.4325 H   0  0  0  0  0  0  0  0  0  0  0  0
    2.1155   -1.3843   -0.8011 C   0  0  0  0  0  0  0  0  0  0  0  0
    2.5185   -0.0752   -0.3853 C   0  0  0  0  0  0  0  0  0  0  0  0
    0.8406    3.0599    0.4613 C   0  0  0  0  0  0  0  0  0  0  0  0
  1 16  1  0  0  0  0
  2  4  1  0  0  0  0
  4  5  2  0  0  0  0
  4 18  1  0  0  0  0
  5  6  1  0  0  0  0
  7  8  1  0  0  0  0
  7  5  1  0  0  0  0
  9  7  2  0  0  0  0
 10 11  1  0  0  0  0
 10  9  1  0  0  0  0
 12 10  1  0  0  0  0
 13 12  1  0  0  0  0
 14 12  2  0  0  0  0
 14 16  1  0  0  0  0
 15 14  1  0  0  0  0
 16 17  2  0  0  0  0
 17  9  1  0  0  0  0
 17  2  1  0  0  0  0
 18  3  3  0  0  0  0
M  CHG  1   1  -1
M  END
