1,7
q = -1.0, confidence = 0.072

 53 55  0  0  0  0  0  0  0  0999 V2000
    0.5693    0.3006    0.0421 O   0  5  0  0  0  0  0  0  0  0  0  0
    2.3532   -0.5911   -1.8130 F   0  0  0  0  0  0  0  0  0  0  0  0
    4.5025   -2.0522   -1.0824 F   0  0  0  0  0  0  0  0  0  0  0  0
    6.4396   -0.9611    0.5137 F   0  0  0  0  0  0  0  0  0  0  0  0
    6.1958    1.6298    1.3878 F   0  0  0  0  0  0  0  0  0  0  0  0
    4.0146    3.0900    0.7224 F   0  0  0  0  0  0  0  0  0  0  0  0
   -2.2042    0.4381   -0.0643 N   0  0  0  0  0  2  0  0  0  0  0  0
   -3.6198    0.2022    0.0610 C   0  0  0  0  0  0  0  0  0  0  0  0
   -4.3067   -0.4288   -1.0050 C   0  0  0  0  0  0  0  0  0  0  0  0
   -5.6964   -0.6088   -0.8773 C   0  0  0  0  0  0  0  0  0  0  0  0
   -6.2566   -1.0871   -1.6946 H   0  0  0  0  0  0  0  0  0  0  0  0
   -6.3755   -0.1942    0.2760 C   0  0  0  0  0  0  0  0  0  0  0  0
   -7.4637   -0.3387    0.3553 H   0  0  0  0  0  0  0  0  0  0  0  0
   -5.6671    0.3861    1.3358 C   0  0  0  0  0  0  0  0  0  0  0  0
   -6.2036    0.6852    2.2489 H   0  0  0  0  0  0  0  0  0  0  0  0
   -4.2762    0.5860    1.2556 C   0  0  0  0  0  0  0  0  0  0  0  0
   -3.5473   -0.8871   -2.2440 C   0  0  0  0  0  0  0  0  0  0  0  0
   -2.4920   -1.0233   -1.9215 H   0  0  0  0  0  0  0  0  0  0  0  0
   -4.0417   -2.2354   -2.7852 C   0  0  0  0  0  0  0  0  0  0  0  0
   -4.0560   -3.0098   -1.9918 H   0  0  0  0  0  0  0  0  0  0  0  0
   -3.3783   -2.5888   -3.6006 H   0  0  0  0  0  0  0  0  0  0  0  0
   -5.0655   -2.1652   -3.2078 H   0  0  0  0  0  0  0  0  0  0  0  0
   -3.5652    0.1900   -3.3431 C   0  0  0  0  0  0  0  0  0  0  0  0
   -4.6045    0.3970   -3.6737 H   0  0  0  0  0  0  0  0  0  0  0  0
   -2.9826   -0.1394   -4.2280 H   0  0  0  0  0  0  0  0  0  0  0  0
   -3.1287    1.1446   -2.9891 H   0  0  0  0  0  0  0  0  0  0  0  0
   -3.4890    1.1925    2.4113 C   0  0  0  0  0  0  0  0  0  0  0  0
   -2.4260    0.9151    2.2458 H   0  0  0  0  0  0  0  0  0  0  0  0
   -3.9057    0.6221    3.7746 C   0  0  0  0  0  0  0  0  0  0  0  0
   -4.9374    0.9209    4.0533 H   0  0  0  0  0  0  0  0  0  0  0  0
   -3.2316    0.9974    4.5712 H   0  0  0  0  0  0  0  0  0  0  0  0
   -3.8601   -0.4854    3.7796 H   0  0  0  0  0  0  0  0  0  0  0  0
   -3.5768    2.7290    2.4020 C   0  0  0  0  0  0  0  0  0  0  0  0
   -3.1949    3.1553    1.4532 H   0  0  0  0  0  0  0  0  0  0  0  0
   -2.9820    3.1637    3.2315 H   0  0  0  0  0  0  0  0  0  0  0  0
   -4.6281    3.0645    2.5215 H   0  0  0  0  0  0  0  0  0  0  0  0
   -1.9064    1.6315   -0.5569 C   0  0  0  0  0  0  0  0  0  0  0  0
   -2.7674    2.2803   -0.8109 H   0  0  0  0  0  0  0  0  0  0  0  0
   -0.6180    2.1931   -0.8198 C   0  0  0  0  0  0  0  0  0  0  0  0
    0.5870    1.4605   -0.5178 C   0  0  0  0  0  0  0  0  0  0  0  0
    1.8537    2.0708   -0.8495 C   0  0  0  0  0  0  0  0  0  0  0  0
    1.8870    3.3591   -1.3896 C   0  0  0  0  0  0  0  0  0  0  0  0
    2.8623    3.8132   -1.6208 H   0  0  0  0  0  0  0  0  0  0  0  0
    0.7006    4.0797   -1.6594 C   0  0  0  0  0  0  0  0  0  0  0  0
    0.7573    5.0876   -2.0941 H   0  0  0  0  0  0  0  0  0  0  0  0
   -0.5304    3.4957   -1.3828 C   0  0  0  0  0  3  0  0  0  0  0  0
   -1.4646    4.0397   -1.5978 H   0  0  0  0  0  0  0  0  0  0  0  0
    3.0844    1.3022   -0.5519 C   0  0  0  0  0  0  0  0  0  0  0  0
    3.2567   -0.0232   -1.0080 C   0  0  0  0  0  0  0  0  0  0  0  0
    4.3752   -0.7902   -0.6486 C   0  0  0  0  0  0  0  0  0  0  0  0
    5.3738   -0.2322    0.1655 C   0  0  0  0  0  0  0  0  0  0  0  0
    5.2470    1.0932    0.6120 C   0  0  0  0  0  0  0  0  0  0  0  0
    4.1130    1.8390    0.2494 C   0  0  0  0  0  0  0  0  0  0  0  0
  2 49  1  0  0  0  0
  3 50  1  0  0  0  0
  7  8  1  0  0  0  0
  8 16  1  0  0  0  0
  9 10  1  0  0  0  0
  9  8  2  0  0  0  0
 10 12  2  0  0  0  0
 11 10  1  0  0  0  0
 12 13  1  0  0  0  0
 12 14  1  0  0  0  0
 14 15  1  0  0  0  0
 16 14  2  0  0  0  0
 16 27  1  0  0  0  0
 17 18  1  0  0  0  0
 17  9  1  0  0  0  0
 19 17  1  0  0  0  0
 19 20  1  0  0  0  0
 21 19  1  0  0  0  0
 22 19  1  0  0  0  0
 23 26  1  0  0  0  0
 23 17  1  0  0  0  0
 24 23  1  0  0  0  0
 25 23  1  0  0  0  0
 27 29  1  0  0  0  0
 28 27  1  0  0  0  0
 29 32  1  0  0  0  0
 29 30  1  0  0  0  0
 29 31  1  0  0  0  0
 33 27  1  0  0  0  0
 33 36  1  0  0  0  0
 33 35  1  0  0  0  0
 34 33  1  0  0  0  0
 37  7  1  0  0  0  0
 38 37  1  0  0  0  0
 39 37  2  0  0  0  0
 39 40  1  0  0  0  0
 40  1  1  0  0  0  0
 41 48  1  0  0  0  0
 41 40  2  0  0  0  0
 42 41  1  0  0  0  0
 43 42  1  0  0  0  0
 44 42  2  0  0  0  0
 44 46  1  0  0  0  0
 45 44  1  0  0  0  0
 46 39  1  0  0  0  0
 47 46  1  0  0  0  0
 48 53  1  0  0  0  0
 49 50  1  0  0  0  0
 49 48  2  0  0  0  0
 50 51  2  0  0  0  0
 51  4  1  0  0  0  0
 51 52  1  0  0  0  0
 52  5  1  0  0  0  0
 53 52  2  0  0  0  0
 53  6  1  0  0  0  0
M  CHG  1   1  -1
M  END
