1,13
 OpenBabel05122313063D

 41 42  0  0  0  0  0  0  0  0999 V2000
    1.9456    1.0339   -0.5357 O   0  5  0  0  0  0  0  0  0  0  0  0
    2.8738    0.2612   -1.0602 C   0  0  0  0  0  0  0  0  0  0  0  0
    4.2509    0.6559   -1.0829 C   0  0  0  0  0  0  0  0  0  0  0  0
    5.1740   -0.2928   -1.5529 C   0  0  0  0  0  0  0  0  0  0  0  0
    6.2412   -0.0329   -1.5651 H   0  0  0  0  0  0  0  0  0  0  0  0
    4.7988   -1.5699   -2.0226 C   0  0  0  0  0  0  0  0  0  0  0  0
    5.5689   -2.2762   -2.3646 H   0  0  0  0  0  0  0  0  0  0  0  0
    3.4530   -1.9076   -2.0819 C   0  0  0  0  0  0  0  0  0  0  0  0
    3.1310   -2.8802   -2.4861 H   0  0  0  0  0  0  0  0  0  0  0  0
    2.4699   -0.9964   -1.6189 C   0  0  0  0  0  0  0  0  0  0  0  0
    1.0841   -1.3684   -1.7588 C   0  0  0  0  0  3  0  0  0  0  0  0
    0.9225   -2.3435   -2.2650 H   0  0  0  0  0  0  0  0  0  0  0  0
    0.0134   -0.6966   -1.4008 N   0  0  0  0  0  2  0  0  0  0  0  0
   -1.2546   -1.3176   -1.5776 C   0  0  0  0  0  0  0  0  0  0  0  0
   -1.4756   -2.6698   -1.2216 C   0  0  0  0  0  0  0  0  0  0  0  0
   -0.6327   -3.2833   -0.8716 H   0  0  0  0  0  0  0  0  0  0  0  0
   -2.7578   -3.2173   -1.2495 C   0  0  0  0  0  0  0  0  0  0  0  0
   -2.9438   -4.2535   -0.9332 H   0  0  0  0  0  0  0  0  0  0  0  0
   -3.8597   -2.4233   -1.6338 C   0  0  0  0  0  0  0  0  0  0  0  0
   -3.6380   -1.0940   -2.0520 C   0  0  0  0  0  0  0  0  0  0  0  0
   -4.4699   -0.4618   -2.3864 H   0  0  0  0  0  0  0  0  0  0  0  0
   -2.3489   -0.5508   -2.0203 C   0  0  0  0  0  0  0  0  0  0  0  0
   -2.1827    0.4922   -2.3251 H   0  0  0  0  0  0  0  0  0  0  0  0
   -5.0808   -3.0126   -1.5606 O   0  0  0  0  0  0  0  0  0  0  0  0
   -6.2237   -2.2159   -1.8199 C   0  0  0  0  0  0  0  0  0  0  0  0
   -7.1021   -2.8643   -1.6455 H   0  0  0  0  0  0  0  0  0  0  0  0
   -6.2481   -1.8533   -2.8720 H   0  0  0  0  0  0  0  0  0  0  0  0
   -6.2730   -1.3401   -1.1352 H   0  0  0  0  0  0  0  0  0  0  0  0
    4.6768    2.0743   -0.6601 C   0  0  0  0  0  0  0  0  0  0  0  0
    6.1948    2.2790   -0.8167 C   0  0  0  0  0  0  0  0  0  0  0  0
    6.5321    2.1360   -1.8634 H   0  0  0  0  0  0  0  0  0  0  0  0
    6.7775    1.5939   -0.1664 H   0  0  0  0  0  0  0  0  0  0  0  0
    6.4562    3.3148   -0.5223 H   0  0  0  0  0  0  0  0  0  0  0  0
    4.3144    2.3530    0.8163 C   0  0  0  0  0  0  0  0  0  0  0  0
    3.2270    2.2873    0.9972 H   0  0  0  0  0  0  0  0  0  0  0  0
    4.6417    3.3763    1.0930 H   0  0  0  0  0  0  0  0  0  0  0  0
    4.8327    1.6415    1.4909 H   0  0  0  0  0  0  0  0  0  0  0  0
    3.9607    3.0989   -1.5744 C   0  0  0  0  0  0  0  0  0  0  0  0
    4.2406    2.9402   -2.6357 H   0  0  0  0  0  0  0  0  0  0  0  0
    4.2577    4.1298   -1.2917 H   0  0  0  0  0  0  0  0  0  0  0  0
    2.8605    3.0254   -1.4913 H   0  0  0  0  0  0  0  0  0  0  0  0
  2  1  1  0  0  0  0
  3  2  1  0  0  0  0
  3 29  1  0  0  0  0
  4  3  2  0  0  0  0
  5  4  1  0  0  0  0
  6  4  1  0  0  0  0
  7  6  1  0  0  0  0
  8  6  2  0  0  0  0
  8 10  1  0  0  0  0
  9  8  1  0  0  0  0
 10  2  2  0  0  0  0
 11 10  1  0  0  0  0
 11 13  1  0  0  0  0
 12 11  1  0  0  0  0
 14 13  1  0  0  0  0
 14 15  1  0  0  0  0
 15 16  1  0  0  0  0
 17 15  2  0  0  0  0
 17 18  1  0  0  0  0
 19 24  1  0  0  0  0
 19 17  1  0  0  0  0
 20 22  1  0  0  0  0
 20 19  2  0  0  0  0
 21 20  1  0  0  0  0
 22 14  2  0  0  0  0
 23 22  1  0  0  0  0
 25 26  1  0  0  0  0
 25 24  1  0  0  0  0
 25 28  1  0  0  0  0
 27 25  1  0  0  0  0
 29 34  1  0  0  0  0
 30 29  1  0  0  0  0
 30 33  1  0  0  0  0
 30 32  1  0  0  0  0
 31 30  1  0  0  0  0
 34 35  1  0  0  0  0
 34 36  1  0  0  0  0
 34 37  1  0  0  0  0
 38 41  1  0  0  0  0
 38 40  1  0  0  0  0
 38 29  1  0  0  0  0
 39 38  1  0  0  0  0
M  CHG  1   1  -1
M  END
