1,2
 OpenBabel05122313063D

 34 37  0  0  0  0  0  0  0  0999 V2000
    1.1905    1.2929   -0.6235 O   0  5  0  0  0  0  0  0  0  0  0  0
   -1.2576    1.3768   -0.3248 N   0  0  0  0  0  2  0  0  0  0  0  0
   -0.6690    2.6106   -0.2852 N   0  0  0  0  0  0  0  0  0  0  0  0
   -5.9496    2.4033    0.4989 N   0  0  0  0  0  0  0  0  0  0  0  0
   -5.7553   -0.3929   -0.8201 N   0  0  0  0  0  0  0  0  0  0  0  0
   -2.5815    1.3123   -0.3199 C   0  0  0  0  0  0  0  0  0  0  0  0
   -3.3712    0.1613   -0.7725 C   0  0  0  0  0  0  0  0  0  0  0  0
   -3.0358   -0.9742   -1.5250 C   0  0  0  0  0  3  0  0  0  0  0  0
   -2.0011   -1.1693   -1.8487 H   0  0  0  0  0  0  0  0  0  0  0  0
   -4.0931   -1.8316   -1.8698 C   0  0  0  0  0  0  0  0  0  0  0  0
   -3.8996   -2.7466   -2.4488 H   0  0  0  0  0  0  0  0  0  0  0  0
   -5.4093   -1.5193   -1.4721 C   0  0  0  0  0  0  0  0  0  0  0  0
   -6.2345   -2.2113   -1.7176 H   0  0  0  0  0  0  0  0  0  0  0  0
   -4.7482    0.4248   -0.5048 C   0  0  0  0  0  0  0  0  0  0  0  0
   -4.8458    1.7799    0.0876 C   0  0  0  0  0  0  0  0  0  0  0  0
   -5.7790    3.6498    0.9810 C   0  0  0  0  0  0  0  0  0  0  0  0
   -6.6948    4.1717    1.3112 H   0  0  0  0  0  0  0  0  0  0  0  0
   -4.5331    4.2992    1.0756 C   0  0  0  0  0  0  0  0  0  0  0  0
   -4.4790    5.3217    1.4775 H   0  0  0  0  0  0  0  0  0  0  0  0
   -3.3707    3.6395    0.6399 C   0  0  0  0  0  0  0  0  0  0  0  0
   -2.3796    4.1102    0.6751 H   0  0  0  0  0  0  0  0  0  0  0  0
   -3.5278    2.3424    0.1315 C   0  0  0  0  0  0  0  0  0  0  0  0
    0.6424    2.4690   -0.5052 C   0  0  0  0  0  0  0  0  0  0  0  0
    1.4958    3.6623   -0.6547 C   0  0  0  0  0  0  0  0  0  0  0  0
    0.9540    4.9633   -0.5500 C   0  0  0  0  0  0  0  0  0  0  0  0
   -0.1250    5.0779   -0.3766 H   0  0  0  0  0  0  0  0  0  0  0  0
    1.7869    6.0805   -0.6749 C   0  0  0  0  0  0  0  0  0  0  0  0
    1.3617    7.0919   -0.5905 H   0  0  0  0  0  0  0  0  0  0  0  0
    3.1628    5.9129   -0.9124 C   0  0  0  0  0  0  0  0  0  0  0  0
    3.8148    6.7942   -1.0107 H   0  0  0  0  0  0  0  0  0  0  0  0
    3.7042    4.6218   -1.0285 C   0  0  0  0  0  0  0  0  0  0  0  0
    4.7799    4.4877   -1.2170 H   0  0  0  0  0  0  0  0  0  0  0  0
    2.8771    3.4995   -0.9015 C   0  0  0  0  0  0  0  0  0  0  0  0
    3.2843    2.4831   -0.9868 H   0  0  0  0  0  0  0  0  0  0  0  0
  1 23  1  0  0  0  0
  2  6  1  0  0  0  0
  2  3  1  0  0  0  0
  4 16  1  0  0  0  0
  5 14  2  0  0  0  0
  6 22  1  0  0  0  0
  7 14  1  0  0  0  0
  7  6  2  0  0  0  0
  8  7  1  0  0  0  0
  9  8  1  0  0  0  0
 10  8  1  0  0  0  0
 10 12  2  0  0  0  0
 11 10  1  0  0  0  0
 12  5  1  0  0  0  0
 13 12  1  0  0  0  0
 14 15  1  0  0  0  0
 15 22  1  0  0  0  0
 15  4  2  0  0  0  0
 16 18  2  0  0  0  0
 16 17  1  0  0  0  0
 18 19  1  0  0  0  0
 20 21  1  0  0  0  0
 20 18  1  0  0  0  0
 22 20  2  0  0  0  0
 23  3  2  0  0  0  0
 24 25  1  0  0  0  0
 24 23  1  0  0  0  0
 25 26  1  0  0  0  0
 27 28  1  0  0  0  0
 27 25  2  0  0  0  0
 29 27  1  0  0  0  0
 30 29  1  0  0  0  0
 31 29  2  0  0  0  0
 31 33  1  0  0  0  0
 32 31  1  0  0  0  0
 33 24  2  0  0  0  0
 34 33  1  0  0  0  0
M  CHG  1   1  -1
M  END
