1,4
 OpenBabel05122313063D

 22 22  0  0  0  0  0  0  0  0999 V2000
    0.8025   -1.6640   -0.0627 O   0  0  0  0  0  1  0  0  0  0  0  0
   -0.1426   -2.6126   -0.1657 N   0  0  0  0  0  0  0  0  0  0  0  0
   -1.3911   -2.3098   -0.2282 N   0  0  0  0  0  2  0  0  0  0  0  0
   -1.5752   -1.0061   -0.1886 N   0  0  0  0  0  2  0  0  0  0  0  0
   -2.9287   -0.6057   -0.1130 C   0  0  0  0  0  0  0  0  0  0  0  0
   -3.3434    0.5862   -0.7414 C   0  0  0  0  0  0  0  0  0  0  0  0
   -4.6844    0.9806   -0.6814 C   0  0  0  0  0  0  0  0  0  0  0  0
   -5.6553    0.2103   -0.0089 C   0  0  0  0  0  0  0  0  0  0  0  0
   -5.2269   -0.9850    0.6059 C   0  0  0  0  0  0  0  0  0  0  0  0
   -3.8885   -1.3888    0.5661 C   0  0  0  0  0  0  0  0  0  0  0  0
   -7.0916    0.6609    0.0785 C   0  0  0  0  0  0  0  0  0  0  0  0
    0.3231   -3.9686   -0.3477 C   0  0  0  0  0  0  0  0  0  0  0  0
   -2.5998    1.1921   -1.2731 H   0  0  0  0  0  0  0  0  0  0  0  0
   -4.9909    1.9121   -1.1844 H   0  0  0  0  0  0  0  0  0  0  0  0
   -5.9607   -1.6119    1.1380 H   0  0  0  0  0  0  0  0  0  0  0  0
   -3.5668   -2.3191    1.0546 H   0  0  0  0  0  0  0  0  0  0  0  0
   -7.7916   -0.1986    0.0734 H   0  0  0  0  0  0  0  0  0  0  0  0
   -7.3618    1.3295   -0.7628 H   0  0  0  0  0  0  0  0  0  0  0  0
   -7.2807    1.2258    1.0176 H   0  0  0  0  0  0  0  0  0  0  0  0
   -0.5559   -4.6339   -0.3880 H   0  0  0  0  0  0  0  0  0  0  0  0
    0.9813   -4.2466    0.4995 H   0  0  0  0  0  0  0  0  0  0  0  0
    0.9056   -4.0401   -1.2893 H   0  0  0  0  0  0  0  0  0  0  0  0
  2  1  1  0  0  0  0
  3  4  1  0  0  0  0
  3  2  1  0  0  0  0
  4  5  1  0  0  0  0
  5 10  1  0  0  0  0
  6  7  1  0  0  0  0
  6  5  2  0  0  0  0
  7  8  2  0  0  0  0
  8 11  1  0  0  0  0
  8  9  1  0  0  0  0
  9 15  1  0  0  0  0
 10  9  2  0  0  0  0
 10 16  1  0  0  0  0
 11 19  1  0  0  0  0
 12  2  1  0  0  0  0
 12 21  1  0  0  0  0
 13  6  1  0  0  0  0
 14  7  1  0  0  0  0
 17 11  1  0  0  0  0
 18 11  1  0  0  0  0
 20 12  1  0  0  0  0
 22 12  1  0  0  0  0
M  END
