1,10
 OpenBabel05122313063D

 23 23  0  0  0  0  0  0  0  0999 V2000
   -1.6085    0.7818   -0.3528 O   0  5  0  0  0  0  0  0  0  0  0  0
   -2.7708    0.2246   -0.3101 C   0  0  0  0  0  0  0  0  0  0  0  0
   -3.8557    1.0165   -0.4798 N   0  0  0  0  0  0  0  0  0  0  0  0
   -3.6803    2.4711   -0.5975 C   0  0  0  0  0  0  0  0  0  0  0  0
   -4.3435    3.1850    0.5870 C   0  0  0  0  0  0  0  0  0  0  0  0
   -5.8187    2.7855    0.7215 C   0  0  0  0  0  0  0  0  0  0  0  0
   -5.9713    1.2598    0.7605 C   0  0  0  0  0  0  0  0  0  0  0  0
   -5.2610    0.6044   -0.4302 C   0  0  0  0  0  0  0  0  0  0  0  0
   -2.8014   -1.2155   -0.0880 C   0  0  0  0  0  0  0  0  0  0  0  0
   -1.5480   -1.7979    0.0344 N   0  0  0  0  0  2  0  0  0  0  0  0
   -1.4309   -3.0038    0.2246 O   0  0  0  0  0  1  0  0  0  0  0  0
   -3.9169   -2.0816    0.0484 C   0  0  0  0  0  0  0  0  0  0  0  0
   -4.8321   -2.8123    0.1706 N   0  0  0  0  0  0  0  0  0  0  0  0
   -2.6004    2.6868   -0.6604 H   0  0  0  0  0  0  0  0  0  0  0  0
   -4.1559    2.7904   -1.5520 H   0  0  0  0  0  0  0  0  0  0  0  0
   -3.7906    2.9195    1.5140 H   0  0  0  0  0  0  0  0  0  0  0  0
   -4.2388    4.2815    0.4534 H   0  0  0  0  0  0  0  0  0  0  0  0
   -6.2670    3.2461    1.6255 H   0  0  0  0  0  0  0  0  0  0  0  0
   -6.3860    3.1859   -0.1488 H   0  0  0  0  0  0  0  0  0  0  0  0
   -5.5356    0.8532    1.6988 H   0  0  0  0  0  0  0  0  0  0  0  0
   -7.0404    0.9642    0.7493 H   0  0  0  0  0  0  0  0  0  0  0  0
   -5.3418   -0.4929   -0.3900 H   0  0  0  0  0  0  0  0  0  0  0  0
   -5.7351    0.9337   -1.3823 H   0  0  0  0  0  0  0  0  0  0  0  0
  1  2  1  0  0  0  0
  2  9  2  0  0  0  0
  3  8  1  0  0  0  0
  3  2  1  0  0  0  0
  4  3  1  0  0  0  0
  4  5  1  0  0  0  0
  5  6  1  0  0  0  0
  5 16  1  0  0  0  0
  6  7  1  0  0  0  0
  6 18  1  0  0  0  0
  7 20  1  0  0  0  0
  8 22  1  0  0  0  0
  8  7  1  0  0  0  0
  9 10  1  0  0  0  0
  9 12  1  0  0  0  0
 10 11  1  0  0  0  0
 12 13  3  0  0  0  0
 14  4  1  0  0  0  0
 15  4  1  0  0  0  0
 17  5  1  0  0  0  0
 19  6  1  0  0  0  0
 21  7  1  0  0  0  0
 23  8  1  0  0  0  0
M  CHG  1   1  -1
M  END
