1,5
 OpenBabel05122313063D

 19 20  0  0  1  0  0  0  0  0999 V2000
    1.4159    0.4139    0.0034 N   0  0  0  0  0  2  0  0  0  0  0  0
    2.4526   -2.4264   -0.0027 N   0  0  0  0  0  0  0  0  0  0  0  0
    1.1858    1.7203    0.0070 O   0  0  0  0  0  0  0  0  0  0  0  0
    0.0003    1.8085    0.0053 H   0  0  0  0  0  0  0  0  0  0  0  0
    1.1707   -2.3441    0.0002 O   0  5  0  0  0  0  0  0  0  0  0  0
    5.4380   -2.2793   -0.0088 O   0  0  0  0  0  0  0  0  0  0  0  0
    2.6940    0.0578    0.0009 C   0  0  1  0  0  3  0  0  0  0  0  0
    3.1714   -1.3188   -0.0026 C   0  0  0  0  0  0  0  0  0  0  0  0
    4.6607   -1.3262   -0.0055 C   0  0  0  0  0  0  0  0  0  0  0  0
    5.0398    0.1246   -0.0030 C   0  0  0  0  0  0  0  0  0  0  0  0
    3.8724    0.9375    0.0009 C   0  0  0  0  0  0  0  0  0  0  0  0
    4.0018    2.3399    0.0037 C   0  0  0  0  0  0  0  0  0  0  0  0
    3.1033    2.9679    0.0068 H   0  0  0  0  0  0  0  0  0  0  0  0
    5.2946    2.8932    0.0026 C   0  0  0  0  0  0  0  0  0  0  0  0
    5.4078    3.9891    0.0048 H   0  0  0  0  0  0  0  0  0  0  0  0
    6.4467    2.0802   -0.0013 C   0  0  0  0  0  0  0  0  0  0  0  0
    7.4443    2.5470   -0.0021 H   0  0  0  0  0  0  0  0  0  0  0  0
    6.3208    0.6805   -0.0042 C   0  0  0  0  0  0  0  0  0  0  0  0
    7.1951    0.0110   -0.0072 H   0  0  0  0  0  0  0  0  0  0  0  0
  1  3  1  0  0  0  0
  2  8  2  0  0  0  0
  2  5  1  0  0  0  0
  4  3  1  0  0  0  0
  6  9  2  0  0  0  0
  7  1  1  6  0  0  0
  8  7  1  0  0  0  0
  9 10  1  0  0  0  0
  9  8  1  0  0  0  0
 10 11  1  0  0  0  0
 11  7  1  0  0  0  0
 11 12  2  0  0  0  0
 12 13  1  0  0  0  0
 14 12  1  0  0  0  0
 14 15  1  0  0  0  0
 16 14  2  0  0  0  0
 17 16  1  0  0  0  0
 18 10  2  0  0  0  0
 18 16  1  0  0  0  0
 19 18  1  0  0  0  0
M  CHG  1   5  -1
M  END
