1,2
 OpenBabel05122313063D

 14 14  0  0  0  0  0  0  0  0999 V2000
    1.1627    1.3809   -0.5278 O   0  5  0  0  0  0  0  0  0  0  0  0
    1.7961   -0.9853    0.1688 N   0  0  0  0  0  2  0  0  0  0  0  0
    2.3313   -2.1242    0.6461 C   0  0  0  0  0  3  0  0  0  0  0  0
    3.7513   -2.0220    0.7014 C   0  0  0  0  0  0  0  0  0  0  0  0
    4.0891   -0.7431    0.2421 C   0  0  0  0  0  0  0  0  0  0  0  0
    2.8571   -0.1058   -0.0756 C   0  0  0  0  0  0  0  0  0  0  0  0
    2.4342    1.1836   -0.4629 C   0  0  0  0  0  0  0  0  0  0  0  0
    3.3511    2.3229   -0.7863 C   0  0  0  0  0  0  0  0  0  0  0  0
    1.7044   -2.9693    0.9537 H   0  0  0  0  0  0  0  0  0  0  0  0
    4.4354   -2.8047    1.0500 H   0  0  0  0  0  0  0  0  0  0  0  0
    5.0914   -0.3067    0.1592 H   0  0  0  0  0  0  0  0  0  0  0  0
    3.1246    3.1852   -0.1264 H   0  0  0  0  0  0  0  0  0  0  0  0
    4.4146    2.0454   -0.6744 H   0  0  0  0  0  0  0  0  0  0  0  0
    3.1706    2.6604   -1.8276 H   0  0  0  0  0  0  0  0  0  0  0  0
  1  7  1  0  0  0  0
  2  3  1  0  0  0  0
  3  4  1  0  0  0  0
  3  9  1  0  0  0  0
  4 10  1  0  0  0  0
  5  4  2  0  0  0  0
  6  2  1  0  0  0  0
  6  5  1  0  0  0  0
  7  6  2  0  0  0  0
  8 13  1  0  0  0  0
  8  7  1  0  0  0  0
  8 12  1  0  0  0  0
 11  5  1  0  0  0  0
 14  8  1  0  0  0  0
M  CHG  1   1  -1
M  END
