1,2
 OpenBabel05122313063D

 41 43  0  0  1  0  0  0  0  0999 V2000
    1.1985    0.9748   -0.3889 N   0  0  0  0  0  2  0  0  0  0  0  0
    0.3402   -1.7769   -0.5385 O   0  0  0  0  0  1  0  0  0  0  0  0
   -8.1492   -0.9283   -0.1157 C   0  0  0  0  0  0  0  0  0  0  0  0
   -7.9133   -2.0020   -0.1575 H   0  0  0  0  0  0  0  0  0  0  0  0
   -5.7813   -0.5874   -0.2199 N   0  0  0  0  0  2  0  0  0  0  0  0
    1.4512    2.2922    1.9887 O   0  0  0  0  0  0  0  0  0  0  0  0
   -9.4677   -0.4618   -0.0394 C   0  0  0  0  0  0  0  0  0  0  0  0
  -10.3036   -1.1778   -0.0195 H   0  0  0  0  0  0  0  0  0  0  0  0
   -4.8243    0.2524   -0.2332 N   0  0  0  0  0  2  0  0  0  0  0  0
   -9.7220    0.9188    0.0106 C   0  0  0  0  0  0  0  0  0  0  0  0
  -10.7574    1.2877    0.0696 H   0  0  0  0  0  0  0  0  0  0  0  0
   -8.6488    1.8312   -0.0165 C   0  0  0  0  0  0  0  0  0  0  0  0
   -8.8509    2.9133    0.0213 H   0  0  0  0  0  0  0  0  0  0  0  0
   -7.3311    1.3732   -0.0922 C   0  0  0  0  0  0  0  0  0  0  0  0
   -6.4726    2.0592   -0.1160 H   0  0  0  0  0  0  0  0  0  0  0  0
   -7.0701   -0.0177   -0.1421 C   0  0  0  0  0  0  0  0  0  0  0  0
   -3.5435   -0.3009   -0.3115 C   0  0  0  0  0  0  0  0  0  0  0  0
   -3.2647   -1.7033   -0.3796 C   0  0  0  0  0  0  0  0  0  0  0  0
   -4.1231   -2.3906   -0.3754 H   0  0  0  0  0  0  0  0  0  0  0  0
   -1.9659   -2.1612   -0.4494 C   0  0  0  0  0  0  0  0  0  0  0  0
   -1.7368   -3.2357   -0.5073 H   0  0  0  0  0  0  0  0  0  0  0  0
   -0.8424   -1.2610   -0.4693 C   0  0  1  0  0  3  0  0  0  0  0  0
   -1.1236    0.1571   -0.3909 C   0  0  0  0  0  0  0  0  0  0  0  0
   -2.4679    0.5940   -0.3173 C   0  0  0  0  0  0  0  0  0  0  0  0
   -2.6983    1.6694   -0.2593 H   0  0  0  0  0  0  0  0  0  0  0  0
   -0.0976    1.1557   -0.3451 C   0  0  0  0  0  0  0  0  0  0  0  0
   -0.4480    2.2017   -0.2503 H   0  0  0  0  0  0  0  0  0  0  0  0
    2.0328    2.1289   -0.2963 C   0  0  0  0  0  0  0  0  0  0  0  0
    2.7557    2.5625   -1.4175 C   0  0  0  0  0  0  0  0  0  0  0  0
    2.6267    1.9907   -2.3499 H   0  0  0  0  0  0  0  0  0  0  0  0
    3.6211    3.6624   -1.3190 C   0  0  0  0  0  0  0  0  0  0  0  0
    4.1801    4.0011   -2.2035 H   0  0  0  0  0  0  0  0  0  0  0  0
    3.7669    4.3235   -0.0903 C   0  0  0  0  0  0  0  0  0  0  0  0
    4.4447    5.1859   -0.0017 H   0  0  0  0  0  0  0  0  0  0  0  0
    3.0507    3.8983    1.0412 C   0  0  0  0  0  0  0  0  0  0  0  0
    3.1790    4.4272    1.9951 H   0  0  0  0  0  0  0  0  0  0  0  0
    2.1748    2.7987    0.9485 C   0  0  0  0  0  0  0  0  0  0  0  0
    1.5285    2.9389    3.2463 C   0  0  0  0  0  0  0  0  0  0  0  0
    2.5625    2.9217    3.6584 H   0  0  0  0  0  0  0  0  0  0  0  0
    0.8606    2.3766    3.9246 H   0  0  0  0  0  0  0  0  0  0  0  0
    1.1842    3.9952    3.1883 H   0  0  0  0  0  0  0  0  0  0  0  0
  1 26  1  0  0  0  0
  1 28  1  0  0  0  0
  3  7  1  0  0  0  0
  4  3  1  0  0  0  0
  5 16  1  0  0  0  0
  6 38  1  0  0  0  0
  7  8  1  0  0  0  0
  7 10  2  0  0  0  0
  9  5  1  0  0  0  0
 10 11  1  0  0  0  0
 12 10  1  0  0  0  0
 12 13  1  0  0  0  0
 14 12  2  0  0  0  0
 15 14  1  0  0  0  0
 16  3  2  0  0  0  0
 16 14  1  0  0  0  0
 17  9  1  0  0  0  0
 18 19  1  0  0  0  0
 18 17  1  0  0  0  0
 20 18  2  0  0  0  0
 21 20  1  0  0  0  0
 22  2  1  1  0  0  0
 22 20  1  0  0  0  0
 22 23  1  0  0  0  0
 23 26  2  0  0  0  0
 23 24  1  0  0  0  0
 24 17  2  0  0  0  0
 24 25  1  0  0  0  0
 26 27  1  0  0  0  0
 28 37  1  0  0  0  0
 29 31  1  0  0  0  0
 29 28  2  0  0  0  0
 30 29  1  0  0  0  0
 31 33  2  0  0  0  0
 32 31  1  0  0  0  0
 33 34  1  0  0  0  0
 33 35  1  0  0  0  0
 35 36  1  0  0  0  0
 37 35  2  0  0  0  0
 37  6  1  0  0  0  0
 38 39  1  0  0  0  0
 38 40  1  0  0  0  0
 41 38  1  0  0  0  0
M  END
