1,2
 OpenBabel05122313063D

 42 44  0  0  0  0  0  0  0  0999 V2000
    0.9213   -1.1306   -1.4625 O   0  5  0  0  0  0  0  0  0  0  0  0
   -0.7432    0.1668    0.0910 N   0  0  0  0  0  0  0  0  0  0  0  0
    0.3877    0.9821    0.5778 C   0  0  0  0  0  0  0  0  0  0  0  0
    0.4847    0.7856    1.6704 H   0  0  0  0  0  0  0  0  0  0  0  0
    0.1101    2.0573    0.4916 H   0  0  0  0  0  0  0  0  0  0  0  0
   -2.0333    0.4875    0.7449 C   0  0  0  0  0  0  0  0  0  0  0  0
   -1.9021    0.3498    1.8387 H   0  0  0  0  0  0  0  0  0  0  0  0
   -2.7519   -0.2750    0.3821 H   0  0  0  0  0  0  0  0  0  0  0  0
   -2.5917    1.8870    0.4450 C   0  0  0  0  0  0  0  0  0  0  0  0
   -1.9189    2.6576    0.8891 H   0  0  0  0  0  0  0  0  0  0  0  0
   -2.6954    2.1604   -1.0666 C   0  0  0  0  0  0  0  0  0  0  0  0
   -1.6895    2.1265   -1.5387 H   0  0  0  0  0  0  0  0  0  0  0  0
   -3.2803    1.3384   -1.5374 H   0  0  0  0  0  0  0  0  0  0  0  0
   -3.3490    3.5157   -1.3644 C   0  0  0  0  0  0  0  0  0  0  0  0
   -3.4425    3.6578   -2.4610 H   0  0  0  0  0  0  0  0  0  0  0  0
   -2.6810    4.3292   -1.0012 H   0  0  0  0  0  0  0  0  0  0  0  0
   -4.7168    3.6488   -0.6839 C   0  0  0  0  0  0  0  0  0  0  0  0
   -5.1539    4.6495   -0.8833 H   0  0  0  0  0  0  0  0  0  0  0  0
   -5.4185    2.9061   -1.1258 H   0  0  0  0  0  0  0  0  0  0  0  0
   -4.6087    3.4012    0.8257 C   0  0  0  0  0  0  0  0  0  0  0  0
   -5.6081    3.4631    1.3050 H   0  0  0  0  0  0  0  0  0  0  0  0
   -3.9912    4.2054    1.2859 H   0  0  0  0  0  0  0  0  0  0  0  0
   -3.9665    2.0406    1.1210 C   0  0  0  0  0  0  0  0  0  0  0  0
   -4.6352    1.2310    0.7492 H   0  0  0  0  0  0  0  0  0  0  0  0
   -3.8687    1.8849    2.2173 H   0  0  0  0  0  0  0  0  0  0  0  0
    1.6925    0.7648   -0.1490 C   0  0  0  0  0  0  0  0  0  0  0  0
    1.8459   -0.2400   -1.1348 C   0  0  0  0  0  0  0  0  0  0  0  0
    3.0879   -0.3066   -1.8630 C   0  0  0  0  0  0  0  0  0  0  0  0
    3.1585   -1.0800   -2.6421 H   0  0  0  0  0  0  0  0  0  0  0  0
    4.1340    0.5458   -1.5902 C   0  0  0  0  0  0  0  0  0  0  0  0
    5.0761    0.4688   -2.1562 H   0  0  0  0  0  0  0  0  0  0  0  0
    4.0282    1.5337   -0.5642 C   0  0  0  0  0  0  0  0  0  0  0  0
    5.1070    2.4046   -0.2512 C   0  0  0  0  0  0  0  0  0  0  0  0
    6.0442    2.2997   -0.8211 H   0  0  0  0  0  0  0  0  0  0  0  0
    4.9934    3.3674    0.7439 C   0  0  0  0  0  0  0  0  0  0  0  0
    5.8374    4.0345    0.9745 H   0  0  0  0  0  0  0  0  0  0  0  0
    3.7766    3.4839    1.4606 C   0  0  0  0  0  0  0  0  0  0  0  0
    3.6789    4.2444    2.2509 H   0  0  0  0  0  0  0  0  0  0  0  0
    2.7027    2.6477    1.1779 C   0  0  0  0  0  0  0  0  0  0  0  0
    1.7771    2.7678    1.7594 H   0  0  0  0  0  0  0  0  0  0  0  0
    2.7839    1.6434    0.1622 C   0  0  0  0  0  0  0  0  0  0  0  0
   -0.8588    0.3020   -0.9293 H   0  0  0  0  0  0  0  0  0  0  0  0
  1 27  1  0  0  0  0
  2  3  1  0  0  0  0
  2  6  1  0  0  0  0
  3  4  1  0  0  0  0
  5  3  1  0  0  0  0
  6  7  1  0  0  0  0
  8  6  1  0  0  0  0
  9  6  1  0  0  0  0
  9 10  1  0  0  0  0
  9 23  1  0  0  0  0
 11  9  1  0  0  0  0
 12 11  1  0  0  0  0
 13 11  1  0  0  0  0
 14 11  1  0  0  0  0
 14 16  1  0  0  0  0
 14 17  1  0  0  0  0
 15 14  1  0  0  0  0
 17 20  1  0  0  0  0
 18 17  1  0  0  0  0
 19 17  1  0  0  0  0
 20 23  1  0  0  0  0
 20 22  1  0  0  0  0
 20 21  1  0  0  0  0
 23 25  1  0  0  0  0
 24 23  1  0  0  0  0
 26 41  1  0  0  0  0
 26  3  1  0  0  0  0
 27 26  2  0  0  0  0
 28 30  2  0  0  0  0
 28 27  1  0  0  0  0
 29 28  1  0  0  0  0
 30 32  1  0  0  0  0
 31 30  1  0  0  0  0
 32 33  2  0  0  0  0
 32 41  1  0  0  0  0
 33 35  1  0  0  0  0
 34 33  1  0  0  0  0
 35 36  1  0  0  0  0
 35 37  2  0  0  0  0
 37 38  1  0  0  0  0
 39 37  1  0  0  0  0
 39 40  1  0  0  0  0
 41 39  2  0  0  0  0
 42  2  1  0  0  0  0
M  CHG  1   1  -1
M  END
