3,4
 OpenBabel05122313063D

 33 33  0  0  0  0  0  0  0  0999 V2000
    3.5163   -2.6630    0.9899 Cl  0  0  0  0  0  0  0  0  0  0  0  0
    5.9536    2.0340   -0.2472 Cl  0  0  0  0  0  0  0  0  0  0  0  0
    1.1401   -1.3986   -0.1041 O   0  5  0  0  0  0  0  0  0  0  0  0
   -0.2386    0.8300   -1.4188 N   0  0  0  0  0  2  0  0  0  0  0  0
   -3.9624    1.9812    0.3958 N   0  3  0  0  0  0  0  0  0  0  0  0
    2.1345    0.7325   -0.7266 C   0  0  0  0  0  0  0  0  0  0  0  0
    2.1502   -0.6092   -0.1631 C   0  0  0  0  0  0  0  0  0  0  0  0
    3.4368   -1.0583    0.3300 C   0  0  0  0  0  0  0  0  0  0  0  0
    4.5731   -0.2611    0.3122 C   0  0  0  0  0  0  0  0  0  0  0  0
    5.5181   -0.6469    0.7176 H   0  0  0  0  0  0  0  0  0  0  0  0
    4.5092    1.0464   -0.2295 C   0  0  0  0  0  0  0  0  0  0  0  0
    3.3187    1.5282   -0.7473 C   0  0  0  0  0  0  0  0  0  0  0  0
    3.2828    2.5367   -1.1855 H   0  0  0  0  0  0  0  0  0  0  0  0
    0.9823    1.3003   -1.3718 C   0  0  0  0  0  3  0  0  0  0  0  0
    1.1845    2.2515   -1.9178 H   0  0  0  0  0  0  0  0  0  0  0  0
   -1.1902    1.5039   -2.2921 C   0  0  0  0  0  0  0  0  0  0  0  0
   -1.2301    0.9623   -3.2633 H   0  0  0  0  0  0  0  0  0  0  0  0
   -0.8462    2.5424   -2.5182 H   0  0  0  0  0  0  0  0  0  0  0  0
   -2.6141    1.5007   -1.7185 C   0  0  0  0  0  0  0  0  0  0  0  0
   -3.2987    1.9874   -2.4464 H   0  0  0  0  0  0  0  0  0  0  0  0
   -2.9091    0.4316   -1.6307 H   0  0  0  0  0  0  0  0  0  0  0  0
   -2.6592    2.1792   -0.3618 C   0  0  0  0  0  0  0  0  0  0  0  0
   -2.5209    3.2773   -0.4376 H   0  0  0  0  0  0  0  0  0  0  0  0
   -1.8767    1.7667    0.3141 H   0  0  0  0  0  0  0  0  0  0  0  0
   -3.8862    2.6880    1.7148 C   0  0  0  0  0  0  0  0  0  0  0  0
   -4.8540    2.5871    2.2378 H   0  0  0  0  0  0  0  0  0  0  0  0
   -3.6480    3.7533    1.5439 H   0  0  0  0  0  0  0  0  0  0  0  0
   -3.0768    2.1975    2.2929 H   0  0  0  0  0  0  0  0  0  0  0  0
   -4.3414    0.5384    0.6030 C   0  0  0  0  0  0  0  0  0  0  0  0
   -3.5305    0.0644    1.1948 H   0  0  0  0  0  0  0  0  0  0  0  0
   -4.4211    0.0182   -0.3663 H   0  0  0  0  0  0  0  0  0  0  0  0
   -5.3035    0.5149    1.1459 H   0  0  0  0  0  0  0  0  0  0  0  0
   -4.7126    2.4190   -0.1662 H   0  0  0  0  0  0  0  0  0  0  0  0
  2 11  1  0  0  0  0
  4 14  1  0  0  0  0
  5 29  1  0  0  0  0
  5 25  1  0  0  0  0
  6  7  1  0  0  0  0
  7  3  1  0  0  0  0
  7  8  2  0  0  0  0
  8  1  1  0  0  0  0
  9  8  1  0  0  0  0
  9 10  1  0  0  0  0
 11  9  2  0  0  0  0
 12  6  2  0  0  0  0
 12 11  1  0  0  0  0
 13 12  1  0  0  0  0
 14  6  1  0  0  0  0
 15 14  1  0  0  0  0
 16 19  1  0  0  0  0
 16  4  1  0  0  0  0
 17 16  1  0  0  0  0
 18 16  1  0  0  0  0
 19 21  1  0  0  0  0
 19 22  1  0  0  0  0
 20 19  1  0  0  0  0
 22 24  1  0  0  0  0
 22  5  1  0  0  0  0
 23 22  1  0  0  0  0
 25 26  1  0  0  0  0
 25 28  1  0  0  0  0
 27 25  1  0  0  0  0
 29 32  1  0  0  0  0
 29 30  1  0  0  0  0
 31 29  1  0  0  0  0
 33  5  1  0  0  0  0
M  CHG  2   3  -1   5   1
M  END
