3,4
 OpenBabel05122313063D

 22 23  0  0  0  0  0  0  0  0999 V2000
   -3.4462    2.3916   -2.0936 Br  0  0  0  0  0  0  0  0  0  0  0  0
   -7.3684   -1.0502    0.2149 Br  0  0  0  0  0  0  0  0  0  0  0  0
   -1.5853    0.6435   -0.5209 O   0  5  0  0  0  0  0  0  0  0  0  0
   -0.9332   -1.5184    1.3696 N   0  0  0  0  0  2  0  0  0  0  0  0
   -3.1753   -0.8658    0.5359 C   0  0  0  0  0  0  0  0  0  0  0  0
   -2.7998    0.2386   -0.3252 C   0  0  0  0  0  0  0  0  0  0  0  0
   -3.8868    0.9190   -0.9813 C   0  0  0  0  0  0  0  0  0  0  0  0
   -5.2183    0.5472   -0.8269 C   0  0  0  0  0  0  0  0  0  0  0  0
   -6.0081    1.1015   -1.3519 H   0  0  0  0  0  0  0  0  0  0  0  0
   -5.5442   -0.5437    0.0107 C   0  0  0  0  0  0  0  0  0  0  0  0
   -4.5437   -1.2360    0.6780 C   0  0  0  0  0  0  0  0  0  0  0  0
   -4.8020   -2.0832    1.3305 H   0  0  0  0  0  0  0  0  0  0  0  0
   -2.2315   -1.6613    1.2842 C   0  0  0  0  0  3  0  0  0  0  0  0
   -2.6869   -2.4963    1.8604 H   0  0  0  0  0  0  0  0  0  0  0  0
   -0.1924   -2.4511    2.1653 C   0  0  0  0  0  0  0  0  0  0  0  0
   -0.8220   -3.1138    2.7878 H   0  0  0  0  0  0  0  0  0  0  0  0
    1.1556   -2.0413    2.7205 C   0  0  0  0  0  0  0  0  0  0  0  0
    1.5085   -1.0259    2.4778 H   0  0  0  0  0  0  0  0  0  0  0  0
    1.4087   -2.3771    3.7378 H   0  0  0  0  0  0  0  0  0  0  0  0
    1.0881   -3.0425    1.6003 C   0  0  0  0  0  0  0  0  0  0  0  0
    1.2834   -4.1035    1.8193 H   0  0  0  0  0  0  0  0  0  0  0  0
    1.3881   -2.7043    0.5956 H   0  0  0  0  0  0  0  0  0  0  0  0
  1  7  1  0  0  0  0
  3  6  1  0  0  0  0
  4 15  1  0  0  0  0
  5 11  1  0  0  0  0
  5 13  1  0  0  0  0
  6  5  2  0  0  0  0
  7  8  2  0  0  0  0
  7  6  1  0  0  0  0
  8 10  1  0  0  0  0
  9  8  1  0  0  0  0
 10  2  1  0  0  0  0
 10 11  2  0  0  0  0
 11 12  1  0  0  0  0
 13  4  1  0  0  0  0
 13 14  1  0  0  0  0
 15 17  1  0  0  0  0
 15 16  1  0  0  0  0
 17 19  1  0  0  0  0
 18 17  1  0  0  0  0
 20 21  1  0  0  0  0
 20 15  1  0  0  0  0
 20 17  1  0  0  0  0
 22 20  1  0  0  0  0
M  CHG  1   3  -1
M  END
