1,2
 OpenBabel05122313063D

 33 35  0  0  1  0  0  0  0  0999 V2000
   -1.6515    0.1305   -0.1386 N   0  0  0  0  0  2  0  0  0  0  0  0
    0.3464    1.4233    1.2935 O   0  5  0  0  0  0  0  0  0  0  0  0
   -2.2390   -1.7774    1.7118 O   0  0  0  0  0  0  0  0  0  0  0  0
   -1.2737   -1.5820    1.8375 H   0  0  0  0  0  0  0  0  0  0  0  0
   -0.5293    2.3762    1.5437 C   0  0  0  0  0  0  0  0  0  0  0  0
   -0.1439    3.5377    2.2574 C   0  0  0  0  0  0  0  0  0  0  0  0
    0.9106    3.6326    2.5539 H   0  0  0  0  0  0  0  0  0  0  0  0
   -1.0812    4.5264    2.5627 C   0  0  0  0  0  0  0  0  0  0  0  0
   -0.7593    5.4276    3.1075 H   0  0  0  0  0  0  0  0  0  0  0  0
   -2.4344    4.3807    2.1867 C   0  0  0  0  0  0  0  0  0  0  0  0
   -3.1678    5.1609    2.4367 H   0  0  0  0  0  0  0  0  0  0  0  0
   -2.8313    3.2349    1.4990 C   0  0  0  0  0  0  0  0  0  0  0  0
   -3.8841    3.1014    1.2027 H   0  0  0  0  0  0  0  0  0  0  0  0
   -1.8988    2.2244    1.1480 C   0  0  0  0  0  0  0  0  0  0  0  0
   -2.3748    1.0495    0.4634 C   0  0  0  0  0  3  0  0  0  0  0  0
   -3.4706    0.9184    0.4397 H   0  0  0  0  0  0  0  0  0  0  0  0
   -2.3646   -1.0498   -0.6718 C   0  0  2  0  0  0  0  0  0  0  0  0
   -1.7993   -1.3695   -1.5712 H   0  0  0  0  0  0  0  0  0  0  0  0
   -3.8244   -0.8774   -1.0266 C   0  0  0  0  0  0  0  0  0  0  0  0
   -4.4215    0.1241   -1.8098 C   0  0  0  0  0  0  0  0  0  0  0  0
   -3.8157    0.9489   -2.2165 H   0  0  0  0  0  0  0  0  0  0  0  0
   -5.8017    0.0630   -2.0597 C   0  0  0  0  0  0  0  0  0  0  0  0
   -6.2837    0.8438   -2.6674 H   0  0  0  0  0  0  0  0  0  0  0  0
   -6.5708   -0.9952   -1.5408 C   0  0  0  0  0  0  0  0  0  0  0  0
   -7.6529   -1.0318   -1.7400 H   0  0  0  0  0  0  0  0  0  0  0  0
   -5.9677   -2.0076   -0.7770 C   0  0  0  0  0  0  0  0  0  0  0  0
   -6.5711   -2.8402   -0.3825 H   0  0  0  0  0  0  0  0  0  0  0  0
   -4.5891   -1.9469   -0.5220 C   0  0  0  0  0  0  0  0  0  0  0  0
   -3.7206   -2.9361    0.2129 C   0  0  0  0  0  0  0  0  0  0  0  0
   -3.6166   -3.8718   -0.3776 H   0  0  0  0  0  0  0  0  0  0  0  0
   -4.1192   -3.2180    1.2085 H   0  0  0  0  0  0  0  0  0  0  0  0
   -2.3517   -2.2397    0.3930 C   0  0  2  0  0  0  0  0  0  0  0  0
   -1.5065   -2.9188    0.1418 H   0  0  0  0  0  0  0  0  0  0  0  0
  1 15  1  0  0  0  0
  2  5  1  0  0  0  0
  3  4  1  0  0  0  0
  5  6  1  0  0  0  0
  6  7  1  0  0  0  0
  6  8  2  0  0  0  0
  8  9  1  0  0  0  0
 10 11  1  0  0  0  0
 10  8  1  0  0  0  0
 12 10  2  0  0  0  0
 13 12  1  0  0  0  0
 14 12  1  0  0  0  0
 14  5  2  0  0  0  0
 15 14  1  0  0  0  0
 16 15  1  0  0  0  0
 17 18  1  6  0  0  0
 17  1  1  0  0  0  0
 17 32  1  0  0  0  0
 19 17  1  0  0  0  0
 19 28  1  0  0  0  0
 20 19  2  0  0  0  0
 21 20  1  0  0  0  0
 22 20  1  0  0  0  0
 22 24  2  0  0  0  0
 23 22  1  0  0  0  0
 24 26  1  0  0  0  0
 25 24  1  0  0  0  0
 26 28  2  0  0  0  0
 26 27  1  0  0  0  0
 28 29  1  0  0  0  0
 29 32  1  0  0  0  0
 29 31  1  0  0  0  0
 30 29  1  0  0  0  0
 32 33  1  6  0  0  0
 32  3  1  0  0  0  0
M  CHG  1   2  -1
M  END
