1,2
 OpenBabel05122313063D

 34 35  0  0  0  0  0  0  0  0999 V2000
    1.6136   -0.6319    0.6143 O   0  5  0  0  0  0  0  0  0  0  0  0
   -0.7731   -1.7513    0.0587 N   0  0  0  0  0  2  0  0  0  0  0  0
    2.1199   -1.8070    0.3665 C   0  0  0  0  0  0  0  0  0  0  0  0
    3.5415   -1.9429    0.4306 C   0  0  0  0  0  0  0  0  0  0  0  0
    4.1171   -1.0332    0.6556 H   0  0  0  0  0  0  0  0  0  0  0  0
    4.1567   -3.1641    0.1891 C   0  0  0  0  0  0  0  0  0  0  0  0
    5.2553   -3.2346    0.2262 H   0  0  0  0  0  0  0  0  0  0  0  0
    3.3866   -4.3127   -0.1144 C   0  0  0  0  0  0  0  0  0  0  0  0
    3.8768   -5.2757   -0.3177 H   0  0  0  0  0  0  0  0  0  0  0  0
    2.0004   -4.2105   -0.1550 C   0  0  0  0  0  3  0  0  0  0  0  0
    1.4103   -5.1071   -0.3912 H   0  0  0  0  0  0  0  0  0  0  0  0
    1.3289   -2.9758    0.0768 C   0  0  0  0  0  0  0  0  0  0  0  0
   -0.1214   -2.9063    0.0985 C   0  0  0  0  0  0  0  0  0  0  0  0
   -0.8834   -4.2099    0.1912 C   0  0  0  0  0  0  0  0  0  0  0  0
   -1.9437   -4.0450    0.4482 H   0  0  0  0  0  0  0  0  0  0  0  0
   -0.4234   -4.8744    0.9468 H   0  0  0  0  0  0  0  0  0  0  0  0
   -0.8509   -4.7492   -0.7787 H   0  0  0  0  0  0  0  0  0  0  0  0
   -2.2066   -1.7609    0.1129 C   0  0  0  0  0  0  0  0  0  0  0  0
   -2.8409   -1.4912    1.3483 C   0  0  0  0  0  0  0  0  0  0  0  0
   -4.2472   -1.4894    1.3871 C   0  0  0  0  0  0  0  0  0  0  0  0
   -4.7528   -1.2846    2.3436 H   0  0  0  0  0  0  0  0  0  0  0  0
   -5.0007   -1.7339    0.2308 C   0  0  0  0  0  0  0  0  0  0  0  0
   -6.1001   -1.7296    0.2781 H   0  0  0  0  0  0  0  0  0  0  0  0
   -4.3507   -1.9658   -0.9899 C   0  0  0  0  0  0  0  0  0  0  0  0
   -4.9392   -2.1312   -1.9060 H   0  0  0  0  0  0  0  0  0  0  0  0
   -2.9468   -1.9750   -1.0741 C   0  0  0  0  0  0  0  0  0  0  0  0
   -2.0160   -1.1731    2.5657 C   0  0  0  0  0  0  0  0  0  0  0  0
   -2.6539   -1.0077    3.4543 H   0  0  0  0  0  0  0  0  0  0  0  0
   -1.4125   -0.2555    2.3895 H   0  0  0  0  0  0  0  0  0  0  0  0
   -1.2882   -1.9773    2.7999 H   0  0  0  0  0  0  0  0  0  0  0  0
   -2.2382   -2.1498   -2.3901 C   0  0  0  0  0  0  0  0  0  0  0  0
   -1.5540   -1.2941   -2.5654 H   0  0  0  0  0  0  0  0  0  0  0  0
   -2.9593   -2.2021   -3.2276 H   0  0  0  0  0  0  0  0  0  0  0  0
   -1.6176   -3.0696   -2.4200 H   0  0  0  0  0  0  0  0  0  0  0  0
  2 13  1  0  0  0  0
  2 18  1  0  0  0  0
  3  4  2  0  0  0  0
  3  1  1  0  0  0  0
  4  5  1  0  0  0  0
  6  7  1  0  0  0  0
  6  4  1  0  0  0  0
  8  6  2  0  0  0  0
  9  8  1  0  0  0  0
 10  8  1  0  0  0  0
 10 12  1  0  0  0  0
 11 10  1  0  0  0  0
 12 13  2  0  0  0  0
 12  3  1  0  0  0  0
 13 14  1  0  0  0  0
 14 15  1  0  0  0  0
 14 16  1  0  0  0  0
 17 14  1  0  0  0  0
 18 19  1  0  0  0  0
 19 20  2  0  0  0  0
 19 27  1  0  0  0  0
 20 21  1  0  0  0  0
 22 23  1  0  0  0  0
 22 20  1  0  0  0  0
 24 22  2  0  0  0  0
 25 24  1  0  0  0  0
 26 24  1  0  0  0  0
 26 18  2  0  0  0  0
 27 30  1  0  0  0  0
 27 28  1  0  0  0  0
 29 27  1  0  0  0  0
 31 26  1  0  0  0  0
 32 31  1  0  0  0  0
 33 31  1  0  0  0  0
 34 31  1  0  0  0  0
M  CHG  1   1  -1
M  END
