2,3
 OpenBabel05122313063D

 28 28  0  0  1  0  0  0  0  0999 V2000
    3.5655   -0.0299    0.8740 S   0  0  0  0  0  0  0  0  0  0  0  0
    0.8822   -0.9921   -1.0984 O   0  0  0  0  0  1  0  0  0  0  0  0
   -1.1393    0.7029    0.5489 N   0  0  0  0  0  2  0  0  0  0  0  0
    1.2305    1.2719   -1.2888 N   0  0  0  0  0  0  0  0  0  0  0  0
   -1.6932    0.8266    1.7673 C   0  0  0  0  0  3  0  0  0  0  0  0
   -1.8136   -0.1227    2.3198 H   0  0  0  0  0  0  0  0  0  0  0  0
   -2.0798    2.0716    2.2819 C   0  0  0  0  0  0  0  0  0  0  0  0
   -2.5321    2.1372    3.2817 H   0  0  0  0  0  0  0  0  0  0  0  0
   -1.8863    3.2121    1.4914 C   0  0  0  0  0  0  0  0  0  0  0  0
   -2.1895    4.2050    1.8567 H   0  0  0  0  0  0  0  0  0  0  0  0
   -1.2944    3.0740    0.2260 C   0  0  0  0  0  0  0  0  0  0  0  0
   -1.1246    3.9498   -0.4177 H   0  0  0  0  0  0  0  0  0  0  0  0
   -0.9222    1.7957   -0.2178 C   0  0  0  0  0  0  0  0  0  0  0  0
   -0.1959    1.5440   -1.5215 C   0  0  0  0  0  0  0  0  0  0  0  0
   -0.6671    0.6737   -2.0324 H   0  0  0  0  0  0  0  0  0  0  0  0
   -0.2755    2.4218   -2.1908 H   0  0  0  0  0  0  0  0  0  0  0  0
    2.1227    2.4160   -1.1207 C   0  0  0  0  0  0  0  0  0  0  0  0
    2.7816    2.2692   -0.2420 H   0  0  0  0  0  0  0  0  0  0  0  0
    1.5136    3.3190   -0.9306 H   0  0  0  0  0  0  0  0  0  0  0  0
    2.7411    2.6005   -2.0253 H   0  0  0  0  0  0  0  0  0  0  0  0
    2.6585   -1.4174    1.6292 C   0  0  0  0  0  0  0  0  0  0  0  0
    2.8768   -1.3567    2.7129 H   0  0  0  0  0  0  0  0  0  0  0  0
    3.0344   -2.3849    1.2417 H   0  0  0  0  0  0  0  0  0  0  0  0
    1.5611   -1.3683    1.4825 H   0  0  0  0  0  0  0  0  0  0  0  0
    1.6573   -0.0101   -1.1167 C   0  0  1  0  0  3  0  0  0  0  0  0
    3.1350   -0.2641   -0.8959 C   0  0  0  0  0  0  0  0  0  0  0  0
    3.7946    0.4182   -1.4652 H   0  0  0  0  0  0  0  0  0  0  0  0
    3.3422   -1.3078   -1.2012 H   0  0  0  0  0  0  0  0  0  0  0  0
  1 21  1  0  0  0  0
  3  5  1  0  0  0  0
  4 17  1  0  0  0  0
  4 25  1  0  0  0  0
  5  7  1  0  0  0  0
  5  6  1  0  0  0  0
  7  8  1  0  0  0  0
  9 10  1  0  0  0  0
  9  7  2  0  0  0  0
 11  9  1  0  0  0  0
 12 11  1  0  0  0  0
 13 11  2  0  0  0  0
 13  3  1  0  0  0  0
 14  4  1  0  0  0  0
 14 13  1  0  0  0  0
 15 14  1  0  0  0  0
 16 14  1  0  0  0  0
 17 19  1  0  0  0  0
 17 18  1  0  0  0  0
 20 17  1  0  0  0  0
 21 22  1  0  0  0  0
 23 21  1  0  0  0  0
 24 21  1  0  0  0  0
 25  2  1  1  0  0  0
 25 26  1  0  0  0  0
 26  1  1  0  0  0  0
 27 26  1  0  0  0  0
 28 26  1  0  0  0  0
M  END
