1,2
 OpenBabel05122313063D

 30 30  0  0  1  0  0  0  0  0999 V2000
   -1.3068   -0.7666   -0.7667 O   0  0  0  0  0  1  0  0  0  0  0  0
    1.3166    0.5711    0.3471 N   0  0  0  0  0  2  0  0  0  0  0  0
   -1.1110    1.4769   -1.1035 N   0  0  0  0  0  0  0  0  0  0  0  0
   -1.5069    2.3924   -0.8843 H   0  0  0  0  0  0  0  0  0  0  0  0
    2.1227    0.6504    1.4198 C   0  0  0  0  0  3  0  0  0  0  0  0
    2.0726   -0.2162    2.1033 H   0  0  0  0  0  0  0  0  0  0  0  0
    2.9548    1.7563    1.6413 C   0  0  0  0  0  0  0  0  0  0  0  0
    3.6059    1.7867    2.5265 H   0  0  0  0  0  0  0  0  0  0  0  0
    2.9391    2.8029    0.7097 C   0  0  0  0  0  0  0  0  0  0  0  0
    3.5867    3.6825    0.8444 H   0  0  0  0  0  0  0  0  0  0  0  0
    2.0771    2.7216   -0.3956 C   0  0  0  0  0  0  0  0  0  0  0  0
    2.0274    3.5334   -1.1364 H   0  0  0  0  0  0  0  0  0  0  0  0
    1.2695    1.5848   -0.5467 C   0  0  0  0  0  0  0  0  0  0  0  0
    0.2433    1.4273   -1.6508 C   0  0  0  0  0  0  0  0  0  0  0  0
    0.3567    2.2207   -2.4133 H   0  0  0  0  0  0  0  0  0  0  0  0
    0.4007    0.4382   -2.1392 H   0  0  0  0  0  0  0  0  0  0  0  0
   -1.7612    0.3870   -0.6250 C   0  0  2  0  0  3  0  0  0  0  0  0
   -3.0410    0.6102    0.1941 C   0  0  0  0  0  0  0  0  0  0  0  0
   -3.7475    1.9386   -0.1210 C   0  0  0  0  0  0  0  0  0  0  0  0
   -4.0304    2.0145   -1.1907 H   0  0  0  0  0  0  0  0  0  0  0  0
   -3.1346    2.8256    0.1505 H   0  0  0  0  0  0  0  0  0  0  0  0
   -4.6765    2.0167    0.4780 H   0  0  0  0  0  0  0  0  0  0  0  0
   -3.9911   -0.5732   -0.0603 C   0  0  0  0  0  0  0  0  0  0  0  0
   -4.3446   -0.5879   -1.1110 H   0  0  0  0  0  0  0  0  0  0  0  0
   -4.8750   -0.4944    0.6030 H   0  0  0  0  0  0  0  0  0  0  0  0
   -3.4758   -1.5302    0.1419 H   0  0  0  0  0  0  0  0  0  0  0  0
   -2.5569    0.5880    1.6677 C   0  0  0  0  0  0  0  0  0  0  0  0
   -1.9703   -0.3291    1.8812 H   0  0  0  0  0  0  0  0  0  0  0  0
   -3.4302    0.6232    2.3499 H   0  0  0  0  0  0  0  0  0  0  0  0
   -1.9114    1.4631    1.8887 H   0  0  0  0  0  0  0  0  0  0  0  0
  2  5  1  0  0  0  0
  3  4  1  0  0  0  0
  3 17  1  0  0  0  0
  5  7  1  0  0  0  0
  5  6  1  0  0  0  0
  7  8  1  0  0  0  0
  9 10  1  0  0  0  0
  9  7  2  0  0  0  0
 11  9  1  0  0  0  0
 12 11  1  0  0  0  0
 13 11  2  0  0  0  0
 13  2  1  0  0  0  0
 14  3  1  0  0  0  0
 14 13  1  0  0  0  0
 15 14  1  0  0  0  0
 16 14  1  0  0  0  0
 17  1  1  1  0  0  0
 17 18  1  0  0  0  0
 18 27  1  0  0  0  0
 19 21  1  0  0  0  0
 19 18  1  0  0  0  0
 19 22  1  0  0  0  0
 20 19  1  0  0  0  0
 23 26  1  0  0  0  0
 23 18  1  0  0  0  0
 23 25  1  0  0  0  0
 24 23  1  0  0  0  0
 27 28  1  0  0  0  0
 27 30  1  0  0  0  0
 27 29  1  0  0  0  0
M  END
