1,2
 OpenBabel05122313063D

 28 29  0  0  1  0  0  0  0  0999 V2000
    1.5882   -0.5114   -0.8331 O   0  0  0  0  0  1  0  0  0  0  0  0
    0.8549    1.4676    0.8997 N   0  0  0  0  0  2  0  0  0  0  0  0
    0.4398    4.3334   -0.1191 O   0  0  0  0  0  0  0  0  0  0  0  0
    2.8186   -0.1871   -0.5462 C   0  0  1  0  0  3  0  0  0  0  0  0
   -0.4791    3.4646    0.4161 C   0  0  0  0  0  0  0  0  0  0  0  0
    0.0244    2.5469    1.4769 C   0  0  0  0  0  0  0  0  0  0  0  0
    0.6367    3.1181    2.2067 H   0  0  0  0  0  0  0  0  0  0  0  0
   -0.8353    2.0925    1.9947 H   0  0  0  0  0  0  0  0  0  0  0  0
    2.1521    1.6491    0.9826 C   0  0  0  0  0  0  0  0  0  0  0  0
    2.5040    2.5267    1.5611 H   0  0  0  0  0  0  0  0  0  0  0  0
    3.8901   -0.8791   -1.1910 C   0  0  0  0  0  0  0  0  0  0  0  0
    3.6329   -1.6589   -1.9230 H   0  0  0  0  0  0  0  0  0  0  0  0
    4.5412    1.1394    0.6364 C   0  0  0  0  0  0  0  0  0  0  0  0
    4.7758    1.9492    1.3474 H   0  0  0  0  0  0  0  0  0  0  0  0
    3.1725    0.8520    0.3770 C   0  0  0  0  0  0  0  0  0  0  0  0
   -0.1909    5.0470   -1.0946 C   0  0  0  0  0  0  0  0  0  0  0  0
    0.4209    5.7914   -1.6140 H   0  0  0  0  0  0  0  0  0  0  0  0
   -1.6911    3.6218   -0.2212 C   0  0  0  0  0  0  0  0  0  0  0  0
   -2.6032    3.0511   -0.0176 H   0  0  0  0  0  0  0  0  0  0  0  0
   -1.5047    4.6553   -1.1999 C   0  0  0  0  0  0  0  0  0  0  0  0
   -2.2507    5.0542   -1.8960 H   0  0  0  0  0  0  0  0  0  0  0  0
    5.5790    0.4403    0.0235 C   0  0  0  0  0  0  0  0  0  0  0  0
    5.2158   -0.5759   -0.9044 C   0  0  0  0  0  0  0  0  0  0  0  0
    6.0131   -1.1394   -1.4167 H   0  0  0  0  0  0  0  0  0  0  0  0
    7.0292    0.7377    0.3096 C   0  0  0  0  0  0  0  0  0  0  0  0
    7.5802    1.0117   -0.6149 H   0  0  0  0  0  0  0  0  0  0  0  0
    7.5493   -0.1440    0.7412 H   0  0  0  0  0  0  0  0  0  0  0  0
    7.1389    1.5745    1.0265 H   0  0  0  0  0  0  0  0  0  0  0  0
  2  9  1  0  0  0  0
  2  6  1  0  0  0  0
  3  5  1  0  0  0  0
  4  1  1  6  0  0  0
  4 15  1  0  0  0  0
  5  6  1  0  0  0  0
  6  8  1  0  0  0  0
  6  7  1  0  0  0  0
  9 10  1  0  0  0  0
 11 23  2  0  0  0  0
 11  4  1  0  0  0  0
 12 11  1  0  0  0  0
 13 14  1  0  0  0  0
 15 13  1  0  0  0  0
 15  9  2  0  0  0  0
 16  3  1  0  0  0  0
 17 16  1  0  0  0  0
 18 19  1  0  0  0  0
 18  5  2  0  0  0  0
 20 16  2  0  0  0  0
 20 18  1  0  0  0  0
 21 20  1  0  0  0  0
 22 25  1  0  0  0  0
 22 13  2  0  0  0  0
 23 22  1  0  0  0  0
 24 23  1  0  0  0  0
 25 27  1  0  0  0  0
 25 28  1  0  0  0  0
 26 25  1  0  0  0  0
M  END
