3,7
 OpenBabel05122313063D

 27 29  0  0  1  0  0  0  0  0999 V2000
    0.4834   -0.4823   -0.8048 C   0  0  0  0  0  0  0  0  0  0  0  0
    1.7661   -2.3269   -1.0267 N   0  0  0  0  0  2  0  0  0  0  0  0
   -1.5992   -1.6771   -1.2938 O   0  5  0  0  0  0  0  0  0  0  0  0
    0.4975   -2.6494   -1.3695 O   0  0  0  0  0  0  0  0  0  0  0  0
   -0.3815   -1.5615   -1.1750 C   0  0  0  0  0  0  0  0  0  0  0  0
    1.7202   -1.0457   -0.7031 N   0  0  0  0  0  0  0  0  0  0  0  0
   -1.2002    1.1358   -0.4112 N   0  0  0  0  0  2  0  0  0  0  0  0
    0.1130    0.9204   -0.6790 C   0  0  2  0  0  3  0  0  0  0  0  0
   -1.6883    2.3855   -0.3600 C   0  0  0  0  0  0  0  0  0  0  0  0
   -2.7708    2.4499   -0.1483 H   0  0  0  0  0  0  0  0  0  0  0  0
   -0.8742    3.5088   -0.5520 C   0  0  0  0  0  0  0  0  0  0  0  0
   -1.3039    4.5187   -0.4961 H   0  0  0  0  0  0  0  0  0  0  0  0
    0.4897    3.3053   -0.8145 C   0  0  0  0  0  0  0  0  0  0  0  0
    1.1614    4.1620   -0.9749 H   0  0  0  0  0  0  0  0  0  0  0  0
    0.9948    2.0025   -0.8907 C   0  0  0  0  0  0  0  0  0  0  0  0
    2.0515    1.8224   -1.1287 H   0  0  0  0  0  0  0  0  0  0  0  0
    2.8767   -0.4576   -0.0835 C   0  0  0  0  0  0  0  0  0  0  0  0
    2.7210    0.0482    1.2175 C   0  0  0  0  0  0  0  0  0  0  0  0
    1.7433   -0.0402    1.7202 H   0  0  0  0  0  0  0  0  0  0  0  0
    3.8355    0.6267    1.8388 C   0  0  0  0  0  0  0  0  0  0  0  0
    3.7396    1.0248    2.8596 H   0  0  0  0  0  0  0  0  0  0  0  0
    5.0702    0.6843    1.1692 C   0  0  0  0  0  0  0  0  0  0  0  0
    5.9404    1.1396    1.6650 H   0  0  0  0  0  0  0  0  0  0  0  0
    5.2033    0.1559   -0.1253 C   0  0  0  0  0  0  0  0  0  0  0  0
    6.1733    0.1950   -0.6422 H   0  0  0  0  0  0  0  0  0  0  0  0
    4.0988   -0.4240   -0.7672 C   0  0  0  0  0  0  0  0  0  0  0  0
    4.1740   -0.8443   -1.7798 H   0  0  0  0  0  0  0  0  0  0  0  0
  1  6  1  0  0  0  0
  2  6  1  0  0  0  0
  3  5  1  0  0  0  0
  4  5  1  0  0  0  0
  4  2  1  0  0  0  0
  5  1  2  0  0  0  0
  6 17  1  0  0  0  0
  7  9  1  0  0  0  0
  8  1  1  6  0  0  0
  8  7  1  0  0  0  0
  9 10  1  0  0  0  0
 11 12  1  0  0  0  0
 11  9  2  0  0  0  0
 13 11  1  0  0  0  0
 14 13  1  0  0  0  0
 15 13  2  0  0  0  0
 15  8  1  0  0  0  0
 16 15  1  0  0  0  0
 17 18  1  0  0  0  0
 18 19  1  0  0  0  0
 18 20  2  0  0  0  0
 20 21  1  0  0  0  0
 22 23  1  0  0  0  0
 22 20  1  0  0  0  0
 24 22  2  0  0  0  0
 25 24  1  0  0  0  0
 26 24  1  0  0  0  0
 26 17  2  0  0  0  0
 27 26  1  0  0  0  0
M  CHG  1   3  -1
M  END
