1,2
 OpenBabel05122313063D

 30 31  0  0  0  0  0  0  0  0999 V2000
   -1.4015   -1.0428   -0.6445 O   0  5  0  0  0  0  0  0  0  0  0  0
   -1.1509    1.5262    0.1748 N   0  0  0  0  0  2  0  0  0  0  0  0
   -3.2943    0.3350   -0.0646 C   0  0  0  0  0  0  0  0  0  0  0  0
   -2.6859   -0.8703   -0.5299 C   0  0  0  0  0  0  0  0  0  0  0  0
   -3.5326   -1.9639   -0.9348 C   0  0  0  0  0  0  0  0  0  0  0  0
   -4.9003   -1.8784   -0.8306 C   0  0  0  0  0  0  0  0  0  0  0  0
   -6.9606   -0.6422   -0.1978 C   0  0  0  0  0  3  0  0  0  0  0  0
   -7.5891    0.4910    0.3043 C   0  0  0  0  0  0  0  0  0  0  0  0
   -6.8014    1.5947    0.7072 C   0  0  0  0  0  0  0  0  0  0  0  0
   -5.4140    1.5567    0.5996 C   0  0  0  0  0  0  0  0  0  0  0  0
   -4.7382    0.4184    0.0760 C   0  0  0  0  0  0  0  0  0  0  0  0
   -5.5467   -0.7053   -0.3200 C   0  0  0  0  0  0  0  0  0  0  0  0
   -2.4652    1.4754    0.1629 C   0  0  0  0  0  0  0  0  0  0  0  0
   -0.5519    2.8621    0.2673 C   0  0  0  0  0  0  0  0  0  0  0  0
    0.0825    3.2997   -1.0572 C   0  0  0  0  0  0  0  0  0  0  0  0
    0.8039    4.6414   -0.9445 C   0  0  0  0  0  0  0  0  0  0  0  0
   -3.0383   -2.8660   -1.3233 H   0  0  0  0  0  0  0  0  0  0  0  0
   -5.5291   -2.7294   -1.1377 H   0  0  0  0  0  0  0  0  0  0  0  0
   -7.5525   -1.5172   -0.5098 H   0  0  0  0  0  0  0  0  0  0  0  0
   -8.6847    0.5288    0.3950 H   0  0  0  0  0  0  0  0  0  0  0  0
   -7.2872    2.4926    1.1188 H   0  0  0  0  0  0  0  0  0  0  0  0
   -4.8385    2.4263    0.9476 H   0  0  0  0  0  0  0  0  0  0  0  0
   -2.9839    2.4416    0.3065 H   0  0  0  0  0  0  0  0  0  0  0  0
   -1.3356    3.5909    0.5716 H   0  0  0  0  0  0  0  0  0  0  0  0
    0.2250    2.8420    1.0546 H   0  0  0  0  0  0  0  0  0  0  0  0
   -0.7083    3.3456   -1.8374 H   0  0  0  0  0  0  0  0  0  0  0  0
    0.7921    2.5085   -1.3758 H   0  0  0  0  0  0  0  0  0  0  0  0
    1.2461    4.9442   -1.9143 H   0  0  0  0  0  0  0  0  0  0  0  0
    0.1167    5.4521   -0.6228 H   0  0  0  0  0  0  0  0  0  0  0  0
    1.6293    4.5911   -0.2042 H   0  0  0  0  0  0  0  0  0  0  0  0
  1  4  1  0  0  0  0
  2 14  1  0  0  0  0
  3 11  1  0  0  0  0
  3 13  2  0  0  0  0
  4  3  1  0  0  0  0
  5  6  1  0  0  0  0
  5  4  2  0  0  0  0
  6 12  2  0  0  0  0
  7  8  1  0  0  0  0
  8 20  1  0  0  0  0
  8  9  2  0  0  0  0
  9 21  1  0  0  0  0
 10  9  1  0  0  0  0
 10 22  1  0  0  0  0
 11 10  2  0  0  0  0
 12  7  1  0  0  0  0
 12 11  1  0  0  0  0
 13  2  1  0  0  0  0
 13 23  1  0  0  0  0
 14 24  1  0  0  0  0
 14 25  1  0  0  0  0
 15 16  1  0  0  0  0
 15 14  1  0  0  0  0
 16 29  1  0  0  0  0
 16 30  1  0  0  0  0
 17  5  1  0  0  0  0
 18  6  1  0  0  0  0
 19  7  1  0  0  0  0
 26 15  1  0  0  0  0
 27 15  1  0  0  0  0
 28 16  1  0  0  0  0
M  CHG  1   1  -1
M  END
