5,7
 OpenBabel05122313063D

 14 14  0  0  1  0  0  0  0  0999 V2000
    3.3390    0.7400   -0.0001 N   0  0  0  0  0  0  0  0  0  0  0  0
    2.2510   -0.0225   -0.0001 C   0  0  1  0  0  3  0  0  0  0  0  0
    2.3383   -1.7749    0.0000 S   0  0  0  0  0  0  0  0  0  0  0  0
    4.1390   -2.0220    0.0000 C   0  0  0  0  0  0  0  0  0  0  0  0
    0.9989    0.4986   -0.0001 N   0  0  0  0  0  2  0  0  0  0  0  0
    0.8001    1.8514   -0.0001 C   0  0  0  0  0  0  0  0  0  0  0  0
   -0.4767    2.1187   -0.0001 O   0  5  0  0  0  0  0  0  0  0  0  0
    1.9160    2.7175   -0.0001 C   0  0  0  0  0  0  0  0  0  0  0  0
    3.1611    2.0823   -0.0002 C   0  0  0  0  0  0  0  0  0  0  0  0
    4.2850   -3.1182    0.0001 H   0  0  0  0  0  0  0  0  0  0  0  0
    4.5873   -1.5730    0.9047 H   0  0  0  0  0  0  0  0  0  0  0  0
    4.5873   -1.5731   -0.9046 H   0  0  0  0  0  0  0  0  0  0  0  0
    1.8001    3.8086   -0.0001 H   0  0  0  0  0  0  0  0  0  0  0  0
    4.0855    2.6852   -0.0002 H   0  0  0  0  0  0  0  0  0  0  0  0
  1  2  1  0  0  0  0
  2  3  1  1  0  0  0
  3  4  1  0  0  0  0
  4 10  1  0  0  0  0
  4 11  1  0  0  0  0
  5  2  1  0  0  0  0
  6  5  1  0  0  0  0
  6  7  1  0  0  0  0
  8 13  1  0  0  0  0
  8  6  2  0  0  0  0
  9  1  2  0  0  0  0
  9  8  1  0  0  0  0
 12  4  1  0  0  0  0
 14  9  1  0  0  0  0
M  CHG  1   7  -1
M  END
