1,5
 OpenBabel05122313063D

 27 27  0  0  0  0  0  0  0  0999 V2000
   -1.1163    1.7064   -0.0184 O   0  0  0  0  0  1  0  0  0  0  0  0
    1.1213    1.9785   -0.7162 O   0  0  0  0  0  0  0  0  0  0  0  0
    2.7908   -1.3832    0.8685 O   0  0  0  0  0  0  0  0  0  0  0  0
    0.7778   -2.1552    1.3877 O   0  0  0  0  0  0  0  0  0  0  0  0
    0.8486   -0.2313    0.0997 N   0  0  0  0  0  2  0  0  0  0  0  0
    3.0420    0.7228   -0.3010 C   0  0  0  0  0  0  0  0  0  0  0  0
    1.6940    0.8235   -0.2624 C   0  0  0  0  0  0  0  0  0  0  0  0
    1.4145   -1.3069    0.8065 C   0  0  0  0  0  0  0  0  0  0  0  0
   -0.0343    2.5323   -0.1008 C   0  0  0  0  0  0  0  0  0  0  0  0
    0.3433    3.0816    1.3187 C   0  0  0  0  0  0  0  0  0  0  0  0
   -0.4276    3.7013   -1.0766 C   0  0  0  0  0  0  0  0  0  0  0  0
    3.6361   -0.6076    0.0193 C   0  0  0  0  0  0  0  0  0  0  0  0
    4.9525   -0.4281    0.8300 C   0  0  0  0  0  0  0  0  0  0  0  0
    3.8689   -1.4481   -1.2802 C   0  0  0  0  0  0  0  0  0  0  0  0
    0.9362    2.0988    2.0487 F   0  0  0  0  0  0  0  0  0  0  0  0
   -0.7443    3.4879    1.9876 F   0  0  0  0  0  0  0  0  0  0  0  0
    1.2119    4.1038    1.2385 F   0  0  0  0  0  0  0  0  0  0  0  0
   -0.9331    3.1769   -2.2113 F   0  0  0  0  0  0  0  0  0  0  0  0
    0.6166    4.4768   -1.3973 F   0  0  0  0  0  0  0  0  0  0  0  0
   -1.3787    4.4701   -0.5116 F   0  0  0  0  0  0  0  0  0  0  0  0
    5.8647    0.2363    0.0857 F   0  0  0  0  0  0  0  0  0  0  0  0
    5.4851   -1.6012    1.2031 F   0  0  0  0  0  0  0  0  0  0  0  0
    4.7062    0.2928    1.9373 F   0  0  0  0  0  0  0  0  0  0  0  0
    2.6635   -1.7067   -1.8550 F   0  0  0  0  0  0  0  0  0  0  0  0
    4.6126   -0.7661   -2.1682 F   0  0  0  0  0  0  0  0  0  0  0  0
    4.4628   -2.6275   -1.0408 F   0  0  0  0  0  0  0  0  0  0  0  0
    3.6672    1.5678   -0.6061 H   0  0  0  0  0  0  0  0  0  0  0  0
  2  7  1  0  0  0  0
  2  9  1  0  0  0  0
  5  8  1  0  0  0  0
  6  7  2  0  0  0  0
  6 12  1  0  0  0  0
  7  5  1  0  0  0  0
  8  3  1  0  0  0  0
  8  4  2  0  0  0  0
  9  1  1  0  0  0  0
  9 10  1  0  0  0  0
 10 16  1  0  0  0  0
 10 15  1  0  0  0  0
 11 20  1  0  0  0  0
 11  9  1  0  0  0  0
 12 13  1  0  0  0  0
 12  3  1  0  0  0  0
 13 22  1  0  0  0  0
 13 23  1  0  0  0  0
 14 26  1  0  0  0  0
 14 12  1  0  0  0  0
 17 10  1  0  0  0  0
 18 11  1  0  0  0  0
 19 11  1  0  0  0  0
 21 13  1  0  0  0  0
 24 14  1  0  0  0  0
 25 14  1  0  0  0  0
 27  6  1  0  0  0  0
M  END
