4,5
 OpenBabel05122313063D

 21 22  0  0  1  0  0  0  0  0999 V2000
   -4.8805    0.4093   -0.2381 O   0  0  0  0  0  0  0  0  0  0  0  0
   -5.5706    2.4619    0.3793 O   0  0  0  0  0  0  0  0  0  0  0  0
   -3.3408    2.1254    0.4717 O   0  0  0  0  0  0  0  0  0  0  0  0
   -1.0884    1.6124    0.5407 O   0  0  0  0  0  1  0  0  0  0  0  0
   -1.6036   -0.7931   -0.6681 N   0  0  0  0  0  2  0  0  0  0  0  0
   -3.7164   -1.6793   -0.7239 N   0  0  0  0  0  0  0  0  0  0  0  0
   -4.6710    1.7041    0.1964 C   0  0  0  0  0  0  0  0  0  0  0  0
   -3.7963   -0.3599   -0.5678 C   0  0  0  0  0  0  0  0  0  0  0  0
   -2.2614    1.3653    0.1336 C   0  0  1  0  0  3  0  0  0  0  0  0
   -2.3545   -1.9215   -0.7852 C   0  0  2  0  0  3  0  0  0  0  0  0
   -2.5354    0.2199   -0.5939 C   0  0  1  0  0  3  0  0  0  0  0  0
   -1.7656   -3.2898   -0.8692 C   0  0  0  0  0  0  0  0  0  0  0  0
   -2.5205   -3.9624   -1.3224 H   0  0  0  0  0  0  0  0  0  0  0  0
   -0.8800   -3.2519   -1.5337 H   0  0  0  0  0  0  0  0  0  0  0  0
   -1.3317   -3.8292    0.5136 C   0  0  0  0  0  0  0  0  0  0  0  0
   -0.7914   -4.7858    0.3520 H   0  0  0  0  0  0  0  0  0  0  0  0
   -0.5843   -3.1242    0.9370 H   0  0  0  0  0  0  0  0  0  0  0  0
   -2.4863   -4.0361    1.4923 C   0  0  0  0  0  0  0  0  0  0  0  0
   -2.1212   -4.4146    2.4680 H   0  0  0  0  0  0  0  0  0  0  0  0
   -3.2216   -4.7681    1.0993 H   0  0  0  0  0  0  0  0  0  0  0  0
   -3.0395   -3.0933    1.6802 H   0  0  0  0  0  0  0  0  0  0  0  0
  1  7  1  0  0  0  0
  6  8  2  0  0  0  0
  7  2  2  0  0  0  0
  7  3  1  0  0  0  0
  8  1  1  0  0  0  0
  9  3  1  0  0  0  0
  9  4  1  1  0  0  0
 10 12  1  1  0  0  0
 10  6  1  0  0  0  0
 10  5  1  0  0  0  0
 11  5  1  1  0  0  0
 11  8  1  0  0  0  0
 11  9  1  0  0  0  0
 12 15  1  0  0  0  0
 13 12  1  0  0  0  0
 14 12  1  0  0  0  0
 15 17  1  0  0  0  0
 15 18  1  0  0  0  0
 16 15  1  0  0  0  0
 18 21  1  0  0  0  0
 18 19  1  0  0  0  0
 20 18  1  0  0  0  0
M  END
