1,7
 OpenBabel05122313063D

 13 13  0  0  0  0  0  0  0  0999 V2000
    0.7791   -0.8038   -1.6520 O   0  5  0  0  0  0  0  0  0  0  0  0
    6.1647   -0.1156    0.6243 O   0  0  0  0  0  0  0  0  0  0  0  0
    5.2598   -0.9587   -1.2431 O   0  0  0  0  0  0  0  0  0  0  0  0
    4.3595   -1.0940   -1.6894 H   0  0  0  0  0  0  0  0  0  0  0  0
    2.8723   -1.2960   -2.3370 O   0  0  0  0  0  0  0  0  0  0  0  0
    3.5694    0.6610    1.5964 N   0  0  0  0  0  0  0  0  0  0  0  0
    1.5757    0.3166    0.5916 N   0  0  0  0  0  0  0  0  0  0  0  0
    2.0974   -0.8185   -1.4905 C   0  0  0  0  0  0  0  0  0  0  0  0
    2.5533   -0.2003   -0.2354 C   0  0  0  0  0  0  0  0  0  0  0  0
    3.7923    0.0211    0.4046 C   0  0  0  0  0  0  0  0  0  0  0  0
    2.2434    0.8195    1.6727 C   0  0  0  0  0  3  0  0  0  0  0  0
    1.7200    1.3085    2.5070 H   0  0  0  0  0  0  0  0  0  0  0  0
    5.1758   -0.3490   -0.0474 C   0  0  0  0  0  0  0  0  0  0  0  0
  1  8  1  0  0  0  0
  3 13  1  0  0  0  0
  4  3  1  0  0  0  0
  5  8  2  0  0  0  0
  6 11  1  0  0  0  0
  7 11  1  0  0  0  0
  8  9  1  0  0  0  0
  9 10  1  0  0  0  0
  9  7  2  0  0  0  0
 10  6  2  0  0  0  0
 11 12  1  0  0  0  0
 13 10  1  0  0  0  0
 13  2  2  0  0  0  0
M  CHG  1   1  -1
M  END
