1,2
 OpenBabel05122313063D

 21 21  0  0  1  0  0  0  0  0999 V2000
    1.2288    1.1952   -1.1687 O   0  0  0  0  0  1  0  0  0  0  0  0
   -1.0267   -0.2661   -0.1335 N   0  0  0  0  0  2  0  0  0  0  0  0
   -0.7118    2.0902   -0.3190 N   0  0  0  0  0  0  0  0  0  0  0  0
   -1.1418    2.9704   -0.0324 H   0  0  0  0  0  0  0  0  0  0  0  0
   -1.5537    0.9714   -0.2076 C   0  0  2  0  0  3  0  0  0  0  0  0
   -2.9428    1.2047   -0.1494 C   0  0  0  0  0  0  0  0  0  0  0  0
   -3.3357    2.2292   -0.2225 H   0  0  0  0  0  0  0  0  0  0  0  0
   -3.7941    0.1080   -0.0106 C   0  0  0  0  0  0  0  0  0  0  0  0
   -4.8833    0.2563    0.0338 H   0  0  0  0  0  0  0  0  0  0  0  0
   -3.2452   -1.1774    0.0716 C   0  0  0  0  0  0  0  0  0  0  0  0
   -3.8864   -2.0618    0.1889 H   0  0  0  0  0  0  0  0  0  0  0  0
   -1.8493   -1.3383    0.0182 C   0  0  0  0  0  0  0  0  0  0  0  0
   -1.2012   -2.6782    0.1743 C   0  0  0  0  0  0  0  0  0  0  0  0
   -0.4333   -2.8481   -0.6095 H   0  0  0  0  0  0  0  0  0  0  0  0
   -1.9477   -3.4930    0.1684 H   0  0  0  0  0  0  0  0  0  0  0  0
   -0.6492   -2.7146    1.1384 H   0  0  0  0  0  0  0  0  0  0  0  0
    0.5999    2.1678   -0.7314 C   0  0  1  0  0  3  0  0  0  0  0  0
    1.2547    3.5106   -0.5555 C   0  0  0  0  0  0  0  0  0  0  0  0
    1.7878    3.4527    0.4185 H   0  0  0  0  0  0  0  0  0  0  0  0
    0.5498    4.3637   -0.5320 H   0  0  0  0  0  0  0  0  0  0  0  0
    2.0101    3.6542   -1.3485 H   0  0  0  0  0  0  0  0  0  0  0  0
  2 12  1  0  0  0  0
  3  4  1  0  0  0  0
  5  3  1  1  0  0  0
  5  6  1  0  0  0  0
  5  2  1  0  0  0  0
  6  8  2  0  0  0  0
  7  6  1  0  0  0  0
  8  9  1  0  0  0  0
  8 10  1  0  0  0  0
 10 11  1  0  0  0  0
 12 10  2  0  0  0  0
 12 13  1  0  0  0  0
 13 16  1  0  0  0  0
 14 13  1  0  0  0  0
 15 13  1  0  0  0  0
 17  1  1  1  0  0  0
 17 18  1  0  0  0  0
 17  3  1  0  0  0  0
 18 20  1  0  0  0  0
 18 19  1  0  0  0  0
 21 18  1  0  0  0  0
M  END
