1,3
 OpenBabel05122313063D

 24 24  0  0  0  0  0  0  0  0999 V2000
   -1.8054   -0.2005    0.7886 O   0  5  0  0  0  0  0  0  0  0  0  0
   -4.1448    1.0400    0.6533 O   0  0  0  0  0  0  0  0  0  0  0  0
   -0.1344   -2.1793   -0.0943 N   0  0  0  0  0  2  0  0  0  0  0  0
   -2.5948   -2.1407   -0.3886 C   0  0  0  0  0  0  0  0  0  0  0  0
   -2.7695   -0.8279    0.2142 C   0  0  0  0  0  0  0  0  0  0  0  0
   -4.0852   -0.2128    0.1293 C   0  0  0  0  0  0  0  0  0  0  0  0
   -5.1632   -0.9159   -0.4002 C   0  0  0  0  0  0  0  0  0  0  0  0
   -6.1677   -0.4721   -0.4140 H   0  0  0  0  0  0  0  0  0  0  0  0
   -4.9769   -2.2242   -0.9365 C   0  0  0  0  0  0  0  0  0  0  0  0
   -5.8445   -2.7530   -1.3585 H   0  0  0  0  0  0  0  0  0  0  0  0
   -3.7319   -2.8198   -0.9427 C   0  0  0  0  0  0  0  0  0  0  0  0
   -3.5900   -3.8207   -1.3786 H   0  0  0  0  0  0  0  0  0  0  0  0
   -1.3154   -2.7232   -0.4967 C   0  0  0  0  0  3  0  0  0  0  0  0
   -1.2452   -3.6935   -1.0217 H   0  0  0  0  0  0  0  0  0  0  0  0
   -5.3965    1.7157    0.6576 C   0  0  0  0  0  0  0  0  0  0  0  0
   -6.1400    1.1288    1.2468 H   0  0  0  0  0  0  0  0  0  0  0  0
   -5.7916    1.7915   -0.3833 H   0  0  0  0  0  0  0  0  0  0  0  0
   -5.1860    3.0907    1.2629 C   0  0  0  0  0  0  0  0  0  0  0  0
   -6.1438    3.6463    1.2968 H   0  0  0  0  0  0  0  0  0  0  0  0
   -4.4627    3.6787    0.6635 H   0  0  0  0  0  0  0  0  0  0  0  0
   -4.7915    3.0073    2.2946 H   0  0  0  0  0  0  0  0  0  0  0  0
    0.9174   -2.8735    0.2533 C   0  0  0  0  0  3  0  0  0  0  0  0
    0.8208   -3.9455    0.5094 H   0  0  0  0  0  0  0  0  0  0  0  0
    1.8864   -2.3509    0.3137 H   0  0  0  0  0  0  0  0  0  0  0  0
  2 15  1  0  0  0  0
  3 22  1  0  0  0  0
  4  5  1  0  0  0  0
  5  1  1  0  0  0  0
  6  5  2  0  0  0  0
  6  2  1  0  0  0  0
  7  6  1  0  0  0  0
  8  7  1  0  0  0  0
  9  7  2  0  0  0  0
 10  9  1  0  0  0  0
 11  9  1  0  0  0  0
 11  4  2  0  0  0  0
 12 11  1  0  0  0  0
 13  4  1  0  0  0  0
 13  3  1  0  0  0  0
 14 13  1  0  0  0  0
 15 16  1  0  0  0  0
 15 18  1  0  0  0  0
 17 15  1  0  0  0  0
 18 19  1  0  0  0  0
 18 21  1  0  0  0  0
 20 18  1  0  0  0  0
 22 24  1  0  0  0  0
 22 23  1  0  0  0  0
M  CHG  1   1  -1
M  END
