1,2
 OpenBabel05122313063D

 33 33  0  0  0  0  0  0  0  0999 V2000
    1.4795    0.0338    0.3009 O   0  5  0  0  0  0  0  0  0  0  0  0
   -0.6167   -1.6772   -0.8165 N   0  0  0  0  0  2  0  0  0  0  0  0
    1.8395   -2.1042   -0.7799 C   0  0  0  0  0  0  0  0  0  0  0  0
    2.2790   -0.9099   -0.0976 C   0  0  0  0  0  0  0  0  0  0  0  0
    3.6812   -0.7961    0.1712 C   0  0  0  0  0  0  0  0  0  0  0  0
    4.5827   -1.7629   -0.2465 C   0  0  0  0  0  0  0  0  0  0  0  0
    4.1659   -2.9368   -0.9396 C   0  0  0  0  0  0  0  0  0  0  0  0
    2.8028   -3.0823   -1.1726 C   0  0  0  0  0  3  0  0  0  0  0  0
    0.4587   -2.4259   -0.9732 C   0  0  0  0  0  0  0  0  0  0  0  0
   -1.8990   -2.3971   -0.8070 C   0  0  0  0  0  0  0  0  0  0  0  0
   -2.5616   -2.4039    0.5757 C   0  0  0  0  0  0  0  0  0  0  0  0
   -1.7087   -3.0423    1.6745 C   0  0  0  0  0  0  0  0  0  0  0  0
   -2.3583   -3.0226    3.0653 C   0  0  0  0  0  0  0  0  0  0  0  0
   -3.6398   -3.8510    3.1855 C   0  0  0  0  0  0  0  0  0  0  0  0
    5.1740   -3.9677   -1.3797 C   0  0  0  0  0  0  0  0  0  0  0  0
    4.0152    0.0999    0.7133 H   0  0  0  0  0  0  0  0  0  0  0  0
    5.6553   -1.6238   -0.0313 H   0  0  0  0  0  0  0  0  0  0  0  0
    2.4367   -3.9900   -1.6816 H   0  0  0  0  0  0  0  0  0  0  0  0
    0.2670   -3.4793   -1.2600 H   0  0  0  0  0  0  0  0  0  0  0  0
   -1.7202   -3.4421   -1.1428 H   0  0  0  0  0  0  0  0  0  0  0  0
   -2.5860   -1.9312   -1.5346 H   0  0  0  0  0  0  0  0  0  0  0  0
   -2.8071   -1.3559    0.8526 H   0  0  0  0  0  0  0  0  0  0  0  0
   -3.5302   -2.9381    0.4695 H   0  0  0  0  0  0  0  0  0  0  0  0
   -0.7373   -2.5061    1.7276 H   0  0  0  0  0  0  0  0  0  0  0  0
   -1.4651   -4.0933    1.3937 H   0  0  0  0  0  0  0  0  0  0  0  0
   -1.6164   -3.3887    3.8073 H   0  0  0  0  0  0  0  0  0  0  0  0
   -2.5685   -1.9668    3.3469 H   0  0  0  0  0  0  0  0  0  0  0  0
   -3.4608   -4.9111    2.9063 H   0  0  0  0  0  0  0  0  0  0  0  0
   -4.4473   -3.4681    2.5282 H   0  0  0  0  0  0  0  0  0  0  0  0
   -4.0323   -3.8421    4.2225 H   0  0  0  0  0  0  0  0  0  0  0  0
    4.6840   -4.8379   -1.8583 H   0  0  0  0  0  0  0  0  0  0  0  0
    5.7725   -4.3458   -0.5239 H   0  0  0  0  0  0  0  0  0  0  0  0
    5.8962   -3.5459   -2.1112 H   0  0  0  0  0  0  0  0  0  0  0  0
  2 10  1  0  0  0  0
  3  4  1  0  0  0  0
  4  5  2  0  0  0  0
  4  1  1  0  0  0  0
  5 16  1  0  0  0  0
  6 17  1  0  0  0  0
  6  5  1  0  0  0  0
  7  6  2  0  0  0  0
  8  7  1  0  0  0  0
  8  3  1  0  0  0  0
  9  2  1  0  0  0  0
  9  3  2  0  0  0  0
 10 11  1  0  0  0  0
 11 22  1  0  0  0  0
 11 12  1  0  0  0  0
 12 24  1  0  0  0  0
 12 13  1  0  0  0  0
 13 14  1  0  0  0  0
 13 27  1  0  0  0  0
 13 26  1  0  0  0  0
 14 30  1  0  0  0  0
 15  7  1  0  0  0  0
 15 32  1  0  0  0  0
 18  8  1  0  0  0  0
 19  9  1  0  0  0  0
 20 10  1  0  0  0  0
 21 10  1  0  0  0  0
 23 11  1  0  0  0  0
 25 12  1  0  0  0  0
 28 14  1  0  0  0  0
 29 14  1  0  0  0  0
 31 15  1  0  0  0  0
 33 15  1  0  0  0  0
M  CHG  1   1  -1
M  END
