1,5
 OpenBabel05122313063D

 22 22  0  0  1  0  0  0  0  0999 V2000
    1.3261   -1.4777    0.0991 O   0  0  0  0  0  1  0  0  0  0  0  0
    2.6426   -1.3309    0.0696 C   0  0  1  0  0  3  0  0  0  0  0  0
    3.3404   -0.0691    0.1690 C   0  0  0  0  0  0  0  0  0  0  0  0
    2.7002    1.2474    0.3055 C   0  0  0  0  0  0  0  0  0  0  0  0
    1.3992    1.4018    0.1872 N   0  0  0  0  0  2  0  0  0  0  0  0
    0.9165    2.6799    0.2676 O   0  0  0  0  0  0  0  0  0  0  0  0
   -0.0773    2.5386    0.1596 H   0  0  0  0  0  0  0  0  0  0  0  0
    3.5200    2.5014    0.5237 C   0  0  0  0  0  0  0  0  0  0  0  0
    3.8761    3.2090   -0.7933 C   0  0  0  0  0  0  0  0  0  0  0  0
    4.4811    2.5562   -1.4539 H   0  0  0  0  0  0  0  0  0  0  0  0
    4.4555    4.1329   -0.5963 H   0  0  0  0  0  0  0  0  0  0  0  0
    2.9552    3.4916   -1.3393 H   0  0  0  0  0  0  0  0  0  0  0  0
    4.4325    2.2523    1.0960 H   0  0  0  0  0  0  0  0  0  0  0  0
    2.9197    3.1845    1.1547 H   0  0  0  0  0  0  0  0  0  0  0  0
    4.7638   -0.1129    0.1158 C   0  0  0  0  0  0  0  0  0  0  0  0
    5.4865   -1.2960   -0.0158 C   0  0  0  0  0  0  0  0  0  0  0  0
    4.7917   -2.5180   -0.0947 C   0  0  0  0  0  0  0  0  0  0  0  0
    3.4012   -2.5277   -0.0533 C   0  0  0  0  0  0  0  0  0  0  0  0
    2.8376   -3.4701   -0.1164 H   0  0  0  0  0  0  0  0  0  0  0  0
    5.3404   -3.4673   -0.1931 H   0  0  0  0  0  0  0  0  0  0  0  0
    6.5846   -1.2682   -0.0576 H   0  0  0  0  0  0  0  0  0  0  0  0
    5.3239    0.8295    0.1679 H   0  0  0  0  0  0  0  0  0  0  0  0
  2  1  1  1  0  0  0
  2  3  1  0  0  0  0
  3  4  2  0  0  0  0
  4  8  1  0  0  0  0
  5  6  1  0  0  0  0
  5  4  1  0  0  0  0
  7  6  1  0  0  0  0
  8 13  1  0  0  0  0
  8 14  1  0  0  0  0
  9 11  1  0  0  0  0
  9  8  1  0  0  0  0
 10  9  1  0  0  0  0
 12  9  1  0  0  0  0
 15 22  1  0  0  0  0
 15  3  1  0  0  0  0
 16 15  2  0  0  0  0
 17 18  2  0  0  0  0
 17 16  1  0  0  0  0
 18  2  1  0  0  0  0
 19 18  1  0  0  0  0
 20 17  1  0  0  0  0
 21 16  1  0  0  0  0
M  END
