3,4
q = -1.0, confidence = 0.022

 39 41  0  0  0  0  0  0  0  0999 V2000
    1.4179    0.2182   -2.7642 F   0  0  0  0  0  0  0  0  0  0  0  0
    1.0299    3.9747    0.0831 F   0  0  0  0  0  0  0  0  0  0  0  0
   -1.8697    0.0998    0.5162 O   0  5  0  0  0  0  0  0  0  0  0  0
   -0.0525    1.5615   -0.7816 N   0  0  0  0  0  2  0  0  0  0  0  0
   -2.7869    0.9517    0.1530 C   0  0  0  0  0  0  0  0  0  0  0  0
   -4.1589    0.7083    0.7524 C   0  0  0  0  0  0  0  0  0  0  0  0
   -4.4953   -0.8176    0.7695 C   0  0  0  0  0  0  0  0  0  0  0  0
   -5.5878   -0.9281    0.5985 H   0  0  0  0  0  0  0  0  0  0  0  0
   -3.9816   -1.3673   -0.0405 H   0  0  0  0  0  0  0  0  0  0  0  0
   -4.1355   -1.3164    2.1737 C   0  0  0  0  0  0  0  0  0  0  0  0
   -4.6423   -2.2672    2.4365 H   0  0  0  0  0  0  0  0  0  0  0  0
   -3.0411   -1.4852    2.2484 H   0  0  0  0  0  0  0  0  0  0  0  0
   -4.5491   -0.1375    3.0627 C   0  0  0  0  0  0  0  0  0  0  0  0
   -4.1285   -0.1847    4.0872 H   0  0  0  0  0  0  0  0  0  0  0  0
   -5.6567   -0.1118    3.1610 H   0  0  0  0  0  0  0  0  0  0  0  0
   -4.0568    1.0947    2.2839 C   0  0  0  0  0  0  0  0  0  0  0  0
   -3.0036    1.3146    2.5524 H   0  0  0  0  0  0  0  0  0  0  0  0
   -4.6405    2.0125    2.4993 H   0  0  0  0  0  0  0  0  0  0  0  0
   -5.2313    1.5224    0.0057 C   0  0  0  0  0  0  0  0  0  0  0  0
   -5.4550    1.0188   -0.9617 H   0  0  0  0  0  0  0  0  0  0  0  0
   -6.1707    1.4958    0.5970 H   0  0  0  0  0  0  0  0  0  0  0  0
   -4.7898    2.9614   -0.2636 C   0  0  0  0  0  0  0  0  0  0  0  0
   -4.5574    3.4645    0.7002 H   0  0  0  0  0  0  0  0  0  0  0  0
   -5.6103    3.5411   -0.7340 H   0  0  0  0  0  0  0  0  0  0  0  0
   -3.5510    2.9812   -1.1613 C   0  0  0  0  0  0  0  0  0  0  0  0
   -3.1420    4.0106   -1.2377 H   0  0  0  0  0  0  0  0  0  0  0  0
   -3.8466    2.6948   -2.1978 H   0  0  0  0  0  0  0  0  0  0  0  0
   -2.4715    2.0364   -0.6686 C   0  0  0  0  0  0  0  0  0  0  0  0
   -1.1336    2.2493   -1.1062 C   0  0  0  0  0  3  0  0  0  0  0  0
   -0.9923    3.1015   -1.8031 H   0  0  0  0  0  0  0  0  0  0  0  0
    1.1747    2.0535   -1.2867 C   0  0  0  0  0  0  0  0  0  0  0  0
    1.7282    3.2654   -0.8156 C   0  0  0  0  0  0  0  0  0  0  0  0
    2.9642    3.7486   -1.2601 C   0  0  0  0  0  0  0  0  0  0  0  0
    3.3425    4.6933   -0.8462 H   0  0  0  0  0  0  0  0  0  0  0  0
    3.6785    3.0140   -2.2171 C   0  0  0  0  0  0  0  0  0  0  0  0
    4.6515    3.3816   -2.5735 H   0  0  0  0  0  0  0  0  0  0  0  0
    3.1596    1.8123   -2.7226 C   0  0  0  0  0  0  0  0  0  0  0  0
    3.6900    1.2206   -3.4814 H   0  0  0  0  0  0  0  0  0  0  0  0
    1.9223    1.3546   -2.2582 C   0  0  0  0  0  0  0  0  0  0  0  0
  1 39  1  0  0  0  0
  5  3  1  0  0  0  0
  5  6  1  0  0  0  0
  6  7  1  0  0  0  0
  6 16  1  0  0  0  0
  7 10  1  0  0  0  0
  8  7  1  0  0  0  0
  9  7  1  0  0  0  0
 10 12  1  0  0  0  0
 10 11  1  0  0  0  0
 10 13  1  0  0  0  0
 13 15  1  0  0  0  0
 13 14  1  0  0  0  0
 16 18  1  0  0  0  0
 16 17  1  0  0  0  0
 16 13  1  0  0  0  0
 19 21  1  0  0  0  0
 19  6  1  0  0  0  0
 20 19  1  0  0  0  0
 22 19  1  0  0  0  0
 22 23  1  0  0  0  0
 24 22  1  0  0  0  0
 25 28  1  0  0  0  0
 25 22  1  0  0  0  0
 26 25  1  0  0  0  0
 27 25  1  0  0  0  0
 28  5  2  0  0  0  0
 29  4  1  0  0  0  0
 29 28  1  0  0  0  0
 30 29  1  0  0  0  0
 31 32  1  0  0  0  0
 31  4  1  0  0  0  0
 32  2  1  0  0  0  0
 33 34  1  0  0  0  0
 33 32  2  0  0  0  0
 35 33  1  0  0  0  0
 36 35  1  0  0  0  0
 37 39  1  0  0  0  0
 37 35  2  0  0  0  0
 38 37  1  0  0  0  0
 39 31  2  0  0  0  0
M  CHG  1   3  -1
M  END
