1,2
 OpenBabel05122313063D

 39 39  0  0  0  0  0  0  0  0999 V2000
   -2.4151    1.1261   -0.5197 O   0  5  0  0  0  0  0  0  0  0  0  0
   -0.8833   -0.3415    1.5335 N   0  0  0  0  0  2  0  0  0  0  0  0
    3.4160   -1.0957    0.7691 N   0  3  0  0  0  0  0  0  0  0  0  0
   -3.1765   -0.8201    0.7323 C   0  0  0  0  0  0  0  0  0  0  0  0
   -4.2612   -1.7226    0.9539 C   0  0  0  0  0  0  0  0  0  0  0  0
   -4.1187   -2.5273    1.6950 H   0  0  0  0  0  0  0  0  0  0  0  0
   -5.4662   -1.6094    0.2789 C   0  0  0  0  0  0  0  0  0  0  0  0
   -6.2838   -2.3210    0.4633 H   0  0  0  0  0  0  0  0  0  0  0  0
   -5.6296   -0.5449   -0.6467 C   0  0  0  0  0  0  0  0  0  0  0  0
   -6.5849   -0.4361   -1.1852 H   0  0  0  0  0  0  0  0  0  0  0  0
   -4.6078    0.3612   -0.8857 C   0  0  0  0  0  0  0  0  0  0  0  0
   -4.7250    1.1863   -1.6034 H   0  0  0  0  0  0  0  0  0  0  0  0
   -3.3302    0.2604   -0.2364 C   0  0  0  0  0  0  0  0  0  0  0  0
   -2.0254   -0.9860    1.5708 C   0  0  0  0  0  3  0  0  0  0  0  0
   -2.1519   -1.7493    2.3752 H   0  0  0  0  0  0  0  0  0  0  0  0
    0.0393   -0.5674    2.6383 C   0  0  0  0  0  0  0  0  0  0  0  0
   -0.1028   -1.5922    3.0618 H   0  0  0  0  0  0  0  0  0  0  0  0
   -0.1986    0.1449    3.4608 H   0  0  0  0  0  0  0  0  0  0  0  0
    1.5068   -0.3345    2.2607 C   0  0  0  0  0  0  0  0  0  0  0  0
    1.5955    0.7266    1.9404 H   0  0  0  0  0  0  0  0  0  0  0  0
    2.1279   -0.4756    3.1740 H   0  0  0  0  0  0  0  0  0  0  0  0
    1.9583   -1.2640    1.1481 C   0  0  0  0  0  0  0  0  0  0  0  0
    1.8516   -2.3268    1.4487 H   0  0  0  0  0  0  0  0  0  0  0  0
    1.3656   -1.1259    0.2130 H   0  0  0  0  0  0  0  0  0  0  0  0
    3.8427   -2.2168   -0.1476 C   0  0  0  0  0  0  0  0  0  0  0  0
    3.4976   -3.1508    0.3374 H   0  0  0  0  0  0  0  0  0  0  0  0
    3.2488   -2.0926   -1.0744 H   0  0  0  0  0  0  0  0  0  0  0  0
    5.3404   -2.2551   -0.3944 C   0  0  0  0  0  0  0  0  0  0  0  0
    5.7039   -1.3704   -0.9507 H   0  0  0  0  0  0  0  0  0  0  0  0
    5.5790   -3.1490   -1.0026 H   0  0  0  0  0  0  0  0  0  0  0  0
    5.9148   -2.3393    0.5519 H   0  0  0  0  0  0  0  0  0  0  0  0
    3.7865    0.2962    0.2401 C   0  0  0  0  0  0  0  0  0  0  0  0
    4.8624    0.4202    0.4763 H   0  0  0  0  0  0  0  0  0  0  0  0
    3.2069    1.0201    0.8455 H   0  0  0  0  0  0  0  0  0  0  0  0
    3.4888    0.5216   -1.2272 C   0  0  0  0  0  0  0  0  0  0  0  0
    4.1748   -0.0265   -1.9025 H   0  0  0  0  0  0  0  0  0  0  0  0
    3.5994    1.6058   -1.4203 H   0  0  0  0  0  0  0  0  0  0  0  0
    2.4381    0.2671   -1.4844 H   0  0  0  0  0  0  0  0  0  0  0  0
    3.9578   -1.1997    1.6451 H   0  0  0  0  0  0  0  0  0  0  0  0
  1 13  1  0  0  0  0
  2 14  1  0  0  0  0
  2 16  1  0  0  0  0
  3 22  1  0  0  0  0
  3 39  1  0  0  0  0
  4  5  1  0  0  0  0
  4 14  1  0  0  0  0
  5  6  1  0  0  0  0
  7  8  1  0  0  0  0
  7  5  2  0  0  0  0
  9  7  1  0  0  0  0
 10  9  1  0  0  0  0
 11  9  2  0  0  0  0
 11 13  1  0  0  0  0
 12 11  1  0  0  0  0
 13  4  2  0  0  0  0
 14 15  1  0  0  0  0
 16 17  1  0  0  0  0
 16 18  1  0  0  0  0
 19 16  1  0  0  0  0
 19 21  1  0  0  0  0
 20 19  1  0  0  0  0
 22 23  1  0  0  0  0
 22 19  1  0  0  0  0
 24 22  1  0  0  0  0
 25 26  1  0  0  0  0
 25  3  1  0  0  0  0
 27 25  1  0  0  0  0
 28 25  1  0  0  0  0
 28 31  1  0  0  0  0
 29 28  1  0  0  0  0
 30 28  1  0  0  0  0
 32 33  1  0  0  0  0
 32  3  1  0  0  0  0
 32 34  1  0  0  0  0
 35 32  1  0  0  0  0
 36 35  1  0  0  0  0
 37 35  1  0  0  0  0
 38 35  1  0  0  0  0
M  CHG  2   1  -1   3   1
M  END
