1,3
 OpenBabel05122313063D

 51 52  0  0  0  0  0  0  0  0999 V2000
    0.3526   -1.9108    0.1142 O   0  5  0  0  0  0  0  0  0  0  0  0
   -0.0881    2.3910    1.4496 O   0  0  0  0  0  0  0  0  0  0  0  0
   -0.2935    0.4726   -0.4858 N   0  0  0  0  0  2  0  0  0  0  0  0
   -0.7073    2.7713    0.3003 C   0  0  0  0  0  0  0  0  0  0  0  0
    1.3896   -1.0828    0.0125 C   0  0  0  0  0  0  0  0  0  0  0  0
   -0.7844    1.7781   -0.7202 C   0  0  0  0  0  0  0  0  0  0  0  0
    2.6113   -3.8636   -0.5600 C   0  0  0  0  0  0  0  0  0  0  0  0
    3.1110   -3.6136   -1.5182 H   0  0  0  0  0  0  0  0  0  0  0  0
    1.5182   -3.7716   -0.7035 H   0  0  0  0  0  0  0  0  0  0  0  0
    2.8488   -4.9201   -0.3142 H   0  0  0  0  0  0  0  0  0  0  0  0
    3.0996   -2.9271    0.5706 C   0  0  0  0  0  0  0  0  0  0  0  0
    2.4078   -3.3105    1.9000 C   0  0  0  0  0  0  0  0  0  0  0  0
    2.7625   -2.6614    2.7266 H   0  0  0  0  0  0  0  0  0  0  0  0
    2.6407   -4.3632    2.1660 H   0  0  0  0  0  0  0  0  0  0  0  0
    1.3100   -3.2014    1.8182 H   0  0  0  0  0  0  0  0  0  0  0  0
   -1.4126    2.1005   -1.9349 C   0  0  0  0  0  0  0  0  0  0  0  0
   -1.4389    1.3231   -2.7125 H   0  0  0  0  0  0  0  0  0  0  0  0
   -1.9786    3.3674   -2.1493 C   0  0  0  0  0  0  0  0  0  0  0  0
   -2.4628    3.5993   -3.1094 H   0  0  0  0  0  0  0  0  0  0  0  0
    1.0717    0.2654   -0.3186 C   0  0  0  0  0  0  0  0  0  0  0  0
    3.4195    0.8809   -0.2629 C   0  0  0  0  0  0  0  0  0  0  0  0
    2.7474   -1.4737    0.2151 C   0  0  0  0  0  0  0  0  0  0  0  0
    3.7153   -0.4701    0.0725 C   0  0  0  0  0  0  0  0  0  0  0  0
    4.7682   -0.7414    0.2257 H   0  0  0  0  0  0  0  0  0  0  0  0
    2.0838    1.2387   -0.4657 C   0  0  0  0  0  0  0  0  0  0  0  0
    1.7975    2.2615   -0.7402 H   0  0  0  0  0  0  0  0  0  0  0  0
   -1.9117    4.3329   -1.1357 C   0  0  0  0  0  0  0  0  0  0  0  0
   -2.3516    5.3300   -1.2877 H   0  0  0  0  0  0  0  0  0  0  0  0
    0.0996    3.3522    2.4695 C   0  0  0  0  0  0  0  0  0  0  0  0
    0.6634    2.8444    3.2734 H   0  0  0  0  0  0  0  0  0  0  0  0
   -0.8693    3.7164    2.8796 H   0  0  0  0  0  0  0  0  0  0  0  0
    0.6881    4.2246    2.1074 H   0  0  0  0  0  0  0  0  0  0  0  0
   -1.2753    4.0409    0.0832 C   0  0  0  0  0  0  0  0  0  0  0  0
   -1.2293    4.8081    0.8678 H   0  0  0  0  0  0  0  0  0  0  0  0
    4.6150   -3.1295    0.7409 C   0  0  0  0  0  0  0  0  0  0  0  0
    5.0277   -2.5026    1.5573 H   0  0  0  0  0  0  0  0  0  0  0  0
    5.1717   -2.8953   -0.1893 H   0  0  0  0  0  0  0  0  0  0  0  0
    4.8216   -4.1887    0.9962 H   0  0  0  0  0  0  0  0  0  0  0  0
    4.5715    1.8948   -0.3844 C   0  0  0  0  0  0  0  0  0  0  0  0
    5.3211    1.9798    0.9649 C   0  0  0  0  0  0  0  0  0  0  0  0
    6.1615    2.7026    0.9015 H   0  0  0  0  0  0  0  0  0  0  0  0
    5.7414    0.9990    1.2636 H   0  0  0  0  0  0  0  0  0  0  0  0
    4.6384    2.3122    1.7732 H   0  0  0  0  0  0  0  0  0  0  0  0
    4.0657    3.3027   -0.7428 C   0  0  0  0  0  0  0  0  0  0  0  0
    4.9207    4.0053   -0.8153 H   0  0  0  0  0  0  0  0  0  0  0  0
    3.3714    3.6969    0.0269 H   0  0  0  0  0  0  0  0  0  0  0  0
    3.5380    3.3147   -1.7176 H   0  0  0  0  0  0  0  0  0  0  0  0
    5.5502    1.4344   -1.4885 C   0  0  0  0  0  0  0  0  0  0  0  0
    6.3955    2.1478   -1.5855 H   0  0  0  0  0  0  0  0  0  0  0  0
    5.0357    1.3717   -2.4686 H   0  0  0  0  0  0  0  0  0  0  0  0
    5.9756    0.4352   -1.2681 H   0  0  0  0  0  0  0  0  0  0  0  0
  2 29  1  0  0  0  0
  3 20  1  0  0  0  0
  4  2  1  0  0  0  0
  5  1  1  0  0  0  0
  5 22  1  0  0  0  0
  6  3  1  0  0  0  0
  6  4  2  0  0  0  0
  7 10  1  0  0  0  0
  7 11  1  0  0  0  0
  8  7  1  0  0  0  0
  9  7  1  0  0  0  0
 11 35  1  0  0  0  0
 11 12  1  0  0  0  0
 12 14  1  0  0  0  0
 12 13  1  0  0  0  0
 15 12  1  0  0  0  0
 16  6  1  0  0  0  0
 17 16  1  0  0  0  0
 18 16  2  0  0  0  0
 18 27  1  0  0  0  0
 19 18  1  0  0  0  0
 20  5  2  0  0  0  0
 21 23  1  0  0  0  0
 22 11  1  0  0  0  0
 23 22  2  0  0  0  0
 23 24  1  0  0  0  0
 25 20  1  0  0  0  0
 25 21  2  0  0  0  0
 26 25  1  0  0  0  0
 27 33  2  0  0  0  0
 28 27  1  0  0  0  0
 29 31  1  0  0  0  0
 29 30  1  0  0  0  0
 32 29  1  0  0  0  0
 33  4  1  0  0  0  0
 33 34  1  0  0  0  0
 35 38  1  0  0  0  0
 35 36  1  0  0  0  0
 37 35  1  0  0  0  0
 39 21  1  0  0  0  0
 39 40  1  0  0  0  0
 40 42  1  0  0  0  0
 40 43  1  0  0  0  0
 41 40  1  0  0  0  0
 44 39  1  0  0  0  0
 44 46  1  0  0  0  0
 45 44  1  0  0  0  0
 47 44  1  0  0  0  0
 48 51  1  0  0  0  0
 48 39  1  0  0  0  0
 49 48  1  0  0  0  0
 50 48  1  0  0  0  0
M  CHG  1   1  -1
M  END
