2,3
 OpenBabel05122313063D

 51 52  0  0  0  0  0  0  0  0999 V2000
   -0.7963    1.8325    2.0201 Se  0  0  0  0  0  0  0  0  0  0  0  0
    0.0669   -1.8790   -0.4753 O   0  5  0  0  0  0  0  0  0  0  0  0
   -0.0507    0.6503   -0.6491 N   0  0  0  0  0  2  0  0  0  0  0  0
    1.2498   -1.2775   -0.3537 C   0  0  0  0  0  0  0  0  0  0  0  0
    1.2315    0.1430   -0.4520 C   0  0  0  0  0  0  0  0  0  0  0  0
    2.4136    0.9045   -0.3305 C   0  0  0  0  0  0  0  0  0  0  0  0
    2.3488    1.9971   -0.4045 H   0  0  0  0  0  0  0  0  0  0  0  0
    3.6303    0.2506   -0.1111 C   0  0  0  0  0  0  0  0  0  0  0  0
    3.6289   -1.1687   -0.0170 C   0  0  0  0  0  0  0  0  0  0  0  0
    4.5895   -1.6709    0.1575 H   0  0  0  0  0  0  0  0  0  0  0  0
    2.4795   -1.9644   -0.1282 C   0  0  0  0  0  0  0  0  0  0  0  0
    4.9596    1.0124    0.0385 C   0  0  0  0  0  0  0  0  0  0  0  0
    4.7696    2.5337   -0.0887 C   0  0  0  0  0  0  0  0  0  0  0  0
    4.3549    2.8147   -1.0778 H   0  0  0  0  0  0  0  0  0  0  0  0
    5.7459    3.0474    0.0240 H   0  0  0  0  0  0  0  0  0  0  0  0
    4.0898    2.9290    0.6927 H   0  0  0  0  0  0  0  0  0  0  0  0
    5.9423    0.5519   -1.0621 C   0  0  0  0  0  0  0  0  0  0  0  0
    5.5300    0.7602   -2.0701 H   0  0  0  0  0  0  0  0  0  0  0  0
    6.1468   -0.5355   -1.0010 H   0  0  0  0  0  0  0  0  0  0  0  0
    6.9123    1.0838   -0.9678 H   0  0  0  0  0  0  0  0  0  0  0  0
    5.5667    0.7142    1.4284 C   0  0  0  0  0  0  0  0  0  0  0  0
    5.7603   -0.3679    1.5680 H   0  0  0  0  0  0  0  0  0  0  0  0
    4.8793    1.0394    2.2354 H   0  0  0  0  0  0  0  0  0  0  0  0
    6.5310    1.2494    1.5570 H   0  0  0  0  0  0  0  0  0  0  0  0
    2.5120   -3.4965   -0.0104 C   0  0  0  0  0  0  0  0  0  0  0  0
    1.9866   -4.1217   -1.3241 C   0  0  0  0  0  0  0  0  0  0  0  0
    0.9542   -3.7851   -1.5355 H   0  0  0  0  0  0  0  0  0  0  0  0
    1.9895   -5.2297   -1.2514 H   0  0  0  0  0  0  0  0  0  0  0  0
    2.6306   -3.8325   -2.1796 H   0  0  0  0  0  0  0  0  0  0  0  0
    3.9341   -4.0266    0.2408 C   0  0  0  0  0  0  0  0  0  0  0  0
    4.3617   -3.6347    1.1860 H   0  0  0  0  0  0  0  0  0  0  0  0
    4.6258   -3.7653   -0.5857 H   0  0  0  0  0  0  0  0  0  0  0  0
    3.9095   -5.1325    0.3184 H   0  0  0  0  0  0  0  0  0  0  0  0
    1.6162   -3.9382    1.1714 C   0  0  0  0  0  0  0  0  0  0  0  0
    1.9814   -3.5030    2.1241 H   0  0  0  0  0  0  0  0  0  0  0  0
    1.6285   -5.0439    1.2714 H   0  0  0  0  0  0  0  0  0  0  0  0
    0.5709   -3.6110    1.0168 H   0  0  0  0  0  0  0  0  0  0  0  0
   -0.2356    2.0530   -0.7633 C   0  0  0  0  0  0  0  0  0  0  0  0
   -0.6261    2.8063    0.3746 C   0  0  0  0  0  0  0  0  0  0  0  0
   -0.8529    4.1897    0.2402 C   0  0  0  0  0  0  0  0  0  0  0  0
   -1.1613    4.7903    1.1072 H   0  0  0  0  0  0  0  0  0  0  0  0
   -0.6866    4.8187   -1.0040 C   0  0  0  0  0  0  0  0  0  0  0  0
   -0.8693    5.9006   -1.0903 H   0  0  0  0  0  0  0  0  0  0  0  0
   -0.2883    4.0772   -2.1271 C   0  0  0  0  0  0  0  0  0  0  0  0
   -0.1501    4.5710   -3.1004 H   0  0  0  0  0  0  0  0  0  0  0  0
   -0.0643    2.6979   -2.0011 C   0  0  0  0  0  0  0  0  0  0  0  0
    0.2504    2.0884   -2.8613 H   0  0  0  0  0  0  0  0  0  0  0  0
   -1.0624    3.3456    3.2371 C   0  0  0  0  0  0  0  0  0  0  0  0
   -1.1042    2.9059    4.2515 H   0  0  0  0  0  0  0  0  0  0  0  0
   -2.0143    3.8716    3.0326 H   0  0  0  0  0  0  0  0  0  0  0  0
   -0.2115    4.0510    3.1815 H   0  0  0  0  0  0  0  0  0  0  0  0
  1 48  1  0  0  0  0
  2  4  1  0  0  0  0
  3  5  1  0  0  0  0
  4 11  1  0  0  0  0
  5  4  2  0  0  0  0
  5  6  1  0  0  0  0
  6  8  2  0  0  0  0
  7  6  1  0  0  0  0
  8  9  1  0  0  0  0
  8 12  1  0  0  0  0
  9 10  1  0  0  0  0
 11  9  2  0  0  0  0
 11 25  1  0  0  0  0
 12 21  1  0  0  0  0
 13 15  1  0  0  0  0
 13 12  1  0  0  0  0
 13 16  1  0  0  0  0
 14 13  1  0  0  0  0
 17 19  1  0  0  0  0
 17 20  1  0  0  0  0
 17 12  1  0  0  0  0
 18 17  1  0  0  0  0
 21 24  1  0  0  0  0
 21 22  1  0  0  0  0
 21 23  1  0  0  0  0
 25 30  1  0  0  0  0
 25 34  1  0  0  0  0
 26 28  1  0  0  0  0
 26 25  1  0  0  0  0
 27 26  1  0  0  0  0
 29 26  1  0  0  0  0
 30 33  1  0  0  0  0
 30 31  1  0  0  0  0
 32 30  1  0  0  0  0
 34 36  1  0  0  0  0
 34 35  1  0  0  0  0
 37 34  1  0  0  0  0
 38  3  1  0  0  0  0
 38 39  1  0  0  0  0
 39  1  1  0  0  0  0
 40 39  2  0  0  0  0
 40 41  1  0  0  0  0
 42 40  1  0  0  0  0
 43 42  1  0  0  0  0
 44 46  1  0  0  0  0
 44 42  2  0  0  0  0
 45 44  1  0  0  0  0
 46 38  2  0  0  0  0
 47 46  1  0  0  0  0
 48 49  1  0  0  0  0
 50 48  1  0  0  0  0
 51 48  1  0  0  0  0
M  CHG  1   2  -1
M  END
