1,6
 OpenBabel05122313063D

 17 17  0  0  0  0  0  0  0  0999 V2000
   -1.1237   -1.1549   -0.9319 O   0  5  0  0  0  0  0  0  0  0  0  0
   -0.6404    2.7133    0.1409 O   0  0  0  0  0  0  0  0  0  0  0  0
    0.2082    2.4330    0.6152 H   0  0  0  0  0  0  0  0  0  0  0  0
   -4.7094   -2.8228   -3.5001 O   0  0  0  0  0  0  0  0  0  0  0  0
   -5.5218   -2.5203   -3.9467 H   0  0  0  0  0  0  0  0  0  0  0  0
   -1.0563    1.5139   -0.3576 N   0  0  0  0  0  2  0  0  0  0  0  0
   -2.2478   -0.9006   -1.5823 C   0  0  0  0  0  0  0  0  0  0  0  0
   -2.9229   -1.9677   -2.2157 C   0  0  0  0  0  0  0  0  0  0  0  0
   -2.5081   -2.9832   -2.1592 H   0  0  0  0  0  0  0  0  0  0  0  0
   -4.1165   -1.7485   -2.9165 C   0  0  0  0  0  0  0  0  0  0  0  0
   -4.6690   -0.4461   -3.0019 C   0  0  0  0  0  0  0  0  0  0  0  0
   -5.6072   -0.2772   -3.5535 H   0  0  0  0  0  0  0  0  0  0  0  0
   -4.0102    0.6097   -2.3809 C   0  0  0  0  0  3  0  0  0  0  0  0
   -4.4332    1.6245   -2.4427 H   0  0  0  0  0  0  0  0  0  0  0  0
   -2.8012    0.4243   -1.6637 C   0  0  0  0  0  0  0  0  0  0  0  0
   -2.1713    1.5561   -1.0454 C   0  0  0  0  0  0  0  0  0  0  0  0
   -2.6429    2.5496   -1.1420 H   0  0  0  0  0  0  0  0  0  0  0  0
  2  3  1  0  0  0  0
  4 10  1  0  0  0  0
  5  4  1  0  0  0  0
  6  2  1  0  0  0  0
  7  1  1  0  0  0  0
  8  9  1  0  0  0  0
  8  7  2  0  0  0  0
 10  8  1  0  0  0  0
 11 10  2  0  0  0  0
 11 13  1  0  0  0  0
 12 11  1  0  0  0  0
 13 15  1  0  0  0  0
 14 13  1  0  0  0  0
 15  7  1  0  0  0  0
 15 16  2  0  0  0  0
 16  6  1  0  0  0  0
 17 16  1  0  0  0  0
M  CHG  1   1  -1
M  END
