1,4
q = 0.0, confidence = 0.996

 31 31  0  0  0  0  0  0  0  0999 V2000
   -1.8258   -1.3713    0.4639 O   0  5  0  0  0  0  0  0  0  0  0  0
    3.5500    1.9522    1.6740 O   0  0  0  0  0  0  0  0  0  0  0  0
    2.8208    1.4108    2.0680 H   0  0  0  0  0  0  0  0  0  0  0  0
   -0.3144    0.4863   -1.2941 N   0  0  0  0  0  2  0  0  0  0  0  0
    2.5745    1.0082   -0.6152 N   0  3  0  0  0  0  0  0  0  0  0  0
   -2.7597   -0.4868    0.3182 C   0  0  0  0  0  0  0  0  0  0  0  0
   -4.0331   -0.7270    0.9338 C   0  0  0  0  0  0  0  0  0  0  0  0
   -4.1314   -1.6646    1.5001 H   0  0  0  0  0  0  0  0  0  0  0  0
   -5.0787    0.1788    0.8403 C   0  0  0  0  0  0  0  0  0  0  0  0
   -6.0334   -0.0450    1.3425 H   0  0  0  0  0  0  0  0  0  0  0  0
   -4.9389    1.3891    0.1111 C   0  0  0  0  0  0  0  0  0  0  0  0
   -5.7739    2.1008    0.0432 H   0  0  0  0  0  0  0  0  0  0  0  0
   -3.7334    1.6492   -0.5190 C   0  0  0  0  0  0  0  0  0  0  0  0
   -3.6066    2.5757   -1.1036 H   0  0  0  0  0  0  0  0  0  0  0  0
   -2.6261    0.7472   -0.4482 C   0  0  0  0  0  0  0  0  0  0  0  0
   -1.4651    1.1129   -1.2032 C   0  0  0  0  0  3  0  0  0  0  0  0
   -1.5859    2.0468   -1.8000 H   0  0  0  0  0  0  0  0  0  0  0  0
    0.6613    1.0178   -2.2372 C   0  0  0  0  0  0  0  0  0  0  0  0
    0.6170    2.1336   -2.2785 H   0  0  0  0  0  0  0  0  0  0  0  0
    0.4299    0.6627   -3.2679 H   0  0  0  0  0  0  0  0  0  0  0  0
    2.0734    0.5343   -1.9389 C   0  0  0  0  0  0  0  0  0  0  0  0
    2.0792   -0.5770   -1.8883 H   0  0  0  0  0  0  0  0  0  0  0  0
    2.7831    0.8695   -2.7208 H   0  0  0  0  0  0  0  0  0  0  0  0
    3.7518    0.2490   -0.0826 C   0  0  0  0  0  0  0  0  0  0  0  0
    4.4421    0.0259   -0.9205 H   0  0  0  0  0  0  0  0  0  0  0  0
    3.3299   -0.7109    0.2794 H   0  0  0  0  0  0  0  0  0  0  0  0
    4.4406    1.0820    1.0184 C   0  0  0  0  0  0  0  0  0  0  0  0
    4.9666    0.3767    1.7045 H   0  0  0  0  0  0  0  0  0  0  0  0
    5.2237    1.7266    0.5634 H   0  0  0  0  0  0  0  0  0  0  0  0
    2.7750    2.0241   -0.5993 H   0  0  0  0  0  0  0  0  0  0  0  0
    1.8131    0.8865    0.1517 H   0  0  0  0  0  0  0  0  0  0  0  0
  2  3  1  0  0  0  0
  4 16  1  0  0  0  0
  5 30  1  0  0  0  0
  5 24  1  0  0  0  0
  5 31  1  0  0  0  0
  6  1  1  0  0  0  0
  6  7  1  0  0  0  0
  7  8  1  0  0  0  0
  9  7  2  0  0  0  0
  9 10  1  0  0  0  0
 11  9  1  0  0  0  0
 12 11  1  0  0  0  0
 13 15  1  0  0  0  0
 13 11  2  0  0  0  0
 14 13  1  0  0  0  0
 15  6  2  0  0  0  0
 16 15  1  0  0  0  0
 17 16  1  0  0  0  0
 18 21  1  0  0  0  0
 18  4  1  0  0  0  0
 19 18  1  0  0  0  0
 20 18  1  0  0  0  0
 21 22  1  0  0  0  0
 21  5  1  0  0  0  0
 23 21  1  0  0  0  0
 24 26  1  0  0  0  0
 24 27  1  0  0  0  0
 25 24  1  0  0  0  0
 27  2  1  0  0  0  0
 27 28  1  0  0  0  0
 29 27  1  0  0  0  0
M  CHG  2   1  -1   5   1
M  END
