2,3
q = -1.0, confidence = 0.0

 27 29  0  0  1  0  0  0  0  0999 V2000
   -2.9876   -2.3770    1.4918 S   0  0  0  0  0  0  0  0  0  0  0  0
   -1.5628    0.6909   -1.8929 O   0  5  0  0  0  0  0  0  0  0  0  0
   -1.0286   -1.2703    0.1891 N   0  0  0  0  0  2  0  0  0  0  0  0
   -3.2639   -0.5199   -0.6012 C   0  0  0  0  0  0  0  0  0  0  0  0
   -2.8050    0.4061   -1.6272 C   0  0  0  0  0  0  0  0  0  0  0  0
   -3.8137    1.0714   -2.3967 C   0  0  0  0  0  0  0  0  0  0  0  0
   -3.4422    1.7630   -3.1678 H   0  0  0  0  0  0  0  0  0  0  0  0
   -5.1784    0.8846   -2.2040 C   0  0  0  0  0  0  0  0  0  0  0  0
   -5.6066   -0.0180   -1.1879 C   0  0  0  0  0  0  0  0  0  0  0  0
   -6.6806   -0.1835   -1.0155 H   0  0  0  0  0  0  0  0  0  0  0  0
   -4.6693   -0.6900   -0.4237 C   0  0  0  0  0  0  0  0  0  0  0  0
   -5.0216   -1.3903    0.3513 H   0  0  0  0  0  0  0  0  0  0  0  0
   -6.1968    1.6113   -3.0425 C   0  0  0  0  0  0  0  0  0  0  0  0
   -5.7192    2.2838   -3.7800 H   0  0  0  0  0  0  0  0  0  0  0  0
   -6.8748    2.2195   -2.4074 H   0  0  0  0  0  0  0  0  0  0  0  0
   -6.8401    0.8944   -3.5952 H   0  0  0  0  0  0  0  0  0  0  0  0
   -2.3624   -1.2797    0.2308 C   0  0  2  0  0  3  0  0  0  0  0  0
   -0.4298   -2.1030    1.1195 C   0  0  0  0  0  0  0  0  0  0  0  0
    0.9560   -2.2903    1.2929 C   0  0  0  0  0  0  0  0  0  0  0  0
    1.6653   -1.7597    0.6420 H   0  0  0  0  0  0  0  0  0  0  0  0
    1.3925   -3.1683    2.2904 C   0  0  0  0  0  0  0  0  0  0  0  0
    2.4715   -3.3240    2.4360 H   0  0  0  0  0  0  0  0  0  0  0  0
    0.4710   -3.8585    3.1072 C   0  0  0  0  0  0  0  0  0  0  0  0
    0.8389   -4.5443    3.8847 H   0  0  0  0  0  0  0  0  0  0  0  0
   -0.9110   -3.6870    2.9418 C   0  0  0  0  0  0  0  0  0  0  0  0
   -1.6275   -4.2278    3.5765 H   0  0  0  0  0  0  0  0  0  0  0  0
   -1.3514   -2.8052    1.9435 C   0  0  0  0  0  0  0  0  0  0  0  0
  1 27  1  0  0  0  0
  2  5  1  0  0  0  0
  3 17  1  0  0  0  0
  3 18  1  0  0  0  0
  4 11  1  0  0  0  0
  5  4  2  0  0  0  0
  6  8  2  0  0  0  0
  6  5  1  0  0  0  0
  7  6  1  0  0  0  0
  8  9  1  0  0  0  0
  9 10  1  0  0  0  0
  9 11  2  0  0  0  0
 11 12  1  0  0  0  0
 13 15  1  0  0  0  0
 13  8  1  0  0  0  0
 14 13  1  0  0  0  0
 16 13  1  0  0  0  0
 17  4  1  1  0  0  0
 17  1  1  0  0  0  0
 18 19  2  0  0  0  0
 18 27  1  0  0  0  0
 19 21  1  0  0  0  0
 20 19  1  0  0  0  0
 21 22  1  0  0  0  0
 21 23  2  0  0  0  0
 23 24  1  0  0  0  0
 25 23  1  0  0  0  0
 25 26  1  0  0  0  0
 27 25  2  0  0  0  0
M  CHG  1   2  -1
M  END
