1,2
q = -1.0, confidence = 0.0

 39 40  0  0  0  0  0  0  0  0999 V2000
    0.3433    1.8410    0.0239 N   0  0  0  0  0  2  0  0  0  0  0  0
   -0.8769   -0.4238    0.3227 O   0  0  0  0  0  1  0  0  0  0  0  0
    1.1103    2.9470   -0.1050 C   0  0  0  0  0  3  0  0  0  0  0  0
    2.1836    2.7696   -0.2522 H   0  0  0  0  0  0  0  0  0  0  0  0
    0.5749    4.2342   -0.0679 C   0  0  0  0  0  0  0  0  0  0  0  0
    1.2379    5.1036   -0.1778 H   0  0  0  0  0  0  0  0  0  0  0  0
   -0.8115    4.3778    0.0992 C   0  0  0  0  0  0  0  0  0  0  0  0
   -1.2726    5.3762    0.1387 H   0  0  0  0  0  0  0  0  0  0  0  0
   -1.6003    3.2280    0.1993 C   0  0  0  0  0  0  0  0  0  0  0  0
   -2.6910    3.3051    0.3084 H   0  0  0  0  0  0  0  0  0  0  0  0
   -1.0060    1.9544    0.1516 C   0  0  0  0  0  0  0  0  0  0  0  0
   -1.7735    0.6352    0.1510 C   0  0  0  0  0  0  0  0  0  0  0  0
   -2.8097    0.6057    1.3063 C   0  0  0  0  0  0  0  0  0  0  0  0
   -3.4215    1.5329    1.2584 H   0  0  0  0  0  0  0  0  0  0  0  0
   -2.2595    0.6308    2.2709 H   0  0  0  0  0  0  0  0  0  0  0  0
   -3.7856   -0.5964    1.2819 C   0  0  0  0  0  0  0  0  0  0  0  0
   -4.9231   -0.3039    2.2813 C   0  0  0  0  0  0  0  0  0  0  0  0
   -5.6573   -1.1363    2.2975 H   0  0  0  0  0  0  0  0  0  0  0  0
   -5.4705    0.6246    2.0155 H   0  0  0  0  0  0  0  0  0  0  0  0
   -4.5270   -0.1835    3.3114 H   0  0  0  0  0  0  0  0  0  0  0  0
   -3.1004   -1.9001    1.7341 C   0  0  0  0  0  0  0  0  0  0  0  0
   -3.8185   -2.7458    1.6990 H   0  0  0  0  0  0  0  0  0  0  0  0
   -2.7444   -1.8019    2.7816 H   0  0  0  0  0  0  0  0  0  0  0  0
   -2.2266   -2.1413    1.1086 H   0  0  0  0  0  0  0  0  0  0  0  0
   -4.4111   -0.7177   -0.1317 C   0  0  0  0  0  0  0  0  0  0  0  0
   -5.0223   -1.6463   -0.1814 H   0  0  0  0  0  0  0  0  0  0  0  0
   -5.1334    0.1236   -0.2364 H   0  0  0  0  0  0  0  0  0  0  0  0
   -3.4704   -0.6498   -1.3617 C   0  0  0  0  0  0  0  0  0  0  0  0
   -4.3476   -0.4264   -2.6101 C   0  0  0  0  0  0  0  0  0  0  0  0
   -3.7202   -0.3317   -3.5200 H   0  0  0  0  0  0  0  0  0  0  0  0
   -4.9600    0.4954   -2.5194 H   0  0  0  0  0  0  0  0  0  0  0  0
   -5.0404   -1.2806   -2.7628 H   0  0  0  0  0  0  0  0  0  0  0  0
   -2.6612   -1.9428   -1.5917 C   0  0  0  0  0  0  0  0  0  0  0  0
   -2.0962   -1.8657   -2.5426 H   0  0  0  0  0  0  0  0  0  0  0  0
   -3.3376   -2.8213   -1.6531 H   0  0  0  0  0  0  0  0  0  0  0  0
   -1.9112   -2.1029   -0.7996 H   0  0  0  0  0  0  0  0  0  0  0  0
   -2.5370    0.5718   -1.2123 C   0  0  0  0  0  0  0  0  0  0  0  0
   -3.1531    1.4942   -1.3071 H   0  0  0  0  0  0  0  0  0  0  0  0
   -1.7862    0.5856   -2.0271 H   0  0  0  0  0  0  0  0  0  0  0  0
  1 11  1  0  0  0  0
  3  5  1  0  0  0  0
  3  1  1  0  0  0  0
  4  3  1  0  0  0  0
  5  7  2  0  0  0  0
  6  5  1  0  0  0  0
  7  8  1  0  0  0  0
  7  9  1  0  0  0  0
  9 10  1  0  0  0  0
 11  9  2  0  0  0  0
 12 11  1  0  0  0  0
 12  2  1  0  0  0  0
 12 13  1  0  0  0  0
 13 15  1  0  0  0  0
 14 13  1  0  0  0  0
 16 13  1  0  0  0  0
 16 21  1  0  0  0  0
 16 17  1  0  0  0  0
 17 18  1  0  0  0  0
 17 20  1  0  0  0  0
 19 17  1  0  0  0  0
 21 23  1  0  0  0  0
 22 21  1  0  0  0  0
 24 21  1  0  0  0  0
 25 16  1  0  0  0  0
 26 25  1  0  0  0  0
 27 25  1  0  0  0  0
 28 37  1  0  0  0  0
 28 25  1  0  0  0  0
 29 31  1  0  0  0  0
 29 28  1  0  0  0  0
 30 29  1  0  0  0  0
 32 29  1  0  0  0  0
 33 28  1  0  0  0  0
 33 36  1  0  0  0  0
 34 33  1  0  0  0  0
 35 33  1  0  0  0  0
 37 12  1  0  0  0  0
 38 37  1  0  0  0  0
 39 37  1  0  0  0  0
M  END
