1,2
q = -1.0, confidence = 0.0

 25 25  0  0  1  0  0  0  0  0999 V2000
    2.0212    1.4943    0.4190 N   0  0  0  0  0  2  0  0  0  0  0  0
   -0.7538    2.3210    0.3399 O   0  5  0  0  0  0  0  0  0  0  0  0
    3.1009    0.7864   -2.3206 Cl  0  0  0  0  0  0  0  0  0  0  0  0
    6.6364   -2.3189    0.3841 Cl  0  0  0  0  0  0  0  0  0  0  0  0
    3.6249    3.3542    0.3706 C   0  0  0  0  0  0  0  0  0  0  0  0
    4.2357    2.9390    1.1965 H   0  0  0  0  0  0  0  0  0  0  0  0
    3.6348    4.4566    0.4380 H   0  0  0  0  0  0  0  0  0  0  0  0
    4.1230    3.0562   -0.5752 H   0  0  0  0  0  0  0  0  0  0  0  0
    2.2086    2.8195    0.4030 C   0  0  1  0  0  3  0  0  0  0  0  0
    1.1538    3.7674    0.3983 C   0  0  0  0  0  0  0  0  0  0  0  0
    1.4505    4.8243    0.4059 H   0  0  0  0  0  0  0  0  0  0  0  0
   -0.2217    3.4942    0.3736 C   0  0  0  0  0  0  0  0  0  0  0  0
   -1.2204    4.6303    0.3826 C   0  0  0  0  0  0  0  0  0  0  0  0
   -1.9160    4.5165   -0.4736 H   0  0  0  0  0  0  0  0  0  0  0  0
   -0.7382    5.6241    0.3399 H   0  0  0  0  0  0  0  0  0  0  0  0
   -1.8414    4.5697    1.3005 H   0  0  0  0  0  0  0  0  0  0  0  0
    3.1563    0.6424    0.4068 C   0  0  0  0  0  0  0  0  0  0  0  0
    3.7386    0.2036   -0.8059 C   0  0  0  0  0  0  0  0  0  0  0  0
    4.8050   -0.7067   -0.8223 C   0  0  0  0  0  0  0  0  0  0  0  0
    5.2309   -1.0399   -1.7773 H   0  0  0  0  0  0  0  0  0  0  0  0
    5.3104   -1.1847    0.3953 C   0  0  0  0  0  0  0  0  0  0  0  0
    4.7584   -0.7668    1.6173 C   0  0  0  0  0  0  0  0  0  0  0  0
    5.1609   -1.1572    2.5619 H   0  0  0  0  0  0  0  0  0  0  0  0
    3.6901    0.1364    1.6089 C   0  0  0  0  0  0  0  0  0  0  0  0
    3.2253    0.4591    2.5518 H   0  0  0  0  0  0  0  0  0  0  0  0
  2 12  1  0  0  0  0
  3 18  1  0  0  0  0
  4 21  1  0  0  0  0
  5  9  1  0  0  0  0
  5  7  1  0  0  0  0
  5  6  1  0  0  0  0
  8  5  1  0  0  0  0
  9 10  1  6  0  0  0
  9  1  1  0  0  0  0
 10 11  1  0  0  0  0
 12 13  1  0  0  0  0
 12 10  2  0  0  0  0
 13 16  1  0  0  0  0
 14 13  1  0  0  0  0
 15 13  1  0  0  0  0
 17  1  1  0  0  0  0
 17 24  1  0  0  0  0
 18 17  2  0  0  0  0
 19 18  1  0  0  0  0
 19 21  2  0  0  0  0
 20 19  1  0  0  0  0
 21 22  1  0  0  0  0
 22 23  1  0  0  0  0
 24 22  2  0  0  0  0
 24 25  1  0  0  0  0
M  CHG  1   2  -1
M  END
