1,3
q = -1.0, confidence = 0.0

 18 17  0  0  0  0  0  0  0  0999 V2000
   -1.5149   -1.2624   -0.4596 O   0  5  0  0  0  0  0  0  0  0  0  0
   -3.5496   -2.0750   -0.0339 O   0  0  0  0  0  0  0  0  0  0  0  0
   -1.1872    1.7393   -0.0868 N   0  0  0  0  0  0  0  0  0  0  0  0
   -2.7641   -1.1347   -0.0522 C   0  0  0  0  0  0  0  0  0  0  0  0
   -3.2054    0.2705    0.3888 C   0  0  0  0  0  0  0  0  0  0  0  0
   -2.9837    0.3921    1.4709 H   0  0  0  0  0  0  0  0  0  0  0  0
   -4.3088    0.3002    0.3030 H   0  0  0  0  0  0  0  0  0  0  0  0
   -2.6023    1.4091   -0.4245 C   0  0  0  0  0  0  0  0  0  0  0  0
   -2.6256    1.1483   -1.5012 H   0  0  0  0  0  0  0  0  0  0  0  0
   -3.2025    2.3404   -0.2994 H   0  0  0  0  0  0  0  0  0  0  0  0
   -1.0915    2.4175    1.2283 C   0  0  0  0  0  0  0  0  0  0  0  0
   -0.0228    2.5848    1.4535 H   0  0  0  0  0  0  0  0  0  0  0  0
   -1.5335    1.7806    2.0154 H   0  0  0  0  0  0  0  0  0  0  0  0
   -1.6361    3.3878    1.1944 H   0  0  0  0  0  0  0  0  0  0  0  0
   -0.6196    2.6276   -1.1299 C   0  0  0  0  0  0  0  0  0  0  0  0
   -1.2124    3.5680   -1.1917 H   0  0  0  0  0  0  0  0  0  0  0  0
   -0.6511    2.1122   -2.1078 H   0  0  0  0  0  0  0  0  0  0  0  0
    0.4283    2.8585   -0.8670 H   0  0  0  0  0  0  0  0  0  0  0  0
  1  4  1  0  0  0  0
  3 11  1  0  0  0  0
  4  2  2  0  0  0  0
  4  5  1  0  0  0  0
  5  6  1  0  0  0  0
  7  5  1  0  0  0  0
  8 10  1  0  0  0  0
  8  3  1  0  0  0  0
  8  5  1  0  0  0  0
  9  8  1  0  0  0  0
 11 12  1  0  0  0  0
 11 13  1  0  0  0  0
 14 11  1  0  0  0  0
 15 18  1  0  0  0  0
 15  3  1  0  0  0  0
 16 15  1  0  0  0  0
 17 15  1  0  0  0  0
M  CHG  1   1  -1
M  END
