1,36
q = -1.0, confidence = 0.102

 60 64  0  0  1  0  0  0  0  0999 V2000
   -1.5146   -1.1694   -0.7887 O   0  5  0  0  0  0  0  0  0  0  0  0
   -2.0481    0.0377   -0.6091 C   0  0  0  0  0  0  0  0  0  0  0  0
   -1.1934    1.1169   -0.2288 C   0  0  0  0  0  0  0  0  0  0  0  0
   -1.7274    2.4040   -0.0007 C   0  0  0  0  0  0  0  0  0  0  0  0
   -1.0367    3.2069    0.2913 H   0  0  0  0  0  0  0  0  0  0  0  0
   -3.0946    2.6554   -0.1492 C   0  0  0  0  0  0  0  0  0  0  0  0
   -3.6508    4.0660    0.1182 C   0  0  0  0  0  0  0  0  0  0  0  0
   -5.1716    4.1415   -0.1018 C   0  0  0  0  0  0  0  0  0  0  0  0
   -5.4517    3.8939   -1.1455 H   0  0  0  0  0  0  0  0  0  0  0  0
   -5.5289    5.1707    0.1029 H   0  0  0  0  0  0  0  0  0  0  0  0
   -5.7222    3.4575    0.5752 H   0  0  0  0  0  0  0  0  0  0  0  0
   -2.9696    5.0719   -0.8373 C   0  0  0  0  0  0  0  0  0  0  0  0
   -1.8705    5.0931   -0.6969 H   0  0  0  0  0  0  0  0  0  0  0  0
   -3.3514    6.0983   -0.6578 H   0  0  0  0  0  0  0  0  0  0  0  0
   -3.1688    4.8096   -1.8959 H   0  0  0  0  0  0  0  0  0  0  0  0
   -3.3493    4.4599    1.5820 C   0  0  0  0  0  0  0  0  0  0  0  0
   -2.2612    4.4581    1.7920 H   0  0  0  0  0  0  0  0  0  0  0  0
   -3.8297    3.7535    2.2890 H   0  0  0  0  0  0  0  0  0  0  0  0
   -3.7326    5.4787    1.7980 H   0  0  0  0  0  0  0  0  0  0  0  0
   -3.9109    1.5750   -0.5532 C   0  0  0  0  0  0  0  0  0  0  0  0
   -4.9829    1.7580   -0.6825 H   0  0  0  0  0  0  0  0  0  0  0  0
   -3.4406    0.2726   -0.7981 C   0  0  0  0  0  0  0  0  0  0  0  0
   -4.3911   -0.8631   -1.2188 C   0  0  0  0  0  0  0  0  0  0  0  0
   -5.8314   -0.3564   -1.4201 C   0  0  0  0  0  0  0  0  0  0  0  0
   -6.4726   -1.2008   -1.7422 H   0  0  0  0  0  0  0  0  0  0  0  0
   -5.8929    0.4258   -2.2038 H   0  0  0  0  0  0  0  0  0  0  0  0
   -6.2685    0.0516   -0.4860 H   0  0  0  0  0  0  0  0  0  0  0  0
   -3.9171   -1.4811   -2.5554 C   0  0  0  0  0  0  0  0  0  0  0  0
   -4.6038   -2.2984   -2.8574 H   0  0  0  0  0  0  0  0  0  0  0  0
   -2.8978   -1.9000   -2.4752 H   0  0  0  0  0  0  0  0  0  0  0  0
   -3.9188   -0.7185   -3.3606 H   0  0  0  0  0  0  0  0  0  0  0  0
   -4.4192   -1.9444   -0.1131 C   0  0  0  0  0  0  0  0  0  0  0  0
   -5.1273   -2.7525   -0.3906 H   0  0  0  0  0  0  0  0  0  0  0  0
   -4.7634   -1.5078    0.8481 H   0  0  0  0  0  0  0  0  0  0  0  0
   -3.4283   -2.4087    0.0439 H   0  0  0  0  0  0  0  0  0  0  0  0
    0.9638   -0.1969   -0.3462 N   0  0  0  0  0  2  0  0  0  0  0  0
    0.2355    0.9122   -0.1634 C   0  0  1  0  0  3  0  0  0  0  0  0
    1.0180    2.0054    0.0414 O   0  0  0  0  0  0  0  0  0  0  0  0
    2.3146    1.5704   -0.0530 C   0  0  0  0  0  0  0  0  0  0  0  0
    2.3084    0.2126   -0.3312 C   0  0  0  0  0  0  0  0  0  0  0  0
    3.4652    2.3834    0.1311 C   0  0  0  0  0  0  0  0  0  0  0  0
    4.7246    1.7073   -0.0185 C   0  0  0  0  0  0  0  0  0  0  0  0
    5.8928    2.4842    0.1963 C   0  0  0  0  0  0  0  0  0  0  0  0
    6.8823    2.0171    0.1042 H   0  0  0  0  0  0  0  0  0  0  0  0
    5.8230    3.8366    0.5257 C   0  0  0  0  0  0  0  0  0  0  0  0
    6.7524    4.4037    0.6852 H   0  0  0  0  0  0  0  0  0  0  0  0
    4.5735    4.4836    0.6556 C   0  0  0  0  0  0  0  0  0  0  0  0
    4.5280    5.5520    0.9136 H   0  0  0  0  0  0  0  0  0  0  0  0
    3.4018    3.7609    0.4597 C   0  0  0  0  0  0  0  0  0  0  0  0
    2.4174    4.2398    0.5619 H   0  0  0  0  0  0  0  0  0  0  0  0
    3.5523   -0.4753   -0.5880 C   0  0  0  0  0  0  0  0  0  0  0  0
    4.7634    0.2899   -0.4023 C   0  0  0  0  0  0  0  0  0  0  0  0
    5.9977   -0.3700   -0.6389 C   0  0  0  0  0  0  0  0  0  0  0  0
    6.9399    0.1766   -0.4993 H   0  0  0  0  0  0  0  0  0  0  0  0
    6.0527   -1.6940   -1.0644 C   0  0  0  0  0  0  0  0  0  0  0  0
    7.0290   -2.1703   -1.2397 H   0  0  0  0  0  0  0  0  0  0  0  0
    4.8610   -2.4128   -1.2907 C   0  0  0  0  0  0  0  0  0  0  0  0
    4.8974   -3.4501   -1.6549 H   0  0  0  0  0  0  0  0  0  0  0  0
    3.6290   -1.8109   -1.0558 C   0  0  0  0  0  0  0  0  0  0  0  0
    2.7066   -2.3695   -1.2547 H   0  0  0  0  0  0  0  0  0  0  0  0
  1  2  1  0  0  0  0
  2  3  1  0  0  0  0
  3  4  2  0  0  0  0
  4  5  1  0  0  0  0
  6  4  1  0  0  0  0
  6  7  1  0  0  0  0
  7 16  1  0  0  0  0
  8 10  1  0  0  0  0
  8  7  1  0  0  0  0
  8 11  1  0  0  0  0
  9  8  1  0  0  0  0
 12 13  1  0  0  0  0
 12 14  1  0  0  0  0
 12  7  1  0  0  0  0
 15 12  1  0  0  0  0
 16 17  1  0  0  0  0
 16 19  1  0  0  0  0
 16 18  1  0  0  0  0
 20  6  2  0  0  0  0
 21 20  1  0  0  0  0
 22  2  2  0  0  0  0
 22 20  1  0  0  0  0
 23 22  1  0  0  0  0
 23 32  1  0  0  0  0
 24 23  1  0  0  0  0
 24 27  1  0  0  0  0
 25 24  1  0  0  0  0
 26 24  1  0  0  0  0
 28 30  1  0  0  0  0
 28 23  1  0  0  0  0
 29 28  1  0  0  0  0
 31 28  1  0  0  0  0
 32 35  1  0  0  0  0
 32 34  1  0  0  0  0
 33 32  1  0  0  0  0
 36 40  1  0  0  0  0
 36 37  1  0  0  0  0
 37  3  1  6  0  0  0
 37 38  1  0  0  0  0
 39 38  1  0  0  0  0
 39 41  1  0  0  0  0
 40 39  2  0  0  0  0
 41 49  1  0  0  0  0
 42 41  2  0  0  0  0
 42 43  1  0  0  0  0
 43 45  2  0  0  0  0
 44 43  1  0  0  0  0
 45 47  1  0  0  0  0
 45 46  1  0  0  0  0
 47 48  1  0  0  0  0
 49 50  1  0  0  0  0
 49 47  2  0  0  0  0
 51 52  1  0  0  0  0
 51 40  1  0  0  0  0
 52 42  1  0  0  0  0
 53 54  1  0  0  0  0
 53 52  2  0  0  0  0
 55 53  1  0  0  0  0
 56 55  1  0  0  0  0
 57 55  2  0  0  0  0
 57 59  1  0  0  0  0
 58 57  1  0  0  0  0
 59 51  2  0  0  0  0
 60 59  1  0  0  0  0
M  CHG  1   1  -1
M  END
