1,6
q = 0.0, confidence = 0.99

 38 39  0  0  1  0  0  0  0  0999 V2000
   -0.3479    0.2942   -0.3671 O   0  0  0  0  0  1  0  0  0  0  0  0
   -2.9550    1.0039    0.3319 N   0  0  0  0  0  0  0  0  0  0  0  0
   -2.9990   -0.3245    0.0870 N   0  0  0  0  0  0  0  0  0  0  0  0
   -2.1958   -0.9999    0.3087 H   0  0  0  0  0  0  0  0  0  0  0  0
    1.8876    1.8375    0.0921 N   0  0  0  0  0  0  0  0  0  0  0  0
    2.2799    0.5352   -0.0383 N   0  0  0  0  0  2  0  0  0  0  0  0
   -4.3025    3.0616   -0.1396 C   0  0  0  0  0  0  0  0  0  0  0  0
   -4.3742    3.4066    0.9125 H   0  0  0  0  0  0  0  0  0  0  0  0
   -5.2554    3.3061   -0.6423 H   0  0  0  0  0  0  0  0  0  0  0  0
   -3.4980    3.6452   -0.6323 H   0  0  0  0  0  0  0  0  0  0  0  0
   -4.0516    1.5938   -0.2249 C   0  0  2  0  0  3  0  0  0  0  0  0
   -4.8038    0.5770   -0.8323 C   0  0  0  0  0  0  0  0  0  0  0  0
   -5.7509    0.7003   -1.3659 H   0  0  0  0  0  0  0  0  0  0  0  0
   -4.1033   -0.6279   -0.6256 C   0  0  0  0  0  0  0  0  0  0  0  0
   -4.3973   -2.0276   -1.0457 C   0  0  0  0  0  0  0  0  0  0  0  0
   -3.4546   -2.5738   -1.2466 H   0  0  0  0  0  0  0  0  0  0  0  0
   -5.0335   -2.0320   -1.9495 H   0  0  0  0  0  0  0  0  0  0  0  0
   -4.9338   -2.5768   -0.2444 H   0  0  0  0  0  0  0  0  0  0  0  0
   -1.7981    1.6080    0.9744 C   0  0  0  0  0  0  0  0  0  0  0  0
   -1.5243    0.9957    1.8629 H   0  0  0  0  0  0  0  0  0  0  0  0
   -2.0841    2.6293    1.2879 H   0  0  0  0  0  0  0  0  0  0  0  0
   -0.5719    1.5930    0.0268 C   0  0  1  0  0  0  0  0  0  0  0  0
   -0.7924    2.2235   -0.8737 H   0  0  0  0  0  0  0  0  0  0  0  0
    0.6523    2.1747    0.7706 C   0  0  0  0  0  0  0  0  0  0  0  0
    0.5887    3.2765    0.8380 H   0  0  0  0  0  0  0  0  0  0  0  0
    0.6884    1.7315    1.7879 H   0  0  0  0  0  0  0  0  0  0  0  0
    2.7005    4.1875   -0.3132 C   0  0  0  0  0  0  0  0  0  0  0  0
    1.8072    4.5416   -0.8690 H   0  0  0  0  0  0  0  0  0  0  0  0
    3.5879    4.6594   -0.7733 H   0  0  0  0  0  0  0  0  0  0  0  0
    2.6222    4.5684    0.7273 H   0  0  0  0  0  0  0  0  0  0  0  0
    2.8450    2.7019   -0.3613 C   0  0  1  0  0  3  0  0  0  0  0  0
    3.9005    1.9096   -0.8101 C   0  0  0  0  0  0  0  0  0  0  0  0
    4.8419    2.2587   -1.2464 H   0  0  0  0  0  0  0  0  0  0  0  0
    3.5147    0.5652   -0.5953 C   0  0  0  0  0  0  0  0  0  0  0  0
    4.3037   -0.6519   -0.9420 C   0  0  0  0  0  0  0  0  0  0  0  0
    4.4970   -1.2697   -0.0443 H   0  0  0  0  0  0  0  0  0  0  0  0
    5.2635   -0.3568   -1.4050 H   0  0  0  0  0  0  0  0  0  0  0  0
    3.7336   -1.2935   -1.6443 H   0  0  0  0  0  0  0  0  0  0  0  0
  1 22  1  0  0  0  0
  2 19  1  0  0  0  0
  3  4  1  0  0  0  0
  3  2  1  0  0  0  0
  5 24  1  0  0  0  0
  6  5  1  0  0  0  0
  7  8  1  0  0  0  0
  9  7  1  0  0  0  0
 10  7  1  0  0  0  0
 11  7  1  1  0  0  0
 11  2  1  0  0  0  0
 12 14  2  0  0  0  0
 12 11  1  0  0  0  0
 13 12  1  0  0  0  0
 14  3  1  0  0  0  0
 15 14  1  0  0  0  0
 15 18  1  0  0  0  0
 16 15  1  0  0  0  0
 17 15  1  0  0  0  0
 19 21  1  0  0  0  0
 19 20  1  0  0  0  0
 22 23  1  6  0  0  0
 22 24  1  0  0  0  0
 22 19  1  0  0  0  0
 24 25  1  0  0  0  0
 24 26  1  0  0  0  0
 27 30  1  0  0  0  0
 28 27  1  0  0  0  0
 29 27  1  0  0  0  0
 31 27  1  1  0  0  0
 31  5  1  0  0  0  0
 32 34  2  0  0  0  0
 32 31  1  0  0  0  0
 33 32  1  0  0  0  0
 34  6  1  0  0  0  0
 35 34  1  0  0  0  0
 35 36  1  0  0  0  0
 37 35  1  0  0  0  0
 38 35  1  0  0  0  0
M  END
