1,4
q = -1.0, confidence = 0.0

 33 33  0  0  1  0  0  0  0  0999 V2000
   -1.4686   -1.9102   -0.0310 O   0  5  0  0  0  0  0  0  0  0  0  0
   -0.8907    3.1561    1.5328 O   0  0  0  0  0  0  0  0  0  0  0  0
    1.2785    2.6699    1.9661 O   0  0  0  0  0  0  0  0  0  0  0  0
   -0.5326    0.8479   -0.2174 N   0  0  0  0  0  2  0  0  0  0  0  0
   -1.8171    1.0153   -0.4145 C   0  0  0  0  0  0  0  0  0  0  0  0
   -2.8516    0.0307   -0.4932 C   0  0  0  0  0  0  0  0  0  0  0  0
   -2.6244   -1.3792   -0.2902 C   0  0  0  0  0  0  0  0  0  0  0  0
   -3.7632   -2.2456   -0.3549 C   0  0  0  0  0  0  0  0  0  0  0  0
   -5.0334   -1.7551   -0.6258 C   0  0  0  0  0  0  0  0  0  0  0  0
   -5.2551   -0.3701   -0.8359 C   0  0  0  0  0  0  0  0  0  0  0  0
   -4.1731    0.4951   -0.7627 C   0  0  0  0  0  3  0  0  0  0  0  0
    0.3179    2.0574   -0.2000 C   0  0  2  0  0  0  0  0  0  0  0  0
    0.3220    2.6514    1.2107 C   0  0  0  0  0  0  0  0  0  0  0  0
   -1.0107    3.7002    2.8537 C   0  0  0  0  0  0  0  0  0  0  0  0
    0.0022    3.1341   -1.2725 C   0  0  0  0  0  0  0  0  0  0  0  0
    0.1046    2.5535   -2.6865 C   0  0  0  0  0  0  0  0  0  0  0  0
    0.9465    4.3310   -1.0942 C   0  0  0  0  0  0  0  0  0  0  0  0
   -2.1724    2.0548   -0.5346 H   0  0  0  0  0  0  0  0  0  0  0  0
   -3.5836   -3.3189   -0.1963 H   0  0  0  0  0  0  0  0  0  0  0  0
   -5.8808   -2.4568   -0.6815 H   0  0  0  0  0  0  0  0  0  0  0  0
   -6.2641    0.0084   -1.0525 H   0  0  0  0  0  0  0  0  0  0  0  0
   -4.3187    1.5767   -0.9180 H   0  0  0  0  0  0  0  0  0  0  0  0
    1.3493    1.7136   -0.3829 H   0  0  0  0  0  0  0  0  0  0  0  0
   -0.8561    2.9111    3.6172 H   0  0  0  0  0  0  0  0  0  0  0  0
   -0.2598    4.4982    3.0196 H   0  0  0  0  0  0  0  0  0  0  0  0
   -2.0347    4.1067    2.9259 H   0  0  0  0  0  0  0  0  0  0  0  0
   -1.0321    3.5031   -1.1015 H   0  0  0  0  0  0  0  0  0  0  0  0
    1.1576    2.2987   -2.9253 H   0  0  0  0  0  0  0  0  0  0  0  0
   -0.4789    1.6207   -2.8063 H   0  0  0  0  0  0  0  0  0  0  0  0
   -0.2417    3.2962   -3.4331 H   0  0  0  0  0  0  0  0  0  0  0  0
    0.8123    4.8374   -0.1169 H   0  0  0  0  0  0  0  0  0  0  0  0
    2.0081    4.0142   -1.1685 H   0  0  0  0  0  0  0  0  0  0  0  0
    0.7660    5.0839   -1.8869 H   0  0  0  0  0  0  0  0  0  0  0  0
  2 14  1  0  0  0  0
  4 12  1  0  0  0  0
  5  4  1  0  0  0  0
  6  5  2  0  0  0  0
  6  7  1  0  0  0  0
  7  1  1  0  0  0  0
  8  7  2  0  0  0  0
  8 19  1  0  0  0  0
  9  8  1  0  0  0  0
 10 11  1  0  0  0  0
 10  9  2  0  0  0  0
 11  6  1  0  0  0  0
 12 23  1  6  0  0  0
 12 13  1  0  0  0  0
 13  2  1  0  0  0  0
 13  3  2  0  0  0  0
 14 26  1  0  0  0  0
 14 25  1  0  0  0  0
 14 24  1  0  0  0  0
 15 27  1  0  0  0  0
 15 17  1  0  0  0  0
 15 12  1  0  0  0  0
 16 15  1  0  0  0  0
 17 31  1  0  0  0  0
 18  5  1  0  0  0  0
 20  9  1  0  0  0  0
 21 10  1  0  0  0  0
 22 11  1  0  0  0  0
 28 16  1  0  0  0  0
 29 16  1  0  0  0  0
 30 16  1  0  0  0  0
 32 17  1  0  0  0  0
 33 17  1  0  0  0  0
M  CHG  1   1  -1
M  END
