1,4
q = -1.0, confidence = 0.0

 34 35  0  0  1  0  0  0  0  0999 V2000
    1.8996    1.1871   -0.9649 O   0  5  0  0  0  0  0  0  0  0  0  0
   -1.5601   -0.6991    2.6112 O   0  0  0  0  0  0  0  0  0  0  0  0
   -2.3528   -2.4993    1.4822 O   0  0  0  0  0  0  0  0  0  0  0  0
   -0.6411    0.2707    0.0498 N   0  0  0  0  0  2  0  0  0  0  0  0
    1.5010    2.3342   -0.5037 C   0  0  0  0  0  0  0  0  0  0  0  0
    2.3814    3.4555   -0.6448 C   0  0  0  0  0  0  0  0  0  0  0  0
    2.0347    4.7149   -0.1725 C   0  0  0  0  0  0  0  0  0  0  0  0
    0.7904    4.9418    0.4676 C   0  0  0  0  0  0  0  0  0  0  0  0
   -0.0871    3.8760    0.6130 C   0  0  0  0  0  0  0  0  0  0  0  0
    0.2357    2.5670    0.1518 C   0  0  0  0  0  0  0  0  0  0  0  0
   -0.7523    1.5435    0.3229 C   0  0  0  0  0  3  0  0  0  0  0  0
   -1.8374   -0.5832    0.1835 C   0  0  2  0  0  0  0  0  0  0  0  0
   -3.1545    0.1277   -0.1194 C   0  0  0  0  0  0  0  0  0  0  0  0
   -4.0404    0.5579    0.8868 C   0  0  0  0  0  0  0  0  0  0  0  0
   -5.2273    1.2267    0.5445 C   0  0  0  0  0  0  0  0  0  0  0  0
   -5.5312    1.4772   -0.8015 C   0  0  0  0  0  0  0  0  0  0  0  0
   -4.6428    1.0595   -1.8073 C   0  0  0  0  0  0  0  0  0  0  0  0
   -3.4607    0.3875   -1.4712 C   0  0  0  0  0  0  0  0  0  0  0  0
   -1.8780   -1.2340    1.5649 C   0  0  0  0  0  0  0  0  0  0  0  0
   -2.5249   -3.1777    2.7351 C   0  0  0  0  0  0  0  0  0  0  0  0
    3.3419    3.2755   -1.1493 H   0  0  0  0  0  0  0  0  0  0  0  0
    2.7407    5.5505   -0.3020 H   0  0  0  0  0  0  0  0  0  0  0  0
    0.5238    5.9433    0.8337 H   0  0  0  0  0  0  0  0  0  0  0  0
   -1.0660    4.0260    1.0966 H   0  0  0  0  0  0  0  0  0  0  0  0
   -1.7292    1.8902    0.7088 H   0  0  0  0  0  0  0  0  0  0  0  0
   -1.7212   -1.3823   -0.5721 H   0  0  0  0  0  0  0  0  0  0  0  0
   -3.7995    0.3817    1.9464 H   0  0  0  0  0  0  0  0  0  0  0  0
   -5.9154    1.5567    1.3377 H   0  0  0  0  0  0  0  0  0  0  0  0
   -6.4605    2.0031   -1.0685 H   0  0  0  0  0  0  0  0  0  0  0  0
   -4.8728    1.2599   -2.8648 H   0  0  0  0  0  0  0  0  0  0  0  0
   -2.7404    0.0765   -2.2460 H   0  0  0  0  0  0  0  0  0  0  0  0
   -1.5499   -3.3127    3.2459 H   0  0  0  0  0  0  0  0  0  0  0  0
   -3.1924   -2.6004    3.4052 H   0  0  0  0  0  0  0  0  0  0  0  0
   -2.9711   -4.1580    2.4927 H   0  0  0  0  0  0  0  0  0  0  0  0
  1  5  1  0  0  0  0
  3 19  1  0  0  0  0
  3 20  1  0  0  0  0
  4 12  1  0  0  0  0
  4 11  1  0  0  0  0
  5 10  1  0  0  0  0
  6  5  2  0  0  0  0
  6  7  1  0  0  0  0
  7  8  2  0  0  0  0
  8  9  1  0  0  0  0
  8 23  1  0  0  0  0
  9 24  1  0  0  0  0
 10 11  1  0  0  0  0
 10  9  2  0  0  0  0
 11 25  1  0  0  0  0
 12 26  1  6  0  0  0
 12 19  1  0  0  0  0
 13 12  1  0  0  0  0
 13 14  1  0  0  0  0
 14 27  1  0  0  0  0
 15 14  2  0  0  0  0
 15 28  1  0  0  0  0
 16 15  1  0  0  0  0
 17 18  1  0  0  0  0
 17 16  2  0  0  0  0
 18 13  2  0  0  0  0
 19  2  2  0  0  0  0
 20 32  1  0  0  0  0
 20 33  1  0  0  0  0
 21  6  1  0  0  0  0
 22  7  1  0  0  0  0
 29 16  1  0  0  0  0
 30 17  1  0  0  0  0
 31 18  1  0  0  0  0
 34 20  1  0  0  0  0
M  CHG  1   1  -1
M  END
