1,7
q = -1.0, confidence = 0.0

 35 37  0  0  1  0  0  0  0  0999 V2000
   -2.2611   -0.4708   -0.5698 O   0  0  0  0  0  1  0  0  0  0  0  0
   -3.3683    3.9991   -0.3101 O   0  0  0  0  0  0  0  0  0  0  0  0
   -2.8542    1.7678   -0.4722 N   0  0  0  0  0  0  0  0  0  0  0  0
   -1.1614    3.3853   -0.0057 N   0  0  0  0  0  0  0  0  0  0  0  0
    1.0947    2.6945    0.2883 N   0  0  0  0  0  0  0  0  0  0  0  0
    1.3865    3.6583    0.4469 H   0  0  0  0  0  0  0  0  0  0  0  0
    0.3294    0.0004   -0.0828 N   0  0  0  0  0  2  0  0  0  0  0  0
   -1.9305    0.7260   -0.4137 C   0  0  1  0  0  3  0  0  0  0  0  0
   -2.5324    3.1090   -0.2683 C   0  0  0  0  0  0  0  0  0  0  0  0
   -0.2084    2.3929    0.0428 C   0  0  0  0  0  0  0  0  0  0  0  0
    2.0841    1.7019    0.1626 C   0  0  0  0  0  0  0  0  0  0  0  0
    3.4389    2.0484    0.2362 C   0  0  0  0  0  0  0  0  0  0  0  0
    3.7120    3.0988    0.4286 H   0  0  0  0  0  0  0  0  0  0  0  0
    4.4517    1.0911    0.0624 C   0  0  0  0  0  0  0  0  0  0  0  0
    4.0762   -0.2511   -0.2222 C   0  0  0  0  0  0  0  0  0  0  0  0
    2.7167   -0.5894   -0.2898 C   0  0  0  0  0  0  0  0  0  0  0  0
    2.4331   -1.6211   -0.5276 H   0  0  0  0  0  0  0  0  0  0  0  0
    1.6897    0.3503   -0.0654 C   0  0  0  0  0  0  0  0  0  0  0  0
   -0.5628    1.0626   -0.1616 C   0  0  0  0  0  0  0  0  0  0  0  0
   -4.2651    1.4609   -0.7170 C   0  0  0  0  0  0  0  0  0  0  0  0
   -4.6061    1.9643   -1.6414 H   0  0  0  0  0  0  0  0  0  0  0  0
   -4.8795    1.8248    0.1279 H   0  0  0  0  0  0  0  0  0  0  0  0
   -4.3522    0.3656   -0.8154 H   0  0  0  0  0  0  0  0  0  0  0  0
   -0.7960    4.7792    0.2170 C   0  0  0  0  0  0  0  0  0  0  0  0
   -0.0693    5.1264   -0.5468 H   0  0  0  0  0  0  0  0  0  0  0  0
   -0.3763    4.9219    1.2346 H   0  0  0  0  0  0  0  0  0  0  0  0
   -1.7240    5.3706    0.1255 H   0  0  0  0  0  0  0  0  0  0  0  0
    5.9008    1.4837    0.1545 C   0  0  0  0  0  0  0  0  0  0  0  0
    6.4414    1.2664   -0.7910 H   0  0  0  0  0  0  0  0  0  0  0  0
    6.4248    0.9110    0.9486 H   0  0  0  0  0  0  0  0  0  0  0  0
    6.0218    2.5611    0.3761 H   0  0  0  0  0  0  0  0  0  0  0  0
    5.1261   -1.3045   -0.4564 C   0  0  0  0  0  0  0  0  0  0  0  0
    5.7844   -1.4235    0.4301 H   0  0  0  0  0  0  0  0  0  0  0  0
    5.7897   -1.0380   -1.3062 H   0  0  0  0  0  0  0  0  0  0  0  0
    4.6693   -2.2878   -0.6735 H   0  0  0  0  0  0  0  0  0  0  0  0
  2  9  2  0  0  0  0
  3  8  1  0  0  0  0
  3  9  1  0  0  0  0
  4 10  1  0  0  0  0
  4 24  1  0  0  0  0
  5  6  1  0  0  0  0
  7 18  1  0  0  0  0
  8  1  1  1  0  0  0
  8 19  1  0  0  0  0
  9  4  1  0  0  0  0
 10  5  1  0  0  0  0
 11 12  1  0  0  0  0
 11  5  1  0  0  0  0
 12 13  1  0  0  0  0
 14 28  1  0  0  0  0
 14 12  2  0  0  0  0
 15 14  1  0  0  0  0
 16 15  2  0  0  0  0
 16 18  1  0  0  0  0
 17 16  1  0  0  0  0
 18 11  2  0  0  0  0
 19  7  1  0  0  0  0
 19 10  2  0  0  0  0
 20  3  1  0  0  0  0
 20 22  1  0  0  0  0
 21 20  1  0  0  0  0
 23 20  1  0  0  0  0
 24 26  1  0  0  0  0
 25 24  1  0  0  0  0
 27 24  1  0  0  0  0
 28 31  1  0  0  0  0
 28 30  1  0  0  0  0
 29 28  1  0  0  0  0
 32 15  1  0  0  0  0
 32 33  1  0  0  0  0
 34 32  1  0  0  0  0
 35 32  1  0  0  0  0
M  END
