1,2
q = -1.0, confidence = 0.072

 35 36  0  0  1  0  0  0  0  0999 V2000
   -0.3525   -0.7141   -1.4226 N   0  0  0  0  0  2  0  0  0  0  0  0
    1.7698    0.7687   -0.6598 O   0  5  0  0  0  0  0  0  0  0  0  0
    1.0684   -2.6172   -4.1490 F   0  0  0  0  0  0  0  0  0  0  0  0
   -1.0249   -2.1216   -3.8794 F   0  0  0  0  0  0  0  0  0  0  0  0
   -0.0382   -3.5055   -2.4989 F   0  0  0  0  0  0  0  0  0  0  0  0
    5.4111    3.4856    0.9350 F   0  0  0  0  0  0  0  0  0  0  0  0
    7.4792    2.9996    0.4191 F   0  0  0  0  0  0  0  0  0  0  0  0
    6.3934    1.7715    1.8583 F   0  0  0  0  0  0  0  0  0  0  0  0
   -2.0014   -2.3512   -0.5900 C   0  0  0  0  0  0  0  0  0  0  0  0
   -1.1999   -2.8975   -0.0751 H   0  0  0  0  0  0  0  0  0  0  0  0
   -3.3358   -2.7678   -0.4652 C   0  0  0  0  0  0  0  0  0  0  0  0
   -3.5670   -3.6573    0.1403 H   0  0  0  0  0  0  0  0  0  0  0  0
   -4.3660   -2.0552   -1.0955 C   0  0  0  0  0  0  0  0  0  0  0  0
   -5.4117   -2.3784   -0.9848 H   0  0  0  0  0  0  0  0  0  0  0  0
   -4.0567   -0.9161   -1.8573 C   0  0  0  0  0  0  0  0  0  0  0  0
   -4.8589   -0.3336   -2.3333 H   0  0  0  0  0  0  0  0  0  0  0  0
   -2.7291   -0.4906   -1.9860 C   0  0  0  0  0  0  0  0  0  0  0  0
   -2.4728    0.4148   -2.5532 H   0  0  0  0  0  0  0  0  0  0  0  0
   -1.6935   -1.2117   -1.3566 C   0  0  0  0  0  0  0  0  0  0  0  0
    0.5250   -1.2018   -2.2836 C   0  0  1  0  0  3  0  0  0  0  0  0
    1.8845   -0.7997   -2.3933 C   0  0  0  0  0  0  0  0  0  0  0  0
    2.4994   -1.3085   -3.1396 H   0  0  0  0  0  0  0  0  0  0  0  0
    2.4770    0.1297   -1.5410 C   0  0  0  0  0  0  0  0  0  0  0  0
    3.9313    0.4150   -1.5158 C   0  0  0  0  0  0  0  0  0  0  0  0
    4.4028    1.3331   -0.5539 C   0  0  0  0  0  0  0  0  0  0  0  0
    3.6760    1.8406    0.0953 H   0  0  0  0  0  0  0  0  0  0  0  0
    5.7760    1.5704   -0.4189 C   0  0  0  0  0  0  0  0  0  0  0  0
    6.6955    0.9191   -1.2593 C   0  0  0  0  0  0  0  0  0  0  0  0
    7.7710    1.1189   -1.1509 H   0  0  0  0  0  0  0  0  0  0  0  0
    6.2288    0.0241   -2.2344 C   0  0  0  0  0  0  0  0  0  0  0  0
    6.9438   -0.4828   -2.8989 H   0  0  0  0  0  0  0  0  0  0  0  0
    4.8591   -0.2333   -2.3596 C   0  0  0  0  0  0  0  0  0  0  0  0
    4.5147   -0.9532   -3.1153 H   0  0  0  0  0  0  0  0  0  0  0  0
    0.1193   -2.3657   -3.2185 C   0  0  0  0  0  0  0  0  0  0  0  0
    6.2650    2.4690    0.6933 C   0  0  0  0  0  0  0  0  0  0  0  0
  1 19  1  0  0  0  0
  3 34  1  0  0  0  0
  4 34  1  0  0  0  0
  7 35  1  0  0  0  0
  9 11  1  0  0  0  0
  9 10  1  0  0  0  0
 11 12  1  0  0  0  0
 13 14  1  0  0  0  0
 13 11  2  0  0  0  0
 15 13  1  0  0  0  0
 16 15  1  0  0  0  0
 17 15  2  0  0  0  0
 17 19  1  0  0  0  0
 18 17  1  0  0  0  0
 19  9  2  0  0  0  0
 20 21  1  1  0  0  0
 20  1  1  0  0  0  0
 21 23  2  0  0  0  0
 22 21  1  0  0  0  0
 23 24  1  0  0  0  0
 23  2  1  0  0  0  0
 24 25  1  0  0  0  0
 25 27  2  0  0  0  0
 25 26  1  0  0  0  0
 27 35  1  0  0  0  0
 28 29  1  0  0  0  0
 28 27  1  0  0  0  0
 30 28  2  0  0  0  0
 31 30  1  0  0  0  0
 32 30  1  0  0  0  0
 32 24  2  0  0  0  0
 33 32  1  0  0  0  0
 34  5  1  0  0  0  0
 34 20  1  0  0  0  0
 35  6  1  0  0  0  0
 35  8  1  0  0  0  0
M  CHG  1   2  -1
M  END
