6,7
q = -1.0, confidence = 0.032

 32 33  0  0  1  0  0  0  0  0999 V2000
    0.3142    3.9713   -1.6834 F   0  0  0  0  0  0  0  0  0  0  0  0
   -0.4010    2.4293   -3.0644 F   0  0  0  0  0  0  0  0  0  0  0  0
   -1.7914    3.8542   -2.1846 F   0  0  0  0  0  0  0  0  0  0  0  0
   -5.0568    1.8100   -1.0701 F   0  0  0  0  0  0  0  0  0  0  0  0
   -7.9908   -0.5542    1.7297 F   0  0  0  0  0  0  0  0  0  0  0  0
   -1.8477    0.3426    1.2323 O   0  5  0  0  0  0  0  0  0  0  0  0
    0.0996    1.4606   -0.2463 N   0  0  0  0  0  2  0  0  0  0  0  0
    1.8913    0.9697   -1.8712 C   0  0  0  0  0  0  0  0  0  0  0  0
    1.2053    0.3190   -2.4296 H   0  0  0  0  0  0  0  0  0  0  0  0
    3.2288    1.1005   -2.2757 C   0  0  0  0  0  0  0  0  0  0  0  0
    3.5794    0.5514   -3.1625 H   0  0  0  0  0  0  0  0  0  0  0  0
    4.1141    1.9116   -1.5512 C   0  0  0  0  0  0  0  0  0  0  0  0
    5.1629    2.0086   -1.8689 H   0  0  0  0  0  0  0  0  0  0  0  0
    3.6556    2.5901   -0.4096 C   0  0  0  0  0  0  0  0  0  0  0  0
    4.3445    3.2215    0.1713 H   0  0  0  0  0  0  0  0  0  0  0  0
    2.3265    2.4577    0.0089 C   0  0  0  0  0  0  0  0  0  0  0  0
    1.9603    2.9559    0.9170 H   0  0  0  0  0  0  0  0  0  0  0  0
    1.4340    1.6527   -0.7283 C   0  0  0  0  0  0  0  0  0  0  0  0
   -0.9240    2.1224   -0.7617 C   0  0  2  0  0  3  0  0  0  0  0  0
   -2.2891    1.9580   -0.3985 C   0  0  0  0  0  0  0  0  0  0  0  0
   -3.0332    2.5491   -0.9335 H   0  0  0  0  0  0  0  0  0  0  0  0
   -2.7167    1.0248    0.5449 C   0  0  0  0  0  0  0  0  0  0  0  0
   -4.1257    0.6947    0.8384 C   0  0  0  0  0  0  0  0  0  0  0  0
   -5.2305    1.0616    0.0351 C   0  0  0  0  0  0  0  0  0  0  0  0
   -6.5335    0.6494    0.3209 C   0  0  0  0  0  0  0  0  0  0  0  0
   -7.3660    0.9462   -0.3301 H   0  0  0  0  0  0  0  0  0  0  0  0
   -6.7438   -0.1548    1.4472 C   0  0  0  0  0  0  0  0  0  0  0  0
   -5.6859   -0.5524    2.2776 C   0  0  0  0  0  0  0  0  0  0  0  0
   -5.8886   -1.1871    3.1509 H   0  0  0  0  0  0  0  0  0  0  0  0
   -4.3955   -0.1297    1.9596 C   0  0  0  0  0  0  0  0  0  0  0  0
   -3.5384   -0.4454    2.5715 H   0  0  0  0  0  0  0  0  0  0  0  0
   -0.6918    3.1129   -1.9273 C   0  0  0  0  0  0  0  0  0  0  0  0
  2 32  1  0  0  0  0
  3 32  1  0  0  0  0
  4 24  1  0  0  0  0
  8 18  1  0  0  0  0
  9  8  1  0  0  0  0
 10  8  2  0  0  0  0
 10 12  1  0  0  0  0
 11 10  1  0  0  0  0
 12 14  2  0  0  0  0
 13 12  1  0  0  0  0
 14 16  1  0  0  0  0
 14 15  1  0  0  0  0
 16 17  1  0  0  0  0
 18  7  1  0  0  0  0
 18 16  2  0  0  0  0
 19 20  1  6  0  0  0
 19  7  1  0  0  0  0
 20 22  2  0  0  0  0
 21 20  1  0  0  0  0
 22 23  1  0  0  0  0
 22  6  1  0  0  0  0
 23 30  1  0  0  0  0
 24 25  1  0  0  0  0
 24 23  2  0  0  0  0
 25 27  2  0  0  0  0
 26 25  1  0  0  0  0
 27  5  1  0  0  0  0
 27 28  1  0  0  0  0
 28 29  1  0  0  0  0
 30 28  2  0  0  0  0
 30 31  1  0  0  0  0
 32  1  1  0  0  0  0
 32 19  1  0  0  0  0
M  CHG  1   6  -1
M  END
