1,3
q = -1.0, confidence = 0.126

 15 15  0  0  0  0  0  0  0  0999 V2000
   -1.5975   -0.2995   -0.5761 O   0  5  0  0  0  0  0  0  0  0  0  0
   -1.7533   -0.6761    1.6655 N   0  0  0  0  0  0  0  0  0  0  0  0
   -0.8154    0.2221    1.5828 N   0  0  0  0  0  1  0  0  0  0  0  0
   -2.1551   -0.9512    0.3788 C   0  0  0  0  0  0  0  0  0  0  0  0
   -3.1631   -1.9873    0.1177 C   0  0  0  0  0  0  0  0  0  0  0  0
   -3.5680   -2.2584   -1.2079 C   0  0  0  0  0  0  0  0  0  0  0  0
   -3.1270   -1.6643   -2.0209 H   0  0  0  0  0  0  0  0  0  0  0  0
   -4.5004   -3.2701   -1.4653 C   0  0  0  0  0  0  0  0  0  0  0  0
   -4.8127   -3.4772   -2.5005 H   0  0  0  0  0  0  0  0  0  0  0  0
   -5.0340   -4.0250   -0.4061 C   0  0  0  0  0  0  0  0  0  0  0  0
   -5.7644   -4.8228   -0.6108 H   0  0  0  0  0  0  0  0  0  0  0  0
   -4.6322   -3.7599    0.9150 C   0  0  0  0  0  0  0  0  0  0  0  0
   -5.0477   -4.3516    1.7452 H   0  0  0  0  0  0  0  0  0  0  0  0
   -3.7035   -2.7466    1.1798 C   0  0  0  0  0  0  0  0  0  0  0  0
   -3.3694   -2.5245    2.2032 H   0  0  0  0  0  0  0  0  0  0  0  0
  1  4  1  0  0  0  0
  3  2  1  0  0  0  0
  4  2  2  0  0  0  0
  5  4  1  0  0  0  0
  5 14  1  0  0  0  0
  6  5  2  0  0  0  0
  7  6  1  0  0  0  0
  8  6  1  0  0  0  0
  8 10  2  0  0  0  0
  9  8  1  0  0  0  0
 10 12  1  0  0  0  0
 11 10  1  0  0  0  0
 12 14  2  0  0  0  0
 12 13  1  0  0  0  0
 14 15  1  0  0  0  0
M  CHG  1   1  -1
M  END
