1,3
q = -1.0, confidence = 0.026

 37 38  0  0  0  0  0  0  0  0999 V2000
    1.2253   -1.1307   -0.6184 O   0  5  0  0  0  0  0  0  0  0  0  0
   -6.3873   -0.3701   -2.1801 O   0  0  0  0  0  0  0  0  0  0  0  0
   -0.7550   -1.4802    1.5353 N   0  0  0  0  0  2  0  0  0  0  0  0
   -4.7888   -0.9214    0.1150 N   0  0  0  0  0  0  0  0  0  0  0  0
    1.3702   -2.4193   -0.4742 C   0  0  0  0  0  0  0  0  0  0  0  0
    2.3119   -3.0997   -1.3098 C   0  0  0  0  0  0  0  0  0  0  0  0
    2.8521   -2.4905   -2.0490 H   0  0  0  0  0  0  0  0  0  0  0  0
    2.5359   -4.4669   -1.2044 C   0  0  0  0  0  0  0  0  0  0  0  0
    3.2723   -4.9452   -1.8694 H   0  0  0  0  0  0  0  0  0  0  0  0
    1.8310   -5.2518   -0.2593 C   0  0  0  0  0  0  0  0  0  0  0  0
    2.0124   -6.3332   -0.1825 H   0  0  0  0  0  0  0  0  0  0  0  0
    0.9046   -4.6281    0.5641 C   0  0  0  0  0  0  0  0  0  0  0  0
    0.3402   -5.2190    1.3043 H   0  0  0  0  0  0  0  0  0  0  0  0
    0.6457   -3.2270    0.4918 C   0  0  0  0  0  0  0  0  0  0  0  0
   -0.3445   -2.7139    1.4017 C   0  0  0  0  0  3  0  0  0  0  0  0
   -0.8100   -3.4775    2.0659 H   0  0  0  0  0  0  0  0  0  0  0  0
   -1.7982   -1.1604    2.5038 C   0  0  0  0  0  0  0  0  0  0  0  0
   -1.3862   -0.4163    3.2210 H   0  0  0  0  0  0  0  0  0  0  0  0
   -2.0707   -2.0682    3.0923 H   0  0  0  0  0  0  0  0  0  0  0  0
   -3.0295   -0.5597    1.8166 C   0  0  0  0  0  0  0  0  0  0  0  0
   -3.6879   -0.0877    2.5743 H   0  0  0  0  0  0  0  0  0  0  0  0
   -2.6867    0.2574    1.1480 H   0  0  0  0  0  0  0  0  0  0  0  0
   -3.8391   -1.5754    1.0013 C   0  0  0  0  0  0  0  0  0  0  0  0
   -3.1451   -2.2506    0.4324 H   0  0  0  0  0  0  0  0  0  0  0  0
   -4.4023   -2.2338    1.6974 H   0  0  0  0  0  0  0  0  0  0  0  0
   -6.0026   -1.6783   -0.1546 C   0  0  0  0  0  0  0  0  0  0  0  0
   -6.4822   -1.9644    0.8061 H   0  0  0  0  0  0  0  0  0  0  0  0
   -5.7956   -2.6254   -0.7252 H   0  0  0  0  0  0  0  0  0  0  0  0
   -6.9694   -0.8146   -0.9674 C   0  0  0  0  0  0  0  0  0  0  0  0
   -7.8762   -1.3928   -1.2379 H   0  0  0  0  0  0  0  0  0  0  0  0
   -7.2778    0.0590   -0.3394 H   0  0  0  0  0  0  0  0  0  0  0  0
   -5.1925    0.3559   -1.9275 C   0  0  0  0  0  0  0  0  0  0  0  0
   -5.4173    1.2911   -1.3558 H   0  0  0  0  0  0  0  0  0  0  0  0
   -4.7750    0.6388   -2.9150 H   0  0  0  0  0  0  0  0  0  0  0  0
   -4.1860   -0.4750   -1.1388 C   0  0  0  0  0  0  0  0  0  0  0  0
   -3.8699   -1.3530   -1.7667 H   0  0  0  0  0  0  0  0  0  0  0  0
   -3.2732    0.1237   -0.9398 H   0  0  0  0  0  0  0  0  0  0  0  0
  1  5  1  0  0  0  0
  2 32  1  0  0  0  0
  2 29  1  0  0  0  0
  3 17  1  0  0  0  0
  4 23  1  0  0  0  0
  5 14  1  0  0  0  0
  6  8  1  0  0  0  0
  6  5  2  0  0  0  0
  7  6  1  0  0  0  0
  8 10  2  0  0  0  0
  9  8  1  0  0  0  0
 10 11  1  0  0  0  0
 10 12  1  0  0  0  0
 12 13  1  0  0  0  0
 14 12  2  0  0  0  0
 14 15  1  0  0  0  0
 15  3  1  0  0  0  0
 15 16  1  0  0  0  0
 17 19  1  0  0  0  0
 17 18  1  0  0  0  0
 20 17  1  0  0  0  0
 20 21  1  0  0  0  0
 22 20  1  0  0  0  0
 23 25  1  0  0  0  0
 23 20  1  0  0  0  0
 24 23  1  0  0  0  0
 26  4  1  0  0  0  0
 26 27  1  0  0  0  0
 28 26  1  0  0  0  0
 29 31  1  0  0  0  0
 29 26  1  0  0  0  0
 30 29  1  0  0  0  0
 32 33  1  0  0  0  0
 32 35  1  0  0  0  0
 34 32  1  0  0  0  0
 35 37  1  0  0  0  0
 35  4  1  0  0  0  0
 36 35  1  0  0  0  0
M  CHG  1   1  -1
M  END
