3,4
q = 0.0, confidence = 0.974

 33 33  0  0  0  0  0  0  0  0999 V2000
    3.4652    2.8653    0.1505 Cl  0  0  0  0  0  0  0  0  0  0  0  0
    5.9329   -1.9744    0.0892 Cl  0  0  0  0  0  0  0  0  0  0  0  0
    1.0244    1.3225   -0.0568 O   0  5  0  0  0  0  0  0  0  0  0  0
   -0.4216   -1.2385   -0.3278 N   0  0  0  0  0  2  0  0  0  0  0  0
   -3.6858   -0.9999   -0.4592 N   0  3  0  0  0  0  0  0  0  0  0  0
   -4.1208   -1.4813   -1.2658 H   0  0  0  0  0  0  0  0  0  0  0  0
   -3.1244   -0.1827   -0.9230 H   0  0  0  0  0  0  0  0  0  0  0  0
    2.0184   -0.9048   -0.1191 C   0  0  0  0  0  0  0  0  0  0  0  0
    2.0502    0.5474   -0.0380 C   0  0  0  0  0  0  0  0  0  0  0  0
    3.3709    1.1332    0.0654 C   0  0  0  0  0  0  0  0  0  0  0  0
    4.5337    0.3757    0.1061 C   0  0  0  0  0  0  0  0  0  0  0  0
    5.5082    0.8748    0.1927 H   0  0  0  0  0  0  0  0  0  0  0  0
    4.4582   -1.0366    0.0365 C   0  0  0  0  0  0  0  0  0  0  0  0
    3.2278   -1.6619   -0.0767 C   0  0  0  0  0  0  0  0  0  0  0  0
    3.1779   -2.7591   -0.1393 H   0  0  0  0  0  0  0  0  0  0  0  0
    0.8111   -1.6707   -0.2777 C   0  0  0  0  0  3  0  0  0  0  0  0
    0.9751   -2.7688   -0.3796 H   0  0  0  0  0  0  0  0  0  0  0  0
   -1.4763   -2.2039   -0.5850 C   0  0  0  0  0  0  0  0  0  0  0  0
   -1.1255   -3.2383   -0.3656 H   0  0  0  0  0  0  0  0  0  0  0  0
   -1.7296   -2.1851   -1.6719 H   0  0  0  0  0  0  0  0  0  0  0  0
   -2.7450   -1.9358    0.2364 C   0  0  0  0  0  0  0  0  0  0  0  0
   -3.2874   -2.8797    0.4332 H   0  0  0  0  0  0  0  0  0  0  0  0
   -2.4758   -1.4491    1.1978 H   0  0  0  0  0  0  0  0  0  0  0  0
   -4.7726   -0.3734    0.3888 C   0  0  0  0  0  0  0  0  0  0  0  0
   -4.1989    0.1664    1.1747 H   0  0  0  0  0  0  0  0  0  0  0  0
   -5.5168    0.6376   -0.4768 C   0  0  0  0  0  0  0  0  0  0  0  0
   -4.8109    1.3751   -0.9076 H   0  0  0  0  0  0  0  0  0  0  0  0
   -6.2541    1.1816    0.1438 H   0  0  0  0  0  0  0  0  0  0  0  0
   -6.0713    0.1440   -1.3041 H   0  0  0  0  0  0  0  0  0  0  0  0
   -5.6731   -1.4386    1.0013 C   0  0  0  0  0  0  0  0  0  0  0  0
   -6.1810   -2.0473    0.2220 H   0  0  0  0  0  0  0  0  0  0  0  0
   -6.4631   -0.9437    1.5984 H   0  0  0  0  0  0  0  0  0  0  0  0
   -5.1271   -2.1175    1.6849 H   0  0  0  0  0  0  0  0  0  0  0  0
  3  9  1  0  0  0  0
  4 16  1  0  0  0  0
  5 21  1  0  0  0  0
  5 24  1  0  0  0  0
  6  5  1  0  0  0  0
  7  5  1  0  0  0  0
  8 14  2  0  0  0  0
  8  9  1  0  0  0  0
  9 10  2  0  0  0  0
 10 11  1  0  0  0  0
 10  1  1  0  0  0  0
 11 12  1  0  0  0  0
 13  2  1  0  0  0  0
 13 11  2  0  0  0  0
 14 13  1  0  0  0  0
 15 14  1  0  0  0  0
 16  8  1  0  0  0  0
 17 16  1  0  0  0  0
 18 19  1  0  0  0  0
 18  4  1  0  0  0  0
 18 21  1  0  0  0  0
 20 18  1  0  0  0  0
 21 22  1  0  0  0  0
 21 23  1  0  0  0  0
 24 30  1  0  0  0  0
 24 25  1  0  0  0  0
 26 28  1  0  0  0  0
 26 24  1  0  0  0  0
 27 26  1  0  0  0  0
 29 26  1  0  0  0  0
 30 32  1  0  0  0  0
 30 33  1  0  0  0  0
 31 30  1  0  0  0  0
M  CHG  2   3  -1   5   1
M  END
