1,2
q = -1.0, confidence = 0.0

 37 40  0  0  1  0  0  0  0  0999 V2000
   -0.2635    1.1786   -0.3983 O   0  5  0  0  0  0  0  0  0  0  0  0
   -0.4100   -1.3936    0.3553 N   0  0  0  0  0  2  0  0  0  0  0  0
   -0.4204   -2.6931    0.6692 C   0  0  0  0  0  0  0  0  0  0  0  0
    0.5628   -3.1673    0.8139 H   0  0  0  0  0  0  0  0  0  0  0  0
   -1.6285   -3.4153    0.7930 C   0  0  0  0  0  0  0  0  0  0  0  0
   -1.5950   -4.4901    1.0214 H   0  0  0  0  0  0  0  0  0  0  0  0
   -2.8375   -2.7558    0.6158 C   0  0  0  0  0  0  0  0  0  0  0  0
   -3.7864   -3.3052    0.6927 H   0  0  0  0  0  0  0  0  0  0  0  0
   -2.8619   -1.3628    0.3164 C   0  0  0  0  0  0  0  0  0  0  0  0
   -4.0508   -0.5902    0.1057 C   0  0  1  0  0  3  0  0  0  0  0  0
   -3.8982    0.7489   -0.2716 C   0  0  0  0  0  0  0  0  0  0  0  0
   -4.8189    1.3251   -0.4463 H   0  0  0  0  0  0  0  0  0  0  0  0
   -2.6615    1.4235   -0.4394 C   0  0  0  0  0  0  0  0  0  0  0  0
   -1.4558    0.6772   -0.2411 C   0  0  0  0  0  0  0  0  0  0  0  0
   -1.5876   -0.7145    0.1563 C   0  0  0  0  0  0  0  0  0  0  0  0
   -5.4119   -1.1628    0.2574 C   0  0  0  0  0  0  0  0  0  0  0  0
   -5.7964   -1.8668    1.4237 C   0  0  0  0  0  0  0  0  0  0  0  0
   -5.0709   -1.9869    2.2426 H   0  0  0  0  0  0  0  0  0  0  0  0
   -7.0953   -2.3750    1.5664 C   0  0  0  0  0  0  0  0  0  0  0  0
   -7.3717   -2.9125    2.4868 H   0  0  0  0  0  0  0  0  0  0  0  0
   -8.0463   -2.1849    0.5511 C   0  0  0  0  0  0  0  0  0  0  0  0
   -9.0662   -2.5827    0.6641 H   0  0  0  0  0  0  0  0  0  0  0  0
   -7.6853   -1.4782   -0.6072 C   0  0  0  0  0  0  0  0  0  0  0  0
   -8.4218   -1.3238   -1.4108 H   0  0  0  0  0  0  0  0  0  0  0  0
   -6.3845   -0.9763   -0.7526 C   0  0  0  0  0  0  0  0  0  0  0  0
   -6.1007   -0.4415   -1.6720 H   0  0  0  0  0  0  0  0  0  0  0  0
   -2.6496    2.8672   -0.7788 C   0  0  0  0  0  0  0  0  0  0  0  0
   -3.7407    3.6979   -0.4165 C   0  0  0  0  0  0  0  0  0  0  0  0
   -4.5757    3.2766    0.1626 H   0  0  0  0  0  0  0  0  0  0  0  0
   -3.7676    5.0577   -0.7485 C   0  0  0  0  0  0  0  0  0  0  0  0
   -4.6276    5.6740   -0.4438 H   0  0  0  0  0  0  0  0  0  0  0  0
   -2.6995    5.6362   -1.4530 C   0  0  0  0  0  0  0  0  0  0  0  0
   -2.7173    6.7058   -1.7126 H   0  0  0  0  0  0  0  0  0  0  0  0
   -1.6042    4.8346   -1.8090 C   0  0  0  0  0  0  0  0  0  0  0  0
   -0.7540    5.2742   -2.3535 H   0  0  0  0  0  0  0  0  0  0  0  0
   -1.5723    3.4743   -1.4735 C   0  0  0  0  0  0  0  0  0  0  0  0
   -0.6996    2.8657   -1.7366 H   0  0  0  0  0  0  0  0  0  0  0  0
  1 14  1  0  0  0  0
  2  3  1  0  0  0  0
  3  5  2  0  0  0  0
  3  4  1  0  0  0  0
  5  6  1  0  0  0  0
  7  8  1  0  0  0  0
  7  5  1  0  0  0  0
  9  7  2  0  0  0  0
 10 16  1  6  0  0  0
 10  9  1  0  0  0  0
 11 10  1  0  0  0  0
 12 11  1  0  0  0  0
 13 11  2  0  0  0  0
 13 14  1  0  0  0  0
 14 15  2  0  0  0  0
 15  9  1  0  0  0  0
 15  2  1  0  0  0  0
 16 17  1  0  0  0  0
 17 19  2  0  0  0  0
 17 18  1  0  0  0  0
 19 20  1  0  0  0  0
 21 22  1  0  0  0  0
 21 19  1  0  0  0  0
 23 21  2  0  0  0  0
 24 23  1  0  0  0  0
 25 23  1  0  0  0  0
 25 16  2  0  0  0  0
 26 25  1  0  0  0  0
 27 13  1  0  0  0  0
 27 28  1  0  0  0  0
 28 29  1  0  0  0  0
 30 31  1  0  0  0  0
 30 28  2  0  0  0  0
 32 30  1  0  0  0  0
 33 32  1  0  0  0  0
 34 36  1  0  0  0  0
 34 32  2  0  0  0  0
 35 34  1  0  0  0  0
 36 27  2  0  0  0  0
 37 36  1  0  0  0  0
M  CHG  1   1  -1
M  END
