1,2
q = 0.0, confidence = 0.998

 36 36  0  0  0  0  0  0  0  0999 V2000
    2.2143    1.3047    0.3074 O   0  5  0  0  0  0  0  0  0  0  0  0
    0.4841   -0.4128   -1.3731 N   0  0  0  0  0  2  0  0  0  0  0  0
   -2.2956   -1.1617   -0.4253 N   0  3  0  0  0  0  0  0  0  0  0  0
    2.8520   -0.7924   -0.7649 C   0  0  0  0  0  0  0  0  0  0  0  0
    3.0988    0.4007    0.0385 C   0  0  0  0  0  0  0  0  0  0  0  0
    4.4337    0.5732    0.5376 C   0  0  0  0  0  0  0  0  0  0  0  0
    4.6182    1.4807    1.1308 H   0  0  0  0  0  0  0  0  0  0  0  0
    5.4322   -0.3607    0.3081 C   0  0  0  0  0  0  0  0  0  0  0  0
    6.4370   -0.1905    0.7269 H   0  0  0  0  0  0  0  0  0  0  0  0
    5.1822   -1.5316   -0.4557 C   0  0  0  0  0  0  0  0  0  0  0  0
    5.9817   -2.2649   -0.6330 H   0  0  0  0  0  0  0  0  0  0  0  0
    3.9152   -1.7233   -0.9812 C   0  0  0  0  0  0  0  0  0  0  0  0
    3.7024   -2.6154   -1.5939 H   0  0  0  0  0  0  0  0  0  0  0  0
    1.6183   -1.0718   -1.4360 C   0  0  0  0  0  3  0  0  0  0  0  0
    1.6546   -1.9574   -2.1136 H   0  0  0  0  0  0  0  0  0  0  0  0
   -0.5762   -0.8165   -2.2797 C   0  0  0  0  0  0  0  0  0  0  0  0
   -0.4609   -1.8850   -2.5822 H   0  0  0  0  0  0  0  0  0  0  0  0
   -0.5068   -0.2278   -3.2239 H   0  0  0  0  0  0  0  0  0  0  0  0
   -1.9717   -0.5188   -1.7425 C   0  0  0  0  0  0  0  0  0  0  0  0
   -2.0636    0.5766   -1.5780 H   0  0  0  0  0  0  0  0  0  0  0  0
   -2.7344   -0.8408   -2.4789 H   0  0  0  0  0  0  0  0  0  0  0  0
   -2.3639   -2.6584   -0.5143 C   0  0  0  0  0  0  0  0  0  0  0  0
   -3.1234   -2.9131   -1.2820 H   0  0  0  0  0  0  0  0  0  0  0  0
   -1.3788   -2.9797   -0.9042 H   0  0  0  0  0  0  0  0  0  0  0  0
   -2.6422   -3.3390    0.8171 C   0  0  0  0  0  0  0  0  0  0  0  0
   -1.9214   -3.0010    1.5881 H   0  0  0  0  0  0  0  0  0  0  0  0
   -2.5272   -4.4329    0.6906 H   0  0  0  0  0  0  0  0  0  0  0  0
   -3.6701   -3.1522    1.1837 H   0  0  0  0  0  0  0  0  0  0  0  0
   -3.4814   -0.4994    0.2326 C   0  0  0  0  0  0  0  0  0  0  0  0
   -3.2154    0.5781    0.2686 H   0  0  0  0  0  0  0  0  0  0  0  0
   -3.4851   -0.8544    1.2804 H   0  0  0  0  0  0  0  0  0  0  0  0
   -4.8095   -0.7408   -0.4627 C   0  0  0  0  0  0  0  0  0  0  0  0
   -4.8206   -0.3569   -1.5019 H   0  0  0  0  0  0  0  0  0  0  0  0
   -5.5993   -0.1961    0.0901 H   0  0  0  0  0  0  0  0  0  0  0  0
   -5.0995   -1.8108   -0.4784 H   0  0  0  0  0  0  0  0  0  0  0  0
   -1.4953   -0.9427    0.2809 H   0  0  0  0  0  0  0  0  0  0  0  0
  3 29  1  0  0  0  0
  3 36  1  0  0  0  0
  4  5  1  0  0  0  0
  5  1  1  0  0  0  0
  5  6  2  0  0  0  0
  6  7  1  0  0  0  0
  8  6  1  0  0  0  0
  8  9  1  0  0  0  0
 10  8  2  0  0  0  0
 11 10  1  0  0  0  0
 12  4  2  0  0  0  0
 12 10  1  0  0  0  0
 13 12  1  0  0  0  0
 14  2  1  0  0  0  0
 14  4  1  0  0  0  0
 15 14  1  0  0  0  0
 16 19  1  0  0  0  0
 16  2  1  0  0  0  0
 17 16  1  0  0  0  0
 18 16  1  0  0  0  0
 19 20  1  0  0  0  0
 19  3  1  0  0  0  0
 21 19  1  0  0  0  0
 22  3  1  0  0  0  0
 22 25  1  0  0  0  0
 23 22  1  0  0  0  0
 24 22  1  0  0  0  0
 25 28  1  0  0  0  0
 25 26  1  0  0  0  0
 27 25  1  0  0  0  0
 29 30  1  0  0  0  0
 29 31  1  0  0  0  0
 32 34  1  0  0  0  0
 32 29  1  0  0  0  0
 33 32  1  0  0  0  0
 35 32  1  0  0  0  0
M  CHG  2   1  -1   3   1
M  END
