1,2
q = -1.0, confidence = 0.128

 40 42  0  0  1  0  0  0  0  0999 V2000
    1.2706    0.8085   -1.0671 O   0  5  0  0  0  0  0  0  0  0  0  0
    0.0488   -1.6614   -1.2571 N   0  0  0  0  0  2  0  0  0  0  0  0
   -0.8367   -3.7850   -2.0197 C   0  0  0  0  0  0  0  0  0  0  0  0
   -1.7082   -4.4484   -2.0948 H   0  0  0  0  0  0  0  0  0  0  0  0
    1.4707   -3.2708   -2.3948 C   0  0  0  0  0  0  0  0  0  0  0  0
    2.4663   -3.5104   -2.7935 H   0  0  0  0  0  0  0  0  0  0  0  0
   -1.0086   -2.5187   -1.4487 C   0  0  1  0  0  3  0  0  0  0  0  0
   -2.3868   -2.1135   -1.0109 C   0  0  0  0  0  0  0  0  0  0  0  0
   -3.1131   -2.4520   -1.7829 H   0  0  0  0  0  0  0  0  0  0  0  0
   -2.4684   -1.0149   -0.9736 H   0  0  0  0  0  0  0  0  0  0  0  0
    0.4284   -4.1840   -2.4723 C   0  0  0  0  0  0  0  0  0  0  0  0
    0.5844   -5.1831   -2.9053 H   0  0  0  0  0  0  0  0  0  0  0  0
    1.2821   -1.9910   -1.8092 C   0  0  0  0  0  0  0  0  0  0  0  0
    2.3763    0.2640   -1.5453 C   0  0  0  0  0  0  0  0  0  0  0  0
    3.5478    1.1617   -1.6655 C   0  0  0  0  0  0  0  0  0  0  0  0
   -3.9742   -2.1025    1.0423 C   0  0  0  0  0  0  0  0  0  0  0  0
    2.3973   -1.0803   -1.8629 C   0  0  0  0  0  0  0  0  0  0  0  0
    3.3166   -1.5003   -2.2884 H   0  0  0  0  0  0  0  0  0  0  0  0
   -5.6786   -0.3774    1.3114 C   0  0  0  0  0  0  0  0  0  0  0  0
   -6.1822    0.5235    0.9293 H   0  0  0  0  0  0  0  0  0  0  0  0
   -4.6342   -0.9481    0.5706 C   0  0  0  0  0  0  0  0  0  0  0  0
   -4.3408   -0.4776   -0.3778 H   0  0  0  0  0  0  0  0  0  0  0  0
   -4.3797   -2.6751    2.2670 C   0  0  0  0  0  0  0  0  0  0  0  0
   -3.8479   -3.5743    2.6116 H   0  0  0  0  0  0  0  0  0  0  0  0
    4.8625    0.6705   -1.8347 C   0  0  0  0  0  0  0  0  0  0  0  0
    5.0452   -0.4125   -1.8822 H   0  0  0  0  0  0  0  0  0  0  0  0
   -5.4170   -2.1014    3.0089 C   0  0  0  0  0  0  0  0  0  0  0  0
   -5.7212   -2.5494    3.9672 H   0  0  0  0  0  0  0  0  0  0  0  0
   -2.3621   -3.8201    0.6903 O   0  0  0  0  0  0  0  0  0  0  0  0
   -2.8525   -2.7683    0.3015 C   0  0  0  0  0  0  0  0  0  0  0  0
   -6.0696   -0.9502    2.5319 C   0  0  0  0  0  0  0  0  0  0  0  0
   -6.8857   -0.4979    3.1163 H   0  0  0  0  0  0  0  0  0  0  0  0
    4.4432    3.4353   -1.6087 C   0  0  0  0  0  0  0  0  0  0  0  0
    4.2757    4.5194   -1.5162 H   0  0  0  0  0  0  0  0  0  0  0  0
    3.3553    2.5567   -1.5432 C   0  0  0  0  0  0  0  0  0  0  0  0
    2.3335    2.9307   -1.3871 H   0  0  0  0  0  0  0  0  0  0  0  0
    5.7451    2.9374   -1.7846 C   0  0  0  0  0  0  0  0  0  0  0  0
    6.6015    3.6274   -1.8289 H   0  0  0  0  0  0  0  0  0  0  0  0
    5.9490    1.5512   -1.8928 C   0  0  0  0  0  0  0  0  0  0  0  0
    6.9672    1.1502   -2.0109 H   0  0  0  0  0  0  0  0  0  0  0  0
  3  7  1  0  0  0  0
  4  3  1  0  0  0  0
  5 13  2  0  0  0  0
  6  5  1  0  0  0  0
  7  2  1  0  0  0  0
  7  8  1  1  0  0  0
  8 10  1  0  0  0  0
  8 30  1  0  0  0  0
  9  8  1  0  0  0  0
 11  5  1  0  0  0  0
 11  3  2  0  0  0  0
 12 11  1  0  0  0  0
 13  2  1  0  0  0  0
 14  1  1  0  0  0  0
 15 14  1  0  0  0  0
 15 35  1  0  0  0  0
 16 23  1  0  0  0  0
 17 13  1  0  0  0  0
 17 14  2  0  0  0  0
 18 17  1  0  0  0  0
 19 31  2  0  0  0  0
 20 19  1  0  0  0  0
 21 16  2  0  0  0  0
 21 19  1  0  0  0  0
 22 21  1  0  0  0  0
 23 24  1  0  0  0  0
 23 27  2  0  0  0  0
 25 15  2  0  0  0  0
 26 25  1  0  0  0  0
 27 28  1  0  0  0  0
 30 29  2  0  0  0  0
 30 16  1  0  0  0  0
 31 27  1  0  0  0  0
 31 32  1  0  0  0  0
 33 35  2  0  0  0  0
 33 34  1  0  0  0  0
 35 36  1  0  0  0  0
 37 33  1  0  0  0  0
 38 37  1  0  0  0  0
 39 25  1  0  0  0  0
 39 37  2  0  0  0  0
 40 39  1  0  0  0  0
M  CHG  1   1  -1
M  END
