1,4
q = -1.0, confidence = 0.002

 20 20  0  0  0  0  0  0  0  0999 V2000
    0.6277    1.7726    0.0001 N   0  0  0  0  0  2  0  0  0  0  0  0
   -0.2969    2.7746    0.0001 O   0  0  0  0  0  0  0  0  0  0  0  0
   -1.1541    2.2356   -0.0006 H   0  0  0  0  0  0  0  0  0  0  0  0
    1.7098   -0.7355    0.0005 O   0  5  0  0  0  0  0  0  0  0  0  0
    6.3819   -1.1999    0.0000 O   0  0  0  0  0  0  0  0  0  0  0  0
    1.8767    2.1702    0.0001 C   0  0  0  0  0  0  0  0  0  0  0  0
    2.0373    3.2624    0.0001 H   0  0  0  0  0  0  0  0  0  0  0  0
    3.0177    1.2991    0.0001 C   0  0  0  0  0  0  0  0  0  0  0  0
    2.8895   -0.1337    0.0003 C   0  0  0  0  0  0  0  0  0  0  0  0
    4.0581   -0.9226    0.0002 C   0  0  0  0  0  0  0  0  0  0  0  0
    3.9762   -2.0180    0.0003 H   0  0  0  0  0  0  0  0  0  0  0  0
    5.3339   -0.3345    0.0000 C   0  0  0  0  0  0  0  0  0  0  0  0
    5.4709    1.0767   -0.0001 C   0  0  0  0  0  0  0  0  0  0  0  0
    6.4570    1.5568   -0.0002 H   0  0  0  0  0  0  0  0  0  0  0  0
    4.3181    1.8596   -0.0000 C   0  0  0  0  0  3  0  0  0  0  0  0
    4.4135    2.9568   -0.0002 H   0  0  0  0  0  0  0  0  0  0  0  0
    7.6964   -0.6748   -0.0002 C   0  0  0  0  0  0  0  0  0  0  0  0
    7.8978   -0.0580    0.9040 H   0  0  0  0  0  0  0  0  0  0  0  0
    8.3793   -1.5444   -0.0003 H   0  0  0  0  0  0  0  0  0  0  0  0
    7.8975   -0.0582   -0.9047 H   0  0  0  0  0  0  0  0  0  0  0  0
  1  6  1  0  0  0  0
  2  1  1  0  0  0  0
  3  2  1  0  0  0  0
  5 12  1  0  0  0  0
  7  6  1  0  0  0  0
  8  6  2  0  0  0  0
  8  9  1  0  0  0  0
  9  4  1  0  0  0  0
 10  9  2  0  0  0  0
 10 11  1  0  0  0  0
 12 10  1  0  0  0  0
 13 15  1  0  0  0  0
 13 12  2  0  0  0  0
 14 13  1  0  0  0  0
 15  8  1  0  0  0  0
 16 15  1  0  0  0  0
 17  5  1  0  0  0  0
 17 18  1  0  0  0  0
 19 17  1  0  0  0  0
 20 17  1  0  0  0  0
M  CHG  1   4  -1
M  END
