4,5
q = 0.0, confidence = 0.97

 48 50  0  0  0  0  0  0  0  0999 V2000
   -2.0115    7.7056   -0.2109 Cl  0  0  0  0  0  0  0  0  0  0  0  0
    3.6291    1.4352    0.0747 O   0  0  0  0  0  0  0  0  0  0  0  0
    1.6251    2.3996    0.1069 O   0  0  0  0  0  0  0  0  0  0  0  0
   -0.2844   -1.3551   -0.1315 O   0  5  0  0  0  0  0  0  0  0  0  0
   -1.9393    0.7080    0.0379 N   0  0  0  0  0  2  0  0  0  0  0  0
   -0.5828    0.8937    0.0416 N   0  0  0  0  0  0  0  0  0  0  0  0
   -2.7532    1.7334    0.0156 C   0  0  0  0  0  3  0  0  0  0  0  0
   -3.8133    1.4207    0.1081 H   0  0  0  0  0  0  0  0  0  0  0  0
   -2.4734    3.1626   -0.0707 C   0  0  0  0  0  0  0  0  0  0  0  0
   -1.3182    3.7630   -0.6367 C   0  0  0  0  0  0  0  0  0  0  0  0
   -0.5191    3.1586   -1.0852 H   0  0  0  0  0  0  0  0  0  0  0  0
   -1.1779    5.1534   -0.6828 C   0  0  0  0  0  0  0  0  0  0  0  0
   -0.2802    5.6072   -1.1248 H   0  0  0  0  0  0  0  0  0  0  0  0
   -2.1939    5.9741   -0.1651 C   0  0  0  0  0  0  0  0  0  0  0  0
   -3.3619    5.4107    0.3789 C   0  0  0  0  0  0  0  0  0  0  0  0
   -4.1550    6.0651    0.7663 H   0  0  0  0  0  0  0  0  0  0  0  0
   -3.4968    4.0220    0.4116 C   0  0  0  0  0  0  0  0  0  0  0  0
   -4.4114    3.5733    0.8280 H   0  0  0  0  0  0  0  0  0  0  0  0
    0.2205   -0.1986   -0.0320 C   0  0  0  0  0  0  0  0  0  0  0  0
    1.6760   -0.0031   -0.0026 C   0  0  0  0  0  0  0  0  0  0  0  0
    2.5144   -1.1094   -0.0420 C   0  0  0  0  0  3  0  0  0  0  0  0
    2.0565   -2.1092   -0.0887 H   0  0  0  0  0  0  0  0  0  0  0  0
    3.9228   -0.9657   -0.0211 C   0  0  0  0  0  0  0  0  0  0  0  0
    4.8566   -2.0371   -0.0510 C   0  0  0  0  0  0  0  0  0  0  0  0
    4.4741   -3.0678   -0.1016 H   0  0  0  0  0  0  0  0  0  0  0  0
    6.2219   -1.8120   -0.0268 C   0  0  0  0  0  0  0  0  0  0  0  0
    6.8981   -2.6740   -0.0696 H   0  0  0  0  0  0  0  0  0  0  0  0
    6.7556   -0.4779    0.0326 C   0  0  0  0  0  0  0  0  0  0  0  0
    5.8290    0.6026    0.0633 C   0  0  0  0  0  0  0  0  0  0  0  0
    6.1483    1.6487    0.1282 H   0  0  0  0  0  0  0  0  0  0  0  0
    4.4599    0.3531    0.0357 C   0  0  0  0  0  0  0  0  0  0  0  0
    2.2439    1.3417    0.0624 C   0  0  0  0  0  0  0  0  0  0  0  0
    8.1098   -0.2544    0.0555 N   0  0  0  0  0  0  0  0  0  0  0  0
    9.0758   -1.3498    0.1206 C   0  0  0  0  0  0  0  0  0  0  0  0
    8.6705   -2.1577    0.7628 H   0  0  0  0  0  0  0  0  0  0  0  0
    9.9696   -0.9689    0.6569 H   0  0  0  0  0  0  0  0  0  0  0  0
    9.4788   -1.8953   -1.2514 C   0  0  0  0  0  0  0  0  0  0  0  0
    8.6043   -2.3066   -1.7935 H   0  0  0  0  0  0  0  0  0  0  0  0
   10.2308   -2.7027   -1.1446 H   0  0  0  0  0  0  0  0  0  0  0  0
    9.9221   -1.0990   -1.8828 H   0  0  0  0  0  0  0  0  0  0  0  0
    8.6638    1.0981    0.0213 C   0  0  0  0  0  0  0  0  0  0  0  0
    8.0398    1.7293   -0.6436 H   0  0  0  0  0  0  0  0  0  0  0  0
    9.6550    1.0365   -0.4738 H   0  0  0  0  0  0  0  0  0  0  0  0
    8.8050    1.7390    1.4040 C   0  0  0  0  0  0  0  0  0  0  0  0
    7.8224    1.8330    1.9074 H   0  0  0  0  0  0  0  0  0  0  0  0
    9.2472    2.7518    1.3199 H   0  0  0  0  0  0  0  0  0  0  0  0
    9.4635    1.1335    2.0592 H   0  0  0  0  0  0  0  0  0  0  0  0
   -0.1347    1.8191    0.1832 H   0  0  0  0  0  0  0  0  0  0  0  0
  1 14  1  0  0  0  0
  4 19  1  0  0  0  0
  5  6  1  0  0  0  0
  6 48  1  0  0  0  0
  7  5  1  0  0  0  0
  7  8  1  0  0  0  0
  9  7  1  0  0  0  0
  9 17  1  0  0  0  0
 10  9  2  0  0  0  0
 11 10  1  0  0  0  0
 12 10  1  0  0  0  0
 12 14  2  0  0  0  0
 13 12  1  0  0  0  0
 14 15  1  0  0  0  0
 15 17  2  0  0  0  0
 15 16  1  0  0  0  0
 17 18  1  0  0  0  0
 19 20  2  0  0  0  0
 19  6  1  0  0  0  0
 20 32  1  0  0  0  0
 21 23  1  0  0  0  0
 21 20  1  0  0  0  0
 22 21  1  0  0  0  0
 23 31  1  0  0  0  0
 24 26  1  0  0  0  0
 24 23  2  0  0  0  0
 25 24  1  0  0  0  0
 26 28  2  0  0  0  0
 27 26  1  0  0  0  0
 28 33  1  0  0  0  0
 28 29  1  0  0  0  0
 29 30  1  0  0  0  0
 31 29  2  0  0  0  0
 31  2  1  0  0  0  0
 32  2  1  0  0  0  0
 32  3  2  0  0  0  0
 33 34  1  0  0  0  0
 34 36  1  0  0  0  0
 34 35  1  0  0  0  0
 37 39  1  0  0  0  0
 37 34  1  0  0  0  0
 38 37  1  0  0  0  0
 40 37  1  0  0  0  0
 41 33  1  0  0  0  0
 41 44  1  0  0  0  0
 42 41  1  0  0  0  0
 43 41  1  0  0  0  0
 44 45  1  0  0  0  0
 44 47  1  0  0  0  0
 46 44  1  0  0  0  0
M  CHG  1   4  -1
M  END
