1,4
q = 0.0, confidence = 0.976

 52 54  0  0  0  0  0  0  0  0999 V2000
   -1.9293    0.6519    0.0161 N   0  0  0  0  0  2  0  0  0  0  0  0
    3.6224    1.5350    0.0787 O   0  0  0  0  0  0  0  0  0  0  0  0
    1.5936    2.4466    0.1099 O   0  0  0  0  0  0  0  0  0  0  0  0
   -0.2114   -1.3629   -0.1270 O   0  5  0  0  0  0  0  0  0  0  0  0
   -2.2350    7.2710   -0.3361 O   0  0  0  0  0  0  0  0  0  0  0  0
   -0.5780    0.8780    0.0246 N   0  0  0  0  0  0  0  0  0  0  0  0
   -0.1609    1.8161    0.1699 H   0  0  0  0  0  0  0  0  0  0  0  0
    8.1470   -0.0356    0.0517 N   0  0  0  0  0  0  0  0  0  0  0  0
   -2.7741    1.6518   -0.0248 C   0  0  0  0  0  3  0  0  0  0  0  0
   -3.8229    1.3033    0.0624 H   0  0  0  0  0  0  0  0  0  0  0  0
   -2.5525    3.0870   -0.1260 C   0  0  0  0  0  0  0  0  0  0  0  0
   -3.6365    3.9048    0.2846 C   0  0  0  0  0  0  0  0  0  0  0  0
   -4.5500    3.4171    0.6579 H   0  0  0  0  0  0  0  0  0  0  0  0
   -3.5735    5.2996    0.2406 C   0  0  0  0  0  0  0  0  0  0  0  0
   -4.4357    5.8878    0.5810 H   0  0  0  0  0  0  0  0  0  0  0  0
   -2.4072    5.9285   -0.2478 C   0  0  0  0  0  0  0  0  0  0  0  0
   -1.3287    5.1324   -0.6962 C   0  0  0  0  0  0  0  0  0  0  0  0
   -0.4378    5.6372   -1.0959 H   0  0  0  0  0  0  0  0  0  0  0  0
   -1.3976    3.7433   -0.6379 C   0  0  0  0  0  0  0  0  0  0  0  0
   -0.5439    3.1785   -1.0343 H   0  0  0  0  0  0  0  0  0  0  0  0
   -3.2859    8.1184    0.0936 C   0  0  0  0  0  0  0  0  0  0  0  0
   -4.2139    7.9596   -0.4996 H   0  0  0  0  0  0  0  0  0  0  0  0
   -2.9336    9.1549   -0.0600 H   0  0  0  0  0  0  0  0  0  0  0  0
   -3.5209    7.9713    1.1713 H   0  0  0  0  0  0  0  0  0  0  0  0
    0.2569   -0.1897   -0.0354 C   0  0  0  0  0  0  0  0  0  0  0  0
    1.7069    0.0461   -0.0027 C   0  0  0  0  0  0  0  0  0  0  0  0
    2.2391    1.4052    0.0644 C   0  0  0  0  0  0  0  0  0  0  0  0
    4.4812    0.4752    0.0378 C   0  0  0  0  0  0  0  0  0  0  0  0
    5.8437    0.7605    0.0647 C   0  0  0  0  0  0  0  0  0  0  0  0
    6.1353    1.8146    0.1307 H   0  0  0  0  0  0  0  0  0  0  0  0
    6.7982   -0.2949    0.0308 C   0  0  0  0  0  0  0  0  0  0  0  0
    9.1412   -1.1050    0.1128 C   0  0  0  0  0  0  0  0  0  0  0  0
    8.7589   -1.9244    0.7546 H   0  0  0  0  0  0  0  0  0  0  0  0
   10.0263   -0.7021    0.6475 H   0  0  0  0  0  0  0  0  0  0  0  0
    9.5552   -1.6381   -1.2609 C   0  0  0  0  0  0  0  0  0  0  0  0
    8.6901   -2.0707   -1.8017 H   0  0  0  0  0  0  0  0  0  0  0  0
   10.3278   -2.4263   -1.1574 H   0  0  0  0  0  0  0  0  0  0  0  0
    9.9763   -0.8297   -1.8921 H   0  0  0  0  0  0  0  0  0  0  0  0
    8.6644    1.3309    0.0177 C   0  0  0  0  0  0  0  0  0  0  0  0
    8.0226    1.9459   -0.6455 H   0  0  0  0  0  0  0  0  0  0  0  0
    9.6562    1.2967   -0.4793 H   0  0  0  0  0  0  0  0  0  0  0  0
    8.7908    1.9747    1.4006 C   0  0  0  0  0  0  0  0  0  0  0  0
    7.8069    2.0415    1.9055 H   0  0  0  0  0  0  0  0  0  0  0  0
    9.2054    2.9992    1.3167 H   0  0  0  0  0  0  0  0  0  0  0  0
    9.4664    1.3865    2.0541 H   0  0  0  0  0  0  0  0  0  0  0  0
    6.2999   -1.6421   -0.0297 C   0  0  0  0  0  0  0  0  0  0  0  0
    6.9983   -2.4861   -0.0748 H   0  0  0  0  0  0  0  0  0  0  0  0
    4.9405   -1.9029   -0.0526 C   0  0  0  0  0  0  0  0  0  0  0  0
    4.5852   -2.9433   -0.1044 H   0  0  0  0  0  0  0  0  0  0  0  0
    3.9790   -0.8569   -0.0205 C   0  0  0  0  0  0  0  0  0  0  0  0
    2.5742   -1.0373   -0.0418 C   0  0  0  0  0  3  0  0  0  0  0  0
    2.1423   -2.0485   -0.0899 H   0  0  0  0  0  0  0  0  0  0  0  0
  1  6  1  0  0  0  0
  4 25  1  0  0  0  0
  5 16  1  0  0  0  0
  5 21  1  0  0  0  0
  6  7  1  0  0  0  0
  8 32  1  0  0  0  0
  9  1  1  0  0  0  0
  9 10  1  0  0  0  0
 11  9  1  0  0  0  0
 11 12  1  0  0  0  0
 12 13  1  0  0  0  0
 14 12  2  0  0  0  0
 14 15  1  0  0  0  0
 16 14  1  0  0  0  0
 17 19  1  0  0  0  0
 17 16  2  0  0  0  0
 18 17  1  0  0  0  0
 19 11  2  0  0  0  0
 20 19  1  0  0  0  0
 21 24  1  0  0  0  0
 22 21  1  0  0  0  0
 23 21  1  0  0  0  0
 25 26  2  0  0  0  0
 25  6  1  0  0  0  0
 26 27  1  0  0  0  0
 27  2  1  0  0  0  0
 27  3  2  0  0  0  0
 28 29  1  0  0  0  0
 28  2  1  0  0  0  0
 29 30  1  0  0  0  0
 31  8  1  0  0  0  0
 31 29  2  0  0  0  0
 32 34  1  0  0  0  0
 32 33  1  0  0  0  0
 35 37  1  0  0  0  0
 35 32  1  0  0  0  0
 36 35  1  0  0  0  0
 38 35  1  0  0  0  0
 39  8  1  0  0  0  0
 39 42  1  0  0  0  0
 40 39  1  0  0  0  0
 41 39  1  0  0  0  0
 42 43  1  0  0  0  0
 42 45  1  0  0  0  0
 44 42  1  0  0  0  0
 46 31  1  0  0  0  0
 47 46  1  0  0  0  0
 48 46  2  0  0  0  0
 48 50  1  0  0  0  0
 49 48  1  0  0  0  0
 50 28  2  0  0  0  0
 51 50  1  0  0  0  0
 51 26  1  0  0  0  0
 52 51  1  0  0  0  0
M  CHG  1   4  -1
M  END
