1,10
q = -1.0, confidence = 0.002

 21 20  0  0  1  0  0  0  0  0999 V2000
    1.0764   -1.7017   -0.8679 N   0  0  0  0  0  0  0  0  0  0  0  0
    0.9794   -2.2937   -0.0299 H   0  0  0  0  0  0  0  0  0  0  0  0
    0.6079   -2.2129   -1.6283 H   0  0  0  0  0  0  0  0  0  0  0  0
    2.5143   -1.5054   -1.1946 C   0  0  0  0  0  0  0  0  0  0  0  0
    2.5679   -1.1503   -2.2424 H   0  0  0  0  0  0  0  0  0  0  0  0
    3.0303   -2.4900   -1.1531 H   0  0  0  0  0  0  0  0  0  0  0  0
    3.2161   -0.4917   -0.2814 C   0  0  1  0  0  0  0  0  0  0  0  0
    4.3059   -0.5956   -0.4696 H   0  0  0  0  0  0  0  0  0  0  0  0
    2.8795    0.9719   -0.6844 C   0  0  0  0  0  0  0  0  0  0  0  0
    1.6199    1.2379   -0.9159 O   0  5  0  0  0  0  0  0  0  0  0  0
    3.3307   -2.1679    1.6552 C   0  0  0  0  0  0  0  0  0  0  0  0
    4.3975   -2.3906    1.4403 H   0  0  0  0  0  0  0  0  0  0  0  0
    2.7249   -2.9444    1.1411 H   0  0  0  0  0  0  0  0  0  0  0  0
    3.1739   -2.3081    2.7441 H   0  0  0  0  0  0  0  0  0  0  0  0
    2.9767   -0.7347    1.2326 C   0  0  0  0  0  0  0  0  0  0  0  0
    1.8876   -0.5698    1.4199 H   0  0  0  0  0  0  0  0  0  0  0  0
    3.7477    0.2788    2.0870 C   0  0  0  0  0  0  0  0  0  0  0  0
    3.5298    0.1300    3.1643 H   0  0  0  0  0  0  0  0  0  0  0  0
    3.4952    1.3213    1.8153 H   0  0  0  0  0  0  0  0  0  0  0  0
    4.8423    0.1646    1.9403 H   0  0  0  0  0  0  0  0  0  0  0  0
    3.7868    1.8006   -0.7571 O   0  0  0  0  0  0  0  0  0  0  0  0
  1  2  1  0  0  0  0
  3  1  1  0  0  0  0
  4  6  1  0  0  0  0
  4  1  1  0  0  0  0
  4  7  1  0  0  0  0
  5  4  1  0  0  0  0
  7  8  1  6  0  0  0
  7 15  1  0  0  0  0
  9  7  1  0  0  0  0
 10  9  1  0  0  0  0
 11 14  1  0  0  0  0
 12 11  1  0  0  0  0
 13 11  1  0  0  0  0
 15 16  1  0  0  0  0
 15 11  1  0  0  0  0
 15 17  1  0  0  0  0
 17 18  1  0  0  0  0
 19 17  1  0  0  0  0
 20 17  1  0  0  0  0
 21  9  2  0  0  0  0
M  CHG  1  10  -1
M  END
