13,28
q = -1.0, confidence = 0.0

 28 30  0  0  1  0  0  0  0  0999 V2000
   -1.4672    1.3769   -0.0860 C   0  0  1  0  0  3  0  0  0  0  0  0
   -1.4686    2.7652   -0.0684 N   0  0  0  0  0  0  0  0  0  0  0  0
   -0.2216    3.1996   -0.5006 C   0  0  0  0  0  0  0  0  0  0  0  0
    0.3050    4.4884   -0.6729 C   0  0  0  0  0  0  0  0  0  0  0  0
   -0.2940    5.3902   -0.4817 H   0  0  0  0  0  0  0  0  0  0  0  0
    2.3971    3.4168   -1.3768 C   0  0  0  0  0  0  0  0  0  0  0  0
    3.4325    3.5253   -1.7322 H   0  0  0  0  0  0  0  0  0  0  0  0
    1.6328    4.5771   -1.1140 C   0  0  0  0  0  0  0  0  0  0  0  0
    2.0845    5.5686   -1.2658 H   0  0  0  0  0  0  0  0  0  0  0  0
    1.8678    2.1316   -1.2028 C   0  0  0  0  0  0  0  0  0  0  0  0
    2.4632    1.2381   -1.4258 H   0  0  0  0  0  0  0  0  0  0  0  0
    0.5378    2.0252   -0.7556 C   0  0  0  0  0  0  0  0  0  0  0  0
   -0.2600    0.9186   -0.4858 N   0  0  0  0  0  2  0  0  0  0  0  0
   -2.4805    3.6531    0.4732 C   0  0  0  0  0  0  0  0  0  0  0  0
   -3.1180    3.1002    1.1858 H   0  0  0  0  0  0  0  0  0  0  0  0
   -3.1231    4.0834   -0.3225 H   0  0  0  0  0  0  0  0  0  0  0  0
   -1.9786    4.4826    1.0089 H   0  0  0  0  0  0  0  0  0  0  0  0
   -2.5948    0.5493    0.3121 C   0  0  0  0  0  0  0  0  0  0  0  0
   -3.9358    0.9517    0.0787 C   0  0  0  0  0  0  0  0  0  0  0  0
   -4.1323    1.8472   -0.5288 H   0  0  0  0  0  0  0  0  0  0  0  0
   -5.0120    0.2045    0.5562 C   0  0  0  0  0  0  0  0  0  0  0  0
   -6.0434    0.5202    0.3435 H   0  0  0  0  0  0  0  0  0  0  0  0
   -4.7576   -0.9675    1.3007 C   0  0  0  0  0  0  0  0  0  0  0  0
   -5.5997   -1.5597    1.6923 H   0  0  0  0  0  0  0  0  0  0  0  0
   -3.4527   -1.4046    1.5179 C   0  0  0  0  0  0  0  0  0  0  0  0
   -3.2414   -2.3341    2.0664 H   0  0  0  0  0  0  0  0  0  0  0  0
   -2.3325   -0.6945    0.9976 C   0  0  0  0  0  0  0  0  0  0  0  0
   -1.1215   -1.1711    1.1688 O   0  5  0  0  0  0  0  0  0  0  0  0
  1  2  1  0  0  0  0
  1 18  1  1  0  0  0
  2 14  1  0  0  0  0
  3  2  1  0  0  0  0
  4  3  1  0  0  0  0
  4  5  1  0  0  0  0
  6 10  2  0  0  0  0
  6  8  1  0  0  0  0
  7  6  1  0  0  0  0
  8  4  2  0  0  0  0
  9  8  1  0  0  0  0
 10 12  1  0  0  0  0
 11 10  1  0  0  0  0
 12  3  2  0  0  0  0
 12 13  1  0  0  0  0
 13  1  1  0  0  0  0
 14 17  1  0  0  0  0
 14 15  1  0  0  0  0
 16 14  1  0  0  0  0
 18 27  1  0  0  0  0
 19 18  2  0  0  0  0
 19 21  1  0  0  0  0
 20 19  1  0  0  0  0
 21 23  2  0  0  0  0
 22 21  1  0  0  0  0
 23 25  1  0  0  0  0
 23 24  1  0  0  0  0
 25 26  1  0  0  0  0
 27 28  1  0  0  0  0
 27 25  2  0  0  0  0
M  CHG  1  28  -1
M  END
