6,7
q = -1.0, confidence = 0.004

 25 26  0  0  0  0  0  0  0  0999 V2000
   -2.8615    1.4699   -2.4680 F   0  0  0  0  0  0  0  0  0  0  0  0
   -5.4084    0.7451   -1.9411 F   0  0  0  0  0  0  0  0  0  0  0  0
   -5.9371   -1.5221   -0.4993 F   0  0  0  0  0  0  0  0  0  0  0  0
   -3.8639   -3.0919    0.3798 F   0  0  0  0  0  0  0  0  0  0  0  0
   -1.3091   -2.3793   -0.1312 F   0  0  0  0  0  0  0  0  0  0  0  0
    1.6372    1.5056   -0.8429 O   0  5  0  0  0  0  0  0  0  0  0  0
   -0.6526    0.0629   -1.3697 N   0  0  0  0  0  2  0  0  0  0  0  0
    2.2710    0.6624   -1.6242 C   0  0  0  0  0  0  0  0  0  0  0  0
    3.6655    0.8113   -1.8325 C   0  0  0  0  0  0  0  0  0  0  0  0
    4.3652   -0.1120   -2.6106 C   0  0  0  0  0  0  0  0  0  0  0  0
    3.7038   -1.2037   -3.2153 C   0  0  0  0  0  0  0  0  0  0  0  0
    2.3290   -1.3461   -3.0436 C   0  0  0  0  0  0  0  0  0  0  0  0
    1.5860   -0.4278   -2.2567 C   0  0  0  0  0  0  0  0  0  0  0  0
    0.1715   -0.6502   -2.0926 C   0  0  0  0  0  3  0  0  0  0  0  0
   -1.9903   -0.3995   -1.2742 C   0  0  0  0  0  0  0  0  0  0  0  0
   -3.0731    0.3699   -1.7525 C   0  0  0  0  0  0  0  0  0  0  0  0
   -4.4014   -0.0085   -1.4934 C   0  0  0  0  0  0  0  0  0  0  0  0
   -4.6768   -1.1816   -0.7721 C   0  0  0  0  0  0  0  0  0  0  0  0
   -3.6174   -1.9828   -0.3229 C   0  0  0  0  0  0  0  0  0  0  0  0
   -2.2957   -1.5994   -0.5942 C   0  0  0  0  0  0  0  0  0  0  0  0
    4.1681    1.6593   -1.3465 H   0  0  0  0  0  0  0  0  0  0  0  0
    5.4512    0.0095   -2.7441 H   0  0  0  0  0  0  0  0  0  0  0  0
    4.2677   -1.9313   -3.8154 H   0  0  0  0  0  0  0  0  0  0  0  0
    1.7953   -2.1889   -3.5107 H   0  0  0  0  0  0  0  0  0  0  0  0
   -0.2334   -1.5246   -2.6438 H   0  0  0  0  0  0  0  0  0  0  0  0
  1 16  1  0  0  0  0
  2 17  1  0  0  0  0
  7 15  1  0  0  0  0
  8  6  1  0  0  0  0
  9  8  1  0  0  0  0
  9 21  1  0  0  0  0
 10  9  2  0  0  0  0
 11 12  2  0  0  0  0
 11 10  1  0  0  0  0
 12 13  1  0  0  0  0
 13 14  1  0  0  0  0
 13  8  2  0  0  0  0
 14  7  1  0  0  0  0
 15 20  1  0  0  0  0
 16 17  1  0  0  0  0
 16 15  2  0  0  0  0
 17 18  2  0  0  0  0
 18  3  1  0  0  0  0
 18 19  1  0  0  0  0
 19  4  1  0  0  0  0
 20 19  2  0  0  0  0
 20  5  1  0  0  0  0
 22 10  1  0  0  0  0
 23 11  1  0  0  0  0
 24 12  1  0  0  0  0
 25 14  1  0  0  0  0
M  CHG  1   6  -1
M  END
