2,4
q = 0.0, confidence = 0.996

 50 54  0  0  1  0  0  0  0  0999 V2000
   -6.2857   -0.3431   -0.0255 N   0  0  0  0  0  0  0  0  0  0  0  0
    2.3963    0.8908   -0.2654 N   0  0  0  0  0  2  0  0  0  0  0  0
   -1.6076   -0.6314   -0.9502 O   0  0  0  0  0  0  0  0  0  0  0  0
    0.5389   -0.9526   -1.4200 O   0  5  0  0  0  0  0  0  0  0  0  0
    4.2827   -0.2536    1.6632 S   0  0  0  0  0  0  0  0  0  0  0  0
   -0.2855   -0.2165   -0.8968 C   0  0  0  0  0  0  0  0  0  0  0  0
   -0.0321    1.0956   -0.2904 C   0  0  0  0  0  0  0  0  0  0  0  0
   -1.1076    1.8695    0.1368 C   0  0  0  0  0  0  0  0  0  0  0  0
   -0.9171    2.8737    0.5511 H   0  0  0  0  0  0  0  0  0  0  0  0
   -2.4350    1.3842    0.0991 C   0  0  0  0  0  0  0  0  0  0  0  0
   -3.5709    2.0866    0.5835 C   0  0  0  0  0  0  0  0  0  0  0  0
   -3.4283    3.0956    1.0019 H   0  0  0  0  0  0  0  0  0  0  0  0
   -4.8409    1.5338    0.5657 C   0  0  0  0  0  0  0  0  0  0  0  0
   -5.0298    0.2128    0.0134 C   0  0  0  0  0  0  0  0  0  0  0  0
   -3.9106   -0.5163   -0.4934 C   0  0  0  0  0  0  0  0  0  0  0  0
   -2.6497    0.0811   -0.4376 C   0  0  1  0  0  3  0  0  0  0  0  0
   -6.0385    2.2712    1.1133 C   0  0  0  0  0  0  0  0  0  0  0  0
   -6.1961    1.9962    2.1814 H   0  0  0  0  0  0  0  0  0  0  0  0
   -5.8528    3.3636    1.0971 H   0  0  0  0  0  0  0  0  0  0  0  0
   -7.2879    1.9046    0.3124 C   0  0  0  0  0  0  0  0  0  0  0  0
   -7.1708    2.2434   -0.7390 H   0  0  0  0  0  0  0  0  0  0  0  0
   -8.1918    2.4005    0.7185 H   0  0  0  0  0  0  0  0  0  0  0  0
   -7.4904    0.3953    0.3448 C   0  0  0  0  0  0  0  0  0  0  0  0
   -7.8271    0.0733    1.3598 H   0  0  0  0  0  0  0  0  0  0  0  0
   -8.2983    0.1005   -0.3598 H   0  0  0  0  0  0  0  0  0  0  0  0
   -6.5173   -1.7189   -0.4633 C   0  0  0  0  0  0  0  0  0  0  0  0
   -6.8917   -1.7145   -1.5155 H   0  0  0  0  0  0  0  0  0  0  0  0
   -7.3376   -2.1368    0.1596 H   0  0  0  0  0  0  0  0  0  0  0  0
   -5.2703   -2.5857   -0.3482 C   0  0  0  0  0  0  0  0  0  0  0  0
   -5.0270   -2.7451    0.7235 H   0  0  0  0  0  0  0  0  0  0  0  0
   -5.4781   -3.5814   -0.7871 H   0  0  0  0  0  0  0  0  0  0  0  0
   -4.0910   -1.9076   -1.0445 C   0  0  0  0  0  0  0  0  0  0  0  0
   -3.1548   -2.4833   -0.9141 H   0  0  0  0  0  0  0  0  0  0  0  0
   -4.2727   -1.8634   -2.1424 H   0  0  0  0  0  0  0  0  0  0  0  0
    1.3147    1.6145   -0.2014 C   0  0  0  0  0  3  0  0  0  0  0  0
    1.4036    2.7117   -0.0418 H   0  0  0  0  0  0  0  0  0  0  0  0
    3.6639    1.4826   -0.3514 C   0  0  0  0  0  0  0  0  0  0  0  0
    4.7266    0.9417    0.4237 C   0  0  0  0  0  0  0  0  0  0  0  0
    6.0284    1.4466    0.2625 C   0  0  0  0  0  0  0  0  0  0  0  0
    6.8493    1.0361    0.8681 H   0  0  0  0  0  0  0  0  0  0  0  0
    6.2831    2.4789   -0.6502 C   0  0  0  0  0  0  0  0  0  0  0  0
    7.3092    2.8562   -0.7731 H   0  0  0  0  0  0  0  0  0  0  0  0
    5.2308    3.0338   -1.3990 C   0  0  0  0  0  0  0  0  0  0  0  0
    5.4291    3.8406   -2.1201 H   0  0  0  0  0  0  0  0  0  0  0  0
    3.9302    2.5407   -1.2493 C   0  0  0  0  0  0  0  0  0  0  0  0
    3.1107    2.9242   -1.8752 H   0  0  0  0  0  0  0  0  0  0  0  0
    5.6077   -1.4921    1.5148 C   0  0  0  0  0  0  0  0  0  0  0  0
    5.5601   -1.9247    0.4944 H   0  0  0  0  0  0  0  0  0  0  0  0
    5.3563   -2.2718    2.2589 H   0  0  0  0  0  0  0  0  0  0  0  0
    6.5983   -1.0642    1.7596 H   0  0  0  0  0  0  0  0  0  0  0  0
  1 14  1  0  0  0  0
  1 23  1  0  0  0  0
  2 35  1  0  0  0  0
  3  6  1  0  0  0  0
  4  6  1  0  0  0  0
  6  7  2  0  0  0  0
  7 35  1  0  0  0  0
  7  8  1  0  0  0  0
  8  9  1  0  0  0  0
 10  8  2  0  0  0  0
 10 11  1  0  0  0  0
 11 12  1  0  0  0  0
 13 11  2  0  0  0  0
 13 17  1  0  0  0  0
 14 13  1  0  0  0  0
 15 16  1  0  0  0  0
 15 14  2  0  0  0  0
 16  3  1  6  0  0  0
 16 10  1  0  0  0  0
 17 18  1  0  0  0  0
 19 17  1  0  0  0  0
 20 23  1  0  0  0  0
 20 22  1  0  0  0  0
 20 17  1  0  0  0  0
 21 20  1  0  0  0  0
 23 24  1  0  0  0  0
 25 23  1  0  0  0  0
 26 29  1  0  0  0  0
 26  1  1  0  0  0  0
 26 28  1  0  0  0  0
 27 26  1  0  0  0  0
 29 30  1  0  0  0  0
 31 29  1  0  0  0  0
 32 33  1  0  0  0  0
 32 15  1  0  0  0  0
 32 29  1  0  0  0  0
 34 32  1  0  0  0  0
 35 36  1  0  0  0  0
 37  2  1  0  0  0  0
 37 38  1  0  0  0  0
 38  5  1  0  0  0  0
 39 38  2  0  0  0  0
 39 40  1  0  0  0  0
 41 39  1  0  0  0  0
 42 41  1  0  0  0  0
 43 45  1  0  0  0  0
 43 41  2  0  0  0  0
 44 43  1  0  0  0  0
 45 37  2  0  0  0  0
 46 45  1  0  0  0  0
 47  5  1  0  0  0  0
 47 50  1  0  0  0  0
 47 49  1  0  0  0  0
 48 47  1  0  0  0  0
M  CHG  1   4  -1
M  END
