1,2
q = -1.0, confidence = 0.012

 30 31  0  0  0  0  0  0  0  0999 V2000
    2.2160   -0.5005    1.0045 O   0  5  0  0  0  0  0  0  0  0  0  0
    0.8962    1.5698   -0.0288 N   0  0  0  0  0  2  0  0  0  0  0  0
    0.3731    2.5186   -0.7345 N   0  0  0  0  0  2  0  0  0  0  0  0
    2.8894    0.6253    0.8947 C   0  0  0  0  0  0  0  0  0  0  0  0
    4.2415    0.7550    1.3123 C   0  0  0  0  0  0  0  0  0  0  0  0
    4.8927    1.9734    1.1626 C   0  0  0  0  0  0  0  0  0  0  0  0
    4.2509    3.1222    0.6042 C   0  0  0  0  0  0  0  0  0  0  0  0
    5.0057    4.4196    0.4770 C   0  0  0  0  0  0  0  0  0  0  0  0
    2.9213    3.0040    0.2001 C   0  0  0  0  0  0  0  0  0  0  0  0
    2.2395    1.7714    0.3431 C   0  0  0  0  0  0  0  0  0  0  0  0
   -1.0102    2.5681   -0.8893 C   0  0  0  0  0  0  0  0  0  0  0  0
   -1.8970    2.4829    0.2119 C   0  0  0  0  0  0  0  0  0  0  0  0
   -3.2721    2.6233    0.0178 C   0  0  0  0  0  0  0  0  0  0  0  0
   -3.8197    2.8418   -1.2666 C   0  0  0  0  0  0  0  0  0  0  0  0
   -5.3092    2.9474   -1.4579 C   0  0  0  0  0  0  0  0  0  0  0  0
   -2.9233    2.9660   -2.3492 C   0  0  0  0  0  0  0  0  0  0  0  0
   -1.5405    2.8573   -2.1674 C   0  0  0  0  0  0  0  0  0  0  0  0
    4.7456   -0.1235    1.7397 H   0  0  0  0  0  0  0  0  0  0  0  0
    5.9414    2.0618    1.4887 H   0  0  0  0  0  0  0  0  0  0  0  0
    4.3777    5.2162    0.0355 H   0  0  0  0  0  0  0  0  0  0  0  0
    5.3642    4.7761    1.4653 H   0  0  0  0  0  0  0  0  0  0  0  0
    5.9054    4.3003   -0.1626 H   0  0  0  0  0  0  0  0  0  0  0  0
    2.3725    3.8561   -0.2243 H   0  0  0  0  0  0  0  0  0  0  0  0
   -1.4818    2.3415    1.2202 H   0  0  0  0  0  0  0  0  0  0  0  0
   -3.9461    2.5684    0.8877 H   0  0  0  0  0  0  0  0  0  0  0  0
   -5.5728    3.2265   -2.4957 H   0  0  0  0  0  0  0  0  0  0  0  0
   -5.8089    1.9807   -1.2306 H   0  0  0  0  0  0  0  0  0  0  0  0
   -5.7543    3.7023   -0.7778 H   0  0  0  0  0  0  0  0  0  0  0  0
   -3.3210    3.1660   -3.3564 H   0  0  0  0  0  0  0  0  0  0  0  0
   -0.8487    2.9806   -3.0135 H   0  0  0  0  0  0  0  0  0  0  0  0
  2 10  1  0  0  0  0
  3  2  1  0  0  0  0
  4  1  1  0  0  0  0
  4  5  1  0  0  0  0
  5 18  1  0  0  0  0
  6  5  2  0  0  0  0
  6 19  1  0  0  0  0
  7  6  1  0  0  0  0
  8  7  1  0  0  0  0
  8 21  1  0  0  0  0
  9 10  1  0  0  0  0
  9  7  2  0  0  0  0
 10  4  2  0  0  0  0
 11  3  1  0  0  0  0
 11 12  1  0  0  0  0
 12 24  1  0  0  0  0
 13 12  2  0  0  0  0
 13 25  1  0  0  0  0
 14 13  1  0  0  0  0
 15 14  1  0  0  0  0
 15 27  1  0  0  0  0
 15 28  1  0  0  0  0
 16 17  1  0  0  0  0
 16 14  2  0  0  0  0
 17 11  2  0  0  0  0
 20  8  1  0  0  0  0
 22  8  1  0  0  0  0
 23  9  1  0  0  0  0
 26 15  1  0  0  0  0
 29 16  1  0  0  0  0
 30 17  1  0  0  0  0
M  CHG  1   1  -1
M  END
