17,31
q = nan, confidence = 0.0

 31 31  0  0  1  0  0  0  0  0999 V2000
   -6.7193   -0.3782   -1.5736 C   0  0  0  0  0  0  0  0  0  0  0  0
   -7.1715   -1.1506   -2.2198 H   0  0  0  0  0  0  0  0  0  0  0  0
   -6.1379    0.3447   -2.1798 H   0  0  0  0  0  0  0  0  0  0  0  0
   -7.5053    0.1787   -1.0254 H   0  0  0  0  0  0  0  0  0  0  0  0
   -5.8606   -1.0788   -0.6594 O   0  0  0  0  0  0  0  0  0  0  0  0
   -5.1975   -0.3065    0.2239 C   0  0  0  0  0  0  0  0  0  0  0  0
   -5.2842    0.9084    0.2658 O   0  0  0  0  0  0  0  0  0  0  0  0
   -4.3600   -1.1549    1.1669 C   0  0  0  0  0  0  0  0  0  0  0  0
   -3.8869   -1.9824    0.6008 H   0  0  0  0  0  0  0  0  0  0  0  0
   -5.0598   -1.6364    1.8837 H   0  0  0  0  0  0  0  0  0  0  0  0
   -3.3278   -0.3358    1.9421 C   0  0  0  0  0  0  0  0  0  0  0  0
   -3.8098    0.5646    2.3694 H   0  0  0  0  0  0  0  0  0  0  0  0
   -2.9177   -0.9333    2.7783 H   0  0  0  0  0  0  0  0  0  0  0  0
   -2.2020    0.0997    1.1221 N   0  0  0  0  0  0  0  0  0  0  0  0
   -1.0030   -0.5380    1.0168 C   0  0  0  0  0  3  0  0  0  0  0  0
   -0.7354   -1.4254    1.6007 H   0  0  0  0  0  0  0  0  0  0  0  0
   -0.1997    0.1015    0.1660 N   0  0  0  0  0  2  0  0  0  0  0  0
   -0.9023    1.2071   -0.2940 C   0  0  0  0  0  0  0  0  0  0  0  0
   -2.1558    1.2107    0.2954 C   0  0  0  0  0  0  0  0  0  0  0  0
   -3.0108    1.8871    0.2067 H   0  0  0  0  0  0  0  0  0  0  0  0
   -0.3083    2.2346   -1.2133 C   0  0  0  0  0  0  0  0  0  0  0  0
   -0.8313    3.1940   -1.0388 H   0  0  0  0  0  0  0  0  0  0  0  0
   -0.4892    1.9651   -2.2801 H   0  0  0  0  0  0  0  0  0  0  0  0
    1.1959    2.4763   -1.0003 C   0  0  2  0  0  0  0  0  0  0  0  0
    1.4633    3.4416   -1.4791 H   0  0  0  0  0  0  0  0  0  0  0  0
    1.9837    1.3581   -1.5584 N   0  0  0  0  0  0  0  0  0  0  0  0
    2.9662    1.6402   -1.6679 H   0  0  0  0  0  0  0  0  0  0  0  0
    1.6494    1.0904   -2.4946 H   0  0  0  0  0  0  0  0  0  0  0  0
    1.1852    3.6348    1.1060 O   0  5  0  0  0  0  0  0  0  0  0  0
    1.4946    2.6014    0.5274 C   0  0  0  0  0  0  0  0  0  0  0  0
    2.0276    1.5319    1.0590 O   0  0  0  0  0  0  0  0  0  0  0  0
  1  4  1  0  0  0  0
  1  5  1  0  0  0  0
  2  1  1  0  0  0  0
  3  1  1  0  0  0  0
  5  6  1  0  0  0  0
  6  7  2  0  0  0  0
  6  8  1  0  0  0  0
  8 10  1  0  0  0  0
  8 11  1  0  0  0  0
  9  8  1  0  0  0  0
 11 12  1  0  0  0  0
 11 13  1  0  0  0  0
 14 11  1  0  0  0  0
 15 14  1  0  0  0  0
 15 16  1  0  0  0  0
 17 15  1  0  0  0  0
 18 17  1  0  0  0  0
 18 19  2  0  0  0  0
 19 14  1  0  0  0  0
 20 19  1  0  0  0  0
 21 22  1  0  0  0  0
 21 24  1  0  0  0  0
 21 18  1  0  0  0  0
 23 21  1  0  0  0  0
 24 25  1  6  0  0  0
 24 30  1  0  0  0  0
 26 24  1  0  0  0  0
 27 26  1  0  0  0  0
 28 26  1  0  0  0  0
 30 31  2  0  0  0  0
 30 29  1  0  0  0  0
M  CHG  1  29  -1
M  END
