1,2
q = -1.0, confidence = 0.016

 24 23  0  0  0  0  0  0  0  0999 V2000
    1.7334    0.5678    0.6452 N   0  0  0  0  0  0  0  0  0  0  0  0
   -0.0097    1.5634   -1.0318 O   0  5  0  0  0  0  0  0  0  0  0  0
    0.8647    3.6462   -1.0349 O   0  0  0  0  0  0  0  0  0  0  0  0
    0.7990    2.5085   -0.5904 C   0  0  0  0  0  0  0  0  0  0  0  0
    1.6293    2.0496    0.6184 C   0  0  0  0  0  0  0  0  0  0  0  0
    3.7370   -2.3076   -0.3890 O   0  0  0  0  0  0  0  0  0  0  0  0
    1.6150   -1.3234   -1.8624 O   0  0  0  0  0  0  0  0  0  0  0  0
    4.3958    1.0391    1.3457 O   0  0  0  0  0  0  0  0  0  0  0  0
    2.8613   -0.0802   -0.1155 C   0  0  0  0  0  0  0  0  0  0  0  0
    3.0688   -1.4590    0.5498 C   0  0  0  0  0  0  0  0  0  0  0  0
    2.5097   -0.2582   -1.6167 C   0  0  0  0  0  0  0  0  0  0  0  0
    4.1602    0.7331   -0.0194 C   0  0  0  0  0  0  0  0  0  0  0  0
    1.0529    2.3380    1.5206 H   0  0  0  0  0  0  0  0  0  0  0  0
    2.6088    2.5599    0.6715 H   0  0  0  0  0  0  0  0  0  0  0  0
    1.8147    0.2637    1.6261 H   0  0  0  0  0  0  0  0  0  0  0  0
    3.6789   -1.3070    1.4701 H   0  0  0  0  0  0  0  0  0  0  0  0
    2.0757   -1.8661    0.8399 H   0  0  0  0  0  0  0  0  0  0  0  0
    3.4669   -0.4048   -2.1683 H   0  0  0  0  0  0  0  0  0  0  0  0
    2.0379    0.6656   -2.0020 H   0  0  0  0  0  0  0  0  0  0  0  0
    4.9666    0.0976   -0.4544 H   0  0  0  0  0  0  0  0  0  0  0  0
    4.0796    1.6522   -0.6489 H   0  0  0  0  0  0  0  0  0  0  0  0
    3.8690   -3.1700    0.0434 H   0  0  0  0  0  0  0  0  0  0  0  0
    2.1187   -2.1236   -1.5944 H   0  0  0  0  0  0  0  0  0  0  0  0
    5.2366    1.5247    1.4075 H   0  0  0  0  0  0  0  0  0  0  0  0
  1 15  1  0  0  0  0
  2  4  1  0  0  0  0
  3  4  2  0  0  0  0
  4  5  1  0  0  0  0
  5  1  1  0  0  0  0
  5 14  1  0  0  0  0
  5 13  1  0  0  0  0
  6 22  1  0  0  0  0
  6 10  1  0  0  0  0
  7 11  1  0  0  0  0
  7 23  1  0  0  0  0
  8 24  1  0  0  0  0
  9 12  1  0  0  0  0
  9 10  1  0  0  0  0
  9  1  1  0  0  0  0
 10 17  1  0  0  0  0
 10 16  1  0  0  0  0
 11  9  1  0  0  0  0
 12  8  1  0  0  0  0
 18 11  1  0  0  0  0
 19 11  1  0  0  0  0
 20 12  1  0  0  0  0
 21 12  1  0  0  0  0
M  CHG  1   2  -1
M  END
