2,3
q = -2.0, confidence = 0.868

 17 18  0  0  0  0  0  0  0  0999 V2000
    0.5426    2.9306    0.0001 O   0  0  0  0  0  0  0  0  0  0  0  0
    0.7248   -1.7998   -0.0000 O   0  5  0  0  0  0  0  0  0  0  0  0
    1.2819    0.7321   -0.0000 N   0  0  0  0  0  0  0  0  0  0  0  0
    1.4906    2.1306    0.0000 C   0  0  0  0  0  0  0  0  0  0  0  0
    2.8884    2.5783    0.0000 C   0  0  0  0  0  0  0  0  0  0  0  0
    3.9487    1.7121    0.0000 C   0  0  0  0  0  0  0  0  0  0  0  0
    3.7232    0.2917   -0.0000 C   0  0  0  0  0  0  0  0  0  0  0  0
    4.7370   -0.6982   -0.0000 C   0  0  0  0  0  0  0  0  0  0  0  0
    4.3977   -2.0572   -0.0001 C   0  0  0  0  0  0  0  0  0  0  0  0
    3.0503   -2.4728   -0.0001 C   0  0  0  0  0  0  0  0  0  0  0  0
    2.0275   -1.5079   -0.0001 C   0  0  0  0  0  3  0  0  0  0  0  0
    2.3673   -0.1284   -0.0001 C   0  0  0  0  0  0  0  0  0  0  0  0
    3.0250    3.6690    0.0001 H   0  0  0  0  0  0  0  0  0  0  0  0
    4.9839    2.0909    0.0000 H   0  0  0  0  0  0  0  0  0  0  0  0
    5.7917   -0.3839   -0.0000 H   0  0  0  0  0  0  0  0  0  0  0  0
    5.1938   -2.8169   -0.0001 H   0  0  0  0  0  0  0  0  0  0  0  0
    2.7772   -3.5381   -0.0001 H   0  0  0  0  0  0  0  0  0  0  0  0
  3  4  1  0  0  0  0
  4  5  1  0  0  0  0
  4  1  2  0  0  0  0
  5 13  1  0  0  0  0
  6 14  1  0  0  0  0
  6  5  2  0  0  0  0
  7  6  1  0  0  0  0
  8  7  2  0  0  0  0
  8 15  1  0  0  0  0
  9 10  2  0  0  0  0
  9 16  1  0  0  0  0
  9  8  1  0  0  0  0
 10 17  1  0  0  0  0
 11 10  1  0  0  0  0
 11  2  1  0  0  0  0
 12 11  1  0  0  0  0
 12  3  2  0  0  0  0
 12  7  1  0  0  0  0
M  CHG  1   2  -1
M  END
