2,3
q = -1.0, confidence = 0.01

 37 38  0  0  1  0  0  0  0  0999 V2000
    6.6234   -2.7135    0.2001 Cl  0  0  0  0  0  0  0  0  0  0  0  0
    1.6586    0.3095   -0.7353 O   0  0  0  0  0  1  0  0  0  0  0  0
    0.2592   -1.8939   -0.0827 N   0  0  0  0  0  2  0  0  0  0  0  0
    2.7204   -0.4103   -0.5085 C   0  0  2  0  0  3  0  0  0  0  0  0
    3.9951    0.2263   -0.6271 C   0  0  0  0  0  0  0  0  0  0  0  0
    3.9954    1.2988   -0.8705 H   0  0  0  0  0  0  0  0  0  0  0  0
    5.1767   -0.4694   -0.4149 C   0  0  0  0  0  0  0  0  0  0  0  0
    6.1497    0.0373   -0.4891 H   0  0  0  0  0  0  0  0  0  0  0  0
    5.1309   -1.8453   -0.0869 C   0  0  0  0  0  0  0  0  0  0  0  0
    3.9113   -2.5059    0.0103 C   0  0  0  0  0  0  0  0  0  0  0  0
    3.9139   -3.5734    0.2650 H   0  0  0  0  0  0  0  0  0  0  0  0
    2.6845   -1.8145   -0.1917 C   0  0  0  0  0  0  0  0  0  0  0  0
    1.4190   -2.5299   -0.1672 C   0  0  0  0  0  0  0  0  0  0  0  0
    1.4648   -4.0369   -0.2703 C   0  0  0  0  0  0  0  0  0  0  0  0
    0.4657   -4.4614   -0.4681 H   0  0  0  0  0  0  0  0  0  0  0  0
    1.8411   -4.4800    0.6756 H   0  0  0  0  0  0  0  0  0  0  0  0
    2.1614   -4.3484   -1.0719 H   0  0  0  0  0  0  0  0  0  0  0  0
   -0.9597   -2.6492   -0.1081 C   0  0  0  0  0  0  0  0  0  0  0  0
   -1.6995   -2.7044   -1.3131 C   0  0  0  0  0  0  0  0  0  0  0  0
   -2.9082   -3.4191   -1.3206 C   0  0  0  0  0  0  0  0  0  0  0  0
   -3.4872   -3.4655   -2.2573 H   0  0  0  0  0  0  0  0  0  0  0  0
   -3.4031   -4.0612   -0.1690 C   0  0  0  0  0  0  0  0  0  0  0  0
   -2.6561   -3.9549    1.0183 C   0  0  0  0  0  0  0  0  0  0  0  0
   -3.0382   -4.4241    1.9396 H   0  0  0  0  0  0  0  0  0  0  0  0
   -1.4407   -3.2495    1.0772 C   0  0  0  0  0  0  0  0  0  0  0  0
   -1.2147   -1.9647   -2.5306 C   0  0  0  0  0  0  0  0  0  0  0  0
   -1.1906   -0.8707   -2.3293 H   0  0  0  0  0  0  0  0  0  0  0  0
   -1.8723   -2.1442   -3.4019 H   0  0  0  0  0  0  0  0  0  0  0  0
   -0.1781   -2.2471   -2.8071 H   0  0  0  0  0  0  0  0  0  0  0  0
   -4.6986   -4.8323   -0.2152 C   0  0  0  0  0  0  0  0  0  0  0  0
   -5.5055   -4.2408   -0.6948 H   0  0  0  0  0  0  0  0  0  0  0  0
   -5.0404   -5.1189    0.7982 H   0  0  0  0  0  0  0  0  0  0  0  0
   -4.5912   -5.7657   -0.8081 H   0  0  0  0  0  0  0  0  0  0  0  0
   -0.6963   -3.0794    2.3741 C   0  0  0  0  0  0  0  0  0  0  0  0
   -0.5361   -2.0005    2.5780 H   0  0  0  0  0  0  0  0  0  0  0  0
    0.3053   -3.5571    2.3551 H   0  0  0  0  0  0  0  0  0  0  0  0
   -1.2612   -3.5167    3.2190 H   0  0  0  0  0  0  0  0  0  0  0  0
  4  2  1  6  0  0  0
  4 12  1  0  0  0  0
  5  4  1  0  0  0  0
  5  7  2  0  0  0  0
  6  5  1  0  0  0  0
  7  9  1  0  0  0  0
  8  7  1  0  0  0  0
  9 10  2  0  0  0  0
  9  1  1  0  0  0  0
 10 11  1  0  0  0  0
 12 13  2  0  0  0  0
 12 10  1  0  0  0  0
 13  3  1  0  0  0  0
 14 13  1  0  0  0  0
 14 16  1  0  0  0  0
 15 14  1  0  0  0  0
 17 14  1  0  0  0  0
 18  3  1  0  0  0  0
 18 25  1  0  0  0  0
 19 18  2  0  0  0  0
 20 19  1  0  0  0  0
 20 22  2  0  0  0  0
 21 20  1  0  0  0  0
 22 23  1  0  0  0  0
 23 25  2  0  0  0  0
 23 24  1  0  0  0  0
 25 34  1  0  0  0  0
 26 27  1  0  0  0  0
 26 19  1  0  0  0  0
 28 26  1  0  0  0  0
 29 26  1  0  0  0  0
 30 22  1  0  0  0  0
 30 32  1  0  0  0  0
 31 30  1  0  0  0  0
 33 30  1  0  0  0  0
 34 35  1  0  0  0  0
 34 37  1  0  0  0  0
 36 34  1  0  0  0  0
M  END
