1,6
q = -1.0, confidence = 0.02

 27 26  0  0  0  0  0  0  0  0999 V2000
   -0.8286    1.7773   -0.5398 O   0  5  0  0  0  0  0  0  0  0  0  0
    0.0671   -1.5899    1.0683 O   0  0  0  0  0  0  0  0  0  0  0  0
   -0.1447    3.8109    0.0657 O   0  0  0  0  0  0  0  0  0  0  0  0
    0.6206   -1.8630   -1.5956 O   0  0  0  0  0  0  0  0  0  0  0  0
    4.1862   -2.1017    0.6263 O   0  0  0  0  0  0  0  0  0  0  0  0
    1.5067    0.3396   -0.1401 N   0  0  0  0  0  0  0  0  0  0  0  0
    2.1629   -0.9916    0.0553 C   0  0  0  0  0  0  0  0  0  0  0  0
    0.0668    2.7491   -0.5165 C   0  0  0  0  0  0  0  0  0  0  0  0
    1.9833   -1.8694   -1.1983 C   0  0  0  0  0  0  0  0  0  0  0  0
    2.6435   -1.4668   -2.0011 H   0  0  0  0  0  0  0  0  0  0  0  0
    2.3573   -2.8871   -0.9519 H   0  0  0  0  0  0  0  0  0  0  0  0
    1.7885    1.0603   -1.4132 C   0  0  0  0  0  0  0  0  0  0  0  0
    1.2108    0.5649   -2.2168 H   0  0  0  0  0  0  0  0  0  0  0  0
    2.8654    0.9851   -1.6756 H   0  0  0  0  0  0  0  0  0  0  0  0
    1.4994   -1.5922    1.2996 C   0  0  0  0  0  0  0  0  0  0  0  0
    1.8551   -2.6247    1.4793 H   0  0  0  0  0  0  0  0  0  0  0  0
    1.7381   -0.9614    2.1835 H   0  0  0  0  0  0  0  0  0  0  0  0
    1.3919    2.5225   -1.2537 C   0  0  0  0  0  0  0  0  0  0  0  0
    2.1643    3.0947   -0.7038 H   0  0  0  0  0  0  0  0  0  0  0  0
    1.3032    2.9972   -2.2529 H   0  0  0  0  0  0  0  0  0  0  0  0
    3.6693   -0.8206    0.3494 C   0  0  0  0  0  0  0  0  0  0  0  0
    4.1599   -0.3426   -0.5318 H   0  0  0  0  0  0  0  0  0  0  0  0
    3.7793   -0.1149    1.2107 H   0  0  0  0  0  0  0  0  0  0  0  0
   -0.4059   -1.6642    1.9210 H   0  0  0  0  0  0  0  0  0  0  0  0
    1.7467    0.9763    0.6658 H   0  0  0  0  0  0  0  0  0  0  0  0
    0.5449   -2.3313   -2.4472 H   0  0  0  0  0  0  0  0  0  0  0  0
    5.1505   -2.0377    0.7486 H   0  0  0  0  0  0  0  0  0  0  0  0
  1  8  1  0  0  0  0
  2 15  1  0  0  0  0
  2 24  1  0  0  0  0
  4  9  1  0  0  0  0
  5 27  1  0  0  0  0
  6  7  1  0  0  0  0
  6 25  1  0  0  0  0
  7 21  1  0  0  0  0
  7 15  1  0  0  0  0
  8  3  2  0  0  0  0
  9 11  1  0  0  0  0
  9  7  1  0  0  0  0
 10  9  1  0  0  0  0
 12 18  1  0  0  0  0
 12  6  1  0  0  0  0
 13 12  1  0  0  0  0
 14 12  1  0  0  0  0
 15 16  1  0  0  0  0
 15 17  1  0  0  0  0
 18 19  1  0  0  0  0
 18  8  1  0  0  0  0
 20 18  1  0  0  0  0
 21  5  1  0  0  0  0
 21 23  1  0  0  0  0
 22 21  1  0  0  0  0
 26  4  1  0  0  0  0
M  CHG  1   1  -1
M  END
