1,4
q = -1.0, confidence = 0.0

 29 30  0  0  1  0  0  0  0  0999 V2000
    2.4130    0.0228   -0.5380 O   0  0  0  0  0  1  0  0  0  0  0  0
   -6.4543    1.0258    1.7459 O   0  0  0  0  0  0  0  0  0  0  0  0
   -6.1325    0.1479    2.0254 H   0  0  0  0  0  0  0  0  0  0  0  0
   -0.2611    1.0587   -0.1613 N   0  0  0  0  0  2  0  0  0  0  0  0
    2.7579    1.2596   -0.3431 C   0  0  2  0  0  3  0  0  0  0  0  0
    4.1558    1.5732   -0.3533 C   0  0  0  0  0  0  0  0  0  0  0  0
    4.8516    0.7419   -0.5378 H   0  0  0  0  0  0  0  0  0  0  0  0
    4.6109    2.8703   -0.1598 C   0  0  0  0  0  0  0  0  0  0  0  0
    5.6939    3.0701   -0.1891 H   0  0  0  0  0  0  0  0  0  0  0  0
    3.7072    3.9390    0.0698 C   0  0  0  0  0  0  0  0  0  0  0  0
    4.0781    4.9629    0.2194 H   0  0  0  0  0  0  0  0  0  0  0  0
    2.3477    3.6657    0.1003 C   0  0  0  0  0  0  0  0  0  0  0  0
    1.6241    4.4776    0.2794 H   0  0  0  0  0  0  0  0  0  0  0  0
    1.8391    2.3477   -0.0971 C   0  0  0  0  0  0  0  0  0  0  0  0
    0.4228    2.1696   -0.0170 C   0  0  0  0  0  0  0  0  0  0  0  0
   -0.1679    3.0831    0.1941 H   0  0  0  0  0  0  0  0  0  0  0  0
   -1.6790    1.1252   -0.0142 C   0  0  0  0  0  0  0  0  0  0  0  0
   -2.5036    0.8308   -1.1196 C   0  0  0  0  0  0  0  0  0  0  0  0
   -2.0159    0.5743   -2.0734 H   0  0  0  0  0  0  0  0  0  0  0  0
   -3.8937    0.8544   -0.9690 C   0  0  0  0  0  0  0  0  0  0  0  0
   -4.5343    0.6214   -1.8355 H   0  0  0  0  0  0  0  0  0  0  0  0
   -4.4895    1.1698    0.2710 C   0  0  0  0  0  0  0  0  0  0  0  0
   -3.6554    1.4646    1.3643 C   0  0  0  0  0  0  0  0  0  0  0  0
   -4.1204    1.7055    2.3323 H   0  0  0  0  0  0  0  0  0  0  0  0
   -2.2586    1.4448    1.2274 C   0  0  0  0  0  0  0  0  0  0  0  0
   -1.6055    1.6615    2.0867 H   0  0  0  0  0  0  0  0  0  0  0  0
   -5.9984    1.2271    0.4228 C   0  0  0  0  0  0  0  0  0  0  0  0
   -6.3568    2.2402    0.1336 H   0  0  0  0  0  0  0  0  0  0  0  0
   -6.4674    0.5182   -0.3041 H   0  0  0  0  0  0  0  0  0  0  0  0
  2  3  1  0  0  0  0
  4 15  1  0  0  0  0
  4 17  1  0  0  0  0
  5  1  1  1  0  0  0
  5 14  1  0  0  0  0
  6  5  1  0  0  0  0
  6  8  2  0  0  0  0
  7  6  1  0  0  0  0
  8 10  1  0  0  0  0
  9  8  1  0  0  0  0
 10 12  2  0  0  0  0
 10 11  1  0  0  0  0
 12 13  1  0  0  0  0
 14 15  2  0  0  0  0
 14 12  1  0  0  0  0
 15 16  1  0  0  0  0
 17 25  1  0  0  0  0
 18 20  1  0  0  0  0
 18 17  2  0  0  0  0
 19 18  1  0  0  0  0
 20 22  2  0  0  0  0
 21 20  1  0  0  0  0
 22 27  1  0  0  0  0
 22 23  1  0  0  0  0
 23 24  1  0  0  0  0
 25 23  2  0  0  0  0
 25 26  1  0  0  0  0
 27  2  1  0  0  0  0
 28 27  1  0  0  0  0
 29 27  1  0  0  0  0
M  END
