1,2
q = -2.0, confidence = 0.78

 48 49  0  0  1  0  0  0  0  0999 V2000
    1.1200   -1.1295   -0.4856 O   0  0  0  0  0  1  0  0  0  0  0  0
   -0.8368    0.7117    0.3914 N   0  0  0  0  0  2  0  0  0  0  0  0
    0.2663    1.1762    1.1595 C   0  0  0  0  0  0  0  0  0  0  0  0
    1.5233    0.6088    1.2199 C   0  0  0  0  0  0  0  0  0  0  0  0
    2.0436   -0.6029    0.4303 C   0  0  2  0  0  0  0  0  0  0  0  0
    3.3560   -0.3015   -0.3000 C   0  0  0  0  0  0  0  0  0  0  0  0
    3.3476    0.4245   -1.5062 C   0  0  0  0  0  0  0  0  0  0  0  0
    4.5455    0.7264   -2.1677 C   0  0  0  0  0  0  0  0  0  0  0  0
    5.7746    0.3043   -1.6318 C   0  0  0  0  0  0  0  0  0  0  0  0
    5.7924   -0.4357   -0.4401 C   0  0  0  0  0  0  0  0  0  0  0  0
    4.5879   -0.7423    0.2139 C   0  0  0  0  0  0  0  0  0  0  0  0
   -0.0614    2.3574    2.0725 C   0  0  0  0  0  0  0  0  0  0  0  0
   -0.6772    1.9254    3.4109 C   0  0  0  0  0  0  0  0  0  0  0  0
    2.5731    1.1623    2.1758 C   0  0  0  0  0  0  0  0  0  0  0  0
    3.3987    2.3447    1.6395 C   0  0  0  0  0  0  0  0  0  0  0  0
   -1.7101    1.6908   -0.1612 C   0  0  0  0  0  0  0  0  0  0  0  0
   -3.1012    1.6943    0.1501 C   0  0  0  0  0  0  0  0  0  0  0  0
   -3.9430    2.6458   -0.4580 C   0  0  0  0  0  0  0  0  0  0  0  0
   -3.4431    3.6017   -1.3501 C   0  0  0  0  0  0  0  0  0  0  0  0
   -2.0748    3.6042   -1.6480 C   0  0  0  0  0  0  0  0  0  0  0  0
   -1.1993    2.6638   -1.0752 C   0  0  0  0  0  0  0  0  0  0  0  0
   -3.6918    0.7208    1.1371 C   0  0  0  0  0  0  0  0  0  0  0  0
    0.2552    2.6593   -1.4610 C   0  0  0  0  0  0  0  0  0  0  0  0
    2.3028   -1.3889    1.1915 H   0  0  0  0  0  0  0  0  0  0  0  0
    2.3852    0.7517   -1.9238 H   0  0  0  0  0  0  0  0  0  0  0  0
    4.5224    1.2973   -3.1088 H   0  0  0  0  0  0  0  0  0  0  0  0
    6.7163    0.5450   -2.1485 H   0  0  0  0  0  0  0  0  0  0  0  0
    6.7486   -0.7839   -0.0201 H   0  0  0  0  0  0  0  0  0  0  0  0
    4.6035   -1.3350    1.1431 H   0  0  0  0  0  0  0  0  0  0  0  0
   -0.7745    3.0261    1.5502 H   0  0  0  0  0  0  0  0  0  0  0  0
    0.8410    2.9679    2.2595 H   0  0  0  0  0  0  0  0  0  0  0  0
   -0.9275    2.8027    4.0414 H   0  0  0  0  0  0  0  0  0  0  0  0
   -1.6122    1.3536    3.2509 H   0  0  0  0  0  0  0  0  0  0  0  0
    0.0132    1.2763    3.9879 H   0  0  0  0  0  0  0  0  0  0  0  0
    3.2739    0.3412    2.4424 H   0  0  0  0  0  0  0  0  0  0  0  0
    2.1015    1.4534    3.1365 H   0  0  0  0  0  0  0  0  0  0  0  0
    4.1391    2.6858    2.3924 H   0  0  0  0  0  0  0  0  0  0  0  0
    3.9497    2.0682    0.7204 H   0  0  0  0  0  0  0  0  0  0  0  0
    2.7502    3.2091    1.3886 H   0  0  0  0  0  0  0  0  0  0  0  0
   -5.0156    2.6383   -0.2064 H   0  0  0  0  0  0  0  0  0  0  0  0
   -4.1163    4.3394   -1.8116 H   0  0  0  0  0  0  0  0  0  0  0  0
   -1.6667    4.3424   -2.3568 H   0  0  0  0  0  0  0  0  0  0  0  0
   -4.7735    0.9098    1.2766 H   0  0  0  0  0  0  0  0  0  0  0  0
   -3.5784   -0.3359    0.8175 H   0  0  0  0  0  0  0  0  0  0  0  0
   -3.1996    0.8006    2.1267 H   0  0  0  0  0  0  0  0  0  0  0  0
    0.4341    3.2927   -2.3511 H   0  0  0  0  0  0  0  0  0  0  0  0
    0.9142    3.0222   -0.6449 H   0  0  0  0  0  0  0  0  0  0  0  0
    0.5952    1.6265   -1.6732 H   0  0  0  0  0  0  0  0  0  0  0  0
  1  5  1  0  0  0  0
  2  3  1  0  0  0  0
  3  4  2  0  0  0  0
  3 12  1  0  0  0  0
  4 14  1  0  0  0  0
  5 24  1  1  0  0  0
  5  4  1  0  0  0  0
  6 11  1  0  0  0  0
  6  5  1  0  0  0  0
  7  6  2  0  0  0  0
  8  9  2  0  0  0  0
  8  7  1  0  0  0  0
  9 10  1  0  0  0  0
 10 28  1  0  0  0  0
 10 11  2  0  0  0  0
 11 29  1  0  0  0  0
 12 31  1  0  0  0  0
 12 13  1  0  0  0  0
 13 34  1  0  0  0  0
 13 32  1  0  0  0  0
 14 35  1  0  0  0  0
 14 36  1  0  0  0  0
 15 14  1  0  0  0  0
 15 37  1  0  0  0  0
 16 17  1  0  0  0  0
 16  2  1  0  0  0  0
 17 22  1  0  0  0  0
 18 40  1  0  0  0  0
 18 17  2  0  0  0  0
 19 18  1  0  0  0  0
 20 19  2  0  0  0  0
 20 21  1  0  0  0  0
 21 16  2  0  0  0  0
 22 43  1  0  0  0  0
 22 45  1  0  0  0  0
 23 21  1  0  0  0  0
 23 47  1  0  0  0  0
 25  7  1  0  0  0  0
 26  8  1  0  0  0  0
 27  9  1  0  0  0  0
 30 12  1  0  0  0  0
 33 13  1  0  0  0  0
 38 15  1  0  0  0  0
 39 15  1  0  0  0  0
 41 19  1  0  0  0  0
 42 20  1  0  0  0  0
 44 22  1  0  0  0  0
 46 23  1  0  0  0  0
 48 23  1  0  0  0  0
M  END
