2,12
q = 0.0, confidence = 0.986

 47 48  0  0  1  0  0  0  0  0999 V2000
    0.8119   -0.1635   -0.6152 C   0  0  2  0  0  3  0  0  0  0  0  0
   -0.4547   -0.0249   -0.9379 O   0  0  0  0  0  1  0  0  0  0  0  0
    1.4281   -1.3817   -0.1843 C   0  0  0  0  0  0  0  0  0  0  0  0
    2.8254   -1.3887    0.0621 C   0  0  0  0  0  0  0  0  0  0  0  0
    3.2718   -2.3449    0.3695 H   0  0  0  0  0  0  0  0  0  0  0  0
    3.6323   -0.2475   -0.0446 C   0  0  0  0  0  0  0  0  0  0  0  0
    2.9902    0.9582   -0.4162 C   0  0  0  0  0  0  0  0  0  0  0  0
    3.5756    1.8892   -0.4912 H   0  0  0  0  0  0  0  0  0  0  0  0
    1.6234    1.0097   -0.7017 C   0  0  0  0  0  0  0  0  0  0  0  0
    0.6879   -2.6078    0.0259 C   0  0  0  0  0  0  0  0  0  0  0  0
    1.2526   -3.5367    0.2194 H   0  0  0  0  0  0  0  0  0  0  0  0
   -0.6154   -2.7170    0.0669 N   0  0  0  0  0  2  0  0  0  0  0  0
   -1.0819   -3.9718    0.2824 O   0  0  0  0  0  0  0  0  0  0  0  0
   -2.0720   -3.8038    0.4414 H   0  0  0  0  0  0  0  0  0  0  0  0
    5.1453   -0.2558    0.2363 C   0  0  0  0  0  0  0  0  0  0  0  0
    5.9020    0.2011   -1.0318 C   0  0  0  0  0  0  0  0  0  0  0  0
    5.6979   -0.4813   -1.8813 H   0  0  0  0  0  0  0  0  0  0  0  0
    6.9968    0.2097   -0.8505 H   0  0  0  0  0  0  0  0  0  0  0  0
    5.6062    1.2233   -1.3424 H   0  0  0  0  0  0  0  0  0  0  0  0
    5.4557    0.7143    1.3990 C   0  0  0  0  0  0  0  0  0  0  0  0
    4.9266    0.4059    2.3234 H   0  0  0  0  0  0  0  0  0  0  0  0
    5.1474    1.7528    1.1636 H   0  0  0  0  0  0  0  0  0  0  0  0
    6.5445    0.7300    1.6135 H   0  0  0  0  0  0  0  0  0  0  0  0
    5.6521   -1.6551    0.6249 C   0  0  0  0  0  0  0  0  0  0  0  0
    5.1666   -2.0283    1.5491 H   0  0  0  0  0  0  0  0  0  0  0  0
    6.7438   -1.6204    0.8136 H   0  0  0  0  0  0  0  0  0  0  0  0
    5.4768   -2.3953   -0.1816 H   0  0  0  0  0  0  0  0  0  0  0  0
    0.9398    2.2714   -1.1454 C   0  0  0  0  0  0  0  0  0  0  0  0
    1.5928    3.1578   -1.0185 H   0  0  0  0  0  0  0  0  0  0  0  0
    0.6343    2.2082   -2.2112 H   0  0  0  0  0  0  0  0  0  0  0  0
   -0.3474    2.5390   -0.3930 N   0  3  0  0  0  0  0  0  0  0  0  0
   -0.9329    1.6615   -0.5819 H   0  0  0  0  0  0  0  0  0  0  0  0
   -1.0476    3.7521   -0.9315 C   0  0  0  0  0  0  0  0  0  0  0  0
   -0.3303    4.5955   -0.8314 H   0  0  0  0  0  0  0  0  0  0  0  0
   -1.2163    3.5683   -2.0105 H   0  0  0  0  0  0  0  0  0  0  0  0
   -2.3551    4.0401   -0.2005 C   0  0  0  0  0  0  0  0  0  0  0  0
   -3.0747    3.2293   -0.4359 H   0  0  0  0  0  0  0  0  0  0  0  0
   -2.7695    4.9854   -0.6065 H   0  0  0  0  0  0  0  0  0  0  0  0
   -2.1529    4.1202    1.3163 C   0  0  0  0  0  0  0  0  0  0  0  0
   -3.1301    4.2544    1.8214 H   0  0  0  0  0  0  0  0  0  0  0  0
   -1.5342    5.0100    1.5740 H   0  0  0  0  0  0  0  0  0  0  0  0
   -1.4663    2.8447    1.8155 C   0  0  0  0  0  0  0  0  0  0  0  0
   -1.2619    2.8902    2.9042 H   0  0  0  0  0  0  0  0  0  0  0  0
   -2.1267    1.9694    1.6320 H   0  0  0  0  0  0  0  0  0  0  0  0
   -0.1439    2.6157    1.0935 C   0  0  0  0  0  0  0  0  0  0  0  0
    0.5752    3.4446    1.2725 H   0  0  0  0  0  0  0  0  0  0  0  0
    0.3409    1.6690    1.3975 H   0  0  0  0  0  0  0  0  0  0  0  0
  1  2  1  1  0  0  0
  1  3  1  0  0  0  0
  3 10  2  0  0  0  0
  3  4  1  0  0  0  0
  4  5  1  0  0  0  0
  6  4  2  0  0  0  0
  6 15  1  0  0  0  0
  7  6  1  0  0  0  0
  8  7  1  0  0  0  0
  9  1  1  0  0  0  0
  9  7  2  0  0  0  0
 10 12  1  0  0  0  0
 10 11  1  0  0  0  0
 12 13  1  0  0  0  0
 13 14  1  0  0  0  0
 15 24  1  0  0  0  0
 15 20  1  0  0  0  0
 16 18  1  0  0  0  0
 16 15  1  0  0  0  0
 17 16  1  0  0  0  0
 19 16  1  0  0  0  0
 20 23  1  0  0  0  0
 20 21  1  0  0  0  0
 22 20  1  0  0  0  0
 24 26  1  0  0  0  0
 24 25  1  0  0  0  0
 27 24  1  0  0  0  0
 28 29  1  0  0  0  0
 28  9  1  0  0  0  0
 28 31  1  0  0  0  0
 30 28  1  0  0  0  0
 31 45  1  0  0  0  0
 32 31  1  0  0  0  0
 33 34  1  0  0  0  0
 33 31  1  0  0  0  0
 33 36  1  0  0  0  0
 35 33  1  0  0  0  0
 36 39  1  0  0  0  0
 37 36  1  0  0  0  0
 38 36  1  0  0  0  0
 39 41  1  0  0  0  0
 39 42  1  0  0  0  0
 39 40  1  0  0  0  0
 42 43  1  0  0  0  0
 44 42  1  0  0  0  0
 45 46  1  0  0  0  0
 45 47  1  0  0  0  0
 45 42  1  0  0  0  0
M  CHG  1  31   1
M  END
