64,67
q = 0.0, confidence = 0.89

 72 75  0  0  1  0  0  0  0  0999 V2000
    1.1323    2.7241   -0.7972 C   0  0  0  0  0  0  0  0  0  0  0  0
    2.2449    3.4791   -0.2676 C   0  0  0  0  0  0  0  0  0  0  0  0
    2.0850    4.8528    0.0466 C   0  0  0  0  0  0  0  0  0  0  0  0
    2.9446    5.4199    0.4345 H   0  0  0  0  0  0  0  0  0  0  0  0
    0.8581    5.4921   -0.1099 C   0  0  0  0  0  0  0  0  0  0  0  0
   -0.2460    4.7740   -0.6149 C   0  0  0  0  0  0  0  0  0  0  0  0
   -1.2108    5.2895   -0.7403 H   0  0  0  0  0  0  0  0  0  0  0  0
   -0.1119    3.4318   -0.9679 C   0  0  0  0  0  0  0  0  0  0  0  0
    3.5590    2.9071   -0.0733 C   0  0  0  0  0  3  0  0  0  0  0  0
    4.3669    3.6433    0.1451 H   0  0  0  0  0  0  0  0  0  0  0  0
    5.2688    1.2718    0.0456 C   0  0  0  0  0  0  0  0  0  0  0  0
    5.9131    2.1572    0.2500 H   0  0  0  0  0  0  0  0  0  0  0  0
    5.6219    0.7909   -0.8929 H   0  0  0  0  0  0  0  0  0  0  0  0
    5.4109    0.2596    1.1743 C   0  0  0  0  0  0  0  0  0  0  0  0
    6.4874   -0.0192    1.2845 H   0  0  0  0  0  0  0  0  0  0  0  0
    5.0771    0.7059    2.1437 H   0  0  0  0  0  0  0  0  0  0  0  0
    4.8387   -1.9654    1.7165 C   0  0  0  0  0  0  0  0  0  0  0  0
    4.5405   -1.6945    2.7572 H   0  0  0  0  0  0  0  0  0  0  0  0
    5.9244   -2.2278    1.7231 H   0  0  0  0  0  0  0  0  0  0  0  0
    4.0486   -3.1780    1.2764 C   0  0  0  0  0  0  0  0  0  0  0  0
    4.2021   -3.3588    0.1854 H   0  0  0  0  0  0  0  0  0  0  0  0
    4.4638   -4.0637    1.8210 H   0  0  0  0  0  0  0  0  0  0  0  0
    1.9022   -4.1554    1.5553 C   0  0  0  0  0  0  0  0  0  0  0  0
    1.0486   -3.9851    2.2452 H   0  0  0  0  0  0  0  0  0  0  0  0
    2.4806   -5.0398    1.9223 H   0  0  0  0  0  0  0  0  0  0  0  0
    1.3476   -4.5101    0.1606 C   0  0  0  0  0  0  0  0  0  0  0  0
    2.1586   -4.4801   -0.6003 H   0  0  0  0  0  0  0  0  0  0  0  0
    0.9654   -5.5574    0.2151 H   0  0  0  0  0  0  0  0  0  0  0  0
   -0.9439   -3.9774   -0.1323 C   0  0  0  0  0  0  0  0  0  0  0  0
   -1.2125   -5.0009    0.2180 H   0  0  0  0  0  0  0  0  0  0  0  0
   -2.0244   -3.0631   -0.4529 C   0  0  0  0  0  0  0  0  0  0  0  0
   -1.6959   -1.7489   -0.9156 C   0  0  0  0  0  0  0  0  0  0  0  0
   -2.7486   -0.8421   -1.2099 C   0  0  0  0  0  0  0  0  0  0  0  0
   -4.0829   -1.2407   -1.0511 C   0  0  0  0  0  0  0  0  0  0  0  0
   -4.8959   -0.5333   -1.2684 H   0  0  0  0  0  0  0  0  0  0  0  0
   -4.3932   -2.5378   -0.6072 C   0  0  0  0  0  0  0  0  0  0  0  0
   -3.3734   -3.4441   -0.3087 C   0  0  0  0  0  0  0  0  0  0  0  0
   -3.6197   -4.4550    0.0483 H   0  0  0  0  0  0  0  0  0  0  0  0
   -2.4255    0.5140   -1.7596 C   0  0  0  0  0  0  0  0  0  0  0  0
   -1.9578    0.4253   -2.7631 H   0  0  0  0  0  0  0  0  0  0  0  0
   -3.3478    1.1174   -1.8548 H   0  0  0  0  0  0  0  0  0  0  0  0
   -1.2445    2.6698   -1.5886 C   0  0  0  0  0  0  0  0  0  0  0  0
   -1.0263    2.4535   -2.6560 H   0  0  0  0  0  0  0  0  0  0  0  0
   -2.2004    3.2252   -1.5408 H   0  0  0  0  0  0  0  0  0  0  0  0
   -1.6352    1.3558    0.5392 C   0  0  0  0  0  0  0  0  0  0  0  0
   -0.6680    1.7037    0.9453 H   0  0  0  0  0  0  0  0  0  0  0  0
   -1.7475    0.3060    0.8747 H   0  0  0  0  0  0  0  0  0  0  0  0
   -2.7731    2.2306    1.0632 C   0  0  0  0  0  0  0  0  0  0  0  0
   -2.5661    2.3346    2.1489 H   0  0  0  0  0  0  0  0  0  0  0  0
   -2.7050    3.2586    0.6524 H   0  0  0  0  0  0  0  0  0  0  0  0
   -4.1701    1.6748    0.8896 C   0  0  0  0  0  0  0  0  0  0  0  0
   -4.5676    0.5377    1.6243 C   0  0  0  0  0  0  0  0  0  0  0  0
   -3.8485    0.0570    2.3076 H   0  0  0  0  0  0  0  0  0  0  0  0
   -5.8563    0.0074    1.4806 C   0  0  0  0  0  0  0  0  0  0  0  0
   -6.1459   -0.8880    2.0496 H   0  0  0  0  0  0  0  0  0  0  0  0
   -6.7691    0.5986    0.5912 C   0  0  0  0  0  0  0  0  0  0  0  0
   -7.7751    0.1709    0.4684 H   0  0  0  0  0  0  0  0  0  0  0  0
   -6.3861    1.7292   -0.1463 C   0  0  0  0  0  0  0  0  0  0  0  0
   -7.0966    2.2033   -0.8405 H   0  0  0  0  0  0  0  0  0  0  0  0
   -5.0958    2.2650    0.0080 C   0  0  0  0  0  0  0  0  0  0  0  0
   -4.8077    3.1659   -0.5592 H   0  0  0  0  0  0  0  0  0  0  0  0
    0.6744    7.1784    0.3083 Cl  0  0  0  0  0  0  0  0  0  0  0  0
   -6.0675   -3.0065   -0.4124 Cl  0  0  0  0  0  0  0  0  0  0  0  0
    3.8788    1.6500   -0.1350 N   0  0  0  0  0  2  0  0  0  0  0  0
    0.2913   -3.6085   -0.2422 N   0  0  0  0  0  0  0  0  0  0  0  0
   -1.4349    1.3164   -0.9529 N   0  3  1  0  0  0  0  0  0  0  0  0
    1.1868    1.4705   -1.1294 O   0  5  0  0  0  0  0  0  0  0  0  0
   -0.4607    0.8876   -1.0683 H   0  0  0  0  0  0  0  0  0  0  0  0
    4.6321   -0.8667    0.8392 O   0  0  0  0  0  0  0  0  0  0  0  0
    2.6900   -2.9929    1.6121 O   0  0  0  0  0  0  0  0  0  0  0  0
   -0.4361   -1.3593   -1.0674 O   0  0  0  0  0  0  0  0  0  0  0  0
    0.1683   -2.1914   -0.7511 H   0  0  0  0  0  0  0  0  0  0  0  0
  1  2  1  0  0  0  0
  2  9  1  0  0  0  0
  2  3  2  0  0  0  0
  3  4  1  0  0  0  0
  5  3  1  0  0  0  0
  5 62  1  0  0  0  0
  6  5  2  0  0  0  0
  7  6  1  0  0  0  0
  8  1  2  0  0  0  0
  8  6  1  0  0  0  0
  9 10  1  0  0  0  0
 11 12  1  0  0  0  0
 11 14  1  0  0  0  0
 13 11  1  0  0  0  0
 14 15  1  0  0  0  0
 14 16  1  0  0  0  0
 17 19  1  0  0  0  0
 17 18  1  0  0  0  0
 20 70  1  0  0  0  0
 20 17  1  0  0  0  0
 20 22  1  0  0  0  0
 21 20  1  0  0  0  0
 23 70  1  0  0  0  0
 23 25  1  0  0  0  0
 23 24  1  0  0  0  0
 26 28  1  0  0  0  0
 26 23  1  0  0  0  0
 27 26  1  0  0  0  0
 29 30  1  0  0  0  0
 31 37  1  0  0  0  0
 31 29  1  0  0  0  0
 32 31  2  0  0  0  0
 33 34  2  0  0  0  0
 33 32  1  0  0  0  0
 34 36  1  0  0  0  0
 35 34  1  0  0  0  0
 36 63  1  0  0  0  0
 36 37  2  0  0  0  0
 37 38  1  0  0  0  0
 39 33  1  0  0  0  0
 39 66  1  0  0  0  0
 40 39  1  0  0  0  0
 41 39  1  0  0  0  0
 42 44  1  0  0  0  0
 42  8  1  0  0  0  0
 42 66  1  0  0  0  0
 43 42  1  0  0  0  0
 45 47  1  0  0  0  0
 45 46  1  0  0  0  0
 45 48  1  0  0  0  0
 48 49  1  0  0  0  0
 50 48  1  0  0  0  0
 51 48  1  0  0  0  0
 51 52  1  0  0  0  0
 52 53  1  0  0  0  0
 54 52  2  0  0  0  0
 54 55  1  0  0  0  0
 56 54  1  0  0  0  0
 57 56  1  0  0  0  0
 58 60  1  0  0  0  0
 58 56  2  0  0  0  0
 59 58  1  0  0  0  0
 60 51  2  0  0  0  0
 61 60  1  0  0  0  0
 64  9  1  0  0  0  0
 64 11  1  0  0  0  0
 65 29  2  0  0  0  0
 65 26  1  0  0  0  0
 66 68  1  6  0  0  0
 66 45  1  0  0  0  0
 67  1  1  0  0  0  0
 69 14  1  0  0  0  0
 69 17  1  0  0  0  0
 71 32  1  0  0  0  0
 71 72  1  0  0  0  0
M  CHG  2  66   1  67  -1
M  END
