1,29
q = -1.0, confidence = 0.0

 36 36  0  0  0  0  0  0  0  0999 V2000
    1.7021   -0.3766   -0.5181 O   0  5  0  0  0  0  0  0  0  0  0  0
    2.8513    0.1774   -0.2488 C   0  0  0  0  0  0  0  0  0  0  0  0
    4.0562   -0.3603   -0.8514 C   0  0  0  0  0  0  0  0  0  0  0  0
    5.2783    0.2387   -0.5462 C   0  0  0  0  0  0  0  0  0  0  0  0
    6.1940   -0.1715   -0.9966 H   0  0  0  0  0  0  0  0  0  0  0  0
    5.4293    1.3589    0.3167 C   0  0  0  0  0  0  0  0  0  0  0  0
    4.2770    1.8785    0.8860 C   0  0  0  0  0  0  0  0  0  0  0  0
    4.3432    2.7517    1.5571 H   0  0  0  0  0  0  0  0  0  0  0  0
    2.9888    1.3197    0.6363 C   0  0  0  0  0  0  0  0  0  0  0  0
    1.8878    1.9854    1.2836 C   0  0  0  0  0  3  0  0  0  0  0  0
    2.1714    2.8993    1.8545 H   0  0  0  0  0  0  0  0  0  0  0  0
    3.9672   -1.5715   -1.8003 C   0  0  0  0  0  0  0  0  0  0  0  0
    3.0963   -1.2083   -3.0268 C   0  0  0  0  0  0  0  0  0  0  0  0
    2.0779   -0.9122   -2.7167 H   0  0  0  0  0  0  0  0  0  0  0  0
    3.0192   -2.0789   -3.7112 H   0  0  0  0  0  0  0  0  0  0  0  0
    3.5508   -0.3692   -3.5921 H   0  0  0  0  0  0  0  0  0  0  0  0
    5.3516   -2.0015   -2.3187 C   0  0  0  0  0  0  0  0  0  0  0  0
    6.0300   -2.3076   -1.4962 H   0  0  0  0  0  0  0  0  0  0  0  0
    5.8491   -1.1965   -2.8972 H   0  0  0  0  0  0  0  0  0  0  0  0
    5.2356   -2.8721   -2.9952 H   0  0  0  0  0  0  0  0  0  0  0  0
    3.3515   -2.7799   -1.0539 C   0  0  0  0  0  0  0  0  0  0  0  0
    2.3322   -2.5414   -0.6996 H   0  0  0  0  0  0  0  0  0  0  0  0
    3.9762   -3.0610   -0.1809 H   0  0  0  0  0  0  0  0  0  0  0  0
    3.2949   -3.6579   -1.7305 H   0  0  0  0  0  0  0  0  0  0  0  0
    6.7959    1.9391    0.5798 C   0  0  0  0  0  0  0  0  0  0  0  0
    7.4767    1.1898    1.0371 H   0  0  0  0  0  0  0  0  0  0  0  0
    6.7446    2.8078    1.2649 H   0  0  0  0  0  0  0  0  0  0  0  0
    7.2826    2.2792   -0.3589 H   0  0  0  0  0  0  0  0  0  0  0  0
    0.6216    1.6582    1.2832 N   0  0  0  0  0  2  0  0  0  0  0  0
   -0.3468    2.5039    1.9699 C   0  0  0  0  0  0  0  0  0  0  0  0
    0.1775    3.3357    2.4951 H   0  0  0  0  0  0  0  0  0  0  0  0
   -1.0046    2.9681    1.2014 H   0  0  0  0  0  0  0  0  0  0  0  0
   -1.2108    1.7052    2.9442 C   0  0  0  0  0  0  0  0  0  0  0  0
   -1.9539    2.3652    3.4337 H   0  0  0  0  0  0  0  0  0  0  0  0
   -0.5917    1.2305    3.7320 H   0  0  0  0  0  0  0  0  0  0  0  0
   -1.7689    0.9065    2.4142 H   0  0  0  0  0  0  0  0  0  0  0  0
  1  2  1  0  0  0  0
  2  9  1  0  0  0  0
  3  4  1  0  0  0  0
  3  2  2  0  0  0  0
  4  6  2  0  0  0  0
  5  4  1  0  0  0  0
  6 25  1  0  0  0  0
  6  7  1  0  0  0  0
  7  8  1  0  0  0  0
  9  7  2  0  0  0  0
  9 10  1  0  0  0  0
 10 11  1  0  0  0  0
 12 21  1  0  0  0  0
 12  3  1  0  0  0  0
 13 14  1  0  0  0  0
 13 12  1  0  0  0  0
 15 13  1  0  0  0  0
 16 13  1  0  0  0  0
 17 12  1  0  0  0  0
 17 18  1  0  0  0  0
 19 17  1  0  0  0  0
 20 17  1  0  0  0  0
 21 22  1  0  0  0  0
 21 23  1  0  0  0  0
 24 21  1  0  0  0  0
 25 26  1  0  0  0  0
 25 27  1  0  0  0  0
 28 25  1  0  0  0  0
 29 10  1  0  0  0  0
 29 30  1  0  0  0  0
 30 31  1  0  0  0  0
 30 33  1  0  0  0  0
 32 30  1  0  0  0  0
 33 34  1  0  0  0  0
 33 35  1  0  0  0  0
 36 33  1  0  0  0  0
M  CHG  1   1  -1
M  END
