2,3
q = -1.0, confidence = 0.0

 36 38  0  0  0  0  0  0  0  0999 V2000
    6.3927   -3.4339   -1.2017 O   0  0  0  0  0  0  0  0  0  0  0  0
   -1.7352   -0.1376   -0.6072 O   0  5  0  0  0  0  0  0  0  0  0  0
    0.2535   -1.8796   -0.1179 N   0  0  0  0  0  2  0  0  0  0  0  0
    6.1511   -4.8427    0.7197 C   0  0  0  0  0  0  0  0  0  0  0  0
    7.2075   -5.0809    0.5031 H   0  0  0  0  0  0  0  0  0  0  0  0
    6.0694   -4.4296    1.7462 H   0  0  0  0  0  0  0  0  0  0  0  0
    5.5504   -5.7752    0.6969 H   0  0  0  0  0  0  0  0  0  0  0  0
    3.7724   -2.4523   -1.1923 C   0  0  0  0  0  0  0  0  0  0  0  0
    4.4824   -2.1370   -1.9711 H   0  0  0  0  0  0  0  0  0  0  0  0
   -5.1267   -5.5600    0.1658 C   0  0  0  0  0  0  0  0  0  0  0  0
   -5.8944   -6.3428    0.2533 H   0  0  0  0  0  0  0  0  0  0  0  0
   -3.7685   -5.8629    0.4146 C   0  0  0  0  0  0  0  0  0  0  0  0
   -3.4789   -6.8854    0.7013 H   0  0  0  0  0  0  0  0  0  0  0  0
    2.4698   -1.9627   -1.1547 C   0  0  0  0  0  0  0  0  0  0  0  0
    2.1139   -1.2380   -1.9011 H   0  0  0  0  0  0  0  0  0  0  0  0
   -3.9393   -0.8917   -0.7509 C   0  0  0  0  0  0  0  0  0  0  0  0
   -4.2186    0.1401   -1.0072 H   0  0  0  0  0  0  0  0  0  0  0  0
    4.2308   -3.3727   -0.2210 C   0  0  0  0  0  0  0  0  0  0  0  0
   -2.5442   -1.1466   -0.4985 C   0  0  0  0  0  0  0  0  0  0  0  0
   -2.7889   -4.8781    0.3106 C   0  0  0  0  0  0  0  0  0  0  0  0
   -1.7477   -5.1499    0.5358 H   0  0  0  0  0  0  0  0  0  0  0  0
    5.6527   -3.8451   -0.3131 C   0  0  0  0  0  0  0  0  0  0  0  0
   -4.4992   -3.2403   -0.2987 C   0  0  0  0  0  0  0  0  0  0  0  0
   -2.1261   -2.4814   -0.1830 C   0  0  0  0  0  0  0  0  0  0  0  0
    3.3384   -3.7934    0.7868 C   0  0  0  0  0  0  0  0  0  0  0  0
    3.6678   -4.4993    1.5630 H   0  0  0  0  0  0  0  0  0  0  0  0
    1.5808   -2.3903   -0.1445 C   0  0  0  0  0  0  0  0  0  0  0  0
   -3.1140   -3.5435   -0.0569 C   0  0  0  0  0  0  0  0  0  0  0  0
    2.0260   -3.3067    0.8281 C   0  0  0  0  0  0  0  0  0  0  0  0
    1.3446   -3.6073    1.6377 H   0  0  0  0  0  0  0  0  0  0  0  0
   -4.8684   -1.8984   -0.6495 C   0  0  0  0  0  0  0  0  0  0  0  0
   -5.9334   -1.6816   -0.8299 H   0  0  0  0  0  0  0  0  0  0  0  0
   -5.4796   -4.2610   -0.1818 C   0  0  0  0  0  3  0  0  0  0  0  0
   -6.5326   -4.0000   -0.3715 H   0  0  0  0  0  0  0  0  0  0  0  0
   -0.7346   -2.7621   -0.1090 C   0  0  0  0  0  0  0  0  0  0  0  0
   -0.4307   -3.8239   -0.1093 H   0  0  0  0  0  0  0  0  0  0  0  0
  1 22  2  0  0  0  0
  2 19  1  0  0  0  0
  3 35  1  0  0  0  0
  4  6  1  0  0  0  0
  5  4  1  0  0  0  0
  7  4  1  0  0  0  0
  8 14  2  0  0  0  0
  8 18  1  0  0  0  0
  9  8  1  0  0  0  0
 10 11  1  0  0  0  0
 10 12  2  0  0  0  0
 12 13  1  0  0  0  0
 14 27  1  0  0  0  0
 15 14  1  0  0  0  0
 16 31  1  0  0  0  0
 16 19  2  0  0  0  0
 17 16  1  0  0  0  0
 18 25  2  0  0  0  0
 19 24  1  0  0  0  0
 20 12  1  0  0  0  0
 20 21  1  0  0  0  0
 22 18  1  0  0  0  0
 22  4  1  0  0  0  0
 23 33  1  0  0  0  0
 23 28  1  0  0  0  0
 24 35  2  0  0  0  0
 24 28  1  0  0  0  0
 25 29  1  0  0  0  0
 25 26  1  0  0  0  0
 27  3  1  0  0  0  0
 27 29  2  0  0  0  0
 28 20  2  0  0  0  0
 29 30  1  0  0  0  0
 31 23  2  0  0  0  0
 32 31  1  0  0  0  0
 33 10  1  0  0  0  0
 34 33  1  0  0  0  0
 36 35  1  0  0  0  0
M  CHG  1   2  -1
M  END
