1,14
q = -1.0, confidence = 0.072

 31 31  0  0  1  0  0  0  0  0999 V2000
    2.9880   -0.7230   -0.0026 O   0  0  0  0  0  1  0  0  0  0  0  0
    5.2198   -1.9608    0.8568 F   0  0  0  0  0  0  0  0  0  0  0  0
    4.3996   -3.9206    0.3423 F   0  0  0  0  0  0  0  0  0  0  0  0
    4.9016   -2.4947   -1.2341 F   0  0  0  0  0  0  0  0  0  0  0  0
   -1.2179   -3.9329   -0.4459 F   0  0  0  0  0  0  0  0  0  0  0  0
    0.1923   -4.6622    1.0319 F   0  0  0  0  0  0  0  0  0  0  0  0
   -1.2881   -3.1901    1.6128 F   0  0  0  0  0  0  0  0  0  0  0  0
   -4.5279   -0.3145   -2.7222 F   0  0  0  0  0  0  0  0  0  0  0  0
   -5.8783   -1.2915   -1.3127 F   0  0  0  0  0  0  0  0  0  0  0  0
   -4.3252   -2.4501   -2.3258 F   0  0  0  0  0  0  0  0  0  0  0  0
   -2.7446    1.0846    3.5928 F   0  0  0  0  0  0  0  0  0  0  0  0
   -3.3509    2.5273    2.0741 F   0  0  0  0  0  0  0  0  0  0  0  0
   -4.7965    1.0821    2.8349 F   0  0  0  0  0  0  0  0  0  0  0  0
    0.0484   -1.1850    0.0271 N   0  0  0  0  0  2  0  0  0  0  0  0
    4.3916   -2.6110    0.0124 C   0  0  0  0  0  0  0  0  0  0  0  0
    2.9834   -1.9952    0.0626 C   0  0  2  0  0  3  0  0  0  0  0  0
    1.8734   -2.8358    0.1679 C   0  0  0  0  0  0  0  0  0  0  0  0
    2.0753   -3.9035    0.2911 H   0  0  0  0  0  0  0  0  0  0  0  0
    0.5223   -2.4233    0.2331 C   0  0  0  0  0  0  0  0  0  0  0  0
   -0.4591   -3.5583    0.6135 C   0  0  0  0  0  0  0  0  0  0  0  0
   -1.3469   -0.9105    0.1940 C   0  0  0  0  0  0  0  0  0  0  0  0
   -2.2887   -1.3329   -0.7578 C   0  0  0  0  0  0  0  0  0  0  0  0
   -1.9695   -1.9365   -1.6163 H   0  0  0  0  0  0  0  0  0  0  0  0
   -3.6300   -0.9367   -0.6325 C   0  0  0  0  0  0  0  0  0  0  0  0
   -4.0429   -0.1323    0.4375 C   0  0  0  0  0  0  0  0  0  0  0  0
   -5.0925    0.1777    0.5272 H   0  0  0  0  0  0  0  0  0  0  0  0
   -3.0948    0.2827    1.3859 C   0  0  0  0  0  0  0  0  0  0  0  0
   -1.7549   -0.1025    1.2693 C   0  0  0  0  0  0  0  0  0  0  0  0
   -1.0063    0.2426    1.9951 H   0  0  0  0  0  0  0  0  0  0  0  0
   -4.5985   -1.2603   -1.7455 C   0  0  0  0  0  0  0  0  0  0  0  0
   -3.4997    1.2429    2.4812 C   0  0  0  0  0  0  0  0  0  0  0  0
  4 15  1  0  0  0  0
  5 20  1  0  0  0  0
  8 30  1  0  0  0  0
 10 30  1  0  0  0  0
 12 31  1  0  0  0  0
 14 21  1  0  0  0  0
 14 19  1  0  0  0  0
 15 16  1  0  0  0  0
 15  3  1  0  0  0  0
 15  2  1  0  0  0  0
 16  1  1  6  0  0  0
 16 17  1  0  0  0  0
 17 19  2  0  0  0  0
 17 18  1  0  0  0  0
 19 20  1  0  0  0  0
 20  6  1  0  0  0  0
 20  7  1  0  0  0  0
 21 28  1  0  0  0  0
 22 24  1  0  0  0  0
 22 21  2  0  0  0  0
 23 22  1  0  0  0  0
 24 25  2  0  0  0  0
 25 26  1  0  0  0  0
 25 27  1  0  0  0  0
 27 31  1  0  0  0  0
 28 27  2  0  0  0  0
 28 29  1  0  0  0  0
 30  9  1  0  0  0  0
 30 24  1  0  0  0  0
 31 13  1  0  0  0  0
 31 11  1  0  0  0  0
M  END
