1,7
q = -1.0, confidence = 0.0

 27 27  0  0  1  0  0  0  0  0999 V2000
   -0.9236    1.6010    0.1644 O   0  0  0  0  0  1  0  0  0  0  0  0
   -2.1747    1.8897    0.0988 C   0  0  2  0  0  3  0  0  0  0  0  0
   -2.4859    3.3454    0.3291 C   0  0  0  0  0  0  0  0  0  0  0  0
   -1.5750    3.8588    0.6879 H   0  0  0  0  0  0  0  0  0  0  0  0
   -2.8439    3.8091   -0.6108 H   0  0  0  0  0  0  0  0  0  0  0  0
   -3.3194    3.4718    1.0458 H   0  0  0  0  0  0  0  0  0  0  0  0
   -1.5860   -0.9463   -0.4981 N   0  0  0  0  0  2  0  0  0  0  0  0
   -1.4934   -2.3415   -0.9273 C   0  0  0  0  0  0  0  0  0  0  0  0
   -2.4943   -2.7241   -1.2139 H   0  0  0  0  0  0  0  0  0  0  0  0
   -1.0770   -2.9703   -0.1174 H   0  0  0  0  0  0  0  0  0  0  0  0
   -0.8057   -2.4384   -1.7896 H   0  0  0  0  0  0  0  0  0  0  0  0
   -2.7924   -0.4203   -0.4831 C   0  0  0  0  0  0  0  0  0  0  0  0
   -3.6169   -1.0887   -0.7953 H   0  0  0  0  0  0  0  0  0  0  0  0
   -3.1764    0.9171   -0.1649 C   0  0  0  0  0  0  0  0  0  0  0  0
   -4.6081    1.2924   -0.2282 C   0  0  0  0  0  0  0  0  0  0  0  0
   -4.9916    2.4507   -0.4361 O   0  0  0  0  0  0  0  0  0  0  0  0
   -5.6560    0.2223   -0.0155 C   0  0  0  0  0  0  0  0  0  0  0  0
   -5.5076   -0.8254    0.9185 C   0  0  0  0  0  0  0  0  0  0  0  0
   -4.5756   -0.9120    1.4979 H   0  0  0  0  0  0  0  0  0  0  0  0
   -6.5537   -1.7342    1.1394 C   0  0  0  0  0  0  0  0  0  0  0  0
   -6.4332   -2.5380    1.8818 H   0  0  0  0  0  0  0  0  0  0  0  0
   -7.7537   -1.6137    0.4211 C   0  0  0  0  0  0  0  0  0  0  0  0
   -8.5706   -2.3323    0.5884 H   0  0  0  0  0  0  0  0  0  0  0  0
   -7.9144   -0.5660   -0.5024 C   0  0  0  0  0  0  0  0  0  0  0  0
   -8.8581   -0.4637   -1.0599 H   0  0  0  0  0  0  0  0  0  0  0  0
   -6.8789    0.3537   -0.7064 C   0  0  0  0  0  0  0  0  0  0  0  0
   -6.9941    1.2007   -1.3990 H   0  0  0  0  0  0  0  0  0  0  0  0
  2  1  1  1  0  0  0
  2  3  1  0  0  0  0
  3  4  1  0  0  0  0
  3  6  1  0  0  0  0
  5  3  1  0  0  0  0
  7 12  1  0  0  0  0
  8  7  1  0  0  0  0
  8 10  1  0  0  0  0
  9  8  1  0  0  0  0
 11  8  1  0  0  0  0
 12 14  2  0  0  0  0
 13 12  1  0  0  0  0
 14  2  1  0  0  0  0
 15 14  1  0  0  0  0
 15 17  1  0  0  0  0
 16 15  2  0  0  0  0
 17 18  1  0  0  0  0
 18 20  2  0  0  0  0
 18 19  1  0  0  0  0
 20 21  1  0  0  0  0
 22 23  1  0  0  0  0
 22 20  1  0  0  0  0
 24 22  2  0  0  0  0
 25 24  1  0  0  0  0
 26 24  1  0  0  0  0
 26 17  2  0  0  0  0
 27 26  1  0  0  0  0
M  END
