1,2
q = -1.0, confidence = 0.0

 31 33  0  0  0  0  0  0  0  0999 V2000
   -2.9726    0.2320    0.0011 O   0  5  0  0  0  0  0  0  0  0  0  0
   -0.5080    0.9961   -0.6704 N   0  0  0  0  0  2  0  0  0  0  0  0
   -2.8283    1.4770   -0.3697 C   0  0  0  0  0  0  0  0  0  0  0  0
   -3.9377    2.3710   -0.4116 C   0  0  0  0  0  0  0  0  0  0  0  0
   -4.9276    1.9742   -0.1448 H   0  0  0  0  0  0  0  0  0  0  0  0
   -3.7520    3.6992   -0.7798 C   0  0  0  0  0  0  0  0  0  0  0  0
   -4.6164    4.3806   -0.8078 H   0  0  0  0  0  0  0  0  0  0  0  0
   -2.4675    4.1842   -1.1265 C   0  0  0  0  0  0  0  0  0  0  0  0
   -2.3341    5.2335   -1.4269 H   0  0  0  0  0  0  0  0  0  0  0  0
   -1.3705    3.3238   -1.1033 C   0  0  0  0  0  0  0  0  0  0  0  0
   -0.3843    3.7122   -1.3954 H   0  0  0  0  0  0  0  0  0  0  0  0
   -1.5327    1.9714   -0.7225 C   0  0  0  0  0  0  0  0  0  0  0  0
    0.7276    1.2957   -0.9975 C   0  0  0  0  0  3  0  0  0  0  0  0
    0.9532    2.3576   -1.2058 H   0  0  0  0  0  0  0  0  0  0  0  0
    1.8456    0.3703   -1.1770 C   0  0  0  0  0  0  0  0  0  0  0  0
    1.6957   -0.8018   -1.9290 C   0  0  0  0  0  0  0  0  0  0  0  0
    0.7037   -1.0444   -2.3453 H   0  0  0  0  0  0  0  0  0  0  0  0
    2.7973   -1.6604   -2.1560 C   0  0  0  0  0  0  0  0  0  0  0  0
    2.6509   -2.5705   -2.7579 H   0  0  0  0  0  0  0  0  0  0  0  0
    4.0516   -1.3569   -1.6442 C   0  0  0  0  0  0  0  0  0  0  0  0
    4.9093   -2.0238   -1.8241 H   0  0  0  0  0  0  0  0  0  0  0  0
    4.2560   -0.1698   -0.8815 C   0  0  0  0  0  0  0  0  0  0  0  0
    5.5324    0.1581   -0.3358 C   0  0  0  0  0  0  0  0  0  0  0  0
    6.3764   -0.5221   -0.5302 H   0  0  0  0  0  0  0  0  0  0  0  0
    5.7129    1.3018    0.4270 C   0  0  0  0  0  0  0  0  0  0  0  0
    6.7040    1.5404    0.8414 H   0  0  0  0  0  0  0  0  0  0  0  0
    4.6139    2.1631    0.6825 C   0  0  0  0  0  0  0  0  0  0  0  0
    4.7570    3.0638    1.2985 H   0  0  0  0  0  0  0  0  0  0  0  0
    3.3585    1.8724    0.1651 C   0  0  0  0  0  0  0  0  0  0  0  0
    2.5130    2.5402    0.3881 H   0  0  0  0  0  0  0  0  0  0  0  0
    3.1412    0.7153   -0.6403 C   0  0  0  0  0  0  0  0  0  0  0  0
  3  1  1  0  0  0  0
  4  3  1  0  0  0  0
  4  5  1  0  0  0  0
  6  4  2  0  0  0  0
  7  6  1  0  0  0  0
  8 10  2  0  0  0  0
  8  6  1  0  0  0  0
  9  8  1  0  0  0  0
 10 12  1  0  0  0  0
 11 10  1  0  0  0  0
 12  2  1  0  0  0  0
 12  3  2  0  0  0  0
 13  2  1  0  0  0  0
 14 13  1  0  0  0  0
 15 13  1  0  0  0  0
 15 31  1  0  0  0  0
 16 15  2  0  0  0  0
 17 16  1  0  0  0  0
 18 16  1  0  0  0  0
 18 20  2  0  0  0  0
 19 18  1  0  0  0  0
 20 22  1  0  0  0  0
 21 20  1  0  0  0  0
 22 31  2  0  0  0  0
 22 23  1  0  0  0  0
 23 25  2  0  0  0  0
 24 23  1  0  0  0  0
 25 27  1  0  0  0  0
 25 26  1  0  0  0  0
 27 28  1  0  0  0  0
 29 30  1  0  0  0  0
 29 27  2  0  0  0  0
 31 29  1  0  0  0  0
M  CHG  1   1  -1
M  END
