1,2
q = -2.0, confidence = 0.762

  9  8  0  0  0  0  0  0  0  0999 V2000
   -1.1769    0.7694    0.5011 N   0  0  0  0  0  2  0  0  0  0  0  0
   -0.7589   -1.4538   -0.7489 O   0  5  0  0  0  0  0  0  0  0  0  0
   -2.9284   -1.8529   -1.2057 O   0  0  0  0  0  0  0  0  0  0  0  0
   -3.4923    0.5812    0.2221 O   0  0  0  0  0  0  0  0  0  0  0  0
   -0.2708    2.2297    2.0482 O   0  0  0  0  0  0  0  0  0  0  0  0
   -2.0598   -1.1596   -0.7231 C   0  0  0  0  0  0  0  0  0  0  0  0
   -2.3694    0.1624    0.0343 C   0  0  0  0  0  0  0  0  0  0  0  0
   -1.2529    1.7265    1.4782 C   0  0  0  0  0  0  0  0  0  0  0  0
   -2.2975    2.0196    1.7503 H   0  0  0  0  0  0  0  0  0  0  0  0
  1  8  1  0  0  0  0
  2  6  1  0  0  0  0
  3  6  2  0  0  0  0
  6  7  1  0  0  0  0
  7  4  2  0  0  0  0
  7  1  1  0  0  0  0
  8  9  1  0  0  0  0
  8  5  2  0  0  0  0
M  CHG  1   2  -1
M  END
