1,4
q = -1.0, confidence = 0.0

 15 15  0  0  1  0  0  0  0  0999 V2000
   -0.9881   -0.7553    1.6849 O   0  0  0  0  0  1  0  0  0  0  0  0
   -4.1850    1.9654    1.5382 O   0  0  0  0  0  0  0  0  0  0  0  0
   -4.9355    2.5449    1.3104 H   0  0  0  0  0  0  0  0  0  0  0  0
   -2.1820   -0.2623   -0.4664 N   0  0  0  0  0  2  0  0  0  0  0  0
   -2.0171    0.1560    1.8993 C   0  0  0  0  0  0  0  0  0  0  0  0
   -1.6451    1.1155    2.3339 H   0  0  0  0  0  0  0  0  0  0  0  0
   -2.7556   -0.2552    2.6298 H   0  0  0  0  0  0  0  0  0  0  0  0
   -2.6971    0.4188    0.5809 C   0  0  1  0  0  3  0  0  0  0  0  0
   -2.7448   -0.1374   -1.6964 C   0  0  0  0  0  0  0  0  0  0  0  0
   -2.2782   -0.7283   -2.4961 H   0  0  0  0  0  0  0  0  0  0  0  0
   -3.8362    0.7037   -1.9095 C   0  0  0  0  0  0  0  0  0  0  0  0
   -4.2703    0.7777   -2.9165 H   0  0  0  0  0  0  0  0  0  0  0  0
   -4.3671    1.4462   -0.8447 C   0  0  0  0  0  0  0  0  0  0  0  0
   -5.2254    2.1210   -0.9912 H   0  0  0  0  0  0  0  0  0  0  0  0
   -3.7802    1.3042    0.4240 C   0  0  0  0  0  0  0  0  0  0  0  0
  1  5  1  0  0  0  0
  3  2  1  0  0  0  0
  4  8  1  0  0  0  0
  5  6  1  0  0  0  0
  5  7  1  0  0  0  0
  8  5  1  6  0  0  0
  9  4  1  0  0  0  0
 10  9  1  0  0  0  0
 11  9  2  0  0  0  0
 11 13  1  0  0  0  0
 12 11  1  0  0  0  0
 13 15  2  0  0  0  0
 14 13  1  0  0  0  0
 15  8  1  0  0  0  0
 15  2  1  0  0  0  0
M  END
