2,3
q = -1.0, confidence = 0.01

 25 26  0  0  0  0  0  0  0  0999 V2000
   -6.0230    0.6049    0.0029 Br  0  0  0  0  0  0  0  0  0  0  0  0
    2.7897    0.0475    0.2701 O   0  5  0  0  0  0  0  0  0  0  0  0
    0.0938    0.8463    0.2096 N   0  0  0  0  0  2  0  0  0  0  0  0
    3.0763    1.3436    0.2385 C   0  0  0  0  0  0  0  0  0  0  0  0
    4.4345    1.7284    0.2774 C   0  0  0  0  0  0  0  0  0  0  0  0
    4.7823    3.0808    0.2299 C   0  0  0  0  0  0  0  0  0  0  0  0
    3.7853    4.0734    0.1487 C   0  0  0  0  0  0  0  0  0  0  0  0
    2.4404    3.6984    0.1213 C   0  0  0  0  0  0  0  0  0  0  0  0
    2.0524    2.3373    0.1648 C   0  0  0  0  0  0  0  0  0  0  0  0
    0.6355    2.0291    0.1712 C   0  0  0  0  0  3  0  0  0  0  0  0
   -1.3290    0.8010    0.1690 C   0  0  0  0  0  0  0  0  0  0  0  0
   -2.0466    0.1708    1.2051 C   0  0  0  0  0  0  0  0  0  0  0  0
   -3.4438    0.1234    1.1616 C   0  0  0  0  0  0  0  0  0  0  0  0
   -4.1251    0.6861    0.0685 C   0  0  0  0  0  0  0  0  0  0  0  0
   -3.4209    1.2989   -0.9794 C   0  0  0  0  0  0  0  0  0  0  0  0
   -2.0223    1.3585   -0.9234 C   0  0  0  0  0  0  0  0  0  0  0  0
    5.1926    0.9351    0.3377 H   0  0  0  0  0  0  0  0  0  0  0  0
    5.8441    3.3684    0.2544 H   0  0  0  0  0  0  0  0  0  0  0  0
    4.0631    5.1364    0.1107 H   0  0  0  0  0  0  0  0  0  0  0  0
    1.6533    4.4667    0.0662 H   0  0  0  0  0  0  0  0  0  0  0  0
   -0.0352    2.9148    0.1612 H   0  0  0  0  0  0  0  0  0  0  0  0
   -1.4966   -0.2736    2.0460 H   0  0  0  0  0  0  0  0  0  0  0  0
   -4.0066   -0.3563    1.9744 H   0  0  0  0  0  0  0  0  0  0  0  0
   -3.9618    1.7176   -1.8395 H   0  0  0  0  0  0  0  0  0  0  0  0
   -1.4533    1.8002   -1.7547 H   0  0  0  0  0  0  0  0  0  0  0  0
  1 14  1  0  0  0  0
  4  2  1  0  0  0  0
  4  5  1  0  0  0  0
  5 17  1  0  0  0  0
  6 18  1  0  0  0  0
  6  5  2  0  0  0  0
  7  6  1  0  0  0  0
  8  7  2  0  0  0  0
  8  9  1  0  0  0  0
  9 10  1  0  0  0  0
  9  4  2  0  0  0  0
 10  3  1  0  0  0  0
 11  3  1  0  0  0  0
 11 12  1  0  0  0  0
 12 22  1  0  0  0  0
 13 12  2  0  0  0  0
 13 23  1  0  0  0  0
 14 13  1  0  0  0  0
 15 16  1  0  0  0  0
 15 14  2  0  0  0  0
 16 11  2  0  0  0  0
 19  7  1  0  0  0  0
 20  8  1  0  0  0  0
 21 10  1  0  0  0  0
 24 15  1  0  0  0  0
 25 16  1  0  0  0  0
M  CHG  1   2  -1
M  END
