2,3
q = -1.0, confidence = 0.002

 24 25  0  0  1  0  0  0  0  0999 V2000
    6.9690    0.2466   -0.3948 S   0  0  0  0  0  0  0  0  0  0  0  0
    1.1698    1.6343   -0.0798 O   0  5  0  0  0  0  0  0  0  0  0  0
    1.8357   -0.9597   -0.1085 N   0  0  0  0  0  2  0  0  0  0  0  0
    2.1287   -2.2753   -0.1297 C   0  0  0  0  0  0  0  0  0  0  0  0
    3.4890   -2.6924   -0.2220 C   0  0  0  0  0  0  0  0  0  0  0  0
    4.5256   -1.7803   -0.2816 C   0  0  0  0  0  0  0  0  0  0  0  0
    4.2403   -0.3901   -0.2475 C   0  0  0  0  0  0  0  0  0  0  0  0
    5.2325    0.6439   -0.2918 C   0  0  2  0  0  3  0  0  0  0  0  0
    4.8112    1.9790   -0.2822 C   0  0  0  0  0  0  0  0  0  0  0  0
    3.4512    2.3382   -0.2170 C   0  0  0  0  0  0  0  0  0  0  0  0
    2.4505    1.3489   -0.1518 C   0  0  0  0  0  0  0  0  0  0  0  0
    2.8577   -0.0269   -0.1672 C   0  0  0  0  0  0  0  0  0  0  0  0
    7.3614   -0.0198    1.3749 C   0  0  0  0  0  0  0  0  0  0  0  0
    1.0512   -3.3127   -0.0631 C   0  0  0  0  0  0  0  0  0  0  0  0
    3.6929   -3.7722   -0.2499 H   0  0  0  0  0  0  0  0  0  0  0  0
    5.5770   -2.0958   -0.3700 H   0  0  0  0  0  0  0  0  0  0  0  0
    5.5777    2.7676   -0.3266 H   0  0  0  0  0  0  0  0  0  0  0  0
    3.1455    3.3942   -0.2120 H   0  0  0  0  0  0  0  0  0  0  0  0
    8.4368   -0.2805    1.4256 H   0  0  0  0  0  0  0  0  0  0  0  0
    7.1816    0.9020    1.9616 H   0  0  0  0  0  0  0  0  0  0  0  0
    6.7668   -0.8534    1.7983 H   0  0  0  0  0  0  0  0  0  0  0  0
    0.3311   -3.1982   -0.8954 H   0  0  0  0  0  0  0  0  0  0  0  0
    0.4448   -3.2033    0.8559 H   0  0  0  0  0  0  0  0  0  0  0  0
    1.4965   -4.3234   -0.0950 H   0  0  0  0  0  0  0  0  0  0  0  0
  1 13  1  0  0  0  0
  4  3  1  0  0  0  0
  4 14  1  0  0  0  0
  5  4  2  0  0  0  0
  6  7  2  0  0  0  0
  6  5  1  0  0  0  0
  7 12  1  0  0  0  0
  8  1  1  6  0  0  0
  8  9  1  0  0  0  0
  8  7  1  0  0  0  0
  9 10  2  0  0  0  0
 10 18  1  0  0  0  0
 10 11  1  0  0  0  0
 11  2  1  0  0  0  0
 12 11  2  0  0  0  0
 12  3  1  0  0  0  0
 13 19  1  0  0  0  0
 13 21  1  0  0  0  0
 13 20  1  0  0  0  0
 14 23  1  0  0  0  0
 15  5  1  0  0  0  0
 16  6  1  0  0  0  0
 17  9  1  0  0  0  0
 22 14  1  0  0  0  0
 24 14  1  0  0  0  0
M  CHG  1   2  -1
M  END
