1,2,25
q = -1.0, confidence = 0.024

 28 28  0  0  0  0  0  0  0  0999 V2000
    2.8777    0.2887   -0.0666 N   0  0  0  0  0  0  0  0  0  0  0  0
    0.4939    1.7562    0.0297 N   0  0  0  0  0  2  0  0  0  0  0  0
    3.6302   -0.5401   -1.0296 C   0  0  0  0  0  0  0  0  0  0  0  0
    3.4973   -1.6023   -0.7492 H   0  0  0  0  0  0  0  0  0  0  0  0
    4.7099   -0.2661   -1.0333 H   0  0  0  0  0  0  0  0  0  0  0  0
    3.2070   -0.3995   -2.0416 H   0  0  0  0  0  0  0  0  0  0  0  0
    3.4375    0.1148    1.2886 C   0  0  0  0  0  0  0  0  0  0  0  0
    3.3341   -0.9494    1.5718 H   0  0  0  0  0  0  0  0  0  0  0  0
    2.8690    0.7195    2.0191 H   0  0  0  0  0  0  0  0  0  0  0  0
    4.5122    0.4110    1.3175 H   0  0  0  0  0  0  0  0  0  0  0  0
    2.8603    1.7178   -0.4979 C   0  0  0  0  0  0  0  0  0  0  0  0
    2.6934    1.7175   -1.5928 H   0  0  0  0  0  0  0  0  0  0  0  0
    3.8468    2.1982   -0.3024 H   0  0  0  0  0  0  0  0  0  0  0  0
    1.7319    2.5101    0.1702 C   0  0  0  0  0  0  0  0  0  0  0  0
    1.9416    2.6533    1.2536 H   0  0  0  0  0  0  0  0  0  0  0  0
    1.6528    3.5209   -0.2853 H   0  0  0  0  0  0  0  0  0  0  0  0
   -0.7235    2.2508    0.0193 C   0  0  0  0  0  0  0  0  0  0  0  0
   -0.9087    3.3381    0.0503 H   0  0  0  0  0  0  0  0  0  0  0  0
   -1.7659    1.2598   -0.0071 C   0  0  0  0  0  0  0  0  0  0  0  0
   -3.1426    1.5629   -0.0280 C   0  0  0  0  0  3  0  0  0  0  0  0
   -4.1073    0.5574   -0.0317 C   0  0  0  0  0  0  0  0  0  0  0  0
   -5.1803    0.7861   -0.0489 H   0  0  0  0  0  0  0  0  0  0  0  0
   -3.6584   -0.7706   -0.0141 C   0  0  0  0  0  0  0  0  0  0  0  0
   -2.2852   -1.1093    0.0095 C   0  0  0  0  0  0  0  0  0  0  0  0
   -1.3033   -0.1123    0.0094 C   0  0  0  0  0  3  0  0  0  0  0  0
   -3.5304    2.8549   -0.0396 F   0  0  0  0  0  0  0  0  0  0  0  0
   -4.5585   -1.7617   -0.0209 F   0  0  0  0  0  0  0  0  0  0  0  0
   -1.9840   -2.4118    0.0256 F   0  0  0  0  0  0  0  0  0  0  0  0
  1  7  1  0  0  0  0
  2 14  1  0  0  0  0
  3  4  1  0  0  0  0
  3  1  1  0  0  0  0
  5  3  1  0  0  0  0
  6  3  1  0  0  0  0
  7 10  1  0  0  0  0
  7  8  1  0  0  0  0
  7  9  1  0  0  0  0
 11 13  1  0  0  0  0
 11  1  1  0  0  0  0
 11 14  1  0  0  0  0
 12 11  1  0  0  0  0
 14 15  1  0  0  0  0
 16 14  1  0  0  0  0
 17  2  1  0  0  0  0
 17 18  1  0  0  0  0
 19 25  1  0  0  0  0
 19 17  2  0  0  0  0
 20 19  1  0  0  0  0
 21 20  1  0  0  0  0
 21 23  2  0  0  0  0
 22 21  1  0  0  0  0
 23 24  1  0  0  0  0
 24 28  1  0  0  0  0
 25 24  2  0  0  0  0
 26 20  1  0  0  0  0
 27 23  1  0  0  0  0
M  END
