2,3,8
q = -2.0, confidence = 0.864

 37 37  0  0  1  0  0  0  0  0999 V2000
   -2.5025   -1.0681   -0.0856 Si  0  0  0  0  0  0  0  0  0  0  0  0
   -0.7440   -1.1827   -0.0612 N   0  0  0  0  0  2  0  0  0  0  0  0
    1.8068   -0.8240   -0.2538 N   0  0  0  0  0  0  0  0  0  0  0  0
   -1.9239    1.6058   -1.0192 C   0  0  0  0  0  3  0  0  0  0  0  0
   -1.2089    2.7202   -0.4880 C   0  0  0  0  0  0  0  0  0  0  0  0
   -1.1992    2.5999    0.9220 C   0  0  0  0  0  0  0  0  0  0  0  0
   -1.9018    1.4085    1.2654 C   0  0  0  0  0  3  0  0  0  0  0  0
   -2.3819    0.7924    0.0645 C   0  0  2  0  0  3  0  0  0  0  0  0
   -3.3065   -1.9131    1.3934 C   0  0  0  0  0  0  0  0  0  0  0  0
   -3.2599   -1.6559   -1.7068 C   0  0  0  0  0  0  0  0  0  0  0  0
    0.0372   -2.4043   -0.1040 C   0  0  0  0  0  0  0  0  0  0  0  0
    1.4466   -2.0952    0.3808 C   0  0  0  0  0  0  0  0  0  0  0  0
    3.2213   -0.3372   -0.1055 C   0  0  0  0  0  0  0  0  0  0  0  0
    4.0397   -0.7573   -1.3304 C   0  0  0  0  0  0  0  0  0  0  0  0
    3.8814   -0.7830    1.1984 C   0  0  0  0  0  0  0  0  0  0  0  0
    1.6415   -0.9028   -1.2695 H   0  0  0  0  0  0  0  0  0  0  0  0
   -2.0411    1.3823   -2.0866 H   0  0  0  0  0  0  0  0  0  0  0  0
   -0.7082    3.4991   -1.0739 H   0  0  0  0  0  0  0  0  0  0  0  0
   -0.6881    3.2685    1.6237 H   0  0  0  0  0  0  0  0  0  0  0  0
   -2.0004    1.0032    2.2800 H   0  0  0  0  0  0  0  0  0  0  0  0
   -4.3960   -1.7058    1.4224 H   0  0  0  0  0  0  0  0  0  0  0  0
   -2.8580   -1.5580    2.3427 H   0  0  0  0  0  0  0  0  0  0  0  0
   -3.1755   -3.0138    1.3445 H   0  0  0  0  0  0  0  0  0  0  0  0
   -2.7721   -1.1617   -2.5707 H   0  0  0  0  0  0  0  0  0  0  0  0
   -3.1370   -2.7520   -1.8273 H   0  0  0  0  0  0  0  0  0  0  0  0
   -4.3460   -1.4322   -1.7434 H   0  0  0  0  0  0  0  0  0  0  0  0
   -0.4127   -3.2089    0.5227 H   0  0  0  0  0  0  0  0  0  0  0  0
    0.0783   -2.8109   -1.1464 H   0  0  0  0  0  0  0  0  0  0  0  0
    2.1533   -2.9207    0.1370 H   0  0  0  0  0  0  0  0  0  0  0  0
    1.4453   -1.9446    1.4785 H   0  0  0  0  0  0  0  0  0  0  0  0
    3.1461    0.7699   -0.0976 H   0  0  0  0  0  0  0  0  0  0  0  0
    4.1035   -1.8634   -1.4141 H   0  0  0  0  0  0  0  0  0  0  0  0
    3.5860   -0.3529   -2.2577 H   0  0  0  0  0  0  0  0  0  0  0  0
    5.0746   -0.3664   -1.2603 H   0  0  0  0  0  0  0  0  0  0  0  0
    4.0570   -1.8779    1.2241 H   0  0  0  0  0  0  0  0  0  0  0  0
    3.2757   -0.4879    2.0743 H   0  0  0  0  0  0  0  0  0  0  0  0
    4.8691   -0.2888    1.2852 H   0  0  0  0  0  0  0  0  0  0  0  0
  1  2  1  0  0  0  0
  1  9  1  0  0  0  0
  3 13  1  0  0  0  0
  3 12  1  0  0  0  0
  4  5  1  0  0  0  0
  4  8  1  0  0  0  0
  5  6  2  0  0  0  0
  6  7  1  0  0  0  0
  6 19  1  0  0  0  0
  7 20  1  0  0  0  0
  8  1  1  6  0  0  0
  8  7  1  0  0  0  0
  9 21  1  0  0  0  0
  9 22  1  0  0  0  0
 10  1  1  0  0  0  0
 11  2  1  0  0  0  0
 11 12  1  0  0  0  0
 11 27  1  0  0  0  0
 12 30  1  0  0  0  0
 13 31  1  0  0  0  0
 13 15  1  0  0  0  0
 14 34  1  0  0  0  0
 14 13  1  0  0  0  0
 15 35  1  0  0  0  0
 15 37  1  0  0  0  0
 15 36  1  0  0  0  0
 16  3  1  0  0  0  0
 17  4  1  0  0  0  0
 18  5  1  0  0  0  0
 23  9  1  0  0  0  0
 24 10  1  0  0  0  0
 25 10  1  0  0  0  0
 26 10  1  0  0  0  0
 28 11  1  0  0  0  0
 29 12  1  0  0  0  0
 32 14  1  0  0  0  0
 33 14  1  0  0  0  0
M  END
