1,2,4
q = -1.0, confidence = 0.0

 35 37  0  0  1  0  0  0  0  0999 V2000
    2.0660   -0.5127   -0.1148 N   0  0  0  0  0  2  0  0  0  0  0  0
   -2.0660   -0.5125    0.1148 N   0  0  0  0  0  2  0  0  0  0  0  0
    0.9961    2.1635    0.7205 C   0  0  0  0  0  0  0  0  0  0  0  0
    0.0001    1.4903    0.0000 C   0  0  0  0  0  3  0  0  0  0  0  0
   -0.9959    2.1636   -0.7204 C   0  0  0  0  0  0  0  0  0  0  0  0
   -0.9865    3.5725   -0.7123 C   0  0  0  0  0  0  0  0  0  0  0  0
    0.0002    4.2689    0.0001 C   0  0  0  0  0  0  0  0  0  0  0  0
    0.9868    3.5724    0.7124 C   0  0  0  0  0  0  0  0  0  0  0  0
    2.0464    1.3759    1.4799 C   0  0  0  0  0  0  0  0  0  0  0  0
    2.7831    0.3978    0.5993 C   0  0  2  0  0  3  0  0  0  0  0  0
    4.1830    0.4020    0.4938 C   0  0  0  0  0  0  0  0  0  0  0  0
    4.8310   -0.5159   -0.3412 C   0  0  0  0  0  0  0  0  0  0  0  0
    4.0632   -1.4395   -1.0631 C   0  0  0  0  0  0  0  0  0  0  0  0
    2.6761   -1.4169   -0.9234 C   0  0  0  0  0  0  0  0  0  0  0  0
   -2.0462    1.3761   -1.4799 C   0  0  0  0  0  0  0  0  0  0  0  0
   -2.7830    0.3980   -0.5994 C   0  0  2  0  0  3  0  0  0  0  0  0
   -4.1830    0.4022   -0.4942 C   0  0  0  0  0  0  0  0  0  0  0  0
   -4.8310   -0.5157    0.3407 C   0  0  0  0  0  0  0  0  0  0  0  0
   -4.0634   -1.4393    1.0628 C   0  0  0  0  0  0  0  0  0  0  0  0
   -2.6763   -1.4167    0.9233 C   0  0  0  0  0  0  0  0  0  0  0  0
   -1.7539    4.1238   -1.2775 H   0  0  0  0  0  0  0  0  0  0  0  0
    0.0002    5.3687    0.0001 H   0  0  0  0  0  0  0  0  0  0  0  0
    1.7543    4.1237    1.2776 H   0  0  0  0  0  0  0  0  0  0  0  0
    1.5643    0.8062    2.3073 H   0  0  0  0  0  0  0  0  0  0  0  0
    2.7776    2.0565    1.9520 H   0  0  0  0  0  0  0  0  0  0  0  0
    4.7551    1.1359    1.0784 H   0  0  0  0  0  0  0  0  0  0  0  0
    5.9278   -0.5097   -0.4263 H   0  0  0  0  0  0  0  0  0  0  0  0
    4.5232   -2.1827   -1.7288 H   0  0  0  0  0  0  0  0  0  0  0  0
    2.0182   -2.1416   -1.4231 H   0  0  0  0  0  0  0  0  0  0  0  0
   -1.5641    0.8064   -2.3073 H   0  0  0  0  0  0  0  0  0  0  0  0
   -2.7773    2.0568   -1.9520 H   0  0  0  0  0  0  0  0  0  0  0  0
   -4.7549    1.1361   -1.0789 H   0  0  0  0  0  0  0  0  0  0  0  0
   -5.9279   -0.5095    0.4257 H   0  0  0  0  0  0  0  0  0  0  0  0
   -4.5236   -2.1825    1.7284 H   0  0  0  0  0  0  0  0  0  0  0  0
   -2.0185   -2.1414    1.4231 H   0  0  0  0  0  0  0  0  0  0  0  0
  1 10  1  0  0  0  0
  2 20  1  0  0  0  0
  3  9  1  0  0  0  0
  4  3  2  0  0  0  0
  5  6  2  0  0  0  0
  5  4  1  0  0  0  0
  6  7  1  0  0  0  0
  7 22  1  0  0  0  0
  7  8  2  0  0  0  0
  8  3  1  0  0  0  0
  8 23  1  0  0  0  0
  9 25  1  0  0  0  0
  9 24  1  0  0  0  0
 10  9  1  6  0  0  0
 11 10  1  0  0  0  0
 11 26  1  0  0  0  0
 12 11  2  0  0  0  0
 13 14  2  0  0  0  0
 13 12  1  0  0  0  0
 14  1  1  0  0  0  0
 15  5  1  0  0  0  0
 16 15  1  1  0  0  0
 16 17  1  0  0  0  0
 16  2  1  0  0  0  0
 17 18  2  0  0  0  0
 18 33  1  0  0  0  0
 18 19  1  0  0  0  0
 19 34  1  0  0  0  0
 20 19  2  0  0  0  0
 20 35  1  0  0  0  0
 21  6  1  0  0  0  0
 27 12  1  0  0  0  0
 28 13  1  0  0  0  0
 29 14  1  0  0  0  0
 30 15  1  0  0  0  0
 31 15  1  0  0  0  0
 32 17  1  0  0  0  0
M  END
