2,4,5
q = -1.0, confidence = 0.004

 37 41  0  0  0  0  0  0  0  0999 V2000
    2.4461    1.4957   -0.1509 N   0  0  0  0  0  0  0  0  0  0  0  0
    1.6802   -0.7139   -0.8647 N   0  0  0  0  0  2  0  0  0  0  0  0
   -2.4461    1.4957   -0.1509 N   0  0  0  0  0  0  0  0  0  0  0  0
   -1.6802   -0.7139   -0.8647 N   0  0  0  0  0  2  0  0  0  0  0  0
   -0.0000    1.4519    0.1340 C   0  0  0  0  0  3  0  0  0  0  0  0
    1.1939    2.1932   -0.0471 C   0  0  0  0  0  0  0  0  0  0  0  0
    1.2097    3.5916   -0.2248 C   0  0  0  0  0  0  0  0  0  0  0  0
   -0.0000    4.2915   -0.2671 C   0  0  0  0  0  0  0  0  0  0  0  0
   -1.2097    3.5916   -0.2248 C   0  0  0  0  0  0  0  0  0  0  0  0
   -1.1939    2.1931   -0.0470 C   0  0  0  0  0  0  0  0  0  0  0  0
    3.7038    2.1011   -0.1069 C   0  0  0  0  0  0  0  0  0  0  0  0
    4.6639    1.2935   -0.6788 C   0  0  0  0  0  0  0  0  0  0  0  0
    3.9912    0.1030   -1.1173 C   0  0  0  0  0  0  0  0  0  0  0  0
    4.3651   -1.0841   -1.7705 C   0  0  0  0  0  0  0  0  0  0  0  0
    3.3684   -2.0403   -2.0045 C   0  0  0  0  0  0  0  0  0  0  0  0
    2.0628   -1.8309   -1.5278 C   0  0  0  0  0  3  0  0  0  0  0  0
    2.6154    0.2498   -0.7383 C   0  0  0  0  0  0  0  0  0  0  0  0
   -3.7038    2.1011   -0.1069 C   0  0  0  0  0  0  0  0  0  0  0  0
   -4.6639    1.2935   -0.6788 C   0  0  0  0  0  0  0  0  0  0  0  0
   -3.9912    0.1030   -1.1173 C   0  0  0  0  0  0  0  0  0  0  0  0
   -4.3651   -1.0841   -1.7705 C   0  0  0  0  0  0  0  0  0  0  0  0
   -3.3684   -2.0404   -2.0045 C   0  0  0  0  0  0  0  0  0  0  0  0
   -2.0628   -1.8309   -1.5278 C   0  0  0  0  0  3  0  0  0  0  0  0
   -2.6154    0.2498   -0.7383 C   0  0  0  0  0  0  0  0  0  0  0  0
    2.1521    4.1341   -0.3789 H   0  0  0  0  0  0  0  0  0  0  0  0
   -0.0000    5.3825   -0.4049 H   0  0  0  0  0  0  0  0  0  0  0  0
   -2.1522    4.1340   -0.3789 H   0  0  0  0  0  0  0  0  0  0  0  0
    3.8142    3.0866    0.3551 H   0  0  0  0  0  0  0  0  0  0  0  0
    5.7333    1.5157   -0.7546 H   0  0  0  0  0  0  0  0  0  0  0  0
    5.4058   -1.2577   -2.0825 H   0  0  0  0  0  0  0  0  0  0  0  0
    3.5992   -2.9846   -2.5169 H   0  0  0  0  0  0  0  0  0  0  0  0
    1.2986   -2.6146   -1.6254 H   0  0  0  0  0  0  0  0  0  0  0  0
   -3.8143    3.0865    0.3551 H   0  0  0  0  0  0  0  0  0  0  0  0
   -5.7333    1.5157   -0.7546 H   0  0  0  0  0  0  0  0  0  0  0  0
   -5.4058   -1.2577   -2.0825 H   0  0  0  0  0  0  0  0  0  0  0  0
   -3.5991   -2.9846   -2.5170 H   0  0  0  0  0  0  0  0  0  0  0  0
   -1.2986   -2.6146   -1.6254 H   0  0  0  0  0  0  0  0  0  0  0  0
  1 11  1  0  0  0  0
  1  6  1  0  0  0  0
  2 17  1  0  0  0  0
  3 18  1  0  0  0  0
  3 10  1  0  0  0  0
  4 24  1  0  0  0  0
  6  5  2  0  0  0  0
  7  6  1  0  0  0  0
  8  7  2  0  0  0  0
  8  9  1  0  0  0  0
  9 10  2  0  0  0  0
 10  5  1  0  0  0  0
 11 28  1  0  0  0  0
 12 11  2  0  0  0  0
 13 17  2  0  0  0  0
 13 12  1  0  0  0  0
 14 13  1  0  0  0  0
 15 14  2  0  0  0  0
 15 16  1  0  0  0  0
 16  2  1  0  0  0  0
 17  1  1  0  0  0  0
 18 33  1  0  0  0  0
 19 18  2  0  0  0  0
 20 24  2  0  0  0  0
 20 19  1  0  0  0  0
 21 20  1  0  0  0  0
 22 21  2  0  0  0  0
 22 23  1  0  0  0  0
 23  4  1  0  0  0  0
 24  3  1  0  0  0  0
 25  7  1  0  0  0  0
 26  8  1  0  0  0  0
 27  9  1  0  0  0  0
 29 12  1  0  0  0  0
 30 14  1  0  0  0  0
 31 15  1  0  0  0  0
 32 16  1  0  0  0  0
 34 19  1  0  0  0  0
 35 21  1  0  0  0  0
 36 22  1  0  0  0  0
 37 23  1  0  0  0  0
M  END
