3,4,21
q = -1.0, confidence = 0.0

 37 41  0  0  0  0  0  0  0  0999 V2000
   -0.0000    5.4596   -0.2488 F   0  0  0  0  0  0  0  0  0  0  0  0
   -2.4451    1.3443   -0.1106 N   0  0  0  0  0  0  0  0  0  0  0  0
   -1.6813   -0.8527   -0.8701 N   0  0  0  0  0  2  0  0  0  0  0  0
   -0.0000    1.2879    0.1760 C   0  0  0  0  0  3  0  0  0  0  0  0
   -1.1936    2.0343    0.0180 C   0  0  0  0  0  0  0  0  0  0  0  0
   -1.2173    3.4383   -0.1134 C   0  0  0  0  0  0  0  0  0  0  0  0
   -0.0000    4.1173   -0.1296 C   0  0  0  0  0  0  0  0  0  0  0  0
   -3.7013    1.9540   -0.0642 C   0  0  0  0  0  0  0  0  0  0  0  0
   -4.6591    1.1618   -0.6593 C   0  0  0  0  0  0  0  0  0  0  0  0
   -3.9871   -0.0220   -1.1179 C   0  0  0  0  0  0  0  0  0  0  0  0
   -4.3622   -1.1928   -1.7991 C   0  0  0  0  0  0  0  0  0  0  0  0
   -3.3680   -2.1478   -2.0478 C   0  0  0  0  0  0  0  0  0  0  0  0
   -2.0644   -1.9535   -1.5597 C   0  0  0  0  0  3  0  0  0  0  0  0
   -2.6139    0.1109   -0.7267 C   0  0  0  0  0  0  0  0  0  0  0  0
   -2.1399    4.0136   -0.2580 H   0  0  0  0  0  0  0  0  0  0  0  0
   -3.8121    2.9302    0.4168 H   0  0  0  0  0  0  0  0  0  0  0  0
   -5.7270    1.3895   -0.7390 H   0  0  0  0  0  0  0  0  0  0  0  0
   -5.4016   -1.3547   -2.1213 H   0  0  0  0  0  0  0  0  0  0  0  0
   -3.5992   -3.0797   -2.5822 H   0  0  0  0  0  0  0  0  0  0  0  0
   -1.3022   -2.7373   -1.6710 H   0  0  0  0  0  0  0  0  0  0  0  0
    1.6813   -0.8527   -0.8701 N   0  0  0  0  0  2  0  0  0  0  0  0
    2.0645   -1.9535   -1.5597 C   0  0  0  0  0  3  0  0  0  0  0  0
    3.3680   -2.1477   -2.0479 C   0  0  0  0  0  0  0  0  0  0  0  0
    4.3622   -1.1927   -1.7991 C   0  0  0  0  0  0  0  0  0  0  0  0
    3.9871   -0.0219   -1.1179 C   0  0  0  0  0  0  0  0  0  0  0  0
    4.6591    1.1618   -0.6593 C   0  0  0  0  0  0  0  0  0  0  0  0
    3.7012    1.9541   -0.0641 C   0  0  0  0  0  0  0  0  0  0  0  0
    2.4450    1.3443   -0.1106 N   0  0  0  0  0  0  0  0  0  0  0  0
    1.1936    2.0343    0.0180 C   0  0  0  0  0  0  0  0  0  0  0  0
    1.2172    3.4383   -0.1134 C   0  0  0  0  0  0  0  0  0  0  0  0
    2.1398    4.0136   -0.2580 H   0  0  0  0  0  0  0  0  0  0  0  0
    2.6138    0.1109   -0.7267 C   0  0  0  0  0  0  0  0  0  0  0  0
    3.8120    2.9303    0.4169 H   0  0  0  0  0  0  0  0  0  0  0  0
    5.7270    1.3896   -0.7389 H   0  0  0  0  0  0  0  0  0  0  0  0
    5.4016   -1.3546   -2.1213 H   0  0  0  0  0  0  0  0  0  0  0  0
    3.5993   -3.0796   -2.5823 H   0  0  0  0  0  0  0  0  0  0  0  0
    1.3022   -2.7373   -1.6711 H   0  0  0  0  0  0  0  0  0  0  0  0
  1  7  1  0  0  0  0
  2  8  1  0  0  0  0
  2  5  1  0  0  0  0
  3 14  1  0  0  0  0
  5  4  1  0  0  0  0
  6  5  2  0  0  0  0
  7 30  2  0  0  0  0
  7  6  1  0  0  0  0
  8 16  1  0  0  0  0
  9  8  2  0  0  0  0
 10 14  2  0  0  0  0
 10  9  1  0  0  0  0
 11 10  1  0  0  0  0
 12 11  2  0  0  0  0
 12 13  1  0  0  0  0
 13  3  1  0  0  0  0
 14  2  1  0  0  0  0
 15  6  1  0  0  0  0
 17  9  1  0  0  0  0
 18 11  1  0  0  0  0
 19 12  1  0  0  0  0
 20 13  1  0  0  0  0
 21 32  1  0  0  0  0
 22 21  1  0  0  0  0
 23 24  2  0  0  0  0
 23 22  1  0  0  0  0
 24 25  1  0  0  0  0
 25 32  2  0  0  0  0
 25 26  1  0  0  0  0
 26 27  2  0  0  0  0
 27 33  1  0  0  0  0
 28 27  1  0  0  0  0
 28 29  1  0  0  0  0
 29  4  2  0  0  0  0
 30 29  1  0  0  0  0
 31 30  1  0  0  0  0
 32 28  1  0  0  0  0
 34 26  1  0  0  0  0
 35 24  1  0  0  0  0
 36 23  1  0  0  0  0
 37 22  1  0  0  0  0
M  END
