1,2,28
q = -1.0, confidence = 0.002

 28 28  0  0  0  0  0  0  0  0999 V2000
    1.2158    2.2041   -0.1109 N   0  0  0  0  0  0  0  0  0  0  0  0
   -1.5517    1.6798   -0.0202 N   0  0  0  0  0  2  0  0  0  0  0  0
    1.6536    2.6267    1.2307 C   0  0  0  0  0  0  0  0  0  0  0  0
    2.3493    1.8690    1.6359 H   0  0  0  0  0  0  0  0  0  0  0  0
    0.7867    2.6946    1.9134 H   0  0  0  0  0  0  0  0  0  0  0  0
    2.1724    3.6146    1.1933 H   0  0  0  0  0  0  0  0  0  0  0  0
    2.3827    2.0555   -0.9998 C   0  0  0  0  0  0  0  0  0  0  0  0
    2.0475    1.6874   -1.9873 H   0  0  0  0  0  0  0  0  0  0  0  0
    3.0674    1.3007   -0.5699 H   0  0  0  0  0  0  0  0  0  0  0  0
    2.9232    3.0234   -1.1249 H   0  0  0  0  0  0  0  0  0  0  0  0
    0.2318    3.1622   -0.6968 C   0  0  0  0  0  0  0  0  0  0  0  0
    0.1344    2.9005   -1.7688 H   0  0  0  0  0  0  0  0  0  0  0  0
    0.6238    4.2051   -0.6336 H   0  0  0  0  0  0  0  0  0  0  0  0
   -1.1577    3.0715   -0.0441 C   0  0  0  0  0  0  0  0  0  0  0  0
   -1.1193    3.4563    1.0001 H   0  0  0  0  0  0  0  0  0  0  0  0
   -1.8745    3.7171   -0.5998 H   0  0  0  0  0  0  0  0  0  0  0  0
   -2.7541    1.1760   -0.0619 C   0  0  0  0  0  0  0  0  0  0  0  0
   -3.6579    1.8135   -0.1386 H   0  0  0  0  0  0  0  0  0  0  0  0
   -2.8275   -0.2740    0.0037 C   0  0  0  0  0  0  0  0  0  0  0  0
   -4.0495   -0.9810    0.0016 C   0  0  0  0  0  3  0  0  0  0  0  0
   -5.0006   -0.4271   -0.0600 H   0  0  0  0  0  0  0  0  0  0  0  0
   -4.0470   -2.3782    0.0813 C   0  0  0  0  0  0  0  0  0  0  0  0
   -4.9948   -2.9368    0.0803 H   0  0  0  0  0  0  0  0  0  0  0  0
   -2.8189   -3.0614    0.1642 C   0  0  0  0  0  0  0  0  0  0  0  0
   -2.8150   -4.1616    0.2271 H   0  0  0  0  0  0  0  0  0  0  0  0
   -1.5948   -2.3677    0.1673 C   0  0  0  0  0  0  0  0  0  0  0  0
   -0.6507   -2.9288    0.2296 H   0  0  0  0  0  0  0  0  0  0  0  0
   -1.5571   -0.9629    0.0825 C   0  0  0  0  0  3  0  0  0  0  0  0
  1  3  1  0  0  0  0
  3  4  1  0  0  0  0
  3  5  1  0  0  0  0
  6  3  1  0  0  0  0
  7  9  1  0  0  0  0
  7  1  1  0  0  0  0
  8  7  1  0  0  0  0
 10  7  1  0  0  0  0
 11 13  1  0  0  0  0
 11  1  1  0  0  0  0
 11 14  1  0  0  0  0
 12 11  1  0  0  0  0
 14  2  1  0  0  0  0
 14 15  1  0  0  0  0
 16 14  1  0  0  0  0
 17  2  1  0  0  0  0
 17 19  2  0  0  0  0
 18 17  1  0  0  0  0
 19 28  1  0  0  0  0
 20 19  1  0  0  0  0
 20 22  1  0  0  0  0
 21 20  1  0  0  0  0
 22 24  2  0  0  0  0
 23 22  1  0  0  0  0
 24 26  1  0  0  0  0
 24 25  1  0  0  0  0
 26 27  1  0  0  0  0
 28 26  2  0  0  0  0
M  END
