1,11,30
q = -1.0, confidence = 0.084

 47 51  0  0  1  0  0  0  0  0999 V2000
    0.0001    1.8838   -0.0001 C   0  0  0  0  0  2  0  0  0  0  0  0
    1.0866    2.5785   -0.5722 C   0  0  0  0  0  0  0  0  0  0  0  0
    1.0872    3.9877   -0.5806 C   0  0  0  0  0  0  0  0  0  0  0  0
    1.9209    4.5512   -1.0283 H   0  0  0  0  0  0  0  0  0  0  0  0
    0.0003    4.6735    0.0001 C   0  0  0  0  0  0  0  0  0  0  0  0
    0.0003    5.7734    0.0002 H   0  0  0  0  0  0  0  0  0  0  0  0
   -1.0868    3.9877    0.5808 C   0  0  0  0  0  0  0  0  0  0  0  0
   -1.9203    4.5512    1.0287 H   0  0  0  0  0  0  0  0  0  0  0  0
   -1.0863    2.5785    0.5721 C   0  0  0  0  0  0  0  0  0  0  0  0
    2.0316    1.5869   -1.0578 C   0  0  2  0  0  3  0  0  0  0  0  0
    1.6650    0.3248   -0.8622 N   0  0  0  0  0  2  0  0  0  0  0  0
    3.5873    1.8424   -1.8144 S   0  0  0  0  0  0  0  0  0  0  0  0
    3.6442    0.0367   -2.2081 C   0  0  0  0  0  0  0  0  0  0  0  0
    3.2722   -0.0928   -3.2441 H   0  0  0  0  0  0  0  0  0  0  0  0
    4.6891   -0.3178   -2.1394 H   0  0  0  0  0  0  0  0  0  0  0  0
    2.7182   -0.6436   -1.1718 C   0  0  1  0  0  0  0  0  0  0  0  0
    2.2410   -1.5406   -1.6177 H   0  0  0  0  0  0  0  0  0  0  0  0
    3.4636   -1.0870    0.0833 C   0  0  0  0  0  0  0  0  0  0  0  0
    3.3880   -0.3761    1.2932 C   0  0  0  0  0  0  0  0  0  0  0  0
    2.7295    0.5009    1.3682 H   0  0  0  0  0  0  0  0  0  0  0  0
    4.1253   -0.7974    2.4107 C   0  0  0  0  0  0  0  0  0  0  0  0
    4.0535   -0.2334    3.3531 H   0  0  0  0  0  0  0  0  0  0  0  0
    4.9429   -1.9343    2.3322 C   0  0  0  0  0  0  0  0  0  0  0  0
    5.5170   -2.2659    3.2106 H   0  0  0  0  0  0  0  0  0  0  0  0
    5.0153   -2.6549    1.1288 C   0  0  0  0  0  0  0  0  0  0  0  0
    5.6419   -3.5573    1.0614 H   0  0  0  0  0  0  0  0  0  0  0  0
    4.2776   -2.2341    0.0143 C   0  0  0  0  0  0  0  0  0  0  0  0
    4.3225   -2.8133   -0.9223 H   0  0  0  0  0  0  0  0  0  0  0  0
   -2.0314    1.5870    1.0578 C   0  0  0  0  0  0  0  0  0  0  0  0
   -1.6648    0.3249    0.8620 N   0  0  0  0  0  2  0  0  0  0  0  0
   -3.5869    1.8425    1.8146 S   0  0  0  0  0  0  0  0  0  0  0  0
   -3.6439    0.0368    2.2082 C   0  0  0  0  0  0  0  0  0  0  0  0
   -3.2716   -0.0927    3.2441 H   0  0  0  0  0  0  0  0  0  0  0  0
   -4.6888   -0.3176    2.1398 H   0  0  0  0  0  0  0  0  0  0  0  0
   -2.7182   -0.6435    1.1716 C   0  0  1  0  0  0  0  0  0  0  0  0
   -2.2409   -1.5406    1.6173 H   0  0  0  0  0  0  0  0  0  0  0  0
   -3.4638   -1.0867   -0.0834 C   0  0  0  0  0  0  0  0  0  0  0  0
   -3.3876   -0.3764   -1.2936 C   0  0  0  0  0  0  0  0  0  0  0  0
   -2.7284    0.5001   -1.3689 H   0  0  0  0  0  0  0  0  0  0  0  0
   -4.1251   -0.7975   -2.4110 C   0  0  0  0  0  0  0  0  0  0  0  0
   -4.0528   -0.2339   -3.3536 H   0  0  0  0  0  0  0  0  0  0  0  0
   -4.9436   -1.9337   -2.3321 C   0  0  0  0  0  0  0  0  0  0  0  0
   -5.5179   -2.2653   -3.2104 H   0  0  0  0  0  0  0  0  0  0  0  0
   -5.0167   -2.6538   -1.1284 C   0  0  0  0  0  0  0  0  0  0  0  0
   -5.6441   -3.5557   -1.0607 H   0  0  0  0  0  0  0  0  0  0  0  0
   -4.2788   -2.2331   -0.0140 C   0  0  0  0  0  0  0  0  0  0  0  0
   -4.3243   -2.8118    0.9228 H   0  0  0  0  0  0  0  0  0  0  0  0
  1  9  1  0  0  0  0
  2  1  1  0  0  0  0
  3  2  2  0  0  0  0
  3  5  1  0  0  0  0
  4  3  1  0  0  0  0
  5  6  1  0  0  0  0
  5  7  2  0  0  0  0
  7  8  1  0  0  0  0
  9  7  1  0  0  0  0
  9 29  2  0  0  0  0
 10 11  1  0  0  0  0
 10  2  1  1  0  0  0
 12 10  1  0  0  0  0
 13 15  1  0  0  0  0
 13 12  1  0  0  0  0
 13 16  1  0  0  0  0
 14 13  1  0  0  0  0
 16 17  1  6  0  0  0
 16 11  1  0  0  0  0
 16 18  1  0  0  0  0
 18 19  1  0  0  0  0
 19 20  1  0  0  0  0
 19 21  2  0  0  0  0
 21 22  1  0  0  0  0
 23 21  1  0  0  0  0
 23 24  1  0  0  0  0
 25 23  2  0  0  0  0
 26 25  1  0  0  0  0
 27 18  2  0  0  0  0
 27 25  1  0  0  0  0
 28 27  1  0  0  0  0
 29 31  1  0  0  0  0
 30 29  1  0  0  0  0
 30 35  1  0  0  0  0
 31 32  1  0  0  0  0
 32 33  1  0  0  0  0
 34 32  1  0  0  0  0
 35 36  1  1  0  0  0
 35 32  1  0  0  0  0
 37 46  1  0  0  0  0
 37 35  1  0  0  0  0
 38 37  2  0  0  0  0
 39 38  1  0  0  0  0
 40 42  2  0  0  0  0
 40 38  1  0  0  0  0
 41 40  1  0  0  0  0
 42 44  1  0  0  0  0
 43 42  1  0  0  0  0
 44 45  1  0  0  0  0
 44 46  2  0  0  0  0
 46 47  1  0  0  0  0
M  END
