2,3,25
q = -2.0, confidence = 0.588

 38 40  0  0  1  0  0  0  0  0999 V2000
    2.1364   -2.4988   -1.3840 O   0  0  0  0  0  0  0  0  0  0  0  0
   -2.0912   -0.5620    0.3390 N   0  0  0  0  0  2  0  0  0  0  0  0
    0.2958   -1.2781   -0.6519 N   0  0  0  0  0  2  0  0  0  0  0  0
   -3.2477   -0.1441    0.8537 C   0  0  0  0  0  0  0  0  0  0  0  0
   -3.3782    0.9460    0.9525 H   0  0  0  0  0  0  0  0  0  0  0  0
   -4.2666   -1.0377    1.2624 C   0  0  0  0  0  0  0  0  0  0  0  0
   -5.2032   -0.6402    1.6789 H   0  0  0  0  0  0  0  0  0  0  0  0
   -4.0544   -2.4021    1.1305 C   0  0  0  0  0  0  0  0  0  0  0  0
   -4.8253   -3.1254    1.4393 H   0  0  0  0  0  0  0  0  0  0  0  0
   -2.8270   -2.8875    0.5967 C   0  0  0  0  0  0  0  0  0  0  0  0
   -2.5275   -4.2679    0.4391 C   0  0  0  0  0  0  0  0  0  0  0  0
   -3.2751   -5.0190    0.7343 H   0  0  0  0  0  0  0  0  0  0  0  0
   -1.2935   -4.6404   -0.0851 C   0  0  0  0  0  0  0  0  0  0  0  0
   -1.0578   -5.7090   -0.2074 H   0  0  0  0  0  0  0  0  0  0  0  0
    3.2808   -0.1084   -2.4069 C   0  0  0  0  0  0  0  0  0  0  0  0
    2.6842   -0.0918   -3.3404 H   0  0  0  0  0  0  0  0  0  0  0  0
    3.8642   -1.0498   -2.4114 H   0  0  0  0  0  0  0  0  0  0  0  0
    3.9716    0.7581   -2.4157 H   0  0  0  0  0  0  0  0  0  0  0  0
   -0.3198   -3.6919   -0.4720 C   0  0  0  0  0  0  0  0  0  0  0  0
    0.6488   -4.0007   -0.8816 H   0  0  0  0  0  0  0  0  0  0  0  0
   -1.8481   -1.9090    0.2035 C   0  0  2  0  0  3  0  0  0  0  0  0
   -0.5696   -2.3121   -0.3374 C   0  0  0  0  0  0  0  0  0  0  0  0
    1.5934   -1.4294   -1.1079 C   0  0  0  0  0  0  0  0  0  0  0  0
    2.3443   -0.0618   -1.1891 C   0  0  2  0  0  0  0  0  0  0  0  0
    1.3178    1.0839   -1.3292 C   0  0  0  0  0  3  0  0  0  0  0  0
    1.0436    1.2182   -2.3982 H   0  0  0  0  0  0  0  0  0  0  0  0
    1.7234    2.0459   -0.9489 H   0  0  0  0  0  0  0  0  0  0  0  0
    3.1264    0.0348    0.1341 C   0  0  0  0  0  0  0  0  0  0  0  0
    2.5066    0.5063    1.3128 C   0  0  0  0  0  0  0  0  0  0  0  0
    1.4455    0.8060    1.2694 H   0  0  0  0  0  0  0  0  0  0  0  0
    3.1994    0.5666    2.5302 C   0  0  0  0  0  0  0  0  0  0  0  0
    2.6851    0.9371    3.4309 H   0  0  0  0  0  0  0  0  0  0  0  0
    4.5382    0.1515    2.6031 C   0  0  0  0  0  0  0  0  0  0  0  0
    5.0863    0.1980    3.5566 H   0  0  0  0  0  0  0  0  0  0  0  0
    5.1660   -0.3302    1.4453 C   0  0  0  0  0  0  0  0  0  0  0  0
    6.2135   -0.6671    1.4854 H   0  0  0  0  0  0  0  0  0  0  0  0
    4.4679   -0.3912    0.2290 C   0  0  0  0  0  0  0  0  0  0  0  0
    4.9820   -0.7815   -0.6593 H   0  0  0  0  0  0  0  0  0  0  0  0
  1 23  2  0  0  0  0
  2  4  1  0  0  0  0
  3 22  1  0  0  0  0
  4  5  1  0  0  0  0
  4  6  2  0  0  0  0
  6  7  1  0  0  0  0
  8  6  1  0  0  0  0
  8  9  1  0  0  0  0
 10  8  2  0  0  0  0
 11 10  1  0  0  0  0
 11 12  1  0  0  0  0
 13 11  2  0  0  0  0
 14 13  1  0  0  0  0
 15 24  1  0  0  0  0
 16 15  1  0  0  0  0
 17 15  1  0  0  0  0
 18 15  1  0  0  0  0
 19 22  2  0  0  0  0
 19 13  1  0  0  0  0
 20 19  1  0  0  0  0
 21 22  1  1  0  0  0
 21  2  1  0  0  0  0
 21 10  1  0  0  0  0
 23  3  1  0  0  0  0
 24 25  1  6  0  0  0
 24 23  1  0  0  0  0
 24 28  1  0  0  0  0
 25 27  1  0  0  0  0
 26 25  1  0  0  0  0
 28 37  2  0  0  0  0
 28 29  1  0  0  0  0
 29 31  2  0  0  0  0
 30 29  1  0  0  0  0
 31 33  1  0  0  0  0
 31 32  1  0  0  0  0
 33 34  1  0  0  0  0
 35 36  1  0  0  0  0
 35 33  2  0  0  0  0
 37 35  1  0  0  0  0
 38 37  1  0  0  0  0
M  END
