2,3,21
q = -2.0, confidence = 0.738

 64 68  0  0  1  0  0  0  0  0999 V2000
   -0.2954    1.9489    0.9881 O   0  0  0  0  0  0  0  0  0  0  0  0
   -4.5511   -0.1344   -0.4092 N   0  0  0  0  0  2  0  0  0  0  0  0
   -2.0948    0.6707    0.2746 N   0  0  0  0  0  2  0  0  0  0  0  0
   -5.7501   -0.6067   -0.7554 C   0  0  0  0  0  0  0  0  0  0  0  0
   -5.8022   -1.6711   -1.0310 H   0  0  0  0  0  0  0  0  0  0  0  0
   -6.9072    0.2064   -0.7711 C   0  0  0  0  0  0  0  0  0  0  0  0
   -7.8717   -0.2312   -1.0647 H   0  0  0  0  0  0  0  0  0  0  0  0
   -6.7959    1.5421   -0.4124 C   0  0  0  0  0  0  0  0  0  0  0  0
   -7.6781    2.2013   -0.4135 H   0  0  0  0  0  0  0  0  0  0  0  0
   -5.5336    2.0792   -0.0363 C   0  0  0  0  0  0  0  0  0  0  0  0
   -5.3334    3.4348    0.3443 C   0  0  0  0  0  0  0  0  0  0  0  0
   -6.1905    4.1241    0.3534 H   0  0  0  0  0  0  0  0  0  0  0  0
   -4.0574    3.8603    0.6940 C   0  0  0  0  0  0  0  0  0  0  0  0
   -3.8973    4.9090    0.9883 H   0  0  0  0  0  0  0  0  0  0  0  0
   -2.9413    2.9899    0.6843 C   0  0  0  0  0  0  0  0  0  0  0  0
   -1.9413    3.3417    0.9616 H   0  0  0  0  0  0  0  0  0  0  0  0
   -3.0895    1.6406    0.3160 C   0  0  0  0  0  0  0  0  0  0  0  0
   -4.4079    1.1851   -0.0498 C   0  0  1  0  0  3  0  0  0  0  0  0
   -0.7745    0.8675    0.6419 C   0  0  0  0  0  0  0  0  0  0  0  0
    0.0333   -0.4554    0.6659 C   0  0  2  0  0  0  0  0  0  0  0  0
   -0.6173   -1.5020   -0.2515 C   0  0  0  0  0  3  0  0  0  0  0  0
   -0.4255   -2.5353    0.0883 H   0  0  0  0  0  0  0  0  0  0  0  0
   -0.2813   -1.4118   -1.3043 H   0  0  0  0  0  0  0  0  0  0  0  0
   -0.0065   -0.9128    2.1528 C   0  0  0  0  0  0  0  0  0  0  0  0
   -1.0367   -1.2439    2.4032 H   0  0  0  0  0  0  0  0  0  0  0  0
    0.2114   -0.0251    2.7844 H   0  0  0  0  0  0  0  0  0  0  0  0
    1.0158   -2.0054    2.4654 C   0  0  0  0  0  0  0  0  0  0  0  0
    0.9681   -2.2572    3.5457 H   0  0  0  0  0  0  0  0  0  0  0  0
    0.7538   -2.9431    1.9293 H   0  0  0  0  0  0  0  0  0  0  0  0
    2.4381   -1.5694    2.1007 C   0  0  0  0  0  0  0  0  0  0  0  0
    3.1483   -2.3831    2.3535 H   0  0  0  0  0  0  0  0  0  0  0  0
    2.7245   -0.6947    2.7244 H   0  0  0  0  0  0  0  0  0  0  0  0
    2.5853   -1.1719    0.6088 C   0  0  1  0  0  0  0  0  0  0  0  0
    1.5020   -0.0978    0.2921 C   0  0  1  0  0  0  0  0  0  0  0  0
    1.7208    0.7556    0.9745 H   0  0  0  0  0  0  0  0  0  0  0  0
    1.6692    0.4534   -1.1271 C   0  0  0  0  0  0  0  0  0  0  0  0
    0.8203    1.1169   -1.3884 H   0  0  0  0  0  0  0  0  0  0  0  0
    1.6694   -0.3693   -1.8729 H   0  0  0  0  0  0  0  0  0  0  0  0
    2.9762    1.2404   -1.2056 C   0  0  0  0  0  0  0  0  0  0  0  0
    3.2340    1.4892   -2.2568 H   0  0  0  0  0  0  0  0  0  0  0  0
    2.8273    2.2175   -0.6925 H   0  0  0  0  0  0  0  0  0  0  0  0
    4.1486    0.5385   -0.5488 C   0  0  0  0  0  0  0  0  0  0  0  0
    3.9719   -0.5547    0.3377 C   0  0  0  0  0  0  0  0  0  0  0  0
    5.1242   -1.1193    0.9228 C   0  0  0  0  0  0  0  0  0  0  0  0
    5.0206   -1.9768    1.6041 H   0  0  0  0  0  0  0  0  0  0  0  0
    6.4073   -0.6264    0.6599 C   0  0  0  0  0  0  0  0  0  0  0  0
    7.2822   -1.0941    1.1401 H   0  0  0  0  0  0  0  0  0  0  0  0
    6.5948    0.4600   -0.2146 C   0  0  0  0  0  0  0  0  0  0  0  0
    5.4482    1.0193   -0.8029 C   0  0  0  0  0  0  0  0  0  0  0  0
    5.5556    1.8716   -1.4950 H   0  0  0  0  0  0  0  0  0  0  0  0
    2.4916   -2.4420   -0.2726 C   0  0  0  0  0  0  0  0  0  0  0  0
    1.5647   -3.0179   -0.0918 H   0  0  0  0  0  0  0  0  0  0  0  0
    3.3514   -3.1077   -0.0582 H   0  0  0  0  0  0  0  0  0  0  0  0
    2.5343   -2.1958   -1.3510 H   0  0  0  0  0  0  0  0  0  0  0  0
    7.9856    1.0030   -0.5108 C   0  0  0  0  0  0  0  0  0  0  0  0
    8.7013    0.3843    0.0742 H   0  0  0  0  0  0  0  0  0  0  0  0
    8.1396    2.4595   -0.0411 C   0  0  0  0  0  0  0  0  0  0  0  0
    7.4542    3.1334   -0.5962 H   0  0  0  0  0  0  0  0  0  0  0  0
    9.1744    2.8238   -0.2081 H   0  0  0  0  0  0  0  0  0  0  0  0
    7.9065    2.5614    1.0376 H   0  0  0  0  0  0  0  0  0  0  0  0
    8.3506    0.8540   -1.9974 C   0  0  0  0  0  0  0  0  0  0  0  0
    8.2700   -0.2008   -2.3280 H   0  0  0  0  0  0  0  0  0  0  0  0
    9.3879    1.1989   -2.1884 H   0  0  0  0  0  0  0  0  0  0  0  0
    7.6746    1.4580   -2.6378 H   0  0  0  0  0  0  0  0  0  0  0  0
  3 17  1  0  0  0  0
  3 19  1  0  0  0  0
  4  2  1  0  0  0  0
  5  4  1  0  0  0  0
  6  4  2  0  0  0  0
  6  8  1  0  0  0  0
  7  6  1  0  0  0  0
  8 10  2  0  0  0  0
  9  8  1  0  0  0  0
 10 11  1  0  0  0  0
 11 12  1  0  0  0  0
 11 13  2  0  0  0  0
 13 14  1  0  0  0  0
 15 13  1  0  0  0  0
 15 16  1  0  0  0  0
 17 15  2  0  0  0  0
 18  2  1  1  0  0  0
 18 10  1  0  0  0  0
 18 17  1  0  0  0  0
 19 20  1  0  0  0  0
 19  1  2  0  0  0  0
 20 21  1  6  0  0  0
 20 24  1  0  0  0  0
 21 22  1  0  0  0  0
 23 21  1  0  0  0  0
 24 25  1  0  0  0  0
 24 27  1  0  0  0  0
 24 26  1  0  0  0  0
 27 28  1  0  0  0  0
 29 27  1  0  0  0  0
 30 31  1  0  0  0  0
 30 27  1  0  0  0  0
 30 32  1  0  0  0  0
 33 51  1  6  0  0  0
 33 30  1  0  0  0  0
 34 33  1  0  0  0  0
 34 20  1  0  0  0  0
 34 35  1  1  0  0  0
 36 34  1  0  0  0  0
 37 36  1  0  0  0  0
 38 36  1  0  0  0  0
 39 36  1  0  0  0  0
 39 41  1  0  0  0  0
 39 42  1  0  0  0  0
 40 39  1  0  0  0  0
 42 43  1  0  0  0  0
 43 33  1  0  0  0  0
 43 44  2  0  0  0  0
 44 45  1  0  0  0  0
 46 44  1  0  0  0  0
 46 47  1  0  0  0  0
 48 46  2  0  0  0  0
 49 42  2  0  0  0  0
 49 48  1  0  0  0  0
 50 49  1  0  0  0  0
 51 52  1  0  0  0  0
 51 53  1  0  0  0  0
 54 51  1  0  0  0  0
 55 48  1  0  0  0  0
 55 57  1  0  0  0  0
 55 56  1  0  0  0  0
 57 60  1  0  0  0  0
 58 57  1  0  0  0  0
 59 57  1  0  0  0  0
 61 55  1  0  0  0  0
 62 61  1  0  0  0  0
 63 61  1  0  0  0  0
 64 61  1  0  0  0  0
M  END
