2,3,5
q = -1.0, confidence = 0.03

 35 37  0  0  0  0  0  0  0  0999 V2000
   -2.8501    1.0232    0.0038 N   0  0  0  0  0  0  0  0  0  0  0  0
   -1.5690    1.1142    0.0633 N   0  0  0  0  0  2  0  0  0  0  0  0
    1.1315    1.0632    0.0238 N   0  0  0  0  0  2  0  0  0  0  0  0
    2.3436    1.1120   -0.3750 N   0  0  0  0  0  2  0  0  0  0  0  0
   -2.2246   -1.3211   -0.0683 C   0  0  0  0  0  2  0  0  0  0  0  0
   -2.6333   -2.6563   -0.1748 C   0  0  0  0  0  0  0  0  0  0  0  0
   -1.8712   -3.4490   -0.1871 H   0  0  0  0  0  0  0  0  0  0  0  0
   -4.0044   -2.9697   -0.2450 C   0  0  0  0  0  0  0  0  0  0  0  0
   -4.3104   -4.0258   -0.3109 H   0  0  0  0  0  0  0  0  0  0  0  0
   -4.9938   -1.9634   -0.2255 C   0  0  0  0  0  0  0  0  0  0  0  0
   -6.0577   -2.2370   -0.2837 H   0  0  0  0  0  0  0  0  0  0  0  0
   -4.6194   -0.6224   -0.1339 C   0  0  0  0  0  0  0  0  0  0  0  0
   -5.3594    0.1909   -0.1265 H   0  0  0  0  0  0  0  0  0  0  0  0
   -3.2433   -0.2960   -0.0574 C   0  0  0  0  0  0  0  0  0  0  0  0
   -0.9377    2.3618    0.0844 C   0  0  0  0  0  0  0  0  0  0  0  0
   -1.6314    3.5878    0.1272 C   0  0  0  0  0  0  0  0  0  0  0  0
   -2.7288    3.5625    0.1597 H   0  0  0  0  0  0  0  0  0  0  0  0
   -0.9095    4.7830    0.1200 C   0  0  0  0  0  0  0  0  0  0  0  0
   -1.4441    5.7437    0.1589 H   0  0  0  0  0  0  0  0  0  0  0  0
    0.5013    4.7627    0.0688 C   0  0  0  0  0  0  0  0  0  0  0  0
    1.0625    5.7090    0.0704 H   0  0  0  0  0  0  0  0  0  0  0  0
    1.1946    3.5502    0.0262 C   0  0  0  0  0  0  0  0  0  0  0  0
    2.2912    3.5080   -0.0068 H   0  0  0  0  0  0  0  0  0  0  0  0
    0.4835    2.3321    0.0318 C   0  0  0  0  0  0  0  0  0  0  0  0
    3.1781    0.0198   -0.1755 C   0  0  0  0  0  0  0  0  0  0  0  0
    3.0477   -0.8905    0.9030 C   0  0  0  0  0  0  0  0  0  0  0  0
    2.2229   -0.7682    1.6161 H   0  0  0  0  0  0  0  0  0  0  0  0
    4.0130   -1.8874    1.0820 C   0  0  0  0  0  0  0  0  0  0  0  0
    3.9170   -2.5863    1.9258 H   0  0  0  0  0  0  0  0  0  0  0  0
    5.0843   -2.0094    0.1834 C   0  0  0  0  0  0  0  0  0  0  0  0
    5.8318   -2.8043    0.3270 H   0  0  0  0  0  0  0  0  0  0  0  0
    5.2161   -1.1088   -0.8925 C   0  0  0  0  0  0  0  0  0  0  0  0
    6.0606   -1.2032   -1.5913 H   0  0  0  0  0  0  0  0  0  0  0  0
    4.2848   -0.0840   -1.0579 C   0  0  0  0  0  0  0  0  0  0  0  0
    4.3711    0.6527   -1.8696 H   0  0  0  0  0  0  0  0  0  0  0  0
  1  2  1  0  0  0  0
  2 15  1  0  0  0  0
  3 24  1  0  0  0  0
  4 25  1  0  0  0  0
  4  3  1  0  0  0  0
  5 14  1  0  0  0  0
  6  5  1  0  0  0  0
  7  6  1  0  0  0  0
  8 10  1  0  0  0  0
  8  6  2  0  0  0  0
  9  8  1  0  0  0  0
 10 12  2  0  0  0  0
 11 10  1  0  0  0  0
 12 13  1  0  0  0  0
 12 14  1  0  0  0  0
 14  1  2  0  0  0  0
 15 16  1  0  0  0  0
 16 17  1  0  0  0  0
 18 16  2  0  0  0  0
 18 19  1  0  0  0  0
 20 21  1  0  0  0  0
 20 18  1  0  0  0  0
 22 24  1  0  0  0  0
 22 20  2  0  0  0  0
 23 22  1  0  0  0  0
 24 15  2  0  0  0  0
 25 26  1  0  0  0  0
 26 28  2  0  0  0  0
 26 27  1  0  0  0  0
 28 29  1  0  0  0  0
 30 31  1  0  0  0  0
 30 28  1  0  0  0  0
 32 30  2  0  0  0  0
 33 32  1  0  0  0  0
 34 32  1  0  0  0  0
 34 25  2  0  0  0  0
 35 34  1  0  0  0  0
M  END
