1,2,3
q = -1.0, confidence = 0.006

 37 38  0  0  1  0  0  0  0  0999 V2000
   -0.2860   -1.7442    0.0383 N   0  0  0  0  0  2  0  0  0  0  0  0
    2.5207   -1.6066    0.1330 N   0  0  0  0  0  0  0  0  0  0  0  0
   -0.7765    1.0790    0.1422 C   0  0  0  0  0  3  0  0  0  0  0  0
   -0.5420    2.4560    0.2587 C   0  0  0  0  0  0  0  0  0  0  0  0
    0.4969    2.7900    0.3869 H   0  0  0  0  0  0  0  0  0  0  0  0
   -1.5804    3.4173    0.2325 C   0  0  0  0  0  0  0  0  0  0  0  0
   -1.3319    4.4864    0.3221 H   0  0  0  0  0  0  0  0  0  0  0  0
   -2.8939    3.0084    0.0963 C   0  0  0  0  0  0  0  0  0  0  0  0
   -3.7221    3.7332    0.0692 H   0  0  0  0  0  0  0  0  0  0  0  0
   -3.1954    1.6214   -0.0013 C   0  0  0  0  0  0  0  0  0  0  0  0
   -2.1365    0.6273    0.0250 C   0  0  2  0  0  3  0  0  0  0  0  0
   -4.5491    1.2100   -0.1219 C   0  0  0  0  0  0  0  0  0  0  0  0
   -5.3301    1.9863   -0.1482 H   0  0  0  0  0  0  0  0  0  0  0  0
   -4.8975   -0.1285   -0.2018 C   0  0  0  0  0  0  0  0  0  0  0  0
   -5.9551   -0.4191   -0.2932 H   0  0  0  0  0  0  0  0  0  0  0  0
   -3.9086   -1.1376   -0.1633 C   0  0  0  0  0  0  0  0  0  0  0  0
   -4.3637   -2.5781   -0.2446 C   0  0  0  0  0  0  0  0  0  0  0  0
   -5.4654   -2.6278   -0.3312 H   0  0  0  0  0  0  0  0  0  0  0  0
   -4.0807   -3.1625    0.6556 H   0  0  0  0  0  0  0  0  0  0  0  0
   -3.9422   -3.1066   -1.1247 H   0  0  0  0  0  0  0  0  0  0  0  0
   -2.5403   -0.7642   -0.0547 C   0  0  0  0  0  0  0  0  0  0  0  0
   -1.5858   -1.8423   -0.0173 C   0  0  0  0  0  0  0  0  0  0  0  0
   -1.9955   -2.8680   -0.0428 H   0  0  0  0  0  0  0  0  0  0  0  0
    0.4898   -2.9939    0.0102 C   0  0  0  0  0  0  0  0  0  0  0  0
    0.6390   -3.2952   -1.0495 H   0  0  0  0  0  0  0  0  0  0  0  0
   -0.0690   -3.8173    0.5045 H   0  0  0  0  0  0  0  0  0  0  0  0
    1.8330   -2.7876    0.6921 C   0  0  0  0  0  0  0  0  0  0  0  0
    1.6732   -2.6042    1.7740 H   0  0  0  0  0  0  0  0  0  0  0  0
    2.4624   -3.7049    0.5899 H   0  0  0  0  0  0  0  0  0  0  0  0
    2.9963   -1.8445   -1.2459 C   0  0  0  0  0  0  0  0  0  0  0  0
    3.7567   -2.6614   -1.2641 H   0  0  0  0  0  0  0  0  0  0  0  0
    3.4146   -0.8922   -1.6224 H   0  0  0  0  0  0  0  0  0  0  0  0
    2.1510   -2.1245   -1.9013 H   0  0  0  0  0  0  0  0  0  0  0  0
    3.6510   -1.2095    0.9875 C   0  0  0  0  0  0  0  0  0  0  0  0
    4.3777   -2.0490    1.0986 H   0  0  0  0  0  0  0  0  0  0  0  0
    3.2811   -0.9092    1.9858 H   0  0  0  0  0  0  0  0  0  0  0  0
    4.1639   -0.3515    0.5192 H   0  0  0  0  0  0  0  0  0  0  0  0
  2 27  1  0  0  0  0
  2 34  1  0  0  0  0
  3  4  2  0  0  0  0
  4  5  1  0  0  0  0
  6  4  1  0  0  0  0
  6  7  1  0  0  0  0
  8  6  2  0  0  0  0
  9  8  1  0  0  0  0
 10 11  1  0  0  0  0
 10  8  1  0  0  0  0
 11  3  1  1  0  0  0
 12 10  2  0  0  0  0
 13 12  1  0  0  0  0
 14 16  2  0  0  0  0
 14 12  1  0  0  0  0
 15 14  1  0  0  0  0
 16 21  1  0  0  0  0
 17 16  1  0  0  0  0
 17 19  1  0  0  0  0
 18 17  1  0  0  0  0
 20 17  1  0  0  0  0
 21 22  2  0  0  0  0
 21 11  1  0  0  0  0
 22  1  1  0  0  0  0
 23 22  1  0  0  0  0
 24  1  1  0  0  0  0
 24 26  1  0  0  0  0
 24 27  1  0  0  0  0
 25 24  1  0  0  0  0
 27 28  1  0  0  0  0
 29 27  1  0  0  0  0
 30  2  1  0  0  0  0
 31 30  1  0  0  0  0
 32 30  1  0  0  0  0
 33 30  1  0  0  0  0
 34 35  1  0  0  0  0
 34 36  1  0  0  0  0
 37 34  1  0  0  0  0
M  END
