1,2,3
q = -1.0, confidence = 0.022

 53 53  0  0  0  0  0  0  0  0999 V2000
   -0.4242   -2.0248   -0.4856 N   0  0  0  0  0  2  0  0  0  0  0  0
   -0.4586    2.0377   -0.4816 N   0  0  0  0  0  2  0  0  0  0  0  0
    1.0655    0.0198   -0.2255 C   0  0  0  0  0  2  0  0  0  0  0  0
    1.7558   -1.2089   -0.1301 C   0  0  0  0  0  0  0  0  0  0  0  0
    3.1481   -1.1844    0.0823 C   0  0  0  0  0  0  0  0  0  0  0  0
    3.8488    0.0449    0.1953 C   0  0  0  0  0  0  0  0  0  0  0  0
    3.1316    1.2594    0.0857 C   0  0  0  0  0  0  0  0  0  0  0  0
    1.7348    1.2569   -0.1275 C   0  0  0  0  0  0  0  0  0  0  0  0
    0.8362   -2.3265   -0.2812 C   0  0  0  0  0  3  0  0  0  0  0  0
    0.7973    2.3590   -0.2762 C   0  0  0  0  0  0  0  0  0  0  0  0
    5.3723    0.0129    0.4322 C   0  0  0  0  0  0  0  0  0  0  0  0
    5.6665   -0.7300    1.7555 C   0  0  0  0  0  0  0  0  0  0  0  0
    6.0563   -0.7272   -0.7400 C   0  0  0  0  0  0  0  0  0  0  0  0
    5.9764    1.4245    0.5282 C   0  0  0  0  0  0  0  0  0  0  0  0
   -1.4545   -3.0439   -0.5955 C   0  0  0  0  0  0  0  0  0  0  0  0
   -2.3736   -3.0433    0.6326 C   0  0  0  0  0  0  0  0  0  0  0  0
   -3.5809   -3.9675    0.4600 C   0  0  0  0  0  0  0  0  0  0  0  0
   -4.4938   -3.9829    1.6862 C   0  0  0  0  0  0  0  0  0  0  0  0
   -1.5055    3.0399   -0.5892 C   0  0  0  0  0  0  0  0  0  0  0  0
   -2.4261    3.0202    0.6376 C   0  0  0  0  0  0  0  0  0  0  0  0
   -3.6477    3.9257    0.4671 C   0  0  0  0  0  0  0  0  0  0  0  0
   -4.5627    3.9211    1.6919 C   0  0  0  0  0  0  0  0  0  0  0  0
    3.7017   -2.1335    0.1607 H   0  0  0  0  0  0  0  0  0  0  0  0
    3.6620    2.2188    0.1651 H   0  0  0  0  0  0  0  0  0  0  0  0
    1.1520   -3.3877   -0.2302 H   0  0  0  0  0  0  0  0  0  0  0  0
    1.0954    3.4252   -0.2228 H   0  0  0  0  0  0  0  0  0  0  0  0
    6.7594   -0.7689    1.9437 H   0  0  0  0  0  0  0  0  0  0  0  0
    5.1866   -0.2165    2.6131 H   0  0  0  0  0  0  0  0  0  0  0  0
    5.2929   -1.7731    1.7358 H   0  0  0  0  0  0  0  0  0  0  0  0
    7.1546   -0.7648   -0.5865 H   0  0  0  0  0  0  0  0  0  0  0  0
    5.6963   -1.7708   -0.8368 H   0  0  0  0  0  0  0  0  0  0  0  0
    5.8597   -0.2124   -1.7021 H   0  0  0  0  0  0  0  0  0  0  0  0
    5.8238    2.0043   -0.4045 H   0  0  0  0  0  0  0  0  0  0  0  0
    5.5462    2.0023    1.3710 H   0  0  0  0  0  0  0  0  0  0  0  0
    7.0692    1.3526    0.6990 H   0  0  0  0  0  0  0  0  0  0  0  0
   -2.0646   -2.7954   -1.4891 H   0  0  0  0  0  0  0  0  0  0  0  0
   -0.9884   -4.0446   -0.7455 H   0  0  0  0  0  0  0  0  0  0  0  0
   -1.7848   -3.3317    1.5316 H   0  0  0  0  0  0  0  0  0  0  0  0
   -2.7270   -2.0011    0.7830 H   0  0  0  0  0  0  0  0  0  0  0  0
   -4.1565   -3.6284   -0.4289 H   0  0  0  0  0  0  0  0  0  0  0  0
   -3.2385   -5.0021    0.2314 H   0  0  0  0  0  0  0  0  0  0  0  0
   -4.8764   -2.9655    1.9087 H   0  0  0  0  0  0  0  0  0  0  0  0
   -5.3694   -4.6461    1.5362 H   0  0  0  0  0  0  0  0  0  0  0  0
   -3.9543   -4.3388    2.5890 H   0  0  0  0  0  0  0  0  0  0  0  0
   -1.0556    4.0487   -0.7350 H   0  0  0  0  0  0  0  0  0  0  0  0
   -2.1103    2.7854   -1.4847 H   0  0  0  0  0  0  0  0  0  0  0  0
   -2.7630    1.9719    0.7838 H   0  0  0  0  0  0  0  0  0  0  0  0
   -1.8430    3.3145    1.5385 H   0  0  0  0  0  0  0  0  0  0  0  0
   -3.3216    4.9667    0.2437 H   0  0  0  0  0  0  0  0  0  0  0  0
   -4.2166    3.5816   -0.4242 H   0  0  0  0  0  0  0  0  0  0  0  0
   -5.4485    4.5709    1.5435 H   0  0  0  0  0  0  0  0  0  0  0  0
   -4.9294    2.8967    1.9092 H   0  0  0  0  0  0  0  0  0  0  0  0
   -4.0303    4.2814    2.5972 H   0  0  0  0  0  0  0  0  0  0  0  0
  1  9  1  0  0  0  0
  2 10  1  0  0  0  0
  3  4  1  0  0  0  0
  3  8  1  0  0  0  0
  4  5  2  0  0  0  0
  5 23  1  0  0  0  0
  5  6  1  0  0  0  0
  6 11  1  0  0  0  0
  7 24  1  0  0  0  0
  7  6  2  0  0  0  0
  8  7  1  0  0  0  0
  9 25  1  0  0  0  0
  9  4  1  0  0  0  0
 10 26  1  0  0  0  0
 10  8  2  0  0  0  0
 11 14  1  0  0  0  0
 11 12  1  0  0  0  0
 12 27  1  0  0  0  0
 12 28  1  0  0  0  0
 13 30  1  0  0  0  0
 13 11  1  0  0  0  0
 14 35  1  0  0  0  0
 14 34  1  0  0  0  0
 15  1  1  0  0  0  0
 15 16  1  0  0  0  0
 16 39  1  0  0  0  0
 16 38  1  0  0  0  0
 17 16  1  0  0  0  0
 17 18  1  0  0  0  0
 18 42  1  0  0  0  0
 18 44  1  0  0  0  0
 19  2  1  0  0  0  0
 19 20  1  0  0  0  0
 20 47  1  0  0  0  0
 20 48  1  0  0  0  0
 21 20  1  0  0  0  0
 21 22  1  0  0  0  0
 22 52  1  0  0  0  0
 22 53  1  0  0  0  0
 29 12  1  0  0  0  0
 31 13  1  0  0  0  0
 32 13  1  0  0  0  0
 33 14  1  0  0  0  0
 36 15  1  0  0  0  0
 37 15  1  0  0  0  0
 40 17  1  0  0  0  0
 41 17  1  0  0  0  0
 43 18  1  0  0  0  0
 45 19  1  0  0  0  0
 46 19  1  0  0  0  0
 49 21  1  0  0  0  0
 50 21  1  0  0  0  0
 51 22  1  0  0  0  0
M  END
