2,3,26
q = -1.0, confidence = 0.002

 36 38  0  0  0  0  0  0  0  0999 V2000
   -0.1238   -3.0529   -0.4803 N   0  0  0  0  0  0  0  0  0  0  0  0
    0.6671   -1.9813   -0.3157 N   0  0  0  0  0  2  0  0  0  0  0  0
    2.5115   -0.1583   -0.0545 N   0  0  0  0  0  2  0  0  0  0  0  0
    0.6181   -4.1971   -0.5581 C   0  0  0  0  0  0  0  0  0  0  0  0
    0.1359   -5.1713   -0.6914 H   0  0  0  0  0  0  0  0  0  0  0  0
    1.9615   -3.8414   -0.4479 C   0  0  0  0  0  0  0  0  0  0  0  0
    2.8267   -4.5099   -0.4833 H   0  0  0  0  0  0  0  0  0  0  0  0
    1.9543   -2.4327   -0.2973 C   0  0  0  0  0  0  0  0  0  0  0  0
    3.0040   -1.4223   -0.1486 C   0  0  0  0  0  0  0  0  0  0  0  0
    4.3901   -1.6420   -0.1013 C   0  0  0  0  0  0  0  0  0  0  0  0
    4.7948   -2.6604   -0.1767 H   0  0  0  0  0  0  0  0  0  0  0  0
    5.2339   -0.5275    0.0436 C   0  0  0  0  0  0  0  0  0  0  0  0
    6.3238   -0.6714    0.0833 H   0  0  0  0  0  0  0  0  0  0  0  0
    4.7004    0.7661    0.1386 C   0  0  0  0  0  0  0  0  0  0  0  0
    5.3608    1.6361    0.2525 H   0  0  0  0  0  0  0  0  0  0  0  0
    3.3029    0.9448    0.0878 C   0  0  0  0  0  0  0  0  0  0  0  0
    2.5287    2.1895    0.1695 C   0  0  0  0  0  0  0  0  0  0  0  0
    3.1235    3.4602    0.3167 C   0  0  0  0  0  0  0  0  0  0  0  0
    4.2194    3.5534    0.3752 H   0  0  0  0  0  0  0  0  0  0  0  0
    2.3265    4.6080    0.3893 C   0  0  0  0  0  0  0  0  0  0  0  0
    2.7939    5.5973    0.5041 H   0  0  0  0  0  0  0  0  0  0  0  0
    0.9266    4.4874    0.3147 C   0  0  0  0  0  0  0  0  0  0  0  0
    0.2981    5.3902    0.3723 H   0  0  0  0  0  0  0  0  0  0  0  0
    0.3187    3.2299    0.1683 C   0  0  0  0  0  3  0  0  0  0  0  0
   -0.7765    3.1471    0.1118 H   0  0  0  0  0  0  0  0  0  0  0  0
    1.0940    2.0567    0.0921 C   0  0  0  0  0  2  0  0  0  0  0  0
   -1.5812   -2.9177   -0.4765 C   0  0  0  0  0  0  0  0  0  0  0  0
   -1.9733   -3.5436   -1.3029 H   0  0  0  0  0  0  0  0  0  0  0  0
   -1.7914   -1.8539   -0.7097 H   0  0  0  0  0  0  0  0  0  0  0  0
   -2.2189   -3.3080    0.8627 C   0  0  0  0  0  0  0  0  0  0  0  0
   -3.3135   -3.1638    0.7379 H   0  0  0  0  0  0  0  0  0  0  0  0
   -2.0701   -4.3962    1.0411 H   0  0  0  0  0  0  0  0  0  0  0  0
   -1.7111   -2.4933    2.0522 C   0  0  0  0  0  0  0  0  0  0  0  0
   -0.6271   -2.6541    2.2236 H   0  0  0  0  0  0  0  0  0  0  0  0
   -2.2415   -2.7804    2.9817 H   0  0  0  0  0  0  0  0  0  0  0  0
   -1.8576   -1.4076    1.8817 H   0  0  0  0  0  0  0  0  0  0  0  0
  1 27  1  0  0  0  0
  1  2  1  0  0  0  0
  2  8  1  0  0  0  0
  3 16  1  0  0  0  0
  4  1  1  0  0  0  0
  4  6  2  0  0  0  0
  5  4  1  0  0  0  0
  6  8  1  0  0  0  0
  7  6  1  0  0  0  0
  8  9  2  0  0  0  0
  9 10  1  0  0  0  0
  9  3  1  0  0  0  0
 10 12  2  0  0  0  0
 11 10  1  0  0  0  0
 12 13  1  0  0  0  0
 12 14  1  0  0  0  0
 14 15  1  0  0  0  0
 16 14  2  0  0  0  0
 16 17  1  0  0  0  0
 17 18  2  0  0  0  0
 18 19  1  0  0  0  0
 18 20  1  0  0  0  0
 20 21  1  0  0  0  0
 22 23  1  0  0  0  0
 22 20  2  0  0  0  0
 24 22  1  0  0  0  0
 25 24  1  0  0  0  0
 26 24  1  0  0  0  0
 26 17  1  0  0  0  0
 27 30  1  0  0  0  0
 28 27  1  0  0  0  0
 29 27  1  0  0  0  0
 30 32  1  0  0  0  0
 30 33  1  0  0  0  0
 31 30  1  0  0  0  0
 33 34  1  0  0  0  0
 33 35  1  0  0  0  0
 36 33  1  0  0  0  0
M  END
