1,2,3
q = -1.0, confidence = 0.024

 20 20  0  0  0  0  0  0  0  0999 V2000
    1.2696    0.0031    1.7483 N   0  0  0  0  0  2  0  0  0  0  0  0
    1.5252   -0.0001   -0.7476 N   0  0  0  0  0  2  0  0  0  0  0  0
   -1.2257    0.0019    2.0289 C   0  0  0  0  0  3  0  0  0  0  0  0
   -2.3356    0.0011    2.0045 H   0  0  0  0  0  0  0  0  0  0  0  0
   -0.5968    0.0039    3.2355 C   0  0  0  0  0  0  0  0  0  0  0  0
   -1.0955    0.0048    4.2216 H   0  0  0  0  0  0  0  0  0  0  0  0
    0.9063    0.0047    3.1777 C   0  0  0  0  0  0  0  0  0  0  0  0
    1.3679    0.8930    3.6725 H   0  0  0  0  0  0  0  0  0  0  0  0
    1.3689   -0.8820    3.6747 H   0  0  0  0  0  0  0  0  0  0  0  0
    2.5415    0.0035    1.3653 C   0  0  0  0  0  0  0  0  0  0  0  0
    3.3760    0.0050    2.0861 H   0  0  0  0  0  0  0  0  0  0  0  0
    2.7280    0.0017   -0.0541 C   0  0  0  0  0  0  0  0  0  0  0  0
    3.9726    0.0015   -0.7239 C   0  0  0  0  0  0  0  0  0  0  0  0
    4.8991    0.0029   -0.1310 H   0  0  0  0  0  0  0  0  0  0  0  0
    4.0018   -0.0004   -2.1189 C   0  0  0  0  0  0  0  0  0  0  0  0
    4.9599   -0.0006   -2.6595 H   0  0  0  0  0  0  0  0  0  0  0  0
    2.7770   -0.0022   -2.8185 C   0  0  0  0  0  0  0  0  0  0  0  0
    2.7474   -0.0038   -3.9175 H   0  0  0  0  0  0  0  0  0  0  0  0
    1.5778   -0.0019   -2.1014 C   0  0  0  0  0  0  0  0  0  0  0  0
    0.5963   -0.0032   -2.6047 H   0  0  0  0  0  0  0  0  0  0  0  0
  1  7  1  0  0  0  0
  2 12  1  0  0  0  0
  3  5  2  0  0  0  0
  4  3  1  0  0  0  0
  5  6  1  0  0  0  0
  7  5  1  0  0  0  0
  7  8  1  0  0  0  0
  7  9  1  0  0  0  0
 10  1  1  0  0  0  0
 10 11  1  0  0  0  0
 12 10  2  0  0  0  0
 13 14  1  0  0  0  0
 13 12  1  0  0  0  0
 15 13  2  0  0  0  0
 16 15  1  0  0  0  0
 17 15  1  0  0  0  0
 17 19  2  0  0  0  0
 18 17  1  0  0  0  0
 19  2  1  0  0  0  0
 20 19  1  0  0  0  0
M  END
