5,6,7
q = -2.0, confidence = 0.9

 29 30  0  0  1  0  0  0  0  0999 V2000
   -5.5677   -0.5293    0.0002 F   0  0  0  0  0  0  0  0  0  0  0  0
   -4.1124   -1.7309   -1.0902 F   0  0  0  0  0  0  0  0  0  0  0  0
   -4.1123   -1.7310    1.0902 F   0  0  0  0  0  0  0  0  0  0  0  0
    0.6203   -3.4895    0.0002 O   0  0  0  0  0  0  0  0  0  0  0  0
    0.1488   -1.2196   -0.0003 N   0  0  0  0  0  2  0  0  0  0  0  0
    2.7244   -0.5751   -0.0001 N   0  0  0  0  0  2  0  0  0  0  0  0
   -1.0205    1.1097   -0.0001 C   0  0  0  0  0  3  0  0  0  0  0  0
   -1.5477    2.4143    0.0001 C   0  0  0  0  0  0  0  0  0  0  0  0
   -0.8706    3.2817    0.0001 H   0  0  0  0  0  0  0  0  0  0  0  0
   -2.9346    2.6301    0.0002 C   0  0  0  0  0  0  0  0  0  0  0  0
   -3.3347    3.6558    0.0003 H   0  0  0  0  0  0  0  0  0  0  0  0
   -3.8136    1.5399    0.0002 C   0  0  0  0  0  0  0  0  0  0  0  0
   -4.9006    1.6971    0.0003 H   0  0  0  0  0  0  0  0  0  0  0  0
   -3.3075    0.2285    0.0000 C   0  0  0  0  0  0  0  0  0  0  0  0
   -1.9116   -0.0033   -0.0001 C   0  0  0  0  0  0  0  0  0  0  0  0
   -1.2966   -1.3789   -0.0003 C   0  0  0  0  0  0  0  0  0  0  0  0
   -1.6280   -1.9718    0.8820 H   0  0  0  0  0  0  0  0  0  0  0  0
   -1.6280   -1.9714   -0.8827 H   0  0  0  0  0  0  0  0  0  0  0  0
    0.9653   -2.2991   -0.0000 C   0  0  0  0  0  0  0  0  0  0  0  0
    2.4289   -1.9006    0.0000 C   0  0  2  0  0  3  0  0  0  0  0  0
    3.4317   -2.8782    0.0002 C   0  0  0  0  0  0  0  0  0  0  0  0
    3.1074   -3.9293    0.0003 H   0  0  0  0  0  0  0  0  0  0  0  0
    4.7729   -2.4758    0.0003 C   0  0  0  0  0  0  0  0  0  0  0  0
    5.5824   -3.2215    0.0004 H   0  0  0  0  0  0  0  0  0  0  0  0
    5.0698   -1.1033    0.0001 C   0  0  0  0  0  0  0  0  0  0  0  0
    6.1080   -0.7414    0.0002 H   0  0  0  0  0  0  0  0  0  0  0  0
    4.0116   -0.1845   -0.0001 C   0  0  0  0  0  0  0  0  0  0  0  0
    4.1922    0.9022   -0.0002 H   0  0  0  0  0  0  0  0  0  0  0  0
   -4.2746   -0.9334    0.0001 C   0  0  0  0  0  0  0  0  0  0  0  0
  2 29  1  0  0  0  0
  5 16  1  0  0  0  0
  5 19  1  0  0  0  0
  6 27  1  0  0  0  0
  6 20  1  0  0  0  0
  7  8  1  0  0  0  0
  8  9  1  0  0  0  0
  8 10  2  0  0  0  0
 10 12  1  0  0  0  0
 10 11  1  0  0  0  0
 12 13  1  0  0  0  0
 14 29  1  0  0  0  0
 14 12  2  0  0  0  0
 15  7  2  0  0  0  0
 15 14  1  0  0  0  0
 16 15  1  0  0  0  0
 16 17  1  0  0  0  0
 18 16  1  0  0  0  0
 19  4  2  0  0  0  0
 20 19  1  1  0  0  0
 20 21  1  0  0  0  0
 21 23  2  0  0  0  0
 21 22  1  0  0  0  0
 23 24  1  0  0  0  0
 25 26  1  0  0  0  0
 25 23  1  0  0  0  0
 27 25  2  0  0  0  0
 28 27  1  0  0  0  0
 29  1  1  0  0  0  0
 29  3  1  0  0  0  0
M  END
