4,11,25
q = -1.0, confidence = 0.028

 39 42  0  0  0  0  0  0  0  0999 V2000
   -1.0476   -3.3923   -0.3044 C   0  0  0  0  0  0  0  0  0  0  0  0
   -2.1083   -3.6518   -0.4204 H   0  0  0  0  0  0  0  0  0  0  0  0
   -0.6482   -2.0505   -0.2421 C   0  0  0  0  0  0  0  0  0  0  0  0
    0.6694   -1.7358   -0.0972 N   0  0  0  0  0  2  0  0  0  0  0  0
    1.6570   -2.6766   -0.0113 C   0  0  0  0  0  0  0  0  0  0  0  0
    1.2911   -4.0366   -0.0720 C   0  0  0  0  0  0  0  0  0  0  0  0
    2.0652   -4.8123   -0.0048 H   0  0  0  0  0  0  0  0  0  0  0  0
   -0.0570   -4.3859   -0.2169 C   0  0  0  0  0  0  0  0  0  0  0  0
   -0.3440   -5.4464   -0.2640 H   0  0  0  0  0  0  0  0  0  0  0  0
    2.9906   -2.0904    0.1455 C   0  0  0  0  0  0  0  0  0  0  0  0
    3.0412   -0.6534    0.1790 C   0  0  0  0  0  2  0  0  0  0  0  0
    4.2911   -0.0417    0.3681 C   0  0  0  0  0  0  0  0  0  0  0  0
    4.3722    1.0543    0.4236 H   0  0  0  0  0  0  0  0  0  0  0  0
    5.4597   -0.8152    0.5004 C   0  0  0  0  0  0  0  0  0  0  0  0
    6.4285   -0.3137    0.6484 H   0  0  0  0  0  0  0  0  0  0  0  0
    5.4019   -2.2176    0.4504 C   0  0  0  0  0  0  0  0  0  0  0  0
    6.3196   -2.8142    0.5532 H   0  0  0  0  0  0  0  0  0  0  0  0
    4.1670   -2.8548    0.2769 C   0  0  0  0  0  0  0  0  0  0  0  0
    4.1223   -3.9542    0.2480 H   0  0  0  0  0  0  0  0  0  0  0  0
   -1.5046   -0.8673   -0.3212 C   0  0  0  0  0  0  0  0  0  0  0  0
   -2.8690   -0.6276   -0.4482 C   0  0  0  0  0  0  0  0  0  0  0  0
   -3.7425   -1.2810   -0.5273 H   0  0  0  0  0  0  0  0  0  0  0  0
   -2.9773    0.7317   -0.4436 N   0  0  0  0  0  0  0  0  0  0  0  0
   -1.7843    1.3334   -0.3229 N   0  0  0  0  0  2  0  0  0  0  0  0
   -0.8973    0.3734   -0.2505 N   0  0  0  0  0  2  0  0  0  0  0  0
   -4.1984    1.5491   -0.5984 C   0  0  0  0  0  0  0  0  0  0  0  0
   -4.2823    1.8295   -1.6679 H   0  0  0  0  0  0  0  0  0  0  0  0
   -4.0120    2.4731   -0.0186 H   0  0  0  0  0  0  0  0  0  0  0  0
   -5.4272    0.8126   -0.1290 C   0  0  0  0  0  0  0  0  0  0  0  0
   -5.6992    0.6896    1.2491 C   0  0  0  0  0  0  0  0  0  0  0  0
   -5.0290    1.1629    1.9844 H   0  0  0  0  0  0  0  0  0  0  0  0
   -6.8232   -0.0241    1.6862 C   0  0  0  0  0  0  0  0  0  0  0  0
   -7.0338   -0.1088    2.7627 H   0  0  0  0  0  0  0  0  0  0  0  0
   -7.6859   -0.6203    0.7509 C   0  0  0  0  0  0  0  0  0  0  0  0
   -8.5716   -1.1748    1.0953 H   0  0  0  0  0  0  0  0  0  0  0  0
   -7.4235   -0.4997   -0.6224 C   0  0  0  0  0  0  0  0  0  0  0  0
   -8.1026   -0.9567   -1.3573 H   0  0  0  0  0  0  0  0  0  0  0  0
   -6.2967    0.2133   -1.0610 C   0  0  0  0  0  0  0  0  0  0  0  0
   -6.0963    0.3152   -2.1395 H   0  0  0  0  0  0  0  0  0  0  0  0
  1  3  2  0  0  0  0
  1  8  1  0  0  0  0
  2  1  1  0  0  0  0
  3  4  1  0  0  0  0
  4  5  1  0  0  0  0
  5 10  2  0  0  0  0
  6  5  1  0  0  0  0
  6  7  1  0  0  0  0
  8  6  2  0  0  0  0
  9  8  1  0  0  0  0
 10 11  1  0  0  0  0
 10 18  1  0  0  0  0
 11 12  1  0  0  0  0
 12 13  1  0  0  0  0
 12 14  2  0  0  0  0
 14 15  1  0  0  0  0
 16 14  1  0  0  0  0
 16 17  1  0  0  0  0
 18 16  2  0  0  0  0
 19 18  1  0  0  0  0
 20 25  1  0  0  0  0
 20  3  1  0  0  0  0
 21 23  1  0  0  0  0
 21 20  2  0  0  0  0
 22 21  1  0  0  0  0
 23 24  1  0  0  0  0
 24 25  1  0  0  0  0
 26 23  1  0  0  0  0
 26 29  1  0  0  0  0
 26 28  1  0  0  0  0
 27 26  1  0  0  0  0
 29 30  1  0  0  0  0
 30 32  2  0  0  0  0
 30 31  1  0  0  0  0
 32 33  1  0  0  0  0
 34 35  1  0  0  0  0
 34 32  1  0  0  0  0
 36 34  2  0  0  0  0
 37 36  1  0  0  0  0
 38 36  1  0  0  0  0
 38 29  2  0  0  0  0
 39 38  1  0  0  0  0
M  END
