1,7,13
q = -1.0, confidence = 0.0

 41 43  0  0  1  0  0  0  0  0999 V2000
    1.7725    1.0130    0.0616 N   0  0  0  0  0  2  0  0  0  0  0  0
    2.8302    0.3277   -0.4486 C   0  0  1  0  0  3  0  0  0  0  0  0
    4.1392    0.7427   -0.1534 C   0  0  0  0  0  0  0  0  0  0  0  0
    4.3525    1.8508    0.6771 C   0  0  0  0  0  0  0  0  0  0  0  0
    3.2457    2.5272    1.2045 C   0  0  0  0  0  0  0  0  0  0  0  0
    1.9629    2.0796    0.8737 C   0  0  0  0  0  0  0  0  0  0  0  0
    0.4556   -1.4432    0.0687 C   0  0  0  0  0  3  0  0  0  0  0  0
    1.6929   -1.8787   -0.4584 C   0  0  0  0  0  0  0  0  0  0  0  0
    2.1347   -3.1899   -0.2018 C   0  0  0  0  0  0  0  0  0  0  0  0
    1.3496   -4.0654    0.5661 C   0  0  0  0  0  0  0  0  0  0  0  0
    0.1159   -3.6368    1.0734 C   0  0  0  0  0  0  0  0  0  0  0  0
   -0.3391   -2.3259    0.8267 C   0  0  0  0  0  0  0  0  0  0  0  0
   -2.0722   -0.2660   -0.4577 N   0  0  0  0  0  2  0  0  0  0  0  0
   -2.5630   -1.2694    0.3148 C   0  0  2  0  0  3  0  0  0  0  0  0
   -3.8868   -1.7093    0.1356 C   0  0  0  0  0  0  0  0  0  0  0  0
   -4.7006   -1.1171   -0.8364 C   0  0  0  0  0  0  0  0  0  0  0  0
   -4.1758   -0.0719   -1.6096 C   0  0  0  0  0  0  0  0  0  0  0  0
   -2.8570    0.3301   -1.3863 C   0  0  0  0  0  0  0  0  0  0  0  0
    2.5032   -0.8862   -1.3049 C   0  0  2  0  0  0  0  0  0  0  0  0
    3.7118   -1.4841   -2.0203 C   0  0  0  0  0  0  0  0  0  0  0  0
   -1.6748   -1.8594    1.3926 C   0  0  2  0  0  0  0  0  0  0  0  0
   -1.5071   -0.8552    2.5573 C   0  0  0  0  0  0  0  0  0  0  0  0
    4.9905    0.1934   -0.5752 H   0  0  0  0  0  0  0  0  0  0  0  0
    5.3770    2.1776    0.9116 H   0  0  0  0  0  0  0  0  0  0  0  0
    3.3597    3.3946    1.8695 H   0  0  0  0  0  0  0  0  0  0  0  0
    1.0383    2.5455    1.2630 H   0  0  0  0  0  0  0  0  0  0  0  0
    3.0920   -3.5468   -0.6094 H   0  0  0  0  0  0  0  0  0  0  0  0
    1.7011   -5.0899    0.7612 H   0  0  0  0  0  0  0  0  0  0  0  0
   -0.5040   -4.3251    1.6714 H   0  0  0  0  0  0  0  0  0  0  0  0
   -4.2666   -2.5204    0.7735 H   0  0  0  0  0  0  0  0  0  0  0  0
   -5.7350   -1.4628   -0.9839 H   0  0  0  0  0  0  0  0  0  0  0  0
   -4.7752    0.4355   -2.3784 H   0  0  0  0  0  0  0  0  0  0  0  0
   -2.3903    1.1755   -1.9152 H   0  0  0  0  0  0  0  0  0  0  0  0
    1.7958   -0.5054   -2.0775 H   0  0  0  0  0  0  0  0  0  0  0  0
    4.4658   -1.8852   -1.3130 H   0  0  0  0  0  0  0  0  0  0  0  0
    3.3932   -2.3193   -2.6730 H   0  0  0  0  0  0  0  0  0  0  0  0
    4.2108   -0.7284   -2.6585 H   0  0  0  0  0  0  0  0  0  0  0  0
   -2.2057   -2.7515    1.7837 H   0  0  0  0  0  0  0  0  0  0  0  0
   -1.0526    0.0926    2.1976 H   0  0  0  0  0  0  0  0  0  0  0  0
   -2.4878   -0.6130    3.0145 H   0  0  0  0  0  0  0  0  0  0  0  0
   -0.8490   -1.2894    3.3350 H   0  0  0  0  0  0  0  0  0  0  0  0
  1  6  1  0  0  0  0
  2 19  1  1  0  0  0
  2  3  1  0  0  0  0
  2  1  1  0  0  0  0
  3  4  2  0  0  0  0
  4 24  1  0  0  0  0
  4  5  1  0  0  0  0
  5 25  1  0  0  0  0
  6  5  2  0  0  0  0
  6 26  1  0  0  0  0
  7 12  1  0  0  0  0
  8  9  1  0  0  0  0
  8  7  2  0  0  0  0
  9 10  2  0  0  0  0
 10 28  1  0  0  0  0
 10 11  1  0  0  0  0
 11 29  1  0  0  0  0
 12 11  2  0  0  0  0
 12 21  1  0  0  0  0
 13 14  1  0  0  0  0
 14 21  1  1  0  0  0
 15 14  1  0  0  0  0
 15 30  1  0  0  0  0
 16 15  2  0  0  0  0
 17 18  2  0  0  0  0
 17 16  1  0  0  0  0
 18 13  1  0  0  0  0
 19 34  1  6  0  0  0
 19  8  1  0  0  0  0
 20 35  1  0  0  0  0
 20 19  1  0  0  0  0
 21 38  1  1  0  0  0
 21 22  1  0  0  0  0
 22 40  1  0  0  0  0
 22 41  1  0  0  0  0
 23  3  1  0  0  0  0
 27  9  1  0  0  0  0
 31 16  1  0  0  0  0
 32 17  1  0  0  0  0
 33 18  1  0  0  0  0
 36 20  1  0  0  0  0
 37 20  1  0  0  0  0
 39 22  1  0  0  0  0
M  END
