4,5,8
q = -2.0, confidence = 0.672

 46 48  0  0  1  0  0  0  0  0999 V2000
   -0.0534    0.8040    1.9701 S   0  0  0  0  0  0  0  0  0  0  0  0
    0.3401   -0.3887    2.7716 O   0  0  0  0  0  0  0  0  0  0  0  0
    0.2714    2.1659    2.4695 O   0  0  0  0  0  0  0  0  0  0  0  0
    1.1529    0.4771   -2.1347 N   0  0  0  0  0  0  0  0  0  0  0  0
    0.5816    0.6544    0.4485 N   0  0  0  0  0  2  0  0  0  0  0  0
    0.4398    1.7180   -1.7147 C   0  0  2  0  0  0  0  0  0  0  0  0
    0.8740    1.9142   -0.2366 C   0  0  2  0  0  0  0  0  0  0  0  0
   -1.3487    0.0813   -1.3811 C   0  0  0  0  0  3  0  0  0  0  0  0
   -1.0230    1.3954   -1.8165 C   0  0  0  0  0  0  0  0  0  0  0  0
   -1.9977    2.3026   -2.2578 C   0  0  0  0  0  0  0  0  0  0  0  0
   -3.3470    1.9144   -2.2758 C   0  0  0  0  0  0  0  0  0  0  0  0
   -3.6965    0.6283   -1.8344 C   0  0  0  0  0  0  0  0  0  0  0  0
   -2.7136   -0.2723   -1.3873 C   0  0  0  0  0  0  0  0  0  0  0  0
    2.3540    2.3035   -0.1606 C   0  0  0  0  0  0  0  0  0  0  0  0
    3.2760    1.5000    0.5320 C   0  0  0  0  0  0  0  0  0  0  0  0
    4.6368    1.8428    0.5751 C   0  0  0  0  0  0  0  0  0  0  0  0
    5.0941    3.0020   -0.0694 C   0  0  0  0  0  0  0  0  0  0  0  0
    4.1780    3.8221   -0.7495 C   0  0  0  0  0  0  0  0  0  0  0  0
    2.8199    3.4750   -0.7934 C   0  0  0  0  0  0  0  0  0  0  0  0
   -1.8522    0.7267    1.8366 C   0  0  0  0  0  0  0  0  0  0  0  0
   -2.5530    1.8740    1.4296 C   0  0  0  0  0  0  0  0  0  0  0  0
   -3.9410    1.8126    1.2777 C   0  0  0  0  0  0  0  0  0  0  0  0
   -4.6555    0.6227    1.5369 C   0  0  0  0  0  0  0  0  0  0  0  0
   -3.9324   -0.5050    1.9710 C   0  0  0  0  0  0  0  0  0  0  0  0
   -2.5388   -0.4602    2.1238 C   0  0  0  0  0  0  0  0  0  0  0  0
   -6.1475    0.5680    1.3326 C   0  0  0  0  0  0  0  0  0  0  0  0
    0.7335    2.5949   -2.3294 H   0  0  0  0  0  0  0  0  0  0  0  0
    0.2879    2.7588    0.1825 H   0  0  0  0  0  0  0  0  0  0  0  0
    0.9765    0.2688   -3.1255 H   0  0  0  0  0  0  0  0  0  0  0  0
    2.1701    0.5835   -1.9952 H   0  0  0  0  0  0  0  0  0  0  0  0
   -1.7040    3.3118   -2.5909 H   0  0  0  0  0  0  0  0  0  0  0  0
   -4.1217    2.6138   -2.6244 H   0  0  0  0  0  0  0  0  0  0  0  0
   -4.7547    0.3217   -1.8244 H   0  0  0  0  0  0  0  0  0  0  0  0
   -3.0412   -1.2503   -1.0046 H   0  0  0  0  0  0  0  0  0  0  0  0
    2.8889    0.6129    1.0515 H   0  0  0  0  0  0  0  0  0  0  0  0
    5.3421    1.2014    1.1263 H   0  0  0  0  0  0  0  0  0  0  0  0
    6.1598    3.2750   -0.0332 H   0  0  0  0  0  0  0  0  0  0  0  0
    4.5233    4.7436   -1.2431 H   0  0  0  0  0  0  0  0  0  0  0  0
    2.1092    4.1369   -1.3147 H   0  0  0  0  0  0  0  0  0  0  0  0
   -2.0077    2.8103    1.2470 H   0  0  0  0  0  0  0  0  0  0  0  0
   -4.4870    2.7102    0.9477 H   0  0  0  0  0  0  0  0  0  0  0  0
   -4.4735   -1.4365    2.2029 H   0  0  0  0  0  0  0  0  0  0  0  0
   -1.9785   -1.3307    2.4915 H   0  0  0  0  0  0  0  0  0  0  0  0
   -6.5848   -0.3647    1.7386 H   0  0  0  0  0  0  0  0  0  0  0  0
   -6.6573    1.4266    1.8156 H   0  0  0  0  0  0  0  0  0  0  0  0
   -6.3993    0.6145    0.2510 H   0  0  0  0  0  0  0  0  0  0  0  0
  1  3  2  0  0  0  0
  1  2  2  0  0  0  0
  4 30  1  0  0  0  0
  4  6  1  0  0  0  0
  5  1  1  0  0  0  0
  6 27  1  6  0  0  0
  6  7  1  0  0  0  0
  7 14  1  0  0  0  0
  7 28  1  1  0  0  0
  7  5  1  0  0  0  0
  9  6  1  0  0  0  0
  9  8  2  0  0  0  0
 10  9  1  0  0  0  0
 11 10  2  0  0  0  0
 11 12  1  0  0  0  0
 12 33  1  0  0  0  0
 12 13  2  0  0  0  0
 13  8  1  0  0  0  0
 13 34  1  0  0  0  0
 14 15  1  0  0  0  0
 15 16  2  0  0  0  0
 15 35  1  0  0  0  0
 16 36  1  0  0  0  0
 17 37  1  0  0  0  0
 17 16  1  0  0  0  0
 18 17  2  0  0  0  0
 19 18  1  0  0  0  0
 19 14  2  0  0  0  0
 20  1  1  0  0  0  0
 20 25  1  0  0  0  0
 21 20  2  0  0  0  0
 22 21  1  0  0  0  0
 22 23  2  0  0  0  0
 23 24  1  0  0  0  0
 24 25  2  0  0  0  0
 24 42  1  0  0  0  0
 25 43  1  0  0  0  0
 26 23  1  0  0  0  0
 26 44  1  0  0  0  0
 26 45  1  0  0  0  0
 29  4  1  0  0  0  0
 31 10  1  0  0  0  0
 32 11  1  0  0  0  0
 38 18  1  0  0  0  0
 39 19  1  0  0  0  0
 40 21  1  0  0  0  0
 41 22  1  0  0  0  0
 46 26  1  0  0  0  0
M  END
