2,9,17
q = -1.0, confidence = 0.0

 24 25  0  0  1  0  0  0  0  0999 V2000
    3.8442   -1.1486   -1.2762 Cl  0  0  0  0  0  0  0  0  0  0  0  0
    0.6748   -0.3560   -1.3935 C   0  0  0  0  0  3  0  0  0  0  0  0
    1.0065   -1.3876   -1.6198 H   0  0  0  0  0  0  0  0  0  0  0  0
    0.6606    0.2441   -2.3262 H   0  0  0  0  0  0  0  0  0  0  0  0
    1.6547    0.2818   -0.3932 C   0  0  1  0  0  0  0  0  0  0  0  0
    3.1031    0.4280   -0.8739 C   0  0  0  0  0  0  0  0  0  0  0  0
    3.1023    1.0543   -1.7853 H   0  0  0  0  0  0  0  0  0  0  0  0
    3.7473    0.9088   -0.1116 H   0  0  0  0  0  0  0  0  0  0  0  0
   -0.2151    1.7070    0.0794 N   0  0  0  0  0  2  0  0  0  0  0  0
    1.1273    1.6352   -0.0791 N   0  0  0  0  0  0  0  0  0  0  0  0
    1.7254    2.8096    0.2859 C   0  0  0  0  0  3  0  0  0  0  0  0
    2.8094    2.9528    0.2392 H   0  0  0  0  0  0  0  0  0  0  0  0
    0.7053    3.6799    0.6657 C   0  0  0  0  0  0  0  0  0  0  0  0
    0.8164    4.7175    0.9960 H   0  0  0  0  0  0  0  0  0  0  0  0
   -0.4927    2.9353    0.5256 C   0  0  0  0  0  0  0  0  0  0  0  0
   -1.5347    3.2052    0.7336 H   0  0  0  0  0  0  0  0  0  0  0  0
    0.3298   -0.8747    1.2260 N   0  0  0  0  0  2  0  0  0  0  0  0
    1.5783   -0.5072    0.8551 N   0  0  0  0  0  0  0  0  0  0  0  0
    2.4887   -0.8088    1.8275 C   0  0  0  0  0  3  0  0  0  0  0  0
    3.5580   -0.6144    1.7009 H   0  0  0  0  0  0  0  0  0  0  0  0
    1.7820   -1.4207    2.8613 C   0  0  0  0  0  0  0  0  0  0  0  0
    2.1955   -1.8177    3.7937 H   0  0  0  0  0  0  0  0  0  0  0  0
    0.4294   -1.4316    2.4364 C   0  0  0  0  0  0  0  0  0  0  0  0
   -0.4768   -1.7969    2.9335 H   0  0  0  0  0  0  0  0  0  0  0  0
  1  6  1  0  0  0  0
  3  2  1  0  0  0  0
  4  2  1  0  0  0  0
  5  2  1  6  0  0  0
  5 10  1  0  0  0  0
  5 18  1  0  0  0  0
  6  5  1  0  0  0  0
  6  8  1  0  0  0  0
  7  6  1  0  0  0  0
  9 15  1  0  0  0  0
 10  9  1  0  0  0  0
 10 11  1  0  0  0  0
 11 13  1  0  0  0  0
 12 11  1  0  0  0  0
 13 14  1  0  0  0  0
 15 13  2  0  0  0  0
 15 16  1  0  0  0  0
 17 23  1  0  0  0  0
 18 17  1  0  0  0  0
 18 19  1  0  0  0  0
 19 21  1  0  0  0  0
 20 19  1  0  0  0  0
 21 22  1  0  0  0  0
 23 21  2  0  0  0  0
 23 24  1  0  0  0  0
M  END
