25,26,32
q = -1.0, confidence = 0.018

 46 49  0  0  1  0  0  0  0  0999 V2000
   -1.2872    0.0125   -0.0049 P   0  0  0  0  0  4  0  0  0  0  0  0
   -3.5669   -0.7968   -1.4679 C   0  0  0  0  0  0  0  0  0  0  0  0
   -4.1429   -0.6733   -0.5387 H   0  0  0  0  0  0  0  0  0  0  0  0
   -2.0874   -1.1289   -3.8388 C   0  0  0  0  0  0  0  0  0  0  0  0
   -1.5097   -1.2606   -4.7659 H   0  0  0  0  0  0  0  0  0  0  0  0
   -2.2559   -0.4324    1.4652 C   0  0  0  0  0  0  0  0  0  0  0  0
   -2.1754   -0.5801   -1.4742 C   0  0  0  0  0  0  0  0  0  0  0  0
   -2.6842   -1.7677    1.6422 C   0  0  0  0  0  0  0  0  0  0  0  0
   -2.4267   -2.5242    0.8865 H   0  0  0  0  0  0  0  0  0  0  0  0
   -3.4753   -1.3499   -3.8347 C   0  0  0  0  0  0  0  0  0  0  0  0
   -3.9850   -1.6560   -4.7608 H   0  0  0  0  0  0  0  0  0  0  0  0
   -4.2130   -1.1821   -2.6525 C   0  0  0  0  0  0  0  0  0  0  0  0
   -5.2995   -1.3558   -2.6494 H   0  0  0  0  0  0  0  0  0  0  0  0
   -3.6664   -1.1452    3.7807 C   0  0  0  0  0  0  0  0  0  0  0  0
   -4.2215   -1.4252    4.6889 H   0  0  0  0  0  0  0  0  0  0  0  0
   -3.2283    0.1772    3.6082 C   0  0  0  0  0  0  0  0  0  0  0  0
   -3.4361    0.9346    4.3787 H   0  0  0  0  0  0  0  0  0  0  0  0
   -1.4335   -0.7402   -2.6631 C   0  0  0  0  0  0  0  0  0  0  0  0
   -0.3473   -0.5604   -2.6564 H   0  0  0  0  0  0  0  0  0  0  0  0
   -3.3906   -2.1147    2.8013 C   0  0  0  0  0  0  0  0  0  0  0  0
   -3.7223   -3.1541    2.9445 H   0  0  0  0  0  0  0  0  0  0  0  0
   -2.5200    0.5390    2.4529 C   0  0  0  0  0  0  0  0  0  0  0  0
   -2.1692    1.5726    2.3148 H   0  0  0  0  0  0  0  0  0  0  0  0
   -0.2040   -2.8432    0.0411 O   0  0  0  0  0  0  0  0  0  0  0  0
    0.2848   -0.5679    0.0235 N   0  0  0  0  0  2  0  0  0  0  0  0
    2.8774   -0.9997    0.1005 N   0  0  0  0  0  2  0  0  0  0  0  0
    0.6003   -1.9023    0.0509 C   0  0  0  0  0  0  0  0  0  0  0  0
    2.0967   -2.1120    0.0899 C   0  0  2  0  0  3  0  0  0  0  0  0
    4.2166   -1.1230    0.1379 C   0  0  0  0  0  0  0  0  0  0  0  0
    4.7690   -0.1671    0.1409 H   0  0  0  0  0  0  0  0  0  0  0  0
   -1.0019    1.7829   -0.0966 C   0  0  0  0  0  0  0  0  0  0  0  0
    0.3615    2.2144   -0.0592 C   0  0  0  0  0  3  0  0  0  0  0  0
    0.5751    3.6114   -0.1312 C   0  0  0  0  0  0  0  0  0  0  0  0
    1.6127    3.9767   -0.1045 H   0  0  0  0  0  0  0  0  0  0  0  0
    4.8360   -2.3804    0.1678 C   0  0  0  0  0  0  0  0  0  0  0  0
    5.9333   -2.4445    0.1985 H   0  0  0  0  0  0  0  0  0  0  0  0
    2.6451   -3.4002    0.1181 C   0  0  0  0  0  0  0  0  0  0  0  0
    1.9551   -4.2561    0.1084 H   0  0  0  0  0  0  0  0  0  0  0  0
    4.0393   -3.5368    0.1577 C   0  0  0  0  0  0  0  0  0  0  0  0
    4.5023   -4.5349    0.1808 H   0  0  0  0  0  0  0  0  0  0  0  0
   -2.0848    2.6812   -0.2227 C   0  0  0  0  0  0  0  0  0  0  0  0
   -3.1201    2.3055   -0.2712 H   0  0  0  0  0  0  0  0  0  0  0  0
   -0.4961    4.5090   -0.2405 C   0  0  0  0  0  0  0  0  0  0  0  0
   -0.2904    5.5901   -0.2953 H   0  0  0  0  0  0  0  0  0  0  0  0
   -1.8285    4.0539   -0.2905 C   0  0  0  0  0  0  0  0  0  0  0  0
   -2.6600    4.7679   -0.3878 H   0  0  0  0  0  0  0  0  0  0  0  0
  1 25  1  0  0  0  0
  1  6  1  0  0  0  0
  2  3  1  0  0  0  0
  4 10  2  0  0  0  0
  4 18  1  0  0  0  0
  5  4  1  0  0  0  0
  6  8  2  0  0  0  0
  6 22  1  0  0  0  0
  7  2  1  0  0  0  0
  7  1  1  0  0  0  0
  8 20  1  0  0  0  0
  9  8  1  0  0  0  0
 10 12  1  0  0  0  0
 11 10  1  0  0  0  0
 12 13  1  0  0  0  0
 12  2  2  0  0  0  0
 14 15  1  0  0  0  0
 16 14  1  0  0  0  0
 16 17  1  0  0  0  0
 18 19  1  0  0  0  0
 18  7  2  0  0  0  0
 20 21  1  0  0  0  0
 20 14  2  0  0  0  0
 22 16  2  0  0  0  0
 23 22  1  0  0  0  0
 24 27  2  0  0  0  0
 25 27  1  0  0  0  0
 26 29  1  0  0  0  0
 28 27  1  1  0  0  0
 28 26  1  0  0  0  0
 28 37  1  0  0  0  0
 29 30  1  0  0  0  0
 29 35  2  0  0  0  0
 31 32  1  0  0  0  0
 31  1  1  0  0  0  0
 33 34  1  0  0  0  0
 33 32  2  0  0  0  0
 35 36  1  0  0  0  0
 37 39  2  0  0  0  0
 38 37  1  0  0  0  0
 39 35  1  0  0  0  0
 39 40  1  0  0  0  0
 41 31  2  0  0  0  0
 42 41  1  0  0  0  0
 43 33  1  0  0  0  0
 44 43  1  0  0  0  0
 45 43  2  0  0  0  0
 45 41  1  0  0  0  0
 46 45  1  0  0  0  0
M  END
