1,2,6
q = 0.0, confidence = 0.992

 42 44  0  0  0  0  0  0  0  0999 V2000
   -0.4455   -1.3629    0.8603 N   0  0  0  0  0  2  0  0  0  0  0  0
    1.7255   -0.0226    1.5691 N   0  0  0  0  0  2  0  0  0  0  0  0
    0.7042    2.5712    0.0797 N   0  0  0  0  0  0  0  0  0  0  0  0
   -0.1305    3.5902    0.2688 N   0  0  0  0  0  2  0  0  0  0  0  0
   -1.3185    3.0793    0.0179 N   0  0  0  0  0  0  0  0  0  0  0  0
    0.1039    1.3821   -0.2998 C   0  0  0  0  0  3  0  0  0  0  0  0
   -1.2587    1.7431   -0.3246 C   0  0  0  0  0  0  0  0  0  0  0  0
   -1.5170   -2.0803    0.4633 C   0  0  0  0  0  3  0  0  0  0  0  0
   -1.6218   -2.2454   -0.6180 H   0  0  0  0  0  0  0  0  0  0  0  0
   -2.4600   -2.5826    1.3688 C   0  0  0  0  0  0  0  0  0  0  0  0
   -3.3139   -3.1597    0.9884 H   0  0  0  0  0  0  0  0  0  0  0  0
   -2.2969   -2.3351    2.7404 C   0  0  0  0  0  0  0  0  0  0  0  0
   -3.0228   -2.7185    3.4720 H   0  0  0  0  0  0  0  0  0  0  0  0
   -1.1847   -1.5970    3.1614 C   0  0  0  0  0  0  0  0  0  0  0  0
   -1.0072   -1.3875    4.2261 H   0  0  0  0  0  0  0  0  0  0  0  0
   -0.2715   -1.1273    2.2001 C   0  0  0  0  0  0  0  0  0  0  0  0
    0.9276   -0.3782    2.5359 C   0  0  0  0  0  3  0  0  0  0  0  0
    1.1465   -0.1284    3.5911 H   0  0  0  0  0  0  0  0  0  0  0  0
    2.8894    0.8130    1.8691 C   0  0  0  0  0  0  0  0  0  0  0  0
    3.7009    0.5213    1.1741 H   0  0  0  0  0  0  0  0  0  0  0  0
    3.2414    0.6190    2.9048 H   0  0  0  0  0  0  0  0  0  0  0  0
    2.5868    2.3163    1.7315 C   0  0  0  0  0  0  0  0  0  0  0  0
    1.8470    2.6228    2.5013 H   0  0  0  0  0  0  0  0  0  0  0  0
    3.5281    2.8497    1.9774 H   0  0  0  0  0  0  0  0  0  0  0  0
    2.1214    2.8346    0.3647 C   0  0  0  0  0  0  0  0  0  0  0  0
    2.2207    3.9352    0.3379 H   0  0  0  0  0  0  0  0  0  0  0  0
    2.7241    2.4206   -0.4636 H   0  0  0  0  0  0  0  0  0  0  0  0
   -2.4931    3.9412    0.1023 C   0  0  0  0  0  0  0  0  0  0  0  0
   -2.1748    4.9770   -0.1082 H   0  0  0  0  0  0  0  0  0  0  0  0
   -2.9403    3.8884    1.1133 H   0  0  0  0  0  0  0  0  0  0  0  0
   -3.2353    3.6059   -0.6436 H   0  0  0  0  0  0  0  0  0  0  0  0
   -2.4724    0.9447   -0.5787 C   0  0  0  0  0  0  0  0  0  0  0  0
   -2.6770    0.3215   -1.8281 C   0  0  0  0  0  0  0  0  0  0  0  0
   -1.9467    0.4649   -2.6355 H   0  0  0  0  0  0  0  0  0  0  0  0
   -3.8145   -0.4705   -2.0424 C   0  0  0  0  0  0  0  0  0  0  0  0
   -3.9637   -0.9518   -3.0203 H   0  0  0  0  0  0  0  0  0  0  0  0
   -4.7623   -0.6376   -1.0196 C   0  0  0  0  0  0  0  0  0  0  0  0
   -5.6575   -1.2533   -1.1938 H   0  0  0  0  0  0  0  0  0  0  0  0
   -4.5733   -0.0070    0.2217 C   0  0  0  0  0  0  0  0  0  0  0  0
   -5.3161   -0.1316    1.0237 H   0  0  0  0  0  0  0  0  0  0  0  0
   -3.4345    0.7790    0.4433 C   0  0  0  0  0  0  0  0  0  0  0  0
   -3.2751    1.2484    1.4263 H   0  0  0  0  0  0  0  0  0  0  0  0
  1 16  1  0  0  0  0
  2 19  1  0  0  0  0
  2 17  1  0  0  0  0
  3  4  1  0  0  0  0
  3 25  1  0  0  0  0
  5 28  1  0  0  0  0
  5  4  1  0  0  0  0
  6  3  1  0  0  0  0
  7  6  2  0  0  0  0
  7  5  1  0  0  0  0
  8  1  1  0  0  0  0
  8 10  1  0  0  0  0
  9  8  1  0  0  0  0
 10 12  2  0  0  0  0
 11 10  1  0  0  0  0
 12 14  1  0  0  0  0
 12 13  1  0  0  0  0
 14 15  1  0  0  0  0
 16 17  1  0  0  0  0
 16 14  2  0  0  0  0
 17 18  1  0  0  0  0
 19 21  1  0  0  0  0
 20 19  1  0  0  0  0
 22 19  1  0  0  0  0
 22 24  1  0  0  0  0
 22 23  1  0  0  0  0
 25 22  1  0  0  0  0
 26 25  1  0  0  0  0
 27 25  1  0  0  0  0
 28 30  1  0  0  0  0
 29 28  1  0  0  0  0
 31 28  1  0  0  0  0
 32  7  1  0  0  0  0
 32 41  1  0  0  0  0
 33 32  2  0  0  0  0
 34 33  1  0  0  0  0
 35 33  1  0  0  0  0
 35 37  2  0  0  0  0
 36 35  1  0  0  0  0
 37 39  1  0  0  0  0
 38 37  1  0  0  0  0
 39 41  2  0  0  0  0
 39 40  1  0  0  0  0
 41 42  1  0  0  0  0
M  END
