3,4,5
q = -1.0, confidence = 0.048

 39 41  0  0  0  0  0  0  0  0999 V2000
    3.2509    2.0612   -0.7984 I   0  0  0  0  0  0  0  0  0  0  0  0
   -3.2703    4.3258    0.3892 Cl  0  0  0  0  0  0  0  0  0  0  0  0
    0.8877   -1.2045    0.2323 N   0  0  0  0  0  0  0  0  0  0  0  0
   -0.7919    0.7116    0.9733 N   0  0  0  0  0  2  0  0  0  0  0  0
   -2.8930    0.3772   -0.6232 C   0  0  0  0  0  3  0  0  0  0  0  0
   -3.9817    0.2495   -1.5185 C   0  0  0  0  0  0  0  0  0  0  0  0
   -4.8247    1.3275   -1.7974 C   0  0  0  0  0  0  0  0  0  0  0  0
   -4.6186    2.5926   -1.2063 C   0  0  0  0  0  0  0  0  0  0  0  0
   -3.5436    2.7570   -0.3387 C   0  0  0  0  0  0  0  0  0  0  0  0
   -2.6659    1.6743   -0.0356 C   0  0  0  0  0  0  0  0  0  0  0  0
   -1.5050    1.8061    0.7784 C   0  0  0  0  0  3  0  0  0  0  0  0
    0.4233    0.7020    1.6757 C   0  0  0  0  0  0  0  0  0  0  0  0
    0.7790    1.6037    2.6962 C   0  0  0  0  0  0  0  0  0  0  0  0
    1.9955    1.4418    3.3711 C   0  0  0  0  0  0  0  0  0  0  0  0
    2.8503    0.3734    3.0537 C   0  0  0  0  0  0  0  0  0  0  0  0
    2.5006   -0.5297    2.0384 C   0  0  0  0  0  0  0  0  0  0  0  0
    1.3011   -0.3515    1.3391 C   0  0  0  0  0  0  0  0  0  0  0  0
    1.6082   -0.9254   -1.0566 C   0  0  0  0  0  0  0  0  0  0  0  0
    3.1098   -1.0435   -0.9673 C   0  0  0  0  0  0  0  0  0  0  0  0
    3.6859   -2.3332   -0.9761 C   0  0  0  0  0  0  0  0  0  0  0  0
    5.0642   -2.5275   -0.8287 C   0  0  0  0  0  0  0  0  0  0  0  0
    5.9058   -1.4141   -0.6797 C   0  0  0  0  0  0  0  0  0  0  0  0
    5.3673   -0.1195   -0.6834 C   0  0  0  0  0  0  0  0  0  0  0  0
    3.9802    0.0599   -0.8235 C   0  0  0  0  0  0  0  0  0  0  0  0
    1.0638   -2.1821    0.5147 H   0  0  0  0  0  0  0  0  0  0  0  0
   -4.1732   -0.7217   -1.9996 H   0  0  0  0  0  0  0  0  0  0  0  0
   -5.6698    1.1926   -2.4900 H   0  0  0  0  0  0  0  0  0  0  0  0
   -5.2840    3.4395   -1.4216 H   0  0  0  0  0  0  0  0  0  0  0  0
   -1.1812    2.7862    1.1674 H   0  0  0  0  0  0  0  0  0  0  0  0
    0.0836    2.4030    2.9890 H   0  0  0  0  0  0  0  0  0  0  0  0
    2.2663    2.1416    4.1755 H   0  0  0  0  0  0  0  0  0  0  0  0
    3.7925    0.2365    3.6040 H   0  0  0  0  0  0  0  0  0  0  0  0
    3.1632   -1.3697    1.7871 H   0  0  0  0  0  0  0  0  0  0  0  0
    1.3077    0.0851   -1.3895 H   0  0  0  0  0  0  0  0  0  0  0  0
    1.2153   -1.6524   -1.7928 H   0  0  0  0  0  0  0  0  0  0  0  0
    3.0220   -3.2043   -1.1031 H   0  0  0  0  0  0  0  0  0  0  0  0
    5.4824   -3.5448   -0.8385 H   0  0  0  0  0  0  0  0  0  0  0  0
    6.9923   -1.5474   -0.5664 H   0  0  0  0  0  0  0  0  0  0  0  0
    6.0258    0.7536   -0.5744 H   0  0  0  0  0  0  0  0  0  0  0  0
  3 25  1  0  0  0  0
  3 17  1  0  0  0  0
  4 12  1  0  0  0  0
  5 10  1  0  0  0  0
  6  5  2  0  0  0  0
  7  6  1  0  0  0  0
  7  8  2  0  0  0  0
  8  9  1  0  0  0  0
  9 10  2  0  0  0  0
  9  2  1  0  0  0  0
 10 11  1  0  0  0  0
 11  4  1  0  0  0  0
 11 29  1  0  0  0  0
 12 13  1  0  0  0  0
 13 30  1  0  0  0  0
 13 14  2  0  0  0  0
 14 31  1  0  0  0  0
 15 14  1  0  0  0  0
 15 32  1  0  0  0  0
 16 15  2  0  0  0  0
 17 12  2  0  0  0  0
 17 16  1  0  0  0  0
 18 19  1  0  0  0  0
 18  3  1  0  0  0  0
 19 24  1  0  0  0  0
 20 19  2  0  0  0  0
 20 21  1  0  0  0  0
 21 22  2  0  0  0  0
 22 38  1  0  0  0  0
 23 22  1  0  0  0  0
 23 39  1  0  0  0  0
 24  1  1  0  0  0  0
 24 23  2  0  0  0  0
 26  6  1  0  0  0  0
 27  7  1  0  0  0  0
 28  8  1  0  0  0  0
 33 16  1  0  0  0  0
 34 18  1  0  0  0  0
 35 18  1  0  0  0  0
 36 20  1  0  0  0  0
 37 21  1  0  0  0  0
M  END
