1,38,76
q = -1.0, confidence = 0.128

 77 81  0  0  1  0  0  0  0  0999 V2000
   -0.0000   -0.0924    0.0000 C   0  0  0  0  0  2  0  0  0  0  0  0
   -1.2237    0.6009   -0.2338 C   0  0  0  0  0  0  0  0  0  0  0  0
   -1.2183    2.0041   -0.2521 C   0  0  0  0  0  0  0  0  0  0  0  0
   -2.1095    2.6146   -0.4430 H   0  0  0  0  0  0  0  0  0  0  0  0
   -0.0001    2.6660    0.0001 C   0  0  0  0  0  0  0  0  0  0  0  0
   -2.3002   -0.3734   -0.4550 C   0  0  2  0  0  3  0  0  0  0  0  0
   -3.1231   -2.5180   -0.6188 C   0  0  2  0  0  0  0  0  0  0  0  0
   -2.9010   -3.2482   -1.4228 H   0  0  0  0  0  0  0  0  0  0  0  0
   -4.2167   -1.5071   -1.0681 C   0  0  0  0  0  0  0  0  0  0  0  0
   -4.4241   -1.5756   -2.1576 H   0  0  0  0  0  0  0  0  0  0  0  0
   -5.1753   -1.6349   -0.5261 H   0  0  0  0  0  0  0  0  0  0  0  0
   -3.4374   -3.3185    0.6684 C   0  0  0  0  0  0  0  0  0  0  0  0
   -2.5096   -3.9020    0.8587 H   0  0  0  0  0  0  0  0  0  0  0  0
   -3.7016   -2.4138    1.8751 C   0  0  0  0  0  0  0  0  0  0  0  0
   -2.8406   -1.7435    2.0711 H   0  0  0  0  0  0  0  0  0  0  0  0
   -3.8615   -3.0224    2.7876 H   0  0  0  0  0  0  0  0  0  0  0  0
   -4.6087   -1.7854    1.7392 H   0  0  0  0  0  0  0  0  0  0  0  0
   -4.5817   -4.3059    0.4203 C   0  0  0  0  0  0  0  0  0  0  0  0
   -4.7490   -4.9420    1.3123 H   0  0  0  0  0  0  0  0  0  0  0  0
   -4.3595   -4.9780   -0.4338 H   0  0  0  0  0  0  0  0  0  0  0  0
   -5.5416   -3.7874    0.2060 H   0  0  0  0  0  0  0  0  0  0  0  0
   -6.1222    2.5208   -1.2642 C   0  0  0  0  0  0  0  0  0  0  0  0
   -6.8618    2.8555   -2.0055 H   0  0  0  0  0  0  0  0  0  0  0  0
   -5.3535    1.3770   -1.4761 C   0  0  0  0  0  0  0  0  0  0  0  0
   -5.4771    0.7988   -2.4035 H   0  0  0  0  0  0  0  0  0  0  0  0
   -4.4008    0.9668   -0.5171 C   0  0  0  0  0  0  0  0  0  0  0  0
   -4.2631    1.7133    0.6681 C   0  0  0  0  0  0  0  0  0  0  0  0
   -3.5561    1.3764    1.4399 H   0  0  0  0  0  0  0  0  0  0  0  0
   -5.0098    2.8818    0.8733 C   0  0  0  0  0  0  0  0  0  0  0  0
   -4.8622    3.4517    1.7998 H   0  0  0  0  0  0  0  0  0  0  0  0
   -5.9473    3.2968   -0.0958 C   0  0  0  0  0  0  0  0  0  0  0  0
   -6.5580    5.2411    1.1390 C   0  0  0  0  0  0  0  0  0  0  0  0
   -7.2560    6.0883    1.0073 H   0  0  0  0  0  0  0  0  0  0  0  0
   -5.5197    5.6343    1.2146 H   0  0  0  0  0  0  0  0  0  0  0  0
   -6.8098    4.7099    2.0844 H   0  0  0  0  0  0  0  0  0  0  0  0
   -1.0774    4.7149   -0.1840 O   0  0  0  0  0  0  0  0  0  0  0  0
   -6.7224    4.4073    0.0057 O   0  0  0  0  0  0  0  0  0  0  0  0
   -1.9439   -1.6608   -0.4330 N   0  0  0  0  0  2  0  0  0  0  0  0
   -3.6259   -0.1947   -0.7382 N   0  0  0  0  0  0  0  0  0  0  0  0
   -0.0001    4.1404    0.0002 N   0  0  0  0  0  0  0  0  0  0  0  0
    1.2236    0.6010    0.2339 C   0  0  0  0  0  0  0  0  0  0  0  0
    1.2182    2.0041    0.2523 C   0  0  0  0  0  0  0  0  0  0  0  0
    2.1093    2.6146    0.4433 H   0  0  0  0  0  0  0  0  0  0  0  0
    2.3002   -0.3733    0.4550 C   0  0  0  0  0  0  0  0  0  0  0  0
    3.1231   -2.5179    0.6189 C   0  0  2  0  0  0  0  0  0  0  0  0
    2.9010   -3.2482    1.4229 H   0  0  0  0  0  0  0  0  0  0  0  0
    4.2167   -1.5071    1.0682 C   0  0  0  0  0  0  0  0  0  0  0  0
    4.4241   -1.5755    2.1576 H   0  0  0  0  0  0  0  0  0  0  0  0
    5.1752   -1.6348    0.5262 H   0  0  0  0  0  0  0  0  0  0  0  0
    3.4374   -3.3185   -0.6684 C   0  0  0  0  0  0  0  0  0  0  0  0
    2.5096   -3.9021   -0.8585 H   0  0  0  0  0  0  0  0  0  0  0  0
    3.7013   -2.4138   -1.8751 C   0  0  0  0  0  0  0  0  0  0  0  0
    2.8401   -1.7436   -2.0710 H   0  0  0  0  0  0  0  0  0  0  0  0
    3.8612   -3.0224   -2.7875 H   0  0  0  0  0  0  0  0  0  0  0  0
    4.6083   -1.7853   -1.7393 H   0  0  0  0  0  0  0  0  0  0  0  0
    4.5819   -4.3057   -0.4203 C   0  0  0  0  0  0  0  0  0  0  0  0
    4.7491   -4.9418   -1.3123 H   0  0  0  0  0  0  0  0  0  0  0  0
    4.3599   -4.9778    0.4339 H   0  0  0  0  0  0  0  0  0  0  0  0
    5.5417   -3.7870   -0.2061 H   0  0  0  0  0  0  0  0  0  0  0  0
    6.1222    2.5208    1.2641 C   0  0  0  0  0  0  0  0  0  0  0  0
    6.8618    2.8555    2.0054 H   0  0  0  0  0  0  0  0  0  0  0  0
    5.3534    1.3770    1.4761 C   0  0  0  0  0  0  0  0  0  0  0  0
    5.4770    0.7989    2.4035 H   0  0  0  0  0  0  0  0  0  0  0  0
    4.4008    0.9669    0.5170 C   0  0  0  0  0  0  0  0  0  0  0  0
    4.2632    1.7132   -0.6683 C   0  0  0  0  0  0  0  0  0  0  0  0
    3.5563    1.3762   -1.4401 H   0  0  0  0  0  0  0  0  0  0  0  0
    5.0100    2.8816   -0.8735 C   0  0  0  0  0  0  0  0  0  0  0  0
    4.8625    3.4515   -1.8000 H   0  0  0  0  0  0  0  0  0  0  0  0
    5.9474    3.2967    0.0956 C   0  0  0  0  0  0  0  0  0  0  0  0
    6.5583    5.2408   -1.1393 C   0  0  0  0  0  0  0  0  0  0  0  0
    7.2563    6.0880   -1.0077 H   0  0  0  0  0  0  0  0  0  0  0  0
    5.5200    5.6341   -1.2150 H   0  0  0  0  0  0  0  0  0  0  0  0
    6.8101    4.7096   -2.0846 H   0  0  0  0  0  0  0  0  0  0  0  0
    1.0771    4.7149    0.1844 O   0  0  0  0  0  0  0  0  0  0  0  0
    6.7226    4.4072   -0.0059 O   0  0  0  0  0  0  0  0  0  0  0  0
    1.9438   -1.6607    0.4331 N   0  0  0  0  0  2  0  0  0  0  0  0
    3.6259   -0.1947    0.7382 N   0  0  0  0  0  0  0  0  0  0  0  0
  1 41  1  0  0  0  0
  2  1  1  0  0  0  0
  3  2  2  0  0  0  0
  3  5  1  0  0  0  0
  4  3  1  0  0  0  0
  5 40  1  0  0  0  0
  5 42  2  0  0  0  0
  6 38  1  0  0  0  0
  6  2  1  6  0  0  0
  7  8  1  6  0  0  0
  7 38  1  0  0  0  0
  7 12  1  0  0  0  0
  9 39  1  0  0  0  0
  9  7  1  0  0  0  0
  9 11  1  0  0  0  0
 10  9  1  0  0  0  0
 12 13  1  0  0  0  0
 12 14  1  0  0  0  0
 14 15  1  0  0  0  0
 14 16  1  0  0  0  0
 17 14  1  0  0  0  0
 18 12  1  0  0  0  0
 18 19  1  0  0  0  0
 20 18  1  0  0  0  0
 21 18  1  0  0  0  0
 22 31  1  0  0  0  0
 23 22  1  0  0  0  0
 24 22  2  0  0  0  0
 24 26  1  0  0  0  0
 25 24  1  0  0  0  0
 26 27  2  0  0  0  0
 27 29  1  0  0  0  0
 27 28  1  0  0  0  0
 29 30  1  0  0  0  0
 31 37  1  0  0  0  0
 31 29  2  0  0  0  0
 32 34  1  0  0  0  0
 32 35  1  0  0  0  0
 33 32  1  0  0  0  0
 36 40  2  0  0  0  0
 37 32  1  0  0  0  0
 39 26  1  0  0  0  0
 39  6  1  0  0  0  0
 40 74  2  0  0  0  0
 41 42  1  0  0  0  0
 41 44  2  0  0  0  0
 42 43  1  0  0  0  0
 44 77  1  0  0  0  0
 45 47  1  0  0  0  0
 45 46  1  1  0  0  0
 47 48  1  0  0  0  0
 49 47  1  0  0  0  0
 50 56  1  0  0  0  0
 50 45  1  0  0  0  0
 51 50  1  0  0  0  0
 52 55  1  0  0  0  0
 52 50  1  0  0  0  0
 53 52  1  0  0  0  0
 54 52  1  0  0  0  0
 56 59  1  0  0  0  0
 56 58  1  0  0  0  0
 57 56  1  0  0  0  0
 60 62  1  0  0  0  0
 60 61  1  0  0  0  0
 62 63  1  0  0  0  0
 64 77  1  0  0  0  0
 64 62  2  0  0  0  0
 65 64  1  0  0  0  0
 66 65  1  0  0  0  0
 67 65  2  0  0  0  0
 67 69  1  0  0  0  0
 68 67  1  0  0  0  0
 69 60  2  0  0  0  0
 70 71  1  0  0  0  0
 70 75  1  0  0  0  0
 72 70  1  0  0  0  0
 73 70  1  0  0  0  0
 75 69  1  0  0  0  0
 76 44  1  0  0  0  0
 76 45  1  0  0  0  0
 77 47  1  0  0  0  0
M  END
