1,51,53
q = -1.0, confidence = 0.112

 64 66  0  0  1  0  0  0  0  0999 V2000
   -0.4294   -0.3487   -0.7705 C   0  0  0  0  0  2  0  0  0  0  0  0
    0.7037   -1.1520   -0.9216 C   0  0  0  0  0  0  0  0  0  0  0  0
    0.6016   -2.2313   -0.7463 H   0  0  0  0  0  0  0  0  0  0  0  0
    1.9451   -0.5898   -1.2863 C   0  0  0  0  0  0  0  0  0  0  0  0
    2.0556    0.8190   -1.5314 C   0  0  0  0  0  0  0  0  0  0  0  0
    0.9260    1.6271   -1.3707 C   0  0  0  0  0  0  0  0  0  0  0  0
    1.0029    2.7094   -1.5423 H   0  0  0  0  0  0  0  0  0  0  0  0
   -0.3211    1.0653   -0.9918 C   0  0  0  0  0  0  0  0  0  0  0  0
   -1.5407    1.8340   -0.8014 C   0  0  0  0  0  0  0  0  0  0  0  0
   -4.7783    0.5680    0.1445 C   0  0  2  0  0  3  0  0  0  0  0  0
   -5.2766   -1.6533    0.5636 C   0  0  0  0  0  0  0  0  0  0  0  0
   -4.9003   -2.6892    0.6134 H   0  0  0  0  0  0  0  0  0  0  0  0
   -6.6083   -1.2972    0.8336 C   0  0  0  0  0  0  0  0  0  0  0  0
   -7.3627   -2.0414    1.1145 H   0  0  0  0  0  0  0  0  0  0  0  0
   -6.9166    0.0670    0.7226 C   0  0  0  0  0  0  0  0  0  0  0  0
   -1.6941    3.3155   -0.9637 C   0  0  0  0  0  0  0  0  0  0  0  0
   -2.4326    3.5621   -1.7573 H   0  0  0  0  0  0  0  0  0  0  0  0
   -0.7384    3.7919   -1.2431 H   0  0  0  0  0  0  0  0  0  0  0  0
   -2.0397    3.7926   -0.0209 H   0  0  0  0  0  0  0  0  0  0  0  0
   -8.3249    0.5898    0.9880 C   0  0  0  0  0  0  0  0  0  0  0  0
    3.0743   -2.6900   -1.1723 C   0  0  0  0  0  0  0  0  0  0  0  0
    2.4709   -3.2235   -1.9415 H   0  0  0  0  0  0  0  0  0  0  0  0
    2.6260   -2.8944   -0.1752 H   0  0  0  0  0  0  0  0  0  0  0  0
    4.5028   -3.1892   -1.1838 C   0  0  0  0  0  0  0  0  0  0  0  0
    4.4879   -4.3083   -1.2446 H   0  0  0  0  0  0  0  0  0  0  0  0
    5.0202   -2.8158   -2.1023 H   0  0  0  0  0  0  0  0  0  0  0  0
    6.5040   -3.1193    0.0597 C   0  0  0  0  0  0  0  0  0  0  0  0
    7.0746   -2.7497   -0.8284 H   0  0  0  0  0  0  0  0  0  0  0  0
    6.6157   -4.2342    0.0852 H   0  0  0  0  0  0  0  0  0  0  0  0
    7.1125   -2.5324    1.3171 C   0  0  0  0  0  0  0  0  0  0  0  0
    6.4275   -2.7434    2.1756 H   0  0  0  0  0  0  0  0  0  0  0  0
    8.0823   -3.0512    1.5340 H   0  0  0  0  0  0  0  0  0  0  0  0
    7.6709   -0.4856    2.3310 C   0  0  0  0  0  0  0  0  0  0  0  0
    8.6353   -0.8860    2.7394 H   0  0  0  0  0  0  0  0  0  0  0  0
    6.8955   -0.6231    3.1258 H   0  0  0  0  0  0  0  0  0  0  0  0
    7.8428    0.9940    2.0550 C   0  0  0  0  0  0  0  0  0  0  0  0
    8.3394    1.4688    2.9410 H   0  0  0  0  0  0  0  0  0  0  0  0
    8.5316    1.1246    1.1831 H   0  0  0  0  0  0  0  0  0  0  0  0
    6.6698    2.9474    1.4824 C   0  0  0  0  0  0  0  0  0  0  0  0
    7.4067    3.1296    0.6605 H   0  0  0  0  0  0  0  0  0  0  0  0
    7.0076    3.5500    2.3657 H   0  0  0  0  0  0  0  0  0  0  0  0
    5.3119    3.4482    1.0344 C   0  0  0  0  0  0  0  0  0  0  0  0
    4.5380    3.1213    1.7726 H   0  0  0  0  0  0  0  0  0  0  0  0
    5.3207    4.5689    1.0363 H   0  0  0  0  0  0  0  0  0  0  0  0
    3.7781    3.3417   -0.7504 C   0  0  0  0  0  0  0  0  0  0  0  0
    3.7401    4.4499   -0.9268 H   0  0  0  0  0  0  0  0  0  0  0  0
    2.9601    3.1038   -0.0255 H   0  0  0  0  0  0  0  0  0  0  0  0
    3.5328    2.6281   -2.0733 C   0  0  0  0  0  0  0  0  0  0  0  0
    2.7115    3.1295   -2.6348 H   0  0  0  0  0  0  0  0  0  0  0  0
    4.4551    2.7018   -2.6835 H   0  0  0  0  0  0  0  0  0  0  0  0
   -2.5618    1.0654   -0.4534 N   0  0  0  0  0  2  0  0  0  0  0  0
   -3.8302    1.4967   -0.2072 N   0  0  0  0  0  0  0  0  0  0  0  0
   -4.3646   -0.7348    0.2218 N   0  0  0  0  0  2  0  0  0  0  0  0
   -6.0223    1.0027    0.3823 N   0  0  0  0  0  0  0  0  0  0  0  0
    3.0873   -1.2907   -1.4383 O   0  0  0  0  0  0  0  0  0  0  0  0
    5.1478   -2.7472   -0.0151 O   0  0  0  0  0  0  0  0  0  0  0  0
    7.3025   -1.1483    1.1461 O   0  0  0  0  0  0  0  0  0  0  0  0
    6.5891    1.5795    1.7979 O   0  0  0  0  0  0  0  0  0  0  0  0
    5.0304    2.9454   -0.2514 O   0  0  0  0  0  0  0  0  0  0  0  0
    3.2893    1.2393   -1.9277 O   0  0  0  0  0  0  0  0  0  0  0  0
   -8.3213    1.4845    1.9966 F   0  0  0  0  0  0  0  0  0  0  0  0
   -8.8240    1.1985   -0.1066 F   0  0  0  0  0  0  0  0  0  0  0  0
   -9.1636   -0.4157    1.3252 F   0  0  0  0  0  0  0  0  0  0  0  0
   -4.1021    2.4811   -0.2773 H   0  0  0  0  0  0  0  0  0  0  0  0
  2  1  1  0  0  0  0
  2  3  1  0  0  0  0
  4  2  2  0  0  0  0
  5  6  2  0  0  0  0
  5  4  1  0  0  0  0
  6  8  1  0  0  0  0
  7  6  1  0  0  0  0
  8  9  2  0  0  0  0
  8  1  1  0  0  0  0
  9 51  1  0  0  0  0
 10 52  1  6  0  0  0
 10 53  1  0  0  0  0
 10 54  1  0  0  0  0
 11 12  1  0  0  0  0
 11 13  2  0  0  0  0
 13 14  1  0  0  0  0
 15 13  1  0  0  0  0
 15 20  1  0  0  0  0
 16  9  1  0  0  0  0
 16 19  1  0  0  0  0
 17 16  1  0  0  0  0
 18 16  1  0  0  0  0
 20 63  1  0  0  0  0
 20 61  1  0  0  0  0
 21 23  1  0  0  0  0
 22 21  1  0  0  0  0
 24 21  1  0  0  0  0
 24 56  1  0  0  0  0
 25 24  1  0  0  0  0
 26 24  1  0  0  0  0
 27 29  1  0  0  0  0
 27 30  1  0  0  0  0
 28 27  1  0  0  0  0
 30 32  1  0  0  0  0
 30 31  1  0  0  0  0
 33 34  1  0  0  0  0
 33 35  1  0  0  0  0
 36 33  1  0  0  0  0
 36 37  1  0  0  0  0
 38 36  1  0  0  0  0
 39 58  1  0  0  0  0
 39 41  1  0  0  0  0
 40 39  1  0  0  0  0
 42 44  1  0  0  0  0
 42 39  1  0  0  0  0
 42 43  1  0  0  0  0
 45 59  1  0  0  0  0
 45 47  1  0  0  0  0
 46 45  1  0  0  0  0
 48 60  1  0  0  0  0
 48 45  1  0  0  0  0
 49 48  1  0  0  0  0
 50 48  1  0  0  0  0
 51 52  1  0  0  0  0
 53 11  1  0  0  0  0
 54 15  2  0  0  0  0
 55  4  1  0  0  0  0
 55 21  1  0  0  0  0
 56 27  1  0  0  0  0
 57 30  1  0  0  0  0
 57 33  1  0  0  0  0
 58 36  1  0  0  0  0
 59 42  1  0  0  0  0
 60  5  1  0  0  0  0
 62 20  1  0  0  0  0
 64 52  1  0  0  0  0
M  END
