2,3,24
q = -2.0, confidence = 0.886

 34 35  0  0  1  0  0  0  0  0999 V2000
    0.0608   -3.6003   -0.4591 O   0  0  0  0  0  0  0  0  0  0  0  0
   -1.3959    1.0936   -0.1096 N   0  0  0  0  0  2  0  0  0  0  0  0
   -0.1320   -1.2948   -0.2167 N   0  0  0  0  0  2  0  0  0  0  0  0
   -1.9407    2.3100   -0.0967 C   0  0  0  0  0  0  0  0  0  0  0  0
   -1.2460    3.1600   -0.1847 H   0  0  0  0  0  0  0  0  0  0  0  0
   -3.3345    2.5127    0.0268 C   0  0  0  0  0  0  0  0  0  0  0  0
   -3.7385    3.5352    0.0314 H   0  0  0  0  0  0  0  0  0  0  0  0
   -4.1615    1.4053    0.1444 C   0  0  0  0  0  0  0  0  0  0  0  0
   -5.2516    1.5232    0.2484 H   0  0  0  0  0  0  0  0  0  0  0  0
   -3.6106    0.0935    0.1316 C   0  0  0  0  0  0  0  0  0  0  0  0
   -2.1812   -0.0225   -0.0067 C   0  0  1  0  0  3  0  0  0  0  0  0
   -1.5204   -1.3062   -0.0473 C   0  0  0  0  0  0  0  0  0  0  0  0
   -2.3512   -2.4418    0.0774 C   0  0  0  0  0  0  0  0  0  0  0  0
   -1.8779   -3.4272    0.0457 H   0  0  0  0  0  0  0  0  0  0  0  0
   -3.7518   -2.3166    0.2229 C   0  0  0  0  0  0  0  0  0  0  0  0
   -4.3450   -3.2397    0.3172 H   0  0  0  0  0  0  0  0  0  0  0  0
   -4.3937   -1.0848    0.2479 C   0  0  0  0  0  0  0  0  0  0  0  0
   -5.4852   -1.0028    0.3573 H   0  0  0  0  0  0  0  0  0  0  0  0
    0.5689   -2.4721   -0.4484 C   0  0  0  0  0  0  0  0  0  0  0  0
    2.0606   -2.3495   -0.7424 C   0  0  0  0  0  0  0  0  0  0  0  0
    2.1848   -1.9604   -1.7779 H   0  0  0  0  0  0  0  0  0  0  0  0
    2.4308   -3.3932   -0.7430 H   0  0  0  0  0  0  0  0  0  0  0  0
    2.8918   -1.4766    0.2170 C   0  0  0  0  0  0  0  0  0  0  0  0
    2.6282   -0.0033   -0.0891 C   0  0  0  0  0  3  0  0  0  0  0  0
    3.0104    0.2519   -1.1042 H   0  0  0  0  0  0  0  0  0  0  0  0
    3.1522    0.6482    0.6449 H   0  0  0  0  0  0  0  0  0  0  0  0
    2.5632   -1.8105    1.6836 C   0  0  0  0  0  0  0  0  0  0  0  0
    3.2131   -1.2296    2.3705 H   0  0  0  0  0  0  0  0  0  0  0  0
    2.7206   -2.8887    1.8933 H   0  0  0  0  0  0  0  0  0  0  0  0
    1.5100   -1.5624    1.9231 H   0  0  0  0  0  0  0  0  0  0  0  0
    4.3884   -1.7667   -0.0376 C   0  0  0  0  0  0  0  0  0  0  0  0
    4.6557   -1.5900   -1.1000 H   0  0  0  0  0  0  0  0  0  0  0  0
    4.6371   -2.8210    0.2055 H   0  0  0  0  0  0  0  0  0  0  0  0
    5.0297   -1.1119    0.5884 H   0  0  0  0  0  0  0  0  0  0  0  0
  1 19  2  0  0  0  0
  2  4  1  0  0  0  0
  3 12  1  0  0  0  0
  4  6  2  0  0  0  0
  5  4  1  0  0  0  0
  6  7  1  0  0  0  0
  6  8  1  0  0  0  0
  8  9  1  0  0  0  0
 10  8  2  0  0  0  0
 10 17  1  0  0  0  0
 11  2  1  6  0  0  0
 11 10  1  0  0  0  0
 12 11  1  0  0  0  0
 12 13  2  0  0  0  0
 13 15  1  0  0  0  0
 14 13  1  0  0  0  0
 15 17  2  0  0  0  0
 15 16  1  0  0  0  0
 17 18  1  0  0  0  0
 19  3  1  0  0  0  0
 20 19  1  0  0  0  0
 20 23  1  0  0  0  0
 21 20  1  0  0  0  0
 22 20  1  0  0  0  0
 23 27  1  0  0  0  0
 24 23  1  0  0  0  0
 24 26  1  0  0  0  0
 25 24  1  0  0  0  0
 27 29  1  0  0  0  0
 27 30  1  0  0  0  0
 27 28  1  0  0  0  0
 31 33  1  0  0  0  0
 31 23  1  0  0  0  0
 31 34  1  0  0  0  0
 32 31  1  0  0  0  0
M  END
