1,2,22
q = -1.0, confidence = 0.026

 43 45  0  0  1  0  0  0  0  0999 V2000
   -0.9804    1.2014   -0.6632 N   0  0  0  0  0  2  0  0  0  0  0  0
    1.2588   -0.2120   -0.0501 N   0  0  0  0  0  2  0  0  0  0  0  0
    4.5049   -1.8309   -0.6633 C   0  0  0  0  0  0  0  0  0  0  0  0
    5.8935   -1.7111   -0.7705 C   0  0  0  0  0  0  0  0  0  0  0  0
    6.5333   -0.5546   -0.2953 C   0  0  0  0  0  0  0  0  0  0  0  0
    5.7782    0.4747    0.2928 C   0  0  0  0  0  0  0  0  0  0  0  0
    4.3864    0.3691    0.3844 C   0  0  0  0  0  0  0  0  0  0  0  0
    3.7215   -0.7831   -0.1116 C   0  0  0  0  0  0  0  0  0  0  0  0
    2.2773   -1.0216   -0.0789 C   0  0  0  0  0  3  0  0  0  0  0  0
    1.3758    1.2599   -0.0591 C   0  0  2  0  0  0  0  0  0  0  0  0
    1.2238    1.8159    1.3696 C   0  0  0  0  0  0  0  0  0  0  0  0
    1.2453    3.3481    1.3823 C   0  0  0  0  0  0  0  0  0  0  0  0
    0.1504    3.9271    0.4793 C   0  0  0  0  0  0  0  0  0  0  0  0
    0.2758    3.3850   -0.9497 C   0  0  0  0  0  0  0  0  0  0  0  0
    0.2904    1.8512   -1.0042 C   0  0  2  0  0  0  0  0  0  0  0  0
   -2.2024    1.6481   -0.8040 C   0  0  0  0  0  3  0  0  0  0  0  0
   -3.2705    0.7377   -0.4589 C   0  0  0  0  0  0  0  0  0  0  0  0
   -4.6367    1.0818   -0.5477 C   0  0  0  0  0  0  0  0  0  0  0  0
   -5.6101    0.1395   -0.1934 C   0  0  0  0  0  0  0  0  0  0  0  0
   -5.2124   -1.1339    0.2459 C   0  0  0  0  0  0  0  0  0  0  0  0
   -3.8479   -1.4860    0.3348 C   0  0  0  0  0  0  0  0  0  0  0  0
   -2.8500   -0.5682   -0.0138 C   0  0  0  0  0  3  0  0  0  0  0  0
    4.0060   -2.7437   -1.0248 H   0  0  0  0  0  0  0  0  0  0  0  0
    6.4820   -2.5266   -1.2155 H   0  0  0  0  0  0  0  0  0  0  0  0
    7.6273   -0.4616   -0.3662 H   0  0  0  0  0  0  0  0  0  0  0  0
    6.2827    1.3654    0.6952 H   0  0  0  0  0  0  0  0  0  0  0  0
    3.8287    1.1655    0.8923 H   0  0  0  0  0  0  0  0  0  0  0  0
    2.0049   -2.0942   -0.1252 H   0  0  0  0  0  0  0  0  0  0  0  0
    2.3595    1.5602   -0.4755 H   0  0  0  0  0  0  0  0  0  0  0  0
    2.0217    1.3961    2.0161 H   0  0  0  0  0  0  0  0  0  0  0  0
    0.2629    1.4428    1.7889 H   0  0  0  0  0  0  0  0  0  0  0  0
    1.1265    3.7131    2.4221 H   0  0  0  0  0  0  0  0  0  0  0  0
    2.2400    3.7092    1.0374 H   0  0  0  0  0  0  0  0  0  0  0  0
    0.2027    5.0340    0.4631 H   0  0  0  0  0  0  0  0  0  0  0  0
   -0.8461    3.6702    0.9000 H   0  0  0  0  0  0  0  0  0  0  0  0
    1.2278    3.7367   -1.4010 H   0  0  0  0  0  0  0  0  0  0  0  0
   -0.5228    3.7793   -1.6116 H   0  0  0  0  0  0  0  0  0  0  0  0
    0.5346    1.5190   -2.0387 H   0  0  0  0  0  0  0  0  0  0  0  0
   -2.3969    2.6699   -1.1783 H   0  0  0  0  0  0  0  0  0  0  0  0
   -4.9305    2.0847   -0.8947 H   0  0  0  0  0  0  0  0  0  0  0  0
   -6.6776    0.3941   -0.2576 H   0  0  0  0  0  0  0  0  0  0  0  0
   -5.9773   -1.8738    0.5280 H   0  0  0  0  0  0  0  0  0  0  0  0
   -3.5914   -2.4969    0.6886 H   0  0  0  0  0  0  0  0  0  0  0  0
  3  8  1  0  0  0  0
  4  3  2  0  0  0  0
  4  5  1  0  0  0  0
  5  6  2  0  0  0  0
  6  7  1  0  0  0  0
  6 26  1  0  0  0  0
  7 27  1  0  0  0  0
  8  9  1  0  0  0  0
  8  7  2  0  0  0  0
  9  2  1  0  0  0  0
 10 29  1  6  0  0  0
 10  2  1  0  0  0  0
 10 11  1  0  0  0  0
 11 12  1  0  0  0  0
 11 31  1  0  0  0  0
 11 30  1  0  0  0  0
 12 32  1  0  0  0  0
 13 35  1  0  0  0  0
 13 12  1  0  0  0  0
 14 13  1  0  0  0  0
 15 38  1  6  0  0  0
 15 14  1  0  0  0  0
 15  1  1  0  0  0  0
 15 10  1  0  0  0  0
 16  1  1  0  0  0  0
 16 17  1  0  0  0  0
 17 22  1  0  0  0  0
 18 17  2  0  0  0  0
 18 19  1  0  0  0  0
 19 20  2  0  0  0  0
 20 21  1  0  0  0  0
 20 42  1  0  0  0  0
 21 43  1  0  0  0  0
 22 21  2  0  0  0  0
 23  3  1  0  0  0  0
 24  4  1  0  0  0  0
 25  5  1  0  0  0  0
 28  9  1  0  0  0  0
 33 12  1  0  0  0  0
 34 13  1  0  0  0  0
 36 14  1  0  0  0  0
 37 14  1  0  0  0  0
 39 16  1  0  0  0  0
 40 18  1  0  0  0  0
 41 19  1  0  0  0  0
M  END
