2,4,67
q = 0.0, confidence = 0.998

 67 72  0  0  1  0  0  0  0  0999 V2000
    0.2677    1.5540   -0.0723 P   0  0  0  0  0  4  0  0  0  0  0  0
   -2.0425   -2.2587   -0.0957 N   0  0  0  0  0  2  0  0  0  0  0  0
    0.5566   -1.4821    0.0091 P   0  0  0  0  0  4  0  0  0  0  0  0
   -2.4125    1.8342   -0.3551 N   0  0  0  0  0  2  0  0  0  0  0  0
   -0.7668   -2.7461   -0.0307 C   0  0  2  0  0  3  0  0  0  0  0  0
   -0.4895   -4.1168   -0.0096 C   0  0  0  0  0  0  0  0  0  0  0  0
    0.5551   -4.4583    0.0340 H   0  0  0  0  0  0  0  0  0  0  0  0
   -1.5532   -5.0303   -0.0497 C   0  0  0  0  0  0  0  0  0  0  0  0
   -1.3623   -6.1135   -0.0348 H   0  0  0  0  0  0  0  0  0  0  0  0
   -2.8579   -4.5278   -0.1126 C   0  0  0  0  0  0  0  0  0  0  0  0
   -3.7290   -5.1973   -0.1475 H   0  0  0  0  0  0  0  0  0  0  0  0
   -3.0677   -3.1427   -0.1358 C   0  0  0  0  0  0  0  0  0  0  0  0
   -4.0705   -2.6863   -0.1855 H   0  0  0  0  0  0  0  0  0  0  0  0
    1.4539   -1.6949    1.5882 C   0  0  0  0  0  0  0  0  0  0  0  0
    0.7724   -2.1801    2.7246 C   0  0  0  0  0  0  0  0  0  0  0  0
   -0.2473   -2.5843    2.6300 H   0  0  0  0  0  0  0  0  0  0  0  0
    1.3913   -2.1383    3.9816 C   0  0  0  0  0  0  0  0  0  0  0  0
    0.8614   -2.5286    4.8634 H   0  0  0  0  0  0  0  0  0  0  0  0
    2.6824   -1.5999    4.1157 C   0  0  0  0  0  0  0  0  0  0  0  0
    3.1634   -1.5651    5.1046 H   0  0  0  0  0  0  0  0  0  0  0  0
    3.3604   -1.1100    2.9882 C   0  0  0  0  0  0  0  0  0  0  0  0
    4.3716   -0.6893    3.0915 H   0  0  0  0  0  0  0  0  0  0  0  0
    2.7519   -1.1569    1.7260 C   0  0  0  0  0  0  0  0  0  0  0  0
    3.2895   -0.7763    0.8439 H   0  0  0  0  0  0  0  0  0  0  0  0
    1.7514   -1.8596   -1.3211 C   0  0  0  0  0  0  0  0  0  0  0  0
    2.8168   -2.7686   -1.1480 C   0  0  0  0  0  0  0  0  0  0  0  0
    2.9822   -3.2577   -0.1758 H   0  0  0  0  0  0  0  0  0  0  0  0
    3.6800   -3.0347   -2.2208 C   0  0  0  0  0  0  0  0  0  0  0  0
    4.5133   -3.7409   -2.0895 H   0  0  0  0  0  0  0  0  0  0  0  0
    3.4852   -2.3964   -3.4575 C   0  0  0  0  0  0  0  0  0  0  0  0
    4.1696   -2.6045   -4.2937 H   0  0  0  0  0  0  0  0  0  0  0  0
    2.4208   -1.4963   -3.6296 C   0  0  0  0  0  0  0  0  0  0  0  0
    2.2689   -0.9964   -4.5976 H   0  0  0  0  0  0  0  0  0  0  0  0
    1.5485   -1.2301   -2.5657 C   0  0  0  0  0  0  0  0  0  0  0  0
    0.7093   -0.5269   -2.6796 H   0  0  0  0  0  0  0  0  0  0  0  0
   -1.2460    2.5467   -0.3398 C   0  0  1  0  0  3  0  0  0  0  0  0
   -1.2176    3.9396   -0.4640 C   0  0  0  0  0  0  0  0  0  0  0  0
   -0.2529    4.4674   -0.4356 H   0  0  0  0  0  0  0  0  0  0  0  0
   -2.4248    4.6359   -0.6231 C   0  0  0  0  0  0  0  0  0  0  0  0
   -2.4303    5.7308   -0.7284 H   0  0  0  0  0  0  0  0  0  0  0  0
   -3.6172    3.9031   -0.6391 C   0  0  0  0  0  0  0  0  0  0  0  0
   -4.5921    4.3974   -0.7561 H   0  0  0  0  0  0  0  0  0  0  0  0
   -3.5771    2.5095   -0.5004 C   0  0  0  0  0  0  0  0  0  0  0  0
   -4.4817    1.8786   -0.4965 H   0  0  0  0  0  0  0  0  0  0  0  0
    1.4981    2.0051   -1.3412 C   0  0  0  0  0  0  0  0  0  0  0  0
    1.0677    2.3796   -2.6320 C   0  0  0  0  0  0  0  0  0  0  0  0
   -0.0005    2.5574   -2.8305 H   0  0  0  0  0  0  0  0  0  0  0  0
    2.0021    2.5143   -3.6677 C   0  0  0  0  0  0  0  0  0  0  0  0
    1.6654    2.8192   -4.6697 H   0  0  0  0  0  0  0  0  0  0  0  0
    3.3634    2.2580   -3.4287 C   0  0  0  0  0  0  0  0  0  0  0  0
    4.0931    2.3597   -4.2457 H   0  0  0  0  0  0  0  0  0  0  0  0
    3.7929    1.8748   -2.1485 C   0  0  0  0  0  0  0  0  0  0  0  0
    4.8577    1.6725   -1.9605 H   0  0  0  0  0  0  0  0  0  0  0  0
    2.8659    1.7499   -1.1036 C   0  0  0  0  0  0  0  0  0  0  0  0
    3.2072    1.4534   -0.1002 H   0  0  0  0  0  0  0  0  0  0  0  0
    0.9470    2.0847    1.5433 C   0  0  0  0  0  0  0  0  0  0  0  0
    0.4970    1.3879    2.6829 C   0  0  0  0  0  0  0  0  0  0  0  0
   -0.2070    0.5507    2.5593 H   0  0  0  0  0  0  0  0  0  0  0  0
    0.9568    1.7606    3.9529 C   0  0  0  0  0  0  0  0  0  0  0  0
    0.6121    1.2102    4.8407 H   0  0  0  0  0  0  0  0  0  0  0  0
    1.8567    2.8305    4.0884 C   0  0  0  0  0  0  0  0  0  0  0  0
    2.2194    3.1205    5.0859 H   0  0  0  0  0  0  0  0  0  0  0  0
    2.2935    3.5357    2.9543 C   0  0  0  0  0  0  0  0  0  0  0  0
    2.9941    4.3769    3.0636 H   0  0  0  0  0  0  0  0  0  0  0  0
    1.8406    3.1680    1.6788 C   0  0  0  0  0  0  0  0  0  0  0  0
    2.1911    3.7187    0.7926 H   0  0  0  0  0  0  0  0  0  0  0  0
   -0.3416   -0.0396   -0.1835 C   0  0  0  0  0  2  0  0  0  0  0  0
  1 56  1  0  0  0  0
  2  5  1  0  0  0  0
  3 14  1  0  0  0  0
  4 36  1  0  0  0  0
  5  6  1  0  0  0  0
  5  3  1  6  0  0  0
  6  7  1  0  0  0  0
  8  9  1  0  0  0  0
  8  6  2  0  0  0  0
 10  8  1  0  0  0  0
 11 10  1  0  0  0  0
 12 10  2  0  0  0  0
 12  2  1  0  0  0  0
 13 12  1  0  0  0  0
 14 23  2  0  0  0  0
 14 15  1  0  0  0  0
 15 17  2  0  0  0  0
 16 15  1  0  0  0  0
 17 19  1  0  0  0  0
 17 18  1  0  0  0  0
 19 20  1  0  0  0  0
 21 22  1  0  0  0  0
 21 19  2  0  0  0  0
 23 21  1  0  0  0  0
 24 23  1  0  0  0  0
 25 26  1  0  0  0  0
 25  3  1  0  0  0  0
 26 27  1  0  0  0  0
 28 29  1  0  0  0  0
 28 26  2  0  0  0  0
 30 28  1  0  0  0  0
 31 30  1  0  0  0  0
 32 30  2  0  0  0  0
 32 34  1  0  0  0  0
 33 32  1  0  0  0  0
 34 25  2  0  0  0  0
 35 34  1  0  0  0  0
 36  1  1  1  0  0  0
 37 38  1  0  0  0  0
 37 36  1  0  0  0  0
 39 37  2  0  0  0  0
 40 39  1  0  0  0  0
 41 39  1  0  0  0  0
 41 43  2  0  0  0  0
 42 41  1  0  0  0  0
 43 44  1  0  0  0  0
 43  4  1  0  0  0  0
 45 54  1  0  0  0  0
 45  1  1  0  0  0  0
 46 45  2  0  0  0  0
 47 46  1  0  0  0  0
 48 50  2  0  0  0  0
 48 46  1  0  0  0  0
 49 48  1  0  0  0  0
 50 52  1  0  0  0  0
 51 50  1  0  0  0  0
 52 53  1  0  0  0  0
 52 54  2  0  0  0  0
 54 55  1  0  0  0  0
 56 65  2  0  0  0  0
 56 57  1  0  0  0  0
 57 59  2  0  0  0  0
 58 57  1  0  0  0  0
 59 61  1  0  0  0  0
 59 60  1  0  0  0  0
 61 62  1  0  0  0  0
 63 64  1  0  0  0  0
 63 61  2  0  0  0  0
 65 63  1  0  0  0  0
 66 65  1  0  0  0  0
 67  1  1  0  0  0  0
 67  3  1  0  0  0  0
M  END
