1,13,16
q = -1.0, confidence = 0.08

 45 46  0  0  1  0  0  0  0  0999 V2000
    2.5454   -0.7423    0.0553 C   0  0  0  0  0  3  0  0  0  0  0  0
    3.2799   -1.9371   -0.0617 C   0  0  0  0  0  0  0  0  0  0  0  0
    2.7516   -2.8668   -0.3164 H   0  0  0  0  0  0  0  0  0  0  0  0
    4.6697   -1.9377    0.1446 C   0  0  0  0  0  0  0  0  0  0  0  0
    5.2308   -2.8810    0.0507 H   0  0  0  0  0  0  0  0  0  0  0  0
    5.3468   -0.7488    0.4604 C   0  0  0  0  0  0  0  0  0  0  0  0
    6.4370   -0.7525    0.6114 H   0  0  0  0  0  0  0  0  0  0  0  0
    4.6253    0.4484    0.5814 C   0  0  0  0  0  0  0  0  0  0  0  0
    5.1512    1.3854    0.8300 H   0  0  0  0  0  0  0  0  0  0  0  0
    3.2333    0.4565    0.3866 C   0  0  0  0  0  0  0  0  0  0  0  0
    2.4130    1.7116    0.5868 C   0  0  1  0  0  0  0  0  0  0  0  0
    2.9049    2.5801    0.0930 H   0  0  0  0  0  0  0  0  0  0  0  0
    1.0922    1.4731   -0.0355 N   0  0  0  0  0  2  0  0  0  0  0  0
    0.2172    2.4137   -0.2989 C   0  0  0  0  0  0  0  0  0  0  0  0
   -1.1052    1.9305   -0.7656 C   0  0  0  0  0  0  0  0  0  0  0  0
   -1.2413    0.6320   -0.8843 N   0  0  0  0  0  2  0  0  0  0  0  0
   -2.5366    0.0708   -1.3135 C   0  0  2  0  0  0  0  0  0  0  0  0
   -3.1276    0.8619   -1.8206 H   0  0  0  0  0  0  0  0  0  0  0  0
   -3.3335   -0.3355   -0.0752 C   0  0  0  0  0  0  0  0  0  0  0  0
   -2.8651   -1.3367    0.8005 C   0  0  0  0  0  0  0  0  0  0  0  0
   -1.9166   -1.8557    0.5843 H   0  0  0  0  0  0  0  0  0  0  0  0
   -3.6140   -1.6844    1.9341 C   0  0  0  0  0  0  0  0  0  0  0  0
   -3.2384   -2.4693    2.6083 H   0  0  0  0  0  0  0  0  0  0  0  0
   -4.8346   -1.0456    2.2088 C   0  0  0  0  0  0  0  0  0  0  0  0
   -5.4177   -1.3239    3.1000 H   0  0  0  0  0  0  0  0  0  0  0  0
   -5.3111   -0.0555    1.3365 C   0  0  0  0  0  0  0  0  0  0  0  0
   -6.2721    0.4434    1.5352 H   0  0  0  0  0  0  0  0  0  0  0  0
   -4.5613    0.2978    0.2034 C   0  0  0  0  0  0  0  0  0  0  0  0
   -4.9457    1.0660   -0.4877 H   0  0  0  0  0  0  0  0  0  0  0  0
    2.2220    2.0173    2.0843 C   0  0  0  0  0  0  0  0  0  0  0  0
    1.6369    2.9436    2.2525 H   0  0  0  0  0  0  0  0  0  0  0  0
    3.2114    2.1333    2.5673 H   0  0  0  0  0  0  0  0  0  0  0  0
    1.6981    1.1691    2.5676 H   0  0  0  0  0  0  0  0  0  0  0  0
    0.4916    3.8826   -0.1359 C   0  0  0  0  0  0  0  0  0  0  0  0
    1.5561    4.0817    0.0765 H   0  0  0  0  0  0  0  0  0  0  0  0
   -0.1073    4.3167    0.6924 H   0  0  0  0  0  0  0  0  0  0  0  0
    0.2199    4.4363   -1.0572 H   0  0  0  0  0  0  0  0  0  0  0  0
   -2.2148    2.9197   -1.0224 C   0  0  0  0  0  0  0  0  0  0  0  0
   -2.5791    2.8573   -2.0684 H   0  0  0  0  0  0  0  0  0  0  0  0
   -1.8987    3.9598   -0.8392 H   0  0  0  0  0  0  0  0  0  0  0  0
   -3.0803    2.7033   -0.3637 H   0  0  0  0  0  0  0  0  0  0  0  0
   -2.3284   -1.0658   -2.3171 C   0  0  0  0  0  0  0  0  0  0  0  0
   -1.7711   -0.6972   -3.2018 H   0  0  0  0  0  0  0  0  0  0  0  0
   -3.3152   -1.4416   -2.6522 H   0  0  0  0  0  0  0  0  0  0  0  0
   -1.7493   -1.8962   -1.8694 H   0  0  0  0  0  0  0  0  0  0  0  0
  1 10  1  0  0  0  0
  2  1  2  0  0  0  0
  2  4  1  0  0  0  0
  3  2  1  0  0  0  0
  4  6  2  0  0  0  0
  5  4  1  0  0  0  0
  6  8  1  0  0  0  0
  6  7  1  0  0  0  0
  8  9  1  0  0  0  0
 10  8  2  0  0  0  0
 10 11  1  0  0  0  0
 11 12  1  6  0  0  0
 11 30  1  0  0  0  0
 13 11  1  0  0  0  0
 14 34  1  0  0  0  0
 14 13  1  0  0  0  0
 15 14  2  0  0  0  0
 16 15  1  0  0  0  0
 17 18  1  6  0  0  0
 17 16  1  0  0  0  0
 17 19  1  0  0  0  0
 19 28  2  0  0  0  0
 19 20  1  0  0  0  0
 20 22  2  0  0  0  0
 21 20  1  0  0  0  0
 22 24  1  0  0  0  0
 22 23  1  0  0  0  0
 24 25  1  0  0  0  0
 26 27  1  0  0  0  0
 26 24  2  0  0  0  0
 28 26  1  0  0  0  0
 29 28  1  0  0  0  0
 30 31  1  0  0  0  0
 30 32  1  0  0  0  0
 30 33  1  0  0  0  0
 34 35  1  0  0  0  0
 34 36  1  0  0  0  0
 37 34  1  0  0  0  0
 38 40  1  0  0  0  0
 38 15  1  0  0  0  0
 38 41  1  0  0  0  0
 39 38  1  0  0  0  0
 42 45  1  0  0  0  0
 42 17  1  0  0  0  0
 43 42  1  0  0  0  0
 44 42  1  0  0  0  0
M  END
