1,4,6
q = -1.0, confidence = 0.012

 25 26  0  0  0  0  0  0  0  0999 V2000
   -2.7954    0.4192   -1.8026 N   0  0  0  0  0  0  0  0  0  0  0  0
   -2.9956    1.4149   -1.5730 H   0  0  0  0  0  0  0  0  0  0  0  0
   -2.6932    0.3137   -2.8199 H   0  0  0  0  0  0  0  0  0  0  0  0
   -2.5612   -0.5241    0.7625 N   0  0  0  0  0  2  0  0  0  0  0  0
   -2.4039   -0.8559    1.9892 N   0  0  0  0  0  2  0  0  0  0  0  0
   -0.2690    0.1979    1.5390 C   0  0  0  0  0  3  0  0  0  0  0  0
   -3.8223   -0.4472   -1.2877 C   0  0  0  0  0  0  0  0  0  0  0  0
   -4.9048   -0.8818   -2.0670 C   0  0  0  0  0  0  0  0  0  0  0  0
   -4.9726   -0.5606   -3.1180 H   0  0  0  0  0  0  0  0  0  0  0  0
   -5.8979   -1.7018   -1.5110 C   0  0  0  0  0  0  0  0  0  0  0  0
   -6.7408   -2.0345   -2.1345 H   0  0  0  0  0  0  0  0  0  0  0  0
   -5.8215   -2.0885   -0.1604 C   0  0  0  0  0  0  0  0  0  0  0  0
   -6.6053   -2.7254    0.2756 H   0  0  0  0  0  0  0  0  0  0  0  0
   -4.7403   -1.6828    0.6262 C   0  0  0  0  0  0  0  0  0  0  0  0
   -4.6281   -1.9915    1.6742 H   0  0  0  0  0  0  0  0  0  0  0  0
   -3.7306   -0.8796    0.0610 C   0  0  0  0  0  0  0  0  0  0  0  0
   -1.1631   -0.4682    2.4536 C   0  0  0  0  0  0  0  0  0  0  0  0
   -0.8041   -0.7230    3.7984 C   0  0  0  0  0  0  0  0  0  0  0  0
   -1.5263   -1.2346    4.4511 H   0  0  0  0  0  0  0  0  0  0  0  0
    0.4478   -0.3123    4.2555 C   0  0  0  0  0  0  0  0  0  0  0  0
    0.7495   -0.5026    5.2960 H   0  0  0  0  0  0  0  0  0  0  0  0
    1.3245    0.3567    3.3753 C   0  0  0  0  0  0  0  0  0  0  0  0
    2.3121    0.6826    3.7383 H   0  0  0  0  0  0  0  0  0  0  0  0
    0.9705    0.6181    2.0388 C   0  0  0  0  0  0  0  0  0  0  0  0
    1.6805    1.1517    1.3947 H   0  0  0  0  0  0  0  0  0  0  0  0
  1  2  1  0  0  0  0
  1  7  1  0  0  0  0
  3  1  1  0  0  0  0
  4  5  1  0  0  0  0
  5 17  1  0  0  0  0
  6 24  2  0  0  0  0
  6 17  1  0  0  0  0
  7 16  1  0  0  0  0
  8 10  1  0  0  0  0
  8  7  2  0  0  0  0
  9  8  1  0  0  0  0
 10 12  2  0  0  0  0
 11 10  1  0  0  0  0
 12 13  1  0  0  0  0
 12 14  1  0  0  0  0
 14 15  1  0  0  0  0
 16 14  2  0  0  0  0
 16  4  1  0  0  0  0
 17 18  2  0  0  0  0
 18 20  1  0  0  0  0
 18 19  1  0  0  0  0
 20 21  1  0  0  0  0
 22 23  1  0  0  0  0
 22 20  2  0  0  0  0
 24 22  1  0  0  0  0
 25 24  1  0  0  0  0
M  END
