14,26,41
q = 0.0, confidence = 0.988

 60 63  0  0  1  0  0  0  0  0999 V2000
   -2.4883   -0.5580   -0.4635 N   0  0  0  0  0  0  0  0  0  0  0  0
   -3.9894   -3.0677    0.1274 O   0  0  0  0  0  0  0  0  0  0  0  0
   -2.6510   -3.2922    1.9507 O   0  0  0  0  0  0  0  0  0  0  0  0
    1.0741    1.7525    1.7612 C   0  0  0  0  0  0  0  0  0  0  0  0
   -0.3129    1.4716    1.6548 C   0  0  0  0  0  0  0  0  0  0  0  0
   -1.2149    2.2432    2.4065 C   0  0  0  0  0  0  0  0  0  0  0  0
   -2.2901    2.0183    2.3527 H   0  0  0  0  0  0  0  0  0  0  0  0
   -0.7521    3.2879    3.2207 C   0  0  0  0  0  0  0  0  0  0  0  0
   -1.4692    3.8858    3.8022 H   0  0  0  0  0  0  0  0  0  0  0  0
    0.6245    3.5711    3.3010 C   0  0  0  0  0  0  0  0  0  0  0  0
    0.9820    4.3911    3.9406 H   0  0  0  0  0  0  0  0  0  0  0  0
    1.5415    2.8042    2.5773 C   0  0  0  0  0  0  0  0  0  0  0  0
    2.6168    3.0200    2.6538 H   0  0  0  0  0  0  0  0  0  0  0  0
    2.9159   -0.9765   -0.5494 N   0  0  0  0  0  2  0  0  0  0  0  0
    3.7958   -0.0923    0.0475 C   0  0  0  0  0  0  0  0  0  0  0  0
    5.1817   -0.1918   -0.1706 C   0  0  0  0  0  0  0  0  0  0  0  0
    5.8527    0.5270    0.3209 H   0  0  0  0  0  0  0  0  0  0  0  0
    5.6814   -1.1983   -1.0043 C   0  0  0  0  0  0  0  0  0  0  0  0
    6.7622   -1.2897   -1.1842 H   0  0  0  0  0  0  0  0  0  0  0  0
    4.7757   -2.0865   -1.6029 C   0  0  0  0  0  0  0  0  0  0  0  0
    5.1180   -2.8944   -2.2646 H   0  0  0  0  0  0  0  0  0  0  0  0
    3.4051   -1.9449   -1.3517 C   0  0  0  0  0  0  0  0  0  0  0  0
    2.6656   -2.6232   -1.7988 H   0  0  0  0  0  0  0  0  0  0  0  0
    3.1978    0.9228    0.8963 C   0  0  0  0  0  0  0  0  0  0  0  0
    3.8381    1.6581    1.4132 H   0  0  0  0  0  0  0  0  0  0  0  0
    1.8943    0.9011    1.0026 N   0  0  0  0  0  2  0  0  0  0  0  0
   -1.3226   -0.8855    1.4429 C   0  0  0  0  0  0  0  0  0  0  0  0
   -1.0013   -1.2918    2.4066 H   0  0  0  0  0  0  0  0  0  0  0  0
   -2.3260   -1.4043    0.6450 C   0  0  0  0  0  0  0  0  0  0  0  0
   -3.3537   -0.8678   -1.6194 C   0  0  0  0  0  0  0  0  0  0  0  0
   -4.2865   -1.3082   -1.2273 H   0  0  0  0  0  0  0  0  0  0  0  0
   -2.8511   -1.6705   -2.1995 H   0  0  0  0  0  0  0  0  0  0  0  0
   -3.5871    0.3620   -2.4814 C   0  0  0  0  0  0  0  0  0  0  0  0
   -4.3421    1.0210   -2.0052 H   0  0  0  0  0  0  0  0  0  0  0  0
   -4.0274    0.0297   -3.4422 H   0  0  0  0  0  0  0  0  0  0  0  0
   -2.2844    1.1235   -2.7123 C   0  0  0  0  0  0  0  0  0  0  0  0
   -2.4491    1.9698   -3.4043 H   0  0  0  0  0  0  0  0  0  0  0  0
   -1.5421    0.4560   -3.2025 H   0  0  0  0  0  0  0  0  0  0  0  0
   -1.6783    1.6462   -1.3892 C   0  0  0  0  0  0  0  0  0  0  0  0
   -1.6158    0.4847   -0.4075 C   0  0  1  0  0  3  0  0  0  0  0  0
   -0.8084    0.3230    0.8026 C   0  0  1  0  0  3  0  0  0  0  0  0
   -3.0878   -2.6561    0.8423 C   0  0  0  0  0  0  0  0  0  0  0  0
   -3.3355   -4.5157    2.2678 C   0  0  0  0  0  0  0  0  0  0  0  0
   -4.4144   -4.3279    2.4366 H   0  0  0  0  0  0  0  0  0  0  0  0
   -2.8598   -4.8985    3.1870 H   0  0  0  0  0  0  0  0  0  0  0  0
   -3.2315   -5.2464    1.4415 H   0  0  0  0  0  0  0  0  0  0  0  0
   -0.2449    2.1948   -1.6365 C   0  0  0  0  0  0  0  0  0  0  0  0
    0.1820    2.5007   -0.6601 H   0  0  0  0  0  0  0  0  0  0  0  0
    0.3771    1.3398   -1.9824 H   0  0  0  0  0  0  0  0  0  0  0  0
   -0.0955    3.3608   -2.6146 C   0  0  0  0  0  0  0  0  0  0  0  0
   -0.5377    3.1464   -3.6077 H   0  0  0  0  0  0  0  0  0  0  0  0
    0.9798    3.5720   -2.7789 H   0  0  0  0  0  0  0  0  0  0  0  0
   -0.5507    4.2949   -2.2327 H   0  0  0  0  0  0  0  0  0  0  0  0
   -2.5995    2.7362   -0.7154 C   0  0  0  0  0  0  0  0  0  0  0  0
   -3.3654    2.2242   -0.0948 H   0  0  0  0  0  0  0  0  0  0  0  0
   -1.9690    3.2990    0.0032 H   0  0  0  0  0  0  0  0  0  0  0  0
   -3.3226    3.7189   -1.6414 C   0  0  0  0  0  0  0  0  0  0  0  0
   -2.6347    4.2685   -2.3096 H   0  0  0  0  0  0  0  0  0  0  0  0
   -3.8612    4.4712   -1.0313 H   0  0  0  0  0  0  0  0  0  0  0  0
   -4.0805    3.2220   -2.2784 H   0  0  0  0  0  0  0  0  0  0  0  0
  1 40  1  0  0  0  0
  1 29  1  0  0  0  0
  2 42  2  0  0  0  0
  3 43  1  0  0  0  0
  4 12  1  0  0  0  0
  5  4  2  0  0  0  0
  5  6  1  0  0  0  0
  6  8  2  0  0  0  0
  7  6  1  0  0  0  0
  8 10  1  0  0  0  0
  8  9  1  0  0  0  0
 10 11  1  0  0  0  0
 12 13  1  0  0  0  0
 12 10  2  0  0  0  0
 14 15  1  0  0  0  0
 15 24  2  0  0  0  0
 16 15  1  0  0  0  0
 16 17  1  0  0  0  0
 18 16  2  0  0  0  0
 19 18  1  0  0  0  0
 20 22  2  0  0  0  0
 20 18  1  0  0  0  0
 21 20  1  0  0  0  0
 22 14  1  0  0  0  0
 23 22  1  0  0  0  0
 24 26  1  0  0  0  0
 24 25  1  0  0  0  0
 26  4  1  0  0  0  0
 27 28  1  0  0  0  0
 29 42  1  0  0  0  0
 29 27  2  0  0  0  0
 30 31  1  0  0  0  0
 30  1  1  0  0  0  0
 32 30  1  0  0  0  0
 33 34  1  0  0  0  0
 33 30  1  0  0  0  0
 35 33  1  0  0  0  0
 36 33  1  0  0  0  0
 36 39  1  0  0  0  0
 37 36  1  0  0  0  0
 38 36  1  0  0  0  0
 39 54  1  0  0  0  0
 40 39  1  1  0  0  0
 40 41  1  0  0  0  0
 41 27  1  0  0  0  0
 41  5  1  1  0  0  0
 42  3  1  0  0  0  0
 43 44  1  0  0  0  0
 43 45  1  0  0  0  0
 46 43  1  0  0  0  0
 47 39  1  0  0  0  0
 47 48  1  0  0  0  0
 49 47  1  0  0  0  0
 50 53  1  0  0  0  0
 50 47  1  0  0  0  0
 51 50  1  0  0  0  0
 52 50  1  0  0  0  0
 54 55  1  0  0  0  0
 54 56  1  0  0  0  0
 57 59  1  0  0  0  0
 57 54  1  0  0  0  0
 58 57  1  0  0  0  0
 60 57  1  0  0  0  0
M  END
