1,59,60
q = -1.0, confidence = 0.094

 61 66  0  0  1  0  0  0  0  0999 V2000
    4.1095   -2.0003    0.0502 C   0  0  0  0  0  2  0  0  0  0  0  0
    5.0507   -3.0467    0.0758 C   0  0  0  0  0  0  0  0  0  0  0  0
    6.1217   -2.7947    0.0687 H   0  0  0  0  0  0  0  0  0  0  0  0
    4.6305   -4.3863    0.1096 C   0  0  0  0  0  0  0  0  0  0  0  0
    5.3824   -5.1913    0.1294 H   0  0  0  0  0  0  0  0  0  0  0  0
    3.2612   -4.7149    0.1188 C   0  0  0  0  0  0  0  0  0  0  0  0
    2.9443   -5.7682    0.1452 H   0  0  0  0  0  0  0  0  0  0  0  0
    2.3024   -3.6957    0.0941 C   0  0  0  0  0  0  0  0  0  0  0  0
    1.2313   -3.9529    0.1015 H   0  0  0  0  0  0  0  0  0  0  0  0
    2.7098   -2.3459    0.0599 C   0  0  1  0  0  3  0  0  0  0  0  0
    1.7821   -1.2111    0.0337 C   0  0  0  0  0  0  0  0  0  0  0  0
    0.3804   -1.2139    0.0307 C   0  0  0  0  0  0  0  0  0  0  0  0
   -0.1477   -2.1767    0.0235 H   0  0  0  0  0  0  0  0  0  0  0  0
   -0.3527   -0.0036   -0.0022 C   0  0  0  0  0  0  0  0  0  0  0  0
    0.3768    1.2102   -0.0347 C   0  0  0  0  0  0  0  0  0  0  0  0
   -0.1543    2.1706   -0.0266 H   0  0  0  0  0  0  0  0  0  0  0  0
    1.7769    1.1889   -0.0345 C   0  0  0  0  0  0  0  0  0  0  0  0
    2.6717    2.3665   -0.0605 C   0  0  0  0  0  0  0  0  0  0  0  0
    2.2267    3.7002   -0.0931 C   0  0  0  0  0  0  0  0  0  0  0  0
    1.1506    3.9205   -0.1001 H   0  0  0  0  0  0  0  0  0  0  0  0
    3.1653    4.7387   -0.1166 C   0  0  0  0  0  0  0  0  0  0  0  0
    2.8289    5.7857   -0.1419 H   0  0  0  0  0  0  0  0  0  0  0  0
    4.5349    4.4274   -0.1078 C   0  0  0  0  0  0  0  0  0  0  0  0
    5.3014    5.2151   -0.1259 H   0  0  0  0  0  0  0  0  0  0  0  0
    4.9180    3.0821   -0.0754 C   0  0  0  0  0  0  0  0  0  0  0  0
    5.9703    2.7493   -0.0666 H   0  0  0  0  0  0  0  0  0  0  0  0
   -1.8290   -0.0035   -0.0010 C   0  0  0  0  0  0  0  0  0  0  0  0
   -2.5659   -1.0426    0.6171 C   0  0  0  0  0  0  0  0  0  0  0  0
   -2.0324   -1.8470    1.1450 H   0  0  0  0  0  0  0  0  0  0  0  0
   -3.9606   -1.0455    0.6282 C   0  0  0  0  0  0  0  0  0  0  0  0
   -4.5035   -1.8523    1.1403 H   0  0  0  0  0  0  0  0  0  0  0  0
   -4.6894   -0.0060    0.0012 C   0  0  0  0  0  0  0  0  0  0  0  0
   -3.9638    1.0350   -0.6269 C   0  0  0  0  0  0  0  0  0  0  0  0
   -4.5092    1.8397   -1.1394 H   0  0  0  0  0  0  0  0  0  0  0  0
   -2.5689    1.0341   -0.6178 C   0  0  0  0  0  0  0  0  0  0  0  0
   -2.0383    1.8382   -1.1496 H   0  0  0  0  0  0  0  0  0  0  0  0
   -6.8202    1.2150    0.0524 C   0  0  0  0  0  0  0  0  0  0  0  0
   -7.9597    1.4017   -0.7599 C   0  0  0  0  0  0  0  0  0  0  0  0
   -8.2742    0.5961   -1.4389 H   0  0  0  0  0  0  0  0  0  0  0  0
   -8.6797    2.6016   -0.6968 C   0  0  0  0  0  0  0  0  0  0  0  0
   -9.5655    2.7338   -1.3367 H   0  0  0  0  0  0  0  0  0  0  0  0
   -8.2702    3.6358    0.1610 C   0  0  0  0  0  0  0  0  0  0  0  0
   -8.8352    4.5786    0.2034 H   0  0  0  0  0  0  0  0  0  0  0  0
   -7.1337    3.4531    0.9662 C   0  0  0  0  0  0  0  0  0  0  0  0
   -6.8088    4.2512    1.6511 H   0  0  0  0  0  0  0  0  0  0  0  0
   -6.4163    2.2509    0.9228 C   0  0  0  0  0  0  0  0  0  0  0  0
   -5.5367    2.1024    1.5658 H   0  0  0  0  0  0  0  0  0  0  0  0
   -6.8158   -1.2346   -0.0514 C   0  0  0  0  0  0  0  0  0  0  0  0
   -6.4087   -2.2672   -0.9241 C   0  0  0  0  0  0  0  0  0  0  0  0
   -5.5303   -2.1146   -1.5678 H   0  0  0  0  0  0  0  0  0  0  0  0
   -7.1210   -3.4725   -0.9679 C   0  0  0  0  0  0  0  0  0  0  0  0
   -6.7932   -4.2685   -1.6537 H   0  0  0  0  0  0  0  0  0  0  0  0
   -8.2553   -3.6609   -0.1610 C   0  0  0  0  0  0  0  0  0  0  0  0
   -8.8159   -4.6064   -0.2034 H   0  0  0  0  0  0  0  0  0  0  0  0
   -8.6678   -2.6299    0.6991 C   0  0  0  0  0  0  0  0  0  0  0  0
   -9.5517   -2.7671    1.3405 H   0  0  0  0  0  0  0  0  0  0  0  0
   -7.9527   -1.4271    0.7629 C   0  0  0  0  0  0  0  0  0  0  0  0
   -8.2691   -0.6240    1.4441 H   0  0  0  0  0  0  0  0  0  0  0  0
    2.4367   -0.0044   -0.0002 N   0  0  0  0  0  2  0  0  0  0  0  0
    4.0142    2.0848   -0.0523 N   0  0  0  0  0  2  0  0  0  0  0  0
   -6.0975   -0.0082    0.0011 N   0  0  0  0  0  0  0  0  0  0  0  0
  1 10  1  0  0  0  0
  1  2  1  0  0  0  0
  2  4  2  0  0  0  0
  3  2  1  0  0  0  0
  4  6  1  0  0  0  0
  4  5  1  0  0  0  0
  6  7  1  0  0  0  0
  8  9  1  0  0  0  0
  8  6  2  0  0  0  0
 10 11  1  1  0  0  0
 10  8  1  0  0  0  0
 12 11  2  0  0  0  0
 13 12  1  0  0  0  0
 14 27  1  0  0  0  0
 14 12  1  0  0  0  0
 15 17  1  0  0  0  0
 15 16  1  0  0  0  0
 15 14  2  0  0  0  0
 17 59  1  0  0  0  0
 18 60  1  0  0  0  0
 18 17  2  0  0  0  0
 19 18  1  0  0  0  0
 20 19  1  0  0  0  0
 21 23  1  0  0  0  0
 21 19  2  0  0  0  0
 22 21  1  0  0  0  0
 23 25  2  0  0  0  0
 24 23  1  0  0  0  0
 25 26  1  0  0  0  0
 25 60  1  0  0  0  0
 27 28  1  0  0  0  0
 28 30  2  0  0  0  0
 28 29  1  0  0  0  0
 30 31  1  0  0  0  0
 32 30  1  0  0  0  0
 33 35  1  0  0  0  0
 33 32  2  0  0  0  0
 34 33  1  0  0  0  0
 35 27  2  0  0  0  0
 36 35  1  0  0  0  0
 37 46  1  0  0  0  0
 38 40  1  0  0  0  0
 38 37  2  0  0  0  0
 39 38  1  0  0  0  0
 40 42  2  0  0  0  0
 41 40  1  0  0  0  0
 42 43  1  0  0  0  0
 42 44  1  0  0  0  0
 44 45  1  0  0  0  0
 46 44  2  0  0  0  0
 46 47  1  0  0  0  0
 48 61  1  0  0  0  0
 48 57  1  0  0  0  0
 49 48  2  0  0  0  0
 50 49  1  0  0  0  0
 51 49  1  0  0  0  0
 51 53  2  0  0  0  0
 52 51  1  0  0  0  0
 53 55  1  0  0  0  0
 54 53  1  0  0  0  0
 55 57  2  0  0  0  0
 55 56  1  0  0  0  0
 57 58  1  0  0  0  0
 59 11  1  0  0  0  0
 61 32  1  0  0  0  0
 61 37  1  0  0  0  0
M  END
