2,3,6
q = -1.0, confidence = 0.012

 39 40  0  0  1  0  0  0  0  0999 V2000
    0.1749    1.8073    0.3384 N   0  0  0  0  0  0  0  0  0  0  0  0
    1.9725   -0.5820   -0.1472 N   0  0  0  0  0  2  0  0  0  0  0  0
   -2.1589   -0.1873    0.1142 N   0  0  0  0  0  2  0  0  0  0  0  0
    1.1734    2.5087   -0.5115 C   0  0  0  0  0  0  0  0  0  0  0  0
    1.6937    3.8142    0.0858 C   0  0  0  0  0  0  0  0  0  0  0  0
    0.5652    1.0201    1.4446 C   0  0  0  0  0  3  0  0  0  0  0  0
    2.0153    0.8042    1.8264 C   0  0  0  0  0  0  0  0  0  0  0  0
   -1.1111    2.5374    0.4537 C   0  0  0  0  0  0  0  0  0  0  0  0
   -2.1207    2.1606   -0.6324 C   0  0  0  0  0  0  0  0  0  0  0  0
    2.7637    0.0437    0.7685 C   0  0  1  0  0  3  0  0  0  0  0  0
    4.1595   -0.0457    0.7080 C   0  0  0  0  0  0  0  0  0  0  0  0
    4.7578   -0.8018   -0.3106 C   0  0  0  0  0  0  0  0  0  0  0  0
    3.9323   -1.4389   -1.2464 C   0  0  0  0  0  0  0  0  0  0  0  0
    2.5443   -1.3054   -1.1414 C   0  0  0  0  0  0  0  0  0  0  0  0
   -2.8686    0.8984   -0.3038 C   0  0  2  0  0  3  0  0  0  0  0  0
   -4.2709    0.8643   -0.3786 C   0  0  0  0  0  0  0  0  0  0  0  0
   -4.9691   -0.2927   -0.0148 C   0  0  0  0  0  0  0  0  0  0  0  0
   -4.2321   -1.3888    0.4470 C   0  0  0  0  0  0  0  0  0  0  0  0
   -2.8390   -1.3008    0.5003 C   0  0  0  0  0  0  0  0  0  0  0  0
    0.6939    2.6628   -1.4970 H   0  0  0  0  0  0  0  0  0  0  0  0
    2.0015    1.8069   -0.7066 H   0  0  0  0  0  0  0  0  0  0  0  0
    2.4633    4.2347   -0.5913 H   0  0  0  0  0  0  0  0  0  0  0  0
    2.1655    3.6646    1.0772 H   0  0  0  0  0  0  0  0  0  0  0  0
    0.9048    4.5845    0.1975 H   0  0  0  0  0  0  0  0  0  0  0  0
   -0.1185    1.1119    2.3033 H   0  0  0  0  0  0  0  0  0  0  0  0
    2.5430    1.7426    2.1020 H   0  0  0  0  0  0  0  0  0  0  0  0
    1.9714    0.1686    2.7357 H   0  0  0  0  0  0  0  0  0  0  0  0
   -0.8927    3.6227    0.4055 H   0  0  0  0  0  0  0  0  0  0  0  0
   -1.5283    2.3317    1.4586 H   0  0  0  0  0  0  0  0  0  0  0  0
   -2.8471    2.9869   -0.7559 H   0  0  0  0  0  0  0  0  0  0  0  0
   -1.5851    2.0198   -1.5975 H   0  0  0  0  0  0  0  0  0  0  0  0
    4.7658    0.4762    1.4626 H   0  0  0  0  0  0  0  0  0  0  0  0
    5.8529   -0.8875   -0.3727 H   0  0  0  0  0  0  0  0  0  0  0  0
    4.3514   -2.0389   -2.0664 H   0  0  0  0  0  0  0  0  0  0  0  0
    1.8401   -1.7794   -1.8385 H   0  0  0  0  0  0  0  0  0  0  0  0
   -4.8039    1.7619   -0.7244 H   0  0  0  0  0  0  0  0  0  0  0  0
   -6.0669   -0.3298   -0.0789 H   0  0  0  0  0  0  0  0  0  0  0  0
   -4.7196   -2.3205    0.7666 H   0  0  0  0  0  0  0  0  0  0  0  0
   -2.2165   -2.1308    0.8576 H   0  0  0  0  0  0  0  0  0  0  0  0
  1  8  1  0  0  0  0
  1  6  1  0  0  0  0
  2 10  1  0  0  0  0
  3 19  1  0  0  0  0
  4  5  1  0  0  0  0
  4  1  1  0  0  0  0
  5 24  1  0  0  0  0
  5 23  1  0  0  0  0
  6  7  1  0  0  0  0
  6 25  1  0  0  0  0
  7 26  1  0  0  0  0
  7 27  1  0  0  0  0
  8 29  1  0  0  0  0
  9  8  1  0  0  0  0
 10  7  1  1  0  0  0
 11 10  1  0  0  0  0
 11 32  1  0  0  0  0
 12 11  2  0  0  0  0
 13 14  2  0  0  0  0
 13 12  1  0  0  0  0
 14  2  1  0  0  0  0
 15  9  1  1  0  0  0
 15  3  1  0  0  0  0
 16 15  1  0  0  0  0
 16 17  2  0  0  0  0
 17 18  1  0  0  0  0
 18 19  2  0  0  0  0
 18 38  1  0  0  0  0
 19 39  1  0  0  0  0
 20  4  1  0  0  0  0
 21  4  1  0  0  0  0
 22  5  1  0  0  0  0
 28  8  1  0  0  0  0
 30  9  1  0  0  0  0
 31  9  1  0  0  0  0
 33 12  1  0  0  0  0
 34 13  1  0  0  0  0
 35 14  1  0  0  0  0
 36 16  1  0  0  0  0
 37 17  1  0  0  0  0
M  END
