1,12,15
q = -2.0, confidence = 0.586

 48 50  0  0  1  0  0  0  0  0999 V2000
   -0.3789    1.7530    0.1827 N   0  0  0  0  0  2  0  0  0  0  0  0
   -1.3798    2.3798    0.7555 C   0  0  2  0  0  3  0  0  0  0  0  0
   -1.2158    3.7191    0.9038 O   0  0  0  0  0  0  0  0  0  0  0  0
    0.1280    4.0247    0.4591 C   0  0  0  0  0  0  0  0  0  0  0  0
    0.5962    2.7511   -0.2789 C   0  0  2  0  0  0  0  0  0  0  0  0
    0.6266    2.8151   -1.8239 C   0  0  1  0  0  0  0  0  0  0  0  0
   -0.7357    3.1664   -2.4267 C   0  0  0  0  0  0  0  0  0  0  0  0
    1.7766    3.7164   -2.3048 C   0  0  0  0  0  0  0  0  0  0  0  0
    2.0914    3.5974   -3.7968 C   0  0  0  0  0  0  0  0  0  0  0  0
   -2.5854    1.7531    1.2300 C   0  0  0  0  0  0  0  0  0  0  0  0
   -2.9908    0.4728    0.6913 C   0  0  0  0  0  0  0  0  0  0  0  0
   -2.3258   -0.1207   -0.3518 N   0  0  0  0  0  2  0  0  0  0  0  0
   -2.8885   -1.1336   -1.1333 C   0  0  0  0  0  0  0  0  0  0  0  0
   -1.9433   -2.1087   -1.5660 C   0  0  0  0  0  0  0  0  0  0  0  0
   -0.5229   -1.6936   -1.4246 C   0  0  0  0  0  3  0  0  0  0  0  0
   -2.3841   -3.2877   -2.1868 C   0  0  0  0  0  0  0  0  0  0  0  0
   -3.7443   -3.4466   -2.4939 C   0  0  0  0  0  0  0  0  0  0  0  0
   -4.6390   -2.3947   -2.2356 C   0  0  0  0  0  0  0  0  0  0  0  0
   -4.2421   -1.2096   -1.5845 C   0  0  0  0  0  0  0  0  0  0  0  0
   -5.2075   -0.0595   -1.4577 C   0  0  0  0  0  0  0  0  0  0  0  0
   -4.0985   -0.1556    1.3461 C   0  0  0  0  0  0  0  0  0  0  0  0
   -4.7984    0.4689    2.3729 C   0  0  0  0  0  0  0  0  0  0  0  0
   -4.4518    1.7666    2.8156 C   0  0  0  0  0  0  0  0  0  0  0  0
   -3.3430    2.3857    2.2464 C   0  0  0  0  0  0  0  0  0  0  0  0
    1.6093    2.4608    0.0628 H   0  0  0  0  0  0  0  0  0  0  0  0
    0.8655    1.7682   -2.1268 H   0  0  0  0  0  0  0  0  0  0  0  0
    2.6884    3.4636   -1.7185 H   0  0  0  0  0  0  0  0  0  0  0  0
    1.5431    4.7769   -2.0574 H   0  0  0  0  0  0  0  0  0  0  0  0
   -0.2060   -1.1091   -2.3288 H   0  0  0  0  0  0  0  0  0  0  0  0
    0.1787   -2.5501   -1.3406 H   0  0  0  0  0  0  0  0  0  0  0  0
   -1.6484   -4.0566   -2.4726 H   0  0  0  0  0  0  0  0  0  0  0  0
   -4.0996   -4.3619   -2.9913 H   0  0  0  0  0  0  0  0  0  0  0  0
   -5.6871   -2.4812   -2.5660 H   0  0  0  0  0  0  0  0  0  0  0  0
   -4.3755   -1.1707    1.0284 H   0  0  0  0  0  0  0  0  0  0  0  0
   -5.6319   -0.0682    2.8529 H   0  0  0  0  0  0  0  0  0  0  0  0
   -5.0229    2.2605    3.6145 H   0  0  0  0  0  0  0  0  0  0  0  0
   -3.0085    3.3738    2.5948 H   0  0  0  0  0  0  0  0  0  0  0  0
   -5.9594   -0.0989   -2.2706 H   0  0  0  0  0  0  0  0  0  0  0  0
   -4.6788    0.9133   -1.5148 H   0  0  0  0  0  0  0  0  0  0  0  0
   -5.7551   -0.0504   -0.4910 H   0  0  0  0  0  0  0  0  0  0  0  0
    0.0813    4.9303   -0.1769 H   0  0  0  0  0  0  0  0  0  0  0  0
    0.7510    4.2395    1.3527 H   0  0  0  0  0  0  0  0  0  0  0  0
   -0.7087    3.1317   -3.5333 H   0  0  0  0  0  0  0  0  0  0  0  0
   -1.5062    2.4428   -2.0928 H   0  0  0  0  0  0  0  0  0  0  0  0
   -1.0656    4.1856   -2.1341 H   0  0  0  0  0  0  0  0  0  0  0  0
    2.9580    4.2285   -4.0784 H   0  0  0  0  0  0  0  0  0  0  0  0
    2.3374    2.5494   -4.0703 H   0  0  0  0  0  0  0  0  0  0  0  0
    1.2363    3.9103   -4.4290 H   0  0  0  0  0  0  0  0  0  0  0  0
  1  2  1  0  0  0  0
  2  3  1  0  0  0  0
  2 10  1  1  0  0  0
  4  3  1  0  0  0  0
  4 42  1  0  0  0  0
  5 25  1  1  0  0  0
  5  1  1  0  0  0  0
  5  4  1  0  0  0  0
  6 26  1  6  0  0  0
  6  5  1  0  0  0  0
  7 45  1  0  0  0  0
  7 44  1  0  0  0  0
  7  6  1  0  0  0  0
  8 28  1  0  0  0  0
  8  6  1  0  0  0  0
  8 27  1  0  0  0  0
  9  8  1  0  0  0  0
 10 24  1  0  0  0  0
 11 10  2  0  0  0  0
 11 21  1  0  0  0  0
 12 11  1  0  0  0  0
 13 12  1  0  0  0  0
 14 15  1  0  0  0  0
 14 13  1  0  0  0  0
 15 30  1  0  0  0  0
 16 14  2  0  0  0  0
 17 18  2  0  0  0  0
 17 16  1  0  0  0  0
 18 19  1  0  0  0  0
 19 20  1  0  0  0  0
 19 13  2  0  0  0  0
 20 40  1  0  0  0  0
 21 22  2  0  0  0  0
 22 23  1  0  0  0  0
 22 35  1  0  0  0  0
 23 36  1  0  0  0  0
 24 37  1  0  0  0  0
 24 23  2  0  0  0  0
 29 15  1  0  0  0  0
 31 16  1  0  0  0  0
 32 17  1  0  0  0  0
 33 18  1  0  0  0  0
 34 21  1  0  0  0  0
 38 20  1  0  0  0  0
 39 20  1  0  0  0  0
 41  4  1  0  0  0  0
 43  7  1  0  0  0  0
 46  9  1  0  0  0  0
 47  9  1  0  0  0  0
 48  9  1  0  0  0  0
M  END
