3,4,26
q = -1.0, confidence = 0.012

 40 41  0  0  1  0  0  0  0  0999 V2000
   -1.2640    1.6695    0.1500 N   0  0  0  0  0  0  0  0  0  0  0  0
   -2.0761    2.2860    0.1978 H   0  0  0  0  0  0  0  0  0  0  0  0
   -0.6500   -0.5735   -0.0924 N   0  0  0  0  0  2  0  0  0  0  0  0
    1.3637   -2.5425    0.1836 N   0  0  0  0  0  0  0  0  0  0  0  0
   -1.5736    0.3544    0.0099 C   0  0  1  0  0  3  0  0  0  0  0  0
   -3.0446    0.0793   -0.0098 C   0  0  0  0  0  0  0  0  0  0  0  0
   -3.8350    0.4272    1.1063 C   0  0  0  0  0  0  0  0  0  0  0  0
   -3.3545    0.8607    1.9970 H   0  0  0  0  0  0  0  0  0  0  0  0
   -5.2197    0.2026    1.0901 C   0  0  0  0  0  0  0  0  0  0  0  0
   -5.8260    0.4689    1.9689 H   0  0  0  0  0  0  0  0  0  0  0  0
   -5.8279   -0.3655   -0.0400 C   0  0  0  0  0  0  0  0  0  0  0  0
   -6.9141   -0.5409   -0.0523 H   0  0  0  0  0  0  0  0  0  0  0  0
   -5.0475   -0.7078   -1.1566 C   0  0  0  0  0  0  0  0  0  0  0  0
   -5.5219   -1.1440   -2.0485 H   0  0  0  0  0  0  0  0  0  0  0  0
   -3.6633   -0.4874   -1.1442 C   0  0  0  0  0  0  0  0  0  0  0  0
   -3.0549   -0.7406   -2.0251 H   0  0  0  0  0  0  0  0  0  0  0  0
   -0.0239    2.3378    0.0571 C   0  0  0  0  0  0  0  0  0  0  0  0
   -0.1088    3.7515    0.0899 C   0  0  0  0  0  0  0  0  0  0  0  0
   -1.0966    4.2290    0.2108 H   0  0  0  0  0  0  0  0  0  0  0  0
    1.0377    4.5356   -0.0366 C   0  0  0  0  0  0  0  0  0  0  0  0
    0.9597    5.6329   -0.0111 H   0  0  0  0  0  0  0  0  0  0  0  0
    2.2798    3.9015   -0.2027 C   0  0  0  0  0  0  0  0  0  0  0  0
    3.1973    4.4998   -0.3141 H   0  0  0  0  0  0  0  0  0  0  0  0
    2.3608    2.5022   -0.2226 C   0  0  0  0  0  3  0  0  0  0  0  0
    3.3397    2.0175   -0.3387 H   0  0  0  0  0  0  0  0  0  0  0  0
    1.2221    1.6721   -0.0839 C   0  0  0  0  0  2  0  0  0  0  0  0
   -1.0107   -1.9807   -0.2715 C   0  0  0  0  0  0  0  0  0  0  0  0
   -0.9738   -2.2396   -1.3538 H   0  0  0  0  0  0  0  0  0  0  0  0
   -2.0456   -2.1916    0.0701 H   0  0  0  0  0  0  0  0  0  0  0  0
   -0.0427   -2.8565    0.5110 C   0  0  0  0  0  0  0  0  0  0  0  0
   -0.2652   -3.9366    0.3349 H   0  0  0  0  0  0  0  0  0  0  0  0
   -0.1800   -2.6564    1.5924 H   0  0  0  0  0  0  0  0  0  0  0  0
    2.2675   -3.0289    1.2408 C   0  0  0  0  0  0  0  0  0  0  0  0
    2.2348   -4.1419    1.3107 H   0  0  0  0  0  0  0  0  0  0  0  0
    1.9662   -2.5912    2.2112 H   0  0  0  0  0  0  0  0  0  0  0  0
    3.2921   -2.6817    1.0118 H   0  0  0  0  0  0  0  0  0  0  0  0
    1.7799   -3.0855   -1.1213 C   0  0  0  0  0  0  0  0  0  0  0  0
    1.7686   -4.2018   -1.1149 H   0  0  0  0  0  0  0  0  0  0  0  0
    2.8007   -2.7158   -1.3346 H   0  0  0  0  0  0  0  0  0  0  0  0
    1.1090   -2.7200   -1.9214 H   0  0  0  0  0  0  0  0  0  0  0  0
  1  2  1  0  0  0  0
  4 30  1  0  0  0  0
  4 33  1  0  0  0  0
  5  3  1  1  0  0  0
  5  1  1  0  0  0  0
  6  5  1  0  0  0  0
  6  7  1  0  0  0  0
  7  8  1  0  0  0  0
  9  7  2  0  0  0  0
  9 10  1  0  0  0  0
 11  9  1  0  0  0  0
 12 11  1  0  0  0  0
 13 15  1  0  0  0  0
 13 11  2  0  0  0  0
 14 13  1  0  0  0  0
 15  6  2  0  0  0  0
 16 15  1  0  0  0  0
 17 18  2  0  0  0  0
 17  1  1  0  0  0  0
 18 19  1  0  0  0  0
 20 21  1  0  0  0  0
 20 18  1  0  0  0  0
 22 20  2  0  0  0  0
 23 22  1  0  0  0  0
 24 22  1  0  0  0  0
 24 26  1  0  0  0  0
 25 24  1  0  0  0  0
 26 17  1  0  0  0  0
 27  3  1  0  0  0  0
 27 29  1  0  0  0  0
 27 30  1  0  0  0  0
 28 27  1  0  0  0  0
 30 32  1  0  0  0  0
 31 30  1  0  0  0  0
 33 34  1  0  0  0  0
 33 35  1  0  0  0  0
 36 33  1  0  0  0  0
 37 38  1  0  0  0  0
 37  4  1  0  0  0  0
 39 37  1  0  0  0  0
 40 37  1  0  0  0  0
M  END
