3,41,47
q = -1.0, confidence = 0.006

 55 55  0  0  0  0  0  0  0  0999 V2000
    5.5911   -0.5998   -0.0412 Si  0  0  0  0  0  0  0  0  0  0  0  0
    4.2853    0.4225   -0.4906 O   0  0  0  0  0  0  0  0  0  0  0  0
   -1.5742    2.1521   -0.3357 N   0  0  0  0  0  0  0  0  0  0  0  0
    0.9195   -1.0573   -0.1026 C   0  0  0  0  0  0  0  0  0  0  0  0
   -0.1789    2.5256    0.1306 C   0  0  0  0  0  0  0  0  0  0  0  0
    0.1062    3.4990   -0.3236 H   0  0  0  0  0  0  0  0  0  0  0  0
   -0.2556    2.6549    1.2317 H   0  0  0  0  0  0  0  0  0  0  0  0
   -1.6908    2.3770   -1.8023 C   0  0  0  0  0  0  0  0  0  0  0  0
   -0.8905    1.8189   -2.3225 H   0  0  0  0  0  0  0  0  0  0  0  0
   -1.5864    3.4621   -2.0222 H   0  0  0  0  0  0  0  0  0  0  0  0
   -2.6782    2.0151   -2.1452 H   0  0  0  0  0  0  0  0  0  0  0  0
    5.6969   -2.0662   -1.2259 C   0  0  0  0  0  0  0  0  0  0  0  0
    5.6235   -1.7301   -2.2796 H   0  0  0  0  0  0  0  0  0  0  0  0
    4.8913   -2.8062   -1.0472 H   0  0  0  0  0  0  0  0  0  0  0  0
    6.6647   -2.5945   -1.1021 H   0  0  0  0  0  0  0  0  0  0  0  0
    2.3157   -0.9839   -0.2390 C   0  0  0  0  0  0  0  0  0  0  0  0
    2.9262   -1.8985   -0.2690 H   0  0  0  0  0  0  0  0  0  0  0  0
    0.0867   -2.2757    0.1927 C   0  0  0  0  0  0  0  0  0  0  0  0
    0.0207   -2.3836    1.2969 H   0  0  0  0  0  0  0  0  0  0  0  0
    0.4799   -3.2232   -0.2356 H   0  0  0  0  0  0  0  0  0  0  0  0
    2.1779    1.4753   -0.2684 C   0  0  0  0  0  0  0  0  0  0  0  0
    2.7133    2.4358   -0.3059 H   0  0  0  0  0  0  0  0  0  0  0  0
    2.9429    0.2838   -0.3339 C   0  0  0  0  0  0  0  0  0  0  0  0
    0.7846    1.4004   -0.1357 C   0  0  0  0  0  0  0  0  0  0  0  0
    5.3378   -1.1753    1.7343 C   0  0  0  0  0  0  0  0  0  0  0  0
    5.2699   -0.3127    2.4269 H   0  0  0  0  0  0  0  0  0  0  0  0
    6.1814   -1.8166    2.0622 H   0  0  0  0  0  0  0  0  0  0  0  0
    4.4047   -1.7639    1.8395 H   0  0  0  0  0  0  0  0  0  0  0  0
   -2.5855    2.9689    0.3800 C   0  0  0  0  0  0  0  0  0  0  0  0
   -2.5015    2.7624    1.4615 H   0  0  0  0  0  0  0  0  0  0  0  0
   -3.5905    2.6798    0.0218 H   0  0  0  0  0  0  0  0  0  0  0  0
   -2.4015    4.0475    0.1826 H   0  0  0  0  0  0  0  0  0  0  0  0
   -2.2558   -2.9787    0.4520 C   0  0  0  0  0  0  0  0  0  0  0  0
   -2.1982   -2.7374    1.5281 H   0  0  0  0  0  0  0  0  0  0  0  0
   -1.9531   -4.0349    0.2814 H   0  0  0  0  0  0  0  0  0  0  0  0
   -3.2858   -2.8116    0.0869 H   0  0  0  0  0  0  0  0  0  0  0  0
   -1.4266   -2.3449   -1.7440 C   0  0  0  0  0  0  0  0  0  0  0  0
   -0.6929   -1.7132   -2.2781 H   0  0  0  0  0  0  0  0  0  0  0  0
   -2.4475   -2.1044   -2.0953 H   0  0  0  0  0  0  0  0  0  0  0  0
   -1.2010   -3.4166   -1.9373 H   0  0  0  0  0  0  0  0  0  0  0  0
    0.1819    0.1338   -0.0909 C   0  0  0  0  0  3  0  0  0  0  0  0
    7.0983    0.5603   -0.2322 C   0  0  0  0  0  0  0  0  0  0  0  0
    8.3798   -0.1971    0.1650 C   0  0  0  0  0  0  0  0  0  0  0  0
    8.5589   -1.0847   -0.4769 H   0  0  0  0  0  0  0  0  0  0  0  0
    8.3514   -0.5417    1.2199 H   0  0  0  0  0  0  0  0  0  0  0  0
    9.2676    0.4653    0.0608 H   0  0  0  0  0  0  0  0  0  0  0  0
   -1.3395   -2.0726   -0.2836 N   0  0  0  0  0  0  0  0  0  0  0  0
    7.1919    1.0214   -1.6994 C   0  0  0  0  0  0  0  0  0  0  0  0
    7.3644    0.1716   -2.3921 H   0  0  0  0  0  0  0  0  0  0  0  0
    8.0399    1.7299   -1.8291 H   0  0  0  0  0  0  0  0  0  0  0  0
    6.2655    1.5392   -2.0209 H   0  0  0  0  0  0  0  0  0  0  0  0
    6.9094    1.7851    0.6828 C   0  0  0  0  0  0  0  0  0  0  0  0
    5.9762    2.3319    0.4398 H   0  0  0  0  0  0  0  0  0  0  0  0
    7.7601    2.4919    0.5629 H   0  0  0  0  0  0  0  0  0  0  0  0
    6.8666    1.5008    1.7546 H   0  0  0  0  0  0  0  0  0  0  0  0
  1 25  1  0  0  0  0
  2 23  1  0  0  0  0
  2  1  1  0  0  0  0
  3  5  1  0  0  0  0
  3 29  1  0  0  0  0
  4 41  1  0  0  0  0
  4 18  1  0  0  0  0
  5  7  1  0  0  0  0
  6  5  1  0  0  0  0
  8  3  1  0  0  0  0
  9  8  1  0  0  0  0
 10  8  1  0  0  0  0
 11  8  1  0  0  0  0
 12 15  1  0  0  0  0
 12 14  1  0  0  0  0
 12  1  1  0  0  0  0
 13 12  1  0  0  0  0
 16  4  2  0  0  0  0
 17 16  1  0  0  0  0
 18 19  1  0  0  0  0
 20 18  1  0  0  0  0
 21 24  1  0  0  0  0
 22 21  1  0  0  0  0
 23 21  2  0  0  0  0
 23 16  1  0  0  0  0
 24 41  2  0  0  0  0
 24  5  1  0  0  0  0
 25 28  1  0  0  0  0
 25 27  1  0  0  0  0
 25 26  1  0  0  0  0
 29 30  1  0  0  0  0
 31 29  1  0  0  0  0
 32 29  1  0  0  0  0
 33 34  1  0  0  0  0
 35 33  1  0  0  0  0
 36 33  1  0  0  0  0
 37 47  1  0  0  0  0
 38 37  1  0  0  0  0
 39 37  1  0  0  0  0
 40 37  1  0  0  0  0
 42  1  1  0  0  0  0
 42 43  1  0  0  0  0
 42 52  1  0  0  0  0
 43 45  1  0  0  0  0
 44 43  1  0  0  0  0
 46 43  1  0  0  0  0
 47 18  1  0  0  0  0
 47 33  1  0  0  0  0
 48 42  1  0  0  0  0
 49 48  1  0  0  0  0
 50 48  1  0  0  0  0
 51 48  1  0  0  0  0
 52 55  1  0  0  0  0
 53 52  1  0  0  0  0
 54 52  1  0  0  0  0
M  END
