1,2,9
q = -1.0, confidence = 0.028

 39 40  0  0  1  0  0  0  0  0999 V2000
    1.7404   -1.3839   -0.3093 N   0  0  0  0  0  2  0  0  0  0  0  0
   -0.8735   -1.5168   -0.0818 N   0  0  0  0  0  2  0  0  0  0  0  0
    1.2204   -2.5807   -0.2966 C   0  0  0  0  0  0  0  0  0  0  0  0
   -0.2280   -2.6465   -0.1411 C   0  0  0  0  0  0  0  0  0  0  0  0
    3.1785   -1.0680   -0.4254 C   0  0  2  0  0  0  0  0  0  0  0  0
    3.7974   -0.8950    0.9840 C   0  0  0  0  0  0  0  0  0  0  0  0
    3.1455    0.2305    1.8017 C   0  0  0  0  0  0  0  0  0  0  0  0
    2.9347    1.5205    0.9890 C   0  0  0  0  0  0  0  0  0  0  0  0
    2.3223    1.2500   -0.3917 C   0  0  0  0  0  3  0  0  0  0  0  0
    3.2134    0.2688   -1.1835 C   0  0  0  0  0  0  0  0  0  0  0  0
   -2.3175   -1.4926    0.0968 C   0  0  0  0  0  0  0  0  0  0  0  0
   -2.6669   -0.7658    1.4122 C   0  0  0  0  0  0  0  0  0  0  0  0
   -4.1852   -0.6403    1.5881 C   0  0  0  0  0  0  0  0  0  0  0  0
   -4.8389    0.0476    0.3839 C   0  0  0  0  0  0  0  0  0  0  0  0
   -4.4964   -0.6827   -0.9199 C   0  0  0  0  0  0  0  0  0  0  0  0
   -2.9807   -0.8086   -1.1163 C   0  0  0  0  0  0  0  0  0  0  0  0
    1.8491   -3.4833   -0.3885 H   0  0  0  0  0  0  0  0  0  0  0  0
   -0.7450   -3.6225   -0.0694 H   0  0  0  0  0  0  0  0  0  0  0  0
    3.6892   -1.8943   -0.9625 H   0  0  0  0  0  0  0  0  0  0  0  0
    4.8736   -0.6798    0.8147 H   0  0  0  0  0  0  0  0  0  0  0  0
    3.7505   -1.8582    1.5333 H   0  0  0  0  0  0  0  0  0  0  0  0
    3.7680    0.4358    2.6961 H   0  0  0  0  0  0  0  0  0  0  0  0
    2.1614   -0.1167    2.1843 H   0  0  0  0  0  0  0  0  0  0  0  0
    3.9158    2.0267    0.8314 H   0  0  0  0  0  0  0  0  0  0  0  0
    2.3119    2.2332    1.5674 H   0  0  0  0  0  0  0  0  0  0  0  0
    2.1675    2.1959   -0.9495 H   0  0  0  0  0  0  0  0  0  0  0  0
    2.8523    0.1325   -2.2223 H   0  0  0  0  0  0  0  0  0  0  0  0
    4.2609    0.6376   -1.2431 H   0  0  0  0  0  0  0  0  0  0  0  0
   -2.6951   -2.5404    0.1625 H   0  0  0  0  0  0  0  0  0  0  0  0
   -2.2007    0.2429    1.3893 H   0  0  0  0  0  0  0  0  0  0  0  0
   -2.2083   -1.3089    2.2639 H   0  0  0  0  0  0  0  0  0  0  0  0
   -4.4015   -0.0880    2.5252 H   0  0  0  0  0  0  0  0  0  0  0  0
   -4.6274   -1.6526    1.7172 H   0  0  0  0  0  0  0  0  0  0  0  0
   -4.4793    1.1009    0.3217 H   0  0  0  0  0  0  0  0  0  0  0  0
   -5.9379    0.1025    0.5195 H   0  0  0  0  0  0  0  0  0  0  0  0
   -4.9379   -0.1613   -1.7936 H   0  0  0  0  0  0  0  0  0  0  0  0
   -4.9527   -1.6969   -0.9031 H   0  0  0  0  0  0  0  0  0  0  0  0
   -2.5266    0.1980   -1.2418 H   0  0  0  0  0  0  0  0  0  0  0  0
   -2.7422   -1.3816   -2.0356 H   0  0  0  0  0  0  0  0  0  0  0  0
  1  3  1  0  0  0  0
  2 11  1  0  0  0  0
  3  4  2  0  0  0  0
  4  2  1  0  0  0  0
  4 18  1  0  0  0  0
  5 19  1  6  0  0  0
  5  1  1  0  0  0  0
  5  6  1  0  0  0  0
  6 21  1  0  0  0  0
  6  7  1  0  0  0  0
  7 23  1  0  0  0  0
  7 22  1  0  0  0  0
  8 25  1  0  0  0  0
  8  7  1  0  0  0  0
  9  8  1  0  0  0  0
 10  5  1  0  0  0  0
 10  9  1  0  0  0  0
 11 29  1  0  0  0  0
 11 12  1  0  0  0  0
 12 13  1  0  0  0  0
 12 31  1  0  0  0  0
 13 33  1  0  0  0  0
 13 32  1  0  0  0  0
 14 35  1  0  0  0  0
 14 13  1  0  0  0  0
 15 37  1  0  0  0  0
 15 14  1  0  0  0  0
 16 15  1  0  0  0  0
 16 11  1  0  0  0  0
 17  3  1  0  0  0  0
 20  6  1  0  0  0  0
 24  8  1  0  0  0  0
 26  9  1  0  0  0  0
 27 10  1  0  0  0  0
 28 10  1  0  0  0  0
 30 12  1  0  0  0  0
 34 14  1  0  0  0  0
 36 15  1  0  0  0  0
 38 16  1  0  0  0  0
 39 16  1  0  0  0  0
M  END
