1,3,26
q = -1.0, confidence = 0.006

 27 26  0  0  1  0  0  0  0  0999 V2000
    1.4797    0.7840   -1.4857 N   0  0  0  0  0  2  0  0  0  0  0  0
    1.0576    0.9190   -2.4164 H   0  0  0  0  0  0  0  0  0  0  0  0
    1.4768    1.0730    1.2881 N   0  0  0  0  0  2  0  0  0  0  0  0
    1.0533    1.4002    2.1690 H   0  0  0  0  0  0  0  0  0  0  0  0
    3.4781    0.8623   -0.0902 C   0  0  1  0  0  0  0  0  0  0  0  0
    4.3989    1.4715   -0.1537 H   0  0  0  0  0  0  0  0  0  0  0  0
    3.5549    1.4884   -2.5830 C   0  0  0  0  0  0  0  0  0  0  0  0
    2.9668    1.4854   -3.5203 H   0  0  0  0  0  0  0  0  0  0  0  0
    4.4275    0.8118   -2.7037 H   0  0  0  0  0  0  0  0  0  0  0  0
    3.9643    2.5076   -2.4191 H   0  0  0  0  0  0  0  0  0  0  0  0
    3.9484   -0.5978    0.0658 C   0  0  0  0  0  0  0  0  0  0  0  0
    3.5247   -3.0781    0.3208 C   0  0  0  0  0  0  0  0  0  0  0  0
    4.1668   -3.3501   -0.5442 H   0  0  0  0  0  0  0  0  0  0  0  0
    2.7181   -3.8307    0.3945 H   0  0  0  0  0  0  0  0  0  0  0  0
    4.1585   -3.1676    1.2289 H   0  0  0  0  0  0  0  0  0  0  0  0
    2.7462    1.0480   -1.4063 C   0  0  1  0  0  3  0  0  0  0  0  0
    3.5452    2.0077    2.2111 C   0  0  0  0  0  0  0  0  0  0  0  0
    3.9492    2.9706    1.8332 H   0  0  0  0  0  0  0  0  0  0  0  0
    4.4210    1.3779    2.4755 H   0  0  0  0  0  0  0  0  0  0  0  0
    2.9546    2.2021    3.1265 H   0  0  0  0  0  0  0  0  0  0  0  0
    5.2940   -0.8058    0.0938 C   0  0  0  0  0  0  0  0  0  0  0  0
    5.7277   -1.8088    0.2012 H   0  0  0  0  0  0  0  0  0  0  0  0
    6.0034    0.0313    0.0092 H   0  0  0  0  0  0  0  0  0  0  0  0
    2.7416    1.3215    1.1547 C   0  0  2  0  0  3  0  0  0  0  0  0
    2.9512   -1.6820    0.1745 C   0  0  0  0  0  0  0  0  0  0  0  0
    1.5858   -1.5293    0.1544 C   0  0  0  0  0  3  0  0  0  0  0  0
    1.0280   -2.4829    0.2506 H   0  0  0  0  0  0  0  0  0  0  0  0
  2  1  1  0  0  0  0
  3  4  1  0  0  0  0
  5  6  1  6  0  0  0
  5 11  1  0  0  0  0
  5 24  1  0  0  0  0
  7 10  1  0  0  0  0
  7 16  1  0  0  0  0
  8  7  1  0  0  0  0
  9  7  1  0  0  0  0
 11 21  2  0  0  0  0
 11 25  1  0  0  0  0
 12 14  1  0  0  0  0
 12 15  1  0  0  0  0
 13 12  1  0  0  0  0
 16  1  1  6  0  0  0
 16  5  1  0  0  0  0
 17 19  1  0  0  0  0
 17 20  1  0  0  0  0
 18 17  1  0  0  0  0
 21 22  1  0  0  0  0
 23 21  1  0  0  0  0
 24  3  1  1  0  0  0
 24 17  1  0  0  0  0
 25 12  1  0  0  0  0
 26 25  2  0  0  0  0
 26 27  1  0  0  0  0
M  END
