1,76,78
q = -1.0, confidence = 0.072

 79 83  0  0  1  0  0  0  0  0999 V2000
   -0.0001   -0.4689   -0.0001 C   0  0  0  0  0  2  0  0  0  0  0  0
   -1.2211   -1.1648    0.1821 C   0  0  0  0  0  0  0  0  0  0  0  0
   -1.2182   -2.5761    0.1765 C   0  0  0  0  0  0  0  0  0  0  0  0
   -2.1419   -3.1599    0.2997 H   0  0  0  0  0  0  0  0  0  0  0  0
   -0.0001   -3.2609    0.0001 C   0  0  0  0  0  0  0  0  0  0  0  0
   -0.0001   -4.3610    0.0002 H   0  0  0  0  0  0  0  0  0  0  0  0
    1.2181   -2.5761   -0.1763 C   0  0  0  0  0  0  0  0  0  0  0  0
    2.1417   -3.1600   -0.2993 H   0  0  0  0  0  0  0  0  0  0  0  0
    1.2210   -1.1648   -0.1821 C   0  0  0  0  0  0  0  0  0  0  0  0
    2.2751   -0.1566   -0.3225 C   0  0  2  0  0  3  0  0  0  0  0  0
    4.1844    1.1066   -0.5891 C   0  0  0  0  0  0  0  0  0  0  0  0
    4.5767    1.3433   -1.6010 H   0  0  0  0  0  0  0  0  0  0  0  0
    5.0308    1.1947    0.1260 H   0  0  0  0  0  0  0  0  0  0  0  0
    2.9862    2.0162   -0.1849 C   0  0  2  0  0  0  0  0  0  0  0  0
    2.8085    2.8174   -0.9309 H   0  0  0  0  0  0  0  0  0  0  0  0
   -2.2752   -0.1565    0.3227 C   0  0  0  0  0  0  0  0  0  0  0  0
   -4.1844    1.1068    0.5893 C   0  0  0  0  0  0  0  0  0  0  0  0
   -4.5764    1.3434    1.6014 H   0  0  0  0  0  0  0  0  0  0  0  0
   -5.0310    1.1952   -0.1255 H   0  0  0  0  0  0  0  0  0  0  0  0
   -2.9862    2.0164    0.1850 C   0  0  2  0  0  0  0  0  0  0  0  0
   -2.8087    2.8177    0.9309 H   0  0  0  0  0  0  0  0  0  0  0  0
    3.1312    2.6981    1.1989 C   0  0  0  0  0  0  0  0  0  0  0  0
    2.1589    3.2176    1.3395 H   0  0  0  0  0  0  0  0  0  0  0  0
    4.2416    3.7514    1.1705 C   0  0  0  0  0  0  0  0  0  0  0  0
    4.0660    4.5001    0.3710 H   0  0  0  0  0  0  0  0  0  0  0  0
    5.2434    3.2989    0.9995 H   0  0  0  0  0  0  0  0  0  0  0  0
    4.2930    4.2957    2.1350 H   0  0  0  0  0  0  0  0  0  0  0  0
    3.3113    1.6909    2.3373 C   0  0  0  0  0  0  0  0  0  0  0  0
    2.4805    0.9570    2.3531 H   0  0  0  0  0  0  0  0  0  0  0  0
    3.3207    2.2087    3.3177 H   0  0  0  0  0  0  0  0  0  0  0  0
    4.2683    1.1300    2.2583 H   0  0  0  0  0  0  0  0  0  0  0  0
   -3.1309    2.6978   -1.1990 C   0  0  0  0  0  0  0  0  0  0  0  0
   -2.1586    3.2173   -1.3395 H   0  0  0  0  0  0  0  0  0  0  0  0
   -4.2412    3.7513   -1.1710 C   0  0  0  0  0  0  0  0  0  0  0  0
   -4.0656    4.5002   -0.3717 H   0  0  0  0  0  0  0  0  0  0  0  0
   -5.2430    3.2990   -1.0001 H   0  0  0  0  0  0  0  0  0  0  0  0
   -4.2923    4.2954   -2.1356 H   0  0  0  0  0  0  0  0  0  0  0  0
   -3.3109    1.6905   -2.3372 C   0  0  0  0  0  0  0  0  0  0  0  0
   -2.4802    0.9565   -2.3529 H   0  0  0  0  0  0  0  0  0  0  0  0
   -3.3201    2.2081   -3.3177 H   0  0  0  0  0  0  0  0  0  0  0  0
   -4.2680    1.1297   -2.2583 H   0  0  0  0  0  0  0  0  0  0  0  0
   -4.4161   -1.4638    0.5448 C   0  0  0  0  0  0  0  0  0  0  0  0
   -3.7697   -2.2755    0.9397 H   0  0  0  0  0  0  0  0  0  0  0  0
   -5.6240   -1.3654    1.4901 C   0  0  0  0  0  0  0  0  0  0  0  0
   -6.2849   -0.5353    1.1572 H   0  0  0  0  0  0  0  0  0  0  0  0
   -5.2767   -1.1100    2.5128 H   0  0  0  0  0  0  0  0  0  0  0  0
   -6.4265   -2.6736    1.4931 C   0  0  0  0  0  0  0  0  0  0  0  0
   -5.7982   -3.4869    1.9211 H   0  0  0  0  0  0  0  0  0  0  0  0
   -7.3052   -2.5757    2.1635 H   0  0  0  0  0  0  0  0  0  0  0  0
   -6.8678   -3.0681    0.0776 C   0  0  0  0  0  0  0  0  0  0  0  0
   -7.5831   -2.3063   -0.3068 H   0  0  0  0  0  0  0  0  0  0  0  0
   -7.4193   -4.0310    0.0991 H   0  0  0  0  0  0  0  0  0  0  0  0
   -5.6685   -3.1575   -0.8749 C   0  0  0  0  0  0  0  0  0  0  0  0
   -5.0090   -3.9956   -0.5532 H   0  0  0  0  0  0  0  0  0  0  0  0
   -6.0017   -3.4051   -1.9040 H   0  0  0  0  0  0  0  0  0  0  0  0
   -4.8566   -1.8566   -0.8798 C   0  0  0  0  0  0  0  0  0  0  0  0
   -5.4696   -1.0300   -1.3035 H   0  0  0  0  0  0  0  0  0  0  0  0
   -3.9584   -1.9485   -1.5251 H   0  0  0  0  0  0  0  0  0  0  0  0
    4.4159   -1.4639   -0.5449 C   0  0  0  0  0  0  0  0  0  0  0  0
    3.7694   -2.2757   -0.9395 H   0  0  0  0  0  0  0  0  0  0  0  0
    4.8566   -1.8565    0.8798 C   0  0  0  0  0  0  0  0  0  0  0  0
    3.9584   -1.9483    1.5252 H   0  0  0  0  0  0  0  0  0  0  0  0
    5.4697   -1.0299    1.3033 H   0  0  0  0  0  0  0  0  0  0  0  0
    5.6684   -3.1576    0.8750 C   0  0  0  0  0  0  0  0  0  0  0  0
    6.0017   -3.4050    1.9041 H   0  0  0  0  0  0  0  0  0  0  0  0
    5.0088   -3.9956    0.5536 H   0  0  0  0  0  0  0  0  0  0  0  0
    6.8676   -3.0683   -0.0776 C   0  0  0  0  0  0  0  0  0  0  0  0
    7.4191   -4.0313   -0.0990 H   0  0  0  0  0  0  0  0  0  0  0  0
    7.5830   -2.3065    0.3065 H   0  0  0  0  0  0  0  0  0  0  0  0
    6.4261   -2.6741   -1.4931 C   0  0  0  0  0  0  0  0  0  0  0  0
    5.7977   -3.4874   -1.9209 H   0  0  0  0  0  0  0  0  0  0  0  0
    7.3048   -2.5763   -2.1636 H   0  0  0  0  0  0  0  0  0  0  0  0
    5.6237   -1.3659   -1.4903 C   0  0  0  0  0  0  0  0  0  0  0  0
    6.2847   -0.5357   -1.1576 H   0  0  0  0  0  0  0  0  0  0  0  0
    5.2763   -1.1106   -2.5130 H   0  0  0  0  0  0  0  0  0  0  0  0
   -1.8413    1.0985    0.2009 N   0  0  0  0  0  2  0  0  0  0  0  0
   -3.6134   -0.2489    0.5624 N   0  0  0  0  0  0  0  0  0  0  0  0
    1.8414    1.0984   -0.2002 N   0  0  0  0  0  2  0  0  0  0  0  0
    3.6133   -0.2490   -0.5626 N   0  0  1  0  0  0  0  0  0  0  0  0
  1  2  1  0  0  0  0
  2 16  2  0  0  0  0
  3  2  1  0  0  0  0
  3  4  1  0  0  0  0
  5  6  1  0  0  0  0
  5  3  2  0  0  0  0
  7  5  1  0  0  0  0
  8  7  1  0  0  0  0
  9  7  2  0  0  0  0
  9  1  1  0  0  0  0
 10 78  1  0  0  0  0
 10  9  1  6  0  0  0
 11 79  1  0  0  0  0
 11 14  1  0  0  0  0
 11 13  1  0  0  0  0
 12 11  1  0  0  0  0
 14 15  1  6  0  0  0
 14 22  1  0  0  0  0
 16 77  1  0  0  0  0
 17 18  1  0  0  0  0
 19 17  1  0  0  0  0
 20 76  1  0  0  0  0
 20 17  1  0  0  0  0
 20 21  1  1  0  0  0
 22 23  1  0  0  0  0
 22 28  1  0  0  0  0
 24 22  1  0  0  0  0
 24 27  1  0  0  0  0
 25 24  1  0  0  0  0
 26 24  1  0  0  0  0
 28 29  1  0  0  0  0
 28 30  1  0  0  0  0
 31 28  1  0  0  0  0
 32 34  1  0  0  0  0
 32 20  1  0  0  0  0
 33 32  1  0  0  0  0
 34 36  1  0  0  0  0
 34 35  1  0  0  0  0
 37 34  1  0  0  0  0
 38 41  1  0  0  0  0
 38 32  1  0  0  0  0
 39 38  1  0  0  0  0
 40 38  1  0  0  0  0
 42 77  1  0  0  0  0
 42 43  1  0  0  0  0
 42 44  1  0  0  0  0
 44 47  1  0  0  0  0
 44 46  1  0  0  0  0
 45 44  1  0  0  0  0
 47 48  1  0  0  0  0
 47 49  1  0  0  0  0
 50 52  1  0  0  0  0
 50 47  1  0  0  0  0
 51 50  1  0  0  0  0
 53 54  1  0  0  0  0
 53 50  1  0  0  0  0
 55 53  1  0  0  0  0
 56 53  1  0  0  0  0
 56 42  1  0  0  0  0
 57 56  1  0  0  0  0
 58 56  1  0  0  0  0
 59 61  1  0  0  0  0
 60 59  1  0  0  0  0
 61 63  1  0  0  0  0
 61 62  1  0  0  0  0
 64 61  1  0  0  0  0
 64 65  1  0  0  0  0
 66 64  1  0  0  0  0
 67 69  1  0  0  0  0
 67 64  1  0  0  0  0
 68 67  1  0  0  0  0
 70 73  1  0  0  0  0
 70 67  1  0  0  0  0
 71 70  1  0  0  0  0
 72 70  1  0  0  0  0
 73 74  1  0  0  0  0
 73 59  1  0  0  0  0
 75 73  1  0  0  0  0
 76 16  1  0  0  0  0
 77 17  1  0  0  0  0
 78 14  1  0  0  0  0
 79 59  1  1  0  0  0
 79 10  1  0  0  0  0
M  END
