2,3,4
q = -1.0, confidence = 0.032

 31 31  0  0  0  0  0  0  0  0999 V2000
   -4.6583    1.5142    0.0468 Cl  0  0  0  0  0  0  0  0  0  0  0  0
   -0.1967    1.5438   -0.1118 N   0  0  0  0  0  2  0  0  0  0  0  0
    2.7995    0.3880   -0.0148 N   0  0  0  0  0  0  0  0  0  0  0  0
   -1.2949   -0.8148   -0.0268 C   0  0  0  0  0  2  0  0  0  0  0  0
   -1.8597   -2.1032   -0.0037 C   0  0  0  0  0  0  0  0  0  0  0  0
   -1.1973   -2.9802   -0.0091 H   0  0  0  0  0  0  0  0  0  0  0  0
   -3.2552   -2.2629    0.0334 C   0  0  0  0  0  0  0  0  0  0  0  0
   -3.6833   -3.2778    0.0516 H   0  0  0  0  0  0  0  0  0  0  0  0
   -4.1298   -1.1601    0.0502 C   0  0  0  0  0  0  0  0  0  0  0  0
   -5.2197   -1.2929    0.0805 H   0  0  0  0  0  0  0  0  0  0  0  0
   -3.5853    0.1270    0.0274 C   0  0  0  0  0  0  0  0  0  0  0  0
   -2.1835    0.3146   -0.0138 C   0  0  0  0  0  0  0  0  0  0  0  0
   -1.5097    1.5812   -0.0560 C   0  0  0  0  0  0  0  0  0  0  0  0
   -2.0469    2.5457   -0.0515 H   0  0  0  0  0  0  0  0  0  0  0  0
    0.5577    2.7854   -0.2208 C   0  0  0  0  0  0  0  0  0  0  0  0
    0.7173    3.0026   -1.3023 H   0  0  0  0  0  0  0  0  0  0  0  0
   -0.0513    3.6195    0.1902 H   0  0  0  0  0  0  0  0  0  0  0  0
    1.9189    2.7320    0.4723 C   0  0  0  0  0  0  0  0  0  0  0  0
    1.7951    2.4312    1.5337 H   0  0  0  0  0  0  0  0  0  0  0  0
    2.3239    3.7649    0.4888 H   0  0  0  0  0  0  0  0  0  0  0  0
    2.9436    1.8484   -0.2386 C   0  0  0  0  0  0  0  0  0  0  0  0
    2.8655    2.0228   -1.3317 H   0  0  0  0  0  0  0  0  0  0  0  0
    3.9769    2.1467    0.0587 H   0  0  0  0  0  0  0  0  0  0  0  0
    3.5744   -0.3301   -1.0526 C   0  0  0  0  0  0  0  0  0  0  0  0
    3.1624   -0.0854   -2.0497 H   0  0  0  0  0  0  0  0  0  0  0  0
    3.4662   -1.4173   -0.8866 H   0  0  0  0  0  0  0  0  0  0  0  0
    4.6487   -0.0360   -1.0122 H   0  0  0  0  0  0  0  0  0  0  0  0
    3.3180    0.0182    1.3223 C   0  0  0  0  0  0  0  0  0  0  0  0
    2.7477    0.5457    2.1090 H   0  0  0  0  0  0  0  0  0  0  0  0
    4.3977    0.2833    1.4087 H   0  0  0  0  0  0  0  0  0  0  0  0
    3.1788   -1.0694    1.4632 H   0  0  0  0  0  0  0  0  0  0  0  0
  2 13  1  0  0  0  0
  3 28  1  0  0  0  0
  4 12  1  0  0  0  0
  4  5  1  0  0  0  0
  5  7  2  0  0  0  0
  6  5  1  0  0  0  0
  7  9  1  0  0  0  0
  7  8  1  0  0  0  0
  9 10  1  0  0  0  0
 11  1  1  0  0  0  0
 11  9  2  0  0  0  0
 12 11  1  0  0  0  0
 13 14  1  0  0  0  0
 13 12  2  0  0  0  0
 15  2  1  0  0  0  0
 15 17  1  0  0  0  0
 15 18  1  0  0  0  0
 16 15  1  0  0  0  0
 18 20  1  0  0  0  0
 18 19  1  0  0  0  0
 21  3  1  0  0  0  0
 21 23  1  0  0  0  0
 21 18  1  0  0  0  0
 22 21  1  0  0  0  0
 24 27  1  0  0  0  0
 24 26  1  0  0  0  0
 24  3  1  0  0  0  0
 25 24  1  0  0  0  0
 28 30  1  0  0  0  0
 28 31  1  0  0  0  0
 28 29  1  0  0  0  0
M  END
