2,3,4
q = -1.0, confidence = 0.002

 31 31  0  0  0  0  0  0  0  0999 V2000
   -5.0102   -1.2927   -0.0034 F   0  0  0  0  0  0  0  0  0  0  0  0
    0.1940    2.0565    0.1548 N   0  0  0  0  0  2  0  0  0  0  0  0
    2.6249   -0.1850   -0.0013 N   0  0  0  0  0  0  0  0  0  0  0  0
   -1.7328    0.2388    0.0451 C   0  0  0  0  0  3  0  0  0  0  0  0
   -2.7152   -0.7495    0.0128 C   0  0  0  0  0  0  0  0  0  0  0  0
   -2.4619   -1.8175   -0.0285 H   0  0  0  0  0  0  0  0  0  0  0  0
   -4.0608   -0.3471    0.0275 C   0  0  0  0  0  0  0  0  0  0  0  0
   -4.4630    0.9997    0.0715 C   0  0  0  0  0  0  0  0  0  0  0  0
   -5.5343    1.2425    0.0793 H   0  0  0  0  0  0  0  0  0  0  0  0
   -3.4766    1.9848    0.1053 C   0  0  0  0  0  0  0  0  0  0  0  0
   -3.7561    3.0489    0.1431 H   0  0  0  0  0  0  0  0  0  0  0  0
   -2.1131    1.6129    0.0951 C   0  0  0  0  0  0  0  0  0  0  0  0
   -1.0184    2.5383    0.1524 C   0  0  0  0  0  3  0  0  0  0  0  0
   -1.1736    3.6321    0.2095 H   0  0  0  0  0  0  0  0  0  0  0  0
    1.3642    2.9023    0.3164 C   0  0  0  0  0  0  0  0  0  0  0  0
    1.5560    3.0056    1.4089 H   0  0  0  0  0  0  0  0  0  0  0  0
    1.1273    3.9139   -0.0779 H   0  0  0  0  0  0  0  0  0  0  0  0
    2.6157    2.3443   -0.3597 C   0  0  0  0  0  0  0  0  0  0  0  0
    3.3769    3.1507   -0.3509 H   0  0  0  0  0  0  0  0  0  0  0  0
    2.4008    2.1228   -1.4259 H   0  0  0  0  0  0  0  0  0  0  0  0
    3.2140    1.1311    0.3559 C   0  0  0  0  0  0  0  0  0  0  0  0
    4.3099    1.0769    0.1588 H   0  0  0  0  0  0  0  0  0  0  0  0
    3.0878    1.2543    1.4512 H   0  0  0  0  0  0  0  0  0  0  0  0
    3.0949   -0.6161   -1.3365 C   0  0  0  0  0  0  0  0  0  0  0  0
    4.2015   -0.7381   -1.3229 H   0  0  0  0  0  0  0  0  0  0  0  0
    2.8048    0.1169   -2.1085 H   0  0  0  0  0  0  0  0  0  0  0  0
    2.6129   -1.5783   -1.5895 H   0  0  0  0  0  0  0  0  0  0  0  0
    3.0926   -1.1822    0.9915 C   0  0  0  0  0  0  0  0  0  0  0  0
    4.2052   -1.2110    0.9971 H   0  0  0  0  0  0  0  0  0  0  0  0
    2.6909   -2.1746    0.7210 H   0  0  0  0  0  0  0  0  0  0  0  0
    2.7120   -0.9140    1.9934 H   0  0  0  0  0  0  0  0  0  0  0  0
  1  7  1  0  0  0  0
  2 15  1  0  0  0  0
  3 21  1  0  0  0  0
  3 28  1  0  0  0  0
  4 12  1  0  0  0  0
  5  7  1  0  0  0  0
  5  4  2  0  0  0  0
  6  5  1  0  0  0  0
  7  8  2  0  0  0  0
  8  9  1  0  0  0  0
  8 10  1  0  0  0  0
 10 11  1  0  0  0  0
 12 10  2  0  0  0  0
 12 13  1  0  0  0  0
 13  2  1  0  0  0  0
 13 14  1  0  0  0  0
 15 16  1  0  0  0  0
 17 15  1  0  0  0  0
 18 19  1  0  0  0  0
 18 15  1  0  0  0  0
 18 21  1  0  0  0  0
 20 18  1  0  0  0  0
 21 23  1  0  0  0  0
 22 21  1  0  0  0  0
 24 25  1  0  0  0  0
 24  3  1  0  0  0  0
 26 24  1  0  0  0  0
 27 24  1  0  0  0  0
 28 29  1  0  0  0  0
 28 31  1  0  0  0  0
 30 28  1  0  0  0  0
M  END
