1,2,5
q = -1.0, confidence = 0.12

 76 79  0  0  0  0  0  0  0  0999 V2000
    4.4861    0.0098    0.0199 N   0  0  0  0  0  2  0  0  0  0  0  0
    6.3636   -1.7949   -0.2503 N   0  0  0  0  0  2  0  0  0  0  0  0
   -3.8287   -1.4437    0.6830 O   0  0  0  0  0  0  0  0  0  0  0  0
    4.3906    2.3614    0.1671 C   0  0  0  0  0  0  0  0  0  0  0  0
    5.8218    2.2462    0.0369 C   0  0  0  0  0  2  0  0  0  0  0  0
    6.5849    3.4291    0.0421 C   0  0  0  0  0  3  0  0  0  0  0  0
    5.9627    4.6814    0.1710 C   0  0  0  0  0  0  0  0  0  0  0  0
    4.5641    4.7847    0.2979 C   0  0  0  0  0  0  0  0  0  0  0  0
    3.7794    3.6259    0.2958 C   0  0  0  0  0  0  0  0  0  0  0  0
    3.6542    1.0940    0.1530 C   0  0  0  0  0  0  0  0  0  0  0  0
    2.2743    0.8708    0.2621 C   0  0  0  0  0  0  0  0  0  0  0  0
    1.7422   -0.4397    0.2319 C   0  0  0  0  0  0  0  0  0  0  0  0
    2.6481   -1.5187    0.0922 C   0  0  0  0  0  0  0  0  0  0  0  0
    4.0231   -1.2725   -0.0116 C   0  0  0  0  0  0  0  0  0  0  0  0
    5.0866   -2.2888   -0.1675 C   0  0  0  0  0  0  0  0  0  0  0  0
    4.8560   -3.6746   -0.2306 C   0  0  0  0  0  0  0  0  0  0  0  0
    5.9410   -4.5468   -0.3789 C   0  0  0  0  0  0  0  0  0  0  0  0
    7.2402   -4.0195   -0.4614 C   0  0  0  0  0  0  0  0  0  0  0  0
    7.4080   -2.6321   -0.3925 C   0  0  0  0  0  0  0  0  0  0  0  0
    0.2870   -0.6780    0.3392 C   0  0  0  0  0  0  0  0  0  0  0  0
   -0.6474    0.2590   -0.1522 C   0  0  0  0  0  0  0  0  0  0  0  0
   -2.0285    0.0443   -0.0616 C   0  0  0  0  0  0  0  0  0  0  0  0
   -2.5169   -1.1355    0.5403 C   0  0  0  0  0  0  0  0  0  0  0  0
   -1.5954   -2.0839    1.0405 C   0  0  0  0  0  0  0  0  0  0  0  0
   -0.2249   -1.8568    0.9374 C   0  0  0  0  0  0  0  0  0  0  0  0
   -4.8130   -0.5223    0.2161 C   0  0  0  0  0  0  0  0  0  0  0  0
   -6.1868   -1.1028    0.5097 C   0  0  0  0  0  0  0  0  0  0  0  0
   -7.3255   -0.1897    0.0494 C   0  0  0  0  0  0  0  0  0  0  0  0
   -8.7171   -0.7606    0.3350 C   0  0  0  0  0  0  0  0  0  0  0  0
   -9.8619    0.1480   -0.1196 C   0  0  0  0  0  0  0  0  0  0  0  0
  -11.2541   -0.4222    0.1632 C   0  0  0  0  0  0  0  0  0  0  0  0
  -12.4001    0.4865   -0.2890 C   0  0  0  0  0  0  0  0  0  0  0  0
  -13.7924   -0.0842   -0.0076 C   0  0  0  0  0  0  0  0  0  0  0  0
  -14.9387    0.8247   -0.4585 C   0  0  0  0  0  0  0  0  0  0  0  0
  -16.3311    0.2540   -0.1783 C   0  0  0  0  0  0  0  0  0  0  0  0
  -17.4786    1.1632   -0.6285 C   0  0  0  0  0  0  0  0  0  0  0  0
  -18.8647    0.5835   -0.3446 C   0  0  0  0  0  0  0  0  0  0  0  0
    7.6782    3.3534   -0.0567 H   0  0  0  0  0  0  0  0  0  0  0  0
    6.5772    5.5959    0.1729 H   0  0  0  0  0  0  0  0  0  0  0  0
    4.0882    5.7716    0.3988 H   0  0  0  0  0  0  0  0  0  0  0  0
    2.6852    3.7067    0.3953 H   0  0  0  0  0  0  0  0  0  0  0  0
    1.6065    1.7312    0.4022 H   0  0  0  0  0  0  0  0  0  0  0  0
    2.2712   -2.5478    0.0325 H   0  0  0  0  0  0  0  0  0  0  0  0
    3.8314   -4.0649   -0.1637 H   0  0  0  0  0  0  0  0  0  0  0  0
    5.7728   -5.6327   -0.4298 H   0  0  0  0  0  0  0  0  0  0  0  0
    8.1169   -4.6723   -0.5779 H   0  0  0  0  0  0  0  0  0  0  0  0
    8.3917   -2.1348   -0.4490 H   0  0  0  0  0  0  0  0  0  0  0  0
   -0.2890    1.1718   -0.6511 H   0  0  0  0  0  0  0  0  0  0  0  0
   -2.7159    0.7953   -0.4722 H   0  0  0  0  0  0  0  0  0  0  0  0
   -1.9912   -2.9909    1.5194 H   0  0  0  0  0  0  0  0  0  0  0  0
    0.4694   -2.5970    1.3627 H   0  0  0  0  0  0  0  0  0  0  0  0
   -4.6838    0.4623    0.7239 H   0  0  0  0  0  0  0  0  0  0  0  0
   -4.6842   -0.3492   -0.8782 H   0  0  0  0  0  0  0  0  0  0  0  0
   -6.2650   -1.2935    1.6016 H   0  0  0  0  0  0  0  0  0  0  0  0
   -6.2659   -2.0946    0.0148 H   0  0  0  0  0  0  0  0  0  0  0  0
   -7.2275    0.0074   -1.0422 H   0  0  0  0  0  0  0  0  0  0  0  0
   -7.2290    0.8040    0.5427 H   0  0  0  0  0  0  0  0  0  0  0  0
   -8.8151   -0.9603    1.4259 H   0  0  0  0  0  0  0  0  0  0  0  0
   -8.8149   -1.7534   -0.1593 H   0  0  0  0  0  0  0  0  0  0  0  0
   -9.7614    0.3493   -1.2103 H   0  0  0  0  0  0  0  0  0  0  0  0
   -9.7631    1.1405    0.3760 H   0  0  0  0  0  0  0  0  0  0  0  0
  -11.3530   -1.4141   -0.3333 H   0  0  0  0  0  0  0  0  0  0  0  0
  -11.3538   -0.6252    1.2537 H   0  0  0  0  0  0  0  0  0  0  0  0
  -12.2995    0.6905   -1.3792 H   0  0  0  0  0  0  0  0  0  0  0  0
  -12.3014    1.4781    0.2086 H   0  0  0  0  0  0  0  0  0  0  0  0
  -13.8923   -0.2892    1.0825 H   0  0  0  0  0  0  0  0  0  0  0  0
  -13.8909   -1.0754   -0.5059 H   0  0  0  0  0  0  0  0  0  0  0  0
  -14.8378    1.0303   -1.5485 H   0  0  0  0  0  0  0  0  0  0  0  0
  -14.8400    1.8156    0.0404 H   0  0  0  0  0  0  0  0  0  0  0  0
  -16.4300   -0.7369   -0.6776 H   0  0  0  0  0  0  0  0  0  0  0  0
  -16.4319    0.0477    0.9118 H   0  0  0  0  0  0  0  0  0  0  0  0
  -17.3739    1.3685   -1.7174 H   0  0  0  0  0  0  0  0  0  0  0  0
  -17.3762    2.1523   -0.1287 H   0  0  0  0  0  0  0  0  0  0  0  0
  -19.6731    1.2635   -0.6811 H   0  0  0  0  0  0  0  0  0  0  0  0
  -19.0110    0.4019    0.7409 H   0  0  0  0  0  0  0  0  0  0  0  0
  -19.0088   -0.3884   -0.8615 H   0  0  0  0  0  0  0  0  0  0  0  0
  1 10  1  0  0  0  0
  2 15  1  0  0  0  0
  4  9  2  0  0  0  0
  5  6  1  0  0  0  0
  5  4  1  0  0  0  0
  6  7  1  0  0  0  0
  7 39  1  0  0  0  0
  7  8  2  0  0  0  0
  8 40  1  0  0  0  0
  9  8  1  0  0  0  0
  9 41  1  0  0  0  0
 10  4  1  0  0  0  0
 10 11  2  0  0  0  0
 11 42  1  0  0  0  0
 12 11  1  0  0  0  0
 12 20  1  0  0  0  0
 13 12  2  0  0  0  0
 14  1  1  0  0  0  0
 14 13  1  0  0  0  0
 15 14  2  0  0  0  0
 16 15  1  0  0  0  0
 16 44  1  0  0  0  0
 17 16  2  0  0  0  0
 18 19  2  0  0  0  0
 18 17  1  0  0  0  0
 19  2  1  0  0  0  0
 20 25  1  0  0  0  0
 21 22  1  0  0  0  0
 21 20  2  0  0  0  0
 22 23  2  0  0  0  0
 23  3  1  0  0  0  0
 23 24  1  0  0  0  0
 24 50  1  0  0  0  0
 25 24  2  0  0  0  0
 25 51  1  0  0  0  0
 26 27  1  0  0  0  0
 26  3  1  0  0  0  0
 26 52  1  0  0  0  0
 27 54  1  0  0  0  0
 28 29  1  0  0  0  0
 28 27  1  0  0  0  0
 28 57  1  0  0  0  0
 29 58  1  0  0  0  0
 30 31  1  0  0  0  0
 30 29  1  0  0  0  0
 30 61  1  0  0  0  0
 31 63  1  0  0  0  0
 32 33  1  0  0  0  0
 32 31  1  0  0  0  0
 32 65  1  0  0  0  0
 33 66  1  0  0  0  0
 34 35  1  0  0  0  0
 34 33  1  0  0  0  0
 34 69  1  0  0  0  0
 35 71  1  0  0  0  0
 36 37  1  0  0  0  0
 36 35  1  0  0  0  0
 36 73  1  0  0  0  0
 37 75  1  0  0  0  0
 38  6  1  0  0  0  0
 43 13  1  0  0  0  0
 45 17  1  0  0  0  0
 46 18  1  0  0  0  0
 47 19  1  0  0  0  0
 48 21  1  0  0  0  0
 49 22  1  0  0  0  0
 53 26  1  0  0  0  0
 55 27  1  0  0  0  0
 56 28  1  0  0  0  0
 59 29  1  0  0  0  0
 60 30  1  0  0  0  0
 62 31  1  0  0  0  0
 64 32  1  0  0  0  0
 67 33  1  0  0  0  0
 68 34  1  0  0  0  0
 70 35  1  0  0  0  0
 72 36  1  0  0  0  0
 74 37  1  0  0  0  0
 76 37  1  0  0  0  0
M  END
