3,4,5
q = -1.0, confidence = 0.038

 28 28  0  0  0  0  0  0  0  0999 V2000
   -1.7145    2.7879    0.0205 Cl  0  0  0  0  0  0  0  0  0  0  0  0
   -5.6427   -0.8819   -0.0510 Cl  0  0  0  0  0  0  0  0  0  0  0  0
    3.0666   -0.4965   -0.0872 N   0  0  0  0  0  0  0  0  0  0  0  0
    0.6156   -1.8448    0.0451 N   0  0  0  0  0  2  0  0  0  0  0  0
   -1.1188    0.0858    0.0165 C   0  0  0  0  0  2  0  0  0  0  0  0
   -2.1109    1.0928    0.0078 C   0  0  0  0  0  0  0  0  0  0  0  0
   -3.4899    0.7927   -0.0159 C   0  0  0  0  0  0  0  0  0  0  0  0
   -3.9304   -0.5392   -0.0241 C   0  0  0  0  0  0  0  0  0  0  0  0
   -3.0063   -1.5863   -0.0102 C   0  0  0  0  0  0  0  0  0  0  0  0
   -1.6323   -1.2686    0.0091 C   0  0  0  0  0  0  0  0  0  0  0  0
   -0.6156   -2.2932    0.0413 C   0  0  0  0  0  0  0  0  0  0  0  0
    1.8202   -2.6516    0.1923 C   0  0  0  0  0  0  0  0  0  0  0  0
    2.9781   -1.9271   -0.4974 C   0  0  0  0  0  0  0  0  0  0  0  0
    3.8488    0.2779   -1.0712 C   0  0  0  0  0  0  0  0  0  0  0  0
    3.6490   -0.3281    1.2588 C   0  0  0  0  0  0  0  0  0  0  0  0
   -4.2187    1.6140   -0.0275 H   0  0  0  0  0  0  0  0  0  0  0  0
   -3.3471   -2.6313   -0.0122 H   0  0  0  0  0  0  0  0  0  0  0  0
   -0.8349   -3.3752    0.0845 H   0  0  0  0  0  0  0  0  0  0  0  0
    2.0279   -2.7798    1.2778 H   0  0  0  0  0  0  0  0  0  0  0  0
    1.6883   -3.6667   -0.2402 H   0  0  0  0  0  0  0  0  0  0  0  0
    2.8015   -1.9360   -1.5908 H   0  0  0  0  0  0  0  0  0  0  0  0
    3.9416   -2.4527   -0.3030 H   0  0  0  0  0  0  0  0  0  0  0  0
    3.4043    0.1483   -2.0755 H   0  0  0  0  0  0  0  0  0  0  0  0
    4.9116   -0.0558   -1.0857 H   0  0  0  0  0  0  0  0  0  0  0  0
    3.7783    1.3487   -0.8018 H   0  0  0  0  0  0  0  0  0  0  0  0
    3.0629   -0.8960    2.0049 H   0  0  0  0  0  0  0  0  0  0  0  0
    3.5936    0.7441    1.5251 H   0  0  0  0  0  0  0  0  0  0  0  0
    4.7099   -0.6707    1.2808 H   0  0  0  0  0  0  0  0  0  0  0  0
  2  8  1  0  0  0  0
  3 15  1  0  0  0  0
  4 12  1  0  0  0  0
  6  5  1  0  0  0  0
  6  1  1  0  0  0  0
  7  6  2  0  0  0  0
  8  7  1  0  0  0  0
  8  9  2  0  0  0  0
  9 10  1  0  0  0  0
 10  5  1  0  0  0  0
 10 11  2  0  0  0  0
 11  4  1  0  0  0  0
 11 18  1  0  0  0  0
 12 19  1  0  0  0  0
 13 22  1  0  0  0  0
 13  3  1  0  0  0  0
 13 12  1  0  0  0  0
 14 25  1  0  0  0  0
 14  3  1  0  0  0  0
 15 28  1  0  0  0  0
 15 27  1  0  0  0  0
 15 26  1  0  0  0  0
 16  7  1  0  0  0  0
 17  9  1  0  0  0  0
 20 12  1  0  0  0  0
 21 13  1  0  0  0  0
 23 14  1  0  0  0  0
 24 14  1  0  0  0  0
M  END
