1,2,8
q = -1.0, confidence = 0.044

 47 49  0  0  1  0  0  0  0  0999 V2000
    2.0729   -0.2196    0.5635 N   0  0  0  0  0  2  0  0  0  0  0  0
   -1.8100   -0.6165   -0.4470 N   0  0  0  0  0  2  0  0  0  0  0  0
   -0.2998    5.3184   -0.5261 N   0  0  0  0  0  0  0  0  0  0  0  0
    3.4859    1.5045    0.8897 O   0  0  0  0  0  0  0  0  0  0  0  0
   -3.4546    0.7802   -1.0956 O   0  0  0  0  0  0  0  0  0  0  0  0
    0.7034    5.9939   -0.2853 O   0  0  0  0  0  0  0  0  0  0  0  0
   -1.3829    5.7737   -0.9006 O   0  0  0  0  0  0  0  0  0  0  0  0
   -0.0096    1.1218   -0.0097 C   0  0  0  0  0  3  0  0  0  0  0  0
    1.1343    1.9298    0.2078 C   0  0  0  0  0  0  0  0  0  0  0  0
    1.0414    3.3191    0.0514 C   0  0  0  0  0  0  0  0  0  0  0  0
    1.8871    3.9995    0.2183 H   0  0  0  0  0  0  0  0  0  0  0  0
   -0.1963    3.8559   -0.3548 C   0  0  0  0  0  0  0  0  0  0  0  0
   -1.3340    3.0702   -0.6311 C   0  0  0  0  0  0  0  0  0  0  0  0
   -2.2538    3.5658   -0.9690 H   0  0  0  0  0  0  0  0  0  0  0  0
   -1.2292    1.6851   -0.4622 C   0  0  0  0  0  0  0  0  0  0  0  0
    2.2619    1.0818    0.5586 C   0  0  2  0  0  3  0  0  0  0  0  0
    4.2778    0.3069    1.1657 C   0  0  0  0  0  0  0  0  0  0  0  0
    4.6649    0.3946    2.1986 H   0  0  0  0  0  0  0  0  0  0  0  0
    5.1313    0.3027    0.4585 H   0  0  0  0  0  0  0  0  0  0  0  0
    3.3080   -0.8960    0.9635 C   0  0  2  0  0  0  0  0  0  0  0  0
    3.1179   -1.4145    1.9289 H   0  0  0  0  0  0  0  0  0  0  0  0
    3.9367   -1.3835   -1.4709 C   0  0  0  0  0  0  0  0  0  0  0  0
    3.0078   -0.8937   -1.8240 H   0  0  0  0  0  0  0  0  0  0  0  0
    4.1902   -2.1921   -2.1860 H   0  0  0  0  0  0  0  0  0  0  0  0
    4.7653   -0.6444   -1.5152 H   0  0  0  0  0  0  0  0  0  0  0  0
    3.7513   -1.9612   -0.0646 C   0  0  0  0  0  0  0  0  0  0  0  0
    2.9057   -2.6818   -0.0995 H   0  0  0  0  0  0  0  0  0  0  0  0
    4.9984   -2.6982    0.4356 C   0  0  0  0  0  0  0  0  0  0  0  0
    5.2666   -3.5263   -0.2503 H   0  0  0  0  0  0  0  0  0  0  0  0
    4.8421   -3.1336    1.4443 H   0  0  0  0  0  0  0  0  0  0  0  0
    5.8805   -2.0242    0.4905 H   0  0  0  0  0  0  0  0  0  0  0  0
   -2.1942    0.6219   -0.6772 C   0  0  2  0  0  3  0  0  0  0  0  0
   -3.9787   -0.5669   -1.3137 C   0  0  0  0  0  0  0  0  0  0  0  0
   -4.0487   -0.7208   -2.4095 H   0  0  0  0  0  0  0  0  0  0  0  0
   -4.9929   -0.6091   -0.8737 H   0  0  0  0  0  0  0  0  0  0  0  0
   -2.9524   -1.5166   -0.6400 C   0  0  2  0  0  0  0  0  0  0  0  0
   -2.6452   -2.3266   -1.3334 H   0  0  0  0  0  0  0  0  0  0  0  0
   -3.9118   -1.1071    1.7061 C   0  0  0  0  0  0  0  0  0  0  0  0
   -4.8750   -0.6597    1.3820 H   0  0  0  0  0  0  0  0  0  0  0  0
   -3.1862   -0.2848    1.8621 H   0  0  0  0  0  0  0  0  0  0  0  0
   -4.0974   -1.5831    2.6899 H   0  0  0  0  0  0  0  0  0  0  0  0
   -3.4038   -2.1459    0.7004 C   0  0  0  0  0  0  0  0  0  0  0  0
   -2.4810   -2.6005    1.1247 H   0  0  0  0  0  0  0  0  0  0  0  0
   -4.4265   -3.2595    0.4527 C   0  0  0  0  0  0  0  0  0  0  0  0
   -5.3635   -2.8572    0.0114 H   0  0  0  0  0  0  0  0  0  0  0  0
   -4.7046   -3.7600    1.4016 H   0  0  0  0  0  0  0  0  0  0  0  0
   -4.0341   -4.0326   -0.2393 H   0  0  0  0  0  0  0  0  0  0  0  0
  1 20  1  0  0  0  0
  3 12  1  0  0  0  0
  3  6  2  0  0  0  0
  4 17  1  0  0  0  0
  5 32  1  0  0  0  0
  7  3  2  0  0  0  0
  8  9  1  0  0  0  0
 10  9  2  0  0  0  0
 10 11  1  0  0  0  0
 12 10  1  0  0  0  0
 13 15  1  0  0  0  0
 13 12  2  0  0  0  0
 14 13  1  0  0  0  0
 15  8  2  0  0  0  0
 16  9  1  1  0  0  0
 16  1  1  0  0  0  0
 16  4  1  0  0  0  0
 17 18  1  0  0  0  0
 19 17  1  0  0  0  0
 20 17  1  0  0  0  0
 20 21  1  1  0  0  0
 22 26  1  0  0  0  0
 23 22  1  0  0  0  0
 24 22  1  0  0  0  0
 25 22  1  0  0  0  0
 26 28  1  0  0  0  0
 26 20  1  0  0  0  0
 27 26  1  0  0  0  0
 28 31  1  0  0  0  0
 28 30  1  0  0  0  0
 29 28  1  0  0  0  0
 32 15  1  6  0  0  0
 32  2  1  0  0  0  0
 33  5  1  0  0  0  0
 33 35  1  0  0  0  0
 33 36  1  0  0  0  0
 34 33  1  0  0  0  0
 36 37  1  6  0  0  0
 36  2  1  0  0  0  0
 36 42  1  0  0  0  0
 38 40  1  0  0  0  0
 38 41  1  0  0  0  0
 39 38  1  0  0  0  0
 42 43  1  0  0  0  0
 42 38  1  0  0  0  0
 44 42  1  0  0  0  0
 44 46  1  0  0  0  0
 45 44  1  0  0  0  0
 47 44  1  0  0  0  0
M  END
