2,5,7
q = -1.0, confidence = 0.006

 73 78  0  0  1  0  0  0  0  0999 V2000
    0.5053    1.4855    0.5270 S   0  0  0  0  0  0  0  0  0  0  0  0
    0.4970    0.0002   -0.5425 C   0  0  2  0  0  3  0  0  0  0  0  0
    0.5053   -1.4844    0.5279 S   0  0  0  0  0  0  0  0  0  0  0  0
    1.8643   -0.0001   -1.6914 S   0  0  0  0  0  0  0  0  0  0  0  0
   -1.9472    1.5869   -0.7216 N   0  0  0  0  0  2  0  0  0  0  0  0
   -1.6525    3.1660    0.8538 N   0  0  0  0  0  0  0  0  0  0  0  0
   -1.9466   -1.5875   -0.7218 N   0  0  0  0  0  2  0  0  0  0  0  0
   -1.6520   -3.1654    0.8547 N   0  0  0  0  0  0  0  0  0  0  0  0
    3.1059    0.0004    0.7400 N   0  0  0  0  0  0  0  0  0  0  0  0
    4.5560   -0.0000   -1.0060 N   0  0  0  0  0  0  0  0  0  0  0  0
   -1.1080    2.0893    0.1838 C   0  0  1  0  0  3  0  0  0  0  0  0
   -3.0991    2.3554   -0.6626 C   0  0  0  0  0  0  0  0  0  0  0  0
   -4.2895    2.2598   -1.4014 C   0  0  0  0  0  0  0  0  0  0  0  0
   -4.4011    1.4823   -2.1707 H   0  0  0  0  0  0  0  0  0  0  0  0
   -5.3046    3.1858   -1.1261 C   0  0  0  0  0  0  0  0  0  0  0  0
   -6.2486    3.1378   -1.6890 H   0  0  0  0  0  0  0  0  0  0  0  0
   -5.1384    4.1839   -0.1399 C   0  0  0  0  0  0  0  0  0  0  0  0
   -5.9553    4.8956    0.0510 H   0  0  0  0  0  0  0  0  0  0  0  0
   -3.9530    4.2935    0.6049 C   0  0  0  0  0  0  0  0  0  0  0  0
   -3.8411    5.0777    1.3653 H   0  0  0  0  0  0  0  0  0  0  0  0
   -2.9355    3.3652    0.3312 C   0  0  0  0  0  0  0  0  0  0  0  0
   -0.9741    3.9271    1.9142 C   0  0  0  0  0  0  0  0  0  0  0  0
    0.0111    3.4271    2.0282 H   0  0  0  0  0  0  0  0  0  0  0  0
   -0.7204    5.3743    1.4814 C   0  0  0  0  0  0  0  0  0  0  0  0
   -0.1284    5.9019    2.2549 H   0  0  0  0  0  0  0  0  0  0  0  0
   -1.6662    5.9326    1.3365 H   0  0  0  0  0  0  0  0  0  0  0  0
   -0.1537    5.4040    0.5305 H   0  0  0  0  0  0  0  0  0  0  0  0
   -1.7162    3.8001    3.2483 C   0  0  0  0  0  0  0  0  0  0  0  0
   -1.1376    4.2996    4.0501 H   0  0  0  0  0  0  0  0  0  0  0  0
   -1.8431    2.7351    3.5240 H   0  0  0  0  0  0  0  0  0  0  0  0
   -2.7191    4.2685    3.2102 H   0  0  0  0  0  0  0  0  0  0  0  0
   -1.1076   -2.0890    0.1844 C   0  0  2  0  0  3  0  0  0  0  0  0
   -3.0981   -2.3565   -0.6629 C   0  0  0  0  0  0  0  0  0  0  0  0
   -4.2883   -2.2618   -1.4025 C   0  0  0  0  0  0  0  0  0  0  0  0
   -4.3997   -1.4849   -2.1724 H   0  0  0  0  0  0  0  0  0  0  0  0
   -5.3030   -3.1881   -1.1271 C   0  0  0  0  0  0  0  0  0  0  0  0
   -6.2467   -3.1409   -1.6906 H   0  0  0  0  0  0  0  0  0  0  0  0
   -5.1369   -4.1855   -0.1402 C   0  0  0  0  0  0  0  0  0  0  0  0
   -5.9536   -4.8975    0.0507 H   0  0  0  0  0  0  0  0  0  0  0  0
   -3.9519   -4.2941    0.6053 C   0  0  0  0  0  0  0  0  0  0  0  0
   -3.8400   -5.0778    1.3663 H   0  0  0  0  0  0  0  0  0  0  0  0
   -2.9347   -3.3656    0.3316 C   0  0  0  0  0  0  0  0  0  0  0  0
   -0.9739   -3.9257    1.9159 C   0  0  0  0  0  0  0  0  0  0  0  0
    0.0110   -3.4251    2.0302 H   0  0  0  0  0  0  0  0  0  0  0  0
   -1.7167   -3.7983    3.2496 C   0  0  0  0  0  0  0  0  0  0  0  0
   -1.1383   -4.2971    4.0519 H   0  0  0  0  0  0  0  0  0  0  0  0
   -2.7194   -4.2673    3.2112 H   0  0  0  0  0  0  0  0  0  0  0  0
   -1.8444   -2.7333    3.5246 H   0  0  0  0  0  0  0  0  0  0  0  0
   -0.7191   -5.3730    1.4840 C   0  0  0  0  0  0  0  0  0  0  0  0
   -0.1274   -5.8999    2.2581 H   0  0  0  0  0  0  0  0  0  0  0  0
   -0.1519   -5.4029    0.5334 H   0  0  0  0  0  0  0  0  0  0  0  0
   -1.6647   -5.9318    1.3387 H   0  0  0  0  0  0  0  0  0  0  0  0
    3.2392    0.0001   -0.5750 C   0  0  0  0  0  0  0  0  0  0  0  0
    4.4017    0.0004    1.2321 C   0  0  0  0  0  0  0  0  0  0  0  0
    4.8600    0.0007    2.5621 C   0  0  0  0  0  0  0  0  0  0  0  0
    4.1366    0.0009    3.3901 H   0  0  0  0  0  0  0  0  0  0  0  0
    6.2432    0.0006    2.7858 C   0  0  0  0  0  0  0  0  0  0  0  0
    6.6266    0.0008    3.8173 H   0  0  0  0  0  0  0  0  0  0  0  0
    7.1599    0.0003    1.7097 C   0  0  0  0  0  0  0  0  0  0  0  0
    8.2400    0.0002    1.9202 H   0  0  0  0  0  0  0  0  0  0  0  0
    6.7264    0.0001    0.3743 C   0  0  0  0  0  0  0  0  0  0  0  0
    7.4536   -0.0002   -0.4492 H   0  0  0  0  0  0  0  0  0  0  0  0
    5.3398    0.0001    0.1503 C   0  0  0  0  0  0  0  0  0  0  0  0
    4.9904   -0.0005   -2.4088 C   0  0  0  0  0  0  0  0  0  0  0  0
    4.0467   -0.0004   -2.9952 H   0  0  0  0  0  0  0  0  0  0  0  0
    5.7539    1.2820   -2.7557 C   0  0  0  0  0  0  0  0  0  0  0  0
    5.9907    1.3027   -3.8378 H   0  0  0  0  0  0  0  0  0  0  0  0
    6.7074    1.3554   -2.1964 H   0  0  0  0  0  0  0  0  0  0  0  0
    5.1449    2.1752   -2.5157 H   0  0  0  0  0  0  0  0  0  0  0  0
    5.7535   -1.2834   -2.7550 C   0  0  0  0  0  0  0  0  0  0  0  0
    5.9903   -1.3046   -3.8371 H   0  0  0  0  0  0  0  0  0  0  0  0
    5.1441   -2.1763   -2.5147 H   0  0  0  0  0  0  0  0  0  0  0  0
    6.7069   -1.3568   -2.1957 H   0  0  0  0  0  0  0  0  0  0  0  0
  2  4  1  6  0  0  0
  2  1  1  0  0  0  0
  2  3  1  0  0  0  0
  4 53  1  0  0  0  0
  5 12  1  0  0  0  0
  5 11  1  0  0  0  0
  6 22  1  0  0  0  0
  7 33  1  0  0  0  0
  7 32  1  0  0  0  0
  8 43  1  0  0  0  0
  9 54  1  0  0  0  0
 10 53  1  0  0  0  0
 10 63  1  0  0  0  0
 11  1  1  1  0  0  0
 11  6  1  0  0  0  0
 12 21  1  0  0  0  0
 13 15  1  0  0  0  0
 13 12  2  0  0  0  0
 14 13  1  0  0  0  0
 15 17  2  0  0  0  0
 16 15  1  0  0  0  0
 17 18  1  0  0  0  0
 17 19  1  0  0  0  0
 19 20  1  0  0  0  0
 21 19  2  0  0  0  0
 21  6  1  0  0  0  0
 22 23  1  0  0  0  0
 22 28  1  0  0  0  0
 24 22  1  0  0  0  0
 24 25  1  0  0  0  0
 26 24  1  0  0  0  0
 27 24  1  0  0  0  0
 28 30  1  0  0  0  0
 28 29  1  0  0  0  0
 31 28  1  0  0  0  0
 32  3  1  1  0  0  0
 32  8  1  0  0  0  0
 33 42  1  0  0  0  0
 34 36  1  0  0  0  0
 34 33  2  0  0  0  0
 35 34  1  0  0  0  0
 36 38  2  0  0  0  0
 37 36  1  0  0  0  0
 38 39  1  0  0  0  0
 38 40  1  0  0  0  0
 40 41  1  0  0  0  0
 42 40  2  0  0  0  0
 42  8  1  0  0  0  0
 43 44  1  0  0  0  0
 43 45  1  0  0  0  0
 45 48  1  0  0  0  0
 45 46  1  0  0  0  0
 47 45  1  0  0  0  0
 49 43  1  0  0  0  0
 49 50  1  0  0  0  0
 51 49  1  0  0  0  0
 52 49  1  0  0  0  0
 53  9  2  0  0  0  0
 54 55  1  0  0  0  0
 55 57  2  0  0  0  0
 55 56  1  0  0  0  0
 57 58  1  0  0  0  0
 59 60  1  0  0  0  0
 59 57  1  0  0  0  0
 61 59  2  0  0  0  0
 62 61  1  0  0  0  0
 63 61  1  0  0  0  0
 63 54  2  0  0  0  0
 64 10  1  0  0  0  0
 65 64  1  0  0  0  0
 66 69  1  0  0  0  0
 66 64  1  0  0  0  0
 66 68  1  0  0  0  0
 67 66  1  0  0  0  0
 70 72  1  0  0  0  0
 70 64  1  0  0  0  0
 70 73  1  0  0  0  0
 71 70  1  0  0  0  0
M  END
