4,5,6
q = -1.0, confidence = 0.04

 39 40  0  0  0  0  0  0  0  0999 V2000
   -6.1359   -0.5947    0.6894 Cl  0  0  0  0  0  0  0  0  0  0  0  0
    4.0752    0.2943   -1.7896 Cl  0  0  0  0  0  0  0  0  0  0  0  0
    0.9532    2.4099    2.1783 Cl  0  0  0  0  0  0  0  0  0  0  0  0
   -2.2282    1.4857    0.1209 N   0  0  0  0  0  2  0  0  0  0  0  0
    0.4175    1.6144   -0.9798 N   0  0  0  0  0  2  0  0  0  0  0  0
   -2.1691   -1.0764   -0.1330 C   0  0  0  0  0  2  0  0  0  0  0  0
   -2.1049   -2.4595   -0.3468 C   0  0  0  0  0  0  0  0  0  0  0  0
   -1.1570   -2.9580   -0.5965 H   0  0  0  0  0  0  0  0  0  0  0  0
   -3.2677   -3.2524   -0.2389 C   0  0  0  0  0  0  0  0  0  0  0  0
   -3.1986   -4.3383   -0.4077 H   0  0  0  0  0  0  0  0  0  0  0  0
   -4.5118   -2.6940    0.0853 C   0  0  0  0  0  0  0  0  0  0  0  0
   -5.4127   -3.3164    0.1720 H   0  0  0  0  0  0  0  0  0  0  0  0
   -4.5977   -1.3098    0.2973 C   0  0  0  0  0  0  0  0  0  0  0  0
   -3.4411   -0.5047    0.1848 C   0  0  0  0  0  0  0  0  0  0  0  0
   -3.3892    0.9227    0.3445 C   0  0  0  0  0  0  0  0  0  0  0  0
   -4.2677    1.5220    0.6470 H   0  0  0  0  0  0  0  0  0  0  0  0
   -2.1087    2.9335    0.2927 C   0  0  0  0  0  0  0  0  0  0  0  0
   -1.1861    3.1394    0.8718 H   0  0  0  0  0  0  0  0  0  0  0  0
   -2.9677    3.2879    0.9008 H   0  0  0  0  0  0  0  0  0  0  0  0
   -2.0767    3.7041   -1.0348 C   0  0  0  0  0  0  0  0  0  0  0  0
   -2.3412    4.7588   -0.8139 H   0  0  0  0  0  0  0  0  0  0  0  0
   -2.8870    3.3158   -1.6891 H   0  0  0  0  0  0  0  0  0  0  0  0
   -0.7436    3.6931   -1.7821 C   0  0  0  0  0  0  0  0  0  0  0  0
   -0.8678    4.2499   -2.7339 H   0  0  0  0  0  0  0  0  0  0  0  0
    0.0269    4.2459   -1.2017 H   0  0  0  0  0  0  0  0  0  0  0  0
   -0.1798    2.3119   -2.1388 C   0  0  0  0  0  0  0  0  0  0  0  0
    0.5973    2.4273   -2.9251 H   0  0  0  0  0  0  0  0  0  0  0  0
   -0.9823    1.6689   -2.5548 H   0  0  0  0  0  0  0  0  0  0  0  0
    1.6931    1.7865   -0.8260 C   0  0  0  0  0  3  0  0  0  0  0  0
    2.2472    2.3600   -1.5999 H   0  0  0  0  0  0  0  0  0  0  0  0
    2.5271    1.2347    0.2540 C   0  0  0  0  0  0  0  0  0  0  0  0
    3.7074    0.5291   -0.0990 C   0  0  0  0  0  0  0  0  0  0  0  0
    4.5765   -0.0032    0.8602 C   0  0  0  0  0  0  0  0  0  0  0  0
    5.4714   -0.5522    0.5371 H   0  0  0  0  0  0  0  0  0  0  0  0
    4.2871    0.1861    2.2184 C   0  0  0  0  0  0  0  0  0  0  0  0
    4.9654   -0.2210    2.9826 H   0  0  0  0  0  0  0  0  0  0  0  0
    3.1550    0.9114    2.6128 C   0  0  0  0  0  0  0  0  0  0  0  0
    2.9400    1.0969    3.6739 H   0  0  0  0  0  0  0  0  0  0  0  0
    2.2945    1.4340    1.6370 C   0  0  0  0  0  0  0  0  0  0  0  0
  2 32  1  0  0  0  0
  4 17  1  0  0  0  0
  4 15  1  0  0  0  0
  5 29  1  0  0  0  0
  6 14  1  0  0  0  0
  7  9  2  0  0  0  0
  7  6  1  0  0  0  0
  8  7  1  0  0  0  0
  9 11  1  0  0  0  0
 10  9  1  0  0  0  0
 11 12  1  0  0  0  0
 11 13  2  0  0  0  0
 13  1  1  0  0  0  0
 14 13  1  0  0  0  0
 14 15  2  0  0  0  0
 15 16  1  0  0  0  0
 17 18  1  0  0  0  0
 17 19  1  0  0  0  0
 20 21  1  0  0  0  0
 20 17  1  0  0  0  0
 22 20  1  0  0  0  0
 23 25  1  0  0  0  0
 23 20  1  0  0  0  0
 24 23  1  0  0  0  0
 26 23  1  0  0  0  0
 26  5  1  0  0  0  0
 27 26  1  0  0  0  0
 28 26  1  0  0  0  0
 29 31  1  0  0  0  0
 30 29  1  0  0  0  0
 31 39  1  0  0  0  0
 32 31  2  0  0  0  0
 32 33  1  0  0  0  0
 33 35  2  0  0  0  0
 34 33  1  0  0  0  0
 35 37  1  0  0  0  0
 35 36  1  0  0  0  0
 37 38  1  0  0  0  0
 39  3  1  0  0  0  0
 39 37  2  0  0  0  0
M  END
