1,2,3
q = 0.0, confidence = 0.972

 30 31  0  0  0  0  0  0  0  0999 V2000
    0.4721   -1.5823    1.6749 N   0  0  0  0  0  2  0  0  0  0  0  0
    2.1706   -1.1631   -0.2269 N   0  0  0  0  0  2  0  0  0  0  0  0
   -1.8826   -1.5619   -0.0287 C   0  0  0  0  0  2  0  0  0  0  0  0
   -2.9708   -1.3126   -0.8324 N   0  0  0  0  0  0  0  0  0  0  0  0
   -2.4251   -2.2229    1.0566 N   0  0  0  0  0  0  0  0  0  0  0  0
    1.7446   -1.6756    2.0345 C   0  0  0  0  0  0  0  0  0  0  0  0
    2.0369   -1.9134    3.0709 H   0  0  0  0  0  0  0  0  0  0  0  0
   -0.5640   -1.8129    2.6689 C   0  0  0  0  0  0  0  0  0  0  0  0
   -1.0321   -0.8368    2.9255 H   0  0  0  0  0  0  0  0  0  0  0  0
   -0.1339   -2.2338    3.6045 H   0  0  0  0  0  0  0  0  0  0  0  0
    2.7210   -1.4518    1.0026 C   0  0  0  0  0  0  0  0  0  0  0  0
    4.9554   -1.2707    0.0868 C   0  0  0  0  0  0  0  0  0  0  0  0
    6.0488   -1.3054    0.2029 H   0  0  0  0  0  0  0  0  0  0  0  0
    2.9842   -0.9710   -1.2863 C   0  0  0  0  0  0  0  0  0  0  0  0
    2.4678   -0.7969   -2.2426 H   0  0  0  0  0  0  0  0  0  0  0  0
    4.3764   -1.0101   -1.1724 C   0  0  0  0  0  0  0  0  0  0  0  0
    4.9984   -0.8462   -2.0634 H   0  0  0  0  0  0  0  0  0  0  0  0
    4.1206   -1.5025    1.1812 C   0  0  0  0  0  0  0  0  0  0  0  0
    4.5296   -1.7285    2.1768 H   0  0  0  0  0  0  0  0  0  0  0  0
   -2.9128   -0.6076   -2.1059 C   0  0  0  0  0  0  0  0  0  0  0  0
   -3.2171    0.4509   -1.9769 H   0  0  0  0  0  0  0  0  0  0  0  0
   -3.5935   -1.1013   -2.8252 H   0  0  0  0  0  0  0  0  0  0  0  0
   -1.8715   -0.6769   -2.4810 H   0  0  0  0  0  0  0  0  0  0  0  0
   -1.6215   -2.7832    2.1347 C   0  0  0  0  0  0  0  0  0  0  0  0
   -1.1153   -3.7034    1.7734 H   0  0  0  0  0  0  0  0  0  0  0  0
   -2.3090   -3.0628    2.9567 H   0  0  0  0  0  0  0  0  0  0  0  0
   -3.8027   -2.3605    0.9361 C   0  0  0  0  0  0  0  0  0  0  0  0
   -4.4119   -2.8736    1.6861 H   0  0  0  0  0  0  0  0  0  0  0  0
   -4.1444   -1.7796   -0.2564 C   0  0  0  0  0  0  0  0  0  0  0  0
   -5.1172   -1.6653   -0.7431 H   0  0  0  0  0  0  0  0  0  0  0  0
  1  6  1  0  0  0  0
  1  8  1  0  0  0  0
  2 11  1  0  0  0  0
  3  5  1  0  0  0  0
  4 29  1  0  0  0  0
  4  3  1  0  0  0  0
  5 24  1  0  0  0  0
  6  7  1  0  0  0  0
  8  9  1  0  0  0  0
  8 10  1  0  0  0  0
 11 18  1  0  0  0  0
 11  6  2  0  0  0  0
 12 13  1  0  0  0  0
 12 18  2  0  0  0  0
 14 16  2  0  0  0  0
 14  2  1  0  0  0  0
 15 14  1  0  0  0  0
 16 12  1  0  0  0  0
 17 16  1  0  0  0  0
 18 19  1  0  0  0  0
 20 21  1  0  0  0  0
 20  4  1  0  0  0  0
 22 20  1  0  0  0  0
 23 20  1  0  0  0  0
 24  8  1  0  0  0  0
 24 26  1  0  0  0  0
 25 24  1  0  0  0  0
 27  5  1  0  0  0  0
 27 28  1  0  0  0  0
 29 27  2  0  0  0  0
 30 29  1  0  0  0  0
M  END
