1,3,5
q = -2.0, confidence = 0.506

 36 38  0  0  0  0  0  0  0  0999 V2000
    0.0413   -1.1661   -0.2194 N   0  0  0  0  0  2  0  0  0  0  0  0
   -1.2487   -1.2038   -0.0999 N   0  0  0  0  0  2  0  0  0  0  0  0
   -0.4870    1.7083   -0.2744 N   0  0  0  0  0  2  0  0  0  0  0  0
    0.0811   -3.4976   -0.5086 O   0  0  0  0  0  0  0  0  0  0  0  0
    2.6535   -0.9880    0.0219 C   0  0  0  0  0  3  0  0  0  0  0  0
    4.0427   -0.8289    0.1692 C   0  0  0  0  0  0  0  0  0  0  0  0
    4.8999   -1.9439    0.0975 C   0  0  0  0  0  0  0  0  0  0  0  0
    4.3877   -3.2339   -0.1260 C   0  0  0  0  0  0  0  0  0  0  0  0
    3.0062   -3.4079   -0.2773 C   0  0  0  0  0  0  0  0  0  0  0  0
    2.1550   -2.2919   -0.2004 C   0  0  0  0  0  0  0  0  0  0  0  0
    0.6853   -2.4543   -0.3327 C   0  0  0  0  0  0  0  0  0  0  0  0
   -2.0823   -0.1831   -0.0602 C   0  0  0  0  0  0  0  0  0  0  0  0
   -3.4952   -0.5856    0.2126 C   0  0  0  0  0  0  0  0  0  0  0  0
   -3.9759   -1.8192   -0.2834 C   0  0  0  0  0  0  0  0  0  0  0  0
   -5.2779   -2.2470    0.0017 C   0  0  0  0  0  0  0  0  0  0  0  0
   -6.1284   -1.4592    0.7963 C   0  0  0  0  0  0  0  0  0  0  0  0
   -5.6556   -0.2442    1.3158 C   0  0  0  0  0  0  0  0  0  0  0  0
   -4.3515    0.1867    1.0307 C   0  0  0  0  0  0  0  0  0  0  0  0
   -1.7657    1.2259   -0.3515 C   0  0  0  0  0  0  0  0  0  0  0  0
   -2.8033    2.0882   -0.8107 C   0  0  0  0  0  0  0  0  0  0  0  0
   -2.5427    3.4169   -1.1263 C   0  0  0  0  0  0  0  0  0  0  0  0
   -1.2297    3.9021   -0.9879 C   0  0  0  0  0  0  0  0  0  0  0  0
   -0.2461    3.0050   -0.5781 C   0  0  0  0  0  0  0  0  0  0  0  0
    4.4826    0.1655    0.3389 H   0  0  0  0  0  0  0  0  0  0  0  0
    5.9860   -1.8005    0.2169 H   0  0  0  0  0  0  0  0  0  0  0  0
    5.0675   -4.0976   -0.1812 H   0  0  0  0  0  0  0  0  0  0  0  0
    2.5551   -4.3971   -0.4539 H   0  0  0  0  0  0  0  0  0  0  0  0
   -3.2924   -2.4412   -0.8795 H   0  0  0  0  0  0  0  0  0  0  0  0
   -5.6340   -3.2079   -0.4007 H   0  0  0  0  0  0  0  0  0  0  0  0
   -7.1523   -1.7965    1.0183 H   0  0  0  0  0  0  0  0  0  0  0  0
   -6.3025    0.3698    1.9613 H   0  0  0  0  0  0  0  0  0  0  0  0
   -3.9843    1.1268    1.4706 H   0  0  0  0  0  0  0  0  0  0  0  0
   -3.8131    1.6770   -0.9310 H   0  0  0  0  0  0  0  0  0  0  0  0
   -3.3521    4.0693   -1.4873 H   0  0  0  0  0  0  0  0  0  0  0  0
   -0.9653    4.9446   -1.2131 H   0  0  0  0  0  0  0  0  0  0  0  0
    0.8011    3.3268   -0.4914 H   0  0  0  0  0  0  0  0  0  0  0  0
  1  2  1  0  0  0  0
  2 12  1  0  0  0  0
  4 11  2  0  0  0  0
  5  6  1  0  0  0  0
  6 24  1  0  0  0  0
  7  6  2  0  0  0  0
  7 25  1  0  0  0  0
  8  7  1  0  0  0  0
  9 10  1  0  0  0  0
  9  8  2  0  0  0  0
 10  5  2  0  0  0  0
 11  1  1  0  0  0  0
 11 10  1  0  0  0  0
 12 13  1  0  0  0  0
 13 18  1  0  0  0  0
 14 15  1  0  0  0  0
 14 13  2  0  0  0  0
 15 16  2  0  0  0  0
 16 30  1  0  0  0  0
 16 17  1  0  0  0  0
 17 31  1  0  0  0  0
 18 17  2  0  0  0  0
 18 32  1  0  0  0  0
 19  3  1  0  0  0  0
 19 12  2  0  0  0  0
 20 19  1  0  0  0  0
 21 22  1  0  0  0  0
 21 20  2  0  0  0  0
 22 23  2  0  0  0  0
 23 36  1  0  0  0  0
 23  3  1  0  0  0  0
 26  8  1  0  0  0  0
 27  9  1  0  0  0  0
 28 14  1  0  0  0  0
 29 15  1  0  0  0  0
 33 20  1  0  0  0  0
 34 21  1  0  0  0  0
 35 22  1  0  0  0  0
M  END
