1,3,4
q = -1.0, confidence = 0.002

 27 29  0  0  0  0  0  0  0  0999 V2000
    0.2723    1.1867   -0.0002 N   0  0  0  0  0  2  0  0  0  0  0  0
    2.5379    0.7429   -0.0002 N   0  0  0  0  0  0  0  0  0  0  0  0
    2.1843   -0.5824   -0.0008 N   0  0  0  0  0  2  0  0  0  0  0  0
   -1.8862   -0.2660    0.0002 C   0  0  0  0  0  2  0  0  0  0  0  0
   -3.0269   -1.0911    0.0007 C   0  0  0  0  0  0  0  0  0  0  0  0
   -2.8876   -2.1823    0.0007 H   0  0  0  0  0  0  0  0  0  0  0  0
   -4.3132   -0.5300    0.0010 C   0  0  0  0  0  0  0  0  0  0  0  0
   -5.1934   -1.1924    0.0012 H   0  0  0  0  0  0  0  0  0  0  0  0
   -4.4964    0.8674    0.0009 C   0  0  0  0  0  0  0  0  0  0  0  0
   -5.5109    1.2930    0.0011 H   0  0  0  0  0  0  0  0  0  0  0  0
   -3.3829    1.7123    0.0006 C   0  0  0  0  0  0  0  0  0  0  0  0
   -3.5247    2.8046    0.0005 H   0  0  0  0  0  0  0  0  0  0  0  0
   -2.0816    1.1640    0.0003 C   0  0  0  0  0  0  0  0  0  0  0  0
   -0.8616    1.9670   -0.0001 C   0  0  0  0  0  0  0  0  0  0  0  0
   -0.7056    3.3656   -0.0002 C   0  0  0  0  0  0  0  0  0  0  0  0
   -1.5939    4.0111   -0.0000 H   0  0  0  0  0  0  0  0  0  0  0  0
    0.5812    3.9225   -0.0006 C   0  0  0  0  0  0  0  0  0  0  0  0
    0.7047    5.0150   -0.0008 H   0  0  0  0  0  0  0  0  0  0  0  0
    1.7231    3.1011   -0.0007 C   0  0  0  0  0  0  0  0  0  0  0  0
    2.7342    3.5270   -0.0012 H   0  0  0  0  0  0  0  0  0  0  0  0
    1.5156    1.7172   -0.0004 C   0  0  0  0  0  0  0  0  0  0  0  0
    3.9038    0.8802    0.0015 C   0  0  0  0  0  3  0  0  0  0  0  0
    4.3802    1.8650    0.0024 H   0  0  0  0  0  0  0  0  0  0  0  0
    4.4404   -0.4008    0.0020 C   0  0  0  0  0  0  0  0  0  0  0  0
    5.5019   -0.6672    0.0032 H   0  0  0  0  0  0  0  0  0  0  0  0
    3.3252   -1.2782    0.0005 C   0  0  0  0  0  0  0  0  0  0  0  0
    3.2759   -2.3735    0.0002 H   0  0  0  0  0  0  0  0  0  0  0  0
  1 14  1  0  0  0  0
  2 22  1  0  0  0  0
  3  2  1  0  0  0  0
  3 26  1  0  0  0  0
  4 13  1  0  0  0  0
  4  5  1  0  0  0  0
  5  6  1  0  0  0  0
  5  7  2  0  0  0  0
  7  8  1  0  0  0  0
  9  7  1  0  0  0  0
  9 10  1  0  0  0  0
 11  9  2  0  0  0  0
 12 11  1  0  0  0  0
 13 11  1  0  0  0  0
 14 13  2  0  0  0  0
 15 14  1  0  0  0  0
 15 16  1  0  0  0  0
 17 15  2  0  0  0  0
 18 17  1  0  0  0  0
 19 17  1  0  0  0  0
 19 21  2  0  0  0  0
 20 19  1  0  0  0  0
 21  1  1  0  0  0  0
 21  2  1  0  0  0  0
 22 24  1  0  0  0  0
 22 23  1  0  0  0  0
 24 25  1  0  0  0  0
 26 24  2  0  0  0  0
 27 26  1  0  0  0  0
M  END
