1,2,3
q = -1.0, confidence = 0.002

 28 28  0  0  0  0  0  0  0  0999 V2000
    1.6698   -1.6288   -0.6065 N   0  0  0  0  0  2  0  0  0  0  0  0
    0.2594   -0.2104   -2.6390 N   0  0  0  0  0  0  0  0  0  0  0  0
    0.3318   -1.0353    1.6415 C   0  0  0  0  0  3  0  0  0  0  0  0
   -0.3735   -0.7597    2.8177 C   0  0  0  0  0  0  0  0  0  0  0  0
   -1.2202   -0.0614    2.8029 H   0  0  0  0  0  0  0  0  0  0  0  0
   -0.0119   -1.3939    4.0209 C   0  0  0  0  0  0  0  0  0  0  0  0
   -0.5803   -1.1650    4.9359 H   0  0  0  0  0  0  0  0  0  0  0  0
    1.0491   -2.3152    4.0739 C   0  0  0  0  0  0  0  0  0  0  0  0
    1.3156   -2.8004    5.0242 H   0  0  0  0  0  0  0  0  0  0  0  0
    1.7527   -2.6185    2.9051 C   0  0  0  0  0  0  0  0  0  0  0  0
    2.5758   -3.3504    2.9192 H   0  0  0  0  0  0  0  0  0  0  0  0
    1.4037   -1.9906    1.6887 C   0  0  0  0  0  0  0  0  0  0  0  0
    2.0697   -2.2896    0.4349 C   0  0  0  0  0  3  0  0  0  0  0  0
    2.8711   -3.0526    0.3706 H   0  0  0  0  0  0  0  0  0  0  0  0
    2.1405   -1.7407   -1.9672 C   0  0  0  0  0  0  0  0  0  0  0  0
    2.5947   -2.7342   -2.1746 H   0  0  0  0  0  0  0  0  0  0  0  0
    2.9314   -0.9739   -2.1285 H   0  0  0  0  0  0  0  0  0  0  0  0
    0.9524   -1.5034   -2.9043 C   0  0  0  0  0  0  0  0  0  0  0  0
    1.2864   -1.5427   -3.9674 H   0  0  0  0  0  0  0  0  0  0  0  0
    0.2084   -2.3060   -2.7295 H   0  0  0  0  0  0  0  0  0  0  0  0
   -1.0443   -0.2019   -3.3262 C   0  0  0  0  0  0  0  0  0  0  0  0
   -1.6516   -1.0480   -2.9513 H   0  0  0  0  0  0  0  0  0  0  0  0
   -0.9119   -0.2914   -4.4294 H   0  0  0  0  0  0  0  0  0  0  0  0
   -1.5684    0.7453   -3.1007 H   0  0  0  0  0  0  0  0  0  0  0  0
    1.0743    0.9180   -3.1171 C   0  0  0  0  0  0  0  0  0  0  0  0
    2.0321    0.9756   -2.5700 H   0  0  0  0  0  0  0  0  0  0  0  0
    0.5372    1.8659   -2.9413 H   0  0  0  0  0  0  0  0  0  0  0  0
    1.2753    0.8156   -4.2091 H   0  0  0  0  0  0  0  0  0  0  0  0
  1 13  1  0  0  0  0
  3 12  2  0  0  0  0
  3  4  1  0  0  0  0
  4  6  2  0  0  0  0
  5  4  1  0  0  0  0
  6  8  1  0  0  0  0
  6  7  1  0  0  0  0
  8  9  1  0  0  0  0
 10 11  1  0  0  0  0
 10  8  2  0  0  0  0
 12 10  1  0  0  0  0
 13 12  1  0  0  0  0
 14 13  1  0  0  0  0
 15  1  1  0  0  0  0
 16 15  1  0  0  0  0
 17 15  1  0  0  0  0
 18 20  1  0  0  0  0
 18  2  1  0  0  0  0
 18 15  1  0  0  0  0
 19 18  1  0  0  0  0
 21 24  1  0  0  0  0
 21 22  1  0  0  0  0
 21  2  1  0  0  0  0
 23 21  1  0  0  0  0
 25 27  1  0  0  0  0
 25  2  1  0  0  0  0
 25 26  1  0  0  0  0
 28 25  1  0  0  0  0
M  END
