10,21,29
q = 0.0, confidence = 0.992

 31 32  0  0  1  0  0  0  0  0999 V2000
   -5.3727    0.1162   -0.0704 N   0  0  0  0  0  0  0  0  0  0  0  0
   -5.1536   -1.1998    0.0677 C   0  0  0  0  0  0  0  0  0  0  0  0
   -6.0551   -1.8378    0.0942 H   0  0  0  0  0  0  0  0  0  0  0  0
   -3.9720   -1.8366    0.1820 N   0  0  0  0  0  2  0  0  0  0  0  0
   -2.9404   -0.9885    0.1376 C   0  0  0  0  0  0  0  0  0  0  0  0
   -3.0173    0.4084   -0.0126 C   0  0  0  0  0  0  0  0  0  0  0  0
   -4.3153    0.9595   -0.1173 C   0  0  1  0  0  3  0  0  0  0  0  0
   -1.7182    0.8806   -0.0140 N   0  0  0  0  0  0  0  0  0  0  0  0
   -1.3284    1.8576   -0.1211 H   0  0  0  0  0  0  0  0  0  0  0  0
   -0.8151   -0.1401    0.1228 C   0  0  0  0  0  2  0  0  0  0  0  0
   -1.5874   -1.2945    0.2229 N   0  0  0  0  0  0  0  0  0  0  0  0
   -4.5602    2.2906   -0.2875 N   0  0  0  0  0  0  0  0  0  0  0  0
   -3.8220    2.9799   -0.1693 H   0  0  0  0  0  0  0  0  0  0  0  0
   -5.5321    2.5930   -0.2400 H   0  0  0  0  0  0  0  0  0  0  0  0
   -1.0925   -2.6440    0.4181 C   0  0  0  0  0  0  0  0  0  0  0  0
   -1.9252   -3.3244    0.1521 H   0  0  0  0  0  0  0  0  0  0  0  0
   -0.8661   -2.8063    1.4962 H   0  0  0  0  0  0  0  0  0  0  0  0
    0.1405   -2.9529   -0.4189 C   0  0  0  0  0  0  0  0  0  0  0  0
    0.3406   -4.0480   -0.3684 H   0  0  0  0  0  0  0  0  0  0  0  0
   -0.0214   -2.6719   -1.4799 H   0  0  0  0  0  0  0  0  0  0  0  0
    1.3031   -2.1994    0.0762 N   0  0  0  0  0  0  0  0  0  0  0  0
    1.3784   -2.3081    1.1083 H   0  0  0  0  0  0  0  0  0  0  0  0
    2.5839   -2.5896   -0.5449 C   0  0  0  0  0  0  0  0  0  0  0  0
    2.4759   -2.4503   -1.6411 H   0  0  0  0  0  0  0  0  0  0  0  0
    2.8195   -3.6598   -0.3455 H   0  0  0  0  0  0  0  0  0  0  0  0
    3.6872   -1.6894   -0.0036 C   0  0  0  0  0  0  0  0  0  0  0  0
    3.7540   -1.8006    1.0989 H   0  0  0  0  0  0  0  0  0  0  0  0
    4.6667   -1.9819   -0.4423 H   0  0  0  0  0  0  0  0  0  0  0  0
    3.3314   -0.2841   -0.2809 N   0  0  0  0  0  0  0  0  0  0  0  0
    3.3923   -0.0831   -1.2947 H   0  0  0  0  0  0  0  0  0  0  0  0
    3.9552    0.3538    0.2287 H   0  0  0  0  0  0  0  0  0  0  0  0
  1  2  2  0  0  0  0
  2  3  1  0  0  0  0
  2  4  1  0  0  0  0
  5  4  1  0  0  0  0
  5 11  1  0  0  0  0
  6  5  2  0  0  0  0
  7 12  1  6  0  0  0
  7  1  1  0  0  0  0
  7  6  1  0  0  0  0
  8  6  1  0  0  0  0
  8 10  1  0  0  0  0
  9  8  1  0  0  0  0
 10 11  1  0  0  0  0
 11 15  1  0  0  0  0
 12 14  1  0  0  0  0
 12 13  1  0  0  0  0
 15 17  1  0  0  0  0
 16 15  1  0  0  0  0
 18 19  1  0  0  0  0
 18 21  1  0  0  0  0
 18 15  1  0  0  0  0
 20 18  1  0  0  0  0
 21 22  1  0  0  0  0
 23 25  1  0  0  0  0
 23 26  1  0  0  0  0
 23 21  1  0  0  0  0
 24 23  1  0  0  0  0
 26 27  1  0  0  0  0
 28 26  1  0  0  0  0
 29 26  1  0  0  0  0
 29 31  1  0  0  0  0
 30 29  1  0  0  0  0
M  END
