3,4,23
q = -1.0, confidence = 0.106

 59 63  0  0  1  0  0  0  0  0999 V2000
    1.7584    2.7895    1.8382 O   0  0  0  0  0  0  0  0  0  0  0  0
    0.5044   -3.2490   -1.8387 O   0  0  0  0  0  0  0  0  0  0  0  0
    0.0293    1.6491    0.9275 N   0  0  0  0  0  2  0  0  0  0  0  0
   -0.6285   -1.5054   -0.9478 N   0  0  0  0  0  2  0  0  0  0  0  0
    1.3297    1.7207    1.1544 C   0  0  1  0  0  3  0  0  0  0  0  0
    0.5479    3.4928    2.2659 C   0  0  0  0  0  0  0  0  0  0  0  0
    0.7125    4.5756    2.1177 H   0  0  0  0  0  0  0  0  0  0  0  0
    0.4046    3.2774    3.3449 H   0  0  0  0  0  0  0  0  0  0  0  0
   -0.5907    2.9082    1.3864 C   0  0  1  0  0  0  0  0  0  0  0  0
   -1.4941    2.6685    1.9793 H   0  0  0  0  0  0  0  0  0  0  0  0
   -0.9827    3.7854    0.2080 C   0  0  0  0  0  0  0  0  0  0  0  0
    0.0063    4.3130   -0.6467 C   0  0  0  0  0  0  0  0  0  0  0  0
    1.0694    4.0861   -0.4665 H   0  0  0  0  0  0  0  0  0  0  0  0
   -0.3509    5.1234   -1.7335 C   0  0  0  0  0  0  0  0  0  0  0  0
    0.4304    5.5276   -2.3951 H   0  0  0  0  0  0  0  0  0  0  0  0
   -1.7028    5.4154   -1.9777 C   0  0  0  0  0  0  0  0  0  0  0  0
   -1.9847    6.0500   -2.8317 H   0  0  0  0  0  0  0  0  0  0  0  0
   -2.6923    4.8891   -1.1333 C   0  0  0  0  0  0  0  0  0  0  0  0
   -3.7544    5.1037   -1.3261 H   0  0  0  0  0  0  0  0  0  0  0  0
   -2.3339    4.0748   -0.0485 C   0  0  0  0  0  0  0  0  0  0  0  0
   -3.1095    3.6288    0.5913 H   0  0  0  0  0  0  0  0  0  0  0  0
    2.1290    0.6379    0.6095 C   0  0  0  0  0  0  0  0  0  0  0  0
    1.2252   -0.2355   -0.0270 C   0  0  0  0  0  2  0  0  0  0  0  0
    1.7041   -1.3978   -0.6571 C   0  0  0  0  0  0  0  0  0  0  0  0
    3.0833   -1.6880   -0.6683 C   0  0  0  0  0  0  0  0  0  0  0  0
    3.4387   -2.5978   -1.1700 H   0  0  0  0  0  0  0  0  0  0  0  0
    3.9963   -0.8138   -0.0309 C   0  0  0  0  0  0  0  0  0  0  0  0
    3.5047    0.3527    0.6142 C   0  0  0  0  0  0  0  0  0  0  0  0
    4.2007    1.0401    1.1184 H   0  0  0  0  0  0  0  0  0  0  0  0
    5.5129   -1.0893   -0.0120 C   0  0  0  0  0  0  0  0  0  0  0  0
    6.2525    0.0827   -0.6969 C   0  0  0  0  0  0  0  0  0  0  0  0
    5.9275    0.1935   -1.7511 H   0  0  0  0  0  0  0  0  0  0  0  0
    7.3482   -0.0933   -0.6899 H   0  0  0  0  0  0  0  0  0  0  0  0
    6.0644    1.0464   -0.1833 H   0  0  0  0  0  0  0  0  0  0  0  0
    5.8772   -2.3879   -0.7521 C   0  0  0  0  0  0  0  0  0  0  0  0
    5.3977   -3.2749   -0.2913 H   0  0  0  0  0  0  0  0  0  0  0  0
    6.9737   -2.5453   -0.7140 H   0  0  0  0  0  0  0  0  0  0  0  0
    5.5833   -2.3511   -1.8204 H   0  0  0  0  0  0  0  0  0  0  0  0
    5.9901   -1.2161    1.4529 C   0  0  0  0  0  0  0  0  0  0  0  0
    5.4740   -2.0526    1.9661 H   0  0  0  0  0  0  0  0  0  0  0  0
    5.7936   -0.2926    2.0328 H   0  0  0  0  0  0  0  0  0  0  0  0
    7.0822   -1.4097    1.4895 H   0  0  0  0  0  0  0  0  0  0  0  0
    0.5379   -2.0864   -1.1794 C   0  0  0  0  0  0  0  0  0  0  0  0
   -0.8897   -3.4429   -2.2319 C   0  0  0  0  0  0  0  0  0  0  0  0
   -1.1619   -4.4930   -2.0186 H   0  0  0  0  0  0  0  0  0  0  0  0
   -0.9570   -3.2492   -3.3224 H   0  0  0  0  0  0  0  0  0  0  0  0
   -1.6969   -2.4080   -1.3892 C   0  0  1  0  0  0  0  0  0  0  0  0
   -2.4176   -1.8478   -2.0174 H   0  0  0  0  0  0  0  0  0  0  0  0
   -2.4507   -3.0352   -0.2277 C   0  0  0  0  0  0  0  0  0  0  0  0
   -3.7827   -3.4493   -0.4102 C   0  0  0  0  0  0  0  0  0  0  0  0
   -4.2871   -3.2476   -1.3686 H   0  0  0  0  0  0  0  0  0  0  0  0
   -4.4765   -4.0946    0.6230 C   0  0  0  0  0  0  0  0  0  0  0  0
   -5.5211   -4.4058    0.4698 H   0  0  0  0  0  0  0  0  0  0  0  0
   -3.8453   -4.3273    1.8553 C   0  0  0  0  0  0  0  0  0  0  0  0
   -4.3911   -4.8264    2.6704 H   0  0  0  0  0  0  0  0  0  0  0  0
   -2.5198   -3.9076    2.0467 C   0  0  0  0  0  0  0  0  0  0  0  0
   -2.0233   -4.0729    3.0152 H   0  0  0  0  0  0  0  0  0  0  0  0
   -1.8257   -3.2651    1.0111 C   0  0  0  0  0  0  0  0  0  0  0  0
   -0.7972   -2.9100    1.1750 H   0  0  0  0  0  0  0  0  0  0  0  0
  1  6  1  0  0  0  0
  2 43  1  0  0  0  0
  3  5  1  0  0  0  0
  3  9  1  0  0  0  0
  5 22  1  6  0  0  0
  5  1  1  0  0  0  0
  6  8  1  0  0  0  0
  7  6  1  0  0  0  0
  9 10  1  1  0  0  0
  9  6  1  0  0  0  0
 11  9  1  0  0  0  0
 12 13  1  0  0  0  0
 12 11  2  0  0  0  0
 14 12  1  0  0  0  0
 15 14  1  0  0  0  0
 16 14  2  0  0  0  0
 16 18  1  0  0  0  0
 17 16  1  0  0  0  0
 18 20  2  0  0  0  0
 19 18  1  0  0  0  0
 20 11  1  0  0  0  0
 20 21  1  0  0  0  0
 22 28  2  0  0  0  0
 23 22  1  0  0  0  0
 24 23  1  0  0  0  0
 25 24  1  0  0  0  0
 25 27  2  0  0  0  0
 26 25  1  0  0  0  0
 27 30  1  0  0  0  0
 27 28  1  0  0  0  0
 28 29  1  0  0  0  0
 30 39  1  0  0  0  0
 31 33  1  0  0  0  0
 31 34  1  0  0  0  0
 31 30  1  0  0  0  0
 32 31  1  0  0  0  0
 35 37  1  0  0  0  0
 35 36  1  0  0  0  0
 35 30  1  0  0  0  0
 38 35  1  0  0  0  0
 39 42  1  0  0  0  0
 39 40  1  0  0  0  0
 39 41  1  0  0  0  0
 43  4  1  0  0  0  0
 43 24  2  0  0  0  0
 44 45  1  0  0  0  0
 44  2  1  0  0  0  0
 44 47  1  0  0  0  0
 46 44  1  0  0  0  0
 47 48  1  6  0  0  0
 47  4  1  0  0  0  0
 47 49  1  0  0  0  0
 49 58  1  0  0  0  0
 50 49  2  0  0  0  0
 50 52  1  0  0  0  0
 51 50  1  0  0  0  0
 52 54  2  0  0  0  0
 53 52  1  0  0  0  0
 54 56  1  0  0  0  0
 54 55  1  0  0  0  0
 56 57  1  0  0  0  0
 58 59  1  0  0  0  0
 58 56  2  0  0  0  0
M  END
