1,2,22
q = -1.0, confidence = 0.072

 61 66  0  0  1  0  0  0  0  0999 V2000
    2.6097   -0.5912   -0.9833 N   0  0  0  0  0  2  0  0  0  0  0  0
   -0.8136    0.6887    0.5982 N   0  0  0  0  0  2  0  0  0  0  0  0
   -2.8566   -0.0970    1.1262 N   0  0  0  0  0  0  0  0  0  0  0  0
    3.3287   -2.4762   -1.9971 O   0  0  0  0  0  0  0  0  0  0  0  0
    5.1086    0.7419    0.8694 C   0  0  0  0  0  0  0  0  0  0  0  0
    4.8140    1.7120    0.4420 H   0  0  0  0  0  0  0  0  0  0  0  0
    5.7461    0.6821    2.1174 C   0  0  0  0  0  0  0  0  0  0  0  0
    5.9911    1.6150    2.6473 H   0  0  0  0  0  0  0  0  0  0  0  0
    6.0574   -0.5587    2.6941 C   0  0  0  0  0  0  0  0  0  0  0  0
    6.5570   -0.6040    3.6739 H   0  0  0  0  0  0  0  0  0  0  0  0
    5.7194   -1.7440    2.0214 C   0  0  0  0  0  0  0  0  0  0  0  0
    5.9498   -2.7213    2.4722 H   0  0  0  0  0  0  0  0  0  0  0  0
    5.0830   -1.6853    0.7733 C   0  0  0  0  0  0  0  0  0  0  0  0
    4.8097   -2.6224    0.2627 H   0  0  0  0  0  0  0  0  0  0  0  0
    4.7819   -0.4412    0.1824 C   0  0  0  0  0  0  0  0  0  0  0  0
    4.0632   -0.3659   -1.1569 C   0  0  1  0  0  0  0  0  0  0  0  0
    4.2179    0.6356   -1.6020 H   0  0  0  0  0  0  0  0  0  0  0  0
    4.4050   -1.4983   -2.1537 C   0  0  0  0  0  0  0  0  0  0  0  0
    4.3844   -1.1497   -3.2069 H   0  0  0  0  0  0  0  0  0  0  0  0
    5.3636   -2.0068   -1.9464 H   0  0  0  0  0  0  0  0  0  0  0  0
    2.3232   -1.8144   -1.4035 C   0  0  1  0  0  3  0  0  0  0  0  0
    0.2121   -1.3145   -0.5358 C   0  0  0  0  0  2  0  0  0  0  0  0
    0.9845   -2.3247   -1.1673 C   0  0  0  0  0  0  0  0  0  0  0  0
    0.4134   -3.5856   -1.4227 C   0  0  0  0  0  0  0  0  0  0  0  0
    0.9960   -4.3783   -1.9158 H   0  0  0  0  0  0  0  0  0  0  0  0
   -0.9137   -3.8210   -1.0139 C   0  0  0  0  0  0  0  0  0  0  0  0
   -1.3618   -4.8097   -1.1913 H   0  0  0  0  0  0  0  0  0  0  0  0
   -1.6879   -2.8286   -0.3765 C   0  0  0  0  0  0  0  0  0  0  0  0
   -2.7143   -3.0657   -0.0628 H   0  0  0  0  0  0  0  0  0  0  0  0
   -1.1352   -1.5494   -0.1504 C   0  0  0  0  0  0  0  0  0  0  0  0
   -1.6582   -0.3446    0.4981 C   0  0  0  0  0  0  0  0  0  0  0  0
   -2.7008    1.1477    1.9093 C   0  0  0  0  0  0  0  0  0  0  0  0
   -2.4402    0.9051    2.9626 H   0  0  0  0  0  0  0  0  0  0  0  0
   -3.6379    1.7338    1.8981 H   0  0  0  0  0  0  0  0  0  0  0  0
   -1.5284    1.8482    1.1907 C   0  0  2  0  0  0  0  0  0  0  0  0
   -0.8447    2.3504    1.9004 H   0  0  0  0  0  0  0  0  0  0  0  0
   -1.9299    2.8263    0.0908 C   0  0  0  0  0  0  0  0  0  0  0  0
   -1.0098    3.8118   -0.3174 C   0  0  0  0  0  0  0  0  0  0  0  0
   -0.0156    3.8487    0.1576 H   0  0  0  0  0  0  0  0  0  0  0  0
   -1.3344    4.6974   -1.3552 C   0  0  0  0  0  0  0  0  0  0  0  0
   -0.6036    5.4606   -1.6638 H   0  0  0  0  0  0  0  0  0  0  0  0
   -2.5771    4.6089   -2.0018 C   0  0  0  0  0  0  0  0  0  0  0  0
   -2.8306    5.3057   -2.8154 H   0  0  0  0  0  0  0  0  0  0  0  0
   -3.4938    3.6216   -1.6087 C   0  0  0  0  0  0  0  0  0  0  0  0
   -4.4689    3.5389   -2.1128 H   0  0  0  0  0  0  0  0  0  0  0  0
   -3.1718    2.7342   -0.5705 C   0  0  0  0  0  0  0  0  0  0  0  0
   -3.9049    1.9634   -0.2871 H   0  0  0  0  0  0  0  0  0  0  0  0
   -4.0985   -0.7214    0.9073 C   0  0  0  0  0  0  0  0  0  0  0  0
   -4.4716   -1.1707   -0.3789 C   0  0  0  0  0  0  0  0  0  0  0  0
   -3.7851   -1.0232   -1.2248 H   0  0  0  0  0  0  0  0  0  0  0  0
   -5.7169   -1.7764   -0.5766 C   0  0  0  0  0  0  0  0  0  0  0  0
   -5.9884   -2.1195   -1.5877 H   0  0  0  0  0  0  0  0  0  0  0  0
   -6.6431   -1.9268    0.4774 C   0  0  0  0  0  0  0  0  0  0  0  0
   -6.2708   -1.4381    1.7460 C   0  0  0  0  0  0  0  0  0  0  0  0
   -6.9759   -1.5283    2.5873 H   0  0  0  0  0  0  0  0  0  0  0  0
   -5.0196   -0.8495    1.9677 C   0  0  0  0  0  0  0  0  0  0  0  0
   -4.7487   -0.4936    2.9724 H   0  0  0  0  0  0  0  0  0  0  0  0
   -7.9745   -2.5967    0.2524 C   0  0  0  0  0  0  0  0  0  0  0  0
   -8.4071   -2.3241   -0.7312 H   0  0  0  0  0  0  0  0  0  0  0  0
   -8.7070   -2.3260    1.0376 H   0  0  0  0  0  0  0  0  0  0  0  0
   -7.8732   -3.7036    0.2641 H   0  0  0  0  0  0  0  0  0  0  0  0
  2 35  1  0  0  0  0
  3 32  1  0  0  0  0
  4 21  1  0  0  0  0
  5  7  1  0  0  0  0
  6  5  1  0  0  0  0
  7  8  1  0  0  0  0
  7  9  2  0  0  0  0
  9 10  1  0  0  0  0
 11 12  1  0  0  0  0
 11  9  1  0  0  0  0
 13 11  2  0  0  0  0
 14 13  1  0  0  0  0
 15 13  1  0  0  0  0
 15  5  2  0  0  0  0
 16 17  1  6  0  0  0
 16  1  1  0  0  0  0
 16 15  1  0  0  0  0
 18  4  1  0  0  0  0
 18 20  1  0  0  0  0
 18 16  1  0  0  0  0
 19 18  1  0  0  0  0
 21 23  1  1  0  0  0
 21  1  1  0  0  0  0
 22 30  1  0  0  0  0
 23 22  1  0  0  0  0
 24 23  2  0  0  0  0
 24 26  1  0  0  0  0
 25 24  1  0  0  0  0
 26 28  2  0  0  0  0
 27 26  1  0  0  0  0
 28 30  1  0  0  0  0
 28 29  1  0  0  0  0
 30 31  2  0  0  0  0
 31  2  1  0  0  0  0
 31  3  1  0  0  0  0
 32 33  1  0  0  0  0
 34 32  1  0  0  0  0
 35 36  1  1  0  0  0
 35 32  1  0  0  0  0
 37 35  1  0  0  0  0
 38 37  1  0  0  0  0
 38 39  1  0  0  0  0
 40 38  2  0  0  0  0
 41 40  1  0  0  0  0
 42 44  2  0  0  0  0
 42 40  1  0  0  0  0
 43 42  1  0  0  0  0
 44 46  1  0  0  0  0
 45 44  1  0  0  0  0
 46 47  1  0  0  0  0
 46 37  2  0  0  0  0
 48  3  1  0  0  0  0
 48 56  1  0  0  0  0
 49 48  2  0  0  0  0
 50 49  1  0  0  0  0
 51 49  1  0  0  0  0
 51 53  2  0  0  0  0
 52 51  1  0  0  0  0
 53 54  1  0  0  0  0
 54 56  2  0  0  0  0
 54 55  1  0  0  0  0
 56 57  1  0  0  0  0
 58 61  1  0  0  0  0
 58 53  1  0  0  0  0
 58 60  1  0  0  0  0
 59 58  1  0  0  0  0
M  END
