1,2,23
q = -2.0, confidence = 0.928

 70 72  0  0  1  0  0  0  0  0999 V2000
    0.2283    0.1977    0.7499 N   0  0  0  0  0  2  0  0  0  0  0  0
   -2.2516   -0.3481    1.2945 N   0  0  0  0  0  2  0  0  0  0  0  0
    0.0075   -0.2824    2.0980 C   0  0  0  0  0  0  0  0  0  0  0  0
    0.4207    0.4099    2.8750 H   0  0  0  0  0  0  0  0  0  0  0  0
    0.5340   -1.2532    2.2890 H   0  0  0  0  0  0  0  0  0  0  0  0
   -1.4536   -0.5052    2.3678 C   0  0  2  0  0  3  0  0  0  0  0  0
   -1.9750   -0.9068    3.6100 C   0  0  0  0  0  0  0  0  0  0  0  0
   -1.3091   -1.0201    4.4774 H   0  0  0  0  0  0  0  0  0  0  0  0
   -3.3481   -1.1675    3.6995 C   0  0  0  0  0  0  0  0  0  0  0  0
   -3.7893   -1.4837    4.6570 H   0  0  0  0  0  0  0  0  0  0  0  0
   -4.1604   -1.0457    2.5622 C   0  0  0  0  0  0  0  0  0  0  0  0
   -5.2334   -1.2721    2.6172 H   0  0  0  0  0  0  0  0  0  0  0  0
   -3.5851   -0.6386    1.3448 C   0  0  0  0  0  0  0  0  0  0  0  0
   -4.2765   -0.5152    0.0455 C   0  0  0  0  0  0  0  0  0  0  0  0
   -5.6453   -0.8135   -0.1226 C   0  0  0  0  0  0  0  0  0  0  0  0
   -6.2672   -1.1300    0.7295 H   0  0  0  0  0  0  0  0  0  0  0  0
   -6.2265   -0.7114   -1.3940 C   0  0  0  0  0  0  0  0  0  0  0  0
   -7.2926   -0.9488   -1.5304 H   0  0  0  0  0  0  0  0  0  0  0  0
   -5.4462   -0.3085   -2.4907 C   0  0  0  0  0  0  0  0  0  0  0  0
   -5.9033   -0.2351   -3.4904 H   0  0  0  0  0  0  0  0  0  0  0  0
   -4.0850    0.0016   -2.3084 C   0  0  0  0  0  0  0  0  0  0  0  0
   -3.4983    0.3248   -3.1863 H   0  0  0  0  0  0  0  0  0  0  0  0
   -3.4626   -0.0952   -1.0462 C   0  0  0  0  0  3  0  0  0  0  0  0
    1.5996    0.0376    0.3518 C   0  0  0  0  0  0  0  0  0  0  0  0
    2.5327    1.1284    0.4538 C   0  0  0  0  0  0  0  0  0  0  0  0
    3.8986    0.8761    0.2201 C   0  0  0  0  0  0  0  0  0  0  0  0
    4.6050    1.7051    0.3137 H   0  0  0  0  0  0  0  0  0  0  0  0
    4.4000   -0.3860   -0.1209 C   0  0  0  0  0  0  0  0  0  0  0  0
    3.4622   -1.4120   -0.2771 C   0  0  0  0  0  0  0  0  0  0  0  0
    3.8309   -2.4042   -0.5723 H   0  0  0  0  0  0  0  0  0  0  0  0
    2.0771   -1.2498   -0.0766 C   0  0  0  0  0  0  0  0  0  0  0  0
    2.1214    2.6072    0.6970 C   0  0  0  0  0  0  0  0  0  0  0  0
    1.1782    2.8093    1.9037 C   0  0  0  0  0  0  0  0  0  0  0  0
    0.2061    2.3132    1.7524 H   0  0  0  0  0  0  0  0  0  0  0  0
    0.9934    3.8927    2.0549 H   0  0  0  0  0  0  0  0  0  0  0  0
    1.6422    2.4181    2.8322 H   0  0  0  0  0  0  0  0  0  0  0  0
    1.4632    3.1162   -0.6046 C   0  0  0  0  0  0  0  0  0  0  0  0
    2.1703    3.0393   -1.4545 H   0  0  0  0  0  0  0  0  0  0  0  0
    1.1414    4.1734   -0.5048 H   0  0  0  0  0  0  0  0  0  0  0  0
    0.5621    2.5324   -0.8722 H   0  0  0  0  0  0  0  0  0  0  0  0
    3.3407    3.5206    0.9610 C   0  0  0  0  0  0  0  0  0  0  0  0
    3.9200    3.1928    1.8479 H   0  0  0  0  0  0  0  0  0  0  0  0
    2.9809    4.5504    1.1570 H   0  0  0  0  0  0  0  0  0  0  0  0
    4.0305    3.5802    0.0964 H   0  0  0  0  0  0  0  0  0  0  0  0
    5.8968   -0.6662   -0.3413 C   0  0  0  0  0  0  0  0  0  0  0  0
    6.7606    0.5876   -0.1206 C   0  0  0  0  0  0  0  0  0  0  0  0
    6.4967    1.4000   -0.8274 H   0  0  0  0  0  0  0  0  0  0  0  0
    7.8298    0.3414   -0.2803 H   0  0  0  0  0  0  0  0  0  0  0  0
    6.6582    0.9820    0.9105 H   0  0  0  0  0  0  0  0  0  0  0  0
    6.1154   -1.1603   -1.7894 C   0  0  0  0  0  0  0  0  0  0  0  0
    5.5457   -2.0880   -1.9971 H   0  0  0  0  0  0  0  0  0  0  0  0
    7.1890   -1.3761   -1.9705 H   0  0  0  0  0  0  0  0  0  0  0  0
    5.7881   -0.3945   -2.5213 H   0  0  0  0  0  0  0  0  0  0  0  0
    6.3595   -1.7572    0.6509 C   0  0  0  0  0  0  0  0  0  0  0  0
    6.2152   -1.4248    1.6989 H   0  0  0  0  0  0  0  0  0  0  0  0
    7.4360   -1.9860    0.5057 H   0  0  0  0  0  0  0  0  0  0  0  0
    5.7937   -2.7006    0.5163 H   0  0  0  0  0  0  0  0  0  0  0  0
    1.2564   -2.5513   -0.3572 C   0  0  0  0  0  0  0  0  0  0  0  0
    1.6160   -3.0604   -1.7794 C   0  0  0  0  0  0  0  0  0  0  0  0
    1.3493   -2.3017   -2.5420 H   0  0  0  0  0  0  0  0  0  0  0  0
    1.0468   -3.9860   -2.0028 H   0  0  0  0  0  0  0  0  0  0  0  0
    2.6901   -3.2965   -1.8985 H   0  0  0  0  0  0  0  0  0  0  0  0
    1.6608   -3.6215    0.6869 C   0  0  0  0  0  0  0  0  0  0  0  0
    2.7503   -3.8195    0.6791 H   0  0  0  0  0  0  0  0  0  0  0  0
    1.1380   -4.5791    0.4829 H   0  0  0  0  0  0  0  0  0  0  0  0
    1.3888   -3.2980    1.7129 H   0  0  0  0  0  0  0  0  0  0  0  0
   -0.2817   -2.4707   -0.3402 C   0  0  0  0  0  0  0  0  0  0  0  0
   -0.7051   -2.2296    0.6467 H   0  0  0  0  0  0  0  0  0  0  0  0
   -0.6837   -3.4647   -0.6262 H   0  0  0  0  0  0  0  0  0  0  0  0
   -0.6694   -1.7630   -1.1024 H   0  0  0  0  0  0  0  0  0  0  0  0
  1  3  1  0  0  0  0
  2 13  1  0  0  0  0
  2  6  1  0  0  0  0
  3  5  1  0  0  0  0
  3  4  1  0  0  0  0
  6  3  1  6  0  0  0
  6  7  1  0  0  0  0
  7  9  2  0  0  0  0
  7  8  1  0  0  0  0
  9 10  1  0  0  0  0
 11 12  1  0  0  0  0
 11  9  1  0  0  0  0
 13 11  2  0  0  0  0
 14 13  1  0  0  0  0
 15 14  1  0  0  0  0
 15 16  1  0  0  0  0
 17 15  2  0  0  0  0
 18 17  1  0  0  0  0
 19 21  2  0  0  0  0
 19 17  1  0  0  0  0
 20 19  1  0  0  0  0
 21 23  1  0  0  0  0
 22 21  1  0  0  0  0
 23 14  2  0  0  0  0
 24 25  1  0  0  0  0
 24  1  1  0  0  0  0
 25 32  1  0  0  0  0
 26 27  1  0  0  0  0
 26 25  2  0  0  0  0
 28 26  1  0  0  0  0
 29 28  2  0  0  0  0
 29 31  1  0  0  0  0
 30 29  1  0  0  0  0
 31 24  2  0  0  0  0
 32 41  1  0  0  0  0
 32 33  1  0  0  0  0
 33 35  1  0  0  0  0
 33 36  1  0  0  0  0
 34 33  1  0  0  0  0
 37 39  1  0  0  0  0
 37 32  1  0  0  0  0
 38 37  1  0  0  0  0
 40 37  1  0  0  0  0
 41 43  1  0  0  0  0
 41 42  1  0  0  0  0
 44 41  1  0  0  0  0
 45 28  1  0  0  0  0
 45 46  1  0  0  0  0
 45 54  1  0  0  0  0
 46 49  1  0  0  0  0
 47 46  1  0  0  0  0
 48 46  1  0  0  0  0
 50 45  1  0  0  0  0
 51 50  1  0  0  0  0
 52 50  1  0  0  0  0
 53 50  1  0  0  0  0
 54 55  1  0  0  0  0
 56 54  1  0  0  0  0
 57 54  1  0  0  0  0
 58 67  1  0  0  0  0
 58 31  1  0  0  0  0
 58 63  1  0  0  0  0
 59 58  1  0  0  0  0
 60 59  1  0  0  0  0
 61 59  1  0  0  0  0
 62 59  1  0  0  0  0
 63 66  1  0  0  0  0
 64 63  1  0  0  0  0
 65 63  1  0  0  0  0
 67 68  1  0  0  0  0
 69 67  1  0  0  0  0
 70 67  1  0  0  0  0
M  END
