1,2,5
q = -1.0, confidence = 0.0

 51 53  0  0  1  0  0  0  0  0999 V2000
    1.0530    2.1018    0.0674 N   0  0  0  0  0  2  0  0  0  0  0  0
    0.9854   -1.9254   -0.3401 N   0  0  0  0  0  2  0  0  0  0  0  0
   -0.5058    3.7380   -0.0024 O   0  0  0  0  0  0  0  0  0  0  0  0
   -0.6292   -3.4735   -0.6581 O   0  0  0  0  0  0  0  0  0  0  0  0
   -0.5038    0.1252   -0.2912 C   0  0  0  0  0  3  0  0  0  0  0  0
   -1.1838    1.3625   -0.2378 C   0  0  0  0  0  0  0  0  0  0  0  0
   -2.5810    1.3935   -0.3721 C   0  0  0  0  0  0  0  0  0  0  0  0
   -3.1012    2.3621   -0.3218 H   0  0  0  0  0  0  0  0  0  0  0  0
   -3.3189    0.1971   -0.5648 C   0  0  0  0  0  0  0  0  0  0  0  0
   -2.6233   -1.0315   -0.6419 C   0  0  0  0  0  0  0  0  0  0  0  0
   -3.1655   -1.9732   -0.8001 H   0  0  0  0  0  0  0  0  0  0  0  0
   -1.2212   -1.0692   -0.5095 C   0  0  0  0  0  0  0  0  0  0  0  0
   -4.8543    0.2763   -0.6673 C   0  0  0  0  0  0  0  0  0  0  0  0
   -5.2473    1.1951   -1.8460 C   0  0  0  0  0  0  0  0  0  0  0  0
   -4.8519    2.2224   -1.7193 H   0  0  0  0  0  0  0  0  0  0  0  0
   -6.3514    1.2688   -1.9293 H   0  0  0  0  0  0  0  0  0  0  0  0
   -4.8539    0.7988   -2.8038 H   0  0  0  0  0  0  0  0  0  0  0  0
   -5.4158    0.8560    0.6515 C   0  0  0  0  0  0  0  0  0  0  0  0
   -5.0214    1.8714    0.8555 H   0  0  0  0  0  0  0  0  0  0  0  0
   -5.1450    0.2108    1.5121 H   0  0  0  0  0  0  0  0  0  0  0  0
   -6.5226    0.9262    0.6074 H   0  0  0  0  0  0  0  0  0  0  0  0
   -5.4921   -1.1045   -0.8979 C   0  0  0  0  0  0  0  0  0  0  0  0
   -6.5936   -1.0017   -0.9680 H   0  0  0  0  0  0  0  0  0  0  0  0
   -5.2759   -1.8041   -0.0655 H   0  0  0  0  0  0  0  0  0  0  0  0
   -5.1394   -1.5694   -1.8405 H   0  0  0  0  0  0  0  0  0  0  0  0
   -0.2166    2.4273   -0.0492 C   0  0  1  0  0  3  0  0  0  0  0  0
    0.7741    4.4283   -0.0013 C   0  0  0  0  0  0  0  0  0  0  0  0
    0.7390    5.2167    0.7751 H   0  0  0  0  0  0  0  0  0  0  0  0
    0.9036    4.8981   -0.9988 H   0  0  0  0  0  0  0  0  0  0  0  0
    1.8516    3.3322    0.2732 C   0  0  0  0  0  0  0  0  0  0  0  0
    3.0137    3.4084   -0.7214 C   0  0  0  0  0  0  0  0  0  0  0  0
    3.7724    2.6402   -0.4797 H   0  0  0  0  0  0  0  0  0  0  0  0
    3.4980    4.4049   -0.6658 H   0  0  0  0  0  0  0  0  0  0  0  0
    2.6596    3.2247   -1.7537 H   0  0  0  0  0  0  0  0  0  0  0  0
    2.3616    3.3699    1.7218 C   0  0  0  0  0  0  0  0  0  0  0  0
    1.5193    3.3560    2.4421 H   0  0  0  0  0  0  0  0  0  0  0  0
    2.9605    4.2868    1.8967 H   0  0  0  0  0  0  0  0  0  0  0  0
    3.0045    2.4900    1.9174 H   0  0  0  0  0  0  0  0  0  0  0  0
   -0.2936   -2.1835   -0.5116 C   0  0  1  0  0  3  0  0  0  0  0  0
    0.5763   -4.2283   -0.3533 C   0  0  0  0  0  0  0  0  0  0  0  0
    0.6690   -5.0434   -1.0961 H   0  0  0  0  0  0  0  0  0  0  0  0
    0.4530   -4.6515    0.6647 H   0  0  0  0  0  0  0  0  0  0  0  0
    1.7429   -3.1953   -0.4134 C   0  0  0  0  0  0  0  0  0  0  0  0
    2.5027   -3.2496   -1.7471 C   0  0  0  0  0  0  0  0  0  0  0  0
    1.8006   -3.2063   -2.6024 H   0  0  0  0  0  0  0  0  0  0  0  0
    3.1039   -4.1790   -1.8171 H   0  0  0  0  0  0  0  0  0  0  0  0
    3.1714   -2.3726   -1.8438 H   0  0  0  0  0  0  0  0  0  0  0  0
    2.6777   -3.3414    0.7899 C   0  0  0  0  0  0  0  0  0  0  0  0
    3.4839   -2.5811    0.7483 H   0  0  0  0  0  0  0  0  0  0  0  0
    3.1603   -4.3395    0.7905 H   0  0  0  0  0  0  0  0  0  0  0  0
    2.1070   -3.1939    1.7271 H   0  0  0  0  0  0  0  0  0  0  0  0
  1 30  1  0  0  0  0
  3 27  1  0  0  0  0
  4 39  1  0  0  0  0
  4 40  1  0  0  0  0
  5  6  1  0  0  0  0
  7  8  1  0  0  0  0
  7  6  2  0  0  0  0
  9  7  1  0  0  0  0
 10  9  2  0  0  0  0
 10 12  1  0  0  0  0
 11 10  1  0  0  0  0
 12  5  2  0  0  0  0
 13  9  1  0  0  0  0
 13 18  1  0  0  0  0
 14 15  1  0  0  0  0
 14 13  1  0  0  0  0
 16 14  1  0  0  0  0
 17 14  1  0  0  0  0
 18 19  1  0  0  0  0
 18 20  1  0  0  0  0
 21 18  1  0  0  0  0
 22 13  1  0  0  0  0
 22 24  1  0  0  0  0
 23 22  1  0  0  0  0
 25 22  1  0  0  0  0
 26  6  1  6  0  0  0
 26  3  1  0  0  0  0
 26  1  1  0  0  0  0
 27 30  1  0  0  0  0
 27 28  1  0  0  0  0
 29 27  1  0  0  0  0
 30 35  1  0  0  0  0
 31 33  1  0  0  0  0
 31 32  1  0  0  0  0
 31 30  1  0  0  0  0
 34 31  1  0  0  0  0
 35 37  1  0  0  0  0
 35 38  1  0  0  0  0
 35 36  1  0  0  0  0
 39 12  1  1  0  0  0
 39  2  1  0  0  0  0
 40 42  1  0  0  0  0
 41 40  1  0  0  0  0
 43 40  1  0  0  0  0
 43  2  1  0  0  0  0
 43 48  1  0  0  0  0
 44 43  1  0  0  0  0
 45 44  1  0  0  0  0
 46 44  1  0  0  0  0
 47 44  1  0  0  0  0
 48 50  1  0  0  0  0
 48 51  1  0  0  0  0
 49 48  1  0  0  0  0
M  END
