1,2,34
q = -1.0, confidence = 0.1

 60 63  0  0  1  0  0  0  0  0999 V2000
    1.4312    0.6389    0.1007 N   0  0  0  0  0  2  0  0  0  0  0  0
   -1.0883    1.4630   -0.0528 N   0  0  0  0  0  2  0  0  0  0  0  0
    2.7118    0.0232    0.1843 C   0  0  0  0  0  0  0  0  0  0  0  0
    3.5020   -0.1309   -0.9836 C   0  0  0  0  0  0  0  0  0  0  0  0
    4.7507   -0.7645   -0.8444 C   0  0  0  0  0  0  0  0  0  0  0  0
    5.3818   -0.9055   -1.7349 H   0  0  0  0  0  0  0  0  0  0  0  0
    5.1941   -1.2337    0.3977 C   0  0  0  0  0  0  0  0  0  0  0  0
    6.1775   -1.7204    0.4827 H   0  0  0  0  0  0  0  0  0  0  0  0
    4.3743   -1.1078    1.5269 C   0  0  0  0  0  0  0  0  0  0  0  0
    4.7145   -1.5066    2.4937 H   0  0  0  0  0  0  0  0  0  0  0  0
    3.1130   -0.4953    1.4419 C   0  0  0  0  0  0  0  0  0  0  0  0
    1.2912    1.9314   -0.0379 C   0  0  0  0  0  0  0  0  0  0  0  0
    2.4383    2.9000   -0.0827 C   0  0  0  0  0  0  0  0  0  0  0  0
    3.3879    2.3844    0.1456 H   0  0  0  0  0  0  0  0  0  0  0  0
    2.2925    3.7248    0.6430 H   0  0  0  0  0  0  0  0  0  0  0  0
    2.5280    3.3563   -1.0908 H   0  0  0  0  0  0  0  0  0  0  0  0
   -0.0963    2.4180   -0.1321 C   0  0  0  0  0  0  0  0  0  0  0  0
   -0.3939    3.7793   -0.2703 C   0  0  0  0  0  0  0  0  0  0  0  0
    0.4174    4.5136   -0.3488 H   0  0  0  0  0  0  0  0  0  0  0  0
   -1.7360    4.1756   -0.3277 C   0  0  0  0  0  0  0  0  0  0  0  0
   -2.0054    5.2299   -0.4850 H   0  0  0  0  0  0  0  0  0  0  0  0
   -2.7252    3.2080   -0.1807 C   0  0  0  0  0  0  0  0  0  0  0  0
   -3.7804    3.4976   -0.2433 H   0  0  0  0  0  0  0  0  0  0  0  0
   -2.3963    1.8372    0.0071 C   0  0  0  0  0  0  0  0  0  0  0  0
   -3.4788    0.8550    0.2319 C   0  0  0  0  0  0  0  0  0  0  0  0
   -4.6880    1.3607    0.7420 C   0  0  0  0  0  0  0  0  0  0  0  0
   -4.7362    2.4032    1.0851 H   0  0  0  0  0  0  0  0  0  0  0  0
   -5.8517    0.5753    0.8479 C   0  0  0  0  0  0  0  0  0  0  0  0
   -6.7683    1.0075    1.2750 H   0  0  0  0  0  0  0  0  0  0  0  0
   -5.8318   -0.7242    0.3676 C   0  0  0  0  0  0  0  0  0  0  0  0
   -6.7453   -1.3396    0.3731 H   0  0  0  0  0  0  0  0  0  0  0  0
   -4.6329   -1.3009   -0.1339 C   0  0  0  0  0  0  0  0  0  0  0  0
   -3.3865   -0.5471   -0.1181 C   0  0  1  0  0  3  0  0  0  0  0  0
   -2.1741   -1.2342   -0.4649 C   0  0  0  0  0  2  0  0  0  0  0  0
   -2.2625   -2.5268   -1.0001 C   0  0  0  0  0  0  0  0  0  0  0  0
   -1.3377   -3.0469   -1.2824 H   0  0  0  0  0  0  0  0  0  0  0  0
   -3.4960   -3.2113   -1.1193 C   0  0  0  0  0  0  0  0  0  0  0  0
   -3.5116   -4.2274   -1.5435 H   0  0  0  0  0  0  0  0  0  0  0  0
   -4.6583   -2.6276   -0.6489 C   0  0  0  0  0  0  0  0  0  0  0  0
   -5.6172   -3.1683   -0.6647 H   0  0  0  0  0  0  0  0  0  0  0  0
    2.9783    0.2478   -2.3636 C   0  0  0  0  0  0  0  0  0  0  0  0
    2.0867    0.8930   -2.2290 H   0  0  0  0  0  0  0  0  0  0  0  0
    2.4975   -1.0206   -3.0949 C   0  0  0  0  0  0  0  0  0  0  0  0
    3.3503   -1.7006   -3.2999 H   0  0  0  0  0  0  0  0  0  0  0  0
    2.0246   -0.7605   -4.0645 H   0  0  0  0  0  0  0  0  0  0  0  0
    1.7651   -1.5752   -2.4745 H   0  0  0  0  0  0  0  0  0  0  0  0
    3.9955    1.0409   -3.1971 C   0  0  0  0  0  0  0  0  0  0  0  0
    4.3424    1.9509   -2.6659 H   0  0  0  0  0  0  0  0  0  0  0  0
    3.5464    1.3543   -4.1615 H   0  0  0  0  0  0  0  0  0  0  0  0
    4.8920    0.4336   -3.4385 H   0  0  0  0  0  0  0  0  0  0  0  0
    2.2027   -0.3516    2.6525 C   0  0  0  0  0  0  0  0  0  0  0  0
    1.1680   -0.2635    2.2555 H   0  0  0  0  0  0  0  0  0  0  0  0
    2.2229   -1.5830    3.5648 C   0  0  0  0  0  0  0  0  0  0  0  0
    1.9888   -2.4960    2.9831 H   0  0  0  0  0  0  0  0  0  0  0  0
    1.4617   -1.4779    4.3643 H   0  0  0  0  0  0  0  0  0  0  0  0
    3.2042   -1.7217    4.0647 H   0  0  0  0  0  0  0  0  0  0  0  0
    2.5187    0.9412    3.4261 C   0  0  0  0  0  0  0  0  0  0  0  0
    3.5495    0.9144    3.8375 H   0  0  0  0  0  0  0  0  0  0  0  0
    1.8155    1.0776    4.2736 H   0  0  0  0  0  0  0  0  0  0  0  0
    2.4445    1.8368    2.7758 H   0  0  0  0  0  0  0  0  0  0  0  0
  1  3  1  0  0  0  0
  2 24  1  0  0  0  0
  3 11  1  0  0  0  0
  4  5  1  0  0  0  0
  4  3  2  0  0  0  0
  5  7  2  0  0  0  0
  6  5  1  0  0  0  0
  7  8  1  0  0  0  0
  7  9  1  0  0  0  0
  9 10  1  0  0  0  0
 11  9  2  0  0  0  0
 11 51  1  0  0  0  0
 12  1  1  0  0  0  0
 13 12  1  0  0  0  0
 13 14  1  0  0  0  0
 13 15  1  0  0  0  0
 16 13  1  0  0  0  0
 17  2  1  0  0  0  0
 17 12  2  0  0  0  0
 18 17  1  0  0  0  0
 19 18  1  0  0  0  0
 20 18  2  0  0  0  0
 20 22  1  0  0  0  0
 21 20  1  0  0  0  0
 22 24  2  0  0  0  0
 23 22  1  0  0  0  0
 24 25  1  0  0  0  0
 25 26  2  0  0  0  0
 26 28  1  0  0  0  0
 26 27  1  0  0  0  0
 28 29  1  0  0  0  0
 30 31  1  0  0  0  0
 30 28  2  0  0  0  0
 32 33  1  0  0  0  0
 32 30  1  0  0  0  0
 33 34  1  6  0  0  0
 33 25  1  0  0  0  0
 35 34  1  0  0  0  0
 36 35  1  0  0  0  0
 37 35  2  0  0  0  0
 37 39  1  0  0  0  0
 38 37  1  0  0  0  0
 39 32  2  0  0  0  0
 40 39  1  0  0  0  0
 41 42  1  0  0  0  0
 41  4  1  0  0  0  0
 43 46  1  0  0  0  0
 43 41  1  0  0  0  0
 44 43  1  0  0  0  0
 45 43  1  0  0  0  0
 47 48  1  0  0  0  0
 47 41  1  0  0  0  0
 49 47  1  0  0  0  0
 50 47  1  0  0  0  0
 51 57  1  0  0  0  0
 51 53  1  0  0  0  0
 52 51  1  0  0  0  0
 53 56  1  0  0  0  0
 53 55  1  0  0  0  0
 54 53  1  0  0  0  0
 57 58  1  0  0  0  0
 57 59  1  0  0  0  0
 60 57  1  0  0  0  0
M  END
