1,2,25
q = -2.0, confidence = 0.854

 40 43  0  0  1  0  0  0  0  0999 V2000
   -1.4538   -0.7532    0.7262 N   0  0  0  0  0  0  0  0  0  0  0  0
   -2.0609    0.9001   -1.1590 N   0  0  0  0  0  2  0  0  0  0  0  0
   -1.2984   -1.6704    1.7404 C   0  0  0  0  0  3  0  0  0  0  0  0
   -2.4967   -2.3798    1.9031 C   0  0  0  0  0  0  0  0  0  0  0  0
   -2.6727   -3.1992    2.6106 H   0  0  0  0  0  0  0  0  0  0  0  0
   -3.4304   -1.8950    0.9386 C   0  0  0  0  0  0  0  0  0  0  0  0
   -2.7507   -0.8688    0.2332 C   0  0  0  0  0  0  0  0  0  0  0  0
   -3.1085    0.1042   -0.7717 C   0  0  1  0  0  3  0  0  0  0  0  0
   -4.3951    0.3057   -1.3321 C   0  0  0  0  0  0  0  0  0  0  0  0
   -5.2408   -0.3031   -0.9904 H   0  0  0  0  0  0  0  0  0  0  0  0
   -4.5581    1.2892   -2.3069 C   0  0  0  0  0  0  0  0  0  0  0  0
   -5.5522    1.4610   -2.7473 H   0  0  0  0  0  0  0  0  0  0  0  0
   -3.4612    2.0601   -2.7321 C   0  0  0  0  0  0  0  0  0  0  0  0
   -3.5789    2.8247   -3.5105 H   0  0  0  0  0  0  0  0  0  0  0  0
   -2.2104    1.8445   -2.1312 C   0  0  0  0  0  0  0  0  0  0  0  0
   -0.9648    2.5678   -2.4627 C   0  0  0  0  0  0  0  0  0  0  0  0
   -0.8832    3.5605   -3.4604 C   0  0  0  0  0  0  0  0  0  0  0  0
   -1.7699    3.8514   -4.0448 H   0  0  0  0  0  0  0  0  0  0  0  0
    0.3444    4.1879   -3.7182 C   0  0  0  0  0  0  0  0  0  0  0  0
    0.4096    4.9610   -4.4990 H   0  0  0  0  0  0  0  0  0  0  0  0
    1.4881    3.8306   -2.9840 C   0  0  0  0  0  0  0  0  0  0  0  0
    2.4507    4.3237   -3.1923 H   0  0  0  0  0  0  0  0  0  0  0  0
    1.3986    2.8421   -1.9864 C   0  0  0  0  0  0  0  0  0  0  0  0
    2.3105    2.5778   -1.4217 H   0  0  0  0  0  0  0  0  0  0  0  0
    0.1786    2.1921   -1.7048 C   0  0  0  0  0  3  0  0  0  0  0  0
   -4.7893   -2.4294    0.7401 C   0  0  0  0  0  0  0  0  0  0  0  0
   -5.6395   -2.6511    1.8485 C   0  0  0  0  0  0  0  0  0  0  0  0
   -5.2841   -2.3778    2.8536 H   0  0  0  0  0  0  0  0  0  0  0  0
   -6.9223   -3.1894    1.6763 C   0  0  0  0  0  0  0  0  0  0  0  0
   -7.5701   -3.3458    2.5526 H   0  0  0  0  0  0  0  0  0  0  0  0
   -7.3844   -3.5222    0.3928 C   0  0  0  0  0  0  0  0  0  0  0  0
   -8.3920   -3.9437    0.2577 H   0  0  0  0  0  0  0  0  0  0  0  0
   -6.5468   -3.3213   -0.7168 C   0  0  0  0  0  0  0  0  0  0  0  0
   -6.8922   -3.5966   -1.7253 H   0  0  0  0  0  0  0  0  0  0  0  0
   -5.2627   -2.7863   -0.5450 C   0  0  0  0  0  0  0  0  0  0  0  0
   -4.5974   -2.6602   -1.4126 H   0  0  0  0  0  0  0  0  0  0  0  0
   -0.0039   -1.8092    2.4785 C   0  0  0  0  0  0  0  0  0  0  0  0
    0.8278   -2.0854    1.7952 H   0  0  0  0  0  0  0  0  0  0  0  0
   -0.0791   -2.5893    3.2585 H   0  0  0  0  0  0  0  0  0  0  0  0
    0.2846   -0.8581    2.9759 H   0  0  0  0  0  0  0  0  0  0  0  0
  1  3  1  0  0  0  0
  2  8  1  0  0  0  0
  3  4  1  0  0  0  0
  3 37  1  0  0  0  0
  4  5  1  0  0  0  0
  6  4  2  0  0  0  0
  7  1  2  0  0  0  0
  7  6  1  0  0  0  0
  8  7  1  1  0  0  0
  9 10  1  0  0  0  0
  9  8  1  0  0  0  0
 11  9  2  0  0  0  0
 12 11  1  0  0  0  0
 13 11  1  0  0  0  0
 13 15  2  0  0  0  0
 14 13  1  0  0  0  0
 15  2  1  0  0  0  0
 16 15  1  0  0  0  0
 16 25  1  0  0  0  0
 17 16  2  0  0  0  0
 18 17  1  0  0  0  0
 19 17  1  0  0  0  0
 19 21  2  0  0  0  0
 20 19  1  0  0  0  0
 21 23  1  0  0  0  0
 22 21  1  0  0  0  0
 23 25  2  0  0  0  0
 23 24  1  0  0  0  0
 26  6  1  0  0  0  0
 26 27  1  0  0  0  0
 27 28  1  0  0  0  0
 29 27  2  0  0  0  0
 29 30  1  0  0  0  0
 31 29  1  0  0  0  0
 32 31  1  0  0  0  0
 33 35  1  0  0  0  0
 33 31  2  0  0  0  0
 34 33  1  0  0  0  0
 35 26  2  0  0  0  0
 36 35  1  0  0  0  0
 37 40  1  0  0  0  0
 37 39  1  0  0  0  0
 38 37  1  0  0  0  0
M  END
