1,4,15
q = -1.0, confidence = 0.0

 33 33  0  0  0  0  0  0  0  0999 V2000
    0.3179    2.0561   -0.5477 N   0  0  0  0  0  0  0  0  0  0  0  0
    0.3185    2.0424   -1.5802 H   0  0  0  0  0  0  0  0  0  0  0  0
   -0.3653    2.7787   -0.2773 H   0  0  0  0  0  0  0  0  0  0  0  0
    0.2038   -1.9250    0.5377 N   0  0  0  0  0  0  0  0  0  0  0  0
    0.2556   -1.9207    1.5690 H   0  0  0  0  0  0  0  0  0  0  0  0
   -0.5445   -2.5913    0.2957 H   0  0  0  0  0  0  0  0  0  0  0  0
    2.5538    1.2166   -0.1182 C   0  0  0  0  0  0  0  0  0  0  0  0
    3.9584    1.1593   -0.1593 C   0  0  0  0  0  0  0  0  0  0  0  0
    4.5600    2.0794   -0.2223 H   0  0  0  0  0  0  0  0  0  0  0  0
    4.6050   -0.0893   -0.1133 C   0  0  0  0  0  0  0  0  0  0  0  0
    5.7038   -0.1287   -0.1405 H   0  0  0  0  0  0  0  0  0  0  0  0
    3.8739   -1.2887   -0.0335 C   0  0  0  0  0  0  0  0  0  0  0  0
    4.4106   -2.2497    0.0009 H   0  0  0  0  0  0  0  0  0  0  0  0
    2.4686   -1.2455   -0.0051 C   0  0  0  0  0  0  0  0  0  0  0  0
    1.8384    0.0098   -0.0447 C   0  0  0  0  0  3  0  0  0  0  0  0
    1.7070    2.4814   -0.0704 C   0  0  0  0  0  0  0  0  0  0  0  0
    1.5562    2.9525    1.3849 C   0  0  0  0  0  0  0  0  0  0  0  0
    1.1201    2.1465    2.0082 H   0  0  0  0  0  0  0  0  0  0  0  0
    0.9134    3.8559    1.4524 H   0  0  0  0  0  0  0  0  0  0  0  0
    2.5479    3.2086    1.8028 H   0  0  0  0  0  0  0  0  0  0  0  0
    2.2254    3.6091   -0.9681 C   0  0  0  0  0  0  0  0  0  0  0  0
    1.5405    4.4814   -0.9491 H   0  0  0  0  0  0  0  0  0  0  0  0
    2.3468    3.2683   -2.0164 H   0  0  0  0  0  0  0  0  0  0  0  0
    3.2137    3.9630   -0.6161 H   0  0  0  0  0  0  0  0  0  0  0  0
    1.5321   -2.4463   -0.0112 C   0  0  0  0  0  0  0  0  0  0  0  0
    2.0121   -3.6136    0.8567 C   0  0  0  0  0  0  0  0  0  0  0  0
    2.2090   -3.2887    1.8986 H   0  0  0  0  0  0  0  0  0  0  0  0
    2.9539   -4.0353    0.4555 H   0  0  0  0  0  0  0  0  0  0  0  0
    1.2660   -4.4344    0.8696 H   0  0  0  0  0  0  0  0  0  0  0  0
    1.2740   -2.8975   -1.4578 C   0  0  0  0  0  0  0  0  0  0  0  0
    0.5567   -3.7448   -1.4953 H   0  0  0  0  0  0  0  0  0  0  0  0
    2.2205   -3.2319   -1.9226 H   0  0  0  0  0  0  0  0  0  0  0  0
    0.8768   -2.0561   -2.0598 H   0  0  0  0  0  0  0  0  0  0  0  0
  1  3  1  0  0  0  0
  1 16  1  0  0  0  0
  2  1  1  0  0  0  0
  4  5  1  0  0  0  0
  6  4  1  0  0  0  0
  7 16  1  0  0  0  0
  7 15  1  0  0  0  0
  8  7  2  0  0  0  0
  8 10  1  0  0  0  0
  9  8  1  0  0  0  0
 10 12  2  0  0  0  0
 11 10  1  0  0  0  0
 12 14  1  0  0  0  0
 12 13  1  0  0  0  0
 15 14  2  0  0  0  0
 16 17  1  0  0  0  0
 17 19  1  0  0  0  0
 17 20  1  0  0  0  0
 17 18  1  0  0  0  0
 21 22  1  0  0  0  0
 21 24  1  0  0  0  0
 21 16  1  0  0  0  0
 23 21  1  0  0  0  0
 25 14  1  0  0  0  0
 25  4  1  0  0  0  0
 25 26  1  0  0  0  0
 26 29  1  0  0  0  0
 26 27  1  0  0  0  0
 28 26  1  0  0  0  0
 30 25  1  0  0  0  0
 31 30  1  0  0  0  0
 32 30  1  0  0  0  0
 33 30  1  0  0  0  0
M  END
