2,3,4
q = -1.0, confidence = 0.0

 28 28  0  0  0  0  0  0  0  0999 V2000
    4.4455    1.7479    0.0196 Cl  0  0  0  0  0  0  0  0  0  0  0  0
    0.0300    1.5421   -0.1659 N   0  0  0  0  0  2  0  0  0  0  0  0
   -2.7078    0.7510   -0.0870 N   0  0  0  0  0  0  0  0  0  0  0  0
    1.2738   -0.8203   -0.1073 C   0  0  0  0  0  3  0  0  0  0  0  0
    1.9239   -2.0596   -0.0818 C   0  0  0  0  0  0  0  0  0  0  0  0
    3.3272   -2.1163   -0.0221 C   0  0  0  0  0  0  0  0  0  0  0  0
    4.1082   -0.9493    0.0081 C   0  0  0  0  0  0  0  0  0  0  0  0
    3.4678    0.2947   -0.0186 C   0  0  0  0  0  0  0  0  0  0  0  0
    2.0561    0.3883   -0.0765 C   0  0  0  0  0  0  0  0  0  0  0  0
    1.3205    1.6429   -0.0856 C   0  0  0  0  0  3  0  0  0  0  0  0
   -0.9682    2.5866   -0.1725 C   0  0  0  0  0  0  0  0  0  0  0  0
   -2.2362    2.0411    0.5025 C   0  0  0  0  0  0  0  0  0  0  0  0
   -3.3133    0.9524   -1.4107 C   0  0  0  0  0  0  0  0  0  0  0  0
   -3.6830    0.1181    0.8225 C   0  0  0  0  0  0  0  0  0  0  0  0
    1.3370   -2.9881   -0.0942 H   0  0  0  0  0  0  0  0  0  0  0  0
    3.8308   -3.0953    0.0055 H   0  0  0  0  0  0  0  0  0  0  0  0
    5.2045   -0.9958    0.0547 H   0  0  0  0  0  0  0  0  0  0  0  0
    1.8414    2.6164   -0.0136 H   0  0  0  0  0  0  0  0  0  0  0  0
   -1.1740    2.8749   -1.2286 H   0  0  0  0  0  0  0  0  0  0  0  0
   -0.6285    3.5051    0.3546 H   0  0  0  0  0  0  0  0  0  0  0  0
   -3.0525    2.7994    0.4610 H   0  0  0  0  0  0  0  0  0  0  0  0
   -1.9932    1.8217    1.5613 H   0  0  0  0  0  0  0  0  0  0  0  0
   -3.6129   -0.0258   -1.8303 H   0  0  0  0  0  0  0  0  0  0  0  0
   -4.2154    1.6038   -1.3410 H   0  0  0  0  0  0  0  0  0  0  0  0
   -2.5901    1.4128   -2.1079 H   0  0  0  0  0  0  0  0  0  0  0  0
   -4.0301   -0.8318    0.3744 H   0  0  0  0  0  0  0  0  0  0  0  0
   -3.1744   -0.1042    1.7807 H   0  0  0  0  0  0  0  0  0  0  0  0
   -4.5632    0.7816    0.9867 H   0  0  0  0  0  0  0  0  0  0  0  0
  2 10  1  0  0  0  0
  3 12  1  0  0  0  0
  3 14  1  0  0  0  0
  4  5  2  0  0  0  0
  4  9  1  0  0  0  0
  5  6  1  0  0  0  0
  6 16  1  0  0  0  0
  6  7  2  0  0  0  0
  7 17  1  0  0  0  0
  8  7  1  0  0  0  0
  8  1  1  0  0  0  0
  9  8  2  0  0  0  0
 10  9  1  0  0  0  0
 10 18  1  0  0  0  0
 11  2  1  0  0  0  0
 11 20  1  0  0  0  0
 11 12  1  0  0  0  0
 12 22  1  0  0  0  0
 13 24  1  0  0  0  0
 13  3  1  0  0  0  0
 14 28  1  0  0  0  0
 14 27  1  0  0  0  0
 15  5  1  0  0  0  0
 19 11  1  0  0  0  0
 21 12  1  0  0  0  0
 23 13  1  0  0  0  0
 25 13  1  0  0  0  0
 26 14  1  0  0  0  0
M  END
