1,2,22
q = -1.0, confidence = 0.004

 36 37  0  0  0  0  0  0  0  0999 V2000
   -3.6085   -0.6379   -0.0925 N   0  0  0  0  0  0  0  0  0  0  0  0
   -1.9347    1.6176    0.1045 N   0  0  0  0  0  2  0  0  0  0  0  0
    5.6765   -1.8112    0.6154 N   0  0  0  0  0  0  0  0  0  0  0  0
    6.5523    0.0206   -0.6646 N   0  0  0  0  0  0  0  0  0  0  0  0
   -4.0412   -1.6644   -1.0557 C   0  0  0  0  0  0  0  0  0  0  0  0
   -5.1537   -1.7147   -1.1259 H   0  0  0  0  0  0  0  0  0  0  0  0
   -3.6558   -2.6499   -0.7351 H   0  0  0  0  0  0  0  0  0  0  0  0
   -3.6189   -1.4359   -2.0520 H   0  0  0  0  0  0  0  0  0  0  0  0
   -4.1059   -0.9670    1.2553 C   0  0  0  0  0  0  0  0  0  0  0  0
   -5.2214   -1.0147    1.2743 H   0  0  0  0  0  0  0  0  0  0  0  0
   -3.7596   -0.2121    1.9847 H   0  0  0  0  0  0  0  0  0  0  0  0
   -3.6945   -1.9462    1.5629 H   0  0  0  0  0  0  0  0  0  0  0  0
   -4.0772    0.7086   -0.5392 C   0  0  0  0  0  0  0  0  0  0  0  0
   -3.8597    0.7754   -1.6233 H   0  0  0  0  0  0  0  0  0  0  0  0
   -5.1818    0.7959   -0.4066 H   0  0  0  0  0  0  0  0  0  0  0  0
   -3.3585    1.8650    0.1728 C   0  0  0  0  0  0  0  0  0  0  0  0
   -3.6556    2.8316   -0.2929 H   0  0  0  0  0  0  0  0  0  0  0  0
   -3.6672    1.9145    1.2415 H   0  0  0  0  0  0  0  0  0  0  0  0
   -0.9637    2.4900    0.1331 C   0  0  0  0  0  0  0  0  0  0  0  0
   -1.1500    3.5811    0.1860 H   0  0  0  0  0  0  0  0  0  0  0  0
    0.3744    1.9261    0.1007 C   0  0  0  0  0  0  0  0  0  0  0  0
    0.4422    0.4810    0.0432 C   0  0  0  0  0  2  0  0  0  0  0  0
    1.7223   -0.0970    0.0172 C   0  0  0  0  0  0  0  0  0  0  0  0
    1.8115   -1.1907   -0.0581 H   0  0  0  0  0  0  0  0  0  0  0  0
    2.9025    0.6860    0.0455 C   0  0  0  0  0  0  0  0  0  0  0  0
    2.8021    2.0988    0.1020 C   0  0  0  0  0  0  0  0  0  0  0  0
    3.7133    2.7123    0.1556 H   0  0  0  0  0  0  0  0  0  0  0  0
    1.5471    2.7101    0.1287 C   0  0  0  0  0  0  0  0  0  0  0  0
    1.4704    3.8081    0.1835 H   0  0  0  0  0  0  0  0  0  0  0  0
    4.2280    0.0343    0.0160 C   0  0  0  0  0  0  0  0  0  0  0  0
    4.4805   -1.2094    0.6409 C   0  0  0  0  0  0  0  0  0  0  0  0
    3.6761   -1.7207    1.2002 H   0  0  0  0  0  0  0  0  0  0  0  0
    6.6541   -1.1610   -0.0356 C   0  0  0  0  0  0  0  0  0  0  0  0
    7.6459   -1.6492   -0.0558 H   0  0  0  0  0  0  0  0  0  0  0  0
    5.3456    0.6008   -0.6391 C   0  0  0  0  0  0  0  0  0  0  0  0
    5.2422    1.5577   -1.1828 H   0  0  0  0  0  0  0  0  0  0  0  0
  1  9  1  0  0  0  0
  2 19  1  0  0  0  0
  2 16  1  0  0  0  0
  3 31  1  0  0  0  0
  4 35  2  0  0  0  0
  4 33  1  0  0  0  0
  5  7  1  0  0  0  0
  5  1  1  0  0  0  0
  6  5  1  0  0  0  0
  8  5  1  0  0  0  0
  9 10  1  0  0  0  0
  9 12  1  0  0  0  0
  9 11  1  0  0  0  0
 13 15  1  0  0  0  0
 13  1  1  0  0  0  0
 13 16  1  0  0  0  0
 14 13  1  0  0  0  0
 16 18  1  0  0  0  0
 17 16  1  0  0  0  0
 19 20  1  0  0  0  0
 21 28  1  0  0  0  0
 21 19  2  0  0  0  0
 22 21  1  0  0  0  0
 23 22  1  0  0  0  0
 23 25  2  0  0  0  0
 24 23  1  0  0  0  0
 25 26  1  0  0  0  0
 26 28  2  0  0  0  0
 26 27  1  0  0  0  0
 28 29  1  0  0  0  0
 30 25  1  0  0  0  0
 30 31  2  0  0  0  0
 31 32  1  0  0  0  0
 33  3  2  0  0  0  0
 34 33  1  0  0  0  0
 35 30  1  0  0  0  0
 36 35  1  0  0  0  0
M  END
