17,20,21
 OpenBabel05122313063D

 23 22  0  0  0  0  0  0  0  0999 V2000
   -3.9297    1.0397   -0.4850 C   0  0  0  0  0  0  0  0  0  0  0  0
   -3.7572    2.1039   -0.7216 H   0  0  0  0  0  0  0  0  0  0  0  0
   -4.5308    0.9626    0.4448 H   0  0  0  0  0  0  0  0  0  0  0  0
   -4.5356    0.5850   -1.2949 H   0  0  0  0  0  0  0  0  0  0  0  0
   -2.6382    0.3078   -0.3423 C   0  0  0  0  0  0  0  0  0  0  0  0
   -2.5407   -1.1198   -0.1065 C   0  0  0  0  0  0  0  0  0  0  0  0
   -3.6582   -2.1080   -0.1264 C   0  0  0  0  0  0  0  0  0  0  0  0
   -3.5782   -2.7849    0.7474 H   0  0  0  0  0  0  0  0  0  0  0  0
   -3.6012   -2.7546   -1.0284 H   0  0  0  0  0  0  0  0  0  0  0  0
   -4.6462   -1.6147   -0.1157 H   0  0  0  0  0  0  0  0  0  0  0  0
   -1.3216    2.6584    1.1058 C   0  0  0  0  0  0  0  0  0  0  0  0
   -2.2969    2.3684    1.5532 H   0  0  0  0  0  0  0  0  0  0  0  0
   -1.2546    3.7630    1.0811 H   0  0  0  0  0  0  0  0  0  0  0  0
   -0.1506    2.0182    1.8426 C   0  0  0  0  0  0  0  0  0  0  0  0
    0.7987    2.4798    1.5015 H   0  0  0  0  0  0  0  0  0  0  0  0
   -0.2584    2.3204    2.9101 H   0  0  0  0  0  0  0  0  0  0  0  0
   -0.0799    0.4989    1.7679 C   0  0  0  0  0  3  0  0  0  0  0  0
   -0.9805    0.0235    2.2081 H   0  0  0  0  0  0  0  0  0  0  0  0
    0.8149    0.1172    2.2956 H   0  0  0  0  0  0  0  0  0  0  0  0
   -1.4483    0.8864   -0.3875 N   0  0  0  0  0  2  0  0  0  0  0  0
   -1.2828   -1.5029    0.1538 N   0  0  0  0  0  2  0  0  0  0  0  0
   -1.3661    2.2793   -0.3148 O   0  0  0  0  0  0  0  0  0  0  0  0
   -0.9929   -2.7336    0.3567 O   0  0  0  0  0  1  0  0  0  0  0  0
  1  5  1  0  0  0  0
  1  3  1  0  0  0  0
  2  1  1  0  0  0  0
  4  1  1  0  0  0  0
  5  6  2  0  0  0  0
  6 21  1  0  0  0  0
  7 10  1  0  0  0  0
  7  6  1  0  0  0  0
  7  8  1  0  0  0  0
  9  7  1  0  0  0  0
 11 12  1  0  0  0  0
 11 14  1  0  0  0  0
 13 11  1  0  0  0  0
 14 16  1  0  0  0  0
 15 14  1  0  0  0  0
 17 14  1  0  0  0  0
 17 18  1  0  0  0  0
 17 19  1  0  0  0  0
 20  5  1  0  0  0  0
 20 22  1  0  0  0  0
 21 23  1  0  0  0  0
 22 11  1  0  0  0  0
M  END
