4,5,6
 OpenBabel05122313063D

 47 51  0  0  1  0  0  0  0  0999 V2000
   -3.6693    4.5268   -0.4420 Br  0  0  0  0  0  0  0  0  0  0  0  0
    1.6564    2.9044    1.4697 O   0  0  0  0  0  0  0  0  0  0  0  0
   -3.4224   -1.2391   -1.5888 O   0  0  0  0  0  0  0  0  0  0  0  0
    1.4337    0.6974    1.0420 N   0  0  0  0  0  2  0  0  0  0  0  0
   -1.4155   -1.6262   -0.6308 N   0  0  0  0  0  2  0  0  0  0  0  0
   -0.9219    0.7706    0.0819 C   0  0  0  0  0  3  0  0  0  0  0  0
   -0.4581    2.0335    0.5042 C   0  0  0  0  0  0  0  0  0  0  0  0
   -1.2774    3.1682    0.3531 C   0  0  0  0  0  0  0  0  0  0  0  0
   -2.5486    2.9983   -0.2340 C   0  0  0  0  0  0  0  0  0  0  0  0
   -3.0222    1.7476   -0.6815 C   0  0  0  0  0  0  0  0  0  0  0  0
   -2.1892    0.6243   -0.5157 C   0  0  0  0  0  0  0  0  0  0  0  0
    0.8960    1.8978    1.0238 C   0  0  2  0  0  3  0  0  0  0  0  0
    2.9447    2.3261    1.8758 C   0  0  2  0  0  0  0  0  0  0  0  0
    4.1017    2.9249    1.0552 C   0  0  0  0  0  0  0  0  0  0  0  0
    4.5106    1.8230    0.1025 C   0  0  0  0  0  0  0  0  0  0  0  0
    5.4579    1.8736   -0.9312 C   0  0  0  0  0  0  0  0  0  0  0  0
    5.7096    0.7127   -1.6809 C   0  0  0  0  0  0  0  0  0  0  0  0
    5.0299   -0.4870   -1.3967 C   0  0  0  0  0  0  0  0  0  0  0  0
    4.0808   -0.5438   -0.3634 C   0  0  0  0  0  0  0  0  0  0  0  0
    3.8307    0.6214    0.3744 C   0  0  0  0  0  0  0  0  0  0  0  0
    2.8251    0.8092    1.4937 C   0  0  2  0  0  0  0  0  0  0  0  0
   -2.3701   -0.7648   -0.9134 C   0  0  1  0  0  3  0  0  0  0  0  0
   -3.0929   -2.6214   -1.9351 C   0  0  0  0  0  0  0  0  0  0  0  0
   -1.8083   -2.9551   -1.1280 C   0  0  2  0  0  0  0  0  0  0  0  0
   -1.9941   -3.9682    0.0234 C   0  0  0  0  0  0  0  0  0  0  0  0
   -3.0677   -3.5343    1.0256 C   0  0  0  0  0  0  0  0  0  0  0  0
   -2.2494   -5.3723   -0.5328 C   0  0  0  0  0  0  0  0  0  0  0  0
   -0.9420    4.1642    0.6748 H   0  0  0  0  0  0  0  0  0  0  0  0
   -4.0131    1.6623   -1.1493 H   0  0  0  0  0  0  0  0  0  0  0  0
    3.0347    2.5132    2.9630 H   0  0  0  0  0  0  0  0  0  0  0  0
    3.7659    3.8478    0.5391 H   0  0  0  0  0  0  0  0  0  0  0  0
    4.9418    3.2192    1.7196 H   0  0  0  0  0  0  0  0  0  0  0  0
    5.9968    2.8077   -1.1535 H   0  0  0  0  0  0  0  0  0  0  0  0
    6.4488    0.7415   -2.4961 H   0  0  0  0  0  0  0  0  0  0  0  0
    5.2416   -1.3895   -1.9902 H   0  0  0  0  0  0  0  0  0  0  0  0
    3.5287   -1.4679   -0.1339 H   0  0  0  0  0  0  0  0  0  0  0  0
    2.9927    0.1130    2.3415 H   0  0  0  0  0  0  0  0  0  0  0  0
   -3.9645   -3.2503   -1.6707 H   0  0  0  0  0  0  0  0  0  0  0  0
   -2.9379   -2.6574   -3.0320 H   0  0  0  0  0  0  0  0  0  0  0  0
   -0.9977   -3.3189   -1.7921 H   0  0  0  0  0  0  0  0  0  0  0  0
   -1.0259   -3.9757    0.5658 H   0  0  0  0  0  0  0  0  0  0  0  0
   -3.0755   -4.2165    1.8986 H   0  0  0  0  0  0  0  0  0  0  0  0
   -4.0874   -3.5536    0.5848 H   0  0  0  0  0  0  0  0  0  0  0  0
   -2.8745   -2.5099    1.4015 H   0  0  0  0  0  0  0  0  0  0  0  0
   -1.4438   -5.6882   -1.2269 H   0  0  0  0  0  0  0  0  0  0  0  0
   -2.2991   -6.1151    0.2881 H   0  0  0  0  0  0  0  0  0  0  0  0
   -3.2133   -5.4302   -1.0837 H   0  0  0  0  0  0  0  0  0  0  0  0
  1  9  1  0  0  0  0
  2 13  1  0  0  0  0
  3 22  1  0  0  0  0
  4 21  1  0  0  0  0
  6  7  1  0  0  0  0
  8  7  2  0  0  0  0
  8 28  1  0  0  0  0
  9  8  1  0  0  0  0
 10 11  1  0  0  0  0
 10  9  2  0  0  0  0
 11  6  2  0  0  0  0
 12  7  1  6  0  0  0
 12  4  1  0  0  0  0
 12  2  1  0  0  0  0
 13 30  1  1  0  0  0
 14 32  1  0  0  0  0
 14 13  1  0  0  0  0
 15 20  1  0  0  0  0
 15 14  1  0  0  0  0
 16 15  2  0  0  0  0
 17 18  2  0  0  0  0
 17 16  1  0  0  0  0
 18 19  1  0  0  0  0
 19 36  1  0  0  0  0
 19 20  2  0  0  0  0
 20 21  1  0  0  0  0
 21 13  1  0  0  0  0
 21 37  1  1  0  0  0
 22  5  1  0  0  0  0
 22 11  1  6  0  0  0
 23 38  1  0  0  0  0
 23  3  1  0  0  0  0
 23 24  1  0  0  0  0
 24 40  1  6  0  0  0
 24  5  1  0  0  0  0
 24 25  1  0  0  0  0
 25 41  1  0  0  0  0
 25 26  1  0  0  0  0
 26 44  1  0  0  0  0
 26 42  1  0  0  0  0
 27 25  1  0  0  0  0
 27 46  1  0  0  0  0
 29 10  1  0  0  0  0
 31 14  1  0  0  0  0
 33 16  1  0  0  0  0
 34 17  1  0  0  0  0
 35 18  1  0  0  0  0
 39 23  1  0  0  0  0
 43 26  1  0  0  0  0
 45 27  1  0  0  0  0
 47 27  1  0  0  0  0
M  END
