1,2,3
 OpenBabel05122313063D

 73 75  0  0  0  0  0  0  0  0999 V2000
    2.0101   -0.2058    0.5764 N   0  0  0  0  0  2  0  0  0  0  0  0
   -2.0047    0.2006    0.5647 N   0  0  0  0  0  2  0  0  0  0  0  0
   -0.0005    0.0087    2.1318 C   0  0  0  0  0  2  0  0  0  0  0  0
   -1.2378    0.1279    2.8119 C   0  0  0  0  0  0  0  0  0  0  0  0
   -1.2376    0.1296    4.2248 C   0  0  0  0  0  0  0  0  0  0  0  0
   -2.1738    0.2207    4.7990 H   0  0  0  0  0  0  0  0  0  0  0  0
   -0.0088    0.0103    4.9095 C   0  0  0  0  0  0  0  0  0  0  0  0
   -0.0119    0.0117    6.0097 H   0  0  0  0  0  0  0  0  0  0  0  0
    1.2237   -0.1122    4.2320 C   0  0  0  0  0  0  0  0  0  0  0  0
    2.1564   -0.2040    4.8118 H   0  0  0  0  0  0  0  0  0  0  0  0
    1.2322   -0.1139    2.8191 C   0  0  0  0  0  0  0  0  0  0  0  0
    2.3200   -0.2293    1.8664 C   0  0  0  0  0  3  0  0  0  0  0  0
    3.3820   -0.3408    2.1543 H   0  0  0  0  0  0  0  0  0  0  0  0
   -2.3207    0.2354    1.8528 C   0  0  0  0  0  0  0  0  0  0  0  0
   -3.3835    0.3534    2.1351 H   0  0  0  0  0  0  0  0  0  0  0  0
    3.0356   -0.2787   -0.4169 C   0  0  0  0  0  0  0  0  0  0  0  0
    3.8161    0.8737   -0.6998 C   0  0  0  0  0  0  0  0  0  0  0  0
    4.7898    0.7609   -1.7098 C   0  0  0  0  0  0  0  0  0  0  0  0
    5.4156    1.6310   -1.9541 H   0  0  0  0  0  0  0  0  0  0  0  0
    4.9687   -0.4342   -2.4187 C   0  0  0  0  0  0  0  0  0  0  0  0
    5.7390   -0.4960   -3.2024 H   0  0  0  0  0  0  0  0  0  0  0  0
    4.1591   -1.5432   -2.1443 C   0  0  0  0  0  0  0  0  0  0  0  0
    4.2921   -2.4704   -2.7205 H   0  0  0  0  0  0  0  0  0  0  0  0
    3.1715   -1.4875   -1.1450 C   0  0  0  0  0  0  0  0  0  0  0  0
    2.2814   -2.6785   -0.8197 C   0  0  0  0  0  0  0  0  0  0  0  0
    1.3284   -2.2566   -0.4272 H   0  0  0  0  0  0  0  0  0  0  0  0
    2.9016   -3.5374    0.2970 C   0  0  0  0  0  0  0  0  0  0  0  0
    3.8694   -3.9721   -0.0300 H   0  0  0  0  0  0  0  0  0  0  0  0
    2.2252   -4.3725    0.5726 H   0  0  0  0  0  0  0  0  0  0  0  0
    3.0942   -2.9423    1.2123 H   0  0  0  0  0  0  0  0  0  0  0  0
    1.9227   -3.5242   -2.0464 C   0  0  0  0  0  0  0  0  0  0  0  0
    1.4958   -2.8951   -2.8523 H   0  0  0  0  0  0  0  0  0  0  0  0
    1.1670   -4.2882   -1.7726 H   0  0  0  0  0  0  0  0  0  0  0  0
    2.8004   -4.0671   -2.4555 H   0  0  0  0  0  0  0  0  0  0  0  0
    3.5313    2.2064   -0.0125 C   0  0  0  0  0  0  0  0  0  0  0  0
    3.2545    1.9931    1.0415 H   0  0  0  0  0  0  0  0  0  0  0  0
    2.3116    2.8829   -0.6700 C   0  0  0  0  0  0  0  0  0  0  0  0
    2.0675    3.8359   -0.1571 H   0  0  0  0  0  0  0  0  0  0  0  0
    1.4151    2.2288   -0.6303 H   0  0  0  0  0  0  0  0  0  0  0  0
    2.5192    3.1044   -1.7371 H   0  0  0  0  0  0  0  0  0  0  0  0
    4.7361    3.1540    0.0251 C   0  0  0  0  0  0  0  0  0  0  0  0
    5.6331    2.6661    0.4573 H   0  0  0  0  0  0  0  0  0  0  0  0
    4.4997    4.0455    0.6398 H   0  0  0  0  0  0  0  0  0  0  0  0
    5.0033    3.5226   -0.9868 H   0  0  0  0  0  0  0  0  0  0  0  0
   -3.0193    0.2806   -0.4391 C   0  0  0  0  0  0  0  0  0  0  0  0
   -3.1341    1.4908   -1.1704 C   0  0  0  0  0  0  0  0  0  0  0  0
   -4.0951    1.5482   -2.1949 C   0  0  0  0  0  0  0  0  0  0  0  0
   -4.2093    2.4741   -2.7769 H   0  0  0  0  0  0  0  0  0  0  0  0
   -4.9045    0.4432   -2.4852 C   0  0  0  0  0  0  0  0  0  0  0  0
   -5.6521    0.5056   -3.2905 H   0  0  0  0  0  0  0  0  0  0  0  0
   -4.7604   -0.7460   -1.7590 C   0  0  0  0  0  0  0  0  0  0  0  0
   -5.3941   -1.6087   -2.0084 H   0  0  0  0  0  0  0  0  0  0  0  0
   -3.8144   -0.8617   -0.7231 C   0  0  0  0  0  0  0  0  0  0  0  0
   -3.5913   -2.1838    0.0078 C   0  0  0  0  0  0  0  0  0  0  0  0
   -3.3610   -1.9481    1.0684 H   0  0  0  0  0  0  0  0  0  0  0  0
   -2.3607   -2.9132   -0.5661 C   0  0  0  0  0  0  0  0  0  0  0  0
   -2.5151   -3.1511   -1.6387 H   0  0  0  0  0  0  0  0  0  0  0  0
   -2.1798   -3.8627   -0.0215 H   0  0  0  0  0  0  0  0  0  0  0  0
   -1.4464   -2.2896   -0.4875 H   0  0  0  0  0  0  0  0  0  0  0  0
   -4.8213   -3.0996    0.0132 C   0  0  0  0  0  0  0  0  0  0  0  0
   -5.7250   -2.5776    0.3875 H   0  0  0  0  0  0  0  0  0  0  0  0
   -4.6375   -3.9784    0.6632 H   0  0  0  0  0  0  0  0  0  0  0  0
   -5.0490   -3.4907   -1.0000 H   0  0  0  0  0  0  0  0  0  0  0  0
   -2.2619    2.6856   -0.8098 C   0  0  0  0  0  0  0  0  0  0  0  0
   -1.3029    2.2677   -0.4271 H   0  0  0  0  0  0  0  0  0  0  0  0
   -1.9182    3.5809   -2.0052 C   0  0  0  0  0  0  0  0  0  0  0  0
   -1.4826    2.9926   -2.8371 H   0  0  0  0  0  0  0  0  0  0  0  0
   -1.1750    4.3466   -1.7041 H   0  0  0  0  0  0  0  0  0  0  0  0
   -2.8058    4.1236   -2.3924 H   0  0  0  0  0  0  0  0  0  0  0  0
   -2.8983    3.5017    0.3305 C   0  0  0  0  0  0  0  0  0  0  0  0
   -2.2355    4.3390    0.6314 H   0  0  0  0  0  0  0  0  0  0  0  0
   -3.0835    2.8790    1.2285 H   0  0  0  0  0  0  0  0  0  0  0  0
   -3.8718    3.9302    0.0129 H   0  0  0  0  0  0  0  0  0  0  0  0
  1 12  1  0  0  0  0
  2 14  1  0  0  0  0
  3  4  1  0  0  0  0
  3 11  1  0  0  0  0
  4  5  1  0  0  0  0
  5  6  1  0  0  0  0
  5  7  2  0  0  0  0
  7  8  1  0  0  0  0
  9 10  1  0  0  0  0
  9  7  1  0  0  0  0
 11  9  2  0  0  0  0
 12 13  1  0  0  0  0
 12 11  1  0  0  0  0
 14 15  1  0  0  0  0
 14  4  2  0  0  0  0
 16  1  1  0  0  0  0
 17 16  1  0  0  0  0
 17 35  1  0  0  0  0
 18 17  2  0  0  0  0
 19 18  1  0  0  0  0
 20 22  2  0  0  0  0
 20 18  1  0  0  0  0
 21 20  1  0  0  0  0
 22 24  1  0  0  0  0
 23 22  1  0  0  0  0
 24 25  1  0  0  0  0
 24 16  2  0  0  0  0
 25 26  1  0  0  0  0
 25 27  1  0  0  0  0
 27 29  1  0  0  0  0
 27 30  1  0  0  0  0
 28 27  1  0  0  0  0
 31 33  1  0  0  0  0
 31 25  1  0  0  0  0
 32 31  1  0  0  0  0
 34 31  1  0  0  0  0
 35 41  1  0  0  0  0
 35 36  1  0  0  0  0
 37 39  1  0  0  0  0
 37 38  1  0  0  0  0
 37 35  1  0  0  0  0
 40 37  1  0  0  0  0
 41 42  1  0  0  0  0
 41 43  1  0  0  0  0
 44 41  1  0  0  0  0
 45  2  1  0  0  0  0
 46 64  1  0  0  0  0
 46 45  2  0  0  0  0
 47 46  1  0  0  0  0
 48 47  1  0  0  0  0
 49 47  2  0  0  0  0
 49 51  1  0  0  0  0
 50 49  1  0  0  0  0
 51 53  2  0  0  0  0
 52 51  1  0  0  0  0
 53 45  1  0  0  0  0
 53 54  1  0  0  0  0
 54 60  1  0  0  0  0
 54 55  1  0  0  0  0
 56 59  1  0  0  0  0
 56 58  1  0  0  0  0
 56 54  1  0  0  0  0
 57 56  1  0  0  0  0
 60 61  1  0  0  0  0
 60 62  1  0  0  0  0
 63 60  1  0  0  0  0
 64 65  1  0  0  0  0
 64 70  1  0  0  0  0
 66 68  1  0  0  0  0
 66 64  1  0  0  0  0
 67 66  1  0  0  0  0
 69 66  1  0  0  0  0
 70 71  1  0  0  0  0
 70 72  1  0  0  0  0
 73 70  1  0  0  0  0
M  END
