3,5,6
 OpenBabel05122313063D

 41 45  0  0  0  0  0  0  0  0999 V2000
   -1.8542    4.9962   -0.1542 O   0  0  0  0  0  0  0  0  0  0  0  0
    1.8649    2.0110   -0.0825 N   0  0  0  0  0  0  0  0  0  0  0  0
    1.9720   -0.2996   -0.8795 N   0  0  0  0  0  2  0  0  0  0  0  0
   -2.6710    0.1925   -0.0744 N   0  0  0  0  0  0  0  0  0  0  0  0
   -1.1571   -1.5509   -0.8813 N   0  0  0  0  0  2  0  0  0  0  0  0
   -0.3798    1.0384    0.2062 C   0  0  0  0  0  3  0  0  0  0  0  0
    0.4455    2.1825    0.0566 C   0  0  0  0  0  0  0  0  0  0  0  0
   -0.0564    3.4888   -0.0571 C   0  0  0  0  0  0  0  0  0  0  0  0
   -1.4460    3.6984   -0.0648 C   0  0  0  0  0  0  0  0  0  0  0  0
   -2.3100    2.5926   -0.0593 C   0  0  0  0  0  0  0  0  0  0  0  0
   -1.7604    1.2964    0.0592 C   0  0  0  0  0  0  0  0  0  0  0  0
    2.8028    3.0438   -0.0227 C   0  0  0  0  0  0  0  0  0  0  0  0
    3.9857    2.6755   -0.6275 C   0  0  0  0  0  0  0  0  0  0  0  0
    3.8021    1.3343   -1.1066 C   0  0  0  0  0  0  0  0  0  0  0  0
    4.5839    0.3985   -1.8054 C   0  0  0  0  0  0  0  0  0  0  0  0
    4.0162   -0.8538   -2.0730 C   0  0  0  0  0  0  0  0  0  0  0  0
    2.7356   -1.1669   -1.5857 C   0  0  0  0  0  3  0  0  0  0  0  0
    2.4786    0.9399   -0.7174 C   0  0  0  0  0  0  0  0  0  0  0  0
   -4.0620    0.2879   -0.0013 C   0  0  0  0  0  0  0  0  0  0  0  0
   -4.6670   -0.7946   -0.6046 C   0  0  0  0  0  0  0  0  0  0  0  0
   -3.6103   -1.6348   -1.0942 C   0  0  0  0  0  0  0  0  0  0  0  0
   -3.5326   -2.8509   -1.7947 C   0  0  0  0  0  0  0  0  0  0  0  0
   -2.2582   -3.3629   -2.0705 C   0  0  0  0  0  0  0  0  0  0  0  0
   -1.1133   -2.7045   -1.5888 C   0  0  0  0  0  3  0  0  0  0  0  0
   -2.3790   -1.0051   -0.7128 C   0  0  0  0  0  0  0  0  0  0  0  0
   -3.2416    5.2582   -0.2087 C   0  0  0  0  0  0  0  0  0  0  0  0
    0.5884    4.3653   -0.1976 H   0  0  0  0  0  0  0  0  0  0  0  0
   -3.3865    2.7320   -0.2070 H   0  0  0  0  0  0  0  0  0  0  0  0
    2.5412    3.9835    0.4723 H   0  0  0  0  0  0  0  0  0  0  0  0
    4.8913    3.2864   -0.7006 H   0  0  0  0  0  0  0  0  0  0  0  0
    5.6079    0.6406   -2.1269 H   0  0  0  0  0  0  0  0  0  0  0  0
    4.5761   -1.6238   -2.6218 H   0  0  0  0  0  0  0  0  0  0  0  0
    2.3200   -2.1765   -1.7120 H   0  0  0  0  0  0  0  0  0  0  0  0
   -4.5197    1.1419    0.5066 H   0  0  0  0  0  0  0  0  0  0  0  0
   -5.7440   -0.9813   -0.6670 H   0  0  0  0  0  0  0  0  0  0  0  0
   -4.4417   -3.3842   -2.1104 H   0  0  0  0  0  0  0  0  0  0  0  0
   -2.1338   -4.3060   -2.6205 H   0  0  0  0  0  0  0  0  0  0  0  0
   -0.1161   -3.1472   -1.7206 H   0  0  0  0  0  0  0  0  0  0  0  0
   -3.7142    4.8219   -1.1183 H   0  0  0  0  0  0  0  0  0  0  0  0
   -3.7739    4.8686    0.6888 H   0  0  0  0  0  0  0  0  0  0  0  0
   -3.3532    6.3579   -0.2425 H   0  0  0  0  0  0  0  0  0  0  0  0
  1  9  1  0  0  0  0
  2 12  1  0  0  0  0
  2  7  1  0  0  0  0
  3 18  1  0  0  0  0
  4 19  1  0  0  0  0
  4 11  1  0  0  0  0
  5 25  1  0  0  0  0
  7  6  2  0  0  0  0
  8  7  1  0  0  0  0
  9 10  1  0  0  0  0
  9  8  2  0  0  0  0
 10 11  2  0  0  0  0
 11  6  1  0  0  0  0
 12 29  1  0  0  0  0
 13 12  2  0  0  0  0
 14 18  2  0  0  0  0
 14 13  1  0  0  0  0
 15 14  1  0  0  0  0
 16 15  2  0  0  0  0
 16 17  1  0  0  0  0
 17  3  1  0  0  0  0
 18  2  1  0  0  0  0
 19 34  1  0  0  0  0
 20 19  2  0  0  0  0
 21 25  2  0  0  0  0
 21 20  1  0  0  0  0
 22 21  1  0  0  0  0
 23 22  2  0  0  0  0
 23 24  1  0  0  0  0
 24  5  1  0  0  0  0
 25  4  1  0  0  0  0
 26  1  1  0  0  0  0
 26 40  1  0  0  0  0
 27  8  1  0  0  0  0
 28 10  1  0  0  0  0
 30 13  1  0  0  0  0
 31 15  1  0  0  0  0
 32 16  1  0  0  0  0
 33 17  1  0  0  0  0
 35 20  1  0  0  0  0
 36 22  1  0  0  0  0
 37 23  1  0  0  0  0
 38 24  1  0  0  0  0
 39 26  1  0  0  0  0
 41 26  1  0  0  0  0
M  END
