5,7,8
 OpenBabel05122313063D

 40 44  0  0  0  0  0  0  0  0999 V2000
    5.7097    1.0949    0.4649 F   0  0  0  0  0  0  0  0  0  0  0  0
    5.5362   -0.0007   -1.4107 F   0  0  0  0  0  0  0  0  0  0  0  0
    5.7097   -1.0941    0.4660 F   0  0  0  0  0  0  0  0  0  0  0  0
    0.8585   -2.4458   -0.0468 N   0  0  0  0  0  0  0  0  0  0  0  0
   -1.3080   -1.6787   -0.8847 N   0  0  0  0  0  2  0  0  0  0  0  0
    0.8584    2.4459   -0.0468 N   0  0  0  0  0  0  0  0  0  0  0  0
   -1.3081    1.6786   -0.8847 N   0  0  0  0  0  2  0  0  0  0  0  0
    0.7943    0.0000    0.2359 C   0  0  0  0  0  3  0  0  0  0  0  0
    1.5454   -1.1948    0.1015 C   0  0  0  0  0  0  0  0  0  0  0  0
    2.9501   -1.2118    0.0235 C   0  0  0  0  0  0  0  0  0  0  0  0
    3.6503    0.0001    0.0315 C   0  0  0  0  0  0  0  0  0  0  0  0
    2.9501    1.2120    0.0236 C   0  0  0  0  0  0  0  0  0  0  0  0
    1.5454    1.1949    0.1015 C   0  0  0  0  0  0  0  0  0  0  0  0
    1.4652   -3.7032    0.0208 C   0  0  0  0  0  0  0  0  0  0  0  0
    0.6935   -4.6592   -0.6032 C   0  0  0  0  0  0  0  0  0  0  0  0
   -0.4722   -3.9856   -1.1041 C   0  0  0  0  0  0  0  0  0  0  0  0
   -1.6182   -4.3582   -1.8274 C   0  0  0  0  0  0  0  0  0  0  0  0
   -2.5622   -3.3624   -2.1096 C   0  0  0  0  0  0  0  0  0  0  0  0
   -2.3840   -2.0594   -1.6139 C   0  0  0  0  0  3  0  0  0  0  0  0
   -0.3518   -2.6130   -0.7075 C   0  0  0  0  0  0  0  0  0  0  0  0
    1.4651    3.7033    0.0207 C   0  0  0  0  0  0  0  0  0  0  0  0
    0.6933    4.6593   -0.6032 C   0  0  0  0  0  0  0  0  0  0  0  0
   -0.4723    3.9856   -1.1041 C   0  0  0  0  0  0  0  0  0  0  0  0
   -1.6184    4.3582   -1.8274 C   0  0  0  0  0  0  0  0  0  0  0  0
   -2.5624    3.3623   -2.1095 C   0  0  0  0  0  0  0  0  0  0  0  0
   -2.3841    2.0594   -1.6138 C   0  0  0  0  0  3  0  0  0  0  0  0
   -0.3519    2.6130   -0.7074 C   0  0  0  0  0  0  0  0  0  0  0  0
    5.1512    0.0001   -0.1073 C   0  0  0  0  0  0  0  0  0  0  0  0
    3.5117   -2.1491   -0.0757 H   0  0  0  0  0  0  0  0  0  0  0  0
    3.5117    2.1492   -0.0757 H   0  0  0  0  0  0  0  0  0  0  0  0
    2.4231   -3.8169    0.5366 H   0  0  0  0  0  0  0  0  0  0  0  0
    0.9228   -5.7274   -0.6751 H   0  0  0  0  0  0  0  0  0  0  0  0
   -1.7700   -5.3970   -2.1563 H   0  0  0  0  0  0  0  0  0  0  0  0
   -3.4744   -3.5919   -2.6775 H   0  0  0  0  0  0  0  0  0  0  0  0
   -3.1618   -1.2958   -1.7536 H   0  0  0  0  0  0  0  0  0  0  0  0
    2.4230    3.8170    0.5365 H   0  0  0  0  0  0  0  0  0  0  0  0
    0.9226    5.7274   -0.6751 H   0  0  0  0  0  0  0  0  0  0  0  0
   -1.7702    5.3970   -2.1563 H   0  0  0  0  0  0  0  0  0  0  0  0
   -3.4746    3.5919   -2.6774 H   0  0  0  0  0  0  0  0  0  0  0  0
   -3.1619    1.2957   -1.7535 H   0  0  0  0  0  0  0  0  0  0  0  0
  2 28  1  0  0  0  0
  4 14  1  0  0  0  0
  4  9  1  0  0  0  0
  5 20  1  0  0  0  0
  6 21  1  0  0  0  0
  6 13  1  0  0  0  0
  7 27  1  0  0  0  0
  9  8  2  0  0  0  0
 10 11  2  0  0  0  0
 10  9  1  0  0  0  0
 12 11  1  0  0  0  0
 12 13  2  0  0  0  0
 13  8  1  0  0  0  0
 14 31  1  0  0  0  0
 15 14  2  0  0  0  0
 16 20  2  0  0  0  0
 16 15  1  0  0  0  0
 17 16  1  0  0  0  0
 18 17  2  0  0  0  0
 18 19  1  0  0  0  0
 19  5  1  0  0  0  0
 20  4  1  0  0  0  0
 21 36  1  0  0  0  0
 22 21  2  0  0  0  0
 23 27  2  0  0  0  0
 23 22  1  0  0  0  0
 24 23  1  0  0  0  0
 25 24  2  0  0  0  0
 25 26  1  0  0  0  0
 26  7  1  0  0  0  0
 27  6  1  0  0  0  0
 28 11  1  0  0  0  0
 28  1  1  0  0  0  0
 28  3  1  0  0  0  0
 29 10  1  0  0  0  0
 30 12  1  0  0  0  0
 32 15  1  0  0  0  0
 33 17  1  0  0  0  0
 34 18  1  0  0  0  0
 35 19  1  0  0  0  0
 37 22  1  0  0  0  0
 38 24  1  0  0  0  0
 39 25  1  0  0  0  0
 40 26  1  0  0  0  0
M  END
