7,11,17
 OpenBabel05122313063D

 32 34  0  0  1  0  0  0  0  0999 V2000
   -4.0985    0.2112    1.2880 C   0  0  0  0  0  0  0  0  0  0  0  0
    0.4199   -3.5145   -0.1454 O   0  0  0  0  0  0  0  0  0  0  0  0
   -4.9545    0.9504    2.0265 F   0  0  0  0  0  0  0  0  0  0  0  0
   -1.8626   -3.3263   -1.3410 F   0  0  0  0  0  0  0  0  0  0  0  0
   -4.4923   -1.0585    0.8542 C   0  0  0  0  0  0  0  0  0  0  0  0
   -5.4887   -1.4411    1.1160 H   0  0  0  0  0  0  0  0  0  0  0  0
    0.6962   -1.2073    0.0283 N   0  0  0  0  0  2  0  0  0  0  0  0
   -1.0580   -1.4764   -2.2294 F   0  0  0  0  0  0  0  0  0  0  0  0
   -3.5840   -1.8086    0.0958 C   0  0  0  0  0  0  0  0  0  0  0  0
   -3.8535   -2.8137   -0.2582 H   0  0  0  0  0  0  0  0  0  0  0  0
    1.9985    1.1289   -0.1626 N   0  0  0  0  0  2  0  0  0  0  0  0
    2.0531   -1.2185    0.3506 C   0  0  0  0  0  0  0  0  0  0  0  0
    0.0266   -2.3610   -0.3019 C   0  0  0  0  0  0  0  0  0  0  0  0
   -1.3361   -2.1120   -1.0232 C   0  0  0  0  0  0  0  0  0  0  0  0
   -2.8389    0.7455    0.9830 C   0  0  0  0  0  0  0  0  0  0  0  0
   -2.5952    1.7440    1.3730 H   0  0  0  0  0  0  0  0  0  0  0  0
   -1.9273   -0.0072    0.2191 C   0  0  0  0  0  3  0  0  0  0  0  0
   -2.3150   -1.2917   -0.2212 C   0  0  0  0  0  0  0  0  0  0  0  0
    2.8134   -2.3361    0.7425 C   0  0  0  0  0  0  0  0  0  0  0  0
    2.3075   -3.3029    0.8321 H   0  0  0  0  0  0  0  0  0  0  0  0
    4.2006   -2.2131    0.9936 C   0  0  0  0  0  0  0  0  0  0  0  0
    4.7544   -3.1134    1.3015 H   0  0  0  0  0  0  0  0  0  0  0  0
    4.8754   -1.0046    0.8666 C   0  0  0  0  0  0  0  0  0  0  0  0
    5.9541   -0.9256    1.0669 H   0  0  0  0  0  0  0  0  0  0  0  0
    4.1523    0.1535    0.4716 C   0  0  0  0  0  0  0  0  0  0  0  0
    2.7406    0.0410    0.2224 C   0  0  1  0  0  3  0  0  0  0  0  0
    2.5815    2.3177   -0.3199 C   0  0  0  0  0  0  0  0  0  0  0  0
    1.9287    3.1473   -0.6328 H   0  0  0  0  0  0  0  0  0  0  0  0
    3.9638    2.5157   -0.0958 C   0  0  0  0  0  0  0  0  0  0  0  0
    4.3988    3.5151   -0.2379 H   0  0  0  0  0  0  0  0  0  0  0  0
    4.7416    1.4375    0.3021 C   0  0  0  0  0  0  0  0  0  0  0  0
    5.8201    1.5590    0.4887 H   0  0  0  0  0  0  0  0  0  0  0  0
  1  3  1  0  0  0  0
  4 14  1  0  0  0  0
  5  6  1  0  0  0  0
  5  1  2  0  0  0  0
  7 12  1  0  0  0  0
  8 14  1  0  0  0  0
  9  5  1  0  0  0  0
 10  9  1  0  0  0  0
 12 19  2  0  0  0  0
 13  2  2  0  0  0  0
 13  7  1  0  0  0  0
 14 13  1  0  0  0  0
 14 18  1  0  0  0  0
 15  1  1  0  0  0  0
 15 16  1  0  0  0  0
 17 15  2  0  0  0  0
 18  9  2  0  0  0  0
 18 17  1  0  0  0  0
 19 20  1  0  0  0  0
 19 21  1  0  0  0  0
 21 22  1  0  0  0  0
 23 21  2  0  0  0  0
 23 24  1  0  0  0  0
 25 23  1  0  0  0  0
 26 11  1  6  0  0  0
 26 12  1  0  0  0  0
 26 25  1  0  0  0  0
 27 11  1  0  0  0  0
 27 29  2  0  0  0  0
 28 27  1  0  0  0  0
 29 31  1  0  0  0  0
 30 29  1  0  0  0  0
 31 25  2  0  0  0  0
 31 32  1  0  0  0  0
M  END
