1,18,19
 OpenBabel05122313063D

 32 33  0  0  1  0  0  0  0  0999 V2000
   -0.8357    1.5245   -0.1988 N   0  0  0  0  0  2  0  0  0  0  0  0
   -2.1561    1.1971   -0.0544 N   0  0  0  0  0  0  0  0  0  0  0  0
   -1.6996    0.0003    3.0153 O   0  0  0  0  0  0  0  0  0  0  0  0
   -0.8076    2.7052   -0.8590 C   0  0  1  0  0  3  0  0  0  0  0  0
   -2.1379    3.1156   -1.1285 C   0  0  0  0  0  0  0  0  0  0  0  0
   -2.4446    4.0291   -1.6483 H   0  0  0  0  0  0  0  0  0  0  0  0
   -2.9828    2.1377   -0.6021 C   0  0  0  0  0  0  0  0  0  0  0  0
    0.4527    3.4263   -1.1939 C   0  0  0  0  0  0  0  0  0  0  0  0
    0.9054    3.8848   -0.2918 H   0  0  0  0  0  0  0  0  0  0  0  0
    0.2475    4.2304   -1.9243 H   0  0  0  0  0  0  0  0  0  0  0  0
    1.2008    2.7269   -1.6199 H   0  0  0  0  0  0  0  0  0  0  0  0
   -4.4705    2.0299   -0.5799 C   0  0  0  0  0  0  0  0  0  0  0  0
   -4.8301    1.1343   -1.1286 H   0  0  0  0  0  0  0  0  0  0  0  0
   -4.9158    2.9193   -1.0613 H   0  0  0  0  0  0  0  0  0  0  0  0
   -4.8692    1.9727    0.4545 H   0  0  0  0  0  0  0  0  0  0  0  0
   -2.4180    0.0001    0.7013 C   0  0  2  0  0  0  0  0  0  0  0  0
   -3.4470    0.0001    1.0994 H   0  0  0  0  0  0  0  0  0  0  0  0
   -1.3103    0.0001    1.8719 C   0  0  0  0  0  3  0  0  0  0  0  0
   -0.8357   -1.5245   -0.1986 N   0  0  0  0  0  2  0  0  0  0  0  0
   -2.1562   -1.1971   -0.0542 N   0  0  0  0  0  0  0  0  0  0  0  0
   -0.8076   -2.7053   -0.8586 C   0  0  2  0  0  3  0  0  0  0  0  0
   -2.1379   -3.1158   -1.1280 C   0  0  0  0  0  0  0  0  0  0  0  0
   -2.4446   -4.0293   -1.6477 H   0  0  0  0  0  0  0  0  0  0  0  0
   -2.9829   -2.1378   -0.6017 C   0  0  0  0  0  0  0  0  0  0  0  0
    0.4527   -3.4263   -1.1937 C   0  0  0  0  0  0  0  0  0  0  0  0
    0.9056   -3.8846   -0.2916 H   0  0  0  0  0  0  0  0  0  0  0  0
    0.2474   -4.2306   -1.9239 H   0  0  0  0  0  0  0  0  0  0  0  0
    1.2006   -2.7269   -1.6200 H   0  0  0  0  0  0  0  0  0  0  0  0
   -4.4706   -2.0301   -0.5794 C   0  0  0  0  0  0  0  0  0  0  0  0
   -4.8302   -1.1345   -1.1282 H   0  0  0  0  0  0  0  0  0  0  0  0
   -4.9159   -2.9195   -1.0607 H   0  0  0  0  0  0  0  0  0  0  0  0
   -4.8692   -1.9727    0.4550 H   0  0  0  0  0  0  0  0  0  0  0  0
  1  2  1  0  0  0  0
  2 16  1  0  0  0  0
  4  8  1  1  0  0  0
  4  1  1  0  0  0  0
  5  4  1  0  0  0  0
  5  7  2  0  0  0  0
  6  5  1  0  0  0  0
  7 12  1  0  0  0  0
  7  2  1  0  0  0  0
  8  9  1  0  0  0  0
 10  8  1  0  0  0  0
 11  8  1  0  0  0  0
 12 15  1  0  0  0  0
 13 12  1  0  0  0  0
 14 12  1  0  0  0  0
 16 17  1  1  0  0  0
 16 18  1  0  0  0  0
 18  3  2  0  0  0  0
 19 20  1  0  0  0  0
 20 16  1  0  0  0  0
 21 25  1  1  0  0  0
 21 19  1  0  0  0  0
 22 21  1  0  0  0  0
 22 24  2  0  0  0  0
 23 22  1  0  0  0  0
 24 29  1  0  0  0  0
 24 20  1  0  0  0  0
 25 26  1  0  0  0  0
 27 25  1  0  0  0  0
 28 25  1  0  0  0  0
 29 32  1  0  0  0  0
 30 29  1  0  0  0  0
 31 29  1  0  0  0  0
M  END
