1,3,17
 OpenBabel05122313063D

 30 31  0  0  1  0  0  0  0  0999 V2000
   -0.5476    1.5360    0.5175 N   0  0  0  0  0  2  0  0  0  0  0  0
   -1.5902    1.2196   -0.2844 N   0  0  0  0  0  0  0  0  0  0  0  0
   -0.5904   -1.5124    0.5342 N   0  0  0  0  0  2  0  0  0  0  0  0
   -1.6179   -1.1825   -0.2821 N   0  0  0  0  0  0  0  0  0  0  0  0
   -0.8805    2.6292    1.2205 C   0  0  2  0  0  3  0  0  0  0  0  0
   -2.1965    3.0138    0.8389 C   0  0  0  0  0  0  0  0  0  0  0  0
   -2.7656    3.8691    1.2189 H   0  0  0  0  0  0  0  0  0  0  0  0
   -2.6308    2.0947   -0.1255 C   0  0  0  0  0  0  0  0  0  0  0  0
    0.0852    3.2546    2.1717 C   0  0  0  0  0  0  0  0  0  0  0  0
    0.8100    2.4934    2.5219 H   0  0  0  0  0  0  0  0  0  0  0  0
   -0.4379    3.6982    3.0401 H   0  0  0  0  0  0  0  0  0  0  0  0
    0.6596    4.0638    1.6734 H   0  0  0  0  0  0  0  0  0  0  0  0
   -3.9186    1.9741   -0.8684 C   0  0  0  0  0  0  0  0  0  0  0  0
   -3.7635    1.5858   -1.8947 H   0  0  0  0  0  0  0  0  0  0  0  0
   -4.4128    2.9603   -0.9457 H   0  0  0  0  0  0  0  0  0  0  0  0
   -4.6260    1.2887   -0.3545 H   0  0  0  0  0  0  0  0  0  0  0  0
   -1.2666    0.0131   -1.0233 C   0  0  0  0  0  3  0  0  0  0  0  0
   -1.6500    0.0161   -2.0572 H   0  0  0  0  0  0  0  0  0  0  0  0
   -0.9541   -2.5906    1.2445 C   0  0  1  0  0  3  0  0  0  0  0  0
   -2.2745   -2.9513    0.8520 C   0  0  0  0  0  0  0  0  0  0  0  0
   -2.8665   -3.7901    1.2337 H   0  0  0  0  0  0  0  0  0  0  0  0
   -2.6782   -2.0344   -0.1271 C   0  0  0  0  0  0  0  0  0  0  0  0
   -0.0130   -3.2261    2.2136 C   0  0  0  0  0  0  0  0  0  0  0  0
    0.7385   -2.4830    2.5455 H   0  0  0  0  0  0  0  0  0  0  0  0
    0.5309   -4.0695    1.7385 H   0  0  0  0  0  0  0  0  0  0  0  0
   -0.5532   -3.6268    3.0926 H   0  0  0  0  0  0  0  0  0  0  0  0
   -3.9442   -1.9071   -0.9052 C   0  0  0  0  0  0  0  0  0  0  0  0
   -4.5848   -2.7917   -0.7367 H   0  0  0  0  0  0  0  0  0  0  0  0
   -3.7481   -1.8293   -1.9944 H   0  0  0  0  0  0  0  0  0  0  0  0
   -4.5242   -1.0084   -0.6083 H   0  0  0  0  0  0  0  0  0  0  0  0
  1  5  1  0  0  0  0
  2  8  1  0  0  0  0
  2  1  1  0  0  0  0
  3 19  1  0  0  0  0
  4 22  1  0  0  0  0
  4  3  1  0  0  0  0
  5  9  1  6  0  0  0
  6  7  1  0  0  0  0
  6  5  1  0  0  0  0
  8  6  2  0  0  0  0
  9 10  1  0  0  0  0
  9 11  1  0  0  0  0
 12  9  1  0  0  0  0
 13 16  1  0  0  0  0
 13  8  1  0  0  0  0
 14 13  1  0  0  0  0
 15 13  1  0  0  0  0
 17  2  1  0  0  0  0
 17  4  1  0  0  0  0
 18 17  1  0  0  0  0
 19 23  1  6  0  0  0
 20 21  1  0  0  0  0
 20 19  1  0  0  0  0
 22 20  2  0  0  0  0
 23 24  1  0  0  0  0
 23 26  1  0  0  0  0
 25 23  1  0  0  0  0
 27 28  1  0  0  0  0
 27 30  1  0  0  0  0
 27 22  1  0  0  0  0
 29 27  1  0  0  0  0
M  END
