3,4,5
 OpenBabel05122313063D

 41 44  0  0  0  0  0  0  0  0999 V2000
   -0.7714    2.3129   -0.1363 N   0  0  0  0  0  0  0  0  0  0  0  0
   -2.7397    1.4033   -0.3678 N   0  0  0  0  0  0  0  0  0  0  0  0
    1.0635    1.0167   -0.0197 N   0  0  0  0  0  2  0  0  0  0  0  0
    1.6185   -1.5662   -0.0634 N   0  0  0  0  0  2  0  0  0  0  0  0
   -1.4366    1.0830   -0.2492 C   0  0  0  0  0  2  0  0  0  0  0  0
   -2.9127    2.7887   -0.3225 C   0  0  0  0  0  0  0  0  0  0  0  0
   -3.9035    3.2468   -0.4019 H   0  0  0  0  0  0  0  0  0  0  0  0
   -1.6793    3.3665   -0.1822 C   0  0  0  0  0  0  0  0  0  0  0  0
   -1.3850    4.4179   -0.1200 H   0  0  0  0  0  0  0  0  0  0  0  0
    0.6269    2.2829   -0.0115 C   0  0  0  0  0  0  0  0  0  0  0  0
    1.5428    3.3513    0.1117 C   0  0  0  0  0  0  0  0  0  0  0  0
    1.1953    4.3930    0.1193 H   0  0  0  0  0  0  0  0  0  0  0  0
    2.9047    3.0501    0.2235 C   0  0  0  0  0  0  0  0  0  0  0  0
    3.6305    3.8713    0.3200 H   0  0  0  0  0  0  0  0  0  0  0  0
    3.3692    1.7014    0.2150 C   0  0  0  0  0  0  0  0  0  0  0  0
    2.3737    0.6998    0.0874 C   0  0  0  0  0  0  0  0  0  0  0  0
    2.6754   -0.6981    0.0636 C   0  0  0  0  0  0  0  0  0  0  0  0
    4.0291   -1.1120    0.1708 C   0  0  0  0  0  0  0  0  0  0  0  0
    4.2638   -2.5145    0.1402 C   0  0  0  0  0  0  0  0  0  0  0  0
    5.2912   -2.9011    0.2187 H   0  0  0  0  0  0  0  0  0  0  0  0
    3.1847   -3.3855    0.0106 C   0  0  0  0  0  0  0  0  0  0  0  0
    3.3390   -4.4734   -0.0159 H   0  0  0  0  0  0  0  0  0  0  0  0
    1.8656   -2.8777   -0.0894 C   0  0  0  0  0  0  0  0  0  0  0  0
    0.9830   -3.5303   -0.1929 H   0  0  0  0  0  0  0  0  0  0  0  0
    4.7333    1.2533    0.3219 C   0  0  0  0  0  0  0  0  0  0  0  0
    5.5333    2.0015    0.4221 H   0  0  0  0  0  0  0  0  0  0  0  0
    5.0434   -0.0926    0.3001 C   0  0  0  0  0  0  0  0  0  0  0  0
    6.0928   -0.4123    0.3830 H   0  0  0  0  0  0  0  0  0  0  0  0
   -3.8436    0.4324   -0.4443 C   0  0  0  0  0  0  0  0  0  0  0  0
   -3.4314   -0.4766   -0.9220 H   0  0  0  0  0  0  0  0  0  0  0  0
   -4.6147    0.8698   -1.1101 H   0  0  0  0  0  0  0  0  0  0  0  0
   -4.4167    0.1108    0.9391 C   0  0  0  0  0  0  0  0  0  0  0  0
   -4.6883    1.0603    1.4495 H   0  0  0  0  0  0  0  0  0  0  0  0
   -3.6135   -0.3649    1.5425 H   0  0  0  0  0  0  0  0  0  0  0  0
   -5.6432   -0.8107    0.8803 C   0  0  0  0  0  0  0  0  0  0  0  0
   -6.0379   -0.9072    1.9134 H   0  0  0  0  0  0  0  0  0  0  0  0
   -6.4497   -0.3089    0.3004 H   0  0  0  0  0  0  0  0  0  0  0  0
   -5.3742   -2.2033    0.3052 C   0  0  0  0  0  0  0  0  0  0  0  0
   -5.0794   -2.1709   -0.7635 H   0  0  0  0  0  0  0  0  0  0  0  0
   -6.2793   -2.8381    0.3735 H   0  0  0  0  0  0  0  0  0  0  0  0
   -4.5564   -2.7148    0.8522 H   0  0  0  0  0  0  0  0  0  0  0  0
  1 10  1  0  0  0  0
  2  6  1  0  0  0  0
  2  5  1  0  0  0  0
  3 10  1  0  0  0  0
  3 16  1  0  0  0  0
  4 17  1  0  0  0  0
  5  1  1  0  0  0  0
  6  8  2  0  0  0  0
  7  6  1  0  0  0  0
  8  1  1  0  0  0  0
  8  9  1  0  0  0  0
 10 11  2  0  0  0  0
 11 12  1  0  0  0  0
 11 13  1  0  0  0  0
 13 14  1  0  0  0  0
 15 13  2  0  0  0  0
 15 25  1  0  0  0  0
 16 15  1  0  0  0  0
 17 16  2  0  0  0  0
 17 18  1  0  0  0  0
 18 27  1  0  0  0  0
 19 18  2  0  0  0  0
 19 20  1  0  0  0  0
 21 19  1  0  0  0  0
 22 21  1  0  0  0  0
 23  4  1  0  0  0  0
 23 21  2  0  0  0  0
 24 23  1  0  0  0  0
 25 26  1  0  0  0  0
 27 25  2  0  0  0  0
 27 28  1  0  0  0  0
 29  2  1  0  0  0  0
 29 32  1  0  0  0  0
 30 29  1  0  0  0  0
 31 29  1  0  0  0  0
 32 33  1  0  0  0  0
 32 34  1  0  0  0  0
 35 32  1  0  0  0  0
 35 36  1  0  0  0  0
 37 35  1  0  0  0  0
 38 40  1  0  0  0  0
 38 41  1  0  0  0  0
 38 35  1  0  0  0  0
 39 38  1  0  0  0  0
M  END
