1,2,3
 OpenBabel05122313063D

 45 45  0  0  0  0  0  0  0  0999 V2000
    2.1114   -0.3590    0.0622 N   0  0  0  0  0  0  0  0  0  0  0  0
   -2.1148   -0.2938   -0.0607 N   0  0  0  0  0  0  0  0  0  0  0  0
    0.0246    1.3409   -0.0034 C   0  0  0  0  0  3  0  0  0  0  0  0
    1.2563    2.0132   -0.1091 C   0  0  0  0  0  0  0  0  0  0  0  0
    1.2818    3.4184   -0.1061 C   0  0  0  0  0  0  0  0  0  0  0  0
    2.2315    3.9740   -0.1835 H   0  0  0  0  0  0  0  0  0  0  0  0
    0.0670    4.1296   -0.0149 C   0  0  0  0  0  0  0  0  0  0  0  0
    0.0837    5.2301   -0.0192 H   0  0  0  0  0  0  0  0  0  0  0  0
   -1.1688    3.4565    0.0808 C   0  0  0  0  0  0  0  0  0  0  0  0
   -2.1012    4.0413    0.1525 H   0  0  0  0  0  0  0  0  0  0  0  0
   -1.1866    2.0509    0.0951 C   0  0  0  0  0  0  0  0  0  0  0  0
    2.4367    1.0920   -0.3053 C   0  0  0  0  0  0  0  0  0  0  0  0
    3.3459    1.4012    0.2577 H   0  0  0  0  0  0  0  0  0  0  0  0
    2.7195    1.0903   -1.3773 H   0  0  0  0  0  0  0  0  0  0  0  0
   -2.3974    1.1696    0.2921 C   0  0  0  0  0  0  0  0  0  0  0  0
   -3.2911    1.5026   -0.2816 H   0  0  0  0  0  0  0  0  0  0  0  0
   -2.6890    1.1878    1.3613 H   0  0  0  0  0  0  0  0  0  0  0  0
    2.8435   -1.2782   -0.8673 C   0  0  0  0  0  0  0  0  0  0  0  0
    2.7580   -2.2903   -0.4280 H   0  0  0  0  0  0  0  0  0  0  0  0
    3.9229   -0.9981   -0.8487 H   0  0  0  0  0  0  0  0  0  0  0  0
    2.3066   -1.3031   -2.2896 C   0  0  0  0  0  0  0  0  0  0  0  0
    2.8914   -2.0289   -2.8894 H   0  0  0  0  0  0  0  0  0  0  0  0
    2.3770   -0.3190   -2.7943 H   0  0  0  0  0  0  0  0  0  0  0  0
    1.2428   -1.6137   -2.2816 H   0  0  0  0  0  0  0  0  0  0  0  0
    2.5936   -0.6511    1.4542 C   0  0  0  0  0  0  0  0  0  0  0  0
    3.7046   -0.5430    1.4540 H   0  0  0  0  0  0  0  0  0  0  0  0
    2.3612   -1.7184    1.6383 H   0  0  0  0  0  0  0  0  0  0  0  0
    1.9811    0.2114    2.5471 C   0  0  0  0  0  0  0  0  0  0  0  0
    2.3967   -0.0994    3.5264 H   0  0  0  0  0  0  0  0  0  0  0  0
    0.8804    0.0869    2.5619 H   0  0  0  0  0  0  0  0  0  0  0  0
    2.1959    1.2890    2.4097 H   0  0  0  0  0  0  0  0  0  0  0  0
   -2.6067   -0.5837   -1.4495 C   0  0  0  0  0  0  0  0  0  0  0  0
   -3.7130   -0.4360   -1.4508 H   0  0  0  0  0  0  0  0  0  0  0  0
   -2.4133   -1.6606   -1.6221 H   0  0  0  0  0  0  0  0  0  0  0  0
   -1.9624    0.2442   -2.5507 C   0  0  0  0  0  0  0  0  0  0  0  0
   -2.3913   -0.0586   -3.5268 H   0  0  0  0  0  0  0  0  0  0  0  0
   -0.8674    0.0766   -2.5655 H   0  0  0  0  0  0  0  0  0  0  0  0
   -2.1343    1.3307   -2.4224 H   0  0  0  0  0  0  0  0  0  0  0  0
   -2.8642   -1.1923    0.8757 C   0  0  0  0  0  0  0  0  0  0  0  0
   -2.7552   -2.2147    0.4664 H   0  0  0  0  0  0  0  0  0  0  0  0
   -3.9455   -0.9228    0.8211 H   0  0  0  0  0  0  0  0  0  0  0  0
   -2.3703   -1.1716    2.3139 C   0  0  0  0  0  0  0  0  0  0  0  0
   -2.9430   -1.9126    2.9065 H   0  0  0  0  0  0  0  0  0  0  0  0
   -2.4985   -0.1850    2.8021 H   0  0  0  0  0  0  0  0  0  0  0  0
   -1.2957   -1.4395    2.3461 H   0  0  0  0  0  0  0  0  0  0  0  0
  1 25  1  0  0  0  0
  2 15  1  0  0  0  0
  2 39  1  0  0  0  0
  3 11  1  0  0  0  0
  4  5  1  0  0  0  0
  4  3  2  0  0  0  0
  5  7  2  0  0  0  0
  6  5  1  0  0  0  0
  7  9  1  0  0  0  0
  8  7  1  0  0  0  0
  9 11  2  0  0  0  0
  9 10  1  0  0  0  0
 11 15  1  0  0  0  0
 12  4  1  0  0  0  0
 12  1  1  0  0  0  0
 12 13  1  0  0  0  0
 14 12  1  0  0  0  0
 15 17  1  0  0  0  0
 16 15  1  0  0  0  0
 18 20  1  0  0  0  0
 18 19  1  0  0  0  0
 18  1  1  0  0  0  0
 21 24  1  0  0  0  0
 21 18  1  0  0  0  0
 22 21  1  0  0  0  0
 23 21  1  0  0  0  0
 25 27  1  0  0  0  0
 25 28  1  0  0  0  0
 26 25  1  0  0  0  0
 28 30  1  0  0  0  0
 28 29  1  0  0  0  0
 31 28  1  0  0  0  0
 32  2  1  0  0  0  0
 33 32  1  0  0  0  0
 34 32  1  0  0  0  0
 35 38  1  0  0  0  0
 35 32  1  0  0  0  0
 36 35  1  0  0  0  0
 37 35  1  0  0  0  0
 39 42  1  0  0  0  0
 40 39  1  0  0  0  0
 41 39  1  0  0  0  0
 42 45  1  0  0  0  0
 42 44  1  0  0  0  0
 42 43  1  0  0  0  0
M  END
