3,5,7
 OpenBabel05122313063D

 83 89  0  0  1  0  0  0  0  0999 V2000
   -2.4243    2.4140   -0.3048 O   0  0  0  0  0  0  0  0  0  0  0  0
    2.4243    2.4141   -0.3046 O   0  0  0  0  0  0  0  0  0  0  0  0
   -2.0091   -1.9006   -0.1926 N   0  0  0  0  0  2  0  0  0  0  0  0
   -3.7170   -0.4779    0.1443 N   0  0  0  0  0  0  0  0  0  0  0  0
    2.0091   -1.9006   -0.1924 N   0  0  0  0  0  2  0  0  0  0  0  0
    3.7170   -0.4779    0.1445 N   0  0  0  0  0  0  0  0  0  0  0  0
   -0.0000   -0.3120   -0.0322 C   0  0  0  0  0  2  0  0  0  0  0  0
    1.2522    0.3672   -0.0232 C   0  0  0  0  0  0  0  0  0  0  0  0
    1.2350    1.7804   -0.1610 C   0  0  0  0  0  0  0  0  0  0  0  0
   -0.0000    2.4655   -0.2056 C   0  0  0  0  0  0  0  0  0  0  0  0
   -0.0000    3.5521   -0.3243 H   0  0  0  0  0  0  0  0  0  0  0  0
   -1.2351    1.7803   -0.1611 C   0  0  0  0  0  0  0  0  0  0  0  0
   -1.2522    0.3672   -0.0233 C   0  0  0  0  0  0  0  0  0  0  0  0
   -2.3450   -0.5929   -0.0194 C   0  0  1  0  0  3  0  0  0  0  0  0
   -3.1702   -2.6546   -0.1688 C   0  0  0  0  0  0  0  0  0  0  0  0
   -4.2625   -1.7722    0.0467 C   0  0  0  0  0  0  0  0  0  0  0  0
   -5.5770   -2.2433    0.1755 C   0  0  0  0  0  0  0  0  0  0  0  0
   -6.4168   -1.5641    0.3751 H   0  0  0  0  0  0  0  0  0  0  0  0
   -5.7692   -3.6266    0.0471 C   0  0  0  0  0  0  0  0  0  0  0  0
   -6.7872   -4.0342    0.1372 H   0  0  0  0  0  0  0  0  0  0  0  0
   -4.6860   -4.5061   -0.1903 C   0  0  0  0  0  0  0  0  0  0  0  0
   -4.8826   -5.5845   -0.2858 H   0  0  0  0  0  0  0  0  0  0  0  0
   -3.3706   -4.0408   -0.2957 C   0  0  0  0  0  0  0  0  0  0  0  0
   -2.5015   -4.6963   -0.4609 H   0  0  0  0  0  0  0  0  0  0  0  0
   -4.4610    0.6165    0.6765 C   0  0  0  0  0  0  0  0  0  0  0  0
   -5.6414    1.0276    0.0341 C   0  0  0  0  0  0  0  0  0  0  0  0
   -5.9243    0.5664   -0.9227 H   0  0  0  0  0  0  0  0  0  0  0  0
   -6.4389    2.0227    0.6182 C   0  0  0  0  0  0  0  0  0  0  0  0
   -7.3647    2.3413    0.1160 H   0  0  0  0  0  0  0  0  0  0  0  0
   -6.0520    2.6194    1.8287 C   0  0  0  0  0  0  0  0  0  0  0  0
   -6.6793    3.3999    2.2847 H   0  0  0  0  0  0  0  0  0  0  0  0
   -4.8590    2.2184    2.4544 C   0  0  0  0  0  0  0  0  0  0  0  0
   -4.5502    2.6822    3.4033 H   0  0  0  0  0  0  0  0  0  0  0  0
   -4.0661    1.2124    1.8875 C   0  0  0  0  0  0  0  0  0  0  0  0
   -3.1427    0.8733    2.3792 H   0  0  0  0  0  0  0  0  0  0  0  0
   -2.4517    3.8229   -0.5336 C   0  0  0  0  0  0  0  0  0  0  0  0
   -1.8209    4.0718   -1.4183 H   0  0  0  0  0  0  0  0  0  0  0  0
   -2.0198    4.3562    0.3457 H   0  0  0  0  0  0  0  0  0  0  0  0
   -3.8921    4.2442   -0.7635 C   0  0  0  0  0  0  0  0  0  0  0  0
   -4.2961    3.6729   -1.6268 H   0  0  0  0  0  0  0  0  0  0  0  0
   -4.4957    3.9398    0.1156 H   0  0  0  0  0  0  0  0  0  0  0  0
   -4.0413    5.7480   -1.0070 C   0  0  0  0  0  0  0  0  0  0  0  0
   -3.4342    6.0471   -1.8905 H   0  0  0  0  0  0  0  0  0  0  0  0
   -3.6117    6.3052   -0.1445 H   0  0  0  0  0  0  0  0  0  0  0  0
   -5.4963    6.1703   -1.2150 C   0  0  0  0  0  0  0  0  0  0  0  0
   -5.5876    7.2621   -1.3820 H   0  0  0  0  0  0  0  0  0  0  0  0
   -6.1180    5.9107   -0.3330 H   0  0  0  0  0  0  0  0  0  0  0  0
   -5.9415    5.6578   -2.0930 H   0  0  0  0  0  0  0  0  0  0  0  0
    2.4517    3.8229   -0.5337 C   0  0  0  0  0  0  0  0  0  0  0  0
    1.8208    4.0716   -1.4184 H   0  0  0  0  0  0  0  0  0  0  0  0
    2.0198    4.3564    0.3455 H   0  0  0  0  0  0  0  0  0  0  0  0
    3.8920    4.2441   -0.7638 C   0  0  0  0  0  0  0  0  0  0  0  0
    4.2960    3.6727   -1.6270 H   0  0  0  0  0  0  0  0  0  0  0  0
    4.4957    3.9398    0.1153 H   0  0  0  0  0  0  0  0  0  0  0  0
    4.0412    5.7478   -1.0075 C   0  0  0  0  0  0  0  0  0  0  0  0
    3.4341    6.0469   -1.8910 H   0  0  0  0  0  0  0  0  0  0  0  0
    3.6117    6.3052   -0.1450 H   0  0  0  0  0  0  0  0  0  0  0  0
    5.4962    6.1701   -1.2157 C   0  0  0  0  0  0  0  0  0  0  0  0
    5.5876    7.2619   -1.3828 H   0  0  0  0  0  0  0  0  0  0  0  0
    5.9414    5.6575   -2.0936 H   0  0  0  0  0  0  0  0  0  0  0  0
    6.1180    5.9106   -0.3336 H   0  0  0  0  0  0  0  0  0  0  0  0
    2.3450   -0.5928   -0.0192 C   0  0  0  0  0  0  0  0  0  0  0  0
    3.1702   -2.6546   -0.1685 C   0  0  0  0  0  0  0  0  0  0  0  0
    4.2625   -1.7722    0.0469 C   0  0  0  0  0  0  0  0  0  0  0  0
    5.5769   -2.2434    0.1757 C   0  0  0  0  0  0  0  0  0  0  0  0
    6.4167   -1.5641    0.3754 H   0  0  0  0  0  0  0  0  0  0  0  0
    5.7691   -3.6266    0.0474 C   0  0  0  0  0  0  0  0  0  0  0  0
    6.7872   -4.0342    0.1376 H   0  0  0  0  0  0  0  0  0  0  0  0
    4.6860   -4.5061   -0.1900 C   0  0  0  0  0  0  0  0  0  0  0  0
    4.8825   -5.5845   -0.2854 H   0  0  0  0  0  0  0  0  0  0  0  0
    3.3705   -4.0408   -0.2954 C   0  0  0  0  0  0  0  0  0  0  0  0
    2.5015   -4.6963   -0.4606 H   0  0  0  0  0  0  0  0  0  0  0  0
    4.4610    0.6165    0.6766 C   0  0  0  0  0  0  0  0  0  0  0  0
    5.6414    1.0276    0.0341 C   0  0  0  0  0  0  0  0  0  0  0  0
    5.9243    0.5663   -0.9227 H   0  0  0  0  0  0  0  0  0  0  0  0
    6.4389    2.0228    0.6180 C   0  0  0  0  0  0  0  0  0  0  0  0
    7.3647    2.3413    0.1157 H   0  0  0  0  0  0  0  0  0  0  0  0
    6.0520    2.6196    1.8285 C   0  0  0  0  0  0  0  0  0  0  0  0
    6.6794    3.4001    2.2843 H   0  0  0  0  0  0  0  0  0  0  0  0
    4.8591    2.2186    2.4543 C   0  0  0  0  0  0  0  0  0  0  0  0
    4.5504    2.6825    3.4032 H   0  0  0  0  0  0  0  0  0  0  0  0
    4.0662    1.2125    1.8876 C   0  0  0  0  0  0  0  0  0  0  0  0
    3.1429    0.8734    2.3794 H   0  0  0  0  0  0  0  0  0  0  0  0
  1 12  1  0  0  0  0
  2  9  1  0  0  0  0
  3 15  1  0  0  0  0
  3 14  1  0  0  0  0
  4 25  1  0  0  0  0
  5 63  1  0  0  0  0
  5 62  1  0  0  0  0
  6 73  1  0  0  0  0
  7 13  1  0  0  0  0
  7  8  1  0  0  0  0
  8 62  2  0  0  0  0
  9  8  1  0  0  0  0
 10 12  1  0  0  0  0
 10  9  2  0  0  0  0
 11 10  1  0  0  0  0
 12 13  2  0  0  0  0
 14 13  1  1  0  0  0
 14  4  1  0  0  0  0
 15 16  1  0  0  0  0
 16  4  1  0  0  0  0
 16 17  2  0  0  0  0
 17 18  1  0  0  0  0
 19 20  1  0  0  0  0
 19 17  1  0  0  0  0
 21 19  2  0  0  0  0
 22 21  1  0  0  0  0
 23 21  1  0  0  0  0
 23 15  2  0  0  0  0
 24 23  1  0  0  0  0
 25 34  1  0  0  0  0
 26 28  1  0  0  0  0
 26 25  2  0  0  0  0
 27 26  1  0  0  0  0
 28 30  2  0  0  0  0
 29 28  1  0  0  0  0
 30 31  1  0  0  0  0
 30 32  1  0  0  0  0
 32 33  1  0  0  0  0
 34 35  1  0  0  0  0
 34 32  2  0  0  0  0
 36  1  1  0  0  0  0
 36 38  1  0  0  0  0
 37 36  1  0  0  0  0
 39 36  1  0  0  0  0
 39 41  1  0  0  0  0
 40 39  1  0  0  0  0
 42 39  1  0  0  0  0
 42 44  1  0  0  0  0
 43 42  1  0  0  0  0
 45 42  1  0  0  0  0
 45 47  1  0  0  0  0
 46 45  1  0  0  0  0
 48 45  1  0  0  0  0
 49  2  1  0  0  0  0
 49 51  1  0  0  0  0
 50 49  1  0  0  0  0
 52 49  1  0  0  0  0
 52 54  1  0  0  0  0
 53 52  1  0  0  0  0
 55 52  1  0  0  0  0
 55 57  1  0  0  0  0
 56 55  1  0  0  0  0
 58 55  1  0  0  0  0
 58 61  1  0  0  0  0
 59 58  1  0  0  0  0
 60 58  1  0  0  0  0
 62  6  1  0  0  0  0
 63 64  1  0  0  0  0
 64  6  1  0  0  0  0
 64 65  2  0  0  0  0
 65 66  1  0  0  0  0
 67 68  1  0  0  0  0
 67 65  1  0  0  0  0
 69 67  2  0  0  0  0
 70 69  1  0  0  0  0
 71 69  1  0  0  0  0
 71 63  2  0  0  0  0
 72 71  1  0  0  0  0
 73 82  1  0  0  0  0
 74 76  1  0  0  0  0
 74 73  2  0  0  0  0
 75 74  1  0  0  0  0
 76 78  2  0  0  0  0
 77 76  1  0  0  0  0
 78 79  1  0  0  0  0
 78 80  1  0  0  0  0
 80 81  1  0  0  0  0
 82 83  1  0  0  0  0
 82 80  2  0  0  0  0
M  END
