1,4,25
q = 0.0, confidence = 0.972

 45 49  0  0  0  0  0  0  0  0999 V2000
   -2.1364   -1.9961   -0.0151 N   0  0  0  0  0  2  0  0  0  0  0  0
   -2.9289    0.1418    0.0300 N   0  0  0  0  0  0  0  0  0  0  0  0
   -1.4250    1.7328   -0.0090 N   0  0  0  0  0  0  0  0  0  0  0  0
    0.9628    0.1283   -0.5506 N   0  0  0  0  0  2  0  0  0  0  0  0
    2.1041   -0.3246   -1.0342 N   0  0  0  0  0  2  0  0  0  0  0  0
    2.8744    0.7350   -1.2355 N   0  0  0  0  0  0  0  0  0  0  0  0
   -2.3302   -3.3329    0.0046 C   0  0  0  0  0  3  0  0  0  0  0  0
   -1.4075   -3.9352   -0.0520 H   0  0  0  0  0  0  0  0  0  0  0  0
   -3.6234   -3.8600    0.1082 C   0  0  0  0  0  0  0  0  0  0  0  0
   -3.7822   -4.9467    0.1267 H   0  0  0  0  0  0  0  0  0  0  0  0
   -4.6934   -2.9572    0.1928 C   0  0  0  0  0  0  0  0  0  0  0  0
   -5.7352   -3.3067    0.2826 H   0  0  0  0  0  0  0  0  0  0  0  0
   -4.5083   -1.6229    0.1689 N   0  0  0  0  0  0  0  0  0  0  0  0
   -3.2578   -1.2124    0.0637 C   0  0  0  0  0  0  0  0  0  0  0  0
   -3.6521    1.3335    0.1956 C   0  0  0  0  0  0  0  0  0  0  0  0
   -5.0131    1.6083    0.3597 C   0  0  0  0  0  0  0  0  0  0  0  0
   -5.7534    0.7985    0.3715 H   0  0  0  0  0  0  0  0  0  0  0  0
   -5.3635    2.9601    0.5080 C   0  0  0  0  0  0  0  0  0  0  0  0
   -6.4224    3.2252    0.6403 H   0  0  0  0  0  0  0  0  0  0  0  0
   -4.3943    3.9860    0.4926 C   0  0  0  0  0  0  0  0  0  0  0  0
   -4.7151    5.0307    0.6141 H   0  0  0  0  0  0  0  0  0  0  0  0
   -3.0275    3.7077    0.3270 C   0  0  0  0  0  0  0  0  0  0  0  0
   -2.2796    4.5128    0.3203 H   0  0  0  0  0  0  0  0  0  0  0  0
   -2.6739    2.3626    0.1761 C   0  0  0  0  0  0  0  0  0  0  0  0
   -1.5820    0.3963   -0.0922 C   0  0  0  0  0  2  0  0  0  0  0  0
   -0.1223    2.3805    0.0417 C   0  0  0  0  0  0  0  0  0  0  0  0
    0.0780    2.6893    1.0929 H   0  0  0  0  0  0  0  0  0  0  0  0
   -0.1592    3.3084   -0.5644 H   0  0  0  0  0  0  0  0  0  0  0  0
    0.9891    1.5049   -0.4632 C   0  0  0  0  0  0  0  0  0  0  0  0
    2.2472    1.8971   -0.9001 C   0  0  0  0  0  0  0  0  0  0  0  0
    2.7233    2.8786   -0.9876 H   0  0  0  0  0  0  0  0  0  0  0  0
    4.2776    0.5222   -1.6301 C   0  0  0  0  0  0  0  0  0  0  0  0
    4.5870    1.3922   -2.2389 H   0  0  0  0  0  0  0  0  0  0  0  0
    4.2668   -0.3753   -2.2783 H   0  0  0  0  0  0  0  0  0  0  0  0
    5.1722    0.3382   -0.4221 C   0  0  0  0  0  0  0  0  0  0  0  0
    4.9459   -0.7337    0.4661 C   0  0  0  0  0  0  0  0  0  0  0  0
    4.1123   -1.4325    0.2880 H   0  0  0  0  0  0  0  0  0  0  0  0
    5.7781   -0.9034    1.5807 C   0  0  0  0  0  0  0  0  0  0  0  0
    5.6006   -1.7424    2.2700 H   0  0  0  0  0  0  0  0  0  0  0  0
    6.8401   -0.0129    1.8138 C   0  0  0  0  0  0  0  0  0  0  0  0
    7.4944   -0.1533    2.6870 H   0  0  0  0  0  0  0  0  0  0  0  0
    7.0678    1.0530    0.9309 C   0  0  0  0  0  0  0  0  0  0  0  0
    7.9000    1.7505    1.1078 H   0  0  0  0  0  0  0  0  0  0  0  0
    6.2324    1.2313   -0.1830 C   0  0  0  0  0  0  0  0  0  0  0  0
    6.4157    2.0664   -0.8781 H   0  0  0  0  0  0  0  0  0  0  0  0
  1  7  1  0  0  0  0
  1 14  1  0  0  0  0
  2 14  1  0  0  0  0
  2 15  1  0  0  0  0
  3 26  1  0  0  0  0
  3 24  1  0  0  0  0
  4 29  1  0  0  0  0
  5  4  1  0  0  0  0
  6  5  1  0  0  0  0
  6 30  1  0  0  0  0
  7  9  1  0  0  0  0
  8  7  1  0  0  0  0
  9 10  1  0  0  0  0
  9 11  2  0  0  0  0
 11 12  1  0  0  0  0
 13 11  1  0  0  0  0
 14 13  2  0  0  0  0
 15 16  1  0  0  0  0
 16 17  1  0  0  0  0
 16 18  2  0  0  0  0
 18 19  1  0  0  0  0
 20 18  1  0  0  0  0
 20 21  1  0  0  0  0
 22 20  2  0  0  0  0
 23 22  1  0  0  0  0
 24 15  2  0  0  0  0
 24 22  1  0  0  0  0
 25  3  1  0  0  0  0
 25  2  1  0  0  0  0
 26 27  1  0  0  0  0
 28 26  1  0  0  0  0
 29 26  1  0  0  0  0
 30 29  2  0  0  0  0
 31 30  1  0  0  0  0
 32  6  1  0  0  0  0
 32 35  1  0  0  0  0
 33 32  1  0  0  0  0
 34 32  1  0  0  0  0
 35 44  2  0  0  0  0
 35 36  1  0  0  0  0
 36 38  2  0  0  0  0
 37 36  1  0  0  0  0
 38 40  1  0  0  0  0
 38 39  1  0  0  0  0
 40 41  1  0  0  0  0
 42 43  1  0  0  0  0
 42 40  2  0  0  0  0
 44 42  1  0  0  0  0
 45 44  1  0  0  0  0
M  END
