1,4,7
 OpenBabel05122313063D

 47 49  0  0  1  0  0  0  0  0999 V2000
   -1.9830   -0.8638   -2.1375 C   0  0  2  0  0  3  0  0  0  0  0  0
   -2.8896   -1.0378   -1.0293 C   0  0  0  0  0  0  0  0  0  0  0  0
   -2.4850   -2.2373   -0.2999 C   0  0  0  0  0  0  0  0  0  0  0  0
   -0.7324    1.2368    1.7555 N   0  0  0  0  0  0  0  0  0  0  0  0
   -1.0993   -1.9803   -2.1219 C   0  0  0  0  0  0  0  0  0  0  0  0
   -0.2845   -2.1366   -2.8432 H   0  0  0  0  0  0  0  0  0  0  0  0
   -0.8088    1.4283   -1.0709 N   0  0  0  0  0  2  0  0  0  0  0  0
   -1.3586   -2.8033   -0.9897 C   0  0  0  0  0  0  0  0  0  0  0  0
   -0.8431   -3.7368   -0.7331 H   0  0  0  0  0  0  0  0  0  0  0  0
   -4.6609   -0.6661    0.5953 C   0  0  0  0  0  0  0  0  0  0  0  0
   -5.5237   -0.0837    0.9531 H   0  0  0  0  0  0  0  0  0  0  0  0
   -4.2461   -1.8174    1.3266 C   0  0  0  0  0  0  0  0  0  0  0  0
   -4.7954   -2.1044    2.2364 H   0  0  0  0  0  0  0  0  0  0  0  0
   -3.1769   -2.5982    0.8934 C   0  0  0  0  0  0  0  0  0  0  0  0
   -2.8853   -3.5037    1.4486 H   0  0  0  0  0  0  0  0  0  0  0  0
   -3.9930   -0.2718   -0.5605 C   0  0  0  0  0  0  0  0  0  0  0  0
   -4.3212    0.6178   -1.1191 H   0  0  0  0  0  0  0  0  0  0  0  0
   -1.8774    0.3459   -3.0272 C   0  0  0  0  0  0  0  0  0  0  0  0
   -1.0126    0.2015   -3.7072 H   0  0  0  0  0  0  0  0  0  0  0  0
   -2.7742    0.4595   -3.6757 H   0  0  0  0  0  0  0  0  0  0  0  0
   -1.6764    1.6424   -2.2153 C   0  0  0  0  0  0  0  0  0  0  0  0
   -1.2889    2.4280   -2.9123 H   0  0  0  0  0  0  0  0  0  0  0  0
   -2.6753    2.0376   -1.8795 H   0  0  0  0  0  0  0  0  0  0  0  0
    0.0347    2.3350    1.0692 C   0  0  1  0  0  0  0  0  0  0  0  0
    1.0505    1.9013    0.9127 H   0  0  0  0  0  0  0  0  0  0  0  0
   -0.5464    2.6449   -0.3306 C   0  0  1  0  0  0  0  0  0  0  0  0
   -1.5106    3.2067   -0.1645 H   0  0  0  0  0  0  0  0  0  0  0  0
    0.4012    3.6434   -1.0401 C   0  0  0  0  0  0  0  0  0  0  0  0
    1.3813    3.1427   -1.1952 H   0  0  0  0  0  0  0  0  0  0  0  0
    0.0006    3.8655   -2.0498 H   0  0  0  0  0  0  0  0  0  0  0  0
   -2.1637    1.5291    1.9376 C   0  0  0  0  0  0  0  0  0  0  0  0
   -2.6733    0.6297    2.3376 H   0  0  0  0  0  0  0  0  0  0  0  0
   -2.6274    1.7659    0.9637 H   0  0  0  0  0  0  0  0  0  0  0  0
   -2.3377    2.3716    2.6456 H   0  0  0  0  0  0  0  0  0  0  0  0
    0.1975    3.6254    1.8929 C   0  0  0  0  0  0  0  0  0  0  0  0
   -0.8012    4.0838    2.0633 H   0  0  0  0  0  0  0  0  0  0  0  0
    0.6216    3.3996    2.8924 H   0  0  0  0  0  0  0  0  0  0  0  0
    1.1029    4.6317    1.1695 C   0  0  0  0  0  0  0  0  0  0  0  0
    2.1299    4.2083    1.1012 H   0  0  0  0  0  0  0  0  0  0  0  0
    1.1887    5.5611    1.7703 H   0  0  0  0  0  0  0  0  0  0  0  0
    0.5894    4.9354   -0.2409 C   0  0  0  0  0  0  0  0  0  0  0  0
    1.2848    5.6225   -0.7668 H   0  0  0  0  0  0  0  0  0  0  0  0
   -0.3842    5.4705   -0.1694 H   0  0  0  0  0  0  0  0  0  0  0  0
   -0.1189    0.8646    3.0380 C   0  0  0  0  0  0  0  0  0  0  0  0
   -0.2045    1.6680    3.8045 H   0  0  0  0  0  0  0  0  0  0  0  0
    0.9543    0.6321    2.8876 H   0  0  0  0  0  0  0  0  0  0  0  0
   -0.6243   -0.0342    3.4424 H   0  0  0  0  0  0  0  0  0  0  0  0
  1 18  1  1  0  0  0
  1  5  1  0  0  0  0
  1  2  1  0  0  0  0
  2 16  2  0  0  0  0
  2  3  1  0  0  0  0
  3 14  2  0  0  0  0
  4 31  1  0  0  0  0
  4 44  1  0  0  0  0
  5  8  2  0  0  0  0
  6  5  1  0  0  0  0
  7 26  1  0  0  0  0
  8  9  1  0  0  0  0
  8  3  1  0  0  0  0
 10 11  1  0  0  0  0
 10 12  2  0  0  0  0
 12 13  1  0  0  0  0
 14 12  1  0  0  0  0
 14 15  1  0  0  0  0
 16 10  1  0  0  0  0
 17 16  1  0  0  0  0
 18 21  1  0  0  0  0
 19 18  1  0  0  0  0
 20 18  1  0  0  0  0
 21 23  1  0  0  0  0
 21  7  1  0  0  0  0
 22 21  1  0  0  0  0
 24 25  1  6  0  0  0
 24  4  1  0  0  0  0
 24 35  1  0  0  0  0
 26 27  1  1  0  0  0
 26 24  1  0  0  0  0
 28 26  1  0  0  0  0
 28 41  1  0  0  0  0
 29 28  1  0  0  0  0
 30 28  1  0  0  0  0
 31 32  1  0  0  0  0
 31 34  1  0  0  0  0
 33 31  1  0  0  0  0
 35 36  1  0  0  0  0
 35 37  1  0  0  0  0
 38 40  1  0  0  0  0
 38 35  1  0  0  0  0
 39 38  1  0  0  0  0
 41 43  1  0  0  0  0
 41 38  1  0  0  0  0
 42 41  1  0  0  0  0
 44 47  1  0  0  0  0
 44 45  1  0  0  0  0
 46 44  1  0  0  0  0
M  END
