1,42,43
 OpenBabel05122313063D

 45 47  0  0  1  0  0  0  0  0999 V2000
   -0.1618    1.7433   -0.0666 C   0  0  0  0  0  3  0  0  0  0  0  0
    1.0028    2.4747    0.2416 C   0  0  0  0  0  0  0  0  0  0  0  0
    0.9580    3.8830    0.2413 C   0  0  0  0  0  0  0  0  0  0  0  0
    1.8552    4.4720    0.4846 H   0  0  0  0  0  0  0  0  0  0  0  0
   -0.2557    4.5276   -0.0726 C   0  0  0  0  0  0  0  0  0  0  0  0
   -0.2924    5.6268   -0.0771 H   0  0  0  0  0  0  0  0  0  0  0  0
   -1.4261    3.8011   -0.3743 C   0  0  0  0  0  0  0  0  0  0  0  0
   -2.3632    4.3280   -0.6096 H   0  0  0  0  0  0  0  0  0  0  0  0
   -1.3781    2.3935   -0.3664 C   0  0  0  0  0  0  0  0  0  0  0  0
   -2.4058    1.3927   -0.6188 C   0  0  2  0  0  3  0  0  0  0  0  0
   -4.3276    0.3505   -1.1284 C   0  0  0  0  0  0  0  0  0  0  0  0
   -4.7133    0.3041   -2.1648 H   0  0  0  0  0  0  0  0  0  0  0  0
   -5.1815    0.3122   -0.4227 H   0  0  0  0  0  0  0  0  0  0  0  0
   -3.2327   -0.7157   -0.8241 C   0  0  2  0  0  0  0  0  0  0  0  0
   -2.9974   -1.3080   -1.7356 H   0  0  0  0  0  0  0  0  0  0  0  0
   -3.5512   -1.7128    0.3130 C   0  0  0  0  0  0  0  0  0  0  0  0
   -2.6271   -2.3230    0.4096 H   0  0  0  0  0  0  0  0  0  0  0  0
   -3.8026   -1.0180    1.6542 C   0  0  0  0  0  0  0  0  0  0  0  0
   -4.7074   -0.3728    1.6315 H   0  0  0  0  0  0  0  0  0  0  0  0
   -2.9306   -0.4006    1.9474 H   0  0  0  0  0  0  0  0  0  0  0  0
   -3.9682   -1.7730    2.4495 H   0  0  0  0  0  0  0  0  0  0  0  0
   -4.7058   -2.6337   -0.0961 C   0  0  0  0  0  0  0  0  0  0  0  0
   -4.8793   -3.4106    0.6749 H   0  0  0  0  0  0  0  0  0  0  0  0
   -4.4981   -3.1524   -1.0548 H   0  0  0  0  0  0  0  0  0  0  0  0
   -5.6592   -2.0738   -0.2126 H   0  0  0  0  0  0  0  0  0  0  0  0
    2.0793    1.5459    0.5540 C   0  0  2  0  0  3  0  0  0  0  0  0
    3.9864    0.6603    1.3262 C   0  0  0  0  0  0  0  0  0  0  0  0
    4.1084    0.6640    2.4280 H   0  0  0  0  0  0  0  0  0  0  0  0
    4.9861    0.6737    0.8509 H   0  0  0  0  0  0  0  0  0  0  0  0
    3.0650   -0.4837    0.8211 C   0  0  2  0  0  0  0  0  0  0  0  0
    2.8106   -1.1875    1.6397 H   0  0  0  0  0  0  0  0  0  0  0  0
    3.6115   -1.2974   -0.3728 C   0  0  0  0  0  0  0  0  0  0  0  0
    2.7766   -1.9603   -0.6818 H   0  0  0  0  0  0  0  0  0  0  0  0
    3.9596   -0.4194   -1.5783 C   0  0  0  0  0  0  0  0  0  0  0  0
    3.1022    0.2194   -1.8695 H   0  0  0  0  0  0  0  0  0  0  0  0
    4.2202   -1.0509   -2.4507 H   0  0  0  0  0  0  0  0  0  0  0  0
    4.8306    0.2414   -1.3799 H   0  0  0  0  0  0  0  0  0  0  0  0
    4.7881   -2.1735    0.0680 C   0  0  0  0  0  0  0  0  0  0  0  0
    5.1279   -2.8209   -0.7649 H   0  0  0  0  0  0  0  0  0  0  0  0
    4.5102   -2.8316    0.9166 H   0  0  0  0  0  0  0  0  0  0  0  0
    5.6621   -1.5637    0.3843 H   0  0  0  0  0  0  0  0  0  0  0  0
   -2.0740    0.1251   -0.5186 N   0  0  0  0  0  2  0  0  0  0  0  0
    1.8411    0.2540    0.4692 N   0  0  0  0  0  2  0  0  0  0  0  0
   -3.6753    1.6479   -0.9589 O   0  0  0  0  0  0  0  0  0  0  0  0
    3.3046    1.9005    0.9603 O   0  0  0  0  0  0  0  0  0  0  0  0
  1  2  1  0  0  0  0
  3  2  2  0  0  0  0
  3  4  1  0  0  0  0
  5  3  1  0  0  0  0
  6  5  1  0  0  0  0
  7  9  1  0  0  0  0
  7  5  2  0  0  0  0
  8  7  1  0  0  0  0
  9  1  2  0  0  0  0
 10 42  1  0  0  0  0
 10  9  1  6  0  0  0
 11 44  1  0  0  0  0
 11 14  1  0  0  0  0
 11 13  1  0  0  0  0
 12 11  1  0  0  0  0
 14 15  1  6  0  0  0
 14 42  1  0  0  0  0
 14 16  1  0  0  0  0
 16 17  1  0  0  0  0
 16 18  1  0  0  0  0
 18 20  1  0  0  0  0
 18 21  1  0  0  0  0
 19 18  1  0  0  0  0
 22 16  1  0  0  0  0
 22 23  1  0  0  0  0
 24 22  1  0  0  0  0
 25 22  1  0  0  0  0
 26  2  1  1  0  0  0
 26 45  1  0  0  0  0
 27 28  1  0  0  0  0
 29 27  1  0  0  0  0
 30 27  1  0  0  0  0
 30 31  1  1  0  0  0
 32 38  1  0  0  0  0
 32 30  1  0  0  0  0
 33 32  1  0  0  0  0
 34 37  1  0  0  0  0
 34 32  1  0  0  0  0
 35 34  1  0  0  0  0
 36 34  1  0  0  0  0
 38 41  1  0  0  0  0
 38 40  1  0  0  0  0
 39 38  1  0  0  0  0
 43 26  1  0  0  0  0
 43 30  1  0  0  0  0
 44 10  1  0  0  0  0
 45 27  1  0  0  0  0
M  END
