1,38,66
 OpenBabel05122313063D

 79 82  0  0  0  0  0  0  0  0999 V2000
   -2.1604    0.6544    0.6502 N   0  0  0  0  0  2  0  0  0  0  0  0
   -3.5715    1.3689    1.4863 Si  0  0  0  0  0  0  0  0  0  0  0  0
   -3.4189    3.2474    1.4371 C   0  0  0  0  0  0  0  0  0  0  0  0
   -2.4212    3.5577    1.8042 H   0  0  0  0  0  0  0  0  0  0  0  0
   -4.1946    3.7131    2.0798 H   0  0  0  0  0  0  0  0  0  0  0  0
   -3.5487    3.6412    0.4086 H   0  0  0  0  0  0  0  0  0  0  0  0
   -3.6006    0.7200    3.2509 C   0  0  0  0  0  0  0  0  0  0  0  0
   -3.6742   -0.3859    3.2578 H   0  0  0  0  0  0  0  0  0  0  0  0
   -4.4650    1.1364    3.8083 H   0  0  0  0  0  0  0  0  0  0  0  0
   -2.6664    1.0019    3.7750 H   0  0  0  0  0  0  0  0  0  0  0  0
   -5.1497    0.8478    0.5748 C   0  0  0  0  0  0  0  0  0  0  0  0
   -5.1100    1.1028   -0.5042 H   0  0  0  0  0  0  0  0  0  0  0  0
   -6.0137    1.3887    1.0148 H   0  0  0  0  0  0  0  0  0  0  0  0
   -5.3442   -0.2390    0.6655 H   0  0  0  0  0  0  0  0  0  0  0  0
   -2.0423   -0.3057   -0.6757 P   0  0  0  0  0  4  0  0  0  0  0  0
   -3.2142   -1.7040   -0.5386 C   0  0  0  0  0  0  0  0  0  0  0  0
   -3.1206   -2.4730    0.6434 C   0  0  0  0  0  0  0  0  0  0  0  0
   -2.3589   -2.2241    1.4035 H   0  0  0  0  0  0  0  0  0  0  0  0
   -4.0094   -3.5361    0.8513 C   0  0  0  0  0  0  0  0  0  0  0  0
   -3.9365   -4.1324    1.7735 H   0  0  0  0  0  0  0  0  0  0  0  0
   -4.9935   -3.8347   -0.1069 C   0  0  0  0  0  0  0  0  0  0  0  0
   -5.6926   -4.6678    0.0627 H   0  0  0  0  0  0  0  0  0  0  0  0
   -5.0900   -3.0654   -1.2769 C   0  0  0  0  0  0  0  0  0  0  0  0
   -5.8676   -3.2896   -2.0230 H   0  0  0  0  0  0  0  0  0  0  0  0
   -4.2043   -1.9985   -1.4951 C   0  0  0  0  0  0  0  0  0  0  0  0
   -4.2992   -1.3832   -2.4019 H   0  0  0  0  0  0  0  0  0  0  0  0
   -2.3630    0.5413   -2.2550 C   0  0  0  0  0  0  0  0  0  0  0  0
   -2.6961    1.9078   -2.2697 C   0  0  0  0  0  0  0  0  0  0  0  0
   -2.7515    2.4584   -1.3202 H   0  0  0  0  0  0  0  0  0  0  0  0
   -2.9057    2.5590   -3.4942 C   0  0  0  0  0  0  0  0  0  0  0  0
   -3.1627    3.6288   -3.5049 H   0  0  0  0  0  0  0  0  0  0  0  0
   -2.7712    1.8541   -4.7008 C   0  0  0  0  0  0  0  0  0  0  0  0
   -2.9331    2.3694   -5.6598 H   0  0  0  0  0  0  0  0  0  0  0  0
   -2.4165    0.4944   -4.6883 C   0  0  0  0  0  0  0  0  0  0  0  0
   -2.2982   -0.0550   -5.6346 H   0  0  0  0  0  0  0  0  0  0  0  0
   -2.2071   -0.1631   -3.4675 C   0  0  0  0  0  0  0  0  0  0  0  0
   -1.9184   -1.2262   -3.4561 H   0  0  0  0  0  0  0  0  0  0  0  0
   -0.3605   -0.8131   -0.5466 C   0  0  0  0  0  3  0  0  0  0  0  0
   -0.2902   -1.8058   -0.0680 H   0  0  0  0  0  0  0  0  0  0  0  0
    0.6989   -0.5348   -1.5795 C   0  0  0  0  0  0  0  0  0  0  0  0
    0.5714    0.4656   -2.0397 H   0  0  0  0  0  0  0  0  0  0  0  0
    0.8439   -1.2966   -2.3794 H   0  0  0  0  0  0  0  0  0  0  0  0
    2.2198   -0.4674   -0.5527 P   0  0  0  0  0  4  0  0  0  0  0  0
    2.6621   -2.2172   -0.2673 C   0  0  0  0  0  0  0  0  0  0  0  0
    2.4587   -2.7401    1.0250 C   0  0  0  0  0  0  0  0  0  0  0  0
    2.0657   -2.0826    1.8167 H   0  0  0  0  0  0  0  0  0  0  0  0
    2.7016   -4.1001    1.2709 C   0  0  0  0  0  0  0  0  0  0  0  0
    2.5356   -4.5064    2.2799 H   0  0  0  0  0  0  0  0  0  0  0  0
    3.1386   -4.9389    0.2340 C   0  0  0  0  0  0  0  0  0  0  0  0
    3.3301   -6.0047    0.4310 H   0  0  0  0  0  0  0  0  0  0  0  0
    3.3162   -4.4237   -1.0614 C   0  0  0  0  0  0  0  0  0  0  0  0
    3.6425   -5.0845   -1.8788 H   0  0  0  0  0  0  0  0  0  0  0  0
    3.0717   -3.0670   -1.3173 C   0  0  0  0  0  0  0  0  0  0  0  0
    3.1955   -2.6742   -2.3385 H   0  0  0  0  0  0  0  0  0  0  0  0
    3.5428    0.3513   -1.5073 C   0  0  0  0  0  0  0  0  0  0  0  0
    3.3019    1.6988   -1.8576 C   0  0  0  0  0  0  0  0  0  0  0  0
    2.3553    2.1824   -1.5558 H   0  0  0  0  0  0  0  0  0  0  0  0
    4.2786    2.4175   -2.5606 C   0  0  0  0  0  0  0  0  0  0  0  0
    4.0905    3.4681   -2.8286 H   0  0  0  0  0  0  0  0  0  0  0  0
    5.4925    1.8045   -2.9133 C   0  0  0  0  0  0  0  0  0  0  0  0
    6.2577    2.3735   -3.4630 H   0  0  0  0  0  0  0  0  0  0  0  0
    5.7350    0.4687   -2.5556 C   0  0  0  0  0  0  0  0  0  0  0  0
    6.6908   -0.0093   -2.8182 H   0  0  0  0  0  0  0  0  0  0  0  0
    4.7654   -0.2594   -1.8498 C   0  0  0  0  0  0  0  0  0  0  0  0
    4.9738   -1.2947   -1.5444 H   0  0  0  0  0  0  0  0  0  0  0  0
    1.8319    0.2932    0.8410 N   0  0  0  0  0  2  0  0  0  0  0  0
    3.0836    0.9173    1.9901 Si  0  0  0  0  0  0  0  0  0  0  0  0
    2.6511    0.3959    3.7462 C   0  0  0  0  0  0  0  0  0  0  0  0
    1.6553    0.7677    4.0523 H   0  0  0  0  0  0  0  0  0  0  0  0
    3.4145    0.8119    4.4370 H   0  0  0  0  0  0  0  0  0  0  0  0
    2.6538   -0.7074    3.8502 H   0  0  0  0  0  0  0  0  0  0  0  0
    3.1877    2.7875    1.8085 C   0  0  0  0  0  0  0  0  0  0  0  0
    3.5227    3.0604    0.7877 H   0  0  0  0  0  0  0  0  0  0  0  0
    3.9103    3.2083    2.5382 H   0  0  0  0  0  0  0  0  0  0  0  0
    2.1960    3.2481    1.9830 H   0  0  0  0  0  0  0  0  0  0  0  0
    4.7835    0.1669    1.5954 C   0  0  0  0  0  0  0  0  0  0  0  0
    4.7538   -0.9373    1.4974 H   0  0  0  0  0  0  0  0  0  0  0  0
    5.4532    0.4051    2.4487 H   0  0  0  0  0  0  0  0  0  0  0  0
    5.2409    0.5907    0.6813 H   0  0  0  0  0  0  0  0  0  0  0  0
  1  2  1  0  0  0  0
  2  7  1  0  0  0  0
  3  2  1  0  0  0  0
  3  4  1  0  0  0  0
  3  5  1  0  0  0  0
  6  3  1  0  0  0  0
  7  8  1  0  0  0  0
  7 10  1  0  0  0  0
  7  9  1  0  0  0  0
 11 14  1  0  0  0  0
 11 13  1  0  0  0  0
 11  2  1  0  0  0  0
 12 11  1  0  0  0  0
 15 38  1  0  0  0  0
 15 16  1  0  0  0  0
 15  1  1  0  0  0  0
 16 17  1  0  0  0  0
 17 19  2  0  0  0  0
 17 18  1  0  0  0  0
 19 20  1  0  0  0  0
 21 22  1  0  0  0  0
 21 19  1  0  0  0  0
 23 21  2  0  0  0  0
 24 23  1  0  0  0  0
 25 23  1  0  0  0  0
 25 16  2  0  0  0  0
 26 25  1  0  0  0  0
 27 15  1  0  0  0  0
 28 27  1  0  0  0  0
 28 29  1  0  0  0  0
 30 28  2  0  0  0  0
 31 30  1  0  0  0  0
 32 34  2  0  0  0  0
 32 30  1  0  0  0  0
 33 32  1  0  0  0  0
 34 36  1  0  0  0  0
 35 34  1  0  0  0  0
 36 37  1  0  0  0  0
 36 27  2  0  0  0  0
 38 39  1  0  0  0  0
 40 43  1  0  0  0  0
 40 38  1  0  0  0  0
 41 40  1  0  0  0  0
 42 40  1  0  0  0  0
 43 44  1  0  0  0  0
 43 66  1  0  0  0  0
 44 45  1  0  0  0  0
 45 47  2  0  0  0  0
 45 46  1  0  0  0  0
 47 48  1  0  0  0  0
 49 50  1  0  0  0  0
 49 47  1  0  0  0  0
 51 49  2  0  0  0  0
 52 51  1  0  0  0  0
 53 51  1  0  0  0  0
 53 44  2  0  0  0  0
 54 53  1  0  0  0  0
 55 43  1  0  0  0  0
 56 57  1  0  0  0  0
 56 55  2  0  0  0  0
 58 56  1  0  0  0  0
 59 58  1  0  0  0  0
 60 58  2  0  0  0  0
 60 62  1  0  0  0  0
 61 60  1  0  0  0  0
 62 64  2  0  0  0  0
 63 62  1  0  0  0  0
 64 65  1  0  0  0  0
 64 55  1  0  0  0  0
 66 67  1  0  0  0  0
 67 68  1  0  0  0  0
 68 71  1  0  0  0  0
 68 69  1  0  0  0  0
 68 70  1  0  0  0  0
 72 75  1  0  0  0  0
 72 67  1  0  0  0  0
 72 74  1  0  0  0  0
 73 72  1  0  0  0  0
 76 67  1  0  0  0  0
 76 78  1  0  0  0  0
 77 76  1  0  0  0  0
 79 76  1  0  0  0  0
M  END
