3,4,36
 OpenBabel05122313063D

 38 40  0  0  1  0  0  0  0  0999 V2000
    4.9187   -0.9458    3.1506 F   0  0  0  0  0  0  0  0  0  0  0  0
    0.8558   -2.2548   -1.9355 O   0  0  0  0  0  0  0  0  0  0  0  0
   -2.3002    0.6736    0.5086 N   0  0  0  0  0  2  0  0  0  0  0  0
   -0.4092   -0.6238   -0.8605 N   0  0  0  0  0  2  0  0  0  0  0  0
   -3.1978    1.3795    1.1993 C   0  0  0  0  0  0  0  0  0  0  0  0
   -2.9793    2.4479    1.3481 H   0  0  0  0  0  0  0  0  0  0  0  0
   -4.3759    0.7977    1.7227 C   0  0  0  0  0  0  0  0  0  0  0  0
   -5.0838    1.4233    2.2845 H   0  0  0  0  0  0  0  0  0  0  0  0
   -4.6097   -0.5541    1.5148 C   0  0  0  0  0  0  0  0  0  0  0  0
   -5.5175   -1.0361    1.9102 H   0  0  0  0  0  0  0  0  0  0  0  0
   -3.6739   -1.3378    0.7846 C   0  0  0  0  0  0  0  0  0  0  0  0
   -3.8353   -2.7273    0.5269 C   0  0  0  0  0  0  0  0  0  0  0  0
   -4.7304   -3.2441    0.9029 H   0  0  0  0  0  0  0  0  0  0  0  0
   -2.8601   -3.4026   -0.1979 C   0  0  0  0  0  0  0  0  0  0  0  0
   -2.9828   -4.4778   -0.4004 H   0  0  0  0  0  0  0  0  0  0  0  0
   -1.7041   -2.7546   -0.6946 C   0  0  0  0  0  0  0  0  0  0  0  0
   -0.9446   -3.2997   -1.2667 H   0  0  0  0  0  0  0  0  0  0  0  0
   -1.5005   -1.3829   -0.4628 C   0  0  0  0  0  0  0  0  0  0  0  0
   -2.5040   -0.6683    0.2856 C   0  0  2  0  0  3  0  0  0  0  0  0
    0.7122   -1.1087   -1.5083 C   0  0  0  0  0  0  0  0  0  0  0  0
    1.8339   -0.0362   -1.5634 C   0  0  1  0  0  0  0  0  0  0  0  0
    2.6555   -0.2475   -0.2761 C   0  0  0  0  0  0  0  0  0  0  0  0
    3.2514   -1.5068   -0.0388 C   0  0  0  0  0  0  0  0  0  0  0  0
    3.0883   -2.3212   -0.7600 H   0  0  0  0  0  0  0  0  0  0  0  0
    4.0137   -1.7507    1.1098 C   0  0  0  0  0  0  0  0  0  0  0  0
    4.4743   -2.7314    1.2971 H   0  0  0  0  0  0  0  0  0  0  0  0
    4.1847   -0.7206    2.0426 C   0  0  0  0  0  0  0  0  0  0  0  0
    3.6022    0.5347    1.8474 C   0  0  0  0  0  0  0  0  0  0  0  0
    3.7485    1.3216    2.6013 H   0  0  0  0  0  0  0  0  0  0  0  0
    2.8390    0.7603    0.6910 C   0  0  0  0  0  0  0  0  0  0  0  0
    2.3771    1.7474    0.5551 H   0  0  0  0  0  0  0  0  0  0  0  0
    2.7219   -0.2777   -2.7989 C   0  0  0  0  0  0  0  0  0  0  0  0
    3.0835   -1.3239   -2.8136 H   0  0  0  0  0  0  0  0  0  0  0  0
    3.5934    0.4061   -2.7923 H   0  0  0  0  0  0  0  0  0  0  0  0
    2.1450   -0.1139   -3.7311 H   0  0  0  0  0  0  0  0  0  0  0  0
    1.1869    1.3526   -1.6465 C   0  0  0  0  0  3  0  0  0  0  0  0
    0.7593    1.5178   -2.6573 H   0  0  0  0  0  0  0  0  0  0  0  0
    1.9014    2.1693   -1.4329 H   0  0  0  0  0  0  0  0  0  0  0  0
  2 20  2  0  0  0  0
  3  5  1  0  0  0  0
  4 18  1  0  0  0  0
  5  6  1  0  0  0  0
  5  7  2  0  0  0  0
  7  8  1  0  0  0  0
  9  7  1  0  0  0  0
  9 10  1  0  0  0  0
 11  9  2  0  0  0  0
 12 11  1  0  0  0  0
 12 13  1  0  0  0  0
 14 12  2  0  0  0  0
 15 14  1  0  0  0  0
 16 18  2  0  0  0  0
 16 14  1  0  0  0  0
 17 16  1  0  0  0  0
 19 18  1  1  0  0  0
 19  3  1  0  0  0  0
 19 11  1  0  0  0  0
 20  4  1  0  0  0  0
 21 36  1  6  0  0  0
 21 20  1  0  0  0  0
 21 22  1  0  0  0  0
 22 23  2  0  0  0  0
 22 30  1  0  0  0  0
 23 25  1  0  0  0  0
 24 23  1  0  0  0  0
 25 26  1  0  0  0  0
 25 27  2  0  0  0  0
 27  1  1  0  0  0  0
 28 27  1  0  0  0  0
 28 29  1  0  0  0  0
 30 28  2  0  0  0  0
 31 30  1  0  0  0  0
 32 34  1  0  0  0  0
 32 21  1  0  0  0  0
 33 32  1  0  0  0  0
 35 32  1  0  0  0  0
 36 38  1  0  0  0  0
 37 36  1  0  0  0  0
M  END
