2,3,4
 OpenBabel05122313063D

 32 33  0  0  1  0  0  0  0  0999 V2000
    1.5802   -3.5602   -0.0330 O   0  0  0  0  0  0  0  0  0  0  0  0
    1.4924    1.3676   -0.0353 N   0  0  0  0  0  2  0  0  0  0  0  0
    1.1926   -1.2659   -0.0102 N   0  0  0  0  0  2  0  0  0  0  0  0
   -1.4308   -1.4886    0.0614 C   0  0  0  0  0  3  0  0  0  0  0  0
   -2.8315   -1.5694    0.1393 C   0  0  0  0  0  0  0  0  0  0  0  0
   -3.4525   -0.6610    0.1996 H   0  0  0  0  0  0  0  0  0  0  0  0
   -3.4725   -2.8260    0.1531 C   0  0  0  0  0  0  0  0  0  0  0  0
   -4.5719   -2.8733    0.2154 H   0  0  0  0  0  0  0  0  0  0  0  0
   -2.7239   -4.0124    0.0951 C   0  0  0  0  0  0  0  0  0  0  0  0
   -3.2339   -4.9881    0.1062 H   0  0  0  0  0  0  0  0  0  0  0  0
   -1.3226   -3.9447    0.0325 C   0  0  0  0  0  0  0  0  0  0  0  0
   -0.6896   -4.8461   -0.0023 H   0  0  0  0  0  0  0  0  0  0  0  0
   -0.6871   -2.6961    0.0192 C   0  0  0  0  0  0  0  0  0  0  0  0
    0.8118   -2.5823   -0.0156 C   0  0  0  0  0  0  0  0  0  0  0  0
    2.5991   -0.8586   -0.0141 C   0  0  0  0  0  0  0  0  0  0  0  0
    3.3105   -1.3814    1.2599 C   0  0  0  0  0  0  0  0  0  0  0  0
    2.8245   -0.9678    2.1654 H   0  0  0  0  0  0  0  0  0  0  0  0
    4.3857   -1.1107    1.2736 H   0  0  0  0  0  0  0  0  0  0  0  0
    3.2141   -2.4835    1.2718 H   0  0  0  0  0  0  0  0  0  0  0  0
    3.3060   -1.3910   -1.2877 C   0  0  0  0  0  0  0  0  0  0  0  0
    3.2073   -2.4927   -1.2924 H   0  0  0  0  0  0  0  0  0  0  0  0
    4.3811   -1.1202   -1.3059 H   0  0  0  0  0  0  0  0  0  0  0  0
    2.8175   -0.9816   -2.1939 H   0  0  0  0  0  0  0  0  0  0  0  0
    2.6600    0.6678   -0.0273 C   0  0  1  0  0  3  0  0  0  0  0  0
    3.8906    1.3544   -0.0401 C   0  0  0  0  0  0  0  0  0  0  0  0
    4.8266    0.7792   -0.0297 H   0  0  0  0  0  0  0  0  0  0  0  0
    3.9169    2.7510   -0.0687 C   0  0  0  0  0  0  0  0  0  0  0  0
    4.8768    3.2891   -0.0791 H   0  0  0  0  0  0  0  0  0  0  0  0
    2.7010    3.4540   -0.0876 C   0  0  0  0  0  0  0  0  0  0  0  0
    2.6689    4.5524   -0.1161 H   0  0  0  0  0  0  0  0  0  0  0  0
    1.5158    2.7183   -0.0701 C   0  0  0  0  0  0  0  0  0  0  0  0
    0.5339    3.2175   -0.0841 H   0  0  0  0  0  0  0  0  0  0  0  0
  1 14  2  0  0  0  0
  2 24  1  0  0  0  0
  4  5  1  0  0  0  0
  5  7  2  0  0  0  0
  5  6  1  0  0  0  0
  7  8  1  0  0  0  0
  9 10  1  0  0  0  0
  9  7  1  0  0  0  0
 11  9  2  0  0  0  0
 12 11  1  0  0  0  0
 13 11  1  0  0  0  0
 13  4  2  0  0  0  0
 14  3  1  0  0  0  0
 14 13  1  0  0  0  0
 15  3  1  0  0  0  0
 15 16  1  0  0  0  0
 16 19  1  0  0  0  0
 16 18  1  0  0  0  0
 16 17  1  0  0  0  0
 20 15  1  0  0  0  0
 21 20  1  0  0  0  0
 22 20  1  0  0  0  0
 23 20  1  0  0  0  0
 24 15  1  6  0  0  0
 25 26  1  0  0  0  0
 25 24  1  0  0  0  0
 27 25  2  0  0  0  0
 28 27  1  0  0  0  0
 29 31  2  0  0  0  0
 29 27  1  0  0  0  0
 30 29  1  0  0  0  0
 31  2  1  0  0  0  0
 32 31  1  0  0  0  0
M  END
