2,5,22
 OpenBabel05122313063D

 36 38  0  0  0  0  0  0  0  0999 V2000
   -5.5736    0.8835    0.0009 O   0  0  0  0  0  0  0  0  0  0  0  0
    1.5770   -1.8267    0.0000 N   0  0  0  0  0  2  0  0  0  0  0  0
   -4.4920   -1.1566   -0.0004 N   0  0  0  0  0  0  0  0  0  0  0  0
   -4.6680   -2.1615   -0.0009 H   0  0  0  0  0  0  0  0  0  0  0  0
    0.7041    2.1108   -0.0000 N   0  0  0  0  0  2  0  0  0  0  0  0
    2.7224   -2.5414    0.0001 C   0  0  0  0  0  3  0  0  0  0  0  0
    3.6417   -1.9316    0.0002 H   0  0  0  0  0  0  0  0  0  0  0  0
    2.7186   -3.9393    0.0002 C   0  0  0  0  0  0  0  0  0  0  0  0
    3.6734   -4.4832    0.0002 H   0  0  0  0  0  0  0  0  0  0  0  0
    1.4871   -4.6151    0.0001 C   0  0  0  0  0  0  0  0  0  0  0  0
    1.4527   -5.7148    0.0001 H   0  0  0  0  0  0  0  0  0  0  0  0
    0.2999   -3.8748   -0.0000 C   0  0  0  0  0  0  0  0  0  0  0  0
   -0.6770   -4.3784   -0.0001 H   0  0  0  0  0  0  0  0  0  0  0  0
    0.3441   -2.4698   -0.0000 C   0  0  0  0  0  0  0  0  0  0  0  0
   -0.8040   -1.5576   -0.0001 C   0  0  0  0  0  0  0  0  0  0  0  0
   -2.1800   -1.8474   -0.0002 C   0  0  0  0  0  0  0  0  0  0  0  0
   -2.5401   -2.8901   -0.0002 H   0  0  0  0  0  0  0  0  0  0  0  0
   -3.1287   -0.7929   -0.0003 C   0  0  0  0  0  0  0  0  0  0  0  0
   -2.7159    0.5648   -0.0003 C   0  0  0  0  0  3  0  0  0  0  0  0
   -3.4945    1.3382   -0.0003 H   0  0  0  0  0  0  0  0  0  0  0  0
   -1.3407    0.8582   -0.0002 C   0  0  0  0  0  0  0  0  0  0  0  0
   -0.4058   -0.2010   -0.0001 C   0  0  0  0  0  3  0  0  0  0  0  0
   -0.6843    2.1705   -0.0001 C   0  0  0  0  0  0  0  0  0  0  0  0
   -1.3238    3.4217   -0.0001 C   0  0  0  0  0  0  0  0  0  0  0  0
   -2.4222    3.4568   -0.0002 H   0  0  0  0  0  0  0  0  0  0  0  0
   -0.5628    4.5958   -0.0001 C   0  0  0  0  0  0  0  0  0  0  0  0
   -1.0611    5.5767   -0.0001 H   0  0  0  0  0  0  0  0  0  0  0  0
    0.8393    4.5074    0.0000 C   0  0  0  0  0  0  0  0  0  0  0  0
    1.4723    5.4056    0.0001 H   0  0  0  0  0  0  0  0  0  0  0  0
    1.4379    3.2441    0.0000 C   0  0  0  0  0  0  0  0  0  0  0  0
    2.5291    3.0838    0.0001 H   0  0  0  0  0  0  0  0  0  0  0  0
   -5.6118   -0.3446    0.0003 C   0  0  0  0  0  0  0  0  0  0  0  0
   -6.9334   -1.1021    0.0001 C   0  0  0  0  0  0  0  0  0  0  0  0
   -7.5172   -0.7919    0.8891 H   0  0  0  0  0  0  0  0  0  0  0  0
   -6.8355   -2.2052    0.0007 H   0  0  0  0  0  0  0  0  0  0  0  0
   -7.5166   -0.7929   -0.8896 H   0  0  0  0  0  0  0  0  0  0  0  0
  2  6  1  0  0  0  0
  3 18  1  0  0  0  0
  3 32  1  0  0  0  0
  4  3  1  0  0  0  0
  5 30  1  0  0  0  0
  6  8  1  0  0  0  0
  6  7  1  0  0  0  0
  8  9  1  0  0  0  0
 10 11  1  0  0  0  0
 10  8  2  0  0  0  0
 12 10  1  0  0  0  0
 13 12  1  0  0  0  0
 14 12  2  0  0  0  0
 14  2  1  0  0  0  0
 15 22  2  0  0  0  0
 15 14  1  0  0  0  0
 16 17  1  0  0  0  0
 16 15  1  0  0  0  0
 18 19  1  0  0  0  0
 18 16  2  0  0  0  0
 19 21  1  0  0  0  0
 20 19  1  0  0  0  0
 21 22  1  0  0  0  0
 21 23  2  0  0  0  0
 23  5  1  0  0  0  0
 24 23  1  0  0  0  0
 24 26  2  0  0  0  0
 25 24  1  0  0  0  0
 26 27  1  0  0  0  0
 26 28  1  0  0  0  0
 28 30  2  0  0  0  0
 28 29  1  0  0  0  0
 30 31  1  0  0  0  0
 32  1  2  0  0  0  0
 33 32  1  0  0  0  0
 33 35  1  0  0  0  0
 33 34  1  0  0  0  0
 36 33  1  0  0  0  0
M  END
