9,10,24
 OpenBabel05122313063D

 81 83  0  0  0  0  0  0  0  0999 V2000
    3.3072   -1.3632   -2.6556 O   0  0  0  0  0  0  0  0  0  0  0  0
    2.8160   -1.9637   -0.5156 O   0  0  0  0  0  0  0  0  0  0  0  0
    3.9280    2.1988   -1.0166 O   0  0  0  0  0  0  0  0  0  0  0  0
    4.1154    0.5138    0.4957 O   0  0  0  0  0  0  0  0  0  0  0  0
   -1.9891   -3.4266    0.8374 O   0  0  0  0  0  0  0  0  0  0  0  0
   -3.3799   -2.4689   -0.6892 O   0  0  0  0  0  0  0  0  0  0  0  0
   -1.8519   -0.1000    3.0191 O   0  0  0  0  0  0  0  0  0  0  0  0
   -0.3470   -1.5122    2.0579 O   0  0  0  0  0  0  0  0  0  0  0  0
   -2.3580    1.5737    0.3219 N   0  0  0  0  0  2  0  0  0  0  0  0
   -0.1854    2.0080   -1.1848 N   0  0  0  0  0  2  0  0  0  0  0  0
    0.9491    2.1976   -1.8821 C   0  0  0  0  0  0  0  0  0  0  0  0
    1.4220    3.5118   -2.1621 C   0  0  0  0  0  0  0  0  0  0  0  0
    0.7261    4.6250   -1.7162 C   0  0  0  0  0  0  0  0  0  0  0  0
   -0.4527    4.4466   -0.9459 C   0  0  0  0  0  0  0  0  0  0  0  0
   -0.8563    3.1030   -0.7021 C   0  0  0  0  0  0  0  0  0  0  0  0
   -2.0208    2.8706    0.1035 C   0  0  0  0  0  0  0  0  0  0  0  0
   -2.7871    3.9372    0.6454 C   0  0  0  0  0  0  0  0  0  0  0  0
   -3.9195    3.5747    1.4275 C   0  0  0  0  0  0  0  0  0  0  0  0
   -4.2469    2.2336    1.6142 C   0  0  0  0  0  0  0  0  0  0  0  0
   -3.4478    1.2201    1.0306 C   0  0  0  0  0  0  0  0  0  0  0  0
   -1.2364    5.5212   -0.3955 C   0  0  0  0  0  0  0  0  0  0  0  0
   -2.3591    5.2810    0.3674 C   0  0  0  0  0  0  0  0  0  0  0  0
   -3.6904   -0.2560    1.0253 C   0  0  0  0  0  0  0  0  0  0  0  0
   -2.3533   -1.0167    0.8514 C   0  0  0  0  0  3  0  0  0  0  0  0
    1.7214    0.9860   -2.3146 C   0  0  0  0  0  0  0  0  0  0  0  0
    2.4085    0.2932   -1.1252 C   0  0  0  0  0  0  0  0  0  0  0  0
    2.8986   -1.1001   -1.5398 C   0  0  0  0  0  0  0  0  0  0  0  0
    3.5588    1.1257   -0.5678 C   0  0  0  0  0  0  0  0  0  0  0  0
    3.0747   -3.3690   -0.8125 C   0  0  0  0  0  0  0  0  0  0  0  0
    4.5634   -3.6474   -0.6456 C   0  0  0  0  0  0  0  0  0  0  0  0
    2.1724   -4.1710    0.1111 C   0  0  0  0  0  0  0  0  0  0  0  0
    5.2388    1.1743    1.1498 C   0  0  0  0  0  0  0  0  0  0  0  0
    4.7110    2.2207    2.1245 C   0  0  0  0  0  0  0  0  0  0  0  0
    6.0435    0.0644    1.8075 C   0  0  0  0  0  0  0  0  0  0  0  0
   -2.5177   -2.4378    0.3627 C   0  0  0  0  0  0  0  0  0  0  0  0
   -3.5028   -3.7296   -1.4026 C   0  0  0  0  0  0  0  0  0  0  0  0
   -4.7253   -4.4772   -0.8835 C   0  0  0  0  0  0  0  0  0  0  0  0
   -3.5545   -3.3821   -2.8827 C   0  0  0  0  0  0  0  0  0  0  0  0
   -1.5085   -0.8344    2.0963 C   0  0  0  0  0  0  0  0  0  0  0  0
    0.5598   -1.3827    3.1879 C   0  0  0  0  0  0  0  0  0  0  0  0
    0.8507   -2.7900    3.6902 C   0  0  0  0  0  0  0  0  0  0  0  0
    1.7916   -0.6273    2.7038 C   0  0  0  0  0  0  0  0  0  0  0  0
    2.3636    3.6132   -2.7166 H   0  0  0  0  0  0  0  0  0  0  0  0
    1.0880    5.6414   -1.9352 H   0  0  0  0  0  0  0  0  0  0  0  0
   -4.5364    4.3655    1.8809 H   0  0  0  0  0  0  0  0  0  0  0  0
   -5.1217    1.9455    2.2135 H   0  0  0  0  0  0  0  0  0  0  0  0
   -0.9131    6.5541   -0.5952 H   0  0  0  0  0  0  0  0  0  0  0  0
   -2.9421    6.1181    0.7802 H   0  0  0  0  0  0  0  0  0  0  0  0
   -4.3360   -0.4970    0.1542 H   0  0  0  0  0  0  0  0  0  0  0  0
   -4.2265   -0.5805    1.9416 H   0  0  0  0  0  0  0  0  0  0  0  0
    2.4816    1.2550   -3.0695 H   0  0  0  0  0  0  0  0  0  0  0  0
    1.0202    0.2465   -2.7514 H   0  0  0  0  0  0  0  0  0  0  0  0
    1.6818    0.1294   -0.3017 H   0  0  0  0  0  0  0  0  0  0  0  0
    2.7847   -3.5252   -1.8723 H   0  0  0  0  0  0  0  0  0  0  0  0
    4.7785   -4.7180   -0.8370 H   0  0  0  0  0  0  0  0  0  0  0  0
    5.1547   -3.0434   -1.3610 H   0  0  0  0  0  0  0  0  0  0  0  0
    4.8908   -3.4063    0.3867 H   0  0  0  0  0  0  0  0  0  0  0  0
    2.2322   -5.2480   -0.1432 H   0  0  0  0  0  0  0  0  0  0  0  0
    2.4850   -4.0512    1.1685 H   0  0  0  0  0  0  0  0  0  0  0  0
    1.1208   -3.8366    0.0144 H   0  0  0  0  0  0  0  0  0  0  0  0
    5.8293    1.6772    0.3550 H   0  0  0  0  0  0  0  0  0  0  0  0
    5.5538    2.7181    2.6450 H   0  0  0  0  0  0  0  0  0  0  0  0
    4.1341    2.9965    1.5854 H   0  0  0  0  0  0  0  0  0  0  0  0
    4.0581    1.7499    2.8870 H   0  0  0  0  0  0  0  0  0  0  0  0
    6.9452    0.4820    2.2973 H   0  0  0  0  0  0  0  0  0  0  0  0
    5.4358   -0.4549    2.5760 H   0  0  0  0  0  0  0  0  0  0  0  0
    6.3656   -0.6841    1.0574 H   0  0  0  0  0  0  0  0  0  0  0  0
   -2.5888   -4.3155   -1.1742 H   0  0  0  0  0  0  0  0  0  0  0  0
   -4.8519   -5.4357   -1.4263 H   0  0  0  0  0  0  0  0  0  0  0  0
   -4.6113   -4.7051    0.1944 H   0  0  0  0  0  0  0  0  0  0  0  0
   -5.6457   -3.8742   -1.0264 H   0  0  0  0  0  0  0  0  0  0  0  0
   -3.6154   -4.3059   -3.4923 H   0  0  0  0  0  0  0  0  0  0  0  0
   -4.4405   -2.7548   -3.1122 H   0  0  0  0  0  0  0  0  0  0  0  0
   -2.6407   -2.8249   -3.1667 H   0  0  0  0  0  0  0  0  0  0  0  0
    0.0304   -0.7952    3.9656 H   0  0  0  0  0  0  0  0  0  0  0  0
    1.5297   -2.7542    4.5658 H   0  0  0  0  0  0  0  0  0  0  0  0
   -0.0862   -3.2985    3.9893 H   0  0  0  0  0  0  0  0  0  0  0  0
    1.3284   -3.3952    2.8951 H   0  0  0  0  0  0  0  0  0  0  0  0
    2.5311   -0.5282    3.5247 H   0  0  0  0  0  0  0  0  0  0  0  0
    2.2741   -1.1493    1.8544 H   0  0  0  0  0  0  0  0  0  0  0  0
    1.5169    0.3929    2.3682 H   0  0  0  0  0  0  0  0  0  0  0  0
  1 27  2  0  0  0  0
  3 28  2  0  0  0  0
  4 32  1  0  0  0  0
  6 35  1  0  0  0  0
  8 39  1  0  0  0  0
  8 40  1  0  0  0  0
  9 20  1  0  0  0  0
 10 15  1  0  0  0  0
 11 10  1  0  0  0  0
 12 11  2  0  0  0  0
 12 13  1  0  0  0  0
 13 14  2  0  0  0  0
 14 15  1  0  0  0  0
 14 21  1  0  0  0  0
 15 16  2  0  0  0  0
 16  9  1  0  0  0  0
 16 17  1  0  0  0  0
 17 18  2  0  0  0  0
 18 19  1  0  0  0  0
 18 45  1  0  0  0  0
 19 46  1  0  0  0  0
 20 19  2  0  0  0  0
 21 22  2  0  0  0  0
 22 17  1  0  0  0  0
 22 48  1  0  0  0  0
 23 20  1  0  0  0  0
 23 50  1  0  0  0  0
 24 23  1  0  0  0  0
 24 39  1  0  0  0  0
 25 11  1  0  0  0  0
 25 26  1  0  0  0  0
 26 28  1  0  0  0  0
 26 53  1  0  0  0  0
 27 26  1  0  0  0  0
 27  2  1  0  0  0  0
 28  4  1  0  0  0  0
 29 30  1  0  0  0  0
 29  2  1  0  0  0  0
 29 31  1  0  0  0  0
 30 57  1  0  0  0  0
 31 59  1  0  0  0  0
 32 34  1  0  0  0  0
 32 33  1  0  0  0  0
 33 62  1  0  0  0  0
 33 64  1  0  0  0  0
 34 65  1  0  0  0  0
 34 66  1  0  0  0  0
 35  5  2  0  0  0  0
 35 24  1  0  0  0  0
 36 68  1  0  0  0  0
 36 37  1  0  0  0  0
 36  6  1  0  0  0  0
 37 70  1  0  0  0  0
 38 36  1  0  0  0  0
 39  7  2  0  0  0  0
 40 41  1  0  0  0  0
 40 75  1  0  0  0  0
 41 77  1  0  0  0  0
 41 76  1  0  0  0  0
 42 40  1  0  0  0  0
 42 79  1  0  0  0  0
 43 12  1  0  0  0  0
 44 13  1  0  0  0  0
 47 21  1  0  0  0  0
 49 23  1  0  0  0  0
 51 25  1  0  0  0  0
 52 25  1  0  0  0  0
 54 29  1  0  0  0  0
 55 30  1  0  0  0  0
 56 30  1  0  0  0  0
 58 31  1  0  0  0  0
 60 31  1  0  0  0  0
 61 32  1  0  0  0  0
 63 33  1  0  0  0  0
 67 34  1  0  0  0  0
 69 37  1  0  0  0  0
 71 37  1  0  0  0  0
 72 38  1  0  0  0  0
 73 38  1  0  0  0  0
 74 38  1  0  0  0  0
 78 41  1  0  0  0  0
 80 42  1  0  0  0  0
 81 42  1  0  0  0  0
M  END
