5,6,18
 OpenBabel05122313063D

 43 44  0  0  0  0  0  0  0  0999 V2000
   -3.7630   -0.2667    0.3705 O   0  0  0  0  0  0  0  0  0  0  0  0
   -2.8200    0.2404   -1.6299 O   0  0  0  0  0  0  0  0  0  0  0  0
   -0.7298    1.7312    2.3279 O   0  0  0  0  0  0  0  0  0  0  0  0
   -1.8938   -0.2206    2.4187 O   0  0  0  0  0  0  0  0  0  0  0  0
    2.0572   -1.0989   -0.4880 N   0  0  0  0  0  2  0  0  0  0  0  0
    1.0173    1.2855   -0.3504 N   0  0  0  0  0  2  0  0  0  0  0  0
    2.4692   -2.3760   -0.5577 C   0  0  0  0  0  0  0  0  0  0  0  0
    3.8252   -2.7068   -0.6762 C   0  0  0  0  0  0  0  0  0  0  0  0
    4.7719   -1.6714   -0.7190 C   0  0  0  0  0  0  0  0  0  0  0  0
    4.3381   -0.3420   -0.6405 C   0  0  0  0  0  0  0  0  0  0  0  0
    2.9630   -0.0735   -0.5237 C   0  0  0  0  0  0  0  0  0  0  0  0
    2.3765    1.2803   -0.4330 C   0  0  0  0  0  0  0  0  0  0  0  0
    3.0717    2.4994   -0.4320 C   0  0  0  0  0  0  0  0  0  0  0  0
    2.3395    3.6932   -0.3359 C   0  0  0  0  0  0  0  0  0  0  0  0
    0.9381    3.6607   -0.2680 C   0  0  0  0  0  0  0  0  0  0  0  0
    0.2786    2.4215   -0.2895 C   0  0  0  0  0  0  0  0  0  0  0  0
   -1.1962    2.1677   -0.3367 C   0  0  0  0  0  0  0  0  0  0  0  0
   -1.5610    0.7942    0.2814 C   0  0  0  0  0  3  0  0  0  0  0  0
   -2.8334    0.1945   -0.2600 C   0  0  0  0  0  0  0  0  0  0  0  0
   -3.9131   -0.4356   -2.2746 C   0  0  0  0  0  0  0  0  0  0  0  0
   -3.7158   -0.3150   -3.7722 C   0  0  0  0  0  0  0  0  0  0  0  0
   -1.3672    0.8362    1.7739 C   0  0  0  0  0  0  0  0  0  0  0  0
   -1.4807   -0.4231    3.7818 C   0  0  0  0  0  0  0  0  0  0  0  0
   -0.1837   -1.2188    3.8203 C   0  0  0  0  0  0  0  0  0  0  0  0
    1.6568   -3.1225   -0.5048 H   0  0  0  0  0  0  0  0  0  0  0  0
    4.1278   -3.7621   -0.7314 H   0  0  0  0  0  0  0  0  0  0  0  0
    5.8447   -1.8967   -0.8107 H   0  0  0  0  0  0  0  0  0  0  0  0
    5.0614    0.4845   -0.6684 H   0  0  0  0  0  0  0  0  0  0  0  0
    4.1677    2.5188   -0.5000 H   0  0  0  0  0  0  0  0  0  0  0  0
    2.8685    4.6573   -0.3187 H   0  0  0  0  0  0  0  0  0  0  0  0
    0.3517    4.5871   -0.1969 H   0  0  0  0  0  0  0  0  0  0  0  0
   -1.4961    2.1483   -1.4060 H   0  0  0  0  0  0  0  0  0  0  0  0
   -1.7548    2.9929    0.1529 H   0  0  0  0  0  0  0  0  0  0  0  0
   -4.8728    0.0128   -1.9386 H   0  0  0  0  0  0  0  0  0  0  0  0
   -3.9173   -1.4939   -1.9373 H   0  0  0  0  0  0  0  0  0  0  0  0
   -4.5388   -0.8282   -4.3085 H   0  0  0  0  0  0  0  0  0  0  0  0
   -2.7579   -0.7784   -4.0819 H   0  0  0  0  0  0  0  0  0  0  0  0
   -3.7058    0.7471   -4.0904 H   0  0  0  0  0  0  0  0  0  0  0  0
   -2.3146   -0.9819    4.2498 H   0  0  0  0  0  0  0  0  0  0  0  0
   -1.3699    0.5601    4.2831 H   0  0  0  0  0  0  0  0  0  0  0  0
    0.0834   -1.4765    4.8653 H   0  0  0  0  0  0  0  0  0  0  0  0
    0.6462   -0.6262    3.3856 H   0  0  0  0  0  0  0  0  0  0  0  0
   -0.2874   -2.1515    3.2313 H   0  0  0  0  0  0  0  0  0  0  0  0
  2 19  1  0  0  0  0
  4 23  1  0  0  0  0
  6 16  1  0  0  0  0
  7 25  1  0  0  0  0
  7  5  1  0  0  0  0
  8  7  2  0  0  0  0
  9  8  1  0  0  0  0
  9 10  2  0  0  0  0
 10 11  1  0  0  0  0
 11  5  1  0  0  0  0
 11 12  2  0  0  0  0
 12 13  1  0  0  0  0
 12  6  1  0  0  0  0
 13 14  2  0  0  0  0
 14 30  1  0  0  0  0
 14 15  1  0  0  0  0
 15 31  1  0  0  0  0
 16 15  2  0  0  0  0
 17 16  1  0  0  0  0
 17 33  1  0  0  0  0
 17 18  1  0  0  0  0
 18 22  1  0  0  0  0
 19 18  1  0  0  0  0
 19  1  2  0  0  0  0
 20 34  1  0  0  0  0
 20 35  1  0  0  0  0
 20  2  1  0  0  0  0
 21 20  1  0  0  0  0
 22  3  2  0  0  0  0
 22  4  1  0  0  0  0
 23 24  1  0  0  0  0
 23 39  1  0  0  0  0
 23 40  1  0  0  0  0
 24 41  1  0  0  0  0
 26  8  1  0  0  0  0
 27  9  1  0  0  0  0
 28 10  1  0  0  0  0
 29 13  1  0  0  0  0
 32 17  1  0  0  0  0
 36 21  1  0  0  0  0
 37 21  1  0  0  0  0
 38 21  1  0  0  0  0
 42 24  1  0  0  0  0
 43 24  1  0  0  0  0
M  END
