1,2,3
 OpenBabel05122313063D

 34 35  0  0  1  0  0  0  0  0999 V2000
   -0.3952    2.0872    0.0759 N   0  0  0  0  0  2  0  0  0  0  0  0
    2.3813    1.6082    0.2711 N   0  0  0  0  0  0  0  0  0  0  0  0
   -1.2059   -0.6886    0.3176 C   0  0  0  0  0  3  0  0  0  0  0  0
   -1.1962   -2.0120    0.7896 C   0  0  0  0  0  0  0  0  0  0  0  0
   -0.2403   -2.4820    1.0523 H   0  0  0  0  0  0  0  0  0  0  0  0
   -2.3735   -2.7895    0.9081 C   0  0  0  0  0  0  0  0  0  0  0  0
   -2.2964   -3.8260    1.2714 H   0  0  0  0  0  0  0  0  0  0  0  0
   -3.5977   -2.2625    0.5388 C   0  0  0  0  0  0  0  0  0  0  0  0
   -4.5183   -2.8643    0.5847 H   0  0  0  0  0  0  0  0  0  0  0  0
   -3.6818   -0.9105    0.1063 C   0  0  0  0  0  0  0  0  0  0  0  0
   -2.4822   -0.0908    0.0334 C   0  0  1  0  0  3  0  0  0  0  0  0
   -4.9504   -0.3654   -0.2445 C   0  0  0  0  0  0  0  0  0  0  0  0
   -5.8268   -1.0318   -0.2063 H   0  0  0  0  0  0  0  0  0  0  0  0
   -5.0979    0.9642   -0.6147 C   0  0  0  0  0  0  0  0  0  0  0  0
   -6.0849    1.3686   -0.8826 H   0  0  0  0  0  0  0  0  0  0  0  0
   -3.9655    1.7979   -0.6088 C   0  0  0  0  0  0  0  0  0  0  0  0
   -4.0747    2.8684   -0.8443 H   0  0  0  0  0  0  0  0  0  0  0  0
   -2.6867    1.3058   -0.2881 C   0  0  0  0  0  0  0  0  0  0  0  0
   -1.6434    2.2985   -0.2266 C   0  0  0  0  0  0  0  0  0  0  0  0
   -1.9547    3.3414   -0.4438 H   0  0  0  0  0  0  0  0  0  0  0  0
    0.5256    3.2317    0.0492 C   0  0  0  0  0  0  0  0  0  0  0  0
    0.0608    4.1247    0.5201 H   0  0  0  0  0  0  0  0  0  0  0  0
    0.7374    3.4992   -1.0096 H   0  0  0  0  0  0  0  0  0  0  0  0
    1.8098    2.8757    0.7770 C   0  0  0  0  0  0  0  0  0  0  0  0
    2.5484    3.7089    0.6936 H   0  0  0  0  0  0  0  0  0  0  0  0
    1.5872    2.7300    1.8530 H   0  0  0  0  0  0  0  0  0  0  0  0
    2.9788    1.7626   -1.0674 C   0  0  0  0  0  0  0  0  0  0  0  0
    3.8309    2.4830   -1.0447 H   0  0  0  0  0  0  0  0  0  0  0  0
    2.2221    2.1175   -1.7915 H   0  0  0  0  0  0  0  0  0  0  0  0
    3.3336    0.7721   -1.4095 H   0  0  0  0  0  0  0  0  0  0  0  0
    3.3922    1.1004    1.2158 C   0  0  0  0  0  0  0  0  0  0  0  0
    4.2354    1.8235    1.3200 H   0  0  0  0  0  0  0  0  0  0  0  0
    3.7715    0.1281    0.8493 H   0  0  0  0  0  0  0  0  0  0  0  0
    2.9248    0.9369    2.2052 H   0  0  0  0  0  0  0  0  0  0  0  0
  2 24  1  0  0  0  0
  2 31  1  0  0  0  0
  3  4  2  0  0  0  0
  4  6  1  0  0  0  0
  4  5  1  0  0  0  0
  6  7  1  0  0  0  0
  8  9  1  0  0  0  0
  8  6  2  0  0  0  0
 10  8  1  0  0  0  0
 11 10  1  0  0  0  0
 11  3  1  1  0  0  0
 12 13  1  0  0  0  0
 12 10  2  0  0  0  0
 14 16  2  0  0  0  0
 14 12  1  0  0  0  0
 15 14  1  0  0  0  0
 16 18  1  0  0  0  0
 17 16  1  0  0  0  0
 18 19  2  0  0  0  0
 18 11  1  0  0  0  0
 19  1  1  0  0  0  0
 20 19  1  0  0  0  0
 21  1  1  0  0  0  0
 21 22  1  0  0  0  0
 21 24  1  0  0  0  0
 23 21  1  0  0  0  0
 24 26  1  0  0  0  0
 25 24  1  0  0  0  0
 27 28  1  0  0  0  0
 27  2  1  0  0  0  0
 29 27  1  0  0  0  0
 30 27  1  0  0  0  0
 31 32  1  0  0  0  0
 31 34  1  0  0  0  0
 33 31  1  0  0  0  0
M  END
