26,35,36
 OpenBabel05122313063D

 38 40  0  0  0  0  0  0  0  0999 V2000
   -1.4152   -2.8588    0.6073 C   0  0  0  0  0  0  0  0  0  0  0  0
   -0.3529   -2.5701    0.5514 H   0  0  0  0  0  0  0  0  0  0  0  0
   -1.8293   -4.1674    0.8759 C   0  0  0  0  0  0  0  0  0  0  0  0
   -1.0805   -4.9547    1.0412 H   0  0  0  0  0  0  0  0  0  0  0  0
   -3.2060   -4.4427    0.9279 C   0  0  0  0  0  0  0  0  0  0  0  0
   -3.5672   -5.4604    1.1369 H   0  0  0  0  0  0  0  0  0  0  0  0
   -4.1173   -3.4039    0.7100 C   0  0  0  0  0  0  0  0  0  0  0  0
   -5.1990   -3.5920    0.7449 H   0  0  0  0  0  0  0  0  0  0  0  0
   -3.6419   -2.1069    0.4438 C   0  0  0  0  0  0  0  0  0  0  0  0
   -4.5183   -0.9418    0.1998 C   0  0  0  0  0  0  0  0  0  0  0  0
   -5.9202   -0.9392    0.1925 C   0  0  0  0  0  0  0  0  0  0  0  0
   -6.5005   -1.8511    0.3776 H   0  0  0  0  0  0  0  0  0  0  0  0
   -6.5902    0.2755   -0.0613 C   0  0  0  0  0  0  0  0  0  0  0  0
   -5.8553    1.4541   -0.3009 C   0  0  0  0  0  0  0  0  0  0  0  0
   -6.4043    2.3853   -0.4959 H   0  0  0  0  0  0  0  0  0  0  0  0
   -4.4530    1.4142   -0.2859 C   0  0  0  0  0  0  0  0  0  0  0  0
   -3.4938    2.5024   -0.5066 C   0  0  0  0  0  0  0  0  0  0  0  0
   -3.8834    3.8300   -0.7823 C   0  0  0  0  0  0  0  0  0  0  0  0
   -4.9517    4.0909   -0.8404 H   0  0  0  0  0  0  0  0  0  0  0  0
   -2.9140    4.8188   -0.9828 C   0  0  0  0  0  0  0  0  0  0  0  0
   -3.2193    5.8537   -1.1978 H   0  0  0  0  0  0  0  0  0  0  0  0
   -1.5496    4.4817   -0.9078 C   0  0  0  0  0  0  0  0  0  0  0  0
   -0.7871    5.2610   -1.0659 H   0  0  0  0  0  0  0  0  0  0  0  0
   -1.1471    3.1641   -0.6342 C   0  0  0  0  0  3  0  0  0  0  0  0
   -0.0781    2.9113   -0.5780 H   0  0  0  0  0  0  0  0  0  0  0  0
   -2.0973    2.1464   -0.4277 C   0  0  0  0  0  2  0  0  0  0  0  0
   -8.0818    0.3697   -0.0885 C   0  0  0  0  0  0  0  0  0  0  0  0
  -10.1143   -0.8282    0.1472 C   0  0  0  0  0  0  0  0  0  0  0  0
  -10.4752   -0.1022    0.9063 H   0  0  0  0  0  0  0  0  0  0  0  0
  -10.4655   -0.4567   -0.8388 H   0  0  0  0  0  0  0  0  0  0  0  0
  -10.5819   -2.2400    0.4316 C   0  0  0  0  0  0  0  0  0  0  0  0
  -11.6891   -2.2781    0.4331 H   0  0  0  0  0  0  0  0  0  0  0  0
  -10.2237   -2.5875    1.4210 H   0  0  0  0  0  0  0  0  0  0  0  0
  -10.2139   -2.9453   -0.3399 H   0  0  0  0  0  0  0  0  0  0  0  0
   -2.2915   -1.8568    0.3973 N   0  0  0  0  0  2  0  0  0  0  0  0
   -3.8385    0.2145   -0.0354 N   0  0  0  0  0  2  0  0  0  0  0  0
   -8.7019    1.3978   -0.3037 O   0  0  0  0  0  0  0  0  0  0  0  0
   -8.6704   -0.8269    0.1550 O   0  0  0  0  0  0  0  0  0  0  0  0
  1  3  2  0  0  0  0
  2  1  1  0  0  0  0
  3  5  1  0  0  0  0
  3  4  1  0  0  0  0
  5  6  1  0  0  0  0
  7  8  1  0  0  0  0
  7  5  2  0  0  0  0
  9  7  1  0  0  0  0
 10  9  2  0  0  0  0
 11 10  1  0  0  0  0
 11 12  1  0  0  0  0
 13 11  2  0  0  0  0
 14 16  2  0  0  0  0
 14 13  1  0  0  0  0
 15 14  1  0  0  0  0
 16 36  1  0  0  0  0
 17 26  1  0  0  0  0
 17 16  1  0  0  0  0
 18 17  2  0  0  0  0
 19 18  1  0  0  0  0
 20 22  2  0  0  0  0
 20 18  1  0  0  0  0
 21 20  1  0  0  0  0
 22 24  1  0  0  0  0
 23 22  1  0  0  0  0
 24 25  1  0  0  0  0
 24 26  1  0  0  0  0
 27 13  1  0  0  0  0
 27 38  1  0  0  0  0
 28 38  1  0  0  0  0
 28 31  1  0  0  0  0
 28 29  1  0  0  0  0
 30 28  1  0  0  0  0
 31 32  1  0  0  0  0
 31 33  1  0  0  0  0
 34 31  1  0  0  0  0
 35  9  1  0  0  0  0
 35  1  1  0  0  0  0
 36 10  1  0  0  0  0
 37 27  2  0  0  0  0
M  END
