1,2,4
 OpenBabel05122313063D

 35 37  0  0  1  0  0  0  0  0999 V2000
    2.7972   -0.2655   -0.0017 N   0  0  0  0  0  2  0  0  0  0  0  0
    0.9419    1.7440   -0.1215 N   0  0  0  0  0  0  0  0  0  0  0  0
   -2.1566   -1.2429    0.1083 N   0  0  0  0  0  0  0  0  0  0  0  0
   -1.2747   -0.1814    0.0163 C   0  0  0  0  0  3  0  0  0  0  0  0
   -3.4585   -0.8014    0.0305 C   0  0  0  0  0  0  0  0  0  0  0  0
   -4.6747   -1.5035    0.0825 C   0  0  0  0  0  0  0  0  0  0  0  0
   -5.8604   -0.7653   -0.0252 C   0  0  0  0  0  0  0  0  0  0  0  0
   -5.8356    0.6427   -0.1795 C   0  0  0  0  0  0  0  0  0  0  0  0
   -4.6251    1.3431   -0.2295 C   0  0  0  0  0  0  0  0  0  0  0  0
   -3.4103    0.6284   -0.1217 C   0  0  0  0  0  0  0  0  0  0  0  0
   -2.0178    0.9998   -0.1257 C   0  0  0  0  0  0  0  0  0  0  0  0
   -1.4674    2.3852   -0.2843 C   0  0  0  0  0  0  0  0  0  0  0  0
   -0.1334    2.6122    0.4202 C   0  0  0  0  0  0  0  0  0  0  0  0
    2.2696    2.0508    0.4612 C   0  0  0  0  0  0  0  0  0  0  0  0
    3.2903    0.9937    0.1136 C   0  0  1  0  0  3  0  0  0  0  0  0
    4.6592    1.2585   -0.0231 C   0  0  0  0  0  0  0  0  0  0  0  0
    5.5367    0.1892   -0.2618 C   0  0  0  0  0  0  0  0  0  0  0  0
    5.0151   -1.1094   -0.3620 C   0  0  0  0  0  0  0  0  0  0  0  0
    3.6344   -1.2976   -0.2324 C   0  0  0  0  0  0  0  0  0  0  0  0
   -1.8206   -2.2038    0.2112 H   0  0  0  0  0  0  0  0  0  0  0  0
   -4.6930   -2.5975    0.2017 H   0  0  0  0  0  0  0  0  0  0  0  0
   -6.8279   -1.2891    0.0096 H   0  0  0  0  0  0  0  0  0  0  0  0
   -6.7862    1.1918   -0.2622 H   0  0  0  0  0  0  0  0  0  0  0  0
   -4.6219    2.4379   -0.3535 H   0  0  0  0  0  0  0  0  0  0  0  0
    0.9865    1.8954   -1.1422 H   0  0  0  0  0  0  0  0  0  0  0  0
   -1.3525    2.6667   -1.3610 H   0  0  0  0  0  0  0  0  0  0  0  0
   -2.1837    3.1275    0.1275 H   0  0  0  0  0  0  0  0  0  0  0  0
   -0.2237    2.3795    1.5007 H   0  0  0  0  0  0  0  0  0  0  0  0
    0.1802    3.6771    0.3167 H   0  0  0  0  0  0  0  0  0  0  0  0
    2.6229    3.0636    0.1643 H   0  0  0  0  0  0  0  0  0  0  0  0
    2.1375    2.0633    1.5651 H   0  0  0  0  0  0  0  0  0  0  0  0
    5.0315    2.2900    0.0622 H   0  0  0  0  0  0  0  0  0  0  0  0
    6.6162    0.3708   -0.3709 H   0  0  0  0  0  0  0  0  0  0  0  0
    5.6682   -1.9745   -0.5459 H   0  0  0  0  0  0  0  0  0  0  0  0
    3.1427   -2.2830   -0.3019 H   0  0  0  0  0  0  0  0  0  0  0  0
  1 15  1  0  0  0  0
  2 13  1  0  0  0  0
  2 14  1  0  0  0  0
  3 20  1  0  0  0  0
  4  3  1  0  0  0  0
  5  6  1  0  0  0  0
  5  3  1  0  0  0  0
  6 21  1  0  0  0  0
  7 22  1  0  0  0  0
  7  6  2  0  0  0  0
  8  7  1  0  0  0  0
  9  8  2  0  0  0  0
  9 10  1  0  0  0  0
 10  5  2  0  0  0  0
 11 10  1  0  0  0  0
 11  4  2  0  0  0  0
 12 11  1  0  0  0  0
 12 27  1  0  0  0  0
 12 13  1  0  0  0  0
 13 28  1  0  0  0  0
 14 31  1  0  0  0  0
 15 14  1  1  0  0  0
 16 32  1  0  0  0  0
 16 15  1  0  0  0  0
 17 16  2  0  0  0  0
 18 17  1  0  0  0  0
 18 19  2  0  0  0  0
 19  1  1  0  0  0  0
 23  8  1  0  0  0  0
 24  9  1  0  0  0  0
 25  2  1  0  0  0  0
 26 12  1  0  0  0  0
 29 13  1  0  0  0  0
 30 14  1  0  0  0  0
 33 17  1  0  0  0  0
 34 18  1  0  0  0  0
 35 19  1  0  0  0  0
M  END
