2,3,5
 OpenBabel05122313063D

 38 40  0  0  1  0  0  0  0  0999 V2000
    0.1698   -1.7718   -0.3079 N   0  0  0  0  0  0  0  0  0  0  0  0
   -0.1756   -0.4785   -0.1631 N   0  0  0  0  0  2  0  0  0  0  0  0
   -0.2691    2.1568   -0.0498 N   0  0  0  0  0  2  0  0  0  0  0  0
    1.5606   -2.0221   -0.1350 C   0  0  1  0  0  3  0  0  0  0  0  0
    2.4098   -0.8860    0.0112 C   0  0  0  0  0  2  0  0  0  0  0  0
    3.7838   -1.1000    0.1754 C   0  0  0  0  0  0  0  0  0  0  0  0
    4.4417   -0.2247    0.2816 H   0  0  0  0  0  0  0  0  0  0  0  0
    4.3116   -2.4065    0.1933 C   0  0  0  0  0  0  0  0  0  0  0  0
    5.3956   -2.5569    0.3135 H   0  0  0  0  0  0  0  0  0  0  0  0
    3.4612   -3.5138    0.0638 C   0  0  0  0  0  0  0  0  0  0  0  0
    3.8690   -4.5354    0.0934 H   0  0  0  0  0  0  0  0  0  0  0  0
    2.0771   -3.3303   -0.0956 C   0  0  0  0  0  0  0  0  0  0  0  0
    1.4160   -4.2066   -0.1661 H   0  0  0  0  0  0  0  0  0  0  0  0
   -1.4154    0.0288   -0.1386 C   0  0  0  0  0  0  0  0  0  0  0  0
   -1.4708    1.4988   -0.0756 C   0  0  0  0  0  0  0  0  0  0  0  0
   -2.6731    2.2371   -0.0034 C   0  0  0  0  0  0  0  0  0  0  0  0
   -3.6371    1.7122    0.0095 H   0  0  0  0  0  0  0  0  0  0  0  0
   -2.6183    3.6347    0.0639 C   0  0  0  0  0  0  0  0  0  0  0  0
   -3.5514    4.2155    0.1193 H   0  0  0  0  0  0  0  0  0  0  0  0
   -1.3740    4.2833    0.0687 C   0  0  0  0  0  0  0  0  0  0  0  0
   -1.2939    5.3780    0.1226 H   0  0  0  0  0  0  0  0  0  0  0  0
   -0.2159    3.4940    0.0184 C   0  0  0  0  0  0  0  0  0  0  0  0
    0.8051    3.9131    0.0432 H   0  0  0  0  0  0  0  0  0  0  0  0
   -2.6578   -0.7721    0.0151 C   0  0  0  0  0  0  0  0  0  0  0  0
   -3.7110   -0.6998   -0.9241 C   0  0  0  0  0  0  0  0  0  0  0  0
   -3.5917   -0.0737   -1.8215 H   0  0  0  0  0  0  0  0  0  0  0  0
   -4.8874   -1.4378   -0.7326 C   0  0  0  0  0  0  0  0  0  0  0  0
   -5.6953   -1.3798   -1.4776 H   0  0  0  0  0  0  0  0  0  0  0  0
   -5.0325   -2.2553    0.4006 C   0  0  0  0  0  0  0  0  0  0  0  0
   -5.9561   -2.8346    0.5490 H   0  0  0  0  0  0  0  0  0  0  0  0
   -3.9953   -2.3279    1.3441 C   0  0  0  0  0  0  0  0  0  0  0  0
   -4.1061   -2.9591    2.2388 H   0  0  0  0  0  0  0  0  0  0  0  0
   -2.8180   -1.5896    1.1569 C   0  0  0  0  0  0  0  0  0  0  0  0
   -2.0093   -1.6354    1.9023 H   0  0  0  0  0  0  0  0  0  0  0  0
   -0.7140   -2.7634   -0.8975 C   0  0  0  0  0  0  0  0  0  0  0  0
   -1.4242   -2.2647   -1.5813 H   0  0  0  0  0  0  0  0  0  0  0  0
   -1.2991   -3.3308   -0.1447 H   0  0  0  0  0  0  0  0  0  0  0  0
   -0.0928   -3.4648   -1.4840 H   0  0  0  0  0  0  0  0  0  0  0  0
  1  2  1  0  0  0  0
  2 14  1  0  0  0  0
  3 22  1  0  0  0  0
  4  1  1  1  0  0  0
  4 12  1  0  0  0  0
  4  5  1  0  0  0  0
  5  6  1  0  0  0  0
  6  8  2  0  0  0  0
  6  7  1  0  0  0  0
  8  9  1  0  0  0  0
 10 11  1  0  0  0  0
 10  8  1  0  0  0  0
 12 10  2  0  0  0  0
 13 12  1  0  0  0  0
 14 15  2  0  0  0  0
 14 24  1  0  0  0  0
 15  3  1  0  0  0  0
 15 16  1  0  0  0  0
 16 17  1  0  0  0  0
 16 18  2  0  0  0  0
 18 20  1  0  0  0  0
 18 19  1  0  0  0  0
 20 21  1  0  0  0  0
 22 23  1  0  0  0  0
 22 20  2  0  0  0  0
 24 33  1  0  0  0  0
 25 27  1  0  0  0  0
 25 24  2  0  0  0  0
 26 25  1  0  0  0  0
 27 29  2  0  0  0  0
 28 27  1  0  0  0  0
 29 30  1  0  0  0  0
 29 31  1  0  0  0  0
 31 32  1  0  0  0  0
 33 31  2  0  0  0  0
 33 34  1  0  0  0  0
 35  1  1  0  0  0  0
 35 37  1  0  0  0  0
 36 35  1  0  0  0  0
 38 35  1  0  0  0  0
M  END
