1,2,11
 OpenBabel05122313063D

 36 37  0  0  0  0  0  0  0  0999 V2000
   -1.7094   -1.1014   -0.0550 N   0  0  0  0  0  2  0  0  0  0  0  0
    2.1229    0.4457    0.0529 N   0  0  0  0  0  0  0  0  0  0  0  0
   -3.8127   -0.2855   -0.0520 O   0  0  0  0  0  0  0  0  0  0  0  0
   -3.9667   -1.7333    0.0931 C   0  0  0  0  0  0  0  0  0  0  0  0
   -4.6676   -2.0769   -0.6916 H   0  0  0  0  0  0  0  0  0  0  0  0
   -4.4190   -1.9201    1.0884 H   0  0  0  0  0  0  0  0  0  0  0  0
   -2.5320   -2.3073   -0.0439 C   0  0  0  0  0  0  0  0  0  0  0  0
   -2.2384   -2.9699    0.7944 H   0  0  0  0  0  0  0  0  0  0  0  0
   -2.3765   -2.8788   -0.9835 H   0  0  0  0  0  0  0  0  0  0  0  0
   -2.4932   -0.0462   -0.0785 C   0  0  0  0  0  0  0  0  0  0  0  0
   -0.4614    1.1156   -0.1692 C   0  0  0  0  0  2  0  0  0  0  0  0
   -1.8690    1.2682   -0.1337 C   0  0  0  0  0  0  0  0  0  0  0  0
   -2.4450    2.5525   -0.1396 C   0  0  0  0  0  0  0  0  0  0  0  0
   -3.5375    2.6812   -0.1098 H   0  0  0  0  0  0  0  0  0  0  0  0
   -1.5889    3.6662   -0.1776 C   0  0  0  0  0  0  0  0  0  0  0  0
   -2.0179    4.6791   -0.1777 H   0  0  0  0  0  0  0  0  0  0  0  0
   -0.1841    3.5128   -0.2156 C   0  0  0  0  0  0  0  0  0  0  0  0
    0.4534    4.4117   -0.2477 H   0  0  0  0  0  0  0  0  0  0  0  0
    0.3928    2.2297   -0.2147 C   0  0  0  0  0  0  0  0  0  0  0  0
    1.8586    1.8898   -0.3260 C   0  0  0  0  0  0  0  0  0  0  0  0
    2.5123    2.5547    0.2813 H   0  0  0  0  0  0  0  0  0  0  0  0
    2.1776    2.0176   -1.3806 H   0  0  0  0  0  0  0  0  0  0  0  0
    2.6173    0.3433    1.4628 C   0  0  0  0  0  0  0  0  0  0  0  0
    3.6100    0.8520    1.5132 H   0  0  0  0  0  0  0  0  0  0  0  0
    2.7752   -0.7391    1.6421 H   0  0  0  0  0  0  0  0  0  0  0  0
    1.6787    0.9115    2.5171 C   0  0  0  0  0  0  0  0  0  0  0  0
    2.1347    0.7704    3.5171 H   0  0  0  0  0  0  0  0  0  0  0  0
    0.7035    0.3842    2.4990 H   0  0  0  0  0  0  0  0  0  0  0  0
    1.4832    1.9940    2.3838 H   0  0  0  0  0  0  0  0  0  0  0  0
    3.1501   -0.1657   -0.8459 C   0  0  0  0  0  0  0  0  0  0  0  0
    4.0670    0.4693   -0.8098 H   0  0  0  0  0  0  0  0  0  0  0  0
    3.3875   -1.1506   -0.3983 H   0  0  0  0  0  0  0  0  0  0  0  0
    2.6807   -0.3849   -2.2758 C   0  0  0  0  0  0  0  0  0  0  0  0
    3.5100   -0.8203   -2.8683 H   0  0  0  0  0  0  0  0  0  0  0  0
    2.3636    0.5489   -2.7827 H   0  0  0  0  0  0  0  0  0  0  0  0
    1.8336   -1.0999   -2.2868 H   0  0  0  0  0  0  0  0  0  0  0  0
  1  7  1  0  0  0  0
  2 23  1  0  0  0  0
  3  4  1  0  0  0  0
  4  6  1  0  0  0  0
  5  4  1  0  0  0  0
  7  4  1  0  0  0  0
  7  8  1  0  0  0  0
  9  7  1  0  0  0  0
 10  1  1  0  0  0  0
 10  3  1  0  0  0  0
 11 12  1  0  0  0  0
 12 10  2  0  0  0  0
 13 12  1  0  0  0  0
 13 14  1  0  0  0  0
 15 13  2  0  0  0  0
 16 15  1  0  0  0  0
 17 19  2  0  0  0  0
 17 15  1  0  0  0  0
 18 17  1  0  0  0  0
 19 11  1  0  0  0  0
 20 19  1  0  0  0  0
 20  2  1  0  0  0  0
 20 21  1  0  0  0  0
 22 20  1  0  0  0  0
 23 24  1  0  0  0  0
 23 25  1  0  0  0  0
 23 26  1  0  0  0  0
 26 27  1  0  0  0  0
 28 26  1  0  0  0  0
 29 26  1  0  0  0  0
 30 31  1  0  0  0  0
 30 32  1  0  0  0  0
 30  2  1  0  0  0  0
 33 30  1  0  0  0  0
 34 33  1  0  0  0  0
 35 33  1  0  0  0  0
 36 33  1  0  0  0  0
M  END
