1,7,13
 OpenBabel05122313063D

 33 35  0  0  1  0  0  0  0  0999 V2000
   -1.9603   -0.6819   -0.2653 N   0  0  0  0  0  2  0  0  0  0  0  0
   -2.9363    0.0653    0.3033 C   0  0  2  0  0  3  0  0  0  0  0  0
   -4.2759   -0.3605    0.2907 C   0  0  0  0  0  0  0  0  0  0  0  0
   -4.6171   -1.5384   -0.3802 C   0  0  0  0  0  0  0  0  0  0  0  0
   -3.6044   -2.2551   -1.0340 C   0  0  0  0  0  0  0  0  0  0  0  0
   -2.2807   -1.8102   -0.9437 C   0  0  0  0  0  0  0  0  0  0  0  0
   -0.2422    1.5749   -0.0337 C   0  0  0  0  0  3  0  0  0  0  0  0
   -1.4541    2.1870    0.3784 C   0  0  0  0  0  0  0  0  0  0  0  0
   -1.6109    3.5914    0.3162 C   0  0  0  0  0  0  0  0  0  0  0  0
   -0.6134    4.3974   -0.2417 C   0  0  0  0  0  0  0  0  0  0  0  0
    0.5696    3.8040   -0.6918 C   0  0  0  0  0  0  0  0  0  0  0  0
    0.7805    2.4123   -0.5454 C   0  0  0  0  0  0  0  0  0  0  0  0
    2.0053   -0.1331    0.4962 N   0  0  0  0  0  2  0  0  0  0  0  0
    2.7570    0.7691   -0.1804 C   0  0  2  0  0  3  0  0  0  0  0  0
    4.1621    0.7109   -0.1517 C   0  0  0  0  0  0  0  0  0  0  0  0
    4.8001   -0.2501    0.6361 C   0  0  0  0  0  0  0  0  0  0  0  0
    4.0083   -1.1396    1.3763 C   0  0  0  0  0  0  0  0  0  0  0  0
    2.6165   -1.0639    1.2679 C   0  0  0  0  0  0  0  0  0  0  0  0
   -2.6520    1.4416    0.8671 C   0  0  0  0  0  0  0  0  0  0  0  0
   -3.5080    1.9723    1.5725 O   0  0  0  0  0  0  0  0  0  0  0  0
    2.1415    1.9390   -0.9246 C   0  0  0  0  0  0  0  0  0  0  0  0
    2.8578    2.5684   -1.7012 O   0  0  0  0  0  0  0  0  0  0  0  0
   -5.0110    0.2745    0.8044 H   0  0  0  0  0  0  0  0  0  0  0  0
   -5.6612   -1.8849   -0.4070 H   0  0  0  0  0  0  0  0  0  0  0  0
   -3.8216   -3.1682   -1.6061 H   0  0  0  0  0  0  0  0  0  0  0  0
   -1.4307   -2.3409   -1.4114 H   0  0  0  0  0  0  0  0  0  0  0  0
   -2.5489    4.0194    0.7011 H   0  0  0  0  0  0  0  0  0  0  0  0
   -0.7571    5.4849   -0.3235 H   0  0  0  0  0  0  0  0  0  0  0  0
    1.3755    4.3988   -1.1477 H   0  0  0  0  0  0  0  0  0  0  0  0
    4.7057    1.4498   -0.7565 H   0  0  0  0  0  0  0  0  0  0  0  0
    5.8984   -0.3020    0.6781 H   0  0  0  0  0  0  0  0  0  0  0  0
    4.4548   -1.9060    2.0257 H   0  0  0  0  0  0  0  0  0  0  0  0
    1.9434   -1.7884    1.7501 H   0  0  0  0  0  0  0  0  0  0  0  0
  1  2  1  0  0  0  0
  2 19  1  6  0  0  0
  3  2  1  0  0  0  0
  3 23  1  0  0  0  0
  4  3  2  0  0  0  0
  5  6  2  0  0  0  0
  5  4  1  0  0  0  0
  6  1  1  0  0  0  0
  7  8  1  0  0  0  0
  8 19  1  0  0  0  0
  9  8  2  0  0  0  0
  9 27  1  0  0  0  0
 10  9  1  0  0  0  0
 11 12  1  0  0  0  0
 11 10  2  0  0  0  0
 12  7  2  0  0  0  0
 13 18  1  0  0  0  0
 14 21  1  1  0  0  0
 14 15  1  0  0  0  0
 14 13  1  0  0  0  0
 15 16  2  0  0  0  0
 16 31  1  0  0  0  0
 16 17  1  0  0  0  0
 17 32  1  0  0  0  0
 18 17  2  0  0  0  0
 18 33  1  0  0  0  0
 19 20  2  0  0  0  0
 21 12  1  0  0  0  0
 22 21  2  0  0  0  0
 24  4  1  0  0  0  0
 25  5  1  0  0  0  0
 26  6  1  0  0  0  0
 28 10  1  0  0  0  0
 29 11  1  0  0  0  0
 30 15  1  0  0  0  0
M  END
