1,2,3
 OpenBabel05122313063D

 33 33  0  0  0  0  0  0  0  0999 V2000
    0.1690    1.8816    0.2099 N   0  0  0  0  0  0  0  0  0  0  0  0
   -0.4035   -0.5198    1.9463 N   0  0  0  0  0  0  0  0  0  0  0  0
    1.7729   -0.3438   -0.3563 C   0  0  0  0  0  3  0  0  0  0  0  0
    2.6016   -1.4810   -0.3462 C   0  0  0  0  0  0  0  0  0  0  0  0
    2.1574   -2.4856   -0.4093 H   0  0  0  0  0  0  0  0  0  0  0  0
    3.9985   -1.3552   -0.2481 C   0  0  0  0  0  0  0  0  0  0  0  0
    4.6269   -2.2597   -0.2375 H   0  0  0  0  0  0  0  0  0  0  0  0
    4.5931   -0.0873   -0.1584 C   0  0  0  0  0  0  0  0  0  0  0  0
    5.6856    0.0111   -0.0713 H   0  0  0  0  0  0  0  0  0  0  0  0
    3.7821    1.0579   -0.1839 C   0  0  0  0  0  0  0  0  0  0  0  0
    4.2395    2.0591   -0.1220 H   0  0  0  0  0  0  0  0  0  0  0  0
    2.3855    0.9383   -0.2977 C   0  0  0  0  0  0  0  0  0  0  0  0
    1.4912    2.1481   -0.4131 C   0  0  0  0  0  0  0  0  0  0  0  0
    1.9590    3.0616    0.0232 H   0  0  0  0  0  0  0  0  0  0  0  0
    1.2971    2.3664   -1.4844 H   0  0  0  0  0  0  0  0  0  0  0  0
   -0.8435    2.8504   -0.2366 C   0  0  0  0  0  0  0  0  0  0  0  0
   -0.9559    2.7843   -1.3345 H   0  0  0  0  0  0  0  0  0  0  0  0
   -0.5507    3.8880    0.0452 H   0  0  0  0  0  0  0  0  0  0  0  0
   -1.8249    2.5918    0.2014 H   0  0  0  0  0  0  0  0  0  0  0  0
    0.2800    1.8624    1.6933 C   0  0  0  0  0  0  0  0  0  0  0  0
    0.1068    2.8835    2.1013 H   0  0  0  0  0  0  0  0  0  0  0  0
    1.3231    1.5891    1.9482 H   0  0  0  0  0  0  0  0  0  0  0  0
   -0.6896    0.8812    2.3380 C   0  0  0  0  0  0  0  0  0  0  0  0
   -0.6492    0.9899    3.4484 H   0  0  0  0  0  0  0  0  0  0  0  0
   -1.7261    1.0983    2.0079 H   0  0  0  0  0  0  0  0  0  0  0  0
    0.8412   -1.0178    2.5553 C   0  0  0  0  0  0  0  0  0  0  0  0
    1.0493   -2.0353    2.1757 H   0  0  0  0  0  0  0  0  0  0  0  0
    0.7472   -1.0577    3.6654 H   0  0  0  0  0  0  0  0  0  0  0  0
    1.7026   -0.3849    2.2807 H   0  0  0  0  0  0  0  0  0  0  0  0
   -1.5197   -1.3969    2.3500 C   0  0  0  0  0  0  0  0  0  0  0  0
   -2.4434   -1.0685    1.8370 H   0  0  0  0  0  0  0  0  0  0  0  0
   -1.6538   -1.3749    3.4561 H   0  0  0  0  0  0  0  0  0  0  0  0
   -1.2975   -2.4343    2.0384 H   0  0  0  0  0  0  0  0  0  0  0  0
  1 20  1  0  0  0  0
  2 23  1  0  0  0  0
  2 30  1  0  0  0  0
  2 26  1  0  0  0  0
  3  4  2  0  0  0  0
  3 12  1  0  0  0  0
  4  6  1  0  0  0  0
  5  4  1  0  0  0  0
  6  7  1  0  0  0  0
  6  8  2  0  0  0  0
  8  9  1  0  0  0  0
 10  8  1  0  0  0  0
 10 11  1  0  0  0  0
 12 10  2  0  0  0  0
 13 12  1  0  0  0  0
 13 14  1  0  0  0  0
 13  1  1  0  0  0  0
 15 13  1  0  0  0  0
 16 18  1  0  0  0  0
 16 19  1  0  0  0  0
 16  1  1  0  0  0  0
 17 16  1  0  0  0  0
 20 22  1  0  0  0  0
 20 21  1  0  0  0  0
 20 23  1  0  0  0  0
 23 24  1  0  0  0  0
 25 23  1  0  0  0  0
 26 28  1  0  0  0  0
 27 26  1  0  0  0  0
 29 26  1  0  0  0  0
 30 32  1  0  0  0  0
 31 30  1  0  0  0  0
 33 30  1  0  0  0  0
M  END
