4,5,7
 OpenBabel05122313063D

 34 36  0  0  1  0  0  0  0  0999 V2000
   -0.6682    1.4808   -0.8875 S   0  0  0  0  0  0  0  0  0  0  0  0
   -0.6683   -1.4808   -0.8875 S   0  0  0  0  0  0  0  0  0  0  0  0
   -1.7815    0.0001    1.4738 S   0  0  0  0  0  0  0  0  0  0  0  0
    1.8805    1.6456    0.0493 N   0  0  0  0  0  2  0  0  0  0  0  0
    1.8804   -1.6457    0.0493 N   0  0  0  0  0  2  0  0  0  0  0  0
   -3.2657    0.0001   -0.7562 N   0  0  0  0  0  0  0  0  0  0  0  0
   -0.5552    0.0001    0.1684 C   0  0  2  0  0  3  0  0  0  0  0  0
    0.9448    2.1866   -0.7592 C   0  0  2  0  0  3  0  0  0  0  0  0
    1.2297    3.3423   -1.5314 C   0  0  0  0  0  0  0  0  0  0  0  0
    0.4521    3.7631   -2.1858 H   0  0  0  0  0  0  0  0  0  0  0  0
    2.4943    3.9184   -1.4420 C   0  0  0  0  0  0  0  0  0  0  0  0
    2.7327    4.8156   -2.0335 H   0  0  0  0  0  0  0  0  0  0  0  0
    3.4625    3.3462   -0.5899 C   0  0  0  0  0  0  0  0  0  0  0  0
    4.4693    3.7748   -0.4911 H   0  0  0  0  0  0  0  0  0  0  0  0
    3.1016    2.2122    0.1368 C   0  0  0  0  0  0  0  0  0  0  0  0
    3.8041    1.7241    0.8329 H   0  0  0  0  0  0  0  0  0  0  0  0
    0.9446   -2.1867   -0.7591 C   0  0  1  0  0  3  0  0  0  0  0  0
    1.2295   -3.3424   -1.5313 C   0  0  0  0  0  0  0  0  0  0  0  0
    0.4518   -3.7632   -2.1856 H   0  0  0  0  0  0  0  0  0  0  0  0
    2.4941   -3.9185   -1.4419 C   0  0  0  0  0  0  0  0  0  0  0  0
    2.7324   -4.8158   -2.0335 H   0  0  0  0  0  0  0  0  0  0  0  0
    3.4623   -3.3464   -0.5899 C   0  0  0  0  0  0  0  0  0  0  0  0
    4.4691   -3.7750   -0.4912 H   0  0  0  0  0  0  0  0  0  0  0  0
    3.1015   -2.2123    0.1368 C   0  0  0  0  0  0  0  0  0  0  0  0
    3.8040   -1.7242    0.8328 H   0  0  0  0  0  0  0  0  0  0  0  0
   -3.3273    0.0001    0.5809 C   0  0  0  0  0  0  0  0  0  0  0  0
   -4.5488    0.0000    1.2942 C   0  0  0  0  0  0  0  0  0  0  0  0
   -4.5530   -0.0000    2.3946 H   0  0  0  0  0  0  0  0  0  0  0  0
   -5.7360    0.0000    0.5588 C   0  0  0  0  0  0  0  0  0  0  0  0
   -6.7070   -0.0000    1.0779 H   0  0  0  0  0  0  0  0  0  0  0  0
   -5.6772    0.0001   -0.8481 C   0  0  0  0  0  0  0  0  0  0  0  0
   -6.5909    0.0001   -1.4597 H   0  0  0  0  0  0  0  0  0  0  0  0
   -4.4134    0.0001   -1.4529 C   0  0  0  0  0  0  0  0  0  0  0  0
   -4.3132    0.0002   -2.5527 H   0  0  0  0  0  0  0  0  0  0  0  0
  2  7  1  0  0  0  0
  4 15  1  0  0  0  0
  5 24  1  0  0  0  0
  6 26  1  0  0  0  0
  7  1  1  6  0  0  0
  7  3  1  0  0  0  0
  8  1  1  1  0  0  0
  8  4  1  0  0  0  0
  9 11  2  0  0  0  0
  9  8  1  0  0  0  0
 10  9  1  0  0  0  0
 11 13  1  0  0  0  0
 12 11  1  0  0  0  0
 13 14  1  0  0  0  0
 13 15  2  0  0  0  0
 15 16  1  0  0  0  0
 17  2  1  1  0  0  0
 17  5  1  0  0  0  0
 18 20  2  0  0  0  0
 18 17  1  0  0  0  0
 19 18  1  0  0  0  0
 20 22  1  0  0  0  0
 21 20  1  0  0  0  0
 22 23  1  0  0  0  0
 22 24  2  0  0  0  0
 24 25  1  0  0  0  0
 26 27  2  0  0  0  0
 26  3  1  0  0  0  0
 27 28  1  0  0  0  0
 29 30  1  0  0  0  0
 29 27  1  0  0  0  0
 31 29  2  0  0  0  0
 32 31  1  0  0  0  0
 33 31  1  0  0  0  0
 33  6  2  0  0  0  0
 34 33  1  0  0  0  0
M  END
