1,2,22
 OpenBabel05122313063D

 43 45  0  0  1  0  0  0  0  0999 V2000
    1.3477    1.1036   -0.2555 N   0  0  0  0  0  2  0  0  0  0  0  0
   -1.3769    1.3742    0.1073 N   0  0  0  0  0  2  0  0  0  0  0  0
    3.0493   -1.3617    0.5664 C   0  0  0  0  0  0  0  0  0  0  0  0
    3.9019   -2.4687    0.6487 C   0  0  0  0  0  0  0  0  0  0  0  0
    5.1434   -2.4643   -0.0085 C   0  0  0  0  0  0  0  0  0  0  0  0
    5.5508   -1.3304   -0.7322 C   0  0  0  0  0  0  0  0  0  0  0  0
    4.7163   -0.2089   -0.7934 C   0  0  0  0  0  0  0  0  0  0  0  0
    3.4451   -0.2231   -0.1693 C   0  0  0  0  0  0  0  0  0  0  0  0
    2.6373    0.9966   -0.2585 C   0  0  0  0  0  3  0  0  0  0  0  0
    0.7371    2.4622   -0.3077 C   0  0  2  0  0  0  0  0  0  0  0  0
    1.6594    3.6309    0.0644 C   0  0  0  0  0  0  0  0  0  0  0  0
    0.9252    4.9776    0.0368 C   0  0  0  0  0  0  0  0  0  0  0  0
   -0.3017    4.9674    0.9502 C   0  0  0  0  0  0  0  0  0  0  0  0
   -1.2550    3.8380    0.5533 C   0  0  0  0  0  0  0  0  0  0  0  0
   -0.5558    2.4749    0.5597 C   0  0  1  0  0  0  0  0  0  0  0  0
   -2.6712    1.2663    0.0749 C   0  0  0  0  0  3  0  0  0  0  0  0
   -3.2009   -0.0248   -0.3290 C   0  0  0  0  0  0  0  0  0  0  0  0
   -4.5852   -0.3017   -0.3765 C   0  0  0  0  0  0  0  0  0  0  0  0
   -5.0293   -1.5835   -0.7146 C   0  0  0  0  0  0  0  0  0  0  0  0
   -4.0871   -2.5906   -0.9945 C   0  0  0  0  0  0  0  0  0  0  0  0
   -2.7058   -2.3308   -0.9477 C   0  0  0  0  0  0  0  0  0  0  0  0
   -2.2365   -1.0500   -0.6236 C   0  0  0  0  0  3  0  0  0  0  0  0
    2.0841   -1.3586    1.0985 H   0  0  0  0  0  0  0  0  0  0  0  0
    3.5878   -3.3453    1.2350 H   0  0  0  0  0  0  0  0  0  0  0  0
    5.8039   -3.3427    0.0535 H   0  0  0  0  0  0  0  0  0  0  0  0
    6.5274   -1.3177   -1.2391 H   0  0  0  0  0  0  0  0  0  0  0  0
    5.0407    0.6891   -1.3434 H   0  0  0  0  0  0  0  0  0  0  0  0
    3.2478    1.9179   -0.3501 H   0  0  0  0  0  0  0  0  0  0  0  0
    0.3989    2.5987   -1.3617 H   0  0  0  0  0  0  0  0  0  0  0  0
    2.5215    3.6788   -0.6313 H   0  0  0  0  0  0  0  0  0  0  0  0
    2.0752    3.4505    1.0806 H   0  0  0  0  0  0  0  0  0  0  0  0
    1.6265    5.7859    0.3286 H   0  0  0  0  0  0  0  0  0  0  0  0
    0.6059    5.2017   -1.0054 H   0  0  0  0  0  0  0  0  0  0  0  0
   -0.8285    5.9427    0.9106 H   0  0  0  0  0  0  0  0  0  0  0  0
    0.0223    4.8262    2.0048 H   0  0  0  0  0  0  0  0  0  0  0  0
   -1.6578    4.0263   -0.4670 H   0  0  0  0  0  0  0  0  0  0  0  0
   -2.1250    3.8065    1.2409 H   0  0  0  0  0  0  0  0  0  0  0  0
   -0.2441    2.2141    1.6006 H   0  0  0  0  0  0  0  0  0  0  0  0
   -3.3444    2.0902    0.3801 H   0  0  0  0  0  0  0  0  0  0  0  0
   -5.3068    0.4953   -0.1355 H   0  0  0  0  0  0  0  0  0  0  0  0
   -6.1059   -1.8057   -0.7535 H   0  0  0  0  0  0  0  0  0  0  0  0
   -4.4349   -3.6033   -1.2527 H   0  0  0  0  0  0  0  0  0  0  0  0
   -1.9937   -3.1400   -1.1605 H   0  0  0  0  0  0  0  0  0  0  0  0
  2 15  1  0  0  0  0
  3  4  1  0  0  0  0
  3 23  1  0  0  0  0
  4 24  1  0  0  0  0
  5 25  1  0  0  0  0
  5  4  2  0  0  0  0
  6  5  1  0  0  0  0
  7  6  2  0  0  0  0
  7  8  1  0  0  0  0
  8  3  2  0  0  0  0
  9  1  1  0  0  0  0
  9  8  1  0  0  0  0
 10 29  1  6  0  0  0
 10  1  1  0  0  0  0
 10 11  1  0  0  0  0
 10 15  1  0  0  0  0
 11 31  1  0  0  0  0
 12 11  1  0  0  0  0
 12 32  1  0  0  0  0
 12 13  1  0  0  0  0
 13 35  1  0  0  0  0
 14 15  1  0  0  0  0
 14 13  1  0  0  0  0
 14 37  1  0  0  0  0
 15 38  1  1  0  0  0
 16  2  1  0  0  0  0
 16 39  1  0  0  0  0
 17 16  1  0  0  0  0
 18 17  1  0  0  0  0
 18 40  1  0  0  0  0
 19 18  2  0  0  0  0
 20 21  2  0  0  0  0
 20 19  1  0  0  0  0
 21 22  1  0  0  0  0
 22 17  2  0  0  0  0
 26  6  1  0  0  0  0
 27  7  1  0  0  0  0
 28  9  1  0  0  0  0
 30 11  1  0  0  0  0
 33 12  1  0  0  0  0
 34 13  1  0  0  0  0
 36 14  1  0  0  0  0
 41 19  1  0  0  0  0
 42 20  1  0  0  0  0
 43 21  1  0  0  0  0
M  END
