1,2,6
 OpenBabel05122313063D

 38 40  0  0  0  0  0  0  0  0999 V2000
    0.7234   -0.7711    1.1036 N   0  0  0  0  0  2  0  0  0  0  0  0
   -1.5246    0.5608    1.5149 N   0  0  0  0  0  2  0  0  0  0  0  0
   -0.9322    2.4109   -0.8042 N   0  0  0  0  0  0  0  0  0  0  0  0
   -0.1328    3.5183   -0.8538 N   0  0  0  0  0  0  0  0  0  0  0  0
    1.0936    3.1011   -0.9433 N   0  0  0  0  0  0  0  0  0  0  0  0
   -0.2213    1.2300   -0.8580 C   0  0  0  0  0  3  0  0  0  0  0  0
    1.1023    1.7235   -0.9665 C   0  0  0  0  0  0  0  0  0  0  0  0
    1.8294   -1.5142    0.8945 C   0  0  0  0  0  3  0  0  0  0  0  0
    1.8017   -2.1944    0.0335 H   0  0  0  0  0  0  0  0  0  0  0  0
    2.9622   -1.4221    1.7119 C   0  0  0  0  0  0  0  0  0  0  0  0
    3.8416   -2.0372    1.4808 H   0  0  0  0  0  0  0  0  0  0  0  0
    2.9571   -0.5217    2.7883 C   0  0  0  0  0  0  0  0  0  0  0  0
    3.8409   -0.4137    3.4335 H   0  0  0  0  0  0  0  0  0  0  0  0
    1.8052    0.2327    3.0295 C   0  0  0  0  0  0  0  0  0  0  0  0
    1.7472    0.9397    3.8692 H   0  0  0  0  0  0  0  0  0  0  0  0
    0.6980    0.0840    2.1733 C   0  0  0  0  0  0  0  0  0  0  0  0
   -0.5586    0.7842    2.3606 C   0  0  0  0  0  3  0  0  0  0  0  0
   -0.6823    1.4781    3.2132 H   0  0  0  0  0  0  0  0  0  0  0  0
   -2.7755    1.3085    1.6425 C   0  0  0  0  0  0  0  0  0  0  0  0
   -3.0049    1.4813    2.7168 H   0  0  0  0  0  0  0  0  0  0  0  0
   -3.5826    0.6796    1.2187 H   0  0  0  0  0  0  0  0  0  0  0  0
   -2.7223    2.6672    0.9201 C   0  0  0  0  0  0  0  0  0  0  0  0
   -2.0072    3.3370    1.4434 H   0  0  0  0  0  0  0  0  0  0  0  0
   -3.7274    3.1270    1.0259 H   0  0  0  0  0  0  0  0  0  0  0  0
   -2.3475    2.6513   -0.5681 C   0  0  0  0  0  0  0  0  0  0  0  0
   -2.9512    1.9206   -1.1365 H   0  0  0  0  0  0  0  0  0  0  0  0
   -2.5471    3.6546   -0.9911 H   0  0  0  0  0  0  0  0  0  0  0  0
    2.3881    1.0116   -1.0203 C   0  0  0  0  0  0  0  0  0  0  0  0
    3.4819    1.4995   -0.2670 C   0  0  0  0  0  0  0  0  0  0  0  0
    3.3418    2.4205    0.3177 H   0  0  0  0  0  0  0  0  0  0  0  0
    4.7082    0.8230   -0.2634 C   0  0  0  0  0  0  0  0  0  0  0  0
    5.5459    1.2139    0.3353 H   0  0  0  0  0  0  0  0  0  0  0  0
    4.8749   -0.3497   -1.0220 C   0  0  0  0  0  0  0  0  0  0  0  0
    5.8402   -0.8790   -1.0208 H   0  0  0  0  0  0  0  0  0  0  0  0
    3.8092   -0.8209   -1.8063 C   0  0  0  0  0  0  0  0  0  0  0  0
    3.9367   -1.7178   -2.4323 H   0  0  0  0  0  0  0  0  0  0  0  0
    2.5808   -0.1435   -1.8106 C   0  0  0  0  0  0  0  0  0  0  0  0
    1.7634   -0.4978   -2.4516 H   0  0  0  0  0  0  0  0  0  0  0  0
  1 16  1  0  0  0  0
  2 19  1  0  0  0  0
  2 17  1  0  0  0  0
  3 25  1  0  0  0  0
  4  3  1  0  0  0  0
  5  4  2  0  0  0  0
  6  3  1  0  0  0  0
  7  5  1  0  0  0  0
  7  6  2  0  0  0  0
  8  1  1  0  0  0  0
  8 10  1  0  0  0  0
  9  8  1  0  0  0  0
 10 12  2  0  0  0  0
 11 10  1  0  0  0  0
 12 14  1  0  0  0  0
 12 13  1  0  0  0  0
 14 15  1  0  0  0  0
 16 17  1  0  0  0  0
 16 14  2  0  0  0  0
 17 18  1  0  0  0  0
 19 20  1  0  0  0  0
 21 19  1  0  0  0  0
 22 24  1  0  0  0  0
 22 23  1  0  0  0  0
 22 19  1  0  0  0  0
 25 22  1  0  0  0  0
 26 25  1  0  0  0  0
 27 25  1  0  0  0  0
 28  7  1  0  0  0  0
 28 29  1  0  0  0  0
 29 31  2  0  0  0  0
 29 30  1  0  0  0  0
 31 32  1  0  0  0  0
 33 34  1  0  0  0  0
 33 31  1  0  0  0  0
 35 33  2  0  0  0  0
 36 35  1  0  0  0  0
 37 35  1  0  0  0  0
 37 28  2  0  0  0  0
 38 37  1  0  0  0  0
M  END
