1,2,26
 OpenBabel05122313063D

 49 51  0  0  0  0  0  0  0  0999 V2000
   -0.0001   -2.1105    0.0000 C   0  0  0  0  0  2  0  0  0  0  0  0
    1.8136   -0.0735   -1.1064 N   0  0  0  0  0  2  0  0  0  0  0  0
    0.8159   -2.9535   -0.7031 N   0  0  0  0  0  0  0  0  0  0  0  0
    1.9305   -2.5348   -1.5618 C   0  0  0  0  0  0  0  0  0  0  0  0
    1.9936   -3.2626   -2.3967 H   0  0  0  0  0  0  0  0  0  0  0  0
    2.8720   -2.6107   -0.9766 H   0  0  0  0  0  0  0  0  0  0  0  0
    3.2579    1.3704    0.2498 C   0  0  0  0  0  0  0  0  0  0  0  0
    2.3629    1.8772    0.6292 H   0  0  0  0  0  0  0  0  0  0  0  0
    3.0989    0.3164   -0.6976 C   0  0  0  0  0  0  0  0  0  0  0  0
    4.3016   -0.2754   -1.1750 C   0  0  0  0  0  0  0  0  0  0  0  0
    4.2757   -1.0819   -1.9196 H   0  0  0  0  0  0  0  0  0  0  0  0
    5.7054    1.1626    0.2384 C   0  0  0  0  0  0  0  0  0  0  0  0
    5.5604    0.1425   -0.7168 C   0  0  0  0  0  0  0  0  0  0  0  0
    6.4606   -0.3524   -1.1173 H   0  0  0  0  0  0  0  0  0  0  0  0
    1.7625   -1.1171   -2.1211 C   0  0  0  0  0  0  0  0  0  0  0  0
    2.5428   -0.9723   -2.9006 H   0  0  0  0  0  0  0  0  0  0  0  0
    0.7839   -1.0667   -2.6327 H   0  0  0  0  0  0  0  0  0  0  0  0
    7.0565    1.6039    0.7411 C   0  0  0  0  0  0  0  0  0  0  0  0
    7.1517    1.4628    1.8391 H   0  0  0  0  0  0  0  0  0  0  0  0
    7.2350    2.6825    0.5437 H   0  0  0  0  0  0  0  0  0  0  0  0
    7.8760    1.0356    0.2587 H   0  0  0  0  0  0  0  0  0  0  0  0
    0.5212   -4.2853   -0.4446 C   0  0  0  0  0  0  0  0  0  0  0  0
    1.0719   -5.1112   -0.9049 H   0  0  0  0  0  0  0  0  0  0  0  0
    4.5161    1.7679    0.7019 C   0  0  0  0  0  0  0  0  0  0  0  0
    4.5787    2.5881    1.4363 H   0  0  0  0  0  0  0  0  0  0  0  0
   -1.8136   -0.0733    1.1064 N   0  0  0  0  0  2  0  0  0  0  0  0
   -0.8162   -2.9534    0.7032 N   0  0  0  0  0  0  0  0  0  0  0  0
   -1.9308   -2.5346    1.5619 C   0  0  0  0  0  0  0  0  0  0  0  0
   -1.9938   -3.2624    2.3968 H   0  0  0  0  0  0  0  0  0  0  0  0
   -2.8722   -2.6105    0.9767 H   0  0  0  0  0  0  0  0  0  0  0  0
   -3.2579    1.3705   -0.2500 C   0  0  0  0  0  0  0  0  0  0  0  0
   -2.3629    1.8772   -0.6294 H   0  0  0  0  0  0  0  0  0  0  0  0
   -3.0989    0.3166    0.6975 C   0  0  0  0  0  0  0  0  0  0  0  0
   -4.3015   -0.2751    1.1751 C   0  0  0  0  0  0  0  0  0  0  0  0
   -4.2757   -1.0816    1.9198 H   0  0  0  0  0  0  0  0  0  0  0  0
   -5.7054    1.1627   -0.2385 C   0  0  0  0  0  0  0  0  0  0  0  0
   -5.5604    0.1427    0.7169 C   0  0  0  0  0  0  0  0  0  0  0  0
   -6.4606   -0.3521    1.1174 H   0  0  0  0  0  0  0  0  0  0  0  0
   -1.7626   -1.1169    2.1211 C   0  0  0  0  0  0  0  0  0  0  0  0
   -2.5429   -0.9719    2.9007 H   0  0  0  0  0  0  0  0  0  0  0  0
   -0.7840   -1.0665    2.6328 H   0  0  0  0  0  0  0  0  0  0  0  0
   -7.0565    1.6039   -0.7412 C   0  0  0  0  0  0  0  0  0  0  0  0
   -7.1518    1.4627   -1.8392 H   0  0  0  0  0  0  0  0  0  0  0  0
   -7.2350    2.6825   -0.5439 H   0  0  0  0  0  0  0  0  0  0  0  0
   -7.8760    1.0357   -0.2587 H   0  0  0  0  0  0  0  0  0  0  0  0
   -0.5215   -4.2853    0.4448 C   0  0  0  0  0  0  0  0  0  0  0  0
   -1.0723   -5.1111    0.9052 H   0  0  0  0  0  0  0  0  0  0  0  0
   -4.5161    1.7680   -0.7021 C   0  0  0  0  0  0  0  0  0  0  0  0
   -4.5788    2.5880   -1.4366 H   0  0  0  0  0  0  0  0  0  0  0  0
  1 27  1  0  0  0  0
  2  9  1  0  0  0  0
  3 22  1  0  0  0  0
  3  1  1  0  0  0  0
  4  6  1  0  0  0  0
  4  3  1  0  0  0  0
  5  4  1  0  0  0  0
  7  8  1  0  0  0  0
  7 24  1  0  0  0  0
  9  7  2  0  0  0  0
 10 13  2  0  0  0  0
 10  9  1  0  0  0  0
 11 10  1  0  0  0  0
 12 24  2  0  0  0  0
 12 18  1  0  0  0  0
 13 12  1  0  0  0  0
 14 13  1  0  0  0  0
 15  4  1  0  0  0  0
 15  2  1  0  0  0  0
 16 15  1  0  0  0  0
 17 15  1  0  0  0  0
 18 19  1  0  0  0  0
 20 18  1  0  0  0  0
 21 18  1  0  0  0  0
 22 46  2  0  0  0  0
 23 22  1  0  0  0  0
 24 25  1  0  0  0  0
 26 39  1  0  0  0  0
 27 28  1  0  0  0  0
 28 39  1  0  0  0  0
 28 29  1  0  0  0  0
 30 28  1  0  0  0  0
 31 33  1  0  0  0  0
 32 31  1  0  0  0  0
 33 26  1  0  0  0  0
 33 34  2  0  0  0  0
 34 35  1  0  0  0  0
 36 37  2  0  0  0  0
 37 38  1  0  0  0  0
 37 34  1  0  0  0  0
 39 41  1  0  0  0  0
 39 40  1  0  0  0  0
 42 44  1  0  0  0  0
 42 45  1  0  0  0  0
 42 36  1  0  0  0  0
 43 42  1  0  0  0  0
 46 27  1  0  0  0  0
 46 47  1  0  0  0  0
 48 31  2  0  0  0  0
 48 36  1  0  0  0  0
 49 48  1  0  0  0  0
M  END
