1,11,17
 OpenBabel05122313063D

 50 52  0  0  1  0  0  0  0  0999 V2000
   -1.1122   -0.2766   -0.0266 C   0  0  0  0  0  2  0  0  0  0  0  0
   -2.2905   -0.9866   -0.0233 N   0  0  0  0  0  0  0  0  0  0  0  0
   -3.4000   -0.1412   -0.1368 C   0  0  0  0  0  0  0  0  0  0  0  0
   -4.7735   -0.4108   -0.2209 C   0  0  0  0  0  0  0  0  0  0  0  0
   -5.6551    0.6784   -0.3344 C   0  0  0  0  0  0  0  0  0  0  0  0
   -5.1783    1.9995   -0.3686 C   0  0  0  0  0  0  0  0  0  0  0  0
   -3.8013    2.2774   -0.2912 C   0  0  0  0  0  0  0  0  0  0  0  0
   -2.9192    1.1958   -0.1748 C   0  0  0  0  0  0  0  0  0  0  0  0
   -1.5255    1.0964   -0.0889 N   0  0  0  0  0  0  0  0  0  0  0  0
   -0.5293    2.0653   -0.0334 C   0  0  2  0  0  3  0  0  0  0  0  0
    0.6975    1.4986    0.0383 N   0  0  0  0  0  2  0  0  0  0  0  0
    1.8271    2.2232    0.1625 C   0  0  0  0  0  0  0  0  0  0  0  0
    1.7670    3.6221    0.1518 C   0  0  0  0  0  0  0  0  0  0  0  0
    0.5044    4.2343    0.0506 C   0  0  0  0  0  0  0  0  0  0  0  0
   -0.6652    3.4647   -0.0305 C   0  0  0  0  0  0  0  0  0  0  0  0
    3.0502    1.3854    0.4354 C   0  0  0  0  0  0  0  0  0  0  0  0
    3.0203    0.0777   -0.2800 N   0  0  0  0  0  0  0  0  0  0  0  0
   -2.3384   -2.4484    0.1484 C   0  0  0  0  0  0  0  0  0  0  0  0
   -2.8104   -3.1482   -1.1282 C   0  0  0  0  0  0  0  0  0  0  0  0
   -3.1053   -2.8427    1.4143 C   0  0  0  0  0  0  0  0  0  0  0  0
    3.3741    0.3041   -1.7104 C   0  0  0  0  0  0  0  0  0  0  0  0
    3.4477   -0.9557   -2.5590 C   0  0  0  0  0  0  0  0  0  0  0  0
    3.9150   -0.9092    0.3981 C   0  0  0  0  0  0  0  0  0  0  0  0
    5.4015   -0.5573    0.4369 C   0  0  0  0  0  0  0  0  0  0  0  0
   -5.1565   -1.4382   -0.2047 H   0  0  0  0  0  0  0  0  0  0  0  0
   -6.7362    0.4874   -0.4009 H   0  0  0  0  0  0  0  0  0  0  0  0
   -5.8877    2.8346   -0.4617 H   0  0  0  0  0  0  0  0  0  0  0  0
   -3.4520    3.3153   -0.3310 H   0  0  0  0  0  0  0  0  0  0  0  0
    2.6853    4.2189    0.2393 H   0  0  0  0  0  0  0  0  0  0  0  0
    0.4252    5.3313    0.0467 H   0  0  0  0  0  0  0  0  0  0  0  0
   -1.6462    3.9469   -0.0814 H   0  0  0  0  0  0  0  0  0  0  0  0
    3.9795    1.9567    0.2202 H   0  0  0  0  0  0  0  0  0  0  0  0
    3.0056    1.1410    1.5212 H   0  0  0  0  0  0  0  0  0  0  0  0
   -1.2824   -2.7212    0.3138 H   0  0  0  0  0  0  0  0  0  0  0  0
   -2.7211   -4.2455   -1.0055 H   0  0  0  0  0  0  0  0  0  0  0  0
   -2.1786   -2.8479   -1.9870 H   0  0  0  0  0  0  0  0  0  0  0  0
   -3.8662   -2.9183   -1.3750 H   0  0  0  0  0  0  0  0  0  0  0  0
   -2.9922   -3.9316    1.5831 H   0  0  0  0  0  0  0  0  0  0  0  0
   -4.1889   -2.6229    1.3534 H   0  0  0  0  0  0  0  0  0  0  0  0
   -2.6900   -2.3154    2.2952 H   0  0  0  0  0  0  0  0  0  0  0  0
    4.3464    0.8507   -1.7599 H   0  0  0  0  0  0  0  0  0  0  0  0
    2.6024    0.9887   -2.1160 H   0  0  0  0  0  0  0  0  0  0  0  0
    3.5794   -0.6734   -3.6223 H   0  0  0  0  0  0  0  0  0  0  0  0
    4.3008   -1.6053   -2.2806 H   0  0  0  0  0  0  0  0  0  0  0  0
    2.5116   -1.5406   -2.4695 H   0  0  0  0  0  0  0  0  0  0  0  0
    3.7606   -1.8799   -0.1099 H   0  0  0  0  0  0  0  0  0  0  0  0
    3.4980   -1.0250    1.4197 H   0  0  0  0  0  0  0  0  0  0  0  0
    5.9462   -1.3591    0.9739 H   0  0  0  0  0  0  0  0  0  0  0  0
    5.8546   -0.4728   -0.5722 H   0  0  0  0  0  0  0  0  0  0  0  0
    5.6000    0.3874    0.9824 H   0  0  0  0  0  0  0  0  0  0  0  0
  1  2  1  0  0  0  0
  2 18  1  0  0  0  0
  3  2  1  0  0  0  0
  4 25  1  0  0  0  0
  4  3  2  0  0  0  0
  5  4  1  0  0  0  0
  6  5  2  0  0  0  0
  6  7  1  0  0  0  0
  7  8  2  0  0  0  0
  8  3  1  0  0  0  0
  8  9  1  0  0  0  0
  9  1  1  0  0  0  0
 10  9  1  1  0  0  0
 10 15  1  0  0  0  0
 10 11  1  0  0  0  0
 11 12  1  0  0  0  0
 12 16  1  0  0  0  0
 13 12  2  0  0  0  0
 13 29  1  0  0  0  0
 14 13  1  0  0  0  0
 15 14  2  0  0  0  0
 16 33  1  0  0  0  0
 17 23  1  0  0  0  0
 17 16  1  0  0  0  0
 18 34  1  0  0  0  0
 18 20  1  0  0  0  0
 19 35  1  0  0  0  0
 19 18  1  0  0  0  0
 20 38  1  0  0  0  0
 20 40  1  0  0  0  0
 21 17  1  0  0  0  0
 22 45  1  0  0  0  0
 22 44  1  0  0  0  0
 22 21  1  0  0  0  0
 23 24  1  0  0  0  0
 23 47  1  0  0  0  0
 24 48  1  0  0  0  0
 24 50  1  0  0  0  0
 26  5  1  0  0  0  0
 27  6  1  0  0  0  0
 28  7  1  0  0  0  0
 30 14  1  0  0  0  0
 31 15  1  0  0  0  0
 32 16  1  0  0  0  0
 36 19  1  0  0  0  0
 37 19  1  0  0  0  0
 39 20  1  0  0  0  0
 41 21  1  0  0  0  0
 42 21  1  0  0  0  0
 43 22  1  0  0  0  0
 46 23  1  0  0  0  0
 49 24  1  0  0  0  0
M  END
