1,2,5
 OpenBabel05122313063D

 39 41  0  0  1  0  0  0  0  0999 V2000
   -1.9496   -0.1569    0.0007 N   0  0  0  0  0  2  0  0  0  0  0  0
    1.9497   -0.1570    0.0001 N   0  0  0  0  0  2  0  0  0  0  0  0
   -3.6095    1.3839   -0.0218 O   0  0  0  0  0  0  0  0  0  0  0  0
    3.6096    1.3839   -0.0219 O   0  0  0  0  0  0  0  0  0  0  0  0
    0.0001    1.3806    0.0151 C   0  0  0  0  0  3  0  0  0  0  0  0
   -1.2203    2.0884   -0.0154 C   0  0  0  0  0  0  0  0  0  0  0  0
   -1.2304    3.4971   -0.0548 C   0  0  0  0  0  0  0  0  0  0  0  0
   -2.1797    4.0538   -0.0775 H   0  0  0  0  0  0  0  0  0  0  0  0
    0.0001    4.1847   -0.0699 C   0  0  0  0  0  0  0  0  0  0  0  0
    0.0002    5.2844   -0.1007 H   0  0  0  0  0  0  0  0  0  0  0  0
    1.2306    3.4970   -0.0549 C   0  0  0  0  0  0  0  0  0  0  0  0
    2.1800    4.0537   -0.0776 H   0  0  0  0  0  0  0  0  0  0  0  0
    1.2205    2.0884   -0.0155 C   0  0  0  0  0  0  0  0  0  0  0  0
   -2.2907    1.1130   -0.0115 C   0  0  2  0  0  3  0  0  0  0  0  0
   -4.2761    0.1073    0.1588 C   0  0  0  0  0  0  0  0  0  0  0  0
   -5.1094    0.0452   -0.5673 H   0  0  0  0  0  0  0  0  0  0  0  0
   -4.6872    0.0812    1.1905 H   0  0  0  0  0  0  0  0  0  0  0  0
   -3.1778   -0.9808   -0.0630 C   0  0  0  0  0  0  0  0  0  0  0  0
   -3.1908   -2.0375    1.0450 C   0  0  0  0  0  0  0  0  0  0  0  0
   -2.3968   -2.7894    0.8749 H   0  0  0  0  0  0  0  0  0  0  0  0
   -4.1654   -2.5664    1.0625 H   0  0  0  0  0  0  0  0  0  0  0  0
   -3.0205   -1.5726    2.0359 H   0  0  0  0  0  0  0  0  0  0  0  0
   -3.2900   -1.6284   -1.4521 C   0  0  0  0  0  0  0  0  0  0  0  0
   -3.2933   -0.8569   -2.2470 H   0  0  0  0  0  0  0  0  0  0  0  0
   -4.2260   -2.2189   -1.5259 H   0  0  0  0  0  0  0  0  0  0  0  0
   -2.4352   -2.3060   -1.6355 H   0  0  0  0  0  0  0  0  0  0  0  0
    2.2908    1.1129   -0.0117 C   0  0  1  0  0  3  0  0  0  0  0  0
    4.2765    0.1072    0.1566 C   0  0  0  0  0  0  0  0  0  0  0  0
    4.6903    0.0808    1.1873 H   0  0  0  0  0  0  0  0  0  0  0  0
    5.1080    0.0453   -0.5716 H   0  0  0  0  0  0  0  0  0  0  0  0
    3.1778   -0.9811   -0.0630 C   0  0  0  0  0  0  0  0  0  0  0  0
    3.1909   -2.0362    1.0465 C   0  0  0  0  0  0  0  0  0  0  0  0
    3.0217   -1.5698    2.0368 H   0  0  0  0  0  0  0  0  0  0  0  0
    4.1652   -2.5657    1.0640 H   0  0  0  0  0  0  0  0  0  0  0  0
    2.3963   -2.7878    0.8781 H   0  0  0  0  0  0  0  0  0  0  0  0
    3.2893   -1.6307   -1.4512 C   0  0  0  0  0  0  0  0  0  0  0  0
    2.4348   -2.3092   -1.6329 H   0  0  0  0  0  0  0  0  0  0  0  0
    4.2256   -2.2208   -1.5248 H   0  0  0  0  0  0  0  0  0  0  0  0
    3.2915   -0.8605   -2.2474 H   0  0  0  0  0  0  0  0  0  0  0  0
  3 14  1  0  0  0  0
  3 15  1  0  0  0  0
  4 27  1  0  0  0  0
  4 28  1  0  0  0  0
  6  5  1  0  0  0  0
  7  6  2  0  0  0  0
  8  7  1  0  0  0  0
  9 11  2  0  0  0  0
  9  7  1  0  0  0  0
 10  9  1  0  0  0  0
 11 13  1  0  0  0  0
 12 11  1  0  0  0  0
 13  5  2  0  0  0  0
 14  6  1  6  0  0  0
 14  1  1  0  0  0  0
 15 17  1  0  0  0  0
 16 15  1  0  0  0  0
 18  1  1  0  0  0  0
 18 15  1  0  0  0  0
 18 19  1  0  0  0  0
 19 21  1  0  0  0  0
 19 22  1  0  0  0  0
 20 19  1  0  0  0  0
 23 18  1  0  0  0  0
 24 23  1  0  0  0  0
 25 23  1  0  0  0  0
 26 23  1  0  0  0  0
 27 13  1  6  0  0  0
 27  2  1  0  0  0  0
 28 29  1  0  0  0  0
 30 28  1  0  0  0  0
 31  2  1  0  0  0  0
 31 28  1  0  0  0  0
 31 32  1  0  0  0  0
 32 34  1  0  0  0  0
 32 33  1  0  0  0  0
 35 32  1  0  0  0  0
 36 31  1  0  0  0  0
 37 36  1  0  0  0  0
 38 36  1  0  0  0  0
 39 36  1  0  0  0  0
M  END
