1,3,47
 OpenBabel05122313063D

 81 87  0  0  1  0  0  0  0  0999 V2000
   -1.7638   -1.2540   -0.9452 N   0  0  0  0  0  2  0  0  0  0  0  0
   -3.7631   -0.2748   -1.2833 N   0  0  0  0  0  0  0  0  0  0  0  0
    1.9044   -0.2744    0.2039 N   0  0  0  0  0  2  0  0  0  0  0  0
    3.1532    1.5413    0.6471 N   0  0  0  0  0  0  0  0  0  0  0  0
   -4.8577   -2.2950    1.5468 C   0  0  0  0  0  0  0  0  0  0  0  0
   -5.5258   -2.9473    0.9609 H   0  0  0  0  0  0  0  0  0  0  0  0
   -5.3986   -1.4727    2.5475 C   0  0  0  0  0  0  0  0  0  0  0  0
   -6.4841   -1.4746    2.7295 H   0  0  0  0  0  0  0  0  0  0  0  0
   -4.5565   -0.6543    3.3158 C   0  0  0  0  0  0  0  0  0  0  0  0
   -4.9778   -0.0113    4.1038 H   0  0  0  0  0  0  0  0  0  0  0  0
   -3.1726   -0.6666    3.0751 C   0  0  0  0  0  0  0  0  0  0  0  0
   -2.5010   -0.0336    3.6755 H   0  0  0  0  0  0  0  0  0  0  0  0
   -2.6349   -1.4889    2.0735 C   0  0  0  0  0  0  0  0  0  0  0  0
   -1.5488   -1.4948    1.8862 H   0  0  0  0  0  0  0  0  0  0  0  0
   -3.4707   -2.3143    1.2887 C   0  0  0  0  0  0  0  0  0  0  0  0
   -2.8923   -3.1553    0.1761 C   0  0  0  0  0  0  0  0  0  0  0  0
   -3.5551   -4.0190   -0.0414 H   0  0  0  0  0  0  0  0  0  0  0  0
   -1.8962   -3.5584    0.4544 H   0  0  0  0  0  0  0  0  0  0  0  0
   -2.6839   -2.3786   -1.1507 C   0  0  1  0  0  0  0  0  0  0  0  0
   -2.2417   -3.0765   -1.8881 H   0  0  0  0  0  0  0  0  0  0  0  0
   -3.9465   -1.6769   -1.7109 C   0  0  0  0  0  0  0  0  0  0  0  0
   -3.9921   -1.7403   -2.8199 H   0  0  0  0  0  0  0  0  0  0  0  0
   -4.8904   -2.0759   -1.2921 H   0  0  0  0  0  0  0  0  0  0  0  0
   -4.8480    0.5730   -0.9736 C   0  0  0  0  0  0  0  0  0  0  0  0
   -4.9062    1.2509    0.2622 C   0  0  0  0  0  0  0  0  0  0  0  0
   -4.1046    1.1015    0.9990 H   0  0  0  0  0  0  0  0  0  0  0  0
   -6.0005    2.0686    0.5595 C   0  0  0  0  0  0  0  0  0  0  0  0
   -6.0311    2.5841    1.5326 H   0  0  0  0  0  0  0  0  0  0  0  0
   -7.0803    2.2156   -0.3379 C   0  0  0  0  0  0  0  0  0  0  0  0
   -7.0227    1.5023   -1.5519 C   0  0  0  0  0  0  0  0  0  0  0  0
   -7.8556    1.5867   -2.2677 H   0  0  0  0  0  0  0  0  0  0  0  0
   -5.9235    0.6958   -1.8750 C   0  0  0  0  0  0  0  0  0  0  0  0
   -5.8936    0.1615   -2.8361 H   0  0  0  0  0  0  0  0  0  0  0  0
   -8.2469    3.1108   -0.0056 C   0  0  0  0  0  0  0  0  0  0  0  0
   -9.1179    2.9080   -0.6585 H   0  0  0  0  0  0  0  0  0  0  0  0
   -7.9798    4.1820   -0.1326 H   0  0  0  0  0  0  0  0  0  0  0  0
   -8.5697    2.9843    1.0478 H   0  0  0  0  0  0  0  0  0  0  0  0
   -2.4458   -0.1031   -0.9410 C   0  0  2  0  0  3  0  0  0  0  0  0
   -1.6786    1.1097   -0.6403 C   0  0  0  0  0  0  0  0  0  0  0  0
   -2.0427    2.4718   -0.6099 C   0  0  0  0  0  0  0  0  0  0  0  0
   -3.0682    2.7916   -0.8423 H   0  0  0  0  0  0  0  0  0  0  0  0
   -1.0754    3.4342   -0.2585 C   0  0  0  0  0  0  0  0  0  0  0  0
   -1.3701    4.4931   -0.2163 H   0  0  0  0  0  0  0  0  0  0  0  0
    0.2559    3.0863    0.0453 C   0  0  0  0  0  3  0  0  0  0  0  0
    0.9685    3.8728    0.3310 H   0  0  0  0  0  0  0  0  0  0  0  0
    0.6504    1.7333   -0.0259 C   0  0  0  0  0  0  0  0  0  0  0  0
   -0.3308    0.7573   -0.3588 C   0  0  0  0  0  3  0  0  0  0  0  0
    1.9249    1.0610    0.2542 C   0  0  0  0  0  0  0  0  0  0  0  0
    3.6797    2.8345    0.4739 C   0  0  0  0  0  0  0  0  0  0  0  0
    4.6069    3.3463    1.4055 C   0  0  0  0  0  0  0  0  0  0  0  0
    4.8877    2.7470    2.2836 H   0  0  0  0  0  0  0  0  0  0  0  0
    5.1617    4.6195    1.2224 C   0  0  0  0  0  0  0  0  0  0  0  0
    5.8833    4.9996    1.9626 H   0  0  0  0  0  0  0  0  0  0  0  0
    4.8112    5.4270    0.1225 C   0  0  0  0  0  0  0  0  0  0  0  0
    3.8959    4.8940   -0.8107 C   0  0  0  0  0  0  0  0  0  0  0  0
    3.6231    5.4860   -1.6989 H   0  0  0  0  0  0  0  0  0  0  0  0
    3.3483    3.6168   -0.6553 C   0  0  0  0  0  0  0  0  0  0  0  0
    2.6730    3.2080   -1.4202 H   0  0  0  0  0  0  0  0  0  0  0  0
    5.3835    6.8101   -0.0561 C   0  0  0  0  0  0  0  0  0  0  0  0
    6.2499    6.9834    0.6112 H   0  0  0  0  0  0  0  0  0  0  0  0
    4.6267    7.5911    0.1724 H   0  0  0  0  0  0  0  0  0  0  0  0
    5.7152    6.9819   -1.1004 H   0  0  0  0  0  0  0  0  0  0  0  0
    3.9726    0.3972    1.1013 C   0  0  0  0  0  0  0  0  0  0  0  0
    3.9956    0.3566    2.2119 H   0  0  0  0  0  0  0  0  0  0  0  0
    5.0131    0.4965    0.7349 H   0  0  0  0  0  0  0  0  0  0  0  0
    3.2309   -0.8214    0.4974 C   0  0  2  0  0  0  0  0  0  0  0  0
    3.1223   -1.6393    1.2361 H   0  0  0  0  0  0  0  0  0  0  0  0
    3.8607   -1.4080   -0.7857 C   0  0  0  0  0  0  0  0  0  0  0  0
    3.0745   -2.0370   -1.2518 H   0  0  0  0  0  0  0  0  0  0  0  0
    4.0978   -0.5776   -1.4835 H   0  0  0  0  0  0  0  0  0  0  0  0
    5.0801   -2.2414   -0.4850 C   0  0  0  0  0  0  0  0  0  0  0  0
    4.9148   -3.5504    0.0189 C   0  0  0  0  0  0  0  0  0  0  0  0
    3.8928   -3.9502    0.1289 H   0  0  0  0  0  0  0  0  0  0  0  0
    6.0298   -4.3289    0.3587 C   0  0  0  0  0  0  0  0  0  0  0  0
    5.8855   -5.3501    0.7441 H   0  0  0  0  0  0  0  0  0  0  0  0
    7.3280   -3.8138    0.2012 C   0  0  0  0  0  0  0  0  0  0  0  0
    8.2028   -4.4275    0.4655 H   0  0  0  0  0  0  0  0  0  0  0  0
    7.5038   -2.5162   -0.3025 C   0  0  0  0  0  0  0  0  0  0  0  0
    8.5177   -2.1086   -0.4372 H   0  0  0  0  0  0  0  0  0  0  0  0
    6.3859   -1.7364   -0.6420 C   0  0  0  0  0  0  0  0  0  0  0  0
    6.5287   -0.7226   -1.0508 H   0  0  0  0  0  0  0  0  0  0  0  0
  1 38  1  0  0  0  0
  2 24  1  0  0  0  0
  2 38  1  0  0  0  0
  3 48  1  0  0  0  0
  3 66  1  0  0  0  0
  4 63  1  0  0  0  0
  5  7  1  0  0  0  0
  6  5  1  0  0  0  0
  7  8  1  0  0  0  0
  7  9  2  0  0  0  0
  9 10  1  0  0  0  0
 11  9  1  0  0  0  0
 11 12  1  0  0  0  0
 13 11  2  0  0  0  0
 14 13  1  0  0  0  0
 15  5  2  0  0  0  0
 15 13  1  0  0  0  0
 16 18  1  0  0  0  0
 16 15  1  0  0  0  0
 17 16  1  0  0  0  0
 19 20  1  6  0  0  0
 19  1  1  0  0  0  0
 19 16  1  0  0  0  0
 21 23  1  0  0  0  0
 21  2  1  0  0  0  0
 21 19  1  0  0  0  0
 22 21  1  0  0  0  0
 24 25  1  0  0  0  0
 25 27  2  0  0  0  0
 25 26  1  0  0  0  0
 27 28  1  0  0  0  0
 29 34  1  0  0  0  0
 29 27  1  0  0  0  0
 30 29  2  0  0  0  0
 31 30  1  0  0  0  0
 32 30  1  0  0  0  0
 32 24  2  0  0  0  0
 33 32  1  0  0  0  0
 34 37  1  0  0  0  0
 35 34  1  0  0  0  0
 36 34  1  0  0  0  0
 38 39  1  6  0  0  0
 39 40  1  0  0  0  0
 39 47  2  0  0  0  0
 40 42  2  0  0  0  0
 41 40  1  0  0  0  0
 42 43  1  0  0  0  0
 42 44  1  0  0  0  0
 44 45  1  0  0  0  0
 46 44  1  0  0  0  0
 46 48  2  0  0  0  0
 47 46  1  0  0  0  0
 48  4  1  0  0  0  0
 49  4  1  0  0  0  0
 49 50  1  0  0  0  0
 50 51  1  0  0  0  0
 52 50  2  0  0  0  0
 52 53  1  0  0  0  0
 54 52  1  0  0  0  0
 55 57  1  0  0  0  0
 55 54  2  0  0  0  0
 56 55  1  0  0  0  0
 57 49  2  0  0  0  0
 58 57  1  0  0  0  0
 59 54  1  0  0  0  0
 59 61  1  0  0  0  0
 59 60  1  0  0  0  0
 62 59  1  0  0  0  0
 63 64  1  0  0  0  0
 65 63  1  0  0  0  0
 66 63  1  0  0  0  0
 66 67  1  1  0  0  0
 68 71  1  0  0  0  0
 68 66  1  0  0  0  0
 69 68  1  0  0  0  0
 70 68  1  0  0  0  0
 71 72  1  0  0  0  0
 72 73  1  0  0  0  0
 72 74  2  0  0  0  0
 74 75  1  0  0  0  0
 76 74  1  0  0  0  0
 76 77  1  0  0  0  0
 78 76  2  0  0  0  0
 79 78  1  0  0  0  0
 80 71  2  0  0  0  0
 80 78  1  0  0  0  0
 81 80  1  0  0  0  0
M  END
