1,2,28
 OpenBabel05122313063D

 37 38  0  0  1  0  0  0  0  0999 V2000
    0.3059   -0.9548   -1.1142 N   0  0  0  0  0  2  0  0  0  0  0  0
   -1.7018    0.3970    0.7574 N   0  0  0  0  0  2  0  0  0  0  0  0
    0.9023   -0.3813    1.6579 N   0  0  0  0  0  0  0  0  0  0  0  0
   -1.5739   -0.1940    1.9576 C   0  0  1  0  0  3  0  0  0  0  0  0
   -2.9136    0.4445    0.1732 C   0  0  0  0  0  0  0  0  0  0  0  0
   -2.9200    0.9257   -0.8246 H   0  0  0  0  0  0  0  0  0  0  0  0
   -0.1886   -0.1702    2.5900 C   0  0  0  0  0  0  0  0  0  0  0  0
   -0.0321    0.8219    3.0641 H   0  0  0  0  0  0  0  0  0  0  0  0
   -0.1354   -0.9300    3.3971 H   0  0  0  0  0  0  0  0  0  0  0  0
    0.4961   -3.3165   -0.7001 C   0  0  0  0  0  0  0  0  0  0  0  0
    0.7173   -4.1234    0.0154 H   0  0  0  0  0  0  0  0  0  0  0  0
    1.1030   -1.7068    1.1282 C   0  0  0  0  0  0  0  0  0  0  0  0
    0.6470   -2.4413    1.8207 H   0  0  0  0  0  0  0  0  0  0  0  0
    2.1967   -1.9197    1.1239 H   0  0  0  0  0  0  0  0  0  0  0  0
   -4.0569   -0.1004    0.7774 C   0  0  0  0  0  0  0  0  0  0  0  0
   -5.0282   -0.0368    0.2656 H   0  0  0  0  0  0  0  0  0  0  0  0
   -0.1331   -2.5334   -2.8853 C   0  0  0  0  0  0  0  0  0  0  0  0
   -0.4178   -2.6986   -3.9342 H   0  0  0  0  0  0  0  0  0  0  0  0
    0.5850   -1.9755   -0.2830 C   0  0  1  0  0  3  0  0  0  0  0  0
   -3.9296   -0.7259    2.0245 C   0  0  0  0  0  0  0  0  0  0  0  0
   -4.8024   -1.1741    2.5238 H   0  0  0  0  0  0  0  0  0  0  0  0
   -0.0425   -1.2271   -2.3948 C   0  0  0  0  0  0  0  0  0  0  0  0
   -0.3055   -0.3365   -2.9956 H   0  0  0  0  0  0  0  0  0  0  0  0
   -2.6634   -0.7793    2.6246 C   0  0  0  0  0  0  0  0  0  0  0  0
   -2.5172   -1.2649    3.6018 H   0  0  0  0  0  0  0  0  0  0  0  0
    0.1311   -3.6032   -2.0191 C   0  0  0  0  0  0  0  0  0  0  0  0
    0.0518   -4.6457   -2.3633 H   0  0  0  0  0  0  0  0  0  0  0  0
    1.4272    0.7111    0.9912 C   0  0  0  0  0  3  0  0  0  0  0  0
    1.3038    1.6462    1.5626 H   0  0  0  0  0  0  0  0  0  0  0  0
    3.8651    0.2156    1.3129 C   0  0  0  0  0  0  0  0  0  0  0  0
    3.9490    0.8794    2.1928 H   0  0  0  0  0  0  0  0  0  0  0  0
    2.7874    0.5759    0.3247 C   0  0  0  0  0  0  0  0  0  0  0  0
    2.9742    1.5777   -0.1193 H   0  0  0  0  0  0  0  0  0  0  0  0
    2.7745   -0.1496   -0.5140 H   0  0  0  0  0  0  0  0  0  0  0  0
    4.7049   -0.8293    1.1944 C   0  0  0  0  0  0  0  0  0  0  0  0
    4.6584   -1.5052    0.3229 H   0  0  0  0  0  0  0  0  0  0  0  0
    5.4876   -1.0300    1.9423 H   0  0  0  0  0  0  0  0  0  0  0  0
  1 19  1  0  0  0  0
  2  4  1  0  0  0  0
  3  7  1  0  0  0  0
  4  7  1  1  0  0  0
  4 24  1  0  0  0  0
  5  2  1  0  0  0  0
  5 15  2  0  0  0  0
  6  5  1  0  0  0  0
  7  8  1  0  0  0  0
  7  9  1  0  0  0  0
 10 19  1  0  0  0  0
 10 11  1  0  0  0  0
 12  3  1  0  0  0  0
 12 13  1  0  0  0  0
 14 12  1  0  0  0  0
 15 20  1  0  0  0  0
 16 15  1  0  0  0  0
 17 22  2  0  0  0  0
 17 26  1  0  0  0  0
 18 17  1  0  0  0  0
 19 12  1  6  0  0  0
 20 21  1  0  0  0  0
 20 24  2  0  0  0  0
 22  1  1  0  0  0  0
 23 22  1  0  0  0  0
 24 25  1  0  0  0  0
 26 10  2  0  0  0  0
 27 26  1  0  0  0  0
 28 29  1  0  0  0  0
 28  3  1  0  0  0  0
 30 31  1  0  0  0  0
 32 28  1  0  0  0  0
 32 30  1  0  0  0  0
 33 32  1  0  0  0  0
 34 32  1  0  0  0  0
 35 30  2  0  0  0  0
 35 37  1  0  0  0  0
 36 35  1  0  0  0  0
M  END
