1,35,36
 OpenBabel05122313063D

 38 39  0  0  0  0  0  0  0  0999 V2000
    1.5030    0.9113    0.0176 C   0  0  0  0  0  2  0  0  0  0  0  0
    2.4415   -0.1360    0.0765 C   0  0  0  0  0  0  0  0  0  0  0  0
    3.8476    0.1462    0.1277 C   0  0  0  0  0  0  0  0  0  0  0  0
    4.3140    1.4978    0.0611 C   0  0  0  0  0  0  0  0  0  0  0  0
    3.3924    2.5433   -0.0279 C   0  0  0  0  0  0  0  0  0  0  0  0
    3.7293    3.5874   -0.0574 H   0  0  0  0  0  0  0  0  0  0  0  0
    2.0056    2.2556   -0.0296 C   0  0  0  0  0  0  0  0  0  0  0  0
    1.0267    3.3038   -0.0541 C   0  0  0  0  0  0  0  0  0  0  0  0
    1.3206    4.3693   -0.0974 H   0  0  0  0  0  0  0  0  0  0  0  0
    2.6457   -2.5618   -0.3039 C   0  0  0  0  0  0  0  0  0  0  0  0
    1.8654   -3.3385   -0.4179 H   0  0  0  0  0  0  0  0  0  0  0  0
    3.4026   -2.8965    0.4287 H   0  0  0  0  0  0  0  0  0  0  0  0
    3.1247   -2.3906   -1.2899 H   0  0  0  0  0  0  0  0  0  0  0  0
    5.9398   -1.0110   -0.3493 C   0  0  0  0  0  0  0  0  0  0  0  0
    6.1550   -2.0954   -0.4053 H   0  0  0  0  0  0  0  0  0  0  0  0
    6.7394   -0.4977    0.2162 H   0  0  0  0  0  0  0  0  0  0  0  0
    5.8887   -0.5911   -1.3741 H   0  0  0  0  0  0  0  0  0  0  0  0
    6.1840    2.9803    0.1167 C   0  0  0  0  0  0  0  0  0  0  0  0
    7.2815    2.8794    0.1948 H   0  0  0  0  0  0  0  0  0  0  0  0
    5.8134    3.5883    0.9711 H   0  0  0  0  0  0  0  0  0  0  0  0
    5.9329    3.4982   -0.8351 H   0  0  0  0  0  0  0  0  0  0  0  0
    1.9482   -1.4004    0.1503 O   0  0  0  0  0  0  0  0  0  0  0  0
    4.6751   -0.9020    0.3190 O   0  0  0  0  0  0  0  0  0  0  0  0
    5.6593    1.6621    0.1492 O   0  0  0  0  0  0  0  0  0  0  0  0
   -1.3856    3.7356   -0.0241 C   0  0  0  0  0  0  0  0  0  0  0  0
   -2.6228    3.0406    0.0297 C   0  0  0  0  0  0  0  0  0  0  0  0
   -3.8332    3.7443    0.0123 C   0  0  0  0  0  0  0  0  0  0  0  0
   -4.7834    3.1895    0.0534 H   0  0  0  0  0  0  0  0  0  0  0  0
   -3.8299    5.1455   -0.0552 C   0  0  0  0  0  0  0  0  0  0  0  0
   -4.7814    5.6961   -0.0685 H   0  0  0  0  0  0  0  0  0  0  0  0
   -2.6083    5.8402   -0.1044 C   0  0  0  0  0  0  0  0  0  0  0  0
   -2.6037    6.9388   -0.1566 H   0  0  0  0  0  0  0  0  0  0  0  0
   -1.3940    5.1468   -0.0897 C   0  0  0  0  0  0  0  0  0  0  0  0
   -0.4469    5.7030   -0.1319 H   0  0  0  0  0  0  0  0  0  0  0  0
   -0.2364    2.9375   -0.0131 N   0  0  0  0  0  2  0  0  0  0  0  0
   -2.5867    1.5820    0.1027 N   0  0  0  0  0  0  0  0  0  0  0  0
   -3.1474    1.1555   -0.6530 H   0  0  0  0  0  0  0  0  0  0  0  0
   -3.0316    1.2456    0.9717 H   0  0  0  0  0  0  0  0  0  0  0  0
  1  2  1  0  0  0  0
  2  3  2  0  0  0  0
  2 22  1  0  0  0  0
  3 23  1  0  0  0  0
  4  3  1  0  0  0  0
  4 24  1  0  0  0  0
  5  4  2  0  0  0  0
  6  5  1  0  0  0  0
  7  5  1  0  0  0  0
  7  1  1  0  0  0  0
  8  7  2  0  0  0  0
  8 35  1  0  0  0  0
  9  8  1  0  0  0  0
 10 22  1  0  0  0  0
 10 12  1  0  0  0  0
 11 10  1  0  0  0  0
 13 10  1  0  0  0  0
 14 16  1  0  0  0  0
 14 23  1  0  0  0  0
 15 14  1  0  0  0  0
 17 14  1  0  0  0  0
 18 24  1  0  0  0  0
 18 19  1  0  0  0  0
 18 20  1  0  0  0  0
 21 18  1  0  0  0  0
 25 35  1  0  0  0  0
 25 26  1  0  0  0  0
 26 36  1  0  0  0  0
 27 26  2  0  0  0  0
 27 28  1  0  0  0  0
 29 27  1  0  0  0  0
 30 29  1  0  0  0  0
 31 33  1  0  0  0  0
 31 29  2  0  0  0  0
 32 31  1  0  0  0  0
 33 25  2  0  0  0  0
 34 33  1  0  0  0  0
 36 38  1  0  0  0  0
 37 36  1  0  0  0  0
M  END
