2,3,4
 OpenBabel05122313063D

 61 65  0  0  0  0  0  0  0  0999 V2000
    0.5946    1.5197    1.3531 P   0  0  2  0  0  0  0  0  0  0  0  0
   -2.1424    0.1242   -0.4328 N   0  0  0  0  0  2  0  0  0  0  0  0
    1.7428   -1.3649   -0.2001 N   0  0  0  0  0  2  0  0  0  0  0  0
    0.2946    1.1529   -0.4845 C   0  0  0  0  0  3  0  0  0  0  0  0
    1.2502    1.3151   -1.0289 H   0  0  0  0  0  0  0  0  0  0  0  0
   -0.8167    2.0158   -0.9968 C   0  0  0  0  0  0  0  0  0  0  0  0
   -2.1202    1.4577   -0.8732 C   0  0  0  0  0  0  0  0  0  0  0  0
   -3.2470    2.2065   -1.2775 C   0  0  0  0  0  0  0  0  0  0  0  0
   -4.2528    1.7697   -1.1968 H   0  0  0  0  0  0  0  0  0  0  0  0
   -3.0702    3.4921   -1.8140 C   0  0  0  0  0  0  0  0  0  0  0  0
   -3.9526    4.0661   -2.1374 H   0  0  0  0  0  0  0  0  0  0  0  0
   -1.7853    4.0401   -1.9588 C   0  0  0  0  0  0  0  0  0  0  0  0
   -1.6542    5.0450   -2.3868 H   0  0  0  0  0  0  0  0  0  0  0  0
   -0.6637    3.3003   -1.5442 C   0  0  0  0  0  0  0  0  0  0  0  0
    0.3465    3.7292   -1.6299 H   0  0  0  0  0  0  0  0  0  0  0  0
    0.9318    3.3377    1.2704 C   0  0  0  0  0  0  0  0  0  0  0  0
   -0.1428    4.2026    1.5636 C   0  0  0  0  0  0  0  0  0  0  0  0
   -1.1078    3.7741    1.8768 H   0  0  0  0  0  0  0  0  0  0  0  0
    0.0036    5.5927    1.4418 C   0  0  0  0  0  0  0  0  0  0  0  0
   -0.8483    6.2534    1.6638 H   0  0  0  0  0  0  0  0  0  0  0  0
    1.2319    6.1369    1.0369 C   0  0  0  0  0  0  0  0  0  0  0  0
    1.3505    7.2273    0.9444 H   0  0  0  0  0  0  0  0  0  0  0  0
    2.3107    5.2843    0.7485 C   0  0  0  0  0  0  0  0  0  0  0  0
    3.2759    5.7057    0.4270 H   0  0  0  0  0  0  0  0  0  0  0  0
    2.1614    3.8935    0.8585 C   0  0  0  0  0  0  0  0  0  0  0  0
    3.0105    3.2410    0.6044 H   0  0  0  0  0  0  0  0  0  0  0  0
    2.3401    0.8406    1.6022 C   0  0  0  0  0  0  0  0  0  0  0  0
    2.9250    0.9664    0.6667 H   0  0  0  0  0  0  0  0  0  0  0  0
    2.7963    1.4885    2.3770 H   0  0  0  0  0  0  0  0  0  0  0  0
    2.3779   -0.5935    2.0626 C   0  0  0  0  0  0  0  0  0  0  0  0
    2.1196   -1.6537    1.1527 C   0  0  0  0  0  0  0  0  0  0  0  0
    2.2137   -2.9908    1.5888 C   0  0  0  0  0  0  0  0  0  0  0  0
    2.0424   -3.7905    0.8530 H   0  0  0  0  0  0  0  0  0  0  0  0
    2.5116   -3.2915    2.9247 C   0  0  0  0  0  0  0  0  0  0  0  0
    2.5760   -4.3407    3.2512 H   0  0  0  0  0  0  0  0  0  0  0  0
    2.7314   -2.2486    3.8396 C   0  0  0  0  0  0  0  0  0  0  0  0
    2.9619   -2.4721    4.8920 H   0  0  0  0  0  0  0  0  0  0  0  0
    2.6676   -0.9176    3.4041 C   0  0  0  0  0  0  0  0  0  0  0  0
    2.8525   -0.0989    4.1177 H   0  0  0  0  0  0  0  0  0  0  0  0
   -3.3350   -0.4306    0.0811 C   0  0  0  0  0  0  0  0  0  0  0  0
   -4.0778    0.2272    1.0916 C   0  0  0  0  0  0  0  0  0  0  0  0
   -3.7421    1.2157    1.4383 H   0  0  0  0  0  0  0  0  0  0  0  0
   -5.2020   -0.3839    1.6603 C   0  0  0  0  0  0  0  0  0  0  0  0
   -5.7591    0.1387    2.4535 H   0  0  0  0  0  0  0  0  0  0  0  0
   -5.6114   -1.6623    1.2408 C   0  0  0  0  0  0  0  0  0  0  0  0
   -6.4923   -2.1405    1.6945 H   0  0  0  0  0  0  0  0  0  0  0  0
   -4.8877   -2.3180    0.2318 C   0  0  0  0  0  0  0  0  0  0  0  0
   -5.2049   -3.3133   -0.1167 H   0  0  0  0  0  0  0  0  0  0  0  0
   -3.7688   -1.7053   -0.3510 C   0  0  0  0  0  0  0  0  0  0  0  0
   -3.2072   -2.2074   -1.1537 H   0  0  0  0  0  0  0  0  0  0  0  0
    2.7939   -1.0801   -1.0913 C   0  0  0  0  0  0  0  0  0  0  0  0
    2.5251   -0.6237   -2.4104 C   0  0  0  0  0  0  0  0  0  0  0  0
    1.4822   -0.4844   -2.7275 H   0  0  0  0  0  0  0  0  0  0  0  0
    3.5639   -0.3595   -3.3096 C   0  0  0  0  0  0  0  0  0  0  0  0
    3.3164   -0.0074   -4.3232 H   0  0  0  0  0  0  0  0  0  0  0  0
    4.9063   -0.5310   -2.9319 C   0  0  0  0  0  0  0  0  0  0  0  0
    5.7201   -0.3179   -3.6405 H   0  0  0  0  0  0  0  0  0  0  0  0
    5.1874   -0.9753   -1.6306 C   0  0  0  0  0  0  0  0  0  0  0  0
    6.2316   -1.1173   -1.3109 H   0  0  0  0  0  0  0  0  0  0  0  0
    4.1558   -1.2449   -0.7217 C   0  0  0  0  0  0  0  0  0  0  0  0
    4.4000   -1.5966    0.2903 H   0  0  0  0  0  0  0  0  0  0  0  0
  1  4  1  6  0  0  0
  1 27  1  0  0  0  0
  2 40  1  0  0  0  0
  3 31  1  0  0  0  0
  5  4  1  0  0  0  0
  6  7  1  0  0  0  0
  6  4  1  0  0  0  0
  7  2  1  0  0  0  0
  8  9  1  0  0  0  0
  8  7  2  0  0  0  0
 10  8  1  0  0  0  0
 11 10  1  0  0  0  0
 12 10  2  0  0  0  0
 12 14  1  0  0  0  0
 13 12  1  0  0  0  0
 14  6  2  0  0  0  0
 15 14  1  0  0  0  0
 16  1  1  0  0  0  0
 16 17  1  0  0  0  0
 17 18  1  0  0  0  0
 19 17  2  0  0  0  0
 19 20  1  0  0  0  0
 21 19  1  0  0  0  0
 22 21  1  0  0  0  0
 23 25  1  0  0  0  0
 23 21  2  0  0  0  0
 24 23  1  0  0  0  0
 25 16  2  0  0  0  0
 26 25  1  0  0  0  0
 27 30  1  0  0  0  0
 27 29  1  0  0  0  0
 28 27  1  0  0  0  0
 30 38  1  0  0  0  0
 31 32  1  0  0  0  0
 31 30  2  0  0  0  0
 32 34  2  0  0  0  0
 33 32  1  0  0  0  0
 34 35  1  0  0  0  0
 34 36  1  0  0  0  0
 36 37  1  0  0  0  0
 38 36  2  0  0  0  0
 38 39  1  0  0  0  0
 40 41  1  0  0  0  0
 41 42  1  0  0  0  0
 41 43  2  0  0  0  0
 43 44  1  0  0  0  0
 45 43  1  0  0  0  0
 45 46  1  0  0  0  0
 47 45  2  0  0  0  0
 48 47  1  0  0  0  0
 49 40  2  0  0  0  0
 49 47  1  0  0  0  0
 50 49  1  0  0  0  0
 51 60  1  0  0  0  0
 51  3  1  0  0  0  0
 52 51  2  0  0  0  0
 53 52  1  0  0  0  0
 54 56  2  0  0  0  0
 54 52  1  0  0  0  0
 55 54  1  0  0  0  0
 56 58  1  0  0  0  0
 57 56  1  0  0  0  0
 58 59  1  0  0  0  0
 58 60  2  0  0  0  0
 60 61  1  0  0  0  0
M  END
