2,11,19
 OpenBabel05122313063D

 34 35  0  0  1  0  0  0  0  0999 V2000
   -0.3940    1.9879    1.7089 S   0  0  0  0  0  0  0  0  0  0  0  0
   -1.8316   -0.0040    0.3365 N   0  0  0  0  0  2  0  0  0  0  0  0
   -2.7279    0.7982    0.8668 N   0  0  0  0  0  2  0  0  0  0  0  0
   -2.9355    2.6489    2.2034 N   0  0  0  0  0  0  0  0  0  0  0  0
   -2.1066    1.7865    1.5659 C   0  0  0  0  0  0  0  0  0  0  0  0
   -1.9263   -1.1834   -0.2390 C   0  0  1  0  0  3  0  0  0  0  0  0
   -3.1128   -1.8983   -0.8233 C   0  0  0  0  0  0  0  0  0  0  0  0
   -2.9371   -2.2232   -2.3717 C   0  0  0  0  0  0  0  0  0  0  0  0
   -1.4843   -2.3966   -2.5517 C   0  0  0  0  0  3  0  0  0  0  0  0
   -0.4786   -2.1091   -1.8728 C   0  0  0  0  0  3  0  0  0  0  0  0
   -0.4885   -1.5530   -0.5417 C   0  0  2  0  0  3  0  0  0  0  0  0
   -3.9371    2.4574    2.2151 H   0  0  0  0  0  0  0  0  0  0  0  0
   -2.5432    3.3867    2.7829 H   0  0  0  0  0  0  0  0  0  0  0  0
   -4.0206   -1.2845   -0.6619 H   0  0  0  0  0  0  0  0  0  0  0  0
   -3.2550   -2.8651   -0.2943 H   0  0  0  0  0  0  0  0  0  0  0  0
   -3.3014   -1.3790   -2.9971 H   0  0  0  0  0  0  0  0  0  0  0  0
   -3.5519   -3.1072   -2.6367 H   0  0  0  0  0  0  0  0  0  0  0  0
    0.3940    1.9879   -1.7089 S   0  0  0  0  0  0  0  0  0  0  0  0
    1.8316   -0.0039   -0.3365 N   0  0  0  0  0  2  0  0  0  0  0  0
    2.7279    0.7982   -0.8668 N   0  0  0  0  0  2  0  0  0  0  0  0
    2.9355    2.6489   -2.2034 N   0  0  0  0  0  0  0  0  0  0  0  0
    2.1065    1.7865   -1.5659 C   0  0  0  0  0  0  0  0  0  0  0  0
    1.9264   -1.1834    0.2390 C   0  0  1  0  0  3  0  0  0  0  0  0
    3.1128   -1.8983    0.8232 C   0  0  0  0  0  0  0  0  0  0  0  0
    2.9371   -2.2232    2.3717 C   0  0  0  0  0  0  0  0  0  0  0  0
    1.4844   -2.3966    2.5517 C   0  0  0  0  0  3  0  0  0  0  0  0
    0.4786   -2.1091    1.8728 C   0  0  0  0  0  3  0  0  0  0  0  0
    0.4885   -1.5530    0.5417 C   0  0  2  0  0  3  0  0  0  0  0  0
    3.9371    2.4574   -2.2151 H   0  0  0  0  0  0  0  0  0  0  0  0
    2.5431    3.3867   -2.7829 H   0  0  0  0  0  0  0  0  0  0  0  0
    4.0206   -1.2845    0.6619 H   0  0  0  0  0  0  0  0  0  0  0  0
    3.2550   -2.8650    0.2943 H   0  0  0  0  0  0  0  0  0  0  0  0
    3.3014   -1.3790    2.9971 H   0  0  0  0  0  0  0  0  0  0  0  0
    3.5519   -3.1072    2.6367 H   0  0  0  0  0  0  0  0  0  0  0  0
  2  3  1  0  0  0  0
  3  5  1  0  0  0  0
  4 12  1  0  0  0  0
  4 13  1  0  0  0  0
  5  1  2  0  0  0  0
  5  4  1  0  0  0  0
  6  2  1  6  0  0  0
  7 14  1  0  0  0  0
  7 15  1  0  0  0  0
  7  6  1  0  0  0  0
  8  7  1  0  0  0  0
  9  8  1  0  0  0  0
  9 10  2  0  0  0  0
 11 10  1  1  0  0  0
 11  6  1  0  0  0  0
 11 28  1  0  0  0  0
 16  8  1  0  0  0  0
 17  8  1  0  0  0  0
 18 22  2  0  0  0  0
 20 19  1  0  0  0  0
 21 22  1  0  0  0  0
 22 20  1  0  0  0  0
 23 19  1  1  0  0  0
 23 28  1  0  0  0  0
 23 24  1  0  0  0  0
 24 25  1  0  0  0  0
 25 26  1  0  0  0  0
 25 34  1  0  0  0  0
 25 33  1  0  0  0  0
 27 26  2  0  0  0  0
 28 27  1  6  0  0  0
 29 21  1  0  0  0  0
 30 21  1  0  0  0  0
 31 24  1  0  0  0  0
 32 24  1  0  0  0  0
M  END
