1,2,6
 OpenBabel05122313063D

 58 63  0  0  0  0  0  0  0  0999 V2000
    1.2682    0.4728    1.2725 N   0  0  0  0  0  2  0  0  0  0  0  0
   -1.2354    0.0245    1.3860 N   0  0  0  0  0  2  0  0  0  0  0  0
   -1.1982    1.3631   -1.0543 C   0  0  0  0  0  3  0  0  0  0  0  0
   -0.5782    1.9508   -1.7479 H   0  0  0  0  0  0  0  0  0  0  0  0
    3.4836   -0.3455    0.6214 C   0  0  0  0  0  0  0  0  0  0  0  0
   -1.6019    0.0656   -1.5594 C   0  0  0  0  0  3  0  0  0  0  0  0
   -1.2730   -0.1807   -2.5829 H   0  0  0  0  0  0  0  0  0  0  0  0
   -0.6669    0.4648    2.5423 C   0  0  0  0  0  0  0  0  0  0  0  0
   -1.2932    0.7048    3.4167 H   0  0  0  0  0  0  0  0  0  0  0  0
    1.4578    0.5890   -1.6436 C   0  0  0  0  0  3  0  0  0  0  0  0
    0.9310    0.6774   -2.6091 H   0  0  0  0  0  0  0  0  0  0  0  0
   -2.6776    0.3056    1.2240 C   0  0  0  0  0  0  0  0  0  0  0  0
   -3.1845    0.1347    2.1985 H   0  0  0  0  0  0  0  0  0  0  0  0
    3.0623   -1.0975   -0.5073 C   0  0  0  0  0  0  0  0  0  0  0  0
   -2.8201    1.7748    0.8598 C   0  0  0  0  0  0  0  0  0  0  0  0
    2.6719    0.8578    1.0632 C   0  0  0  0  0  0  0  0  0  0  0  0
    3.0986    1.2280    2.0196 H   0  0  0  0  0  0  0  0  0  0  0  0
    2.7448    1.9894    0.0494 C   0  0  0  0  0  0  0  0  0  0  0  0
    0.7072    0.6746    2.4954 C   0  0  0  0  0  0  0  0  0  0  0  0
    1.3094    1.0211    3.3512 H   0  0  0  0  0  0  0  0  0  0  0  0
   -2.8063   -0.6645   -1.1351 C   0  0  0  0  0  0  0  0  0  0  0  0
   -3.3408   -0.5721    0.1821 C   0  0  0  0  0  0  0  0  0  0  0  0
    1.9001   -0.7258   -1.3282 C   0  0  0  0  0  3  0  0  0  0  0  0
    1.6096   -1.4938   -2.0626 H   0  0  0  0  0  0  0  0  0  0  0  0
    2.1154    1.8407   -1.2161 C   0  0  0  0  0  0  0  0  0  0  0  0
   -3.6501    2.6468    1.5771 C   0  0  0  0  0  0  0  0  0  0  0  0
   -4.2603    2.2506    2.4045 H   0  0  0  0  0  0  0  0  0  0  0  0
    3.7835   -2.2671   -0.8424 C   0  0  0  0  0  0  0  0  0  0  0  0
    3.4548   -2.8587   -1.7114 H   0  0  0  0  0  0  0  0  0  0  0  0
   -2.0253    2.2536   -0.2115 C   0  0  0  0  0  0  0  0  0  0  0  0
    4.6088   -0.7552    1.3535 C   0  0  0  0  0  0  0  0  0  0  0  0
    4.9195   -0.1642    2.2299 H   0  0  0  0  0  0  0  0  0  0  0  0
   -3.4315   -1.5503   -2.0442 C   0  0  0  0  0  0  0  0  0  0  0  0
   -3.0105   -1.6432   -3.0566 H   0  0  0  0  0  0  0  0  0  0  0  0
    2.1253    2.9418   -2.1009 C   0  0  0  0  0  0  0  0  0  0  0  0
    1.6400    2.8346   -3.0840 H   0  0  0  0  0  0  0  0  0  0  0  0
    3.3842    3.1942    0.3753 C   0  0  0  0  0  0  0  0  0  0  0  0
    3.8639    3.2940    1.3620 H   0  0  0  0  0  0  0  0  0  0  0  0
   -2.0541    3.6370   -0.4942 C   0  0  0  0  0  0  0  0  0  0  0  0
   -1.4238    4.0246   -1.3100 H   0  0  0  0  0  0  0  0  0  0  0  0
   -4.4872   -1.3067    0.5240 C   0  0  0  0  0  0  0  0  0  0  0  0
   -4.8891   -1.2198    1.5465 H   0  0  0  0  0  0  0  0  0  0  0  0
   -4.5627   -2.2939   -1.6849 C   0  0  0  0  0  0  0  0  0  0  0  0
   -5.0252   -2.9740   -2.4166 H   0  0  0  0  0  0  0  0  0  0  0  0
    5.3232   -1.9098    0.9987 C   0  0  0  0  0  0  0  0  0  0  0  0
    6.1973   -2.2211    1.5901 H   0  0  0  0  0  0  0  0  0  0  0  0
    4.9022   -2.6708   -0.1033 C   0  0  0  0  0  0  0  0  0  0  0  0
    5.4474   -3.5834   -0.3880 H   0  0  0  0  0  0  0  0  0  0  0  0
    2.7551    4.1475   -1.7617 C   0  0  0  0  0  0  0  0  0  0  0  0
    2.7471    4.9884   -2.4716 H   0  0  0  0  0  0  0  0  0  0  0  0
   -5.1049   -2.1667   -0.3969 C   0  0  0  0  0  0  0  0  0  0  0  0
   -5.9954   -2.7430   -0.1045 H   0  0  0  0  0  0  0  0  0  0  0  0
   -2.8734    4.5107    0.2343 C   0  0  0  0  0  0  0  0  0  0  0  0
   -2.8770    5.5848   -0.0060 H   0  0  0  0  0  0  0  0  0  0  0  0
    3.3952    4.2752   -0.5209 C   0  0  0  0  0  0  0  0  0  0  0  0
    3.8883    5.2182   -0.2414 H   0  0  0  0  0  0  0  0  0  0  0  0
   -3.6841    4.0162    1.2674 C   0  0  0  0  0  0  0  0  0  0  0  0
   -4.3255    4.6972    1.8470 H   0  0  0  0  0  0  0  0  0  0  0  0
  1 19  1  0  0  0  0
  2  8  1  0  0  0  0
  3 30  1  0  0  0  0
  4  3  1  0  0  0  0
  5 16  1  0  0  0  0
  5 31  1  0  0  0  0
  6 21  1  0  0  0  0
  6  3  1  0  0  0  0
  7  6  1  0  0  0  0
  8  9  1  0  0  0  0
 10 23  1  0  0  0  0
 10 25  1  0  0  0  0
 11 10  1  0  0  0  0
 12  2  1  0  0  0  0
 12 13  1  0  0  0  0
 14  5  2  0  0  0  0
 15 12  1  0  0  0  0
 15 26  1  0  0  0  0
 16  1  1  0  0  0  0
 16 17  1  0  0  0  0
 18 37  1  0  0  0  0
 18 16  1  0  0  0  0
 19  8  2  0  0  0  0
 19 20  1  0  0  0  0
 21 22  1  0  0  0  0
 22 41  2  0  0  0  0
 22 12  1  0  0  0  0
 23 14  1  0  0  0  0
 24 23  1  0  0  0  0
 25 18  2  0  0  0  0
 26 27  1  0  0  0  0
 28 14  1  0  0  0  0
 28 47  2  0  0  0  0
 29 28  1  0  0  0  0
 30 15  2  0  0  0  0
 31 32  1  0  0  0  0
 33 43  1  0  0  0  0
 33 21  2  0  0  0  0
 34 33  1  0  0  0  0
 35 49  2  0  0  0  0
 35 25  1  0  0  0  0
 36 35  1  0  0  0  0
 37 38  1  0  0  0  0
 39 30  1  0  0  0  0
 39 53  2  0  0  0  0
 40 39  1  0  0  0  0
 41 42  1  0  0  0  0
 43 51  2  0  0  0  0
 44 43  1  0  0  0  0
 45 31  2  0  0  0  0
 45 46  1  0  0  0  0
 47 45  1  0  0  0  0
 48 47  1  0  0  0  0
 49 55  1  0  0  0  0
 50 49  1  0  0  0  0
 51 52  1  0  0  0  0
 51 41  1  0  0  0  0
 53 57  1  0  0  0  0
 54 53  1  0  0  0  0
 55 56  1  0  0  0  0
 55 37  2  0  0  0  0
 57 26  2  0  0  0  0
 57 58  1  0  0  0  0
M  END
