1,2,39
 OpenBabel05122313063D

 79 83  0  0  1  0  0  0  0  0999 V2000
   -1.7291   -1.7308    0.1502 N   0  0  0  0  0  2  0  0  0  0  0  0
    2.0316   -1.4127   -0.3595 N   0  0  0  0  0  2  0  0  0  0  0  0
   -3.5877   -0.4717    0.3619 N   0  0  0  0  0  0  0  0  0  0  0  0
    3.6164    0.1476   -0.7400 N   0  0  0  0  0  0  0  0  0  0  0  0
   -2.2266   -0.4654    0.1906 C   0  0  2  0  0  3  0  0  0  0  0  0
   -2.8163   -2.5930    0.2557 C   0  0  0  0  0  0  0  0  0  0  0  0
   -2.9150   -3.9973    0.2280 C   0  0  0  0  0  0  0  0  0  0  0  0
   -2.0018   -4.6002    0.1295 H   0  0  0  0  0  0  0  0  0  0  0  0
   -4.1893   -4.5633    0.3462 C   0  0  0  0  0  0  0  0  0  0  0  0
   -4.2895   -5.6588    0.3274 H   0  0  0  0  0  0  0  0  0  0  0  0
   -5.3519   -3.7686    0.4855 C   0  0  0  0  0  0  0  0  0  0  0  0
   -6.3348   -4.2552    0.5731 H   0  0  0  0  0  0  0  0  0  0  0  0
   -5.2757   -2.3699    0.5045 C   0  0  0  0  0  0  0  0  0  0  0  0
   -6.1788   -1.7494    0.5969 H   0  0  0  0  0  0  0  0  0  0  0  0
   -3.9978   -1.8029    0.3863 C   0  0  0  0  0  0  0  0  0  0  0  0
   -4.4782    0.6772    0.4172 C   0  0  0  0  0  0  0  0  0  0  0  0
   -3.9502    1.4947    0.9439 H   0  0  0  0  0  0  0  0  0  0  0  0
   -5.3376    0.3979    1.0613 H   0  0  0  0  0  0  0  0  0  0  0  0
   -4.9747    1.1186   -0.9655 C   0  0  0  0  0  0  0  0  0  0  0  0
   -5.4211    0.2351   -1.4682 H   0  0  0  0  0  0  0  0  0  0  0  0
   -4.0993    1.4181   -1.5825 H   0  0  0  0  0  0  0  0  0  0  0  0
   -5.9976    2.2592   -0.9115 C   0  0  0  0  0  0  0  0  0  0  0  0
   -6.4247    2.4004   -1.9279 H   0  0  0  0  0  0  0  0  0  0  0  0
   -6.8556    1.9566   -0.2684 H   0  0  0  0  0  0  0  0  0  0  0  0
   -5.4416    3.6012   -0.4202 C   0  0  0  0  0  0  0  0  0  0  0  0
   -4.5804    3.8895   -1.0624 H   0  0  0  0  0  0  0  0  0  0  0  0
   -5.0241    3.4905    0.6051 H   0  0  0  0  0  0  0  0  0  0  0  0
   -6.4809    4.7223   -0.4198 C   0  0  0  0  0  0  0  0  0  0  0  0
   -6.0486    5.6813   -0.0707 H   0  0  0  0  0  0  0  0  0  0  0  0
   -7.3365    4.4793    0.2442 H   0  0  0  0  0  0  0  0  0  0  0  0
   -6.8916    4.8902   -1.4373 H   0  0  0  0  0  0  0  0  0  0  0  0
   -1.2565    0.5984    0.0162 C   0  0  0  0  0  0  0  0  0  0  0  0
   -1.3774    2.0066   -0.0182 C   0  0  0  0  0  0  0  0  0  0  0  0
   -2.3603    2.4813    0.0886 H   0  0  0  0  0  0  0  0  0  0  0  0
   -0.2355    2.8202   -0.1877 C   0  0  0  0  0  0  0  0  0  0  0  0
    1.0293    2.2025   -0.3389 C   0  0  0  0  0  3  0  0  0  0  0  0
    1.9169    2.8396   -0.4539 H   0  0  0  0  0  0  0  0  0  0  0  0
    1.1516    0.7997   -0.3325 C   0  0  0  0  0  0  0  0  0  0  0  0
    0.0073   -0.0102   -0.1482 C   0  0  0  0  0  3  0  0  0  0  0  0
   -0.3111    4.3597   -0.1810 C   0  0  0  0  0  0  0  0  0  0  0  0
   -1.7598    4.8720   -0.1192 C   0  0  0  0  0  0  0  0  0  0  0  0
   -2.3531    4.5271   -0.9899 H   0  0  0  0  0  0  0  0  0  0  0  0
   -1.7680    5.9804   -0.1264 H   0  0  0  0  0  0  0  0  0  0  0  0
   -2.2793    4.5438    0.8036 H   0  0  0  0  0  0  0  0  0  0  0  0
    0.4479    4.8908    1.0570 C   0  0  0  0  0  0  0  0  0  0  0  0
   -0.0087    4.5111    1.9932 H   0  0  0  0  0  0  0  0  0  0  0  0
    0.4246    6.0002    1.0854 H   0  0  0  0  0  0  0  0  0  0  0  0
    1.5099    4.5746    1.0526 H   0  0  0  0  0  0  0  0  0  0  0  0
    0.3403    4.9224   -1.4647 C   0  0  0  0  0  0  0  0  0  0  0  0
   -0.1764    4.5449   -2.3701 H   0  0  0  0  0  0  0  0  0  0  0  0
    1.4095    4.6417   -1.5454 H   0  0  0  0  0  0  0  0  0  0  0  0
    0.2869    6.0307   -1.4725 H   0  0  0  0  0  0  0  0  0  0  0  0
    2.2915   -0.0836   -0.4722 C   0  0  0  0  0  0  0  0  0  0  0  0
    3.2396   -2.0733   -0.5658 C   0  0  0  0  0  0  0  0  0  0  0  0
    3.5735   -3.4408   -0.6014 C   0  0  0  0  0  0  0  0  0  0  0  0
    2.7897   -4.1912   -0.4280 H   0  0  0  0  0  0  0  0  0  0  0  0
    4.9095   -3.7794   -0.8428 C   0  0  0  0  0  0  0  0  0  0  0  0
    5.1932   -4.8421   -0.8712 H   0  0  0  0  0  0  0  0  0  0  0  0
    5.9056   -2.7957   -1.0500 C   0  0  0  0  0  0  0  0  0  0  0  0
    6.9454   -3.1061   -1.2318 H   0  0  0  0  0  0  0  0  0  0  0  0
    5.5918   -1.4308   -1.0310 C   0  0  0  0  0  0  0  0  0  0  0  0
    6.3635   -0.6647   -1.1941 H   0  0  0  0  0  0  0  0  0  0  0  0
    4.2513   -1.0911   -0.7934 C   0  0  0  0  0  0  0  0  0  0  0  0
    4.2554    1.4442   -0.9021 C   0  0  0  0  0  0  0  0  0  0  0  0
    3.5864    2.0864   -1.5109 H   0  0  0  0  0  0  0  0  0  0  0  0
    5.1701    1.2892   -1.5090 H   0  0  0  0  0  0  0  0  0  0  0  0
    4.5972    2.1251    0.4264 C   0  0  0  0  0  0  0  0  0  0  0  0
    5.2933    1.4739    0.9981 H   0  0  0  0  0  0  0  0  0  0  0  0
    3.6712    2.1966    1.0352 H   0  0  0  0  0  0  0  0  0  0  0  0
    5.2153    3.5116    0.2255 C   0  0  0  0  0  0  0  0  0  0  0  0
    6.1265    3.4135   -0.4049 H   0  0  0  0  0  0  0  0  0  0  0  0
    4.5108    4.1459   -0.3613 H   0  0  0  0  0  0  0  0  0  0  0  0
    5.5789    4.2365    1.5294 C   0  0  0  0  0  0  0  0  0  0  0  0
    6.2695    3.5940    2.1195 H   0  0  0  0  0  0  0  0  0  0  0  0
    6.1603    5.1488    1.2765 H   0  0  0  0  0  0  0  0  0  0  0  0
    4.3768    4.6296    2.3912 C   0  0  0  0  0  0  0  0  0  0  0  0
    4.6953    5.1667    3.3068 H   0  0  0  0  0  0  0  0  0  0  0  0
    3.7879    3.7483    2.7183 H   0  0  0  0  0  0  0  0  0  0  0  0
    3.6876    5.3001    1.8359 H   0  0  0  0  0  0  0  0  0  0  0  0
  1  5  1  0  0  0  0
  1  6  1  0  0  0  0
  3 15  1  0  0  0  0
  3 16  1  0  0  0  0
  4 53  1  0  0  0  0
  5 32  1  6  0  0  0
  5  3  1  0  0  0  0
  6 15  1  0  0  0  0
  7  6  2  0  0  0  0
  7  9  1  0  0  0  0
  8  7  1  0  0  0  0
  9 11  2  0  0  0  0
 10  9  1  0  0  0  0
 11 13  1  0  0  0  0
 11 12  1  0  0  0  0
 13 14  1  0  0  0  0
 15 13  2  0  0  0  0
 16 17  1  0  0  0  0
 16 18  1  0  0  0  0
 19 22  1  0  0  0  0
 19 16  1  0  0  0  0
 20 19  1  0  0  0  0
 21 19  1  0  0  0  0
 22 25  1  0  0  0  0
 22 24  1  0  0  0  0
 23 22  1  0  0  0  0
 25 28  1  0  0  0  0
 25 27  1  0  0  0  0
 26 25  1  0  0  0  0
 28 29  1  0  0  0  0
 28 30  1  0  0  0  0
 31 28  1  0  0  0  0
 33 32  1  0  0  0  0
 33 34  1  0  0  0  0
 35 40  1  0  0  0  0
 35 33  2  0  0  0  0
 36 38  1  0  0  0  0
 36 35  1  0  0  0  0
 37 36  1  0  0  0  0
 38 39  1  0  0  0  0
 39 32  2  0  0  0  0
 40 41  1  0  0  0  0
 40 45  1  0  0  0  0
 41 44  1  0  0  0  0
 42 41  1  0  0  0  0
 43 41  1  0  0  0  0
 45 47  1  0  0  0  0
 45 46  1  0  0  0  0
 48 45  1  0  0  0  0
 49 40  1  0  0  0  0
 50 49  1  0  0  0  0
 51 49  1  0  0  0  0
 52 49  1  0  0  0  0
 53  2  1  0  0  0  0
 53 38  2  0  0  0  0
 54  2  1  0  0  0  0
 55 54  1  0  0  0  0
 55 56  1  0  0  0  0
 57 55  2  0  0  0  0
 58 57  1  0  0  0  0
 59 61  2  0  0  0  0
 59 57  1  0  0  0  0
 60 59  1  0  0  0  0
 61 63  1  0  0  0  0
 62 61  1  0  0  0  0
 63  4  1  0  0  0  0
 63 54  2  0  0  0  0
 64  4  1  0  0  0  0
 64 67  1  0  0  0  0
 65 64  1  0  0  0  0
 66 64  1  0  0  0  0
 67 68  1  0  0  0  0
 67 69  1  0  0  0  0
 70 67  1  0  0  0  0
 70 73  1  0  0  0  0
 71 70  1  0  0  0  0
 72 70  1  0  0  0  0
 73 74  1  0  0  0  0
 73 76  1  0  0  0  0
 75 73  1  0  0  0  0
 76 78  1  0  0  0  0
 76 77  1  0  0  0  0
 79 76  1  0  0  0  0
M  END
