1,2,20
 OpenBabel05122313063D

 42 45  0  0  1  0  0  0  0  0999 V2000
    0.0345   -1.8642   -0.0805 N   0  0  0  0  0  2  0  0  0  0  0  0
   -0.3325    0.7228   -0.1116 N   0  0  0  0  0  2  0  0  0  0  0  0
    0.0699   -3.2077   -0.1591 C   0  0  0  0  0  0  0  0  0  0  0  0
   -0.9060   -3.7016   -0.0111 H   0  0  0  0  0  0  0  0  0  0  0  0
    1.2533   -3.9025   -0.4272 C   0  0  0  0  0  0  0  0  0  0  0  0
    1.2454   -5.0004   -0.4812 H   0  0  0  0  0  0  0  0  0  0  0  0
    2.4257   -3.1633   -0.6455 C   0  0  0  0  0  0  0  0  0  0  0  0
    3.3713   -3.6694   -0.8903 H   0  0  0  0  0  0  0  0  0  0  0  0
    2.3889   -1.7664   -0.5579 C   0  0  0  0  0  0  0  0  0  0  0  0
    3.2944   -1.1779   -0.7411 H   0  0  0  0  0  0  0  0  0  0  0  0
    1.1764   -1.1189   -0.2469 C   0  0  0  0  0  0  0  0  0  0  0  0
    0.9856    0.3529   -0.1554 C   0  0  0  0  0  0  0  0  0  0  0  0
    1.9868    1.3592   -0.1541 C   0  0  0  0  0  0  0  0  0  0  0  0
    1.5559    2.7039   -0.2271 C   0  0  0  0  0  0  0  0  0  0  0  0
    2.3201    3.4951   -0.2396 H   0  0  0  0  0  0  0  0  0  0  0  0
    0.2003    3.0416   -0.2337 C   0  0  0  0  0  0  0  0  0  0  0  0
   -0.1148    4.0929   -0.2769 H   0  0  0  0  0  0  0  0  0  0  0  0
   -0.7658    2.0254   -0.1390 C   0  0  0  0  0  0  0  0  0  0  0  0
   -2.2214    2.1499   -0.0542 C   0  0  1  0  0  3  0  0  0  0  0  0
   -2.9445    0.9094    0.0555 C   0  0  0  0  0  2  0  0  0  0  0  0
   -4.3483    0.9649    0.1424 C   0  0  0  0  0  0  0  0  0  0  0  0
   -4.9110    0.0232    0.2265 H   0  0  0  0  0  0  0  0  0  0  0  0
   -5.0172    2.1995    0.1234 C   0  0  0  0  0  0  0  0  0  0  0  0
   -6.1165    2.2232    0.1927 H   0  0  0  0  0  0  0  0  0  0  0  0
   -4.3022    3.4083    0.0171 C   0  0  0  0  0  0  0  0  0  0  0  0
   -4.8378    4.3694    0.0030 H   0  0  0  0  0  0  0  0  0  0  0  0
   -2.9060    3.3838   -0.0706 C   0  0  0  0  0  0  0  0  0  0  0  0
   -2.3477    4.3298   -0.1529 H   0  0  0  0  0  0  0  0  0  0  0  0
    3.4417    1.0897   -0.0073 C   0  0  0  0  0  0  0  0  0  0  0  0
    4.3600    1.4992   -0.9947 C   0  0  0  0  0  0  0  0  0  0  0  0
    3.9876    1.9838   -1.9103 H   0  0  0  0  0  0  0  0  0  0  0  0
    5.7347    1.2711   -0.8319 C   0  0  0  0  0  0  0  0  0  0  0  0
    6.4327    1.5880   -1.6229 H   0  0  0  0  0  0  0  0  0  0  0  0
    6.2398    0.6412    0.3221 C   0  0  0  0  0  0  0  0  0  0  0  0
    5.3153    0.2466    1.3145 C   0  0  0  0  0  0  0  0  0  0  0  0
    5.6826   -0.2395    2.2324 H   0  0  0  0  0  0  0  0  0  0  0  0
    3.9434    0.4665    1.1577 C   0  0  0  0  0  0  0  0  0  0  0  0
    3.2411    0.1514    1.9446 H   0  0  0  0  0  0  0  0  0  0  0  0
    7.7177    0.4137    0.5115 C   0  0  0  0  0  0  0  0  0  0  0  0
    8.2823    0.5857   -0.4249 H   0  0  0  0  0  0  0  0  0  0  0  0
    7.9290   -0.6184    0.8578 H   0  0  0  0  0  0  0  0  0  0  0  0
    8.1302    1.1001    1.2815 H   0  0  0  0  0  0  0  0  0  0  0  0
  3  1  1  0  0  0  0
  3  4  1  0  0  0  0
  5  3  2  0  0  0  0
  6  5  1  0  0  0  0
  7  9  2  0  0  0  0
  7  5  1  0  0  0  0
  8  7  1  0  0  0  0
  9 11  1  0  0  0  0
 10  9  1  0  0  0  0
 11 12  2  0  0  0  0
 11  1  1  0  0  0  0
 12 13  1  0  0  0  0
 12  2  1  0  0  0  0
 13 29  1  0  0  0  0
 14 13  2  0  0  0  0
 15 14  1  0  0  0  0
 16 14  1  0  0  0  0
 16 18  2  0  0  0  0
 17 16  1  0  0  0  0
 18  2  1  0  0  0  0
 19 18  1  1  0  0  0
 19 20  1  0  0  0  0
 20 21  1  0  0  0  0
 21 22  1  0  0  0  0
 23 21  2  0  0  0  0
 23 24  1  0  0  0  0
 25 23  1  0  0  0  0
 26 25  1  0  0  0  0
 27 19  1  0  0  0  0
 27 25  2  0  0  0  0
 28 27  1  0  0  0  0
 29 37  1  0  0  0  0
 30 32  1  0  0  0  0
 30 29  2  0  0  0  0
 31 30  1  0  0  0  0
 32 34  2  0  0  0  0
 33 32  1  0  0  0  0
 34 39  1  0  0  0  0
 34 35  1  0  0  0  0
 35 36  1  0  0  0  0
 37 35  2  0  0  0  0
 37 38  1  0  0  0  0
 39 41  1  0  0  0  0
 39 42  1  0  0  0  0
 40 39  1  0  0  0  0
M  END
