4,5,6
 OpenBabel05122313063D

 57 61  0  0  0  0  0  0  0  0999 V2000
    1.1769   -0.6031    0.5923 P   0  0  0  0  0  4  0  0  0  0  0  0
   -1.4699    2.7943   -0.2062 N   0  0  0  0  0  0  0  0  0  0  0  0
   -3.3309    2.1101    0.6475 N   0  0  0  0  0  0  0  0  0  0  0  0
    0.2774    0.6077   -0.0751 N   0  0  0  0  0  2  0  0  0  0  0  0
   -1.9594   -1.5200    0.7061 N   0  0  0  0  0  2  0  0  0  0  0  0
   -2.2787    1.6919   -0.1079 C   0  0  0  0  0  2  0  0  0  0  0  0
   -3.1916    3.4403    1.0281 C   0  0  0  0  0  0  0  0  0  0  0  0
   -3.9280    3.9581    1.6501 H   0  0  0  0  0  0  0  0  0  0  0  0
   -2.0111    3.8762    0.4865 C   0  0  0  0  0  0  0  0  0  0  0  0
   -1.5056    4.8432    0.5507 H   0  0  0  0  0  0  0  0  0  0  0  0
   -0.2139    2.8299   -0.8933 C   0  0  0  0  0  0  0  0  0  0  0  0
    0.6922    1.7208   -0.7721 C   0  0  0  0  0  0  0  0  0  0  0  0
    1.9663    1.8916   -1.3808 C   0  0  0  0  0  0  0  0  0  0  0  0
    2.6892    1.0688   -1.3121 H   0  0  0  0  0  0  0  0  0  0  0  0
    2.3101    3.0553   -2.0753 C   0  0  0  0  0  0  0  0  0  0  0  0
    3.3068    3.1302   -2.5369 H   0  0  0  0  0  0  0  0  0  0  0  0
    1.3934    4.1113   -2.2049 C   0  0  0  0  0  0  0  0  0  0  0  0
    1.6510    5.0184   -2.7700 H   0  0  0  0  0  0  0  0  0  0  0  0
    0.1310    3.9852   -1.6099 C   0  0  0  0  0  0  0  0  0  0  0  0
   -0.6102    4.7931   -1.7057 H   0  0  0  0  0  0  0  0  0  0  0  0
   -4.4157    1.2356    1.0667 C   0  0  0  0  0  0  0  0  0  0  0  0
   -4.6719    0.5490    0.2403 H   0  0  0  0  0  0  0  0  0  0  0  0
   -5.3037    1.8433    1.3213 H   0  0  0  0  0  0  0  0  0  0  0  0
   -4.1184    0.6274    1.9441 H   0  0  0  0  0  0  0  0  0  0  0  0
    0.2404   -1.4444    1.7906 C   0  0  0  0  0  0  0  0  0  0  0  0
    0.8359   -1.7474    2.6632 H   0  0  0  0  0  0  0  0  0  0  0  0
   -1.1189   -1.8266    1.7637 C   0  0  0  0  0  0  0  0  0  0  0  0
   -1.6743   -2.5748    2.8659 C   0  0  0  0  0  0  0  0  0  0  0  0
   -1.0257   -2.7857    3.7288 H   0  0  0  0  0  0  0  0  0  0  0  0
   -2.9784   -3.0321    2.8336 C   0  0  0  0  0  0  0  0  0  0  0  0
   -3.3782   -3.6118    3.6807 H   0  0  0  0  0  0  0  0  0  0  0  0
   -3.7906   -2.7638    1.7011 C   0  0  0  0  0  0  0  0  0  0  0  0
   -4.8206   -3.1356    1.6174 H   0  0  0  0  0  0  0  0  0  0  0  0
   -3.2220   -2.0046    0.6848 C   0  0  0  0  0  0  0  0  0  0  0  0
   -3.8018   -1.7587   -0.2225 H   0  0  0  0  0  0  0  0  0  0  0  0
    2.6575    0.0112    1.4743 C   0  0  0  0  0  0  0  0  0  0  0  0
    2.6739    1.3450    1.9281 C   0  0  0  0  0  0  0  0  0  0  0  0
    1.8273    2.0072    1.6945 H   0  0  0  0  0  0  0  0  0  0  0  0
    3.7628    1.8165    2.6750 C   0  0  0  0  0  0  0  0  0  0  0  0
    3.7766    2.8613    3.0206 H   0  0  0  0  0  0  0  0  0  0  0  0
    4.8310    0.9581    2.9840 C   0  0  0  0  0  0  0  0  0  0  0  0
    5.6839    1.3305    3.5717 H   0  0  0  0  0  0  0  0  0  0  0  0
    4.8103   -0.3755    2.5455 C   0  0  0  0  0  0  0  0  0  0  0  0
    5.6432   -1.0514    2.7925 H   0  0  0  0  0  0  0  0  0  0  0  0
    3.7281   -0.8502    1.7882 C   0  0  0  0  0  0  0  0  0  0  0  0
    3.7152   -1.8937    1.4382 H   0  0  0  0  0  0  0  0  0  0  0  0
    1.7919   -1.7215   -0.7335 C   0  0  0  0  0  0  0  0  0  0  0  0
    3.0457   -1.5739   -1.3627 C   0  0  0  0  0  0  0  0  0  0  0  0
    3.7563   -0.8096   -1.0116 H   0  0  0  0  0  0  0  0  0  0  0  0
    3.4028   -2.4109   -2.4314 C   0  0  0  0  0  0  0  0  0  0  0  0
    4.3867   -2.2937   -2.9111 H   0  0  0  0  0  0  0  0  0  0  0  0
    2.5075   -3.3900   -2.8898 C   0  0  0  0  0  0  0  0  0  0  0  0
    2.7857   -4.0389   -3.7342 H   0  0  0  0  0  0  0  0  0  0  0  0
    1.2574   -3.5414   -2.2666 C   0  0  0  0  0  0  0  0  0  0  0  0
    0.5479   -4.3033   -2.6232 H   0  0  0  0  0  0  0  0  0  0  0  0
    0.9050   -2.7209   -1.1875 C   0  0  0  0  0  0  0  0  0  0  0  0
   -0.0710   -2.8464   -0.6947 H   0  0  0  0  0  0  0  0  0  0  0  0
  1 36  1  0  0  0  0
  1 25  1  0  0  0  0
  2  6  1  0  0  0  0
  2  9  1  0  0  0  0
  3  7  1  0  0  0  0
  3 21  1  0  0  0  0
  4  1  1  0  0  0  0
  5 27  1  0  0  0  0
  6  3  1  0  0  0  0
  7  8  1  0  0  0  0
  9 10  1  0  0  0  0
  9  7  2  0  0  0  0
 11 12  1  0  0  0  0
 11  2  1  0  0  0  0
 12  4  1  0  0  0  0
 13 14  1  0  0  0  0
 13 12  2  0  0  0  0
 15 13  1  0  0  0  0
 16 15  1  0  0  0  0
 17 15  2  0  0  0  0
 17 19  1  0  0  0  0
 18 17  1  0  0  0  0
 19 11  2  0  0  0  0
 20 19  1  0  0  0  0
 21 23  1  0  0  0  0
 21 24  1  0  0  0  0
 22 21  1  0  0  0  0
 25 26  1  0  0  0  0
 27 25  2  0  0  0  0
 27 28  1  0  0  0  0
 28 29  1  0  0  0  0
 30 28  2  0  0  0  0
 30 31  1  0  0  0  0
 32 30  1  0  0  0  0
 33 32  1  0  0  0  0
 34  5  1  0  0  0  0
 34 32  2  0  0  0  0
 35 34  1  0  0  0  0
 36 45  2  0  0  0  0
 36 37  1  0  0  0  0
 37 39  2  0  0  0  0
 38 37  1  0  0  0  0
 39 41  1  0  0  0  0
 39 40  1  0  0  0  0
 41 42  1  0  0  0  0
 43 44  1  0  0  0  0
 43 41  2  0  0  0  0
 45 43  1  0  0  0  0
 46 45  1  0  0  0  0
 47  1  1  0  0  0  0
 48 49  1  0  0  0  0
 48 47  2  0  0  0  0
 50 48  1  0  0  0  0
 51 50  1  0  0  0  0
 52 50  2  0  0  0  0
 52 54  1  0  0  0  0
 53 52  1  0  0  0  0
 54 56  2  0  0  0  0
 55 54  1  0  0  0  0
 56 47  1  0  0  0  0
 56 57  1  0  0  0  0
M  END
