1,2,29
 OpenBabel05122313063D

 48 51  0  0  1  0  0  0  0  0999 V2000
    0.7330   -0.8404   -0.2684 N   0  0  0  0  0  2  0  0  0  0  0  0
    3.3517   -1.2329    0.0039 N   0  0  0  0  0  2  0  0  0  0  0  0
   -1.0907    0.6754   -0.0162 N   0  0  0  0  0  0  0  0  0  0  0  0
   -3.5174    0.7695    0.1187 N   0  0  0  0  0  0  0  0  0  0  0  0
   -0.5230   -0.5720   -0.1562 C   0  0  1  0  0  3  0  0  0  0  0  0
   -1.8794   -1.2963   -0.1206 C   0  0  0  0  0  0  0  0  0  0  0  0
   -2.4055    0.1605    0.0251 C   0  0  0  0  0  0  0  0  0  0  0  0
   -2.1125   -2.1839    1.1068 C   0  0  0  0  0  0  0  0  0  0  0  0
   -1.5493   -3.1358    1.0186 H   0  0  0  0  0  0  0  0  0  0  0  0
   -3.1886   -2.4335    1.1902 H   0  0  0  0  0  0  0  0  0  0  0  0
   -1.7988   -1.6774    2.0405 H   0  0  0  0  0  0  0  0  0  0  0  0
   -2.2849   -1.9790   -1.4314 C   0  0  0  0  0  0  0  0  0  0  0  0
   -1.7195   -2.9229   -1.5726 H   0  0  0  0  0  0  0  0  0  0  0  0
   -2.0984   -1.3248   -2.3058 H   0  0  0  0  0  0  0  0  0  0  0  0
   -3.3646   -2.2266   -1.4086 H   0  0  0  0  0  0  0  0  0  0  0  0
    1.1770   -2.2106   -0.5020 C   0  0  0  0  0  0  0  0  0  0  0  0
    1.0163   -2.4745   -1.5732 H   0  0  0  0  0  0  0  0  0  0  0  0
    0.5866   -2.9395    0.0951 H   0  0  0  0  0  0  0  0  0  0  0  0
    2.6472   -2.3715   -0.1949 C   0  0  1  0  0  3  0  0  0  0  0  0
    3.2628   -3.6318   -0.1512 C   0  0  0  0  0  0  0  0  0  0  0  0
    2.6641   -4.5408   -0.3120 H   0  0  0  0  0  0  0  0  0  0  0  0
    4.6390   -3.7082    0.0988 C   0  0  0  0  0  0  0  0  0  0  0  0
    5.1430   -4.6855    0.1396 H   0  0  0  0  0  0  0  0  0  0  0  0
    5.3585   -2.5204    0.2992 C   0  0  0  0  0  0  0  0  0  0  0  0
    6.4395   -2.5329    0.4989 H   0  0  0  0  0  0  0  0  0  0  0  0
    4.6784   -1.2999    0.2467 C   0  0  0  0  0  0  0  0  0  0  0  0
    5.1608   -0.3179    0.3980 H   0  0  0  0  0  0  0  0  0  0  0  0
   -0.5091    1.9647   -0.0305 C   0  0  0  0  0  0  0  0  0  0  0  0
    0.9068    2.1196   -0.0798 C   0  0  0  0  0  2  0  0  0  0  0  0
    1.3693    3.4550   -0.1557 C   0  0  0  0  0  3  0  0  0  0  0  0
    2.4531    3.6269   -0.1972 H   0  0  0  0  0  0  0  0  0  0  0  0
    0.4974    4.5536   -0.1597 C   0  0  0  0  0  0  0  0  0  0  0  0
    0.9136    5.5715   -0.2186 H   0  0  0  0  0  0  0  0  0  0  0  0
   -0.8908    4.3617   -0.0819 C   0  0  0  0  0  0  0  0  0  0  0  0
   -1.5799    5.2197   -0.0748 H   0  0  0  0  0  0  0  0  0  0  0  0
   -1.3998    3.0632   -0.0193 C   0  0  0  0  0  0  0  0  0  0  0  0
   -2.4804    2.8702    0.0323 H   0  0  0  0  0  0  0  0  0  0  0  0
   -4.7297    0.0550    0.1408 C   0  0  0  0  0  0  0  0  0  0  0  0
   -5.4655   -0.1373   -1.0501 C   0  0  0  0  0  0  0  0  0  0  0  0
   -5.0586    0.2542   -1.9942 H   0  0  0  0  0  0  0  0  0  0  0  0
   -6.6928   -0.8139   -1.0199 C   0  0  0  0  0  0  0  0  0  0  0  0
   -7.2513   -0.9612   -1.9571 H   0  0  0  0  0  0  0  0  0  0  0  0
   -7.2128   -1.2972    0.1920 C   0  0  0  0  0  0  0  0  0  0  0  0
   -8.1784   -1.8238    0.2116 H   0  0  0  0  0  0  0  0  0  0  0  0
   -6.4932   -1.0908    1.3800 C   0  0  0  0  0  0  0  0  0  0  0  0
   -6.8942   -1.4556    2.3382 H   0  0  0  0  0  0  0  0  0  0  0  0
   -5.2636   -0.4175    1.3610 C   0  0  0  0  0  0  0  0  0  0  0  0
   -4.7019   -0.2412    2.2903 H   0  0  0  0  0  0  0  0  0  0  0  0
  2 26  1  0  0  0  0
  3  7  1  0  0  0  0
  4 38  1  0  0  0  0
  5  1  1  6  0  0  0
  5  6  1  0  0  0  0
  5  3  1  0  0  0  0
  6  7  1  0  0  0  0
  6  8  1  0  0  0  0
  7  4  2  0  0  0  0
  8 10  1  0  0  0  0
  8 11  1  0  0  0  0
  9  8  1  0  0  0  0
 12 15  1  0  0  0  0
 12  6  1  0  0  0  0
 13 12  1  0  0  0  0
 14 12  1  0  0  0  0
 16  1  1  0  0  0  0
 16 18  1  0  0  0  0
 17 16  1  0  0  0  0
 19 16  1  6  0  0  0
 19 20  1  0  0  0  0
 19  2  1  0  0  0  0
 20 22  2  0  0  0  0
 21 20  1  0  0  0  0
 22 23  1  0  0  0  0
 22 24  1  0  0  0  0
 24 25  1  0  0  0  0
 26 24  2  0  0  0  0
 26 27  1  0  0  0  0
 28 36  2  0  0  0  0
 28  3  1  0  0  0  0
 29 28  1  0  0  0  0
 30 29  1  0  0  0  0
 31 30  1  0  0  0  0
 32 30  1  0  0  0  0
 32 34  2  0  0  0  0
 33 32  1  0  0  0  0
 34 35  1  0  0  0  0
 34 36  1  0  0  0  0
 36 37  1  0  0  0  0
 38 47  1  0  0  0  0
 39 41  1  0  0  0  0
 39 38  2  0  0  0  0
 40 39  1  0  0  0  0
 41 43  2  0  0  0  0
 42 41  1  0  0  0  0
 43 44  1  0  0  0  0
 43 45  1  0  0  0  0
 45 46  1  0  0  0  0
 47 45  2  0  0  0  0
 47 48  1  0  0  0  0
M  END
