1,4,17
 OpenBabel05122313063D

 33 35  0  0  1  0  0  0  0  0999 V2000
   -1.3734    1.5647   -0.4480 N   0  0  0  0  0  2  0  0  0  0  0  0
   -0.7809    1.0777    2.3915 N   0  0  0  0  0  0  0  0  0  0  0  0
   -0.7837   -1.0774    2.3909 N   0  0  0  0  0  0  0  0  0  0  0  0
   -1.3761   -1.5622   -0.4491 N   0  0  0  0  0  2  0  0  0  0  0  0
   -2.0717    1.7032   -1.6069 C   0  0  0  0  0  3  0  0  0  0  0  0
   -1.7770    1.0105   -2.4093 H   0  0  0  0  0  0  0  0  0  0  0  0
   -3.0243    2.7041   -1.8135 C   0  0  0  0  0  0  0  0  0  0  0  0
   -3.5454    2.7551   -2.7800 H   0  0  0  0  0  0  0  0  0  0  0  0
   -3.2830    3.6232   -0.7903 C   0  0  0  0  0  0  0  0  0  0  0  0
   -4.0296    4.4212   -0.9133 H   0  0  0  0  0  0  0  0  0  0  0  0
   -2.5512    3.5033    0.3983 C   0  0  0  0  0  0  0  0  0  0  0  0
   -2.7069    4.2104    1.2262 H   0  0  0  0  0  0  0  0  0  0  0  0
   -1.6033    2.4802    0.5450 C   0  0  0  0  0  0  0  0  0  0  0  0
   -0.7764    2.4107    1.8146 C   0  0  0  0  0  0  0  0  0  0  0  0
    0.2720    2.7041    1.6037 H   0  0  0  0  0  0  0  0  0  0  0  0
   -1.1760    3.1219    2.5591 H   0  0  0  0  0  0  0  0  0  0  0  0
   -0.4171   -0.0002    1.6272 C   0  0  0  0  0  2  0  0  0  0  0  0
   -1.3762    0.6856    3.5864 C   0  0  0  0  0  0  0  0  0  0  0  0
   -1.7183    1.4012    4.3403 H   0  0  0  0  0  0  0  0  0  0  0  0
   -1.3779   -0.6845    3.5861 C   0  0  0  0  0  0  0  0  0  0  0  0
   -1.7218   -1.3996    4.3396 H   0  0  0  0  0  0  0  0  0  0  0  0
   -0.7821   -2.4103    1.8136 C   0  0  0  0  0  0  0  0  0  0  0  0
   -1.1841   -3.1207    2.5577 H   0  0  0  0  0  0  0  0  0  0  0  0
    0.2656   -2.7064    1.6034 H   0  0  0  0  0  0  0  0  0  0  0  0
   -1.6083   -2.4775    0.5435 C   0  0  2  0  0  3  0  0  0  0  0  0
   -2.5581   -3.4988    0.3958 C   0  0  0  0  0  0  0  0  0  0  0  0
   -2.7158   -4.2058    1.2234 H   0  0  0  0  0  0  0  0  0  0  0  0
   -3.2891   -3.6172   -0.7933 C   0  0  0  0  0  0  0  0  0  0  0  0
   -4.0372   -4.4138   -0.9171 H   0  0  0  0  0  0  0  0  0  0  0  0
   -3.0279   -2.6985   -1.8162 C   0  0  0  0  0  0  0  0  0  0  0  0
   -3.5482   -2.7483   -2.7832 H   0  0  0  0  0  0  0  0  0  0  0  0
   -2.0736   -1.6993   -1.6087 C   0  0  0  0  0  0  0  0  0  0  0  0
   -1.7768   -1.0071   -2.4107 H   0  0  0  0  0  0  0  0  0  0  0  0
  1 13  1  0  0  0  0
  2 18  1  0  0  0  0
  3 20  1  0  0  0  0
  4 25  1  0  0  0  0
  5  1  1  0  0  0  0
  6  5  1  0  0  0  0
  7  5  1  0  0  0  0
  7  9  2  0  0  0  0
  8  7  1  0  0  0  0
  9 11  1  0  0  0  0
 10  9  1  0  0  0  0
 11 13  2  0  0  0  0
 11 12  1  0  0  0  0
 13 14  1  0  0  0  0
 14  2  1  0  0  0  0
 14 16  1  0  0  0  0
 15 14  1  0  0  0  0
 17  3  1  0  0  0  0
 17  2  1  0  0  0  0
 18 19  1  0  0  0  0
 20 18  2  0  0  0  0
 20 21  1  0  0  0  0
 22  3  1  0  0  0  0
 22 23  1  0  0  0  0
 24 22  1  0  0  0  0
 25 22  1  6  0  0  0
 26 25  1  0  0  0  0
 26 27  1  0  0  0  0
 28 26  2  0  0  0  0
 29 28  1  0  0  0  0
 30 32  2  0  0  0  0
 30 28  1  0  0  0  0
 31 30  1  0  0  0  0
 32  4  1  0  0  0  0
 33 32  1  0  0  0  0
M  END
