3,4,5
 OpenBabel05122313063D

 37 37  0  0  0  0  0  0  0  0999 V2000
   -5.6952    0.5526    0.5237 O   0  0  0  0  0  0  0  0  0  0  0  0
   -5.3552    0.4731    1.4352 H   0  0  0  0  0  0  0  0  0  0  0  0
    1.0531   -2.0789    0.0524 N   0  0  0  0  0  0  0  0  0  0  0  0
    0.7307    2.1250   -0.0647 N   0  0  0  0  0  0  0  0  0  0  0  0
   -0.7140   -0.1007   -0.0731 C   0  0  0  0  0  3  0  0  0  0  0  0
   -1.2950   -1.3654   -0.2796 C   0  0  0  0  0  0  0  0  0  0  0  0
   -2.6951   -1.4722   -0.3058 C   0  0  0  0  0  0  0  0  0  0  0  0
   -3.1824   -2.4523   -0.4477 H   0  0  0  0  0  0  0  0  0  0  0  0
   -3.4982   -0.3185   -0.1617 C   0  0  0  0  0  0  0  0  0  0  0  0
   -2.8952    0.9450    0.0356 C   0  0  0  0  0  0  0  0  0  0  0  0
   -3.5510    1.8220    0.1588 H   0  0  0  0  0  0  0  0  0  0  0  0
   -1.4972    1.0559    0.0955 C   0  0  0  0  0  0  0  0  0  0  0  0
   -0.2882   -2.4592   -0.5294 C   0  0  0  0  0  0  0  0  0  0  0  0
   -0.1342   -2.5709   -1.6234 H   0  0  0  0  0  0  0  0  0  0  0  0
   -0.5961   -3.4574   -0.1412 H   0  0  0  0  0  0  0  0  0  0  0  0
    1.1086   -2.4359    1.4896 C   0  0  0  0  0  0  0  0  0  0  0  0
    1.0515   -3.5425    1.6150 H   0  0  0  0  0  0  0  0  0  0  0  0
    0.2626   -1.9604    2.0187 H   0  0  0  0  0  0  0  0  0  0  0  0
    2.0576   -2.0617    1.9159 H   0  0  0  0  0  0  0  0  0  0  0  0
    2.1524   -2.7472   -0.6748 C   0  0  0  0  0  0  0  0  0  0  0  0
    3.1153   -2.3754   -0.2774 H   0  0  0  0  0  0  0  0  0  0  0  0
    2.0981   -2.4763   -1.7452 H   0  0  0  0  0  0  0  0  0  0  0  0
    2.0772   -3.8536   -0.5653 H   0  0  0  0  0  0  0  0  0  0  0  0
   -0.6914    2.2885    0.4186 C   0  0  0  0  0  0  0  0  0  0  0  0
   -0.6349    2.4103    1.5209 H   0  0  0  0  0  0  0  0  0  0  0  0
   -1.1210    3.2314    0.0088 H   0  0  0  0  0  0  0  0  0  0  0  0
    0.8313    2.4981   -1.4955 C   0  0  0  0  0  0  0  0  0  0  0  0
    0.6121    3.5835   -1.6274 H   0  0  0  0  0  0  0  0  0  0  0  0
    0.1084    1.9023   -2.0820 H   0  0  0  0  0  0  0  0  0  0  0  0
    1.8543    2.2793   -1.8527 H   0  0  0  0  0  0  0  0  0  0  0  0
    1.6580    2.9503    0.7370 C   0  0  0  0  0  0  0  0  0  0  0  0
    2.6930    2.7370    0.4106 H   0  0  0  0  0  0  0  0  0  0  0  0
    1.5712    2.6653    1.8015 H   0  0  0  0  0  0  0  0  0  0  0  0
    1.4188    4.0322    0.6193 H   0  0  0  0  0  0  0  0  0  0  0  0
   -5.0103   -0.4181   -0.2477 C   0  0  0  0  0  0  0  0  0  0  0  0
   -5.3405   -0.2461   -1.2966 H   0  0  0  0  0  0  0  0  0  0  0  0
   -5.3237   -1.4617    0.0061 H   0  0  0  0  0  0  0  0  0  0  0  0
  1  2  1  0  0  0  0
  3 16  1  0  0  0  0
  4 24  1  0  0  0  0
  4 31  1  0  0  0  0
  5 12  1  0  0  0  0
  6  5  2  0  0  0  0
  7  6  1  0  0  0  0
  7  9  2  0  0  0  0
  8  7  1  0  0  0  0
  9 10  1  0  0  0  0
 10 12  2  0  0  0  0
 10 11  1  0  0  0  0
 12 24  1  0  0  0  0
 13  6  1  0  0  0  0
 13 15  1  0  0  0  0
 13  3  1  0  0  0  0
 14 13  1  0  0  0  0
 16 17  1  0  0  0  0
 16 19  1  0  0  0  0
 16 18  1  0  0  0  0
 20 23  1  0  0  0  0
 20 21  1  0  0  0  0
 20  3  1  0  0  0  0
 22 20  1  0  0  0  0
 24 25  1  0  0  0  0
 26 24  1  0  0  0  0
 27  4  1  0  0  0  0
 28 27  1  0  0  0  0
 29 27  1  0  0  0  0
 30 27  1  0  0  0  0
 31 33  1  0  0  0  0
 32 31  1  0  0  0  0
 34 31  1  0  0  0  0
 35  9  1  0  0  0  0
 35 37  1  0  0  0  0
 35  1  1  0  0  0  0
 36 35  1  0  0  0  0
M  END
