6,7,8
 OpenBabel05122313063D

 36 38  0  0  1  0  0  0  0  0999 V2000
   -3.6131    2.3939   -0.1421 O   0  0  0  0  0  0  0  0  0  0  0  0
   -5.2488   -1.5292   -0.3577 O   0  0  0  0  0  0  0  0  0  0  0  0
   -3.2374   -2.0374    0.5888 O   0  0  0  0  0  0  0  0  0  0  0  0
    3.5745    1.3273    0.0879 O   0  0  0  0  0  0  0  0  0  0  0  0
    5.2677   -0.1852    0.0468 O   0  0  0  0  0  0  0  0  0  0  0  0
   -2.2868    0.6008    0.0088 N   0  0  0  0  0  2  0  0  0  0  0  0
    1.7511    0.0621    0.0368 N   0  0  0  0  0  2  0  0  0  0  0  0
   -0.0310    1.8797    0.0666 C   0  0  0  0  0  3  0  0  0  0  0  0
   -1.1454    2.7388    0.0107 C   0  0  0  0  0  0  0  0  0  0  0  0
   -0.9645    4.1395    0.0005 C   0  0  0  0  0  0  0  0  0  0  0  0
    0.3441    4.6520    0.0456 C   0  0  0  0  0  0  0  0  0  0  0  0
    1.4723    3.8064    0.0860 C   0  0  0  0  0  0  0  0  0  0  0  0
    1.2833    2.4105    0.0886 C   0  0  0  0  0  0  0  0  0  0  0  0
   -2.3465    1.9396   -0.0386 C   0  0  1  0  0  3  0  0  0  0  0  0
   -4.4092    1.2810   -0.1641 C   0  0  0  0  0  0  0  0  0  0  0  0
   -3.6098    0.1678   -0.0595 C   0  0  0  0  0  0  0  0  0  0  0  0
   -4.1299   -1.2240    0.0214 C   0  0  0  0  0  0  0  0  0  0  0  0
   -3.5741   -3.4285    0.6679 C   0  0  0  0  0  0  0  0  0  0  0  0
    2.2193    1.3102    0.0805 C   0  0  2  0  0  3  0  0  0  0  0  0
    3.9579    0.0077    0.0458 C   0  0  0  0  0  0  0  0  0  0  0  0
    2.8365   -0.7964    0.0132 C   0  0  0  0  0  0  0  0  0  0  0  0
    5.6803   -1.5682    0.0003 C   0  0  0  0  0  0  0  0  0  0  0  0
    7.1924   -1.6111    0.0080 C   0  0  0  0  0  0  0  0  0  0  0  0
   -1.8296    4.8178   -0.0438 H   0  0  0  0  0  0  0  0  0  0  0  0
    0.4934    5.7416    0.0420 H   0  0  0  0  0  0  0  0  0  0  0  0
    2.4857    4.2344    0.1084 H   0  0  0  0  0  0  0  0  0  0  0  0
   -5.4899    1.4235   -0.2391 H   0  0  0  0  0  0  0  0  0  0  0  0
   -4.2333   -3.6087    1.5416 H   0  0  0  0  0  0  0  0  0  0  0  0
   -2.6090   -3.9529    0.7812 H   0  0  0  0  0  0  0  0  0  0  0  0
   -4.0993   -3.7532   -0.2510 H   0  0  0  0  0  0  0  0  0  0  0  0
    2.6999   -1.8813   -0.0340 H   0  0  0  0  0  0  0  0  0  0  0  0
    5.2581   -2.0346   -0.9180 H   0  0  0  0  0  0  0  0  0  0  0  0
    5.2471   -2.0981    0.8783 H   0  0  0  0  0  0  0  0  0  0  0  0
    7.6077   -1.0791   -0.8701 H   0  0  0  0  0  0  0  0  0  0  0  0
    7.5361   -2.6632   -0.0271 H   0  0  0  0  0  0  0  0  0  0  0  0
    7.5969   -1.1425    0.9264 H   0  0  0  0  0  0  0  0  0  0  0  0
  1 14  1  0  0  0  0
  2 17  2  0  0  0  0
  3 18  1  0  0  0  0
  7 19  1  0  0  0  0
  8 13  1  0  0  0  0
  9  8  2  0  0  0  0
 10  9  1  0  0  0  0
 10 11  2  0  0  0  0
 11 12  1  0  0  0  0
 12 13  2  0  0  0  0
 12 26  1  0  0  0  0
 14  6  1  0  0  0  0
 14  9  1  6  0  0  0
 15  1  1  0  0  0  0
 15 16  2  0  0  0  0
 16  6  1  0  0  0  0
 16 17  1  0  0  0  0
 17  3  1  0  0  0  0
 18 29  1  0  0  0  0
 18 28  1  0  0  0  0
 19  4  1  0  0  0  0
 19 13  1  6  0  0  0
 20  5  1  0  0  0  0
 20  4  1  0  0  0  0
 21  7  1  0  0  0  0
 21 20  2  0  0  0  0
 22 23  1  0  0  0  0
 22  5  1  0  0  0  0
 22 33  1  0  0  0  0
 23 36  1  0  0  0  0
 24 10  1  0  0  0  0
 25 11  1  0  0  0  0
 27 15  1  0  0  0  0
 30 18  1  0  0  0  0
 31 21  1  0  0  0  0
 32 22  1  0  0  0  0
 34 23  1  0  0  0  0
 35 23  1  0  0  0  0
M  END
