1,17,35
 OpenBabel05122313063D

 41 45  0  0  1  0  0  0  0  0999 V2000
    2.0122   -0.9129   -0.0806 N   0  0  0  0  0  2  0  0  0  0  0  0
    2.9167   -1.9357   -0.0812 C   0  0  0  0  0  0  0  0  0  0  0  0
    2.4661   -2.9381   -0.1619 H   0  0  0  0  0  0  0  0  0  0  0  0
    4.2718   -1.7035    0.0056 C   0  0  0  0  0  0  0  0  0  0  0  0
    4.9777   -2.5455   -0.0309 H   0  0  0  0  0  0  0  0  0  0  0  0
    4.7446   -0.3778    0.2083 C   0  0  0  0  0  0  0  0  0  0  0  0
    6.1254   -0.1050    0.4239 C   0  0  0  0  0  0  0  0  0  0  0  0
    6.8403   -0.9397    0.3634 H   0  0  0  0  0  0  0  0  0  0  0  0
    6.5546    1.1755    0.7339 C   0  0  0  0  0  0  0  0  0  0  0  0
    7.6228    1.3750    0.9076 H   0  0  0  0  0  0  0  0  0  0  0  0
    5.6083    2.2243    0.8609 C   0  0  0  0  0  0  0  0  0  0  0  0
    5.9433    3.2297    1.1566 H   0  0  0  0  0  0  0  0  0  0  0  0
    4.2600    1.9961    0.6263 C   0  0  0  0  0  0  0  0  0  0  0  0
    3.5522    2.8201    0.7502 H   0  0  0  0  0  0  0  0  0  0  0  0
    3.7866    0.7037    0.2521 C   0  0  0  0  0  0  0  0  0  0  0  0
    2.4011    0.4025   -0.0089 C   0  0  0  0  0  0  0  0  0  0  0  0
   -2.0122   -0.9130   -0.0806 N   0  0  0  0  0  2  0  0  0  0  0  0
   -2.9167   -1.9357   -0.0813 C   0  0  0  0  0  0  0  0  0  0  0  0
   -2.4661   -2.9381   -0.1619 H   0  0  0  0  0  0  0  0  0  0  0  0
   -4.2718   -1.7035    0.0055 C   0  0  0  0  0  0  0  0  0  0  0  0
   -4.9778   -2.5454   -0.0310 H   0  0  0  0  0  0  0  0  0  0  0  0
   -4.7446   -0.3778    0.2083 C   0  0  1  0  0  3  0  0  0  0  0  0
   -6.1254   -0.1050    0.4239 C   0  0  0  0  0  0  0  0  0  0  0  0
   -6.8403   -0.9396    0.3634 H   0  0  0  0  0  0  0  0  0  0  0  0
   -6.5546    1.1756    0.7340 C   0  0  0  0  0  0  0  0  0  0  0  0
   -7.6227    1.3751    0.9076 H   0  0  0  0  0  0  0  0  0  0  0  0
   -5.6082    2.2244    0.8609 C   0  0  0  0  0  0  0  0  0  0  0  0
   -5.9432    3.2297    1.1567 H   0  0  0  0  0  0  0  0  0  0  0  0
   -4.2600    1.9961    0.6264 C   0  0  0  0  0  0  0  0  0  0  0  0
   -3.5521    2.8200    0.7503 H   0  0  0  0  0  0  0  0  0  0  0  0
   -3.7866    0.7037    0.2521 C   0  0  0  0  0  0  0  0  0  0  0  0
   -2.4011    0.4024   -0.0090 C   0  0  0  0  0  0  0  0  0  0  0  0
    2.3270    3.4095   -0.8314 F   0  0  0  0  0  0  0  0  0  0  0  0
   -2.3271    3.4094   -0.8314 F   0  0  0  0  0  0  0  0  0  0  0  0
    0.0000    0.6956   -0.0739 C   0  0  0  0  0  2  0  0  0  0  0  0
    1.2718    1.3408   -0.1609 C   0  0  0  0  0  0  0  0  0  0  0  0
    1.2169    2.6987   -0.5456 C   0  0  0  0  0  0  0  0  0  0  0  0
   -0.0000    3.3681   -0.7252 C   0  0  0  0  0  0  0  0  0  0  0  0
   -0.0001    4.4126   -1.0611 H   0  0  0  0  0  0  0  0  0  0  0  0
   -1.2170    2.6986   -0.5456 C   0  0  0  0  0  0  0  0  0  0  0  0
   -1.2719    1.3408   -0.1609 C   0  0  0  0  0  0  0  0  0  0  0  0
  1 16  1  0  0  0  0
  2  1  1  0  0  0  0
  2  4  2  0  0  0  0
  3  2  1  0  0  0  0
  4  6  1  0  0  0  0
  5  4  1  0  0  0  0
  6 15  2  0  0  0  0
  6  7  1  0  0  0  0
  7  9  2  0  0  0  0
  8  7  1  0  0  0  0
  9 11  1  0  0  0  0
  9 10  1  0  0  0  0
 11 12  1  0  0  0  0
 13 14  1  0  0  0  0
 13 11  2  0  0  0  0
 15 13  1  0  0  0  0
 16 15  1  0  0  0  0
 17 32  1  0  0  0  0
 18 17  1  0  0  0  0
 18 20  2  0  0  0  0
 19 18  1  0  0  0  0
 21 20  1  0  0  0  0
 22 20  1  1  0  0  0
 22 31  1  0  0  0  0
 22 23  1  0  0  0  0
 23 25  2  0  0  0  0
 24 23  1  0  0  0  0
 25 27  1  0  0  0  0
 25 26  1  0  0  0  0
 27 28  1  0  0  0  0
 29 30  1  0  0  0  0
 29 27  2  0  0  0  0
 31 29  1  0  0  0  0
 32 31  2  0  0  0  0
 33 37  1  0  0  0  0
 34 40  1  0  0  0  0
 36 35  1  0  0  0  0
 36 16  2  0  0  0  0
 37 36  1  0  0  0  0
 38 40  1  0  0  0  0
 38 37  2  0  0  0  0
 39 38  1  0  0  0  0
 40 41  2  0  0  0  0
 41 35  1  0  0  0  0
 41 32  1  0  0  0  0
M  END
