1,11,21
 OpenBabel05122313063D

 32 34  0  0  0  0  0  0  0  0999 V2000
    2.0177   -0.5478    0.0008 N   0  0  0  0  0  2  0  0  0  0  0  0
    2.9646   -1.5102    0.0006 C   0  0  0  0  0  3  0  0  0  0  0  0
    2.5700   -2.5403    0.0031 H   0  0  0  0  0  0  0  0  0  0  0  0
    4.3279   -1.2017   -0.0029 C   0  0  0  0  0  0  0  0  0  0  0  0
    5.0669   -2.0149   -0.0029 H   0  0  0  0  0  0  0  0  0  0  0  0
    4.7185    0.1478   -0.0063 C   0  0  0  0  0  0  0  0  0  0  0  0
    5.7843    0.4211   -0.0091 H   0  0  0  0  0  0  0  0  0  0  0  0
    3.7376    1.1451   -0.0060 C   0  0  0  0  0  0  0  0  0  0  0  0
    4.0145    2.2087   -0.0085 H   0  0  0  0  0  0  0  0  0  0  0  0
    2.3759    0.7956   -0.0025 C   0  0  0  0  0  0  0  0  0  0  0  0
   -2.0151   -0.5542    0.0008 N   0  0  0  0  0  2  0  0  0  0  0  0
   -2.9588   -1.5198    0.0008 C   0  0  0  0  0  0  0  0  0  0  0  0
   -2.5607   -2.5485    0.0034 H   0  0  0  0  0  0  0  0  0  0  0  0
   -4.3232   -1.2157   -0.0027 C   0  0  0  0  0  0  0  0  0  0  0  0
   -5.0595   -2.0313   -0.0026 H   0  0  0  0  0  0  0  0  0  0  0  0
   -4.7183    0.1324   -0.0063 C   0  0  0  0  0  0  0  0  0  0  0  0
   -5.7850    0.4023   -0.0090 H   0  0  0  0  0  0  0  0  0  0  0  0
   -3.7405    1.1329   -0.0062 C   0  0  0  0  0  0  0  0  0  0  0  0
   -4.0209    2.1956   -0.0087 H   0  0  0  0  0  0  0  0  0  0  0  0
   -2.3778    0.7878   -0.0027 C   0  0  0  0  0  0  0  0  0  0  0  0
   -0.0008    1.0354    0.0026 C   0  0  0  0  0  2  0  0  0  0  0  0
    1.2365    1.7184   -0.0012 C   0  0  0  0  0  0  0  0  0  0  0  0
    1.2199    3.1273   -0.0076 C   0  0  0  0  0  0  0  0  0  0  0  0
    2.1605    3.7026   -0.0137 H   0  0  0  0  0  0  0  0  0  0  0  0
   -0.0053    3.8343   -0.0087 C   0  0  0  0  0  0  0  0  0  0  0  0
   -1.2296    3.1224   -0.0080 C   0  0  0  0  0  0  0  0  0  0  0  0
   -2.1725    3.6942   -0.0144 H   0  0  0  0  0  0  0  0  0  0  0  0
   -1.2413    1.7148   -0.0014 C   0  0  0  0  0  0  0  0  0  0  0  0
   -0.0148    5.3445    0.0167 C   0  0  0  0  0  0  0  0  0  0  0  0
   -0.8002    5.7595   -0.6467 H   0  0  0  0  0  0  0  0  0  0  0  0
    0.9580    5.7645   -0.3052 H   0  0  0  0  0  0  0  0  0  0  0  0
   -0.2181    5.7307    1.0390 H   0  0  0  0  0  0  0  0  0  0  0  0
  2  1  1  0  0  0  0
  2  3  1  0  0  0  0
  4  2  1  0  0  0  0
  5  4  1  0  0  0  0
  6  8  1  0  0  0  0
  6  4  2  0  0  0  0
  7  6  1  0  0  0  0
  8 10  2  0  0  0  0
  9  8  1  0  0  0  0
 10 22  1  0  0  0  0
 10  1  1  0  0  0  0
 12 11  1  0  0  0  0
 12 13  1  0  0  0  0
 14 15  1  0  0  0  0
 14 12  2  0  0  0  0
 16 18  2  0  0  0  0
 16 14  1  0  0  0  0
 17 16  1  0  0  0  0
 18 20  1  0  0  0  0
 19 18  1  0  0  0  0
 20 28  2  0  0  0  0
 20 11  1  0  0  0  0
 22 21  1  0  0  0  0
 23 22  2  0  0  0  0
 24 23  1  0  0  0  0
 25 26  2  0  0  0  0
 25 23  1  0  0  0  0
 25 29  1  0  0  0  0
 26 28  1  0  0  0  0
 27 26  1  0  0  0  0
 28 21  1  0  0  0  0
 29 32  1  0  0  0  0
 30 29  1  0  0  0  0
 31 29  1  0  0  0  0
M  END
