1,11,29
 OpenBabel05122313063D

 49 53  0  0  0  0  0  0  0  0999 V2000
    2.8421    2.0167    0.0454 N   0  0  0  0  0  2  0  0  0  0  0  0
    3.8067    2.9612    0.0699 C   0  0  0  0  0  3  0  0  0  0  0  0
    4.8359    2.5645    0.0617 H   0  0  0  0  0  0  0  0  0  0  0  0
    3.5001    4.3246    0.1030 C   0  0  0  0  0  0  0  0  0  0  0  0
    4.3144    5.0621    0.1222 H   0  0  0  0  0  0  0  0  0  0  0  0
    2.1517    4.7176    0.1112 C   0  0  0  0  0  0  0  0  0  0  0  0
    1.8803    5.7834    0.1377 H   0  0  0  0  0  0  0  0  0  0  0  0
    1.1523    3.7388    0.0857 C   0  0  0  0  0  0  0  0  0  0  0  0
    0.0893    4.0175    0.0919 H   0  0  0  0  0  0  0  0  0  0  0  0
    1.5000    2.3775    0.0522 C   0  0  0  0  0  0  0  0  0  0  0  0
    1.2569   -0.0000    0.0000 C   0  0  0  0  0  2  0  0  0  0  0  0
    0.5749    1.2391    0.0221 C   0  0  0  0  0  0  0  0  0  0  0  0
   -0.8308    1.2280    0.0219 C   0  0  0  0  0  0  0  0  0  0  0  0
   -1.4018    2.1684    0.0670 H   0  0  0  0  0  0  0  0  0  0  0  0
   -1.5432   -0.0000    0.0000 C   0  0  0  0  0  0  0  0  0  0  0  0
   -3.0267   -0.0000    0.0000 C   0  0  0  0  0  0  0  0  0  0  0  0
   -3.7619    0.9932   -0.6874 C   0  0  0  0  0  0  0  0  0  0  0  0
   -3.2245    1.7580   -1.2683 H   0  0  0  0  0  0  0  0  0  0  0  0
   -5.1599    0.9940   -0.6861 C   0  0  0  0  0  0  0  0  0  0  0  0
   -5.6978    1.7609   -1.2634 H   0  0  0  0  0  0  0  0  0  0  0  0
   -5.8945    0.0000   -0.0000 C   0  0  0  0  0  0  0  0  0  0  0  0
   -7.3779    0.0000   -0.0000 C   0  0  0  0  0  0  0  0  0  0  0  0
   -8.1062    1.2121   -0.0096 C   0  0  0  0  0  0  0  0  0  0  0  0
   -7.5624    2.1685    0.0113 H   0  0  0  0  0  0  0  0  0  0  0  0
   -9.5074    1.2124   -0.0100 C   0  0  0  0  0  0  0  0  0  0  0  0
  -10.0520    2.1689   -0.0083 H   0  0  0  0  0  0  0  0  0  0  0  0
  -10.2154    0.0000   -0.0001 C   0  0  0  0  0  0  0  0  0  0  0  0
  -11.3158    0.0000   -0.0001 H   0  0  0  0  0  0  0  0  0  0  0  0
    2.8421   -2.0167   -0.0453 N   0  0  0  0  0  2  0  0  0  0  0  0
    3.8067   -2.9612   -0.0698 C   0  0  0  0  0  0  0  0  0  0  0  0
    4.8359   -2.5645   -0.0615 H   0  0  0  0  0  0  0  0  0  0  0  0
    3.5001   -4.3246   -0.1029 C   0  0  0  0  0  0  0  0  0  0  0  0
    4.3144   -5.0621   -0.1221 H   0  0  0  0  0  0  0  0  0  0  0  0
    2.1517   -4.7176   -0.1111 C   0  0  0  0  0  0  0  0  0  0  0  0
    1.8803   -5.7834   -0.1376 H   0  0  0  0  0  0  0  0  0  0  0  0
    1.1523   -3.7388   -0.0856 C   0  0  0  0  0  0  0  0  0  0  0  0
    0.0893   -4.0175   -0.0918 H   0  0  0  0  0  0  0  0  0  0  0  0
    1.5000   -2.3775   -0.0521 C   0  0  0  0  0  0  0  0  0  0  0  0
    0.5749   -1.2391   -0.0220 C   0  0  0  0  0  0  0  0  0  0  0  0
   -0.8308   -1.2280   -0.0219 C   0  0  0  0  0  0  0  0  0  0  0  0
   -1.4018   -2.1684   -0.0669 H   0  0  0  0  0  0  0  0  0  0  0  0
   -3.7619   -0.9932    0.6874 C   0  0  0  0  0  0  0  0  0  0  0  0
   -3.2245   -1.7580    1.2683 H   0  0  0  0  0  0  0  0  0  0  0  0
   -5.1599   -0.9940    0.6861 C   0  0  0  0  0  0  0  0  0  0  0  0
   -5.6978   -1.7609    1.2633 H   0  0  0  0  0  0  0  0  0  0  0  0
   -8.1062   -1.2121    0.0095 C   0  0  0  0  0  0  0  0  0  0  0  0
   -7.5624   -2.1685   -0.0114 H   0  0  0  0  0  0  0  0  0  0  0  0
   -9.5074   -1.2124    0.0099 C   0  0  0  0  0  0  0  0  0  0  0  0
  -10.0520   -2.1689    0.0082 H   0  0  0  0  0  0  0  0  0  0  0  0
  1 10  1  0  0  0  0
  1  2  1  0  0  0  0
  2  4  1  0  0  0  0
  3  2  1  0  0  0  0
  4  6  2  0  0  0  0
  4  5  1  0  0  0  0
  6  7  1  0  0  0  0
  8  9  1  0  0  0  0
  8  6  1  0  0  0  0
 10  8  2  0  0  0  0
 11 12  1  0  0  0  0
 12 10  1  0  0  0  0
 13 12  2  0  0  0  0
 13 14  1  0  0  0  0
 15 13  1  0  0  0  0
 16 15  1  0  0  0  0
 16 42  1  0  0  0  0
 17 19  1  0  0  0  0
 17 16  2  0  0  0  0
 18 17  1  0  0  0  0
 19 21  2  0  0  0  0
 20 19  1  0  0  0  0
 21 44  1  0  0  0  0
 22 21  1  0  0  0  0
 22 46  1  0  0  0  0
 23 22  2  0  0  0  0
 23 24  1  0  0  0  0
 25 23  1  0  0  0  0
 25 26  1  0  0  0  0
 25 27  2  0  0  0  0
 27 48  1  0  0  0  0
 28 27  1  0  0  0  0
 30 31  1  0  0  0  0
 30 29  1  0  0  0  0
 32 30  2  0  0  0  0
 33 32  1  0  0  0  0
 34 32  1  0  0  0  0
 34 36  2  0  0  0  0
 35 34  1  0  0  0  0
 36 38  1  0  0  0  0
 37 36  1  0  0  0  0
 38 29  1  0  0  0  0
 38 39  2  0  0  0  0
 39 40  1  0  0  0  0
 39 11  1  0  0  0  0
 40 15  2  0  0  0  0
 41 40  1  0  0  0  0
 42 43  1  0  0  0  0
 44 42  2  0  0  0  0
 44 45  1  0  0  0  0
 46 48  2  0  0  0  0
 47 46  1  0  0  0  0
 49 48  1  0  0  0  0
M  END
