3,5,26
 OpenBabel05122313063D

 83 89  0  0  1  0  0  0  0  0999 V2000
    6.7976    4.4724    0.3106 O   0  0  0  0  0  0  0  0  0  0  0  0
   -6.7975    4.4725   -0.3106 O   0  0  0  0  0  0  0  0  0  0  0  0
    1.8558   -1.4163    0.7169 N   0  0  0  0  0  2  0  0  0  0  0  0
    3.4888    0.0499    1.2211 N   0  0  0  0  0  0  0  0  0  0  0  0
   -1.8558   -1.4163   -0.7169 N   0  0  0  0  0  2  0  0  0  0  0  0
   -3.4888    0.0499   -1.2211 N   0  0  0  0  0  0  0  0  0  0  0  0
    4.3147    1.1790    1.0186 C   0  0  0  0  0  0  0  0  0  0  0  0
    4.3357    1.8421   -0.2293 C   0  0  0  0  0  0  0  0  0  0  0  0
    3.7105    1.4656   -1.0512 H   0  0  0  0  0  0  0  0  0  0  0  0
    5.1644    2.9452   -0.4258 C   0  0  0  0  0  0  0  0  0  0  0  0
    5.1917    3.4676   -1.3929 H   0  0  0  0  0  0  0  0  0  0  0  0
    6.0193    3.3952    0.6054 C   0  0  0  0  0  0  0  0  0  0  0  0
    6.0270    2.7157    1.8413 C   0  0  0  0  0  0  0  0  0  0  0  0
    6.6852    3.0357    2.6597 H   0  0  0  0  0  0  0  0  0  0  0  0
    5.1719    1.6211    2.0416 C   0  0  0  0  0  0  0  0  0  0  0  0
    5.1669    1.1074    3.0144 H   0  0  0  0  0  0  0  0  0  0  0  0
    2.2066   -0.1263    0.7722 C   0  0  2  0  0  3  0  0  0  0  0  0
    1.1748    0.8472    0.4037 C   0  0  0  0  0  0  0  0  0  0  0  0
    1.1618    2.2574    0.4155 C   0  0  0  0  0  0  0  0  0  0  0  0
    2.0432    2.8311    0.7354 H   0  0  0  0  0  0  0  0  0  0  0  0
   -0.0001    2.9385    0.0001 C   0  0  0  0  0  0  0  0  0  0  0  0
   -0.0001    4.0384    0.0002 H   0  0  0  0  0  0  0  0  0  0  0  0
   -1.1619    2.2574   -0.4153 C   0  0  0  0  0  3  0  0  0  0  0  0
   -2.0434    2.8311   -0.7352 H   0  0  0  0  0  0  0  0  0  0  0  0
   -1.1748    0.8471   -0.4036 C   0  0  0  0  0  0  0  0  0  0  0  0
   -0.0000    0.1569    0.0000 C   0  0  0  0  0  3  0  0  0  0  0  0
   -2.2066   -0.1263   -0.7721 C   0  0  0  0  0  0  0  0  0  0  0  0
   -4.3147    1.1790   -1.0185 C   0  0  0  0  0  0  0  0  0  0  0  0
   -5.1718    1.6212   -2.0416 C   0  0  0  0  0  0  0  0  0  0  0  0
   -5.1667    1.1075   -3.0144 H   0  0  0  0  0  0  0  0  0  0  0  0
   -6.0268    2.7158   -1.8413 C   0  0  0  0  0  0  0  0  0  0  0  0
   -6.6850    3.0359   -2.6597 H   0  0  0  0  0  0  0  0  0  0  0  0
   -6.0192    3.3953   -0.6053 C   0  0  0  0  0  0  0  0  0  0  0  0
   -5.1644    2.9452    0.4259 C   0  0  0  0  0  0  0  0  0  0  0  0
   -5.1917    3.4676    1.3929 H   0  0  0  0  0  0  0  0  0  0  0  0
   -4.3357    1.8421    0.2293 C   0  0  0  0  0  0  0  0  0  0  0  0
   -3.7106    1.4655    1.0513 H   0  0  0  0  0  0  0  0  0  0  0  0
    4.0171   -1.2658    1.6361 C   0  0  0  0  0  0  0  0  0  0  0  0
    4.0169   -1.3506    2.7449 H   0  0  0  0  0  0  0  0  0  0  0  0
    5.0557   -1.3846    1.2709 H   0  0  0  0  0  0  0  0  0  0  0  0
    3.0237   -2.2622    0.9856 C   0  0  2  0  0  0  0  0  0  0  0  0
    2.7326   -3.0695    1.6856 H   0  0  0  0  0  0  0  0  0  0  0  0
    3.5198   -2.9260   -0.3261 C   0  0  0  0  0  0  0  0  0  0  0  0
    2.6854   -3.5685   -0.6768 H   0  0  0  0  0  0  0  0  0  0  0  0
    4.3694   -3.5916   -0.0661 H   0  0  0  0  0  0  0  0  0  0  0  0
    3.9331   -1.9372   -1.3897 C   0  0  0  0  0  0  0  0  0  0  0  0
    2.9659   -1.3251   -2.2181 C   0  0  0  0  0  0  0  0  0  0  0  0
    1.9058   -1.6035   -2.0998 H   0  0  0  0  0  0  0  0  0  0  0  0
    3.3402   -0.3693   -3.1746 C   0  0  0  0  0  0  0  0  0  0  0  0
    2.5687    0.0928   -3.8096 H   0  0  0  0  0  0  0  0  0  0  0  0
    4.6892   -0.0072   -3.3263 C   0  0  0  0  0  0  0  0  0  0  0  0
    4.9828    0.7406   -4.0789 H   0  0  0  0  0  0  0  0  0  0  0  0
    5.6615   -0.6098   -2.5134 C   0  0  0  0  0  0  0  0  0  0  0  0
    6.7219   -0.3369   -2.6254 H   0  0  0  0  0  0  0  0  0  0  0  0
    5.2841   -1.5659   -1.5576 C   0  0  0  0  0  0  0  0  0  0  0  0
    6.0573   -2.0465   -0.9360 H   0  0  0  0  0  0  0  0  0  0  0  0
   -4.0171   -1.2658   -1.6361 C   0  0  0  0  0  0  0  0  0  0  0  0
   -4.0169   -1.3506   -2.7449 H   0  0  0  0  0  0  0  0  0  0  0  0
   -5.0557   -1.3846   -1.2708 H   0  0  0  0  0  0  0  0  0  0  0  0
   -3.0237   -2.2622   -0.9856 C   0  0  2  0  0  0  0  0  0  0  0  0
   -2.7326   -3.0695   -1.6857 H   0  0  0  0  0  0  0  0  0  0  0  0
   -3.5198   -2.9260    0.3261 C   0  0  0  0  0  0  0  0  0  0  0  0
   -4.3693   -3.5917    0.0660 H   0  0  0  0  0  0  0  0  0  0  0  0
   -2.6854   -3.5685    0.6768 H   0  0  0  0  0  0  0  0  0  0  0  0
   -3.9331   -1.9372    1.3896 C   0  0  0  0  0  0  0  0  0  0  0  0
   -2.9660   -1.3250    2.2180 C   0  0  0  0  0  0  0  0  0  0  0  0
   -1.9059   -1.6033    2.0997 H   0  0  0  0  0  0  0  0  0  0  0  0
   -3.3404   -0.3692    3.1745 C   0  0  0  0  0  0  0  0  0  0  0  0
   -2.5689    0.0930    3.8094 H   0  0  0  0  0  0  0  0  0  0  0  0
   -4.6894   -0.0072    3.3262 C   0  0  0  0  0  0  0  0  0  0  0  0
   -4.9831    0.7405    4.0788 H   0  0  0  0  0  0  0  0  0  0  0  0
   -5.6617   -0.6100    2.5133 C   0  0  0  0  0  0  0  0  0  0  0  0
   -6.7221   -0.3371    2.6253 H   0  0  0  0  0  0  0  0  0  0  0  0
   -5.2842   -1.5661    1.5575 C   0  0  0  0  0  0  0  0  0  0  0  0
   -6.0574   -2.0468    0.9360 H   0  0  0  0  0  0  0  0  0  0  0  0
    7.6779    4.9571    1.3055 C   0  0  0  0  0  0  0  0  0  0  0  0
    8.2070    5.8213    0.8629 H   0  0  0  0  0  0  0  0  0  0  0  0
    8.4277    4.1909    1.6069 H   0  0  0  0  0  0  0  0  0  0  0  0
    7.1318    5.2958    2.2150 H   0  0  0  0  0  0  0  0  0  0  0  0
   -7.6776    4.9574   -1.3056 C   0  0  0  0  0  0  0  0  0  0  0  0
   -8.2066    5.8216   -0.8630 H   0  0  0  0  0  0  0  0  0  0  0  0
   -8.4274    4.1912   -1.6071 H   0  0  0  0  0  0  0  0  0  0  0  0
   -7.1314    5.2960   -2.2150 H   0  0  0  0  0  0  0  0  0  0  0  0
  1 12  1  0  0  0  0
  1 76  1  0  0  0  0
  3 17  1  0  0  0  0
  3 41  1  0  0  0  0
  4 38  1  0  0  0  0
  6 28  1  0  0  0  0
  6 27  1  0  0  0  0
  7  4  1  0  0  0  0
  7 15  1  0  0  0  0
  8  7  2  0  0  0  0
  9  8  1  0  0  0  0
 10  8  1  0  0  0  0
 10 12  2  0  0  0  0
 11 10  1  0  0  0  0
 12 13  1  0  0  0  0
 13 15  2  0  0  0  0
 13 14  1  0  0  0  0
 15 16  1  0  0  0  0
 17 18  1  1  0  0  0
 17  4  1  0  0  0  0
 18 19  1  0  0  0  0
 19 20  1  0  0  0  0
 21 22  1  0  0  0  0
 21 19  2  0  0  0  0
 23 25  1  0  0  0  0
 23 21  1  0  0  0  0
 24 23  1  0  0  0  0
 25 26  1  0  0  0  0
 26 18  2  0  0  0  0
 27  5  1  0  0  0  0
 27 25  2  0  0  0  0
 28 36  1  0  0  0  0
 29 31  1  0  0  0  0
 29 28  2  0  0  0  0
 30 29  1  0  0  0  0
 31 33  2  0  0  0  0
 32 31  1  0  0  0  0
 33  2  1  0  0  0  0
 33 34  1  0  0  0  0
 34 35  1  0  0  0  0
 36 34  2  0  0  0  0
 36 37  1  0  0  0  0
 38 39  1  0  0  0  0
 40 38  1  0  0  0  0
 41 38  1  0  0  0  0
 41 42  1  1  0  0  0
 43 45  1  0  0  0  0
 43 41  1  0  0  0  0
 44 43  1  0  0  0  0
 46 43  1  0  0  0  0
 47 48  1  0  0  0  0
 47 46  2  0  0  0  0
 49 47  1  0  0  0  0
 50 49  1  0  0  0  0
 51 49  2  0  0  0  0
 51 53  1  0  0  0  0
 52 51  1  0  0  0  0
 53 55  2  0  0  0  0
 54 53  1  0  0  0  0
 55 46  1  0  0  0  0
 55 56  1  0  0  0  0
 57 59  1  0  0  0  0
 57  6  1  0  0  0  0
 57 60  1  0  0  0  0
 58 57  1  0  0  0  0
 60 61  1  6  0  0  0
 60  5  1  0  0  0  0
 60 62  1  0  0  0  0
 62 64  1  0  0  0  0
 62 65  1  0  0  0  0
 63 62  1  0  0  0  0
 65 74  2  0  0  0  0
 65 66  1  0  0  0  0
 66 68  2  0  0  0  0
 67 66  1  0  0  0  0
 68 70  1  0  0  0  0
 68 69  1  0  0  0  0
 70 71  1  0  0  0  0
 72 73  1  0  0  0  0
 72 70  2  0  0  0  0
 74 72  1  0  0  0  0
 75 74  1  0  0  0  0
 76 78  1  0  0  0  0
 76 79  1  0  0  0  0
 77 76  1  0  0  0  0
 80 81  1  0  0  0  0
 80  2  1  0  0  0  0
 82 80  1  0  0  0  0
 83 80  1  0  0  0  0
M  END
