3,4,6
 OpenBabel05122313063D

 49 50  0  0  0  0  0  0  0  0999 V2000
   10.2313   -0.8938    0.0970 O   0  0  0  0  0  0  0  0  0  0  0  0
   10.0183    1.2711   -0.1376 O   0  0  0  0  0  0  0  0  0  0  0  0
   -2.8262   -2.1053   -0.0785 N   0  0  0  0  0  0  0  0  0  0  0  0
   -3.1556    2.0802    0.0780 N   0  0  0  0  0  0  0  0  0  0  0  0
    9.5571    0.1335   -0.0136 N   0  0  0  0  0  0  0  0  0  0  0  0
   -1.3579    0.1174   -0.0086 C   0  0  0  0  0  3  0  0  0  0  0  0
   -0.5754   -1.0486    0.1497 C   0  0  0  0  0  0  0  0  0  0  0  0
    0.8154   -0.9432    0.1273 C   0  0  0  0  0  0  0  0  0  0  0  0
    1.4417   -1.8413    0.2455 H   0  0  0  0  0  0  0  0  0  0  0  0
    1.4397    0.3307   -0.0267 C   0  0  0  0  0  0  0  0  0  0  0  0
    0.6232    1.4911   -0.1687 C   0  0  0  0  0  0  0  0  0  0  0  0
    1.1183    2.4689   -0.2914 H   0  0  0  0  0  0  0  0  0  0  0  0
   -0.7706    1.3882   -0.1736 C   0  0  0  0  0  0  0  0  0  0  0  0
   -1.4037   -2.2787    0.4349 C   0  0  0  0  0  0  0  0  0  0  0  0
   -1.4891   -2.4112    1.5336 H   0  0  0  0  0  0  0  0  0  0  0  0
   -0.9786   -3.2198    0.0211 H   0  0  0  0  0  0  0  0  0  0  0  0
   -2.8997   -2.5032   -1.5090 C   0  0  0  0  0  0  0  0  0  0  0  0
   -2.6733   -3.5882   -1.6143 H   0  0  0  0  0  0  0  0  0  0  0  0
   -2.1697   -1.9113   -2.0898 H   0  0  0  0  0  0  0  0  0  0  0  0
   -3.9173   -2.2928   -1.8851 H   0  0  0  0  0  0  0  0  0  0  0  0
   -3.7653   -2.9304    0.7188 C   0  0  0  0  0  0  0  0  0  0  0  0
   -4.7942   -2.7261    0.3688 H   0  0  0  0  0  0  0  0  0  0  0  0
   -3.6984   -2.6289    1.7798 H   0  0  0  0  0  0  0  0  0  0  0  0
   -3.5136   -4.0091    0.6156 H   0  0  0  0  0  0  0  0  0  0  0  0
   -1.7812    2.4767   -0.4444 C   0  0  0  0  0  0  0  0  0  0  0  0
   -1.8954    2.6033   -1.5411 H   0  0  0  0  0  0  0  0  0  0  0  0
   -1.5049    3.4694   -0.0253 H   0  0  0  0  0  0  0  0  0  0  0  0
   -3.2810    2.4602    1.5100 C   0  0  0  0  0  0  0  0  0  0  0  0
   -3.2280    3.5672    1.6158 H   0  0  0  0  0  0  0  0  0  0  0  0
   -2.4623    1.9903    2.0841 H   0  0  0  0  0  0  0  0  0  0  0  0
   -4.2498    2.0915    1.8929 H   0  0  0  0  0  0  0  0  0  0  0  0
   -4.2185    2.7478   -0.7112 C   0  0  0  0  0  0  0  0  0  0  0  0
   -5.2000    2.3835   -0.3549 H   0  0  0  0  0  0  0  0  0  0  0  0
   -4.1122    2.4620   -1.7733 H   0  0  0  0  0  0  0  0  0  0  0  0
   -4.1393    3.8526   -0.6072 H   0  0  0  0  0  0  0  0  0  0  0  0
    2.8852    0.4996   -0.0457 C   0  0  0  0  0  0  0  0  0  0  0  0
    3.2182    1.5455   -0.1607 H   0  0  0  0  0  0  0  0  0  0  0  0
    3.8415   -0.4708    0.0590 C   0  0  0  0  0  0  0  0  0  0  0  0
    3.5226   -1.5205    0.1725 H   0  0  0  0  0  0  0  0  0  0  0  0
    5.2844   -0.2740    0.0360 C   0  0  0  0  0  0  0  0  0  0  0  0
    6.1354   -1.4062    0.1579 C   0  0  0  0  0  0  0  0  0  0  0  0
    5.6806   -2.4030    0.2666 H   0  0  0  0  0  0  0  0  0  0  0  0
    7.5250   -1.2845    0.1429 C   0  0  0  0  0  0  0  0  0  0  0  0
    8.1914   -2.1522    0.2363 H   0  0  0  0  0  0  0  0  0  0  0  0
    8.0905   -0.0087    0.0038 C   0  0  0  0  0  0  0  0  0  0  0  0
    7.2868    1.1374   -0.1196 C   0  0  0  0  0  0  0  0  0  0  0  0
    7.7759    2.1147   -0.2263 H   0  0  0  0  0  0  0  0  0  0  0  0
    5.9008    1.0007   -0.1030 C   0  0  0  0  0  0  0  0  0  0  0  0
    5.2787    1.9022   -0.2002 H   0  0  0  0  0  0  0  0  0  0  0  0
  2  5  2  0  0  0  0
  3 14  1  0  0  0  0
  3 21  1  0  0  0  0
  4 28  1  0  0  0  0
  5 45  1  0  0  0  0
  5  1  2  0  0  0  0
  6  7  1  0  0  0  0
  7 14  1  0  0  0  0
  8  7  2  0  0  0  0
  8  9  1  0  0  0  0
 10  8  1  0  0  0  0
 11 10  2  0  0  0  0
 12 11  1  0  0  0  0
 13 11  1  0  0  0  0
 13  6  2  0  0  0  0
 14 15  1  0  0  0  0
 16 14  1  0  0  0  0
 17  3  1  0  0  0  0
 18 17  1  0  0  0  0
 19 17  1  0  0  0  0
 20 17  1  0  0  0  0
 21 23  1  0  0  0  0
 22 21  1  0  0  0  0
 24 21  1  0  0  0  0
 25 13  1  0  0  0  0
 25 27  1  0  0  0  0
 25  4  1  0  0  0  0
 26 25  1  0  0  0  0
 28 29  1  0  0  0  0
 28 31  1  0  0  0  0
 28 30  1  0  0  0  0
 32 35  1  0  0  0  0
 32 33  1  0  0  0  0
 32  4  1  0  0  0  0
 34 32  1  0  0  0  0
 36 10  1  0  0  0  0
 36 38  2  0  0  0  0
 37 36  1  0  0  0  0
 38 39  1  0  0  0  0
 40 38  1  0  0  0  0
 40 41  1  0  0  0  0
 41 42  1  0  0  0  0
 43 41  2  0  0  0  0
 43 44  1  0  0  0  0
 45 43  1  0  0  0  0
 46 48  1  0  0  0  0
 46 45  2  0  0  0  0
 47 46  1  0  0  0  0
 48 40  2  0  0  0  0
 49 48  1  0  0  0  0
M  END
