2,3,4
 OpenBabel05122313063D

 51 52  0  0  0  0  0  0  0  0999 V2000
   -9.7242    0.2006    0.0208 O   0  0  0  0  0  0  0  0  0  0  0  0
    2.6312    2.0908   -0.0779 N   0  0  0  0  0  0  0  0  0  0  0  0
    2.9040   -2.0969    0.0746 N   0  0  0  0  0  0  0  0  0  0  0  0
    1.1340   -0.1106   -0.0071 C   0  0  0  0  0  3  0  0  0  0  0  0
    0.3675    1.0629    0.1557 C   0  0  0  0  0  0  0  0  0  0  0  0
   -1.0264    0.9763    0.1352 C   0  0  0  0  0  0  0  0  0  0  0  0
   -1.6395    1.8832    0.2571 H   0  0  0  0  0  0  0  0  0  0  0  0
   -1.6703   -0.2862   -0.0215 C   0  0  0  0  0  0  0  0  0  0  0  0
   -0.8683   -1.4547   -0.1681 C   0  0  0  0  0  0  0  0  0  0  0  0
   -1.3755   -2.4261   -0.2932 H   0  0  0  0  0  0  0  0  0  0  0  0
    0.5287   -1.3706   -0.1746 C   0  0  0  0  0  0  0  0  0  0  0  0
    1.2127    2.2812    0.4424 C   0  0  0  0  0  0  0  0  0  0  0  0
    1.3061    2.4099    1.5409 H   0  0  0  0  0  0  0  0  0  0  0  0
    0.7992    3.2297    0.0330 H   0  0  0  0  0  0  0  0  0  0  0  0
    2.7014    2.4866   -1.5086 C   0  0  0  0  0  0  0  0  0  0  0  0
    2.4877    3.5745   -1.6137 H   0  0  0  0  0  0  0  0  0  0  0  0
    1.9600    1.9029   -2.0834 H   0  0  0  0  0  0  0  0  0  0  0  0
    3.7138    2.2627   -1.8908 H   0  0  0  0  0  0  0  0  0  0  0  0
    3.5847    2.9039    0.7133 C   0  0  0  0  0  0  0  0  0  0  0  0
    4.6094    2.6830    0.3606 H   0  0  0  0  0  0  0  0  0  0  0  0
    3.5170    2.6059    1.7752 H   0  0  0  0  0  0  0  0  0  0  0  0
    3.3485    3.9864    0.6089 H   0  0  0  0  0  0  0  0  0  0  0  0
    1.5238   -2.4721   -0.4501 C   0  0  0  0  0  0  0  0  0  0  0  0
    1.6386   -2.5970   -1.5471 H   0  0  0  0  0  0  0  0  0  0  0  0
    1.2346   -3.4630   -0.0345 H   0  0  0  0  0  0  0  0  0  0  0  0
    3.0203   -2.4785    1.5062 C   0  0  0  0  0  0  0  0  0  0  0  0
    2.9506   -3.5849    1.6123 H   0  0  0  0  0  0  0  0  0  0  0  0
    2.2068   -1.9961    2.0773 H   0  0  0  0  0  0  0  0  0  0  0  0
    3.9933   -2.1237    1.8918 H   0  0  0  0  0  0  0  0  0  0  0  0
    3.9584   -2.7791   -0.7121 C   0  0  0  0  0  0  0  0  0  0  0  0
    4.9442   -2.4251   -0.3568 H   0  0  0  0  0  0  0  0  0  0  0  0
    3.8558   -2.4941   -1.7748 H   0  0  0  0  0  0  0  0  0  0  0  0
    3.8660   -3.8831   -0.6064 H   0  0  0  0  0  0  0  0  0  0  0  0
   -3.1232   -0.4349   -0.0390 C   0  0  0  0  0  0  0  0  0  0  0  0
   -3.4710   -1.4761   -0.1573 H   0  0  0  0  0  0  0  0  0  0  0  0
   -4.0616    0.5481    0.0701 C   0  0  0  0  0  0  0  0  0  0  0  0
   -3.7204    1.5913    0.1866 H   0  0  0  0  0  0  0  0  0  0  0  0
   -5.5137    0.3902    0.0502 C   0  0  0  0  0  0  0  0  0  0  0  0
   -6.3413    1.5374    0.1766 C   0  0  0  0  0  0  0  0  0  0  0  0
   -5.8661    2.5251    0.2877 H   0  0  0  0  0  0  0  0  0  0  0  0
   -7.7321    1.4496    0.1641 C   0  0  0  0  0  0  0  0  0  0  0  0
   -8.3652    2.3433    0.2627 H   0  0  0  0  0  0  0  0  0  0  0  0
   -8.3623    0.1947    0.0229 C   0  0  0  0  0  0  0  0  0  0  0  0
   -7.5642   -0.9636   -0.1048 C   0  0  0  0  0  0  0  0  0  0  0  0
   -8.0235   -1.9550   -0.2163 H   0  0  0  0  0  0  0  0  0  0  0  0
   -6.1690   -0.8566   -0.0901 C   0  0  0  0  0  0  0  0  0  0  0  0
   -5.5742   -1.7767   -0.1916 H   0  0  0  0  0  0  0  0  0  0  0  0
  -10.4016   -1.0326   -0.1185 C   0  0  0  0  0  0  0  0  0  0  0  0
  -10.1608   -1.5336   -1.0834 H   0  0  0  0  0  0  0  0  0  0  0  0
  -11.4829   -0.8015   -0.0952 H   0  0  0  0  0  0  0  0  0  0  0  0
  -10.1650   -1.7342    0.7132 H   0  0  0  0  0  0  0  0  0  0  0  0
  1 43  1  0  0  0  0
  2 12  1  0  0  0  0
  2 19  1  0  0  0  0
  3 26  1  0  0  0  0
  4  5  1  0  0  0  0
  5 12  1  0  0  0  0
  6  5  2  0  0  0  0
  6  7  1  0  0  0  0
  8  6  1  0  0  0  0
  9  8  2  0  0  0  0
 10  9  1  0  0  0  0
 11  9  1  0  0  0  0
 11  4  2  0  0  0  0
 12 13  1  0  0  0  0
 14 12  1  0  0  0  0
 15  2  1  0  0  0  0
 16 15  1  0  0  0  0
 17 15  1  0  0  0  0
 18 15  1  0  0  0  0
 19 21  1  0  0  0  0
 20 19  1  0  0  0  0
 22 19  1  0  0  0  0
 23 11  1  0  0  0  0
 23 25  1  0  0  0  0
 23  3  1  0  0  0  0
 24 23  1  0  0  0  0
 26 27  1  0  0  0  0
 26 29  1  0  0  0  0
 26 28  1  0  0  0  0
 30 33  1  0  0  0  0
 30 31  1  0  0  0  0
 30  3  1  0  0  0  0
 32 30  1  0  0  0  0
 34  8  1  0  0  0  0
 34 36  2  0  0  0  0
 35 34  1  0  0  0  0
 36 37  1  0  0  0  0
 38 36  1  0  0  0  0
 38 39  1  0  0  0  0
 39 40  1  0  0  0  0
 41 39  2  0  0  0  0
 41 42  1  0  0  0  0
 43 41  1  0  0  0  0
 44 46  1  0  0  0  0
 44 43  2  0  0  0  0
 45 44  1  0  0  0  0
 46 38  2  0  0  0  0
 47 46  1  0  0  0  0
 48 50  1  0  0  0  0
 48  1  1  0  0  0  0
 48 51  1  0  0  0  0
 49 48  1  0  0  0  0
M  END
