1,2,3
 OpenBabel05122313063D

 51 52  0  0  0  0  0  0  0  0999 V2000
    1.7058   -1.5234   -0.5822 N   0  0  0  0  0  2  0  0  0  0  0  0
    0.0354    2.1651   -0.5319 N   0  0  0  0  0  2  0  0  0  0  0  0
    1.8346    0.7430    0.5833 C   0  0  0  0  0  2  0  0  0  0  0  0
    2.7892   -0.1962    1.0498 C   0  0  0  0  0  0  0  0  0  0  0  0
    3.6781    0.2029    2.0709 C   0  0  0  0  0  0  0  0  0  0  0  0
    3.5921    1.5116    2.5904 C   0  0  0  0  0  0  0  0  0  0  0  0
    2.6466    2.4446    2.1158 C   0  0  0  0  0  0  0  0  0  0  0  0
    1.7507    2.0632    1.0940 C   0  0  0  0  0  0  0  0  0  0  0  0
    2.6469   -1.4540    0.3424 C   0  0  0  0  0  3  0  0  0  0  0  0
    0.7084    2.8023    0.4092 C   0  0  0  0  0  0  0  0  0  0  0  0
    1.4312   -2.7764   -1.2789 C   0  0  0  0  0  0  0  0  0  0  0  0
    0.0959   -3.3838   -0.8200 C   0  0  0  0  0  0  0  0  0  0  0  0
    0.0483   -3.7815    0.6647 C   0  0  0  0  0  0  0  0  0  0  0  0
   -1.3252   -3.5707    1.3187 C   0  0  0  0  0  0  0  0  0  0  0  0
   -1.7091   -2.0927    1.4446 C   0  0  0  0  0  0  0  0  0  0  0  0
   -3.0202   -1.8406    2.1951 C   0  0  0  0  0  0  0  0  0  0  0  0
   -3.4344   -0.3623    2.2072 C   0  0  0  0  0  0  0  0  0  0  0  0
   -4.0331    0.1296    0.8819 C   0  0  0  0  0  0  0  0  0  0  0  0
   -4.1806    1.6577    0.8021 C   0  0  0  0  0  0  0  0  0  0  0  0
   -2.8628    2.3932    0.5067 C   0  0  0  0  0  0  0  0  0  0  0  0
   -2.4159    2.2388   -0.9481 C   0  0  0  0  0  0  0  0  0  0  0  0
   -1.0379    2.8314   -1.2645 C   0  0  0  0  0  0  0  0  0  0  0  0
    4.4354   -0.4931    2.4651 H   0  0  0  0  0  0  0  0  0  0  0  0
    4.2868    1.8153    3.3872 H   0  0  0  0  0  0  0  0  0  0  0  0
    2.6179    3.4594    2.5431 H   0  0  0  0  0  0  0  0  0  0  0  0
    3.2782   -2.3398    0.5424 H   0  0  0  0  0  0  0  0  0  0  0  0
    0.4644    3.8583    0.6296 H   0  0  0  0  0  0  0  0  0  0  0  0
    2.2753   -3.4821   -1.1096 H   0  0  0  0  0  0  0  0  0  0  0  0
    1.3641   -2.5455   -2.3610 H   0  0  0  0  0  0  0  0  0  0  0  0
   -0.1095   -4.2618   -1.4676 H   0  0  0  0  0  0  0  0  0  0  0  0
   -0.6878   -2.6387   -1.0670 H   0  0  0  0  0  0  0  0  0  0  0  0
    0.3689   -4.8388    0.7833 H   0  0  0  0  0  0  0  0  0  0  0  0
    0.7859   -3.1787    1.2404 H   0  0  0  0  0  0  0  0  0  0  0  0
   -1.3237   -4.0357    2.3293 H   0  0  0  0  0  0  0  0  0  0  0  0
   -2.1067   -4.1116    0.7384 H   0  0  0  0  0  0  0  0  0  0  0  0
   -0.8879   -1.5474    1.9634 H   0  0  0  0  0  0  0  0  0  0  0  0
   -1.7618   -1.6324    0.4344 H   0  0  0  0  0  0  0  0  0  0  0  0
   -2.9160   -2.2099    3.2391 H   0  0  0  0  0  0  0  0  0  0  0  0
   -3.8356   -2.4489    1.7414 H   0  0  0  0  0  0  0  0  0  0  0  0
   -2.5434    0.2518    2.4697 H   0  0  0  0  0  0  0  0  0  0  0  0
   -4.1730   -0.1806    3.0184 H   0  0  0  0  0  0  0  0  0  0  0  0
   -3.4120   -0.2254    0.0307 H   0  0  0  0  0  0  0  0  0  0  0  0
   -5.0263   -0.3498    0.7433 H   0  0  0  0  0  0  0  0  0  0  0  0
   -4.6097    2.0301    1.7582 H   0  0  0  0  0  0  0  0  0  0  0  0
   -4.9201    1.9232    0.0152 H   0  0  0  0  0  0  0  0  0  0  0  0
   -2.9703    3.4740    0.7495 H   0  0  0  0  0  0  0  0  0  0  0  0
   -2.0681    2.0075    1.1834 H   0  0  0  0  0  0  0  0  0  0  0  0
   -2.3920    1.1719   -1.2528 H   0  0  0  0  0  0  0  0  0  0  0  0
   -3.1484    2.7347   -1.6214 H   0  0  0  0  0  0  0  0  0  0  0  0
   -1.0108    3.9207   -1.0355 H   0  0  0  0  0  0  0  0  0  0  0  0
   -0.8305    2.6900   -2.3448 H   0  0  0  0  0  0  0  0  0  0  0  0
  1  9  1  0  0  0  0
  2 10  1  0  0  0  0
  3  4  1  0  0  0  0
  3  8  1  0  0  0  0
  4  5  2  0  0  0  0
  5 23  1  0  0  0  0
  5  6  1  0  0  0  0
  6 24  1  0  0  0  0
  7 25  1  0  0  0  0
  7  6  2  0  0  0  0
  8  7  1  0  0  0  0
  9 26  1  0  0  0  0
  9  4  1  0  0  0  0
 10 27  1  0  0  0  0
 10  8  2  0  0  0  0
 11 28  1  0  0  0  0
 11 12  1  0  0  0  0
 11  1  1  0  0  0  0
 12 13  1  0  0  0  0
 13 32  1  0  0  0  0
 13 33  1  0  0  0  0
 13 14  1  0  0  0  0
 14 15  1  0  0  0  0
 14 34  1  0  0  0  0
 15 36  1  0  0  0  0
 15 16  1  0  0  0  0
 16 17  1  0  0  0  0
 16 38  1  0  0  0  0
 17 40  1  0  0  0  0
 17 41  1  0  0  0  0
 18 17  1  0  0  0  0
 19 18  1  0  0  0  0
 19 44  1  0  0  0  0
 20 46  1  0  0  0  0
 20 19  1  0  0  0  0
 20 47  1  0  0  0  0
 21 20  1  0  0  0  0
 22 50  1  0  0  0  0
 22 21  1  0  0  0  0
 22  2  1  0  0  0  0
 29 11  1  0  0  0  0
 30 12  1  0  0  0  0
 31 12  1  0  0  0  0
 35 14  1  0  0  0  0
 37 15  1  0  0  0  0
 39 16  1  0  0  0  0
 42 18  1  0  0  0  0
 43 18  1  0  0  0  0
 45 19  1  0  0  0  0
 48 21  1  0  0  0  0
 49 21  1  0  0  0  0
 51 22  1  0  0  0  0
M  END
