2,3,21
 OpenBabel05122313063D

 31 32  0  0  0  0  0  0  0  0999 V2000
    0.0626   -3.5266   -0.2004 O   0  0  0  0  0  0  0  0  0  0  0  0
    1.0873    1.3136    0.0596 N   0  0  0  0  0  2  0  0  0  0  0  0
    0.1940   -1.2064   -0.0895 N   0  0  0  0  0  2  0  0  0  0  0  0
    1.4629    2.5893    0.1426 C   0  0  0  0  0  0  0  0  0  0  0  0
    0.6542    3.3365    0.1847 H   0  0  0  0  0  0  0  0  0  0  0  0
    2.8234    2.9789    0.1770 C   0  0  0  0  0  0  0  0  0  0  0  0
    3.0820    4.0453    0.2453 H   0  0  0  0  0  0  0  0  0  0  0  0
    3.8041    1.9989    0.1254 C   0  0  0  0  0  0  0  0  0  0  0  0
    4.8719    2.2677    0.1513 H   0  0  0  0  0  0  0  0  0  0  0  0
    3.4403    0.6253    0.0381 C   0  0  0  0  0  0  0  0  0  0  0  0
    4.3802   -0.4398   -0.0187 C   0  0  0  0  0  3  0  0  0  0  0  0
    5.4562   -0.2118    0.0031 H   0  0  0  0  0  0  0  0  0  0  0  0
    3.9179   -1.7492   -0.1044 C   0  0  0  0  0  0  0  0  0  0  0  0
    4.6428   -2.5769   -0.1503 H   0  0  0  0  0  0  0  0  0  0  0  0
    2.5400   -2.0649   -0.1394 C   0  0  0  0  0  0  0  0  0  0  0  0
    2.1914   -3.1015   -0.2102 H   0  0  0  0  0  0  0  0  0  0  0  0
    1.5702   -1.0449   -0.0840 C   0  0  0  0  0  0  0  0  0  0  0  0
    2.0352    0.3201    0.0050 C   0  0  0  0  0  0  0  0  0  0  0  0
   -0.4746   -2.4219   -0.1030 C   0  0  0  0  0  0  0  0  0  0  0  0
   -1.9956   -2.2385    0.1123 C   0  0  0  0  0  0  0  0  0  0  0  0
   -2.4303   -0.8406   -0.3637 C   0  0  0  0  0  3  0  0  0  0  0  0
   -3.3539   -0.4973    0.1476 H   0  0  0  0  0  0  0  0  0  0  0  0
   -2.6056   -0.8242   -1.4621 H   0  0  0  0  0  0  0  0  0  0  0  0
   -2.2213   -2.3778    1.6353 C   0  0  0  0  0  0  0  0  0  0  0  0
   -1.6887   -1.5762    2.1865 H   0  0  0  0  0  0  0  0  0  0  0  0
   -1.8546   -3.3586    1.9987 H   0  0  0  0  0  0  0  0  0  0  0  0
   -3.3035   -2.2986    1.8698 H   0  0  0  0  0  0  0  0  0  0  0  0
   -2.7510   -3.3523   -0.6267 C   0  0  0  0  0  0  0  0  0  0  0  0
   -3.8349   -3.3143   -0.3940 H   0  0  0  0  0  0  0  0  0  0  0  0
   -2.3488   -4.3415   -0.3288 H   0  0  0  0  0  0  0  0  0  0  0  0
   -2.6275   -3.2572   -1.7246 H   0  0  0  0  0  0  0  0  0  0  0  0
  1 19  2  0  0  0  0
  2  4  1  0  0  0  0
  3 17  1  0  0  0  0
  4  6  2  0  0  0  0
  4  5  1  0  0  0  0
  6  7  1  0  0  0  0
  8  9  1  0  0  0  0
  8  6  1  0  0  0  0
 10  8  2  0  0  0  0
 11 12  1  0  0  0  0
 11 10  1  0  0  0  0
 13 11  1  0  0  0  0
 14 13  1  0  0  0  0
 15 13  2  0  0  0  0
 15 17  1  0  0  0  0
 16 15  1  0  0  0  0
 17 18  2  0  0  0  0
 18 10  1  0  0  0  0
 18  2  1  0  0  0  0
 19  3  1  0  0  0  0
 19 20  1  0  0  0  0
 20 24  1  0  0  0  0
 21 20  1  0  0  0  0
 21 22  1  0  0  0  0
 23 21  1  0  0  0  0
 24 27  1  0  0  0  0
 24 26  1  0  0  0  0
 24 25  1  0  0  0  0
 28 29  1  0  0  0  0
 28 30  1  0  0  0  0
 28 20  1  0  0  0  0
 31 28  1  0  0  0  0
M  END
