1,2,13
 OpenBabel05122313063D

 46 49  0  0  1  0  0  0  0  0999 V2000
   -0.6809   -1.4975    0.5657 N   0  0  0  0  0  2  0  0  0  0  0  0
   -2.3270    0.6275    0.2193 N   0  0  0  0  0  2  0  0  0  0  0  0
   -1.8297   -3.3687    1.1031 O   0  0  0  0  0  0  0  0  0  0  0  0
   -2.7325    1.7208   -0.5703 C   0  0  0  0  0  0  0  0  0  0  0  0
   -1.6830    2.6446   -0.8074 C   0  0  0  0  0  0  0  0  0  0  0  0
   -1.8915    3.7411   -1.6520 C   0  0  0  0  0  0  0  0  0  0  0  0
   -1.0705    4.4545   -1.8292 H   0  0  0  0  0  0  0  0  0  0  0  0
   -3.1394    3.9164   -2.2792 C   0  0  0  0  0  0  0  0  0  0  0  0
   -3.3073    4.7707   -2.9526 H   0  0  0  0  0  0  0  0  0  0  0  0
   -4.1527    2.9700   -2.0817 C   0  0  0  0  0  0  0  0  0  0  0  0
   -5.1055    3.0714   -2.6264 H   0  0  0  0  0  0  0  0  0  0  0  0
   -3.9785    1.8444   -1.2445 C   0  0  0  0  0  0  0  0  0  0  0  0
   -0.4000    2.3215   -0.1009 C   0  0  0  0  0  3  0  0  0  0  0  0
   -0.3614    2.7868    0.9127 H   0  0  0  0  0  0  0  0  0  0  0  0
    0.4702    2.7170   -0.6657 H   0  0  0  0  0  0  0  0  0  0  0  0
   -5.0370    0.7737   -1.1952 C   0  0  0  0  0  0  0  0  0  0  0  0
   -4.5812   -0.2379   -1.1755 H   0  0  0  0  0  0  0  0  0  0  0  0
   -5.7013    0.8416   -2.0790 H   0  0  0  0  0  0  0  0  0  0  0  0
   -5.6743    0.8320   -0.2869 H   0  0  0  0  0  0  0  0  0  0  0  0
   -3.1174    0.0682    1.1835 C   0  0  1  0  0  3  0  0  0  0  0  0
   -2.8594   -1.2680    1.6742 C   0  0  0  0  0  0  0  0  0  0  0  0
   -3.7230   -1.8712    2.6201 C   0  0  0  0  0  0  0  0  0  0  0  0
   -3.5035   -2.9013    2.9372 H   0  0  0  0  0  0  0  0  0  0  0  0
   -4.8090   -1.1787    3.1489 C   0  0  0  0  0  0  0  0  0  0  0  0
   -5.4629   -1.6489    3.8971 H   0  0  0  0  0  0  0  0  0  0  0  0
   -5.0392    0.1510    2.7230 C   0  0  0  0  0  0  0  0  0  0  0  0
   -5.8672    0.7288    3.1635 H   0  0  0  0  0  0  0  0  0  0  0  0
   -4.2280    0.7550    1.7681 C   0  0  0  0  0  0  0  0  0  0  0  0
   -4.4071    1.7963    1.4639 H   0  0  0  0  0  0  0  0  0  0  0  0
   -1.7591   -2.0122    1.1206 C   0  0  0  0  0  0  0  0  0  0  0  0
    0.0313   -2.5855   -0.1197 C   0  0  1  0  0  0  0  0  0  0  0  0
    1.1141   -2.5322    0.1056 H   0  0  0  0  0  0  0  0  0  0  0  0
   -0.5804   -3.8396    0.5518 C   0  0  0  0  0  0  0  0  0  0  0  0
   -0.7970   -4.6646   -0.1525 H   0  0  0  0  0  0  0  0  0  0  0  0
    0.0562   -4.2093    1.3839 H   0  0  0  0  0  0  0  0  0  0  0  0
   -0.1381   -2.5109   -1.6303 C   0  0  0  0  0  0  0  0  0  0  0  0
    0.7975   -3.1606   -2.4583 C   0  0  0  0  0  0  0  0  0  0  0  0
    1.6399   -3.7052   -2.0016 H   0  0  0  0  0  0  0  0  0  0  0  0
    0.6833   -3.0969   -3.8545 C   0  0  0  0  0  0  0  0  0  0  0  0
    1.4281   -3.6016   -4.4887 H   0  0  0  0  0  0  0  0  0  0  0  0
   -0.3678   -2.3724   -4.4406 C   0  0  0  0  0  0  0  0  0  0  0  0
   -0.4536   -2.3115   -5.5363 H   0  0  0  0  0  0  0  0  0  0  0  0
   -1.3038   -1.7209   -3.6213 C   0  0  0  0  0  0  0  0  0  0  0  0
   -2.1250   -1.1415   -4.0700 H   0  0  0  0  0  0  0  0  0  0  0  0
   -1.1937   -1.7913   -2.2236 C   0  0  0  0  0  0  0  0  0  0  0  0
   -1.9057   -1.2446   -1.5866 H   0  0  0  0  0  0  0  0  0  0  0  0
  1 30  1  0  0  0  0
  3 30  1  0  0  0  0
  4  2  1  0  0  0  0
  5  4  1  0  0  0  0
  5 13  1  0  0  0  0
  6  5  2  0  0  0  0
  7  6  1  0  0  0  0
  8 10  2  0  0  0  0
  8  6  1  0  0  0  0
  9  8  1  0  0  0  0
 10 12  1  0  0  0  0
 11 10  1  0  0  0  0
 12 16  1  0  0  0  0
 12  4  2  0  0  0  0
 13 14  1  0  0  0  0
 15 13  1  0  0  0  0
 16 17  1  0  0  0  0
 16 19  1  0  0  0  0
 18 16  1  0  0  0  0
 20  2  1  1  0  0  0
 20 21  1  0  0  0  0
 20 28  1  0  0  0  0
 21 22  1  0  0  0  0
 22 23  1  0  0  0  0
 22 24  2  0  0  0  0
 24 25  1  0  0  0  0
 26 24  1  0  0  0  0
 26 27  1  0  0  0  0
 28 26  2  0  0  0  0
 29 28  1  0  0  0  0
 30 21  2  0  0  0  0
 31 32  1  1  0  0  0
 31 33  1  0  0  0  0
 31  1  1  0  0  0  0
 33  3  1  0  0  0  0
 33 35  1  0  0  0  0
 34 33  1  0  0  0  0
 36 31  1  0  0  0  0
 37 38  1  0  0  0  0
 37 36  2  0  0  0  0
 39 37  1  0  0  0  0
 40 39  1  0  0  0  0
 41 39  2  0  0  0  0
 41 43  1  0  0  0  0
 42 41  1  0  0  0  0
 43 45  2  0  0  0  0
 44 43  1  0  0  0  0
 45 36  1  0  0  0  0
 45 46  1  0  0  0  0
M  END
