1,11,14
 OpenBabel05122313063D

 45 47  0  0  1  0  0  0  0  0999 V2000
   -0.4403    1.7877   -0.2801 N   0  0  0  0  0  2  0  0  0  0  0  0
    0.4193    2.7351   -1.0041 C   0  0  1  0  0  0  0  0  0  0  0  0
    0.3049    2.5254   -2.5336 C   0  0  0  0  0  0  0  0  0  0  0  0
    1.2863    3.4322   -3.2819 C   0  0  0  0  0  0  0  0  0  0  0  0
   -1.1316    2.6529   -3.0476 C   0  0  0  0  0  0  0  0  0  0  0  0
   -0.0752    4.0935   -0.4610 C   0  0  0  0  0  0  0  0  0  0  0  0
   -1.3631    3.8030    0.1341 O   0  0  0  0  0  0  0  0  0  0  0  0
   -1.4425    2.4526    0.2464 C   0  0  2  0  0  3  0  0  0  0  0  0
   -2.5683    1.8595    0.9182 C   0  0  0  0  0  0  0  0  0  0  0  0
   -2.9173    0.4796    0.6564 C   0  0  0  0  0  0  0  0  0  0  0  0
   -2.2751   -0.2636   -0.3012 N   0  0  0  0  0  2  0  0  0  0  0  0
   -2.8066   -1.4439   -0.8290 C   0  0  0  0  0  0  0  0  0  0  0  0
   -1.8209   -2.4315   -1.1181 C   0  0  0  0  0  0  0  0  0  0  0  0
   -0.4254   -1.9187   -1.1478 C   0  0  0  0  0  3  0  0  0  0  0  0
   -2.2126   -3.7337   -1.4657 C   0  0  0  0  0  0  0  0  0  0  0  0
   -3.5728   -4.0263   -1.6497 C   0  0  0  0  0  0  0  0  0  0  0  0
   -4.5224   -2.9961   -1.5467 C   0  0  0  0  0  0  0  0  0  0  0  0
   -4.1735   -1.6844   -1.1676 C   0  0  0  0  0  0  0  0  0  0  0  0
   -5.2059   -0.5876   -1.2041 C   0  0  0  0  0  0  0  0  0  0  0  0
   -3.9407   -0.0730    1.4921 C   0  0  0  0  0  0  0  0  0  0  0  0
   -4.6189    0.6951    2.4324 C   0  0  0  0  0  0  0  0  0  0  0  0
   -4.3338    2.0700    2.6025 C   0  0  0  0  0  0  0  0  0  0  0  0
   -3.3048    2.6300    1.8516 C   0  0  0  0  0  0  0  0  0  0  0  0
    1.4769    2.5674   -0.7192 H   0  0  0  0  0  0  0  0  0  0  0  0
    0.6213    1.4674   -2.6853 H   0  0  0  0  0  0  0  0  0  0  0  0
    1.2855    3.2086   -4.3675 H   0  0  0  0  0  0  0  0  0  0  0  0
    1.0169    4.5043   -3.1710 H   0  0  0  0  0  0  0  0  0  0  0  0
    2.3236    3.3063   -2.9073 H   0  0  0  0  0  0  0  0  0  0  0  0
   -1.1778    2.4537   -4.1371 H   0  0  0  0  0  0  0  0  0  0  0  0
   -1.5416    3.6712   -2.8801 H   0  0  0  0  0  0  0  0  0  0  0  0
   -1.7966    1.9245   -2.5416 H   0  0  0  0  0  0  0  0  0  0  0  0
    0.5935    4.4924    0.3305 H   0  0  0  0  0  0  0  0  0  0  0  0
   -0.2236    4.8699   -1.2366 H   0  0  0  0  0  0  0  0  0  0  0  0
    0.3343   -2.6990   -0.9310 H   0  0  0  0  0  0  0  0  0  0  0  0
   -0.1889   -1.5194   -2.1699 H   0  0  0  0  0  0  0  0  0  0  0  0
   -1.4426   -4.5025   -1.6395 H   0  0  0  0  0  0  0  0  0  0  0  0
   -3.8903   -5.0410   -1.9344 H   0  0  0  0  0  0  0  0  0  0  0  0
   -5.5779   -3.2057   -1.7860 H   0  0  0  0  0  0  0  0  0  0  0  0
   -5.9991   -0.8312   -1.9384 H   0  0  0  0  0  0  0  0  0  0  0  0
   -5.6960   -0.4136   -0.2223 H   0  0  0  0  0  0  0  0  0  0  0  0
   -4.7482    0.3812   -1.4894 H   0  0  0  0  0  0  0  0  0  0  0  0
   -4.1673   -1.1434    1.3886 H   0  0  0  0  0  0  0  0  0  0  0  0
   -5.3850    0.2136    3.0608 H   0  0  0  0  0  0  0  0  0  0  0  0
   -4.8883    2.6739    3.3347 H   0  0  0  0  0  0  0  0  0  0  0  0
   -3.0176    3.6832    1.9863 H   0  0  0  0  0  0  0  0  0  0  0  0
  1  8  1  0  0  0  0
  2 24  1  1  0  0  0
  2  6  1  0  0  0  0
  2  1  1  0  0  0  0
  3  2  1  0  0  0  0
  4 27  1  0  0  0  0
  4 28  1  0  0  0  0
  4  3  1  0  0  0  0
  5 30  1  0  0  0  0
  5 31  1  0  0  0  0
  5  3  1  0  0  0  0
  6  7  1  0  0  0  0
  6 32  1  0  0  0  0
  7  8  1  0  0  0  0
  8  9  1  1  0  0  0
  9 23  1  0  0  0  0
 10  9  2  0  0  0  0
 10 20  1  0  0  0  0
 11 10  1  0  0  0  0
 12 11  1  0  0  0  0
 13 12  1  0  0  0  0
 14 13  1  0  0  0  0
 14 34  1  0  0  0  0
 15 13  2  0  0  0  0
 16 17  2  0  0  0  0
 16 15  1  0  0  0  0
 17 18  1  0  0  0  0
 18 12  2  0  0  0  0
 19 18  1  0  0  0  0
 19 40  1  0  0  0  0
 20 21  2  0  0  0  0
 21 22  1  0  0  0  0
 21 43  1  0  0  0  0
 22 44  1  0  0  0  0
 23 45  1  0  0  0  0
 23 22  2  0  0  0  0
 25  3  1  0  0  0  0
 26  4  1  0  0  0  0
 29  5  1  0  0  0  0
 33  6  1  0  0  0  0
 35 14  1  0  0  0  0
 36 15  1  0  0  0  0
 37 16  1  0  0  0  0
 38 17  1  0  0  0  0
 39 19  1  0  0  0  0
 41 19  1  0  0  0  0
 42 20  1  0  0  0  0
M  END
