2,6,46
 OpenBabel05122313063D

 54 57  0  0  0  0  0  0  0  0999 V2000
    2.5221    0.6791    0.4237 N   0  0  0  0  0  0  0  0  0  0  0  0
    1.1499    0.6179    0.4918 N   0  0  0  0  0  2  0  0  0  0  0  0
    0.4658    1.7199    0.8040 C   0  0  0  0  0  0  0  0  0  0  0  0
   -0.9687    1.6124    0.7308 C   0  0  0  0  0  0  0  0  0  0  0  0
   -1.6260    2.4514    1.0027 H   0  0  0  0  0  0  0  0  0  0  0  0
   -1.4578    0.4515    0.3030 N   0  0  0  0  0  2  0  0  0  0  0  0
   -2.7616    0.1671    0.1255 N   0  0  0  0  0  0  0  0  0  0  0  0
    3.2031   -0.4455    0.9500 C   0  0  0  0  0  0  0  0  0  0  0  0
    2.6641   -1.0946    2.0809 C   0  0  0  0  0  0  0  0  0  0  0  0
    1.7438   -0.7054    2.5370 H   0  0  0  0  0  0  0  0  0  0  0  0
    3.2886   -2.2374    2.5929 C   0  0  0  0  0  0  0  0  0  0  0  0
    2.8513   -2.7457    3.4655 H   0  0  0  0  0  0  0  0  0  0  0  0
    4.4615   -2.7325    2.0032 C   0  0  0  0  0  0  0  0  0  0  0  0
    4.9510   -3.6303    2.4087 H   0  0  0  0  0  0  0  0  0  0  0  0
    5.0017   -2.0762    0.8842 C   0  0  0  0  0  0  0  0  0  0  0  0
    5.9097   -2.4677    0.4010 H   0  0  0  0  0  0  0  0  0  0  0  0
    4.3775   -0.9451    0.3487 C   0  0  0  0  0  0  0  0  0  0  0  0
    4.7779   -0.4663   -0.5550 H   0  0  0  0  0  0  0  0  0  0  0  0
    3.1353    1.5939   -0.4720 C   0  0  0  0  0  0  0  0  0  0  0  0
    2.5028    1.9282   -1.6885 C   0  0  0  0  0  0  0  0  0  0  0  0
    1.5463    1.4503   -1.9462 H   0  0  0  0  0  0  0  0  0  0  0  0
    3.1058    2.8464   -2.5583 C   0  0  0  0  0  0  0  0  0  0  0  0
    2.6071    3.0964   -3.5071 H   0  0  0  0  0  0  0  0  0  0  0  0
    4.3450    3.4262   -2.2401 C   0  0  0  0  0  0  0  0  0  0  0  0
    4.8171    4.1411   -2.9300 H   0  0  0  0  0  0  0  0  0  0  0  0
    4.9772    3.0834   -1.0327 C   0  0  0  0  0  0  0  0  0  0  0  0
    5.9458    3.5351   -0.7693 H   0  0  0  0  0  0  0  0  0  0  0  0
    4.3766    2.1812   -0.1461 C   0  0  0  0  0  0  0  0  0  0  0  0
    4.8605    1.9233    0.8070 H   0  0  0  0  0  0  0  0  0  0  0  0
    1.1052    3.0137    1.2039 C   0  0  0  0  0  0  0  0  0  0  0  0
    2.0015    2.8197    1.8256 H   0  0  0  0  0  0  0  0  0  0  0  0
    1.4565    3.5864    0.3187 H   0  0  0  0  0  0  0  0  0  0  0  0
    0.3933    3.6461    1.7669 H   0  0  0  0  0  0  0  0  0  0  0  0
   -3.7756    1.1301    0.4138 C   0  0  0  0  0  0  0  0  0  0  0  0
   -4.1145    1.4077    1.7510 C   0  0  0  0  0  0  0  0  0  0  0  0
   -3.6038    0.8643    2.5595 H   0  0  0  0  0  0  0  0  0  0  0  0
   -5.1018    2.3638    2.0285 C   0  0  0  0  0  0  0  0  0  0  0  0
   -5.3719    2.5822    3.0725 H   0  0  0  0  0  0  0  0  0  0  0  0
   -5.7542    3.0289    0.9771 C   0  0  0  0  0  0  0  0  0  0  0  0
   -6.5334    3.7735    1.1984 H   0  0  0  0  0  0  0  0  0  0  0  0
   -5.4176    2.7416   -0.3559 C   0  0  0  0  0  0  0  0  0  0  0  0
   -5.9305    3.2607   -1.1793 H   0  0  0  0  0  0  0  0  0  0  0  0
   -4.4229    1.7957   -0.6430 C   0  0  0  0  0  0  0  0  0  0  0  0
   -4.1424    1.5570   -1.6791 H   0  0  0  0  0  0  0  0  0  0  0  0
   -3.0104   -1.1222   -0.4143 C   0  0  0  0  0  0  0  0  0  0  0  0
   -1.8616   -1.9141   -0.7118 C   0  0  0  0  0  2  0  0  0  0  0  0
   -2.0670   -3.1954   -1.2361 C   0  0  0  0  0  3  0  0  0  0  0  0
   -1.1864   -3.8129   -1.4677 H   0  0  0  0  0  0  0  0  0  0  0  0
   -3.3718   -3.6761   -1.4721 C   0  0  0  0  0  0  0  0  0  0  0  0
   -3.5124   -4.6803   -1.9013 H   0  0  0  0  0  0  0  0  0  0  0  0
   -4.4873   -2.8838   -1.1647 C   0  0  0  0  0  0  0  0  0  0  0  0
   -5.5050   -3.2640   -1.3398 H   0  0  0  0  0  0  0  0  0  0  0  0
   -4.3157   -1.5978   -0.6251 C   0  0  0  0  0  0  0  0  0  0  0  0
   -5.1858   -0.9766   -0.3666 H   0  0  0  0  0  0  0  0  0  0  0  0
  1  2  1  0  0  0  0
  1  8  1  0  0  0  0
  2  3  1  0  0  0  0
  3 30  1  0  0  0  0
  4  3  2  0  0  0  0
  4  5  1  0  0  0  0
  6  4  1  0  0  0  0
  7  6  1  0  0  0  0
  7 34  1  0  0  0  0
  8  9  1  0  0  0  0
  9 10  1  0  0  0  0
  9 11  2  0  0  0  0
 11 12  1  0  0  0  0
 13 14  1  0  0  0  0
 13 11  1  0  0  0  0
 15 13  2  0  0  0  0
 16 15  1  0  0  0  0
 17 15  1  0  0  0  0
 17  8  2  0  0  0  0
 18 17  1  0  0  0  0
 19 28  1  0  0  0  0
 19  1  1  0  0  0  0
 20 19  2  0  0  0  0
 21 20  1  0  0  0  0
 22 24  2  0  0  0  0
 22 20  1  0  0  0  0
 23 22  1  0  0  0  0
 24 26  1  0  0  0  0
 25 24  1  0  0  0  0
 26 27  1  0  0  0  0
 26 28  2  0  0  0  0
 28 29  1  0  0  0  0
 30 33  1  0  0  0  0
 30 31  1  0  0  0  0
 32 30  1  0  0  0  0
 34 35  1  0  0  0  0
 35 37  2  0  0  0  0
 35 36  1  0  0  0  0
 37 38  1  0  0  0  0
 39 40  1  0  0  0  0
 39 37  1  0  0  0  0
 41 39  2  0  0  0  0
 42 41  1  0  0  0  0
 43 41  1  0  0  0  0
 43 34  2  0  0  0  0
 44 43  1  0  0  0  0
 45  7  1  0  0  0  0
 46 45  1  0  0  0  0
 47 46  1  0  0  0  0
 48 47  1  0  0  0  0
 49 47  1  0  0  0  0
 49 51  2  0  0  0  0
 50 49  1  0  0  0  0
 51 53  1  0  0  0  0
 52 51  1  0  0  0  0
 53 45  2  0  0  0  0
 53 54  1  0  0  0  0
M  END
