1,2,30
 OpenBabel05122313063D

 35 35  0  0  0  0  0  0  0  0999 V2000
    0.6453    2.0994    0.0327 N   0  0  0  0  0  0  0  0  0  0  0  0
    0.6453   -2.0994   -0.0326 N   0  0  0  0  0  0  0  0  0  0  0  0
   -1.6792   -1.2180    0.1916 C   0  0  0  0  0  0  0  0  0  0  0  0
   -0.7560   -2.3734    0.4963 C   0  0  0  0  0  0  0  0  0  0  0  0
   -1.1084   -3.3533    0.1047 H   0  0  0  0  0  0  0  0  0  0  0  0
   -0.6523   -2.4766    1.5966 H   0  0  0  0  0  0  0  0  0  0  0  0
    0.7390   -2.5189   -1.4554 C   0  0  0  0  0  0  0  0  0  0  0  0
   -0.0396   -1.9971   -2.0403 H   0  0  0  0  0  0  0  0  0  0  0  0
    0.5970   -3.6203   -1.5378 H   0  0  0  0  0  0  0  0  0  0  0  0
    1.7341   -2.2372   -1.8450 H   0  0  0  0  0  0  0  0  0  0  0  0
   -5.2168   -0.0000   -0.0000 C   0  0  0  0  0  0  0  0  0  0  0  0
    1.6521   -2.8319    0.7719 C   0  0  0  0  0  0  0  0  0  0  0  0
    1.5668   -2.5178    1.8279 H   0  0  0  0  0  0  0  0  0  0  0  0
    2.6592   -2.5508    0.4116 H   0  0  0  0  0  0  0  0  0  0  0  0
    1.4877   -3.9293    0.6895 H   0  0  0  0  0  0  0  0  0  0  0  0
    0.7390    2.5189    1.4555 C   0  0  0  0  0  0  0  0  0  0  0  0
   -0.0397    1.9971    2.0403 H   0  0  0  0  0  0  0  0  0  0  0  0
    0.5969    3.6203    1.5378 H   0  0  0  0  0  0  0  0  0  0  0  0
    1.7340    2.2373    1.8450 H   0  0  0  0  0  0  0  0  0  0  0  0
   -3.0777   -1.2221    0.1787 C   0  0  0  0  0  0  0  0  0  0  0  0
   -3.6531   -2.1501    0.3196 H   0  0  0  0  0  0  0  0  0  0  0  0
   -1.6792    1.2180   -0.1916 C   0  0  0  0  0  0  0  0  0  0  0  0
    1.6521    2.8319   -0.7718 C   0  0  0  0  0  0  0  0  0  0  0  0
    1.5668    2.5179   -1.8279 H   0  0  0  0  0  0  0  0  0  0  0  0
    2.6592    2.5508   -0.4115 H   0  0  0  0  0  0  0  0  0  0  0  0
    1.4877    3.9293   -0.6894 H   0  0  0  0  0  0  0  0  0  0  0  0
   -3.0777    1.2221   -0.1787 C   0  0  0  0  0  0  0  0  0  0  0  0
   -3.6531    2.1501   -0.3196 H   0  0  0  0  0  0  0  0  0  0  0  0
   -3.7884   -0.0000   -0.0000 C   0  0  0  0  0  0  0  0  0  0  0  0
   -0.9953   -0.0000   -0.0000 C   0  0  0  0  0  3  0  0  0  0  0  0
   -6.4439    0.0000   -0.0001 C   0  0  0  0  0  0  0  0  0  0  0  0
   -7.5243    0.0000    0.0000 H   0  0  0  0  0  0  0  0  0  0  0  0
   -0.7560    2.3734   -0.4963 C   0  0  0  0  0  0  0  0  0  0  0  0
   -1.1085    3.3533   -0.1047 H   0  0  0  0  0  0  0  0  0  0  0  0
   -0.6523    2.4766   -1.5965 H   0  0  0  0  0  0  0  0  0  0  0  0
  1 16  1  0  0  0  0
  2  4  1  0  0  0  0
  2 12  1  0  0  0  0
  3  4  1  0  0  0  0
  4  6  1  0  0  0  0
  5  4  1  0  0  0  0
  7  2  1  0  0  0  0
  8  7  1  0  0  0  0
  9  7  1  0  0  0  0
 10  7  1  0  0  0  0
 11 29  1  0  0  0  0
 12 13  1  0  0  0  0
 14 12  1  0  0  0  0
 15 12  1  0  0  0  0
 16 18  1  0  0  0  0
 16 19  1  0  0  0  0
 16 17  1  0  0  0  0
 20  3  1  0  0  0  0
 20 21  1  0  0  0  0
 22 27  2  0  0  0  0
 22 30  1  0  0  0  0
 23 26  1  0  0  0  0
 23 25  1  0  0  0  0
 23  1  1  0  0  0  0
 24 23  1  0  0  0  0
 27 29  1  0  0  0  0
 28 27  1  0  0  0  0
 29 20  2  0  0  0  0
 30  3  2  0  0  0  0
 31 11  3  0  0  0  0
 31 32  1  0  0  0  0
 33 22  1  0  0  0  0
 33 34  1  0  0  0  0
 33  1  1  0  0  0  0
 35 33  1  0  0  0  0
M  END
