3,4,26
 OpenBabel05122313063D

 38 40  0  0  1  0  0  0  0  0999 V2000
    1.6617    1.8734    0.0807 N   0  0  0  0  0  0  0  0  0  0  0  0
    2.5050    2.4289    0.2308 H   0  0  0  0  0  0  0  0  0  0  0  0
    0.9381   -0.3310   -0.2791 N   0  0  0  0  0  2  0  0  0  0  0  0
   -1.1405   -2.0437   -0.3151 N   0  0  0  0  0  2  0  0  0  0  0  0
    1.8944    0.5416   -0.0467 C   0  0  2  0  0  3  0  0  0  0  0  0
    3.3316    0.1567    0.1211 C   0  0  0  0  0  0  0  0  0  0  0  0
    4.0767   -0.3525   -0.9628 C   0  0  0  0  0  0  0  0  0  0  0  0
    3.5981   -0.4645   -1.9475 H   0  0  0  0  0  0  0  0  0  0  0  0
    5.4257   -0.6928   -0.7921 C   0  0  0  0  0  0  0  0  0  0  0  0
    6.0025   -1.0817   -1.6448 H   0  0  0  0  0  0  0  0  0  0  0  0
    6.0423   -0.5293    0.4594 C   0  0  0  0  0  0  0  0  0  0  0  0
    7.1010   -0.7989    0.5911 H   0  0  0  0  0  0  0  0  0  0  0  0
    5.3075   -0.0183    1.5404 C   0  0  0  0  0  0  0  0  0  0  0  0
    5.7863    0.1103    2.5228 H   0  0  0  0  0  0  0  0  0  0  0  0
    3.9577    0.3272    1.3737 C   0  0  0  0  0  0  0  0  0  0  0  0
    3.3750    0.7190    2.2215 H   0  0  0  0  0  0  0  0  0  0  0  0
    0.4770    2.6249   -0.0761 C   0  0  0  0  0  0  0  0  0  0  0  0
    0.6346    4.0309   -0.0208 C   0  0  0  0  0  0  0  0  0  0  0  0
    1.6372    4.4590    0.1503 H   0  0  0  0  0  0  0  0  0  0  0  0
   -0.4679    4.8706   -0.1871 C   0  0  0  0  0  0  0  0  0  0  0  0
   -0.3374    5.9623   -0.1429 H   0  0  0  0  0  0  0  0  0  0  0  0
   -1.7342    4.3048   -0.4159 C   0  0  0  0  0  0  0  0  0  0  0  0
   -2.6117    4.9547   -0.5585 H   0  0  0  0  0  0  0  0  0  0  0  0
   -1.8837    2.9118   -0.4606 C   0  0  0  0  0  3  0  0  0  0  0  0
   -2.8743    2.4665   -0.6334 H   0  0  0  0  0  0  0  0  0  0  0  0
   -0.7921    2.0304   -0.2859 C   0  0  0  0  0  2  0  0  0  0  0  0
    1.2785   -1.7509   -0.3767 C   0  0  0  0  0  0  0  0  0  0  0  0
    2.0359   -2.0394    0.3845 H   0  0  0  0  0  0  0  0  0  0  0  0
    1.7446   -1.9717   -1.3651 H   0  0  0  0  0  0  0  0  0  0  0  0
    0.0689   -2.6437   -0.2458 C   0  0  2  0  0  3  0  0  0  0  0  0
    0.1861   -4.0354   -0.1004 C   0  0  0  0  0  0  0  0  0  0  0  0
    1.1822   -4.4982   -0.0368 H   0  0  0  0  0  0  0  0  0  0  0  0
   -0.9775   -4.8119   -0.0344 C   0  0  0  0  0  0  0  0  0  0  0  0
   -0.9111   -5.9035    0.0865 H   0  0  0  0  0  0  0  0  0  0  0  0
   -2.2259   -4.1761   -0.1220 C   0  0  0  0  0  0  0  0  0  0  0  0
   -3.1637   -4.7474   -0.0772 H   0  0  0  0  0  0  0  0  0  0  0  0
   -2.2651   -2.7861   -0.2600 C   0  0  0  0  0  0  0  0  0  0  0  0
   -3.2054   -2.2226   -0.3358 H   0  0  0  0  0  0  0  0  0  0  0  0
  1  2  1  0  0  0  0
  4 37  1  0  0  0  0
  4 30  1  0  0  0  0
  5  3  1  1  0  0  0
  5  1  1  0  0  0  0
  5  6  1  0  0  0  0
  6 15  1  0  0  0  0
  7  9  1  0  0  0  0
  7  6  2  0  0  0  0
  8  7  1  0  0  0  0
  9 11  2  0  0  0  0
 10  9  1  0  0  0  0
 11 12  1  0  0  0  0
 11 13  1  0  0  0  0
 13 14  1  0  0  0  0
 15 13  2  0  0  0  0
 15 16  1  0  0  0  0
 17 18  2  0  0  0  0
 17  1  1  0  0  0  0
 18 19  1  0  0  0  0
 20 21  1  0  0  0  0
 20 18  1  0  0  0  0
 22 20  2  0  0  0  0
 23 22  1  0  0  0  0
 24 22  1  0  0  0  0
 24 26  1  0  0  0  0
 25 24  1  0  0  0  0
 26 17  1  0  0  0  0
 27  3  1  0  0  0  0
 27 28  1  0  0  0  0
 29 27  1  0  0  0  0
 30 27  1  6  0  0  0
 30 31  1  0  0  0  0
 31 32  1  0  0  0  0
 31 33  2  0  0  0  0
 33 34  1  0  0  0  0
 35 36  1  0  0  0  0
 35 33  1  0  0  0  0
 37 35  2  0  0  0  0
 38 37  1  0  0  0  0
M  END
