2,3,6
 OpenBabel05122313063D

 31 31  0  0  1  0  0  0  0  0999 V2000
   -2.4652   -0.3705   -0.0136 Si  0  0  0  0  0  0  0  0  0  0  0  0
   -1.1530    0.8280   -0.0810 N   0  0  0  0  0  2  0  0  0  0  0  0
    1.4517    1.8713    0.4982 N   0  0  0  0  0  0  0  0  0  0  0  0
    1.4720    1.8022    1.5304 H   0  0  0  0  0  0  0  0  0  0  0  0
    2.4246    1.7527    0.1748 H   0  0  0  0  0  0  0  0  0  0  0  0
   -1.2531   -1.7869   -0.2477 C   0  0  1  0  0  3  0  0  0  0  0  0
   -0.4808   -1.8590   -1.4585 C   0  0  0  0  0  3  0  0  0  0  0  0
   -0.7864   -1.4742   -2.4379 H   0  0  0  0  0  0  0  0  0  0  0  0
    0.7952   -2.4103   -1.1592 C   0  0  0  0  0  0  0  0  0  0  0  0
    1.6264   -2.5381   -1.8619 H   0  0  0  0  0  0  0  0  0  0  0  0
    0.8307   -2.6936    0.2381 C   0  0  0  0  0  0  0  0  0  0  0  0
    1.6944   -3.0752    0.7932 H   0  0  0  0  0  0  0  0  0  0  0  0
   -0.4274   -2.3262    0.7912 C   0  0  0  0  0  3  0  0  0  0  0  0
   -0.6844   -2.3702    1.8543 H   0  0  0  0  0  0  0  0  0  0  0  0
   -1.4559    2.2247   -0.3354 C   0  0  0  0  0  0  0  0  0  0  0  0
   -2.5288    2.4319   -0.1170 H   0  0  0  0  0  0  0  0  0  0  0  0
   -1.3167    2.4066   -1.4311 H   0  0  0  0  0  0  0  0  0  0  0  0
   -0.6006    3.2362    0.4289 C   0  0  0  0  0  0  0  0  0  0  0  0
   -0.9683    4.2569    0.1957 H   0  0  0  0  0  0  0  0  0  0  0  0
   -0.7299    3.0864    1.5230 H   0  0  0  0  0  0  0  0  0  0  0  0
    0.8725    3.1482    0.0567 C   0  0  0  0  0  0  0  0  0  0  0  0
    0.9933    3.2031   -1.0444 H   0  0  0  0  0  0  0  0  0  0  0  0
    1.4410    3.9917    0.5056 H   0  0  0  0  0  0  0  0  0  0  0  0
   -3.3027   -0.3789    1.6662 C   0  0  0  0  0  0  0  0  0  0  0  0
   -2.5321   -0.4419    2.4607 H   0  0  0  0  0  0  0  0  0  0  0  0
   -4.0033   -1.2326    1.7686 H   0  0  0  0  0  0  0  0  0  0  0  0
   -3.8788    0.5561    1.8209 H   0  0  0  0  0  0  0  0  0  0  0  0
   -3.6735   -0.1774   -1.4416 C   0  0  0  0  0  0  0  0  0  0  0  0
   -3.1397   -0.1505   -2.4125 H   0  0  0  0  0  0  0  0  0  0  0  0
   -4.2604    0.7590   -1.3478 H   0  0  0  0  0  0  0  0  0  0  0  0
   -4.3900   -1.0244   -1.4590 H   0  0  0  0  0  0  0  0  0  0  0  0
  1 24  1  0  0  0  0
  2  1  1  0  0  0  0
  3  4  1  0  0  0  0
  5  3  1  0  0  0  0
  6  1  1  1  0  0  0
  6 13  1  0  0  0  0
  7  9  1  0  0  0  0
  7  6  1  0  0  0  0
  8  7  1  0  0  0  0
  9 11  2  0  0  0  0
 10  9  1  0  0  0  0
 11 13  1  0  0  0  0
 11 12  1  0  0  0  0
 13 14  1  0  0  0  0
 15 16  1  0  0  0  0
 15  2  1  0  0  0  0
 15 18  1  0  0  0  0
 17 15  1  0  0  0  0
 18 20  1  0  0  0  0
 19 18  1  0  0  0  0
 21 18  1  0  0  0  0
 21  3  1  0  0  0  0
 21 23  1  0  0  0  0
 22 21  1  0  0  0  0
 24 26  1  0  0  0  0
 24 27  1  0  0  0  0
 24 25  1  0  0  0  0
 28 30  1  0  0  0  0
 28  1  1  0  0  0  0
 29 28  1  0  0  0  0
 31 28  1  0  0  0  0
M  END
