1,22,44
 OpenBabel05122313063D

 53 55  0  0  1  0  0  0  0  0999 V2000
   -3.5938   -0.7951   -0.0262 N   0  0  0  0  0  2  0  0  0  0  0  0
   -4.2988    0.3638   -0.0465 C   0  0  0  0  0  0  0  0  0  0  0  0
   -5.6977    0.3243   -0.1074 C   0  0  0  0  0  0  0  0  0  0  0  0
   -6.2676    1.2626   -0.1238 H   0  0  0  0  0  0  0  0  0  0  0  0
   -6.3698   -0.9204   -0.1472 C   0  0  0  0  0  0  0  0  0  0  0  0
   -5.5897   -2.0919   -0.1239 C   0  0  0  0  0  0  0  0  0  0  0  0
   -6.0650   -3.0794   -0.1530 H   0  0  0  0  0  0  0  0  0  0  0  0
   -4.1840   -2.0223   -0.0625 C   0  0  0  0  0  0  0  0  0  0  0  0
   -7.9049   -0.9495   -0.2132 C   0  0  0  0  0  0  0  0  0  0  0  0
   -8.4744   -0.2341    1.0337 C   0  0  0  0  0  0  0  0  0  0  0  0
   -8.1505   -0.7401    1.9653 H   0  0  0  0  0  0  0  0  0  0  0  0
   -9.5832   -0.2412    1.0049 H   0  0  0  0  0  0  0  0  0  0  0  0
   -8.1479    0.8233    1.0912 H   0  0  0  0  0  0  0  0  0  0  0  0
   -8.3666   -0.2134   -1.4921 C   0  0  0  0  0  0  0  0  0  0  0  0
   -9.4737   -0.2208   -1.5583 H   0  0  0  0  0  0  0  0  0  0  0  0
   -7.9638   -0.7039   -2.4009 H   0  0  0  0  0  0  0  0  0  0  0  0
   -8.0377    0.8448   -1.5040 H   0  0  0  0  0  0  0  0  0  0  0  0
   -8.4559   -2.3850   -0.2485 C   0  0  0  0  0  0  0  0  0  0  0  0
   -8.1757   -2.9577    0.6582 H   0  0  0  0  0  0  0  0  0  0  0  0
   -8.0991   -2.9430   -1.1373 H   0  0  0  0  0  0  0  0  0  0  0  0
   -9.5626   -2.3585   -0.2955 H   0  0  0  0  0  0  0  0  0  0  0  0
   -2.0965    1.3484    0.0584 N   0  0  0  0  0  2  0  0  0  0  0  0
   -1.2583    2.4031    0.1034 C   0  0  0  0  0  0  0  0  0  0  0  0
   -0.1864    2.1532    0.1482 H   0  0  0  0  0  0  0  0  0  0  0  0
   -1.7143    3.7216    0.0937 C   0  0  0  0  0  0  0  0  0  0  0  0
   -0.9743    4.5335    0.1324 H   0  0  0  0  0  0  0  0  0  0  0  0
   -3.0992    3.9974    0.0352 C   0  0  0  0  0  0  0  0  0  0  0  0
   -3.9564    2.8847   -0.0111 C   0  0  0  0  0  0  0  0  0  0  0  0
   -5.0430    3.0239   -0.0578 H   0  0  0  0  0  0  0  0  0  0  0  0
   -3.4463    1.5755    0.0010 C   0  0  0  0  0  0  0  0  0  0  0  0
   -3.6071    5.4444    0.0239 C   0  0  0  0  0  0  0  0  0  0  0  0
   -3.0203    6.1685   -1.2101 C   0  0  0  0  0  0  0  0  0  0  0  0
   -1.9127    6.1821   -1.1948 H   0  0  0  0  0  0  0  0  0  0  0  0
   -3.3688    7.2210   -1.2341 H   0  0  0  0  0  0  0  0  0  0  0  0
   -3.3413    5.6777   -2.1508 H   0  0  0  0  0  0  0  0  0  0  0  0
   -3.1327    6.1489    1.3162 C   0  0  0  0  0  0  0  0  0  0  0  0
   -3.5352    5.6436    2.2170 H   0  0  0  0  0  0  0  0  0  0  0  0
   -3.4829    7.2010    1.3256 H   0  0  0  0  0  0  0  0  0  0  0  0
   -2.0281    6.1622    1.3992 H   0  0  0  0  0  0  0  0  0  0  0  0
   -5.1418    5.5182   -0.0439 C   0  0  0  0  0  0  0  0  0  0  0  0
   -5.5386    5.0464   -0.9655 H   0  0  0  0  0  0  0  0  0  0  0  0
   -5.4642    6.5781   -0.0503 H   0  0  0  0  0  0  0  0  0  0  0  0
   -5.6188    5.0329    0.8315 H   0  0  0  0  0  0  0  0  0  0  0  0
   -1.8170   -2.7320    0.0344 C   0  0  0  0  0  2  0  0  0  0  0  0
   -3.2068   -3.1186   -0.0297 C   0  0  1  0  0  3  0  0  0  0  0  0
   -3.5718   -4.4806   -0.0577 C   0  0  0  0  0  0  0  0  0  0  0  0
   -4.6340   -4.7676   -0.1067 H   0  0  0  0  0  0  0  0  0  0  0  0
   -2.5873   -5.4747   -0.0237 C   0  0  0  0  0  0  0  0  0  0  0  0
   -2.8751   -6.5363   -0.0458 H   0  0  0  0  0  0  0  0  0  0  0  0
   -1.2307   -5.1076    0.0386 C   0  0  0  0  0  0  0  0  0  0  0  0
   -0.4553   -5.8895    0.0653 H   0  0  0  0  0  0  0  0  0  0  0  0
   -0.8512   -3.7553    0.0674 C   0  0  0  0  0  0  0  0  0  0  0  0
    0.2131   -3.4821    0.1163 H   0  0  0  0  0  0  0  0  0  0  0  0
  2  1  1  0  0  0  0
  2 30  2  0  0  0  0
  3  2  1  0  0  0  0
  4  3  1  0  0  0  0
  5  6  1  0  0  0  0
  5  3  2  0  0  0  0
  6  8  2  0  0  0  0
  7  6  1  0  0  0  0
  8  1  1  0  0  0  0
  9  5  1  0  0  0  0
  9 10  1  0  0  0  0
 10 13  1  0  0  0  0
 10 11  1  0  0  0  0
 12 10  1  0  0  0  0
 14  9  1  0  0  0  0
 15 14  1  0  0  0  0
 16 14  1  0  0  0  0
 17 14  1  0  0  0  0
 18  9  1  0  0  0  0
 18 19  1  0  0  0  0
 20 18  1  0  0  0  0
 21 18  1  0  0  0  0
 22 23  1  0  0  0  0
 23 24  1  0  0  0  0
 25 23  2  0  0  0  0
 25 26  1  0  0  0  0
 27 25  1  0  0  0  0
 28 30  1  0  0  0  0
 28 27  2  0  0  0  0
 29 28  1  0  0  0  0
 30 22  1  0  0  0  0
 31 27  1  0  0  0  0
 31 36  1  0  0  0  0
 32 33  1  0  0  0  0
 32 31  1  0  0  0  0
 34 32  1  0  0  0  0
 35 32  1  0  0  0  0
 36 38  1  0  0  0  0
 36 39  1  0  0  0  0
 36 37  1  0  0  0  0
 40 31  1  0  0  0  0
 40 43  1  0  0  0  0
 41 40  1  0  0  0  0
 42 40  1  0  0  0  0
 44 52  1  0  0  0  0
 45  8  1  1  0  0  0
 45 44  1  0  0  0  0
 46 45  1  0  0  0  0
 46 48  2  0  0  0  0
 47 46  1  0  0  0  0
 48 50  1  0  0  0  0
 49 48  1  0  0  0  0
 50 51  1  0  0  0  0
 50 52  2  0  0  0  0
 52 53  1  0  0  0  0
M  END
