8,9,13
 OpenBabel05122313063D

 35 35  0  0  0  0  0  0  0  0999 V2000
   -3.8704   -2.7543    0.0314 F   0  0  0  0  0  0  0  0  0  0  0  0
   -5.2099   -0.4713    0.0657 F   0  0  0  0  0  0  0  0  0  0  0  0
    3.8734   -0.7019   -1.0400 C   0  0  0  0  0  0  0  0  0  0  0  0
    3.6108   -1.7631   -0.8784 H   0  0  0  0  0  0  0  0  0  0  0  0
    4.9783   -0.5629   -0.9919 H   0  0  0  0  0  0  0  0  0  0  0  0
    3.5065   -0.3985   -2.0386 H   0  0  0  0  0  0  0  0  0  0  0  0
   -3.6961    2.0556    0.0263 O   0  0  0  0  0  0  0  0  0  0  0  0
    3.2013    0.1162   -0.0043 N   0  0  0  0  0  0  0  0  0  0  0  0
    0.4043    1.6876   -0.1092 N   0  0  0  0  0  2  0  0  0  0  0  0
   -0.8939    1.9035   -0.0612 C   0  0  0  0  0  0  0  0  0  0  0  0
   -1.2927    2.9326   -0.0568 H   0  0  0  0  0  0  0  0  0  0  0  0
   -1.7332    0.7450   -0.0257 C   0  0  0  0  0  0  0  0  0  0  0  0
   -1.0142   -0.4950   -0.0392 C   0  0  0  0  0  2  0  0  0  0  0  0
   -1.7465   -1.6923   -0.0211 C   0  0  0  0  0  0  0  0  0  0  0  0
   -1.2477   -2.6713   -0.0245 H   0  0  0  0  0  0  0  0  0  0  0  0
   -3.1425   -1.6270    0.0118 C   0  0  0  0  0  0  0  0  0  0  0  0
   -3.8582   -0.4103    0.0295 C   0  0  0  0  0  0  0  0  0  0  0  0
   -3.1571    0.8108    0.0119 C   0  0  0  0  0  0  0  0  0  0  0  0
   -5.1079    2.2551    0.0352 C   0  0  0  0  0  0  0  0  0  0  0  0
   -5.5905    1.8177   -0.8625 H   0  0  0  0  0  0  0  0  0  0  0  0
   -5.2525    3.3516    0.0320 H   0  0  0  0  0  0  0  0  0  0  0  0
   -5.5787    1.8243    0.9422 H   0  0  0  0  0  0  0  0  0  0  0  0
    1.3250    2.8097   -0.2117 C   0  0  0  0  0  0  0  0  0  0  0  0
    0.8397    3.7206    0.2020 H   0  0  0  0  0  0  0  0  0  0  0  0
    1.5217    3.0098   -1.2910 H   0  0  0  0  0  0  0  0  0  0  0  0
    2.6619    2.5614    0.4870 C   0  0  0  0  0  0  0  0  0  0  0  0
    2.4910    2.2773    1.5465 H   0  0  0  0  0  0  0  0  0  0  0  0
    3.2114    3.5253    0.5092 H   0  0  0  0  0  0  0  0  0  0  0  0
    3.5530    1.5422   -0.2226 C   0  0  0  0  0  0  0  0  0  0  0  0
    3.5055    1.7286   -1.3154 H   0  0  0  0  0  0  0  0  0  0  0  0
    4.6171    1.6884    0.0799 H   0  0  0  0  0  0  0  0  0  0  0  0
    3.6538   -0.3268    1.3345 C   0  0  0  0  0  0  0  0  0  0  0  0
    4.7597   -0.2176    1.4279 H   0  0  0  0  0  0  0  0  0  0  0  0
    3.3607   -1.3841    1.4705 H   0  0  0  0  0  0  0  0  0  0  0  0
    3.1590    0.2746    2.1193 H   0  0  0  0  0  0  0  0  0  0  0  0
  3  5  1  0  0  0  0
  3  4  1  0  0  0  0
  3  8  1  0  0  0  0
  6  3  1  0  0  0  0
  7 19  1  0  0  0  0
  8 32  1  0  0  0  0
  9 10  1  0  0  0  0
 10 11  1  0  0  0  0
 10 12  2  0  0  0  0
 12 18  1  0  0  0  0
 13 12  1  0  0  0  0
 13 14  1  0  0  0  0
 14 16  2  0  0  0  0
 15 14  1  0  0  0  0
 16 17  1  0  0  0  0
 16  1  1  0  0  0  0
 17  2  1  0  0  0  0
 18  7  1  0  0  0  0
 18 17  2  0  0  0  0
 19 22  1  0  0  0  0
 20 19  1  0  0  0  0
 21 19  1  0  0  0  0
 23  9  1  0  0  0  0
 23 24  1  0  0  0  0
 23 26  1  0  0  0  0
 25 23  1  0  0  0  0
 26 28  1  0  0  0  0
 26 27  1  0  0  0  0
 29  8  1  0  0  0  0
 29 31  1  0  0  0  0
 29 26  1  0  0  0  0
 30 29  1  0  0  0  0
 32 33  1  0  0  0  0
 32 34  1  0  0  0  0
 32 35  1  0  0  0  0
M  END
