1,2,31
 OpenBabel05122313063D

 31 34  0  0  0  0  0  0  0  0999 V2000
    1.5650   -1.1848   -0.0002 N   0  0  0  0  0  2  0  0  0  0  0  0
    0.3008    1.1552   -0.0001 N   0  0  0  0  0  2  0  0  0  0  0  0
    2.1695   -2.3749   -0.0002 C   0  0  0  0  0  0  0  0  0  0  0  0
    1.4959   -3.2488   -0.0003 H   0  0  0  0  0  0  0  0  0  0  0  0
    3.5797   -2.4980   -0.0002 C   0  0  0  0  0  0  0  0  0  0  0  0
    4.0309   -3.5006   -0.0003 H   0  0  0  0  0  0  0  0  0  0  0  0
    4.3765   -1.3554   -0.0001 C   0  0  0  0  0  0  0  0  0  0  0  0
    5.4747   -1.4333   -0.0000 H   0  0  0  0  0  0  0  0  0  0  0  0
    3.7615   -0.0743   -0.0000 C   0  0  0  0  0  0  0  0  0  0  0  0
    2.3374   -0.0536   -0.0001 C   0  0  0  0  0  0  0  0  0  0  0  0
    4.4642    1.1835    0.0001 C   0  0  0  0  0  0  0  0  0  0  0  0
    5.5645    1.1663    0.0002 H   0  0  0  0  0  0  0  0  0  0  0  0
    3.7908    2.3895    0.0002 C   0  0  0  0  0  0  0  0  0  0  0  0
    4.3541    3.3352    0.0003 H   0  0  0  0  0  0  0  0  0  0  0  0
    2.3549    2.4431    0.0001 C   0  0  0  0  0  0  0  0  0  0  0  0
    1.6522    1.2088    0.0000 C   0  0  0  0  0  0  0  0  0  0  0  0
    1.5523    3.6220    0.0002 C   0  0  0  0  0  0  0  0  0  0  0  0
    2.0419    4.6077    0.0004 H   0  0  0  0  0  0  0  0  0  0  0  0
    0.1618    3.5340    0.0002 C   0  0  0  0  0  0  0  0  0  0  0  0
   -0.4505    4.4464    0.0003 H   0  0  0  0  0  0  0  0  0  0  0  0
   -0.4802    2.2638    0.0000 C   0  0  0  0  0  0  0  0  0  0  0  0
   -1.8998    1.9245   -0.0000 C   0  0  0  0  0  0  0  0  0  0  0  0
   -2.9426    2.8765    0.0000 C   0  0  0  0  0  0  0  0  0  0  0  0
   -2.7090    3.9530    0.0001 H   0  0  0  0  0  0  0  0  0  0  0  0
   -4.2749    2.4520   -0.0001 C   0  0  0  0  0  0  0  0  0  0  0  0
   -5.0894    3.1915   -0.0001 H   0  0  0  0  0  0  0  0  0  0  0  0
   -4.5676    1.0749   -0.0002 C   0  0  0  0  0  0  0  0  0  0  0  0
   -5.6180    0.7425   -0.0002 H   0  0  0  0  0  0  0  0  0  0  0  0
   -3.5409    0.1141   -0.0002 C   0  0  0  0  0  3  0  0  0  0  0  0
   -3.7824   -0.9589   -0.0002 H   0  0  0  0  0  0  0  0  0  0  0  0
   -2.1935    0.5109   -0.0001 C   0  0  0  0  0  2  0  0  0  0  0  0
  1 10  1  0  0  0  0
  2 16  1  0  0  0  0
  2 21  1  0  0  0  0
  3  5  2  0  0  0  0
  3  1  1  0  0  0  0
  4  3  1  0  0  0  0
  5  7  1  0  0  0  0
  6  5  1  0  0  0  0
  7  8  1  0  0  0  0
  7  9  2  0  0  0  0
  9 11  1  0  0  0  0
 10  9  1  0  0  0  0
 10 16  2  0  0  0  0
 11 12  1  0  0  0  0
 11 13  2  0  0  0  0
 13 14  1  0  0  0  0
 15 13  1  0  0  0  0
 15 17  2  0  0  0  0
 16 15  1  0  0  0  0
 17 18  1  0  0  0  0
 19 17  1  0  0  0  0
 19 20  1  0  0  0  0
 21 19  2  0  0  0  0
 22 23  2  0  0  0  0
 22 21  1  0  0  0  0
 23 24  1  0  0  0  0
 25 26  1  0  0  0  0
 25 23  1  0  0  0  0
 27 25  2  0  0  0  0
 28 27  1  0  0  0  0
 29 27  1  0  0  0  0
 29 31  1  0  0  0  0
 30 29  1  0  0  0  0
 31 22  1  0  0  0  0
M  END
