5,6,37
 OpenBabel05122313063D

 49 53  0  0  1  0  0  0  0  0999 V2000
    3.1626   -0.4165    2.3824 O   0  0  0  0  0  0  0  0  0  0  0  0
    2.1864   -1.3349   -2.0441 O   0  0  0  0  0  0  0  0  0  0  0  0
    0.4810   -2.8075    0.4290 O   0  0  0  0  0  0  0  0  0  0  0  0
    2.3518   -0.7572    0.2181 N   0  0  0  0  0  0  0  0  0  0  0  0
   -1.2413   -1.2607    0.1238 N   0  0  0  0  0  2  0  0  0  0  0  0
   -3.6137   -0.0463   -0.0252 N   0  0  0  0  0  2  0  0  0  0  0  0
    4.5786   -1.2768    0.5669 C   0  0  0  0  0  0  0  0  0  0  0  0
    5.8577   -1.4788    1.0861 C   0  0  0  0  0  0  0  0  0  0  0  0
    6.0777   -1.2510    2.1395 H   0  0  0  0  0  0  0  0  0  0  0  0
    6.8413   -1.9835    0.2128 C   0  0  0  0  0  0  0  0  0  0  0  0
    7.8620   -2.1584    0.5857 H   0  0  0  0  0  0  0  0  0  0  0  0
    6.5397   -2.2705   -1.1327 C   0  0  0  0  0  0  0  0  0  0  0  0
    7.3296   -2.6654   -1.7897 H   0  0  0  0  0  0  0  0  0  0  0  0
    5.2452   -2.0616   -1.6480 C   0  0  0  0  0  0  0  0  0  0  0  0
    4.9939   -2.2820   -2.6960 H   0  0  0  0  0  0  0  0  0  0  0  0
    4.2775   -1.5634   -0.7757 C   0  0  0  0  0  0  0  0  0  0  0  0
    2.8342   -1.2382   -1.0154 C   0  0  0  0  0  0  0  0  0  0  0  0
    3.3352   -0.7672    1.2261 C   0  0  0  0  0  0  0  0  0  0  0  0
    0.9666   -0.4159    0.4754 C   0  0  2  0  0  0  0  0  0  0  0  0
    0.9408   -0.1728    1.5603 H   0  0  0  0  0  0  0  0  0  0  0  0
    0.0612   -1.6576    0.3189 C   0  0  0  0  0  0  0  0  0  0  0  0
   -2.3505   -2.0912    0.1339 C   0  0  0  0  0  0  0  0  0  0  0  0
   -2.3480   -3.4945    0.2255 C   0  0  0  0  0  0  0  0  0  0  0  0
   -1.3805   -4.0069    0.2844 H   0  0  0  0  0  0  0  0  0  0  0  0
   -3.5676   -4.2111    0.2419 C   0  0  0  0  0  0  0  0  0  0  0  0
   -3.5263   -5.3091    0.3126 H   0  0  0  0  0  0  0  0  0  0  0  0
   -4.8038   -3.5770    0.1679 C   0  0  0  0  0  0  0  0  0  0  0  0
   -5.7423   -4.1506    0.1774 H   0  0  0  0  0  0  0  0  0  0  0  0
   -4.8551   -2.1588    0.0750 C   0  0  0  0  0  0  0  0  0  0  0  0
   -3.6236   -1.4186    0.0585 C   0  0  1  0  0  3  0  0  0  0  0  0
   -4.7624    0.6256   -0.0965 C   0  0  0  0  0  0  0  0  0  0  0  0
   -4.6852    1.7223   -0.1604 H   0  0  0  0  0  0  0  0  0  0  0  0
   -6.0197   -0.0249   -0.0906 C   0  0  0  0  0  0  0  0  0  0  0  0
   -6.9397    0.5738   -0.1527 H   0  0  0  0  0  0  0  0  0  0  0  0
   -6.0626   -1.4092   -0.0048 C   0  0  0  0  0  0  0  0  0  0  0  0
   -7.0254   -1.9438    0.0029 H   0  0  0  0  0  0  0  0  0  0  0  0
    0.4587    0.7716   -0.3508 C   0  0  0  0  0  3  0  0  0  0  0  0
    0.5464    0.5232   -1.4285 H   0  0  0  0  0  0  0  0  0  0  0  0
    1.0880    2.0928   -0.0734 C   0  0  0  0  0  0  0  0  0  0  0  0
    1.4387    2.5214    1.2289 C   0  0  0  0  0  0  0  0  0  0  0  0
    1.2961    1.8440    2.0841 H   0  0  0  0  0  0  0  0  0  0  0  0
    1.9785    3.7958    1.4515 C   0  0  0  0  0  0  0  0  0  0  0  0
    2.2462    4.0988    2.4757 H   0  0  0  0  0  0  0  0  0  0  0  0
    2.1924    4.6797    0.3795 C   0  0  0  0  0  0  0  0  0  0  0  0
    2.6289    5.6748    0.5561 H   0  0  0  0  0  0  0  0  0  0  0  0
    1.8662    4.2648   -0.9238 C   0  0  0  0  0  0  0  0  0  0  0  0
    2.0489    4.9349   -1.7789 H   0  0  0  0  0  0  0  0  0  0  0  0
    1.3236    2.9908   -1.1428 C   0  0  0  0  0  0  0  0  0  0  0  0
    1.0732    2.6689   -2.1663 H   0  0  0  0  0  0  0  0  0  0  0  0
  2 17  2  0  0  0  0
  4 19  1  0  0  0  0
  4 18  1  0  0  0  0
  5 22  1  0  0  0  0
  5 21  1  0  0  0  0
  7  8  1  0  0  0  0
  7 18  1  0  0  0  0
  8  9  1  0  0  0  0
 10 11  1  0  0  0  0
 10  8  2  0  0  0  0
 12 10  1  0  0  0  0
 13 12  1  0  0  0  0
 14 12  2  0  0  0  0
 14 16  1  0  0  0  0
 15 14  1  0  0  0  0
 16  7  2  0  0  0  0
 17 16  1  0  0  0  0
 17  4  1  0  0  0  0
 18  1  2  0  0  0  0
 19 20  1  1  0  0  0
 21  3  2  0  0  0  0
 21 19  1  0  0  0  0
 22 23  2  0  0  0  0
 23 25  1  0  0  0  0
 23 24  1  0  0  0  0
 25 26  1  0  0  0  0
 27 28  1  0  0  0  0
 27 25  2  0  0  0  0
 29 27  1  0  0  0  0
 30  6  1  1  0  0  0
 30 29  1  0  0  0  0
 30 22  1  0  0  0  0
 31 33  2  0  0  0  0
 31  6  1  0  0  0  0
 32 31  1  0  0  0  0
 33 35  1  0  0  0  0
 34 33  1  0  0  0  0
 35 36  1  0  0  0  0
 35 29  2  0  0  0  0
 37 39  1  0  0  0  0
 37 19  1  0  0  0  0
 38 37  1  0  0  0  0
 39 40  1  0  0  0  0
 40 42  2  0  0  0  0
 40 41  1  0  0  0  0
 42 43  1  0  0  0  0
 44 45  1  0  0  0  0
 44 42  1  0  0  0  0
 46 44  2  0  0  0  0
 47 46  1  0  0  0  0
 48 46  1  0  0  0  0
 48 39  2  0  0  0  0
 49 48  1  0  0  0  0
M  END
