2,3,28
 OpenBabel05122313063D

 74 79  0  0  0  0  0  0  0  0999 V2000
   -2.9136    0.3418   -0.0972 Si  0  0  0  0  0  0  0  0  0  0  0  0
    2.7246   -0.9384   -1.9468 N   0  0  0  0  0  0  0  0  0  0  0  0
    2.6172    0.4685    2.0834 N   0  0  0  0  0  0  0  0  0  0  0  0
   -1.8308   -0.3338   -1.4973 C   0  0  0  0  0  0  0  0  0  0  0  0
   -0.4802    0.0315   -1.6617 C   0  0  0  0  0  0  0  0  0  0  0  0
   -0.0195    0.7632   -0.9779 H   0  0  0  0  0  0  0  0  0  0  0  0
    0.3179   -0.5347   -2.6741 C   0  0  0  0  0  0  0  0  0  0  0  0
   -0.2637   -1.4621   -3.5595 C   0  0  0  0  0  0  0  0  0  0  0  0
    0.3464   -1.8999   -4.3658 H   0  0  0  0  0  0  0  0  0  0  0  0
   -1.6084   -1.8355   -3.4195 C   0  0  0  0  0  0  0  0  0  0  0  0
   -2.0514   -2.5670   -4.1124 H   0  0  0  0  0  0  0  0  0  0  0  0
   -2.3806   -1.2844   -2.3881 C   0  0  0  0  0  0  0  0  0  0  0  0
   -3.4284   -1.6043   -2.2664 H   0  0  0  0  0  0  0  0  0  0  0  0
    1.7702   -0.1584   -2.8114 C   0  0  0  0  0  0  0  0  0  0  0  0
    2.0904   -0.3131   -3.8685 H   0  0  0  0  0  0  0  0  0  0  0  0
    1.9285    0.9091   -2.5643 H   0  0  0  0  0  0  0  0  0  0  0  0
    4.1156   -0.4422   -2.2584 C   0  0  0  0  0  0  0  0  0  0  0  0
    4.8153   -1.2285   -1.9052 H   0  0  0  0  0  0  0  0  0  0  0  0
    4.2466   -0.3584   -3.3620 H   0  0  0  0  0  0  0  0  0  0  0  0
    4.3854    0.8340   -1.5096 C   0  0  0  0  0  0  0  0  0  0  0  0
    5.3397    1.8185   -1.8187 C   0  0  0  0  0  0  0  0  0  0  0  0
    5.9201    1.7642   -2.7539 H   0  0  0  0  0  0  0  0  0  0  0  0
    5.5715    2.8684   -0.9089 C   0  0  0  0  0  0  0  0  0  0  0  0
    6.3223    3.6363   -1.1485 H   0  0  0  0  0  0  0  0  0  0  0  0
    4.8739    2.9396    0.3127 C   0  0  0  0  0  0  0  0  0  0  0  0
    5.0929    3.7542    1.0218 H   0  0  0  0  0  0  0  0  0  0  0  0
    3.9017    1.9703    0.6160 C   0  0  0  0  0  0  0  0  0  0  0  0
    3.6545    0.9447   -0.3134 C   0  0  0  0  0  3  0  0  0  0  0  0
    3.0404    1.8950    1.8447 C   0  0  0  0  0  0  0  0  0  0  0  0
    2.1112    2.4785    1.6824 H   0  0  0  0  0  0  0  0  0  0  0  0
    3.5295    2.2988    2.7613 H   0  0  0  0  0  0  0  0  0  0  0  0
    1.4364    0.4059    3.0090 C   0  0  0  0  0  0  0  0  0  0  0  0
    1.7695    0.7965    3.9986 H   0  0  0  0  0  0  0  0  0  0  0  0
    1.1982   -0.6711    3.1148 H   0  0  0  0  0  0  0  0  0  0  0  0
    0.2226    1.1667    2.5389 C   0  0  0  0  0  0  0  0  0  0  0  0
   -0.0475    2.4759    2.9890 C   0  0  0  0  0  0  0  0  0  0  0  0
    0.6218    2.9491    3.7261 H   0  0  0  0  0  0  0  0  0  0  0  0
   -1.1601    3.1776    2.5024 C   0  0  0  0  0  0  0  0  0  0  0  0
   -1.3581    4.2026    2.8519 H   0  0  0  0  0  0  0  0  0  0  0  0
   -2.0192    2.5763    1.5681 C   0  0  0  0  0  0  0  0  0  0  0  0
   -2.8785    3.1455    1.1801 H   0  0  0  0  0  0  0  0  0  0  0  0
   -1.7942    1.2536    1.1305 C   0  0  0  0  0  0  0  0  0  0  0  0
   -0.6669    0.5668    1.6299 C   0  0  0  0  0  0  0  0  0  0  0  0
   -0.4474   -0.4658    1.3109 H   0  0  0  0  0  0  0  0  0  0  0  0
    2.6300   -2.3845   -2.2322 C   0  0  0  0  0  0  0  0  0  0  0  0
    3.3547   -2.9243   -1.5968 H   0  0  0  0  0  0  0  0  0  0  0  0
    2.8484   -2.5842   -3.3067 H   0  0  0  0  0  0  0  0  0  0  0  0
    1.6188   -2.7449   -1.9744 H   0  0  0  0  0  0  0  0  0  0  0  0
    3.7275   -0.2947    2.7075 C   0  0  0  0  0  0  0  0  0  0  0  0
    4.6309   -0.2137    2.0767 H   0  0  0  0  0  0  0  0  0  0  0  0
    3.4309   -1.3573    2.7849 H   0  0  0  0  0  0  0  0  0  0  0  0
    3.9483    0.1097    3.7225 H   0  0  0  0  0  0  0  0  0  0  0  0
   -3.7184   -1.1636    0.7254 C   0  0  0  0  0  0  0  0  0  0  0  0
   -5.1060   -1.2554    0.9709 C   0  0  0  0  0  0  0  0  0  0  0  0
   -5.7726   -0.4320    0.6696 H   0  0  0  0  0  0  0  0  0  0  0  0
   -5.6571   -2.3920    1.5853 C   0  0  0  0  0  0  0  0  0  0  0  0
   -6.7421   -2.4455    1.7661 H   0  0  0  0  0  0  0  0  0  0  0  0
   -4.8270   -3.4587    1.9632 C   0  0  0  0  0  0  0  0  0  0  0  0
   -5.2580   -4.3499    2.4454 H   0  0  0  0  0  0  0  0  0  0  0  0
   -3.4461   -3.3884    1.7158 C   0  0  0  0  0  0  0  0  0  0  0  0
   -2.7867   -4.2232    1.9994 H   0  0  0  0  0  0  0  0  0  0  0  0
   -2.8969   -2.2548    1.0988 C   0  0  0  0  0  0  0  0  0  0  0  0
   -1.8112   -2.2379    0.9000 H   0  0  0  0  0  0  0  0  0  0  0  0
   -4.2303    1.5212   -0.7706 C   0  0  0  0  0  0  0  0  0  0  0  0
   -5.1665    2.1335    0.0976 C   0  0  0  0  0  0  0  0  0  0  0  0
   -5.1345    1.9200    1.1787 H   0  0  0  0  0  0  0  0  0  0  0  0
   -6.1428    3.0148   -0.3925 C   0  0  0  0  0  0  0  0  0  0  0  0
   -6.8615    3.4792    0.3003 H   0  0  0  0  0  0  0  0  0  0  0  0
   -6.2022    3.3027   -1.7658 C   0  0  0  0  0  0  0  0  0  0  0  0
   -6.9676    3.9932   -2.1523 H   0  0  0  0  0  0  0  0  0  0  0  0
   -5.2819    2.7073   -2.6424 C   0  0  0  0  0  0  0  0  0  0  0  0
   -5.3233    2.9309   -3.7197 H   0  0  0  0  0  0  0  0  0  0  0  0
   -4.3066    1.8267   -2.1478 C   0  0  0  0  0  0  0  0  0  0  0  0
   -3.5888    1.3664   -2.8455 H   0  0  0  0  0  0  0  0  0  0  0  0
  1 53  1  0  0  0  0
  1 42  1  0  0  0  0
  3 49  1  0  0  0  0
  3 32  1  0  0  0  0
  4  1  1  0  0  0  0
  5  4  1  0  0  0  0
  5  6  1  0  0  0  0
  7  5  2  0  0  0  0
  8 10  2  0  0  0  0
  8  7  1  0  0  0  0
  9  8  1  0  0  0  0
 10 12  1  0  0  0  0
 11 10  1  0  0  0  0
 12 13  1  0  0  0  0
 12  4  2  0  0  0  0
 14  7  1  0  0  0  0
 14 16  1  0  0  0  0
 14  2  1  0  0  0  0
 15 14  1  0  0  0  0
 17  2  1  0  0  0  0
 17 18  1  0  0  0  0
 17 20  1  0  0  0  0
 19 17  1  0  0  0  0
 20 28  1  0  0  0  0
 21 20  2  0  0  0  0
 21 23  1  0  0  0  0
 22 21  1  0  0  0  0
 23 25  2  0  0  0  0
 24 23  1  0  0  0  0
 25 27  1  0  0  0  0
 25 26  1  0  0  0  0
 27 29  1  0  0  0  0
 28 27  2  0  0  0  0
 29  3  1  0  0  0  0
 29 31  1  0  0  0  0
 30 29  1  0  0  0  0
 32 34  1  0  0  0  0
 32 33  1  0  0  0  0
 35 36  1  0  0  0  0
 35 32  1  0  0  0  0
 36 37  1  0  0  0  0
 38 39  1  0  0  0  0
 38 36  2  0  0  0  0
 40 38  1  0  0  0  0
 41 40  1  0  0  0  0
 42 40  2  0  0  0  0
 42 43  1  0  0  0  0
 43 35  2  0  0  0  0
 44 43  1  0  0  0  0
 45 48  1  0  0  0  0
 45  2  1  0  0  0  0
 45 46  1  0  0  0  0
 47 45  1  0  0  0  0
 49 51  1  0  0  0  0
 49 52  1  0  0  0  0
 50 49  1  0  0  0  0
 53 54  2  0  0  0  0
 53 62  1  0  0  0  0
 54 56  1  0  0  0  0
 55 54  1  0  0  0  0
 56 57  1  0  0  0  0
 56 58  2  0  0  0  0
 58 59  1  0  0  0  0
 60 58  1  0  0  0  0
 60 61  1  0  0  0  0
 62 60  2  0  0  0  0
 63 62  1  0  0  0  0
 64  1  1  0  0  0  0
 64 65  1  0  0  0  0
 65 66  1  0  0  0  0
 67 65  2  0  0  0  0
 67 68  1  0  0  0  0
 69 67  1  0  0  0  0
 70 69  1  0  0  0  0
 71 73  1  0  0  0  0
 71 69  2  0  0  0  0
 72 71  1  0  0  0  0
 73 64  2  0  0  0  0
 74 73  1  0  0  0  0
M  END
