2,3,21
 OpenBabel05122313063D

 36 38  0  0  0  0  0  0  0  0999 V2000
   -4.6753   -0.4666    0.5488 O   0  0  0  0  0  0  0  0  0  0  0  0
    2.0949   -0.7931   -0.0208 N   0  0  0  0  0  2  0  0  0  0  0  0
   -1.9201    0.1924   -0.1537 N   0  0  0  0  0  0  0  0  0  0  0  0
    2.7552   -1.9659    0.0192 C   0  0  0  0  0  0  0  0  0  0  0  0
    2.1121   -2.8597   -0.0472 H   0  0  0  0  0  0  0  0  0  0  0  0
    4.1483   -2.0217    0.1491 C   0  0  0  0  0  0  0  0  0  0  0  0
    4.6525   -2.9977    0.1770 H   0  0  0  0  0  0  0  0  0  0  0  0
    4.8669   -0.8196    0.2443 C   0  0  0  0  0  0  0  0  0  0  0  0
    5.9624   -0.8303    0.3479 H   0  0  0  0  0  0  0  0  0  0  0  0
    4.1769    0.3979    0.2080 C   0  0  0  0  0  0  0  0  0  0  0  0
    4.7141    1.3538    0.2825 H   0  0  0  0  0  0  0  0  0  0  0  0
    2.7772    0.4045    0.0733 C   0  0  0  0  0  0  0  0  0  0  0  0
    1.9046    1.5809    0.0155 C   0  0  0  0  0  0  0  0  0  0  0  0
    2.2542    2.9448    0.1081 C   0  0  0  0  0  3  0  0  0  0  0  0
    3.3029    3.2545    0.2414 H   0  0  0  0  0  0  0  0  0  0  0  0
    1.2462    3.9207    0.0371 C   0  0  0  0  0  0  0  0  0  0  0  0
    1.5172    4.9837    0.1188 H   0  0  0  0  0  0  0  0  0  0  0  0
   -0.1097    3.5654   -0.1394 C   0  0  0  0  0  0  0  0  0  0  0  0
   -0.8741    4.3573   -0.1997 H   0  0  0  0  0  0  0  0  0  0  0  0
   -0.4699    2.2110   -0.2462 C   0  0  0  0  0  0  0  0  0  0  0  0
    0.5419    1.2402   -0.1550 C   0  0  0  0  0  3  0  0  0  0  0  0
   -1.8401    1.6558   -0.5425 C   0  0  0  0  0  0  0  0  0  0  0  0
   -2.0231    1.7008   -1.6373 H   0  0  0  0  0  0  0  0  0  0  0  0
   -2.6553    2.2391   -0.0645 H   0  0  0  0  0  0  0  0  0  0  0  0
   -2.8373   -0.5850   -1.0427 C   0  0  0  0  0  0  0  0  0  0  0  0
   -2.6451   -1.6546   -0.8176 H   0  0  0  0  0  0  0  0  0  0  0  0
   -2.5424   -0.4009   -2.0946 H   0  0  0  0  0  0  0  0  0  0  0  0
   -4.3060   -0.2431   -0.8020 C   0  0  0  0  0  0  0  0  0  0  0  0
   -4.5278    0.8148   -1.0971 H   0  0  0  0  0  0  0  0  0  0  0  0
   -4.9433   -0.9012   -1.4261 H   0  0  0  0  0  0  0  0  0  0  0  0
   -3.8824    0.3162    1.4224 C   0  0  0  0  0  0  0  0  0  0  0  0
   -4.1913    0.0671    2.4575 H   0  0  0  0  0  0  0  0  0  0  0  0
   -4.0940    1.4056    1.2683 H   0  0  0  0  0  0  0  0  0  0  0  0
   -2.3907    0.0176    1.2611 C   0  0  0  0  0  0  0  0  0  0  0  0
   -1.7734    0.6630    1.9166 H   0  0  0  0  0  0  0  0  0  0  0  0
   -2.1892   -1.0411    1.5218 H   0  0  0  0  0  0  0  0  0  0  0  0
  1 31  1  0  0  0  0
  2  4  1  0  0  0  0
  2 12  1  0  0  0  0
  3 34  1  0  0  0  0
  4  6  2  0  0  0  0
  5  4  1  0  0  0  0
  6  7  1  0  0  0  0
  6  8  1  0  0  0  0
  8  9  1  0  0  0  0
 10  8  2  0  0  0  0
 10 11  1  0  0  0  0
 12 10  1  0  0  0  0
 13 12  2  0  0  0  0
 13 14  1  0  0  0  0
 14 15  1  0  0  0  0
 16 14  1  0  0  0  0
 16 17  1  0  0  0  0
 18 16  2  0  0  0  0
 19 18  1  0  0  0  0
 20 21  2  0  0  0  0
 20 18  1  0  0  0  0
 21 13  1  0  0  0  0
 22 20  1  0  0  0  0
 22  3  1  0  0  0  0
 22 24  1  0  0  0  0
 23 22  1  0  0  0  0
 25 26  1  0  0  0  0
 25 28  1  0  0  0  0
 25  3  1  0  0  0  0
 27 25  1  0  0  0  0
 28  1  1  0  0  0  0
 29 28  1  0  0  0  0
 30 28  1  0  0  0  0
 31 32  1  0  0  0  0
 33 31  1  0  0  0  0
 34 31  1  0  0  0  0
 34 36  1  0  0  0  0
 34 35  1  0  0  0  0
M  END
