1,2,3
 OpenBabel05122313063D

 55 57  0  0  1  0  0  0  0  0999 V2000
    2.0226    0.5468    0.0037 N   0  0  0  0  0  2  0  0  0  0  0  0
   -2.0225    0.5469    0.0001 N   0  0  0  0  0  2  0  0  0  0  0  0
    0.0001    2.0898    0.0039 C   0  0  0  0  0  2  0  0  0  0  0  0
    1.2429    2.7689    0.0066 C   0  0  0  0  0  0  0  0  0  0  0  0
    1.2332    4.1798    0.0090 C   0  0  0  0  0  0  0  0  0  0  0  0
    2.1732    4.7542    0.0109 H   0  0  0  0  0  0  0  0  0  0  0  0
    0.0001    4.8648    0.0089 C   0  0  0  0  0  0  0  0  0  0  0  0
    0.0002    5.9647    0.0109 H   0  0  0  0  0  0  0  0  0  0  0  0
   -1.2330    4.1799    0.0066 C   0  0  0  0  0  0  0  0  0  0  0  0
   -2.1729    4.7543    0.0069 H   0  0  0  0  0  0  0  0  0  0  0  0
   -1.2427    2.7690    0.0041 C   0  0  0  0  0  0  0  0  0  0  0  0
    2.3652    1.8343    0.0060 C   0  0  2  0  0  3  0  0  0  0  0  0
    3.7872    2.2992    0.0071 C   0  0  0  0  0  0  0  0  0  0  0  0
    4.4987    1.4542    0.0180 H   0  0  0  0  0  0  0  0  0  0  0  0
    3.9755    2.9435    0.8910 H   0  0  0  0  0  0  0  0  0  0  0  0
    3.9828    2.9249   -0.8888 H   0  0  0  0  0  0  0  0  0  0  0  0
    3.0023   -0.4955   -0.0010 C   0  0  0  0  0  0  0  0  0  0  0  0
    3.4299   -1.0317    1.2355 C   0  0  0  0  0  0  0  0  0  0  0  0
    4.3640   -2.0825    1.2050 C   0  0  0  0  0  0  0  0  0  0  0  0
    4.7091   -2.5143    2.1573 H   0  0  0  0  0  0  0  0  0  0  0  0
    4.8399   -2.5900   -0.0115 C   0  0  0  0  0  0  0  0  0  0  0  0
    5.5670   -3.4158   -0.0156 H   0  0  0  0  0  0  0  0  0  0  0  0
    4.3750   -2.0608   -1.2229 C   0  0  0  0  0  0  0  0  0  0  0  0
    4.7284   -2.4757   -2.1797 H   0  0  0  0  0  0  0  0  0  0  0  0
    3.4414   -1.0092   -1.2429 C   0  0  0  0  0  0  0  0  0  0  0  0
    2.8557   -0.5130    2.5255 C   0  0  0  0  0  0  0  0  0  0  0  0
    3.0269    0.5762    2.6548 H   0  0  0  0  0  0  0  0  0  0  0  0
    3.2916   -1.0360    3.3973 H   0  0  0  0  0  0  0  0  0  0  0  0
    1.7546   -0.6648    2.5365 H   0  0  0  0  0  0  0  0  0  0  0  0
    2.8799   -0.4664   -2.5287 C   0  0  0  0  0  0  0  0  0  0  0  0
    3.0669    0.6218   -2.6437 H   0  0  0  0  0  0  0  0  0  0  0  0
    1.7769   -0.6025   -2.5475 H   0  0  0  0  0  0  0  0  0  0  0  0
    3.3132   -0.9838   -3.4051 H   0  0  0  0  0  0  0  0  0  0  0  0
   -2.3651    1.8344    0.0017 C   0  0  0  0  0  0  0  0  0  0  0  0
   -3.7871    2.2994    0.0008 C   0  0  0  0  0  0  0  0  0  0  0  0
   -4.4987    1.4544    0.0017 H   0  0  0  0  0  0  0  0  0  0  0  0
   -3.9788    2.9333   -0.8900 H   0  0  0  0  0  0  0  0  0  0  0  0
   -3.9790    2.9356    0.8899 H   0  0  0  0  0  0  0  0  0  0  0  0
   -3.0023   -0.4954   -0.0041 C   0  0  0  0  0  0  0  0  0  0  0  0
   -3.4355   -1.0254    1.2331 C   0  0  0  0  0  0  0  0  0  0  0  0
   -4.3695   -2.0765    1.2035 C   0  0  0  0  0  0  0  0  0  0  0  0
   -4.7187   -2.5037    2.1563 H   0  0  0  0  0  0  0  0  0  0  0  0
   -4.8399   -2.5898   -0.0126 C   0  0  0  0  0  0  0  0  0  0  0  0
   -5.5670   -3.4157   -0.0160 H   0  0  0  0  0  0  0  0  0  0  0  0
   -4.3695   -2.0666   -1.2245 C   0  0  0  0  0  0  0  0  0  0  0  0
   -4.7187   -2.4860   -2.1808 H   0  0  0  0  0  0  0  0  0  0  0  0
   -3.4357   -1.0152   -1.2455 C   0  0  0  0  0  0  0  0  0  0  0  0
   -2.8674   -0.5001    2.5231 C   0  0  0  0  0  0  0  0  0  0  0  0
   -1.7657   -0.6462    2.5379 H   0  0  0  0  0  0  0  0  0  0  0  0
   -3.3033   -1.0227    3.3951 H   0  0  0  0  0  0  0  0  0  0  0  0
   -3.0447    0.5885    2.6489 H   0  0  0  0  0  0  0  0  0  0  0  0
   -2.8680   -0.4790   -2.5313 C   0  0  0  0  0  0  0  0  0  0  0  0
   -3.0490    0.6098   -2.6499 H   0  0  0  0  0  0  0  0  0  0  0  0
   -3.3013   -0.9970   -3.4074 H   0  0  0  0  0  0  0  0  0  0  0  0
   -1.7657   -0.6209   -2.5463 H   0  0  0  0  0  0  0  0  0  0  0  0
  2 34  1  0  0  0  0
  3 11  1  0  0  0  0
  3  4  1  0  0  0  0
  4  5  2  0  0  0  0
  5  6  1  0  0  0  0
  7  5  1  0  0  0  0
  7  8  1  0  0  0  0
  9 10  1  0  0  0  0
  9  7  2  0  0  0  0
 11  9  1  0  0  0  0
 12  1  1  6  0  0  0
 12  4  1  0  0  0  0
 12 13  1  0  0  0  0
 13 14  1  0  0  0  0
 13 15  1  0  0  0  0
 16 13  1  0  0  0  0
 17  1  1  0  0  0  0
 17 18  1  0  0  0  0
 18 26  1  0  0  0  0
 19 18  2  0  0  0  0
 19 20  1  0  0  0  0
 21 19  1  0  0  0  0
 22 21  1  0  0  0  0
 23 21  2  0  0  0  0
 24 23  1  0  0  0  0
 25 23  1  0  0  0  0
 25 17  2  0  0  0  0
 26 29  1  0  0  0  0
 26 27  1  0  0  0  0
 26 28  1  0  0  0  0
 30 25  1  0  0  0  0
 31 30  1  0  0  0  0
 32 30  1  0  0  0  0
 33 30  1  0  0  0  0
 34 11  2  0  0  0  0
 35 34  1  0  0  0  0
 35 36  1  0  0  0  0
 35 38  1  0  0  0  0
 37 35  1  0  0  0  0
 39  2  1  0  0  0  0
 39 40  1  0  0  0  0
 40 48  1  0  0  0  0
 41 40  2  0  0  0  0
 41 42  1  0  0  0  0
 43 41  1  0  0  0  0
 44 43  1  0  0  0  0
 45 43  2  0  0  0  0
 46 45  1  0  0  0  0
 47 45  1  0  0  0  0
 47 39  2  0  0  0  0
 48 49  1  0  0  0  0
 48 51  1  0  0  0  0
 48 50  1  0  0  0  0
 52 47  1  0  0  0  0
 53 52  1  0  0  0  0
 54 52  1  0  0  0  0
 55 52  1  0  0  0  0
M  END
