2,3,4
 OpenBabel05122313063D

 45 45  0  0  0  0  0  0  0  0999 V2000
    5.6525   -0.4336    0.6586 Si  0  0  0  0  0  0  0  0  0  0  0  0
   -0.6451   -1.6911   -1.2092 N   0  0  0  0  0  0  0  0  0  0  0  0
   -0.4052    2.2895    0.1347 N   0  0  0  0  0  0  0  0  0  0  0  0
    1.0763    0.1014   -0.2585 C   0  0  0  0  0  3  0  0  0  0  0  0
    1.6197   -1.1943   -0.2893 C   0  0  0  0  0  0  0  0  0  0  0  0
    2.9906   -1.3602   -0.0315 C   0  0  0  0  0  0  0  0  0  0  0  0
    3.4385   -2.3677   -0.0607 H   0  0  0  0  0  0  0  0  0  0  0  0
    3.8051   -0.2426    0.2873 C   0  0  0  0  0  0  0  0  0  0  0  0
    3.2190    1.0514    0.3334 C   0  0  0  0  0  0  0  0  0  0  0  0
    3.8469    1.9243    0.5862 H   0  0  0  0  0  0  0  0  0  0  0  0
    1.8570    1.2306    0.0487 C   0  0  0  0  0  0  0  0  0  0  0  0
    0.5781   -2.2662   -0.5092 C   0  0  0  0  0  0  0  0  0  0  0  0
    0.2183   -2.6404    0.4722 H   0  0  0  0  0  0  0  0  0  0  0  0
    0.9433   -3.1469   -1.0838 H   0  0  0  0  0  0  0  0  0  0  0  0
   -0.4010   -1.6415   -2.6750 C   0  0  0  0  0  0  0  0  0  0  0  0
   -0.2883   -2.6749   -3.0744 H   0  0  0  0  0  0  0  0  0  0  0  0
    0.5191   -1.0634   -2.8732 H   0  0  0  0  0  0  0  0  0  0  0  0
   -1.2575   -1.1431   -3.1642 H   0  0  0  0  0  0  0  0  0  0  0  0
   -1.8330   -2.5339   -0.9379 C   0  0  0  0  0  0  0  0  0  0  0  0
   -2.7062   -2.0807   -1.4426 H   0  0  0  0  0  0  0  0  0  0  0  0
   -2.0363   -2.5478    0.1477 H   0  0  0  0  0  0  0  0  0  0  0  0
   -1.6607   -3.5694   -1.3066 H   0  0  0  0  0  0  0  0  0  0  0  0
    1.0884    2.5261   -0.0563 C   0  0  0  0  0  0  0  0  0  0  0  0
    1.2025    2.9394   -1.0801 H   0  0  0  0  0  0  0  0  0  0  0  0
    1.4234    3.3134    0.6553 H   0  0  0  0  0  0  0  0  0  0  0  0
   -0.7350    2.3023    1.5838 C   0  0  0  0  0  0  0  0  0  0  0  0
   -0.5293    3.3095    2.0119 H   0  0  0  0  0  0  0  0  0  0  0  0
   -0.1194    1.5458    2.1031 H   0  0  0  0  0  0  0  0  0  0  0  0
   -1.8039    2.0518    1.7118 H   0  0  0  0  0  0  0  0  0  0  0  0
   -1.1804    3.3443   -0.5590 C   0  0  0  0  0  0  0  0  0  0  0  0
   -0.9353    4.3444   -0.1370 H   0  0  0  0  0  0  0  0  0  0  0  0
   -2.2582    3.1196   -0.4430 H   0  0  0  0  0  0  0  0  0  0  0  0
   -0.9351    3.3235   -1.6366 H   0  0  0  0  0  0  0  0  0  0  0  0
    6.0059    0.2083    2.4070 C   0  0  0  0  0  0  0  0  0  0  0  0
    7.0879    0.1483    2.6460 H   0  0  0  0  0  0  0  0  0  0  0  0
    5.4518   -0.3824    3.1649 H   0  0  0  0  0  0  0  0  0  0  0  0
    5.6942    1.2678    2.5134 H   0  0  0  0  0  0  0  0  0  0  0  0
    6.6502    0.5886   -0.5878 C   0  0  0  0  0  0  0  0  0  0  0  0
    6.4784    0.2284   -1.6227 H   0  0  0  0  0  0  0  0  0  0  0  0
    7.7382    0.5278   -0.3774 H   0  0  0  0  0  0  0  0  0  0  0  0
    6.3577    1.6581   -0.5514 H   0  0  0  0  0  0  0  0  0  0  0  0
    6.1534   -2.2552    0.5339 C   0  0  0  0  0  0  0  0  0  0  0  0
    5.9688   -2.6598   -0.4824 H   0  0  0  0  0  0  0  0  0  0  0  0
    5.5958   -2.8819    1.2598 H   0  0  0  0  0  0  0  0  0  0  0  0
    7.2352   -2.3724    0.7504 H   0  0  0  0  0  0  0  0  0  0  0  0
  1 34  1  0  0  0  0
  2 19  1  0  0  0  0
  2 12  1  0  0  0  0
  3 26  1  0  0  0  0
  4 11  1  0  0  0  0
  5  4  2  0  0  0  0
  5  6  1  0  0  0  0
  6  8  2  0  0  0  0
  7  6  1  0  0  0  0
  8  9  1  0  0  0  0
  8  1  1  0  0  0  0
  9 10  1  0  0  0  0
 11  9  2  0  0  0  0
 12  5  1  0  0  0  0
 12 13  1  0  0  0  0
 14 12  1  0  0  0  0
 15  2  1  0  0  0  0
 16 15  1  0  0  0  0
 17 15  1  0  0  0  0
 18 15  1  0  0  0  0
 19 21  1  0  0  0  0
 20 19  1  0  0  0  0
 22 19  1  0  0  0  0
 23 11  1  0  0  0  0
 23  3  1  0  0  0  0
 23 25  1  0  0  0  0
 24 23  1  0  0  0  0
 26 29  1  0  0  0  0
 26 27  1  0  0  0  0
 26 28  1  0  0  0  0
 30 32  1  0  0  0  0
 30 31  1  0  0  0  0
 30  3  1  0  0  0  0
 33 30  1  0  0  0  0
 34 37  1  0  0  0  0
 34 35  1  0  0  0  0
 34 36  1  0  0  0  0
 38 41  1  0  0  0  0
 38 40  1  0  0  0  0
 38  1  1  0  0  0  0
 39 38  1  0  0  0  0
 42  1  1  0  0  0  0
 42 45  1  0  0  0  0
 42 44  1  0  0  0  0
 43 42  1  0  0  0  0
M  END
