1,2,3
 OpenBabel05122313063D

 34 34  0  0  0  0  0  0  0  0999 V2000
    0.0949    1.7462   -0.1038 N   0  0  0  0  0  2  0  0  0  0  0  0
    2.7262   -0.1043   -0.0077 N   0  0  0  0  0  0  0  0  0  0  0  0
   -1.5422   -0.2724   -0.0316 C   0  0  0  0  0  2  0  0  0  0  0  0
   -2.4183   -1.3744   -0.0132 C   0  0  0  0  0  0  0  0  0  0  0  0
   -2.0026   -2.3923   -0.0233 H   0  0  0  0  0  0  0  0  0  0  0  0
   -3.8076   -1.1781    0.0245 C   0  0  0  0  0  0  0  0  0  0  0  0
   -4.4690   -2.0608    0.0386 H   0  0  0  0  0  0  0  0  0  0  0  0
   -4.3961    0.1105    0.0473 C   0  0  0  0  0  0  0  0  0  0  0  0
   -3.5360    1.2167    0.0293 C   0  0  0  0  0  0  0  0  0  0  0  0
   -3.9523    2.2379    0.0449 H   0  0  0  0  0  0  0  0  0  0  0  0
   -2.1354    1.0316   -0.0121 C   0  0  0  0  0  0  0  0  0  0  0  0
   -5.8955    0.2706    0.0895 C   0  0  0  0  0  0  0  0  0  0  0  0
   -6.3791   -0.2034   -0.7905 H   0  0  0  0  0  0  0  0  0  0  0  0
   -6.1924    1.3374    0.1029 H   0  0  0  0  0  0  0  0  0  0  0  0
   -6.3298   -0.2121    0.9903 H   0  0  0  0  0  0  0  0  0  0  0  0
   -1.1719    2.0962   -0.0481 C   0  0  0  0  0  0  0  0  0  0  0  0
   -1.4506    3.1666   -0.0396 H   0  0  0  0  0  0  0  0  0  0  0  0
    1.1298    2.7649   -0.2080 C   0  0  0  0  0  0  0  0  0  0  0  0
    0.7436    3.7231    0.2035 H   0  0  0  0  0  0  0  0  0  0  0  0
    1.3433    2.9389   -1.2883 H   0  0  0  0  0  0  0  0  0  0  0  0
    2.4348    2.3800    0.4897 C   0  0  0  0  0  0  0  0  0  0  0  0
    3.0779    3.2840    0.5143 H   0  0  0  0  0  0  0  0  0  0  0  0
    2.2359    2.1122    1.5485 H   0  0  0  0  0  0  0  0  0  0  0  0
    3.2196    1.2782   -0.2224 C   0  0  0  0  0  0  0  0  0  0  0  0
    4.2932    1.3179    0.0799 H   0  0  0  0  0  0  0  0  0  0  0  0
    3.1907    1.4717   -1.3147 H   0  0  0  0  0  0  0  0  0  0  0  0
    3.1301   -0.5951    1.3291 C   0  0  0  0  0  0  0  0  0  0  0  0
    2.6982    0.0504    2.1161 H   0  0  0  0  0  0  0  0  0  0  0  0
    4.2416   -0.5999    1.4244 H   0  0  0  0  0  0  0  0  0  0  0  0
    2.7305   -1.6174    1.4618 H   0  0  0  0  0  0  0  0  0  0  0  0
    3.3081   -0.9850   -1.0454 C   0  0  0  0  0  0  0  0  0  0  0  0
    2.9760   -0.6416   -2.0433 H   0  0  0  0  0  0  0  0  0  0  0  0
    2.9338   -2.0128   -0.8872 H   0  0  0  0  0  0  0  0  0  0  0  0
    4.4218   -0.9651   -0.9976 H   0  0  0  0  0  0  0  0  0  0  0  0
  1 16  1  0  0  0  0
  2 27  1  0  0  0  0
  3  4  1  0  0  0  0
  3 11  1  0  0  0  0
  4  6  2  0  0  0  0
  5  4  1  0  0  0  0
  6  7  1  0  0  0  0
  6  8  1  0  0  0  0
  8 12  1  0  0  0  0
  9 10  1  0  0  0  0
  9  8  2  0  0  0  0
 11  9  1  0  0  0  0
 12 14  1  0  0  0  0
 12 15  1  0  0  0  0
 13 12  1  0  0  0  0
 16 17  1  0  0  0  0
 16 11  2  0  0  0  0
 18  1  1  0  0  0  0
 18 19  1  0  0  0  0
 18 21  1  0  0  0  0
 20 18  1  0  0  0  0
 21 22  1  0  0  0  0
 21 23  1  0  0  0  0
 24  2  1  0  0  0  0
 24 25  1  0  0  0  0
 24 21  1  0  0  0  0
 26 24  1  0  0  0  0
 27 29  1  0  0  0  0
 27 30  1  0  0  0  0
 27 28  1  0  0  0  0
 31 34  1  0  0  0  0
 31 33  1  0  0  0  0
 31  2  1  0  0  0  0
 32 31  1  0  0  0  0
M  END
