3,4,6
 OpenBabel05122313063D

 56 56  0  0  1  0  0  0  0  0999 V2000
   -2.8713   -0.1844    1.5561 Si  0  0  0  0  0  0  0  0  0  0  0  0
    2.0449   -1.7426    1.4337 Si  0  0  0  0  0  0  0  0  0  0  0  0
   -1.5803    0.4448    0.4634 N   0  0  0  0  0  2  0  0  0  0  0  0
    1.0596   -0.6207    0.3985 N   0  0  0  0  0  2  0  0  0  0  0  0
   -1.0174    1.6034    0.1095 C   0  0  1  0  0  3  0  0  0  0  0  0
    0.3413    1.5748   -0.3415 C   0  0  0  0  0  3  0  0  0  0  0  0
    1.3536    0.6369    0.0690 C   0  0  2  0  0  3  0  0  0  0  0  0
   -1.7927    2.9427    0.0422 C   0  0  0  0  0  0  0  0  0  0  0  0
   -0.9107    4.1237   -0.4028 C   0  0  0  0  0  0  0  0  0  0  0  0
   -2.9303    2.7665   -0.9894 C   0  0  0  0  0  0  0  0  0  0  0  0
   -2.3613    3.2812    1.4343 C   0  0  0  0  0  0  0  0  0  0  0  0
    2.7615    1.1287    0.0026 C   0  0  0  0  0  0  0  0  0  0  0  0
    3.1460    2.3126    0.6638 C   0  0  0  0  0  0  0  0  0  0  0  0
    4.4793    2.7424    0.6193 C   0  0  0  0  0  0  0  0  0  0  0  0
    5.4299    2.0105   -0.1119 C   0  0  0  0  0  0  0  0  0  0  0  0
    5.0432    0.8505   -0.8031 C   0  0  0  0  0  0  0  0  0  0  0  0
    3.7151    0.4065   -0.7439 C   0  0  0  0  0  0  0  0  0  0  0  0
   -2.3451    0.2458    3.3219 C   0  0  0  0  0  0  0  0  0  0  0  0
   -4.6259    0.3798    1.1440 C   0  0  0  0  0  0  0  0  0  0  0  0
   -2.8538   -2.0592    1.3930 C   0  0  0  0  0  0  0  0  0  0  0  0
    3.1105   -0.7292    2.6218 C   0  0  0  0  0  0  0  0  0  0  0  0
    0.8036   -2.7346    2.4444 C   0  0  0  0  0  0  0  0  0  0  0  0
    3.1010   -2.8974    0.3859 C   0  0  0  0  0  0  0  0  0  0  0  0
    0.7255    2.4498   -0.8737 H   0  0  0  0  0  0  0  0  0  0  0  0
   -1.5192    5.0500   -0.3988 H   0  0  0  0  0  0  0  0  0  0  0  0
   -0.0513    4.2848    0.2787 H   0  0  0  0  0  0  0  0  0  0  0  0
   -0.5235    3.9935   -1.4324 H   0  0  0  0  0  0  0  0  0  0  0  0
   -3.5399    3.6916   -1.0413 H   0  0  0  0  0  0  0  0  0  0  0  0
   -2.5182    2.5662   -1.9986 H   0  0  0  0  0  0  0  0  0  0  0  0
   -3.5918    1.9205   -0.7335 H   0  0  0  0  0  0  0  0  0  0  0  0
   -2.9020    4.2477    1.3878 H   0  0  0  0  0  0  0  0  0  0  0  0
   -3.0788    2.5233    1.7928 H   0  0  0  0  0  0  0  0  0  0  0  0
   -1.5519    3.3777    2.1860 H   0  0  0  0  0  0  0  0  0  0  0  0
    2.3958    2.8769    1.2387 H   0  0  0  0  0  0  0  0  0  0  0  0
    4.7799    3.6538    1.1577 H   0  0  0  0  0  0  0  0  0  0  0  0
    6.4752    2.3524   -0.1518 H   0  0  0  0  0  0  0  0  0  0  0  0
    5.7800    0.2908   -1.3987 H   0  0  0  0  0  0  0  0  0  0  0  0
    3.3950   -0.4850   -1.3018 H   0  0  0  0  0  0  0  0  0  0  0  0
   -3.0232   -0.2587    4.0410 H   0  0  0  0  0  0  0  0  0  0  0  0
   -1.3175   -0.1302    3.5038 H   0  0  0  0  0  0  0  0  0  0  0  0
   -2.3568    1.3300    3.5416 H   0  0  0  0  0  0  0  0  0  0  0  0
   -5.3250   -0.1845    1.7963 H   0  0  0  0  0  0  0  0  0  0  0  0
   -4.8261    1.4585    1.2854 H   0  0  0  0  0  0  0  0  0  0  0  0
   -4.8525    0.1097    0.0926 H   0  0  0  0  0  0  0  0  0  0  0  0
   -3.5497   -2.4708    2.1539 H   0  0  0  0  0  0  0  0  0  0  0  0
   -3.2011   -2.3896    0.3951 H   0  0  0  0  0  0  0  0  0  0  0  0
   -1.8566   -2.4997    1.5806 H   0  0  0  0  0  0  0  0  0  0  0  0
    3.5149   -1.4082    3.4017 H   0  0  0  0  0  0  0  0  0  0  0  0
    3.9654   -0.2349    2.1215 H   0  0  0  0  0  0  0  0  0  0  0  0
    2.5120    0.0516    3.1344 H   0  0  0  0  0  0  0  0  0  0  0  0
    1.3466   -3.3784    3.1668 H   0  0  0  0  0  0  0  0  0  0  0  0
    0.1261   -2.0721    3.0197 H   0  0  0  0  0  0  0  0  0  0  0  0
    0.1939   -3.3853    1.7882 H   0  0  0  0  0  0  0  0  0  0  0  0
    3.4685   -3.7317    1.0189 H   0  0  0  0  0  0  0  0  0  0  0  0
    2.4975   -3.3292   -0.4365 H   0  0  0  0  0  0  0  0  0  0  0  0
    3.9814   -2.3807   -0.0430 H   0  0  0  0  0  0  0  0  0  0  0  0
  1 18  1  0  0  0  0
  2 22  1  0  0  0  0
  2 21  1  0  0  0  0
  3  1  1  0  0  0  0
  4  2  1  0  0  0  0
  5  6  1  6  0  0  0
  5  3  1  0  0  0  0
  7  6  1  6  0  0  0
  7  4  1  0  0  0  0
  8  5  1  0  0  0  0
  8 11  1  0  0  0  0
  9 25  1  0  0  0  0
  9  8  1  0  0  0  0
  9 26  1  0  0  0  0
 10 30  1  0  0  0  0
 10  8  1  0  0  0  0
 11 32  1  0  0  0  0
 11 33  1  0  0  0  0
 12  7  1  0  0  0  0
 12 13  1  0  0  0  0
 13 34  1  0  0  0  0
 14 13  2  0  0  0  0
 14 35  1  0  0  0  0
 15 14  1  0  0  0  0
 16 17  1  0  0  0  0
 16 15  2  0  0  0  0
 17 12  2  0  0  0  0
 18 40  1  0  0  0  0
 18 41  1  0  0  0  0
 18 39  1  0  0  0  0
 19 43  1  0  0  0  0
 19  1  1  0  0  0  0
 19 42  1  0  0  0  0
 20  1  1  0  0  0  0
 20 47  1  0  0  0  0
 20 45  1  0  0  0  0
 21 50  1  0  0  0  0
 21 48  1  0  0  0  0
 22 52  1  0  0  0  0
 22 51  1  0  0  0  0
 23 54  1  0  0  0  0
 23  2  1  0  0  0  0
 24  6  1  0  0  0  0
 27  9  1  0  0  0  0
 28 10  1  0  0  0  0
 29 10  1  0  0  0  0
 31 11  1  0  0  0  0
 36 15  1  0  0  0  0
 37 16  1  0  0  0  0
 38 17  1  0  0  0  0
 44 19  1  0  0  0  0
 46 20  1  0  0  0  0
 49 21  1  0  0  0  0
 53 22  1  0  0  0  0
 55 23  1  0  0  0  0
 56 23  1  0  0  0  0
M  END
