1,8,16
 OpenBabel05122313063D

 43 45  0  0  1  0  0  0  0  0999 V2000
    2.5992   -0.6054   -0.4752 N   0  0  0  0  0  2  0  0  0  0  0  0
    3.4005   -1.6649   -0.6358 C   0  0  0  0  0  3  0  0  0  0  0  0
    4.7959   -1.5471   -0.7270 C   0  0  0  0  0  0  0  0  0  0  0  0
    5.3739   -0.2719   -0.6364 C   0  0  0  0  0  0  0  0  0  0  0  0
    4.5372    0.8364   -0.4626 C   0  0  0  0  0  0  0  0  0  0  0  0
    3.1458    0.6352   -0.3878 C   0  0  0  0  0  0  0  0  0  0  0  0
    2.2077    1.7422   -0.2086 C   0  0  0  0  0  3  0  0  0  0  0  0
    0.9418    1.5099   -0.0792 N   0  0  0  0  0  2  0  0  0  0  0  0
    0.0250    2.6179    0.0852 C   0  0  1  0  0  0  0  0  0  0  0  0
   -0.5478    3.0717   -1.2712 C   0  0  0  0  0  0  0  0  0  0  0  0
   -1.4856    4.2721   -1.0833 C   0  0  0  0  0  0  0  0  0  0  0  0
   -2.5925    3.9912   -0.0567 C   0  0  0  0  0  0  0  0  0  0  0  0
   -2.0127    3.4804    1.2698 C   0  0  0  0  0  0  0  0  0  0  0  0
   -1.1371    2.2304    1.0620 C   0  0  1  0  0  0  0  0  0  0  0  0
   -1.9365    1.1328    0.5889 N   0  0  0  0  0  0  0  0  0  0  0  0
   -1.5756   -0.2199    0.7919 C   0  0  0  0  0  3  0  0  0  0  0  0
   -2.6317   -1.1098    0.2058 C   0  0  0  0  0  0  0  0  0  0  0  0
   -2.9513   -2.3577    0.7822 C   0  0  0  0  0  0  0  0  0  0  0  0
   -3.9479   -3.1430    0.1944 C   0  0  0  0  0  0  0  0  0  0  0  0
   -4.6063   -2.6644   -0.9502 C   0  0  0  0  0  0  0  0  0  0  0  0
   -4.2367   -1.4039   -1.4411 C   0  0  0  0  0  0  0  0  0  0  0  0
   -3.2841   -0.6436   -0.8813 N   0  0  0  0  0  0  0  0  0  0  0  0
    2.9010   -2.6456   -0.6874 H   0  0  0  0  0  0  0  0  0  0  0  0
    5.4127   -2.4462   -0.8668 H   0  0  0  0  0  0  0  0  0  0  0  0
    6.4649   -0.1442   -0.6965 H   0  0  0  0  0  0  0  0  0  0  0  0
    4.9460    1.8540   -0.3772 H   0  0  0  0  0  0  0  0  0  0  0  0
    2.6120    2.7742   -0.1731 H   0  0  0  0  0  0  0  0  0  0  0  0
    0.5753    3.4797    0.5319 H   0  0  0  0  0  0  0  0  0  0  0  0
   -1.0810    2.2166   -1.7387 H   0  0  0  0  0  0  0  0  0  0  0  0
    0.2896    3.3273   -1.9537 H   0  0  0  0  0  0  0  0  0  0  0  0
   -0.8860    5.1447   -0.7391 H   0  0  0  0  0  0  0  0  0  0  0  0
   -1.9241    4.5618   -2.0607 H   0  0  0  0  0  0  0  0  0  0  0  0
   -3.3011    3.2369   -0.4651 H   0  0  0  0  0  0  0  0  0  0  0  0
   -3.1952    4.9067    0.1155 H   0  0  0  0  0  0  0  0  0  0  0  0
   -1.3976    4.2792    1.7389 H   0  0  0  0  0  0  0  0  0  0  0  0
   -2.8228    3.2292    1.9830 H   0  0  0  0  0  0  0  0  0  0  0  0
   -0.6695    1.9162    2.0188 H   0  0  0  0  0  0  0  0  0  0  0  0
   -2.4285    1.2522   -0.3051 H   0  0  0  0  0  0  0  0  0  0  0  0
   -1.3994   -0.4411    1.8635 H   0  0  0  0  0  0  0  0  0  0  0  0
   -2.4194   -2.6923    1.6836 H   0  0  0  0  0  0  0  0  0  0  0  0
   -4.2158   -4.1183    0.6291 H   0  0  0  0  0  0  0  0  0  0  0  0
   -5.3965   -3.2476   -1.4454 H   0  0  0  0  0  0  0  0  0  0  0  0
   -4.7393   -0.9822   -2.3301 H   0  0  0  0  0  0  0  0  0  0  0  0
  1  6  1  0  0  0  0
  2  1  1  0  0  0  0
  3  4  2  0  0  0  0
  3  2  1  0  0  0  0
  4  5  1  0  0  0  0
  5  6  2  0  0  0  0
  5 26  1  0  0  0  0
  6  7  1  0  0  0  0
  7 27  1  0  0  0  0
  7  8  1  0  0  0  0
  8  9  1  0  0  0  0
  9 28  1  1  0  0  0
  9 14  1  0  0  0  0
 10 11  1  0  0  0  0
 10  9  1  0  0  0  0
 11 31  1  0  0  0  0
 11 12  1  0  0  0  0
 12 34  1  0  0  0  0
 12 13  1  0  0  0  0
 13 35  1  0  0  0  0
 13 36  1  0  0  0  0
 14 13  1  0  0  0  0
 14 37  1  1  0  0  0
 15 16  1  0  0  0  0
 15 14  1  0  0  0  0
 16 39  1  0  0  0  0
 17 18  1  0  0  0  0
 17 16  1  0  0  0  0
 18 40  1  0  0  0  0
 19 41  1  0  0  0  0
 19 18  2  0  0  0  0
 20 19  1  0  0  0  0
 21 20  2  0  0  0  0
 21 22  1  0  0  0  0
 22 17  2  0  0  0  0
 23  2  1  0  0  0  0
 24  3  1  0  0  0  0
 25  4  1  0  0  0  0
 29 10  1  0  0  0  0
 30 10  1  0  0  0  0
 32 11  1  0  0  0  0
 33 12  1  0  0  0  0
 38 15  1  0  0  0  0
 42 20  1  0  0  0  0
 43 21  1  0  0  0  0
M  END
