3,4,8
 OpenBabel05122313063D

 69 70  0  0  0  0  0  0  0  0999 V2000
    8.5945    1.8091    0.4417 O   0  0  0  0  0  0  0  0  0  0  0  0
    9.5469   -2.5624   -0.6098 O   0  0  0  0  0  0  0  0  0  0  0  0
   -2.1046   -1.2623    2.0987 N   0  0  0  0  0  0  0  0  0  0  0  0
   -2.0086   -0.5758   -2.0675 N   0  0  0  0  0  0  0  0  0  0  0  0
    6.8161    0.3415    0.2795 N   0  0  0  0  0  0  0  0  0  0  0  0
    9.0206   -0.3937   -0.0593 N   0  0  0  0  0  0  0  0  0  0  0  0
   10.0193   -0.1671   -0.0887 H   0  0  0  0  0  0  0  0  0  0  0  0
   -0.4715   -1.0880    0.0210 C   0  0  0  0  0  3  0  0  0  0  0  0
    0.2036   -1.0626    1.2553 C   0  0  0  0  0  0  0  0  0  0  0  0
    1.5993   -1.1660    1.2597 C   0  0  0  0  0  0  0  0  0  0  0  0
    2.1734   -1.1312    2.1979 H   0  0  0  0  0  0  0  0  0  0  0  0
    2.3027   -1.2808    0.0274 C   0  0  0  0  0  0  0  0  0  0  0  0
    1.5939   -1.3281   -1.2071 C   0  0  0  0  0  0  0  0  0  0  0  0
    2.1636   -1.4202   -2.1441 H   0  0  0  0  0  0  0  0  0  0  0  0
    0.1973   -1.2397   -1.2082 C   0  0  0  0  0  0  0  0  0  0  0  0
   -0.7036   -0.8146    2.4332 C   0  0  0  0  0  0  0  0  0  0  0  0
   -0.3651   -1.3011    3.3759 H   0  0  0  0  0  0  0  0  0  0  0  0
   -0.7600    0.2777    2.6235 H   0  0  0  0  0  0  0  0  0  0  0  0
   -2.2274   -2.7310    2.2613 C   0  0  0  0  0  0  0  0  0  0  0  0
   -3.2254   -3.0519    1.9101 H   0  0  0  0  0  0  0  0  0  0  0  0
   -2.1078   -3.0099    3.3333 H   0  0  0  0  0  0  0  0  0  0  0  0
   -1.4500   -3.2387    1.6617 H   0  0  0  0  0  0  0  0  0  0  0  0
   -3.0957   -0.5779    2.9564 C   0  0  0  0  0  0  0  0  0  0  0  0
   -2.8956   -0.8038    4.0279 H   0  0  0  0  0  0  0  0  0  0  0  0
   -4.1086   -0.9191    2.6813 H   0  0  0  0  0  0  0  0  0  0  0  0
   -3.0549    0.5116    2.7838 H   0  0  0  0  0  0  0  0  0  0  0  0
   -0.7383   -1.3239   -2.3876 C   0  0  0  0  0  0  0  0  0  0  0  0
   -1.0217   -2.3836   -2.5592 H   0  0  0  0  0  0  0  0  0  0  0  0
   -0.3037   -0.9385   -3.3373 H   0  0  0  0  0  0  0  0  0  0  0  0
   -3.1398   -1.0492   -2.8945 C   0  0  0  0  0  0  0  0  0  0  0  0
   -2.9120   -0.9112   -3.9755 H   0  0  0  0  0  0  0  0  0  0  0  0
   -4.0373   -0.4633   -2.6253 H   0  0  0  0  0  0  0  0  0  0  0  0
   -3.3263   -2.1195   -2.6889 H   0  0  0  0  0  0  0  0  0  0  0  0
   -1.7989    0.8789   -2.2889 C   0  0  0  0  0  0  0  0  0  0  0  0
   -2.7042    1.4225   -1.9614 H   0  0  0  0  0  0  0  0  0  0  0  0
   -1.6127    1.0684   -3.3704 H   0  0  0  0  0  0  0  0  0  0  0  0
   -0.9240    1.2163   -1.7049 H   0  0  0  0  0  0  0  0  0  0  0  0
    3.7274   -1.2650    0.0241 C   0  0  0  0  0  0  0  0  0  0  0  0
    4.9549   -1.1613    0.0170 C   0  0  0  0  0  0  0  0  0  0  0  0
    6.3647   -0.9490   -0.0085 C   0  0  0  0  0  0  0  0  0  0  0  0
    8.1856    0.6742    0.2348 C   0  0  0  0  0  0  0  0  0  0  0  0
    8.6790   -1.7355   -0.3529 C   0  0  0  0  0  0  0  0  0  0  0  0
    7.2428   -1.9690   -0.3100 C   0  0  0  0  0  0  0  0  0  0  0  0
    6.8742   -2.9776   -0.5247 H   0  0  0  0  0  0  0  0  0  0  0  0
    5.8744    1.4374    0.5387 C   0  0  0  0  0  0  0  0  0  0  0  0
    6.4217    2.1830    1.1454 H   0  0  0  0  0  0  0  0  0  0  0  0
    5.0472    1.0254    1.1464 H   0  0  0  0  0  0  0  0  0  0  0  0
    5.3461    2.0841   -0.7482 C   0  0  0  0  0  0  0  0  0  0  0  0
    5.0114    1.2806   -1.4398 H   0  0  0  0  0  0  0  0  0  0  0  0
    6.1895    2.6064   -1.2456 H   0  0  0  0  0  0  0  0  0  0  0  0
    4.1815    3.0557   -0.5134 C   0  0  0  0  0  0  0  0  0  0  0  0
    4.4918    3.8564    0.1951 H   0  0  0  0  0  0  0  0  0  0  0  0
    3.9615    3.5752   -1.4713 H   0  0  0  0  0  0  0  0  0  0  0  0
    2.8990    2.3830   -0.0082 C   0  0  0  0  0  0  0  0  0  0  0  0
    2.6803    1.4948   -0.6416 H   0  0  0  0  0  0  0  0  0  0  0  0
    3.0556    1.9761    1.0158 H   0  0  0  0  0  0  0  0  0  0  0  0
    1.6665    3.2908    0.0058 C   0  0  0  0  0  0  0  0  0  0  0  0
    1.4415    3.6161   -1.0355 H   0  0  0  0  0  0  0  0  0  0  0  0
    1.8886    4.2258    0.5678 H   0  0  0  0  0  0  0  0  0  0  0  0
    0.4314    2.6119    0.6044 C   0  0  0  0  0  0  0  0  0  0  0  0
    0.3047    1.6089    0.1377 H   0  0  0  0  0  0  0  0  0  0  0  0
    0.6172    2.4045    1.6838 H   0  0  0  0  0  0  0  0  0  0  0  0
   -0.8738    3.3990    0.4556 C   0  0  0  0  0  0  0  0  0  0  0  0
   -1.0769    3.5613   -0.6268 H   0  0  0  0  0  0  0  0  0  0  0  0
   -0.7465    4.4168    0.8871 H   0  0  0  0  0  0  0  0  0  0  0  0
   -2.0704    2.7028    1.1012 C   0  0  0  0  0  0  0  0  0  0  0  0
   -1.9460    2.6311    2.2029 H   0  0  0  0  0  0  0  0  0  0  0  0
   -2.1871    1.6657    0.7123 H   0  0  0  0  0  0  0  0  0  0  0  0
   -3.0310    3.2168    0.9080 H   0  0  0  0  0  0  0  0  0  0  0  0
  2 42  2  0  0  0  0
  3 19  1  0  0  0  0
  3 16  1  0  0  0  0
  3 23  1  0  0  0  0
  5 45  1  0  0  0  0
  6 41  1  0  0  0  0
  7  6  1  0  0  0  0
  8  9  1  0  0  0  0
  9 10  2  0  0  0  0
  9 16  1  0  0  0  0
 10 11  1  0  0  0  0
 12 10  1  0  0  0  0
 13 12  2  0  0  0  0
 14 13  1  0  0  0  0
 15 13  1  0  0  0  0
 15  8  2  0  0  0  0
 16 18  1  0  0  0  0
 16 17  1  0  0  0  0
 19 21  1  0  0  0  0
 20 19  1  0  0  0  0
 22 19  1  0  0  0  0
 23 24  1  0  0  0  0
 25 23  1  0  0  0  0
 26 23  1  0  0  0  0
 27  4  1  0  0  0  0
 27 15  1  0  0  0  0
 28 27  1  0  0  0  0
 29 27  1  0  0  0  0
 30 33  1  0  0  0  0
 30 32  1  0  0  0  0
 30  4  1  0  0  0  0
 31 30  1  0  0  0  0
 34  4  1  0  0  0  0
 34 35  1  0  0  0  0
 34 37  1  0  0  0  0
 36 34  1  0  0  0  0
 38 12  1  0  0  0  0
 39 38  3  0  0  0  0
 40 39  1  0  0  0  0
 40  5  1  0  0  0  0
 41  5  1  0  0  0  0
 41  1  2  0  0  0  0
 42 43  1  0  0  0  0
 42  6  1  0  0  0  0
 43 40  2  0  0  0  0
 44 43  1  0  0  0  0
 45 46  1  0  0  0  0
 45 47  1  0  0  0  0
 48 51  1  0  0  0  0
 48 45  1  0  0  0  0
 49 48  1  0  0  0  0
 50 48  1  0  0  0  0
 51 54  1  0  0  0  0
 51 52  1  0  0  0  0
 53 51  1  0  0  0  0
 54 57  1  0  0  0  0
 54 56  1  0  0  0  0
 55 54  1  0  0  0  0
 57 59  1  0  0  0  0
 57 60  1  0  0  0  0
 58 57  1  0  0  0  0
 60 62  1  0  0  0  0
 61 60  1  0  0  0  0
 63 60  1  0  0  0  0
 63 65  1  0  0  0  0
 63 66  1  0  0  0  0
 64 63  1  0  0  0  0
 66 67  1  0  0  0  0
 68 66  1  0  0  0  0
 69 66  1  0  0  0  0
M  END
