12,29,31
 OpenBabel05122313063D

 63 67  0  0  1  0  0  0  0  0999 V2000
   -4.2764   -2.4382    0.2484 C   0  0  0  0  0  0  0  0  0  0  0  0
    0.6073   -1.6775    2.2030 O   0  0  0  0  0  0  0  0  0  0  0  0
   -3.1209   -2.8491   -0.4756 C   0  0  0  0  0  0  0  0  0  0  0  0
   -4.4315   -1.1135    0.6010 C   0  0  0  0  0  0  0  0  0  0  0  0
    1.8495   -1.9523   -2.6722 C   0  0  0  0  0  0  0  0  0  0  0  0
   -2.3056   -0.5459   -0.5664 C   0  0  0  0  0  0  0  0  0  0  0  0
   -0.7740    4.1443   -0.5714 C   0  0  0  0  0  0  0  0  0  0  0  0
    0.1741   -3.2915    0.5003 C   0  0  0  0  0  0  0  0  0  0  0  0
   -2.6750    2.2031    0.1802 C   0  0  0  0  0  0  0  0  0  0  0  0
   -0.5358    2.8247   -0.9354 C   0  0  0  0  0  0  0  0  0  0  0  0
   -0.8898   -2.4503   -1.5496 C   0  0  0  0  0  0  0  0  0  0  0  0
   -1.3792    0.4511   -0.9904 C   0  0  0  0  0  3  0  0  0  0  0  0
   -1.5119    1.8147   -0.5973 C   0  0  0  0  0  0  0  0  0  0  0  0
    2.1142    2.5953    0.4739 C   0  0  0  0  0  0  0  0  0  0  0  0
    0.7691    2.4623   -1.6021 C   0  0  0  0  0  0  0  0  0  0  0  0
    3.0404   -0.1305   -1.6976 C   0  0  0  0  0  0  0  0  0  0  0  0
    2.9466    1.3697   -1.4833 C   0  0  0  0  0  0  0  0  0  0  0  0
    1.5233   -2.8202   -1.4517 C   0  0  0  0  0  0  0  0  0  0  0  0
    1.3401   -1.1390    3.3013 C   0  0  0  0  0  0  0  0  0  0  0  0
   -3.4603   -0.1358    0.2114 C   0  0  0  0  0  0  0  0  0  0  0  0
   -1.9381    4.5319    0.1518 C   0  0  0  0  0  0  0  0  0  0  0  0
   -2.8574    3.5781    0.5369 C   0  0  0  0  0  0  0  0  0  0  0  0
   -2.1406   -1.9478   -0.8713 C   0  0  0  0  0  0  0  0  0  0  0  0
    1.0691   -2.9171    1.6749 C   0  0  0  0  0  0  0  0  0  0  0  0
   -3.6199    1.2238    0.5407 C   0  0  0  0  0  3  0  0  0  0  0  0
    2.8031    1.7877    1.5679 C   0  0  0  0  0  0  0  0  0  0  0  0
    2.4650   -0.2112    2.8601 C   0  0  0  0  0  0  0  0  0  0  0  0
    1.8976   -0.5596   -2.4165 O   0  0  0  0  0  0  0  0  0  0  0  0
    0.3273   -2.4213   -0.6850 N   0  0  2  0  0  0  0  0  0  0  0  0
    1.8899    0.8258    2.0788 O   0  0  0  0  0  0  0  0  0  0  0  0
    1.7544    1.7828   -0.7031 N   0  0  1  0  0  0  0  0  0  0  0  0
   -5.0298   -3.1851    0.5378 H   0  0  0  0  0  0  0  0  0  0  0  0
   -2.9930   -3.9164   -0.7170 H   0  0  0  0  0  0  0  0  0  0  0  0
   -5.3057   -0.7843    1.1828 H   0  0  0  0  0  0  0  0  0  0  0  0
   -4.5179    1.5328    1.0982 H   0  0  0  0  0  0  0  0  0  0  0  0
   -3.7487    3.8573    1.1190 H   0  0  0  0  0  0  0  0  0  0  0  0
   -2.0869    5.5892    0.4150 H   0  0  0  0  0  0  0  0  0  0  0  0
   -0.0298    4.9121   -0.8364 H   0  0  0  0  0  0  0  0  0  0  0  0
   -0.6574    0.2020   -1.7871 H   0  0  0  0  0  0  0  0  0  0  0  0
   -0.6724   -1.8316   -2.4414 H   0  0  0  0  0  0  0  0  0  0  0  0
   -1.0616   -3.4900   -1.9164 H   0  0  0  0  0  0  0  0  0  0  0  0
    0.6069    1.7741   -2.4551 H   0  0  0  0  0  0  0  0  0  0  0  0
    1.2285    3.3894   -2.0187 H   0  0  0  0  0  0  0  0  0  0  0  0
   -0.8739   -3.2126    0.8496 H   0  0  0  0  0  0  0  0  0  0  0  0
    0.3539   -4.3605    0.2318 H   0  0  0  0  0  0  0  0  0  0  0  0
    0.9917   -3.7137    2.4501 H   0  0  0  0  0  0  0  0  0  0  0  0
    2.1422   -2.8528    1.3745 H   0  0  0  0  0  0  0  0  0  0  0  0
    0.6086   -0.5598    3.9005 H   0  0  0  0  0  0  0  0  0  0  0  0
    1.7498   -1.9496    3.9436 H   0  0  0  0  0  0  0  0  0  0  0  0
    2.9726    0.2006    3.7637 H   0  0  0  0  0  0  0  0  0  0  0  0
    3.2365   -0.7593    2.2644 H   0  0  0  0  0  0  0  0  0  0  0  0
    3.7180    1.2781    1.1806 H   0  0  0  0  0  0  0  0  0  0  0  0
    3.1330    2.4769    2.3788 H   0  0  0  0  0  0  0  0  0  0  0  0
    2.7760    3.4511    0.1936 H   0  0  0  0  0  0  0  0  0  0  0  0
    1.1833    3.0276    0.8910 H   0  0  0  0  0  0  0  0  0  0  0  0
    2.9425    1.8761   -2.4726 H   0  0  0  0  0  0  0  0  0  0  0  0
    3.8736    1.7004   -0.9716 H   0  0  0  0  0  0  0  0  0  0  0  0
    3.9742   -0.3720   -2.2613 H   0  0  0  0  0  0  0  0  0  0  0  0
    3.1069   -0.6402   -0.7032 H   0  0  0  0  0  0  0  0  0  0  0  0
    1.0902   -2.0843   -3.4679 H   0  0  0  0  0  0  0  0  0  0  0  0
    2.8173   -2.3135   -3.0938 H   0  0  0  0  0  0  0  0  0  0  0  0
    1.4201   -3.8736   -1.8174 H   0  0  0  0  0  0  0  0  0  0  0  0
    2.3837   -2.8240   -0.7524 H   0  0  0  0  0  0  0  0  0  0  0  0
  1 32  1  0  0  0  0
  1  4  1  0  0  0  0
  2 19  1  0  0  0  0
  3  1  2  0  0  0  0
  4 34  1  0  0  0  0
  5 28  1  0  0  0  0
  5 18  1  0  0  0  0
  6 20  1  0  0  0  0
  7 21  1  0  0  0  0
  8 44  1  0  0  0  0
  8 24  1  0  0  0  0
  9 22  1  0  0  0  0
  9 25  1  0  0  0  0
 10 13  1  0  0  0  0
 10  7  2  0  0  0  0
 11 23  1  0  0  0  0
 12 13  1  0  0  0  0
 12  6  1  0  0  0  0
 13  9  2  0  0  0  0
 14 55  1  0  0  0  0
 14 26  1  0  0  0  0
 15 10  1  0  0  0  0
 16 17  1  0  0  0  0
 16 59  1  0  0  0  0
 17 57  1  0  0  0  0
 17 31  1  0  0  0  0
 18 63  1  0  0  0  0
 18 29  1  0  0  0  0
 19 48  1  0  0  0  0
 19 49  1  0  0  0  0
 20 25  1  0  0  0  0
 20  4  2  0  0  0  0
 21 37  1  0  0  0  0
 21 22  2  0  0  0  0
 22 36  1  0  0  0  0
 23  6  2  0  0  0  0
 23  3  1  0  0  0  0
 24  2  1  0  0  0  0
 24 46  1  0  0  0  0
 25 35  1  0  0  0  0
 26 30  1  0  0  0  0
 26 53  1  0  0  0  0
 27 19  1  0  0  0  0
 27 50  1  0  0  0  0
 28 16  1  0  0  0  0
 29 11  1  6  0  0  0
 29  8  1  0  0  0  0
 30 27  1  0  0  0  0
 31 15  1  6  0  0  0
 31 14  1  0  0  0  0
 33  3  1  0  0  0  0
 38  7  1  0  0  0  0
 39 12  1  0  0  0  0
 40 11  1  0  0  0  0
 41 11  1  0  0  0  0
 42 15  1  0  0  0  0
 43 15  1  0  0  0  0
 45  8  1  0  0  0  0
 47 24  1  0  0  0  0
 51 27  1  0  0  0  0
 52 26  1  0  0  0  0
 54 14  1  0  0  0  0
 56 17  1  0  0  0  0
 58 16  1  0  0  0  0
 60  5  1  0  0  0  0
 61  5  1  0  0  0  0
 62 18  1  0  0  0  0
M  END
