1,4,5
 OpenBabel05122313063D

 25 27  0  0  1  0  0  0  0  0999 V2000
    2.0412   -1.6994   -0.0002 N   0  0  0  0  0  2  0  0  0  0  0  0
    3.3964   -1.4897   -0.0002 N   0  0  0  0  0  0  0  0  0  0  0  0
    1.3870    2.6125    0.0010 N   0  0  0  0  0  0  0  0  0  0  0  0
    0.3729    1.6808    0.0007 N   0  0  0  0  0  2  0  0  0  0  0  0
    2.5885    0.6590    0.0007 C   0  0  0  0  0  2  0  0  0  0  0  0
    2.6833    2.0516    0.0008 C   0  0  0  0  0  0  0  0  0  0  0  0
    3.7496   -0.1192    0.0002 C   0  0  2  0  0  3  0  0  0  0  0  0
    1.8529   -3.0284   -0.0009 C   0  0  0  0  0  3  0  0  0  0  0  0
    0.8283   -3.4169   -0.0010 H   0  0  0  0  0  0  0  0  0  0  0  0
    5.0865    1.8831    0.0003 C   0  0  0  0  0  0  0  0  0  0  0  0
    6.0736    2.3677    0.0002 H   0  0  0  0  0  0  0  0  0  0  0  0
    3.1037   -3.6890   -0.0013 C   0  0  0  0  0  0  0  0  0  0  0  0
    3.2859   -4.7680   -0.0018 H   0  0  0  0  0  0  0  0  0  0  0  0
    5.0214    0.4725    0.0000 C   0  0  0  0  0  0  0  0  0  0  0  0
    5.9445   -0.1254   -0.0004 H   0  0  0  0  0  0  0  0  0  0  0  0
    4.0659   -2.6762   -0.0009 C   0  0  0  0  0  0  0  0  0  0  0  0
    5.1600   -2.7104   -0.0010 H   0  0  0  0  0  0  0  0  0  0  0  0
   -0.7792    2.3761    0.0010 C   0  0  0  0  0  3  0  0  0  0  0  0
   -1.7391    1.8463    0.0008 H   0  0  0  0  0  0  0  0  0  0  0  0
    3.9308    2.6943    0.0007 C   0  0  0  0  0  0  0  0  0  0  0  0
    4.0235    3.7902    0.0008 H   0  0  0  0  0  0  0  0  0  0  0  0
   -0.5067    3.7640    0.0014 C   0  0  0  0  0  0  0  0  0  0  0  0
   -1.2362    4.5794    0.0016 H   0  0  0  0  0  0  0  0  0  0  0  0
    0.8835    3.8774    0.0014 C   0  0  0  0  0  0  0  0  0  0  0  0
    1.5454    4.7495    0.0016 H   0  0  0  0  0  0  0  0  0  0  0  0
  2  1  1  0  0  0  0
  3 24  1  0  0  0  0
  4  3  1  0  0  0  0
  4 18  1  0  0  0  0
  5  6  1  0  0  0  0
  6  3  1  0  0  0  0
  7  2  1  6  0  0  0
  7  5  1  0  0  0  0
  8  1  1  0  0  0  0
  9  8  1  0  0  0  0
 10 20  1  0  0  0  0
 11 10  1  0  0  0  0
 12 16  2  0  0  0  0
 12  8  1  0  0  0  0
 13 12  1  0  0  0  0
 14  7  1  0  0  0  0
 14 10  2  0  0  0  0
 15 14  1  0  0  0  0
 16  2  1  0  0  0  0
 17 16  1  0  0  0  0
 18 22  1  0  0  0  0
 19 18  1  0  0  0  0
 20 21  1  0  0  0  0
 20  6  2  0  0  0  0
 22 24  2  0  0  0  0
 22 23  1  0  0  0  0
 24 25  1  0  0  0  0
M  END
