2,3,4
 OpenBabel05122313063D

 41 44  0  0  1  0  0  0  0  0999 V2000
   -2.7936   -0.5761    0.0203 N   0  0  0  0  0  0  0  0  0  0  0  0
   -1.3231    1.3262    0.0006 N   0  0  0  0  0  2  0  0  0  0  0  0
    1.2028    2.2335   -0.0275 N   0  0  0  0  0  2  0  0  0  0  0  0
   -0.4382   -1.5296    0.1084 C   0  0  0  0  0  2  0  0  0  0  0  0
    0.3195   -2.7293    0.1966 C   0  0  0  0  0  0  0  0  0  0  0  0
    1.4132   -2.6366    0.2069 H   0  0  0  0  0  0  0  0  0  0  0  0
   -0.2526   -4.0012    0.2686 C   0  0  0  0  0  0  0  0  0  0  0  0
    0.3903   -4.8922    0.3354 H   0  0  0  0  0  0  0  0  0  0  0  0
   -1.6480   -4.1206    0.2541 C   0  0  0  0  0  0  0  0  0  0  0  0
   -2.1365   -5.1053    0.3082 H   0  0  0  0  0  0  0  0  0  0  0  0
   -2.4359   -2.9722    0.1709 C   0  0  0  0  0  0  0  0  0  0  0  0
   -3.5238   -3.0975    0.1633 H   0  0  0  0  0  0  0  0  0  0  0  0
   -1.8595   -1.6734    0.0996 C   0  0  2  0  0  3  0  0  0  0  0  0
   -2.5806    0.7919   -0.0130 C   0  0  0  0  0  0  0  0  0  0  0  0
   -3.7110    1.6683   -0.0656 C   0  0  0  0  0  0  0  0  0  0  0  0
   -4.7217    1.2508   -0.0833 H   0  0  0  0  0  0  0  0  0  0  0  0
   -3.5380    3.0432   -0.0920 C   0  0  0  0  0  0  0  0  0  0  0  0
   -4.4160    3.7039   -0.1300 H   0  0  0  0  0  0  0  0  0  0  0  0
   -2.2419    3.5772   -0.0727 C   0  0  0  0  0  0  0  0  0  0  0  0
   -2.0818    4.6611   -0.0981 H   0  0  0  0  0  0  0  0  0  0  0  0
   -1.1583    2.6972   -0.0304 C   0  0  0  0  0  0  0  0  0  0  0  0
    0.2320    3.1919   -0.0318 C   0  0  0  0  0  0  0  0  0  0  0  0
    0.5802    4.5577   -0.0425 C   0  0  0  0  0  0  0  0  0  0  0  0
   -0.2009    5.3283   -0.0416 H   0  0  0  0  0  0  0  0  0  0  0  0
    1.9272    4.9292   -0.0530 C   0  0  0  0  0  0  0  0  0  0  0  0
    2.2073    5.9928   -0.0613 H   0  0  0  0  0  0  0  0  0  0  0  0
    2.9098    3.9254   -0.0532 C   0  0  0  0  0  0  0  0  0  0  0  0
    3.9814    4.1697   -0.0634 H   0  0  0  0  0  0  0  0  0  0  0  0
    2.5069    2.5889   -0.0397 C   0  0  0  0  0  0  0  0  0  0  0  0
    3.2163    1.7454   -0.0374 H   0  0  0  0  0  0  0  0  0  0  0  0
   -4.1884   -0.9603   -0.0250 C   0  0  0  0  0  0  0  0  0  0  0  0
   -4.9153   -1.0921    1.1694 C   0  0  0  0  0  0  0  0  0  0  0  0
   -4.4076   -0.9101    2.1279 H   0  0  0  0  0  0  0  0  0  0  0  0
   -6.2685   -1.4580    1.1198 C   0  0  0  0  0  0  0  0  0  0  0  0
   -6.8402   -1.5630    2.0541 H   0  0  0  0  0  0  0  0  0  0  0  0
   -6.8902   -1.6933   -0.1178 C   0  0  0  0  0  0  0  0  0  0  0  0
   -7.9514   -1.9816   -0.1542 H   0  0  0  0  0  0  0  0  0  0  0  0
   -6.1562   -1.5639   -1.3084 C   0  0  0  0  0  0  0  0  0  0  0  0
   -6.6399   -1.7516   -2.2787 H   0  0  0  0  0  0  0  0  0  0  0  0
   -4.8026   -1.1979   -1.2648 C   0  0  0  0  0  0  0  0  0  0  0  0
   -4.2079   -1.0976   -2.1844 H   0  0  0  0  0  0  0  0  0  0  0  0
  4  5  1  0  0  0  0
  5  6  1  0  0  0  0
  5  7  2  0  0  0  0
  7  8  1  0  0  0  0
  9  7  1  0  0  0  0
  9 10  1  0  0  0  0
 11  9  2  0  0  0  0
 12 11  1  0  0  0  0
 13  1  1  6  0  0  0
 13  4  1  0  0  0  0
 13 11  1  0  0  0  0
 14  2  1  0  0  0  0
 14  1  1  0  0  0  0
 15 14  2  0  0  0  0
 16 15  1  0  0  0  0
 17 19  2  0  0  0  0
 17 15  1  0  0  0  0
 18 17  1  0  0  0  0
 19 21  1  0  0  0  0
 20 19  1  0  0  0  0
 21  2  1  0  0  0  0
 22 21  2  0  0  0  0
 22  3  1  0  0  0  0
 23 24  1  0  0  0  0
 23 22  1  0  0  0  0
 25 23  2  0  0  0  0
 26 25  1  0  0  0  0
 27 25  1  0  0  0  0
 27 29  2  0  0  0  0
 28 27  1  0  0  0  0
 29 30  1  0  0  0  0
 29  3  1  0  0  0  0
 31  1  1  0  0  0  0
 31 32  1  0  0  0  0
 32 33  1  0  0  0  0
 34 32  2  0  0  0  0
 34 35  1  0  0  0  0
 36 34  1  0  0  0  0
 37 36  1  0  0  0  0
 38 40  1  0  0  0  0
 38 36  2  0  0  0  0
 39 38  1  0  0  0  0
 40 31  2  0  0  0  0
 41 40  1  0  0  0  0
M  END
