3,5,7
 OpenBabel05122313063D

 45 46  0  0  1  0  0  0  0  0999 V2000
   -2.4530    2.0876   -1.4398 O   0  0  0  0  0  0  0  0  0  0  0  0
   -3.0007   -0.0693   -0.9077 O   0  0  0  0  0  0  0  0  0  0  0  0
   -0.2063   -0.9184    1.2633 N   0  0  0  0  0  2  0  0  0  0  0  0
   -1.2756   -0.0898    1.2061 N   0  0  0  0  0  0  0  0  0  0  0  0
    0.9416    1.8011    0.4091 N   0  0  0  0  0  2  0  0  0  0  0  0
   -0.3912    2.0327    0.5098 N   0  0  0  0  0  0  0  0  0  0  0  0
   -1.1155    0.8490    0.1182 C   0  0  2  0  0  3  0  0  0  0  0  0
   -2.2573    1.0592   -0.8130 C   0  0  0  0  0  0  0  0  0  0  0  0
    0.5839   -2.8480    2.6017 C   0  0  0  0  0  0  0  0  0  0  0  0
    0.5296   -3.6577    1.8444 H   0  0  0  0  0  0  0  0  0  0  0  0
    0.3821   -3.2876    3.5956 H   0  0  0  0  0  0  0  0  0  0  0  0
    1.6200   -2.4551    2.5717 H   0  0  0  0  0  0  0  0  0  0  0  0
   -0.3956   -1.7672    2.2876 C   0  0  2  0  0  3  0  0  0  0  0  0
   -1.6367   -1.4460    2.9005 C   0  0  0  0  0  0  0  0  0  0  0  0
   -2.0878   -1.9466    3.7638 H   0  0  0  0  0  0  0  0  0  0  0  0
   -2.1827   -0.3672    2.1930 C   0  0  0  0  0  0  0  0  0  0  0  0
   -3.4415    0.4044    2.3997 C   0  0  0  0  0  0  0  0  0  0  0  0
   -3.2554    1.3458    2.9588 H   0  0  0  0  0  0  0  0  0  0  0  0
   -4.1620   -0.1939    2.9874 H   0  0  0  0  0  0  0  0  0  0  0  0
   -3.9180    0.6665    1.4358 H   0  0  0  0  0  0  0  0  0  0  0  0
    3.0703    3.0183    0.7904 C   0  0  0  0  0  0  0  0  0  0  0  0
    3.5274    2.2297    1.4215 H   0  0  0  0  0  0  0  0  0  0  0  0
    3.3971    4.0106    1.1510 H   0  0  0  0  0  0  0  0  0  0  0  0
    3.4646    2.8651   -0.2348 H   0  0  0  0  0  0  0  0  0  0  0  0
    1.5818    2.9154    0.8034 C   0  0  1  0  0  3  0  0  0  0  0  0
    0.6037    3.8786    1.1684 C   0  0  0  0  0  0  0  0  0  0  0  0
    0.7920    4.8957    1.5282 H   0  0  0  0  0  0  0  0  0  0  0  0
   -0.6541    3.2943    0.9691 C   0  0  0  0  0  0  0  0  0  0  0  0
   -2.0290    3.8434    1.1360 C   0  0  0  0  0  0  0  0  0  0  0  0
   -2.5231    3.9429    0.1487 H   0  0  0  0  0  0  0  0  0  0  0  0
   -1.9858    4.8332    1.6253 H   0  0  0  0  0  0  0  0  0  0  0  0
   -2.6655    3.1789    1.7544 H   0  0  0  0  0  0  0  0  0  0  0  0
   -4.0811   -0.0878   -1.8694 C   0  0  0  0  0  0  0  0  0  0  0  0
   -3.8563   -0.9272   -2.5592 H   0  0  0  0  0  0  0  0  0  0  0  0
   -4.0614    0.8621   -2.4379 H   0  0  0  0  0  0  0  0  0  0  0  0
   -5.4048   -0.2948   -1.1476 C   0  0  0  0  0  0  0  0  0  0  0  0
   -6.2152   -0.2668   -1.9092 H   0  0  0  0  0  0  0  0  0  0  0  0
   -5.5889    0.5774   -0.4804 H   0  0  0  0  0  0  0  0  0  0  0  0
   -5.4851   -1.5977   -0.3445 C   0  0  0  0  0  0  0  0  0  0  0  0
   -5.3712   -2.4577   -1.0407 H   0  0  0  0  0  0  0  0  0  0  0  0
   -4.6129   -1.6538    0.3415 H   0  0  0  0  0  0  0  0  0  0  0  0
   -6.7830   -1.7368    0.4502 C   0  0  0  0  0  0  0  0  0  0  0  0
   -6.8942   -0.9135    1.1874 H   0  0  0  0  0  0  0  0  0  0  0  0
   -6.8201   -2.6929    1.0097 H   0  0  0  0  0  0  0  0  0  0  0  0
   -7.6725   -1.7035   -0.2133 H   0  0  0  0  0  0  0  0  0  0  0  0
  1  8  2  0  0  0  0
  2  8  1  0  0  0  0
  3 13  1  0  0  0  0
  4  3  1  0  0  0  0
  4 16  1  0  0  0  0
  5  6  1  0  0  0  0
  5 25  1  0  0  0  0
  6 28  1  0  0  0  0
  7  8  1  1  0  0  0
  7  6  1  0  0  0  0
  7  4  1  0  0  0  0
  9 11  1  0  0  0  0
 10  9  1  0  0  0  0
 12  9  1  0  0  0  0
 13  9  1  6  0  0  0
 13 14  1  0  0  0  0
 14 15  1  0  0  0  0
 16 17  1  0  0  0  0
 16 14  2  0  0  0  0
 17 18  1  0  0  0  0
 17 19  1  0  0  0  0
 20 17  1  0  0  0  0
 21 23  1  0  0  0  0
 21 22  1  0  0  0  0
 24 21  1  0  0  0  0
 25 21  1  6  0  0  0
 25 26  1  0  0  0  0
 26 27  1  0  0  0  0
 28 29  1  0  0  0  0
 28 26  2  0  0  0  0
 29 31  1  0  0  0  0
 29 32  1  0  0  0  0
 30 29  1  0  0  0  0
 33 36  1  0  0  0  0
 33  2  1  0  0  0  0
 34 33  1  0  0  0  0
 35 33  1  0  0  0  0
 36 38  1  0  0  0  0
 36 39  1  0  0  0  0
 37 36  1  0  0  0  0
 39 41  1  0  0  0  0
 39 42  1  0  0  0  0
 40 39  1  0  0  0  0
 42 44  1  0  0  0  0
 42 43  1  0  0  0  0
 45 42  1  0  0  0  0
M  END
