2,5,24
 OpenBabel05122313063D

 56 57  0  0  1  0  0  0  0  0999 V2000
    1.0593    0.0641    3.3235 O   0  0  0  0  0  0  0  0  0  0  0  0
    0.0293    1.6179    0.1636 N   0  0  0  0  0  2  0  0  0  0  0  0
    1.3875    1.5678    0.3378 N   0  0  0  0  0  0  0  0  0  0  0  0
    1.9804   -0.7489    0.2766 N   0  0  0  0  0  0  0  0  0  0  0  0
    0.7861   -1.3132   -0.0811 N   0  0  0  0  0  2  0  0  0  0  0  0
   -1.6997    3.8118   -2.2344 C   0  0  0  0  0  0  0  0  0  0  0  0
   -1.0593    4.7096   -2.3639 H   0  0  0  0  0  0  0  0  0  0  0  0
   -2.7414    4.1112   -2.4652 H   0  0  0  0  0  0  0  0  0  0  0  0
   -1.3916    3.0491   -2.9764 H   0  0  0  0  0  0  0  0  0  0  0  0
   -1.6178    3.2525   -0.8077 C   0  0  0  0  0  0  0  0  0  0  0  0
   -2.2779    2.3644   -0.7631 H   0  0  0  0  0  0  0  0  0  0  0  0
   -2.0908    4.2743    0.2426 C   0  0  0  0  0  0  0  0  0  0  0  0
   -2.0484    3.8517    1.2652 H   0  0  0  0  0  0  0  0  0  0  0  0
   -3.1398    4.5710    0.0422 H   0  0  0  0  0  0  0  0  0  0  0  0
   -1.4635    5.1899    0.2216 H   0  0  0  0  0  0  0  0  0  0  0  0
   -0.2289    2.7771   -0.4825 C   0  0  1  0  0  3  0  0  0  0  0  0
    0.9924    3.4578   -0.7192 C   0  0  0  0  0  0  0  0  0  0  0  0
    1.1129    4.4209   -1.2241 H   0  0  0  0  0  0  0  0  0  0  0  0
    2.0122    2.6637   -0.1922 C   0  0  0  0  0  0  0  0  0  0  0  0
    3.5084    2.8144   -0.2536 C   0  0  0  0  0  0  0  0  0  0  0  0
    3.9434    2.2447    0.5976 H   0  0  0  0  0  0  0  0  0  0  0  0
    1.8780    0.4375    1.0853 C   0  0  2  0  0  0  0  0  0  0  0  0
    2.8392    0.6703    1.5726 H   0  0  0  0  0  0  0  0  0  0  0  0
    0.7403    0.0882    2.1567 C   0  0  0  0  0  3  0  0  0  0  0  0
    4.7899   -1.6274    1.5943 C   0  0  0  0  0  0  0  0  0  0  0  0
    4.7185   -2.7330    1.6342 H   0  0  0  0  0  0  0  0  0  0  0  0
    4.0847   -1.2237    2.3488 H   0  0  0  0  0  0  0  0  0  0  0  0
    5.8174   -1.3359    1.8916 H   0  0  0  0  0  0  0  0  0  0  0  0
    4.4727   -1.1206    0.1716 C   0  0  0  0  0  0  0  0  0  0  0  0
    4.5718   -0.0127    0.1741 H   0  0  0  0  0  0  0  0  0  0  0  0
    5.4631   -1.6740   -0.8596 C   0  0  0  0  0  0  0  0  0  0  0  0
    5.4308   -2.7823   -0.8871 H   0  0  0  0  0  0  0  0  0  0  0  0
    6.4984   -1.3795   -0.5981 H   0  0  0  0  0  0  0  0  0  0  0  0
    5.2420   -1.3000   -1.8787 H   0  0  0  0  0  0  0  0  0  0  0  0
    3.0518   -1.4542   -0.1980 C   0  0  1  0  0  3  0  0  0  0  0  0
    2.5046   -2.5142   -0.9225 C   0  0  0  0  0  0  0  0  0  0  0  0
    3.0582   -3.2949   -1.4526 H   0  0  0  0  0  0  0  0  0  0  0  0
    1.0922   -2.3955   -0.8316 C   0  0  0  0  0  0  0  0  0  0  0  0
    0.0661   -3.3196   -1.4268 C   0  0  0  0  0  0  0  0  0  0  0  0
   -0.9231   -2.8485   -1.2672 H   0  0  0  0  0  0  0  0  0  0  0  0
    0.2650   -3.4515   -2.9448 C   0  0  0  0  0  0  0  0  0  0  0  0
    0.1936   -2.4623   -3.4383 H   0  0  0  0  0  0  0  0  0  0  0  0
   -0.5204   -4.1045   -3.3753 H   0  0  0  0  0  0  0  0  0  0  0  0
    1.2498   -3.8998   -3.1935 H   0  0  0  0  0  0  0  0  0  0  0  0
    0.0874   -4.6859   -0.7199 C   0  0  0  0  0  0  0  0  0  0  0  0
    1.0608   -5.2001   -0.8641 H   0  0  0  0  0  0  0  0  0  0  0  0
   -0.7074   -5.3403   -1.1305 H   0  0  0  0  0  0  0  0  0  0  0  0
   -0.0897   -4.5816    0.3681 H   0  0  0  0  0  0  0  0  0  0  0  0
    3.9343    4.2806   -0.1007 C   0  0  0  0  0  0  0  0  0  0  0  0
    3.5490    4.8952   -0.9397 H   0  0  0  0  0  0  0  0  0  0  0  0
    5.0390    4.3657   -0.1083 H   0  0  0  0  0  0  0  0  0  0  0  0
    3.5571    4.7181    0.8441 H   0  0  0  0  0  0  0  0  0  0  0  0
    4.0485    2.2013   -1.5627 C   0  0  0  0  0  0  0  0  0  0  0  0
    3.7184    1.1513   -1.6915 H   0  0  0  0  0  0  0  0  0  0  0  0
    5.1570    2.2241   -1.5797 H   0  0  0  0  0  0  0  0  0  0  0  0
    3.6768    2.7737   -2.4363 H   0  0  0  0  0  0  0  0  0  0  0  0
  2  3  1  0  0  0  0
  3 22  1  0  0  0  0
  4 22  1  0  0  0  0
  5  4  1  0  0  0  0
  6 10  1  0  0  0  0
  7  6  1  0  0  0  0
  8  6  1  0  0  0  0
  9  6  1  0  0  0  0
 10 11  1  0  0  0  0
 10 12  1  0  0  0  0
 12 13  1  0  0  0  0
 14 12  1  0  0  0  0
 15 12  1  0  0  0  0
 16 10  1  1  0  0  0
 16  2  1  0  0  0  0
 17 16  1  0  0  0  0
 17 19  2  0  0  0  0
 18 17  1  0  0  0  0
 19  3  1  0  0  0  0
 20 19  1  0  0  0  0
 20 49  1  0  0  0  0
 20 21  1  0  0  0  0
 22 23  1  1  0  0  0
 22 24  1  0  0  0  0
 24  1  2  0  0  0  0
 25 26  1  0  0  0  0
 25 28  1  0  0  0  0
 25 27  1  0  0  0  0
 29 30  1  0  0  0  0
 29 25  1  0  0  0  0
 31 33  1  0  0  0  0
 31 29  1  0  0  0  0
 32 31  1  0  0  0  0
 34 31  1  0  0  0  0
 35 29  1  1  0  0  0
 35  4  1  0  0  0  0
 36 38  2  0  0  0  0
 36 35  1  0  0  0  0
 37 36  1  0  0  0  0
 38  5  1  0  0  0  0
 39 40  1  0  0  0  0
 39 38  1  0  0  0  0
 39 45  1  0  0  0  0
 41 39  1  0  0  0  0
 42 41  1  0  0  0  0
 43 41  1  0  0  0  0
 44 41  1  0  0  0  0
 45 48  1  0  0  0  0
 46 45  1  0  0  0  0
 47 45  1  0  0  0  0
 49 52  1  0  0  0  0
 50 49  1  0  0  0  0
 51 49  1  0  0  0  0
 53 20  1  0  0  0  0
 54 53  1  0  0  0  0
 55 53  1  0  0  0  0
 56 53  1  0  0  0  0
M  END
