2,3,4
 OpenBabel05122313063D

 41 42  0  0  0  0  0  0  0  0999 V2000
   -4.3901   -1.7563   -0.5455 Cl  0  0  0  0  0  0  0  0  0  0  0  0
   -0.4392   -0.9789   -1.1352 N   0  0  0  0  0  2  0  0  0  0  0  0
    1.4978   -2.6547   -0.0028 N   0  0  0  0  0  0  0  0  0  0  0  0
    0.6018    1.5065   -0.0920 C   0  0  0  0  0  2  0  0  0  0  0  0
    1.7132    2.3387   -0.3698 C   0  0  0  0  0  0  0  0  0  0  0  0
    2.7220    1.9044   -0.3031 H   0  0  0  0  0  0  0  0  0  0  0  0
    1.5871    3.6968   -0.7107 C   0  0  0  0  0  0  0  0  0  0  0  0
    0.2909    4.2491   -0.7685 C   0  0  0  0  0  0  0  0  0  0  0  0
    0.1517    5.3045   -1.0520 H   0  0  0  0  0  0  0  0  0  0  0  0
   -0.8183    3.4619   -0.4586 C   0  0  0  0  0  0  0  0  0  0  0  0
   -1.8249    3.9066   -0.5023 H   0  0  0  0  0  0  0  0  0  0  0  0
   -0.6932    2.0903   -0.1136 C   0  0  0  0  0  0  0  0  0  0  0  0
   -1.9479    1.4025    0.2976 C   0  0  0  0  0  0  0  0  0  0  0  0
   -2.7659    2.0779    1.2329 C   0  0  0  0  0  0  0  0  0  0  0  0
   -2.3769    3.0011    1.6847 H   0  0  0  0  0  0  0  0  0  0  0  0
   -4.0312    1.6073    1.5957 C   0  0  0  0  0  0  0  0  0  0  0  0
   -4.6351    2.1588    2.3319 H   0  0  0  0  0  0  0  0  0  0  0  0
   -4.5352    0.4310    1.0254 C   0  0  0  0  0  0  0  0  0  0  0  0
   -5.5238    0.0343    1.2930 H   0  0  0  0  0  0  0  0  0  0  0  0
   -3.7382   -0.2594    0.1089 C   0  0  0  0  0  0  0  0  0  0  0  0
   -2.4354    0.1813   -0.2648 C   0  0  0  0  0  0  0  0  0  0  0  0
   -1.7070   -0.6791   -1.1910 C   0  0  0  0  0  0  0  0  0  0  0  0
   -2.3222   -1.2447   -1.9153 H   0  0  0  0  0  0  0  0  0  0  0  0
    0.0471   -2.1064   -1.9448 C   0  0  0  0  0  0  0  0  0  0  0  0
    0.8885   -1.7601   -2.5785 H   0  0  0  0  0  0  0  0  0  0  0  0
   -0.7529   -2.5026   -2.6070 H   0  0  0  0  0  0  0  0  0  0  0  0
    0.5020   -3.1927   -0.9619 C   0  0  0  0  0  0  0  0  0  0  0  0
   -0.3833   -3.5270   -0.3850 H   0  0  0  0  0  0  0  0  0  0  0  0
    0.9043   -4.0766   -1.5079 H   0  0  0  0  0  0  0  0  0  0  0  0
    1.4353   -3.3279    1.3067 C   0  0  0  0  0  0  0  0  0  0  0  0
    0.4113   -3.2413    1.7161 H   0  0  0  0  0  0  0  0  0  0  0  0
    2.1280   -2.8052    1.9937 H   0  0  0  0  0  0  0  0  0  0  0  0
    1.7165   -4.4040    1.2266 H   0  0  0  0  0  0  0  0  0  0  0  0
    2.8689   -2.7221   -0.5452 C   0  0  0  0  0  0  0  0  0  0  0  0
    2.9097   -2.2209   -1.5306 H   0  0  0  0  0  0  0  0  0  0  0  0
    3.2016   -3.7808   -0.6545 H   0  0  0  0  0  0  0  0  0  0  0  0
    3.5423   -2.1755    0.1420 H   0  0  0  0  0  0  0  0  0  0  0  0
    2.8014    4.5443   -0.9961 C   0  0  0  0  0  0  0  0  0  0  0  0
    2.7042    5.0812   -1.9627 H   0  0  0  0  0  0  0  0  0  0  0  0
    3.7245    3.9342   -1.0319 H   0  0  0  0  0  0  0  0  0  0  0  0
    2.9411    5.3194   -0.2126 H   0  0  0  0  0  0  0  0  0  0  0  0
  1 20  1  0  0  0  0
  3 30  1  0  0  0  0
  5  6  1  0  0  0  0
  5  4  1  0  0  0  0
  7  5  2  0  0  0  0
  8  7  1  0  0  0  0
  8 10  2  0  0  0  0
  9  8  1  0  0  0  0
 10 12  1  0  0  0  0
 11 10  1  0  0  0  0
 12  4  1  0  0  0  0
 12 13  2  0  0  0  0
 13 14  1  0  0  0  0
 14 16  2  0  0  0  0
 14 15  1  0  0  0  0
 16 17  1  0  0  0  0
 18 19  1  0  0  0  0
 18 16  1  0  0  0  0
 20 18  2  0  0  0  0
 21 20  1  0  0  0  0
 21 13  1  0  0  0  0
 22  2  1  0  0  0  0
 22 21  2  0  0  0  0
 23 22  1  0  0  0  0
 24  2  1  0  0  0  0
 24 27  1  0  0  0  0
 25 24  1  0  0  0  0
 26 24  1  0  0  0  0
 27 28  1  0  0  0  0
 27  3  1  0  0  0  0
 29 27  1  0  0  0  0
 30 31  1  0  0  0  0
 30 32  1  0  0  0  0
 33 30  1  0  0  0  0
 34  3  1  0  0  0  0
 34 37  1  0  0  0  0
 35 34  1  0  0  0  0
 36 34  1  0  0  0  0
 38  7  1  0  0  0  0
 38 41  1  0  0  0  0
 39 38  1  0  0  0  0
 40 38  1  0  0  0  0
M  END
