1,2,27
 OpenBabel05122313063D

 53 55  0  0  1  0  0  0  0  0999 V2000
   -1.2214   -1.0925    0.1498 N   0  0  0  0  0  2  0  0  0  0  0  0
    0.6502    0.6145    0.0326 N   0  0  0  0  0  2  0  0  0  0  0  0
   -2.1117   -2.1041    0.2249 C   0  0  0  0  0  3  0  0  0  0  0  0
   -1.6896   -3.1189    0.2639 H   0  0  0  0  0  0  0  0  0  0  0  0
   -3.4843   -1.8662    0.2297 C   0  0  0  0  0  0  0  0  0  0  0  0
   -4.1603   -2.7304    0.2864 H   0  0  0  0  0  0  0  0  0  0  0  0
   -3.9857   -0.5452    0.1584 C   0  0  0  0  0  0  0  0  0  0  0  0
   -3.0343    0.4845    0.0855 C   0  0  0  0  0  0  0  0  0  0  0  0
   -3.3468    1.5337    0.0265 H   0  0  0  0  0  0  0  0  0  0  0  0
   -1.6600    0.1960    0.0767 C   0  0  0  0  0  0  0  0  0  0  0  0
   -0.5799    1.1846    0.0124 C   0  0  1  0  0  3  0  0  0  0  0  0
   -0.7257    2.5782   -0.0248 C   0  0  0  0  0  0  0  0  0  0  0  0
   -1.7330    3.0104   -0.0255 H   0  0  0  0  0  0  0  0  0  0  0  0
    0.4166    3.4041   -0.0513 C   0  0  0  0  0  0  0  0  0  0  0  0
    1.6739    2.7699   -0.0121 C   0  0  0  0  0  0  0  0  0  0  0  0
    2.5968    3.3650   -0.0208 H   0  0  0  0  0  0  0  0  0  0  0  0
    1.7794    1.3689    0.0338 C   0  0  0  0  0  0  0  0  0  0  0  0
    2.9867    0.5550    0.1022 C   0  0  0  0  0  0  0  0  0  0  0  0
    4.2881    1.0917    0.2138 C   0  0  0  0  0  0  0  0  0  0  0  0
    4.4331    2.1828    0.2147 H   0  0  0  0  0  0  0  0  0  0  0  0
    5.3894    0.2435    0.3396 C   0  0  0  0  0  0  0  0  0  0  0  0
    6.4032    0.6611    0.4274 H   0  0  0  0  0  0  0  0  0  0  0  0
    5.1882   -1.1504    0.3552 C   0  0  0  0  0  0  0  0  0  0  0  0
    6.0518   -1.8277    0.4458 H   0  0  0  0  0  0  0  0  0  0  0  0
    3.9038   -1.6965    0.2410 C   0  0  0  0  0  0  0  0  0  0  0  0
    3.7668   -2.7870    0.2343 H   0  0  0  0  0  0  0  0  0  0  0  0
    2.7739   -0.8594    0.0967 C   0  0  0  0  0  3  0  0  0  0  0  0
   -5.4967   -0.2866    0.1576 C   0  0  0  0  0  0  0  0  0  0  0  0
   -6.1016   -0.8576    1.4612 C   0  0  0  0  0  0  0  0  0  0  0  0
   -5.6645   -0.3658    2.3534 H   0  0  0  0  0  0  0  0  0  0  0  0
   -5.9300   -1.9480    1.5554 H   0  0  0  0  0  0  0  0  0  0  0  0
   -7.1973   -0.6881    1.4765 H   0  0  0  0  0  0  0  0  0  0  0  0
   -6.1203   -1.0002   -1.0647 C   0  0  0  0  0  0  0  0  0  0  0  0
   -5.9510   -2.0946   -1.0370 H   0  0  0  0  0  0  0  0  0  0  0  0
   -5.6933   -0.6150   -2.0122 H   0  0  0  0  0  0  0  0  0  0  0  0
   -7.2158   -0.8298   -1.0842 H   0  0  0  0  0  0  0  0  0  0  0  0
   -5.8252    1.2135    0.0754 C   0  0  0  0  0  0  0  0  0  0  0  0
   -5.4182    1.7746    0.9408 H   0  0  0  0  0  0  0  0  0  0  0  0
   -6.9240    1.3548    0.0771 H   0  0  0  0  0  0  0  0  0  0  0  0
   -5.4345    1.6720   -0.8553 H   0  0  0  0  0  0  0  0  0  0  0  0
    0.3296    4.9360   -0.1173 C   0  0  0  0  0  0  0  0  0  0  0  0
   -1.1267    5.4309   -0.1376 C   0  0  0  0  0  0  0  0  0  0  0  0
   -1.6779    5.1329    0.7773 H   0  0  0  0  0  0  0  0  0  0  0  0
   -1.6800    5.0505   -1.0197 H   0  0  0  0  0  0  0  0  0  0  0  0
   -1.1441    6.5376   -0.1883 H   0  0  0  0  0  0  0  0  0  0  0  0
    1.0329    5.4180   -1.4072 C   0  0  0  0  0  0  0  0  0  0  0  0
    0.9852    6.5239   -1.4772 H   0  0  0  0  0  0  0  0  0  0  0  0
    0.5473    4.9928   -2.3083 H   0  0  0  0  0  0  0  0  0  0  0  0
    2.1010    5.1251   -1.4297 H   0  0  0  0  0  0  0  0  0  0  0  0
    1.0377    5.5359    1.1189 C   0  0  0  0  0  0  0  0  0  0  0  0
    0.5553    5.1977    2.0581 H   0  0  0  0  0  0  0  0  0  0  0  0
    0.9902    6.6434    1.0859 H   0  0  0  0  0  0  0  0  0  0  0  0
    2.1066    5.2479    1.1645 H   0  0  0  0  0  0  0  0  0  0  0  0
  1  3  1  0  0  0  0
  2 17  1  0  0  0  0
  3  5  1  0  0  0  0
  3  4  1  0  0  0  0
  5  6  1  0  0  0  0
  7  5  2  0  0  0  0
  8  7  1  0  0  0  0
  9  8  1  0  0  0  0
 10  8  2  0  0  0  0
 10  1  1  0  0  0  0
 11  2  1  0  0  0  0
 11 10  1  1  0  0  0
 12 11  1  0  0  0  0
 13 12  1  0  0  0  0
 14 12  2  0  0  0  0
 14 15  1  0  0  0  0
 15 17  2  0  0  0  0
 16 15  1  0  0  0  0
 17 18  1  0  0  0  0
 18 19  1  0  0  0  0
 19 20  1  0  0  0  0
 19 21  2  0  0  0  0
 21 23  1  0  0  0  0
 21 22  1  0  0  0  0
 23 24  1  0  0  0  0
 25 23  2  0  0  0  0
 26 25  1  0  0  0  0
 27 18  2  0  0  0  0
 27 25  1  0  0  0  0
 28  7  1  0  0  0  0
 28 29  1  0  0  0  0
 29 32  1  0  0  0  0
 29 31  1  0  0  0  0
 29 30  1  0  0  0  0
 33 34  1  0  0  0  0
 33 28  1  0  0  0  0
 35 33  1  0  0  0  0
 36 33  1  0  0  0  0
 37 39  1  0  0  0  0
 37 28  1  0  0  0  0
 37 38  1  0  0  0  0
 40 37  1  0  0  0  0
 41 14  1  0  0  0  0
 41 50  1  0  0  0  0
 42 41  1  0  0  0  0
 42 43  1  0  0  0  0
 44 42  1  0  0  0  0
 45 42  1  0  0  0  0
 46 41  1  0  0  0  0
 47 46  1  0  0  0  0
 48 46  1  0  0  0  0
 49 46  1  0  0  0  0
 50 53  1  0  0  0  0
 50 51  1  0  0  0  0
 52 50  1  0  0  0  0
M  END
