1,2,3
 OpenBabel05122313063D

 49 53  0  0  1  0  0  0  0  0999 V2000
    0.8069    1.3683   -0.3447 N   0  0  0  0  0  2  0  0  0  0  0  0
   -1.7772    1.0941   -0.2342 N   0  0  0  0  0  2  0  0  0  0  0  0
    1.8393   -1.0348   -0.3403 C   0  0  0  0  0  3  0  0  0  0  0  0
    2.3477   -2.3631   -0.2715 C   0  0  0  0  0  0  0  0  0  0  0  0
    1.6629   -3.1992   -0.0522 H   0  0  0  0  0  0  0  0  0  0  0  0
    3.6999   -2.6354   -0.4193 C   0  0  0  0  0  0  0  0  0  0  0  0
    4.0868   -3.6609   -0.3025 H   0  0  0  0  0  0  0  0  0  0  0  0
    4.6126   -1.6007   -0.7747 C   0  0  0  0  0  0  0  0  0  0  0  0
    5.9816   -1.8959   -1.0417 C   0  0  0  0  0  0  0  0  0  0  0  0
    6.3280   -2.9324   -0.9048 H   0  0  0  0  0  0  0  0  0  0  0  0
    6.8530   -0.9171   -1.4929 C   0  0  0  0  0  0  0  0  0  0  0  0
    7.9054   -1.1612   -1.7022 H   0  0  0  0  0  0  0  0  0  0  0  0
    6.3669    0.3944   -1.7250 C   0  0  0  0  0  0  0  0  0  0  0  0
    7.0372    1.1600   -2.1447 H   0  0  0  0  0  0  0  0  0  0  0  0
    5.0452    0.7189   -1.4461 C   0  0  0  0  0  0  0  0  0  0  0  0
    4.6903    1.7272   -1.6919 H   0  0  0  0  0  0  0  0  0  0  0  0
    4.1312   -0.2426   -0.9158 C   0  0  0  0  0  0  0  0  0  0  0  0
    2.7496    0.0199   -0.5787 C   0  0  0  0  0  0  0  0  0  0  0  0
    2.1605    1.3602   -0.4046 C   0  0  0  0  0  0  0  0  0  0  0  0
    2.8604    2.5925   -0.2129 C   0  0  0  0  0  0  0  0  0  0  0  0
    3.9524    2.5835   -0.1299 H   0  0  0  0  0  0  0  0  0  0  0  0
    2.1697    3.7861   -0.0823 C   0  0  0  0  0  0  0  0  0  0  0  0
    2.7205    4.7280    0.0673 H   0  0  0  0  0  0  0  0  0  0  0  0
    0.7466    3.8091   -0.1161 C   0  0  0  0  0  0  0  0  0  0  0  0
   -0.0678    4.9714   -0.0303 C   0  0  0  0  0  0  0  0  0  0  0  0
    0.4049    5.9611    0.0509 H   0  0  0  0  0  0  0  0  0  0  0  0
   -1.4549    4.8347   -0.0540 C   0  0  0  0  0  0  0  0  0  0  0  0
   -2.0870    5.7344    0.0026 H   0  0  0  0  0  0  0  0  0  0  0  0
   -2.0860    3.5695   -0.1392 C   0  0  0  0  0  0  0  0  0  0  0  0
   -3.1831    3.4951   -0.1527 H   0  0  0  0  0  0  0  0  0  0  0  0
   -1.3166    2.3945   -0.1946 C   0  0  0  0  0  0  0  0  0  0  0  0
    0.1135    2.5310   -0.2158 C   0  0  1  0  0  3  0  0  0  0  0  0
   -3.1452    0.8863   -0.5903 C   0  0  0  0  0  0  0  0  0  0  0  0
   -4.1314    0.6294    0.3991 C   0  0  0  0  0  0  0  0  0  0  0  0
   -5.4430    0.3239   -0.0165 C   0  0  0  0  0  0  0  0  0  0  0  0
   -6.2079    0.1152    0.7481 H   0  0  0  0  0  0  0  0  0  0  0  0
   -5.7832    0.2900   -1.3742 C   0  0  0  0  0  0  0  0  0  0  0  0
   -6.8092    0.0365   -1.6808 H   0  0  0  0  0  0  0  0  0  0  0  0
   -4.8175    0.6049   -2.3407 C   0  0  0  0  0  0  0  0  0  0  0  0
   -5.0876    0.6092   -3.4084 H   0  0  0  0  0  0  0  0  0  0  0  0
   -3.4988    0.9245   -1.9706 C   0  0  0  0  0  0  0  0  0  0  0  0
   -2.4834    1.3239   -3.0090 C   0  0  0  0  0  0  0  0  0  0  0  0
   -2.8691    1.1575   -4.0325 H   0  0  0  0  0  0  0  0  0  0  0  0
   -1.5329    0.7644   -2.8944 H   0  0  0  0  0  0  0  0  0  0  0  0
   -2.2210    2.3985   -2.9104 H   0  0  0  0  0  0  0  0  0  0  0  0
   -3.7969    0.6874    1.8653 C   0  0  0  0  0  0  0  0  0  0  0  0
   -4.7135    0.8020    2.4748 H   0  0  0  0  0  0  0  0  0  0  0  0
   -3.1169    1.5323    2.0908 H   0  0  0  0  0  0  0  0  0  0  0  0
   -3.2858   -0.2365    2.2069 H   0  0  0  0  0  0  0  0  0  0  0  0
  2 31  1  0  0  0  0
  3  4  1  0  0  0  0
  4  5  1  0  0  0  0
  6  7  1  0  0  0  0
  6  4  2  0  0  0  0
  8  6  1  0  0  0  0
  9 10  1  0  0  0  0
  9  8  2  0  0  0  0
 11  9  1  0  0  0  0
 12 11  1  0  0  0  0
 13 11  2  0  0  0  0
 13 15  1  0  0  0  0
 14 13  1  0  0  0  0
 15 17  2  0  0  0  0
 16 15  1  0  0  0  0
 17  8  1  0  0  0  0
 17 18  1  0  0  0  0
 18 19  1  0  0  0  0
 18  3  2  0  0  0  0
 19  1  1  0  0  0  0
 19 20  2  0  0  0  0
 20 21  1  0  0  0  0
 20 22  1  0  0  0  0
 22 23  1  0  0  0  0
 24 22  2  0  0  0  0
 24 25  1  0  0  0  0
 25 26  1  0  0  0  0
 27 25  2  0  0  0  0
 27 28  1  0  0  0  0
 29 27  1  0  0  0  0
 30 29  1  0  0  0  0
 31 29  2  0  0  0  0
 32  1  1  6  0  0  0
 32 31  1  0  0  0  0
 32 24  1  0  0  0  0
 33  2  1  0  0  0  0
 33 34  1  0  0  0  0
 34 46  1  0  0  0  0
 35 34  2  0  0  0  0
 35 36  1  0  0  0  0
 37 35  1  0  0  0  0
 38 37  1  0  0  0  0
 39 41  1  0  0  0  0
 39 37  2  0  0  0  0
 40 39  1  0  0  0  0
 41 33  2  0  0  0  0
 42 45  1  0  0  0  0
 42 44  1  0  0  0  0
 42 41  1  0  0  0  0
 43 42  1  0  0  0  0
 46 48  1  0  0  0  0
 46 49  1  0  0  0  0
 46 47  1  0  0  0  0
M  END
