2,3,19
 OpenBabel05122313063D

 53 54  0  0  1  0  0  0  0  0999 V2000
   -1.0989    1.1076   -0.1351 P   0  0  0  0  0  4  0  0  0  0  0  0
    1.7251   -1.2188   -0.0153 N   0  0  0  0  0  2  0  0  0  0  0  0
   -1.2752   -0.3552    0.5649 N   0  0  0  0  0  2  0  0  0  0  0  0
    2.3232   -2.2002    0.6486 C   0  0  0  0  0  0  0  0  0  0  0  0
    1.7763   -3.1576    0.6896 H   0  0  0  0  0  0  0  0  0  0  0  0
    3.6033   -2.0397    1.2351 C   0  0  0  0  0  0  0  0  0  0  0  0
    4.0549   -2.8680    1.7995 H   0  0  0  0  0  0  0  0  0  0  0  0
    4.2787   -0.8441    1.0395 C   0  0  0  0  0  0  0  0  0  0  0  0
    5.2924   -0.6967    1.4445 H   0  0  0  0  0  0  0  0  0  0  0  0
    3.6787    0.2038    0.2830 C   0  0  0  0  0  0  0  0  0  0  0  0
    4.3443    1.4184   -0.0423 C   0  0  0  0  0  0  0  0  0  0  0  0
    5.3643    1.5927    0.3320 H   0  0  0  0  0  0  0  0  0  0  0  0
    3.7058    2.3476   -0.8543 C   0  0  0  0  0  0  0  0  0  0  0  0
    4.2278    3.2730   -1.1423 H   0  0  0  0  0  0  0  0  0  0  0  0
    2.3754    2.1422   -1.2954 C   0  0  0  0  0  0  0  0  0  0  0  0
    1.8917    2.9142   -1.9141 H   0  0  0  0  0  0  0  0  0  0  0  0
    1.6310    1.0077   -0.9398 C   0  0  0  0  0  0  0  0  0  0  0  0
    2.3383   -0.0119   -0.1964 C   0  0  1  0  0  3  0  0  0  0  0  0
    0.2163    0.7968   -1.3384 C   0  0  0  0  0  3  0  0  0  0  0  0
   -0.0234    1.3425   -2.2702 H   0  0  0  0  0  0  0  0  0  0  0  0
   -0.7358    2.4823    1.0823 C   0  0  0  0  0  0  0  0  0  0  0  0
   -1.6525    2.5315    1.7093 H   0  0  0  0  0  0  0  0  0  0  0  0
    0.4445    2.0994    1.9869 C   0  0  0  0  0  0  0  0  0  0  0  0
    1.4092    2.1987    1.4520 H   0  0  0  0  0  0  0  0  0  0  0  0
    0.3621    1.0534    2.3409 H   0  0  0  0  0  0  0  0  0  0  0  0
    0.4800    2.7672    2.8721 H   0  0  0  0  0  0  0  0  0  0  0  0
   -0.5271    3.8371    0.3960 C   0  0  0  0  0  0  0  0  0  0  0  0
   -0.3037    4.6178    1.1529 H   0  0  0  0  0  0  0  0  0  0  0  0
   -1.4189    4.1718   -0.1696 H   0  0  0  0  0  0  0  0  0  0  0  0
    0.3311    3.8004   -0.3041 H   0  0  0  0  0  0  0  0  0  0  0  0
   -2.5236    1.7299   -1.1908 C   0  0  0  0  0  0  0  0  0  0  0  0
   -2.1018    2.6075   -1.7290 H   0  0  0  0  0  0  0  0  0  0  0  0
   -2.9132    0.6539   -2.2132 C   0  0  0  0  0  0  0  0  0  0  0  0
   -3.2596   -0.2684   -1.7062 H   0  0  0  0  0  0  0  0  0  0  0  0
   -2.0674    0.3688   -2.8679 H   0  0  0  0  0  0  0  0  0  0  0  0
   -3.7375    1.0214   -2.8588 H   0  0  0  0  0  0  0  0  0  0  0  0
   -3.7277    2.1877   -0.3606 C   0  0  0  0  0  0  0  0  0  0  0  0
   -4.5240    2.5745   -1.0297 H   0  0  0  0  0  0  0  0  0  0  0  0
   -3.4763    2.9945    0.3561 H   0  0  0  0  0  0  0  0  0  0  0  0
   -4.1650    1.3455    0.2127 H   0  0  0  0  0  0  0  0  0  0  0  0
   -2.1424   -0.9492    1.5877 C   0  0  0  0  0  0  0  0  0  0  0  0
   -2.6064    0.0535    2.6587 C   0  0  0  0  0  0  0  0  0  0  0  0
   -1.7440    0.5092    3.1850 H   0  0  0  0  0  0  0  0  0  0  0  0
   -3.2356   -0.4535    3.4182 H   0  0  0  0  0  0  0  0  0  0  0  0
   -3.2169    0.8667    2.2157 H   0  0  0  0  0  0  0  0  0  0  0  0
   -3.3683   -1.6006    0.9109 C   0  0  0  0  0  0  0  0  0  0  0  0
   -4.0236   -0.8324    0.4524 H   0  0  0  0  0  0  0  0  0  0  0  0
   -3.9766   -2.1751    1.6400 H   0  0  0  0  0  0  0  0  0  0  0  0
   -3.0254   -2.2893    0.1124 H   0  0  0  0  0  0  0  0  0  0  0  0
   -1.3088   -2.0623    2.2577 C   0  0  0  0  0  0  0  0  0  0  0  0
   -0.9905   -2.7979    1.4906 H   0  0  0  0  0  0  0  0  0  0  0  0
   -1.8957   -2.5965    3.0325 H   0  0  0  0  0  0  0  0  0  0  0  0
   -0.4021   -1.6339    2.7312 H   0  0  0  0  0  0  0  0  0  0  0  0
  1  3  1  0  0  0  0
  1 21  1  0  0  0  0
  2  4  1  0  0  0  0
  3 41  1  0  0  0  0
  4  5  1  0  0  0  0
  4  6  2  0  0  0  0
  6  7  1  0  0  0  0
  8  6  1  0  0  0  0
  8  9  1  0  0  0  0
 10  8  2  0  0  0  0
 11 10  1  0  0  0  0
 11 12  1  0  0  0  0
 13 11  2  0  0  0  0
 14 13  1  0  0  0  0
 15 17  2  0  0  0  0
 15 13  1  0  0  0  0
 16 15  1  0  0  0  0
 18 17  1  6  0  0  0
 18  2  1  0  0  0  0
 18 10  1  0  0  0  0
 19 17  1  0  0  0  0
 19  1  1  0  0  0  0
 20 19  1  0  0  0  0
 21 22  1  0  0  0  0
 21 23  1  0  0  0  0
 23 25  1  0  0  0  0
 23 26  1  0  0  0  0
 24 23  1  0  0  0  0
 27 21  1  0  0  0  0
 27 28  1  0  0  0  0
 29 27  1  0  0  0  0
 30 27  1  0  0  0  0
 31 37  1  0  0  0  0
 31  1  1  0  0  0  0
 32 31  1  0  0  0  0
 33 34  1  0  0  0  0
 33 31  1  0  0  0  0
 35 33  1  0  0  0  0
 36 33  1  0  0  0  0
 37 40  1  0  0  0  0
 37 39  1  0  0  0  0
 38 37  1  0  0  0  0
 41 50  1  0  0  0  0
 41 42  1  0  0  0  0
 42 43  1  0  0  0  0
 42 44  1  0  0  0  0
 45 42  1  0  0  0  0
 46 41  1  0  0  0  0
 46 48  1  0  0  0  0
 47 46  1  0  0  0  0
 49 46  1  0  0  0  0
 50 53  1  0  0  0  0
 50 52  1  0  0  0  0
 51 50  1  0  0  0  0
M  END
