1,3,16
 OpenBabel05122313063D

 38 41  0  0  0  0  0  0  0  0999 V2000
    2.7338   -0.8747   -0.5831 N   0  0  0  0  0  2  0  0  0  0  0  0
    3.6836   -0.5879    0.3427 N   0  0  0  0  0  0  0  0  0  0  0  0
    1.0816   -0.4312    1.8903 N   0  0  0  0  0  2  0  0  0  0  0  0
    2.2574    0.0795    2.3352 N   0  0  0  0  0  0  0  0  0  0  0  0
    3.1914    1.8401    0.6707 N   0  0  0  0  0  0  0  0  0  0  0  0
    2.1307    2.2224   -0.1091 N   0  0  0  0  0  0  0  0  0  0  0  0
    3.3038   -1.6856   -1.4958 C   0  0  0  0  0  3  0  0  0  0  0  0
    4.6507   -1.9215   -1.1582 C   0  0  0  0  0  0  0  0  0  0  0  0
    4.8533   -1.1994    0.0193 C   0  0  0  0  0  0  0  0  0  0  0  0
    2.2732    0.0617    3.6958 C   0  0  0  0  0  3  0  0  0  0  0  0
    1.0628   -0.4675    4.1444 C   0  0  0  0  0  0  0  0  0  0  0  0
    0.3495   -0.7703    2.9692 C   0  0  0  0  0  0  0  0  0  0  0  0
    4.1551    2.7907    0.5606 C   0  0  0  0  0  3  0  0  0  0  0  0
    3.7177    3.8079   -0.2906 C   0  0  0  0  0  0  0  0  0  0  0  0
    2.4372    3.4224   -0.6928 C   0  0  0  0  0  0  0  0  0  0  0  0
    0.8944    1.5271   -0.2485 C   0  0  0  0  0  2  0  0  0  0  0  0
   -0.2121    2.5221   -0.3623 C   0  0  0  0  0  0  0  0  0  0  0  0
   -0.4417    3.4646    0.6708 C   0  0  0  0  0  0  0  0  0  0  0  0
   -1.5003    4.3774    0.5851 C   0  0  0  0  0  0  0  0  0  0  0  0
   -2.3339    4.3885   -0.5480 C   0  0  0  0  0  0  0  0  0  0  0  0
   -2.0984    3.4778   -1.5906 C   0  0  0  0  0  0  0  0  0  0  0  0
   -1.0508    2.5482   -1.4990 C   0  0  0  0  0  0  0  0  0  0  0  0
    3.4204    0.4733    1.4092 B   0  0  2  0  0  0  0  0  0  0  0  0
    2.7006   -2.0612   -2.3297 H   0  0  0  0  0  0  0  0  0  0  0  0
    5.3759   -2.5404   -1.6950 H   0  0  0  0  0  0  0  0  0  0  0  0
    5.7404   -1.0688    0.6483 H   0  0  0  0  0  0  0  0  0  0  0  0
    3.1557    0.4130    4.2402 H   0  0  0  0  0  0  0  0  0  0  0  0
    0.7458   -0.6279    5.1790 H   0  0  0  0  0  0  0  0  0  0  0  0
   -0.6369   -1.2240    2.8329 H   0  0  0  0  0  0  0  0  0  0  0  0
    5.0968    2.6647    1.1032 H   0  0  0  0  0  0  0  0  0  0  0  0
    4.2592    4.7120   -0.5832 H   0  0  0  0  0  0  0  0  0  0  0  0
    1.7109    3.8975   -1.3577 H   0  0  0  0  0  0  0  0  0  0  0  0
    0.2070    3.4536    1.5609 H   0  0  0  0  0  0  0  0  0  0  0  0
   -1.6826    5.0826    1.4107 H   0  0  0  0  0  0  0  0  0  0  0  0
   -3.1646    5.1071   -0.6161 H   0  0  0  0  0  0  0  0  0  0  0  0
   -2.7414    3.4855   -2.4843 H   0  0  0  0  0  0  0  0  0  0  0  0
   -0.8649    1.8216   -2.3048 H   0  0  0  0  0  0  0  0  0  0  0  0
    4.4196    0.6304    2.0916 H   0  0  0  0  0  0  0  0  0  0  0  0
  1  2  1  0  0  0  0
  2 23  1  0  0  0  0
  3  4  1  0  0  0  0
  3 12  1  0  0  0  0
  4 10  1  0  0  0  0
  5 23  1  0  0  0  0
  6  5  1  0  0  0  0
  7  8  1  0  0  0  0
  7  1  1  0  0  0  0
  8  9  2  0  0  0  0
  9  2  1  0  0  0  0
  9 26  1  0  0  0  0
 10 11  1  0  0  0  0
 10 27  1  0  0  0  0
 11 28  1  0  0  0  0
 12 11  2  0  0  0  0
 13  5  1  0  0  0  0
 13 30  1  0  0  0  0
 14 13  1  0  0  0  0
 15 14  2  0  0  0  0
 15  6  1  0  0  0  0
 16  6  1  0  0  0  0
 17 16  1  0  0  0  0
 17 18  1  0  0  0  0
 18 33  1  0  0  0  0
 19 18  2  0  0  0  0
 19 34  1  0  0  0  0
 20 19  1  0  0  0  0
 21 22  1  0  0  0  0
 21 20  2  0  0  0  0
 22 17  2  0  0  0  0
 23 38  1  1  0  0  0
 23  4  1  0  0  0  0
 24  7  1  0  0  0  0
 25  8  1  0  0  0  0
 29 12  1  0  0  0  0
 31 14  1  0  0  0  0
 32 15  1  0  0  0  0
 35 20  1  0  0  0  0
 36 21  1  0  0  0  0
 37 22  1  0  0  0  0
M  END
