1,2,10
 OpenBabel05122313063D

 73 76  0  0  1  0  0  0  0  0999 V2000
    0.8239   -0.3874    1.4364 N   0  0  0  0  0  2  0  0  0  0  0  0
   -1.5872   -0.4726    0.5313 N   0  0  0  0  0  2  0  0  0  0  0  0
    1.7447    4.6000    0.1805 C   0  0  0  0  0  0  0  0  0  0  0  0
    1.4976    5.5998   -0.2336 H   0  0  0  0  0  0  0  0  0  0  0  0
    2.8196    4.4072   -0.0169 H   0  0  0  0  0  0  0  0  0  0  0  0
    1.6201    4.6501    1.2823 H   0  0  0  0  0  0  0  0  0  0  0  0
    0.8585    3.4982   -0.4188 C   0  0  0  0  0  0  0  0  0  0  0  0
   -0.2060    3.7438   -0.2251 H   0  0  0  0  0  0  0  0  0  0  0  0
    0.9477    3.5082   -1.5266 H   0  0  0  0  0  0  0  0  0  0  0  0
    1.1428    2.1061    0.1416 C   0  0  0  0  0  3  0  0  0  0  0  0
    0.9152    2.0725    1.2265 H   0  0  0  0  0  0  0  0  0  0  0  0
    2.4217    1.4516   -0.1829 C   0  0  0  0  0  0  0  0  0  0  0  0
    3.1621    1.8509   -1.3524 C   0  0  0  0  0  0  0  0  0  0  0  0
    2.8057    2.7149   -1.9300 H   0  0  0  0  0  0  0  0  0  0  0  0
    4.3063    1.1983   -1.7580 C   0  0  0  0  0  0  0  0  0  0  0  0
    4.8518    1.5465   -2.6494 H   0  0  0  0  0  0  0  0  0  0  0  0
    4.8076    0.0660   -1.0512 C   0  0  0  0  0  0  0  0  0  0  0  0
    5.9709   -0.6283   -1.4851 C   0  0  0  0  0  0  0  0  0  0  0  0
    6.5008   -0.2550   -2.3755 H   0  0  0  0  0  0  0  0  0  0  0  0
    6.4238   -1.7564   -0.8158 C   0  0  0  0  0  0  0  0  0  0  0  0
    7.3232   -2.2871   -1.1622 H   0  0  0  0  0  0  0  0  0  0  0  0
    5.7036   -2.2341    0.3084 C   0  0  0  0  0  0  0  0  0  0  0  0
    6.0401   -3.1464    0.8246 H   0  0  0  0  0  0  0  0  0  0  0  0
    4.5698   -1.5718    0.7606 C   0  0  0  0  0  0  0  0  0  0  0  0
    4.0189   -1.9807    1.6187 H   0  0  0  0  0  0  0  0  0  0  0  0
    4.0932   -0.3872    0.1182 C   0  0  0  0  0  0  0  0  0  0  0  0
    2.9208    0.3282    0.5445 C   0  0  0  0  0  0  0  0  0  0  0  0
    2.1350   -0.1588    1.7057 C   0  0  2  0  0  3  0  0  0  0  0  0
    2.6350   -0.3882    2.9983 C   0  0  0  0  0  0  0  0  0  0  0  0
    3.6861   -0.1655    3.2268 H   0  0  0  0  0  0  0  0  0  0  0  0
    1.7650   -0.8967    3.9768 C   0  0  0  0  0  0  0  0  0  0  0  0
    2.1340   -1.0857    4.9964 H   0  0  0  0  0  0  0  0  0  0  0  0
    0.4273   -1.1589    3.6573 C   0  0  0  0  0  0  0  0  0  0  0  0
   -0.2606   -1.5650    4.4112 H   0  0  0  0  0  0  0  0  0  0  0  0
   -0.0245   -0.8739    2.3536 C   0  0  0  0  0  0  0  0  0  0  0  0
   -1.4488   -1.1199    1.8646 C   0  0  0  0  0  0  0  0  0  0  0  0
   -1.6425   -2.6556    1.7783 C   0  0  0  0  0  0  0  0  0  0  0  0
   -0.9178   -3.1080    1.0749 H   0  0  0  0  0  0  0  0  0  0  0  0
   -2.6679   -2.8786    1.4269 H   0  0  0  0  0  0  0  0  0  0  0  0
   -1.5118   -3.1297    2.7715 H   0  0  0  0  0  0  0  0  0  0  0  0
   -2.4496   -0.5752    2.9073 C   0  0  0  0  0  0  0  0  0  0  0  0
   -2.2447    0.4811    3.1588 H   0  0  0  0  0  0  0  0  0  0  0  0
   -2.4041   -1.1678    3.8416 H   0  0  0  0  0  0  0  0  0  0  0  0
   -3.4816   -0.6524    2.5151 H   0  0  0  0  0  0  0  0  0  0  0  0
   -2.9099   -0.3897   -0.0249 C   0  0  0  0  0  0  0  0  0  0  0  0
   -3.4116   -1.4100   -0.8974 C   0  0  0  0  0  0  0  0  0  0  0  0
   -4.7306   -1.3127   -1.3819 C   0  0  0  0  0  0  0  0  0  0  0  0
   -5.1154   -2.1020   -2.0464 H   0  0  0  0  0  0  0  0  0  0  0  0
   -5.5526   -0.2305   -1.0566 C   0  0  0  0  0  0  0  0  0  0  0  0
   -6.5828   -0.1786   -1.4409 H   0  0  0  0  0  0  0  0  0  0  0  0
   -5.0388    0.8043   -0.2681 C   0  0  0  0  0  0  0  0  0  0  0  0
   -5.6668    1.6832   -0.0542 H   0  0  0  0  0  0  0  0  0  0  0  0
   -3.7297    0.7567    0.2436 C   0  0  0  0  0  0  0  0  0  0  0  0
   -2.5439   -2.5504   -1.4227 C   0  0  0  0  0  0  0  0  0  0  0  0
   -1.5715   -2.4937   -0.8947 H   0  0  0  0  0  0  0  0  0  0  0  0
   -3.1487   -3.9416   -1.1752 C   0  0  0  0  0  0  0  0  0  0  0  0
   -3.3778   -4.1150   -0.1055 H   0  0  0  0  0  0  0  0  0  0  0  0
   -2.4466   -4.7340   -1.5063 H   0  0  0  0  0  0  0  0  0  0  0  0
   -4.0916   -4.0809   -1.7433 H   0  0  0  0  0  0  0  0  0  0  0  0
   -2.2617   -2.3558   -2.9252 C   0  0  0  0  0  0  0  0  0  0  0  0
   -1.8072   -1.3674   -3.1306 H   0  0  0  0  0  0  0  0  0  0  0  0
   -3.1969   -2.4210   -3.5190 H   0  0  0  0  0  0  0  0  0  0  0  0
   -1.5687   -3.1380   -3.2975 H   0  0  0  0  0  0  0  0  0  0  0  0
   -3.2031    1.9827    0.9847 C   0  0  0  0  0  0  0  0  0  0  0  0
   -2.2059    1.7138    1.3881 H   0  0  0  0  0  0  0  0  0  0  0  0
   -2.9993    3.1485   -0.0011 C   0  0  0  0  0  0  0  0  0  0  0  0
   -2.3295    2.8604   -0.8334 H   0  0  0  0  0  0  0  0  0  0  0  0
   -2.5584    4.0265    0.5151 H   0  0  0  0  0  0  0  0  0  0  0  0
   -3.9649    3.4675   -0.4453 H   0  0  0  0  0  0  0  0  0  0  0  0
   -4.1015    2.4245    2.1509 C   0  0  0  0  0  0  0  0  0  0  0  0
   -3.6299    3.2597    2.7086 H   0  0  0  0  0  0  0  0  0  0  0  0
   -4.2965    1.6015    2.8655 H   0  0  0  0  0  0  0  0  0  0  0  0
   -5.0848    2.7901    1.7892 H   0  0  0  0  0  0  0  0  0  0  0  0
  1 28  1  0  0  0  0
  1 35  1  0  0  0  0
  2 36  1  0  0  0  0
  3  6  1  0  0  0  0
  4  3  1  0  0  0  0
  5  3  1  0  0  0  0
  7  8  1  0  0  0  0
  7 10  1  0  0  0  0
  7  3  1  0  0  0  0
  9  7  1  0  0  0  0
 10 11  1  0  0  0  0
 12 10  1  0  0  0  0
 12 27  1  0  0  0  0
 13 12  2  0  0  0  0
 14 13  1  0  0  0  0
 15 13  1  0  0  0  0
 15 17  2  0  0  0  0
 16 15  1  0  0  0  0
 17 26  1  0  0  0  0
 18 17  1  0  0  0  0
 18 20  2  0  0  0  0
 19 18  1  0  0  0  0
 20 22  1  0  0  0  0
 21 20  1  0  0  0  0
 22 24  2  0  0  0  0
 22 23  1  0  0  0  0
 24 25  1  0  0  0  0
 26 27  2  0  0  0  0
 26 24  1  0  0  0  0
 28 27  1  6  0  0  0
 28 29  1  0  0  0  0
 29 30  1  0  0  0  0
 29 31  2  0  0  0  0
 31 32  1  0  0  0  0
 33 31  1  0  0  0  0
 33 34  1  0  0  0  0
 35 33  2  0  0  0  0
 36 35  1  0  0  0  0
 36 41  1  0  0  0  0
 37 36  1  0  0  0  0
 37 40  1  0  0  0  0
 38 37  1  0  0  0  0
 39 37  1  0  0  0  0
 41 42  1  0  0  0  0
 41 43  1  0  0  0  0
 44 41  1  0  0  0  0
 45 53  1  0  0  0  0
 45  2  1  0  0  0  0
 46 45  2  0  0  0  0
 47 49  2  0  0  0  0
 47 46  1  0  0  0  0
 48 47  1  0  0  0  0
 49 51  1  0  0  0  0
 50 49  1  0  0  0  0
 51 52  1  0  0  0  0
 51 53  2  0  0  0  0
 53 64  1  0  0  0  0
 54 56  1  0  0  0  0
 54 46  1  0  0  0  0
 54 55  1  0  0  0  0
 56 57  1  0  0  0  0
 58 56  1  0  0  0  0
 59 56  1  0  0  0  0
 60 54  1  0  0  0  0
 61 60  1  0  0  0  0
 62 60  1  0  0  0  0
 63 60  1  0  0  0  0
 64 65  1  0  0  0  0
 64 70  1  0  0  0  0
 66 68  1  0  0  0  0
 66 64  1  0  0  0  0
 67 66  1  0  0  0  0
 69 66  1  0  0  0  0
 70 71  1  0  0  0  0
 70 72  1  0  0  0  0
 73 70  1  0  0  0  0
M  END
