2,3,10
 OpenBabel05122313063D

 28 28  0  0  0  0  0  0  0  0999 V2000
    4.2324   -1.5087   -0.0134 Cl  0  0  0  0  0  0  0  0  0  0  0  0
   -2.8172   -0.6251   -0.0976 N   0  0  0  0  0  0  0  0  0  0  0  0
   -0.2480   -1.3775    0.0503 N   0  0  0  0  0  2  0  0  0  0  0  0
   -3.7319    0.0074   -1.0623 C   0  0  0  0  0  0  0  0  0  0  0  0
   -3.3723   -0.5349    1.2640 C   0  0  0  0  0  0  0  0  0  0  0  0
   -2.4894   -2.0158   -0.4978 C   0  0  0  0  0  0  0  0  0  0  0  0
   -1.2015   -2.4675    0.1862 C   0  0  0  0  0  0  0  0  0  0  0  0
    1.0584   -1.5304    0.0486 C   0  0  0  0  0  0  0  0  0  0  0  0
    1.7727   -0.2817    0.0040 C   0  0  0  0  0  0  0  0  0  0  0  0
    0.8910    0.8579   -0.0006 C   0  0  0  0  0  2  0  0  0  0  0  0
    1.4676    2.1359   -0.0318 C   0  0  0  0  0  0  0  0  0  0  0  0
    2.8677    2.2850   -0.0611 C   0  0  0  0  0  0  0  0  0  0  0  0
    3.7306    1.1747   -0.0566 C   0  0  0  0  0  0  0  0  0  0  0  0
    3.1743   -0.1095   -0.0234 C   0  0  0  0  0  0  0  0  0  0  0  0
   -3.2920   -0.0443   -2.0764 H   0  0  0  0  0  0  0  0  0  0  0  0
   -3.8407    1.0745   -0.7914 H   0  0  0  0  0  0  0  0  0  0  0  0
   -4.7252   -0.4988   -1.0667 H   0  0  0  0  0  0  0  0  0  0  0  0
   -2.6860   -1.0060    1.9927 H   0  0  0  0  0  0  0  0  0  0  0  0
   -4.3683   -1.0333    1.3298 H   0  0  0  0  0  0  0  0  0  0  0  0
   -3.4664    0.5363    1.5253 H   0  0  0  0  0  0  0  0  0  0  0  0
   -3.3358   -2.7099   -0.2835 H   0  0  0  0  0  0  0  0  0  0  0  0
   -2.3292   -2.0079   -1.5943 H   0  0  0  0  0  0  0  0  0  0  0  0
   -1.3788   -2.6672    1.2671 H   0  0  0  0  0  0  0  0  0  0  0  0
   -0.8249   -3.4136   -0.2600 H   0  0  0  0  0  0  0  0  0  0  0  0
    1.5376   -2.5243    0.0955 H   0  0  0  0  0  0  0  0  0  0  0  0
    0.8153    3.0208   -0.0314 H   0  0  0  0  0  0  0  0  0  0  0  0
    3.3041    3.2963   -0.0877 H   0  0  0  0  0  0  0  0  0  0  0  0
    4.8222    1.2968   -0.0784 H   0  0  0  0  0  0  0  0  0  0  0  0
  2  5  1  0  0  0  0
  3  7  1  0  0  0  0
  4 16  1  0  0  0  0
  4  2  1  0  0  0  0
  5 19  1  0  0  0  0
  5 20  1  0  0  0  0
  5 18  1  0  0  0  0
  6 21  1  0  0  0  0
  6  2  1  0  0  0  0
  6  7  1  0  0  0  0
  7 23  1  0  0  0  0
  8  3  1  0  0  0  0
  8 25  1  0  0  0  0
  9  8  2  0  0  0  0
 10  9  1  0  0  0  0
 11 26  1  0  0  0  0
 11 10  1  0  0  0  0
 12 13  1  0  0  0  0
 12 11  2  0  0  0  0
 13 14  2  0  0  0  0
 14  1  1  0  0  0  0
 14  9  1  0  0  0  0
 15  4  1  0  0  0  0
 17  4  1  0  0  0  0
 22  6  1  0  0  0  0
 24  7  1  0  0  0  0
 27 12  1  0  0  0  0
 28 13  1  0  0  0  0
M  END
