1,3,5
 OpenBabel05122313063D

 46 50  0  0  1  0  0  0  0  0999 V2000
    1.5976    0.3976   -0.0880 C   0  0  0  0  0  2  0  0  0  0  0  0
   -2.0815   -0.3255   -1.0307 N   0  0  0  0  0  2  0  0  0  0  0  0
   -0.9536    0.1290   -0.5189 N   0  0  0  0  0  2  0  0  0  0  0  0
    2.9504    0.1507    0.0077 N   0  0  0  0  0  0  0  0  0  0  0  0
    2.1537   -1.9893   -0.0107 N   0  0  0  0  0  2  0  0  0  0  0  0
    3.2784   -1.2126    0.0200 C   0  0  1  0  0  3  0  0  0  0  0  0
    1.4257    1.7329    0.0144 N   0  0  0  0  0  0  0  0  0  0  0  0
   -2.8532    0.7332   -1.2386 N   0  0  0  0  0  0  0  0  0  0  0  0
   -0.9878    1.5036   -0.4220 C   0  0  0  0  0  0  0  0  0  0  0  0
    2.6655    2.3723    0.1881 C   0  0  0  0  0  0  0  0  0  0  0  0
    2.2875   -3.3346   -0.0079 C   0  0  0  0  0  0  0  0  0  0  0  0
    1.3345   -3.8885   -0.0235 H   0  0  0  0  0  0  0  0  0  0  0  0
    3.6583    1.3541    0.1787 C   0  0  0  0  0  0  0  0  0  0  0  0
    4.3512    4.0350    0.5043 C   0  0  0  0  0  0  0  0  0  0  0  0
    4.6500    5.0848    0.6360 H   0  0  0  0  0  0  0  0  0  0  0  0
   -2.2381    1.8952   -0.8806 C   0  0  0  0  0  0  0  0  0  0  0  0
   -2.7172    2.8752   -0.9680 H   0  0  0  0  0  0  0  0  0  0  0  0
    3.5437   -3.9478    0.0312 C   0  0  0  0  0  0  0  0  0  0  0  0
    3.6068   -5.0446    0.0364 H   0  0  0  0  0  0  0  0  0  0  0  0
    2.9914    3.7226    0.3532 C   0  0  0  0  0  0  0  0  0  0  0  0
    2.2227    4.5076    0.3682 H   0  0  0  0  0  0  0  0  0  0  0  0
    4.5669   -1.7516    0.0558 C   0  0  0  0  0  0  0  0  0  0  0  0
    5.4485   -1.1013    0.0699 H   0  0  0  0  0  0  0  0  0  0  0  0
   -5.1629    0.3312   -0.4643 C   0  0  0  0  0  0  0  0  0  0  0  0
   -4.2479    0.5165   -1.6571 C   0  0  0  0  0  0  0  0  0  0  0  0
   -4.2235   -0.3820   -2.3038 H   0  0  0  0  0  0  0  0  0  0  0  0
   -4.5503    1.3843   -2.2726 H   0  0  0  0  0  0  0  0  0  0  0  0
    5.0138    1.6736    0.3301 C   0  0  0  0  0  0  0  0  0  0  0  0
    5.8028    0.9121    0.3279 H   0  0  0  0  0  0  0  0  0  0  0  0
   -6.8725   -0.0238    1.7394 C   0  0  0  0  0  0  0  0  0  0  0  0
   -7.5428   -0.1657    2.6003 H   0  0  0  0  0  0  0  0  0  0  0  0
   -4.9324   -0.7214    0.4456 C   0  0  0  0  0  0  0  0  0  0  0  0
   -4.0793   -1.4038    0.2981 H   0  0  0  0  0  0  0  0  0  0  0  0
   -6.2481    1.2033   -0.2627 C   0  0  0  0  0  0  0  0  0  0  0  0
   -6.4342    2.0236   -0.9745 H   0  0  0  0  0  0  0  0  0  0  0  0
   -7.1043    1.0229    0.8350 C   0  0  0  0  0  0  0  0  0  0  0  0
   -7.9556    1.7040    0.9824 H   0  0  0  0  0  0  0  0  0  0  0  0
   -5.7855   -0.8930    1.5441 C   0  0  0  0  0  0  0  0  0  0  0  0
   -5.6040   -1.7166    2.2505 H   0  0  0  0  0  0  0  0  0  0  0  0
    4.6946   -3.1482    0.0631 C   0  0  0  0  0  0  0  0  0  0  0  0
    5.6950   -3.6041    0.0907 H   0  0  0  0  0  0  0  0  0  0  0  0
    5.3396    3.0298    0.4923 C   0  0  0  0  0  0  0  0  0  0  0  0
    6.3953    3.3113    0.6142 H   0  0  0  0  0  0  0  0  0  0  0  0
    0.1172    2.3658    0.1140 C   0  0  0  0  0  0  0  0  0  0  0  0
    0.1376    3.3222   -0.4463 H   0  0  0  0  0  0  0  0  0  0  0  0
   -0.0724    2.6195    1.1819 H   0  0  0  0  0  0  0  0  0  0  0  0
  1  4  1  0  0  0  0
  1  7  1  0  0  0  0
  2  3  1  0  0  0  0
  3  9  1  0  0  0  0
  4 13  1  0  0  0  0
  5 11  1  0  0  0  0
  5  6  1  0  0  0  0
  6  4  1  6  0  0  0
  6 22  1  0  0  0  0
  7 44  1  0  0  0  0
  7 10  1  0  0  0  0
  8  2  1  0  0  0  0
  8 16  1  0  0  0  0
  9 44  1  0  0  0  0
 10 20  1  0  0  0  0
 11 18  2  0  0  0  0
 12 11  1  0  0  0  0
 13 10  2  0  0  0  0
 13 28  1  0  0  0  0
 14 15  1  0  0  0  0
 16  9  2  0  0  0  0
 17 16  1  0  0  0  0
 18 19  1  0  0  0  0
 18 40  1  0  0  0  0
 20 21  1  0  0  0  0
 20 14  2  0  0  0  0
 22 40  2  0  0  0  0
 22 23  1  0  0  0  0
 24 34  2  0  0  0  0
 24 32  1  0  0  0  0
 25  8  1  0  0  0  0
 25 24  1  0  0  0  0
 26 25  1  0  0  0  0
 27 25  1  0  0  0  0
 28 42  2  0  0  0  0
 29 28  1  0  0  0  0
 30 31  1  0  0  0  0
 32 38  2  0  0  0  0
 33 32  1  0  0  0  0
 34 36  1  0  0  0  0
 35 34  1  0  0  0  0
 36 37  1  0  0  0  0
 36 30  2  0  0  0  0
 38 30  1  0  0  0  0
 38 39  1  0  0  0  0
 40 41  1  0  0  0  0
 42 14  1  0  0  0  0
 42 43  1  0  0  0  0
 44 46  1  0  0  0  0
 45 44  1  0  0  0  0
M  END
