2,3,6
 OpenBabel05122313063D

 80 83  0  0  1  0  0  0  0  0999 V2000
    2.7147   -0.8926   -2.4474 O   0  0  0  0  0  0  0  0  0  0  0  0
    1.0828   -1.2951    1.3071 N   0  0  0  0  0  2  0  0  0  0  0  0
   -0.5121   -1.8873   -0.9477 N   0  0  0  0  0  0  0  0  0  0  0  0
    2.8541   -2.4461    0.6299 N   0  0  0  0  0  0  0  0  0  0  0  0
   -3.6766    0.3798    0.8657 N   0  0  0  0  0  0  0  0  0  0  0  0
   -2.8096   -0.5194    0.2662 C   0  0  0  0  0  3  0  0  0  0  0  0
   -4.8604    0.4615    0.1656 C   0  0  0  0  0  0  0  0  0  0  0  0
   -6.0184    1.2226    0.3957 C   0  0  0  0  0  0  0  0  0  0  0  0
   -7.0771    1.0926   -0.5138 C   0  0  0  0  0  0  0  0  0  0  0  0
   -6.9838    0.2223   -1.6267 C   0  0  0  0  0  0  0  0  0  0  0  0
   -5.8303   -0.5386   -1.8547 C   0  0  0  0  0  0  0  0  0  0  0  0
   -4.7465   -0.4303   -0.9551 C   0  0  0  0  0  0  0  0  0  0  0  0
   -3.4427   -1.0428   -0.8711 C   0  0  0  0  0  0  0  0  0  0  0  0
   -2.9037   -2.0503   -1.8390 C   0  0  0  0  0  0  0  0  0  0  0  0
   -1.6401   -2.7715   -1.3843 C   0  0  0  0  0  0  0  0  0  0  0  0
    0.6527   -2.7620   -0.6296 C   0  0  0  0  0  0  0  0  0  0  0  0
    1.5476   -2.1403    0.3883 C   0  0  1  0  0  3  0  0  0  0  0  0
    2.1228   -1.0125    2.1762 C   0  0  0  0  0  0  0  0  0  0  0  0
    3.2411   -1.7416    1.7742 C   0  0  0  0  0  0  0  0  0  0  0  0
   -0.1858   -0.8884   -2.0213 C   0  0  0  0  0  0  0  0  0  0  0  0
    0.7396    0.2225   -1.5953 C   0  0  0  0  0  0  0  0  0  0  0  0
    2.1359    0.1745   -1.7843 C   0  0  0  0  0  0  0  0  0  0  0  0
    2.9712    1.2186   -1.2987 C   0  0  0  0  0  0  0  0  0  0  0  0
    2.3381    2.2593   -0.5958 C   0  0  0  0  0  0  0  0  0  0  0  0
    0.9431    2.3540   -0.4030 C   0  0  0  0  0  0  0  0  0  0  0  0
    0.1603    1.3249   -0.9363 C   0  0  0  0  0  0  0  0  0  0  0  0
    1.9925   -0.0481    3.3052 C   0  0  0  0  0  0  0  0  0  0  0  0
    4.5991   -1.8546    2.3776 C   0  0  0  0  0  0  0  0  0  0  0  0
    3.6762   -3.3419   -0.1616 C   0  0  0  0  0  0  0  0  0  0  0  0
    4.4899    1.2409   -1.5686 C   0  0  0  0  0  0  0  0  0  0  0  0
    5.1644   -0.0037   -0.9504 C   0  0  0  0  0  0  0  0  0  0  0  0
    4.7397    1.2780   -3.0952 C   0  0  0  0  0  0  0  0  0  0  0  0
    5.1632    2.4818   -0.9533 C   0  0  0  0  0  0  0  0  0  0  0  0
    0.3370    3.5355    0.3726 C   0  0  0  0  0  0  0  0  0  0  0  0
   -1.2017    3.4994    0.3530 C   0  0  0  0  0  0  0  0  0  0  0  0
    0.8102    4.8663   -0.2524 C   0  0  0  0  0  0  0  0  0  0  0  0
    0.8000    3.4533    1.8457 C   0  0  0  0  0  0  0  0  0  0  0  0
   -3.4350    0.8240    1.7569 H   0  0  0  0  0  0  0  0  0  0  0  0
   -6.0898    1.8986    1.2612 H   0  0  0  0  0  0  0  0  0  0  0  0
   -7.9966    1.6776   -0.3594 H   0  0  0  0  0  0  0  0  0  0  0  0
   -7.8337    0.1444   -2.3220 H   0  0  0  0  0  0  0  0  0  0  0  0
   -5.7714   -1.2123   -2.7246 H   0  0  0  0  0  0  0  0  0  0  0  0
   -3.6585   -2.8492   -2.0175 H   0  0  0  0  0  0  0  0  0  0  0  0
   -2.7431   -1.6026   -2.8485 H   0  0  0  0  0  0  0  0  0  0  0  0
   -1.2715   -3.4257   -2.2106 H   0  0  0  0  0  0  0  0  0  0  0  0
   -1.8696   -3.4137   -0.5108 H   0  0  0  0  0  0  0  0  0  0  0  0
    0.2390   -3.7080   -0.2163 H   0  0  0  0  0  0  0  0  0  0  0  0
    1.2016   -3.0379   -1.5590 H   0  0  0  0  0  0  0  0  0  0  0  0
    0.1803   -1.4553   -2.9163 H   0  0  0  0  0  0  0  0  0  0  0  0
   -1.1488   -0.4351   -2.3152 H   0  0  0  0  0  0  0  0  0  0  0  0
    2.9663    3.0648   -0.1952 H   0  0  0  0  0  0  0  0  0  0  0  0
   -0.9334    1.3457   -0.8391 H   0  0  0  0  0  0  0  0  0  0  0  0
    2.7878   -0.2016    4.0594 H   0  0  0  0  0  0  0  0  0  0  0  0
    2.0623    0.9966    2.9373 H   0  0  0  0  0  0  0  0  0  0  0  0
    0.9987   -0.1429    3.7829 H   0  0  0  0  0  0  0  0  0  0  0  0
    5.4049   -1.5148    1.6926 H   0  0  0  0  0  0  0  0  0  0  0  0
    4.6526   -1.2210    3.2820 H   0  0  0  0  0  0  0  0  0  0  0  0
    4.8389   -2.8945    2.6870 H   0  0  0  0  0  0  0  0  0  0  0  0
    4.7343   -3.2194    0.1281 H   0  0  0  0  0  0  0  0  0  0  0  0
    3.3889   -4.4029   -0.0080 H   0  0  0  0  0  0  0  0  0  0  0  0
    3.5841   -3.0818   -1.2338 H   0  0  0  0  0  0  0  0  0  0  0  0
    6.2606    0.0287   -1.1217 H   0  0  0  0  0  0  0  0  0  0  0  0
    4.9850   -0.0290    0.1427 H   0  0  0  0  0  0  0  0  0  0  0  0
    4.7743   -0.9380   -1.3914 H   0  0  0  0  0  0  0  0  0  0  0  0
    4.2871    2.1865   -3.5414 H   0  0  0  0  0  0  0  0  0  0  0  0
    5.8296    1.3010   -3.3041 H   0  0  0  0  0  0  0  0  0  0  0  0
    4.3096    0.3923   -3.5979 H   0  0  0  0  0  0  0  0  0  0  0  0
    4.7586    3.4256   -1.3703 H   0  0  0  0  0  0  0  0  0  0  0  0
    5.0500    2.5134    0.1492 H   0  0  0  0  0  0  0  0  0  0  0  0
    6.2488    2.4581   -1.1763 H   0  0  0  0  0  0  0  0  0  0  0  0
   -1.5941    2.5833    0.8368 H   0  0  0  0  0  0  0  0  0  0  0  0
   -1.6017    4.3692    0.9120 H   0  0  0  0  0  0  0  0  0  0  0  0
   -1.6034    3.5525   -0.6793 H   0  0  0  0  0  0  0  0  0  0  0  0
    0.3708    5.7254    0.2953 H   0  0  0  0  0  0  0  0  0  0  0  0
    1.9127    4.9776   -0.2138 H   0  0  0  0  0  0  0  0  0  0  0  0
    0.4987    4.9399   -1.3143 H   0  0  0  0  0  0  0  0  0  0  0  0
    0.4084    2.5317    2.3215 H   0  0  0  0  0  0  0  0  0  0  0  0
    1.9064    3.4556    1.9275 H   0  0  0  0  0  0  0  0  0  0  0  0
    0.4178    4.3240    2.4182 H   0  0  0  0  0  0  0  0  0  0  0  0
    2.0092   -1.3419   -2.9507 H   0  0  0  0  0  0  0  0  0  0  0  0
  1 22  1  0  0  0  0
  2 18  1  0  0  0  0
  3 16  1  0  0  0  0
  4 19  1  0  0  0  0
  5 38  1  0  0  0  0
  6  5  1  0  0  0  0
  7  8  1  0  0  0  0
  7  5  1  0  0  0  0
  8 39  1  0  0  0  0
  9 40  1  0  0  0  0
  9  8  2  0  0  0  0
 10  9  1  0  0  0  0
 11 10  2  0  0  0  0
 11 12  1  0  0  0  0
 12 13  1  0  0  0  0
 12  7  2  0  0  0  0
 13  6  2  0  0  0  0
 14 15  1  0  0  0  0
 14 13  1  0  0  0  0
 15  3  1  0  0  0  0
 15 46  1  0  0  0  0
 16 47  1  0  0  0  0
 17 16  1  1  0  0  0
 17  4  1  0  0  0  0
 17  2  1  0  0  0  0
 18 27  1  0  0  0  0
 19 18  2  0  0  0  0
 19 28  1  0  0  0  0
 20 21  1  0  0  0  0
 20  3  1  0  0  0  0
 21 26  1  0  0  0  0
 22 21  2  0  0  0  0
 22 23  1  0  0  0  0
 23 24  2  0  0  0  0
 24 25  1  0  0  0  0
 24 51  1  0  0  0  0
 25 34  1  0  0  0  0
 26 52  1  0  0  0  0
 26 25  2  0  0  0  0
 27 55  1  0  0  0  0
 27 53  1  0  0  0  0
 28 58  1  0  0  0  0
 28 57  1  0  0  0  0
 29 60  1  0  0  0  0
 29 59  1  0  0  0  0
 29  4  1  0  0  0  0
 30 23  1  0  0  0  0
 30 33  1  0  0  0  0
 30 31  1  0  0  0  0
 31 63  1  0  0  0  0
 32 30  1  0  0  0  0
 33 69  1  0  0  0  0
 34 37  1  0  0  0  0
 35 34  1  0  0  0  0
 35 71  1  0  0  0  0
 35 72  1  0  0  0  0
 36 75  1  0  0  0  0
 36 74  1  0  0  0  0
 36 34  1  0  0  0  0
 37 78  1  0  0  0  0
 37 77  1  0  0  0  0
 37 79  1  0  0  0  0
 41 10  1  0  0  0  0
 42 11  1  0  0  0  0
 43 14  1  0  0  0  0
 44 14  1  0  0  0  0
 45 15  1  0  0  0  0
 48 16  1  0  0  0  0
 49 20  1  0  0  0  0
 50 20  1  0  0  0  0
 54 27  1  0  0  0  0
 56 28  1  0  0  0  0
 61 29  1  0  0  0  0
 62 31  1  0  0  0  0
 64 31  1  0  0  0  0
 65 32  1  0  0  0  0
 66 32  1  0  0  0  0
 67 32  1  0  0  0  0
 68 33  1  0  0  0  0
 70 33  1  0  0  0  0
 73 35  1  0  0  0  0
 76 36  1  0  0  0  0
 80  1  1  0  0  0  0
M  END
