1,2,3
 OpenBabel05122313063D

 26 27  0  0  0  0  0  0  0  0999 V2000
   -1.7933   -0.9193    1.1047 N   0  0  0  0  0  0  0  0  0  0  0  0
   -0.8200    1.2275   -0.1119 N   0  0  0  0  0  2  0  0  0  0  0  0
    1.8139    0.8834    0.0856 C   0  0  0  0  0  3  0  0  0  0  0  0
    3.2122    0.7617    0.2711 C   0  0  0  0  0  0  0  0  0  0  0  0
    4.0585    1.8722    0.2037 C   0  0  0  0  0  0  0  0  0  0  0  0
    3.5454    3.1669   -0.0423 C   0  0  0  0  0  0  0  0  0  0  0  0
    2.1749    3.3352   -0.2045 C   0  0  0  0  0  0  0  0  0  0  0  0
    1.3049    2.2124   -0.1382 C   0  0  0  0  0  0  0  0  0  0  0  0
   -0.1131    2.3406   -0.1987 C   0  0  0  0  0  3  0  0  0  0  0  0
   -2.2188    1.2117    0.0075 C   0  0  0  0  0  0  0  0  0  0  0  0
   -3.0938    2.2069   -0.4710 C   0  0  0  0  0  0  0  0  0  0  0  0
   -4.4758    2.0640   -0.2938 C   0  0  0  0  0  0  0  0  0  0  0  0
   -5.0005    0.9338    0.3555 C   0  0  0  0  0  0  0  0  0  0  0  0
   -4.1351   -0.0654    0.8275 C   0  0  0  0  0  0  0  0  0  0  0  0
   -2.7547    0.0749    0.6529 C   0  0  0  0  0  0  0  0  0  0  0  0
   -1.7221   -0.9258    2.1334 H   0  0  0  0  0  0  0  0  0  0  0  0
   -2.1089   -1.8569    0.8088 H   0  0  0  0  0  0  0  0  0  0  0  0
    3.6450   -0.2328    0.4620 H   0  0  0  0  0  0  0  0  0  0  0  0
    5.1419    1.7337    0.3440 H   0  0  0  0  0  0  0  0  0  0  0  0
    4.2241    4.0306   -0.0963 H   0  0  0  0  0  0  0  0  0  0  0  0
    1.7478    4.3354   -0.3804 H   0  0  0  0  0  0  0  0  0  0  0  0
   -0.6033    3.3311   -0.2270 H   0  0  0  0  0  0  0  0  0  0  0  0
   -2.6926    3.0751   -1.0128 H   0  0  0  0  0  0  0  0  0  0  0  0
   -5.1546    2.8378   -0.6821 H   0  0  0  0  0  0  0  0  0  0  0  0
   -6.0870    0.8234    0.4843 H   0  0  0  0  0  0  0  0  0  0  0  0
   -4.5341   -0.9610    1.3279 H   0  0  0  0  0  0  0  0  0  0  0  0
  1 16  1  0  0  0  0
  2 10  1  0  0  0  0
  3  4  1  0  0  0  0
  4 18  1  0  0  0  0
  5  4  2  0  0  0  0
  5 19  1  0  0  0  0
  6  5  1  0  0  0  0
  7  8  1  0  0  0  0
  7  6  2  0  0  0  0
  8  3  2  0  0  0  0
  9  8  1  0  0  0  0
  9  2  1  0  0  0  0
 10 15  1  0  0  0  0
 11 12  1  0  0  0  0
 11 10  2  0  0  0  0
 12 13  2  0  0  0  0
 13 25  1  0  0  0  0
 13 14  1  0  0  0  0
 14 26  1  0  0  0  0
 15 14  2  0  0  0  0
 15  1  1  0  0  0  0
 17  1  1  0  0  0  0
 20  6  1  0  0  0  0
 21  7  1  0  0  0  0
 22  9  1  0  0  0  0
 23 11  1  0  0  0  0
 24 12  1  0  0  0  0
M  END
