3,7,8
 OpenBabel05122313063D

 35 37  0  0  1  0  0  0  0  0999 V2000
    0.1536   -3.5459   -0.7507 O   0  0  0  0  0  0  0  0  0  0  0  0
    2.6554   -0.2383    0.1316 C   0  0  2  0  0  3  0  0  0  0  0  0
    2.0009    0.9397   -0.1234 N   0  0  0  0  0  2  0  0  0  0  0  0
    4.0643   -0.2572    0.4235 C   0  0  0  0  0  0  0  0  0  0  0  0
   -0.2119   -2.3673   -0.7461 C   0  0  0  0  0  0  0  0  0  0  0  0
    1.8781   -1.4525    0.0815 C   0  0  0  0  0  0  0  0  0  0  0  0
    0.5354   -1.3065   -0.2613 N   0  0  0  0  0  2  0  0  0  0  0  0
   -2.0103    0.0430    0.0645 C   0  0  0  0  0  3  0  0  0  0  0  0
    4.7426    0.9938    0.4349 C   0  0  0  0  0  0  0  0  0  0  0  0
    5.8208    1.0138    0.6585 H   0  0  0  0  0  0  0  0  0  0  0  0
    2.6660    2.0952   -0.1115 C   0  0  0  0  0  0  0  0  0  0  0  0
    2.0787    3.0018   -0.3262 H   0  0  0  0  0  0  0  0  0  0  0  0
    4.0511    2.1664    0.1652 C   0  0  0  0  0  0  0  0  0  0  0  0
    4.5562    3.1428    0.1644 H   0  0  0  0  0  0  0  0  0  0  0  0
   -2.8834    0.7550    0.9078 C   0  0  0  0  0  0  0  0  0  0  0  0
   -2.5526    1.6867    1.3920 H   0  0  0  0  0  0  0  0  0  0  0  0
   -4.1841    0.2879    1.1692 C   0  0  0  0  0  0  0  0  0  0  0  0
   -4.8447    0.8633    1.8387 H   0  0  0  0  0  0  0  0  0  0  0  0
   -1.5479   -1.9795   -1.3916 C   0  0  0  0  0  0  0  0  0  0  0  0
   -1.3080   -1.4031   -2.3131 H   0  0  0  0  0  0  0  0  0  0  0  0
   -2.0248   -2.9269   -1.7020 H   0  0  0  0  0  0  0  0  0  0  0  0
   -6.0427   -1.4250    0.8623 C   0  0  0  0  0  0  0  0  0  0  0  0
   -6.5937   -0.7703    1.5655 H   0  0  0  0  0  0  0  0  0  0  0  0
   -6.0190   -2.4457    1.2986 H   0  0  0  0  0  0  0  0  0  0  0  0
   -6.6380   -1.4925   -0.0729 H   0  0  0  0  0  0  0  0  0  0  0  0
    3.9387   -2.6662    0.6394 C   0  0  0  0  0  0  0  0  0  0  0  0
    4.4211   -3.6351    0.8427 H   0  0  0  0  0  0  0  0  0  0  0  0
   -4.6507   -0.9072    0.5955 C   0  0  0  0  0  0  0  0  0  0  0  0
   -3.7671   -1.6202   -0.2397 C   0  0  0  0  0  0  0  0  0  0  0  0
   -4.1026   -2.5679   -0.6939 H   0  0  0  0  0  0  0  0  0  0  0  0
    2.5553   -2.6600    0.3452 C   0  0  0  0  0  0  0  0  0  0  0  0
    1.9844   -3.5926    0.2986 H   0  0  0  0  0  0  0  0  0  0  0  0
    4.6979   -1.5023    0.6817 C   0  0  0  0  0  0  0  0  0  0  0  0
    5.7731   -1.5246    0.9132 H   0  0  0  0  0  0  0  0  0  0  0  0
   -2.4631   -1.1675   -0.5122 C   0  0  0  0  0  0  0  0  0  0  0  0
  1  5  2  0  0  0  0
  2  3  1  6  0  0  0
  2  4  1  0  0  0  0
  3 11  1  0  0  0  0
  4  9  2  0  0  0  0
  4 33  1  0  0  0  0
  5  7  1  0  0  0  0
  6  2  1  0  0  0  0
  6 31  2  0  0  0  0
  7  6  1  0  0  0  0
  8 15  1  0  0  0  0
  9 10  1  0  0  0  0
 11 13  2  0  0  0  0
 12 11  1  0  0  0  0
 13  9  1  0  0  0  0
 14 13  1  0  0  0  0
 15 17  2  0  0  0  0
 15 16  1  0  0  0  0
 17 18  1  0  0  0  0
 19  5  1  0  0  0  0
 19 35  1  0  0  0  0
 20 19  1  0  0  0  0
 21 19  1  0  0  0  0
 22 24  1  0  0  0  0
 22 23  1  0  0  0  0
 25 22  1  0  0  0  0
 26 33  2  0  0  0  0
 26 27  1  0  0  0  0
 28 22  1  0  0  0  0
 28 17  1  0  0  0  0
 29 28  2  0  0  0  0
 30 29  1  0  0  0  0
 31 26  1  0  0  0  0
 32 31  1  0  0  0  0
 33 34  1  0  0  0  0
 35 29  1  0  0  0  0
 35  8  2  0  0  0  0
M  END
