1,9,15
 OpenBabel05122313063D

 32 34  0  0  1  0  0  0  0  0999 V2000
   -0.4578   -1.3217   -0.2114 N   0  0  0  0  0  2  0  0  0  0  0  0
   -0.3565   -3.6002   -0.6560 O   0  0  0  0  0  0  0  0  0  0  0  0
   -1.8184   -1.2849    0.0868 C   0  0  0  0  0  0  0  0  0  0  0  0
   -2.1310    2.3294   -0.2012 C   0  0  0  0  0  0  0  0  0  0  0  0
   -1.4241    3.1470   -0.4127 H   0  0  0  0  0  0  0  0  0  0  0  0
   -2.4321    0.0205    0.0868 C   0  0  1  0  0  3  0  0  0  0  0  0
    3.7658   -2.1891   -0.0327 C   0  0  0  0  0  0  0  0  0  0  0  0
    3.9970   -3.1790   -0.4584 H   0  0  0  0  0  0  0  0  0  0  0  0
   -1.6221    1.0975   -0.1677 N   0  0  0  0  0  2  0  0  0  0  0  0
   -2.6550   -2.3883    0.3487 C   0  0  0  0  0  0  0  0  0  0  0  0
   -2.2094   -3.3879    0.3389 H   0  0  0  0  0  0  0  0  0  0  0  0
    0.1596   -2.4796   -0.6550 C   0  0  0  0  0  0  0  0  0  0  0  0
   -4.6383   -0.9554    0.5892 C   0  0  0  0  0  0  0  0  0  0  0  0
   -5.7140   -0.8329    0.7836 H   0  0  0  0  0  0  0  0  0  0  0  0
    2.2292   -0.3084    0.1849 C   0  0  0  0  0  3  0  0  0  0  0  0
   -4.0362   -2.2085    0.5948 C   0  0  0  0  0  0  0  0  0  0  0  0
   -4.6470   -3.1017    0.7991 H   0  0  0  0  0  0  0  0  0  0  0  0
   -3.5032    2.5857    0.0256 C   0  0  0  0  0  0  0  0  0  0  0  0
   -3.8766    3.6190   -0.0116 H   0  0  0  0  0  0  0  0  0  0  0  0
   -3.8401    0.1910    0.3299 C   0  0  0  0  0  0  0  0  0  0  0  0
    4.6847   -1.5634    0.8228 C   0  0  0  0  0  0  0  0  0  0  0  0
    5.6369   -2.0589    1.0665 H   0  0  0  0  0  0  0  0  0  0  0  0
    1.5554   -2.2801   -1.2589 C   0  0  0  0  0  0  0  0  0  0  0  0
    1.9156   -3.2869   -1.5382 H   0  0  0  0  0  0  0  0  0  0  0  0
    1.4230   -1.6956   -2.1968 H   0  0  0  0  0  0  0  0  0  0  0  0
   -4.3497    1.5191    0.2937 C   0  0  0  0  0  0  0  0  0  0  0  0
   -5.4227    1.6839    0.4791 H   0  0  0  0  0  0  0  0  0  0  0  0
    4.3740   -0.3118    1.3716 C   0  0  0  0  0  0  0  0  0  0  0  0
    5.0787    0.1861    2.0565 H   0  0  0  0  0  0  0  0  0  0  0  0
    3.1526    0.3086    1.0527 C   0  0  0  0  0  0  0  0  0  0  0  0
    2.9201    1.2838    1.5072 H   0  0  0  0  0  0  0  0  0  0  0  0
    2.5385   -1.5771   -0.3595 C   0  0  0  0  0  0  0  0  0  0  0  0
  1  3  1  0  0  0  0
  2 12  2  0  0  0  0
  3  6  1  0  0  0  0
  3 10  2  0  0  0  0
  4  9  1  0  0  0  0
  4 18  2  0  0  0  0
  5  4  1  0  0  0  0
  6  9  1  6  0  0  0
  6 20  1  0  0  0  0
  7 21  1  0  0  0  0
  8  7  1  0  0  0  0
 10 16  1  0  0  0  0
 11 10  1  0  0  0  0
 12  1  1  0  0  0  0
 13 16  2  0  0  0  0
 13 14  1  0  0  0  0
 15 30  2  0  0  0  0
 16 17  1  0  0  0  0
 18 26  1  0  0  0  0
 19 18  1  0  0  0  0
 20 13  1  0  0  0  0
 21 22  1  0  0  0  0
 21 28  2  0  0  0  0
 23 12  1  0  0  0  0
 23 32  1  0  0  0  0
 24 23  1  0  0  0  0
 25 23  1  0  0  0  0
 26 20  2  0  0  0  0
 26 27  1  0  0  0  0
 28 29  1  0  0  0  0
 30 28  1  0  0  0  0
 30 31  1  0  0  0  0
 32  7  2  0  0  0  0
 32 15  1  0  0  0  0
M  END
