1,2,3
 OpenBabel05122313063D

 29 31  0  0  1  0  0  0  0  0999 V2000
   -0.2769   -1.2561   -0.0000 N   0  0  0  0  0  2  0  0  0  0  0  0
    2.2222   -0.4246   -0.0000 C   0  0  0  0  0  3  0  0  0  0  0  0
   -1.5884    1.0685   -0.0000 N   0  0  0  0  0  2  0  0  0  0  0  0
    2.0220   -1.8289    0.0000 C   0  0  0  0  0  0  0  0  0  0  0  0
   -1.6541   -1.3414   -0.0000 C   0  0  0  0  0  0  0  0  0  0  0  0
   -3.7874   -0.0175    0.0000 C   0  0  0  0  0  0  0  0  0  0  0  0
   -3.8411   -2.4441    0.0000 C   0  0  0  0  0  0  0  0  0  0  0  0
   -4.4114   -3.3861    0.0000 H   0  0  0  0  0  0  0  0  0  0  0  0
   -4.5258   -1.2317    0.0000 C   0  0  0  0  0  0  0  0  0  0  0  0
   -5.6251   -1.1947    0.0000 H   0  0  0  0  0  0  0  0  0  0  0  0
   -2.3504   -0.0760   -0.0000 C   0  0  2  0  0  3  0  0  0  0  0  0
   -2.4302   -2.5182    0.0000 C   0  0  0  0  0  0  0  0  0  0  0  0
   -1.9056   -3.4805    0.0000 H   0  0  0  0  0  0  0  0  0  0  0  0
   -4.3825    1.2760   -0.0000 C   0  0  0  0  0  0  0  0  0  0  0  0
   -5.4808    1.3583   -0.0000 H   0  0  0  0  0  0  0  0  0  0  0  0
   -2.1787    2.2642   -0.0000 C   0  0  0  0  0  0  0  0  0  0  0  0
   -1.5119    3.1408    0.0000 H   0  0  0  0  0  0  0  0  0  0  0  0
   -3.5859    2.4120   -0.0000 C   0  0  0  0  0  0  0  0  0  0  0  0
   -4.0256    3.4196   -0.0000 H   0  0  0  0  0  0  0  0  0  0  0  0
    3.5381    0.0671   -0.0000 C   0  0  0  0  0  0  0  0  0  0  0  0
    3.7334    1.1506   -0.0000 H   0  0  0  0  0  0  0  0  0  0  0  0
    4.4168   -2.2162    0.0000 C   0  0  0  0  0  0  0  0  0  0  0  0
    5.2762   -2.9040    0.0000 H   0  0  0  0  0  0  0  0  0  0  0  0
    3.1079   -2.7184    0.0000 C   0  0  0  0  0  0  0  0  0  0  0  0
    2.8925   -3.7989    0.0000 H   0  0  0  0  0  0  0  0  0  0  0  0
    0.6125   -2.3311   -0.0000 C   0  0  0  0  0  0  0  0  0  0  0  0
    0.2911   -3.5216    0.0000 O   0  0  0  0  0  0  0  0  0  0  0  0
    4.6271   -0.8262   -0.0000 C   0  0  0  0  0  0  0  0  0  0  0  0
    5.6549   -0.4284   -0.0000 H   0  0  0  0  0  0  0  0  0  0  0  0
  1  5  1  0  0  0  0
  1 26  1  0  0  0  0
  2  4  1  0  0  0  0
  3 11  1  0  0  0  0
  4 24  2  0  0  0  0
  5 12  2  0  0  0  0
  6  9  1  0  0  0  0
  7  8  1  0  0  0  0
  9 10  1  0  0  0  0
  9  7  2  0  0  0  0
 11  5  1  6  0  0  0
 11  6  1  0  0  0  0
 12 13  1  0  0  0  0
 12  7  1  0  0  0  0
 14  6  2  0  0  0  0
 15 14  1  0  0  0  0
 16  3  1  0  0  0  0
 16 17  1  0  0  0  0
 18 14  1  0  0  0  0
 18 16  2  0  0  0  0
 19 18  1  0  0  0  0
 20 28  1  0  0  0  0
 20  2  2  0  0  0  0
 21 20  1  0  0  0  0
 22 23  1  0  0  0  0
 22 24  1  0  0  0  0
 24 25  1  0  0  0  0
 26  4  1  0  0  0  0
 26 27  2  0  0  0  0
 28 22  2  0  0  0  0
 29 28  1  0  0  0  0
M  END
