1,13,24
 OpenBabel05122313063D

 52 54  0  0  1  0  0  0  0  0999 V2000
   -2.0791    0.3498   -0.4521 N   0  0  0  0  0  2  0  0  0  0  0  0
   -3.3642   -0.3224   -0.6800 C   0  0  1  0  0  0  0  0  0  0  0  0
   -3.9395   -0.9301    0.6171 C   0  0  0  0  0  0  0  0  0  0  0  0
   -4.1896    0.1164    1.7050 C   0  0  0  0  0  0  0  0  0  0  0  0
   -5.1882   -1.7577    0.2963 C   0  0  0  0  0  0  0  0  0  0  0  0
   -4.2087    0.8213   -1.3262 C   0  0  0  0  0  0  0  0  0  0  0  0
   -3.3817    2.0411   -1.2155 O   0  0  0  0  0  0  0  0  0  0  0  0
   -2.2139    1.6005   -0.7663 C   0  0  2  0  0  3  0  0  0  0  0  0
   -1.0940    2.4125   -0.6571 N   0  0  0  0  0  0  0  0  0  0  0  0
   -0.7957    3.7650   -0.8273 C   0  0  0  0  0  0  0  0  0  0  0  0
    0.5381    3.8884   -0.5367 C   0  0  0  0  0  0  0  0  0  0  0  0
    1.0287    2.6126   -0.2024 N   0  0  0  0  0  0  0  0  0  0  0  0
    0.0347    1.7086   -0.2754 C   0  0  0  0  0  2  0  0  0  0  0  0
    2.3931    2.3100    0.2872 C   0  0  0  0  0  0  0  0  0  0  0  0
    2.5774    3.0047    1.6551 C   0  0  0  0  0  0  0  0  0  0  0  0
    3.4186    2.7931   -0.7587 C   0  0  0  0  0  0  0  0  0  0  0  0
    2.6162    0.8091    0.4998 C   0  0  1  0  0  3  0  0  0  0  0  0
    3.8650    0.5429    0.9324 O   0  0  0  0  0  0  0  0  0  0  0  0
    3.8726   -0.8667    1.3201 C   0  0  0  0  0  0  0  0  0  0  0  0
    2.6162   -1.4502    0.6495 C   0  0  2  0  0  0  0  0  0  0  0  0
    2.8648   -2.2712   -0.6349 C   0  0  0  0  0  0  0  0  0  0  0  0
    3.7123   -1.5310   -1.6723 C   0  0  0  0  0  0  0  0  0  0  0  0
    3.4455   -3.6380   -0.2599 C   0  0  0  0  0  0  0  0  0  0  0  0
    1.8378   -0.2173    0.3666 N   0  0  0  0  0  2  0  0  0  0  0  0
   -3.1831   -1.1442   -1.4036 H   0  0  0  0  0  0  0  0  0  0  0  0
   -3.1402   -1.6186    0.9702 H   0  0  0  0  0  0  0  0  0  0  0  0
   -3.2547    0.6521    1.9663 H   0  0  0  0  0  0  0  0  0  0  0  0
   -4.9658    0.8575    1.4121 H   0  0  0  0  0  0  0  0  0  0  0  0
   -4.5493   -0.3763    2.6302 H   0  0  0  0  0  0  0  0  0  0  0  0
   -4.9732   -2.5432   -0.4569 H   0  0  0  0  0  0  0  0  0  0  0  0
   -5.5652   -2.2614    1.2084 H   0  0  0  0  0  0  0  0  0  0  0  0
   -6.0185   -1.1278   -0.0929 H   0  0  0  0  0  0  0  0  0  0  0  0
   -5.1589    1.0250   -0.7977 H   0  0  0  0  0  0  0  0  0  0  0  0
   -4.4042    0.6684   -2.4047 H   0  0  0  0  0  0  0  0  0  0  0  0
   -1.5386    4.5047   -1.1364 H   0  0  0  0  0  0  0  0  0  0  0  0
    1.1708    4.7795   -0.5451 H   0  0  0  0  0  0  0  0  0  0  0  0
    1.8135    2.6283    2.3645 H   0  0  0  0  0  0  0  0  0  0  0  0
    3.5852    2.7862    2.0525 H   0  0  0  0  0  0  0  0  0  0  0  0
    2.4686    4.1012    1.5451 H   0  0  0  0  0  0  0  0  0  0  0  0
    3.2257    2.3094   -1.7358 H   0  0  0  0  0  0  0  0  0  0  0  0
    3.3606    3.8920   -0.8807 H   0  0  0  0  0  0  0  0  0  0  0  0
    4.4394    2.5342   -0.4245 H   0  0  0  0  0  0  0  0  0  0  0  0
    3.8326   -0.9015    2.4277 H   0  0  0  0  0  0  0  0  0  0  0  0
    4.8226   -1.3076    0.9652 H   0  0  0  0  0  0  0  0  0  0  0  0
    2.0056   -2.0619    1.3433 H   0  0  0  0  0  0  0  0  0  0  0  0
    1.8538   -2.4361   -1.0646 H   0  0  0  0  0  0  0  0  0  0  0  0
    3.2291   -0.5815   -1.9780 H   0  0  0  0  0  0  0  0  0  0  0  0
    4.7419   -1.3166   -1.3118 H   0  0  0  0  0  0  0  0  0  0  0  0
    3.8096   -2.1457   -2.5893 H   0  0  0  0  0  0  0  0  0  0  0  0
    2.7611   -4.1828    0.4215 H   0  0  0  0  0  0  0  0  0  0  0  0
    3.5862   -4.2609   -1.1656 H   0  0  0  0  0  0  0  0  0  0  0  0
    4.4376   -3.5531    0.2359 H   0  0  0  0  0  0  0  0  0  0  0  0
  2 25  1  6  0  0  0
  2  1  1  0  0  0  0
  2  3  1  0  0  0  0
  3 26  1  0  0  0  0
  3  4  1  0  0  0  0
  4 27  1  0  0  0  0
  4 29  1  0  0  0  0
  5  3  1  0  0  0  0
  5 31  1  0  0  0  0
  6  7  1  0  0  0  0
  6 33  1  0  0  0  0
  6  2  1  0  0  0  0
  7  8  1  0  0  0  0
  8  9  1  6  0  0  0
  8  1  1  0  0  0  0
  9 13  1  0  0  0  0
 10  9  1  0  0  0  0
 10 11  2  0  0  0  0
 11 12  1  0  0  0  0
 12 14  1  0  0  0  0
 13 12  1  0  0  0  0
 14 15  1  0  0  0  0
 15 38  1  0  0  0  0
 15 37  1  0  0  0  0
 16 42  1  0  0  0  0
 16 14  1  0  0  0  0
 17 14  1  1  0  0  0
 17 18  1  0  0  0  0
 18 19  1  0  0  0  0
 19 43  1  0  0  0  0
 20 19  1  0  0  0  0
 20 45  1  1  0  0  0
 21 23  1  0  0  0  0
 21 20  1  0  0  0  0
 22 48  1  0  0  0  0
 22 21  1  0  0  0  0
 23 52  1  0  0  0  0
 23 50  1  0  0  0  0
 24 17  1  0  0  0  0
 24 20  1  0  0  0  0
 28  4  1  0  0  0  0
 30  5  1  0  0  0  0
 32  5  1  0  0  0  0
 34  6  1  0  0  0  0
 35 10  1  0  0  0  0
 36 11  1  0  0  0  0
 39 15  1  0  0  0  0
 40 16  1  0  0  0  0
 41 16  1  0  0  0  0
 44 19  1  0  0  0  0
 46 21  1  0  0  0  0
 47 22  1  0  0  0  0
 49 22  1  0  0  0  0
 51 23  1  0  0  0  0
M  END
