1,18,22
 OpenBabel05122313063D

 53 57  0  0  1  0  0  0  0  0999 V2000
   -1.4744    0.6116   -0.0088 N   0  0  0  0  0  2  0  0  0  0  0  0
   -1.5919    1.9698    0.0177 C   0  0  0  0  0  0  0  0  0  0  0  0
   -0.3983    2.7387    0.0086 C   0  0  0  0  0  0  0  0  0  0  0  0
   -0.4686    3.8350    0.0299 H   0  0  0  0  0  0  0  0  0  0  0  0
    0.8506    2.1177   -0.0267 C   0  0  0  0  0  0  0  0  0  0  0  0
    1.7741    2.7124   -0.0336 H   0  0  0  0  0  0  0  0  0  0  0  0
    0.9423    0.6986   -0.0543 C   0  0  0  0  0  0  0  0  0  0  0  0
    2.1724   -0.0679   -0.0923 C   0  0  0  0  0  0  0  0  0  0  0  0
    2.1449   -1.4587   -0.1169 C   0  0  0  0  0  0  0  0  0  0  0  0
    3.0778   -2.0361   -0.1483 H   0  0  0  0  0  0  0  0  0  0  0  0
    0.9039   -2.1839   -0.1051 C   0  0  0  0  0  0  0  0  0  0  0  0
    0.7894   -3.6012   -0.1288 C   0  0  0  0  0  0  0  0  0  0  0  0
    1.6983   -4.2215   -0.1583 H   0  0  0  0  0  0  0  0  0  0  0  0
   -0.4739   -4.1908   -0.1147 C   0  0  0  0  0  0  0  0  0  0  0  0
   -0.5824   -5.2849   -0.1326 H   0  0  0  0  0  0  0  0  0  0  0  0
   -1.6342   -3.3844   -0.0771 C   0  0  0  0  0  0  0  0  0  0  0  0
   -2.6550   -3.8000   -0.0646 H   0  0  0  0  0  0  0  0  0  0  0  0
   -1.5563   -2.0493   -0.0544 N   0  0  0  0  0  2  0  0  0  0  0  0
   -0.3196   -1.4574   -0.0680 C   0  0  0  0  0  0  0  0  0  0  0  0
   -0.2739   -0.0239   -0.0435 C   0  0  0  0  0  0  0  0  0  0  0  0
   -2.9903    2.3882    0.0519 C   0  0  2  0  0  3  0  0  0  0  0  0
   -3.9510    1.3066    0.0509 C   0  0  0  0  0  2  0  0  0  0  0  0
   -5.3182    1.6398    0.0825 C   0  0  0  0  0  0  0  0  0  0  0  0
   -6.0601    0.8272    0.0820 H   0  0  0  0  0  0  0  0  0  0  0  0
   -5.7269    2.9828    0.1140 C   0  0  0  0  0  0  0  0  0  0  0  0
   -6.8022    3.2217    0.1384 H   0  0  0  0  0  0  0  0  0  0  0  0
   -4.7839    4.0300    0.1148 C   0  0  0  0  0  0  0  0  0  0  0  0
   -5.1199    5.0773    0.1396 H   0  0  0  0  0  0  0  0  0  0  0  0
   -3.4177    3.7330    0.0838 C   0  0  0  0  0  0  0  0  0  0  0  0
   -2.6783    4.5495    0.0842 H   0  0  0  0  0  0  0  0  0  0  0  0
    3.2951    0.6842   -0.1012 O   0  0  0  0  0  0  0  0  0  0  0  0
    4.5652    0.0357   -0.1300 C   0  0  0  0  0  0  0  0  0  0  0  0
    4.6586   -0.6055   -1.0345 H   0  0  0  0  0  0  0  0  0  0  0  0
    4.6703   -0.6211    0.7631 H   0  0  0  0  0  0  0  0  0  0  0  0
    5.6384    1.1210   -0.1530 C   0  0  0  0  0  0  0  0  0  0  0  0
    5.4972    1.7188   -1.0767 H   0  0  0  0  0  0  0  0  0  0  0  0
    5.4700    1.8225    0.7061 H   0  0  0  0  0  0  0  0  0  0  0  0
    6.9688    0.5401   -0.1635 N   0  0  0  0  0  0  0  0  0  0  0  0
    7.9612    1.3567   -0.8596 C   0  0  0  0  0  0  0  0  0  0  0  0
    8.1530    2.3219   -0.3127 H   0  0  0  0  0  0  0  0  0  0  0  0
    7.5527    1.6302   -1.8546 H   0  0  0  0  0  0  0  0  0  0  0  0
    9.2821    0.6008   -1.0205 C   0  0  0  0  0  0  0  0  0  0  0  0
    9.1069   -0.2792   -1.6764 H   0  0  0  0  0  0  0  0  0  0  0  0
   10.0205    1.2512   -1.5335 H   0  0  0  0  0  0  0  0  0  0  0  0
    9.8136    0.1314    0.3382 C   0  0  0  0  0  0  0  0  0  0  0  0
   10.0987    1.0193    0.9464 H   0  0  0  0  0  0  0  0  0  0  0  0
   10.7345   -0.4752    0.2141 H   0  0  0  0  0  0  0  0  0  0  0  0
    8.7336   -0.6614    1.0819 C   0  0  0  0  0  0  0  0  0  0  0  0
    8.5299   -1.6121    0.5432 H   0  0  0  0  0  0  0  0  0  0  0  0
    9.0691   -0.9291    2.1052 H   0  0  0  0  0  0  0  0  0  0  0  0
    7.4330    0.1407    1.1645 C   0  0  0  0  0  0  0  0  0  0  0  0
    6.6453   -0.4657    1.6571 H   0  0  0  0  0  0  0  0  0  0  0  0
    7.5926    1.0434    1.8186 H   0  0  0  0  0  0  0  0  0  0  0  0
  1  2  1  0  0  0  0
  3  2  2  0  0  0  0
  3  4  1  0  0  0  0
  5  3  1  0  0  0  0
  6  5  1  0  0  0  0
  7 20  1  0  0  0  0
  7  5  2  0  0  0  0
  8  7  1  0  0  0  0
  9 11  1  0  0  0  0
  9  8  2  0  0  0  0
 10  9  1  0  0  0  0
 11 19  1  0  0  0  0
 12 14  1  0  0  0  0
 12 11  2  0  0  0  0
 13 12  1  0  0  0  0
 14 16  2  0  0  0  0
 15 14  1  0  0  0  0
 16 17  1  0  0  0  0
 16 18  1  0  0  0  0
 19 18  1  0  0  0  0
 19 20  2  0  0  0  0
 20  1  1  0  0  0  0
 21  2  1  6  0  0  0
 21 29  1  0  0  0  0
 22 21  1  0  0  0  0
 22 23  1  0  0  0  0
 23 25  2  0  0  0  0
 24 23  1  0  0  0  0
 25 27  1  0  0  0  0
 25 26  1  0  0  0  0
 27 28  1  0  0  0  0
 29 30  1  0  0  0  0
 29 27  2  0  0  0  0
 31  8  1  0  0  0  0
 32 31  1  0  0  0  0
 32 34  1  0  0  0  0
 33 32  1  0  0  0  0
 35 32  1  0  0  0  0
 35 37  1  0  0  0  0
 36 35  1  0  0  0  0
 38 35  1  0  0  0  0
 38 51  1  0  0  0  0
 39 40  1  0  0  0  0
 39 38  1  0  0  0  0
 41 39  1  0  0  0  0
 42 39  1  0  0  0  0
 42 45  1  0  0  0  0
 43 42  1  0  0  0  0
 44 42  1  0  0  0  0
 45 46  1  0  0  0  0
 45 48  1  0  0  0  0
 47 45  1  0  0  0  0
 48 51  1  0  0  0  0
 48 50  1  0  0  0  0
 49 48  1  0  0  0  0
 51 52  1  0  0  0  0
 51 53  1  0  0  0  0
M  END
