1,2,4
 OpenBabel05122313063D

 22 22  0  0  1  0  0  0  0  0999 V2000
   -1.8553    1.4230    0.0035 N   0  0  0  0  0  2  0  0  0  0  0  0
   -0.0217    2.5916   -0.0956 N   0  0  0  0  0  2  0  0  0  0  0  0
    0.5023    3.4413   -0.3122 H   0  0  0  0  0  0  0  0  0  0  0  0
   -1.7920   -1.1593   -0.0191 C   0  0  0  0  0  3  0  0  0  0  0  0
   -1.7585   -2.5727   -0.0479 C   0  0  0  0  0  0  0  0  0  0  0  0
   -0.7926   -3.0948   -0.0624 H   0  0  0  0  0  0  0  0  0  0  0  0
   -2.9180   -3.3655   -0.0603 C   0  0  0  0  0  0  0  0  0  0  0  0
   -2.8366   -4.4643   -0.0857 H   0  0  0  0  0  0  0  0  0  0  0  0
   -4.1813   -2.7506   -0.0449 C   0  0  0  0  0  0  0  0  0  0  0  0
   -5.0999   -3.3572   -0.0630 H   0  0  0  0  0  0  0  0  0  0  0  0
   -4.2612   -1.3550   -0.0052 C   0  0  0  0  0  0  0  0  0  0  0  0
   -5.2518   -0.8746    0.0063 H   0  0  0  0  0  0  0  0  0  0  0  0
   -3.0912   -0.5634    0.0145 C   0  0  0  0  0  0  0  0  0  0  0  0
   -4.2932    1.6497    0.2657 C   0  0  0  0  0  0  0  0  0  0  0  0
   -4.2975    2.7406    0.3663 H   0  0  0  0  0  0  0  0  0  0  0  0
   -5.2638    1.1435    0.3440 H   0  0  0  0  0  0  0  0  0  0  0  0
   -3.1490    0.9252    0.0898 C   0  0  0  0  0  0  0  0  0  0  0  0
   -2.1272    3.9202   -0.3807 C   0  0  0  0  0  0  0  0  0  0  0  0
   -1.4596    4.7383   -0.7124 H   0  0  0  0  0  0  0  0  0  0  0  0
   -2.6338    4.2396    0.5532 H   0  0  0  0  0  0  0  0  0  0  0  0
   -2.9164    3.7578   -1.1411 H   0  0  0  0  0  0  0  0  0  0  0  0
   -1.3465    2.6559   -0.1485 C   0  0  1  0  0  3  0  0  0  0  0  0
  1 17  1  0  0  0  0
  3  2  1  0  0  0  0
  4 13  1  0  0  0  0
  5  4  2  0  0  0  0
  6  5  1  0  0  0  0
  7  5  1  0  0  0  0
  7  9  2  0  0  0  0
  8  7  1  0  0  0  0
  9 11  1  0  0  0  0
 10  9  1  0  0  0  0
 11 12  1  0  0  0  0
 11 13  2  0  0  0  0
 13 17  1  0  0  0  0
 14 16  1  0  0  0  0
 14 15  1  0  0  0  0
 17 14  2  0  0  0  0
 18 22  1  0  0  0  0
 18 20  1  0  0  0  0
 19 18  1  0  0  0  0
 21 18  1  0  0  0  0
 22  2  1  6  0  0  0
 22  1  1  0  0  0  0
M  END
