1,2,41
 OpenBabel05122313063D

 41 43  0  0  1  0  0  0  0  0999 V2000
    0.3250   -1.2680   -0.3872 N   0  0  0  0  0  0  0  0  0  0  0  0
    1.7589    1.3143    0.0971 N   0  0  0  0  0  0  0  0  0  0  0  0
    2.1413   -0.9364    1.3476 C   0  0  1  0  0  0  0  0  0  0  0  0
    2.0377   -0.5025    2.3596 H   0  0  0  0  0  0  0  0  0  0  0  0
    0.8267   -1.6724    0.9511 C   0  0  0  0  0  0  0  0  0  0  0  0
    1.0094   -2.7749    0.9426 H   0  0  0  0  0  0  0  0  0  0  0  0
    0.0116   -1.4810    1.6734 H   0  0  0  0  0  0  0  0  0  0  0  0
    1.4008   -1.3679   -1.4113 C   0  0  0  0  0  0  0  0  0  0  0  0
    1.0461   -0.8043   -2.2963 H   0  0  0  0  0  0  0  0  0  0  0  0
    1.5100   -2.4349   -1.7185 H   0  0  0  0  0  0  0  0  0  0  0  0
    2.7670   -0.8474   -0.9144 C   0  0  2  0  0  0  0  0  0  0  0  0
    3.2948   -0.3766   -1.7651 H   0  0  0  0  0  0  0  0  0  0  0  0
    3.6427   -1.9621   -0.2747 C   0  0  0  0  0  0  0  0  0  0  0  0
    4.7159   -1.7714   -0.4709 H   0  0  0  0  0  0  0  0  0  0  0  0
    3.4121   -2.9497   -0.7213 H   0  0  0  0  0  0  0  0  0  0  0  0
    3.3350   -1.9092    1.2514 C   0  0  0  0  0  0  0  0  0  0  0  0
    3.1013   -2.9007    1.6853 H   0  0  0  0  0  0  0  0  0  0  0  0
    4.2003   -1.5067    1.8148 H   0  0  0  0  0  0  0  0  0  0  0  0
    2.5875    0.1072    0.2849 C   0  0  1  0  0  0  0  0  0  0  0  0
    3.6080    0.4552    0.5843 H   0  0  0  0  0  0  0  0  0  0  0  0
    1.8232    2.1589    1.3085 C   0  0  0  0  0  0  0  0  0  0  0  0
    2.8684    2.5043    1.4931 H   0  0  0  0  0  0  0  0  0  0  0  0
    1.4667    1.5891    2.1855 H   0  0  0  0  0  0  0  0  0  0  0  0
    1.1436    3.0201    1.1677 H   0  0  0  0  0  0  0  0  0  0  0  0
    2.1932    2.1090   -1.0662 C   0  0  0  0  0  0  0  0  0  0  0  0
    3.2578    2.4313   -0.9656 H   0  0  0  0  0  0  0  0  0  0  0  0
    1.5344    2.9952   -1.1340 H   0  0  0  0  0  0  0  0  0  0  0  0
    2.0756    1.5267   -1.9984 H   0  0  0  0  0  0  0  0  0  0  0  0
   -0.8560   -2.0837   -0.8158 C   0  0  0  0  0  0  0  0  0  0  0  0
   -0.8762   -2.0342   -1.9256 H   0  0  0  0  0  0  0  0  0  0  0  0
   -0.6939   -3.1520   -0.5410 H   0  0  0  0  0  0  0  0  0  0  0  0
   -2.1345   -1.5114   -0.2727 C   0  0  0  0  0  0  0  0  0  0  0  0
   -3.2807   -2.2929   -0.0468 C   0  0  0  0  0  0  0  0  0  0  0  0
   -3.2430   -3.3847   -0.1971 H   0  0  0  0  0  0  0  0  0  0  0  0
   -4.4749   -1.6794    0.3634 C   0  0  0  0  0  0  0  0  0  0  0  0
   -5.3744   -2.2883    0.5415 H   0  0  0  0  0  0  0  0  0  0  0  0
   -4.5119   -0.2874    0.5477 C   0  0  0  0  0  0  0  0  0  0  0  0
   -5.4483    0.1976    0.8671 H   0  0  0  0  0  0  0  0  0  0  0  0
   -3.3635    0.4963    0.3385 C   0  0  0  0  0  0  0  0  0  0  0  0
   -3.3920    1.5846    0.4938 H   0  0  0  0  0  0  0  0  0  0  0  0
   -2.1583   -0.1048   -0.0727 C   0  0  0  0  0  3  0  0  0  0  0  0
  1  5  1  0  0  0  0
  2 19  1  0  0  0  0
  2 21  1  0  0  0  0
  3  4  1  1  0  0  0
  5  3  1  0  0  0  0
  5  7  1  0  0  0  0
  6  5  1  0  0  0  0
  8 11  1  0  0  0  0
  8  1  1  0  0  0  0
  9  8  1  0  0  0  0
 10  8  1  0  0  0  0
 11 12  1  6  0  0  0
 11 13  1  0  0  0  0
 11 19  1  0  0  0  0
 13 16  1  0  0  0  0
 14 13  1  0  0  0  0
 15 13  1  0  0  0  0
 16  3  1  0  0  0  0
 16 17  1  0  0  0  0
 16 18  1  0  0  0  0
 19 20  1  1  0  0  0
 19  3  1  0  0  0  0
 21 22  1  0  0  0  0
 21 23  1  0  0  0  0
 24 21  1  0  0  0  0
 25 26  1  0  0  0  0
 25  2  1  0  0  0  0
 27 25  1  0  0  0  0
 28 25  1  0  0  0  0
 29 31  1  0  0  0  0
 29  1  1  0  0  0  0
 29 32  1  0  0  0  0
 30 29  1  0  0  0  0
 32 41  2  0  0  0  0
 32 33  1  0  0  0  0
 33 35  2  0  0  0  0
 34 33  1  0  0  0  0
 35 36  1  0  0  0  0
 35 37  1  0  0  0  0
 37 38  1  0  0  0  0
 39 40  1  0  0  0  0
 39 37  2  0  0  0  0
 41 39  1  0  0  0  0
M  END
