1,2,4
 OpenBabel05122313063D

 35 38  0  0  1  0  0  0  0  0999 V2000
    0.4658   -1.6939   -0.1931 N   0  0  0  0  0  2  0  0  0  0  0  0
   -0.3755    0.0301    1.5500 N   0  0  0  0  0  0  0  0  0  0  0  0
   -1.0386    0.9289    2.2608 N   0  0  0  0  0  2  0  0  0  0  0  0
    2.2335   -0.2841   -1.5623 C   0  0  0  0  0  3  0  0  0  0  0  0
    3.1433    0.5049   -2.2943 C   0  0  0  0  0  0  0  0  0  0  0  0
    3.3520    1.5369   -1.9705 H   0  0  0  0  0  0  0  0  0  0  0  0
    3.7970   -0.0025   -3.4284 C   0  0  0  0  0  0  0  0  0  0  0  0
    4.5040    0.6347   -3.9832 H   0  0  0  0  0  0  0  0  0  0  0  0
    3.5596   -1.3210   -3.8592 C   0  0  0  0  0  0  0  0  0  0  0  0
    4.0756   -1.7165   -4.7468 H   0  0  0  0  0  0  0  0  0  0  0  0
    2.6645   -2.1299   -3.1503 C   0  0  0  0  0  0  0  0  0  0  0  0
    2.4814   -3.1620   -3.4881 H   0  0  0  0  0  0  0  0  0  0  0  0
    2.0006   -1.6276   -2.0106 C   0  0  0  0  0  0  0  0  0  0  0  0
    1.0327   -2.4115   -1.2310 C   0  0  2  0  0  3  0  0  0  0  0  0
    0.6240   -3.7210   -1.4493 C   0  0  0  0  0  0  0  0  0  0  0  0
    1.0503   -4.3001   -2.2798 H   0  0  0  0  0  0  0  0  0  0  0  0
   -0.3440   -4.3245   -0.6007 C   0  0  0  0  0  0  0  0  0  0  0  0
   -0.7813   -5.6674   -0.7944 C   0  0  0  0  0  0  0  0  0  0  0  0
   -0.3553   -6.2440   -1.6300 H   0  0  0  0  0  0  0  0  0  0  0  0
   -1.7174   -6.2415    0.0536 C   0  0  0  0  0  0  0  0  0  0  0  0
   -2.0442   -7.2798   -0.1093 H   0  0  0  0  0  0  0  0  0  0  0  0
   -2.2412   -5.5002    1.1444 C   0  0  0  0  0  0  0  0  0  0  0  0
   -2.9609   -5.9700    1.8311 H   0  0  0  0  0  0  0  0  0  0  0  0
   -1.8398   -4.1872    1.3565 C   0  0  0  0  0  0  0  0  0  0  0  0
   -2.2289   -3.6317    2.2178 H   0  0  0  0  0  0  0  0  0  0  0  0
   -0.9064   -3.5606    0.4863 C   0  0  0  0  0  0  0  0  0  0  0  0
   -0.4869   -2.1924    0.6342 C   0  0  0  0  0  0  0  0  0  0  0  0
   -1.0138   -1.2016    1.5557 C   0  0  0  0  0  0  0  0  0  0  0  0
   -2.1694   -1.0619    2.3569 C   0  0  0  0  0  0  0  0  0  0  0  0
   -2.9547   -1.7868    2.5832 H   0  0  0  0  0  0  0  0  0  0  0  0
   -2.1276    0.2841    2.7602 C   0  0  0  0  0  0  0  0  0  0  0  0
   -3.1942    1.0382    3.4841 C   0  0  0  0  0  0  0  0  0  0  0  0
   -2.7075    1.9447    4.3548 F   0  0  0  0  0  0  0  0  0  0  0  0
   -3.9955    1.7257    2.6099 F   0  0  0  0  0  0  0  0  0  0  0  0
   -4.0097    0.1937    4.1677 F   0  0  0  0  0  0  0  0  0  0  0  0
  1 27  1  0  0  0  0
  2 28  2  0  0  0  0
  2  3  1  0  0  0  0
  3 31  1  0  0  0  0
  5  6  1  0  0  0  0
  5  4  2  0  0  0  0
  7  5  1  0  0  0  0
  8  7  1  0  0  0  0
  9  7  2  0  0  0  0
  9 11  1  0  0  0  0
 10  9  1  0  0  0  0
 11 13  2  0  0  0  0
 12 11  1  0  0  0  0
 13  4  1  0  0  0  0
 14 13  1  6  0  0  0
 14  1  1  0  0  0  0
 15 14  1  0  0  0  0
 15 17  2  0  0  0  0
 16 15  1  0  0  0  0
 17 26  1  0  0  0  0
 18 17  1  0  0  0  0
 18 20  2  0  0  0  0
 19 18  1  0  0  0  0
 20 22  1  0  0  0  0
 21 20  1  0  0  0  0
 22 24  2  0  0  0  0
 22 23  1  0  0  0  0
 24 25  1  0  0  0  0
 26 27  2  0  0  0  0
 26 24  1  0  0  0  0
 27 28  1  0  0  0  0
 28 29  1  0  0  0  0
 29 30  1  0  0  0  0
 29 31  2  0  0  0  0
 31 32  1  0  0  0  0
 32 35  1  0  0  0  0
 32 33  1  0  0  0  0
 34 32  1  0  0  0  0
M  END
