3,6,9
 OpenBabel05122313063D

 61 65  0  0  1  0  0  0  0  0999 V2000
   -2.3738    4.3409   -0.0033 F   0  0  0  0  0  0  0  0  0  0  0  0
    2.3736    4.3411    0.0029 F   0  0  0  0  0  0  0  0  0  0  0  0
    1.9990   -0.0339    0.0160 N   0  0  0  0  0  2  0  0  0  0  0  0
    3.0534   -0.8095    0.0207 N   0  0  0  0  0  2  0  0  0  0  0  0
    4.1134    0.0164    0.0083 N   0  0  0  0  0  0  0  0  0  0  0  0
   -1.9989   -0.0340   -0.0154 N   0  0  0  0  0  2  0  0  0  0  0  0
   -3.0533   -0.8097   -0.0202 N   0  0  0  0  0  2  0  0  0  0  0  0
   -4.1133    0.0161   -0.0081 N   0  0  0  0  0  0  0  0  0  0  0  0
   -0.0000    1.5643    0.0001 C   0  0  0  0  0  2  0  0  0  0  0  0
   -1.2398    2.2496   -0.0022 C   0  0  1  0  0  3  0  0  0  0  0  0
   -1.2121    3.6526   -0.0018 C   0  0  0  0  0  0  0  0  0  0  0  0
   -0.0001    4.3646   -0.0002 C   0  0  0  0  0  0  0  0  0  0  0  0
   -0.0002    5.4619   -0.0004 H   0  0  0  0  0  0  0  0  0  0  0  0
    1.2119    3.6527    0.0015 C   0  0  0  0  0  0  0  0  0  0  0  0
    1.2397    2.2497    0.0022 C   0  0  0  0  0  0  0  0  0  0  0  0
    2.3564    1.3218    0.0068 C   0  0  0  0  0  0  0  0  0  0  0  0
    3.7421    1.3394   -0.0020 C   0  0  0  0  0  0  0  0  0  0  0  0
    4.4658    2.1571   -0.0271 H   0  0  0  0  0  0  0  0  0  0  0  0
    5.4443   -0.5190   -0.0194 C   0  0  0  0  0  0  0  0  0  0  0  0
    6.2668   -0.3542    1.1148 C   0  0  0  0  0  0  0  0  0  0  0  0
    7.5705   -0.8798    1.0503 C   0  0  0  0  0  0  0  0  0  0  0  0
    8.2289   -0.7672    1.9262 H   0  0  0  0  0  0  0  0  0  0  0  0
    8.0463   -1.5550   -0.0872 C   0  0  0  0  0  0  0  0  0  0  0  0
    7.1803   -1.7064   -1.1884 C   0  0  0  0  0  0  0  0  0  0  0  0
    7.5348   -2.2382   -2.0859 H   0  0  0  0  0  0  0  0  0  0  0  0
    5.8709   -1.2001   -1.1832 C   0  0  0  0  0  0  0  0  0  0  0  0
    5.7668    0.3388    2.3568 C   0  0  0  0  0  0  0  0  0  0  0  0
    6.4278    0.1256    3.2177 H   0  0  0  0  0  0  0  0  0  0  0  0
    4.7400    0.0131    2.6174 H   0  0  0  0  0  0  0  0  0  0  0  0
    5.7316    1.4416    2.2318 H   0  0  0  0  0  0  0  0  0  0  0  0
    9.4430   -2.1207   -0.1331 C   0  0  0  0  0  0  0  0  0  0  0  0
   10.0084   -1.7248   -1.0019 H   0  0  0  0  0  0  0  0  0  0  0  0
    9.4223   -3.2252   -0.2415 H   0  0  0  0  0  0  0  0  0  0  0  0
   10.0136   -1.8808    0.7844 H   0  0  0  0  0  0  0  0  0  0  0  0
    4.9502   -1.3846   -2.3603 C   0  0  0  0  0  0  0  0  0  0  0  0
    5.4991   -1.7846   -3.2331 H   0  0  0  0  0  0  0  0  0  0  0  0
    4.4706   -0.4295   -2.6580 H   0  0  0  0  0  0  0  0  0  0  0  0
    4.1254   -2.0837   -2.1123 H   0  0  0  0  0  0  0  0  0  0  0  0
   -2.3564    1.3217   -0.0066 C   0  0  0  0  0  0  0  0  0  0  0  0
   -3.7421    1.3392    0.0020 C   0  0  0  0  0  0  0  0  0  0  0  0
   -4.4659    2.1569    0.0269 H   0  0  0  0  0  0  0  0  0  0  0  0
   -5.4443   -0.5193    0.0192 C   0  0  0  0  0  0  0  0  0  0  0  0
   -5.8712   -1.2004    1.1828 C   0  0  0  0  0  0  0  0  0  0  0  0
   -7.1805   -1.7071    1.1875 C   0  0  0  0  0  0  0  0  0  0  0  0
   -7.5350   -2.2394    2.0846 H   0  0  0  0  0  0  0  0  0  0  0  0
   -8.0461   -1.5558    0.0860 C   0  0  0  0  0  0  0  0  0  0  0  0
   -7.5698   -0.8809   -1.0515 C   0  0  0  0  0  0  0  0  0  0  0  0
   -8.2276   -0.7692   -1.9280 H   0  0  0  0  0  0  0  0  0  0  0  0
   -6.2661   -0.3550   -1.1155 C   0  0  0  0  0  0  0  0  0  0  0  0
   -4.9508   -1.3851    2.3601 C   0  0  0  0  0  0  0  0  0  0  0  0
   -4.4714   -0.4300    2.6580 H   0  0  0  0  0  0  0  0  0  0  0  0
   -4.1259   -2.0841    2.1123 H   0  0  0  0  0  0  0  0  0  0  0  0
   -5.4999   -1.7852    3.2328 H   0  0  0  0  0  0  0  0  0  0  0  0
   -9.4444   -2.1175    0.1332 C   0  0  0  0  0  0  0  0  0  0  0  0
   -9.9996   -1.9163   -0.8028 H   0  0  0  0  0  0  0  0  0  0  0  0
  -10.0230   -1.6820    0.9742 H   0  0  0  0  0  0  0  0  0  0  0  0
   -9.4286   -3.2159    0.2911 H   0  0  0  0  0  0  0  0  0  0  0  0
   -5.7655    0.3373   -2.3576 C   0  0  0  0  0  0  0  0  0  0  0  0
   -6.4262    0.1237   -3.2187 H   0  0  0  0  0  0  0  0  0  0  0  0
   -4.7386    0.0112   -2.6176 H   0  0  0  0  0  0  0  0  0  0  0  0
   -5.7302    1.4401   -2.2332 H   0  0  0  0  0  0  0  0  0  0  0  0
  1 11  1  0  0  0  0
  3  4  1  0  0  0  0
  5  4  1  0  0  0  0
  6 39  1  0  0  0  0
  7  6  1  0  0  0  0
  7  8  1  0  0  0  0
  8 40  1  0  0  0  0
  8 42  1  0  0  0  0
  9 15  1  0  0  0  0
 10 39  1  6  0  0  0
 10 11  1  0  0  0  0
 10  9  1  0  0  0  0
 11 12  2  0  0  0  0
 12 14  1  0  0  0  0
 13 12  1  0  0  0  0
 14 15  2  0  0  0  0
 14  2  1  0  0  0  0
 15 16  1  0  0  0  0
 16  3  1  0  0  0  0
 17 16  2  0  0  0  0
 17  5  1  0  0  0  0
 18 17  1  0  0  0  0
 19  5  1  0  0  0  0
 19 20  1  0  0  0  0
 20 27  1  0  0  0  0
 21 20  2  0  0  0  0
 21 22  1  0  0  0  0
 23 21  1  0  0  0  0
 24 26  1  0  0  0  0
 24 23  2  0  0  0  0
 25 24  1  0  0  0  0
 26 19  2  0  0  0  0
 27 29  1  0  0  0  0
 27 28  1  0  0  0  0
 30 27  1  0  0  0  0
 31 23  1  0  0  0  0
 31 34  1  0  0  0  0
 32 31  1  0  0  0  0
 33 31  1  0  0  0  0
 35 38  1  0  0  0  0
 35 26  1  0  0  0  0
 36 35  1  0  0  0  0
 37 35  1  0  0  0  0
 39 40  2  0  0  0  0
 40 41  1  0  0  0  0
 42 43  1  0  0  0  0
 43 44  2  0  0  0  0
 43 50  1  0  0  0  0
 44 45  1  0  0  0  0
 46 54  1  0  0  0  0
 46 44  1  0  0  0  0
 47 46  2  0  0  0  0
 48 47  1  0  0  0  0
 49 47  1  0  0  0  0
 49 42  2  0  0  0  0
 50 51  1  0  0  0  0
 50 53  1  0  0  0  0
 52 50  1  0  0  0  0
 54 57  1  0  0  0  0
 54 56  1  0  0  0  0
 55 54  1  0  0  0  0
 58 61  1  0  0  0  0
 58 49  1  0  0  0  0
 59 58  1  0  0  0  0
 60 58  1  0  0  0  0
M  END
