2,3,4
 OpenBabel05122313063D

 53 55  0  0  1  0  0  0  0  0999 V2000
    2.2376    2.0614   -0.3993 Si  0  0  0  0  0  0  0  0  0  0  0  0
    0.5465    1.6359   -0.1325 N   0  0  0  0  0  2  0  0  0  0  0  0
   -1.7094    0.3918    0.3207 N   0  0  0  0  0  2  0  0  0  0  0  0
    2.7936    0.2562   -0.3361 C   0  0  1  0  0  3  0  0  0  0  0  0
    2.8729   -0.5084    0.8875 C   0  0  0  0  0  0  0  0  0  0  0  0
    3.3795   -0.0110    2.2113 C   0  0  0  0  0  0  0  0  0  0  0  0
    4.4856   -0.1163    2.2438 H   0  0  0  0  0  0  0  0  0  0  0  0
    3.1583    1.0559    2.3822 H   0  0  0  0  0  0  0  0  0  0  0  0
    2.9808   -0.5882    3.0665 H   0  0  0  0  0  0  0  0  0  0  0  0
    2.6356   -1.8841    0.5797 C   0  0  0  0  0  0  0  0  0  0  0  0
    2.7215   -3.0620    1.5017 C   0  0  0  0  0  0  0  0  0  0  0  0
    3.5721   -3.7188    1.2182 H   0  0  0  0  0  0  0  0  0  0  0  0
    2.8732   -2.7609    2.5548 H   0  0  0  0  0  0  0  0  0  0  0  0
    1.7981   -3.6745    1.4457 H   0  0  0  0  0  0  0  0  0  0  0  0
    2.4326   -1.9958   -0.8333 C   0  0  0  0  0  0  0  0  0  0  0  0
    2.3065   -3.3102   -1.5417 C   0  0  0  0  0  0  0  0  0  0  0  0
    3.2224   -3.9206   -1.3877 H   0  0  0  0  0  0  0  0  0  0  0  0
    1.4526   -3.8951   -1.1425 H   0  0  0  0  0  0  0  0  0  0  0  0
    2.1681   -3.1930   -2.6320 H   0  0  0  0  0  0  0  0  0  0  0  0
    2.5372   -0.6864   -1.4017 C   0  0  0  0  0  0  0  0  0  0  0  0
    2.6325   -0.3924   -2.8724 C   0  0  0  0  0  0  0  0  0  0  0  0
    3.7007   -0.3692   -3.1779 H   0  0  0  0  0  0  0  0  0  0  0  0
    2.1403   -1.1649   -3.4920 H   0  0  0  0  0  0  0  0  0  0  0  0
    2.2064    0.5884   -3.1457 H   0  0  0  0  0  0  0  0  0  0  0  0
    2.5428    2.9414   -2.0507 C   0  0  0  0  0  0  0  0  0  0  0  0
    2.3917    4.0331   -1.9273 H   0  0  0  0  0  0  0  0  0  0  0  0
    3.5816    2.7819   -2.4063 H   0  0  0  0  0  0  0  0  0  0  0  0
    1.8468    2.6002   -2.8415 H   0  0  0  0  0  0  0  0  0  0  0  0
    2.9628    3.1766    0.9522 C   0  0  0  0  0  0  0  0  0  0  0  0
    2.7628    4.2399    0.7094 H   0  0  0  0  0  0  0  0  0  0  0  0
    2.5157    2.9764    1.9452 H   0  0  0  0  0  0  0  0  0  0  0  0
    4.0623    3.0500    1.0298 H   0  0  0  0  0  0  0  0  0  0  0  0
   -0.5574    2.4685    0.0069 C   0  0  0  0  0  0  0  0  0  0  0  0
   -1.7957    1.7842    0.2473 C   0  0  0  0  0  0  0  0  0  0  0  0
   -2.9694    2.5555    0.4327 C   0  0  0  0  0  0  0  0  0  0  0  0
   -3.9223    2.0464    0.6361 H   0  0  0  0  0  0  0  0  0  0  0  0
   -2.9234    3.9564    0.3659 C   0  0  0  0  0  0  0  0  0  0  0  0
   -3.8490    4.5332    0.5161 H   0  0  0  0  0  0  0  0  0  0  0  0
   -1.7115    4.6243    0.1173 C   0  0  0  0  0  0  0  0  0  0  0  0
   -1.6804    5.7228    0.0626 H   0  0  0  0  0  0  0  0  0  0  0  0
   -0.5354    3.8781   -0.0571 C   0  0  0  0  0  0  0  0  0  0  0  0
    0.4203    4.3908   -0.2484 H   0  0  0  0  0  0  0  0  0  0  0  0
   -2.9263   -0.3222    0.1888 C   0  0  0  0  0  0  0  0  0  0  0  0
   -3.7435   -0.1597   -0.9624 C   0  0  0  0  0  0  0  0  0  0  0  0
   -3.4603    0.5960   -1.7112 H   0  0  0  0  0  0  0  0  0  0  0  0
   -4.9099   -0.9169   -1.1406 C   0  0  0  0  0  0  0  0  0  0  0  0
   -5.5186   -0.7701   -2.0466 H   0  0  0  0  0  0  0  0  0  0  0  0
   -5.3031   -1.8536   -0.1715 C   0  0  0  0  0  0  0  0  0  0  0  0
   -6.2173   -2.4498   -0.3102 H   0  0  0  0  0  0  0  0  0  0  0  0
   -4.5187   -2.0121    0.9821 C   0  0  0  0  0  0  0  0  0  0  0  0
   -4.8178   -2.7350    1.7566 H   0  0  0  0  0  0  0  0  0  0  0  0
   -3.3528   -1.2566    1.1615 C   0  0  0  0  0  0  0  0  0  0  0  0
   -2.7526   -1.3991    2.0716 H   0  0  0  0  0  0  0  0  0  0  0  0
  1  2  1  0  0  0  0
  1 29  1  0  0  0  0
  2 33  1  0  0  0  0
  4  1  1  1  0  0  0
  4  5  1  0  0  0  0
  5  6  1  0  0  0  0
  6  7  1  0  0  0  0
  6  8  1  0  0  0  0
  6  9  1  0  0  0  0
 10  5  2  0  0  0  0
 10 11  1  0  0  0  0
 11 13  1  0  0  0  0
 12 11  1  0  0  0  0
 14 11  1  0  0  0  0
 15 10  1  0  0  0  0
 16 17  1  0  0  0  0
 16 18  1  0  0  0  0
 16 15  1  0  0  0  0
 19 16  1  0  0  0  0
 20 15  2  0  0  0  0
 20  4  1  0  0  0  0
 21 20  1  0  0  0  0
 22 21  1  0  0  0  0
 23 21  1  0  0  0  0
 24 21  1  0  0  0  0
 25 26  1  0  0  0  0
 25  1  1  0  0  0  0
 27 25  1  0  0  0  0
 28 25  1  0  0  0  0
 29 32  1  0  0  0  0
 29 31  1  0  0  0  0
 30 29  1  0  0  0  0
 33 34  1  0  0  0  0
 34  3  1  0  0  0  0
 34 35  2  0  0  0  0
 35 36  1  0  0  0  0
 37 35  1  0  0  0  0
 37 38  1  0  0  0  0
 39 37  2  0  0  0  0
 40 39  1  0  0  0  0
 41 33  2  0  0  0  0
 41 39  1  0  0  0  0
 42 41  1  0  0  0  0
 43  3  1  0  0  0  0
 43 52  1  0  0  0  0
 44 43  2  0  0  0  0
 45 44  1  0  0  0  0
 46 44  1  0  0  0  0
 46 48  2  0  0  0  0
 47 46  1  0  0  0  0
 48 50  1  0  0  0  0
 49 48  1  0  0  0  0
 50 52  2  0  0  0  0
 50 51  1  0  0  0  0
 52 53  1  0  0  0  0
M  END
