1,2,3
 OpenBabel05122313063D

 46 50  0  0  1  0  0  0  0  0999 V2000
   -3.2227   -0.6508    0.0566 N   0  0  0  0  0  2  0  0  0  0  0  0
    0.7405    0.0615   -0.1650 N   0  0  0  0  0  2  0  0  0  0  0  0
   -1.5190    1.2707    0.0048 C   0  0  0  0  0  2  0  0  0  0  0  0
   -2.8585    1.7181    0.0990 C   0  0  0  0  0  0  0  0  0  0  0  0
   -3.0944    3.1073    0.1518 C   0  0  0  0  0  0  0  0  0  0  0  0
   -4.1173    3.5094    0.2253 H   0  0  0  0  0  0  0  0  0  0  0  0
   -2.0036    3.9981    0.1098 C   0  0  0  0  0  0  0  0  0  0  0  0
   -2.1949    5.0805    0.1512 H   0  0  0  0  0  0  0  0  0  0  0  0
   -0.6728    3.5401    0.0162 C   0  0  0  0  0  0  0  0  0  0  0  0
    0.1488    4.2735   -0.0136 H   0  0  0  0  0  0  0  0  0  0  0  0
   -0.4152    2.1562   -0.0376 C   0  0  0  0  0  0  0  0  0  0  0  0
   -3.8131    0.6054    0.1269 C   0  0  0  0  0  0  0  0  0  0  0  0
   -5.2127    0.7048    0.2151 C   0  0  0  0  0  0  0  0  0  0  0  0
   -5.6736    1.7010    0.2706 H   0  0  0  0  0  0  0  0  0  0  0  0
   -5.9992   -0.4520    0.2314 C   0  0  0  0  0  0  0  0  0  0  0  0
   -7.0946   -0.3745    0.3005 H   0  0  0  0  0  0  0  0  0  0  0  0
   -5.3756   -1.7089    0.1588 C   0  0  0  0  0  0  0  0  0  0  0  0
   -5.9571   -2.6412    0.1686 H   0  0  0  0  0  0  0  0  0  0  0  0
   -3.9818   -1.7674    0.0722 C   0  0  0  0  0  3  0  0  0  0  0  0
   -3.4107   -2.7092    0.0115 H   0  0  0  0  0  0  0  0  0  0  0  0
    0.8640    1.4424   -0.1335 C   0  0  0  0  0  0  0  0  0  0  0  0
    2.1431    2.0219   -0.1889 C   0  0  0  0  0  0  0  0  0  0  0  0
    2.2325    3.1181   -0.1561 H   0  0  0  0  0  0  0  0  0  0  0  0
    3.2860    1.2199   -0.2772 C   0  0  0  0  0  0  0  0  0  0  0  0
    3.1260   -0.1905   -0.3157 C   0  0  0  0  0  0  0  0  0  0  0  0
    1.8371   -0.7231   -0.2528 C   0  0  0  0  0  0  0  0  0  0  0  0
    1.6301   -1.8067   -0.2710 H   0  0  0  0  0  0  0  0  0  0  0  0
    4.6984    1.7701   -0.3102 C   0  0  0  0  0  0  0  0  0  0  0  0
    4.8806    2.3783    0.6027 H   0  0  0  0  0  0  0  0  0  0  0  0
    4.8060    2.4703   -1.1675 H   0  0  0  0  0  0  0  0  0  0  0  0
    5.7256    0.6325   -0.4270 C   0  0  2  0  0  0  0  0  0  0  0  0
    6.7606    1.0296   -0.4735 H   0  0  0  0  0  0  0  0  0  0  0  0
    5.2626   -0.3574   -1.5303 C   0  0  0  0  0  0  0  0  0  0  0  0
    6.0730   -1.0209   -1.8814 H   0  0  0  0  0  0  0  0  0  0  0  0
    4.7333    0.0629   -2.4091 H   0  0  0  0  0  0  0  0  0  0  0  0
    4.3780   -1.0172   -0.4292 C   0  0  1  0  0  0  0  0  0  0  0  0
    4.1656   -2.1036   -0.4749 H   0  0  0  0  0  0  0  0  0  0  0  0
    5.4431   -0.5060    0.6237 C   0  0  0  0  0  0  0  0  0  0  0  0
    4.9631   -0.1216    2.0220 C   0  0  0  0  0  0  0  0  0  0  0  0
    4.0819    0.5471    2.0181 H   0  0  0  0  0  0  0  0  0  0  0  0
    5.7753    0.3872    2.5822 H   0  0  0  0  0  0  0  0  0  0  0  0
    4.6824   -1.0292    2.5954 H   0  0  0  0  0  0  0  0  0  0  0  0
    6.6250   -1.4740    0.7534 C   0  0  0  0  0  0  0  0  0  0  0  0
    6.3213   -2.3829    1.3124 H   0  0  0  0  0  0  0  0  0  0  0  0
    7.4532   -0.9955    1.3163 H   0  0  0  0  0  0  0  0  0  0  0  0
    7.0305   -1.8013   -0.2231 H   0  0  0  0  0  0  0  0  0  0  0  0
  1 19  1  0  0  0  0
  1 12  1  0  0  0  0
  2 21  1  0  0  0  0
  3  4  1  0  0  0  0
  4 12  1  0  0  0  0
  4  5  2  0  0  0  0
  5  6  1  0  0  0  0
  7  8  1  0  0  0  0
  7  5  1  0  0  0  0
  9  7  2  0  0  0  0
 10  9  1  0  0  0  0
 11  3  1  0  0  0  0
 11  9  1  0  0  0  0
 12 13  2  0  0  0  0
 13 15  1  0  0  0  0
 13 14  1  0  0  0  0
 15 16  1  0  0  0  0
 17 18  1  0  0  0  0
 17 15  2  0  0  0  0
 19 17  1  0  0  0  0
 20 19  1  0  0  0  0
 21 11  2  0  0  0  0
 22 23  1  0  0  0  0
 22 21  1  0  0  0  0
 24 22  2  0  0  0  0
 25 24  1  0  0  0  0
 25 26  2  0  0  0  0
 26  2  1  0  0  0  0
 27 26  1  0  0  0  0
 28 24  1  0  0  0  0
 28 29  1  0  0  0  0
 30 28  1  0  0  0  0
 31 32  1  6  0  0  0
 31 28  1  0  0  0  0
 31 38  1  0  0  0  0
 33 36  1  0  0  0  0
 33 31  1  0  0  0  0
 34 33  1  0  0  0  0
 35 33  1  0  0  0  0
 36 37  1  6  0  0  0
 36 25  1  0  0  0  0
 36 38  1  0  0  0  0
 38 43  1  0  0  0  0
 38 39  1  0  0  0  0
 39 41  1  0  0  0  0
 39 42  1  0  0  0  0
 40 39  1  0  0  0  0
 43 44  1  0  0  0  0
 43 45  1  0  0  0  0
 46 43  1  0  0  0  0
M  END
