1,2,3
 OpenBabel05122313063D

 29 31  0  0  1  0  0  0  0  0999 V2000
   -1.5719    0.9517   -0.0003 N   0  0  0  0  0  2  0  0  0  0  0  0
    0.0082   -1.2039   -0.0004 N   0  0  0  0  0  2  0  0  0  0  0  0
    2.3738    0.0005   -0.0002 C   0  0  0  0  0  2  0  0  0  0  0  0
    3.6374    0.6147   -0.0001 C   0  0  0  0  0  0  0  0  0  0  0  0
    3.6965    1.7127   -0.0004 H   0  0  0  0  0  0  0  0  0  0  0  0
    4.8114   -0.1597    0.0003 C   0  0  0  0  0  0  0  0  0  0  0  0
    5.7909    0.3451    0.0003 H   0  0  0  0  0  0  0  0  0  0  0  0
    4.7628   -1.5698    0.0007 C   0  0  0  0  0  0  0  0  0  0  0  0
    5.6945   -2.1549    0.0010 H   0  0  0  0  0  0  0  0  0  0  0  0
    3.5255   -2.2160    0.0007 C   0  0  0  0  0  0  0  0  0  0  0  0
    3.4684   -3.3164    0.0010 H   0  0  0  0  0  0  0  0  0  0  0  0
    2.3338   -1.4481    0.0002 C   0  0  0  0  0  0  0  0  0  0  0  0
    1.0228   -2.0443    0.0003 C   0  0  0  0  0  0  0  0  0  0  0  0
    0.8793   -3.1422    0.0010 H   0  0  0  0  0  0  0  0  0  0  0  0
   -1.3609   -1.4629   -0.0003 C   0  0  0  0  0  0  0  0  0  0  0  0
   -1.9732   -2.7208   -0.0004 C   0  0  0  0  0  0  0  0  0  0  0  0
   -1.3568   -3.6310   -0.0008 H   0  0  0  0  0  0  0  0  0  0  0  0
   -3.3833   -2.8324   -0.0001 C   0  0  0  0  0  0  0  0  0  0  0  0
   -3.8390   -3.8338   -0.0002 H   0  0  0  0  0  0  0  0  0  0  0  0
   -4.1962   -1.7043    0.0003 C   0  0  0  0  0  0  0  0  0  0  0  0
   -5.2921   -1.8008    0.0006 H   0  0  0  0  0  0  0  0  0  0  0  0
   -3.6172   -0.4029    0.0003 C   0  0  0  0  0  0  0  0  0  0  0  0
   -2.1886   -0.2805   -0.0001 C   0  0  1  0  0  3  0  0  0  0  0  0
   -2.3085    2.0619    0.0000 C   0  0  0  0  0  0  0  0  0  0  0  0
   -1.7409    3.0072   -0.0002 H   0  0  0  0  0  0  0  0  0  0  0  0
   -3.7254    2.0275    0.0006 C   0  0  0  0  0  0  0  0  0  0  0  0
   -4.2867    2.9727    0.0009 H   0  0  0  0  0  0  0  0  0  0  0  0
   -4.3766    0.8037    0.0007 C   0  0  0  0  0  0  0  0  0  0  0  0
   -5.4760    0.7461    0.0011 H   0  0  0  0  0  0  0  0  0  0  0  0
  1 24  1  0  0  0  0
  2 15  1  0  0  0  0
  2 13  1  0  0  0  0
  3  4  1  0  0  0  0
  3 12  1  0  0  0  0
  4  6  2  0  0  0  0
  5  4  1  0  0  0  0
  6  7  1  0  0  0  0
  6  8  1  0  0  0  0
  8  9  1  0  0  0  0
 10  8  2  0  0  0  0
 10 11  1  0  0  0  0
 12 13  2  0  0  0  0
 12 10  1  0  0  0  0
 13 14  1  0  0  0  0
 15 23  1  0  0  0  0
 16 15  2  0  0  0  0
 16 18  1  0  0  0  0
 17 16  1  0  0  0  0
 18 20  2  0  0  0  0
 19 18  1  0  0  0  0
 20 22  1  0  0  0  0
 20 21  1  0  0  0  0
 22 28  2  0  0  0  0
 23  1  1  1  0  0  0
 23 22  1  0  0  0  0
 24 26  2  0  0  0  0
 25 24  1  0  0  0  0
 26 28  1  0  0  0  0
 26 27  1  0  0  0  0
 28 29  1  0  0  0  0
M  END
