1,2,6
 OpenBabel05122313063D

 32 34  0  0  0  0  0  0  0  0999 V2000
    0.6488    0.4758   -1.9757 N   0  0  0  0  0  2  0  0  0  0  0  0
    2.4460   -0.1679   -0.2031 N   0  0  0  0  0  2  0  0  0  0  0  0
    4.4081   -0.6898    0.9242 O   0  0  0  0  0  0  0  0  0  0  0  0
    1.9523    0.5495   -2.3946 C   0  0  0  0  0  0  0  0  0  0  0  0
    2.9586    0.1999   -1.4244 C   0  0  0  0  0  0  0  0  0  0  0  0
    0.8742   -0.6403    1.7725 C   0  0  0  0  0  3  0  0  0  0  0  0
   -0.3345    0.8039   -2.8121 C   0  0  0  0  0  0  0  0  0  0  0  0
   -1.3582    0.7399   -2.4179 H   0  0  0  0  0  0  0  0  0  0  0  0
    3.1746   -0.5721    0.9079 C   0  0  0  0  0  0  0  0  0  0  0  0
    2.2490   -0.8493    2.0455 C   0  0  0  0  0  0  0  0  0  0  0  0
    2.3029    0.9584   -3.7248 C   0  0  0  0  0  0  0  0  0  0  0  0
   -0.0817    1.2225   -4.1407 C   0  0  0  0  0  0  0  0  0  0  0  0
   -0.9287    1.4840   -4.7908 H   0  0  0  0  0  0  0  0  0  0  0  0
   -0.0774   -0.8316    2.7834 C   0  0  0  0  0  0  0  0  0  0  0  0
   -1.1456   -0.6517    2.5938 H   0  0  0  0  0  0  0  0  0  0  0  0
    3.6785    1.0039   -4.0820 C   0  0  0  0  0  3  0  0  0  0  0  0
    3.9622    1.3145   -5.0984 H   0  0  0  0  0  0  0  0  0  0  0  0
    1.2272    1.2968   -4.5955 C   0  0  0  0  0  0  0  0  0  0  0  0
    1.4501    1.6193   -5.6246 H   0  0  0  0  0  0  0  0  0  0  0  0
    1.7085   -1.4807    4.3160 C   0  0  0  0  0  0  0  0  0  0  0  0
    2.0242   -1.8147    5.3172 H   0  0  0  0  0  0  0  0  0  0  0  0
    2.6902   -1.2823    3.3253 C   0  0  0  0  0  0  0  0  0  0  0  0
    4.3103    0.2574   -1.8220 C   0  0  0  0  0  0  0  0  0  0  0  0
    5.0780   -0.0129   -1.0881 H   0  0  0  0  0  0  0  0  0  0  0  0
    0.3482   -1.2562    4.0538 C   0  0  0  0  0  0  0  0  0  0  0  0
   -0.3938   -1.4133    4.8532 H   0  0  0  0  0  0  0  0  0  0  0  0
    4.1437   -1.5236    3.6405 C   0  0  0  0  0  0  0  0  0  0  0  0
    4.5853   -2.2797    2.9616 H   0  0  0  0  0  0  0  0  0  0  0  0
    4.2657   -1.8605    4.6888 H   0  0  0  0  0  0  0  0  0  0  0  0
    4.7497   -0.6103    3.4782 H   0  0  0  0  0  0  0  0  0  0  0  0
    4.6418    0.6561   -3.1373 C   0  0  0  0  0  0  0  0  0  0  0  0
    5.7065    0.6927   -3.4166 H   0  0  0  0  0  0  0  0  0  0  0  0
  2  9  1  0  0  0  0
  4  1  1  0  0  0  0
  4  5  2  0  0  0  0
  5  2  1  0  0  0  0
  6 10  2  0  0  0  0
  6 14  1  0  0  0  0
  7  8  1  0  0  0  0
  7  1  1  0  0  0  0
  9  3  2  0  0  0  0
  9 10  1  0  0  0  0
 10 22  1  0  0  0  0
 11  4  1  0  0  0  0
 12  7  2  0  0  0  0
 13 12  1  0  0  0  0
 14 25  2  0  0  0  0
 15 14  1  0  0  0  0
 16 11  1  0  0  0  0
 16 31  1  0  0  0  0
 17 16  1  0  0  0  0
 18 12  1  0  0  0  0
 18 11  2  0  0  0  0
 19 18  1  0  0  0  0
 20 21  1  0  0  0  0
 22 27  1  0  0  0  0
 22 20  2  0  0  0  0
 23  5  1  0  0  0  0
 23 24  1  0  0  0  0
 25 20  1  0  0  0  0
 25 26  1  0  0  0  0
 27 29  1  0  0  0  0
 28 27  1  0  0  0  0
 30 27  1  0  0  0  0
 31 23  2  0  0  0  0
 32 31  1  0  0  0  0
M  END
