2,3,4
 OpenBabel05122313063D

 33 33  0  0  0  0  0  0  0  0999 V2000
    5.2630    0.0000   -0.0000 I   0  0  0  0  0  0  0  0  0  0  0  0
   -1.2666   -2.1045    0.0340 N   0  0  0  0  0  0  0  0  0  0  0  0
   -1.2667    2.1045   -0.0338 N   0  0  0  0  0  0  0  0  0  0  0  0
    0.3685    0.0000   -0.0000 C   0  0  0  0  0  3  0  0  0  0  0  0
    1.0522   -1.2148   -0.1939 C   0  0  0  0  0  0  0  0  0  0  0  0
    2.4566   -1.2231   -0.1817 C   0  0  0  0  0  0  0  0  0  0  0  0
    3.0252   -2.1543   -0.3250 H   0  0  0  0  0  0  0  0  0  0  0  0
    3.1351    0.0000   -0.0000 C   0  0  0  0  0  0  0  0  0  0  0  0
    2.4566    1.2232    0.1816 C   0  0  0  0  0  0  0  0  0  0  0  0
    3.0252    2.1543    0.3248 H   0  0  0  0  0  0  0  0  0  0  0  0
    1.0522    1.2149    0.1938 C   0  0  0  0  0  0  0  0  0  0  0  0
    0.1335   -2.3719   -0.4994 C   0  0  0  0  0  0  0  0  0  0  0  0
    0.4902   -3.3516   -0.1110 H   0  0  0  0  0  0  0  0  0  0  0  0
    0.0285   -2.4727   -1.5998 H   0  0  0  0  0  0  0  0  0  0  0  0
   -1.3505   -2.5211    1.4589 C   0  0  0  0  0  0  0  0  0  0  0  0
   -2.3450   -2.2435    1.8529 H   0  0  0  0  0  0  0  0  0  0  0  0
   -0.5711   -1.9949    2.0387 H   0  0  0  0  0  0  0  0  0  0  0  0
   -1.2022   -3.6215    1.5421 H   0  0  0  0  0  0  0  0  0  0  0  0
   -2.2604   -2.8615   -0.7643 C   0  0  0  0  0  0  0  0  0  0  0  0
   -2.0521   -3.9527   -0.6993 H   0  0  0  0  0  0  0  0  0  0  0  0
   -2.2077   -2.5300   -1.8170 H   0  0  0  0  0  0  0  0  0  0  0  0
   -3.2717   -2.6297   -0.3821 H   0  0  0  0  0  0  0  0  0  0  0  0
    0.1336    2.3720    0.4993 C   0  0  0  0  0  0  0  0  0  0  0  0
    0.4902    3.3516    0.1105 H   0  0  0  0  0  0  0  0  0  0  0  0
    0.0288    2.4731    1.5996 H   0  0  0  0  0  0  0  0  0  0  0  0
   -1.3510    2.5212   -1.4587 C   0  0  0  0  0  0  0  0  0  0  0  0
   -2.3456    2.2436   -1.8525 H   0  0  0  0  0  0  0  0  0  0  0  0
   -0.5717    1.9951   -2.0388 H   0  0  0  0  0  0  0  0  0  0  0  0
   -1.2028    3.6216   -1.5419 H   0  0  0  0  0  0  0  0  0  0  0  0
   -2.2604    2.8613    0.7648 C   0  0  0  0  0  0  0  0  0  0  0  0
   -2.0522    3.9524    0.6999 H   0  0  0  0  0  0  0  0  0  0  0  0
   -2.2074    2.5297    1.8174 H   0  0  0  0  0  0  0  0  0  0  0  0
   -3.2717    2.6294    0.3827 H   0  0  0  0  0  0  0  0  0  0  0  0
  2 15  1  0  0  0  0
  3 23  1  0  0  0  0
  3 30  1  0  0  0  0
  4 11  1  0  0  0  0
  5  6  1  0  0  0  0
  5  4  2  0  0  0  0
  6  8  2  0  0  0  0
  7  6  1  0  0  0  0
  8  1  1  0  0  0  0
  8  9  1  0  0  0  0
  9 11  2  0  0  0  0
  9 10  1  0  0  0  0
 11 23  1  0  0  0  0
 12  5  1  0  0  0  0
 12 13  1  0  0  0  0
 12  2  1  0  0  0  0
 14 12  1  0  0  0  0
 15 18  1  0  0  0  0
 15 16  1  0  0  0  0
 15 17  1  0  0  0  0
 19 20  1  0  0  0  0
 19 22  1  0  0  0  0
 19  2  1  0  0  0  0
 21 19  1  0  0  0  0
 23 25  1  0  0  0  0
 24 23  1  0  0  0  0
 26  3  1  0  0  0  0
 27 26  1  0  0  0  0
 28 26  1  0  0  0  0
 29 26  1  0  0  0  0
 30 32  1  0  0  0  0
 31 30  1  0  0  0  0
 33 30  1  0  0  0  0
M  END
