1,3,4
 OpenBabel05122313063D

 48 50  0  0  0  0  0  0  0  0999 V2000
   -0.2453    0.5071   -0.0475 N   0  0  0  0  0  2  0  0  0  0  0  0
   -1.4409   -0.1102   -0.0474 N   0  0  0  0  0  0  0  0  0  0  0  0
    0.9356   -2.2989    0.1753 N   0  0  0  0  0  0  0  0  0  0  0  0
    1.9803    1.8125   -0.1648 C   0  0  0  0  0  2  0  0  0  0  0  0
    3.2196    2.4653   -0.2493 C   0  0  0  0  0  0  0  0  0  0  0  0
    4.1373    1.8641   -0.3239 H   0  0  0  0  0  0  0  0  0  0  0  0
    3.2841    3.8720   -0.2397 C   0  0  0  0  0  0  0  0  0  0  0  0
    4.2657    4.3673   -0.3110 H   0  0  0  0  0  0  0  0  0  0  0  0
    2.1176    4.6491   -0.1412 C   0  0  0  0  0  0  0  0  0  0  0  0
    2.1815    5.7477   -0.1325 H   0  0  0  0  0  0  0  0  0  0  0  0
    0.8689    4.0181   -0.0554 C   0  0  0  0  0  0  0  0  0  0  0  0
   -0.0535    4.6159    0.0214 H   0  0  0  0  0  0  0  0  0  0  0  0
    0.7950    2.6125   -0.0691 C   0  0  0  0  0  0  0  0  0  0  0  0
   -0.4446    1.8467   -0.0108 C   0  0  0  0  0  0  0  0  0  0  0  0
   -1.8379    2.0871    0.0346 C   0  0  0  0  0  0  0  0  0  0  0  0
   -2.3537    3.0517    0.0500 H   0  0  0  0  0  0  0  0  0  0  0  0
   -2.4568    0.8265   -0.0036 C   0  0  0  0  0  0  0  0  0  0  0  0
   -3.8895    0.4987   -0.0051 C   0  0  0  0  0  0  0  0  0  0  0  0
   -4.4469   -0.4571   -0.8874 C   0  0  0  0  0  0  0  0  0  0  0  0
   -3.8041   -0.9689   -1.6183 H   0  0  0  0  0  0  0  0  0  0  0  0
   -5.8232   -0.7228   -0.8750 C   0  0  0  0  0  0  0  0  0  0  0  0
   -6.2399   -1.4651   -1.5725 H   0  0  0  0  0  0  0  0  0  0  0  0
   -6.6699   -0.0326    0.0063 C   0  0  0  0  0  0  0  0  0  0  0  0
   -7.7503   -0.2412    0.0125 H   0  0  0  0  0  0  0  0  0  0  0  0
   -6.1312    0.9311    0.8746 C   0  0  0  0  0  0  0  0  0  0  0  0
   -6.7882    1.4783    1.5673 H   0  0  0  0  0  0  0  0  0  0  0  0
   -4.7555    1.1930    0.8722 C   0  0  0  0  0  0  0  0  0  0  0  0
   -4.3306    1.9330    1.5667 H   0  0  0  0  0  0  0  0  0  0  0  0
   -1.5053   -1.5619   -0.1452 C   0  0  0  0  0  0  0  0  0  0  0  0
   -1.4550   -1.8655   -1.2137 H   0  0  0  0  0  0  0  0  0  0  0  0
   -2.5033   -1.8605    0.2267 H   0  0  0  0  0  0  0  0  0  0  0  0
   -0.4543   -2.3036    0.6832 C   0  0  0  0  0  0  0  0  0  0  0  0
   -0.4429   -1.8721    1.7020 H   0  0  0  0  0  0  0  0  0  0  0  0
   -0.8134   -3.3549    0.7867 H   0  0  0  0  0  0  0  0  0  0  0  0
    1.0759   -2.8718   -1.1946 C   0  0  0  0  0  0  0  0  0  0  0  0
    0.5533   -2.1894   -1.8964 H   0  0  0  0  0  0  0  0  0  0  0  0
    2.1528   -2.7734   -1.4388 H   0  0  0  0  0  0  0  0  0  0  0  0
    0.5947   -4.3100   -1.3979 C   0  0  0  0  0  0  0  0  0  0  0  0
    1.1231   -5.0292   -0.7413 H   0  0  0  0  0  0  0  0  0  0  0  0
    0.7973   -4.6130   -2.4442 H   0  0  0  0  0  0  0  0  0  0  0  0
   -0.4953   -4.4310   -1.2296 H   0  0  0  0  0  0  0  0  0  0  0  0
    1.8260   -3.0106    1.1384 C   0  0  0  0  0  0  0  0  0  0  0  0
    2.8200   -3.0436    0.6515 H   0  0  0  0  0  0  0  0  0  0  0  0
    1.4616   -4.0562    1.2755 H   0  0  0  0  0  0  0  0  0  0  0  0
    1.9773   -2.3237    2.4898 C   0  0  0  0  0  0  0  0  0  0  0  0
    2.3405   -1.2852    2.3525 H   0  0  0  0  0  0  0  0  0  0  0  0
    2.7324   -2.8722    3.0871 H   0  0  0  0  0  0  0  0  0  0  0  0
    1.0428   -2.3038    3.0860 H   0  0  0  0  0  0  0  0  0  0  0  0
  1  2  1  0  0  0  0
  1 14  1  0  0  0  0
  2 17  1  0  0  0  0
  3 32  1  0  0  0  0
  3 42  1  0  0  0  0
  4 13  1  0  0  0  0
  5  7  2  0  0  0  0
  5  4  1  0  0  0  0
  6  5  1  0  0  0  0
  7  9  1  0  0  0  0
  8  7  1  0  0  0  0
  9 10  1  0  0  0  0
  9 11  2  0  0  0  0
 11 12  1  0  0  0  0
 13 11  1  0  0  0  0
 13 14  2  0  0  0  0
 14 15  1  0  0  0  0
 15 16  1  0  0  0  0
 17 15  2  0  0  0  0
 18 17  1  0  0  0  0
 18 27  1  0  0  0  0
 19 21  1  0  0  0  0
 19 18  2  0  0  0  0
 20 19  1  0  0  0  0
 21 23  2  0  0  0  0
 22 21  1  0  0  0  0
 23 24  1  0  0  0  0
 23 25  1  0  0  0  0
 25 26  1  0  0  0  0
 27 25  2  0  0  0  0
 27 28  1  0  0  0  0
 29  2  1  0  0  0  0
 29 31  1  0  0  0  0
 29 32  1  0  0  0  0
 30 29  1  0  0  0  0
 32 34  1  0  0  0  0
 32 33  1  0  0  0  0
 35  3  1  0  0  0  0
 36 35  1  0  0  0  0
 37 35  1  0  0  0  0
 38 41  1  0  0  0  0
 38 35  1  0  0  0  0
 38 39  1  0  0  0  0
 40 38  1  0  0  0  0
 42 44  1  0  0  0  0
 42 45  1  0  0  0  0
 43 42  1  0  0  0  0
 45 48  1  0  0  0  0
 45 47  1  0  0  0  0
 46 45  1  0  0  0  0
M  END
