1,2,9
 OpenBabel05122313063D

 41 41  0  0  0  0  0  0  0  0999 V2000
    2.0703    0.1233    0.0000 N   0  0  0  0  0  2  0  0  0  0  0  0
   -2.0703    0.1231    0.0000 N   0  0  0  0  0  2  0  0  0  0  0  0
   -2.3425    1.4131   -0.0000 C   0  0  0  0  0  3  0  0  0  0  0  0
   -1.2348    2.3410    0.0000 C   0  0  0  0  0  0  0  0  0  0  0  0
   -1.2298    3.7521   -0.0001 C   0  0  0  0  0  0  0  0  0  0  0  0
   -0.0002    4.4407   -0.0001 C   0  0  0  0  0  0  0  0  0  0  0  0
    1.2294    3.7522   -0.0001 C   0  0  0  0  0  3  0  0  0  0  0  0
    1.2346    2.3411   -0.0000 C   0  0  0  0  0  0  0  0  0  0  0  0
   -0.0001    1.6510    0.0001 C   0  0  0  0  0  3  0  0  0  0  0  0
    2.3424    1.4133   -0.0000 C   0  0  0  0  0  0  0  0  0  0  0  0
   -3.1779   -0.8843   -0.0000 C   0  0  0  0  0  0  0  0  0  0  0  0
   -4.5717   -0.2336    0.0001 C   0  0  0  0  0  0  0  0  0  0  0  0
   -3.0249   -1.7395    1.2721 C   0  0  0  0  0  0  0  0  0  0  0  0
   -3.0250   -1.7392   -1.2723 C   0  0  0  0  0  0  0  0  0  0  0  0
    3.1779   -0.8841   -0.0000 C   0  0  0  0  0  0  0  0  0  0  0  0
    3.0251   -1.7392    1.2721 C   0  0  0  0  0  0  0  0  0  0  0  0
    3.0250   -1.7391   -1.2722 C   0  0  0  0  0  0  0  0  0  0  0  0
    4.5718   -0.2334    0.0000 C   0  0  0  0  0  0  0  0  0  0  0  0
   -3.3868    1.7628   -0.0001 H   0  0  0  0  0  0  0  0  0  0  0  0
   -2.1755    4.3170   -0.0001 H   0  0  0  0  0  0  0  0  0  0  0  0
   -0.0003    5.5406   -0.0001 H   0  0  0  0  0  0  0  0  0  0  0  0
    2.1751    4.3173   -0.0001 H   0  0  0  0  0  0  0  0  0  0  0  0
    3.3867    1.7631   -0.0001 H   0  0  0  0  0  0  0  0  0  0  0  0
   -5.3288   -1.0407    0.0002 H   0  0  0  0  0  0  0  0  0  0  0  0
   -4.7511    0.3851   -0.9027 H   0  0  0  0  0  0  0  0  0  0  0  0
   -4.7510    0.3850    0.9031 H   0  0  0  0  0  0  0  0  0  0  0  0
   -2.0481   -2.2593    1.2759 H   0  0  0  0  0  0  0  0  0  0  0  0
   -3.8301   -2.5005    1.3026 H   0  0  0  0  0  0  0  0  0  0  0  0
   -3.1081   -1.1054    2.1778 H   0  0  0  0  0  0  0  0  0  0  0  0
   -2.0482   -2.2591   -1.2762 H   0  0  0  0  0  0  0  0  0  0  0  0
   -3.1080   -1.1049   -2.1778 H   0  0  0  0  0  0  0  0  0  0  0  0
   -3.8303   -2.5001   -1.3031 H   0  0  0  0  0  0  0  0  0  0  0  0
    3.1084   -1.1051    2.1778 H   0  0  0  0  0  0  0  0  0  0  0  0
    3.8303   -2.5002    1.3026 H   0  0  0  0  0  0  0  0  0  0  0  0
    2.0483   -2.2590    1.2761 H   0  0  0  0  0  0  0  0  0  0  0  0
    2.0483   -2.2591   -1.2761 H   0  0  0  0  0  0  0  0  0  0  0  0
    3.8304   -2.4999   -1.3029 H   0  0  0  0  0  0  0  0  0  0  0  0
    3.1080   -1.1049   -2.1778 H   0  0  0  0  0  0  0  0  0  0  0  0
    4.7512    0.3851   -0.9029 H   0  0  0  0  0  0  0  0  0  0  0  0
    5.3288   -1.0406    0.0001 H   0  0  0  0  0  0  0  0  0  0  0  0
    4.7511    0.3852    0.9029 H   0  0  0  0  0  0  0  0  0  0  0  0
  3  4  1  0  0  0  0
  3  2  1  0  0  0  0
  4  9  2  0  0  0  0
  5  4  1  0  0  0  0
  6  7  1  0  0  0  0
  6  5  2  0  0  0  0
  7  8  1  0  0  0  0
  8  9  1  0  0  0  0
 10  8  2  0  0  0  0
 10  1  1  0  0  0  0
 11  2  1  0  0  0  0
 11 12  1  0  0  0  0
 11 13  1  0  0  0  0
 12 24  1  0  0  0  0
 12 26  1  0  0  0  0
 13 27  1  0  0  0  0
 13 28  1  0  0  0  0
 13 29  1  0  0  0  0
 14 11  1  0  0  0  0
 15 18  1  0  0  0  0
 15  1  1  0  0  0  0
 15 16  1  0  0  0  0
 16 35  1  0  0  0  0
 16 34  1  0  0  0  0
 16 33  1  0  0  0  0
 17 15  1  0  0  0  0
 18 40  1  0  0  0  0
 18 41  1  0  0  0  0
 19  3  1  0  0  0  0
 20  5  1  0  0  0  0
 21  6  1  0  0  0  0
 22  7  1  0  0  0  0
 23 10  1  0  0  0  0
 25 12  1  0  0  0  0
 30 14  1  0  0  0  0
 31 14  1  0  0  0  0
 32 14  1  0  0  0  0
 36 17  1  0  0  0  0
 37 17  1  0  0  0  0
 38 17  1  0  0  0  0
 39 18  1  0  0  0  0
M  END
