1,3,21
 OpenBabel05122313063D

 47 51  0  0  1  0  0  0  0  0999 V2000
   -2.8049   -0.9174    0.2294 N   0  0  0  0  0  2  0  0  0  0  0  0
    2.0056   -0.7247   -0.1087 N   0  0  0  0  0  0  0  0  0  0  0  0
    0.6336    1.2532   -0.1592 N   0  0  0  0  0  2  0  0  0  0  0  0
   -4.0182   -0.5104    0.6626 C   0  0  0  0  0  0  0  0  0  0  0  0
   -4.0300    0.5114    1.0809 H   0  0  0  0  0  0  0  0  0  0  0  0
   -5.1446   -1.3330    0.5722 C   0  0  0  0  0  0  0  0  0  0  0  0
   -6.1131   -0.9625    0.9360 H   0  0  0  0  0  0  0  0  0  0  0  0
   -5.0084   -2.6138    0.0142 C   0  0  0  0  0  0  0  0  0  0  0  0
   -5.8777   -3.2824   -0.0764 H   0  0  0  0  0  0  0  0  0  0  0  0
   -3.7496   -3.0332   -0.4279 C   0  0  0  0  0  0  0  0  0  0  0  0
   -3.6122   -4.0305   -0.8673 H   0  0  0  0  0  0  0  0  0  0  0  0
   -2.6415   -2.1742   -0.3151 C   0  0  0  0  0  0  0  0  0  0  0  0
   -1.2613   -2.4880   -0.6873 C   0  0  0  0  0  0  0  0  0  0  0  0
   -0.8171   -3.7484   -1.1339 C   0  0  0  0  0  3  0  0  0  0  0  0
   -1.5288   -4.5677   -1.3159 H   0  0  0  0  0  0  0  0  0  0  0  0
    0.5532   -3.9577   -1.3207 C   0  0  0  0  0  0  0  0  0  0  0  0
    0.9215   -4.9282   -1.6840 H   0  0  0  0  0  0  0  0  0  0  0  0
    1.4779   -2.9471   -1.0095 C   0  0  0  0  0  0  0  0  0  0  0  0
    2.5504   -3.1537   -1.1217 H   0  0  0  0  0  0  0  0  0  0  0  0
    1.0401   -1.6848   -0.5451 C   0  0  0  0  0  0  0  0  0  0  0  0
   -0.3433   -1.4205   -0.4560 C   0  0  0  0  0  3  0  0  0  0  0  0
    1.8324    0.6464    0.0333 C   0  0  0  0  0  0  0  0  0  0  0  0
    2.9784    1.4400    0.3935 C   0  0  0  0  0  0  0  0  0  0  0  0
    3.8983    0.9368    0.7090 H   0  0  0  0  0  0  0  0  0  0  0  0
    2.9177    2.8109    0.3408 C   0  0  0  0  0  0  0  0  0  0  0  0
    3.7887    3.4160    0.6355 H   0  0  0  0  0  0  0  0  0  0  0  0
    1.7467    3.4533   -0.1514 C   0  0  0  0  0  0  0  0  0  0  0  0
    1.6817    4.8517   -0.3974 C   0  0  0  0  0  0  0  0  0  0  0  0
    2.5647    5.4669   -0.1653 H   0  0  0  0  0  0  0  0  0  0  0  0
    0.5380    5.4184   -0.9424 C   0  0  0  0  0  0  0  0  0  0  0  0
    0.4940    6.4992   -1.1430 H   0  0  0  0  0  0  0  0  0  0  0  0
   -0.5654    4.5910   -1.2621 C   0  0  0  0  0  0  0  0  0  0  0  0
   -1.4624    5.0296   -1.7243 H   0  0  0  0  0  0  0  0  0  0  0  0
   -0.5412    3.2257   -0.9994 C   0  0  0  0  0  0  0  0  0  0  0  0
   -1.3991    2.5891   -1.2478 H   0  0  0  0  0  0  0  0  0  0  0  0
    0.6076    2.6261   -0.4218 C   0  0  1  0  0  3  0  0  0  0  0  0
    3.3129   -1.2610    0.1864 C   0  0  0  0  0  0  0  0  0  0  0  0
    3.5415   -1.8670    1.4323 C   0  0  0  0  0  0  0  0  0  0  0  0
    2.7233   -1.9046    2.1660 H   0  0  0  0  0  0  0  0  0  0  0  0
    4.8025   -2.4115    1.7174 C   0  0  0  0  0  0  0  0  0  0  0  0
    4.9844   -2.8839    2.6943 H   0  0  0  0  0  0  0  0  0  0  0  0
    5.8288   -2.3528    0.7604 C   0  0  0  0  0  0  0  0  0  0  0  0
    6.8171   -2.7805    0.9865 H   0  0  0  0  0  0  0  0  0  0  0  0
    5.5937   -1.7495   -0.4861 C   0  0  0  0  0  0  0  0  0  0  0  0
    6.3953   -1.7049   -1.2386 H   0  0  0  0  0  0  0  0  0  0  0  0
    4.3344   -1.2048   -0.7777 C   0  0  0  0  0  0  0  0  0  0  0  0
    4.1303   -0.7304   -1.7489 H   0  0  0  0  0  0  0  0  0  0  0  0
  1  4  1  0  0  0  0
  2 22  1  0  0  0  0
  2 37  1  0  0  0  0
  3 22  1  0  0  0  0
  4  5  1  0  0  0  0
  6  4  2  0  0  0  0
  6  7  1  0  0  0  0
  8  6  1  0  0  0  0
  9  8  1  0  0  0  0
 10 12  1  0  0  0  0
 10  8  2  0  0  0  0
 11 10  1  0  0  0  0
 12  1  1  0  0  0  0
 13 21  1  0  0  0  0
 13 12  2  0  0  0  0
 14 13  1  0  0  0  0
 15 14  1  0  0  0  0
 16 14  1  0  0  0  0
 16 18  2  0  0  0  0
 17 16  1  0  0  0  0
 18 20  1  0  0  0  0
 19 18  1  0  0  0  0
 20 21  2  0  0  0  0
 20  2  1  0  0  0  0
 22 23  2  0  0  0  0
 23 24  1  0  0  0  0
 25 23  1  0  0  0  0
 25 26  1  0  0  0  0
 27 25  2  0  0  0  0
 28 29  1  0  0  0  0
 28 27  1  0  0  0  0
 30 28  2  0  0  0  0
 31 30  1  0  0  0  0
 32 34  2  0  0  0  0
 32 30  1  0  0  0  0
 33 32  1  0  0  0  0
 35 34  1  0  0  0  0
 36 34  1  6  0  0  0
 36  3  1  0  0  0  0
 36 27  1  0  0  0  0
 37 38  1  0  0  0  0
 38 40  2  0  0  0  0
 38 39  1  0  0  0  0
 40 41  1  0  0  0  0
 42 43  1  0  0  0  0
 42 40  1  0  0  0  0
 44 42  2  0  0  0  0
 45 44  1  0  0  0  0
 46 44  1  0  0  0  0
 46 37  2  0  0  0  0
 47 46  1  0  0  0  0
M  END
