2,3,5
 OpenBabel05122313063D

 56 55  0  0  1  0  0  0  0  0999 V2000
   -2.4796    2.9750    1.2802 O   0  0  0  0  0  0  0  0  0  0  0  0
    0.9534   -0.6792    1.3173 N   0  0  0  0  0  2  0  0  0  0  0  0
    1.3925    1.1958   -0.6523 N   0  0  0  0  0  0  0  0  0  0  0  0
   -2.5084    0.7485   -0.0811 N   0  0  0  0  0  0  0  0  0  0  0  0
   -1.1760    0.6579    0.0072 C   0  0  0  0  0  3  0  0  0  0  0  0
   -0.5368    1.7655    0.6603 C   0  0  0  0  0  0  0  0  0  0  0  0
    0.9697    1.6328    0.7071 C   0  0  1  0  0  0  0  0  0  0  0  0
   -1.2248    2.8563    1.2994 C   0  0  0  0  0  0  0  0  0  0  0  0
    1.2328    0.5268    1.6834 C   0  0  0  0  0  3  0  0  0  0  0  0
   -0.4243    3.9386    2.0258 C   0  0  0  0  0  0  0  0  0  0  0  0
    0.9757   -1.7929    2.3134 C   0  0  0  0  0  0  0  0  0  0  0  0
   -0.4839   -2.0570    2.7322 C   0  0  0  0  0  0  0  0  0  0  0  0
    1.5904   -3.0432    1.6649 C   0  0  0  0  0  0  0  0  0  0  0  0
    1.8029   -1.4416    3.5648 C   0  0  0  0  0  0  0  0  0  0  0  0
    2.8279    1.4429   -1.0479 C   0  0  0  0  0  0  0  0  0  0  0  0
    3.7872    0.6775   -0.1293 C   0  0  0  0  0  0  0  0  0  0  0  0
    2.9898    0.9898   -2.5072 C   0  0  0  0  0  0  0  0  0  0  0  0
    3.1251    2.9557   -0.9729 C   0  0  0  0  0  0  0  0  0  0  0  0
   -3.5982   -0.1373   -0.5408 C   0  0  0  0  0  0  0  0  0  0  0  0
   -3.8403   -1.2517    0.4968 C   0  0  0  0  0  0  0  0  0  0  0  0
   -3.3638   -0.7198   -1.9424 C   0  0  0  0  0  0  0  0  0  0  0  0
   -4.8434    0.7720   -0.5962 C   0  0  0  0  0  0  0  0  0  0  0  0
    0.8178    1.7633   -1.2932 H   0  0  0  0  0  0  0  0  0  0  0  0
   -2.8478    1.6247    0.4037 H   0  0  0  0  0  0  0  0  0  0  0  0
    1.4640    2.5696    1.0269 H   0  0  0  0  0  0  0  0  0  0  0  0
    1.5359    0.7870    2.7132 H   0  0  0  0  0  0  0  0  0  0  0  0
    0.1697    3.5246    2.8669 H   0  0  0  0  0  0  0  0  0  0  0  0
    0.2839    4.4551    1.3442 H   0  0  0  0  0  0  0  0  0  0  0  0
   -1.1373    4.6820    2.4257 H   0  0  0  0  0  0  0  0  0  0  0  0
   -0.5171   -2.8579    3.4974 H   0  0  0  0  0  0  0  0  0  0  0  0
   -1.1004   -2.3764    1.8740 H   0  0  0  0  0  0  0  0  0  0  0  0
   -0.9376   -1.1407    3.1598 H   0  0  0  0  0  0  0  0  0  0  0  0
    1.6374   -3.8608    2.4108 H   0  0  0  0  0  0  0  0  0  0  0  0
    2.6194   -2.8426    1.3079 H   0  0  0  0  0  0  0  0  0  0  0  0
    0.9911   -3.4025    0.8104 H   0  0  0  0  0  0  0  0  0  0  0  0
    2.8405   -1.1542    3.2989 H   0  0  0  0  0  0  0  0  0  0  0  0
    1.8561   -2.3306    4.2219 H   0  0  0  0  0  0  0  0  0  0  0  0
    1.3494   -0.6266    4.1630 H   0  0  0  0  0  0  0  0  0  0  0  0
    3.5717   -0.4063   -0.1317 H   0  0  0  0  0  0  0  0  0  0  0  0
    3.7341    1.0421    0.9161 H   0  0  0  0  0  0  0  0  0  0  0  0
    4.8281    0.8229   -0.4792 H   0  0  0  0  0  0  0  0  0  0  0  0
    3.9928    1.2756   -2.8800 H   0  0  0  0  0  0  0  0  0  0  0  0
    2.2355    1.4737   -3.1609 H   0  0  0  0  0  0  0  0  0  0  0  0
    2.8843   -0.1036   -2.6157 H   0  0  0  0  0  0  0  0  0  0  0  0
    2.4221    3.5333   -1.6082 H   0  0  0  0  0  0  0  0  0  0  0  0
    4.1508    3.1569   -1.3388 H   0  0  0  0  0  0  0  0  0  0  0  0
    3.0641    3.3508    0.0602 H   0  0  0  0  0  0  0  0  0  0  0  0
   -4.0306   -0.8113    1.4959 H   0  0  0  0  0  0  0  0  0  0  0  0
   -2.9728   -1.9300    0.5717 H   0  0  0  0  0  0  0  0  0  0  0  0
   -4.7217   -1.8610    0.2109 H   0  0  0  0  0  0  0  0  0  0  0  0
   -2.5609   -1.4742   -1.9651 H   0  0  0  0  0  0  0  0  0  0  0  0
   -4.2910   -1.2196   -2.2873 H   0  0  0  0  0  0  0  0  0  0  0  0
   -3.1120    0.0812   -2.6636 H   0  0  0  0  0  0  0  0  0  0  0  0
   -4.7038    1.5845   -1.3372 H   0  0  0  0  0  0  0  0  0  0  0  0
   -5.7371    0.1854   -0.8846 H   0  0  0  0  0  0  0  0  0  0  0  0
   -5.0387    1.2381    0.3911 H   0  0  0  0  0  0  0  0  0  0  0  0
  1  8  2  0  0  0  0
  2  9  1  0  0  0  0
  2 11  1  0  0  0  0
  3  7  1  0  0  0  0
  4  5  1  0  0  0  0
  4 24  1  0  0  0  0
  5  6  2  0  0  0  0
  6  7  1  0  0  0  0
  6  8  1  0  0  0  0
  7 25  1  1  0  0  0
  7  9  1  0  0  0  0
  8 10  1  0  0  0  0
  9 26  1  0  0  0  0
 10 29  1  0  0  0  0
 10 27  1  0  0  0  0
 11 12  1  0  0  0  0
 11 14  1  0  0  0  0
 12 32  1  0  0  0  0
 12 30  1  0  0  0  0
 13 11  1  0  0  0  0
 13 33  1  0  0  0  0
 14 38  1  0  0  0  0
 14 37  1  0  0  0  0
 15 18  1  0  0  0  0
 15  3  1  0  0  0  0
 15 16  1  0  0  0  0
 16 40  1  0  0  0  0
 17 15  1  0  0  0  0
 18 47  1  0  0  0  0
 19  4  1  0  0  0  0
 19 20  1  0  0  0  0
 20 49  1  0  0  0  0
 20 48  1  0  0  0  0
 21 19  1  0  0  0  0
 22 19  1  0  0  0  0
 22 56  1  0  0  0  0
 23  3  1  0  0  0  0
 28 10  1  0  0  0  0
 31 12  1  0  0  0  0
 34 13  1  0  0  0  0
 35 13  1  0  0  0  0
 36 14  1  0  0  0  0
 39 16  1  0  0  0  0
 41 16  1  0  0  0  0
 42 17  1  0  0  0  0
 43 17  1  0  0  0  0
 44 17  1  0  0  0  0
 45 18  1  0  0  0  0
 46 18  1  0  0  0  0
 50 20  1  0  0  0  0
 51 21  1  0  0  0  0
 52 21  1  0  0  0  0
 53 21  1  0  0  0  0
 54 22  1  0  0  0  0
 55 22  1  0  0  0  0
M  END
