3,4,5
 OpenBabel05122313063D

 47 49  0  0  0  0  0  0  0  0999 V2000
   -0.7141    2.1303    1.3552 N   0  0  0  0  0  0  0  0  0  0  0  0
    1.0310    2.4470    0.0879 N   0  0  0  0  0  0  0  0  0  0  0  0
    2.1666   -0.1195   -0.0721 N   0  0  0  0  0  2  0  0  0  0  0  0
    0.6516   -2.2933   -0.1019 N   0  0  0  0  0  0  0  0  0  0  0  0
    0.1387    1.4809    0.4999 C   0  0  0  0  0  2  0  0  0  0  0  0
    0.7245    3.6744    0.6724 C   0  0  0  0  0  0  0  0  0  0  0  0
    1.3298    4.5683    0.5074 H   0  0  0  0  0  0  0  0  0  0  0  0
   -0.3701    3.4699    1.4659 C   0  0  0  0  0  0  0  0  0  0  0  0
   -0.9160    4.1647    2.1098 H   0  0  0  0  0  0  0  0  0  0  0  0
   -1.7832    1.5000    2.1545 C   0  0  0  0  0  0  0  0  0  0  0  0
   -1.7838    0.4467    1.8130 H   0  0  0  0  0  0  0  0  0  0  0  0
   -3.1443    2.1093    1.8223 C   0  0  0  0  0  0  0  0  0  0  0  0
   -3.2087    3.1768    2.1204 H   0  0  0  0  0  0  0  0  0  0  0  0
   -3.3521    2.0230    0.7388 H   0  0  0  0  0  0  0  0  0  0  0  0
   -3.9404    1.5602    2.3622 H   0  0  0  0  0  0  0  0  0  0  0  0
   -1.4335    1.5547    3.6434 C   0  0  0  0  0  0  0  0  0  0  0  0
   -0.4432    1.0956    3.8339 H   0  0  0  0  0  0  0  0  0  0  0  0
   -1.4141    2.5953    4.0294 H   0  0  0  0  0  0  0  0  0  0  0  0
   -2.1920    0.9963    4.2268 H   0  0  0  0  0  0  0  0  0  0  0  0
    2.1528    2.2165   -0.7541 C   0  0  0  0  0  0  0  0  0  0  0  0
    2.6669    3.2682   -1.5292 C   0  0  0  0  0  0  0  0  0  0  0  0
    2.1457    4.2366   -1.5321 H   0  0  0  0  0  0  0  0  0  0  0  0
    3.8159    3.0919   -2.3083 C   0  0  0  0  0  0  0  0  0  0  0  0
    4.2082    3.9223   -2.9121 H   0  0  0  0  0  0  0  0  0  0  0  0
    4.4369    1.8302   -2.3191 C   0  0  0  0  0  0  0  0  0  0  0  0
    5.3285    1.6598   -2.9421 H   0  0  0  0  0  0  0  0  0  0  0  0
    3.9191    0.7718   -1.5709 C   0  0  0  0  0  0  0  0  0  0  0  0
    4.3959   -0.2160   -1.6279 H   0  0  0  0  0  0  0  0  0  0  0  0
    2.7558    0.9179   -0.7596 C   0  0  0  0  0  0  0  0  0  0  0  0
    2.8377   -1.2837    0.2781 C   0  0  0  0  0  0  0  0  0  0  0  0
    4.2003   -1.3849    0.6564 C   0  0  0  0  0  0  0  0  0  0  0  0
    4.8206   -0.4781    0.6788 H   0  0  0  0  0  0  0  0  0  0  0  0
    4.7415   -2.6187    1.0395 C   0  0  0  0  0  0  0  0  0  0  0  0
    5.7972   -2.6692    1.3479 H   0  0  0  0  0  0  0  0  0  0  0  0
    3.9520   -3.7802    1.0558 C   0  0  0  0  0  0  0  0  0  0  0  0
    4.3799   -4.7449    1.3644 H   0  0  0  0  0  0  0  0  0  0  0  0
    2.5970   -3.6956    0.6896 C   0  0  0  0  0  0  0  0  0  0  0  0
    1.9701   -4.5988    0.7036 H   0  0  0  0  0  0  0  0  0  0  0  0
    2.0490   -2.4644    0.3178 C   0  0  0  0  0  0  0  0  0  0  0  0
    0.5071   -2.6121   -1.5471 C   0  0  0  0  0  0  0  0  0  0  0  0
   -0.5311   -2.3906   -1.8593 H   0  0  0  0  0  0  0  0  0  0  0  0
    1.2042   -1.9807   -2.1283 H   0  0  0  0  0  0  0  0  0  0  0  0
    0.7428   -3.6835   -1.7342 H   0  0  0  0  0  0  0  0  0  0  0  0
   -0.2887   -3.1036    0.7015 C   0  0  0  0  0  0  0  0  0  0  0  0
   -0.1339   -2.8831    1.7737 H   0  0  0  0  0  0  0  0  0  0  0  0
   -1.3195   -2.8226    0.4192 H   0  0  0  0  0  0  0  0  0  0  0  0
   -0.1383   -4.1914    0.5258 H   0  0  0  0  0  0  0  0  0  0  0  0
  1  8  1  0  0  0  0
  1 10  1  0  0  0  0
  2  5  1  0  0  0  0
  2  6  1  0  0  0  0
  3 30  1  0  0  0  0
  4 39  1  0  0  0  0
  4 44  1  0  0  0  0
  5  1  1  0  0  0  0
  6  8  2  0  0  0  0
  7  6  1  0  0  0  0
  8  9  1  0  0  0  0
 10 16  1  0  0  0  0
 11 10  1  0  0  0  0
 12 13  1  0  0  0  0
 12 10  1  0  0  0  0
 12 15  1  0  0  0  0
 14 12  1  0  0  0  0
 16 17  1  0  0  0  0
 16 18  1  0  0  0  0
 16 19  1  0  0  0  0
 20  2  1  0  0  0  0
 21 20  2  0  0  0  0
 22 21  1  0  0  0  0
 23 21  1  0  0  0  0
 24 23  1  0  0  0  0
 25 23  2  0  0  0  0
 25 27  1  0  0  0  0
 26 25  1  0  0  0  0
 27 29  2  0  0  0  0
 28 27  1  0  0  0  0
 29 20  1  0  0  0  0
 29  3  1  0  0  0  0
 30 39  2  0  0  0  0
 30 31  1  0  0  0  0
 31 32  1  0  0  0  0
 31 33  2  0  0  0  0
 33 35  1  0  0  0  0
 33 34  1  0  0  0  0
 35 36  1  0  0  0  0
 37 38  1  0  0  0  0
 37 35  2  0  0  0  0
 39 37  1  0  0  0  0
 40  4  1  0  0  0  0
 41 40  1  0  0  0  0
 42 40  1  0  0  0  0
 43 40  1  0  0  0  0
 44 45  1  0  0  0  0
 46 44  1  0  0  0  0
 47 44  1  0  0  0  0
M  END
