2,5,21
 OpenBabel05122313063D

 41 42  0  0  1  0  0  0  0  0999 V2000
    0.8108    2.4992   -0.1259 Si  0  0  0  0  0  0  0  0  0  0  0  0
    2.0120   -1.2646   -0.1201 N   0  0  0  0  0  2  0  0  0  0  0  0
    2.8870   -2.2684    0.0095 C   0  0  0  0  0  3  0  0  0  0  0  0
    2.4562   -3.2759    0.1394 H   0  0  0  0  0  0  0  0  0  0  0  0
    1.3697    0.8552   -0.3981 N   0  0  0  0  0  2  0  0  0  0  0  0
    4.2712   -2.0536   -0.0115 C   0  0  0  0  0  0  0  0  0  0  0  0
    4.9696   -2.8949    0.0935 H   0  0  0  0  0  0  0  0  0  0  0  0
    4.7312   -0.7284   -0.1651 C   0  0  0  0  0  0  0  0  0  0  0  0
    5.8134   -0.5229   -0.1802 H   0  0  0  0  0  0  0  0  0  0  0  0
    3.8272    0.3276   -0.2990 C   0  0  0  0  0  0  0  0  0  0  0  0
    4.1634    1.3671   -0.4212 H   0  0  0  0  0  0  0  0  0  0  0  0
    2.4376    0.0294   -0.2825 C   0  0  0  0  0  0  0  0  0  0  0  0
    1.5000    3.1890    1.4973 C   0  0  0  0  0  0  0  0  0  0  0  0
    2.5701    3.4476    1.3548 H   0  0  0  0  0  0  0  0  0  0  0  0
    1.4395    2.4556    2.3248 H   0  0  0  0  0  0  0  0  0  0  0  0
    0.9719    4.1137    1.8085 H   0  0  0  0  0  0  0  0  0  0  0  0
    1.2777    3.7327   -1.4783 C   0  0  0  0  0  0  0  0  0  0  0  0
    2.3742    3.9056   -1.4707 H   0  0  0  0  0  0  0  0  0  0  0  0
    0.7822    4.7078   -1.2876 H   0  0  0  0  0  0  0  0  0  0  0  0
    0.9891    3.3945   -2.4905 H   0  0  0  0  0  0  0  0  0  0  0  0
   -0.9908    1.9351   -0.1200 C   0  0  2  0  0  3  0  0  0  0  0  0
   -1.7369    1.4312    1.0016 C   0  0  0  0  0  0  0  0  0  0  0  0
   -2.7055    0.4919    0.5181 C   0  0  0  0  0  0  0  0  0  0  0  0
   -2.5909    0.4254   -0.9083 C   0  0  0  0  0  0  0  0  0  0  0  0
   -1.5289    1.2894   -1.3071 C   0  0  0  0  0  0  0  0  0  0  0  0
   -1.0796    1.4930   -2.7298 C   0  0  0  0  0  0  0  0  0  0  0  0
   -1.3350    2.5103   -3.0962 H   0  0  0  0  0  0  0  0  0  0  0  0
   -1.5669    0.7680   -3.4093 H   0  0  0  0  0  0  0  0  0  0  0  0
    0.0163    1.3696   -2.8516 H   0  0  0  0  0  0  0  0  0  0  0  0
   -3.5000   -0.3439   -1.8195 C   0  0  0  0  0  0  0  0  0  0  0  0
   -3.9619   -1.2081   -1.3050 H   0  0  0  0  0  0  0  0  0  0  0  0
   -2.9659   -0.7348   -2.7071 H   0  0  0  0  0  0  0  0  0  0  0  0
   -4.3299    0.2983   -2.1870 H   0  0  0  0  0  0  0  0  0  0  0  0
   -3.7797   -0.1618    1.3392 C   0  0  0  0  0  0  0  0  0  0  0  0
   -4.7220    0.4287    1.3069 H   0  0  0  0  0  0  0  0  0  0  0  0
   -3.4891   -0.2524    2.4028 H   0  0  0  0  0  0  0  0  0  0  0  0
   -4.0299   -1.1787    0.9741 H   0  0  0  0  0  0  0  0  0  0  0  0
   -1.6147    1.8324    2.4443 C   0  0  0  0  0  0  0  0  0  0  0  0
   -0.6801    2.3836    2.6473 H   0  0  0  0  0  0  0  0  0  0  0  0
   -1.6422    0.9533    3.1188 H   0  0  0  0  0  0  0  0  0  0  0  0
   -2.4560    2.4964    2.7401 H   0  0  0  0  0  0  0  0  0  0  0  0
  1 13  1  0  0  0  0
  2  3  1  0  0  0  0
  3  4  1  0  0  0  0
  5 12  1  0  0  0  0
  5  1  1  0  0  0  0
  6  3  1  0  0  0  0
  6  7  1  0  0  0  0
  8  6  2  0  0  0  0
  9  8  1  0  0  0  0
 10 12  2  0  0  0  0
 10  8  1  0  0  0  0
 11 10  1  0  0  0  0
 12  2  1  0  0  0  0
 13 16  1  0  0  0  0
 13 15  1  0  0  0  0
 14 13  1  0  0  0  0
 17 18  1  0  0  0  0
 17 19  1  0  0  0  0
 17  1  1  0  0  0  0
 20 17  1  0  0  0  0
 21  1  1  1  0  0  0
 21 22  1  0  0  0  0
 22 38  1  0  0  0  0
 23 22  2  0  0  0  0
 23 34  1  0  0  0  0
 24 23  1  0  0  0  0
 25 24  2  0  0  0  0
 25 21  1  0  0  0  0
 26 25  1  0  0  0  0
 27 26  1  0  0  0  0
 28 26  1  0  0  0  0
 29 26  1  0  0  0  0
 30 31  1  0  0  0  0
 30 24  1  0  0  0  0
 32 30  1  0  0  0  0
 33 30  1  0  0  0  0
 34 36  1  0  0  0  0
 35 34  1  0  0  0  0
 37 34  1  0  0  0  0
 38 39  1  0  0  0  0
 38 41  1  0  0  0  0
 38 40  1  0  0  0  0
M  END
