1,4,27
q = 0.0, confidence = 0.99

 39 42  0  0  1  0  0  0  0  0999 V2000
    1.1288   -2.0686    0.0827 N   0  0  0  0  0  2  0  0  0  0  0  0
   -1.5341   -0.9532   -0.5423 N   0  0  0  0  0  0  0  0  0  0  0  0
   -1.5366    0.9492    0.5425 N   0  0  0  0  0  0  0  0  0  0  0  0
    1.1235    2.0715   -0.0827 N   0  0  0  0  0  2  0  0  0  0  0  0
    2.1079   -2.7048    0.7732 C   0  0  0  0  0  3  0  0  0  0  0  0
    2.9060   -2.0582    1.1665 H   0  0  0  0  0  0  0  0  0  0  0  0
    2.1245   -4.0939    0.9304 C   0  0  0  0  0  0  0  0  0  0  0  0
    2.9447   -4.5586    1.4952 H   0  0  0  0  0  0  0  0  0  0  0  0
    1.0986   -4.8553    0.3615 C   0  0  0  0  0  0  0  0  0  0  0  0
    1.0801   -5.9502    0.4658 H   0  0  0  0  0  0  0  0  0  0  0  0
    0.0845   -4.1917   -0.3420 C   0  0  0  0  0  0  0  0  0  0  0  0
   -0.7419   -4.7540   -0.7998 H   0  0  0  0  0  0  0  0  0  0  0  0
    0.1175   -2.7958   -0.4680 C   0  0  0  0  0  0  0  0  0  0  0  0
   -0.9612   -2.0853   -1.2619 C   0  0  0  0  0  0  0  0  0  0  0  0
   -0.5364   -1.7222   -2.2238 H   0  0  0  0  0  0  0  0  0  0  0  0
   -1.7708   -2.7966   -1.5015 H   0  0  0  0  0  0  0  0  0  0  0  0
   -2.8832   -0.6201   -0.3535 C   0  0  0  0  0  0  0  0  0  0  0  0
   -4.0775   -1.2516   -0.7242 C   0  0  0  0  0  0  0  0  0  0  0  0
   -4.0875   -2.2000   -1.2794 H   0  0  0  0  0  0  0  0  0  0  0  0
   -5.2724   -0.6171   -0.3556 C   0  0  0  0  0  0  0  0  0  0  0  0
   -6.2310   -1.0820   -0.6270 H   0  0  0  0  0  0  0  0  0  0  0  0
   -5.2740    0.6036    0.3556 C   0  0  0  0  0  0  0  0  0  0  0  0
   -6.2338    1.0661    0.6269 H   0  0  0  0  0  0  0  0  0  0  0  0
   -4.0807    1.2412    0.7242 C   0  0  0  0  0  0  0  0  0  0  0  0
   -4.0931    2.1896    1.2794 H   0  0  0  0  0  0  0  0  0  0  0  0
   -2.8848    0.6128    0.3535 C   0  0  0  0  0  0  0  0  0  0  0  0
   -0.7378   -0.0010    0.0001 C   0  0  0  0  0  2  0  0  0  0  0  0
   -0.9666    2.0829    1.2620 C   0  0  0  0  0  0  0  0  0  0  0  0
   -0.5407    1.7209    2.2238 H   0  0  0  0  0  0  0  0  0  0  0  0
   -1.7780    2.7921    1.5016 H   0  0  0  0  0  0  0  0  0  0  0  0
    0.1102    2.7961    0.4680 C   0  0  1  0  0  3  0  0  0  0  0  0
    0.0735    4.1919    0.3417 C   0  0  0  0  0  0  0  0  0  0  0  0
   -0.7544    4.7521    0.7994 H   0  0  0  0  0  0  0  0  0  0  0  0
    1.0858    4.8581   -0.3619 C   0  0  0  0  0  0  0  0  0  0  0  0
    1.0644    5.9529   -0.4664 H   0  0  0  0  0  0  0  0  0  0  0  0
    2.1138    4.0993   -0.9306 C   0  0  0  0  0  0  0  0  0  0  0  0
    2.9328    4.5661   -1.4954 H   0  0  0  0  0  0  0  0  0  0  0  0
    2.1009    2.7102   -0.7732 C   0  0  0  0  0  0  0  0  0  0  0  0
    2.9007    2.0656   -1.1664 H   0  0  0  0  0  0  0  0  0  0  0  0
  1  5  1  0  0  0  0
  2 17  1  0  0  0  0
  2 27  1  0  0  0  0
  3 28  1  0  0  0  0
  4 31  1  0  0  0  0
  5  7  1  0  0  0  0
  5  6  1  0  0  0  0
  7  8  1  0  0  0  0
  9 10  1  0  0  0  0
  9  7  2  0  0  0  0
 11  9  1  0  0  0  0
 12 11  1  0  0  0  0
 13 11  2  0  0  0  0
 13  1  1  0  0  0  0
 14  2  1  0  0  0  0
 14 13  1  0  0  0  0
 15 14  1  0  0  0  0
 16 14  1  0  0  0  0
 17 26  1  0  0  0  0
 18 20  1  0  0  0  0
 18 17  2  0  0  0  0
 19 18  1  0  0  0  0
 20 22  2  0  0  0  0
 21 20  1  0  0  0  0
 22 23  1  0  0  0  0
 22 24  1  0  0  0  0
 24 25  1  0  0  0  0
 26  3  1  0  0  0  0
 26 24  2  0  0  0  0
 27  3  1  0  0  0  0
 28 30  1  0  0  0  0
 28 29  1  0  0  0  0
 31 28  1  1  0  0  0
 32 31  1  0  0  0  0
 32 33  1  0  0  0  0
 34 32  2  0  0  0  0
 35 34  1  0  0  0  0
 36 38  2  0  0  0  0
 36 34  1  0  0  0  0
 37 36  1  0  0  0  0
 38  4  1  0  0  0  0
 39 38  1  0  0  0  0
M  END
