3,4,11
 OpenBabel05122313063D

 37 37  0  0  0  0  0  0  0  0999 V2000
   -1.6075    2.6609    0.5567 Si  0  0  0  0  0  0  0  0  0  0  0  0
    1.0718   -2.5378    0.5399 Si  0  0  0  0  0  0  0  0  0  0  0  0
   -1.5843    0.8816    0.6157 N   0  0  0  0  0  2  0  0  0  0  0  0
   -0.0977   -1.1415    0.6586 N   0  0  0  0  0  2  0  0  0  0  0  0
   -1.9251    0.0049    1.6311 C   0  0  0  0  0  0  0  0  0  0  0  0
   -2.9542    0.1701    2.5764 C   0  0  0  0  0  0  0  0  0  0  0  0
   -3.1337   -0.7919    3.5838 C   0  0  0  0  0  0  0  0  0  0  0  0
   -2.2755   -1.9011    3.6583 C   0  0  0  0  0  0  0  0  0  0  0  0
   -1.2415   -2.0719    2.7209 C   0  0  0  0  0  0  0  0  0  0  0  0
   -1.0677   -1.1345    1.6826 C   0  0  0  0  0  0  0  0  0  0  0  0
   -0.2410    2.5841   -0.7111 C   0  0  0  0  0  3  0  0  0  0  0  0
   -1.0634    3.3910    2.2096 C   0  0  0  0  0  0  0  0  0  0  0  0
   -3.2737    3.3751    0.0308 C   0  0  0  0  0  0  0  0  0  0  0  0
    2.3500   -2.3450    1.9137 C   0  0  0  0  0  0  0  0  0  0  0  0
    0.0969   -4.1647    0.6791 C   0  0  0  0  0  0  0  0  0  0  0  0
    1.9397   -2.6428   -1.1320 C   0  0  0  0  0  0  0  0  0  0  0  0
   -3.6134    1.0493    2.5115 H   0  0  0  0  0  0  0  0  0  0  0  0
   -3.9423   -0.6689    4.3200 H   0  0  0  0  0  0  0  0  0  0  0  0
   -2.4016   -2.6433    4.4607 H   0  0  0  0  0  0  0  0  0  0  0  0
   -0.5711   -2.9343    2.8183 H   0  0  0  0  0  0  0  0  0  0  0  0
   -0.5359    2.7415   -1.7763 H   0  0  0  0  0  0  0  0  0  0  0  0
    0.6785    3.1684   -0.5142 H   0  0  0  0  0  0  0  0  0  0  0  0
   -1.0215    4.4988    2.1673 H   0  0  0  0  0  0  0  0  0  0  0  0
   -0.0562    3.0149    2.4815 H   0  0  0  0  0  0  0  0  0  0  0  0
   -1.7621    3.1043    3.0218 H   0  0  0  0  0  0  0  0  0  0  0  0
   -3.2052    4.4757   -0.0951 H   0  0  0  0  0  0  0  0  0  0  0  0
   -4.0551    3.1692    0.7915 H   0  0  0  0  0  0  0  0  0  0  0  0
   -3.6083    2.9375   -0.9308 H   0  0  0  0  0  0  0  0  0  0  0  0
    3.0234   -3.2262    1.9513 H   0  0  0  0  0  0  0  0  0  0  0  0
    1.8653   -2.2355    2.9043 H   0  0  0  0  0  0  0  0  0  0  0  0
    2.9696   -1.4432    1.7332 H   0  0  0  0  0  0  0  0  0  0  0  0
    0.0968   -4.5932    1.7002 H   0  0  0  0  0  0  0  0  0  0  0  0
    0.5552   -4.9141    0.0016 H   0  0  0  0  0  0  0  0  0  0  0  0
   -0.9581   -4.0256    0.3692 H   0  0  0  0  0  0  0  0  0  0  0  0
    2.5723   -1.7699   -1.3696 H   0  0  0  0  0  0  0  0  0  0  0  0
    1.2152   -2.7938   -1.9569 H   0  0  0  0  0  0  0  0  0  0  0  0
    2.5868   -3.5448   -1.0915 H   0  0  0  0  0  0  0  0  0  0  0  0
  1  3  1  0  0  0  0
  1 12  1  0  0  0  0
  2  4  1  0  0  0  0
  2 15  1  0  0  0  0
  2 14  1  0  0  0  0
  3  5  1  0  0  0  0
  4 10  1  0  0  0  0
  5 10  2  0  0  0  0
  5  6  1  0  0  0  0
  6  7  2  0  0  0  0
  7  8  1  0  0  0  0
  7 18  1  0  0  0  0
  8 19  1  0  0  0  0
  9 20  1  0  0  0  0
  9  8  2  0  0  0  0
 10  9  1  0  0  0  0
 11 22  1  0  0  0  0
 11  1  1  0  0  0  0
 12 24  1  0  0  0  0
 12 25  1  0  0  0  0
 13  1  1  0  0  0  0
 13 27  1  0  0  0  0
 14 29  1  0  0  0  0
 14 30  1  0  0  0  0
 15 32  1  0  0  0  0
 16 37  1  0  0  0  0
 16  2  1  0  0  0  0
 17  6  1  0  0  0  0
 21 11  1  0  0  0  0
 23 12  1  0  0  0  0
 26 13  1  0  0  0  0
 28 13  1  0  0  0  0
 31 14  1  0  0  0  0
 33 15  1  0  0  0  0
 34 15  1  0  0  0  0
 35 16  1  0  0  0  0
 36 16  1  0  0  0  0
M  END
