3,4,5
q = -1.0, confidence = 0.022

 35 39  0  0  1  0  0  0  0  0999 V2000
   -3.6417    2.0800   -0.0218 O   0  0  0  0  0  0  0  0  0  0  0  0
    3.6430    2.0782   -0.0222 O   0  0  0  0  0  0  0  0  0  0  0  0
   -2.0153    0.5374   -0.2482 N   0  0  0  0  0  2  0  0  0  0  0  0
    2.0158    0.5365   -0.2485 N   0  0  0  0  0  2  0  0  0  0  0  0
    0.0007    2.0780   -0.0024 C   0  0  0  0  0  3  0  0  0  0  0  0
   -1.2322    2.7840    0.0926 C   0  0  0  0  0  0  0  0  0  0  0  0
   -1.2310    4.1787    0.2972 C   0  0  0  0  0  0  0  0  0  0  0  0
    0.0013    4.8547    0.4011 C   0  0  0  0  0  0  0  0  0  0  0  0
    1.2333    4.1781    0.2971 C   0  0  0  0  0  0  0  0  0  0  0  0
    1.2339    2.7834    0.0925 C   0  0  0  0  0  0  0  0  0  0  0  0
   -2.3066    1.8389   -0.0578 C   0  0  2  0  0  3  0  0  0  0  0  0
   -4.2433    0.8482   -0.1966 C   0  0  0  0  0  0  0  0  0  0  0  0
   -5.6030    0.5499   -0.2336 C   0  0  0  0  0  0  0  0  0  0  0  0
   -5.9266   -0.8057   -0.4214 C   0  0  0  0  0  0  0  0  0  0  0  0
   -4.9268   -1.7957   -0.5628 C   0  0  0  0  0  0  0  0  0  0  0  0
   -3.5612   -1.4791   -0.5246 C   0  0  0  0  0  0  0  0  0  0  0  0
   -3.2297   -0.1283   -0.3382 C   0  0  0  0  0  0  0  0  0  0  0  0
    2.3078    1.8377   -0.0581 C   0  0  1  0  0  3  0  0  0  0  0  0
    4.2439    0.8460   -0.1971 C   0  0  0  0  0  0  0  0  0  0  0  0
    5.6035    0.5470   -0.2342 C   0  0  0  0  0  0  0  0  0  0  0  0
    5.9263   -0.8088   -0.4219 C   0  0  0  0  0  0  0  0  0  0  0  0
    4.9259   -1.7983   -0.5632 C   0  0  0  0  0  0  0  0  0  0  0  0
    3.5605   -1.4809   -0.5250 C   0  0  0  0  0  0  0  0  0  0  0  0
    3.2298   -0.1299   -0.3385 C   0  0  0  0  0  0  0  0  0  0  0  0
   -2.1766    4.7367    0.3700 H   0  0  0  0  0  0  0  0  0  0  0  0
    0.0016    5.9429    0.5596 H   0  0  0  0  0  0  0  0  0  0  0  0
    2.1792    4.7357    0.3697 H   0  0  0  0  0  0  0  0  0  0  0  0
   -6.3697    1.3286   -0.1224 H   0  0  0  0  0  0  0  0  0  0  0  0
   -6.9855   -1.1012   -0.4591 H   0  0  0  0  0  0  0  0  0  0  0  0
   -5.2305   -2.8430   -0.7081 H   0  0  0  0  0  0  0  0  0  0  0  0
   -2.7778   -2.2399   -0.6356 H   0  0  0  0  0  0  0  0  0  0  0  0
    6.3706    1.3253   -0.1230 H   0  0  0  0  0  0  0  0  0  0  0  0
    6.9850   -1.1049   -0.4597 H   0  0  0  0  0  0  0  0  0  0  0  0
    5.2291   -2.8457   -0.7085 H   0  0  0  0  0  0  0  0  0  0  0  0
    2.7766   -2.2412   -0.6359 H   0  0  0  0  0  0  0  0  0  0  0  0
  3 11  1  0  0  0  0
  4 18  1  0  0  0  0
  5 10  2  0  0  0  0
  5  6  1  0  0  0  0
  6  7  2  0  0  0  0
  7 25  1  0  0  0  0
  7  8  1  0  0  0  0
  8 26  1  0  0  0  0
  9 27  1  0  0  0  0
  9  8  2  0  0  0  0
 10  9  1  0  0  0  0
 11  1  1  0  0  0  0
 11  6  1  1  0  0  0
 12  1  1  0  0  0  0
 13 12  1  0  0  0  0
 13 28  1  0  0  0  0
 14 13  2  0  0  0  0
 15 16  2  0  0  0  0
 15 14  1  0  0  0  0
 16 17  1  0  0  0  0
 17  3  1  0  0  0  0
 17 12  2  0  0  0  0
 18  2  1  0  0  0  0
 18 10  1  1  0  0  0
 19  2  1  0  0  0  0
 20 19  1  0  0  0  0
 20 32  1  0  0  0  0
 21 20  2  0  0  0  0
 22 23  2  0  0  0  0
 22 21  1  0  0  0  0
 23 24  1  0  0  0  0
 24  4  1  0  0  0  0
 24 19  2  0  0  0  0
 29 14  1  0  0  0  0
 30 15  1  0  0  0  0
 31 16  1  0  0  0  0
 33 21  1  0  0  0  0
 34 22  1  0  0  0  0
 35 23  1  0  0  0  0
M  END
