1,4,7
q = -1.0, confidence = 0.108

 67 71  0  0  1  0  0  0  0  0999 V2000
   -1.9911   -0.0328    0.0181 N   0  0  0  0  0  2  0  0  0  0  0  0
   -3.0404   -0.8143    0.0241 N   0  0  0  0  0  2  0  0  0  0  0  0
   -4.1049    0.0055    0.0092 N   0  0  0  0  0  0  0  0  0  0  0  0
    1.9911   -0.0329   -0.0185 N   0  0  0  0  0  2  0  0  0  0  0  0
    3.0404   -0.8145   -0.0247 N   0  0  0  0  0  2  0  0  0  0  0  0
    4.1049    0.0053   -0.0093 N   0  0  0  0  0  0  0  0  0  0  0  0
    0.0000    1.5703   -0.0000 C   0  0  0  0  0  2  0  0  0  0  0  0
    1.2350    2.2632   -0.0013 C   0  0  2  0  0  3  0  0  0  0  0  0
    1.2457    3.6784   -0.0008 C   0  0  0  0  0  0  0  0  0  0  0  0
    0.0001    4.3455    0.0005 C   0  0  0  0  0  0  0  0  0  0  0  0
    0.0001    5.4474    0.0007 H   0  0  0  0  0  0  0  0  0  0  0  0
   -1.2456    3.6785    0.0015 C   0  0  0  0  0  0  0  0  0  0  0  0
   -1.2350    2.2633    0.0016 C   0  0  0  0  0  0  0  0  0  0  0  0
    2.5402    4.4475   -0.0014 C   0  0  0  0  0  0  0  0  0  0  0  0
    3.1608    4.1935   -0.8878 H   0  0  0  0  0  0  0  0  0  0  0  0
    3.1513    4.2115    0.8966 H   0  0  0  0  0  0  0  0  0  0  0  0
    2.3678    5.5407   -0.0129 H   0  0  0  0  0  0  0  0  0  0  0  0
   -2.5401    4.4476    0.0024 C   0  0  0  0  0  0  0  0  0  0  0  0
   -2.3676    5.5408    0.0145 H   0  0  0  0  0  0  0  0  0  0  0  0
   -3.1607    4.1932    0.8887 H   0  0  0  0  0  0  0  0  0  0  0  0
   -3.1511    4.2120   -0.8956 H   0  0  0  0  0  0  0  0  0  0  0  0
   -2.3498    1.3252    0.0059 C   0  0  0  0  0  0  0  0  0  0  0  0
   -3.7388    1.3303   -0.0043 C   0  0  0  0  0  0  0  0  0  0  0  0
   -4.4779    2.1333   -0.0347 H   0  0  0  0  0  0  0  0  0  0  0  0
   -5.4323   -0.5360   -0.0206 C   0  0  0  0  0  0  0  0  0  0  0  0
   -6.2684   -0.3514    1.1009 C   0  0  0  0  0  0  0  0  0  0  0  0
   -7.5696   -0.8829    1.0338 C   0  0  0  0  0  0  0  0  0  0  0  0
   -8.2377   -0.7542    1.9001 H   0  0  0  0  0  0  0  0  0  0  0  0
   -8.0306   -1.5846   -0.0938 C   0  0  0  0  0  0  0  0  0  0  0  0
   -7.1521   -1.7554   -1.1820 C   0  0  0  0  0  0  0  0  0  0  0  0
   -7.4950   -2.3071   -2.0720 H   0  0  0  0  0  0  0  0  0  0  0  0
   -5.8447   -1.2437   -1.1738 C   0  0  0  0  0  0  0  0  0  0  0  0
   -5.7850    0.3677    2.3349 C   0  0  0  0  0  0  0  0  0  0  0  0
   -6.4491    0.1597    3.1948 H   0  0  0  0  0  0  0  0  0  0  0  0
   -5.7626    1.4688    2.1935 H   0  0  0  0  0  0  0  0  0  0  0  0
   -4.7559    0.0590    2.6069 H   0  0  0  0  0  0  0  0  0  0  0  0
   -9.4220   -2.1633   -0.1388 C   0  0  0  0  0  0  0  0  0  0  0  0
   -9.9583   -1.8530   -1.0590 H   0  0  0  0  0  0  0  0  0  0  0  0
  -10.0262   -1.8487    0.7336 H   0  0  0  0  0  0  0  0  0  0  0  0
   -9.3908   -3.2732   -0.1455 H   0  0  0  0  0  0  0  0  0  0  0  0
   -4.9120   -1.4495   -2.3379 C   0  0  0  0  0  0  0  0  0  0  0  0
   -5.4524   -1.8637   -3.2094 H   0  0  0  0  0  0  0  0  0  0  0  0
   -4.0902   -2.1443   -2.0689 H   0  0  0  0  0  0  0  0  0  0  0  0
   -4.4273   -0.5003   -2.6461 H   0  0  0  0  0  0  0  0  0  0  0  0
    2.3498    1.3251   -0.0059 C   0  0  0  0  0  0  0  0  0  0  0  0
    3.7388    1.3302    0.0046 C   0  0  0  0  0  0  0  0  0  0  0  0
    4.4780    2.1332    0.0354 H   0  0  0  0  0  0  0  0  0  0  0  0
    5.4322   -0.5362    0.0206 C   0  0  0  0  0  0  0  0  0  0  0  0
    5.8441   -1.2448    1.1735 C   0  0  0  0  0  0  0  0  0  0  0  0
    7.1516   -1.7564    1.1819 C   0  0  0  0  0  0  0  0  0  0  0  0
    7.4941   -2.3088    2.0716 H   0  0  0  0  0  0  0  0  0  0  0  0
    8.0305   -1.5847    0.0943 C   0  0  0  0  0  0  0  0  0  0  0  0
    7.5700   -0.8821   -1.0330 C   0  0  0  0  0  0  0  0  0  0  0  0
    8.2386   -0.7528   -1.8989 H   0  0  0  0  0  0  0  0  0  0  0  0
    6.2688   -0.3507   -1.1004 C   0  0  0  0  0  0  0  0  0  0  0  0
    4.9110   -1.4515    2.3370 C   0  0  0  0  0  0  0  0  0  0  0  0
    4.4265   -0.5025    2.6461 H   0  0  0  0  0  0  0  0  0  0  0  0
    5.4510   -1.8668    3.2083 H   0  0  0  0  0  0  0  0  0  0  0  0
    4.0891   -2.1458    2.0671 H   0  0  0  0  0  0  0  0  0  0  0  0
    9.4221   -2.1631    0.1395 C   0  0  0  0  0  0  0  0  0  0  0  0
    9.9590   -1.8505    1.0586 H   0  0  0  0  0  0  0  0  0  0  0  0
   10.0256   -1.8504   -0.7340 H   0  0  0  0  0  0  0  0  0  0  0  0
    9.3911   -3.2730    0.1489 H   0  0  0  0  0  0  0  0  0  0  0  0
    5.7861    0.3693   -2.3340 C   0  0  0  0  0  0  0  0  0  0  0  0
    6.4500    0.1612   -3.1940 H   0  0  0  0  0  0  0  0  0  0  0  0
    5.7646    1.4704   -2.1921 H   0  0  0  0  0  0  0  0  0  0  0  0
    4.7567    0.0617   -2.6061 H   0  0  0  0  0  0  0  0  0  0  0  0
  1  2  1  0  0  0  0
  3  2  1  0  0  0  0
  4 45  1  0  0  0  0
  5  4  1  0  0  0  0
  5  6  1  0  0  0  0
  6 46  1  0  0  0  0
  6 48  1  0  0  0  0
  7 13  1  0  0  0  0
  8 45  1  6  0  0  0
  8  9  1  0  0  0  0
  8  7  1  0  0  0  0
  9 10  2  0  0  0  0
 10 11  1  0  0  0  0
 10 12  1  0  0  0  0
 12 13  2  0  0  0  0
 12 18  1  0  0  0  0
 13 22  1  0  0  0  0
 14  9  1  0  0  0  0
 14 16  1  0  0  0  0
 15 14  1  0  0  0  0
 17 14  1  0  0  0  0
 18 19  1  0  0  0  0
 18 20  1  0  0  0  0
 21 18  1  0  0  0  0
 22  1  1  0  0  0  0
 23 22  2  0  0  0  0
 23  3  1  0  0  0  0
 24 23  1  0  0  0  0
 25  3  1  0  0  0  0
 25 26  1  0  0  0  0
 26 33  1  0  0  0  0
 27 26  2  0  0  0  0
 27 28  1  0  0  0  0
 29 27  1  0  0  0  0
 30 32  1  0  0  0  0
 30 29  2  0  0  0  0
 31 30  1  0  0  0  0
 32 25  2  0  0  0  0
 33 36  1  0  0  0  0
 33 34  1  0  0  0  0
 35 33  1  0  0  0  0
 37 29  1  0  0  0  0
 37 39  1  0  0  0  0
 38 37  1  0  0  0  0
 40 37  1  0  0  0  0
 41 43  1  0  0  0  0
 41 32  1  0  0  0  0
 42 41  1  0  0  0  0
 44 41  1  0  0  0  0
 45 46  2  0  0  0  0
 46 47  1  0  0  0  0
 48 49  1  0  0  0  0
 49 50  2  0  0  0  0
 49 56  1  0  0  0  0
 50 51  1  0  0  0  0
 52 60  1  0  0  0  0
 52 50  1  0  0  0  0
 53 52  2  0  0  0  0
 54 53  1  0  0  0  0
 55 53  1  0  0  0  0
 55 48  2  0  0  0  0
 56 57  1  0  0  0  0
 56 58  1  0  0  0  0
 59 56  1  0  0  0  0
 60 63  1  0  0  0  0
 60 61  1  0  0  0  0
 62 60  1  0  0  0  0
 64 66  1  0  0  0  0
 64 55  1  0  0  0  0
 65 64  1  0  0  0  0
 67 64  1  0  0  0  0
M  END
