3,4,6
q = 0.0, confidence = 0.996

 58 62  0  0  1  0  0  0  0  0999 V2000
    3.0268    0.6694    0.6414 N   0  0  0  0  0  0  0  0  0  0  0  0
    3.8450   -0.6324   -0.8951 N   0  0  0  0  0  0  0  0  0  0  0  0
    0.2625    0.2391    0.3399 N   0  0  0  0  0  2  0  0  0  0  0  0
   -0.4888   -2.4353   -0.2339 N   0  0  0  0  0  2  0  0  0  0  0  0
   -1.0727    0.5962   -0.5647 P   0  0  0  0  0  4  0  0  0  0  0  0
    2.7572   -0.4644   -0.0855 C   0  0  0  0  0  2  0  0  0  0  0  0
    4.2741    1.1896    0.2972 C   0  0  0  0  0  0  0  0  0  0  0  0
    4.6700    2.1100    0.7325 H   0  0  0  0  0  0  0  0  0  0  0  0
    4.7828    0.3668   -0.6681 C   0  0  0  0  0  0  0  0  0  0  0  0
    5.7266    0.4139   -1.2195 H   0  0  0  0  0  0  0  0  0  0  0  0
    2.1200    1.2816    1.5479 C   0  0  0  0  0  0  0  0  0  0  0  0
    0.7227    1.1131    1.3438 C   0  0  0  0  0  0  0  0  0  0  0  0
   -0.1462    1.8565    2.1772 C   0  0  0  0  0  0  0  0  0  0  0  0
   -1.2321    1.7537    2.0463 H   0  0  0  0  0  0  0  0  0  0  0  0
    0.3431    2.6951    3.1864 C   0  0  0  0  0  0  0  0  0  0  0  0
   -0.3657    3.2500    3.8183 H   0  0  0  0  0  0  0  0  0  0  0  0
    1.7234    2.8016    3.4088 C   0  0  0  0  0  0  0  0  0  0  0  0
    2.1152    3.4307    4.2203 H   0  0  0  0  0  0  0  0  0  0  0  0
    2.6062    2.0898    2.5877 C   0  0  0  0  0  0  0  0  0  0  0  0
    3.6900    2.1584    2.7573 H   0  0  0  0  0  0  0  0  0  0  0  0
   -1.0543   -0.7105   -1.8606 C   0  0  0  0  0  0  0  0  0  0  0  0
   -1.8112   -0.4560   -2.6271 H   0  0  0  0  0  0  0  0  0  0  0  0
   -0.0447   -0.7100   -2.3216 H   0  0  0  0  0  0  0  0  0  0  0  0
   -1.3653   -2.0214   -1.1868 C   0  0  2  0  0  3  0  0  0  0  0  0
   -2.5404   -2.7357   -1.4625 C   0  0  0  0  0  0  0  0  0  0  0  0
   -3.2234   -2.3763   -2.2451 H   0  0  0  0  0  0  0  0  0  0  0  0
   -2.8270   -3.8942   -0.7282 C   0  0  0  0  0  0  0  0  0  0  0  0
   -3.7454   -4.4661   -0.9268 H   0  0  0  0  0  0  0  0  0  0  0  0
   -1.9229   -4.3058    0.2599 C   0  0  0  0  0  0  0  0  0  0  0  0
   -2.1048   -5.2052    0.8648 H   0  0  0  0  0  0  0  0  0  0  0  0
   -0.7597   -3.5586    0.4692 C   0  0  0  0  0  0  0  0  0  0  0  0
    0.0128   -3.8630    1.1905 H   0  0  0  0  0  0  0  0  0  0  0  0
   -2.6710    0.3542    0.2696 C   0  0  0  0  0  0  0  0  0  0  0  0
   -2.6952   -0.4146    1.4517 C   0  0  0  0  0  0  0  0  0  0  0  0
   -1.7491   -0.7536    1.9009 H   0  0  0  0  0  0  0  0  0  0  0  0
   -3.9247   -0.7419    2.0403 C   0  0  0  0  0  0  0  0  0  0  0  0
   -3.9456   -1.3369    2.9653 H   0  0  0  0  0  0  0  0  0  0  0  0
   -5.1241   -0.3104    1.4507 C   0  0  0  0  0  0  0  0  0  0  0  0
   -6.0874   -0.5665    1.9164 H   0  0  0  0  0  0  0  0  0  0  0  0
   -5.0997    0.4487    0.2686 C   0  0  0  0  0  0  0  0  0  0  0  0
   -6.0409    0.7853   -0.1910 H   0  0  0  0  0  0  0  0  0  0  0  0
   -3.8755    0.7814   -0.3291 C   0  0  0  0  0  0  0  0  0  0  0  0
   -3.8617    1.3728   -1.2578 H   0  0  0  0  0  0  0  0  0  0  0  0
   -0.9957    2.2444   -1.2995 C   0  0  0  0  0  0  0  0  0  0  0  0
   -1.7296    3.3237   -0.7625 C   0  0  0  0  0  0  0  0  0  0  0  0
   -2.4362    3.1603    0.0641 H   0  0  0  0  0  0  0  0  0  0  0  0
   -1.5527    4.6115   -1.2888 C   0  0  0  0  0  0  0  0  0  0  0  0
   -2.1238    5.4534   -0.8706 H   0  0  0  0  0  0  0  0  0  0  0  0
   -0.6495    4.8256   -2.3414 C   0  0  0  0  0  0  0  0  0  0  0  0
   -0.5167    5.8373   -2.7528 H   0  0  0  0  0  0  0  0  0  0  0  0
    0.0907    3.7533   -2.8688 C   0  0  0  0  0  0  0  0  0  0  0  0
    0.8015    3.9240   -3.6907 H   0  0  0  0  0  0  0  0  0  0  0  0
   -0.0719    2.4648   -2.3458 C   0  0  0  0  0  0  0  0  0  0  0  0
    0.5270    1.6333   -2.7482 H   0  0  0  0  0  0  0  0  0  0  0  0
    4.0486   -1.6886   -1.8810 C   0  0  0  0  0  0  0  0  0  0  0  0
    4.7694   -2.4368   -1.4999 H   0  0  0  0  0  0  0  0  0  0  0  0
    4.4308   -1.2398   -2.8181 H   0  0  0  0  0  0  0  0  0  0  0  0
    3.0917   -2.2058   -2.0576 H   0  0  0  0  0  0  0  0  0  0  0  0
  1 11  1  0  0  0  0
  2  9  1  0  0  0  0
  2  6  1  0  0  0  0
  3 12  1  0  0  0  0
  4 31  1  0  0  0  0
  5 33  1  0  0  0  0
  5  3  1  0  0  0  0
  6  1  1  0  0  0  0
  7  1  1  0  0  0  0
  7  8  1  0  0  0  0
  9  7  2  0  0  0  0
 10  9  1  0  0  0  0
 11 19  1  0  0  0  0
 12 11  2  0  0  0  0
 12 13  1  0  0  0  0
 13 15  2  0  0  0  0
 14 13  1  0  0  0  0
 15 17  1  0  0  0  0
 15 16  1  0  0  0  0
 17 18  1  0  0  0  0
 19 20  1  0  0  0  0
 19 17  2  0  0  0  0
 21  5  1  0  0  0  0
 22 21  1  0  0  0  0
 23 21  1  0  0  0  0
 24 21  1  1  0  0  0
 24  4  1  0  0  0  0
 25 24  1  0  0  0  0
 25 27  2  0  0  0  0
 26 25  1  0  0  0  0
 27 29  1  0  0  0  0
 28 27  1  0  0  0  0
 29 31  2  0  0  0  0
 29 30  1  0  0  0  0
 31 32  1  0  0  0  0
 33 34  1  0  0  0  0
 34 35  1  0  0  0  0
 34 36  2  0  0  0  0
 36 37  1  0  0  0  0
 38 39  1  0  0  0  0
 38 36  1  0  0  0  0
 40 38  2  0  0  0  0
 41 40  1  0  0  0  0
 42 40  1  0  0  0  0
 42 33  2  0  0  0  0
 43 42  1  0  0  0  0
 44 45  1  0  0  0  0
 44  5  1  0  0  0  0
 45 46  1  0  0  0  0
 47 48  1  0  0  0  0
 47 45  2  0  0  0  0
 49 47  1  0  0  0  0
 50 49  1  0  0  0  0
 51 53  1  0  0  0  0
 51 49  2  0  0  0  0
 52 51  1  0  0  0  0
 53 44  2  0  0  0  0
 54 53  1  0  0  0  0
 55 56  1  0  0  0  0
 55  2  1  0  0  0  0
 57 55  1  0  0  0  0
 58 55  1  0  0  0  0
M  END
