1,3,7
q = 0.0, confidence = 0.988

 41 44  0  0  1  0  0  0  0  0999 V2000
   -2.2214    0.2810   -1.7689 N   0  0  0  0  0  0  0  0  0  0  0  0
   -2.0661    0.9632   -2.5212 H   0  0  0  0  0  0  0  0  0  0  0  0
   -0.8808   -1.9114   -0.7467 N   0  0  0  0  0  2  0  0  0  0  0  0
   -3.3651    0.7831   -0.9315 C   0  0  0  0  0  0  0  0  0  0  0  0
   -3.1136    2.2240   -0.5475 C   0  0  0  0  0  0  0  0  0  0  0  0
   -1.9516    2.5853    0.1873 C   0  0  0  0  0  0  0  0  0  0  0  0
   -0.9478    1.6053    0.6518 C   0  0  0  0  0  3  0  0  0  0  0  0
   -1.2654    0.2945    1.1773 C   0  0  0  0  0  3  0  0  0  0  0  0
   -2.5729   -0.3590    1.2069 C   0  0  0  0  0  0  0  0  0  0  0  0
   -3.5990   -0.1425    0.2395 C   0  0  0  0  0  0  0  0  0  0  0  0
   -4.8221   -0.8309    0.3382 C   0  0  0  0  0  0  0  0  0  0  0  0
   -5.6004   -0.6353   -0.4179 H   0  0  0  0  0  0  0  0  0  0  0  0
   -5.0557   -1.7669    1.3533 C   0  0  0  0  0  0  0  0  0  0  0  0
   -4.0381   -2.0202    2.2897 C   0  0  0  0  0  0  0  0  0  0  0  0
   -2.8270   -1.3274    2.2141 C   0  0  0  0  0  0  0  0  0  0  0  0
   -4.0308    3.2127   -0.9466 C   0  0  0  0  0  0  0  0  0  0  0  0
   -3.8214    4.5653   -0.6439 C   0  0  0  0  0  0  0  0  0  0  0  0
   -2.6688    4.9347    0.0676 C   0  0  0  0  0  0  0  0  0  0  0  0
   -2.4830    5.9924    0.3101 H   0  0  0  0  0  0  0  0  0  0  0  0
   -1.7539    3.9561    0.4732 C   0  0  0  0  0  0  0  0  0  0  0  0
   -2.4672   -1.0499   -2.3607 C   0  0  0  0  0  0  0  0  0  0  0  0
   -1.8333   -1.1082   -3.2721 H   0  0  0  0  0  0  0  0  0  0  0  0
   -3.5303   -1.1874   -2.6599 H   0  0  0  0  0  0  0  0  0  0  0  0
   -2.0299   -2.1534   -1.4345 C   0  0  1  0  0  3  0  0  0  0  0  0
   -2.7172   -3.3711   -1.3265 C   0  0  0  0  0  0  0  0  0  0  0  0
   -2.2051   -4.3792   -0.5018 C   0  0  0  0  0  0  0  0  0  0  0  0
   -1.0091   -4.1336    0.1891 C   0  0  0  0  0  0  0  0  0  0  0  0
   -0.3856   -2.8919    0.0401 C   0  0  0  0  0  0  0  0  0  0  0  0
   -4.2835    0.7595   -1.5612 H   0  0  0  0  0  0  0  0  0  0  0  0
   -0.1083    2.0982    1.1709 H   0  0  0  0  0  0  0  0  0  0  0  0
   -0.6033   -0.0462    1.9886 H   0  0  0  0  0  0  0  0  0  0  0  0
   -6.0165   -2.2999    1.4090 H   0  0  0  0  0  0  0  0  0  0  0  0
   -4.1951   -2.7599    3.0902 H   0  0  0  0  0  0  0  0  0  0  0  0
   -2.0388   -1.5183    2.9593 H   0  0  0  0  0  0  0  0  0  0  0  0
   -4.9258    2.9097   -1.5143 H   0  0  0  0  0  0  0  0  0  0  0  0
   -4.5479    5.3250   -0.9689 H   0  0  0  0  0  0  0  0  0  0  0  0
   -0.8534    4.2460    1.0375 H   0  0  0  0  0  0  0  0  0  0  0  0
   -3.6572   -3.5115   -1.8791 H   0  0  0  0  0  0  0  0  0  0  0  0
   -2.7341   -5.3376   -0.3943 H   0  0  0  0  0  0  0  0  0  0  0  0
   -0.5600   -4.8891    0.8491 H   0  0  0  0  0  0  0  0  0  0  0  0
    0.5518   -2.6586    0.5629 H   0  0  0  0  0  0  0  0  0  0  0  0
  1  4  1  0  0  0  0
  2  1  1  0  0  0  0
  3 28  1  0  0  0  0
  4  5  1  0  0  0  0
  4 10  1  0  0  0  0
  5  6  1  0  0  0  0
  6 20  2  0  0  0  0
  6  7  1  0  0  0  0
  7 30  1  0  0  0  0
  7  8  1  0  0  0  0
  8  9  1  0  0  0  0
  8 31  1  0  0  0  0
  9 15  1  0  0  0  0
 10 11  1  0  0  0  0
 10  9  2  0  0  0  0
 11 13  2  0  0  0  0
 12 11  1  0  0  0  0
 13 32  1  0  0  0  0
 13 14  1  0  0  0  0
 14 33  1  0  0  0  0
 15 14  2  0  0  0  0
 15 34  1  0  0  0  0
 16 17  1  0  0  0  0
 16  5  2  0  0  0  0
 17 18  2  0  0  0  0
 18 19  1  0  0  0  0
 18 20  1  0  0  0  0
 20 37  1  0  0  0  0
 21  1  1  0  0  0  0
 22 21  1  0  0  0  0
 23 21  1  0  0  0  0
 24 21  1  6  0  0  0
 24 25  1  0  0  0  0
 24  3  1  0  0  0  0
 25 26  2  0  0  0  0
 26 39  1  0  0  0  0
 26 27  1  0  0  0  0
 27 40  1  0  0  0  0
 28 27  2  0  0  0  0
 28 41  1  0  0  0  0
 29  4  1  0  0  0  0
 35 16  1  0  0  0  0
 36 17  1  0  0  0  0
 38 25  1  0  0  0  0
M  END
