1,2,15
q = -1.0, confidence = 0.004

 32 34  0  0  1  0  0  0  0  0999 V2000
    2.0295    0.7127    0.1924 N   0  0  0  0  0  2  0  0  0  0  0  0
    0.5249   -1.4670    0.1693 N   0  0  0  0  0  2  0  0  0  0  0  0
    2.7046    1.8676    0.2740 C   0  0  0  0  0  3  0  0  0  0  0  0
    4.0633    1.9648   -0.0500 C   0  0  0  0  0  0  0  0  0  0  0  0
    4.7326    0.8085   -0.4786 C   0  0  0  0  0  0  0  0  0  0  0  0
    4.0296   -0.3993   -0.5494 C   0  0  0  0  0  0  0  0  0  0  0  0
    2.6663   -0.4217   -0.2014 C   0  0  0  0  0  0  0  0  0  0  0  0
    1.8408   -1.6467   -0.1583 C   0  0  1  0  0  3  0  0  0  0  0  0
    2.3639   -2.9373   -0.3337 C   0  0  0  0  0  0  0  0  0  0  0  0
    1.5332   -4.0437   -0.1310 C   0  0  0  0  0  0  0  0  0  0  0  0
    0.2182   -3.8340    0.2960 C   0  0  0  0  0  0  0  0  0  0  0  0
   -0.2702   -2.5247    0.4613 C   0  0  0  0  0  0  0  0  0  0  0  0
   -1.6299   -2.2521    1.0361 C   0  0  0  0  0  0  0  0  0  0  0  0
   -2.5155   -1.3295    0.2284 C   0  0  0  0  0  0  0  0  0  0  0  0
   -2.0463   -0.0680   -0.2018 C   0  0  0  0  0  3  0  0  0  0  0  0
   -2.9180    0.7491   -0.9495 C   0  0  0  0  0  0  0  0  0  0  0  0
   -4.2319    0.3458   -1.2359 C   0  0  0  0  0  0  0  0  0  0  0  0
   -4.6985   -0.8996   -0.7912 C   0  0  0  0  0  0  0  0  0  0  0  0
   -3.8330   -1.7326   -0.0702 C   0  0  0  0  0  0  0  0  0  0  0  0
    2.1215    2.7410    0.6044 H   0  0  0  0  0  0  0  0  0  0  0  0
    4.5812    2.9311    0.0290 H   0  0  0  0  0  0  0  0  0  0  0  0
    5.7966    0.8457   -0.7550 H   0  0  0  0  0  0  0  0  0  0  0  0
    4.5356   -1.3156   -0.8811 H   0  0  0  0  0  0  0  0  0  0  0  0
    3.4176   -3.0718   -0.6092 H   0  0  0  0  0  0  0  0  0  0  0  0
    1.9191   -5.0632   -0.2772 H   0  0  0  0  0  0  0  0  0  0  0  0
   -0.4497   -4.6787    0.5151 H   0  0  0  0  0  0  0  0  0  0  0  0
   -1.4339   -1.7525    2.0162 H   0  0  0  0  0  0  0  0  0  0  0  0
   -2.1394   -3.2148    1.2288 H   0  0  0  0  0  0  0  0  0  0  0  0
   -2.5585    1.7071   -1.3504 H   0  0  0  0  0  0  0  0  0  0  0  0
   -4.8886    1.0060   -1.8247 H   0  0  0  0  0  0  0  0  0  0  0  0
   -5.7252   -1.2275   -1.0143 H   0  0  0  0  0  0  0  0  0  0  0  0
   -4.1822   -2.7195    0.2764 H   0  0  0  0  0  0  0  0  0  0  0  0
  1  3  1  0  0  0  0
  2 12  1  0  0  0  0
  3 20  1  0  0  0  0
  4 21  1  0  0  0  0
  4  3  1  0  0  0  0
  5  4  2  0  0  0  0
  6  5  1  0  0  0  0
  6  7  2  0  0  0  0
  7  1  1  0  0  0  0
  8  7  1  1  0  0  0
  8  2  1  0  0  0  0
  9  8  1  0  0  0  0
  9 10  2  0  0  0  0
 10 11  1  0  0  0  0
 11 12  2  0  0  0  0
 11 26  1  0  0  0  0
 12 13  1  0  0  0  0
 13 28  1  0  0  0  0
 13 27  1  0  0  0  0
 14 13  1  0  0  0  0
 15 14  2  0  0  0  0
 16 15  1  0  0  0  0
 17 16  2  0  0  0  0
 17 18  1  0  0  0  0
 18 19  2  0  0  0  0
 19 14  1  0  0  0  0
 19 32  1  0  0  0  0
 22  5  1  0  0  0  0
 23  6  1  0  0  0  0
 24  9  1  0  0  0  0
 25 10  1  0  0  0  0
 29 16  1  0  0  0  0
 30 17  1  0  0  0  0
 31 18  1  0  0  0  0
M  END
