1,3,32
q = 0.0, confidence = 0.986

 56 59  0  0  1  0  0  0  0  0999 V2000
    1.8212    1.2783    0.2496 N   0  0  0  0  0  2  0  0  0  0  0  0
    2.8141   -1.5073    0.6175 N   0  0  0  0  0  0  0  0  0  0  0  0
    2.0248   -1.5055   -0.4911 N   0  0  0  0  0  2  0  0  0  0  0  0
   -0.4823    2.6181   -0.9215 N   0  0  0  0  0  0  0  0  0  0  0  0
   -2.1748    1.4573   -0.2191 N   0  0  0  0  0  0  0  0  0  0  0  0
    2.5317   -0.5697    1.6879 C   0  0  0  0  0  0  0  0  0  0  0  0
    3.2297   -0.7744    2.5181 H   0  0  0  0  0  0  0  0  0  0  0  0
    1.4962   -0.7426    2.0564 H   0  0  0  0  0  0  0  0  0  0  0  0
    2.6683    0.8684    1.2292 C   0  0  1  0  0  3  0  0  0  0  0  0
    3.6178    1.7426    1.7752 C   0  0  0  0  0  0  0  0  0  0  0  0
    4.2945    1.3855    2.5646 H   0  0  0  0  0  0  0  0  0  0  0  0
    3.6848    3.0624    1.3108 C   0  0  0  0  0  0  0  0  0  0  0  0
    4.4195    3.7662    1.7284 H   0  0  0  0  0  0  0  0  0  0  0  0
    2.7959    3.4727    0.3089 C   0  0  0  0  0  0  0  0  0  0  0  0
    2.8150    4.5020   -0.0766 H   0  0  0  0  0  0  0  0  0  0  0  0
    1.8709    2.5554   -0.2079 C   0  0  0  0  0  0  0  0  0  0  0  0
    0.8916    2.9321   -1.3014 C   0  0  0  0  0  0  0  0  0  0  0  0
    0.9594    4.0124   -1.5211 H   0  0  0  0  0  0  0  0  0  0  0  0
    1.1437    2.3753   -2.2295 H   0  0  0  0  0  0  0  0  0  0  0  0
    4.8654   -2.6233    1.5660 C   0  0  0  0  0  0  0  0  0  0  0  0
    5.4461   -1.7045    1.7917 H   0  0  0  0  0  0  0  0  0  0  0  0
    5.5839   -3.3951    1.2360 H   0  0  0  0  0  0  0  0  0  0  0  0
    4.4067   -2.9791    2.5121 H   0  0  0  0  0  0  0  0  0  0  0  0
    3.8474   -2.4000    0.4982 C   0  0  1  0  0  3  0  0  0  0  0  0
    3.6906   -2.9945   -0.7540 C   0  0  0  0  0  0  0  0  0  0  0  0
    4.3288   -3.7697   -1.1898 H   0  0  0  0  0  0  0  0  0  0  0  0
    2.5471   -2.4076   -1.3506 C   0  0  0  0  0  0  0  0  0  0  0  0
    1.9806   -2.6588   -2.7076 C   0  0  0  0  0  0  0  0  0  0  0  0
    2.2356   -1.8286   -3.3990 H   0  0  0  0  0  0  0  0  0  0  0  0
    0.8772   -2.7253   -2.6647 H   0  0  0  0  0  0  0  0  0  0  0  0
    2.3966   -3.5917   -3.1292 H   0  0  0  0  0  0  0  0  0  0  0  0
   -0.8648    1.3538   -0.5762 C   0  0  0  0  0  2  0  0  0  0  0  0
   -1.5366    3.5141   -0.7858 C   0  0  0  0  0  0  0  0  0  0  0  0
   -1.4440    4.5783   -1.0223 H   0  0  0  0  0  0  0  0  0  0  0  0
   -2.6043    2.7775   -0.3449 C   0  0  0  0  0  0  0  0  0  0  0  0
   -3.6295    3.0687   -0.0988 H   0  0  0  0  0  0  0  0  0  0  0  0
   -3.0159    0.4057    0.3045 C   0  0  0  0  0  0  0  0  0  0  0  0
   -4.0184   -0.1395   -0.5278 C   0  0  0  0  0  0  0  0  0  0  0  0
   -4.8408   -1.1328    0.0251 C   0  0  0  0  0  0  0  0  0  0  0  0
   -5.6235   -1.5790   -0.6085 H   0  0  0  0  0  0  0  0  0  0  0  0
   -4.6859   -1.5844    1.3509 C   0  0  0  0  0  0  0  0  0  0  0  0
   -3.6716   -1.0096    2.1367 C   0  0  0  0  0  0  0  0  0  0  0  0
   -3.5389   -1.3469    3.1768 H   0  0  0  0  0  0  0  0  0  0  0  0
   -2.8214   -0.0065    1.6378 C   0  0  0  0  0  0  0  0  0  0  0  0
   -1.7318    0.5835    2.4955 C   0  0  0  0  0  0  0  0  0  0  0  0
   -0.7334    0.2169    2.1695 H   0  0  0  0  0  0  0  0  0  0  0  0
   -1.8662    0.3028    3.5566 H   0  0  0  0  0  0  0  0  0  0  0  0
   -1.7012    1.6906    2.4332 H   0  0  0  0  0  0  0  0  0  0  0  0
   -4.1500    0.2734   -1.9691 C   0  0  0  0  0  0  0  0  0  0  0  0
   -5.0131   -0.2259   -2.4463 H   0  0  0  0  0  0  0  0  0  0  0  0
   -3.2327   -0.0173   -2.5238 H   0  0  0  0  0  0  0  0  0  0  0  0
   -4.2809    1.3677   -2.0929 H   0  0  0  0  0  0  0  0  0  0  0  0
   -5.5867   -2.6597    1.9000 C   0  0  0  0  0  0  0  0  0  0  0  0
   -5.3630   -2.8833    2.9602 H   0  0  0  0  0  0  0  0  0  0  0  0
   -5.4782   -3.6010    1.3223 H   0  0  0  0  0  0  0  0  0  0  0  0
   -6.6534   -2.3632    1.8296 H   0  0  0  0  0  0  0  0  0  0  0  0
  1  9  1  0  0  0  0
  2  6  1  0  0  0  0
  3  2  1  0  0  0  0
  4 33  1  0  0  0  0
  4 32  1  0  0  0  0
  5 37  1  0  0  0  0
  6  8  1  0  0  0  0
  6  7  1  0  0  0  0
  9  6  1  6  0  0  0
  9 10  1  0  0  0  0
 10 11  1  0  0  0  0
 12 13  1  0  0  0  0
 12 10  2  0  0  0  0
 14 12  1  0  0  0  0
 15 14  1  0  0  0  0
 16  1  1  0  0  0  0
 16 14  2  0  0  0  0
 17  4  1  0  0  0  0
 17 16  1  0  0  0  0
 18 17  1  0  0  0  0
 19 17  1  0  0  0  0
 20 21  1  0  0  0  0
 20 23  1  0  0  0  0
 22 20  1  0  0  0  0
 24  2  1  0  0  0  0
 24 20  1  1  0  0  0
 25 24  1  0  0  0  0
 26 25  1  0  0  0  0
 27 25  2  0  0  0  0
 27  3  1  0  0  0  0
 28 30  1  0  0  0  0
 28 27  1  0  0  0  0
 29 28  1  0  0  0  0
 31 28  1  0  0  0  0
 32  5  1  0  0  0  0
 33 35  2  0  0  0  0
 34 33  1  0  0  0  0
 35  5  1  0  0  0  0
 35 36  1  0  0  0  0
 37 44  1  0  0  0  0
 38 39  1  0  0  0  0
 38 37  2  0  0  0  0
 39 41  2  0  0  0  0
 40 39  1  0  0  0  0
 41 53  1  0  0  0  0
 41 42  1  0  0  0  0
 42 43  1  0  0  0  0
 44 42  2  0  0  0  0
 44 45  1  0  0  0  0
 45 47  1  0  0  0  0
 46 45  1  0  0  0  0
 48 45  1  0  0  0  0
 49 38  1  0  0  0  0
 50 49  1  0  0  0  0
 51 49  1  0  0  0  0
 52 49  1  0  0  0  0
 53 54  1  0  0  0  0
 55 53  1  0  0  0  0
 56 53  1  0  0  0  0
M  END
