1,2,6
q = -3.0, confidence = 0.454

 30 32  0  0  1  0  0  0  0  0999 V2000
    1.6969   -0.4194   -0.6245 N   0  0  0  0  0  0  0  0  0  0  0  0
   -1.6948   -0.4177   -0.6281 N   0  0  0  0  0  0  0  0  0  0  0  0
   -0.0011    2.1883   -0.5101 C   0  0  0  0  0  0  0  0  0  0  0  0
   -0.0026    2.3439   -1.5969 H   0  0  0  0  0  0  0  0  0  0  0  0
    1.1607    2.0073    0.2945 C   0  0  1  0  0  3  0  0  0  0  0  0
    0.7156    1.7269    1.6263 C   0  0  0  0  0  3  0  0  0  0  0  0
    1.3667    1.5139    2.4844 H   0  0  0  0  0  0  0  0  0  0  0  0
   -0.7124    1.7267    1.6283 C   0  0  0  0  0  3  0  0  0  0  0  0
   -1.3611    1.5138    2.4881 H   0  0  0  0  0  0  0  0  0  0  0  0
   -1.1608    2.0067    0.2976 C   0  0  0  0  0  0  0  0  0  0  0  0
    2.5680    1.8777   -0.2299 C   0  0  0  0  0  0  0  0  0  0  0  0
    2.7601    2.6527   -1.0019 H   0  0  0  0  0  0  0  0  0  0  0  0
    3.2938    2.0675    0.5903 H   0  0  0  0  0  0  0  0  0  0  0  0
    2.7442    0.4914   -0.8006 C   0  0  0  0  0  3  0  0  0  0  0  0
    3.7859   -0.1380   -1.4675 C   0  0  0  0  0  0  0  0  0  0  0  0
    4.7456    0.3134   -1.7475 H   0  0  0  0  0  0  0  0  0  0  0  0
    3.3655   -1.4899   -1.7172 C   0  0  0  0  0  0  0  0  0  0  0  0
    3.9399   -2.2694   -2.2329 H   0  0  0  0  0  0  0  0  0  0  0  0
    2.0903   -1.6283   -1.1881 C   0  0  0  0  0  0  0  0  0  0  0  0
    1.4266   -2.5015   -1.1684 H   0  0  0  0  0  0  0  0  0  0  0  0
   -2.5692    1.8764   -0.2237 C   0  0  0  0  0  0  0  0  0  0  0  0
   -3.2933    2.0615    0.5992 H   0  0  0  0  0  0  0  0  0  0  0  0
   -2.7651    2.6540   -0.9922 H   0  0  0  0  0  0  0  0  0  0  0  0
   -2.7439    0.4920   -0.7994 C   0  0  0  0  0  3  0  0  0  0  0  0
   -3.7854   -0.1367   -1.4673 C   0  0  0  0  0  0  0  0  0  0  0  0
   -4.7462    0.3141   -1.7444 H   0  0  0  0  0  0  0  0  0  0  0  0
   -3.3630   -1.4870   -1.7226 C   0  0  0  0  0  0  0  0  0  0  0  0
   -3.9366   -2.2655   -2.2405 H   0  0  0  0  0  0  0  0  0  0  0  0
   -2.0867   -1.6251   -1.1959 C   0  0  0  0  0  0  0  0  0  0  0  0
   -1.4213   -2.4970   -1.1811 H   0  0  0  0  0  0  0  0  0  0  0  0
  3  5  1  0  0  0  0
  3 10  2  0  0  0  0
  4  3  1  0  0  0  0
  5 11  1  6  0  0  0
  5  6  1  0  0  0  0
  6  8  1  0  0  0  0
  6  7  1  0  0  0  0
  8  9  1  0  0  0  0
 10  8  1  0  0  0  0
 11 13  1  0  0  0  0
 12 11  1  0  0  0  0
 14  1  1  0  0  0  0
 14 11  1  0  0  0  0
 15 14  1  0  0  0  0
 16 15  1  0  0  0  0
 17 15  2  0  0  0  0
 17 19  1  0  0  0  0
 18 17  1  0  0  0  0
 19 20  1  0  0  0  0
 19  1  2  0  0  0  0
 21 10  1  0  0  0  0
 21 22  1  0  0  0  0
 23 21  1  0  0  0  0
 24  2  1  0  0  0  0
 24 21  1  0  0  0  0
 25 24  1  0  0  0  0
 26 25  1  0  0  0  0
 27 25  2  0  0  0  0
 27 29  1  0  0  0  0
 28 27  1  0  0  0  0
 29 30  1  0  0  0  0
 29  2  2  0  0  0  0
M  END
