1,2,3
q = -1.0, confidence = 0.004

 35 37  0  0  0  0  0  0  0  0999 V2000
   -2.0171   -0.1834    0.0000 N   0  0  0  0  0  2  0  0  0  0  0  0
    2.0171   -0.1834    0.0000 N   0  0  0  0  0  2  0  0  0  0  0  0
   -0.0000    1.4075   -0.0000 C   0  0  0  0  0  2  0  0  0  0  0  0
   -1.2429    2.0847   -0.0000 C   0  0  0  0  0  0  0  0  0  0  0  0
   -1.2319    3.4941   -0.0000 C   0  0  0  0  0  0  0  0  0  0  0  0
   -2.1704    4.0710   -0.0000 H   0  0  0  0  0  0  0  0  0  0  0  0
   -0.0000    4.1795   -0.0000 C   0  0  0  0  0  0  0  0  0  0  0  0
   -0.0000    5.2794    0.0000 H   0  0  0  0  0  0  0  0  0  0  0  0
    1.2319    3.4941    0.0000 C   0  0  0  0  0  0  0  0  0  0  0  0
    2.1704    4.0710    0.0000 H   0  0  0  0  0  0  0  0  0  0  0  0
    1.2428    2.0847   -0.0000 C   0  0  0  0  0  0  0  0  0  0  0  0
   -2.3776    1.1557   -0.0000 C   0  0  0  0  0  0  0  0  0  0  0  0
   -3.7425    1.4914   -0.0000 C   0  0  0  0  0  0  0  0  0  0  0  0
   -4.0315    2.5518   -0.0000 H   0  0  0  0  0  0  0  0  0  0  0  0
   -4.7132    0.4872    0.0000 C   0  0  0  0  0  0  0  0  0  0  0  0
   -5.7810    0.7574    0.0000 H   0  0  0  0  0  0  0  0  0  0  0  0
   -4.3337   -0.8726    0.0000 C   0  0  0  0  0  0  0  0  0  0  0  0
   -2.9582   -1.1507    0.0000 C   0  0  0  0  0  3  0  0  0  0  0  0
   -2.5555   -2.1784    0.0000 H   0  0  0  0  0  0  0  0  0  0  0  0
    2.3776    1.1558    0.0000 C   0  0  0  0  0  0  0  0  0  0  0  0
    3.7425    1.4914   -0.0000 C   0  0  0  0  0  0  0  0  0  0  0  0
    4.0315    2.5519   -0.0000 H   0  0  0  0  0  0  0  0  0  0  0  0
    4.7132    0.4872   -0.0000 C   0  0  0  0  0  0  0  0  0  0  0  0
    5.7809    0.7574   -0.0000 H   0  0  0  0  0  0  0  0  0  0  0  0
    4.3337   -0.8726    0.0000 C   0  0  0  0  0  0  0  0  0  0  0  0
    2.9582   -1.1507    0.0000 C   0  0  0  0  0  0  0  0  0  0  0  0
    2.5555   -2.1784   -0.0000 H   0  0  0  0  0  0  0  0  0  0  0  0
   -5.3469   -1.9849    0.0000 C   0  0  0  0  0  0  0  0  0  0  0  0
   -6.0048   -1.9277    0.8920 H   0  0  0  0  0  0  0  0  0  0  0  0
   -4.8578   -2.9773   -0.0001 H   0  0  0  0  0  0  0  0  0  0  0  0
   -6.0050   -1.9275   -0.8918 H   0  0  0  0  0  0  0  0  0  0  0  0
    5.3469   -1.9849    0.0000 C   0  0  0  0  0  0  0  0  0  0  0  0
    6.0051   -1.9274   -0.8917 H   0  0  0  0  0  0  0  0  0  0  0  0
    4.8578   -2.9773   -0.0003 H   0  0  0  0  0  0  0  0  0  0  0  0
    6.0046   -1.9278    0.8921 H   0  0  0  0  0  0  0  0  0  0  0  0
  1 18  1  0  0  0  0
  3 11  1  0  0  0  0
  4  3  1  0  0  0  0
  4 12  1  0  0  0  0
  5  4  2  0  0  0  0
  5  6  1  0  0  0  0
  5  7  1  0  0  0  0
  7  9  2  0  0  0  0
  7  8  1  0  0  0  0
  9 10  1  0  0  0  0
 11  9  1  0  0  0  0
 11 20  2  0  0  0  0
 12 13  2  0  0  0  0
 12  1  1  0  0  0  0
 13 15  1  0  0  0  0
 14 13  1  0  0  0  0
 15 17  2  0  0  0  0
 16 15  1  0  0  0  0
 17 28  1  0  0  0  0
 18 19  1  0  0  0  0
 18 17  1  0  0  0  0
 20  2  1  0  0  0  0
 21 20  1  0  0  0  0
 22 21  1  0  0  0  0
 23 21  2  0  0  0  0
 23 25  1  0  0  0  0
 24 23  1  0  0  0  0
 25 26  2  0  0  0  0
 25 32  1  0  0  0  0
 26  2  1  0  0  0  0
 27 26  1  0  0  0  0
 28 29  1  0  0  0  0
 30 28  1  0  0  0  0
 31 28  1  0  0  0  0
 32 35  1  0  0  0  0
 33 32  1  0  0  0  0
 34 32  1  0  0  0  0
M  END
