2,3,4
q = -1.0, confidence = 0.04

 38 41  0  0  1  0  0  0  0  0999 V2000
   -1.6736    3.0675   -0.3888 O   0  0  0  0  0  0  0  0  0  0  0  0
    1.3550    1.1902    0.0403 N   0  0  0  0  0  2  0  0  0  0  0  0
   -1.1718    0.8644   -0.5868 N   0  0  0  0  0  2  0  0  0  0  0  0
    2.3218   -1.2189   -0.0628 C   0  0  0  0  0  2  0  0  0  0  0  0
    2.7929   -2.5406   -0.1286 C   0  0  0  0  0  3  0  0  0  0  0  0
    2.0878   -3.3401   -0.3997 H   0  0  0  0  0  0  0  0  0  0  0  0
    4.1406   -2.8274    0.1474 C   0  0  0  0  0  0  0  0  0  0  0  0
    4.4944   -3.8692    0.0914 H   0  0  0  0  0  0  0  0  0  0  0  0
    5.0440   -1.8043    0.4935 C   0  0  0  0  0  0  0  0  0  0  0  0
    6.0966   -2.0432    0.7068 H   0  0  0  0  0  0  0  0  0  0  0  0
    4.5982   -0.4806    0.5656 C   0  0  0  0  0  0  0  0  0  0  0  0
    5.3035    0.3210    0.8365 H   0  0  0  0  0  0  0  0  0  0  0  0
    3.2470   -0.1759    0.2917 C   0  0  0  0  0  0  0  0  0  0  0  0
    2.6862    1.1728    0.3427 C   0  0  0  0  0  0  0  0  0  0  0  0
    3.3192    2.3970    0.6512 C   0  0  0  0  0  0  0  0  0  0  0  0
    4.3898    2.4068    0.8975 H   0  0  0  0  0  0  0  0  0  0  0  0
    2.5808    3.5890    0.6416 C   0  0  0  0  0  0  0  0  0  0  0  0
    3.0771    4.5405    0.8825 H   0  0  0  0  0  0  0  0  0  0  0  0
    1.2097    3.5750    0.3256 C   0  0  0  0  0  0  0  0  0  0  0  0
    0.6006    4.4884    0.3084 H   0  0  0  0  0  0  0  0  0  0  0  0
    0.6279    2.3368    0.0262 C   0  0  0  0  0  0  0  0  0  0  0  0
   -0.7718    2.0760   -0.3258 C   0  0  0  0  0  0  0  0  0  0  0  0
   -2.9487    2.4262   -0.6987 C   0  0  0  0  0  0  0  0  0  0  0  0
   -3.3627    2.9134   -1.6021 H   0  0  0  0  0  0  0  0  0  0  0  0
   -3.6295    2.5939    0.1594 H   0  0  0  0  0  0  0  0  0  0  0  0
   -2.6041    0.9105   -0.8980 C   0  0  2  0  0  0  0  0  0  0  0  0
   -2.7331    0.6108   -1.9605 H   0  0  0  0  0  0  0  0  0  0  0  0
   -3.4441   -0.0162   -0.0388 C   0  0  0  0  0  0  0  0  0  0  0  0
   -2.9897   -0.4684    1.2127 C   0  0  0  0  0  0  0  0  0  0  0  0
   -1.9757   -0.2066    1.5496 H   0  0  0  0  0  0  0  0  0  0  0  0
   -3.8095   -1.2809    2.0094 C   0  0  0  0  0  0  0  0  0  0  0  0
   -3.4370   -1.6431    2.9794 H   0  0  0  0  0  0  0  0  0  0  0  0
   -5.0910   -1.6436    1.5673 C   0  0  0  0  0  0  0  0  0  0  0  0
   -5.7307   -2.2849    2.1922 H   0  0  0  0  0  0  0  0  0  0  0  0
   -5.5483   -1.1974    0.3171 C   0  0  0  0  0  0  0  0  0  0  0  0
   -6.5465   -1.4890   -0.0430 H   0  0  0  0  0  0  0  0  0  0  0  0
   -4.7258   -0.3919   -0.4834 C   0  0  0  0  0  0  0  0  0  0  0  0
   -5.0800   -0.0604   -1.4731 H   0  0  0  0  0  0  0  0  0  0  0  0
  1 22  1  0  0  0  0
  2 14  1  0  0  0  0
  3 22  1  0  0  0  0
  4 13  1  0  0  0  0
  5  4  1  0  0  0  0
  5  7  1  0  0  0  0
  6  5  1  0  0  0  0
  7  9  2  0  0  0  0
  8  7  1  0  0  0  0
  9 11  1  0  0  0  0
  9 10  1  0  0  0  0
 11 12  1  0  0  0  0
 13 14  1  0  0  0  0
 13 11  2  0  0  0  0
 14 15  2  0  0  0  0
 15 16  1  0  0  0  0
 17 15  1  0  0  0  0
 17 18  1  0  0  0  0
 19 17  2  0  0  0  0
 20 19  1  0  0  0  0
 21  2  1  0  0  0  0
 21 19  1  0  0  0  0
 22 21  2  0  0  0  0
 23  1  1  0  0  0  0
 23 25  1  0  0  0  0
 24 23  1  0  0  0  0
 26 27  1  6  0  0  0
 26 23  1  0  0  0  0
 26  3  1  0  0  0  0
 26 28  1  0  0  0  0
 28 29  1  0  0  0  0
 29 30  1  0  0  0  0
 29 31  2  0  0  0  0
 31 32  1  0  0  0  0
 33 31  1  0  0  0  0
 33 34  1  0  0  0  0
 35 33  2  0  0  0  0
 36 35  1  0  0  0  0
 37 28  2  0  0  0  0
 37 35  1  0  0  0  0
 38 37  1  0  0  0  0
M  END
