2,3,4
q = -1.0, confidence = 0.086

 44 48  0  0  1  0  0  0  0  0999 V2000
   -2.6010    2.7613   -0.6166 O   0  0  0  0  0  0  0  0  0  0  0  0
    0.7404    1.4460   -0.0190 N   0  0  0  0  0  2  0  0  0  0  0  0
   -1.6917    0.7035   -0.8552 N   0  0  0  0  0  2  0  0  0  0  0  0
    1.7463   -1.3157    0.0198 C   0  0  0  0  0  2  0  0  0  0  0  0
    1.7297   -2.7054    0.2084 C   0  0  0  0  0  0  0  0  0  0  0  0
    0.7799   -3.2420    0.0810 H   0  0  0  0  0  0  0  0  0  0  0  0
    2.9018   -3.4458    0.4899 C   0  0  0  0  0  0  0  0  0  0  0  0
    2.8333   -4.5359    0.6305 H   0  0  0  0  0  0  0  0  0  0  0  0
    4.1267   -2.8057    0.5306 C   0  0  0  0  0  0  0  0  0  0  0  0
    5.0616   -3.3671    0.6821 H   0  0  0  0  0  0  0  0  0  0  0  0
    4.2003   -1.3934    0.3711 C   0  0  0  0  0  0  0  0  0  0  0  0
    2.9848   -0.6074    0.1914 C   0  0  2  0  0  3  0  0  0  0  0  0
    3.1356    0.8355    0.2113 C   0  0  0  0  0  0  0  0  0  0  0  0
    4.4288    1.3911    0.1865 C   0  0  0  0  0  0  0  0  0  0  0  0
    4.5499    2.4794    0.1082 H   0  0  0  0  0  0  0  0  0  0  0  0
    5.5955    0.6068    0.2393 C   0  0  0  0  0  0  0  0  0  0  0  0
    6.5831    1.0892    0.1992 H   0  0  0  0  0  0  0  0  0  0  0  0
    5.4755   -0.7659    0.3792 C   0  0  0  0  0  0  0  0  0  0  0  0
    6.3692   -1.4008    0.4866 H   0  0  0  0  0  0  0  0  0  0  0  0
    2.0145    1.7944    0.3148 C   0  0  0  0  0  0  0  0  0  0  0  0
    2.2523    3.1165    0.7908 C   0  0  0  0  0  0  0  0  0  0  0  0
    3.2452    3.3693    1.1790 H   0  0  0  0  0  0  0  0  0  0  0  0
    1.2526    4.0853    0.8046 C   0  0  0  0  0  0  0  0  0  0  0  0
    1.4643    5.0979    1.1768 H   0  0  0  0  0  0  0  0  0  0  0  0
   -0.0228    3.7415    0.3353 C   0  0  0  0  0  0  0  0  0  0  0  0
   -0.8538    4.4573    0.2806 H   0  0  0  0  0  0  0  0  0  0  0  0
   -0.2359    2.4177   -0.0477 C   0  0  0  0  0  0  0  0  0  0  0  0
   -1.5321    1.9458   -0.5220 C   0  0  0  0  0  0  0  0  0  0  0  0
   -3.6290    1.9494   -1.2709 C   0  0  0  0  0  0  0  0  0  0  0  0
   -3.6816    2.2720   -2.3312 H   0  0  0  0  0  0  0  0  0  0  0  0
   -4.5932    2.1492   -0.7695 H   0  0  0  0  0  0  0  0  0  0  0  0
   -3.1305    0.4872   -1.1193 C   0  0  2  0  0  0  0  0  0  0  0  0
   -3.2362   -0.0912   -2.0566 H   0  0  0  0  0  0  0  0  0  0  0  0
   -3.7632   -0.2887    0.0268 C   0  0  0  0  0  0  0  0  0  0  0  0
   -4.0171    0.3394    1.2629 C   0  0  0  0  0  0  0  0  0  0  0  0
   -3.7684    1.4034    1.4051 H   0  0  0  0  0  0  0  0  0  0  0  0
   -4.5770   -0.3831    2.3260 C   0  0  0  0  0  0  0  0  0  0  0  0
   -4.7693    0.1179    3.2870 H   0  0  0  0  0  0  0  0  0  0  0  0
   -4.8871   -1.7429    2.1641 C   0  0  0  0  0  0  0  0  0  0  0  0
   -5.3257   -2.3116    2.9981 H   0  0  0  0  0  0  0  0  0  0  0  0
   -4.6277   -2.3755    0.9387 C   0  0  0  0  0  0  0  0  0  0  0  0
   -4.8554   -3.4444    0.8099 H   0  0  0  0  0  0  0  0  0  0  0  0
   -4.0640   -1.6539   -0.1237 C   0  0  0  0  0  0  0  0  0  0  0  0
   -3.8164   -2.1582   -1.0688 H   0  0  0  0  0  0  0  0  0  0  0  0
  1 28  1  0  0  0  0
  2 20  1  0  0  0  0
  3 28  1  0  0  0  0
  4  5  1  0  0  0  0
  5  7  2  0  0  0  0
  6  5  1  0  0  0  0
  7  9  1  0  0  0  0
  7  8  1  0  0  0  0
  9 10  1  0  0  0  0
 11 18  1  0  0  0  0
 11  9  2  0  0  0  0
 12  4  1  1  0  0  0
 12 13  1  0  0  0  0
 12 11  1  0  0  0  0
 13 20  1  0  0  0  0
 14 13  2  0  0  0  0
 14 16  1  0  0  0  0
 15 14  1  0  0  0  0
 16 18  2  0  0  0  0
 17 16  1  0  0  0  0
 18 19  1  0  0  0  0
 20 21  2  0  0  0  0
 21 23  1  0  0  0  0
 21 22  1  0  0  0  0
 23 24  1  0  0  0  0
 25 23  2  0  0  0  0
 26 25  1  0  0  0  0
 27  2  1  0  0  0  0
 27 25  1  0  0  0  0
 28 27  2  0  0  0  0
 29 32  1  0  0  0  0
 29 31  1  0  0  0  0
 29  1  1  0  0  0  0
 30 29  1  0  0  0  0
 32 33  1  6  0  0  0
 32  3  1  0  0  0  0
 32 34  1  0  0  0  0
 34 35  1  0  0  0  0
 35 36  1  0  0  0  0
 35 37  2  0  0  0  0
 37 38  1  0  0  0  0
 39 37  1  0  0  0  0
 39 40  1  0  0  0  0
 41 39  2  0  0  0  0
 42 41  1  0  0  0  0
 43 34  2  0  0  0  0
 43 41  1  0  0  0  0
 44 43  1  0  0  0  0
M  END
