2,3,5
q = -1.0, confidence = 0.006

 37 38  0  0  0  0  0  0  0  0999 V2000
   -2.7921    1.3762    0.3019 N   0  0  0  0  0  0  0  0  0  0  0  0
   -1.4654    1.5581    0.1821 N   0  0  0  0  0  2  0  0  0  0  0  0
    1.2024    1.5631   -0.0704 N   0  0  0  0  0  2  0  0  0  0  0  0
    2.5159    1.4814   -0.3280 N   0  0  0  0  0  0  0  0  0  0  0  0
   -2.1690   -0.9168   -0.1255 C   0  0  0  0  0  2  0  0  0  0  0  0
   -2.5166   -2.2644   -0.2750 C   0  0  0  0  0  3  0  0  0  0  0  0
   -3.8584   -2.6784   -0.1557 C   0  0  0  0  0  0  0  0  0  0  0  0
   -4.8620   -1.7426    0.1279 C   0  0  0  0  0  0  0  0  0  0  0  0
   -4.5398   -0.3848    0.2905 C   0  0  0  0  0  0  0  0  0  0  0  0
   -3.2021    0.0283    0.1588 C   0  0  0  0  0  0  0  0  0  0  0  0
   -3.6573    2.5171    0.4612 C   0  0  0  0  0  0  0  0  0  0  0  0
   -0.8492    2.7335    0.1959 C   0  0  0  0  0  0  0  0  0  0  0  0
    0.5764    2.7271    0.0170 C   0  0  0  0  0  0  0  0  0  0  0  0
    3.2695    2.6736   -0.6653 C   0  0  0  0  0  0  0  0  0  0  0  0
    3.1856    0.3040    0.1054 C   0  0  0  0  0  0  0  0  0  0  0  0
    4.2483   -0.2241   -0.6541 C   0  0  0  0  0  0  0  0  0  0  0  0
    4.8952   -1.3889   -0.2266 C   0  0  0  0  0  0  0  0  0  0  0  0
    4.4836   -2.0408    0.9479 C   0  0  0  0  0  0  0  0  0  0  0  0
    3.4246   -1.5122    1.7003 C   0  0  0  0  0  0  0  0  0  0  0  0
    2.7804   -0.3391    1.2909 C   0  0  0  0  0  0  0  0  0  0  0  0
   -1.7185   -2.9868   -0.4992 H   0  0  0  0  0  0  0  0  0  0  0  0
   -4.1153   -3.7406   -0.2888 H   0  0  0  0  0  0  0  0  0  0  0  0
   -5.9103   -2.0617    0.2276 H   0  0  0  0  0  0  0  0  0  0  0  0
   -5.3393    0.3335    0.5251 H   0  0  0  0  0  0  0  0  0  0  0  0
   -3.4071    3.0814    1.3863 H   0  0  0  0  0  0  0  0  0  0  0  0
   -3.5702    3.2083   -0.4071 H   0  0  0  0  0  0  0  0  0  0  0  0
   -4.7031    2.1775    0.5315 H   0  0  0  0  0  0  0  0  0  0  0  0
   -1.3911    3.6825    0.3198 H   0  0  0  0  0  0  0  0  0  0  0  0
    1.1040    3.6924   -0.0479 H   0  0  0  0  0  0  0  0  0  0  0  0
    3.3209    3.3861    0.1917 H   0  0  0  0  0  0  0  0  0  0  0  0
    2.8023    3.1942   -1.5277 H   0  0  0  0  0  0  0  0  0  0  0  0
    4.2999    2.3838   -0.9299 H   0  0  0  0  0  0  0  0  0  0  0  0
    4.5405    0.2546   -1.6004 H   0  0  0  0  0  0  0  0  0  0  0  0
    5.7137   -1.8062   -0.8323 H   0  0  0  0  0  0  0  0  0  0  0  0
    4.9862   -2.9642    1.2716 H   0  0  0  0  0  0  0  0  0  0  0  0
    3.0907   -2.0186    2.6180 H   0  0  0  0  0  0  0  0  0  0  0  0
    1.9485    0.0793    1.8739 H   0  0  0  0  0  0  0  0  0  0  0  0
  1 11  1  0  0  0  0
  2 12  1  0  0  0  0
  2  1  1  0  0  0  0
  3 13  1  0  0  0  0
  4  3  1  0  0  0  0
  4 15  1  0  0  0  0
  5 10  1  0  0  0  0
  6  7  1  0  0  0  0
  6  5  1  0  0  0  0
  7  8  2  0  0  0  0
  8 23  1  0  0  0  0
  8  9  1  0  0  0  0
  9 24  1  0  0  0  0
 10  9  2  0  0  0  0
 10  1  1  0  0  0  0
 11 27  1  0  0  0  0
 11 25  1  0  0  0  0
 12 28  1  0  0  0  0
 13 12  2  0  0  0  0
 14  4  1  0  0  0  0
 14 30  1  0  0  0  0
 15 20  1  0  0  0  0
 16 17  1  0  0  0  0
 16 15  2  0  0  0  0
 17 18  2  0  0  0  0
 18 35  1  0  0  0  0
 18 19  1  0  0  0  0
 19 36  1  0  0  0  0
 20 19  2  0  0  0  0
 20 37  1  0  0  0  0
 21  6  1  0  0  0  0
 22  7  1  0  0  0  0
 26 11  1  0  0  0  0
 29 13  1  0  0  0  0
 31 14  1  0  0  0  0
 32 14  1  0  0  0  0
 33 16  1  0  0  0  0
 34 17  1  0  0  0  0
M  END
