2,4,9
q = -1.0, confidence = 0.0

 42 44  0  0  1  0  0  0  0  0999 V2000
   -1.0647    1.4829   -0.9538 C   0  0  1  0  0  3  0  0  0  0  0  0
    2.3981   -0.6143    0.1582 N   0  0  0  0  0  2  0  0  0  0  0  0
    2.1547   -1.8697   -0.2948 C   0  0  1  0  0  3  0  0  0  0  0  0
   -0.0496   -1.0798   -0.6640 N   0  0  0  0  0  2  0  0  0  0  0  0
    4.6520   -1.2217    0.6780 C   0  0  0  0  0  0  0  0  0  0  0  0
    5.6333   -0.9226    1.0730 H   0  0  0  0  0  0  0  0  0  0  0  0
   -1.1298    3.9982    0.4824 C   0  0  0  0  0  0  0  0  0  0  0  0
   -1.1743    4.9462    1.0426 H   0  0  0  0  0  0  0  0  0  0  0  0
   -1.2587    1.4763    0.4413 C   0  0  0  0  0  3  0  0  0  0  0  0
   -1.7322    0.5891    0.8922 H   0  0  0  0  0  0  0  0  0  0  0  0
    0.4750   -3.2343   -1.3502 O   0  0  0  0  0  0  0  0  0  0  0  0
    3.6128   -0.2833    0.6370 C   0  0  0  0  0  0  0  0  0  0  0  0
    3.7110    0.7608    0.9794 H   0  0  0  0  0  0  0  0  0  0  0  0
    0.7706   -2.1509   -0.8294 C   0  0  0  0  0  0  0  0  0  0  0  0
    4.4179   -2.5252    0.2108 C   0  0  0  0  0  0  0  0  0  0  0  0
    5.2208   -3.2777    0.2331 H   0  0  0  0  0  0  0  0  0  0  0  0
   -1.3330    2.7371    1.2686 C   0  0  0  0  0  0  0  0  0  0  0  0
   -0.6000    2.6950    2.1032 H   0  0  0  0  0  0  0  0  0  0  0  0
   -2.3344    2.7503    1.7614 H   0  0  0  0  0  0  0  0  0  0  0  0
   -1.5305    0.3436   -1.8566 C   0  0  0  0  0  0  0  0  0  0  0  0
   -0.9278    0.3731   -2.7876 H   0  0  0  0  0  0  0  0  0  0  0  0
   -2.5794    0.5586   -2.1598 H   0  0  0  0  0  0  0  0  0  0  0  0
   -4.8609   -1.6947    0.2830 C   0  0  0  0  0  0  0  0  0  0  0  0
   -5.9145   -1.5902   -0.0185 H   0  0  0  0  0  0  0  0  0  0  0  0
   -1.3847   -1.0586   -1.2382 C   0  0  2  0  0  0  0  0  0  0  0  0
   -1.4142   -1.8215   -2.0487 H   0  0  0  0  0  0  0  0  0  0  0  0
   -4.5385   -2.2009    1.5524 C   0  0  0  0  0  0  0  0  0  0  0  0
   -5.3363   -2.4914    2.2526 H   0  0  0  0  0  0  0  0  0  0  0  0
   -0.7961    2.7831   -1.6870 C   0  0  0  0  0  0  0  0  0  0  0  0
    0.1987    2.7233   -2.1861 H   0  0  0  0  0  0  0  0  0  0  0  0
   -1.5209    2.8487   -2.5336 H   0  0  0  0  0  0  0  0  0  0  0  0
   -2.4862   -1.4447   -0.2457 C   0  0  0  0  0  0  0  0  0  0  0  0
   -2.1742   -1.9670    1.0234 C   0  0  0  0  0  0  0  0  0  0  0  0
   -1.1170   -2.0691    1.3092 H   0  0  0  0  0  0  0  0  0  0  0  0
   -0.8871    4.0190   -0.8391 C   0  0  0  0  0  0  0  0  0  0  0  0
   -0.7343    4.9819   -1.3528 H   0  0  0  0  0  0  0  0  0  0  0  0
   -3.8430   -1.3235   -0.6074 C   0  0  0  0  0  0  0  0  0  0  0  0
   -4.1133   -0.9402   -1.6041 H   0  0  0  0  0  0  0  0  0  0  0  0
   -3.1907   -2.3388    1.9168 C   0  0  0  0  0  0  0  0  0  0  0  0
   -2.9249   -2.7416    2.9062 H   0  0  0  0  0  0  0  0  0  0  0  0
    3.1495   -2.8532   -0.2844 C   0  0  0  0  0  0  0  0  0  0  0  0
    2.8824   -3.8465   -0.6740 H   0  0  0  0  0  0  0  0  0  0  0  0
  1 20  1  6  0  0  0
  1  9  1  0  0  0  0
  2 12  1  0  0  0  0
  3 14  1  6  0  0  0
  3 41  1  0  0  0  0
  3  2  1  0  0  0  0
  5  6  1  0  0  0  0
  7  8  1  0  0  0  0
  7 17  1  0  0  0  0
  9 10  1  0  0  0  0
  9 17  1  0  0  0  0
 11 14  2  0  0  0  0
 12  5  2  0  0  0  0
 12 13  1  0  0  0  0
 14  4  1  0  0  0  0
 15 16  1  0  0  0  0
 15  5  1  0  0  0  0
 17 19  1  0  0  0  0
 17 18  1  0  0  0  0
 20 25  1  0  0  0  0
 21 20  1  0  0  0  0
 22 20  1  0  0  0  0
 23 27  1  0  0  0  0
 24 23  1  0  0  0  0
 25 26  1  6  0  0  0
 25  4  1  0  0  0  0
 25 32  1  0  0  0  0
 27 39  2  0  0  0  0
 27 28  1  0  0  0  0
 29  1  1  0  0  0  0
 29 35  1  0  0  0  0
 30 29  1  0  0  0  0
 31 29  1  0  0  0  0
 32 33  2  0  0  0  0
 33 34  1  0  0  0  0
 33 39  1  0  0  0  0
 35  7  2  0  0  0  0
 36 35  1  0  0  0  0
 37 32  1  0  0  0  0
 37 23  2  0  0  0  0
 38 37  1  0  0  0  0
 39 40  1  0  0  0  0
 41 15  2  0  0  0  0
 42 41  1  0  0  0  0
M  END
