3,14,25
q = -1.0, confidence = 0.062

 63 68  0  0  0  0  0  0  0  0999 V2000
   -1.6061   -2.2401   -0.6783 S   0  0  0  0  0  0  0  0  0  0  0  0
   -6.1383   -2.2140    2.8880 S   0  0  0  0  0  0  0  0  0  0  0  0
    5.1936   -1.7554   -0.5779 N   0  0  0  0  0  2  0  0  0  0  0  0
    6.2957   -2.5007   -0.8066 C   0  0  0  0  0  3  0  0  0  0  0  0
    7.2468   -2.0009   -0.5571 H   0  0  0  0  0  0  0  0  0  0  0  0
    6.2124   -3.7987   -1.3190 C   0  0  0  0  0  0  0  0  0  0  0  0
    7.1335   -4.3725   -1.4912 H   0  0  0  0  0  0  0  0  0  0  0  0
    4.9465   -4.3376   -1.6020 C   0  0  0  0  0  0  0  0  0  0  0  0
    4.8503   -5.3563   -2.0064 H   0  0  0  0  0  0  0  0  0  0  0  0
    3.8043   -3.5650   -1.3649 C   0  0  0  0  0  0  0  0  0  0  0  0
    2.8014   -3.9610   -1.5775 H   0  0  0  0  0  0  0  0  0  0  0  0
    3.9292   -2.2640   -0.8489 C   0  0  0  0  0  0  0  0  0  0  0  0
    2.8345   -1.3342   -0.5483 C   0  0  0  0  0  0  0  0  0  0  0  0
    3.3080   -0.0997   -0.0453 C   0  0  0  0  0  2  0  0  0  0  0  0
    2.4360    0.9560    0.3130 C   0  0  0  0  0  0  0  0  0  0  0  0
    3.1655    2.1287    0.8110 C   0  0  0  0  0  0  0  0  0  0  0  0
    2.6038    3.3409    1.2456 C   0  0  0  0  0  0  0  0  0  0  0  0
    1.5115    3.4608    1.2258 H   0  0  0  0  0  0  0  0  0  0  0  0
    3.4316    4.3763    1.6935 C   0  0  0  0  0  0  0  0  0  0  0  0
    2.9931    5.3264    2.0334 H   0  0  0  0  0  0  0  0  0  0  0  0
    4.8235    4.1888    1.7026 C   0  0  0  0  0  0  0  0  0  0  0  0
    5.5079    4.9769    2.0460 H   0  0  0  0  0  0  0  0  0  0  0  0
    5.3446    2.9687    1.2622 C   0  0  0  0  0  0  0  0  0  0  0  0
    6.4227    2.7372    1.2353 H   0  0  0  0  0  0  0  0  0  0  0  0
    4.5456    1.9698    0.8303 N   0  0  0  0  0  2  0  0  0  0  0  0
    1.4489   -1.5066   -0.6988 C   0  0  0  0  0  0  0  0  0  0  0  0
    1.0407   -2.4447   -1.1087 H   0  0  0  0  0  0  0  0  0  0  0  0
    0.5489   -0.4662   -0.3426 C   0  0  0  0  0  0  0  0  0  0  0  0
    1.0535    0.7617    0.1675 C   0  0  0  0  0  0  0  0  0  0  0  0
    0.3410    1.5477    0.4597 H   0  0  0  0  0  0  0  0  0  0  0  0
   -0.8987   -0.6429   -0.4993 C   0  0  0  0  0  0  0  0  0  0  0  0
   -1.8994    0.3148   -0.5247 C   0  0  0  0  0  0  0  0  0  0  0  0
   -1.7055    1.3915   -0.4558 H   0  0  0  0  0  0  0  0  0  0  0  0
   -3.2241   -0.2233   -0.6653 C   0  0  0  0  0  0  0  0  0  0  0  0
   -3.2272   -1.6185   -0.7823 C   0  0  0  0  0  0  0  0  0  0  0  0
   -4.3739   -2.5515   -0.9979 C   0  0  0  0  0  0  0  0  0  0  0  0
   -4.7931   -2.9180   -0.0360 H   0  0  0  0  0  0  0  0  0  0  0  0
   -4.0738   -3.4323   -1.5987 H   0  0  0  0  0  0  0  0  0  0  0  0
   -5.1960   -2.0304   -1.5254 H   0  0  0  0  0  0  0  0  0  0  0  0
   -4.4346    0.5961   -0.7222 C   0  0  0  0  0  0  0  0  0  0  0  0
   -4.4859    1.8125   -1.6216 C   0  0  0  0  0  0  0  0  0  0  0  0
   -5.8637    2.4736   -1.3186 C   0  0  0  0  0  0  0  0  0  0  0  0
   -6.6962    1.3140   -0.6989 C   0  0  0  0  0  0  0  0  0  0  0  0
   -5.6580    0.3663   -0.1389 C   0  0  0  0  0  0  0  0  0  0  0  0
   -4.4126    1.4636   -2.9394 F   0  0  0  0  0  0  0  0  0  0  0  0
   -3.4664    2.6975   -1.3876 F   0  0  0  0  0  0  0  0  0  0  0  0
   -6.4390    3.0035   -2.4180 F   0  0  0  0  0  0  0  0  0  0  0  0
   -5.7059    3.4509   -0.3896 F   0  0  0  0  0  0  0  0  0  0  0  0
   -7.5722    1.7719    0.2320 F   0  0  0  0  0  0  0  0  0  0  0  0
   -7.4394    0.7045   -1.6849 F   0  0  0  0  0  0  0  0  0  0  0  0
   -6.0569   -0.6260    0.8527 C   0  0  0  0  0  0  0  0  0  0  0  0
   -7.3398   -1.2847    0.8147 C   0  0  0  0  0  0  0  0  0  0  0  0
   -8.0857   -1.0970    0.0308 H   0  0  0  0  0  0  0  0  0  0  0  0
   -7.5378   -2.1879    1.8352 C   0  0  0  0  0  0  0  0  0  0  0  0
   -8.7250   -3.0583    2.1042 C   0  0  0  0  0  0  0  0  0  0  0  0
   -9.5000   -2.8814    1.3339 H   0  0  0  0  0  0  0  0  0  0  0  0
   -9.1776   -2.8483    3.0958 H   0  0  0  0  0  0  0  0  0  0  0  0
   -8.4649   -4.1373    2.0840 H   0  0  0  0  0  0  0  0  0  0  0  0
   -5.2835   -1.0239    1.9477 C   0  0  0  0  0  0  0  0  0  0  0  0
   -3.9347   -0.5531    2.3860 C   0  0  0  0  0  0  0  0  0  0  0  0
   -3.1198   -1.1650    1.9429 H   0  0  0  0  0  0  0  0  0  0  0  0
   -3.8296   -0.5924    3.4879 H   0  0  0  0  0  0  0  0  0  0  0  0
   -3.7653    0.4895    2.0548 H   0  0  0  0  0  0  0  0  0  0  0  0
  1 31  1  0  0  0  0
  4  3  1  0  0  0  0
  4  5  1  0  0  0  0
  6  4  1  0  0  0  0
  7  6  1  0  0  0  0
  8 10  1  0  0  0  0
  8  6  2  0  0  0  0
  9  8  1  0  0  0  0
 10 12  2  0  0  0  0
 11 10  1  0  0  0  0
 12  3  1  0  0  0  0
 12 13  1  0  0  0  0
 13 14  1  0  0  0  0
 14 15  1  0  0  0  0
 15 16  2  0  0  0  0
 16 25  1  0  0  0  0
 16 17  1  0  0  0  0
 17 19  2  0  0  0  0
 18 17  1  0  0  0  0
 19 21  1  0  0  0  0
 19 20  1  0  0  0  0
 21 22  1  0  0  0  0
 23 21  2  0  0  0  0
 24 23  1  0  0  0  0
 25 23  1  0  0  0  0
 26 13  2  0  0  0  0
 26 28  1  0  0  0  0
 27 26  1  0  0  0  0
 28 29  2  0  0  0  0
 29 15  1  0  0  0  0
 29 30  1  0  0  0  0
 31 28  1  0  0  0  0
 32 31  2  0  0  0  0
 32 33  1  0  0  0  0
 34 32  1  0  0  0  0
 35  1  1  0  0  0  0
 35 34  2  0  0  0  0
 36 35  1  0  0  0  0
 36 37  1  0  0  0  0
 38 36  1  0  0  0  0
 39 36  1  0  0  0  0
 40 34  1  0  0  0  0
 40 44  2  0  0  0  0
 41 46  1  0  0  0  0
 41 42  1  0  0  0  0
 41 40  1  0  0  0  0
 42 43  1  0  0  0  0
 42 48  1  0  0  0  0
 43 44  1  0  0  0  0
 43 49  1  0  0  0  0
 44 51  1  0  0  0  0
 45 41  1  0  0  0  0
 47 42  1  0  0  0  0
 50 43  1  0  0  0  0
 51 59  2  0  0  0  0
 52 51  1  0  0  0  0
 52 54  2  0  0  0  0
 53 52  1  0  0  0  0
 54 55  1  0  0  0  0
 54  2  1  0  0  0  0
 55 57  1  0  0  0  0
 56 55  1  0  0  0  0
 58 55  1  0  0  0  0
 59 60  1  0  0  0  0
 59  2  1  0  0  0  0
 60 62  1  0  0  0  0
 61 60  1  0  0  0  0
 63 60  1  0  0  0  0
M  END
