7,10,17
q = -2.0, confidence = 0.968

 43 45  0  0  1  0  0  0  0  0999 V2000
    0.1124    0.5739   -2.3329 S   0  0  0  0  0  0  0  0  0  0  0  0
    2.7171    4.9575   -1.3802 F   0  0  0  0  0  0  0  0  0  0  0  0
    3.4743    4.0361    1.0594 F   0  0  0  0  0  0  0  0  0  0  0  0
    2.7276    1.5912    1.9234 F   0  0  0  0  0  0  0  0  0  0  0  0
    0.9184   -0.3533   -3.1685 O   0  0  0  0  0  0  0  0  0  0  0  0
   -0.9069    1.4248   -2.9953 O   0  0  0  0  0  0  0  0  0  0  0  0
   -0.4830    0.1671    1.5723 N   0  0  0  0  0  0  0  0  0  0  0  0
   -0.4536   -0.1689    2.5447 H   0  0  0  0  0  0  0  0  0  0  0  0
   -0.2707    1.1767    1.6091 H   0  0  0  0  0  0  0  0  0  0  0  0
   -0.5547   -0.3087   -1.0616 N   0  0  0  0  0  2  0  0  0  0  0  0
    1.2174    1.6457   -1.3880 C   0  0  0  0  0  0  0  0  0  0  0  0
    1.5503    2.9274   -1.8444 C   0  0  0  0  0  0  0  0  0  0  0  0
    1.1949    3.3086   -2.8125 H   0  0  0  0  0  0  0  0  0  0  0  0
    2.3427    3.7215   -1.0117 C   0  0  0  0  0  0  0  0  0  0  0  0
    2.7481    3.2496    0.2526 C   0  0  0  0  0  0  0  0  0  0  0  0
    2.3616    1.9617    0.6692 C   0  0  0  0  0  0  0  0  0  0  0  0
    1.6046    1.1063   -0.1424 C   0  0  0  0  0  3  0  0  0  0  0  0
   -1.8377   -0.0504    0.9890 C   0  0  2  0  0  0  0  0  0  0  0  0
   -2.0177   -1.1437    1.0369 H   0  0  0  0  0  0  0  0  0  0  0  0
   -1.7515    0.3416   -0.5054 C   0  0  2  0  0  0  0  0  0  0  0  0
   -1.6809    1.4564   -0.5486 H   0  0  0  0  0  0  0  0  0  0  0  0
   -2.9301    0.6750    1.7439 C   0  0  0  0  0  0  0  0  0  0  0  0
   -4.0748   -0.0197    2.1758 C   0  0  0  0  0  0  0  0  0  0  0  0
   -4.1588   -1.0981    1.9693 H   0  0  0  0  0  0  0  0  0  0  0  0
   -5.1112    0.6526    2.8404 C   0  0  0  0  0  0  0  0  0  0  0  0
   -6.0034    0.0966    3.1654 H   0  0  0  0  0  0  0  0  0  0  0  0
   -5.0119    2.0306    3.0856 C   0  0  0  0  0  0  0  0  0  0  0  0
   -5.8237    2.5596    3.6072 H   0  0  0  0  0  0  0  0  0  0  0  0
   -3.8740    2.7344    2.6579 C   0  0  0  0  0  0  0  0  0  0  0  0
   -3.7927    3.8166    2.8401 H   0  0  0  0  0  0  0  0  0  0  0  0
   -2.8432    2.0613    1.9874 C   0  0  0  0  0  0  0  0  0  0  0  0
   -1.9687    2.6334    1.6355 H   0  0  0  0  0  0  0  0  0  0  0  0
   -3.0290   -0.0710   -1.2226 C   0  0  0  0  0  0  0  0  0  0  0  0
   -4.1266    0.8054   -1.2920 C   0  0  0  0  0  0  0  0  0  0  0  0
   -4.0338    1.8232   -0.8825 H   0  0  0  0  0  0  0  0  0  0  0  0
   -5.3298    0.3935   -1.8830 C   0  0  0  0  0  0  0  0  0  0  0  0
   -6.1792    1.0917   -1.9377 H   0  0  0  0  0  0  0  0  0  0  0  0
   -5.4474   -0.9015   -2.4125 C   0  0  0  0  0  0  0  0  0  0  0  0
   -6.3894   -1.2232   -2.8824 H   0  0  0  0  0  0  0  0  0  0  0  0
   -4.3516   -1.7779   -2.3541 C   0  0  0  0  0  0  0  0  0  0  0  0
   -4.4315   -2.7889   -2.7828 H   0  0  0  0  0  0  0  0  0  0  0  0
   -3.1488   -1.3639   -1.7635 C   0  0  0  0  0  0  0  0  0  0  0  0
   -2.2674   -2.0220   -1.7396 H   0  0  0  0  0  0  0  0  0  0  0  0
  1 11  1  0  0  0  0
  1 10  1  0  0  0  0
  2 14  1  0  0  0  0
  5  1  2  0  0  0  0
  6  1  2  0  0  0  0
  7  9  1  0  0  0  0
  7  8  1  0  0  0  0
 10 20  1  0  0  0  0
 11 17  1  0  0  0  0
 12 11  2  0  0  0  0
 12 14  1  0  0  0  0
 13 12  1  0  0  0  0
 14 15  2  0  0  0  0
 15 16  1  0  0  0  0
 15  3  1  0  0  0  0
 16  4  1  0  0  0  0
 17 16  2  0  0  0  0
 18 19  1  1  0  0  0
 18  7  1  0  0  0  0
 18 22  1  0  0  0  0
 20 21  1  6  0  0  0
 20 18  1  0  0  0  0
 22 31  2  0  0  0  0
 22 23  1  0  0  0  0
 23 25  2  0  0  0  0
 24 23  1  0  0  0  0
 25 27  1  0  0  0  0
 25 26  1  0  0  0  0
 27 28  1  0  0  0  0
 29 30  1  0  0  0  0
 29 27  2  0  0  0  0
 31 29  1  0  0  0  0
 32 31  1  0  0  0  0
 33 20  1  0  0  0  0
 34 33  1  0  0  0  0
 34 35  1  0  0  0  0
 36 34  2  0  0  0  0
 37 36  1  0  0  0  0
 38 40  2  0  0  0  0
 38 36  1  0  0  0  0
 39 38  1  0  0  0  0
 40 42  1  0  0  0  0
 41 40  1  0  0  0  0
 42 43  1  0  0  0  0
 42 33  2  0  0  0  0
M  END
