3,7,36
q = 0.0, confidence = 0.988

 48 52  0  0  0  0  0  0  0  0999 V2000
    1.9340    1.8270    0.0546 N   0  0  0  0  0  0  0  0  0  0  0  0
   -0.1347    2.5082    0.1260 N   0  0  0  0  0  0  0  0  0  0  0  0
   -1.8233    1.0156    0.0607 N   0  0  0  0  0  2  0  0  0  0  0  0
    0.6520    3.6591    0.1165 C   0  0  0  0  0  0  0  0  0  0  0  0
    0.2369    4.6704    0.1368 H   0  0  0  0  0  0  0  0  0  0  0  0
    3.6305    0.7135   -1.3215 C   0  0  0  0  0  0  0  0  0  0  0  0
   -2.1489   -1.5970   -0.1747 N   0  0  0  0  0  2  0  0  0  0  0  0
    3.6804    0.4955    1.1472 C   0  0  0  0  0  0  0  0  0  0  0  0
    4.7739   -0.1044   -1.3822 C   0  0  0  0  0  0  0  0  0  0  0  0
    5.2024   -0.3345   -2.3709 H   0  0  0  0  0  0  0  0  0  0  0  0
   -4.1927    1.5075   -0.1235 C   0  0  0  0  0  0  0  0  0  0  0  0
   -5.5107    0.9513   -0.2726 C   0  0  0  0  0  0  0  0  0  0  0  0
   -6.3734    1.6331   -0.3087 H   0  0  0  0  0  0  0  0  0  0  0  0
    2.9689    1.2366   -2.5664 C   0  0  0  0  0  0  0  0  0  0  0  0
    3.5528    0.9717   -3.4671 H   0  0  0  0  0  0  0  0  0  0  0  0
    2.8612    2.3406   -2.5427 H   0  0  0  0  0  0  0  0  0  0  0  0
    1.9430    0.8173   -2.6743 H   0  0  0  0  0  0  0  0  0  0  0  0
   -5.7000   -0.4114   -0.3830 C   0  0  0  0  0  0  0  0  0  0  0  0
   -6.7157   -0.8163   -0.5058 H   0  0  0  0  0  0  0  0  0  0  0  0
   -1.5202    2.3280    0.0857 C   0  0  0  0  0  0  0  0  0  0  0  0
    6.6310   -1.4692   -0.3284 C   0  0  0  0  0  0  0  0  0  0  0  0
    6.6175   -2.1160   -1.2283 H   0  0  0  0  0  0  0  0  0  0  0  0
    6.7713   -2.1108    0.5633 H   0  0  0  0  0  0  0  0  0  0  0  0
    7.5332   -0.8264   -0.4119 H   0  0  0  0  0  0  0  0  0  0  0  0
   -3.1062    0.5960   -0.0719 C   0  0  0  0  0  0  0  0  0  0  0  0
    1.9489    3.2284    0.0723 C   0  0  0  0  0  0  0  0  0  0  0  0
    2.8876    3.7897    0.0508 H   0  0  0  0  0  0  0  0  0  0  0  0
   -4.5959   -1.3385   -0.3592 C   0  0  0  0  0  0  0  0  0  0  0  0
    4.8196   -0.3207    1.0272 C   0  0  0  0  0  0  0  0  0  0  0  0
    5.2850   -0.7194    1.9429 H   0  0  0  0  0  0  0  0  0  0  0  0
    5.3851   -0.6268   -0.2257 C   0  0  0  0  0  0  0  0  0  0  0  0
   -3.2809   -0.8193   -0.1947 C   0  0  0  0  0  0  0  0  0  0  0  0
    3.1087    0.9984   -0.0399 C   0  0  0  0  0  0  0  0  0  0  0  0
   -2.2939   -2.9178   -0.3239 C   0  0  0  0  0  0  0  0  0  0  0  0
   -1.3677   -3.5124   -0.3209 H   0  0  0  0  0  0  0  0  0  0  0  0
    0.6604    1.3459    0.0860 C   0  0  0  0  0  2  0  0  0  0  0  0
   -2.5352    3.3087    0.0461 C   0  0  0  0  0  0  0  0  0  0  0  0
   -2.2811    4.3766    0.0753 H   0  0  0  0  0  0  0  0  0  0  0  0
   -3.5594   -3.5281   -0.4875 C   0  0  0  0  0  0  0  0  0  0  0  0
   -3.6160   -4.6193   -0.6074 H   0  0  0  0  0  0  0  0  0  0  0  0
   -3.8657    2.8923   -0.0472 C   0  0  0  0  0  0  0  0  0  0  0  0
   -4.6691    3.6425   -0.0828 H   0  0  0  0  0  0  0  0  0  0  0  0
    3.0761    0.8079    2.4912 C   0  0  0  0  0  0  0  0  0  0  0  0
    3.6983    0.4032    3.3111 H   0  0  0  0  0  0  0  0  0  0  0  0
    2.0587    0.3732    2.5752 H   0  0  0  0  0  0  0  0  0  0  0  0
    2.9693    1.9007    2.6500 H   0  0  0  0  0  0  0  0  0  0  0  0
   -4.7119   -2.7467   -0.5039 C   0  0  0  0  0  0  0  0  0  0  0  0
   -5.7034   -3.2052   -0.6364 H   0  0  0  0  0  0  0  0  0  0  0  0
  1 26  1  0  0  0  0
  1 36  1  0  0  0  0
  3 20  1  0  0  0  0
  4  2  1  0  0  0  0
  4  5  1  0  0  0  0
  6 33  1  0  0  0  0
  8 43  1  0  0  0  0
  9  6  2  0  0  0  0
  9 31  1  0  0  0  0
 10  9  1  0  0  0  0
 11 25  1  0  0  0  0
 11 41  2  0  0  0  0
 12 11  1  0  0  0  0
 13 12  1  0  0  0  0
 14 16  1  0  0  0  0
 14  6  1  0  0  0  0
 15 14  1  0  0  0  0
 17 14  1  0  0  0  0
 18 28  1  0  0  0  0
 18 12  2  0  0  0  0
 19 18  1  0  0  0  0
 20  2  1  0  0  0  0
 21 31  1  0  0  0  0
 21 23  1  0  0  0  0
 22 21  1  0  0  0  0
 24 21  1  0  0  0  0
 25  3  1  0  0  0  0
 26  4  2  0  0  0  0
 27 26  1  0  0  0  0
 28 32  1  0  0  0  0
 29  8  1  0  0  0  0
 29 30  1  0  0  0  0
 31 29  2  0  0  0  0
 32  7  1  0  0  0  0
 32 25  2  0  0  0  0
 33  1  1  0  0  0  0
 33  8  2  0  0  0  0
 34 35  1  0  0  0  0
 34  7  1  0  0  0  0
 36  2  1  0  0  0  0
 37 38  1  0  0  0  0
 37 20  2  0  0  0  0
 39 34  2  0  0  0  0
 40 39  1  0  0  0  0
 41 37  1  0  0  0  0
 42 41  1  0  0  0  0
 43 45  1  0  0  0  0
 43 46  1  0  0  0  0
 43 44  1  0  0  0  0
 47 39  1  0  0  0  0
 47 28  2  0  0  0  0
 48 47  1  0  0  0  0
M  END
