2,4,23
q = 0.0, confidence = 0.99

 44 48  0  0  0  0  0  0  0  0999 V2000
    4.3482   -0.2742   -0.3808 N   0  0  0  0  0  0  0  0  0  0  0  0
   -1.9174   -1.6473   -0.0684 N   0  0  0  0  0  2  0  0  0  0  0  0
   -1.6173    2.3189    0.1106 C   0  0  0  0  0  0  0  0  0  0  0  0
   -1.7806    0.9821    0.1499 N   0  0  0  0  0  2  0  0  0  0  0  0
   -0.3123    2.6361   -0.2793 N   0  0  0  0  0  0  0  0  0  0  0  0
    1.5949    3.5544   -0.8964 C   0  0  0  0  0  0  0  0  0  0  0  0
    2.4265    4.2120   -1.1672 H   0  0  0  0  0  0  0  0  0  0  0  0
   -5.4462   -0.8272    0.8974 C   0  0  0  0  0  0  0  0  0  0  0  0
   -6.4048   -1.3323    1.0888 H   0  0  0  0  0  0  0  0  0  0  0  0
   -2.9958    0.4361    0.4090 C   0  0  0  0  0  0  0  0  0  0  0  0
   -4.3083   -1.6384    0.5422 C   0  0  0  0  0  0  0  0  0  0  0  0
   -1.9748   -2.9762   -0.2064 C   0  0  0  0  0  0  0  0  0  0  0  0
   -1.0442   -3.4737   -0.5191 H   0  0  0  0  0  0  0  0  0  0  0  0
    2.8907    1.4120   -1.3308 C   0  0  0  0  0  0  0  0  0  0  0  0
    3.5725    2.0927   -1.8805 H   0  0  0  0  0  0  0  0  0  0  0  0
    2.6078    0.6006   -2.0252 H   0  0  0  0  0  0  0  0  0  0  0  0
    5.0616   -0.2909    1.9206 C   0  0  0  0  0  0  0  0  0  0  0  0
    5.6693   -0.7549    2.7116 H   0  0  0  0  0  0  0  0  0  0  0  0
    3.5393    1.4155    1.1436 C   0  0  0  0  0  0  0  0  0  0  0  0
    2.9221    2.3094    1.3142 H   0  0  0  0  0  0  0  0  0  0  0  0
   -3.1611   -3.7114    0.0220 C   0  0  0  0  0  0  0  0  0  0  0  0
   -3.1478   -4.8027   -0.1090 H   0  0  0  0  0  0  0  0  0  0  0  0
    0.5332    1.5582   -0.5990 C   0  0  0  0  0  2  0  0  0  0  0  0
   -3.0655   -0.9885    0.2992 C   0  0  0  0  0  0  0  0  0  0  0  0
   -4.1250    1.2339    0.7286 C   0  0  0  0  0  0  0  0  0  0  0  0
    5.0675   -0.8310    0.6171 C   0  0  0  0  0  0  0  0  0  0  0  0
    0.3327    3.8574   -0.4634 C   0  0  0  0  0  0  0  0  0  0  0  0
   -0.1484    4.8239   -0.2915 H   0  0  0  0  0  0  0  0  0  0  0  0
   -4.3286   -3.0509    0.3967 C   0  0  0  0  0  0  0  0  0  0  0  0
   -5.2619   -3.6075    0.5700 H   0  0  0  0  0  0  0  0  0  0  0  0
    3.6110    0.8193   -0.1289 C   0  0  0  0  0  0  0  0  0  0  0  0
   -3.9266    2.6447    0.7385 C   0  0  0  0  0  0  0  0  0  0  0  0
   -4.7688    3.3100    0.9785 H   0  0  0  0  0  0  0  0  0  0  0  0
    4.2865    0.8463    2.1826 C   0  0  0  0  0  0  0  0  0  0  0  0
    4.2743    1.2945    3.1881 H   0  0  0  0  0  0  0  0  0  0  0  0
    5.8698   -2.0587    0.2772 C   0  0  0  0  0  0  0  0  0  0  0  0
    6.4358   -1.9006   -0.6619 H   0  0  0  0  0  0  0  0  0  0  0  0
    5.2002   -2.9287    0.1101 H   0  0  0  0  0  0  0  0  0  0  0  0
    6.5787   -2.3271    1.0822 H   0  0  0  0  0  0  0  0  0  0  0  0
   -2.6817    3.1929    0.4184 C   0  0  0  0  0  0  0  0  0  0  0  0
   -2.5364    4.2811    0.3925 H   0  0  0  0  0  0  0  0  0  0  0  0
   -5.3631    0.5477    0.9844 C   0  0  0  0  0  0  0  0  0  0  0  0
   -6.2540    1.1393    1.2423 H   0  0  0  0  0  0  0  0  0  0  0  0
    1.6944    2.1620   -0.9750 N   0  0  0  0  0  0  0  0  0  0  0  0
  1 31  2  0  0  0  0
  1 26  1  0  0  0  0
  2 24  1  0  0  0  0
  3  4  1  0  0  0  0
  3 40  2  0  0  0  0
  4 10  1  0  0  0  0
  5  3  1  0  0  0  0
  6 27  2  0  0  0  0
  7  6  1  0  0  0  0
  8 42  2  0  0  0  0
  8  9  1  0  0  0  0
 10 25  1  0  0  0  0
 11  8  1  0  0  0  0
 12  2  1  0  0  0  0
 12 21  2  0  0  0  0
 13 12  1  0  0  0  0
 14 44  1  0  0  0  0
 14 31  1  0  0  0  0
 15 14  1  0  0  0  0
 16 14  1  0  0  0  0
 17 34  1  0  0  0  0
 17 18  1  0  0  0  0
 19 20  1  0  0  0  0
 19 34  2  0  0  0  0
 21 29  1  0  0  0  0
 22 21  1  0  0  0  0
 23  5  1  0  0  0  0
 24 10  2  0  0  0  0
 24 11  1  0  0  0  0
 25 32  2  0  0  0  0
 25 42  1  0  0  0  0
 26 17  2  0  0  0  0
 27 28  1  0  0  0  0
 27  5  1  0  0  0  0
 29 11  2  0  0  0  0
 29 30  1  0  0  0  0
 31 19  1  0  0  0  0
 32 33  1  0  0  0  0
 34 35  1  0  0  0  0
 36 26  1  0  0  0  0
 36 39  1  0  0  0  0
 37 36  1  0  0  0  0
 38 36  1  0  0  0  0
 40 32  1  0  0  0  0
 41 40  1  0  0  0  0
 42 43  1  0  0  0  0
 44  6  1  0  0  0  0
 44 23  1  0  0  0  0
M  END
