3,4,5
q = 0.0, confidence = 0.998

 35 37  0  0  1  0  0  0  0  0999 V2000
   -0.9869    2.1391    0.4841 N   0  0  0  0  0  0  0  0  0  0  0  0
    0.9868    2.1392   -0.4840 N   0  0  0  0  0  0  0  0  0  0  0  0
    2.0699   -0.5209    0.0746 N   0  0  0  0  0  2  0  0  0  0  0  0
   -2.0699   -0.5210   -0.0746 N   0  0  0  0  0  2  0  0  0  0  0  0
   -0.0000    1.3726    0.0000 C   0  0  0  0  0  2  0  0  0  0  0  0
   -0.6178    3.5671    0.4659 C   0  0  0  0  0  0  0  0  0  0  0  0
   -0.3667    3.9075    1.4946 H   0  0  0  0  0  0  0  0  0  0  0  0
   -1.4464    4.1944    0.0830 H   0  0  0  0  0  0  0  0  0  0  0  0
    0.6177    3.5671   -0.4659 C   0  0  0  0  0  0  0  0  0  0  0  0
    0.3665    3.9074   -1.4947 H   0  0  0  0  0  0  0  0  0  0  0  0
    1.4462    4.1945   -0.0831 H   0  0  0  0  0  0  0  0  0  0  0  0
    2.0773    1.5682   -1.2607 C   0  0  0  0  0  0  0  0  0  0  0  0
    2.7953    2.3735   -1.5003 H   0  0  0  0  0  0  0  0  0  0  0  0
    1.6940    1.1662   -2.2276 H   0  0  0  0  0  0  0  0  0  0  0  0
    2.7995    0.4699   -0.5066 C   0  0  2  0  0  3  0  0  0  0  0  0
    4.1996    0.4711   -0.4310 C   0  0  0  0  0  0  0  0  0  0  0  0
    4.7639    1.2803   -0.9162 H   0  0  0  0  0  0  0  0  0  0  0  0
    4.8637   -0.5517    0.2590 C   0  0  0  0  0  0  0  0  0  0  0  0
    5.9618   -0.5590    0.3237 H   0  0  0  0  0  0  0  0  0  0  0  0
    4.0990   -1.5520    0.8682 C   0  0  0  0  0  0  0  0  0  0  0  0
    4.5640   -2.3754    1.4279 H   0  0  0  0  0  0  0  0  0  0  0  0
    2.7064   -1.5062    0.7565 C   0  0  0  0  0  0  0  0  0  0  0  0
    2.0572   -2.2865    1.1789 H   0  0  0  0  0  0  0  0  0  0  0  0
   -2.0773    1.5682    1.2607 C   0  0  0  0  0  0  0  0  0  0  0  0
   -2.7954    2.3734    1.5004 H   0  0  0  0  0  0  0  0  0  0  0  0
   -1.6940    1.1661    2.2277 H   0  0  0  0  0  0  0  0  0  0  0  0
   -2.7995    0.4699    0.5066 C   0  0  2  0  0  3  0  0  0  0  0  0
   -4.1996    0.4710    0.4309 C   0  0  0  0  0  0  0  0  0  0  0  0
   -4.7639    1.2802    0.9161 H   0  0  0  0  0  0  0  0  0  0  0  0
   -4.8637   -0.5517   -0.2591 C   0  0  0  0  0  0  0  0  0  0  0  0
   -5.9617   -0.5591   -0.3238 H   0  0  0  0  0  0  0  0  0  0  0  0
   -4.0989   -1.5520   -0.8683 C   0  0  0  0  0  0  0  0  0  0  0  0
   -4.5639   -2.3755   -1.4280 H   0  0  0  0  0  0  0  0  0  0  0  0
   -2.7063   -1.5063   -0.7565 C   0  0  0  0  0  0  0  0  0  0  0  0
   -2.0571   -2.2866   -1.1790 H   0  0  0  0  0  0  0  0  0  0  0  0
  1 24  1  0  0  0  0
  2  9  1  0  0  0  0
  2  5  1  0  0  0  0
  3 22  1  0  0  0  0
  4 27  1  0  0  0  0
  5  1  1  0  0  0  0
  6  1  1  0  0  0  0
  6  7  1  0  0  0  0
  8  6  1  0  0  0  0
  9 11  1  0  0  0  0
  9  6  1  0  0  0  0
 10  9  1  0  0  0  0
 12  2  1  0  0  0  0
 13 12  1  0  0  0  0
 14 12  1  0  0  0  0
 15 12  1  6  0  0  0
 15 16  1  0  0  0  0
 15  3  1  0  0  0  0
 16 18  2  0  0  0  0
 17 16  1  0  0  0  0
 18 19  1  0  0  0  0
 18 20  1  0  0  0  0
 20 21  1  0  0  0  0
 22 20  2  0  0  0  0
 22 23  1  0  0  0  0
 24 25  1  0  0  0  0
 24 26  1  0  0  0  0
 27 24  1  1  0  0  0
 28 27  1  0  0  0  0
 28 29  1  0  0  0  0
 30 28  2  0  0  0  0
 31 30  1  0  0  0  0
 32 34  2  0  0  0  0
 32 30  1  0  0  0  0
 33 32  1  0  0  0  0
 34  4  1  0  0  0  0
 35 34  1  0  0  0  0
M  END
