2,3,4,27,28
 OpenBabel05122313063D

 50 53  0  0  1  0  0  0  0  0999 V2000
   -3.8615   -0.0002   -0.0000 Cl  0  0  0  0  0  0  0  0  0  0  0  0
    0.8895   -0.9816    2.1660 S   0  0  0  0  0  1  0  0  0  0  0  0
    0.8897   -2.1659   -0.9817 S   0  0  0  0  0  1  0  0  0  0  0  0
   -1.6046   -0.0001   -0.0001 Si  0  0  0  0  0  0  0  0  0  0  0  0
   -1.6679   -1.5122    1.2467 N   0  0  0  0  0  0  0  0  0  0  0  0
   -0.9763   -2.8684    2.8524 N   0  0  0  0  0  0  0  0  0  0  0  0
   -1.6678   -1.2468   -1.5121 N   0  0  0  0  0  0  0  0  0  0  0  0
   -0.9762   -2.8526   -2.8682 N   0  0  0  0  0  0  0  0  0  0  0  0
   -0.6331   -1.7908    2.0805 C   0  0  1  0  0  3  0  0  0  0  0  0
   -0.1127   -3.4730    3.8473 C   0  0  0  0  0  0  0  0  0  0  0  0
    0.9374   -3.3858    3.5027 H   0  0  0  0  0  0  0  0  0  0  0  0
   -0.3772   -4.5402    3.9641 H   0  0  0  0  0  0  0  0  0  0  0  0
   -0.2037   -2.9634    4.8287 H   0  0  0  0  0  0  0  0  0  0  0  0
   -2.2571   -3.2799    2.4919 C   0  0  0  0  0  0  0  0  0  0  0  0
   -2.7457   -4.1331    2.9716 H   0  0  0  0  0  0  0  0  0  0  0  0
   -2.6734   -2.4383    1.4914 C   0  0  0  0  0  0  0  0  0  0  0  0
   -3.6131   -2.4065    0.9347 H   0  0  0  0  0  0  0  0  0  0  0  0
   -0.6329   -2.0806   -1.7907 C   0  0  1  0  0  3  0  0  0  0  0  0
   -0.1124   -3.8475   -3.4727 C   0  0  0  0  0  0  0  0  0  0  0  0
    0.9375   -3.5023   -3.3867 H   0  0  0  0  0  0  0  0  0  0  0  0
   -0.3778   -3.9654   -4.5396 H   0  0  0  0  0  0  0  0  0  0  0  0
   -0.2024   -4.8286   -2.9622 H   0  0  0  0  0  0  0  0  0  0  0  0
   -2.2570   -2.4923   -3.2797 C   0  0  0  0  0  0  0  0  0  0  0  0
   -2.7455   -2.9721   -4.1329 H   0  0  0  0  0  0  0  0  0  0  0  0
   -2.6733   -1.4917   -2.4383 C   0  0  0  0  0  0  0  0  0  0  0  0
   -3.6130   -0.9351   -2.4064 H   0  0  0  0  0  0  0  0  0  0  0  0
    0.8895    0.9817   -2.1659 S   0  0  0  0  0  1  0  0  0  0  0  0
    0.8893    2.1660    0.9817 S   0  0  0  0  0  1  0  0  0  0  0  0
   -1.6680    1.5119   -1.2468 N   0  0  0  0  0  0  0  0  0  0  0  0
   -0.9765    2.8682   -2.8524 N   0  0  0  0  0  0  0  0  0  0  0  0
   -1.6681    1.2466    1.5120 N   0  0  0  0  0  0  0  0  0  0  0  0
   -0.9768    2.8525    2.8681 N   0  0  0  0  0  0  0  0  0  0  0  0
   -0.6332    1.7907   -2.0806 C   0  0  1  0  0  3  0  0  0  0  0  0
   -0.1129    3.4730   -3.8472 C   0  0  0  0  0  0  0  0  0  0  0  0
    0.9372    3.3859   -3.5027 H   0  0  0  0  0  0  0  0  0  0  0  0
   -0.3775    4.5402   -3.9641 H   0  0  0  0  0  0  0  0  0  0  0  0
   -0.2038    2.9634   -4.8287 H   0  0  0  0  0  0  0  0  0  0  0  0
   -2.2574    3.2796   -2.4920 C   0  0  0  0  0  0  0  0  0  0  0  0
   -2.7460    4.1328   -2.9717 H   0  0  0  0  0  0  0  0  0  0  0  0
   -2.6736    2.4380   -1.4915 C   0  0  0  0  0  0  0  0  0  0  0  0
   -3.6133    2.4060   -0.9350 H   0  0  0  0  0  0  0  0  0  0  0  0
   -0.6333    2.0805    1.7906 C   0  0  1  0  0  3  0  0  0  0  0  0
   -0.1132    3.8474    3.4727 C   0  0  0  0  0  0  0  0  0  0  0  0
    0.9368    3.5024    3.3868 H   0  0  0  0  0  0  0  0  0  0  0  0
   -0.3787    3.9653    4.5395 H   0  0  0  0  0  0  0  0  0  0  0  0
   -0.2032    4.8285    2.9622 H   0  0  0  0  0  0  0  0  0  0  0  0
   -2.2576    2.4920    3.2795 C   0  0  0  0  0  0  0  0  0  0  0  0
   -2.7463    2.9717    4.1327 H   0  0  0  0  0  0  0  0  0  0  0  0
   -2.6738    1.4914    2.4379 C   0  0  0  0  0  0  0  0  0  0  0  0
   -3.6134    0.9348    2.4059 H   0  0  0  0  0  0  0  0  0  0  0  0
  4  1  1  0  0  0  0
  4  5  1  0  0  0  0
  4 31  1  0  0  0  0
  5 16  1  0  0  0  0
  5  9  1  0  0  0  0
  6 10  1  0  0  0  0
  7  4  1  0  0  0  0
  8 18  1  0  0  0  0
  9  2  1  6  0  0  0
  9  6  1  0  0  0  0
 10 12  1  0  0  0  0
 10 13  1  0  0  0  0
 11 10  1  0  0  0  0
 14  6  1  0  0  0  0
 14 15  1  0  0  0  0
 16 14  2  0  0  0  0
 17 16  1  0  0  0  0
 18  7  1  0  0  0  0
 18  3  1  6  0  0  0
 19 20  1  0  0  0  0
 19 22  1  0  0  0  0
 19  8  1  0  0  0  0
 21 19  1  0  0  0  0
 23  8  1  0  0  0  0
 23 25  2  0  0  0  0
 24 23  1  0  0  0  0
 25 26  1  0  0  0  0
 25  7  1  0  0  0  0
 29  4  1  0  0  0  0
 30 38  1  0  0  0  0
 30 33  1  0  0  0  0
 31 42  1  0  0  0  0
 31 49  1  0  0  0  0
 32 47  1  0  0  0  0
 32 43  1  0  0  0  0
 33 27  1  1  0  0  0
 33 29  1  0  0  0  0
 34 35  1  0  0  0  0
 34 30  1  0  0  0  0
 36 34  1  0  0  0  0
 37 34  1  0  0  0  0
 38 40  2  0  0  0  0
 39 38  1  0  0  0  0
 40 29  1  0  0  0  0
 40 41  1  0  0  0  0
 42 28  1  1  0  0  0
 42 32  1  0  0  0  0
 43 45  1  0  0  0  0
 44 43  1  0  0  0  0
 46 43  1  0  0  0  0
 47 48  1  0  0  0  0
 49 47  2  0  0  0  0
 50 49  1  0  0  0  0
M  END
