2
q = -1.0

  7  6  0  0  0  0  0  0  0  0999 V2000
   -3.1521   -0.9316   -1.1827 C   0  0  0  0  0  0  0  0  0  0  0  0
   -2.6428   -0.6924   -0.0278 O   0  5  0  0  0  0  0  0  0  0  0  0
   -2.7626   -0.5785   -2.3008 O   0  0  0  0  0  0  0  0  0  0  0  0
   -4.4871   -1.7317   -1.0847 C   0  0  0  0  0  0  0  0  0  0  0  0
   -4.4619   -2.6743   -0.1128 F   0  0  0  0  0  0  0  0  0  0  0  0
   -5.5068   -0.8745   -0.7915 F   0  0  0  0  0  0  0  0  0  0  0  0
   -4.7919   -2.3444   -2.2414 F   0  0  0  0  0  0  0  0  0  0  0  0
  1  4  1  0  0  0  0
  1  2  1  0  0  0  0
  3  1  2  0  0  0  0
  4  6  1  0  0  0  0
  4  5  1  0  0  0  0
  7  4  1  0  0  0  0
M  CHG  1   2  -1
M  END
