1
q = -1.0

  7  6  0  0  0  0  0  0  0  0999 V2000
   -0.3187    1.9224   -0.6211 O   0  5  0  0  0  0  0  0  0  0  0  0
    0.7663    3.0891    1.0036 O   0  0  0  0  0  0  0  0  0  0  0  0
    0.0412    3.0124   -0.0085 C   0  0  0  0  0  0  0  0  0  0  0  0
   -0.5104    4.2722   -0.6635 C   0  0  0  0  0  0  0  0  0  0  0  0
   -0.2124    5.1645   -0.0851 H   0  0  0  0  0  0  0  0  0  0  0  0
   -0.1261    4.3540   -1.7001 H   0  0  0  0  0  0  0  0  0  0  0  0
   -1.6150    4.2127   -0.7305 H   0  0  0  0  0  0  0  0  0  0  0  0
  1  3  1  0  0  0  0
  3  2  2  0  0  0  0
  4  5  1  0  0  0  0
  4  3  1  0  0  0  0
  6  4  1  0  0  0  0
  7  4  1  0  0  0  0
M  CHG  1   1  -1
M  END
