1
q = -1.0, confidence = 0.01

 18 18  0  0  0  0  0  0  0  0999 V2000
    0.8240   -1.2064   -1.0675 O   0  5  0  0  0  0  0  0  0  0  0  0
    1.9265   -1.9304   -1.3747 C   0  0  0  0  0  0  0  0  0  0  0  0
    2.4551   -1.8258   -2.6858 C   0  0  0  0  0  0  0  0  0  0  0  0
    3.5962   -2.5870   -2.9959 C   0  0  0  0  0  0  0  0  0  0  0  0
    4.0212   -2.5177   -4.0097 H   0  0  0  0  0  0  0  0  0  0  0  0
    4.1898   -3.4244   -2.0398 C   0  0  0  0  0  0  0  0  0  0  0  0
    5.0814   -4.0135   -2.3015 H   0  0  0  0  0  0  0  0  0  0  0  0
    3.6454   -3.5112   -0.7497 C   0  0  0  0  0  0  0  0  0  0  0  0
    4.1098   -4.1687    0.0021 H   0  0  0  0  0  0  0  0  0  0  0  0
    2.5078   -2.7676   -0.3891 C   0  0  0  0  0  0  0  0  0  0  0  0
    1.7874   -0.9218   -3.6859 C   0  0  0  0  0  0  0  0  0  0  0  0
    0.7264   -1.2076   -3.8424 H   0  0  0  0  0  0  0  0  0  0  0  0
    2.3055   -0.9523   -4.6631 H   0  0  0  0  0  0  0  0  0  0  0  0
    1.7719    0.1309   -3.3328 H   0  0  0  0  0  0  0  0  0  0  0  0
    1.9028   -2.8321    0.9872 C   0  0  0  0  0  0  0  0  0  0  0  0
    1.9441   -1.8423    1.4915 H   0  0  0  0  0  0  0  0  0  0  0  0
    2.4398   -3.5575    1.6272 H   0  0  0  0  0  0  0  0  0  0  0  0
    0.8331   -3.1307    0.9519 H   0  0  0  0  0  0  0  0  0  0  0  0
  2  1  1  0  0  0  0
  2 10  1  0  0  0  0
  3  2  2  0  0  0  0
  4  3  1  0  0  0  0
  4  6  2  0  0  0  0
  5  4  1  0  0  0  0
  6  8  1  0  0  0  0
  7  6  1  0  0  0  0
  8 10  2  0  0  0  0
  8  9  1  0  0  0  0
 10 15  1  0  0  0  0
 11 14  1  0  0  0  0
 11  3  1  0  0  0  0
 12 11  1  0  0  0  0
 13 11  1  0  0  0  0
 15 16  1  0  0  0  0
 15 17  1  0  0  0  0
 18 15  1  0  0  0  0
M  CHG  1   1  -1
M  END
