2
q = -1.0

 11 10  0  0  0  0  0  0  0  0999 V2000
   -2.3300   -0.5533    0.0003 C   0  0  0  0  0  0  0  0  0  0  0  0
   -1.0290   -0.4928    0.0002 O   0  5  0  0  0  0  0  0  0  0  0  0
   -2.8447   -1.9575    0.0011 C   0  0  0  0  0  0  0  0  0  0  0  0
   -2.0447   -2.7156    0.0017 H   0  0  0  0  0  0  0  0  0  0  0  0
   -3.0791    0.4468   -0.0001 O   0  0  0  0  0  0  0  0  0  0  0  0
   -4.1304   -2.3919    0.0010 C   0  0  0  0  0  0  0  0  0  0  0  0
   -4.2918   -3.4823    0.0016 H   0  0  0  0  0  0  0  0  0  0  0  0
   -5.4977   -0.3516   -0.0004 O   0  0  0  0  0  0  0  0  0  0  0  0
   -4.5512    0.0395   -0.0002 H   0  0  0  0  0  0  0  0  0  0  0  0
   -5.4644   -1.6790    0.0001 C   0  0  0  0  0  0  0  0  0  0  0  0
   -6.4788   -2.3648   -0.0002 O   0  0  0  0  0  0  0  0  0  0  0  0
  1  3  1  0  0  0  0
  2  1  1  0  0  0  0
  3  4  1  0  0  0  0
  5  1  2  0  0  0  0
  6  3  2  0  0  0  0
  6  7  1  0  0  0  0
  8  9  1  0  0  0  0
  8 10  1  0  0  0  0
 10  6  1  0  0  0  0
 11 10  2  0  0  0  0
M  CHG  1   2  -1
M  END
