2
q = -1.0

 23 23  0  0  1  0  0  0  0  0999 V2000
   -0.5415   -1.7702   -1.0140 C   0  0  0  0  0  0  0  0  0  0  0  0
    0.2914   -0.8055   -1.2807 O   0  5  0  0  0  0  0  0  0  0  0  0
   -0.4213   -2.6257   -0.1295 O   0  0  0  0  0  0  0  0  0  0  0  0
   -1.8218   -1.7147   -1.8860 C   0  0  1  0  0  0  0  0  0  0  0  0
   -1.5519   -1.1874   -2.8229 H   0  0  0  0  0  0  0  0  0  0  0  0
   -2.3354   -3.1257   -2.2143 C   0  0  0  0  0  0  0  0  0  0  0  0
   -1.5232   -3.6659   -2.7454 H   0  0  0  0  0  0  0  0  0  0  0  0
   -2.4736   -3.6819   -1.2641 H   0  0  0  0  0  0  0  0  0  0  0  0
   -3.6111   -3.1380   -3.0547 C   0  0  0  0  0  0  0  0  0  0  0  0
   -4.4516   -2.6420   -2.5269 H   0  0  0  0  0  0  0  0  0  0  0  0
   -3.9275   -4.1738   -3.2916 H   0  0  0  0  0  0  0  0  0  0  0  0
   -3.4672   -2.6042   -4.0176 H   0  0  0  0  0  0  0  0  0  0  0  0
   -2.8149   -0.8447   -1.1344 C   0  0  0  0  0  0  0  0  0  0  0  0
   -3.0254    0.4982   -1.5081 C   0  0  0  0  0  0  0  0  0  0  0  0
   -2.4724    0.9032   -2.3701 H   0  0  0  0  0  0  0  0  0  0  0  0
   -3.9281    1.3127   -0.8063 C   0  0  0  0  0  0  0  0  0  0  0  0
   -4.0897    2.3535   -1.1293 H   0  0  0  0  0  0  0  0  0  0  0  0
   -4.6377    0.7966    0.2903 C   0  0  0  0  0  0  0  0  0  0  0  0
   -5.3625    1.4257    0.8304 H   0  0  0  0  0  0  0  0  0  0  0  0
   -4.4238   -0.5359    0.6828 C   0  0  0  0  0  0  0  0  0  0  0  0
   -4.9740   -0.9503    1.5419 H   0  0  0  0  0  0  0  0  0  0  0  0
   -3.5151   -1.3436   -0.0146 C   0  0  0  0  0  0  0  0  0  0  0  0
   -3.3368   -2.3789    0.3107 H   0  0  0  0  0  0  0  0  0  0  0  0
  1  3  2  0  0  0  0
  2  1  1  0  0  0  0
  4  5  1  6  0  0  0
  4 13  1  0  0  0  0
  4  1  1  0  0  0  0
  6  4  1  0  0  0  0
  6  8  1  0  0  0  0
  7  6  1  0  0  0  0
  9 10  1  0  0  0  0
  9  6  1  0  0  0  0
 11  9  1  0  0  0  0
 12  9  1  0  0  0  0
 13 22  1  0  0  0  0
 14 13  2  0  0  0  0
 14 16  1  0  0  0  0
 15 14  1  0  0  0  0
 16 18  2  0  0  0  0
 17 16  1  0  0  0  0
 18 20  1  0  0  0  0
 18 19  1  0  0  0  0
 20 21  1  0  0  0  0
 22 23  1  0  0  0  0
 22 20  2  0  0  0  0
M  CHG  1   2  -1
M  END
