2
q = -1.0

 27 28  0  0  0  0  0  0  0  0999 V2000
    0.9214   -1.2428   -0.8804 C   0  0  0  0  0  0  0  0  0  0  0  0
   -0.1179   -0.5351   -1.2112 O   0  5  0  0  0  0  0  0  0  0  0  0
    0.9126   -2.2748   -0.2040 O   0  0  0  0  0  0  0  0  0  0  0  0
    2.2540   -0.6557   -1.4515 C   0  0  0  0  0  0  0  0  0  0  0  0
    2.2087   -0.9122   -2.5323 H   0  0  0  0  0  0  0  0  0  0  0  0
    2.2713    0.8704   -1.3757 C   0  0  0  0  0  0  0  0  0  0  0  0
    1.5477    1.6249   -2.3258 C   0  0  0  0  0  0  0  0  0  0  0  0
    0.9742    1.0953   -3.1005 H   0  0  0  0  0  0  0  0  0  0  0  0
    1.5506    3.0248   -2.2909 C   0  0  0  0  0  0  0  0  0  0  0  0
    0.9862    3.5893   -3.0494 H   0  0  0  0  0  0  0  0  0  0  0  0
    2.2781    3.7080   -1.3008 C   0  0  0  0  0  0  0  0  0  0  0  0
    2.2951    4.8088   -1.2827 H   0  0  0  0  0  0  0  0  0  0  0  0
    2.9928    2.9708   -0.3461 C   0  0  0  0  0  0  0  0  0  0  0  0
    3.5733    3.4902    0.4320 H   0  0  0  0  0  0  0  0  0  0  0  0
    2.9879    1.5663   -0.3824 C   0  0  0  0  0  0  0  0  0  0  0  0
    3.5712    1.0015    0.3594 H   0  0  0  0  0  0  0  0  0  0  0  0
    3.5004   -1.2995   -0.8775 C   0  0  0  0  0  0  0  0  0  0  0  0
    4.5899   -1.5824   -1.7230 C   0  0  0  0  0  0  0  0  0  0  0  0
    4.4977   -1.3792   -2.8021 H   0  0  0  0  0  0  0  0  0  0  0  0
    5.7851   -2.1141   -1.2149 C   0  0  0  0  0  0  0  0  0  0  0  0
    6.6211   -2.3318   -1.8973 H   0  0  0  0  0  0  0  0  0  0  0  0
    5.9115   -2.3695    0.1587 C   0  0  0  0  0  0  0  0  0  0  0  0
    6.8459   -2.7892    0.5617 H   0  0  0  0  0  0  0  0  0  0  0  0
    4.8324   -2.0928    1.0136 C   0  0  0  0  0  0  0  0  0  0  0  0
    4.9187   -2.2982    2.0921 H   0  0  0  0  0  0  0  0  0  0  0  0
    3.6385   -1.5651    0.5013 C   0  0  0  0  0  0  0  0  0  0  0  0
    2.7908   -1.3773    1.1742 H   0  0  0  0  0  0  0  0  0  0  0  0
  1  3  2  0  0  0  0
  2  1  1  0  0  0  0
  4  6  1  0  0  0  0
  4  1  1  0  0  0  0
  4 17  1  0  0  0  0
  5  4  1  0  0  0  0
  6 15  1  0  0  0  0
  7  9  1  0  0  0  0
  7  6  2  0  0  0  0
  8  7  1  0  0  0  0
  9 11  2  0  0  0  0
 10  9  1  0  0  0  0
 11 12  1  0  0  0  0
 11 13  1  0  0  0  0
 13 14  1  0  0  0  0
 15 13  2  0  0  0  0
 15 16  1  0  0  0  0
 17 26  1  0  0  0  0
 18 20  1  0  0  0  0
 18 17  2  0  0  0  0
 19 18  1  0  0  0  0
 20 22  2  0  0  0  0
 21 20  1  0  0  0  0
 22 23  1  0  0  0  0
 22 24  1  0  0  0  0
 24 25  1  0  0  0  0
 26 24  2  0  0  0  0
 26 27  1  0  0  0  0
M  CHG  1   2  -1
M  END
