2
q = -1.0, confidence = 0.008

 20 19  0  0  1  0  0  0  0  0999 V2000
    1.2554   -0.4930   -1.1317 C   0  0  0  0  0  0  0  0  0  0  0  0
   -0.0263   -0.4325   -1.3401 O   0  5  0  0  0  0  0  0  0  0  0  0
    2.0816    0.3395   -2.1486 C   0  0  2  0  0  0  0  0  0  0  0  0
    2.3302   -0.3305   -3.0000 H   0  0  0  0  0  0  0  0  0  0  0  0
    1.8329   -1.1128   -0.2335 O   0  0  0  0  0  0  0  0  0  0  0  0
    4.3003   -0.1918   -1.4728 C   0  0  0  0  0  0  0  0  0  0  0  0
    3.3111    0.7177   -1.4929 O   0  0  0  0  0  0  0  0  0  0  0  0
    5.3874    0.1509   -0.4543 C   0  0  1  0  0  0  0  0  0  0  0  0
    5.7502    1.1804   -0.7014 H   0  0  0  0  0  0  0  0  0  0  0  0
    4.3671   -1.1848   -2.1792 O   0  0  0  0  0  0  0  0  0  0  0  0
    4.7972    0.1713    0.9636 C   0  0  0  0  0  0  0  0  0  0  0  0
    4.3423   -0.8111    1.1949 H   0  0  0  0  0  0  0  0  0  0  0  0
    4.0068    0.9428    1.0433 H   0  0  0  0  0  0  0  0  0  0  0  0
    5.6027    0.3816    1.6944 H   0  0  0  0  0  0  0  0  0  0  0  0
    6.4340   -0.7766   -0.5768 O   0  0  0  0  0  0  0  0  0  0  0  0
    6.0959   -1.4293   -1.2329 H   0  0  0  0  0  0  0  0  0  0  0  0
    1.3957    1.6088   -2.6212 C   0  0  0  0  0  0  0  0  0  0  0  0
    1.1832    2.2789   -1.7633 H   0  0  0  0  0  0  0  0  0  0  0  0
    0.4344    1.3501   -3.1008 H   0  0  0  0  0  0  0  0  0  0  0  0
    2.0332    2.1530   -3.3452 H   0  0  0  0  0  0  0  0  0  0  0  0
  1  5  2  0  0  0  0
  2  1  1  0  0  0  0
  3  4  1  6  0  0  0
  3  7  1  0  0  0  0
  3  1  1  0  0  0  0
  6  8  1  0  0  0  0
  7  6  1  0  0  0  0
  8  9  1  6  0  0  0
  8 11  1  0  0  0  0
 10  6  2  0  0  0  0
 11 13  1  0  0  0  0
 11 12  1  0  0  0  0
 11 14  1  0  0  0  0
 15  8  1  0  0  0  0
 16 15  1  0  0  0  0
 17  3  1  0  0  0  0
 17 18  1  0  0  0  0
 19 17  1  0  0  0  0
 20 17  1  0  0  0  0
M  CHG  1   2  -1
M  END
