1
q = -1.0

  4  3  0  0  0  0  0  0  0  0999 V2000
   -1.6036   -0.5090    2.1374 O   0  0  0  0  0  0  0  0  0  0  0  0
   -1.5246    1.7016    2.1774 O   0  0  0  0  0  0  0  0  0  0  0  0
   -3.0928    0.6194    3.2573 O   0  0  0  0  0  0  0  0  0  0  0  0
   -2.0961    0.6619    2.5502 N   0  0  0  0  0  0  0  0  0  0  0  0
  1  4  1  0  0  0  0
  2  4  2  0  0  0  0
  4  3  2  0  0  0  0
M  END
