1
q = -1.0

 18 18  0  0  0  0  0  0  0  0999 V2000
    0.9450    0.6857   -1.0887 O   0  5  0  0  0  0  0  0  0  0  0  0
    3.2539   -2.7744   -1.3137 O   0  0  0  0  0  0  0  0  0  0  0  0
    1.4851   -1.7607   -2.0948 O   0  0  0  0  0  0  0  0  0  0  0  0
    1.4293    3.4229   -1.1729 O   0  0  0  0  0  0  0  0  0  0  0  0
    2.1238    3.6716    0.8887 O   0  0  0  0  0  0  0  0  0  0  0  0
    6.9805   -0.3643    0.3407 O   0  0  0  0  0  0  0  0  0  0  0  0
    6.7830    1.7358    0.9303 O   0  0  0  0  0  0  0  0  0  0  0  0
    2.5746   -1.7512   -1.4960 N   0  0  0  0  0  0  0  0  0  0  0  0
    2.0886    3.0724   -0.1922 N   0  0  0  0  0  0  0  0  0  0  0  0
    6.3419    0.6850    0.4552 N   0  0  0  0  0  0  0  0  0  0  0  0
    3.0700   -0.4938   -0.9717 C   0  0  0  0  0  0  0  0  0  0  0  0
    4.4008   -0.4758   -0.5463 C   0  0  0  0  0  0  0  0  0  0  0  0
    5.0127   -1.3821   -0.6356 H   0  0  0  0  0  0  0  0  0  0  0  0
    4.9480    0.6857    0.0006 C   0  0  0  0  0  0  0  0  0  0  0  0
    4.1784    1.8572    0.1313 C   0  0  0  0  0  0  0  0  0  0  0  0
    4.6216    2.7573    0.5779 H   0  0  0  0  0  0  0  0  0  0  0  0
    2.8714    1.8448   -0.3197 C   0  0  0  0  0  0  0  0  0  0  0  0
    2.1821    0.6656   -0.8571 C   0  0  0  0  0  0  0  0  0  0  0  0
  1 18  1  0  0  0  0
  3  8  2  0  0  0  0
  4  9  2  0  0  0  0
  6 10  2  0  0  0  0
  8  2  2  0  0  0  0
  8 11  1  0  0  0  0
  9  5  2  0  0  0  0
 10  7  2  0  0  0  0
 11 18  2  0  0  0  0
 11 12  1  0  0  0  0
 12 14  2  0  0  0  0
 13 12  1  0  0  0  0
 14 15  1  0  0  0  0
 14 10  1  0  0  0  0
 15 16  1  0  0  0  0
 17  9  1  0  0  0  0
 17 15  2  0  0  0  0
 18 17  1  0  0  0  0
M  CHG  1   1  -1
M  END
