2
q = -1.0, confidence = 0.0

 14 14  0  0  0  0  0  0  0  0999 V2000
   -6.1648    0.4426    2.3206 Cl  0  0  0  0  0  0  0  0  0  0  0  0
   -1.7820   -0.4306   -0.5332 O   0  5  0  0  0  0  0  0  0  0  0  0
   -2.2408    0.1367   -2.6815 O   0  0  0  0  0  0  0  0  0  0  0  0
   -2.5602   -0.0250   -1.4783 C   0  0  0  0  0  0  0  0  0  0  0  0
   -3.9897    0.2603   -1.0741 C   0  0  0  0  0  0  0  0  0  0  0  0
   -4.9470    0.5647   -2.0600 C   0  0  0  0  0  0  0  0  0  0  0  0
   -4.6176    0.5936   -3.1083 H   0  0  0  0  0  0  0  0  0  0  0  0
   -6.2747    0.8205   -1.6919 C   0  0  0  0  0  0  0  0  0  0  0  0
   -7.0263    1.0556   -2.4610 H   0  0  0  0  0  0  0  0  0  0  0  0
   -6.6614    0.7824   -0.3427 C   0  0  0  0  0  0  0  0  0  0  0  0
   -7.6988    0.9827   -0.0400 H   0  0  0  0  0  0  0  0  0  0  0  0
   -5.6958    0.4861    0.6340 C   0  0  0  0  0  0  0  0  0  0  0  0
   -4.3651    0.2259    0.2815 C   0  0  0  0  0  0  0  0  0  0  0  0
   -3.6070    0.0075    1.0454 H   0  0  0  0  0  0  0  0  0  0  0  0
  3  4  2  0  0  0  0
  4  5  1  0  0  0  0
  4  2  1  0  0  0  0
  5 13  1  0  0  0  0
  6  8  1  0  0  0  0
  6  5  2  0  0  0  0
  7  6  1  0  0  0  0
  8 10  2  0  0  0  0
  9  8  1  0  0  0  0
 10 11  1  0  0  0  0
 10 12  1  0  0  0  0
 12  1  1  0  0  0  0
 13 12  2  0  0  0  0
 13 14  1  0  0  0  0
M  CHG  1   2  -1
M  END
