3
q = -1.0

 46 48  0  0  0  0  0  0  0  0999 V2000
    0.6308    0.0094    0.2034 P   0  0  2  0  0  0  0  0  0  0  0  0
    3.4565   -0.9886    0.4021 O   0  0  0  0  0  0  0  0  0  0  0  0
   -1.0148   -2.3360   -0.4124 O   0  5  0  0  0  0  0  0  0  0  0  0
    0.4630    2.9375    0.4551 O   0  0  0  0  0  0  0  0  0  0  0  0
    2.2945   -0.4354   -2.2950 O   0  0  0  0  0  0  0  0  0  0  0  0
    1.2555   -1.6689   -0.0331 C   0  0  0  0  0  0  0  0  0  0  0  0
    2.6175   -2.0244    0.1146 C   0  0  0  0  0  0  0  0  0  0  0  0
    3.0216   -3.3578   -0.0523 C   0  0  0  0  0  0  0  0  0  0  0  0
    2.0357   -4.3227   -0.3634 C   0  0  0  0  0  0  0  0  0  0  0  0
    0.6897   -3.9960   -0.5035 C   0  0  0  0  0  0  0  0  0  0  0  0
    0.2602   -2.6442   -0.3279 C   0  0  0  0  0  0  0  0  0  0  0  0
    4.8350   -1.2528    0.5454 C   0  0  0  0  0  0  0  0  0  0  0  0
    1.4513    1.2508   -0.8751 C   0  0  0  0  0  0  0  0  0  0  0  0
    1.2258    2.6302   -0.6396 C   0  0  0  0  0  0  0  0  0  0  0  0
    1.7417    3.6187   -1.4998 C   0  0  0  0  0  0  0  0  0  0  0  0
    2.4388    3.2220   -2.6479 C   0  0  0  0  0  0  0  0  0  0  0  0
    2.6303    1.8703   -2.9448 C   0  0  0  0  0  0  0  0  0  0  0  0
    2.1392    0.8824   -2.0645 C   0  0  0  0  0  0  0  0  0  0  0  0
    0.4015    4.2857    0.8831 C   0  0  0  0  0  0  0  0  0  0  0  0
    2.5671   -0.8963   -3.6034 C   0  0  0  0  0  0  0  0  0  0  0  0
    1.1902    0.3695    1.9257 C   0  0  0  0  0  0  0  0  0  0  0  0
    2.1500    1.3385    2.2692 C   0  0  0  0  0  0  0  0  0  0  0  0
    2.5523    1.4887    3.6053 C   0  0  0  0  0  0  0  0  0  0  0  0
    2.0086    0.6690    4.6075 C   0  0  0  0  0  0  0  0  0  0  0  0
    1.0720   -0.3200    4.2645 C   0  0  0  0  0  0  0  0  0  0  0  0
    0.6697   -0.4706    2.9297 C   0  0  0  0  0  0  0  0  0  0  0  0
    4.0732   -3.6550    0.0449 H   0  0  0  0  0  0  0  0  0  0  0  0
    2.3489   -5.3703   -0.4988 H   0  0  0  0  0  0  0  0  0  0  0  0
   -0.0676   -4.7554   -0.7443 H   0  0  0  0  0  0  0  0  0  0  0  0
    5.3157   -0.2857    0.7852 H   0  0  0  0  0  0  0  0  0  0  0  0
    5.0369   -1.9721    1.3707 H   0  0  0  0  0  0  0  0  0  0  0  0
    5.2767   -1.6560   -0.3937 H   0  0  0  0  0  0  0  0  0  0  0  0
    1.5776    4.6841   -1.2981 H   0  0  0  0  0  0  0  0  0  0  0  0
    2.8306    3.9889   -3.3333 H   0  0  0  0  0  0  0  0  0  0  0  0
    3.1605    1.5769   -3.8594 H   0  0  0  0  0  0  0  0  0  0  0  0
   -0.1178    4.9340    0.1432 H   0  0  0  0  0  0  0  0  0  0  0  0
   -0.1763    4.2856    1.8264 H   0  0  0  0  0  0  0  0  0  0  0  0
    1.4152    4.6993    1.0781 H   0  0  0  0  0  0  0  0  0  0  0  0
    2.4879   -1.9982   -3.5554 H   0  0  0  0  0  0  0  0  0  0  0  0
    1.8166   -0.5064   -4.3242 H   0  0  0  0  0  0  0  0  0  0  0  0
    3.5916   -0.6218   -3.9420 H   0  0  0  0  0  0  0  0  0  0  0  0
    2.6055    1.9582    1.4840 H   0  0  0  0  0  0  0  0  0  0  0  0
    3.3068    2.2477    3.8643 H   0  0  0  0  0  0  0  0  0  0  0  0
    2.3264    0.7908    5.6543 H   0  0  0  0  0  0  0  0  0  0  0  0
    0.6581   -0.9837    5.0392 H   0  0  0  0  0  0  0  0  0  0  0  0
   -0.0434   -1.2607    2.6493 H   0  0  0  0  0  0  0  0  0  0  0  0
  1 13  1  6  0  0  0
  1 21  1  0  0  0  0
  2 12  1  0  0  0  0
  3 11  1  0  0  0  0
  4 19  1  0  0  0  0
  5 18  1  0  0  0  0
  6  7  1  0  0  0  0
  6  1  1  0  0  0  0
  7  2  1  0  0  0  0
  8 27  1  0  0  0  0
  8  7  2  0  0  0  0
  9  8  1  0  0  0  0
 10  9  2  0  0  0  0
 10 11  1  0  0  0  0
 11  6  2  0  0  0  0
 12 30  1  0  0  0  0
 12 31  1  0  0  0  0
 13 14  1  0  0  0  0
 14  4  1  0  0  0  0
 15 33  1  0  0  0  0
 15 14  2  0  0  0  0
 16 15  1  0  0  0  0
 17 16  2  0  0  0  0
 17 18  1  0  0  0  0
 18 13  2  0  0  0  0
 19 38  1  0  0  0  0
 19 37  1  0  0  0  0
 20 39  1  0  0  0  0
 20  5  1  0  0  0  0
 21 22  2  0  0  0  0
 21 26  1  0  0  0  0
 22 23  1  0  0  0  0
 23 43  1  0  0  0  0
 23 24  2  0  0  0  0
 24 44  1  0  0  0  0
 25 24  1  0  0  0  0
 25 45  1  0  0  0  0
 26 25  2  0  0  0  0
 28  9  1  0  0  0  0
 29 10  1  0  0  0  0
 32 12  1  0  0  0  0
 34 16  1  0  0  0  0
 35 17  1  0  0  0  0
 36 19  1  0  0  0  0
 40 20  1  0  0  0  0
 41 20  1  0  0  0  0
 42 22  1  0  0  0  0
 46 26  1  0  0  0  0
M  CHG  1   3  -1
M  END
