3
q = -1.0

 38 40  0  0  0  0  0  0  0  0999 V2000
    1.3447    0.4796   -0.1635 P   0  0  0  0  0  0  0  0  0  0  0  0
    3.1624    2.6537    0.8992 O   0  0  0  0  0  0  0  0  0  0  0  0
   -0.7172    0.0856    1.8630 O   0  5  0  0  0  0  0  0  0  0  0  0
    1.1757    1.5327   -1.6555 C   0  0  0  0  0  0  0  0  0  0  0  0
    0.8899    0.9038   -2.8874 C   0  0  0  0  0  0  0  0  0  0  0  0
    0.6941    1.6733   -4.0435 C   0  0  0  0  0  0  0  0  0  0  0  0
    0.7608    3.0754   -3.9735 C   0  0  0  0  0  0  0  0  0  0  0  0
    1.0334    3.7028   -2.7472 C   0  0  0  0  0  0  0  0  0  0  0  0
    1.2486    2.9376   -1.5900 C   0  0  0  0  0  0  0  0  0  0  0  0
    3.0337   -0.2195   -0.2065 C   0  0  0  0  0  0  0  0  0  0  0  0
    3.7730   -0.3333   -1.3988 C   0  0  0  0  0  0  0  0  0  0  0  0
    5.0486   -0.9196   -1.3760 C   0  0  0  0  0  0  0  0  0  0  0  0
    5.5905   -1.3880   -0.1690 C   0  0  0  0  0  0  0  0  0  0  0  0
    4.8582   -1.2612    1.0244 C   0  0  0  0  0  0  0  0  0  0  0  0
    3.5829   -0.6805    1.0088 C   0  0  0  0  0  0  0  0  0  0  0  0
    1.2119    1.4278    1.3590 C   0  0  0  0  0  0  0  0  0  0  0  0
    2.1621    2.3996    1.7834 C   0  0  0  0  0  0  0  0  0  0  0  0
    2.0206    3.0146    3.0351 C   0  0  0  0  0  0  0  0  0  0  0  0
    0.9267    2.6505    3.8506 C   0  0  0  0  0  0  0  0  0  0  0  0
   -0.0067    1.6901    3.4657 C   0  0  0  0  0  0  0  0  0  0  0  0
    0.1373    1.0377    2.2107 C   0  0  0  0  0  0  0  0  0  0  0  0
    4.2187    3.5240    1.2852 C   0  0  0  0  0  0  0  0  0  0  0  0
    0.7930   -0.1919   -2.9319 H   0  0  0  0  0  0  0  0  0  0  0  0
    0.4812    1.1767   -5.0023 H   0  0  0  0  0  0  0  0  0  0  0  0
    0.6002    3.6804   -4.8784 H   0  0  0  0  0  0  0  0  0  0  0  0
    1.0846    4.8004   -2.6896 H   0  0  0  0  0  0  0  0  0  0  0  0
    1.4717    3.4303   -0.6346 H   0  0  0  0  0  0  0  0  0  0  0  0
    3.3626    0.0477   -2.3455 H   0  0  0  0  0  0  0  0  0  0  0  0
    5.6257   -1.0035   -2.3090 H   0  0  0  0  0  0  0  0  0  0  0  0
    6.5916   -1.8441   -0.1549 H   0  0  0  0  0  0  0  0  0  0  0  0
    5.2871   -1.6117    1.9753 H   0  0  0  0  0  0  0  0  0  0  0  0
    3.0122   -0.5671    1.9435 H   0  0  0  0  0  0  0  0  0  0  0  0
    2.7353    3.7711    3.3814 H   0  0  0  0  0  0  0  0  0  0  0  0
    0.8137    3.1421    4.8291 H   0  0  0  0  0  0  0  0  0  0  0  0
   -0.8472    1.4068    4.1138 H   0  0  0  0  0  0  0  0  0  0  0  0
    4.7352    3.1516    2.1955 H   0  0  0  0  0  0  0  0  0  0  0  0
    4.9301    3.5374    0.4399 H   0  0  0  0  0  0  0  0  0  0  0  0
    3.8506    4.5561    1.4716 H   0  0  0  0  0  0  0  0  0  0  0  0
  1 16  1  0  0  0  0
  2 22  1  0  0  0  0
  2 17  1  0  0  0  0
  3 21  1  0  0  0  0
  4  9  1  0  0  0  0
  4  1  1  0  0  0  0
  5  4  2  0  0  0  0
  6  7  2  0  0  0  0
  6  5  1  0  0  0  0
  7  8  1  0  0  0  0
  8 26  1  0  0  0  0
  8  9  2  0  0  0  0
  9 27  1  0  0  0  0
 10  1  1  0  0  0  0
 10 15  1  0  0  0  0
 11 12  1  0  0  0  0
 11 10  2  0  0  0  0
 12 13  2  0  0  0  0
 13 30  1  0  0  0  0
 13 14  1  0  0  0  0
 14 31  1  0  0  0  0
 15 14  2  0  0  0  0
 15 32  1  0  0  0  0
 16 17  2  0  0  0  0
 16 21  1  0  0  0  0
 17 18  1  0  0  0  0
 18 33  1  0  0  0  0
 18 19  2  0  0  0  0
 19 34  1  0  0  0  0
 20 19  1  0  0  0  0
 20 35  1  0  0  0  0
 21 20  2  0  0  0  0
 22 38  1  0  0  0  0
 22 36  1  0  0  0  0
 23  5  1  0  0  0  0
 24  6  1  0  0  0  0
 25  7  1  0  0  0  0
 28 11  1  0  0  0  0
 29 12  1  0  0  0  0
 37 22  1  0  0  0  0
M  CHG  1   3  -1
M  END
