2
q = -1.0

 22 21  0  0  0  0  0  0  0  0999 V2000
    2.0299    2.1618   -2.3893 F   0  0  0  0  0  0  0  0  0  0  0  0
   -0.6558    1.1308   -0.3704 O   0  5  0  0  0  0  0  0  0  0  0  0
    1.4174    2.9527   -0.4204 F   0  0  0  0  0  0  0  0  0  0  0  0
   -0.4731    1.3054   -2.6397 O   0  0  0  0  0  0  0  0  0  0  0  0
    1.9125    0.6816    0.8025 F   0  0  0  0  0  0  0  0  0  0  0  0
    1.9041   -0.4729   -1.0836 F   0  0  0  0  0  0  0  0  0  0  0  0
    4.1744    0.5414   -1.8838 F   0  0  0  0  0  0  0  0  0  0  0  0
    4.1080    2.1898   -0.4109 F   0  0  0  0  0  0  0  0  0  0  0  0
    4.5144    0.6081    1.6150 F   0  0  0  0  0  0  0  0  0  0  0  0
    4.0232   -1.2156    0.4697 F   0  0  0  0  0  0  0  0  0  0  0  0
    6.5957    1.0226   -0.4103 F   0  0  0  0  0  0  0  0  0  0  0  0
    6.1842   -1.0712   -0.9820 F   0  0  0  0  0  0  0  0  0  0  0  0
    6.4192   -1.7160    1.8023 F   0  0  0  0  0  0  0  0  0  0  0  0
    8.1809   -1.0281    0.7104 F   0  0  0  0  0  0  0  0  0  0  0  0
    7.1703    0.3175    2.0961 F   0  0  0  0  0  0  0  0  0  0  0  0
   -0.0587    1.3819   -1.4852 C   0  0  0  0  0  0  0  0  0  0  0  0
    1.4123    1.8453   -1.2228 C   0  0  0  0  0  0  0  0  0  0  0  0
    2.2360    0.7207   -0.5161 C   0  0  0  0  0  0  0  0  0  0  0  0
    3.7876    0.8927   -0.6334 C   0  0  0  0  0  0  0  0  0  0  0  0
    4.5823    0.0164    0.3968 C   0  0  0  0  0  0  0  0  0  0  0  0
    6.0901   -0.1612    0.0140 C   0  0  0  0  0  0  0  0  0  0  0  0
    6.9851   -0.6581    1.1967 C   0  0  0  0  0  0  0  0  0  0  0  0
  1 17  1  0  0  0  0
  4 16  2  0  0  0  0
  6 18  1  0  0  0  0
  7 19  1  0  0  0  0
 11 21  1  0  0  0  0
 12 21  1  0  0  0  0
 14 22  1  0  0  0  0
 16 17  1  0  0  0  0
 16  2  1  0  0  0  0
 17 18  1  0  0  0  0
 17  3  1  0  0  0  0
 18  5  1  0  0  0  0
 19 18  1  0  0  0  0
 19  8  1  0  0  0  0
 19 20  1  0  0  0  0
 20 10  1  0  0  0  0
 20  9  1  0  0  0  0
 21 20  1  0  0  0  0
 21 22  1  0  0  0  0
 22 13  1  0  0  0  0
 22 15  1  0  0  0  0
M  CHG  1   2  -1
M  END
