1
q = -1.0, confidence = 0.02

  8  7  0  0  0  0  0  0  0  0999 V2000
   -0.9246    0.1439    1.3748 O   0  0  0  0  0  1  0  0  0  0  0  0
   -2.1804   -0.3181    1.8302 C   0  0  0  0  0  0  0  0  0  0  0  0
   -2.0152   -1.1580    2.5467 H   0  0  0  0  0  0  0  0  0  0  0  0
   -2.7770   -0.7180    0.9834 H   0  0  0  0  0  0  0  0  0  0  0  0
   -2.9478    0.8145    2.5015 C   0  0  0  0  0  0  0  0  0  0  0  0
   -3.1635    1.6179    1.7688 H   0  0  0  0  0  0  0  0  0  0  0  0
   -2.3679    1.2489    3.3421 H   0  0  0  0  0  0  0  0  0  0  0  0
   -3.9139    0.4467    2.9036 H   0  0  0  0  0  0  0  0  0  0  0  0
  1  2  1  0  0  0  0
  2  5  1  0  0  0  0
  2  3  1  0  0  0  0
  4  2  1  0  0  0  0
  5  8  1  0  0  0  0
  5  7  1  0  0  0  0
  6  5  1  0  0  0  0
M  END
