1
q = -1.0, confidence = 0.054

 25 30  0  0  1  0  0  0  0  0999 V2000
   -1.2694   -1.5698   -0.0001 O   0  5  0  0  0  0  0  0  0  0  0  0
   -0.1398   -3.5068   -0.0009 O   0  0  0  0  0  0  0  0  0  0  0  0
   -0.1554   -2.2825   -0.0005 C   0  0  0  0  0  0  0  0  0  0  0  0
    1.1071   -1.4175   -0.0002 C   0  0  2  0  0  0  0  0  0  0  0  0
    0.7418    0.2440    0.0004 B   0  0  2  0  0  0  0  0  0  0  0  0
    1.4065   -0.5333   -1.4455 B   0  0  1  0  0  0  0  0  0  0  0  0
    0.6935   -0.7310   -2.4035 H   0  0  0  0  0  0  0  0  0  0  0  0
    2.0469    1.0380   -0.8964 B   0  0  0  0  0  0  0  0  0  0  0  0
    1.8562    2.0502   -1.5464 H   0  0  0  0  0  0  0  0  0  0  0  0
    2.0469    1.0374    0.8977 B   0  0  1  0  0  0  0  0  0  0  0  0
    1.8562    2.0492    1.5483 H   0  0  0  0  0  0  0  0  0  0  0  0
    1.4066   -0.5343    1.4457 B   0  0  2  0  0  0  0  0  0  0  0  0
    0.6935   -0.7326    2.4036 H   0  0  0  0  0  0  0  0  0  0  0  0
    2.5086   -1.8260   -0.8892 B   0  0  2  0  0  0  0  0  0  0  0  0
    2.5353   -2.8730   -1.4928 H   0  0  0  0  0  0  0  0  0  0  0  0
    3.1587   -0.2580   -1.4480 B   0  0  0  0  0  0  0  0  0  0  0  0
    3.7683   -0.1767   -2.4962 H   0  0  0  0  0  0  0  0  0  0  0  0
    3.5596    0.7135    0.0005 B   0  0  1  0  0  0  0  0  0  0  0  0
    4.4785    1.5116    0.0008 H   0  0  0  0  0  0  0  0  0  0  0  0
    3.1587   -0.2590    1.4484 B   0  0  0  0  0  0  0  0  0  0  0  0
    3.7683   -0.1784    2.4966 H   0  0  0  0  0  0  0  0  0  0  0  0
    2.5086   -1.8266    0.8885 B   0  0  1  0  0  0  0  0  0  0  0  0
    2.5354   -2.8740    1.4914 H   0  0  0  0  0  0  0  0  0  0  0  0
    3.8438   -1.0540   -0.0001 B   0  0  1  0  0  0  0  0  0  0  0  0
    4.9585   -1.5375   -0.0003 H   0  0  0  0  0  0  0  0  0  0  0  0
  2  3  2  0  0  0  0
  3  4  1  0  0  0  0
  3  1  1  0  0  0  0
  4  5  1  0  0  0  0
  4 22  1  0  0  0  0
  5 10  1  0  0  0  0
  5 12  1  0  0  0  0
  6  8  1  0  0  0  0
  6  5  1  0  0  0  0
  7  6  1  0  0  0  0
  8 18  1  0  0  0  0
  9  8  1  0  0  0  0
 10 12  1  0  0  0  0
 10 11  1  0  0  0  0
 12 20  1  0  0  0  0
 12 13  1  0  0  0  0
 14  4  1  0  0  0  0
 14 24  1  0  0  0  0
 14 22  1  0  0  0  0
 15 14  1  0  0  0  0
 16  6  1  0  0  0  0
 16 18  1  0  0  0  0
 17 16  1  0  0  0  0
 18 19  1  0  0  0  0
 18 10  1  0  0  0  0
 20 21  1  0  0  0  0
 22 23  1  0  0  0  0
 24 22  1  0  0  0  0
 24 20  1  0  0  0  0
 25 24  1  0  0  0  0
M  CHG  1   1  -1
M  END
