1
q = 0.0, confidence = 0.998

 21 21  0  0  0  0  0  0  0  0999 V2000
    1.4821   -0.2290    0.0113 O   0  0  0  0  0  1  0  0  0  0  0  0
    3.4052   -0.0501    1.2366 N   0  0  0  0  0  0  0  0  0  0  0  0
    3.4737   -0.3335   -1.1093 N   0  0  0  0  0  0  0  0  0  0  0  0
    2.7404   -0.2079    0.0414 C   0  0  0  0  0  3  0  0  0  0  0  0
    4.8594   -0.0711    1.3487 C   0  0  0  0  0  0  0  0  0  0  0  0
    5.5056    0.3919    0.0528 C   0  0  0  0  0  0  0  0  0  0  0  0
    4.9304   -0.4076   -1.1055 C   0  0  0  0  0  0  0  0  0  0  0  0
    2.6704    0.0190    2.4855 C   0  0  0  0  0  0  0  0  0  0  0  0
    2.8150   -0.6219   -2.3757 C   0  0  0  0  0  0  0  0  0  0  0  0
    5.2109   -1.0951    1.6214 H   0  0  0  0  0  0  0  0  0  0  0  0
    5.1461    0.5962    2.1883 H   0  0  0  0  0  0  0  0  0  0  0  0
    6.6041    0.2612    0.1041 H   0  0  0  0  0  0  0  0  0  0  0  0
    5.3004    1.4717   -0.1025 H   0  0  0  0  0  0  0  0  0  0  0  0
    5.2911   -0.0078   -2.0754 H   0  0  0  0  0  0  0  0  0  0  0  0
    5.2653   -1.4717   -1.0557 H   0  0  0  0  0  0  0  0  0  0  0  0
    1.5885    0.0253    2.2793 H   0  0  0  0  0  0  0  0  0  0  0  0
    2.9060   -0.8543    3.1317 H   0  0  0  0  0  0  0  0  0  0  0  0
    2.9365    0.9449    3.0388 H   0  0  0  0  0  0  0  0  0  0  0  0
    2.9792   -1.6806   -2.6755 H   0  0  0  0  0  0  0  0  0  0  0  0
    3.2320    0.0341   -3.1671 H   0  0  0  0  0  0  0  0  0  0  0  0
    1.7260   -0.4430   -2.3116 H   0  0  0  0  0  0  0  0  0  0  0  0
  1  4  1  0  0  0  0
  2  5  1  0  0  0  0
  2  8  1  0  0  0  0
  3  7  1  0  0  0  0
  3  4  1  0  0  0  0
  4  2  1  0  0  0  0
  5 10  1  0  0  0  0
  5 11  1  0  0  0  0
  6 12  1  0  0  0  0
  6  5  1  0  0  0  0
  7 15  1  0  0  0  0
  7  6  1  0  0  0  0
  8 18  1  0  0  0  0
  8 17  1  0  0  0  0
  9 21  1  0  0  0  0
  9  3  1  0  0  0  0
 13  6  1  0  0  0  0
 14  7  1  0  0  0  0
 16  8  1  0  0  0  0
 19  9  1  0  0  0  0
 20  9  1  0  0  0  0
M  END
