1
q = 0.0, confidence = 0.994

 16 16  0  0  1  0  0  0  0  0999 V2000
   -1.6472   -0.3798    0.2733 O   0  0  0  0  0  1  0  0  0  0  0  0
   -3.7665   -0.1842   -0.6238 N   0  0  0  0  0  0  0  0  0  0  0  0
   -2.8874   -0.4152    0.3795 C   0  0  1  0  0  3  0  0  0  0  0  0
   -3.6616   -0.7675    1.6378 C   0  0  0  0  0  0  0  0  0  0  0  0
   -3.6028   -1.8702    1.7699 H   0  0  0  0  0  0  0  0  0  0  0  0
   -3.1944   -0.3107    2.5300 H   0  0  0  0  0  0  0  0  0  0  0  0
   -5.0857   -0.2855    1.3282 C   0  0  0  0  0  0  0  0  0  0  0  0
   -5.2053    0.7647    1.6629 H   0  0  0  0  0  0  0  0  0  0  0  0
   -5.8766   -0.8865    1.8140 H   0  0  0  0  0  0  0  0  0  0  0  0
   -5.1593   -0.3472   -0.2092 C   0  0  0  0  0  0  0  0  0  0  0  0
   -5.5543   -1.3219   -0.5791 H   0  0  0  0  0  0  0  0  0  0  0  0
   -5.7874    0.4534   -0.6513 H   0  0  0  0  0  0  0  0  0  0  0  0
   -3.3995    0.0639   -2.0030 C   0  0  0  0  0  0  0  0  0  0  0  0
   -3.8112    1.0370   -2.3428 H   0  0  0  0  0  0  0  0  0  0  0  0
   -3.8047   -0.7369   -2.6570 H   0  0  0  0  0  0  0  0  0  0  0  0
   -2.2951    0.0806   -2.1056 H   0  0  0  0  0  0  0  0  0  0  0  0
  2 10  1  0  0  0  0
  2  3  1  0  0  0  0
  3  1  1  6  0  0  0
  3  4  1  0  0  0  0
  4  5  1  0  0  0  0
  4  6  1  0  0  0  0
  7  4  1  0  0  0  0
  7  8  1  0  0  0  0
  7  9  1  0  0  0  0
 10  7  1  0  0  0  0
 11 10  1  0  0  0  0
 12 10  1  0  0  0  0
 13  2  1  0  0  0  0
 14 13  1  0  0  0  0
 15 13  1  0  0  0  0
 16 13  1  0  0  0  0
M  END
