1
q = 0.0, confidence = 0.89

 10  9  0  0  0  0  0  0  0  0999 V2000
    0.0971    2.3051    0.5180 O   0  0  0  0  0  1  0  0  0  0  0  0
    0.0493    3.4221   -0.0274 C   0  0  0  0  0  3  0  0  0  0  0  0
    0.2175    4.6556    0.8100 C   0  0  0  0  0  0  0  0  0  0  0  0
    0.2177    4.4066    1.8860 H   0  0  0  0  0  0  0  0  0  0  0  0
   -0.5746    5.3989    0.5857 H   0  0  0  0  0  0  0  0  0  0  0  0
    1.1813    5.1441    0.5484 H   0  0  0  0  0  0  0  0  0  0  0  0
   -0.1631    3.5790   -1.5036 C   0  0  0  0  0  0  0  0  0  0  0  0
   -0.1757    2.5954   -2.0066 H   0  0  0  0  0  0  0  0  0  0  0  0
    0.6230    4.2269   -1.9431 H   0  0  0  0  0  0  0  0  0  0  0  0
   -1.1260    4.1019   -1.6870 H   0  0  0  0  0  0  0  0  0  0  0  0
  2  1  1  0  0  0  0
  2  3  1  0  0  0  0
  3  4  1  0  0  0  0
  5  3  1  0  0  0  0
  6  3  1  0  0  0  0
  7  2  1  0  0  0  0
  8  7  1  0  0  0  0
  9  7  1  0  0  0  0
 10  7  1  0  0  0  0
M  END
