12
q = 0.0, confidence = 0.988

 12 11  0  0  0  0  0  0  0  0999 V2000
   -0.9918    3.0917   -0.4004 C   0  0  0  0  0  3  0  0  0  0  0  0
   -1.8706    2.6260    0.0950 H   0  0  0  0  0  0  0  0  0  0  0  0
   -1.0612    4.4233   -0.5911 N   0  0  0  0  0  0  0  0  0  0  0  0
    0.0219    5.1458   -1.2371 C   0  0  0  0  0  0  0  0  0  0  0  0
    0.4107    5.9392   -0.5645 H   0  0  0  0  0  0  0  0  0  0  0  0
   -0.3320    5.6226   -2.1757 H   0  0  0  0  0  0  0  0  0  0  0  0
    0.8316    4.4312   -1.4707 H   0  0  0  0  0  0  0  0  0  0  0  0
   -2.2223    5.1740   -0.1522 C   0  0  0  0  0  0  0  0  0  0  0  0
   -1.9315    5.9552    0.5826 H   0  0  0  0  0  0  0  0  0  0  0  0
   -2.9483    4.4897    0.3269 H   0  0  0  0  0  0  0  0  0  0  0  0
   -2.7193    5.6744   -1.0110 H   0  0  0  0  0  0  0  0  0  0  0  0
   -0.0188    2.3994   -0.7764 O   0  0  0  0  0  1  0  0  0  0  0  0
  1  2  1  0  0  0  0
  3  1  1  0  0  0  0
  3  8  1  0  0  0  0
  4  3  1  0  0  0  0
  4  5  1  0  0  0  0
  6  4  1  0  0  0  0
  7  4  1  0  0  0  0
  8 10  1  0  0  0  0
  8  9  1  0  0  0  0
 11  8  1  0  0  0  0
 12  1  1  0  0  0  0
M  END
