2
q = -1.0

 27 27  0  0  1  0  0  0  0  0999 V2000
   -0.5788    2.3389    1.1367 O   0  5  0  0  0  0  0  0  0  0  0  0
   -1.0455    1.0395   -0.6688 O   0  0  0  0  0  0  0  0  0  0  0  0
    2.8807    2.6791   -1.0905 O   0  0  0  0  0  0  0  0  0  0  0  0
    0.8240    2.3869   -2.0659 N   0  0  0  0  0  0  0  0  0  0  0  0
    0.2639    1.6620   -2.5267 H   0  0  0  0  0  0  0  0  0  0  0  0
   -0.5693    2.0913   -0.0860 C   0  0  0  0  0  0  0  0  0  0  0  0
    0.0593    3.1104   -1.0597 C   0  0  2  0  0  0  0  0  0  0  0  0
    0.7670    3.7350   -0.4835 H   0  0  0  0  0  0  0  0  0  0  0  0
    2.1517    2.0825   -1.8884 C   0  0  0  0  0  0  0  0  0  0  0  0
    2.6383    0.9116   -2.7263 C   0  0  0  0  0  0  0  0  0  0  0  0
    2.1108    0.8267   -3.6968 H   0  0  0  0  0  0  0  0  0  0  0  0
    2.4435   -0.0104   -2.1380 H   0  0  0  0  0  0  0  0  0  0  0  0
    3.7259    1.0029   -2.9001 H   0  0  0  0  0  0  0  0  0  0  0  0
   -1.0360    3.9702   -1.7384 C   0  0  0  0  0  0  0  0  0  0  0  0
   -0.5460    4.8412   -2.2218 H   0  0  0  0  0  0  0  0  0  0  0  0
   -1.4897    3.3645   -2.5499 H   0  0  0  0  0  0  0  0  0  0  0  0
   -2.1268    4.4154   -0.7926 C   0  0  0  0  0  0  0  0  0  0  0  0
   -3.4064    3.8291   -0.8557 C   0  0  0  0  0  0  0  0  0  0  0  0
   -3.6086    3.0704   -1.6286 H   0  0  0  0  0  0  0  0  0  0  0  0
   -4.4151    4.1975    0.0491 C   0  0  0  0  0  0  0  0  0  0  0  0
   -5.4147    3.7404   -0.0280 H   0  0  0  0  0  0  0  0  0  0  0  0
   -4.1539    5.1540    1.0419 C   0  0  0  0  0  0  0  0  0  0  0  0
   -4.9410    5.4450    1.7541 H   0  0  0  0  0  0  0  0  0  0  0  0
   -2.8799    5.7407    1.1183 C   0  0  0  0  0  0  0  0  0  0  0  0
   -2.6647    6.4887    1.8966 H   0  0  0  0  0  0  0  0  0  0  0  0
   -1.8777    5.3737    0.2101 C   0  0  0  0  0  0  0  0  0  0  0  0
   -0.8787    5.8312    0.2844 H   0  0  0  0  0  0  0  0  0  0  0  0
  2  6  2  0  0  0  0
  4  9  1  0  0  0  0
  4  7  1  0  0  0  0
  5  4  1  0  0  0  0
  6  1  1  0  0  0  0
  7  8  1  1  0  0  0
  7  6  1  0  0  0  0
  9  3  2  0  0  0  0
 10 12  1  0  0  0  0
 10  9  1  0  0  0  0
 11 10  1  0  0  0  0
 13 10  1  0  0  0  0
 14  7  1  0  0  0  0
 14 17  1  0  0  0  0
 15 14  1  0  0  0  0
 16 14  1  0  0  0  0
 17 26  1  0  0  0  0
 18 17  2  0  0  0  0
 18 20  1  0  0  0  0
 19 18  1  0  0  0  0
 20 22  2  0  0  0  0
 21 20  1  0  0  0  0
 22 24  1  0  0  0  0
 22 23  1  0  0  0  0
 24 25  1  0  0  0  0
 26 27  1  0  0  0  0
 26 24  2  0  0  0  0
M  CHG  1   1  -1
M  END
