3
q = -1.0, confidence = 0.0

 25 25  0  0  0  0  0  0  0  0999 V2000
   -4.0981    1.3351   -0.0003 N   0  0  0  0  0  0  0  0  0  0  0  0
   -3.2619    0.7011   -0.0004 H   0  0  0  0  0  0  0  0  0  0  0  0
    0.4058    0.6826   -0.0002 O   0  5  0  0  0  0  0  0  0  0  0  0
   -1.7564    0.0380   -0.0003 O   0  0  0  0  0  0  0  0  0  0  0  0
   -4.6547    3.5870   -0.0001 O   0  0  0  0  0  0  0  0  0  0  0  0
   -0.8804    0.9242   -0.0003 C   0  0  0  0  0  0  0  0  0  0  0  0
   -1.1759    2.3916   -0.0005 C   0  0  0  0  0  0  0  0  0  0  0  0
   -0.2612    3.0062   -0.0006 H   0  0  0  0  0  0  0  0  0  0  0  0
   -2.3608    3.0596   -0.0005 C   0  0  0  0  0  0  0  0  0  0  0  0
   -2.2980    4.1608   -0.0007 H   0  0  0  0  0  0  0  0  0  0  0  0
   -3.8151    2.6754   -0.0003 C   0  0  0  0  0  0  0  0  0  0  0  0
   -5.3523    0.7165   -0.0002 C   0  0  0  0  0  0  0  0  0  0  0  0
   -6.5808    1.4159   -0.0001 C   0  0  0  0  0  0  0  0  0  0  0  0
   -6.5617    2.5119   -0.0002 H   0  0  0  0  0  0  0  0  0  0  0  0
   -7.7857    0.6998    0.0000 C   0  0  0  0  0  0  0  0  0  0  0  0
   -8.7344    1.2611    0.0001 H   0  0  0  0  0  0  0  0  0  0  0  0
   -7.8244   -0.7077    0.0002 C   0  0  0  0  0  0  0  0  0  0  0  0
   -6.5883   -1.3910    0.0001 C   0  0  0  0  0  0  0  0  0  0  0  0
   -6.5774   -2.4931    0.0002 H   0  0  0  0  0  0  0  0  0  0  0  0
   -5.3751   -0.7007   -0.0000 C   0  0  0  0  0  0  0  0  0  0  0  0
   -4.4213   -1.2513   -0.0000 H   0  0  0  0  0  0  0  0  0  0  0  0
   -9.1281   -1.4661    0.0003 C   0  0  0  0  0  0  0  0  0  0  0  0
   -9.2173   -2.1243    0.8907 H   0  0  0  0  0  0  0  0  0  0  0  0
   -9.2181   -2.1231   -0.8909 H   0  0  0  0  0  0  0  0  0  0  0  0
   -9.9976   -0.7802    0.0011 H   0  0  0  0  0  0  0  0  0  0  0  0
  1 11  1  0  0  0  0
  1 12  1  0  0  0  0
  2  1  1  0  0  0  0
  6  4  2  0  0  0  0
  6  3  1  0  0  0  0
  7  6  1  0  0  0  0
  8  7  1  0  0  0  0
  9  7  2  0  0  0  0
  9 11  1  0  0  0  0
 10  9  1  0  0  0  0
 11  5  2  0  0  0  0
 12 13  2  0  0  0  0
 12 20  1  0  0  0  0
 13 15  1  0  0  0  0
 14 13  1  0  0  0  0
 15 16  1  0  0  0  0
 15 17  2  0  0  0  0
 17 22  1  0  0  0  0
 18 17  1  0  0  0  0
 18 19  1  0  0  0  0
 20 18  2  0  0  0  0
 21 20  1  0  0  0  0
 22 25  1  0  0  0  0
 22 23  1  0  0  0  0
 24 22  1  0  0  0  0
M  CHG  1   3  -1
M  END
