3
q = -1.0, confidence = 0.0

 12 12  0  0  0  0  0  0  0  0999 V2000
    2.6673    2.0931   -0.2106 Cl  0  0  0  0  0  0  0  0  0  0  0  0
    1.2120   -3.1316    0.4620 Cl  0  0  0  0  0  0  0  0  0  0  0  0
    0.7382   -0.2658    0.1577 O   0  5  0  0  0  0  0  0  0  0  0  0
    2.0145   -0.5558    0.0691 C   0  0  0  0  0  0  0  0  0  0  0  0
    3.0613    0.3912   -0.1266 C   0  0  0  0  0  0  0  0  0  0  0  0
    4.4047    0.0151   -0.2480 C   0  0  0  0  0  0  0  0  0  0  0  0
    5.1661    0.7923   -0.4014 H   0  0  0  0  0  0  0  0  0  0  0  0
    4.7563   -1.3380   -0.1645 C   0  0  0  0  0  0  0  0  0  0  0  0
    5.8094   -1.6385   -0.2593 H   0  0  0  0  0  0  0  0  0  0  0  0
    3.7654   -2.3097    0.0503 C   0  0  0  0  0  0  0  0  0  0  0  0
    4.0216   -3.3749    0.1308 H   0  0  0  0  0  0  0  0  0  0  0  0
    2.4299   -1.9214    0.1674 C   0  0  0  0  0  0  0  0  0  0  0  0
  1  5  1  0  0  0  0
  4  3  1  0  0  0  0
  4 12  1  0  0  0  0
  5  4  2  0  0  0  0
  6  8  2  0  0  0  0
  6  5  1  0  0  0  0
  7  6  1  0  0  0  0
  8 10  1  0  0  0  0
  9  8  1  0  0  0  0
 10 11  1  0  0  0  0
 10 12  2  0  0  0  0
 12  2  1  0  0  0  0
M  CHG  1   3  -1
M  END
