1
q = -1.0, confidence = 0.012

 15 15  0  0  0  0  0  0  0  0999 V2000
    0.9571    0.0169   -0.3904 O   0  5  0  0  0  0  0  0  0  0  0  0
    2.2898    0.0179   -0.3887 C   0  0  0  0  0  0  0  0  0  0  0  0
    3.0502   -0.0428    0.8045 C   0  0  0  0  0  0  0  0  0  0  0  0
    2.5155   -0.0923    1.7617 H   0  0  0  0  0  0  0  0  0  0  0  0
    4.4496   -0.0394    0.7588 C   0  0  0  0  0  0  0  0  0  0  0  0
    5.0288   -0.0871    1.6936 H   0  0  0  0  0  0  0  0  0  0  0  0
    5.1098    0.0250   -0.4805 C   0  0  0  0  0  0  0  0  0  0  0  0
    6.2086    0.0282   -0.5252 H   0  0  0  0  0  0  0  0  0  0  0  0
    4.3562    0.0856   -1.6653 C   0  0  0  0  0  0  0  0  0  0  0  0
    4.8734    0.1362   -2.6366 H   0  0  0  0  0  0  0  0  0  0  0  0
    2.9517    0.0837   -1.6529 C   0  0  0  0  0  0  0  0  0  0  0  0
    2.1301    0.1478   -2.9081 C   0  0  0  0  0  0  0  0  0  0  0  0
    1.4697   -0.7407   -2.9929 H   0  0  0  0  0  0  0  0  0  0  0  0
    2.7720    0.1963   -3.8078 H   0  0  0  0  0  0  0  0  0  0  0  0
    1.4663    1.0378   -2.8994 H   0  0  0  0  0  0  0  0  0  0  0  0
  1  2  1  0  0  0  0
  2  3  1  0  0  0  0
  3  4  1  0  0  0  0
  5  3  2  0  0  0  0
  5  6  1  0  0  0  0
  7  5  1  0  0  0  0
  8  7  1  0  0  0  0
  9 11  1  0  0  0  0
  9  7  2  0  0  0  0
 10  9  1  0  0  0  0
 11  2  2  0  0  0  0
 12 15  1  0  0  0  0
 12 11  1  0  0  0  0
 13 12  1  0  0  0  0
 14 12  1  0  0  0  0
M  CHG  1   1  -1
M  END
