2
q = -1.0, confidence = 0.014

 15 15  0  0  0  0  0  0  0  0999 V2000
   -8.4415   -1.7911   -0.6977 Cl  0  0  0  0  0  0  0  0  0  0  0  0
   -1.7715   -1.1613   -0.0348 O   0  5  0  0  0  0  0  0  0  0  0  0
   -2.4004   -0.8780    2.1182 O   0  0  0  0  0  0  0  0  0  0  0  0
   -4.8281   -0.9818    2.7781 O   0  0  0  0  0  0  0  0  0  0  0  0
   -3.8084   -0.8986    2.8012 H   0  0  0  0  0  0  0  0  0  0  0  0
   -2.6505   -1.1408    0.8838 C   0  0  0  0  0  0  0  0  0  0  0  0
   -4.0772   -1.3658    0.5131 C   0  0  0  0  0  0  0  0  0  0  0  0
   -4.4351   -1.6471   -0.8233 C   0  0  0  0  0  0  0  0  0  0  0  0
   -3.6199   -1.7355   -1.5572 H   0  0  0  0  0  0  0  0  0  0  0  0
   -5.7671   -1.7995   -1.2109 C   0  0  0  0  0  0  0  0  0  0  0  0
   -6.0461   -2.0151   -2.2506 H   0  0  0  0  0  0  0  0  0  0  0  0
   -6.7666   -1.6606   -0.2233 C   0  0  0  0  0  0  0  0  0  0  0  0
   -6.4593   -1.3908    1.1115 C   0  0  0  0  0  0  0  0  0  0  0  0
   -7.2472   -1.2825    1.8684 H   0  0  0  0  0  0  0  0  0  0  0  0
   -5.1057   -1.2452    1.5041 C   0  0  0  0  0  0  0  0  0  0  0  0
  1 12  1  0  0  0  0
  2  6  1  0  0  0  0
  4  5  1  0  0  0  0
  6  3  2  0  0  0  0
  7  6  1  0  0  0  0
  7 15  1  0  0  0  0
  8  7  2  0  0  0  0
  9  8  1  0  0  0  0
 10  8  1  0  0  0  0
 10 12  2  0  0  0  0
 11 10  1  0  0  0  0
 12 13  1  0  0  0  0
 13 15  2  0  0  0  0
 13 14  1  0  0  0  0
 15  4  1  0  0  0  0
M  CHG  1   2  -1
M  END
