1
q = -1.0

  4  3  0  0  0  0  0  0  0  0999 V2000
   -0.1495   -2.1258    0.8218 O   0  5  0  0  0  0  0  0  0  0  0  0
    0.4524   -3.0879   -1.1470 O   0  0  0  0  0  0  0  0  0  0  0  0
    0.1371   -3.1247    0.0477 C   0  0  0  0  0  0  0  0  0  0  0  0
    0.0683   -4.1130    0.5898 H   0  0  0  0  0  0  0  0  0  0  0  0
  2  3  2  0  0  0  0
  3  4  1  0  0  0  0
  3  1  1  0  0  0  0
M  CHG  1   1  -1
M  END
