2
q = -1.0, confidence = 0.026

 51 52  0  0  0  0  0  0  0  0999 V2000
   -0.0542    1.0909   -1.2165 P   0  0  2  0  0  0  0  0  0  0  0  0
   -0.0876   -1.3411    0.2809 O   0  5  0  0  0  0  0  0  0  0  0  0
    2.2791   -1.7103    0.6065 C   0  0  0  0  0  0  0  0  0  0  0  0
   -0.0874    2.7309   -0.3726 C   0  0  0  0  0  0  0  0  0  0  0  0
    1.4478    0.2533   -0.6176 C   0  0  0  0  0  0  0  0  0  0  0  0
    0.8736    3.1209    0.5835 C   0  0  0  0  0  0  0  0  0  0  0  0
    1.7077    2.4451    0.8263 H   0  0  0  0  0  0  0  0  0  0  0  0
    2.0494   -3.0573    1.3165 C   0  0  0  0  0  0  0  0  0  0  0  0
    1.1803   -0.9486    0.1019 C   0  0  0  0  0  0  0  0  0  0  0  0
    5.2866    0.5175   -0.5250 C   0  0  0  0  0  0  0  0  0  0  0  0
    3.8569   -0.0114   -0.3120 C   0  0  0  0  0  0  0  0  0  0  0  0
   -1.2378    4.8605   -0.0451 C   0  0  0  0  0  0  0  0  0  0  0  0
   -2.0700    5.5374   -0.2923 H   0  0  0  0  0  0  0  0  0  0  0  0
    2.7600    0.7033   -0.8240 C   0  0  0  0  0  0  0  0  0  0  0  0
    2.9220    1.6339   -1.3911 H   0  0  0  0  0  0  0  0  0  0  0  0
    1.3896   -4.0355    0.3147 C   0  0  0  0  0  0  0  0  0  0  0  0
    2.0757   -4.2477   -0.5297 H   0  0  0  0  0  0  0  0  0  0  0  0
    0.4585   -3.6132   -0.1059 H   0  0  0  0  0  0  0  0  0  0  0  0
    1.1515   -4.9984    0.8137 H   0  0  0  0  0  0  0  0  0  0  0  0
   -1.1503    3.6114   -0.6769 C   0  0  0  0  0  0  0  0  0  0  0  0
   -1.9255    3.3002   -1.3943 H   0  0  0  0  0  0  0  0  0  0  0  0
    0.7781    4.3710    1.2170 C   0  0  0  0  0  0  0  0  0  0  0  0
    1.5382    4.6645    1.9574 H   0  0  0  0  0  0  0  0  0  0  0  0
    3.5745   -1.2042    0.3872 C   0  0  0  0  0  0  0  0  0  0  0  0
    4.4180   -1.7828    0.7798 H   0  0  0  0  0  0  0  0  0  0  0  0
    5.5703    0.6319   -2.0399 C   0  0  0  0  0  0  0  0  0  0  0  0
    4.8597    1.3191   -2.5408 H   0  0  0  0  0  0  0  0  0  0  0  0
    5.4849   -0.3573   -2.5332 H   0  0  0  0  0  0  0  0  0  0  0  0
    6.5949    1.0202   -2.2172 H   0  0  0  0  0  0  0  0  0  0  0  0
    3.3652   -3.6904    1.8038 C   0  0  0  0  0  0  0  0  0  0  0  0
    4.0615   -3.9024    0.9676 H   0  0  0  0  0  0  0  0  0  0  0  0
    3.1458   -4.6556    2.3032 H   0  0  0  0  0  0  0  0  0  0  0  0
    3.8907   -3.0465    2.5384 H   0  0  0  0  0  0  0  0  0  0  0  0
    1.1381   -2.8638    2.5509 C   0  0  0  0  0  0  0  0  0  0  0  0
    0.1525   -2.4620    2.2544 H   0  0  0  0  0  0  0  0  0  0  0  0
    1.6004   -2.1616    3.2750 H   0  0  0  0  0  0  0  0  0  0  0  0
    0.9821   -3.8333    3.0683 H   0  0  0  0  0  0  0  0  0  0  0  0
   -0.2743    5.2453    0.9031 C   0  0  0  0  0  0  0  0  0  0  0  0
   -0.3454    6.2261    1.3975 H   0  0  0  0  0  0  0  0  0  0  0  0
    6.3472   -0.4061    0.0984 C   0  0  0  0  0  0  0  0  0  0  0  0
    6.2130   -0.5087    1.1942 H   0  0  0  0  0  0  0  0  0  0  0  0
    7.3592    0.0120   -0.0759 H   0  0  0  0  0  0  0  0  0  0  0  0
    6.3240   -1.4205   -0.3481 H   0  0  0  0  0  0  0  0  0  0  0  0
    5.4108    1.9129    0.1292 C   0  0  0  0  0  0  0  0  0  0  0  0
    5.2163    1.8556    1.2197 H   0  0  0  0  0  0  0  0  0  0  0  0
    4.6903    2.6352   -0.3044 H   0  0  0  0  0  0  0  0  0  0  0  0
    6.4307    2.3256   -0.0176 H   0  0  0  0  0  0  0  0  0  0  0  0
    0.2382    1.5419   -2.9744 C   0  0  0  0  0  0  0  0  0  0  0  0
    1.1442    2.1677   -3.0884 H   0  0  0  0  0  0  0  0  0  0  0  0
   -0.6492    2.0924   -3.3418 H   0  0  0  0  0  0  0  0  0  0  0  0
    0.3303    0.5985   -3.5445 H   0  0  0  0  0  0  0  0  0  0  0  0
  1 48  1  6  0  0  0
  1  5  1  0  0  0  0
  1  4  1  0  0  0  0
  3  8  1  0  0  0  0
  4  6  1  0  0  0  0
  5  9  1  0  0  0  0
  6  7  1  0  0  0  0
  6 22  2  0  0  0  0
  8 30  1  0  0  0  0
  8 34  1  0  0  0  0
  9  2  1  0  0  0  0
  9  3  2  0  0  0  0
 10 11  1  0  0  0  0
 10 40  1  0  0  0  0
 10 44  1  0  0  0  0
 11 24  2  0  0  0  0
 12 38  2  0  0  0  0
 13 12  1  0  0  0  0
 14  5  2  0  0  0  0
 14 11  1  0  0  0  0
 15 14  1  0  0  0  0
 16 19  1  0  0  0  0
 16  8  1  0  0  0  0
 17 16  1  0  0  0  0
 18 16  1  0  0  0  0
 20  4  2  0  0  0  0
 20 12  1  0  0  0  0
 21 20  1  0  0  0  0
 22 23  1  0  0  0  0
 24  3  1  0  0  0  0
 24 25  1  0  0  0  0
 26 10  1  0  0  0  0
 27 26  1  0  0  0  0
 28 26  1  0  0  0  0
 29 26  1  0  0  0  0
 30 32  1  0  0  0  0
 30 33  1  0  0  0  0
 31 30  1  0  0  0  0
 34 37  1  0  0  0  0
 34 36  1  0  0  0  0
 35 34  1  0  0  0  0
 38 22  1  0  0  0  0
 38 39  1  0  0  0  0
 40 41  1  0  0  0  0
 42 40  1  0  0  0  0
 43 40  1  0  0  0  0
 44 45  1  0  0  0  0
 46 44  1  0  0  0  0
 47 44  1  0  0  0  0
 49 48  1  0  0  0  0
 50 48  1  0  0  0  0
 51 48  1  0  0  0  0
M  CHG  1   2  -1
M  END
