4
q = -1.0

  7  6  0  0  0  0  0  0  0  0999 V2000
   -5.5925   -0.0366   -0.1021 Cl  0  0  0  0  0  0  0  0  0  0  0  0
   -4.0681    0.8700    0.0117 C   0  0  0  0  0  0  0  0  0  0  0  0
   -2.8335   -0.0370    0.0486 C   0  0  0  0  0  0  0  0  0  0  0  0
   -1.7812    0.6095   -0.3471 O   0  5  0  0  0  0  0  0  0  0  0  0
   -2.8972   -1.2130    0.4398 O   0  0  0  0  0  0  0  0  0  0  0  0
   -3.9885    1.5782   -0.8335 H   0  0  0  0  0  0  0  0  0  0  0  0
   -4.0653    1.4549    0.9545 H   0  0  0  0  0  0  0  0  0  0  0  0
  1  2  1  0  0  0  0
  2  3  1  0  0  0  0
  2  7  1  0  0  0  0
  3  5  2  0  0  0  0
  4  3  1  0  0  0  0
  6  2  1  0  0  0  0
M  CHG  1   4  -1
M  END
