5
q = -1

  5  4  0  0  0  0  0  0  0  0999 V2000
   -1.0134   -1.4722    1.9686 P   0  0  0  0  0  0  0  0  0  0  0  0
   -0.5234    0.1022    1.8867 O   0  0  0  0  0  0  0  0  0  0  0  0
   -2.5037   -1.4961    1.8312 O   0  0  0  0  0  0  0  0  0  0  0  0
   -0.0305   -2.4730    2.4781 O   0  0  0  0  0  0  0  0  0  0  0  0
    0.9297    0.2391    1.7499 O   0  0  0  0  0  0  0  0  0  0  0  0
  1  4  2  0  0  0  0
  2  1  1  0  0  0  0
  3  1  2  0  0  0  0
  5  2  1  0  0  0  0
M  END
