4
q = -1.0

 12 12  0  0  0  0  0  0  0  0999 V2000
   -0.9887    2.2694   -1.5462 Cl  0  0  0  0  0  0  0  0  0  0  0  0
   -0.9167   -2.8532    0.2322 Cl  0  0  0  0  0  0  0  0  0  0  0  0
   -5.6021   -0.1073    0.0632 Cl  0  0  0  0  0  0  0  0  0  0  0  0
    0.2151   -0.3406   -0.8555 O   0  5  0  0  0  0  0  0  0  0  0  0
   -1.0930   -0.2908   -0.6565 C   0  0  0  0  0  0  0  0  0  0  0  0
   -1.8376    0.8860   -0.9371 C   0  0  0  0  0  0  0  0  0  0  0  0
   -3.2196    0.9499   -0.7206 C   0  0  0  0  0  0  0  0  0  0  0  0
   -3.8835   -0.1781   -0.2126 C   0  0  0  0  0  0  0  0  0  0  0  0
   -3.1883   -1.3637    0.0740 C   0  0  0  0  0  0  0  0  0  0  0  0
   -1.8067   -1.4077   -0.1480 C   0  0  0  0  0  0  0  0  0  0  0  0
   -3.7686    1.8731   -0.9449 H   0  0  0  0  0  0  0  0  0  0  0  0
   -3.7123   -2.2430    0.4691 H   0  0  0  0  0  0  0  0  0  0  0  0
  1  6  1  0  0  0  0
  4  5  1  0  0  0  0
  5 10  1  0  0  0  0
  6  7  1  0  0  0  0
  6  5  2  0  0  0  0
  7  8  2  0  0  0  0
  8  3  1  0  0  0  0
  8  9  1  0  0  0  0
  9 12  1  0  0  0  0
 10  9  2  0  0  0  0
 10  2  1  0  0  0  0
 11  7  1  0  0  0  0
M  CHG  1   4  -1
M  END
