2
q = 0.0, confidence = 0.896

 36 38  0  0  0  0  0  0  0  0999 V2000
    1.9461    0.2577    0.0873 P   0  0  0  0  0  0  0  0  0  0  0  0
    0.2000   -1.4204    1.5155 O   0  0  0  0  0  1  0  0  0  0  0  0
    1.0285   -2.3920    1.2209 C   0  0  0  0  0  3  0  0  0  0  0  0
    0.6707   -3.4422    1.3161 H   0  0  0  0  0  0  0  0  0  0  0  0
    2.4920   -2.1645    1.3680 C   0  0  0  0  0  0  0  0  0  0  0  0
    3.3185   -3.1721    1.8976 C   0  0  0  0  0  0  0  0  0  0  0  0
    2.8720   -4.1396    2.1757 H   0  0  0  0  0  0  0  0  0  0  0  0
    4.6902   -2.9427    2.0830 C   0  0  0  0  0  0  0  0  0  0  0  0
    5.3274   -3.7369    2.5003 H   0  0  0  0  0  0  0  0  0  0  0  0
    5.2470   -1.7038    1.7329 C   0  0  0  0  0  0  0  0  0  0  0  0
    6.3236   -1.5216    1.8689 H   0  0  0  0  0  0  0  0  0  0  0  0
    4.4342   -0.6985    1.1796 C   0  0  0  0  0  0  0  0  0  0  0  0
    4.8865    0.2532    0.8647 H   0  0  0  0  0  0  0  0  0  0  0  0
    3.0633   -0.9215    0.9869 C   0  0  0  0  0  0  0  0  0  0  0  0
    3.0572    1.0741   -1.1377 C   0  0  0  0  0  0  0  0  0  0  0  0
    3.9748    2.0882   -0.7845 C   0  0  0  0  0  0  0  0  0  0  0  0
    4.0243    2.4495    0.2536 H   0  0  0  0  0  0  0  0  0  0  0  0
    4.8134    2.6524   -1.7566 C   0  0  0  0  0  0  0  0  0  0  0  0
    5.5247    3.4422   -1.4704 H   0  0  0  0  0  0  0  0  0  0  0  0
    4.7448    2.2150   -3.0898 C   0  0  0  0  0  0  0  0  0  0  0  0
    5.4018    2.6625   -3.8511 H   0  0  0  0  0  0  0  0  0  0  0  0
    3.8337    1.2099   -3.4484 C   0  0  0  0  0  0  0  0  0  0  0  0
    3.7703    0.8643   -4.4912 H   0  0  0  0  0  0  0  0  0  0  0  0
    2.9940    0.6421   -2.4782 C   0  0  0  0  0  0  0  0  0  0  0  0
    2.2737   -0.1407   -2.7568 H   0  0  0  0  0  0  0  0  0  0  0  0
    1.6394    1.5787    1.3390 C   0  0  0  0  0  0  0  0  0  0  0  0
    1.4313    2.9186    0.9478 C   0  0  0  0  0  0  0  0  0  0  0  0
    1.4580    3.1971   -0.1151 H   0  0  0  0  0  0  0  0  0  0  0  0
    1.2128    3.9127    1.9132 C   0  0  0  0  0  0  0  0  0  0  0  0
    1.0676    4.9560    1.5936 H   0  0  0  0  0  0  0  0  0  0  0  0
    1.1836    3.5792    3.2761 C   0  0  0  0  0  0  0  0  0  0  0  0
    1.0204    4.3609    4.0335 H   0  0  0  0  0  0  0  0  0  0  0  0
    1.3529    2.2420    3.6676 C   0  0  0  0  0  0  0  0  0  0  0  0
    1.3102    1.9678    4.7324 H   0  0  0  0  0  0  0  0  0  0  0  0
    1.5789    1.2453    2.7080 C   0  0  0  0  0  0  0  0  0  0  0  0
    1.7120    0.2004    3.0199 H   0  0  0  0  0  0  0  0  0  0  0  0
  1 14  1  0  0  0  0
  1 26  1  0  0  0  0
  3  4  1  0  0  0  0
  3  5  1  0  0  0  0
  3  2  1  0  0  0  0
  5  6  1  0  0  0  0
  6  8  2  0  0  0  0
  6  7  1  0  0  0  0
  8  9  1  0  0  0  0
 10 11  1  0  0  0  0
 10  8  1  0  0  0  0
 12 10  2  0  0  0  0
 13 12  1  0  0  0  0
 14 12  1  0  0  0  0
 14  5  2  0  0  0  0
 15 16  1  0  0  0  0
 15  1  1  0  0  0  0
 16 17  1  0  0  0  0
 18 19  1  0  0  0  0
 18 16  2  0  0  0  0
 20 18  1  0  0  0  0
 21 20  1  0  0  0  0
 22 20  2  0  0  0  0
 22 24  1  0  0  0  0
 23 22  1  0  0  0  0
 24 15  2  0  0  0  0
 25 24  1  0  0  0  0
 26 35  1  0  0  0  0
 27 26  2  0  0  0  0
 27 29  1  0  0  0  0
 28 27  1  0  0  0  0
 29 31  2  0  0  0  0
 30 29  1  0  0  0  0
 31 33  1  0  0  0  0
 31 32  1  0  0  0  0
 33 34  1  0  0  0  0
 35 36  1  0  0  0  0
 35 33  2  0  0  0  0
M  END
