1
q = -1.0, confidence = 0.006

 11 10  0  0  0  0  0  0  0  0999 V2000
   -1.1867   -0.0757    0.2823 O   0  0  0  0  0  1  0  0  0  0  0  0
   -2.3655   -0.3177   -0.3484 C   0  0  0  0  0  0  0  0  0  0  0  0
   -2.2839   -0.8875   -1.3141 H   0  0  0  0  0  0  0  0  0  0  0  0
   -3.2558   -1.1910    0.5680 C   0  0  0  0  0  0  0  0  0  0  0  0
   -3.0823    1.0009   -0.7366 C   0  0  0  0  0  0  0  0  0  0  0  0
   -3.4422   -0.6281    1.7813 F   0  0  0  0  0  0  0  0  0  0  0  0
   -4.4704   -1.4463    0.0364 F   0  0  0  0  0  0  0  0  0  0  0  0
   -2.6508   -2.3938    0.7777 F   0  0  0  0  0  0  0  0  0  0  0  0
   -2.2673    1.7521   -1.5206 F   0  0  0  0  0  0  0  0  0  0  0  0
   -3.3944    1.7490    0.3468 F   0  0  0  0  0  0  0  0  0  0  0  0
   -4.2198    0.7857   -1.4333 F   0  0  0  0  0  0  0  0  0  0  0  0
  2  1  1  0  0  0  0
  2  4  1  0  0  0  0
  3  2  1  0  0  0  0
  4  8  1  0  0  0  0
  4  6  1  0  0  0  0
  5  2  1  0  0  0  0
  5 10  1  0  0  0  0
  7  4  1  0  0  0  0
  9  5  1  0  0  0  0
 11  5  1  0  0  0  0
M  END
