1
q = -1.0

 30 30  0  0  0  0  0  0  0  0999 V2000
   -0.0189    0.0006    0.6400 O   0  5  0  0  0  0  0  0  0  0  0  0
   -1.2748   -0.0005    0.1398 C   0  0  0  0  0  0  0  0  0  0  0  0
   -1.9141    1.2437   -0.1127 C   0  0  0  0  0  0  0  0  0  0  0  0
   -3.2207    1.2130   -0.6309 C   0  0  0  0  0  0  0  0  0  0  0  0
   -3.8702   -0.0027   -0.8891 C   0  0  0  0  0  0  0  0  0  0  0  0
   -3.2187   -1.2172   -0.6308 C   0  0  0  0  0  0  0  0  0  0  0  0
   -1.9121   -1.2458   -0.1126 C   0  0  0  0  0  0  0  0  0  0  0  0
   -1.7079    3.7616   -0.5297 C   0  0  0  0  0  0  0  0  0  0  0  0
   -1.1845    2.5357    0.2248 C   0  0  0  0  0  0  0  0  0  0  0  0
   -1.1918    2.7736    1.7472 C   0  0  0  0  0  0  0  0  0  0  0  0
   -1.7017   -3.7634   -0.5294 C   0  0  0  0  0  0  0  0  0  0  0  0
   -1.1804   -2.5366    0.2250 C   0  0  0  0  0  0  0  0  0  0  0  0
   -1.1872   -2.7745    1.7474 C   0  0  0  0  0  0  0  0  0  0  0  0
   -3.7415    2.1588   -0.8392 H   0  0  0  0  0  0  0  0  0  0  0  0
   -4.8922   -0.0035   -1.2970 H   0  0  0  0  0  0  0  0  0  0  0  0
   -3.7380   -2.1639   -0.8390 H   0  0  0  0  0  0  0  0  0  0  0  0
   -0.1225    2.3859   -0.0695 H   0  0  0  0  0  0  0  0  0  0  0  0
   -1.7234    3.5966   -1.6261 H   0  0  0  0  0  0  0  0  0  0  0  0
   -1.0656    4.6415   -0.3243 H   0  0  0  0  0  0  0  0  0  0  0  0
   -2.7370    4.0316   -0.2137 H   0  0  0  0  0  0  0  0  0  0  0  0
   -2.2283    2.9286    2.1119 H   0  0  0  0  0  0  0  0  0  0  0  0
   -0.5948    3.6711    2.0106 H   0  0  0  0  0  0  0  0  0  0  0  0
   -0.7631    1.9069    2.2863 H   0  0  0  0  0  0  0  0  0  0  0  0
   -0.1186   -2.3851   -0.0694 H   0  0  0  0  0  0  0  0  0  0  0  0
   -2.7304   -4.0351   -0.2135 H   0  0  0  0  0  0  0  0  0  0  0  0
   -1.0580   -4.6423   -0.3239 H   0  0  0  0  0  0  0  0  0  0  0  0
   -1.7175   -3.5985   -1.6259 H   0  0  0  0  0  0  0  0  0  0  0  0
   -0.7602   -1.9070    2.2865 H   0  0  0  0  0  0  0  0  0  0  0  0
   -0.5886   -3.6709    2.0107 H   0  0  0  0  0  0  0  0  0  0  0  0
   -2.2235   -2.9314    2.1120 H   0  0  0  0  0  0  0  0  0  0  0  0
  2  1  1  0  0  0  0
  3  2  2  0  0  0  0
  3  9  1  0  0  0  0
  4  3  1  0  0  0  0
  5  4  2  0  0  0  0
  5  6  1  0  0  0  0
  6  7  2  0  0  0  0
  7  2  1  0  0  0  0
  7 12  1  0  0  0  0
  8 19  1  0  0  0  0
  8 20  1  0  0  0  0
  8  9  1  0  0  0  0
  9 10  1  0  0  0  0
 10 22  1  0  0  0  0
 10 21  1  0  0  0  0
 10 23  1  0  0  0  0
 11 26  1  0  0  0  0
 11 25  1  0  0  0  0
 11 12  1  0  0  0  0
 12 13  1  0  0  0  0
 13 29  1  0  0  0  0
 13 30  1  0  0  0  0
 13 28  1  0  0  0  0
 14  4  1  0  0  0  0
 15  5  1  0  0  0  0
 16  6  1  0  0  0  0
 17  9  1  0  0  0  0
 18  8  1  0  0  0  0
 24 12  1  0  0  0  0
 27 11  1  0  0  0  0
M  CHG  1   1  -1
M  END
