1
q = -1.0

 21 21  0  0  0  0  0  0  0  0999 V2000
   -0.9179   -0.7392    0.3035 O   0  5  0  0  0  0  0  0  0  0  0  0
   -2.2207   -0.5216    0.2614 C   0  0  0  0  0  0  0  0  0  0  0  0
   -3.1260   -1.6159    0.2686 C   0  0  0  0  0  0  0  0  0  0  0  0
   -2.7074   -2.6340    0.3169 H   0  0  0  0  0  0  0  0  0  0  0  0
   -4.5151   -1.4239    0.2203 C   0  0  0  0  0  0  0  0  0  0  0  0
   -5.0611   -0.1117    0.1642 C   0  0  0  0  0  0  0  0  0  0  0  0
   -4.1722    0.9942    0.1615 C   0  0  0  0  0  0  0  0  0  0  0  0
   -2.7829    0.7789    0.2094 C   0  0  0  0  0  0  0  0  0  0  0  0
   -2.0936    1.6330    0.2046 H   0  0  0  0  0  0  0  0  0  0  0  0
   -5.4341   -2.6214    0.2272 C   0  0  0  0  0  0  0  0  0  0  0  0
   -4.8641   -3.5693    0.2725 H   0  0  0  0  0  0  0  0  0  0  0  0
   -6.0758   -2.6536   -0.6795 H   0  0  0  0  0  0  0  0  0  0  0  0
   -6.1296   -2.6016    1.0937 H   0  0  0  0  0  0  0  0  0  0  0  0
   -6.5594    0.0660    0.1118 C   0  0  0  0  0  0  0  0  0  0  0  0
   -7.0611   -0.3801    0.9984 H   0  0  0  0  0  0  0  0  0  0  0  0
   -7.0059   -0.4363   -0.7743 H   0  0  0  0  0  0  0  0  0  0  0  0
   -6.8602    1.1284    0.0688 H   0  0  0  0  0  0  0  0  0  0  0  0
   -4.6829    2.4174    0.1064 C   0  0  0  0  0  0  0  0  0  0  0  0
   -5.3364    2.6602    0.9710 H   0  0  0  0  0  0  0  0  0  0  0  0
   -5.2830    2.6107   -0.8080 H   0  0  0  0  0  0  0  0  0  0  0  0
   -3.8438    3.1401    0.1118 H   0  0  0  0  0  0  0  0  0  0  0  0
  2  3  1  0  0  0  0
  2  1  1  0  0  0  0
  3  4  1  0  0  0  0
  5 10  1  0  0  0  0
  5  3  2  0  0  0  0
  6  5  1  0  0  0  0
  7  6  2  0  0  0  0
  7  8  1  0  0  0  0
  8  2  2  0  0  0  0
  9  8  1  0  0  0  0
 10 11  1  0  0  0  0
 10 13  1  0  0  0  0
 12 10  1  0  0  0  0
 14  6  1  0  0  0  0
 14 15  1  0  0  0  0
 16 14  1  0  0  0  0
 17 14  1  0  0  0  0
 18 21  1  0  0  0  0
 18  7  1  0  0  0  0
 18 19  1  0  0  0  0
 20 18  1  0  0  0  0
M  CHG  1   1  -1
M  END
