1
q = -1.0

 16 16  0  0  0  0  0  0  0  0999 V2000
   -1.8764   -0.8249   -0.2277 O   0  5  0  0  0  0  0  0  0  0  0  0
   -1.7533   -2.6219    1.1505 O   0  0  0  0  0  0  0  0  0  0  0  0
   -8.0318   -0.0368   -0.9752 O   0  0  0  0  0  0  0  0  0  0  0  0
   -6.1772    0.8580   -1.7032 O   0  0  0  0  0  0  0  0  0  0  0  0
   -6.8043    0.0131   -1.0614 N   0  0  0  0  0  0  0  0  0  0  0  0
   -4.6276   -0.9280   -0.3256 C   0  0  0  0  0  0  0  0  0  0  0  0
   -4.1121   -0.1054   -0.8375 H   0  0  0  0  0  0  0  0  0  0  0  0
   -6.0227   -1.0203   -0.3386 C   0  0  0  0  0  0  0  0  0  0  0  0
   -6.7108   -2.0560    0.3117 C   0  0  0  0  0  0  0  0  0  0  0  0
   -7.8078   -2.0753    0.2701 H   0  0  0  0  0  0  0  0  0  0  0  0
   -5.9653   -3.0280    0.9932 C   0  0  0  0  0  0  0  0  0  0  0  0
   -6.4851   -3.8510    1.5064 H   0  0  0  0  0  0  0  0  0  0  0  0
   -4.5636   -2.9497    1.0259 C   0  0  0  0  0  0  0  0  0  0  0  0
   -3.9546   -3.6914    1.5634 H   0  0  0  0  0  0  0  0  0  0  0  0
   -3.8905   -1.9016    0.3698 C   0  0  0  0  0  0  0  0  0  0  0  0
   -2.3798   -1.7914    0.4405 C   0  0  0  0  0  0  0  0  0  0  0  0
  1 16  1  0  0  0  0
  4  5  2  0  0  0  0
  5  3  2  0  0  0  0
  5  8  1  0  0  0  0
  6 15  1  0  0  0  0
  7  6  1  0  0  0  0
  8  6  2  0  0  0  0
  8  9  1  0  0  0  0
  9 11  2  0  0  0  0
 10  9  1  0  0  0  0
 11 13  1  0  0  0  0
 11 12  1  0  0  0  0
 13 14  1  0  0  0  0
 15 16  1  0  0  0  0
 15 13  2  0  0  0  0
 16  2  2  0  0  0  0
M  CHG  1   1  -1
M  END
