3
q = -1.0

 12 12  0  0  0  0  0  0  0  0999 V2000
   -5.5176    0.1612   -1.9843 F   0  0  0  0  0  0  0  0  0  0  0  0
   -6.3520   -2.3794   -2.4784 F   0  0  0  0  0  0  0  0  0  0  0  0
   -0.9809   -1.2835   -2.0723 O   0  5  0  0  0  0  0  0  0  0  0  0
   -2.2997   -1.5481   -2.2059 C   0  0  0  0  0  0  0  0  0  0  0  0
   -3.2455   -0.5106   -2.0511 C   0  0  0  0  0  0  0  0  0  0  0  0
   -2.9265    0.5158   -1.8297 H   0  0  0  0  0  0  0  0  0  0  0  0
   -4.6056   -0.8073   -2.1438 C   0  0  0  0  0  0  0  0  0  0  0  0
   -5.0392   -2.1243   -2.3948 C   0  0  0  0  0  0  0  0  0  0  0  0
   -4.0972   -3.1455   -2.5571 C   0  0  0  0  0  0  0  0  0  0  0  0
   -4.4599   -4.1645   -2.7547 H   0  0  0  0  0  0  0  0  0  0  0  0
   -2.7256   -2.8658   -2.4677 C   0  0  0  0  0  0  0  0  0  0  0  0
   -1.9747   -3.6586   -2.5855 H   0  0  0  0  0  0  0  0  0  0  0  0
  2  8  1  0  0  0  0
  4  3  1  0  0  0  0
  4  5  1  0  0  0  0
  5  6  1  0  0  0  0
  7  5  2  0  0  0  0
  7  1  1  0  0  0  0
  8  7  1  0  0  0  0
  9 11  1  0  0  0  0
  9  8  2  0  0  0  0
 10  9  1  0  0  0  0
 11  4  2  0  0  0  0
 12 11  1  0  0  0  0
M  CHG  1   3  -1
M  END
