2
q = -1.0

 32 31  0  0  0  0  0  0  0  0999 V2000
    1.7122    2.8008   -0.1383 Si  0  0  0  0  0  0  0  0  0  0  0  0
    0.6311    1.7087   -0.8478 O   0  0  0  0  0  1  0  0  0  0  0  0
    2.3865    3.8044   -1.6257 C   0  0  0  0  0  0  0  0  0  0  0  0
    2.6990    2.9159   -2.8401 C   0  0  0  0  0  0  0  0  0  0  0  0
    3.5688    4.7105   -1.2515 C   0  0  0  0  0  0  0  0  0  0  0  0
    3.0186    1.7903    0.8193 C   0  0  0  0  0  0  0  0  0  0  0  0
    3.8544    0.8714   -0.0860 C   0  0  0  0  0  0  0  0  0  0  0  0
    3.8999    2.6233    1.7621 C   0  0  0  0  0  0  0  0  0  0  0  0
    0.7628    3.9540    1.0547 C   0  0  0  0  0  0  0  0  0  0  0  0
   -0.3658    4.7219    0.3476 C   0  0  0  0  0  0  0  0  0  0  0  0
    0.2284    3.1945    2.2810 C   0  0  0  0  0  0  0  0  0  0  0  0
    1.5278    4.4579   -1.9053 H   0  0  0  0  0  0  0  0  0  0  0  0
    3.5601    2.2447   -2.6428 H   0  0  0  0  0  0  0  0  0  0  0  0
    2.9591    3.5313   -3.7301 H   0  0  0  0  0  0  0  0  0  0  0  0
    1.8378    2.2711   -3.1053 H   0  0  0  0  0  0  0  0  0  0  0  0
    3.3449    5.3653   -0.3830 H   0  0  0  0  0  0  0  0  0  0  0  0
    3.8581    5.3716   -2.0988 H   0  0  0  0  0  0  0  0  0  0  0  0
    4.4668    4.1119   -0.9896 H   0  0  0  0  0  0  0  0  0  0  0  0
    2.3842    1.1257    1.4492 H   0  0  0  0  0  0  0  0  0  0  0  0
    3.2188    0.3015   -0.7931 H   0  0  0  0  0  0  0  0  0  0  0  0
    4.4096    0.1266    0.5230 H   0  0  0  0  0  0  0  0  0  0  0  0
    4.5953    1.4471   -0.6819 H   0  0  0  0  0  0  0  0  0  0  0  0
    4.5700    3.3136    1.2071 H   0  0  0  0  0  0  0  0  0  0  0  0
    4.5515    1.9596    2.3731 H   0  0  0  0  0  0  0  0  0  0  0  0
    3.3040    3.2380    2.4680 H   0  0  0  0  0  0  0  0  0  0  0  0
    1.5269    4.6920    1.4002 H   0  0  0  0  0  0  0  0  0  0  0  0
    0.0039    5.3332   -0.5015 H   0  0  0  0  0  0  0  0  0  0  0  0
   -0.8820    5.4105    1.0528 H   0  0  0  0  0  0  0  0  0  0  0  0
   -1.1314    4.0222   -0.0474 H   0  0  0  0  0  0  0  0  0  0  0  0
   -0.5287    2.4422    1.9776 H   0  0  0  0  0  0  0  0  0  0  0  0
   -0.2622    3.8906    2.9970 H   0  0  0  0  0  0  0  0  0  0  0  0
    1.0260    2.6548    2.8305 H   0  0  0  0  0  0  0  0  0  0  0  0
  1  6  1  0  0  0  0
  1  9  1  0  0  0  0
  2  1  1  0  0  0  0
  3  5  1  0  0  0  0
  3  1  1  0  0  0  0
  4 13  1  0  0  0  0
  4  3  1  0  0  0  0
  5 18  1  0  0  0  0
  5 16  1  0  0  0  0
  6 19  1  0  0  0  0
  6  8  1  0  0  0  0
  7 21  1  0  0  0  0
  7  6  1  0  0  0  0
  8 24  1  0  0  0  0
  8 25  1  0  0  0  0
  9 26  1  0  0  0  0
  9 11  1  0  0  0  0
 10 28  1  0  0  0  0
 10  9  1  0  0  0  0
 11 32  1  0  0  0  0
 11 31  1  0  0  0  0
 12  3  1  0  0  0  0
 14  4  1  0  0  0  0
 15  4  1  0  0  0  0
 17  5  1  0  0  0  0
 20  7  1  0  0  0  0
 22  7  1  0  0  0  0
 23  8  1  0  0  0  0
 27 10  1  0  0  0  0
 29 10  1  0  0  0  0
 30 11  1  0  0  0  0
M  END
