2
q = -1

 19 19  0  0  0  0  0  0  0  0999 V2000
    0.2916   -1.2596   -1.2898 O   0  0  0  0  0  0  0  0  0  0  0  0
    2.8543   -1.3086   -0.2883 O   0  0  0  0  0  1  0  0  0  0  0  0
   -1.0759   -1.2095   -1.1487 C   0  0  0  0  0  0  0  0  0  0  0  0
   -1.7205   -0.1314   -1.7866 C   0  0  0  0  0  0  0  0  0  0  0  0
   -1.1202    0.5511   -2.4054 H   0  0  0  0  0  0  0  0  0  0  0  0
   -3.0991    0.0473   -1.6236 C   0  0  0  0  0  0  0  0  0  0  0  0
   -3.5963    0.8929   -2.1228 H   0  0  0  0  0  0  0  0  0  0  0  0
   -3.8455   -0.8483   -0.8377 C   0  0  0  0  0  0  0  0  0  0  0  0
   -4.9290   -0.7069   -0.7123 H   0  0  0  0  0  0  0  0  0  0  0  0
   -3.1986   -1.9309   -0.2241 C   0  0  0  0  0  0  0  0  0  0  0  0
   -3.7696   -2.6381    0.3958 H   0  0  0  0  0  0  0  0  0  0  0  0
   -1.8161   -2.1233   -0.3765 C   0  0  0  0  0  0  0  0  0  0  0  0
   -1.3230   -2.9599    0.1353 H   0  0  0  0  0  0  0  0  0  0  0  0
    0.9666   -2.5187   -1.1737 C   0  0  0  0  0  0  0  0  0  0  0  0
    0.6273   -3.2120   -1.9747 H   0  0  0  0  0  0  0  0  0  0  0  0
    0.7749   -2.9760   -0.1801 H   0  0  0  0  0  0  0  0  0  0  0  0
    2.4446   -2.1915   -1.3024 C   0  0  0  0  0  0  0  0  0  0  0  0
    3.0417   -3.1286   -1.2371 H   0  0  0  0  0  0  0  0  0  0  0  0
    2.6452   -1.7238   -2.2942 H   0  0  0  0  0  0  0  0  0  0  0  0
  1 14  1  0  0  0  0
  1  3  1  0  0  0  0
  3 12  1  0  0  0  0
  4  6  1  0  0  0  0
  4  3  2  0  0  0  0
  5  4  1  0  0  0  0
  6  8  2  0  0  0  0
  7  6  1  0  0  0  0
  8  9  1  0  0  0  0
  8 10  1  0  0  0  0
 10 11  1  0  0  0  0
 12 10  2  0  0  0  0
 12 13  1  0  0  0  0
 14 16  1  0  0  0  0
 15 14  1  0  0  0  0
 17 18  1  0  0  0  0
 17 14  1  0  0  0  0
 17  2  1  0  0  0  0
 19 17  1  0  0  0  0
M  END
