2
q = -1.0, confidence = 0.002

 24 23  0  0  0  0  0  0  0  0999 V2000
   -0.9500   -0.1489    1.1180 O   0  0  0  0  0  0  0  0  0  0  0  0
   -1.8535    0.3149   -1.2356 O   0  0  0  0  0  1  0  0  0  0  0  0
   -3.1183   -0.2583    2.2731 C   0  0  0  0  0  0  0  0  0  0  0  0
   -2.9024   -1.0255    3.0425 H   0  0  0  0  0  0  0  0  0  0  0  0
   -4.2090   -0.2928    2.0861 H   0  0  0  0  0  0  0  0  0  0  0  0
   -2.8670    0.7371    2.6850 H   0  0  0  0  0  0  0  0  0  0  0  0
   -2.4578   -2.0186    0.5909 C   0  0  0  0  0  0  0  0  0  0  0  0
   -1.9638   -2.2203   -0.3773 H   0  0  0  0  0  0  0  0  0  0  0  0
   -3.5176   -2.3317    0.5363 H   0  0  0  0  0  0  0  0  0  0  0  0
   -1.9744   -2.6523    1.3602 H   0  0  0  0  0  0  0  0  0  0  0  0
   -2.3549   -0.5382    0.9739 C   0  0  0  0  0  0  0  0  0  0  0  0
   -2.8265    0.4053   -0.1935 C   0  0  0  0  0  0  0  0  0  0  0  0
   -4.1630   -0.0320   -0.8054 C   0  0  0  0  0  0  0  0  0  0  0  0
   -4.4610    0.7010   -1.5791 H   0  0  0  0  0  0  0  0  0  0  0  0
   -4.9640   -0.0729   -0.0409 H   0  0  0  0  0  0  0  0  0  0  0  0
   -4.0755   -1.0217   -1.2899 H   0  0  0  0  0  0  0  0  0  0  0  0
   -0.2076   -0.7622    2.1574 C   0  0  0  0  0  0  0  0  0  0  0  0
   -0.7364   -0.7040    3.1315 H   0  0  0  0  0  0  0  0  0  0  0  0
    0.7390   -0.1982    2.2551 H   0  0  0  0  0  0  0  0  0  0  0  0
    0.0309   -1.8276    1.9424 H   0  0  0  0  0  0  0  0  0  0  0  0
   -2.8900    1.8783    0.2413 C   0  0  0  0  0  0  0  0  0  0  0  0
   -1.9539    2.1849    0.7419 H   0  0  0  0  0  0  0  0  0  0  0  0
   -3.7499    2.0568    0.9152 H   0  0  0  0  0  0  0  0  0  0  0  0
   -3.0182    2.5087   -0.6591 H   0  0  0  0  0  0  0  0  0  0  0  0
  1 17  1  0  0  0  0
  2 12  1  0  0  0  0
  3  6  1  0  0  0  0
  3  4  1  0  0  0  0
  5  3  1  0  0  0  0
  7 11  1  0  0  0  0
  7 10  1  0  0  0  0
  8  7  1  0  0  0  0
  9  7  1  0  0  0  0
 11  1  1  0  0  0  0
 11  3  1  0  0  0  0
 12 21  1  0  0  0  0
 12 11  1  0  0  0  0
 13 12  1  0  0  0  0
 13 15  1  0  0  0  0
 14 13  1  0  0  0  0
 16 13  1  0  0  0  0
 17 19  1  0  0  0  0
 17 18  1  0  0  0  0
 20 17  1  0  0  0  0
 21 22  1  0  0  0  0
 21 23  1  0  0  0  0
 24 21  1  0  0  0  0
M  END
