1
q = -1.0, confidence = 0.008

 11 10  0  0  0  0  0  0  0  0999 V2000
   -1.9075   -0.2424    0.7774 O   0  0  0  0  0  1  0  0  0  0  0  0
   -3.3278   -0.1554    0.7152 C   0  0  0  0  0  0  0  0  0  0  0  0
   -3.7570    1.2565    0.3102 C   0  0  0  0  0  0  0  0  0  0  0  0
   -3.8830   -1.2394   -0.2102 C   0  0  0  0  0  0  0  0  0  0  0  0
   -3.6802   -0.3525    1.7551 H   0  0  0  0  0  0  0  0  0  0  0  0
   -3.2887    2.0095    0.9733 H   0  0  0  0  0  0  0  0  0  0  0  0
   -4.8590    1.3567    0.3789 H   0  0  0  0  0  0  0  0  0  0  0  0
   -3.4436    1.4684   -0.7311 H   0  0  0  0  0  0  0  0  0  0  0  0
   -3.5329   -2.2401    0.1109 H   0  0  0  0  0  0  0  0  0  0  0  0
   -3.5428   -1.0662   -1.2503 H   0  0  0  0  0  0  0  0  0  0  0  0
   -4.9915   -1.2308   -0.1917 H   0  0  0  0  0  0  0  0  0  0  0  0
  2  1  1  0  0  0  0
  2  5  1  0  0  0  0
  3  7  1  0  0  0  0
  3  2  1  0  0  0  0
  3  6  1  0  0  0  0
  4 11  1  0  0  0  0
  4  9  1  0  0  0  0
  4  2  1  0  0  0  0
  8  3  1  0  0  0  0
 10  4  1  0  0  0  0
M  END
