9
q = -1.0

 13 12  0  0  0  0  0  0  0  0999 V2000
    3.4778   -3.5492   -0.5817 F   0  0  0  0  0  0  0  0  0  0  0  0
    3.9180   -1.8392   -1.9058 F   0  0  0  0  0  0  0  0  0  0  0  0
    4.1321   -2.2224    1.5807 F   0  0  0  0  0  0  0  0  0  0  0  0
    4.0120   -0.2557    0.5810 F   0  0  0  0  0  0  0  0  0  0  0  0
    6.5482   -1.3050    1.1966 F   0  0  0  0  0  0  0  0  0  0  0  0
    6.1795   -0.7615   -0.8810 F   0  0  0  0  0  0  0  0  0  0  0  0
    6.2102   -2.8673   -0.2899 F   0  0  0  0  0  0  0  0  0  0  0  0
    1.4600   -1.6520    0.6066 O   0  5  0  0  0  0  0  0  0  0  0  0
    1.3173   -1.4827   -1.6428 O   0  0  0  0  0  0  0  0  0  0  0  0
    1.9190   -1.7344   -0.5610 C   0  0  0  0  0  0  0  0  0  0  0  0
    3.4040   -2.1893   -0.6895 C   0  0  0  0  0  0  0  0  0  0  0  0
    4.3230   -1.5718    0.4104 C   0  0  0  0  0  0  0  0  0  0  0  0
    5.8503   -1.6294    0.0913 C   0  0  0  0  0  0  0  0  0  0  0  0
  2 11  1  0  0  0  0
  6 13  1  0  0  0  0
  7 13  1  0  0  0  0
  9 10  2  0  0  0  0
 10  8  1  0  0  0  0
 11  1  1  0  0  0  0
 11 10  1  0  0  0  0
 11 12  1  0  0  0  0
 12  4  1  0  0  0  0
 12  3  1  0  0  0  0
 13 12  1  0  0  0  0
 13  5  1  0  0  0  0
M  CHG  1   8  -1
M  END
