1
q = -1.0, confidence = 0.01

 20 20  0  0  0  0  0  0  0  0999 V2000
    2.0317   -0.0023   -0.2077 O   0  5  0  0  0  0  0  0  0  0  0  0
    2.4658    2.2257   -0.2504 O   0  0  0  0  0  0  0  0  0  0  0  0
    2.8190    1.0283   -0.2788 C   0  0  0  0  0  0  0  0  0  0  0  0
    4.3064    0.6735   -0.4423 C   0  0  0  0  0  0  0  0  0  0  0  0
    4.4596    0.6110   -1.5476 H   0  0  0  0  0  0  0  0  0  0  0  0
    4.6953   -0.6898    0.1550 C   0  0  0  0  0  0  0  0  0  0  0  0
    4.4771   -0.6739    1.2470 H   0  0  0  0  0  0  0  0  0  0  0  0
    4.0627   -1.4912   -0.2754 H   0  0  0  0  0  0  0  0  0  0  0  0
    6.1825   -0.9976   -0.0652 C   0  0  0  0  0  0  0  0  0  0  0  0
    6.3676   -1.1260   -1.1560 H   0  0  0  0  0  0  0  0  0  0  0  0
    6.4454   -1.9665    0.4091 H   0  0  0  0  0  0  0  0  0  0  0  0
    7.0834    0.1248    0.4658 C   0  0  0  0  0  0  0  0  0  0  0  0
    6.9821    0.1794    1.5736 H   0  0  0  0  0  0  0  0  0  0  0  0
    8.1506   -0.1037    0.2611 H   0  0  0  0  0  0  0  0  0  0  0  0
    6.6956    1.4803   -0.1395 C   0  0  0  0  0  0  0  0  0  0  0  0
    7.3280    2.2902    0.2814 H   0  0  0  0  0  0  0  0  0  0  0  0
    6.9010    1.4624   -1.2341 H   0  0  0  0  0  0  0  0  0  0  0  0
    5.2130    1.7960    0.0889 C   0  0  0  0  0  0  0  0  0  0  0  0
    5.0223    1.9174    1.1790 H   0  0  0  0  0  0  0  0  0  0  0  0
    4.9218    2.7553   -0.3814 H   0  0  0  0  0  0  0  0  0  0  0  0
  3  2  2  0  0  0  0
  3  1  1  0  0  0  0
  4  3  1  0  0  0  0
  4 18  1  0  0  0  0
  4  6  1  0  0  0  0
  5  4  1  0  0  0  0
  6  7  1  0  0  0  0
  8  6  1  0  0  0  0
  9  6  1  0  0  0  0
  9 11  1  0  0  0  0
  9 12  1  0  0  0  0
 10  9  1  0  0  0  0
 12 13  1  0  0  0  0
 14 12  1  0  0  0  0
 15 18  1  0  0  0  0
 15 16  1  0  0  0  0
 15 12  1  0  0  0  0
 17 15  1  0  0  0  0
 18 19  1  0  0  0  0
 20 18  1  0  0  0  0
M  CHG  1   1  -1
M  END
