1
q = -1.0

 15 15  0  0  0  0  0  0  0  0999 V2000
    1.9017   -0.4680   -0.6453 O   0  5  0  0  0  0  0  0  0  0  0  0
    2.6584    0.5718   -0.4501 C   0  0  0  0  0  0  0  0  0  0  0  0
    2.2809    1.7708   -0.5017 O   0  0  0  0  0  0  0  0  0  0  0  0
    4.0873    0.2436   -0.1901 C   0  0  0  0  0  0  0  0  0  0  0  0
    5.0604    1.2594   -0.2889 C   0  0  0  0  0  0  0  0  0  0  0  0
    4.4841   -1.0687    0.1529 C   0  0  0  0  0  0  0  0  0  0  0  0
    6.4036    0.9741   -0.0399 C   0  0  0  0  0  0  0  0  0  0  0  0
    4.7356    2.2759   -0.5533 H   0  0  0  0  0  0  0  0  0  0  0  0
    5.8237   -1.3608    0.4042 C   0  0  0  0  0  0  0  0  0  0  0  0
    3.7127   -1.8486    0.2249 H   0  0  0  0  0  0  0  0  0  0  0  0
    6.7945   -0.3393    0.3073 C   0  0  0  0  0  0  0  0  0  0  0  0
    7.1638    1.7700   -0.1089 H   0  0  0  0  0  0  0  0  0  0  0  0
    6.1501   -2.3729    0.6826 H   0  0  0  0  0  0  0  0  0  0  0  0
    8.0841   -0.6711    0.5597 O   0  0  0  0  0  0  0  0  0  0  0  0
    8.6373    0.1273    0.4643 H   0  0  0  0  0  0  0  0  0  0  0  0
  1  2  1  0  0  0  0
  2  4  1  0  0  0  0
  3  2  2  0  0  0  0
  4  6  1  0  0  0  0
  5  4  2  0  0  0  0
  5  7  1  0  0  0  0
  6 10  1  0  0  0  0
  6  9  2  0  0  0  0
  7 11  2  0  0  0  0
  8  5  1  0  0  0  0
  9 13  1  0  0  0  0
 11  9  1  0  0  0  0
 11 14  1  0  0  0  0
 12  7  1  0  0  0  0
 15 14  1  0  0  0  0
M  CHG  1   1  -1
M  END
