1
q = -1.0

 14 13  0  0  0  0  0  0  0  0999 V2000
    2.0676   -1.8034   -1.7925 O   0  0  0  0  0  1  0  0  0  0  0  0
    1.9148   -2.3431   -3.1008 C   0  0  0  0  0  0  0  0  0  0  0  0
    2.1174   -1.2067   -4.1172 C   0  0  0  0  0  0  0  0  0  0  0  0
    1.3550   -0.4189   -3.9548 H   0  0  0  0  0  0  0  0  0  0  0  0
    2.0212   -1.5757   -5.1583 H   0  0  0  0  0  0  0  0  0  0  0  0
    3.1268   -0.7599   -4.0034 H   0  0  0  0  0  0  0  0  0  0  0  0
    0.4969   -2.9264   -3.2313 C   0  0  0  0  0  0  0  0  0  0  0  0
    0.3284   -3.7063   -2.4619 H   0  0  0  0  0  0  0  0  0  0  0  0
    0.3427   -3.3817   -4.2306 H   0  0  0  0  0  0  0  0  0  0  0  0
   -0.2584   -2.1287   -3.0844 H   0  0  0  0  0  0  0  0  0  0  0  0
    2.9774   -3.4365   -3.2834 C   0  0  0  0  0  0  0  0  0  0  0  0
    3.9931   -3.0115   -3.1540 H   0  0  0  0  0  0  0  0  0  0  0  0
    2.9134   -3.8963   -4.2904 H   0  0  0  0  0  0  0  0  0  0  0  0
    2.8372   -4.2315   -2.5242 H   0  0  0  0  0  0  0  0  0  0  0  0
  2  1  1  0  0  0  0
  3  6  1  0  0  0  0
  3  4  1  0  0  0  0
  3  2  1  0  0  0  0
  5  3  1  0  0  0  0
  7  2  1  0  0  0  0
  7 10  1  0  0  0  0
  7  8  1  0  0  0  0
  9  7  1  0  0  0  0
 11 12  1  0  0  0  0
 11  2  1  0  0  0  0
 11 14  1  0  0  0  0
 13 11  1  0  0  0  0
M  END
