1
q = -1.0

 29 29  0  0  0  0  0  0  0  0999 V2000
    1.0963   -0.8729   -0.0019 O   0  0  0  0  0  1  0  0  0  0  0  0
    0.7301   -2.0762   -0.0029 N   0  0  0  0  0  0  0  0  0  0  0  0
    0.6899   -2.7682   -1.3461 C   0  0  0  0  0  0  0  0  0  0  0  0
   -0.1611   -4.0478   -1.2472 C   0  0  0  0  0  0  0  0  0  0  0  0
    0.1308   -4.8863   -0.0060 C   0  0  0  0  0  0  0  0  0  0  0  0
   -0.1582   -4.0511    1.2382 C   0  0  0  0  0  0  0  0  0  0  0  0
    0.6930   -2.7718    1.3385 C   0  0  0  0  0  0  0  0  0  0  0  0
    0.0829   -1.8105   -2.3812 C   0  0  0  0  0  0  0  0  0  0  0  0
    2.1553   -3.0686   -1.7393 C   0  0  0  0  0  0  0  0  0  0  0  0
    2.1594   -3.0732    1.7274 C   0  0  0  0  0  0  0  0  0  0  0  0
    0.0885   -1.8170    2.3778 C   0  0  0  0  0  0  0  0  0  0  0  0
   -1.2308   -3.7520   -1.2387 H   0  0  0  0  0  0  0  0  0  0  0  0
    0.0027   -4.6279   -2.1782 H   0  0  0  0  0  0  0  0  0  0  0  0
   -0.5061   -5.7938   -0.0064 H   0  0  0  0  0  0  0  0  0  0  0  0
    1.1811   -5.2484   -0.0077 H   0  0  0  0  0  0  0  0  0  0  0  0
    0.0078   -4.6337    2.1673 H   0  0  0  0  0  0  0  0  0  0  0  0
   -1.2279   -3.7553    1.2330 H   0  0  0  0  0  0  0  0  0  0  0  0
    0.6721   -0.8808   -2.4818 H   0  0  0  0  0  0  0  0  0  0  0  0
   -0.9586   -1.5579   -2.1121 H   0  0  0  0  0  0  0  0  0  0  0  0
    0.0756   -2.3253   -3.3614 H   0  0  0  0  0  0  0  0  0  0  0  0
    2.1698   -3.4791   -2.7679 H   0  0  0  0  0  0  0  0  0  0  0  0
    2.6347   -3.8058   -1.0688 H   0  0  0  0  0  0  0  0  0  0  0  0
    2.7465   -2.1330   -1.7324 H   0  0  0  0  0  0  0  0  0  0  0  0
    2.7504   -2.1376    1.7223 H   0  0  0  0  0  0  0  0  0  0  0  0
    2.6373   -3.8082    1.0533 H   0  0  0  0  0  0  0  0  0  0  0  0
    2.1763   -3.4871    2.7546 H   0  0  0  0  0  0  0  0  0  0  0  0
    0.0843   -2.3344    3.3567 H   0  0  0  0  0  0  0  0  0  0  0  0
   -0.9538   -1.5642    2.1123 H   0  0  0  0  0  0  0  0  0  0  0  0
    0.6774   -0.8872    2.4791 H   0  0  0  0  0  0  0  0  0  0  0  0
  2  1  1  0  0  0  0
  2  7  1  0  0  0  0
  3  4  1  0  0  0  0
  3  2  1  0  0  0  0
  4 12  1  0  0  0  0
  4  5  1  0  0  0  0
  5  6  1  0  0  0  0
  6  7  1  0  0  0  0
  6 16  1  0  0  0  0
  7 10  1  0  0  0  0
  7 11  1  0  0  0  0
  8 19  1  0  0  0  0
  8  3  1  0  0  0  0
  9 23  1  0  0  0  0
  9  3  1  0  0  0  0
  9 22  1  0  0  0  0
 10 26  1  0  0  0  0
 11 29  1  0  0  0  0
 11 27  1  0  0  0  0
 13  4  1  0  0  0  0
 14  5  1  0  0  0  0
 15  5  1  0  0  0  0
 17  6  1  0  0  0  0
 18  8  1  0  0  0  0
 20  8  1  0  0  0  0
 21  9  1  0  0  0  0
 24 10  1  0  0  0  0
 25 10  1  0  0  0  0
 28 11  1  0  0  0  0
M  END
