2
q = 0.0, confidence = 0.778

 36 38  0  0  0  0  0  0  0  0999 V2000
    1.0607    0.1594   -0.0486 B   0  0  0  0  0  0  0  0  0  0  0  0
   -1.3635    0.7700    0.6413 O   0  0  0  0  0  0  0  0  0  0  0  0
    3.2790   -1.9465    0.0340 F   0  0  0  0  0  0  0  0  0  0  0  0
    4.0918   -3.2582    2.2060 F   0  0  0  0  0  0  0  0  0  0  0  0
    3.0591   -2.6660    4.6771 F   0  0  0  0  0  0  0  0  0  0  0  0
    1.1659   -0.6759    4.9117 F   0  0  0  0  0  0  0  0  0  0  0  0
    0.3491    0.6718    2.7531 F   0  0  0  0  0  0  0  0  0  0  0  0
   -0.4740    2.1911   -1.5194 F   0  0  0  0  0  0  0  0  0  0  0  0
   -0.2193    4.8578   -1.3291 F   0  0  0  0  0  0  0  0  0  0  0  0
    1.7756    5.9561    0.2156 F   0  0  0  0  0  0  0  0  0  0  0  0
    3.4935    4.3087    1.5818 F   0  0  0  0  0  0  0  0  0  0  0  0
    3.2392    1.6483    1.4367 F   0  0  0  0  0  0  0  0  0  0  0  0
    0.5807   -2.6309   -0.8303 F   0  0  0  0  0  0  0  0  0  0  0  0
    0.8946   -3.7090   -3.2494 F   0  0  0  0  0  0  0  0  0  0  0  0
    2.0731   -2.2585   -5.2804 F   0  0  0  0  0  0  0  0  0  0  0  0
    2.8862    0.3185   -4.7947 F   0  0  0  0  0  0  0  0  0  0  0  0
    2.5289    1.4387   -2.4092 F   0  0  0  0  0  0  0  0  0  0  0  0
   -0.5840   -0.0471    0.1364 C   0  0  0  0  0  0  0  0  0  0  0  0
    1.6990   -0.6179    1.2581 C   0  0  0  0  0  0  0  0  0  0  0  0
    2.6906   -1.6142    1.1970 C   0  0  0  0  0  0  0  0  0  0  0  0
    3.1505   -2.3151    2.3274 C   0  0  0  0  0  0  0  0  0  0  0  0
    2.6331   -2.0086    3.5951 C   0  0  0  0  0  0  0  0  0  0  0  0
    1.6728   -0.9923    3.7123 C   0  0  0  0  0  0  0  0  0  0  0  0
    1.2511   -0.3185    2.5574 C   0  0  0  0  0  0  0  0  0  0  0  0
    1.3191    1.7794    0.0116 C   0  0  0  0  0  0  0  0  0  0  0  0
    0.4952    2.6705   -0.6934 C   0  0  0  0  0  0  0  0  0  0  0  0
    0.6145    4.0652   -0.6390 C   0  0  0  0  0  0  0  0  0  0  0  0
    1.6340    4.6281    0.1451 C   0  0  0  0  0  0  0  0  0  0  0  0
    2.5064    3.7826    0.8458 C   0  0  0  0  0  0  0  0  0  0  0  0
    2.3401    2.3881    0.7591 C   0  0  0  0  0  0  0  0  0  0  0  0
    1.4724   -0.5131   -1.4913 C   0  0  0  0  0  0  0  0  0  0  0  0
    1.1309   -1.8438   -1.7867 C   0  0  0  0  0  0  0  0  0  0  0  0
    1.3057   -2.4484   -3.0369 C   0  0  0  0  0  0  0  0  0  0  0  0
    1.8927   -1.7095   -4.0760 C   0  0  0  0  0  0  0  0  0  0  0  0
    2.2997   -0.3917   -3.8244 C   0  0  0  0  0  0  0  0  0  0  0  0
    2.0902    0.1754   -2.5511 C   0  0  0  0  0  0  0  0  0  0  0  0
  1 25  1  0  0  0  0
  1 18  1  0  0  0  0
  1 19  1  0  0  0  0
  3 20  1  0  0  0  0
  4 21  1  0  0  0  0
  8 26  1  0  0  0  0
  9 27  1  0  0  0  0
 14 33  1  0  0  0  0
 15 34  1  0  0  0  0
 16 35  1  0  0  0  0
 18  2  1  0  0  0  0
 19 24  1  0  0  0  0
 20 19  2  0  0  0  0
 20 21  1  0  0  0  0
 21 22  2  0  0  0  0
 22 23  1  0  0  0  0
 22  5  1  0  0  0  0
 23  6  1  0  0  0  0
 24  7  1  0  0  0  0
 24 23  2  0  0  0  0
 25 30  1  0  0  0  0
 26 27  1  0  0  0  0
 26 25  2  0  0  0  0
 27 28  2  0  0  0  0
 28 10  1  0  0  0  0
 28 29  1  0  0  0  0
 29 11  1  0  0  0  0
 30 29  2  0  0  0  0
 30 12  1  0  0  0  0
 31  1  1  0  0  0  0
 32 31  1  0  0  0  0
 32 13  1  0  0  0  0
 33 32  2  0  0  0  0
 34 35  2  0  0  0  0
 34 33  1  0  0  0  0
 35 36  1  0  0  0  0
 36 17  1  0  0  0  0
 36 31  2  0  0  0  0
M  END
