1
q = -1.0

 14 13  0  0  1  0  0  0  0  0999 V2000
    0.8645    2.2996   -0.4273 O   0  0  0  0  0  1  0  0  0  0  0  0
    0.9805    3.5738    0.2020 C   0  0  2  0  0  0  0  0  0  0  0  0
    1.0278    3.4045    1.3050 H   0  0  0  0  0  0  0  0  0  0  0  0
   -0.2596    4.3964   -0.1369 C   0  0  0  0  0  0  0  0  0  0  0  0
   -0.3261    4.5660   -1.2303 H   0  0  0  0  0  0  0  0  0  0  0  0
   -0.2213    5.3799    0.3729 H   0  0  0  0  0  0  0  0  0  0  0  0
   -1.1736    3.8642    0.1908 H   0  0  0  0  0  0  0  0  0  0  0  0
    2.2940    4.2189   -0.2567 C   0  0  0  0  0  0  0  0  0  0  0  0
    2.3519    5.2257    0.2109 H   0  0  0  0  0  0  0  0  0  0  0  0
    2.2337    4.3824   -1.3546 H   0  0  0  0  0  0  0  0  0  0  0  0
    3.5290    3.3898    0.0947 C   0  0  0  0  0  0  0  0  0  0  0  0
    3.6067    3.2287    1.1902 H   0  0  0  0  0  0  0  0  0  0  0  0
    4.4590    3.8911   -0.2395 H   0  0  0  0  0  0  0  0  0  0  0  0
    3.4833    2.3910   -0.3836 H   0  0  0  0  0  0  0  0  0  0  0  0
  1  2  1  0  0  0  0
  2  3  1  1  0  0  0
  4  7  1  0  0  0  0
  4  2  1  0  0  0  0
  4  6  1  0  0  0  0
  5  4  1  0  0  0  0
  8 11  1  0  0  0  0
  8  2  1  0  0  0  0
  8  9  1  0  0  0  0
 10  8  1  0  0  0  0
 11 12  1  0  0  0  0
 13 11  1  0  0  0  0
 14 11  1  0  0  0  0
M  END
