1
q = 0.0, confidence = 0.958

 24 24  0  0  0  0  0  0  0  0999 V2000
    0.3179   -0.9163   -1.5853 O   0  0  0  0  0  1  0  0  0  0  0  0
   -0.1452   -0.7483    2.2696 C   0  0  0  0  0  3  0  0  0  0  0  0
    0.9258   -1.5659    1.8238 C   0  0  0  0  0  3  0  0  0  0  0  0
    2.3649   -1.2668    2.1750 C   0  0  0  0  0  0  0  0  0  0  0  0
    3.4344   -1.7674    1.1750 C   0  0  0  0  0  0  0  0  0  0  0  0
    3.6462   -0.8189    0.0227 C   0  0  0  0  0  0  0  0  0  0  0  0
    4.8295   -0.0593   -0.0600 C   0  0  0  0  0  0  0  0  0  0  0  0
    5.0137    0.9066   -1.0601 C   0  0  0  0  0  0  0  0  0  0  0  0
    3.9947    1.1337   -2.0007 C   0  0  0  0  0  0  0  0  0  0  0  0
    2.8117    0.3901   -1.9334 C   0  0  0  0  0  0  0  0  0  0  0  0
    2.6228   -0.5907   -0.9343 C   0  0  0  0  0  0  0  0  0  0  0  0
    1.3531   -1.3664   -0.9219 C   0  0  0  0  0  3  0  0  0  0  0  0
    0.7242   -2.6494    1.7017 H   0  0  0  0  0  0  0  0  0  0  0  0
    5.6215   -0.2297    0.6877 H   0  0  0  0  0  0  0  0  0  0  0  0
    5.9515    1.4814   -1.1047 H   0  0  0  0  0  0  0  0  0  0  0  0
    4.1293    1.8866   -2.7930 H   0  0  0  0  0  0  0  0  0  0  0  0
    1.4559   -2.4697   -0.7704 H   0  0  0  0  0  0  0  0  0  0  0  0
    2.5726   -1.7474    3.1587 H   0  0  0  0  0  0  0  0  0  0  0  0
    2.5003   -0.1750    2.3377 H   0  0  0  0  0  0  0  0  0  0  0  0
    0.0959    0.1917    2.8002 H   0  0  0  0  0  0  0  0  0  0  0  0
    1.9999    0.5391   -2.6611 H   0  0  0  0  0  0  0  0  0  0  0  0
    4.3977   -1.8962    1.7089 H   0  0  0  0  0  0  0  0  0  0  0  0
    3.1402   -2.7789    0.8171 H   0  0  0  0  0  0  0  0  0  0  0  0
   -1.1097   -1.1910    2.5685 H   0  0  0  0  0  0  0  0  0  0  0  0
  1 12  1  0  0  0  0
  2 24  1  0  0  0  0
  2 20  1  0  0  0  0
  3  4  1  0  0  0  0
  3  2  1  0  0  0  0
  4 19  1  0  0  0  0
  4 18  1  0  0  0  0
  5 22  1  0  0  0  0
  5  4  1  0  0  0  0
  6  5  1  0  0  0  0
  7  6  1  0  0  0  0
  7 14  1  0  0  0  0
  8  7  2  0  0  0  0
  9 10  2  0  0  0  0
  9  8  1  0  0  0  0
 10 11  1  0  0  0  0
 11 12  1  0  0  0  0
 11  6  2  0  0  0  0
 12 17  1  0  0  0  0
 13  3  1  0  0  0  0
 15  8  1  0  0  0  0
 16  9  1  0  0  0  0
 21 10  1  0  0  0  0
 23  5  1  0  0  0  0
M  END
