1
q = -1.0

 35 38  0  0  0  0  0  0  0  0999 V2000
    0.2553    2.0051    0.1560 O   0  5  0  0  0  0  0  0  0  0  0  0
   -0.0028    0.9297    2.5101 O   0  0  0  0  0  0  0  0  0  0  0  0
    0.1032    1.5359    1.6993 H   0  0  0  0  0  0  0  0  0  0  0  0
   -1.0658    1.9105   -0.0823 C   0  0  0  0  0  0  0  0  0  0  0  0
   -1.7154    3.0262   -0.6984 C   0  0  0  0  0  0  0  0  0  0  0  0
   -1.0791    3.8706   -1.0018 H   0  0  0  0  0  0  0  0  0  0  0  0
   -3.0798    3.0348   -0.9049 C   0  0  0  0  0  0  0  0  0  0  0  0
   -3.5663    3.8959   -1.3902 H   0  0  0  0  0  0  0  0  0  0  0  0
   -3.8885    1.9408   -0.4770 C   0  0  0  0  0  0  0  0  0  0  0  0
   -5.3044    1.9589   -0.6343 C   0  0  0  0  0  0  0  0  0  0  0  0
   -5.7635    2.8317   -1.1256 H   0  0  0  0  0  0  0  0  0  0  0  0
   -6.0926    0.9159   -0.1716 C   0  0  0  0  0  0  0  0  0  0  0  0
   -7.1856    0.9451   -0.2971 H   0  0  0  0  0  0  0  0  0  0  0  0
   -5.4800   -0.1824    0.4864 C   0  0  0  0  0  0  0  0  0  0  0  0
   -6.1032   -0.9983    0.8837 H   0  0  0  0  0  0  0  0  0  0  0  0
   -4.1023   -0.2351    0.6443 C   0  0  0  0  0  0  0  0  0  0  0  0
   -3.6480   -1.0855    1.1703 H   0  0  0  0  0  0  0  0  0  0  0  0
   -3.2542    0.8042    0.1505 C   0  0  0  0  0  0  0  0  0  0  0  0
   -1.8187    0.7702    0.2927 C   0  0  0  0  0  0  0  0  0  0  0  0
   -1.1358   -0.4240    0.8642 C   0  0  0  0  0  0  0  0  0  0  0  0
   -0.3172   -0.2813    2.0060 C   0  0  0  0  0  0  0  0  0  0  0  0
    0.2028   -1.4260    2.6812 C   0  0  0  0  0  0  0  0  0  0  0  0
    0.7766   -1.2536    3.6044 H   0  0  0  0  0  0  0  0  0  0  0  0
   -0.0174   -2.6992    2.1912 C   0  0  0  0  0  0  0  0  0  0  0  0
    0.3804   -3.5793    2.7210 H   0  0  0  0  0  0  0  0  0  0  0  0
   -0.7352   -2.8923    0.9744 C   0  0  0  0  0  0  0  0  0  0  0  0
   -0.8902   -4.1888    0.4019 C   0  0  0  0  0  0  0  0  0  0  0  0
   -0.4595   -5.0509    0.9363 H   0  0  0  0  0  0  0  0  0  0  0  0
   -1.5579   -4.3678   -0.8005 C   0  0  0  0  0  0  0  0  0  0  0  0
   -1.6673   -5.3740   -1.2327 H   0  0  0  0  0  0  0  0  0  0  0  0
   -2.0987   -3.2402   -1.4737 C   0  0  0  0  0  0  0  0  0  0  0  0
   -2.6196   -3.3751   -2.4340 H   0  0  0  0  0  0  0  0  0  0  0  0
   -1.9757   -1.9670   -0.9356 C   0  0  0  0  0  0  0  0  0  0  0  0
   -2.3930   -1.1041   -1.4713 H   0  0  0  0  0  0  0  0  0  0  0  0
   -1.2987   -1.7426    0.3029 C   0  0  0  0  0  0  0  0  0  0  0  0
  3  2  1  0  0  0  0
  4  1  1  0  0  0  0
  4 19  1  0  0  0  0
  5  4  2  0  0  0  0
  6  5  1  0  0  0  0
  7  5  1  0  0  0  0
  7  9  2  0  0  0  0
  8  7  1  0  0  0  0
  9 18  1  0  0  0  0
 10  9  1  0  0  0  0
 10 12  2  0  0  0  0
 11 10  1  0  0  0  0
 12 14  1  0  0  0  0
 13 12  1  0  0  0  0
 14 16  2  0  0  0  0
 14 15  1  0  0  0  0
 16 17  1  0  0  0  0
 18 19  2  0  0  0  0
 18 16  1  0  0  0  0
 19 20  1  0  0  0  0
 20 21  1  0  0  0  0
 21  2  1  0  0  0  0
 21 22  2  0  0  0  0
 22 23  1  0  0  0  0
 24 22  1  0  0  0  0
 24 25  1  0  0  0  0
 26 24  2  0  0  0  0
 27 28  1  0  0  0  0
 27 26  1  0  0  0  0
 29 27  2  0  0  0  0
 30 29  1  0  0  0  0
 31 33  2  0  0  0  0
 31 29  1  0  0  0  0
 32 31  1  0  0  0  0
 33 35  1  0  0  0  0
 34 33  1  0  0  0  0
 35 20  2  0  0  0  0
 35 26  1  0  0  0  0
M  CHG  1   1  -1
M  END
