1
q = -1.0

 43 46  0  0  0  0  0  0  0  0999 V2000
    0.3302    1.8685    0.4258 O   0  5  0  0  0  0  0  0  0  0  0  0
   -0.3848    0.8469    2.7609 O   0  0  0  0  0  0  0  0  0  0  0  0
   -0.1241    1.4424    1.9886 H   0  0  0  0  0  0  0  0  0  0  0  0
   -0.9623    1.8599    0.0350 C   0  0  0  0  0  0  0  0  0  0  0  0
   -1.5291    3.0050   -0.5669 C   0  0  0  0  0  0  0  0  0  0  0  0
   -0.8706    3.8600   -0.7800 H   0  0  0  0  0  0  0  0  0  0  0  0
   -2.8927    3.0387   -0.8589 C   0  0  0  0  0  0  0  0  0  0  0  0
   -3.3267    3.9367   -1.3293 H   0  0  0  0  0  0  0  0  0  0  0  0
   -3.7430    1.9608   -0.5387 C   0  0  0  0  0  0  0  0  0  0  0  0
   -5.2224    2.0594   -0.8692 C   0  0  0  0  0  0  0  0  0  0  0  0
   -5.5604    3.1103   -0.7480 H   0  0  0  0  0  0  0  0  0  0  0  0
   -5.3615    1.8263   -1.9512 H   0  0  0  0  0  0  0  0  0  0  0  0
   -6.0984    1.1105   -0.0488 C   0  0  0  0  0  0  0  0  0  0  0  0
   -7.1362    1.1086   -0.4427 H   0  0  0  0  0  0  0  0  0  0  0  0
   -6.1573    1.4690    1.0031 H   0  0  0  0  0  0  0  0  0  0  0  0
   -5.4983   -0.2964   -0.0645 C   0  0  0  0  0  0  0  0  0  0  0  0
   -6.1562   -1.0169    0.4647 H   0  0  0  0  0  0  0  0  0  0  0  0
   -5.4259   -0.6508   -1.1178 H   0  0  0  0  0  0  0  0  0  0  0  0
   -4.1084   -0.2966    0.5749 C   0  0  0  0  0  0  0  0  0  0  0  0
   -3.6335   -1.2904    0.4720 H   0  0  0  0  0  0  0  0  0  0  0  0
   -4.2116   -0.1521    1.6754 H   0  0  0  0  0  0  0  0  0  0  0  0
   -3.1898    0.8037    0.0639 C   0  0  0  0  0  0  0  0  0  0  0  0
   -1.7885    0.7287    0.3002 C   0  0  0  0  0  0  0  0  0  0  0  0
   -1.1700   -0.4896    0.9069 C   0  0  0  0  0  0  0  0  0  0  0  0
   -0.5691   -0.3717    2.1895 C   0  0  0  0  0  0  0  0  0  0  0  0
   -0.1366   -1.5237    2.8752 C   0  0  0  0  0  0  0  0  0  0  0  0
    0.2843   -1.4074    3.8851 H   0  0  0  0  0  0  0  0  0  0  0  0
   -0.2272   -2.7725    2.2570 C   0  0  0  0  0  0  0  0  0  0  0  0
    0.1146   -3.6721    2.7953 H   0  0  0  0  0  0  0  0  0  0  0  0
   -0.7147   -2.9080    0.9413 C   0  0  0  0  0  0  0  0  0  0  0  0
   -0.7643   -4.2893    0.3097 C   0  0  0  0  0  0  0  0  0  0  0  0
   -1.6373   -4.8429    0.7277 H   0  0  0  0  0  0  0  0  0  0  0  0
    0.1287   -4.8732    0.6200 H   0  0  0  0  0  0  0  0  0  0  0  0
   -0.8916   -4.2614   -1.2146 C   0  0  0  0  0  0  0  0  0  0  0  0
    0.0705   -3.9278   -1.6671 H   0  0  0  0  0  0  0  0  0  0  0  0
   -1.0867   -5.2826   -1.6035 H   0  0  0  0  0  0  0  0  0  0  0  0
   -1.9974   -3.2874   -1.6247 C   0  0  0  0  0  0  0  0  0  0  0  0
   -2.9546   -3.6030   -1.1514 H   0  0  0  0  0  0  0  0  0  0  0  0
   -2.1662   -3.3122   -2.7214 H   0  0  0  0  0  0  0  0  0  0  0  0
   -1.6430   -1.8661   -1.1853 C   0  0  0  0  0  0  0  0  0  0  0  0
   -2.4790   -1.1696   -1.3871 H   0  0  0  0  0  0  0  0  0  0  0  0
   -0.8109   -1.4879   -1.8193 H   0  0  0  0  0  0  0  0  0  0  0  0
   -1.1913   -1.7588    0.2622 C   0  0  0  0  0  0  0  0  0  0  0  0
  3  2  1  0  0  0  0
  4 23  1  0  0  0  0
  4  1  1  0  0  0  0
  5  4  2  0  0  0  0
  6  5  1  0  0  0  0
  7  5  1  0  0  0  0
  7  9  2  0  0  0  0
  8  7  1  0  0  0  0
  9 22  1  0  0  0  0
 10 11  1  0  0  0  0
 10  9  1  0  0  0  0
 10 13  1  0  0  0  0
 12 10  1  0  0  0  0
 13 15  1  0  0  0  0
 14 13  1  0  0  0  0
 16 13  1  0  0  0  0
 16 17  1  0  0  0  0
 16 19  1  0  0  0  0
 18 16  1  0  0  0  0
 19 21  1  0  0  0  0
 20 19  1  0  0  0  0
 22 23  2  0  0  0  0
 22 19  1  0  0  0  0
 23 24  1  0  0  0  0
 24 25  1  0  0  0  0
 25  2  1  0  0  0  0
 25 26  2  0  0  0  0
 26 27  1  0  0  0  0
 28 29  1  0  0  0  0
 28 26  1  0  0  0  0
 30 28  2  0  0  0  0
 31 33  1  0  0  0  0
 31 32  1  0  0  0  0
 31 30  1  0  0  0  0
 34 31  1  0  0  0  0
 35 34  1  0  0  0  0
 36 34  1  0  0  0  0
 37 34  1  0  0  0  0
 37 40  1  0  0  0  0
 37 38  1  0  0  0  0
 39 37  1  0  0  0  0
 40 43  1  0  0  0  0
 41 40  1  0  0  0  0
 42 40  1  0  0  0  0
 43 24  2  0  0  0  0
 43 30  1  0  0  0  0
M  CHG  1   1  -1
M  END
