1
q = -1.0, confidence = 0.002

 39 42  0  0  0  0  0  0  0  0999 V2000
   -0.9256   -1.3435   -0.8370 O   0  5  0  0  0  0  0  0  0  0  0  0
   -0.2723   -0.9866    1.2946 O   0  0  0  0  0  0  0  0  0  0  0  0
    1.7494   -1.1108    2.9201 O   0  0  0  0  0  0  0  0  0  0  0  0
    0.9673   -1.0729    2.2561 H   0  0  0  0  0  0  0  0  0  0  0  0
    3.2674    0.3052    3.7725 O   0  0  0  0  0  0  0  0  0  0  0  0
   -0.0375   -1.2684    0.0913 C   0  0  0  0  0  0  0  0  0  0  0  0
    1.3803   -1.5507   -0.3280 C   0  0  0  0  0  0  0  0  0  0  0  0
    1.6799   -2.7743   -0.9907 C   0  0  0  0  0  0  0  0  0  0  0  0
    0.8510   -3.4534   -1.2381 H   0  0  0  0  0  0  0  0  0  0  0  0
    2.9869   -3.1029   -1.3017 C   0  0  0  0  0  0  0  0  0  0  0  0
    3.2185   -4.0553   -1.8033 H   0  0  0  0  0  0  0  0  0  0  0  0
    4.0566   -2.2183   -0.9793 C   0  0  0  0  0  0  0  0  0  0  0  0
    5.4131   -2.5353   -1.2819 C   0  0  0  0  0  0  0  0  0  0  0  0
    5.6320   -3.4993   -1.7674 H   0  0  0  0  0  0  0  0  0  0  0  0
    6.4372   -1.6536   -0.9721 C   0  0  0  0  0  0  0  0  0  0  0  0
    7.4801   -1.9132   -1.2091 H   0  0  0  0  0  0  0  0  0  0  0  0
    6.1438   -0.4137   -0.3438 C   0  0  0  0  0  0  0  0  0  0  0  0
    6.9619    0.2782   -0.0929 H   0  0  0  0  0  0  0  0  0  0  0  0
    4.8352   -0.0726   -0.0377 C   0  0  0  0  0  0  0  0  0  0  0  0
    4.6136    0.8815    0.4616 H   0  0  0  0  0  0  0  0  0  0  0  0
    3.7579   -0.9592   -0.3389 C   0  0  0  0  0  0  0  0  0  0  0  0
    2.3950   -0.6367   -0.0225 C   0  0  0  0  0  0  0  0  0  0  0  0
    2.4186    0.0372    2.9364 C   0  0  0  0  0  0  0  0  0  0  0  0
    2.0725    1.0460    1.8593 C   0  0  0  0  0  0  0  0  0  0  0  0
    2.0720    0.7315    0.4969 C   0  0  0  0  0  0  0  0  0  0  0  0
    1.8064    1.7668   -0.4699 C   0  0  0  0  0  0  0  0  0  0  0  0
    1.8195    1.5146   -1.8759 C   0  0  0  0  0  0  0  0  0  0  0  0
    2.0526    0.5005   -2.2300 H   0  0  0  0  0  0  0  0  0  0  0  0
    1.5335    2.5215   -2.7872 C   0  0  0  0  0  0  0  0  0  0  0  0
    1.5481    2.3021   -3.8655 H   0  0  0  0  0  0  0  0  0  0  0  0
    1.2223    3.8322   -2.3378 C   0  0  0  0  0  0  0  0  0  0  0  0
    0.9974    4.6238   -3.0688 H   0  0  0  0  0  0  0  0  0  0  0  0
    1.2126    4.1140   -0.9794 C   0  0  0  0  0  0  0  0  0  0  0  0
    0.9847    5.1302   -0.6206 H   0  0  0  0  0  0  0  0  0  0  0  0
    1.5089    3.1049   -0.0168 C   0  0  0  0  0  0  0  0  0  0  0  0
    1.5344    3.3819    1.3814 C   0  0  0  0  0  0  0  0  0  0  0  0
    1.3284    4.4080    1.7244 H   0  0  0  0  0  0  0  0  0  0  0  0
    1.8332    2.3837    2.2890 C   0  0  0  0  0  0  0  0  0  0  0  0
    1.8944    2.5948    3.3666 H   0  0  0  0  0  0  0  0  0  0  0  0
  1  6  1  0  0  0  0
  3 23  1  0  0  0  0
  4  3  1  0  0  0  0
  6  2  2  0  0  0  0
  7 22  1  0  0  0  0
  7  6  1  0  0  0  0
  8  7  2  0  0  0  0
  9  8  1  0  0  0  0
 10  8  1  0  0  0  0
 10 12  2  0  0  0  0
 11 10  1  0  0  0  0
 12 21  1  0  0  0  0
 13 12  1  0  0  0  0
 13 15  2  0  0  0  0
 14 13  1  0  0  0  0
 15 17  1  0  0  0  0
 16 15  1  0  0  0  0
 17 18  1  0  0  0  0
 17 19  2  0  0  0  0
 19 20  1  0  0  0  0
 21 19  1  0  0  0  0
 21 22  2  0  0  0  0
 22 25  1  0  0  0  0
 23  5  2  0  0  0  0
 24 38  1  0  0  0  0
 24 23  1  0  0  0  0
 25 24  2  0  0  0  0
 26 35  1  0  0  0  0
 26 25  1  0  0  0  0
 27 26  2  0  0  0  0
 28 27  1  0  0  0  0
 29 31  2  0  0  0  0
 29 27  1  0  0  0  0
 30 29  1  0  0  0  0
 31 33  1  0  0  0  0
 32 31  1  0  0  0  0
 33 34  1  0  0  0  0
 33 35  2  0  0  0  0
 35 36  1  0  0  0  0
 36 37  1  0  0  0  0
 36 38  2  0  0  0  0
 38 39  1  0  0  0  0
M  CHG  1   1  -1
M  END
