1
q = -1.0, confidence = 0.0

 15 15  0  0  0  0  0  0  0  0999 V2000
   -1.7859    2.1850   -0.2091 O   0  5  0  0  0  0  0  0  0  0  0  0
    0.4093    2.6174    0.0001 O   0  0  0  0  0  0  0  0  0  0  0  0
    1.2748    4.9701   -0.0161 O   0  0  0  0  0  0  0  0  0  0  0  0
    1.1849    3.9442    0.0199 H   0  0  0  0  0  0  0  0  0  0  0  0
   -0.7958    3.0063   -0.1466 C   0  0  0  0  0  0  0  0  0  0  0  0
   -1.0756    4.4639   -0.2450 C   0  0  0  0  0  0  0  0  0  0  0  0
    0.0154    5.3877   -0.1704 C   0  0  0  0  0  0  0  0  0  0  0  0
   -0.2582    6.7742   -0.2629 C   0  0  0  0  0  0  0  0  0  0  0  0
    0.5895    7.4726   -0.2042 H   0  0  0  0  0  0  0  0  0  0  0  0
   -1.5698    7.2261   -0.4240 C   0  0  0  0  0  0  0  0  0  0  0  0
   -1.7605    8.3089   -0.4939 H   0  0  0  0  0  0  0  0  0  0  0  0
   -2.6477    6.3187   -0.4978 C   0  0  0  0  0  0  0  0  0  0  0  0
   -3.6766    6.6865   -0.6247 H   0  0  0  0  0  0  0  0  0  0  0  0
   -2.3902    4.9483   -0.4077 C   0  0  0  0  0  0  0  0  0  0  0  0
   -3.2000    4.2056   -0.4601 H   0  0  0  0  0  0  0  0  0  0  0  0
  1  5  1  0  0  0  0
  3  4  1  0  0  0  0
  5  2  2  0  0  0  0
  6  7  1  0  0  0  0
  6  5  1  0  0  0  0
  7  3  1  0  0  0  0
  8  9  1  0  0  0  0
  8  7  2  0  0  0  0
 10  8  1  0  0  0  0
 11 10  1  0  0  0  0
 12 10  2  0  0  0  0
 12 14  1  0  0  0  0
 13 12  1  0  0  0  0
 14  6  2  0  0  0  0
 15 14  1  0  0  0  0
M  CHG  1   1  -1
M  END
