2
q = -1.0

 35 37  0  0  0  0  0  0  0  0999 V2000
    1.9612   -0.3280   -0.0448 Si  0  0  0  0  0  0  0  0  0  0  0  0
    0.5216   -0.7688   -0.7054 O   0  0  0  0  0  1  0  0  0  0  0  0
    2.5485    1.4088   -0.5563 C   0  0  0  0  0  0  0  0  0  0  0  0
    2.0547    2.5658    0.0882 C   0  0  0  0  0  0  0  0  0  0  0  0
    2.4035    3.8523   -0.3507 C   0  0  0  0  0  0  0  0  0  0  0  0
    3.2653    4.0091   -1.4488 C   0  0  0  0  0  0  0  0  0  0  0  0
    3.7765    2.8736   -2.0983 C   0  0  0  0  0  0  0  0  0  0  0  0
    3.4210    1.5895   -1.6542 C   0  0  0  0  0  0  0  0  0  0  0  0
    1.9333   -0.3763    1.8571 C   0  0  0  0  0  0  0  0  0  0  0  0
    2.9203    0.2798    2.6279 C   0  0  0  0  0  0  0  0  0  0  0  0
    2.9273    0.1923    4.0299 C   0  0  0  0  0  0  0  0  0  0  0  0
    1.9409   -0.5573    4.6916 C   0  0  0  0  0  0  0  0  0  0  0  0
    0.9484   -1.2126    3.9443 C   0  0  0  0  0  0  0  0  0  0  0  0
    0.9479   -1.1203    2.5434 C   0  0  0  0  0  0  0  0  0  0  0  0
    3.2567   -1.5682   -0.6605 C   0  0  0  0  0  0  0  0  0  0  0  0
    4.6153   -1.4846   -0.2819 C   0  0  0  0  0  0  0  0  0  0  0  0
    5.5551   -2.4195   -0.7424 C   0  0  0  0  0  0  0  0  0  0  0  0
    5.1494   -3.4604   -1.5945 C   0  0  0  0  0  0  0  0  0  0  0  0
    3.8034   -3.5597   -1.9813 C   0  0  0  0  0  0  0  0  0  0  0  0
    2.8679   -2.6209   -1.5167 C   0  0  0  0  0  0  0  0  0  0  0  0
    1.3778    2.4601    0.9500 H   0  0  0  0  0  0  0  0  0  0  0  0
    1.9997    4.7369    0.1664 H   0  0  0  0  0  0  0  0  0  0  0  0
    3.5431    5.0167   -1.7955 H   0  0  0  0  0  0  0  0  0  0  0  0
    4.4573    2.9901   -2.9562 H   0  0  0  0  0  0  0  0  0  0  0  0
    3.8275    0.7056   -2.1719 H   0  0  0  0  0  0  0  0  0  0  0  0
    3.6925    0.8841    2.1236 H   0  0  0  0  0  0  0  0  0  0  0  0
    3.7045    0.7140    4.6102 H   0  0  0  0  0  0  0  0  0  0  0  0
    1.9450   -0.6283    5.7905 H   0  0  0  0  0  0  0  0  0  0  0  0
    0.1692   -1.7992    4.4568 H   0  0  0  0  0  0  0  0  0  0  0  0
    0.1548   -1.6196    1.9632 H   0  0  0  0  0  0  0  0  0  0  0  0
    4.9496   -0.6736    0.3865 H   0  0  0  0  0  0  0  0  0  0  0  0
    6.6096   -2.3383   -0.4352 H   0  0  0  0  0  0  0  0  0  0  0  0
    5.8850   -4.1955   -1.9566 H   0  0  0  0  0  0  0  0  0  0  0  0
    3.4815   -4.3744   -2.6491 H   0  0  0  0  0  0  0  0  0  0  0  0
    1.8094   -2.6916   -1.8146 H   0  0  0  0  0  0  0  0  0  0  0  0
  1  9  1  0  0  0  0
  2  1  1  0  0  0  0
  3  1  1  0  0  0  0
  3  4  1  0  0  0  0
  4 21  1  0  0  0  0
  5  4  2  0  0  0  0
  5 22  1  0  0  0  0
  6  5  1  0  0  0  0
  7  8  1  0  0  0  0
  7  6  2  0  0  0  0
  8  3  2  0  0  0  0
  9 14  2  0  0  0  0
  9 10  1  0  0  0  0
 10 11  2  0  0  0  0
 11 27  1  0  0  0  0
 11 12  1  0  0  0  0
 12 28  1  0  0  0  0
 13 29  1  0  0  0  0
 13 12  2  0  0  0  0
 14 13  1  0  0  0  0
 15 16  1  0  0  0  0
 15  1  1  0  0  0  0
 16 31  1  0  0  0  0
 17 32  1  0  0  0  0
 17 16  2  0  0  0  0
 18 17  1  0  0  0  0
 19 18  2  0  0  0  0
 19 20  1  0  0  0  0
 20 15  2  0  0  0  0
 23  6  1  0  0  0  0
 24  7  1  0  0  0  0
 25  8  1  0  0  0  0
 26 10  1  0  0  0  0
 30 14  1  0  0  0  0
 33 18  1  0  0  0  0
 34 19  1  0  0  0  0
 35 20  1  0  0  0  0
M  END
