1
q = -1.0, confidence = 0.01

 14 13  0  0  0  0  0  0  0  0999 V2000
    0.8389   -0.7801   -1.4200 O   0  5  0  0  0  0  0  0  0  0  0  0
    2.8877   -0.6021   -2.3415 O   0  0  0  0  0  0  0  0  0  0  0  0
    0.6534    1.8683   -0.9413 O   0  0  0  0  0  0  0  0  0  0  0  0
    1.8714   -0.1020   -1.8651 C   0  0  0  0  0  0  0  0  0  0  0  0
    1.7299    1.4578   -1.8124 C   0  0  0  0  0  0  0  0  0  0  0  0
    3.0484    2.0734   -1.3371 C   0  0  0  0  0  0  0  0  0  0  0  0
    3.0050    3.1796   -1.4013 H   0  0  0  0  0  0  0  0  0  0  0  0
    3.8785    1.6963   -1.9622 H   0  0  0  0  0  0  0  0  0  0  0  0
    3.2599    1.7865   -0.2853 H   0  0  0  0  0  0  0  0  0  0  0  0
    1.3481    1.9267   -3.2192 C   0  0  0  0  0  0  0  0  0  0  0  0
    0.3727    1.4891   -3.5132 H   0  0  0  0  0  0  0  0  0  0  0  0
    2.1148    1.6029   -3.9483 H   0  0  0  0  0  0  0  0  0  0  0  0
    1.2584    3.0315   -3.2420 H   0  0  0  0  0  0  0  0  0  0  0  0
    1.0095    1.8415   -0.0115 H   0  0  0  0  0  0  0  0  0  0  0  0
  2  4  2  0  0  0  0
  3 14  1  0  0  0  0
  4  5  1  0  0  0  0
  4  1  1  0  0  0  0
  5  6  1  0  0  0  0
  5  3  1  0  0  0  0
  6  9  1  0  0  0  0
  7  6  1  0  0  0  0
  8  6  1  0  0  0  0
 10  5  1  0  0  0  0
 11 10  1  0  0  0  0
 12 10  1  0  0  0  0
 13 10  1  0  0  0  0
M  CHG  1   1  -1
M  END
