1
q = -1.0

 11 10  0  0  0  0  0  0  0  0999 V2000
    2.5673   -0.6251   -0.4216 O   0  0  0  0  0  1  0  0  0  0  0  0
    2.8012   -1.7034   -1.2997 C   0  0  0  0  0  0  0  0  0  0  0  0
    2.6770   -1.3582   -2.3542 H   0  0  0  0  0  0  0  0  0  0  0  0
    2.0193   -2.4819   -1.1225 H   0  0  0  0  0  0  0  0  0  0  0  0
    4.1926   -2.2946   -1.0823 C   0  0  0  0  0  0  0  0  0  0  0  0
    4.9521   -1.5118   -1.2977 H   0  0  0  0  0  0  0  0  0  0  0  0
    4.3392   -3.0908   -1.8444 H   0  0  0  0  0  0  0  0  0  0  0  0
    4.4026   -2.8623    0.3212 C   0  0  0  0  0  0  0  0  0  0  0  0
    4.2988   -2.0681    1.0880 H   0  0  0  0  0  0  0  0  0  0  0  0
    5.4099   -3.3097    0.4370 H   0  0  0  0  0  0  0  0  0  0  0  0
    3.6539   -3.6494    0.5519 H   0  0  0  0  0  0  0  0  0  0  0  0
  2  4  1  0  0  0  0
  2  5  1  0  0  0  0
  2  1  1  0  0  0  0
  3  2  1  0  0  0  0
  5  8  1  0  0  0  0
  6  5  1  0  0  0  0
  7  5  1  0  0  0  0
  8 10  1  0  0  0  0
  8 11  1  0  0  0  0
  8  9  1  0  0  0  0
M  END
