1
q = -1.0, confidence = 0.0

 26 26  0  0  0  0  0  0  0  0999 V2000
    1.2991   -1.1865   -0.0509 O   0  5  0  0  0  0  0  0  0  0  0  0
    1.2716    1.0597    0.2665 O   0  0  0  0  0  0  0  0  0  0  0  0
    6.2588   -2.3734   -0.2178 O   0  0  0  0  0  0  0  0  0  0  0  0
    7.5612   -0.0834    0.2239 O   0  0  0  0  0  0  0  0  0  0  0  0
    6.2465    2.2735    0.4936 O   0  0  0  0  0  0  0  0  0  0  0  0
    1.8648   -0.0292    0.1174 C   0  0  0  0  0  0  0  0  0  0  0  0
    3.3782   -0.0568    0.1256 C   0  0  0  0  0  0  0  0  0  0  0  0
    4.0759   -1.2652   -0.0450 C   0  0  0  0  0  0  0  0  0  0  0  0
    3.4856   -2.1779   -0.1898 H   0  0  0  0  0  0  0  0  0  0  0  0
    5.4827   -1.2649   -0.0410 C   0  0  0  0  0  0  0  0  0  0  0  0
    6.1941   -0.0548    0.1607 C   0  0  0  0  0  0  0  0  0  0  0  0
    5.4752    1.1568    0.3220 C   0  0  0  0  0  0  0  0  0  0  0  0
    4.0705    1.1529    0.3077 C   0  0  0  0  0  0  0  0  0  0  0  0
    3.4675    2.0609    0.4350 H   0  0  0  0  0  0  0  0  0  0  0  0
    5.5993   -3.6083   -0.3998 C   0  0  0  0  0  0  0  0  0  0  0  0
    4.9656   -3.8767    0.4759 H   0  0  0  0  0  0  0  0  0  0  0  0
    6.3909   -4.3723   -0.5188 H   0  0  0  0  0  0  0  0  0  0  0  0
    4.9542   -3.6100   -1.3080 H   0  0  0  0  0  0  0  0  0  0  0  0
    8.2255    0.4166   -0.9289 C   0  0  0  0  0  0  0  0  0  0  0  0
    7.9626   -0.1729   -1.8365 H   0  0  0  0  0  0  0  0  0  0  0  0
    9.3126    0.3168   -0.7419 H   0  0  0  0  0  0  0  0  0  0  0  0
    7.9867    1.4877   -1.1094 H   0  0  0  0  0  0  0  0  0  0  0  0
    5.5801    3.5046    0.6825 C   0  0  0  0  0  0  0  0  0  0  0  0
    4.9449    3.7752   -0.1914 H   0  0  0  0  0  0  0  0  0  0  0  0
    6.3673    4.2717    0.8084 H   0  0  0  0  0  0  0  0  0  0  0  0
    4.9357    3.4930    1.5903 H   0  0  0  0  0  0  0  0  0  0  0  0
  1  6  1  0  0  0  0
  3 10  1  0  0  0  0
  5 23  1  0  0  0  0
  6  7  1  0  0  0  0
  6  2  2  0  0  0  0
  7 13  1  0  0  0  0
  8 10  1  0  0  0  0
  8  7  2  0  0  0  0
  9  8  1  0  0  0  0
 10 11  2  0  0  0  0
 11  4  1  0  0  0  0
 11 12  1  0  0  0  0
 12  5  1  0  0  0  0
 13 12  2  0  0  0  0
 13 14  1  0  0  0  0
 15  3  1  0  0  0  0
 15 16  1  0  0  0  0
 17 15  1  0  0  0  0
 18 15  1  0  0  0  0
 19 21  1  0  0  0  0
 19  4  1  0  0  0  0
 20 19  1  0  0  0  0
 22 19  1  0  0  0  0
 23 25  1  0  0  0  0
 23 26  1  0  0  0  0
 24 23  1  0  0  0  0
M  CHG  1   1  -1
M  END
