1
q = -1.0, confidence = 0.0

 14 14  0  0  0  0  0  0  0  0999 V2000
   -1.4542    0.2335    0.3432 O   0  5  0  0  0  0  0  0  0  0  0  0
   -1.9995   -1.4913   -1.0205 O   0  0  0  0  0  0  0  0  0  0  0  0
   -2.2962   -0.5232   -0.2903 C   0  0  0  0  0  0  0  0  0  0  0  0
   -3.7557   -0.1641   -0.0925 C   0  0  0  0  0  0  0  0  0  0  0  0
   -4.1506    0.8855    0.7603 C   0  0  0  0  0  0  0  0  0  0  0  0
   -5.5089    1.1961    0.9198 C   0  0  0  0  0  0  0  0  0  0  0  0
   -6.4849    0.4601    0.2270 C   0  0  0  0  0  0  0  0  0  0  0  0
   -6.0974   -0.5896   -0.6236 C   0  0  0  0  0  0  0  0  0  0  0  0
   -4.7398   -0.9001   -0.7805 C   0  0  0  0  0  0  0  0  0  0  0  0
   -3.3700    1.4447    1.2962 H   0  0  0  0  0  0  0  0  0  0  0  0
   -5.8116    2.0162    1.5896 H   0  0  0  0  0  0  0  0  0  0  0  0
   -7.5514    0.7044    0.3516 H   0  0  0  0  0  0  0  0  0  0  0  0
   -6.8613   -1.1680   -1.1663 H   0  0  0  0  0  0  0  0  0  0  0  0
   -4.4001   -1.7163   -1.4353 H   0  0  0  0  0  0  0  0  0  0  0  0
  2  3  2  0  0  0  0
  3  4  1  0  0  0  0
  3  1  1  0  0  0  0
  4  5  1  0  0  0  0
  5  6  2  0  0  0  0
  5 10  1  0  0  0  0
  6 11  1  0  0  0  0
  7 12  1  0  0  0  0
  7  6  1  0  0  0  0
  8  7  2  0  0  0  0
  9  8  1  0  0  0  0
  9  4  2  0  0  0  0
 13  8  1  0  0  0  0
 14  9  1  0  0  0  0
M  CHG  1   1  -1
M  END
