3
q = -1.0

 32 32  0  0  1  0  0  0  0  0999 V2000
   -3.0547   -0.9352   -0.7349 O   0  0  0  0  0  0  0  0  0  0  0  0
   -3.2102   -2.9051    0.5386 O   0  0  0  0  0  0  0  0  0  0  0  0
   -0.2212   -1.7540   -1.0399 O   0  0  0  0  0  1  0  0  0  0  0  0
    0.4702   -0.7562    1.3658 O   0  0  0  0  0  0  0  0  0  0  0  0
    0.9538   -1.5920    1.5497 H   0  0  0  0  0  0  0  0  0  0  0  0
   -1.8463    0.9655    2.1302 O   0  0  0  0  0  0  0  0  0  0  0  0
   -2.9948    1.9751   -0.8951 O   0  0  0  0  0  0  0  0  0  0  0  0
   -2.5032   -2.2016   -0.4546 C   0  0  2  0  0  0  0  0  0  0  0  0
   -2.5233   -2.7402   -1.4302 H   0  0  0  0  0  0  0  0  0  0  0  0
   -1.0484   -2.0962    0.0364 C   0  0  2  0  0  0  0  0  0  0  0  0
   -0.9170   -1.0812    1.1915 C   0  0  2  0  0  0  0  0  0  0  0  0
   -1.6755    0.2225    0.9329 C   0  0  1  0  0  0  0  0  0  0  0  0
   -1.1317    0.8088    0.1620 H   0  0  0  0  0  0  0  0  0  0  0  0
   -3.0886   -0.0579    0.3943 C   0  0  1  0  0  0  0  0  0  0  0  0
   -3.6803   -0.5206    1.2182 H   0  0  0  0  0  0  0  0  0  0  0  0
   -3.7999    1.2210   -0.0128 C   0  0  0  0  0  0  0  0  0  0  0  0
   -4.7712    0.9493   -0.4945 H   0  0  0  0  0  0  0  0  0  0  0  0
   -4.0218    1.8021    0.9142 H   0  0  0  0  0  0  0  0  0  0  0  0
   -4.5273   -3.2605    0.1518 C   0  0  0  0  0  0  0  0  0  0  0  0
   -4.9818   -3.8082    0.9988 H   0  0  0  0  0  0  0  0  0  0  0  0
   -4.5212   -3.9217   -0.7462 H   0  0  0  0  0  0  0  0  0  0  0  0
   -5.1470   -2.3666   -0.0819 H   0  0  0  0  0  0  0  0  0  0  0  0
   -0.8161    1.8937    2.4220 C   0  0  0  0  0  0  0  0  0  0  0  0
   -1.1036    2.4075    3.3605 H   0  0  0  0  0  0  0  0  0  0  0  0
   -0.7078    2.6551    1.6162 H   0  0  0  0  0  0  0  0  0  0  0  0
    0.1681    1.3974    2.5669 H   0  0  0  0  0  0  0  0  0  0  0  0
   -3.6059    3.1768   -1.2904 C   0  0  0  0  0  0  0  0  0  0  0  0
   -2.9037    3.7114   -1.9605 H   0  0  0  0  0  0  0  0  0  0  0  0
   -3.8397    3.8381   -0.4193 H   0  0  0  0  0  0  0  0  0  0  0  0
   -4.5588    3.0021   -1.8476 H   0  0  0  0  0  0  0  0  0  0  0  0
   -0.7400   -3.1054    0.4021 H   0  0  0  0  0  0  0  0  0  0  0  0
   -1.3361   -1.5311    2.1186 H   0  0  0  0  0  0  0  0  0  0  0  0
  1  8  1  0  0  0  0
  1 14  1  0  0  0  0
  3 10  1  0  0  0  0
  4  5  1  0  0  0  0
  6 23  1  0  0  0  0
  7 16  1  0  0  0  0
  8  9  1  6  0  0  0
  8 10  1  0  0  0  0
  8  2  1  0  0  0  0
 10 31  1  1  0  0  0
 10 11  1  0  0  0  0
 11  4  1  0  0  0  0
 11 32  1  1  0  0  0
 12 13  1  6  0  0  0
 12 11  1  0  0  0  0
 12  6  1  0  0  0  0
 14 12  1  0  0  0  0
 14 15  1  1  0  0  0
 16 14  1  0  0  0  0
 16 18  1  0  0  0  0
 17 16  1  0  0  0  0
 19  2  1  0  0  0  0
 19 20  1  0  0  0  0
 21 19  1  0  0  0  0
 22 19  1  0  0  0  0
 23 26  1  0  0  0  0
 23 24  1  0  0  0  0
 25 23  1  0  0  0  0
 27  7  1  0  0  0  0
 27 29  1  0  0  0  0
 28 27  1  0  0  0  0
 30 27  1  0  0  0  0
M  END
