1
q = -1.0

 15 15  0  0  0  0  0  0  0  0999 V2000
    1.2865   -1.6935   -0.6497 O   0  5  0  0  0  0  0  0  0  0  0  0
    2.5686   -1.7528   -0.2487 C   0  0  0  0  0  0  0  0  0  0  0  0
    2.9970   -1.4574    1.0688 C   0  0  0  0  0  0  0  0  0  0  0  0
    2.2562   -1.1096    1.8030 H   0  0  0  0  0  0  0  0  0  0  0  0
    4.3410   -1.6046    1.4250 C   0  0  0  0  0  0  0  0  0  0  0  0
    4.6481   -1.3694    2.4575 H   0  0  0  0  0  0  0  0  0  0  0  0
    5.3121   -2.0513    0.5031 C   0  0  0  0  0  0  0  0  0  0  0  0
    4.8749   -2.3509   -0.8039 C   0  0  0  0  0  0  0  0  0  0  0  0
    5.6064   -2.7052   -1.5487 H   0  0  0  0  0  0  0  0  0  0  0  0
    3.5358   -2.2016   -1.1812 C   0  0  0  0  0  0  0  0  0  0  0  0
    3.2035   -2.4306   -2.2047 H   0  0  0  0  0  0  0  0  0  0  0  0
    6.7638   -2.1713    0.8954 C   0  0  0  0  0  0  0  0  0  0  0  0
    6.8787   -2.5430    1.9342 H   0  0  0  0  0  0  0  0  0  0  0  0
    7.2822   -1.1882    0.8477 H   0  0  0  0  0  0  0  0  0  0  0  0
    7.3132   -2.8611    0.2241 H   0  0  0  0  0  0  0  0  0  0  0  0
  1  2  1  0  0  0  0
  2  3  1  0  0  0  0
  3  5  2  0  0  0  0
  3  4  1  0  0  0  0
  5  6  1  0  0  0  0
  7 12  1  0  0  0  0
  7  5  1  0  0  0  0
  8  7  2  0  0  0  0
  9  8  1  0  0  0  0
 10  8  1  0  0  0  0
 10  2  2  0  0  0  0
 11 10  1  0  0  0  0
 12 13  1  0  0  0  0
 14 12  1  0  0  0  0
 15 12  1  0  0  0  0
M  CHG  1   1  -1
M  END
