1
q = -1.0

 16 16  0  0  0  0  0  0  0  0999 V2000
   -0.9819   -1.4671    0.0115 O   0  5  0  0  0  0  0  0  0  0  0  0
   -4.9553    2.7774    0.6068 Cl  0  0  0  0  0  0  0  0  0  0  0  0
   -9.8339    0.3672   -0.0075 Cl  0  0  0  0  0  0  0  0  0  0  0  0
   -5.3341    0.2369   -0.3331 C   0  0  0  0  0  0  0  0  0  0  0  0
   -5.9721    1.4423    0.1050 C   0  0  0  0  0  0  0  0  0  0  0  0
   -7.3321    1.4472    0.2715 C   0  0  0  0  0  3  0  0  0  0  0  0
   -8.0793    0.3089    0.0609 C   0  0  0  0  0  0  0  0  0  0  0  0
   -7.4536   -0.9321   -0.2458 C   0  0  0  0  0  0  0  0  0  0  0  0
   -6.0783   -0.9544   -0.4675 C   0  0  0  0  0  0  0  0  0  0  0  0
   -3.9815    0.2739   -0.5130 O   0  0  0  0  0  0  0  0  0  0  0  0
   -3.1555   -0.6777   -0.1497 C   0  0  0  0  0  3  0  0  0  0  0  0
   -1.7155   -0.4571   -0.3338 C   0  0  0  0  0  0  0  0  0  0  0  0
   -1.3116    0.6438   -0.7977 O   0  0  0  0  0  0  0  0  0  0  0  0
   -8.0675   -1.8276   -0.4240 H   0  0  0  0  0  0  0  0  0  0  0  0
   -5.5806   -1.8757   -0.8050 H   0  0  0  0  0  0  0  0  0  0  0  0
   -3.5542   -1.5897    0.3244 H   0  0  0  0  0  0  0  0  0  0  0  0
  3  7  1  0  0  0  0
  4  5  1  0  0  0  0
  5  6  2  0  0  0  0
  5  2  1  0  0  0  0
  7  6  1  0  0  0  0
  8  7  2  0  0  0  0
  9  4  2  0  0  0  0
  9  8  1  0  0  0  0
 10  4  1  0  0  0  0
 10 11  1  0  0  0  0
 11 16  1  0  0  0  0
 12 11  1  0  0  0  0
 12  1  1  0  0  0  0
 13 12  2  0  0  0  0
 14  8  1  0  0  0  0
 15  9  1  0  0  0  0
M  CHG  1   1  -1
M  END
