1
q = -1.0, confidence = 0.008

 17 17  0  0  0  0  0  0  0  0999 V2000
   -1.0313   -0.1947    0.9529 O   0  5  0  0  0  0  0  0  0  0  0  0
   -2.2216   -0.2209    0.3261 C   0  0  0  0  0  0  0  0  0  0  0  0
   -3.3848   -0.0590    1.1007 C   0  0  0  0  0  0  0  0  0  0  0  0
   -3.3155    0.0832    2.1886 H   0  0  0  0  0  0  0  0  0  0  0  0
   -4.6549   -0.0657    0.4947 C   0  0  0  0  0  0  0  0  0  0  0  0
   -5.7088    0.2795    2.5994 O   0  0  0  0  0  0  0  0  0  0  0  0
   -4.7615   -0.2400   -0.9025 C   0  0  0  0  0  0  0  0  0  0  0  0
   -5.7444   -0.2459   -1.3936 H   0  0  0  0  0  0  0  0  0  0  0  0
   -3.6004   -0.4061   -1.6716 C   0  0  0  0  0  0  0  0  0  0  0  0
   -3.6770   -0.5409   -2.7612 H   0  0  0  0  0  0  0  0  0  0  0  0
   -2.3332   -0.3984   -1.0739 C   0  0  0  0  0  0  0  0  0  0  0  0
   -1.4270   -0.5213   -1.6788 H   0  0  0  0  0  0  0  0  0  0  0  0
   -5.8498    0.1263    1.3913 C   0  0  0  0  0  0  0  0  0  0  0  0
   -7.2311    0.1272    0.7585 C   0  0  0  0  0  0  0  0  0  0  0  0
   -7.9858    0.2769    1.5507 H   0  0  0  0  0  0  0  0  0  0  0  0
   -7.4295   -0.8301    0.2340 H   0  0  0  0  0  0  0  0  0  0  0  0
   -7.3219    0.9349    0.0034 H   0  0  0  0  0  0  0  0  0  0  0  0
  2  1  1  0  0  0  0
  2  3  1  0  0  0  0
  3  4  1  0  0  0  0
  5  3  2  0  0  0  0
  5 13  1  0  0  0  0
  7  5  1  0  0  0  0
  8  7  1  0  0  0  0
  9 11  1  0  0  0  0
  9  7  2  0  0  0  0
 10  9  1  0  0  0  0
 11  2  2  0  0  0  0
 12 11  1  0  0  0  0
 13  6  2  0  0  0  0
 14 13  1  0  0  0  0
 14 15  1  0  0  0  0
 16 14  1  0  0  0  0
 17 14  1  0  0  0  0
M  CHG  1   1  -1
M  END
