1
q = 0, confidence = 1.0

 14 13  0  0  0  0  0  0  0  0999 V2000
   -2.6588    0.4387    0.4606 O   0  0  0  0  0  1  0  0  0  0  0  0
   -3.9701   -0.3723    0.2507 P   0  0  0  0  0  4  0  0  0  0  0  0
   -5.3773    0.7714    0.4176 C   0  0  0  0  0  0  0  0  0  0  0  0
   -4.0966   -1.1525   -1.3823 C   0  0  0  0  0  0  0  0  0  0  0  0
   -4.2200   -1.6887    1.4805 C   0  0  0  0  0  0  0  0  0  0  0  0
   -6.3422    0.2333    0.3418 H   0  0  0  0  0  0  0  0  0  0  0  0
   -5.3084    1.2755    1.4011 H   0  0  0  0  0  0  0  0  0  0  0  0
   -5.3159    1.5380   -0.3790 H   0  0  0  0  0  0  0  0  0  0  0  0
   -5.0971   -1.6093   -1.5138 H   0  0  0  0  0  0  0  0  0  0  0  0
   -3.9058   -0.3889   -2.1599 H   0  0  0  0  0  0  0  0  0  0  0  0
   -3.3021   -1.9235   -1.4509 H   0  0  0  0  0  0  0  0  0  0  0  0
   -5.1861   -2.2023    1.3053 H   0  0  0  0  0  0  0  0  0  0  0  0
   -4.2046   -1.2540    2.4979 H   0  0  0  0  0  0  0  0  0  0  0  0
   -3.3770   -2.4021    1.3733 H   0  0  0  0  0  0  0  0  0  0  0  0
  2  3  1  0  0  0  0
  2  1  1  0  0  0  0
  2  5  1  0  0  0  0
  3  7  1  0  0  0  0
  4  2  1  0  0  0  0
  5 13  1  0  0  0  0
  6  3  1  0  0  0  0
  8  3  1  0  0  0  0
  9  4  1  0  0  0  0
 10  4  1  0  0  0  0
 11  4  1  0  0  0  0
 12  5  1  0  0  0  0
 14  5  1  0  0  0  0
M  END
