3
q = -1.0

 18 18  0  0  0  0  0  0  0  0999 V2000
    0.1106   -0.7114    2.1840 O   0  0  0  0  0  0  0  0  0  0  0  0
    1.7730    0.1993    3.3066 O   0  0  0  0  0  0  0  0  0  0  0  0
   -0.5925    0.7452   -0.0763 O   0  5  0  0  0  0  0  0  0  0  0  0
    0.8270    0.2775    2.4850 N   0  0  0  0  0  0  0  0  0  0  0  0
    0.5870    1.5199    1.8753 C   0  0  0  0  0  0  0  0  0  0  0  0
   -0.1050    1.6756    0.6690 C   0  0  0  0  0  0  0  0  0  0  0  0
   -0.2815    3.0607    0.1238 C   0  0  0  0  0  0  0  0  0  0  0  0
   -0.2501    4.2097    0.9446 C   0  0  0  0  0  0  0  0  0  0  0  0
   -0.4307    5.4859    0.3946 C   0  0  0  0  0  0  0  0  0  0  0  0
   -0.6559    5.6351   -0.9844 C   0  0  0  0  0  0  0  0  0  0  0  0
   -0.7059    4.4958   -1.8045 C   0  0  0  0  0  0  0  0  0  0  0  0
   -0.5239    3.2175   -1.2599 C   0  0  0  0  0  0  0  0  0  0  0  0
    1.1520    2.3397    2.3290 H   0  0  0  0  0  0  0  0  0  0  0  0
   -0.1086    4.0978    2.0299 H   0  0  0  0  0  0  0  0  0  0  0  0
   -0.4073    6.3710    1.0500 H   0  0  0  0  0  0  0  0  0  0  0  0
   -0.8017    6.6381   -1.4159 H   0  0  0  0  0  0  0  0  0  0  0  0
   -0.8928    4.5974   -2.8848 H   0  0  0  0  0  0  0  0  0  0  0  0
   -0.5735    2.3278   -1.9050 H   0  0  0  0  0  0  0  0  0  0  0  0
  1  4  2  0  0  0  0
  3  6  1  0  0  0  0
  4  2  2  0  0  0  0
  5 13  1  0  0  0  0
  5  4  1  0  0  0  0
  6  5  2  0  0  0  0
  7  6  1  0  0  0  0
  7  8  1  0  0  0  0
  8 14  1  0  0  0  0
  9  8  2  0  0  0  0
  9 15  1  0  0  0  0
 10  9  1  0  0  0  0
 11 12  1  0  0  0  0
 11 10  2  0  0  0  0
 12  7  2  0  0  0  0
 16 10  1  0  0  0  0
 17 11  1  0  0  0  0
 18 12  1  0  0  0  0
M  CHG  1   3  -1
M  END
