3
q = -1.0, confidence = 0.0

 26 27  0  0  0  0  0  0  0  0999 V2000
   -5.7203   -0.0079    0.2223 N   0  0  0  0  0  0  0  0  0  0  0  0
   -4.9210   -0.1986   -0.4123 H   0  0  0  0  0  0  0  0  0  0  0  0
   -1.6325    0.4892    1.0329 O   0  5  0  0  0  0  0  0  0  0  0  0
   -3.1924   -0.1944   -0.4472 O   0  0  0  0  0  0  0  0  0  0  0  0
   -2.8521    0.3442    0.6622 C   0  0  0  0  0  0  0  0  0  0  0  0
   -3.9046    0.8741    1.5785 C   0  0  0  0  0  0  0  0  0  0  0  0
   -5.3123    0.6882    1.3398 C   0  0  0  0  0  0  0  0  0  0  0  0
   -6.2272    1.2872    2.2479 C   0  0  0  0  0  0  0  0  0  0  0  0
   -7.3039    1.2141    2.0499 H   0  0  0  0  0  0  0  0  0  0  0  0
   -5.7776    2.0031    3.3578 C   0  0  0  0  0  0  0  0  0  0  0  0
   -6.5181    2.4605    4.0325 H   0  0  0  0  0  0  0  0  0  0  0  0
   -4.4013    2.1576    3.6120 C   0  0  0  0  0  0  0  0  0  0  0  0
   -4.0517    2.7163    4.4921 H   0  0  0  0  0  0  0  0  0  0  0  0
   -3.4881    1.6003    2.7163 C   0  0  0  0  0  0  0  0  0  0  0  0
   -2.4049    1.7096    2.8666 H   0  0  0  0  0  0  0  0  0  0  0  0
   -6.9542   -0.5659   -0.1080 C   0  0  0  0  0  0  0  0  0  0  0  0
   -7.9224   -0.9727    0.8426 C   0  0  0  0  0  0  0  0  0  0  0  0
   -7.7191   -0.8603    1.9155 H   0  0  0  0  0  0  0  0  0  0  0  0
   -9.1213   -1.5643    0.4219 C   0  0  0  0  0  0  0  0  0  0  0  0
   -9.8567   -1.8759    1.1799 H   0  0  0  0  0  0  0  0  0  0  0  0
   -9.3846   -1.7804   -0.9399 C   0  0  0  0  0  0  0  0  0  0  0  0
  -10.3290   -2.2445   -1.2598 H   0  0  0  0  0  0  0  0  0  0  0  0
   -8.4180   -1.4016   -1.8868 C   0  0  0  0  0  0  0  0  0  0  0  0
   -8.6010   -1.5682   -2.9597 H   0  0  0  0  0  0  0  0  0  0  0  0
   -7.2227   -0.7995   -1.4808 C   0  0  0  0  0  0  0  0  0  0  0  0
   -6.4748   -0.4884   -2.2271 H   0  0  0  0  0  0  0  0  0  0  0  0
  1  7  1  0  0  0  0
  2  1  1  0  0  0  0
  4  5  2  0  0  0  0
  5  3  1  0  0  0  0
  5  6  1  0  0  0  0
  6 14  1  0  0  0  0
  7  6  2  0  0  0  0
  7  8  1  0  0  0  0
  8 10  2  0  0  0  0
  9  8  1  0  0  0  0
 10 12  1  0  0  0  0
 10 11  1  0  0  0  0
 12 13  1  0  0  0  0
 14 15  1  0  0  0  0
 14 12  2  0  0  0  0
 16  1  1  0  0  0  0
 16 17  1  0  0  0  0
 17 18  1  0  0  0  0
 19 17  2  0  0  0  0
 19 20  1  0  0  0  0
 21 19  1  0  0  0  0
 22 21  1  0  0  0  0
 23 25  1  0  0  0  0
 23 21  2  0  0  0  0
 24 23  1  0  0  0  0
 25 16  2  0  0  0  0
 26 25  1  0  0  0  0
M  CHG  1   3  -1
M  END
