1
q = -1.0

 17 17  0  0  0  0  0  0  0  0999 V2000
    1.3681   -0.0008   -1.7545 O   0  0  0  0  0  1  0  0  0  0  0  0
    2.1397   -0.0002   -0.5770 N   0  0  0  0  0  0  0  0  0  0  0  0
    2.9178   -1.2392   -0.4007 C   0  0  0  0  0  0  0  0  0  0  0  0
    2.2170   -2.0840   -0.5425 H   0  0  0  0  0  0  0  0  0  0  0  0
    3.6969   -1.2774   -1.1957 H   0  0  0  0  0  0  0  0  0  0  0  0
    3.5356   -1.2587    0.9980 C   0  0  0  0  0  0  0  0  0  0  0  0
    2.7093   -1.3305    1.7368 H   0  0  0  0  0  0  0  0  0  0  0  0
    4.1482   -2.1771    1.1052 H   0  0  0  0  0  0  0  0  0  0  0  0
    4.3707    0.0007    1.2571 C   0  0  0  0  0  0  0  0  0  0  0  0
    4.7591    0.0011    2.2961 H   0  0  0  0  0  0  0  0  0  0  0  0
    5.2600    0.0004    0.5873 H   0  0  0  0  0  0  0  0  0  0  0  0
    3.5355    1.2597    0.9969 C   0  0  0  0  0  0  0  0  0  0  0  0
    4.1479    2.1782    1.1034 H   0  0  0  0  0  0  0  0  0  0  0  0
    2.7091    1.3320    1.7356 H   0  0  0  0  0  0  0  0  0  0  0  0
    2.9177    1.2390   -0.4017 C   0  0  0  0  0  0  0  0  0  0  0  0
    2.2168    2.0836   -0.5443 H   0  0  0  0  0  0  0  0  0  0  0  0
    3.6968    1.2766   -1.1968 H   0  0  0  0  0  0  0  0  0  0  0  0
  1  2  1  0  0  0  0
  2 15  1  0  0  0  0
  2  3  1  0  0  0  0
  3  6  1  0  0  0  0
  4  3  1  0  0  0  0
  5  3  1  0  0  0  0
  6  8  1  0  0  0  0
  6  9  1  0  0  0  0
  6  7  1  0  0  0  0
  9 10  1  0  0  0  0
 11  9  1  0  0  0  0
 12 13  1  0  0  0  0
 12  9  1  0  0  0  0
 12 14  1  0  0  0  0
 15 12  1  0  0  0  0
 16 15  1  0  0  0  0
 17 15  1  0  0  0  0
M  END
