1
q = -1.0

 14 13  0  0  0  0  0  0  0  0999 V2000
    1.5973   -0.8951   -0.8693 O   0  0  0  0  0  0  0  0  0  0  0  0
    4.8602   -1.8338    0.2779 F   0  0  0  0  0  0  0  0  0  0  0  0
    4.4307   -0.5765   -1.4526 F   0  0  0  0  0  0  0  0  0  0  0  0
    3.7507    0.0300    0.5201 F   0  0  0  0  0  0  0  0  0  0  0  0
    2.8955   -3.7488    0.8652 F   0  0  0  0  0  0  0  0  0  0  0  0
    2.4555   -1.8830    1.8964 F   0  0  0  0  0  0  0  0  0  0  0  0
    0.8917   -2.8919    0.7677 F   0  0  0  0  0  0  0  0  0  0  0  0
    2.7392   -2.0976   -2.8824 F   0  0  0  0  0  0  0  0  0  0  0  0
    1.6605   -3.6144   -1.7590 F   0  0  0  0  0  0  0  0  0  0  0  0
    3.8421   -3.5191   -1.6534 F   0  0  0  0  0  0  0  0  0  0  0  0
    2.5798   -1.7871   -0.5136 C   0  0  0  0  0  0  0  0  0  0  0  0
    3.9356   -1.0350   -0.2853 C   0  0  0  0  0  0  0  0  0  0  0  0
    2.2035   -2.5968    0.7839 C   0  0  0  0  0  0  0  0  0  0  0  0
    2.7190   -2.7807   -1.7286 C   0  0  0  0  0  0  0  0  0  0  0  0
  1 11  1  0  0  0  0
  3 12  1  0  0  0  0
  7 13  1  0  0  0  0
  8 14  1  0  0  0  0
  9 14  1  0  0  0  0
 11 12  1  0  0  0  0
 11 13  1  0  0  0  0
 12  2  1  0  0  0  0
 12  4  1  0  0  0  0
 13  5  1  0  0  0  0
 13  6  1  0  0  0  0
 14 10  1  0  0  0  0
 14 11  1  0  0  0  0
M  END
