7
q = -1.0, confidence = 0.0

 21 21  0  0  0  0  0  0  0  0999 V2000
   -4.6634    1.4112   -0.4319 F   0  0  0  0  0  0  0  0  0  0  0  0
   -3.7865   -0.2032   -1.5769 F   0  0  0  0  0  0  0  0  0  0  0  0
   -3.7374   -0.2740    0.5976 F   0  0  0  0  0  0  0  0  0  0  0  0
   -3.0987    3.3577   -1.3415 F   0  0  0  0  0  0  0  0  0  0  0  0
   -2.5214    1.8396   -2.7980 F   0  0  0  0  0  0  0  0  0  0  0  0
   -0.9938    2.9181   -1.6843 F   0  0  0  0  0  0  0  0  0  0  0  0
   -1.2505    0.3596   -0.8410 O   0  0  0  0  0  1  0  0  0  0  0  0
   -2.2264    1.2719   -0.4565 C   0  0  0  0  0  0  0  0  0  0  0  0
   -3.6198    0.5474   -0.4656 C   0  0  0  0  0  0  0  0  0  0  0  0
   -2.2231    2.3666   -1.5853 C   0  0  0  0  0  0  0  0  0  0  0  0
   -1.9528    1.9772    0.8832 C   0  0  0  0  0  0  0  0  0  0  0  0
   -0.6125    2.1581    1.2703 C   0  0  0  0  0  0  0  0  0  0  0  0
    0.1952    1.7552    0.6509 H   0  0  0  0  0  0  0  0  0  0  0  0
   -0.2921    2.8511    2.4454 C   0  0  0  0  0  0  0  0  0  0  0  0
    0.7652    2.9752    2.7211 H   0  0  0  0  0  0  0  0  0  0  0  0
   -1.3099    3.3684    3.2596 C   0  0  0  0  0  0  0  0  0  0  0  0
   -1.0610    3.9050    4.1876 H   0  0  0  0  0  0  0  0  0  0  0  0
   -2.6491    3.1981    2.8785 C   0  0  0  0  0  0  0  0  0  0  0  0
   -3.4586    3.6022    3.5050 H   0  0  0  0  0  0  0  0  0  0  0  0
   -2.9707    2.5192    1.6937 C   0  0  0  0  0  0  0  0  0  0  0  0
   -4.0257    2.4183    1.4126 H   0  0  0  0  0  0  0  0  0  0  0  0
  2  9  1  0  0  0  0
  5 10  1  0  0  0  0
  6 10  1  0  0  0  0
  7  8  1  0  0  0  0
  8 11  1  0  0  0  0
  9  8  1  0  0  0  0
  9  1  1  0  0  0  0
  9  3  1  0  0  0  0
 10  4  1  0  0  0  0
 10  8  1  0  0  0  0
 11 12  2  0  0  0  0
 11 20  1  0  0  0  0
 12 14  1  0  0  0  0
 13 12  1  0  0  0  0
 14 15  1  0  0  0  0
 14 16  2  0  0  0  0
 16 17  1  0  0  0  0
 18 16  1  0  0  0  0
 18 19  1  0  0  0  0
 20 18  2  0  0  0  0
 21 20  1  0  0  0  0
M  END
