2
q = -1.0

 10  9  0  0  0  0  0  0  0  0999 V2000
   -3.3123   -0.2251   -0.0396 N   0  0  0  0  0  0  0  0  0  0  0  0
   -2.9842    1.0864    0.1855 O   0  0  0  0  0  1  0  0  0  0  0  0
   -3.7168   -0.9882    1.1484 C   0  0  0  0  0  0  0  0  0  0  0  0
   -4.7733   -0.7554    1.3989 H   0  0  0  0  0  0  0  0  0  0  0  0
   -3.5997   -2.0645    0.9248 H   0  0  0  0  0  0  0  0  0  0  0  0
   -3.0521   -0.7128    1.9842 H   0  0  0  0  0  0  0  0  0  0  0  0
   -4.1620   -0.4287   -1.2207 C   0  0  0  0  0  0  0  0  0  0  0  0
   -3.7694    0.1892   -2.0463 H   0  0  0  0  0  0  0  0  0  0  0  0
   -5.2080   -0.1414   -0.9834 H   0  0  0  0  0  0  0  0  0  0  0  0
   -4.1206   -1.4970   -1.5052 H   0  0  0  0  0  0  0  0  0  0  0  0
  1  2  1  0  0  0  0
  1  3  1  0  0  0  0
  3  4  1  0  0  0  0
  3  6  1  0  0  0  0
  5  3  1  0  0  0  0
  7  9  1  0  0  0  0
  7  1  1  0  0  0  0
  8  7  1  0  0  0  0
 10  7  1  0  0  0  0
M  END
