1
q = -1.0

 14 13  0  0  0  0  0  0  0  0999 V2000
    1.7187    0.7234   -0.0701 O   0  5  0  0  0  0  0  0  0  0  0  0
    1.2453    2.9338   -0.2339 O   0  0  0  0  0  0  0  0  0  0  0  0
    2.0514    2.0003   -0.1544 C   0  0  0  0  0  0  0  0  0  0  0  0
    3.5500    2.2191   -0.1622 C   0  0  0  0  0  0  0  0  0  0  0  0
    3.9798    3.5020   -0.2630 C   0  0  0  0  0  0  0  0  0  0  0  0
    3.1750    4.2554   -0.3327 H   0  0  0  0  0  0  0  0  0  0  0  0
    4.4361    1.0082   -0.0541 C   0  0  0  0  0  0  0  0  0  0  0  0
    4.2320    0.2932   -0.8770 H   0  0  0  0  0  0  0  0  0  0  0  0
    4.2344    0.4536    0.8864 H   0  0  0  0  0  0  0  0  0  0  0  0
    5.5115    1.2684   -0.0751 H   0  0  0  0  0  0  0  0  0  0  0  0
    5.3861    4.0059   -0.2849 C   0  0  0  0  0  0  0  0  0  0  0  0
    6.1451    3.2029   -0.2143 H   0  0  0  0  0  0  0  0  0  0  0  0
    5.5624    4.7169    0.5519 H   0  0  0  0  0  0  0  0  0  0  0  0
    5.5839    4.5829   -1.2147 H   0  0  0  0  0  0  0  0  0  0  0  0
  2  3  2  0  0  0  0
  3  1  1  0  0  0  0
  4  3  1  0  0  0  0
  4  7  1  0  0  0  0
  5  4  2  0  0  0  0
  6  5  1  0  0  0  0
  7  9  1  0  0  0  0
  8  7  1  0  0  0  0
 10  7  1  0  0  0  0
 11  5  1  0  0  0  0
 11 12  1  0  0  0  0
 11 13  1  0  0  0  0
 14 11  1  0  0  0  0
M  CHG  1   1  -1
M  END
