1
q = -1.0

 12 11  0  0  0  0  0  0  0  0999 V2000
    0.2856    1.9509   -1.3935 O   0  0  0  0  0  1  0  0  0  0  0  0
    1.6636    1.7644   -1.0654 O   0  0  0  0  0  0  0  0  0  0  0  0
    2.0721    2.8000   -0.1569 C   0  0  0  0  0  0  0  0  0  0  0  0
    2.0092    4.1726   -0.8193 C   0  0  0  0  0  0  0  0  0  0  0  0
    3.4745    2.4026    0.2918 C   0  0  0  0  0  0  0  0  0  0  0  0
    1.3765    2.7822    0.7164 H   0  0  0  0  0  0  0  0  0  0  0  0
    2.2640    4.9736   -0.0960 H   0  0  0  0  0  0  0  0  0  0  0  0
    2.7185    4.2248   -1.6707 H   0  0  0  0  0  0  0  0  0  0  0  0
    0.9863    4.3506   -1.2011 H   0  0  0  0  0  0  0  0  0  0  0  0
    4.1513    2.3328   -0.5840 H   0  0  0  0  0  0  0  0  0  0  0  0
    3.4705    1.4212    0.8055 H   0  0  0  0  0  0  0  0  0  0  0  0
    3.8855    3.1603    0.9877 H   0  0  0  0  0  0  0  0  0  0  0  0
  1  2  1  0  0  0  0
  2  3  1  0  0  0  0
  3  5  1  0  0  0  0
  3  6  1  0  0  0  0
  4  3  1  0  0  0  0
  4  7  1  0  0  0  0
  5 11  1  0  0  0  0
  5 12  1  0  0  0  0
  8  4  1  0  0  0  0
  9  4  1  0  0  0  0
 10  5  1  0  0  0  0
M  END
