2
q = -1.0

 13 12  0  0  0  0  0  0  0  0999 V2000
   -0.9927    2.5571    1.5570 O   0  5  0  0  0  0  0  0  0  0  0  0
   -1.3575    1.2867   -0.2979 O   0  0  0  0  0  0  0  0  0  0  0  0
   -4.2014    0.7054    1.0389 O   0  0  0  0  0  0  0  0  0  0  0  0
   -4.9318    0.2098   -1.0397 O   0  0  0  0  0  0  0  0  0  0  0  0
   -3.8329    2.3075   -0.7596 C   0  0  0  0  0  0  0  0  0  0  0  0
   -4.7274    2.9230   -0.9988 H   0  0  0  0  0  0  0  0  0  0  0  0
   -3.3549    2.0606   -1.7280 H   0  0  0  0  0  0  0  0  0  0  0  0
   -1.6294    2.2424    0.5306 C   0  0  0  0  0  0  0  0  0  0  0  0
   -4.3179    1.0180   -0.1311 C   0  0  0  0  0  0  0  0  0  0  0  0
   -2.8731    3.0550    0.1576 C   0  0  0  0  0  0  0  0  0  0  0  0
   -2.5345    3.9958   -0.3249 H   0  0  0  0  0  0  0  0  0  0  0  0
   -3.3611    3.3394    1.1095 H   0  0  0  0  0  0  0  0  0  0  0  0
   -5.1874   -0.5910   -0.5305 H   0  0  0  0  0  0  0  0  0  0  0  0
  2  8  2  0  0  0  0
  4 13  1  0  0  0  0
  4  9  1  0  0  0  0
  5  9  1  0  0  0  0
  5 10  1  0  0  0  0
  6  5  1  0  0  0  0
  7  5  1  0  0  0  0
  8  1  1  0  0  0  0
  9  3  2  0  0  0  0
 10  8  1  0  0  0  0
 10 12  1  0  0  0  0
 11 10  1  0  0  0  0
M  CHG  1   1  -1
M  END
