2
q = -1.0, confidence = 0.002

 14 14  0  0  0  0  0  0  0  0999 V2000
   -7.8938    1.5362    1.1677 F   0  0  0  0  0  0  0  0  0  0  0  0
   -1.9287    0.0036   -0.2478 O   0  5  0  0  0  0  0  0  0  0  0  0
   -2.9112   -0.3432   -2.2632 O   0  0  0  0  0  0  0  0  0  0  0  0
   -2.9351   -0.0061   -1.0451 C   0  0  0  0  0  0  0  0  0  0  0  0
   -4.2555    0.4094   -0.4513 C   0  0  0  0  0  0  0  0  0  0  0  0
   -4.3276    0.8805    0.8748 C   0  0  0  0  0  0  0  0  0  0  0  0
   -3.3953    0.9464    1.4543 H   0  0  0  0  0  0  0  0  0  0  0  0
   -5.5547    1.2645    1.4293 C   0  0  0  0  0  0  0  0  0  0  0  0
   -5.6364    1.6406    2.4594 H   0  0  0  0  0  0  0  0  0  0  0  0
   -6.7093    1.1709    0.6404 C   0  0  0  0  0  0  0  0  0  0  0  0
   -6.6658    0.7101   -0.6828 C   0  0  0  0  0  0  0  0  0  0  0  0
   -7.5973    0.6585   -1.2648 H   0  0  0  0  0  0  0  0  0  0  0  0
   -5.4312    0.3328   -1.2238 C   0  0  0  0  0  0  0  0  0  0  0  0
   -5.3480   -0.0280   -2.2592 H   0  0  0  0  0  0  0  0  0  0  0  0
  3  4  2  0  0  0  0
  4  5  1  0  0  0  0
  4  2  1  0  0  0  0
  5  6  1  0  0  0  0
  6  8  2  0  0  0  0
  6  7  1  0  0  0  0
  8  9  1  0  0  0  0
 10  1  1  0  0  0  0
 10  8  1  0  0  0  0
 11 10  2  0  0  0  0
 12 11  1  0  0  0  0
 13 11  1  0  0  0  0
 13  5  2  0  0  0  0
 14 13  1  0  0  0  0
M  CHG  1   2  -1
M  END
