1
q = -1.0

 15 14  0  0  0  0  0  0  0  0999 V2000
   -1.7260   -1.4563    0.5014 O   0  0  0  0  0  1  0  0  0  0  0  0
   -2.2251   -0.1078    0.5813 O   0  0  0  0  0  0  0  0  0  0  0  0
   -3.5222    0.1151   -0.1498 C   0  0  0  0  0  0  0  0  0  0  0  0
   -3.4825   -0.4619   -1.5571 C   0  0  0  0  0  0  0  0  0  0  0  0
   -3.6265    1.6377   -0.1307 C   0  0  0  0  0  0  0  0  0  0  0  0
   -4.5764   -0.5686    0.7196 C   0  0  0  0  0  0  0  0  0  0  0  0
   -4.4934   -0.3796   -2.0022 H   0  0  0  0  0  0  0  0  0  0  0  0
   -2.7672    0.0798   -2.2018 H   0  0  0  0  0  0  0  0  0  0  0  0
   -3.1981   -1.5310   -1.5295 H   0  0  0  0  0  0  0  0  0  0  0  0
   -4.5702    1.9428   -0.6238 H   0  0  0  0  0  0  0  0  0  0  0  0
   -3.6336    2.0235    0.9073 H   0  0  0  0  0  0  0  0  0  0  0  0
   -2.7723    2.0952   -0.6647 H   0  0  0  0  0  0  0  0  0  0  0  0
   -5.5850   -0.3859    0.3000 H   0  0  0  0  0  0  0  0  0  0  0  0
   -4.4001   -1.6612    0.7500 H   0  0  0  0  0  0  0  0  0  0  0  0
   -4.5501   -0.1732    1.7537 H   0  0  0  0  0  0  0  0  0  0  0  0
  1  2  1  0  0  0  0
  3  5  1  0  0  0  0
  3  2  1  0  0  0  0
  3  6  1  0  0  0  0
  4  9  1  0  0  0  0
  4  3  1  0  0  0  0
  5 11  1  0  0  0  0
  6 14  1  0  0  0  0
  6 15  1  0  0  0  0
  7  4  1  0  0  0  0
  8  4  1  0  0  0  0
 10  5  1  0  0  0  0
 12  5  1  0  0  0  0
 13  6  1  0  0  0  0
M  END
