1
q = -1.0

 15 15  0  0  0  0  0  0  0  0999 V2000
   -0.8913    0.1205    1.0912 O   0  5  0  0  0  0  0  0  0  0  0  0
   -3.9783   -1.2987   -2.2535 O   0  0  0  0  0  0  0  0  0  0  0  0
   -2.1010   -0.0360    0.5798 C   0  0  0  0  0  0  0  0  0  0  0  0
   -2.3855   -0.5799   -0.6575 C   0  0  0  0  0  0  0  0  0  0  0  0
   -1.5628   -0.8877   -1.3235 H   0  0  0  0  0  0  0  0  0  0  0  0
   -3.7363   -0.7481   -1.1738 C   0  0  0  0  0  0  0  0  0  0  0  0
   -4.8757   -0.2246   -0.2857 C   0  0  0  0  0  0  0  0  0  0  0  0
   -5.2662   -1.0924    0.2954 H   0  0  0  0  0  0  0  0  0  0  0  0
   -5.6967    0.0916   -0.9594 H   0  0  0  0  0  0  0  0  0  0  0  0
   -4.4289    0.8886    0.6634 C   0  0  0  0  0  0  0  0  0  0  0  0
   -5.2572    1.1952    1.3355 H   0  0  0  0  0  0  0  0  0  0  0  0
   -4.1312    1.7812    0.0730 H   0  0  0  0  0  0  0  0  0  0  0  0
   -3.2156    0.4439    1.4850 C   0  0  0  0  0  0  0  0  0  0  0  0
   -2.8183    1.2670    2.1124 H   0  0  0  0  0  0  0  0  0  0  0  0
   -3.4960   -0.3780    2.1844 H   0  0  0  0  0  0  0  0  0  0  0  0
  2  6  2  0  0  0  0
  3  1  1  0  0  0  0
  3 13  1  0  0  0  0
  4  3  2  0  0  0  0
  5  4  1  0  0  0  0
  6  4  1  0  0  0  0
  6  7  1  0  0  0  0
  7  8  1  0  0  0  0
  7 10  1  0  0  0  0
  9  7  1  0  0  0  0
 10 11  1  0  0  0  0
 10 13  1  0  0  0  0
 12 10  1  0  0  0  0
 13 14  1  0  0  0  0
 13 15  1  0  0  0  0
M  CHG  1   1  -1
M  END
