3
q = -1.0

 33 35  0  0  0  0  0  0  0  0999 V2000
    7.6329    0.7281   -1.4290 N   0  0  0  0  0  0  0  0  0  0  0  0
    2.4006   -2.8651   -2.1993 O   0  5  0  0  0  0  0  0  0  0  0  0
    1.9371   -1.7421   -0.2769 O   0  0  0  0  0  0  0  0  0  0  0  0
    5.3724    3.3013    3.8632 O   0  0  0  0  0  0  0  0  0  0  0  0
    5.3124    3.8577    4.6687 H   0  0  0  0  0  0  0  0  0  0  0  0
    7.3485    4.3997    3.8507 O   0  0  0  0  0  0  0  0  0  0  0  0
    2.6888   -2.0395   -1.2881 C   0  0  0  0  0  0  0  0  0  0  0  0
    6.5915    3.5950    3.3293 C   0  0  0  0  0  0  0  0  0  0  0  0
    6.4808   -0.0430   -1.5499 C   0  0  0  0  0  0  0  0  0  0  0  0
    6.1348   -0.9848   -2.5363 C   0  0  0  0  0  0  0  0  0  0  0  0
    6.8132   -1.2252   -3.3675 H   0  0  0  0  0  0  0  0  0  0  0  0
    4.8931   -1.6161   -2.4249 C   0  0  0  0  0  0  0  0  0  0  0  0
    4.5715   -2.3601   -3.1673 H   0  0  0  0  0  0  0  0  0  0  0  0
    4.0062   -1.3289   -1.3557 C   0  0  0  0  0  0  0  0  0  0  0  0
    4.3623   -0.3899   -0.3702 C   0  0  0  0  0  0  0  0  0  0  0  0
    3.6603   -0.1842    0.4500 H   0  0  0  0  0  0  0  0  0  0  0  0
    5.6020    0.2572   -0.4595 C   0  0  0  0  0  0  0  0  0  0  0  0
    6.2824    1.2474    0.3563 C   0  0  0  0  0  0  0  0  0  0  0  0
    5.9515    1.9252    1.5368 C   0  0  0  0  0  0  0  0  0  0  0  0
    4.9908    1.7512    2.0407 H   0  0  0  0  0  0  0  0  0  0  0  0
    6.8734    2.8416    2.0798 C   0  0  0  0  0  0  0  0  0  0  0  0
    8.1190    3.0734    1.4406 C   0  0  0  0  0  0  0  0  0  0  0  0
    8.8039    3.7956    1.9081 H   0  0  0  0  0  0  0  0  0  0  0  0
    8.4704    2.4106    0.2633 C   0  0  0  0  0  0  0  0  0  0  0  0
    9.4424    2.5967   -0.2156 H   0  0  0  0  0  0  0  0  0  0  0  0
    7.5427    1.5005   -0.2778 C   0  0  0  0  0  0  0  0  0  0  0  0
    8.7916    0.6513   -2.3033 C   0  0  0  0  0  0  0  0  0  0  0  0
    9.2610    1.6558   -2.3325 H   0  0  0  0  0  0  0  0  0  0  0  0
    8.4265    0.4528   -3.3318 H   0  0  0  0  0  0  0  0  0  0  0  0
    9.8044   -0.4106   -1.8710 C   0  0  0  0  0  0  0  0  0  0  0  0
   10.1875   -0.2014   -0.8525 H   0  0  0  0  0  0  0  0  0  0  0  0
   10.6664   -0.4313   -2.5673 H   0  0  0  0  0  0  0  0  0  0  0  0
    9.3427   -1.4179   -1.8621 H   0  0  0  0  0  0  0  0  0  0  0  0
  1 26  1  0  0  0  0
  2  7  1  0  0  0  0
  4  5  1  0  0  0  0
  7  3  2  0  0  0  0
  8  6  2  0  0  0  0
  8  4  1  0  0  0  0
  9  1  1  0  0  0  0
  9 17  1  0  0  0  0
 10 12  1  0  0  0  0
 10  9  2  0  0  0  0
 11 10  1  0  0  0  0
 12 14  2  0  0  0  0
 13 12  1  0  0  0  0
 14  7  1  0  0  0  0
 14 15  1  0  0  0  0
 15 16  1  0  0  0  0
 17 15  2  0  0  0  0
 17 18  1  0  0  0  0
 18 19  1  0  0  0  0
 19 20  1  0  0  0  0
 19 21  2  0  0  0  0
 21  8  1  0  0  0  0
 22 23  1  0  0  0  0
 22 21  1  0  0  0  0
 24 22  2  0  0  0  0
 25 24  1  0  0  0  0
 26 24  1  0  0  0  0
 26 18  2  0  0  0  0
 27 30  1  0  0  0  0
 27  1  1  0  0  0  0
 28 27  1  0  0  0  0
 29 27  1  0  0  0  0
 30 33  1  0  0  0  0
 30 31  1  0  0  0  0
 32 30  1  0  0  0  0
M  CHG  1   2  -1
M  END
