1
q = 0.0, confidence = 0.958

 17 17  0  0  1  0  0  0  0  0999 V2000
   -0.3232   -1.4399    1.9675 O   0  0  0  0  0  1  0  0  0  0  0  0
   -1.3434   -0.5936    1.8628 C   0  0  2  0  0  3  0  0  0  0  0  0
   -1.5563    0.4157    2.9800 C   0  0  0  0  0  0  0  0  0  0  0  0
   -2.2242    0.0031    3.7705 H   0  0  0  0  0  0  0  0  0  0  0  0
   -2.0114    1.3603    2.6204 H   0  0  0  0  0  0  0  0  0  0  0  0
   -0.5826    0.6545    3.4478 H   0  0  0  0  0  0  0  0  0  0  0  0
   -2.5208   -1.0336    1.0572 C   0  0  0  0  0  0  0  0  0  0  0  0
   -3.7641   -0.3576    1.0817 C   0  0  0  0  0  0  0  0  0  0  0  0
   -3.9066    0.4988    1.7569 H   0  0  0  0  0  0  0  0  0  0  0  0
   -4.8239   -0.7597    0.2547 C   0  0  0  0  0  0  0  0  0  0  0  0
   -5.7774   -0.2094    0.2880 H   0  0  0  0  0  0  0  0  0  0  0  0
   -4.6779   -1.8589   -0.6059 C   0  0  0  0  0  0  0  0  0  0  0  0
   -5.5087   -2.1716   -1.2563 H   0  0  0  0  0  0  0  0  0  0  0  0
   -3.4625   -2.5681   -0.6099 C   0  0  0  0  0  0  0  0  0  0  0  0
   -3.3422   -3.4483   -1.2610 H   0  0  0  0  0  0  0  0  0  0  0  0
   -2.4049   -2.1676    0.2137 C   0  0  0  0  0  0  0  0  0  0  0  0
   -1.4584   -2.7263    0.2283 H   0  0  0  0  0  0  0  0  0  0  0  0
  2  1  1  1  0  0  0
  2  3  1  0  0  0  0
  3  6  1  0  0  0  0
  3  4  1  0  0  0  0
  5  3  1  0  0  0  0
  7  8  1  0  0  0  0
  7  2  1  0  0  0  0
  8  9  1  0  0  0  0
 10 11  1  0  0  0  0
 10  8  2  0  0  0  0
 12 10  1  0  0  0  0
 13 12  1  0  0  0  0
 14 12  2  0  0  0  0
 14 16  1  0  0  0  0
 15 14  1  0  0  0  0
 16 17  1  0  0  0  0
 16  7  2  0  0  0  0
M  END
