1
q = -1.0, confidence = 0.0

 28 29  0  0  0  0  0  0  0  0999 V2000
   -1.8603   -0.0586    0.2930 O   0  0  0  0  0  1  0  0  0  0  0  0
   -2.6314   -1.1630    0.6802 C   0  0  0  0  0  0  0  0  0  0  0  0
   -2.3609   -1.4363    2.1742 C   0  0  0  0  0  0  0  0  0  0  0  0
   -1.2974   -1.7126    2.3148 H   0  0  0  0  0  0  0  0  0  0  0  0
   -3.0102   -2.2357    2.5801 H   0  0  0  0  0  0  0  0  0  0  0  0
   -2.5645   -0.5080    2.7411 H   0  0  0  0  0  0  0  0  0  0  0  0
   -4.1244   -0.8131    0.4887 C   0  0  0  0  0  0  0  0  0  0  0  0
   -4.5027    0.5152    0.2238 C   0  0  0  0  0  0  0  0  0  0  0  0
   -3.7112    1.2705    0.1264 H   0  0  0  0  0  0  0  0  0  0  0  0
   -5.8562    0.8601    0.0836 C   0  0  0  0  0  0  0  0  0  0  0  0
   -6.1329    1.9055   -0.1261 H   0  0  0  0  0  0  0  0  0  0  0  0
   -6.8528   -0.1196    0.2080 C   0  0  0  0  0  0  0  0  0  0  0  0
   -7.9146    0.1487    0.0964 H   0  0  0  0  0  0  0  0  0  0  0  0
   -6.4828   -1.4489    0.4711 C   0  0  0  0  0  0  0  0  0  0  0  0
   -7.2549   -2.2284    0.5638 H   0  0  0  0  0  0  0  0  0  0  0  0
   -5.1300   -1.7920    0.6079 C   0  0  0  0  0  0  0  0  0  0  0  0
   -4.8527   -2.8408    0.7942 H   0  0  0  0  0  0  0  0  0  0  0  0
   -2.2706   -2.3637   -0.2158 C   0  0  0  0  0  0  0  0  0  0  0  0
   -1.8968   -2.1218   -1.5536 C   0  0  0  0  0  0  0  0  0  0  0  0
   -1.8187   -1.0833   -1.9062 H   0  0  0  0  0  0  0  0  0  0  0  0
   -1.5738   -3.1858   -2.4075 C   0  0  0  0  0  0  0  0  0  0  0  0
   -1.2802   -2.9765   -3.4482 H   0  0  0  0  0  0  0  0  0  0  0  0
   -1.6144   -4.5113   -1.9418 C   0  0  0  0  0  0  0  0  0  0  0  0
   -1.3544   -5.3452   -2.6115 H   0  0  0  0  0  0  0  0  0  0  0  0
   -1.9826   -4.7602   -0.6118 C   0  0  0  0  0  0  0  0  0  0  0  0
   -2.0079   -5.7921   -0.2291 H   0  0  0  0  0  0  0  0  0  0  0  0
   -2.3076   -3.6937    0.2436 C   0  0  0  0  0  0  0  0  0  0  0  0
   -2.5738   -3.9101    1.2882 H   0  0  0  0  0  0  0  0  0  0  0  0
  1  2  1  0  0  0  0
  2  3  1  0  0  0  0
  3  4  1  0  0  0  0
  3  5  1  0  0  0  0
  3  6  1  0  0  0  0
  7 16  1  0  0  0  0
  7  2  1  0  0  0  0
  8  7  2  0  0  0  0
  9  8  1  0  0  0  0
 10 12  2  0  0  0  0
 10  8  1  0  0  0  0
 11 10  1  0  0  0  0
 12 14  1  0  0  0  0
 13 12  1  0  0  0  0
 14 15  1  0  0  0  0
 14 16  2  0  0  0  0
 16 17  1  0  0  0  0
 18 27  1  0  0  0  0
 18  2  1  0  0  0  0
 19 18  2  0  0  0  0
 20 19  1  0  0  0  0
 21 23  2  0  0  0  0
 21 19  1  0  0  0  0
 22 21  1  0  0  0  0
 23 25  1  0  0  0  0
 24 23  1  0  0  0  0
 25 26  1  0  0  0  0
 25 27  2  0  0  0  0
 27 28  1  0  0  0  0
M  END
