1
q = -1.0

 14 13  0  0  0  0  0  0  0  0999 V2000
    1.8609   -0.9211    0.4795 O   0  0  0  0  0  1  0  0  0  0  0  0
    2.7646   -1.6277   -0.3121 C   0  0  0  0  0  0  0  0  0  0  0  0
    2.3266   -1.7922   -1.3301 H   0  0  0  0  0  0  0  0  0  0  0  0
    2.9496   -2.6336    0.1393 H   0  0  0  0  0  0  0  0  0  0  0  0
    4.1076   -0.8911   -0.4698 C   0  0  0  0  0  0  0  0  0  0  0  0
    4.5051   -0.7325    0.5589 H   0  0  0  0  0  0  0  0  0  0  0  0
    5.0976   -1.7650   -1.2468 C   0  0  0  0  0  0  0  0  0  0  0  0
    5.2577   -2.7474   -0.7551 H   0  0  0  0  0  0  0  0  0  0  0  0
    6.0851   -1.2691   -1.3398 H   0  0  0  0  0  0  0  0  0  0  0  0
    4.7276   -1.9610   -2.2764 H   0  0  0  0  0  0  0  0  0  0  0  0
    3.9139    0.4786   -1.1282 C   0  0  0  0  0  0  0  0  0  0  0  0
    4.8771    1.0239   -1.2087 H   0  0  0  0  0  0  0  0  0  0  0  0
    3.2031    1.1040   -0.5537 H   0  0  0  0  0  0  0  0  0  0  0  0
    3.4981    0.3636   -2.1521 H   0  0  0  0  0  0  0  0  0  0  0  0
  2  4  1  0  0  0  0
  2  1  1  0  0  0  0
  3  2  1  0  0  0  0
  5  2  1  0  0  0  0
  5  6  1  0  0  0  0
  7  8  1  0  0  0  0
  7  5  1  0  0  0  0
  9  7  1  0  0  0  0
 10  7  1  0  0  0  0
 11 13  1  0  0  0  0
 11  5  1  0  0  0  0
 12 11  1  0  0  0  0
 14 11  1  0  0  0  0
M  END
