2
q = -1.0

 13 13  0  0  0  0  0  0  0  0999 V2000
    7.3367    1.3283    0.6786 S   0  0  0  0  0  0  0  0  0  0  0  0
    1.4624    1.5405   -0.2814 O   0  5  0  0  0  0  0  0  0  0  0  0
    7.7529    1.4792   -0.6084 H   0  0  0  0  0  0  0  0  0  0  0  0
    2.7835    1.5262   -0.0782 C   0  0  0  0  0  0  0  0  0  0  0  0
    3.3221    1.5677    1.2309 C   0  0  0  0  0  0  0  0  0  0  0  0
    2.6236    1.6185    2.0777 H   0  0  0  0  0  0  0  0  0  0  0  0
    4.7055    1.5208    1.4313 C   0  0  0  0  0  0  0  0  0  0  0  0
    5.1074    1.5631    2.4558 H   0  0  0  0  0  0  0  0  0  0  0  0
    5.5908    1.4233    0.3354 C   0  0  0  0  0  0  0  0  0  0  0  0
    5.0569    1.3833   -0.9694 C   0  0  0  0  0  0  0  0  0  0  0  0
    5.7295    1.3036   -1.8379 H   0  0  0  0  0  0  0  0  0  0  0  0
    3.6735    1.4414   -1.1743 C   0  0  0  0  0  0  0  0  0  0  0  0
    3.2529    1.4097   -2.1903 H   0  0  0  0  0  0  0  0  0  0  0  0
  2  4  1  0  0  0  0
  3  1  1  0  0  0  0
  4  5  1  0  0  0  0
  5  7  2  0  0  0  0
  5  6  1  0  0  0  0
  7  8  1  0  0  0  0
  9  1  1  0  0  0  0
  9  7  1  0  0  0  0
 10  9  2  0  0  0  0
 11 10  1  0  0  0  0
 12 10  1  0  0  0  0
 12  4  2  0  0  0  0
 13 12  1  0  0  0  0
M  CHG  1   2  -1
M  END
