2
q = -1.0, confidence = 0.0

 12 12  0  0  0  0  0  0  0  0999 V2000
   -0.2631   -3.1424   -0.7840 Br  0  0  0  0  0  0  0  0  0  0  0  0
    1.3338   -1.1606    0.9934 O   0  5  0  0  0  0  0  0  0  0  0  0
    2.1262   -1.9928    0.3286 C   0  0  0  0  0  0  0  0  0  0  0  0
    3.5325   -1.9306    0.4988 C   0  0  0  0  0  0  0  0  0  0  0  0
    3.9228   -1.1863    1.2084 H   0  0  0  0  0  0  0  0  0  0  0  0
    4.3907   -2.7864   -0.2021 C   0  0  0  0  0  0  0  0  0  0  0  0
    5.4781   -2.7123   -0.0474 H   0  0  0  0  0  0  0  0  0  0  0  0
    3.8665   -3.7363   -1.0938 C   0  0  0  0  0  0  0  0  0  0  0  0
    4.5329   -4.4139   -1.6477 H   0  0  0  0  0  0  0  0  0  0  0  0
    2.4767   -3.8301   -1.2694 C   0  0  0  0  0  0  0  0  0  0  0  0
    2.0462   -4.5765   -1.9526 H   0  0  0  0  0  0  0  0  0  0  0  0
    1.6154   -2.9719   -0.5709 C   0  0  0  0  0  0  0  0  0  0  0  0
  1 12  1  0  0  0  0
  3  4  1  0  0  0  0
  3  2  1  0  0  0  0
  4  5  1  0  0  0  0
  6  7  1  0  0  0  0
  6  4  2  0  0  0  0
  8  6  1  0  0  0  0
  9  8  1  0  0  0  0
 10  8  2  0  0  0  0
 10 12  1  0  0  0  0
 11 10  1  0  0  0  0
 12  3  2  0  0  0  0
M  CHG  1   2  -1
M  END
