1
q = -1.0, confidence = 0.0

 21 21  0  0  0  0  0  0  0  0999 V2000
   -1.7354   -0.5512   -0.1566 O   0  5  0  0  0  0  0  0  0  0  0  0
   -2.1458    0.1631   -2.2711 O   0  0  0  0  0  0  0  0  0  0  0  0
   -8.3207    3.3368   -1.0373 O   0  0  0  0  0  0  0  0  0  0  0  0
   -9.3178    3.8307    1.0969 C   0  0  0  0  0  0  0  0  0  0  0  0
  -10.3032    3.4476    0.7682 H   0  0  0  0  0  0  0  0  0  0  0  0
   -9.3394    4.9305    0.9605 H   0  0  0  0  0  0  0  0  0  0  0  0
   -9.1820    3.6068    2.1731 H   0  0  0  0  0  0  0  0  0  0  0  0
   -2.4273    0.0781   -1.0493 C   0  0  0  0  0  0  0  0  0  0  0  0
   -3.6819    0.7475   -0.5539 C   0  0  0  0  0  0  0  0  0  0  0  0
   -3.9703    0.8305    0.8223 C   0  0  0  0  0  0  0  0  0  0  0  0
   -3.2514    0.4028    1.5361 H   0  0  0  0  0  0  0  0  0  0  0  0
   -5.1350    1.4594    1.2660 C   0  0  0  0  0  0  0  0  0  0  0  0
   -5.3483    1.5272    2.3460 H   0  0  0  0  0  0  0  0  0  0  0  0
   -6.0467    2.0200    0.3403 C   0  0  0  0  0  0  0  0  0  0  0  0
   -5.7638    1.9428   -1.0432 C   0  0  0  0  0  0  0  0  0  0  0  0
   -6.4739    2.3807   -1.7539 H   0  0  0  0  0  0  0  0  0  0  0  0
   -4.5881    1.3163   -1.4690 C   0  0  0  0  0  0  0  0  0  0  0  0
   -4.3427    1.2540   -2.5394 H   0  0  0  0  0  0  0  0  0  0  0  0
   -7.1995    2.6370    0.8572 N   0  0  0  0  0  0  0  0  0  0  0  0
   -8.2447    3.2489    0.1831 C   0  0  0  0  0  0  0  0  0  0  0  0
   -7.2650    2.6334    1.8758 H   0  0  0  0  0  0  0  0  0  0  0  0
  2  8  2  0  0  0  0
  3 20  2  0  0  0  0
  4  7  1  0  0  0  0
  5  4  1  0  0  0  0
  6  4  1  0  0  0  0
  8  9  1  0  0  0  0
  8  1  1  0  0  0  0
  9 10  1  0  0  0  0
 10 12  2  0  0  0  0
 10 11  1  0  0  0  0
 12 13  1  0  0  0  0
 14 19  1  0  0  0  0
 14 12  1  0  0  0  0
 15 14  2  0  0  0  0
 16 15  1  0  0  0  0
 17 15  1  0  0  0  0
 17  9  2  0  0  0  0
 18 17  1  0  0  0  0
 19 21  1  0  0  0  0
 20 19  1  0  0  0  0
 20  4  1  0  0  0  0
M  CHG  1   1  -1
M  END
