1
q = -1.0, confidence = 0.002

 11 11  0  0  0  0  0  0  0  0999 V2000
   -0.3382   -0.8746    0.0735 O   0  5  0  0  0  0  0  0  0  0  0  0
   -0.2668   -3.1351    0.1115 O   0  0  0  0  0  0  0  0  0  0  0  0
   -4.4923   -1.3817   -0.4324 O   0  0  0  0  0  0  0  0  0  0  0  0
   -0.8940   -2.0757    0.0409 C   0  0  0  0  0  0  0  0  0  0  0  0
   -2.3723   -2.0522   -0.1022 C   0  0  0  0  0  0  0  0  0  0  0  0
   -3.2030   -0.9711   -0.3332 C   0  0  0  0  0  0  0  0  0  0  0  0
   -3.0222    0.1014   -0.4516 H   0  0  0  0  0  0  0  0  0  0  0  0
   -4.5032   -2.7425   -0.2650 C   0  0  0  0  0  0  0  0  0  0  0  0
   -5.4876   -3.2180   -0.3187 H   0  0  0  0  0  0  0  0  0  0  0  0
   -3.2307   -3.2091   -0.0630 C   0  0  0  0  0  0  0  0  0  0  0  0
   -2.9039   -4.2416    0.0968 H   0  0  0  0  0  0  0  0  0  0  0  0
  3  6  1  0  0  0  0
  3  8  1  0  0  0  0
  4  1  1  0  0  0  0
  4  2  2  0  0  0  0
  5 10  1  0  0  0  0
  5  4  1  0  0  0  0
  6  5  2  0  0  0  0
  7  6  1  0  0  0  0
  8 10  2  0  0  0  0
  9  8  1  0  0  0  0
 10 11  1  0  0  0  0
M  CHG  1   1  -1
M  END
