1
q = -1.0

 19 18  0  0  0  0  0  0  0  0999 V2000
   -1.0069   -0.3600   -0.4243 O   0  5  0  0  0  0  0  0  0  0  0  0
   -2.7299   -1.7319   -0.8836 O   0  0  0  0  0  0  0  0  0  0  0  0
   -2.2540   -0.6007   -0.8006 C   0  0  0  0  0  0  0  0  0  0  0  0
   -3.0477    0.6666   -1.0895 C   0  0  0  0  0  0  0  0  0  0  0  0
   -3.6759    0.4696   -1.9825 H   0  0  0  0  0  0  0  0  0  0  0  0
   -2.3422    1.4877   -1.3274 H   0  0  0  0  0  0  0  0  0  0  0  0
   -3.9722    1.1170    0.0806 C   0  0  0  0  0  0  0  0  0  0  0  0
   -4.6162    2.4558   -0.3236 C   0  0  0  0  0  0  0  0  0  0  0  0
   -5.3093    2.8130    0.4658 H   0  0  0  0  0  0  0  0  0  0  0  0
   -5.1974    2.3537   -1.2633 H   0  0  0  0  0  0  0  0  0  0  0  0
   -3.8471    3.2402   -0.4813 H   0  0  0  0  0  0  0  0  0  0  0  0
   -5.0741    0.0710    0.3247 C   0  0  0  0  0  0  0  0  0  0  0  0
   -4.6458   -0.9243    0.5533 H   0  0  0  0  0  0  0  0  0  0  0  0
   -5.7155   -0.0468   -0.5729 H   0  0  0  0  0  0  0  0  0  0  0  0
   -5.7236    0.3803    1.1695 H   0  0  0  0  0  0  0  0  0  0  0  0
   -3.1484    1.3208    1.3656 C   0  0  0  0  0  0  0  0  0  0  0  0
   -3.7906    1.7154    2.1795 H   0  0  0  0  0  0  0  0  0  0  0  0
   -2.3173    2.0368    1.2040 H   0  0  0  0  0  0  0  0  0  0  0  0
   -2.7040    0.3698    1.7207 H   0  0  0  0  0  0  0  0  0  0  0  0
  2  3  2  0  0  0  0
  3  1  1  0  0  0  0
  4  3  1  0  0  0  0
  4  7  1  0  0  0  0
  5  4  1  0  0  0  0
  6  4  1  0  0  0  0
  7 12  1  0  0  0  0
  7 16  1  0  0  0  0
  8  7  1  0  0  0  0
  8  9  1  0  0  0  0
 10  8  1  0  0  0  0
 11  8  1  0  0  0  0
 12 13  1  0  0  0  0
 12 15  1  0  0  0  0
 14 12  1  0  0  0  0
 16 19  1  0  0  0  0
 16 17  1  0  0  0  0
 18 16  1  0  0  0  0
M  CHG  1   1  -1
M  END
