1
q = -1.0

 11 11  0  0  0  0  0  0  0  0999 V2000
    1.2749    0.0809   -0.4031 O   0  5  0  0  0  0  0  0  0  0  0  0
    3.4811   -0.2277   -0.7747 O   0  0  0  0  0  0  0  0  0  0  0  0
    3.8347    2.5621   -0.5921 O   0  0  0  0  0  0  0  0  0  0  0  0
    2.5293    0.5100   -0.5375 C   0  0  0  0  0  0  0  0  0  0  0  0
    2.6233    1.9679   -0.3487 C   0  0  0  0  0  0  0  0  0  0  0  0
    3.6902    3.8808   -0.3175 C   0  0  0  0  0  0  0  0  0  0  0  0
    4.5811    4.4996   -0.4695 H   0  0  0  0  0  0  0  0  0  0  0  0
    2.4060    4.1576    0.1073 C   0  0  0  0  0  0  0  0  0  0  0  0
    2.0135    5.1377    0.4000 H   0  0  0  0  0  0  0  0  0  0  0  0
    1.7065    2.9119    0.0873 C   0  0  0  0  0  0  0  0  0  0  0  0
    0.6678    2.7002    0.3738 H   0  0  0  0  0  0  0  0  0  0  0  0
  2  4  2  0  0  0  0
  3  5  1  0  0  0  0
  3  6  1  0  0  0  0
  4  1  1  0  0  0  0
  4  5  1  0  0  0  0
  5 10  2  0  0  0  0
  6  8  2  0  0  0  0
  7  6  1  0  0  0  0
  8  9  1  0  0  0  0
 10  8  1  0  0  0  0
 10 11  1  0  0  0  0
M  CHG  1   1  -1
M  END
