3
q = -1.0, confidence = 0.0

 21 22  0  0  0  0  0  0  0  0999 V2000
   -6.3746   -1.4868   -0.0837 N   0  0  0  0  0  0  0  0  0  0  0  0
   -7.2206   -1.7024    0.4389 H   0  0  0  0  0  0  0  0  0  0  0  0
   -1.3923   -1.0880   -1.6499 O   0  5  0  0  0  0  0  0  0  0  0  0
   -1.7248   -2.8550   -0.2635 O   0  0  0  0  0  0  0  0  0  0  0  0
   -2.0300   -2.1276   -1.2411 C   0  0  0  0  0  0  0  0  0  0  0  0
   -3.3270   -2.4338   -2.0081 C   0  0  0  0  0  0  0  0  0  0  0  0
   -3.2201   -2.0535   -3.0441 H   0  0  0  0  0  0  0  0  0  0  0  0
   -3.4730   -3.5304   -2.0361 H   0  0  0  0  0  0  0  0  0  0  0  0
   -5.5354   -2.4217   -0.6683 C   0  0  0  0  0  0  0  0  0  0  0  0
   -5.7403   -3.4948   -0.5781 H   0  0  0  0  0  0  0  0  0  0  0  0
   -4.4897   -1.7806   -1.3142 C   0  0  0  0  0  0  0  0  0  0  0  0
   -4.6931   -0.3633   -1.1064 C   0  0  0  0  0  0  0  0  0  0  0  0
   -5.8871   -0.2172   -0.3240 C   0  0  0  0  0  0  0  0  0  0  0  0
   -6.3575    1.0401    0.0967 C   0  0  0  0  0  0  0  0  0  0  0  0
   -7.2720    1.1358    0.7018 H   0  0  0  0  0  0  0  0  0  0  0  0
   -5.6122    2.1661   -0.2730 C   0  0  0  0  0  0  0  0  0  0  0  0
   -5.9473    3.1636    0.0492 H   0  0  0  0  0  0  0  0  0  0  0  0
   -4.4345    2.0444   -1.0517 C   0  0  0  0  0  0  0  0  0  0  0  0
   -3.8701    2.9508   -1.3176 H   0  0  0  0  0  0  0  0  0  0  0  0
   -3.9715    0.7954   -1.4759 C   0  0  0  0  0  0  0  0  0  0  0  0
   -3.0477    0.6961   -2.0630 H   0  0  0  0  0  0  0  0  0  0  0  0
  1  2  1  0  0  0  0
  3  5  1  0  0  0  0
  5  4  2  0  0  0  0
  6 11  1  0  0  0  0
  6  5  1  0  0  0  0
  7  6  1  0  0  0  0
  8  6  1  0  0  0  0
  9 10  1  0  0  0  0
  9  1  1  0  0  0  0
 11 12  1  0  0  0  0
 11  9  2  0  0  0  0
 12 13  1  0  0  0  0
 13  1  1  0  0  0  0
 13 14  2  0  0  0  0
 14 15  1  0  0  0  0
 16 17  1  0  0  0  0
 16 14  1  0  0  0  0
 18 16  2  0  0  0  0
 19 18  1  0  0  0  0
 20 12  2  0  0  0  0
 20 18  1  0  0  0  0
 21 20  1  0  0  0  0
M  CHG  1   3  -1
M  END
