1
q = -1.0

 17 17  0  0  0  0  0  0  0  0999 V2000
    1.2198   -1.0008    0.1173 O   0  5  0  0  0  0  0  0  0  0  0  0
    2.1241   -1.9315   -1.7422 O   0  0  0  0  0  0  0  0  0  0  0  0
    2.1510   -1.6062   -0.5166 C   0  0  0  0  0  0  0  0  0  0  0  0
    3.3898   -1.9486    0.2747 C   0  0  0  0  0  0  0  0  0  0  0  0
    3.4937   -1.5834    1.6308 C   0  0  0  0  0  0  0  0  0  0  0  0
    2.6486   -1.0555    2.0954 H   0  0  0  0  0  0  0  0  0  0  0  0
    4.6567   -1.8957    2.3454 C   0  0  0  0  0  0  0  0  0  0  0  0
    4.7473   -1.6107    3.4052 H   0  0  0  0  0  0  0  0  0  0  0  0
    5.7137   -2.5718    1.7138 C   0  0  0  0  0  0  0  0  0  0  0  0
    6.6265   -2.8117    2.2830 H   0  0  0  0  0  0  0  0  0  0  0  0
    5.6275   -2.9501    0.3580 C   0  0  0  0  0  0  0  0  0  0  0  0
    4.4536   -2.6252   -0.3478 C   0  0  0  0  0  0  0  0  0  0  0  0
    4.3381   -2.8912   -1.4098 H   0  0  0  0  0  0  0  0  0  0  0  0
    6.7476   -3.7043   -0.3160 C   0  0  0  0  0  0  0  0  0  0  0  0
    7.7035   -3.5986    0.2338 H   0  0  0  0  0  0  0  0  0  0  0  0
    6.9052   -3.3538   -1.3558 H   0  0  0  0  0  0  0  0  0  0  0  0
    6.5186   -4.7902   -0.3746 H   0  0  0  0  0  0  0  0  0  0  0  0
  2  3  2  0  0  0  0
  3  1  1  0  0  0  0
  3  4  1  0  0  0  0
  4  5  1  0  0  0  0
  5  6  1  0  0  0  0
  5  7  2  0  0  0  0
  7  8  1  0  0  0  0
  9 10  1  0  0  0  0
  9  7  1  0  0  0  0
 11  9  2  0  0  0  0
 12  4  2  0  0  0  0
 12 11  1  0  0  0  0
 13 12  1  0  0  0  0
 14 15  1  0  0  0  0
 14 11  1  0  0  0  0
 16 14  1  0  0  0  0
 17 14  1  0  0  0  0
M  CHG  1   1  -1
M  END
