2
q = -1.0, confidence = 0.006

 13 13  0  0  0  0  0  0  0  0999 V2000
   -5.8919   -3.6295   -0.0678 Br  0  0  0  0  0  0  0  0  0  0  0  0
   -1.9319    0.1483    0.0294 O   0  5  0  0  0  0  0  0  0  0  0  0
   -5.6719   -1.7401    0.0077 C   0  0  0  0  0  0  0  0  0  0  0  0
   -6.7147    0.4298    0.1122 N   0  0  0  0  0  0  0  0  0  0  0  0
   -4.3939   -1.1702    0.0135 C   0  0  0  0  0  0  0  0  0  0  0  0
   -3.4760   -1.7734   -0.0245 H   0  0  0  0  0  0  0  0  0  0  0  0
   -2.9592    0.9270    0.0815 C   0  0  0  0  0  0  0  0  0  0  0  0
   -4.2996    0.2316    0.0706 C   0  0  0  0  0  0  0  0  0  0  0  0
   -2.9165    2.1786    0.1363 O   0  0  0  0  0  0  0  0  0  0  0  0
   -6.8063   -0.9063    0.0583 C   0  0  0  0  0  0  0  0  0  0  0  0
   -7.8175   -1.3498    0.0543 H   0  0  0  0  0  0  0  0  0  0  0  0
   -5.4915    0.9805    0.1180 C   0  0  0  0  0  0  0  0  0  0  0  0
   -5.4225    2.0806    0.1614 H   0  0  0  0  0  0  0  0  0  0  0  0
  1  3  1  0  0  0  0
  2  7  1  0  0  0  0
  3  5  2  0  0  0  0
  3 10  1  0  0  0  0
  4 12  1  0  0  0  0
  5  8  1  0  0  0  0
  6  5  1  0  0  0  0
  7  9  2  0  0  0  0
  8  7  1  0  0  0  0
  8 12  2  0  0  0  0
 10  4  2  0  0  0  0
 11 10  1  0  0  0  0
 12 13  1  0  0  0  0
M  CHG  1   2  -1
M  END
