1
q = -1.0

  6  5  0  0  0  0  0  0  0  0999 V2000
   -2.6564   -1.1034   -0.5158 O   0  0  0  0  0  1  0  0  0  0  0  0
   -3.1856   -2.3552   -0.0293 O   0  0  0  0  0  0  0  0  0  0  0  0
   -3.3856   -2.2205    1.3533 C   0  0  0  0  0  0  0  0  0  0  0  0
   -3.8165   -3.1860    1.6950 H   0  0  0  0  0  0  0  0  0  0  0  0
   -4.0955   -1.3943    1.5981 H   0  0  0  0  0  0  0  0  0  0  0  0
   -2.4231   -2.0339    1.8918 H   0  0  0  0  0  0  0  0  0  0  0  0
  1  2  1  0  0  0  0
  2  3  1  0  0  0  0
  3  5  1  0  0  0  0
  3  4  1  0  0  0  0
  3  6  1  0  0  0  0
M  END
