1
q = -1.0

  6  5  0  0  0  0  0  0  0  0999 V2000
   -1.3978   -0.0746   -1.3352 O   0  5  0  0  0  0  0  0  0  0  0  0
   -2.6996   -0.1180   -1.5617 C   0  0  0  0  0  0  0  0  0  0  0  0
   -3.6950   -0.0479   -0.6401 C   0  0  0  0  0  0  0  0  0  0  0  0
   -2.9508   -0.2164   -2.6394 H   0  0  0  0  0  0  0  0  0  0  0  0
   -3.4830    0.0528    0.4349 H   0  0  0  0  0  0  0  0  0  0  0  0
   -4.7432   -0.0913   -0.9658 H   0  0  0  0  0  0  0  0  0  0  0  0
  2  1  1  0  0  0  0
  2  3  2  0  0  0  0
  3  5  1  0  0  0  0
  4  2  1  0  0  0  0
  6  3  1  0  0  0  0
M  CHG  1   1  -1
M  END
