3
q = -1.0

 26 27  0  0  0  0  0  0  0  0999 V2000
    2.9646   -1.6973    0.0223 C   0  0  0  0  0  0  0  0  0  0  0  0
    3.9889    0.9047    2.1050 O   0  0  0  0  0  0  0  0  0  0  0  0
    0.6564   -2.1946   -0.2826 O   0  5  0  0  0  0  0  0  0  0  0  0
    3.6067    0.6133    0.9753 C   0  0  0  0  0  0  0  0  0  0  0  0
    1.2203   -0.3520    0.9026 O   0  0  0  0  0  0  0  0  0  0  0  0
    2.8050    2.9475    0.6106 C   0  0  0  0  0  0  0  0  0  0  0  0
    3.0875    3.1055    1.6624 H   0  0  0  0  0  0  0  0  0  0  0  0
    5.6940   -2.3101   -0.2695 C   0  0  0  0  0  0  0  0  0  0  0  0
    6.7638   -2.5487   -0.3732 H   0  0  0  0  0  0  0  0  0  0  0  0
    3.0036    1.6604    0.0718 C   0  0  0  0  0  0  0  0  0  0  0  0
    3.3623   -2.9363   -0.5131 C   0  0  0  0  0  0  0  0  0  0  0  0
    2.5730   -3.6487   -0.7936 H   0  0  0  0  0  0  0  0  0  0  0  0
    1.5077   -1.3781    0.2427 C   0  0  0  0  0  0  0  0  0  0  0  0
    3.9420   -0.7465    0.3975 C   0  0  0  0  0  0  0  0  0  0  0  0
    5.3051   -1.0716    0.2612 C   0  0  0  0  0  0  0  0  0  0  0  0
    6.0623   -0.3382    0.5775 H   0  0  0  0  0  0  0  0  0  0  0  0
    2.6689    1.4198   -1.2760 C   0  0  0  0  0  0  0  0  0  0  0  0
    2.8309    0.4209   -1.7072 H   0  0  0  0  0  0  0  0  0  0  0  0
    4.7208   -3.2440   -0.6628 C   0  0  0  0  0  0  0  0  0  0  0  0
    5.0245   -4.2176   -1.0773 H   0  0  0  0  0  0  0  0  0  0  0  0
    1.9312    3.7259   -1.5206 C   0  0  0  0  0  0  0  0  0  0  0  0
    1.5146    4.5318   -2.1446 H   0  0  0  0  0  0  0  0  0  0  0  0
    2.2761    3.9757   -0.1800 C   0  0  0  0  0  0  0  0  0  0  0  0
    2.1377    4.9821    0.2463 H   0  0  0  0  0  0  0  0  0  0  0  0
    2.1287    2.4457   -2.0647 C   0  0  0  0  0  0  0  0  0  0  0  0
    1.8653    2.2472   -3.1150 H   0  0  0  0  0  0  0  0  0  0  0  0
  1 13  1  0  0  0  0
  1 14  1  0  0  0  0
  3 13  1  0  0  0  0
  4  2  2  0  0  0  0
  6  7  1  0  0  0  0
  8 15  1  0  0  0  0
  9  8  1  0  0  0  0
 10  6  1  0  0  0  0
 10  4  1  0  0  0  0
 11  1  2  0  0  0  0
 12 11  1  0  0  0  0
 13  5  2  0  0  0  0
 14  4  1  0  0  0  0
 15 14  2  0  0  0  0
 15 16  1  0  0  0  0
 17 10  2  0  0  0  0
 18 17  1  0  0  0  0
 19 11  1  0  0  0  0
 19  8  2  0  0  0  0
 20 19  1  0  0  0  0
 21 23  1  0  0  0  0
 22 21  1  0  0  0  0
 23 24  1  0  0  0  0
 23  6  2  0  0  0  0
 25 21  2  0  0  0  0
 25 17  1  0  0  0  0
 26 25  1  0  0  0  0
M  CHG  1   3  -1
M  END
