17
q = -1.0

 40 42  0  0  0  0  0  0  0  0999 V2000
   -2.0849    0.7438    0.8477 C   0  0  0  0  0  0  0  0  0  0  0  0
   -2.0841   -0.4987    1.5485 C   0  0  0  0  0  0  0  0  0  0  0  0
   -1.2318   -0.7344    2.6761 C   0  0  0  0  0  0  0  0  0  0  0  0
   -1.2490   -1.9399    3.3520 C   0  0  0  0  0  0  0  0  0  0  0  0
   -2.1083   -2.9977    2.9262 C   0  0  0  0  0  0  0  0  0  0  0  0
   -2.9621   -2.8062    1.8575 C   0  0  0  0  0  0  0  0  0  0  0  0
   -3.0011   -1.5556    1.1553 C   0  0  0  0  0  0  0  0  0  0  0  0
   -3.9186   -1.3254    0.1134 C   0  0  0  0  0  0  0  0  0  0  0  0
   -3.9871   -0.0808   -0.5413 C   0  0  0  0  0  0  0  0  0  0  0  0
   -4.9388    0.1652   -1.5845 C   0  0  0  0  0  0  0  0  0  0  0  0
   -4.9792    1.3782   -2.2431 C   0  0  0  0  0  0  0  0  0  0  0  0
   -4.0574    2.4101   -1.8951 C   0  0  0  0  0  0  0  0  0  0  0  0
   -3.1233    2.2085   -0.8960 C   0  0  0  0  0  0  0  0  0  0  0  0
   -3.0559    0.9716   -0.1742 C   0  0  0  0  0  0  0  0  0  0  0  0
   -1.0870    1.7896    1.1484 C   0  0  0  0  0  0  0  0  0  0  0  0
    0.2712    1.6647    1.0150 C   0  0  0  0  0  0  0  0  0  0  0  0
    0.8689    0.5278    0.6230 O   0  5  0  0  0  0  0  0  0  0  0  0
    1.4966    3.1150    1.2573 Si  0  0  0  0  0  0  0  0  0  0  0  0
    0.6375    4.5217    2.1866 C   0  0  0  0  0  0  0  0  0  0  0  0
    2.9807    2.4461    2.2156 C   0  0  0  0  0  0  0  0  0  0  0  0
    2.0498    3.6864   -0.4592 C   0  0  0  0  0  0  0  0  0  0  0  0
   -0.5721    0.0821    3.0021 H   0  0  0  0  0  0  0  0  0  0  0  0
   -0.5970   -2.0901    4.2260 H   0  0  0  0  0  0  0  0  0  0  0  0
   -2.0990   -3.9584    3.4630 H   0  0  0  0  0  0  0  0  0  0  0  0
   -3.6475   -3.6064    1.5370 H   0  0  0  0  0  0  0  0  0  0  0  0
   -4.6111   -2.1292   -0.1831 H   0  0  0  0  0  0  0  0  0  0  0  0
   -5.6401   -0.6409   -1.8515 H   0  0  0  0  0  0  0  0  0  0  0  0
   -5.7162    1.5508   -3.0419 H   0  0  0  0  0  0  0  0  0  0  0  0
   -4.0884    3.3706   -2.4316 H   0  0  0  0  0  0  0  0  0  0  0  0
   -2.4064    3.0035   -0.6455 H   0  0  0  0  0  0  0  0  0  0  0  0
   -1.4587    2.7903    1.4242 H   0  0  0  0  0  0  0  0  0  0  0  0
   -0.2154    4.9321    1.6079 H   0  0  0  0  0  0  0  0  0  0  0  0
    0.2539    4.1827    3.1703 H   0  0  0  0  0  0  0  0  0  0  0  0
    1.3488    5.3543    2.3662 H   0  0  0  0  0  0  0  0  0  0  0  0
    2.6753    2.0084    3.1877 H   0  0  0  0  0  0  0  0  0  0  0  0
    3.4807    1.6590    1.6149 H   0  0  0  0  0  0  0  0  0  0  0  0
    3.7213    3.2477    2.4148 H   0  0  0  0  0  0  0  0  0  0  0  0
    2.5875    2.8646   -0.9750 H   0  0  0  0  0  0  0  0  0  0  0  0
    1.1832    3.9915   -1.0809 H   0  0  0  0  0  0  0  0  0  0  0  0
    2.7403    4.5520   -0.3835 H   0  0  0  0  0  0  0  0  0  0  0  0
  1 15  1  0  0  0  0
  1  2  1  0  0  0  0
  2  3  1  0  0  0  0
  3 22  1  0  0  0  0
  3  4  2  0  0  0  0
  4 23  1  0  0  0  0
  5  4  1  0  0  0  0
  5 24  1  0  0  0  0
  6  5  2  0  0  0  0
  7  2  2  0  0  0  0
  7  6  1  0  0  0  0
  8  7  1  0  0  0  0
  9 14  1  0  0  0  0
  9  8  2  0  0  0  0
 10  9  1  0  0  0  0
 11 12  1  0  0  0  0
 11 10  2  0  0  0  0
 12 13  2  0  0  0  0
 13 30  1  0  0  0  0
 13 14  1  0  0  0  0
 14  1  2  0  0  0  0
 15 31  1  0  0  0  0
 16 15  2  0  0  0  0
 16 18  1  0  0  0  0
 17 16  1  0  0  0  0
 18 19  1  0  0  0  0
 18 20  1  0  0  0  0
 19 34  1  0  0  0  0
 19 33  1  0  0  0  0
 20 37  1  0  0  0  0
 20 35  1  0  0  0  0
 21 40  1  0  0  0  0
 21 18  1  0  0  0  0
 25  6  1  0  0  0  0
 26  8  1  0  0  0  0
 27 10  1  0  0  0  0
 28 11  1  0  0  0  0
 29 12  1  0  0  0  0
 32 19  1  0  0  0  0
 36 20  1  0  0  0  0
 38 21  1  0  0  0  0
 39 21  1  0  0  0  0
M  CHG  1  17  -1
M  END
