2
q = -1.0

 14 13  0  0  0  0  0  0  0  0999 V2000
   -1.5797   -1.5614    0.0001 O   0  0  0  0  0  0  0  0  0  0  0  0
   -0.6168    1.2320   -0.0001 O   0  5  0  0  0  0  0  0  0  0  0  0
   -2.6817   -0.9337    0.0001 C   0  0  0  0  0  0  0  0  0  0  0  0
   -2.9067    0.4598    0.0000 C   0  0  0  0  0  0  0  0  0  0  0  0
   -1.8781    1.4159   -0.0000 C   0  0  0  0  0  0  0  0  0  0  0  0
   -3.9065   -1.8752    0.0001 C   0  0  0  0  0  0  0  0  0  0  0  0
   -2.2466    2.9120   -0.0001 C   0  0  0  0  0  0  0  0  0  0  0  0
   -3.8831   -2.6661    1.0913 F   0  0  0  0  0  0  0  0  0  0  0  0
   -3.8837   -2.6652   -1.0919 F   0  0  0  0  0  0  0  0  0  0  0  0
   -5.0789   -1.2013    0.0007 F   0  0  0  0  0  0  0  0  0  0  0  0
   -1.7306    3.5163   -1.0916 F   0  0  0  0  0  0  0  0  0  0  0  0
   -3.5802    3.1214    0.0002 F   0  0  0  0  0  0  0  0  0  0  0  0
   -1.7302    3.5165    1.0912 F   0  0  0  0  0  0  0  0  0  0  0  0
   -3.9423    0.8159    0.0001 H   0  0  0  0  0  0  0  0  0  0  0  0
  2  5  1  0  0  0  0
  3  1  2  0  0  0  0
  4  3  1  0  0  0  0
  4 14  1  0  0  0  0
  5  4  2  0  0  0  0
  6  3  1  0  0  0  0
  6 10  1  0  0  0  0
  6  8  1  0  0  0  0
  7  5  1  0  0  0  0
  7 12  1  0  0  0  0
  7 13  1  0  0  0  0
  9  6  1  0  0  0  0
 11  7  1  0  0  0  0
M  CHG  1   2  -1
M  END
