1
q = -1.0, confidence = 0.006

 14 14  0  0  0  0  0  0  0  0999 V2000
   -2.1222    0.0012   -1.0970 O   0  5  0  0  0  0  0  0  0  0  0  0
   -2.8339    0.0039   -0.0125 C   0  0  0  0  0  0  0  0  0  0  0  0
   -2.3646    0.0062    1.1481 O   0  0  0  0  0  0  0  0  0  0  0  0
   -4.3296    0.0038   -0.2117 C   0  0  0  0  0  0  0  0  0  0  0  0
   -4.8997    0.0012   -1.4995 C   0  0  0  0  0  0  0  0  0  0  0  0
   -4.2270   -0.0008   -2.3690 H   0  0  0  0  0  0  0  0  0  0  0  0
   -6.2905    0.0011   -1.6656 C   0  0  0  0  0  0  0  0  0  0  0  0
   -6.7455   -0.0009   -2.6663 H   0  0  0  0  0  0  0  0  0  0  0  0
   -7.1150    0.0037   -0.5277 C   0  0  0  0  0  0  0  0  0  0  0  0
   -8.8529    0.0036   -0.7253 Cl  0  0  0  0  0  0  0  0  0  0  0  0
   -6.5669    0.0063    0.7665 C   0  0  0  0  0  0  0  0  0  0  0  0
   -7.2344    0.0082    1.6399 H   0  0  0  0  0  0  0  0  0  0  0  0
   -5.1750    0.0063    0.9144 C   0  0  0  0  0  0  0  0  0  0  0  0
   -4.7044    0.0083    1.9086 H   0  0  0  0  0  0  0  0  0  0  0  0
  1  2  1  0  0  0  0
  2  3  2  0  0  0  0
  4  2  1  0  0  0  0
  4 13  1  0  0  0  0
  5  4  2  0  0  0  0
  6  5  1  0  0  0  0
  7  5  1  0  0  0  0
  7  9  2  0  0  0  0
  8  7  1  0  0  0  0
  9 11  1  0  0  0  0
 10  9  1  0  0  0  0
 11 13  2  0  0  0  0
 11 12  1  0  0  0  0
 13 14  1  0  0  0  0
M  CHG  1   1  -1
M  END
