2
q = -1.0

  8  7  0  0  0  0  0  0  0  0999 V2000
    2.3224    1.7270   -1.7232 S   0  0  0  0  0  0  0  0  0  0  0  0
    1.4786    0.5080   -1.2991 O   0  0  0  0  0  1  0  0  0  0  0  0
    3.4123    2.0459   -0.7368 O   0  0  0  0  0  1  0  0  0  0  0  0
    1.5190    2.8976   -2.1763 O   0  0  0  0  0  1  0  0  0  0  0  0
    3.1596    1.0764   -3.1873 C   0  0  0  0  0  0  0  0  0  0  0  0
    2.3905    0.7830   -3.9246 H   0  0  0  0  0  0  0  0  0  0  0  0
    3.7753    0.2072   -2.8930 H   0  0  0  0  0  0  0  0  0  0  0  0
    3.7965    1.8874   -3.5850 H   0  0  0  0  0  0  0  0  0  0  0  0
  1  2  1  0  0  0  0
  1  3  1  0  0  0  0
  4  1  1  0  0  0  0
  5  7  1  0  0  0  0
  5  1  1  0  0  0  0
  6  5  1  0  0  0  0
  8  5  1  0  0  0  0
M  END
