3
q = -1.0

 37 37  0  0  0  0  0  0  0  0999 V2000
    0.2695   -0.4668   -1.4055 O   0  0  0  0  0  0  0  0  0  0  0  0
    0.2567   -0.0187   -2.2705 H   0  0  0  0  0  0  0  0  0  0  0  0
    0.0553   -1.3605    1.0293 O   0  5  0  0  0  0  0  0  0  0  0  0
   -0.9993   -0.7963   -1.0095 C   0  0  0  0  0  0  0  0  0  0  0  0
   -2.1307   -0.6716   -1.8125 C   0  0  0  0  0  0  0  0  0  0  0  0
   -3.3959   -1.0375   -1.3052 C   0  0  0  0  0  0  0  0  0  0  0  0
   -3.4650   -1.5242    0.0157 C   0  0  0  0  0  0  0  0  0  0  0  0
   -2.3431   -1.6582    0.8589 C   0  0  0  0  0  0  0  0  0  0  0  0
   -1.0800   -1.2899    0.3228 C   0  0  0  0  0  0  0  0  0  0  0  0
   -4.6401   -0.8790   -2.1963 C   0  0  0  0  0  0  0  0  0  0  0  0
   -4.8021    0.6111   -2.5762 C   0  0  0  0  0  0  0  0  0  0  0  0
   -3.9234    0.9930   -3.1331 H   0  0  0  0  0  0  0  0  0  0  0  0
   -4.9243    1.2388   -1.6706 H   0  0  0  0  0  0  0  0  0  0  0  0
   -5.6955    0.7527   -3.2192 H   0  0  0  0  0  0  0  0  0  0  0  0
   -5.9255   -1.3408   -1.4882 C   0  0  0  0  0  0  0  0  0  0  0  0
   -6.1287   -0.7483   -0.5737 H   0  0  0  0  0  0  0  0  0  0  0  0
   -5.8774   -2.4109   -1.2031 H   0  0  0  0  0  0  0  0  0  0  0  0
   -6.7927   -1.2140   -2.1670 H   0  0  0  0  0  0  0  0  0  0  0  0
   -4.4626   -1.7229   -3.4793 C   0  0  0  0  0  0  0  0  0  0  0  0
   -3.5737   -1.4086   -4.0616 H   0  0  0  0  0  0  0  0  0  0  0  0
   -5.3494   -1.6171   -4.1380 H   0  0  0  0  0  0  0  0  0  0  0  0
   -4.3415   -2.7970   -3.2327 H   0  0  0  0  0  0  0  0  0  0  0  0
   -2.4635   -2.1425    2.3134 C   0  0  0  0  0  0  0  0  0  0  0  0
   -1.9945   -1.0117    3.2613 C   0  0  0  0  0  0  0  0  0  0  0  0
   -2.0765   -1.3433    4.3172 H   0  0  0  0  0  0  0  0  0  0  0  0
   -2.6276   -0.1094    3.1361 H   0  0  0  0  0  0  0  0  0  0  0  0
   -0.9441   -0.7261    3.0686 H   0  0  0  0  0  0  0  0  0  0  0  0
   -1.5911   -3.4033    2.5197 C   0  0  0  0  0  0  0  0  0  0  0  0
   -1.6793   -3.7570    3.5678 H   0  0  0  0  0  0  0  0  0  0  0  0
   -0.5255   -3.1950    2.3123 H   0  0  0  0  0  0  0  0  0  0  0  0
   -1.9242   -4.2243    1.8524 H   0  0  0  0  0  0  0  0  0  0  0  0
   -3.9146   -2.5021    2.6796 C   0  0  0  0  0  0  0  0  0  0  0  0
   -3.9517   -2.8488    3.7317 H   0  0  0  0  0  0  0  0  0  0  0  0
   -2.0214   -0.2801   -2.8366 H   0  0  0  0  0  0  0  0  0  0  0  0
   -4.5952   -1.6309    2.5938 H   0  0  0  0  0  0  0  0  0  0  0  0
   -4.3139   -3.3194    2.0452 H   0  0  0  0  0  0  0  0  0  0  0  0
   -4.4440   -1.8028    0.4178 H   0  0  0  0  0  0  0  0  0  0  0  0
  1  4  1  0  0  0  0
  2  1  1  0  0  0  0
  4  9  1  0  0  0  0
  5  6  1  0  0  0  0
  5  4  2  0  0  0  0
  6  7  2  0  0  0  0
  7 37  1  0  0  0  0
  7  8  1  0  0  0  0
  8 23  1  0  0  0  0
  9  8  2  0  0  0  0
  9  3  1  0  0  0  0
 10 15  1  0  0  0  0
 10  6  1  0  0  0  0
 11 10  1  0  0  0  0
 11 13  1  0  0  0  0
 12 11  1  0  0  0  0
 14 11  1  0  0  0  0
 15 17  1  0  0  0  0
 15 16  1  0  0  0  0
 18 15  1  0  0  0  0
 19 22  1  0  0  0  0
 19 10  1  0  0  0  0
 20 19  1  0  0  0  0
 21 19  1  0  0  0  0
 23 28  1  0  0  0  0
 23 32  1  0  0  0  0
 23 24  1  0  0  0  0
 24 25  1  0  0  0  0
 26 24  1  0  0  0  0
 27 24  1  0  0  0  0
 28 29  1  0  0  0  0
 30 28  1  0  0  0  0
 31 28  1  0  0  0  0
 32 33  1  0  0  0  0
 34  5  1  0  0  0  0
 35 32  1  0  0  0  0
 36 32  1  0  0  0  0
M  CHG  1   3  -1
M  END
