1
q = -1.0

 15 15  0  0  0  0  0  0  0  0999 V2000
    1.3054    1.3735   -2.1174 O   0  5  0  0  0  0  0  0  0  0  0  0
    2.9822    0.9429    1.5538 O   0  0  0  0  0  0  0  0  0  0  0  0
    1.9522    1.2210   -0.9788 N   0  0  0  0  0  0  0  0  0  0  0  0
    3.2077    0.8875   -0.8655 C   0  0  0  0  0  0  0  0  0  0  0  0
    4.0655    0.6610   -2.0776 C   0  0  0  0  0  0  0  0  0  0  0  0
    3.4665    0.8135   -2.9929 H   0  0  0  0  0  0  0  0  0  0  0  0
    4.4724   -0.3708   -2.0803 H   0  0  0  0  0  0  0  0  0  0  0  0
    4.9265    1.3600   -2.0883 H   0  0  0  0  0  0  0  0  0  0  0  0
    3.7721    0.7234    0.4583 C   0  0  0  0  0  0  0  0  0  0  0  0
    3.7416    0.7141    2.6579 C   0  0  0  0  0  0  0  0  0  0  0  0
    3.2364    0.8577    3.6184 H   0  0  0  0  0  0  0  0  0  0  0  0
    5.0202    0.3464    2.3003 C   0  0  0  0  0  0  0  0  0  0  0  0
    5.8445    0.1039    2.9795 H   0  0  0  0  0  0  0  0  0  0  0  0
    5.0455    0.3526    0.8700 C   0  0  0  0  0  0  0  0  0  0  0  0
    5.8929    0.1133    0.2192 H   0  0  0  0  0  0  0  0  0  0  0  0
  1  3  1  0  0  0  0
  2 10  1  0  0  0  0
  3  4  2  0  0  0  0
  4  9  1  0  0  0  0
  5  4  1  0  0  0  0
  6  5  1  0  0  0  0
  7  5  1  0  0  0  0
  8  5  1  0  0  0  0
  9 14  2  0  0  0  0
  9  2  1  0  0  0  0
 10 11  1  0  0  0  0
 12 10  2  0  0  0  0
 12 13  1  0  0  0  0
 14 12  1  0  0  0  0
 15 14  1  0  0  0  0
M  CHG  1   1  -1
M  END
