4
q = -1.0

 17 17  0  0  0  0  0  0  0  0999 V2000
   -7.9892   -1.7972   -0.0180 O   0  0  0  0  0  0  0  0  0  0  0  0
   -8.3537    0.6880    0.2150 O   0  0  0  0  0  0  0  0  0  0  0  0
   -5.9957   -2.6533   -0.2369 O   0  0  0  0  0  0  0  0  0  0  0  0
   -2.0247    0.1490   -0.3363 O   0  5  0  0  0  0  0  0  0  0  0  0
   -2.2373    2.3902   -0.0576 O   0  0  0  0  0  0  0  0  0  0  0  0
   -4.2001    1.0594   -0.0604 C   0  0  0  0  0  0  0  0  0  0  0  0
   -4.7791   -0.2087   -0.1231 C   0  0  0  0  0  0  0  0  0  0  0  0
   -6.1732   -0.3514   -0.0324 C   0  0  0  0  0  0  0  0  0  0  0  0
   -7.0329    0.7835    0.1258 C   0  0  0  0  0  0  0  0  0  0  0  0
   -6.4195    2.0608    0.1881 C   0  0  0  0  0  0  0  0  0  0  0  0
   -5.0393    2.1928    0.0978 C   0  0  0  0  0  0  0  0  0  0  0  0
   -2.7115    1.2220   -0.1531 C   0  0  0  0  0  0  0  0  0  0  0  0
   -4.1521   -1.1014   -0.2406 H   0  0  0  0  0  0  0  0  0  0  0  0
   -8.5401   -0.3067    0.1463 H   0  0  0  0  0  0  0  0  0  0  0  0
   -7.0781    2.9324    0.3108 H   0  0  0  0  0  0  0  0  0  0  0  0
   -4.5609    3.1818    0.1481 H   0  0  0  0  0  0  0  0  0  0  0  0
   -6.7358   -1.6881   -0.1017 N   0  0  0  0  0  0  0  0  0  0  0  0
  3 17  2  0  0  0  0
  4 12  1  0  0  0  0
  6 11  1  0  0  0  0
  7  6  2  0  0  0  0
  7  8  1  0  0  0  0
  8  9  2  0  0  0  0
  9 10  1  0  0  0  0
  9  2  1  0  0  0  0
 10 15  1  0  0  0  0
 11 16  1  0  0  0  0
 11 10  2  0  0  0  0
 12  6  1  0  0  0  0
 12  5  2  0  0  0  0
 13  7  1  0  0  0  0
 14  2  1  0  0  0  0
 17  8  1  0  0  0  0
 17  1  2  0  0  0  0
M  CHG  1   4  -1
M  END
