3
q = -1.0

  9  8  0  0  0  0  0  0  0  0999 V2000
    2.3069   -1.0269    1.8060 O   0  0  0  0  0  0  0  0  0  0  0  0
    1.4287   -1.3739    1.5336 H   0  0  0  0  0  0  0  0  0  0  0  0
    2.9989   -1.7241   -0.8064 O   0  0  0  0  0  1  0  0  0  0  0  0
    3.2658   -2.0546    1.5677 C   0  0  0  0  0  0  0  0  0  0  0  0
    2.7829   -3.0569    1.5822 H   0  0  0  0  0  0  0  0  0  0  0  0
    3.9499   -1.8319    0.2151 C   0  0  0  0  0  0  0  0  0  0  0  0
    4.5391   -0.8818    0.2550 H   0  0  0  0  0  0  0  0  0  0  0  0
    4.6493   -2.6718   -0.0053 H   0  0  0  0  0  0  0  0  0  0  0  0
    4.0246   -2.0334    2.3802 H   0  0  0  0  0  0  0  0  0  0  0  0
  2  1  1  0  0  0  0
  3  6  1  0  0  0  0
  4  5  1  0  0  0  0
  4  1  1  0  0  0  0
  4  9  1  0  0  0  0
  6  7  1  0  0  0  0
  6  4  1  0  0  0  0
  8  6  1  0  0  0  0
M  END
