5
q = -1.0, confidence = 0.022

  5  4  0  0  0  0  0  0  0  0999 V2000
   -3.4353   -0.6880    1.0747 O   0  0  0  0  0  0  0  0  0  0  0  0
   -4.0666   -0.5617   -0.4655 N   0  0  0  0  0  0  0  0  0  0  0  0
   -4.7871   -1.4662   -0.7593 O   0  0  0  0  0  0  0  0  0  0  0  0
   -3.6863    0.4334   -1.0378 O   0  0  0  0  0  0  0  0  0  0  0  0
   -2.8756    0.5111    1.4227 O   0  0  0  0  0  0  0  0  0  0  0  0
  1  5  1  0  0  0  0
  2  1  1  0  0  0  0
  3  2  2  0  0  0  0
  4  2  2  0  0  0  0
M  END
