1
q = -1.0

 14 13  0  0  0  0  0  0  0  0999 V2000
    1.4336    0.6661   -1.6430 O   0  5  0  0  0  0  0  0  0  0  0  0
    2.5147    1.2769   -1.3062 C   0  0  0  0  0  0  0  0  0  0  0  0
    3.0908    1.3447   -0.0151 C   0  0  0  0  0  0  0  0  0  0  0  0
    4.0248    1.9174    0.0658 H   0  0  0  0  0  0  0  0  0  0  0  0
    2.6532    0.6872    1.1631 C   0  0  0  0  0  0  0  0  0  0  0  0
    1.6010   -0.0346    1.2628 O   0  0  0  0  0  0  0  0  0  0  0  0
    3.2069    1.9704   -2.4583 C   0  0  0  0  0  0  0  0  0  0  0  0
    3.4368    1.2256   -3.2473 H   0  0  0  0  0  0  0  0  0  0  0  0
    4.1386    2.4822   -2.1558 H   0  0  0  0  0  0  0  0  0  0  0  0
    2.5121    2.7066   -2.9123 H   0  0  0  0  0  0  0  0  0  0  0  0
    3.4677    0.8130    2.4315 C   0  0  0  0  0  0  0  0  0  0  0  0
    4.3936    1.4010    2.2953 H   0  0  0  0  0  0  0  0  0  0  0  0
    3.7251   -0.2005    2.8010 H   0  0  0  0  0  0  0  0  0  0  0  0
    2.8471    1.2881    3.2196 H   0  0  0  0  0  0  0  0  0  0  0  0
  1  2  1  0  0  0  0
  2  3  2  0  0  0  0
  3  4  1  0  0  0  0
  3  5  1  0  0  0  0
  5  6  2  0  0  0  0
  5 11  1  0  0  0  0
  7  9  1  0  0  0  0
  7  2  1  0  0  0  0
  8  7  1  0  0  0  0
 10  7  1  0  0  0  0
 11 13  1  0  0  0  0
 11 14  1  0  0  0  0
 12 11  1  0  0  0  0
M  CHG  1   1  -1
M  END
