1
q = 0.0, confidence = 0.99

 29 30  0  0  1  0  0  0  0  0999 V2000
   -1.8875    0.5573   -0.6490 O   0  0  0  0  0  1  0  0  0  0  0  0
   -3.8769    1.3777    0.1270 N   0  0  2  0  0  0  0  0  0  0  0  0
   -2.5334    1.4069    0.0260 C   0  0  1  0  0  3  0  0  0  0  0  0
   -1.9834    2.5522    0.8412 C   0  0  0  0  0  0  0  0  0  0  0  0
   -3.2200    3.4365    1.0632 C   0  0  0  0  0  0  0  0  0  0  0  0
   -4.3904    2.4386    0.9998 C   0  0  0  0  0  0  0  0  0  0  0  0
   -4.6751    0.2375   -0.3292 C   0  0  0  0  0  0  0  0  0  0  0  0
   -5.2910   -0.5359    0.8502 C   0  0  0  0  0  0  0  0  0  0  0  0
   -6.0297   -1.7782    0.3375 C   0  0  0  0  0  0  0  0  0  0  0  0
   -7.0915   -1.4125   -0.7081 C   0  0  0  0  0  0  0  0  0  0  0  0
   -6.4890   -0.6027   -1.8646 C   0  0  0  0  0  0  0  0  0  0  0  0
   -5.7409    0.6395   -1.3595 C   0  0  0  0  0  0  0  0  0  0  0  0
   -3.1981    3.9954    2.0171 H   0  0  0  0  0  0  0  0  0  0  0  0
   -3.3102    4.1740    0.2401 H   0  0  0  0  0  0  0  0  0  0  0  0
   -3.9419   -0.4270   -0.8329 H   0  0  0  0  0  0  0  0  0  0  0  0
   -4.6286    2.0141    2.0002 H   0  0  0  0  0  0  0  0  0  0  0  0
   -5.3206    2.8759    0.5848 H   0  0  0  0  0  0  0  0  0  0  0  0
   -5.2620    1.1825   -2.2006 H   0  0  0  0  0  0  0  0  0  0  0  0
   -6.4659    1.3416   -0.8890 H   0  0  0  0  0  0  0  0  0  0  0  0
   -7.2772   -0.3037   -2.5863 H   0  0  0  0  0  0  0  0  0  0  0  0
   -5.7767   -1.2455   -2.4285 H   0  0  0  0  0  0  0  0  0  0  0  0
   -7.5846   -2.3275   -1.0973 H   0  0  0  0  0  0  0  0  0  0  0  0
   -7.8915   -0.8103   -0.2204 H   0  0  0  0  0  0  0  0  0  0  0  0
   -5.2852   -2.4765   -0.1046 H   0  0  0  0  0  0  0  0  0  0  0  0
   -6.4888   -2.3199    1.1897 H   0  0  0  0  0  0  0  0  0  0  0  0
   -1.1257    3.0326    0.3342 H   0  0  0  0  0  0  0  0  0  0  0  0
   -1.6030    2.1065    1.7864 H   0  0  0  0  0  0  0  0  0  0  0  0
   -6.0090    0.1227    1.3890 H   0  0  0  0  0  0  0  0  0  0  0  0
   -4.4919   -0.8181    1.5651 H   0  0  0  0  0  0  0  0  0  0  0  0
  2  7  1  1  0  0  0
  2  6  1  0  0  0  0
  3  1  1  1  0  0  0
  3  2  1  0  0  0  0
  3  4  1  0  0  0  0
  4  5  1  0  0  0  0
  4 27  1  0  0  0  0
  5 13  1  0  0  0  0
  6  5  1  0  0  0  0
  6 16  1  0  0  0  0
  7  8  1  0  0  0  0
  8 28  1  0  0  0  0
  8 29  1  0  0  0  0
  9  8  1  0  0  0  0
  9 25  1  0  0  0  0
 10 23  1  0  0  0  0
 10  9  1  0  0  0  0
 11 12  1  0  0  0  0
 11 10  1  0  0  0  0
 12 19  1  0  0  0  0
 12  7  1  0  0  0  0
 14  5  1  0  0  0  0
 15  7  1  0  0  0  0
 17  6  1  0  0  0  0
 18 12  1  0  0  0  0
 20 11  1  0  0  0  0
 21 11  1  0  0  0  0
 22 10  1  0  0  0  0
 24  9  1  0  0  0  0
 26  4  1  0  0  0  0
M  END
