1
q = -1.0

 18 18  0  0  0  0  0  0  0  0999 V2000
    1.7855   -0.7330    0.0623 O   0  5  0  0  0  0  0  0  0  0  0  0
    2.6843   -1.0923    2.1110 O   0  0  0  0  0  0  0  0  0  0  0  0
    7.9036   -1.1326   -1.5846 O   0  0  0  0  0  0  0  0  0  0  0  0
    2.7908   -0.9418    0.8777 C   0  0  0  0  0  0  0  0  0  0  0  0
    4.1330   -0.9992    0.2194 C   0  0  0  0  0  0  0  0  0  0  0  0
    4.3291   -0.6411   -1.1343 C   0  0  0  0  0  0  0  0  0  0  0  0
    3.4757   -0.2994   -1.7361 H   0  0  0  0  0  0  0  0  0  0  0  0
    5.5982   -0.6936   -1.7073 C   0  0  0  0  0  0  0  0  0  0  0  0
    5.7673   -0.4105   -2.7561 H   0  0  0  0  0  0  0  0  0  0  0  0
    6.7094   -1.1106   -0.9388 C   0  0  0  0  0  0  0  0  0  0  0  0
    6.5266   -1.4658    0.4161 C   0  0  0  0  0  0  0  0  0  0  0  0
    7.3742   -1.7876    1.0357 H   0  0  0  0  0  0  0  0  0  0  0  0
    5.2466   -1.4027    0.9792 C   0  0  0  0  0  0  0  0  0  0  0  0
    5.0828   -1.6653    2.0346 H   0  0  0  0  0  0  0  0  0  0  0  0
    9.0565   -1.5275   -0.8636 C   0  0  0  0  0  0  0  0  0  0  0  0
    9.9033   -1.4690   -1.5720 H   0  0  0  0  0  0  0  0  0  0  0  0
    9.2578   -0.8522   -0.0022 H   0  0  0  0  0  0  0  0  0  0  0  0
    8.9720   -2.5712   -0.4861 H   0  0  0  0  0  0  0  0  0  0  0  0
  1  4  1  0  0  0  0
  3 10  1  0  0  0  0
  3 15  1  0  0  0  0
  4  2  2  0  0  0  0
  5  4  1  0  0  0  0
  5 13  1  0  0  0  0
  6  5  2  0  0  0  0
  7  6  1  0  0  0  0
  8  6  1  0  0  0  0
  8 10  2  0  0  0  0
  9  8  1  0  0  0  0
 10 11  1  0  0  0  0
 11 13  2  0  0  0  0
 11 12  1  0  0  0  0
 13 14  1  0  0  0  0
 15 18  1  0  0  0  0
 15 17  1  0  0  0  0
 16 15  1  0  0  0  0
M  CHG  1   1  -1
M  END
