1
q = 0.0, confidence = 0.99

 15 14  0  0  1  0  0  0  0  0999 V2000
    1.9518   -0.4356   -0.3141 O   0  0  0  0  0  1  0  0  0  0  0  0
    2.9191    0.1057    0.3032 C   0  0  2  0  0  3  0  0  0  0  0  0
    4.1718   -0.2318   -0.0963 N   0  0  0  0  0  0  0  0  0  0  0  0
    2.6753    1.0691    1.4267 C   0  0  0  0  0  0  0  0  0  0  0  0
    4.3496   -1.2174   -1.1569 C   0  0  0  0  0  0  0  0  0  0  0  0
    5.3932    0.3867    0.3871 C   0  0  0  0  0  0  0  0  0  0  0  0
    3.5423    1.2401    2.0869 H   0  0  0  0  0  0  0  0  0  0  0  0
    2.3135    2.0216    0.9831 H   0  0  0  0  0  0  0  0  0  0  0  0
    1.8222    0.6711    2.0113 H   0  0  0  0  0  0  0  0  0  0  0  0
    3.4075   -1.7719   -1.3033 H   0  0  0  0  0  0  0  0  0  0  0  0
    4.6279   -0.7224   -2.1124 H   0  0  0  0  0  0  0  0  0  0  0  0
    5.1602   -1.9192   -0.8736 H   0  0  0  0  0  0  0  0  0  0  0  0
    6.0256   -0.3497    0.9295 H   0  0  0  0  0  0  0  0  0  0  0  0
    5.9812    0.7741   -0.4721 H   0  0  0  0  0  0  0  0  0  0  0  0
    5.1788    1.2341    1.0577 H   0  0  0  0  0  0  0  0  0  0  0  0
  2  1  1  1  0  0  0
  2  4  1  0  0  0  0
  3  2  1  0  0  0  0
  3  6  1  0  0  0  0
  4  9  1  0  0  0  0
  4  7  1  0  0  0  0
  5 12  1  0  0  0  0
  5  3  1  0  0  0  0
  6 13  1  0  0  0  0
  6 15  1  0  0  0  0
  8  4  1  0  0  0  0
 10  5  1  0  0  0  0
 11  5  1  0  0  0  0
 14  6  1  0  0  0  0
M  END
