4
q = -1.0

 34 34  0  0  1  0  0  0  0  0999 V2000
   11.2811   -2.1836    1.6513 O   0  0  0  0  0  0  0  0  0  0  0  0
    9.7866   -0.5033    1.8864 O   0  0  0  0  0  0  0  0  0  0  0  0
    9.1062   -0.1796    1.2060 H   0  0  0  0  0  0  0  0  0  0  0  0
    1.7026    1.2758   -0.1359 O   0  5  0  0  0  0  0  0  0  0  0  0
    2.5229    2.0694    1.8254 O   0  0  0  0  0  0  0  0  0  0  0  0
    8.5850   -0.9017   -0.3007 N   0  0  0  0  0  0  0  0  0  0  0  0
    8.4155   -0.4020   -1.1799 H   0  0  0  0  0  0  0  0  0  0  0  0
   12.2920   -1.4883   -1.1821 C   0  0  0  0  0  0  0  0  0  0  0  0
   12.9933   -0.9341   -1.8374 H   0  0  0  0  0  0  0  0  0  0  0  0
   12.2554   -2.5391   -1.5386 H   0  0  0  0  0  0  0  0  0  0  0  0
   12.7010   -1.5045   -0.1557 H   0  0  0  0  0  0  0  0  0  0  0  0
   10.8986   -0.8503   -1.2417 C   0  0  0  0  0  0  0  0  0  0  0  0
   10.9812    0.2099   -0.9084 H   0  0  0  0  0  0  0  0  0  0  0  0
   10.3757   -0.8668   -2.6864 C   0  0  0  0  0  0  0  0  0  0  0  0
   11.1078   -0.3858   -3.3652 H   0  0  0  0  0  0  0  0  0  0  0  0
    9.4170   -0.3245   -2.8229 H   0  0  0  0  0  0  0  0  0  0  0  0
   10.2280   -1.9098   -3.0379 H   0  0  0  0  0  0  0  0  0  0  0  0
    9.9039   -1.5456   -0.2737 C   0  0  1  0  0  0  0  0  0  0  0  0
    9.8553   -2.6256   -0.5506 H   0  0  0  0  0  0  0  0  0  0  0  0
   10.4085   -1.4735    1.1956 C   0  0  0  0  0  0  0  0  0  0  0  0
    7.4570   -1.7908    0.0062 C   0  0  0  0  0  0  0  0  0  0  0  0
    7.7083   -2.3336    0.9429 H   0  0  0  0  0  0  0  0  0  0  0  0
    7.3099   -2.5688   -0.7805 H   0  0  0  0  0  0  0  0  0  0  0  0
    6.1841   -1.0017    0.2071 C   0  0  0  0  0  0  0  0  0  0  0  0
    6.0441   -0.1707    1.3395 C   0  0  0  0  0  0  0  0  0  0  0  0
    6.8538   -0.1339    2.0858 H   0  0  0  0  0  0  0  0  0  0  0  0
    4.8872    0.5910    1.5241 C   0  0  0  0  0  0  0  0  0  0  0  0
    4.7611    1.2378    2.4042 H   0  0  0  0  0  0  0  0  0  0  0  0
    3.8452    0.5392    0.5752 C   0  0  0  0  0  0  0  0  0  0  0  0
    3.9785   -0.2871   -0.5559 C   0  0  0  0  0  0  0  0  0  0  0  0
    3.1560   -0.3194   -1.2843 H   0  0  0  0  0  0  0  0  0  0  0  0
    5.1406   -1.0491   -0.7362 C   0  0  0  0  0  0  0  0  0  0  0  0
    5.2404   -1.6978   -1.6213 H   0  0  0  0  0  0  0  0  0  0  0  0
    2.6063    1.3592    0.7843 C   0  0  0  0  0  0  0  0  0  0  0  0
  3  2  1  0  0  0  0
  4 34  1  0  0  0  0
  6 18  1  0  0  0  0
  6 21  1  0  0  0  0
  7  6  1  0  0  0  0
  8 11  1  0  0  0  0
  9  8  1  0  0  0  0
 10  8  1  0  0  0  0
 12  8  1  0  0  0  0
 12 13  1  0  0  0  0
 12 18  1  0  0  0  0
 14 12  1  0  0  0  0
 15 14  1  0  0  0  0
 16 14  1  0  0  0  0
 17 14  1  0  0  0  0
 18 19  1  6  0  0  0
 18 20  1  0  0  0  0
 20  1  2  0  0  0  0
 20  2  1  0  0  0  0
 21 24  1  0  0  0  0
 21 22  1  0  0  0  0
 23 21  1  0  0  0  0
 24 25  1  0  0  0  0
 25 27  2  0  0  0  0
 25 26  1  0  0  0  0
 27 28  1  0  0  0  0
 29 34  1  0  0  0  0
 29 27  1  0  0  0  0
 30 29  2  0  0  0  0
 31 30  1  0  0  0  0
 32 30  1  0  0  0  0
 32 24  2  0  0  0  0
 33 32  1  0  0  0  0
 34  5  2  0  0  0  0
M  CHG  1   4  -1
M  END
