2
q = -1.0

 15 15  0  0  0  0  0  0  0  0999 V2000
   -4.1324    4.6922    0.2126 Br  0  0  0  0  0  0  0  0  0  0  0  0
   -1.5125   -0.0319   -0.3165 O   0  5  0  0  0  0  0  0  0  0  0  0
   -2.9146   -1.5490   -1.2370 O   0  0  0  0  0  0  0  0  0  0  0  0
   -5.2941   -0.8995   -1.8410 O   0  0  0  0  0  0  0  0  0  0  0  0
   -4.4378   -1.4254   -1.7056 H   0  0  0  0  0  0  0  0  0  0  0  0
   -2.6457   -0.3687   -0.7981 C   0  0  0  0  0  0  0  0  0  0  0  0
   -3.7193    0.6550   -0.8527 C   0  0  0  0  0  0  0  0  0  0  0  0
   -5.0051    0.3231   -1.3843 C   0  0  0  0  0  0  0  0  0  0  0  0
   -6.0037    1.3256   -1.4224 C   0  0  0  0  0  0  0  0  0  0  0  0
   -6.9887    1.0607   -1.8327 H   0  0  0  0  0  0  0  0  0  0  0  0
   -5.7436    2.6121   -0.9518 C   0  0  0  0  0  0  0  0  0  0  0  0
   -6.5273    3.3826   -0.9866 H   0  0  0  0  0  0  0  0  0  0  0  0
   -4.4720    2.9285   -0.4280 C   0  0  0  0  0  0  0  0  0  0  0  0
   -3.4693    1.9617   -0.3780 C   0  0  0  0  0  0  0  0  0  0  0  0
   -2.4720    2.1859    0.0238 H   0  0  0  0  0  0  0  0  0  0  0  0
  3  6  2  0  0  0  0
  4  5  1  0  0  0  0
  4  8  1  0  0  0  0
  6  2  1  0  0  0  0
  7  6  1  0  0  0  0
  7 14  1  0  0  0  0
  8  7  2  0  0  0  0
  9  8  1  0  0  0  0
  9 11  2  0  0  0  0
 10  9  1  0  0  0  0
 11 13  1  0  0  0  0
 12 11  1  0  0  0  0
 13 14  2  0  0  0  0
 13  1  1  0  0  0  0
 14 15  1  0  0  0  0
M  CHG  1   2  -1
M  END
