5
q = -1.0, confidence = 0.014

 22 22  0  0  0  0  0  0  0  0999 V2000
    9.2674   -1.7139   -0.8504 Cl  0  0  0  0  0  0  0  0  0  0  0  0
    6.4070   -1.1089   -0.4010 N   0  0  0  0  0  0  0  0  0  0  0  0
    6.9048   -1.9259   -0.7681 H   0  0  0  0  0  0  0  0  0  0  0  0
    1.4441   -2.3053    0.7722 O   0  5  0  0  0  0  0  0  0  0  0  0
    1.6810   -1.1392   -1.1196 O   0  0  0  0  0  0  0  0  0  0  0  0
    4.3525   -0.3485    0.2969 O   0  0  0  0  0  0  0  0  0  0  0  0
    2.0488   -2.0446   -0.2951 C   0  0  0  0  0  0  0  0  0  0  0  0
    3.2235   -2.9047   -0.6558 C   0  0  0  0  0  0  0  0  0  0  0  0
    2.9527   -3.9279   -0.9685 H   0  0  0  0  0  0  0  0  0  0  0  0
    4.5378   -2.5807   -0.6007 C   0  0  0  0  0  0  0  0  0  0  0  0
    5.2845   -3.3385   -0.8916 H   0  0  0  0  0  0  0  0  0  0  0  0
    5.0466   -1.2556   -0.1888 C   0  0  0  0  0  0  0  0  0  0  0  0
    7.2306   -0.0082   -0.1601 C   0  0  0  0  0  0  0  0  0  0  0  0
    8.6329   -0.1587   -0.3391 C   0  0  0  0  0  0  0  0  0  0  0  0
    9.5191    0.9014   -0.1211 C   0  0  0  0  0  0  0  0  0  0  0  0
   10.5948    0.7358   -0.2723 H   0  0  0  0  0  0  0  0  0  0  0  0
    9.0236    2.1490    0.2851 C   0  0  0  0  0  0  0  0  0  0  0  0
    9.7202    2.9819    0.4593 H   0  0  0  0  0  0  0  0  0  0  0  0
    7.6421    2.3193    0.4607 C   0  0  0  0  0  0  0  0  0  0  0  0
    7.2418    3.2956    0.7728 H   0  0  0  0  0  0  0  0  0  0  0  0
    6.7524    1.2611    0.2403 C   0  0  0  0  0  0  0  0  0  0  0  0
    5.6719    1.3839    0.3682 H   0  0  0  0  0  0  0  0  0  0  0  0
  1 14  1  0  0  0  0
  2 12  1  0  0  0  0
  2 13  1  0  0  0  0
  3  2  1  0  0  0  0
  5  7  2  0  0  0  0
  7  4  1  0  0  0  0
  8 10  2  0  0  0  0
  8  7  1  0  0  0  0
  9  8  1  0  0  0  0
 10 12  1  0  0  0  0
 11 10  1  0  0  0  0
 12  6  2  0  0  0  0
 13 21  1  0  0  0  0
 14 13  2  0  0  0  0
 14 15  1  0  0  0  0
 15 17  2  0  0  0  0
 16 15  1  0  0  0  0
 17 18  1  0  0  0  0
 17 19  1  0  0  0  0
 19 20  1  0  0  0  0
 21 22  1  0  0  0  0
 21 19  2  0  0  0  0
M  CHG  1   4  -1
M  END
