3
q = -1.0

 48 50  0  0  0  0  0  0  0  0999 V2000
    1.3987    0.5464   -0.0071 P   0  0  0  0  0  0  0  0  0  0  0  0
    1.4302    3.6736   -0.0447 O   0  0  0  0  0  0  0  0  0  0  0  0
   -1.3203   -0.1336    0.6140 O   0  5  0  0  0  0  0  0  0  0  0  0
   -5.7241    2.9140    0.8247 N   0  0  0  0  0  0  0  0  0  0  0  0
   -3.7273   -0.2996    2.7778 N   0  0  0  0  0  0  0  0  0  0  0  0
   -5.6437   -1.5740   -0.4696 N   0  0  0  0  0  0  0  0  0  0  0  0
   -4.2034    1.9033   -2.8089 N   0  0  0  0  0  0  0  0  0  0  0  0
    2.5613    0.9560   -1.3673 C   0  0  0  0  0  0  0  0  0  0  0  0
    2.4753    0.2327   -2.5741 C   0  0  0  0  0  0  0  0  0  0  0  0
    3.3765    0.4980   -3.6169 C   0  0  0  0  0  0  0  0  0  0  0  0
    4.3700    1.4762   -3.4614 C   0  0  0  0  0  0  0  0  0  0  0  0
    4.4592    2.1972   -2.2586 C   0  0  0  0  0  0  0  0  0  0  0  0
    3.5596    1.9431   -1.2145 C   0  0  0  0  0  0  0  0  0  0  0  0
    2.3990    0.6706    1.5303 C   0  0  0  0  0  0  0  0  0  0  0  0
    3.7672    0.3285    1.5715 C   0  0  0  0  0  0  0  0  0  0  0  0
    4.4559    0.3170    2.7946 C   0  0  0  0  0  0  0  0  0  0  0  0
    3.7883    0.6459    3.9854 C   0  0  0  0  0  0  0  0  0  0  0  0
    2.4272    0.9914    3.9487 C   0  0  0  0  0  0  0  0  0  0  0  0
    1.7340    1.0007    2.7304 C   0  0  0  0  0  0  0  0  0  0  0  0
    0.0684    1.7711    0.1894 C   0  0  0  0  0  0  0  0  0  0  0  0
    0.1770    3.1800    0.1197 C   0  0  0  0  0  0  0  0  0  0  0  0
   -0.9794    3.9811    0.2223 C   0  0  0  0  0  0  0  0  0  0  0  0
   -2.2324    3.3708    0.4020 C   0  0  0  0  0  0  0  0  0  0  0  0
   -2.3567    1.9843    0.5155 C   0  0  0  0  0  0  0  0  0  0  0  0
   -1.1904    1.1619    0.4457 C   0  0  0  0  0  0  0  0  0  0  0  0
    1.6020    5.0695   -0.2269 C   0  0  0  0  0  0  0  0  0  0  0  0
   -3.6894    1.2369    0.6156 C   0  0  0  0  0  0  0  0  0  0  0  0
   -3.8559    0.3462   -0.7120 C   0  0  0  0  0  0  0  0  0  0  0  0
   -4.8296    2.1648    0.7382 C   0  0  0  0  0  0  0  0  0  0  0  0
   -3.7040    0.3580    1.8098 C   0  0  0  0  0  0  0  0  0  0  0  0
   -4.8770   -0.6976   -0.5906 C   0  0  0  0  0  0  0  0  0  0  0  0
   -4.0601    1.2062   -1.8802 C   0  0  0  0  0  0  0  0  0  0  0  0
    1.6745   -0.5119   -2.6983 H   0  0  0  0  0  0  0  0  0  0  0  0
    3.2958   -0.0646   -4.5593 H   0  0  0  0  0  0  0  0  0  0  0  0
    5.0774    1.6805   -4.2795 H   0  0  0  0  0  0  0  0  0  0  0  0
    5.2361    2.9669   -2.1327 H   0  0  0  0  0  0  0  0  0  0  0  0
    3.6268    2.5117   -0.2772 H   0  0  0  0  0  0  0  0  0  0  0  0
    4.3012    0.0820    0.6420 H   0  0  0  0  0  0  0  0  0  0  0  0
    5.5247    0.0544    2.8151 H   0  0  0  0  0  0  0  0  0  0  0  0
    4.3310    0.6381    4.9427 H   0  0  0  0  0  0  0  0  0  0  0  0
    1.8988    1.2553    4.8773 H   0  0  0  0  0  0  0  0  0  0  0  0
    0.6657    1.2651    2.7033 H   0  0  0  0  0  0  0  0  0  0  0  0
   -0.9204    5.0732    0.1433 H   0  0  0  0  0  0  0  0  0  0  0  0
   -3.1344    3.9997    0.4468 H   0  0  0  0  0  0  0  0  0  0  0  0
    2.6831    5.2275   -0.3968 H   0  0  0  0  0  0  0  0  0  0  0  0
    1.0376    5.4381   -1.1105 H   0  0  0  0  0  0  0  0  0  0  0  0
    1.2862    5.6429    0.6719 H   0  0  0  0  0  0  0  0  0  0  0  0
   -2.8691   -0.1717   -0.8441 H   0  0  0  0  0  0  0  0  0  0  0  0
  1 20  1  0  0  0  0
  1 14  1  0  0  0  0
  2 21  1  0  0  0  0
  7 32  3  0  0  0  0
  8 13  1  0  0  0  0
  8  1  1  0  0  0  0
  9  8  2  0  0  0  0
 10 11  2  0  0  0  0
 10  9  1  0  0  0  0
 11 12  1  0  0  0  0
 12 36  1  0  0  0  0
 12 13  2  0  0  0  0
 13 37  1  0  0  0  0
 14 15  2  0  0  0  0
 14 19  1  0  0  0  0
 15 16  1  0  0  0  0
 16 39  1  0  0  0  0
 16 17  2  0  0  0  0
 17 40  1  0  0  0  0
 18 17  1  0  0  0  0
 18 41  1  0  0  0  0
 19 18  2  0  0  0  0
 20 25  1  0  0  0  0
 21 20  2  0  0  0  0
 21 22  1  0  0  0  0
 22 23  2  0  0  0  0
 23 44  1  0  0  0  0
 23 24  1  0  0  0  0
 24 27  1  0  0  0  0
 25 24  2  0  0  0  0
 25  3  1  0  0  0  0
 26  2  1  0  0  0  0
 26 47  1  0  0  0  0
 27 29  1  0  0  0  0
 27 30  1  0  0  0  0
 28 31  1  0  0  0  0
 28 27  1  0  0  0  0
 29  4  3  0  0  0  0
 30  5  3  0  0  0  0
 31  6  3  0  0  0  0
 32 28  1  0  0  0  0
 33  9  1  0  0  0  0
 34 10  1  0  0  0  0
 35 11  1  0  0  0  0
 38 15  1  0  0  0  0
 42 19  1  0  0  0  0
 43 22  1  0  0  0  0
 45 26  1  0  0  0  0
 46 26  1  0  0  0  0
 48 28  1  0  0  0  0
M  CHG  1   3  -1
M  END
