1
q = -1.0

  8  7  0  0  0  0  0  0  0  0999 V2000
   -1.3739    0.2179   -1.9438 O   0  5  0  0  0  0  0  0  0  0  0  0
   -1.2839   -1.6416   -0.6685 O   0  0  0  0  0  0  0  0  0  0  0  0
   -4.9610   -2.0795   -0.9887 N   0  0  0  0  0  0  0  0  0  0  0  0
   -1.7292   -0.9661   -1.6190 C   0  0  0  0  0  0  0  0  0  0  0  0
   -2.8610   -1.5854   -2.4926 C   0  0  0  0  0  0  0  0  0  0  0  0
   -3.1355   -0.8941   -3.3127 H   0  0  0  0  0  0  0  0  0  0  0  0
   -2.4820   -2.5290   -2.9374 H   0  0  0  0  0  0  0  0  0  0  0  0
   -4.0318   -1.8824   -1.6756 C   0  0  0  0  0  0  0  0  0  0  0  0
  1  4  1  0  0  0  0
  4  2  2  0  0  0  0
  5  8  1  0  0  0  0
  5  4  1  0  0  0  0
  6  5  1  0  0  0  0
  7  5  1  0  0  0  0
  8  3  3  0  0  0  0
M  CHG  1   1  -1
M  END
