2
q = -1.0

 37 38  0  0  0  0  0  0  0  0999 V2000
    2.0483    0.6312    0.5647 Si  0  0  0  0  0  0  0  0  0  0  0  0
    0.6163   -0.2164    0.7296 O   0  0  0  0  0  1  0  0  0  0  0  0
    2.9253    2.3166   -1.6490 C   0  0  0  0  0  0  0  0  0  0  0  0
    3.9073    1.8264   -1.5595 H   0  0  0  0  0  0  0  0  0  0  0  0
    3.4112   -0.6315    0.1836 C   0  0  0  0  0  0  0  0  0  0  0  0
    5.7426   -1.2532   -0.2831 C   0  0  0  0  0  0  0  0  0  0  0  0
    6.7899   -0.9517   -0.4446 H   0  0  0  0  0  0  0  0  0  0  0  0
    3.0715   -2.0035    0.1328 C   0  0  0  0  0  0  0  0  0  0  0  0
    2.0252   -2.3094    0.2901 H   0  0  0  0  0  0  0  0  0  0  0  0
    1.8630    1.9250   -0.8050 C   0  0  0  0  0  0  0  0  0  0  0  0
    2.3617    1.4802    2.2634 C   0  0  0  0  0  0  0  0  0  0  0  0
    2.3572    0.3791    3.3392 C   0  0  0  0  0  0  0  0  0  0  0  0
    3.1679   -0.3607    3.1723 H   0  0  0  0  0  0  0  0  0  0  0  0
    1.3945   -0.1707    3.3429 H   0  0  0  0  0  0  0  0  0  0  0  0
    2.5051    0.8225    4.3505 H   0  0  0  0  0  0  0  0  0  0  0  0
    4.7653   -0.2782   -0.0260 C   0  0  0  0  0  0  0  0  0  0  0  0
    5.0743    0.7784    0.0161 H   0  0  0  0  0  0  0  0  0  0  0  0
    3.7085    2.2220    2.2625 C   0  0  0  0  0  0  0  0  0  0  0  0
    3.8510    2.7641    3.2254 H   0  0  0  0  0  0  0  0  0  0  0  0
    3.7652    2.9750    1.4476 H   0  0  0  0  0  0  0  0  0  0  0  0
    4.5648    1.5259    2.1490 H   0  0  0  0  0  0  0  0  0  0  0  0
    2.7471    3.3055   -2.6300 C   0  0  0  0  0  0  0  0  0  0  0  0
    3.5887    3.5902   -3.2815 H   0  0  0  0  0  0  0  0  0  0  0  0
    1.2182    2.4757    2.5292 C   0  0  0  0  0  0  0  0  0  0  0  0
    0.2248    1.9830    2.4966 H   0  0  0  0  0  0  0  0  0  0  0  0
    1.2086    3.2977    1.7838 H   0  0  0  0  0  0  0  0  0  0  0  0
    1.3396    2.9369    3.5362 H   0  0  0  0  0  0  0  0  0  0  0  0
    5.3834   -2.6095   -0.3336 C   0  0  0  0  0  0  0  0  0  0  0  0
    6.1472   -3.3768   -0.5376 H   0  0  0  0  0  0  0  0  0  0  0  0
    4.0461   -2.9807   -0.1234 C   0  0  0  0  0  0  0  0  0  0  0  0
    3.7528   -4.0415   -0.1632 H   0  0  0  0  0  0  0  0  0  0  0  0
    1.4941    3.9176   -2.7901 C   0  0  0  0  0  0  0  0  0  0  0  0
    1.3494    4.6874   -3.5648 H   0  0  0  0  0  0  0  0  0  0  0  0
    0.6047    2.5476   -0.9859 C   0  0  0  0  0  0  0  0  0  0  0  0
   -0.2546    2.2439   -0.3634 H   0  0  0  0  0  0  0  0  0  0  0  0
    0.4227    3.5322   -1.9685 C   0  0  0  0  0  0  0  0  0  0  0  0
   -0.5695    3.9918   -2.0990 H   0  0  0  0  0  0  0  0  0  0  0  0
  1  2  1  0  0  0  0
  1 11  1  0  0  0  0
  3  4  1  0  0  0  0
  3 10  1  0  0  0  0
  5  1  1  0  0  0  0
  6 16  1  0  0  0  0
  7  6  1  0  0  0  0
  8  5  1  0  0  0  0
  8  9  1  0  0  0  0
 10  1  1  0  0  0  0
 11 24  1  0  0  0  0
 11 12  1  0  0  0  0
 12 14  1  0  0  0  0
 12 15  1  0  0  0  0
 13 12  1  0  0  0  0
 16 17  1  0  0  0  0
 16  5  2  0  0  0  0
 18 11  1  0  0  0  0
 18 19  1  0  0  0  0
 20 18  1  0  0  0  0
 21 18  1  0  0  0  0
 22  3  2  0  0  0  0
 23 22  1  0  0  0  0
 24 27  1  0  0  0  0
 25 24  1  0  0  0  0
 26 24  1  0  0  0  0
 28  6  2  0  0  0  0
 28 30  1  0  0  0  0
 29 28  1  0  0  0  0
 30  8  2  0  0  0  0
 31 30  1  0  0  0  0
 32 22  1  0  0  0  0
 32 36  2  0  0  0  0
 33 32  1  0  0  0  0
 34 10  2  0  0  0  0
 34 35  1  0  0  0  0
 36 34  1  0  0  0  0
 37 36  1  0  0  0  0
M  END
