1
q = -1.0, confidence = 0.08

 52 56  0  0  0  0  0  0  0  0999 V2000
    0.6779   -0.3510   -0.0744 O   0  5  0  0  0  0  0  0  0  0  0  0
   -0.6116    0.0024   -0.1433 C   0  0  0  0  0  0  0  0  0  0  0  0
   -1.6060   -1.0145   -0.1230 C   0  0  0  0  0  0  0  0  0  0  0  0
   -2.9691   -0.6287   -0.0488 C   0  0  0  0  0  0  0  0  0  0  0  0
   -3.2916    0.7421   -0.0092 C   0  0  0  0  0  0  0  0  0  0  0  0
   -2.3129    1.7537   -0.0663 C   0  0  0  0  0  0  0  0  0  0  0  0
   -0.9449    1.3857   -0.1399 C   0  0  0  0  0  0  0  0  0  0  0  0
   -1.1693   -2.4376   -0.1124 C   0  0  0  0  0  0  0  0  0  0  0  0
   -0.4097   -2.9603   -1.1811 C   0  0  0  0  0  0  0  0  0  0  0  0
    0.0122   -4.2971   -1.1761 C   0  0  0  0  0  0  0  0  0  0  0  0
   -0.3153   -5.1344   -0.0970 C   0  0  0  0  0  0  0  0  0  0  0  0
   -1.0718   -4.6255    0.9708 C   0  0  0  0  0  0  0  0  0  0  0  0
   -1.4964   -3.2896    0.9625 C   0  0  0  0  0  0  0  0  0  0  0  0
   -4.0756   -1.6251   -0.0293 C   0  0  0  0  0  0  0  0  0  0  0  0
   -4.1303   -2.6905   -0.9556 C   0  0  0  0  0  0  0  0  0  0  0  0
   -5.1929   -3.6031   -0.9355 C   0  0  0  0  0  0  0  0  0  0  0  0
   -6.2211   -3.4744    0.0126 C   0  0  0  0  0  0  0  0  0  0  0  0
   -6.1813   -2.4190    0.9368 C   0  0  0  0  0  0  0  0  0  0  0  0
   -5.1205   -1.5020    0.9132 C   0  0  0  0  0  0  0  0  0  0  0  0
   -2.7525    3.1763   -0.0658 C   0  0  0  0  0  0  0  0  0  0  0  0
   -3.7120    3.6193    0.8716 C   0  0  0  0  0  0  0  0  0  0  0  0
   -4.1534    4.9504    0.8764 C   0  0  0  0  0  0  0  0  0  0  0  0
   -3.6481    5.8638   -0.0615 C   0  0  0  0  0  0  0  0  0  0  0  0
   -2.7000    5.4343   -1.0045 C   0  0  0  0  0  0  0  0  0  0  0  0
   -2.2547    4.1061   -1.0059 C   0  0  0  0  0  0  0  0  0  0  0  0
    0.1608    2.3821   -0.1433 C   0  0  0  0  0  0  0  0  0  0  0  0
    0.3180    3.2975    0.9180 C   0  0  0  0  0  0  0  0  0  0  0  0
    1.3758    4.2174    0.9180 C   0  0  0  0  0  0  0  0  0  0  0  0
    2.2920    4.2431   -0.1458 C   0  0  0  0  0  0  0  0  0  0  0  0
    2.1407    3.3425   -1.2128 C   0  0  0  0  0  0  0  0  0  0  0  0
    1.0867    2.4184   -1.2083 C   0  0  0  0  0  0  0  0  0  0  0  0
   -4.3517    1.0341   -0.0022 H   0  0  0  0  0  0  0  0  0  0  0  0
   -0.1637   -2.3042   -2.0296 H   0  0  0  0  0  0  0  0  0  0  0  0
    0.5984   -4.6903   -2.0212 H   0  0  0  0  0  0  0  0  0  0  0  0
    0.0174   -6.1834   -0.0894 H   0  0  0  0  0  0  0  0  0  0  0  0
   -1.3307   -5.2743    1.8212 H   0  0  0  0  0  0  0  0  0  0  0  0
   -2.0885   -2.8922    1.8000 H   0  0  0  0  0  0  0  0  0  0  0  0
   -3.3323   -2.7960   -1.7041 H   0  0  0  0  0  0  0  0  0  0  0  0
   -5.2192   -4.4227   -1.6698 H   0  0  0  0  0  0  0  0  0  0  0  0
   -7.0522   -4.1956    0.0302 H   0  0  0  0  0  0  0  0  0  0  0  0
   -6.9799   -2.3107    1.6866 H   0  0  0  0  0  0  0  0  0  0  0  0
   -5.0842   -0.6847    1.6498 H   0  0  0  0  0  0  0  0  0  0  0  0
   -4.0986    2.9094    1.6188 H   0  0  0  0  0  0  0  0  0  0  0  0
   -4.8941    5.2771    1.6224 H   0  0  0  0  0  0  0  0  0  0  0  0
   -3.9927    6.9091   -0.0587 H   0  0  0  0  0  0  0  0  0  0  0  0
   -2.3037    6.1411   -1.7495 H   0  0  0  0  0  0  0  0  0  0  0  0
   -1.5163    3.7771   -1.7508 H   0  0  0  0  0  0  0  0  0  0  0  0
   -0.3974    3.2775    1.7532 H   0  0  0  0  0  0  0  0  0  0  0  0
    1.4886    4.9179    1.7593 H   0  0  0  0  0  0  0  0  0  0  0  0
    3.1222    4.9655   -0.1441 H   0  0  0  0  0  0  0  0  0  0  0  0
    2.8475    3.3627   -2.0570 H   0  0  0  0  0  0  0  0  0  0  0  0
    0.9613    1.7166   -2.0462 H   0  0  0  0  0  0  0  0  0  0  0  0
  2  7  2  0  0  0  0
  2  3  1  0  0  0  0
  2  1  1  0  0  0  0
  3  8  1  0  0  0  0
  3  4  2  0  0  0  0
  4 14  1  0  0  0  0
  4  5  1  0  0  0  0
  5 32  1  0  0  0  0
  6 20  1  0  0  0  0
  6  5  2  0  0  0  0
  7  6  1  0  0  0  0
  8 13  1  0  0  0  0
  9 10  1  0  0  0  0
  9  8  2  0  0  0  0
 10 11  2  0  0  0  0
 11 35  1  0  0  0  0
 11 12  1  0  0  0  0
 12 36  1  0  0  0  0
 13 12  2  0  0  0  0
 13 37  1  0  0  0  0
 14 19  1  0  0  0  0
 15 16  1  0  0  0  0
 15 14  2  0  0  0  0
 16 17  2  0  0  0  0
 17 40  1  0  0  0  0
 17 18  1  0  0  0  0
 18 41  1  0  0  0  0
 19 18  2  0  0  0  0
 19 42  1  0  0  0  0
 20 21  1  0  0  0  0
 21 22  2  0  0  0  0
 21 43  1  0  0  0  0
 22 44  1  0  0  0  0
 23 45  1  0  0  0  0
 23 22  1  0  0  0  0
 24 23  2  0  0  0  0
 25 24  1  0  0  0  0
 25 20  2  0  0  0  0
 26  7  1  0  0  0  0
 26 27  1  0  0  0  0
 27 28  2  0  0  0  0
 27 48  1  0  0  0  0
 28 49  1  0  0  0  0
 29 50  1  0  0  0  0
 29 28  1  0  0  0  0
 30 31  1  0  0  0  0
 30 29  2  0  0  0  0
 31 26  2  0  0  0  0
 33  9  1  0  0  0  0
 34 10  1  0  0  0  0
 38 15  1  0  0  0  0
 39 16  1  0  0  0  0
 46 24  1  0  0  0  0
 47 25  1  0  0  0  0
 51 30  1  0  0  0  0
 52 31  1  0  0  0  0
M  CHG  1   1  -1
M  END
