2
q = 0.0, confidence = 0.99

 12 12  0  0  1  0  0  0  0  0999 V2000
    5.1733    5.0340   -0.0539 Cl  0  0  0  0  0  0  0  0  0  0  0  0
    1.7165    0.3904   -0.8227 O   0  0  0  0  0  1  0  0  0  0  0  0
    1.1253    2.4644    0.4030 H   0  0  0  0  0  0  0  0  0  0  0  0
    2.0981    2.5123    0.0183 N   0  0  0  0  0  0  0  0  0  0  0  0
    2.4896    1.3826   -0.6912 C   0  0  1  0  0  3  0  0  0  0  0  0
    3.8137    1.4298   -1.2500 C   0  0  0  0  0  0  0  0  0  0  0  0
    4.1426    0.5542   -1.8258 H   0  0  0  0  0  0  0  0  0  0  0  0
    4.6296    2.5281   -1.0631 C   0  0  0  0  0  0  0  0  0  0  0  0
    5.6433    2.5578   -1.4884 H   0  0  0  0  0  0  0  0  0  0  0  0
    4.1606    3.6435   -0.3062 C   0  0  0  0  0  0  0  0  0  0  0  0
    2.8831    3.6016    0.2197 C   0  0  0  0  0  0  0  0  0  0  0  0
    2.4569    4.4235    0.8110 H   0  0  0  0  0  0  0  0  0  0  0  0
  4 11  1  0  0  0  0
  4  3  1  0  0  0  0
  5  2  1  1  0  0  0
  5  4  1  0  0  0  0
  6  8  2  0  0  0  0
  6  5  1  0  0  0  0
  7  6  1  0  0  0  0
  8 10  1  0  0  0  0
  9  8  1  0  0  0  0
 10  1  1  0  0  0  0
 10 11  2  0  0  0  0
 11 12  1  0  0  0  0
M  END
