2
q = -1.0, confidence = 0.078

  3  2  0  0  0  0  0  0  0  0999 V2000
   -3.4087    1.7277   -1.0726 O   0  0  0  0  0  0  0  0  0  0  0  0
   -1.8915    0.8959    0.2025 O   0  0  0  0  0  0  0  0  0  0  0  0
   -2.4278    1.0417   -1.0433 N   0  0  0  0  0  0  0  0  0  0  0  0
  1  3  1  0  0  0  0
  3  2  1  0  0  0  0
M  END
