3
q = -1.0

 17 17  0  0  0  0  0  0  0  0999 V2000
    1.9155   -2.3085   -1.9217 S   0  0  0  0  0  0  0  0  0  0  0  0
    7.0030    0.8647    0.1411 Cl  0  0  0  0  0  0  0  0  0  0  0  0
    0.8946   -1.1615   -2.0980 O   0  0  0  0  0  1  0  0  0  0  0  0
    1.5310   -3.2408   -0.8124 O   0  0  0  0  0  1  0  0  0  0  0  0
    2.2461   -2.9232   -3.2248 O   0  0  0  0  0  1  0  0  0  0  0  0
    5.9350   -1.6730    1.3374 N   0  0  0  0  0  0  0  0  0  0  0  0
    6.8779   -1.2911    1.4432 H   0  0  0  0  0  0  0  0  0  0  0  0
    5.8689   -2.6732    1.5292 H   0  0  0  0  0  0  0  0  0  0  0  0
    3.3928   -1.4237   -1.3599 C   0  0  0  0  0  0  0  0  0  0  0  0
    4.1202   -1.9241   -0.2790 C   0  0  0  0  0  0  0  0  0  0  0  0
    3.7706   -2.8455    0.2113 H   0  0  0  0  0  0  0  0  0  0  0  0
    5.2551   -1.2366    0.2112 C   0  0  0  0  0  0  0  0  0  0  0  0
    5.6159   -0.0366   -0.4535 C   0  0  0  0  0  0  0  0  0  0  0  0
    4.9009    0.4461   -1.5587 C   0  0  0  0  0  0  0  0  0  0  0  0
    5.2315    1.3773   -2.0402 H   0  0  0  0  0  0  0  0  0  0  0  0
    3.7777   -0.2463   -2.0237 C   0  0  0  0  0  0  0  0  0  0  0  0
    3.1889    0.1252   -2.8734 H   0  0  0  0  0  0  0  0  0  0  0  0
  1  9  1  0  0  0  0
  1  4  1  0  0  0  0
  3  1  1  0  0  0  0
  5  1  1  0  0  0  0
  6  7  1  0  0  0  0
  6  8  1  0  0  0  0
  9 10  1  0  0  0  0
 10 12  2  0  0  0  0
 10 11  1  0  0  0  0
 12  6  1  0  0  0  0
 13  2  1  0  0  0  0
 13 12  1  0  0  0  0
 14 13  2  0  0  0  0
 15 14  1  0  0  0  0
 16 14  1  0  0  0  0
 16  9  2  0  0  0  0
 17 16  1  0  0  0  0
M  END
