1
q = -1.0

 55 57  0  0  1  0  0  0  0  0999 V2000
   -1.1610   -0.3862   -0.7318 O   0  0  0  0  0  1  0  0  0  0  0  0
    1.1894    0.2748    0.3941 P   0  0  0  0  0  0  0  0  0  0  0  0
    0.1720   -0.7228   -0.9044 C   0  0  1  0  0  0  0  0  0  0  0  0
    0.4975   -0.4725   -1.9372 H   0  0  0  0  0  0  0  0  0  0  0  0
    0.4660   -2.1906   -0.6587 C   0  0  0  0  0  0  0  0  0  0  0  0
   -0.2895   -2.9400    0.2643 C   0  0  0  0  0  0  0  0  0  0  0  0
   -1.1353   -2.4612    0.7792 H   0  0  0  0  0  0  0  0  0  0  0  0
    0.0262   -4.2816    0.5284 C   0  0  0  0  0  0  0  0  0  0  0  0
   -0.5783   -4.8536    1.2492 H   0  0  0  0  0  0  0  0  0  0  0  0
    1.1145   -4.8896   -0.1172 C   0  0  0  0  0  0  0  0  0  0  0  0
    1.3675   -5.9399    0.0930 H   0  0  0  0  0  0  0  0  0  0  0  0
    1.8755   -4.1496   -1.0371 C   0  0  0  0  0  0  0  0  0  0  0  0
    2.7308   -4.6163   -1.5487 H   0  0  0  0  0  0  0  0  0  0  0  0
    1.5489   -2.8141   -1.3104 C   0  0  0  0  0  0  0  0  0  0  0  0
    2.1524   -2.2386   -2.0287 H   0  0  0  0  0  0  0  0  0  0  0  0
    1.2374    2.0794   -0.0534 C   0  0  0  0  0  0  0  0  0  0  0  0
    0.6154    2.7520   -1.1490 C   0  0  0  0  0  0  0  0  0  0  0  0
    0.6471    4.1615   -1.1912 C   0  0  0  0  0  0  0  0  0  0  0  0
    0.1606    4.6631   -2.0438 H   0  0  0  0  0  0  0  0  0  0  0  0
    1.2785    4.9454   -0.2146 C   0  0  0  0  0  0  0  0  0  0  0  0
    1.9008    4.2690    0.8469 C   0  0  0  0  0  0  0  0  0  0  0  0
    2.4115    4.8492    1.6331 H   0  0  0  0  0  0  0  0  0  0  0  0
    1.8831    2.8683    0.9551 C   0  0  0  0  0  0  0  0  0  0  0  0
   -0.0501    2.0603   -2.3132 C   0  0  0  0  0  0  0  0  0  0  0  0
   -0.5275    2.8032   -2.9792 H   0  0  0  0  0  0  0  0  0  0  0  0
   -0.8271    1.3455   -1.9882 H   0  0  0  0  0  0  0  0  0  0  0  0
    0.6856    1.4995   -2.9265 H   0  0  0  0  0  0  0  0  0  0  0  0
    1.2688    6.4511   -0.2830 C   0  0  0  0  0  0  0  0  0  0  0  0
    0.5137    6.8779    0.4119 H   0  0  0  0  0  0  0  0  0  0  0  0
    1.0215    6.8127   -1.3003 H   0  0  0  0  0  0  0  0  0  0  0  0
    2.2497    6.8789    0.0075 H   0  0  0  0  0  0  0  0  0  0  0  0
    2.5563    2.2405    2.1519 C   0  0  0  0  0  0  0  0  0  0  0  0
    2.8742    3.0139    2.8772 H   0  0  0  0  0  0  0  0  0  0  0  0
    3.4506    1.6496    1.8639 H   0  0  0  0  0  0  0  0  0  0  0  0
    1.8727    1.5329    2.6685 H   0  0  0  0  0  0  0  0  0  0  0  0
    2.9275   -0.3495    0.1622 C   0  0  0  0  0  0  0  0  0  0  0  0
    3.7968    0.0120   -0.9067 C   0  0  0  0  0  0  0  0  0  0  0  0
    5.0905   -0.5417   -0.9581 C   0  0  0  0  0  0  0  0  0  0  0  0
    5.7495   -0.2596   -1.7959 H   0  0  0  0  0  0  0  0  0  0  0  0
    5.5641   -1.4424    0.0098 C   0  0  0  0  0  0  0  0  0  0  0  0
    4.6931   -1.7908    1.0545 C   0  0  0  0  0  0  0  0  0  0  0  0
    5.0337   -2.5028    1.8240 H   0  0  0  0  0  0  0  0  0  0  0  0
    3.3919   -1.2658    1.1538 C   0  0  0  0  0  0  0  0  0  0  0  0
    3.3930    0.9545   -2.0103 C   0  0  0  0  0  0  0  0  0  0  0  0
    2.4082    0.6835   -2.4373 H   0  0  0  0  0  0  0  0  0  0  0  0
    4.1357    0.9402   -2.8308 H   0  0  0  0  0  0  0  0  0  0  0  0
    3.2970    1.9983   -1.6493 H   0  0  0  0  0  0  0  0  0  0  0  0
    6.9661   -1.9927   -0.0549 C   0  0  0  0  0  0  0  0  0  0  0  0
    7.0291   -3.0048    0.3915 H   0  0  0  0  0  0  0  0  0  0  0  0
    7.6734   -1.3448    0.5070 H   0  0  0  0  0  0  0  0  0  0  0  0
    7.3360   -2.0485   -1.0979 H   0  0  0  0  0  0  0  0  0  0  0  0
    2.5278   -1.7215    2.3054 C   0  0  0  0  0  0  0  0  0  0  0  0
    1.6866   -2.3509    1.9508 H   0  0  0  0  0  0  0  0  0  0  0  0
    2.0730   -0.8652    2.8421 H   0  0  0  0  0  0  0  0  0  0  0  0
    3.1195   -2.3196    3.0253 H   0  0  0  0  0  0  0  0  0  0  0  0
  3  4  1  6  0  0  0
  3  1  1  0  0  0  0
  3  5  1  0  0  0  0
  3  2  1  0  0  0  0
  5  6  1  0  0  0  0
  6  8  2  0  0  0  0
  6  7  1  0  0  0  0
  8  9  1  0  0  0  0
 10 11  1  0  0  0  0
 10  8  1  0  0  0  0
 12 10  2  0  0  0  0
 13 12  1  0  0  0  0
 14 12  1  0  0  0  0
 14  5  2  0  0  0  0
 15 14  1  0  0  0  0
 16  2  1  0  0  0  0
 16 23  1  0  0  0  0
 17 16  2  0  0  0  0
 18 17  1  0  0  0  0
 18 20  2  0  0  0  0
 19 18  1  0  0  0  0
 20 21  1  0  0  0  0
 21 23  2  0  0  0  0
 21 22  1  0  0  0  0
 23 32  1  0  0  0  0
 24 26  1  0  0  0  0
 24 17  1  0  0  0  0
 25 24  1  0  0  0  0
 27 24  1  0  0  0  0
 28 20  1  0  0  0  0
 28 31  1  0  0  0  0
 28 29  1  0  0  0  0
 30 28  1  0  0  0  0
 32 35  1  0  0  0  0
 32 33  1  0  0  0  0
 34 32  1  0  0  0  0
 36  2  1  0  0  0  0
 36 43  1  0  0  0  0
 37 36  2  0  0  0  0
 38 37  1  0  0  0  0
 38 40  2  0  0  0  0
 39 38  1  0  0  0  0
 40 41  1  0  0  0  0
 41 43  2  0  0  0  0
 41 42  1  0  0  0  0
 43 52  1  0  0  0  0
 44 47  1  0  0  0  0
 44 37  1  0  0  0  0
 45 44  1  0  0  0  0
 46 44  1  0  0  0  0
 48 40  1  0  0  0  0
 48 49  1  0  0  0  0
 48 50  1  0  0  0  0
 51 48  1  0  0  0  0
 52 54  1  0  0  0  0
 52 55  1  0  0  0  0
 53 52  1  0  0  0  0
M  END
