1
q = -1.0, confidence = 0.012

 13 13  0  0  0  0  0  0  0  0999 V2000
    1.0869    0.9634    0.0622 O   0  5  0  0  0  0  0  0  0  0  0  0
    1.2136   -1.2781    0.0257 O   0  0  0  0  0  0  0  0  0  0  0  0
    6.0732    0.1435   -0.0310 N   0  0  0  0  0  0  0  0  0  0  0  0
    1.7666   -0.1406    0.0349 C   0  0  0  0  0  0  0  0  0  0  0  0
    3.2617   -0.0290    0.0128 C   0  0  0  0  0  0  0  0  0  0  0  0
    3.9067    1.2212    0.0236 C   0  0  0  0  0  0  0  0  0  0  0  0
    3.3142    2.1466    0.0496 H   0  0  0  0  0  0  0  0  0  0  0  0
    5.3100    1.2478    0.0008 C   0  0  0  0  0  0  0  0  0  0  0  0
    5.8461    2.2136    0.0089 H   0  0  0  0  0  0  0  0  0  0  0  0
    4.0546   -1.1906   -0.0205 C   0  0  0  0  0  0  0  0  0  0  0  0
    3.5725   -2.1788   -0.0291 H   0  0  0  0  0  0  0  0  0  0  0  0
    5.4502   -1.0463   -0.0411 C   0  0  0  0  0  0  0  0  0  0  0  0
    6.0997   -1.9393   -0.0671 H   0  0  0  0  0  0  0  0  0  0  0  0
  2  4  2  0  0  0  0
  3  8  1  0  0  0  0
  4  1  1  0  0  0  0
  5  6  1  0  0  0  0
  5  4  1  0  0  0  0
  6  7  1  0  0  0  0
  8  9  1  0  0  0  0
  8  6  2  0  0  0  0
 10  5  2  0  0  0  0
 11 10  1  0  0  0  0
 12  3  2  0  0  0  0
 12 10  1  0  0  0  0
 13 12  1  0  0  0  0
M  CHG  1   1  -1
M  END
