1
q = -1.0

 13 13  0  0  0  0  0  0  0  0999 V2000
   -1.0906    0.9382   -0.0691 O   0  5  0  0  0  0  0  0  0  0  0  0
   -1.2214   -1.3047   -0.0242 O   0  0  0  0  0  0  0  0  0  0  0  0
   -5.2337    1.3623   -0.0013 N   0  0  0  0  0  0  0  0  0  0  0  0
   -1.7737   -0.1654   -0.0370 C   0  0  0  0  0  0  0  0  0  0  0  0
   -3.9039    1.2080   -0.0223 C   0  0  0  0  0  0  0  0  0  0  0  0
   -3.2892    2.1241   -0.0478 H   0  0  0  0  0  0  0  0  0  0  0  0
   -3.2624   -0.0496   -0.0135 C   0  0  0  0  0  0  0  0  0  0  0  0
   -4.0666   -1.2053    0.0194 C   0  0  0  0  0  0  0  0  0  0  0  0
   -3.5823   -2.1931    0.0267 H   0  0  0  0  0  0  0  0  0  0  0  0
   -5.4564   -1.0535    0.0408 C   0  0  0  0  0  0  0  0  0  0  0  0
   -6.1260   -1.9259    0.0660 H   0  0  0  0  0  0  0  0  0  0  0  0
   -5.9870    0.2497    0.0293 C   0  0  0  0  0  0  0  0  0  0  0  0
   -7.0811    0.4014    0.0457 H   0  0  0  0  0  0  0  0  0  0  0  0
  1  4  1  0  0  0  0
  3 12  1  0  0  0  0
  4  2  2  0  0  0  0
  4  7  1  0  0  0  0
  5  7  1  0  0  0  0
  5  3  2  0  0  0  0
  6  5  1  0  0  0  0
  7  8  2  0  0  0  0
  8  9  1  0  0  0  0
  8 10  1  0  0  0  0
 10 11  1  0  0  0  0
 12 10  2  0  0  0  0
 12 13  1  0  0  0  0
M  CHG  1   1  -1
M  END
