1
q = 0.0, confidence = 0.988

 23 23  0  0  1  0  0  0  0  0999 V2000
    1.5818   -1.4034   -0.6969 O   0  0  0  0  0  1  0  0  0  0  0  0
    5.8159    3.5671   -0.1740 O   0  0  0  0  0  0  0  0  0  0  0  0
    3.8434   -1.6543   -0.6302 N   0  0  0  0  0  0  0  0  0  0  0  0
    4.5997   -2.3371   -0.7022 H   0  0  0  0  0  0  0  0  0  0  0  0
    4.2605   -0.3028   -0.5111 C   0  0  0  0  0  0  0  0  0  0  0  0
    3.4121    0.7332   -0.0761 C   0  0  0  0  0  0  0  0  0  0  0  0
    2.3623    0.5450    0.1829 H   0  0  0  0  0  0  0  0  0  0  0  0
    3.9081    2.0384    0.0453 C   0  0  0  0  0  0  0  0  0  0  0  0
    3.2160    2.8154    0.3959 H   0  0  0  0  0  0  0  0  0  0  0  0
    5.2514    2.3326   -0.2629 C   0  0  0  0  0  0  0  0  0  0  0  0
    6.1004    1.2898   -0.6951 C   0  0  0  0  0  0  0  0  0  0  0  0
    7.1476    1.5269   -0.9303 H   0  0  0  0  0  0  0  0  0  0  0  0
    5.6077   -0.0083   -0.8183 C   0  0  0  0  0  0  0  0  0  0  0  0
    6.2806   -0.8117   -1.1601 H   0  0  0  0  0  0  0  0  0  0  0  0
    2.4348   -3.6527   -0.7251 C   0  0  0  0  0  0  0  0  0  0  0  0
    1.8564   -3.9321   -1.6280 H   0  0  0  0  0  0  0  0  0  0  0  0
    3.3926   -4.2061   -0.7104 H   0  0  0  0  0  0  0  0  0  0  0  0
    1.8102   -3.9329    0.1540 H   0  0  0  0  0  0  0  0  0  0  0  0
    2.5838   -2.1558   -0.6874 C   0  0  1  0  0  3  0  0  0  0  0  0
    5.0061    4.6415    0.2669 C   0  0  0  0  0  0  0  0  0  0  0  0
    4.6178    4.4731    1.2963 H   0  0  0  0  0  0  0  0  0  0  0  0
    5.6510    5.5397    0.2675 H   0  0  0  0  0  0  0  0  0  0  0  0
    4.1422    4.8159   -0.4131 H   0  0  0  0  0  0  0  0  0  0  0  0
  2 20  1  0  0  0  0
  3  5  1  0  0  0  0
  4  3  1  0  0  0  0
  5  6  1  0  0  0  0
  6  8  2  0  0  0  0
  6  7  1  0  0  0  0
  8  9  1  0  0  0  0
 10  2  1  0  0  0  0
 10  8  1  0  0  0  0
 11 10  2  0  0  0  0
 12 11  1  0  0  0  0
 13 11  1  0  0  0  0
 13  5  2  0  0  0  0
 14 13  1  0  0  0  0
 15 17  1  0  0  0  0
 15 19  1  0  0  0  0
 15 18  1  0  0  0  0
 16 15  1  0  0  0  0
 19  1  1  1  0  0  0
 19  3  1  0  0  0  0
 20 22  1  0  0  0  0
 20 21  1  0  0  0  0
 23 20  1  0  0  0  0
M  END
