1
q = -1.0

 22 21  0  0  0  0  0  0  0  0999 V2000
   -1.9250    0.3236   -0.6475 O   0  0  0  0  0  1  0  0  0  0  0  0
   -0.6104   -0.7493    1.4614 N   0  0  0  0  0  0  0  0  0  0  0  0
   -0.3151   -1.6178    0.9953 H   0  0  0  0  0  0  0  0  0  0  0  0
   -0.0494   -2.1059    3.5147 C   0  0  0  0  0  0  0  0  0  0  0  0
    0.4685   -2.0458    4.4924 H   0  0  0  0  0  0  0  0  0  0  0  0
    0.4515   -2.9006    2.9254 H   0  0  0  0  0  0  0  0  0  0  0  0
   -1.0941   -2.4214    3.7122 H   0  0  0  0  0  0  0  0  0  0  0  0
    0.0382   -0.7614    2.7979 C   0  0  0  0  0  0  0  0  0  0  0  0
   -0.4342    0.0398    3.4015 H   0  0  0  0  0  0  0  0  0  0  0  0
    1.0939   -0.4746    2.6274 H   0  0  0  0  0  0  0  0  0  0  0  0
   -2.0848   -0.7572    1.5383 C   0  0  0  0  0  0  0  0  0  0  0  0
   -2.3886    0.0767    2.1975 H   0  0  0  0  0  0  0  0  0  0  0  0
   -2.4794   -1.6919    1.9899 H   0  0  0  0  0  0  0  0  0  0  0  0
   -2.6779   -0.5172    0.1294 C   0  0  0  0  0  0  0  0  0  0  0  0
   -4.1066    0.0986    0.3034 C   0  0  0  0  0  0  0  0  0  0  0  0
   -2.8108   -1.9015   -0.5909 C   0  0  0  0  0  0  0  0  0  0  0  0
   -4.0070    1.3588    0.7831 F   0  0  0  0  0  0  0  0  0  0  0  0
   -4.7702    0.1552   -0.8654 F   0  0  0  0  0  0  0  0  0  0  0  0
   -4.8671   -0.6024    1.1836 F   0  0  0  0  0  0  0  0  0  0  0  0
   -3.1194   -1.7854   -1.8893 F   0  0  0  0  0  0  0  0  0  0  0  0
   -3.7114   -2.7225   -0.0125 F   0  0  0  0  0  0  0  0  0  0  0  0
   -1.5989   -2.5680   -0.5352 F   0  0  0  0  0  0  0  0  0  0  0  0
  1 14  1  0  0  0  0
  2 11  1  0  0  0  0
  2  8  1  0  0  0  0
  3  2  1  0  0  0  0
  4  7  1  0  0  0  0
  4  5  1  0  0  0  0
  6  4  1  0  0  0  0
  8  9  1  0  0  0  0
  8  4  1  0  0  0  0
 10  8  1  0  0  0  0
 11 13  1  0  0  0  0
 11 12  1  0  0  0  0
 14 15  1  0  0  0  0
 14 11  1  0  0  0  0
 15 17  1  0  0  0  0
 15 19  1  0  0  0  0
 16 22  1  0  0  0  0
 16 21  1  0  0  0  0
 16 14  1  0  0  0  0
 18 15  1  0  0  0  0
 20 16  1  0  0  0  0
M  END
