1
q = -1.0, confidence = 0.0

 21 22  0  0  0  0  0  0  0  0999 V2000
   -1.7762    0.3019   -0.3945 O   0  5  0  0  0  0  0  0  0  0  0  0
   -2.6240   -0.2306    1.6363 O   0  0  0  0  0  0  0  0  0  0  0  0
   -4.8708   -1.3495    1.8162 O   0  0  0  0  0  0  0  0  0  0  0  0
   -3.9701   -0.9222    2.0357 H   0  0  0  0  0  0  0  0  0  0  0  0
   -2.6841   -0.2109    0.3541 C   0  0  0  0  0  0  0  0  0  0  0  0
   -4.9183   -1.3361    0.4832 C   0  0  0  0  0  0  0  0  0  0  0  0
   -3.8718   -0.7968   -0.3040 C   0  0  0  0  0  0  0  0  0  0  0  0
   -3.9752   -0.8218   -1.7281 C   0  0  0  0  0  0  0  0  0  0  0  0
   -3.1333   -0.4052   -2.2994 H   0  0  0  0  0  0  0  0  0  0  0  0
   -5.0801   -1.3516   -2.3616 C   0  0  0  0  0  0  0  0  0  0  0  0
   -5.1459   -1.3662   -3.4599 H   0  0  0  0  0  0  0  0  0  0  0  0
   -6.1594   -1.8966   -1.5955 C   0  0  0  0  0  0  0  0  0  0  0  0
   -6.0828   -1.8926   -0.1590 C   0  0  0  0  0  0  0  0  0  0  0  0
   -7.1494   -2.4354    0.6074 C   0  0  0  0  0  0  0  0  0  0  0  0
   -7.0628   -2.4201    1.7029 H   0  0  0  0  0  0  0  0  0  0  0  0
   -8.2679   -2.9698   -0.0195 C   0  0  0  0  0  0  0  0  0  0  0  0
   -9.0900   -3.3886    0.5804 H   0  0  0  0  0  0  0  0  0  0  0  0
   -8.3519   -2.9776   -1.4358 C   0  0  0  0  0  0  0  0  0  0  0  0
   -9.2402   -3.4032   -1.9275 H   0  0  0  0  0  0  0  0  0  0  0  0
   -7.3204   -2.4529   -2.2045 C   0  0  0  0  0  0  0  0  0  0  0  0
   -7.3857   -2.4604   -3.3038 H   0  0  0  0  0  0  0  0  0  0  0  0
  1  5  1  0  0  0  0
  3  4  1  0  0  0  0
  5  2  2  0  0  0  0
  6  3  1  0  0  0  0
  7  5  1  0  0  0  0
  7  6  2  0  0  0  0
  8  7  1  0  0  0  0
  9  8  1  0  0  0  0
 10  8  2  0  0  0  0
 10 12  1  0  0  0  0
 11 10  1  0  0  0  0
 12 13  1  0  0  0  0
 13  6  1  0  0  0  0
 13 14  2  0  0  0  0
 14 15  1  0  0  0  0
 16 17  1  0  0  0  0
 16 14  1  0  0  0  0
 18 16  2  0  0  0  0
 19 18  1  0  0  0  0
 20 12  2  0  0  0  0
 20 18  1  0  0  0  0
 21 20  1  0  0  0  0
M  CHG  1   1  -1
M  END
