2
q = -1.0

 28 29  0  0  0  0  0  0  0  0999 V2000
   -8.6452    0.2421    0.1084 N   0  0  0  0  0  0  0  0  0  0  0  0
   -2.2415    0.3314   -0.0220 O   0  5  0  0  0  0  0  0  0  0  0  0
   -2.5741   -1.8735    0.3842 O   0  0  0  0  0  0  0  0  0  0  0  0
  -10.5351    1.8591    0.6867 O   0  0  0  0  0  0  0  0  0  0  0  0
   -9.5967    1.4469    0.5508 H   0  0  0  0  0  0  0  0  0  0  0  0
   -2.9936   -0.6808    0.1753 C   0  0  0  0  0  0  0  0  0  0  0  0
   -4.4760   -0.4501    0.1582 C   0  0  0  0  0  0  0  0  0  0  0  0
   -5.3614   -1.5257    0.3733 C   0  0  0  0  0  0  0  0  0  0  0  0
   -4.9309   -2.5199    0.5616 H   0  0  0  0  0  0  0  0  0  0  0  0
   -6.7431   -1.3237    0.3610 C   0  0  0  0  0  0  0  0  0  0  0  0
   -7.4232   -2.1637    0.5673 H   0  0  0  0  0  0  0  0  0  0  0  0
   -7.2737   -0.0304    0.1267 C   0  0  0  0  0  0  0  0  0  0  0  0
   -6.3806    1.0519   -0.0634 C   0  0  0  0  0  0  0  0  0  0  0  0
   -6.8017    2.0544   -0.2296 H   0  0  0  0  0  0  0  0  0  0  0  0
   -5.0011    0.8408   -0.0579 C   0  0  0  0  0  0  0  0  0  0  0  0
   -4.2977    1.6708   -0.2156 H   0  0  0  0  0  0  0  0  0  0  0  0
   -9.5359   -0.6325   -0.2777 C   0  0  0  0  0  0  0  0  0  0  0  0
   -9.2323   -1.6234   -0.6843 H   0  0  0  0  0  0  0  0  0  0  0  0
  -10.9478   -0.3413   -0.2196 C   0  0  0  0  0  0  0  0  0  0  0  0
  -11.9044   -1.2947   -0.6527 C   0  0  0  0  0  0  0  0  0  0  0  0
  -11.5430   -2.2644   -1.0317 H   0  0  0  0  0  0  0  0  0  0  0  0
  -13.2686   -1.0203   -0.6009 C   0  0  0  0  0  0  0  0  0  0  0  0
  -14.0020   -1.7671   -0.9371 H   0  0  0  0  0  0  0  0  0  0  0  0
  -13.7002    0.2336   -0.1102 C   0  0  0  0  0  0  0  0  0  0  0  0
  -14.7773    0.4581   -0.0663 H   0  0  0  0  0  0  0  0  0  0  0  0
  -12.7870    1.1967    0.3204 C   0  0  0  0  0  0  0  0  0  0  0  0
  -13.1152    2.1743    0.7015 H   0  0  0  0  0  0  0  0  0  0  0  0
  -11.3969    0.9340    0.2767 C   0  0  0  0  0  0  0  0  0  0  0  0
  1 12  1  0  0  0  0
  2  6  1  0  0  0  0
  5  4  1  0  0  0  0
  6  3  2  0  0  0  0
  7  6  1  0  0  0  0
  7  8  1  0  0  0  0
  8  9  1  0  0  0  0
 10  8  2  0  0  0  0
 10 11  1  0  0  0  0
 12 10  1  0  0  0  0
 13 15  1  0  0  0  0
 13 12  2  0  0  0  0
 14 13  1  0  0  0  0
 15  7  2  0  0  0  0
 16 15  1  0  0  0  0
 17 19  1  0  0  0  0
 17  1  2  0  0  0  0
 18 17  1  0  0  0  0
 19 28  1  0  0  0  0
 20 22  1  0  0  0  0
 20 19  2  0  0  0  0
 21 20  1  0  0  0  0
 22 24  2  0  0  0  0
 23 22  1  0  0  0  0
 24 25  1  0  0  0  0
 24 26  1  0  0  0  0
 26 27  1  0  0  0  0
 28 26  2  0  0  0  0
 28  4  1  0  0  0  0
M  CHG  1   2  -1
M  END
