2
q = -1.0

 22 22  0  0  0  0  0  0  0  0999 V2000
    2.1365   -2.1536   -0.2465 P   0  0  2  0  0  0  0  0  0  0  0  0
    1.7663   -0.7296   -0.7551 O   0  0  0  0  0  1  0  0  0  0  0  0
    3.0541   -2.9167   -1.3688 O   0  0  0  0  0  0  0  0  0  0  0  0
    3.7416   -2.3050   -1.7012 H   0  0  0  0  0  0  0  0  0  0  0  0
    0.9333   -3.0690    0.0876 O   0  0  0  0  0  0  0  0  0  0  0  0
    8.8893    0.7729   -0.6401 O   0  0  0  0  0  0  0  0  0  0  0  0
    7.6028    2.5951   -0.2688 O   0  0  0  0  0  0  0  0  0  0  0  0
    8.4500    2.9961   -0.5587 H   0  0  0  0  0  0  0  0  0  0  0  0
    3.2235   -1.9743    1.2235 C   0  0  0  0  0  0  0  0  0  0  0  0
    2.5888   -1.5123    2.0068 H   0  0  0  0  0  0  0  0  0  0  0  0
    3.5044   -2.9921    1.5588 H   0  0  0  0  0  0  0  0  0  0  0  0
    4.4217   -1.1252    0.8962 C   0  0  0  0  0  0  0  0  0  0  0  0
    4.3144    0.2831    0.8661 C   0  0  0  0  0  0  0  0  0  0  0  0
    3.3562    0.7631    1.1188 H   0  0  0  0  0  0  0  0  0  0  0  0
    5.4076    1.0694    0.4877 C   0  0  0  0  0  0  0  0  0  0  0  0
    5.3237    2.1649    0.4710 H   0  0  0  0  0  0  0  0  0  0  0  0
    6.6258    0.4634    0.1151 C   0  0  0  0  0  0  0  0  0  0  0  0
    6.7332   -0.9411    0.1276 C   0  0  0  0  0  0  0  0  0  0  0  0
    7.6914   -1.3941   -0.1668 H   0  0  0  0  0  0  0  0  0  0  0  0
    5.6408   -1.7255    0.5117 C   0  0  0  0  0  0  0  0  0  0  0  0
    5.7292   -2.8233    0.5216 H   0  0  0  0  0  0  0  0  0  0  0  0
    7.8198    1.2526   -0.3008 C   0  0  0  0  0  0  0  0  0  0  0  0
  1  2  1  6  0  0  0
  1  5  2  0  0  0  0
  1  9  1  0  0  0  0
  3  1  1  0  0  0  0
  4  3  1  0  0  0  0
  6 22  2  0  0  0  0
  8  7  1  0  0  0  0
  9 11  1  0  0  0  0
  9 10  1  0  0  0  0
 12  9  1  0  0  0  0
 13 12  1  0  0  0  0
 13 14  1  0  0  0  0
 15 13  2  0  0  0  0
 16 15  1  0  0  0  0
 17 18  2  0  0  0  0
 17 15  1  0  0  0  0
 18 20  1  0  0  0  0
 19 18  1  0  0  0  0
 20 21  1  0  0  0  0
 20 12  2  0  0  0  0
 22  7  1  0  0  0  0
 22 17  1  0  0  0  0
M  END
