1
q = 0.0, confidence = 0.99

 22 23  0  0  0  0  0  0  0  0999 V2000
    1.9561    2.1956   -0.4332 O   0  0  0  0  0  1  0  0  0  0  0  0
   10.8045   -1.8229   -0.5112 O   0  5  0  0  0  0  0  0  0  0  0  0
    3.1447    1.6515   -0.4910 N   0  0  0  0  0  0  0  0  0  0  0  0
    9.6594   -1.2984   -0.5146 N   0  3  0  0  0  0  0  0  0  0  0  0
    8.5134   -2.0623   -0.3283 C   0  0  0  0  0  0  0  0  0  0  0  0
    8.7219   -3.1270   -0.1628 H   0  0  0  0  0  0  0  0  0  0  0  0
    9.4990    0.0685   -0.7028 C   0  0  0  0  0  0  0  0  0  0  0  0
   10.4467    0.6010   -0.8511 H   0  0  0  0  0  0  0  0  0  0  0  0
    7.2476   -1.5032   -0.3409 C   0  0  0  0  0  0  0  0  0  0  0  0
    6.3900   -2.1691   -0.1335 H   0  0  0  0  0  0  0  0  0  0  0  0
    8.2464    0.6579   -0.7072 C   0  0  0  0  0  0  0  0  0  0  0  0
    8.1967    1.7421   -0.8854 H   0  0  0  0  0  0  0  0  0  0  0  0
    7.0685   -0.1087   -0.5329 C   0  0  0  0  0  0  0  0  0  0  0  0
    5.7344    0.5022   -0.5398 C   0  0  0  0  0  0  0  0  0  0  0  0
    4.5777   -0.2287   -0.9082 C   0  0  0  0  0  0  0  0  0  0  0  0
    4.6501   -1.2810   -1.2124 H   0  0  0  0  0  0  0  0  0  0  0  0
    5.5178    1.8538   -0.1734 C   0  0  0  0  0  0  0  0  0  0  0  0
    6.3521    2.4953    0.1426 H   0  0  0  0  0  0  0  0  0  0  0  0
    3.3163    0.3484   -0.8876 C   0  0  0  0  0  3  0  0  0  0  0  0
    2.3936   -0.1795   -1.1726 H   0  0  0  0  0  0  0  0  0  0  0  0
    4.2429    2.3985   -0.1510 C   0  0  0  0  0  0  0  0  0  0  0  0
    4.0144    3.4308    0.1434 H   0  0  0  0  0  0  0  0  0  0  0  0
  3  1  1  0  0  0  0
  3 21  1  0  0  0  0
  4  2  1  0  0  0  0
  4  5  1  0  0  0  0
  5  6  1  0  0  0  0
  7  4  2  0  0  0  0
  8  7  1  0  0  0  0
  9  5  2  0  0  0  0
  9 10  1  0  0  0  0
 11  7  1  0  0  0  0
 11 13  2  0  0  0  0
 12 11  1  0  0  0  0
 13  9  1  0  0  0  0
 14 13  1  0  0  0  0
 14 17  1  0  0  0  0
 15 19  1  0  0  0  0
 15 14  2  0  0  0  0
 16 15  1  0  0  0  0
 17 21  2  0  0  0  0
 17 18  1  0  0  0  0
 19  3  1  0  0  0  0
 20 19  1  0  0  0  0
 21 22  1  0  0  0  0
M  CHG  2   2  -1   4   1
M  END
