1
q = 0.0, confidence = 0.924

 46 49  0  0  1  0  0  0  0  0999 V2000
   -1.4538   -0.4977    1.1722 O   0  5  0  0  0  0  0  0  0  0  0  0
    0.1673    2.0154    0.8078 N   0  0  0  0  0  0  0  0  0  0  0  0
    1.4897   -0.1606    1.7690 O   0  0  0  0  0  0  0  0  0  0  0  0
   -4.1353   -0.2315    0.0164 C   0  0  0  0  0  0  0  0  0  0  0  0
    3.5810   -0.6331    1.0262 N   0  0  0  0  0  2  0  0  0  0  0  0
   -3.2649    2.0634   -0.3252 N   0  0  0  0  0  0  0  0  0  0  0  0
   -3.1304    0.7770    0.1755 N   0  0  0  0  0  0  0  0  0  0  0  0
    0.3782    1.9252    2.1354 O   0  0  0  0  0  0  0  0  0  0  0  0
   -1.9070    4.1666   -0.5451 C   0  0  0  0  0  0  0  0  0  0  0  0
   -1.1939    1.8555    0.4340 C   0  0  0  0  0  0  0  0  0  0  0  0
    4.6760   -0.3348    0.2670 C   0  0  0  0  0  0  0  0  0  0  0  0
    1.1560    1.9262   -0.0772 C   0  0  0  0  0  3  0  0  0  0  0  0
    5.7996   -1.2046    0.2838 C   0  0  0  0  0  0  0  0  0  0  0  0
   -4.0089   -1.1628   -1.0301 C   0  0  0  0  0  0  0  0  0  0  0  0
    2.5453    0.1969    1.0539 C   0  0  0  0  0  0  0  0  0  0  0  0
    3.5636    1.6525   -0.6300 C   0  0  0  0  0  3  0  0  0  0  0  0
   -5.2074   -0.2880    0.9236 C   0  0  0  0  0  0  0  0  0  0  0  0
    6.9213   -0.9106   -0.4798 C   0  0  0  0  0  0  0  0  0  0  0  0
    4.7202    0.8468   -0.5728 C   0  0  0  0  0  0  0  0  0  0  0  0
   -2.0957    2.7403   -0.1557 C   0  0  1  0  0  3  0  0  0  0  0  0
   -4.5320    2.5280   -0.8531 C   0  0  0  0  0  0  0  0  0  0  0  0
    2.4600    1.3717    0.1888 C   0  0  1  0  0  3  0  0  0  0  0  0
    6.9711    0.2522   -1.3001 C   0  0  0  0  0  0  0  0  0  0  0  0
   -4.9847   -2.1598   -1.1683 C   0  0  0  0  0  0  0  0  0  0  0  0
   -6.0688   -2.2171   -0.2773 C   0  0  0  0  0  0  0  0  0  0  0  0
   -6.1809   -1.2839    0.7665 C   0  0  0  0  0  0  0  0  0  0  0  0
   -1.8486    0.5920    0.6604 C   0  0  0  0  0  0  0  0  0  0  0  0
    5.8895    1.1142   -1.3487 C   0  0  0  0  0  0  0  0  0  0  0  0
    3.5276    2.4982   -1.3350 H   0  0  0  0  0  0  0  0  0  0  0  0
    5.7600   -2.0948    0.9277 H   0  0  0  0  0  0  0  0  0  0  0  0
   -5.2923    2.6257   -0.0523 H   0  0  0  0  0  0  0  0  0  0  0  0
   -4.9060    1.8237   -1.6211 H   0  0  0  0  0  0  0  0  0  0  0  0
   -0.8908    4.4985   -0.2647 H   0  0  0  0  0  0  0  0  0  0  0  0
   -2.6307    4.8279   -0.0273 H   0  0  0  0  0  0  0  0  0  0  0  0
    7.7906   -1.5846   -0.4487 H   0  0  0  0  0  0  0  0  0  0  0  0
   -4.3675    3.5142   -1.3203 H   0  0  0  0  0  0  0  0  0  0  0  0
    0.8585    2.1324   -1.1171 H   0  0  0  0  0  0  0  0  0  0  0  0
   -5.2639    0.4350    1.7506 H   0  0  0  0  0  0  0  0  0  0  0  0
   -7.0245   -1.3384    1.4700 H   0  0  0  0  0  0  0  0  0  0  0  0
   -4.8925   -2.8978   -1.9784 H   0  0  0  0  0  0  0  0  0  0  0  0
   -2.0283    4.3157   -1.6375 H   0  0  0  0  0  0  0  0  0  0  0  0
    7.8724    0.4602   -1.8946 H   0  0  0  0  0  0  0  0  0  0  0  0
   -3.1563   -1.1153   -1.7236 H   0  0  0  0  0  0  0  0  0  0  0  0
    0.8864    0.9642    2.2056 H   0  0  0  0  0  0  0  0  0  0  0  0
    5.9129    2.0132   -1.9833 H   0  0  0  0  0  0  0  0  0  0  0  0
   -6.8311   -3.0018   -0.3930 H   0  0  0  0  0  0  0  0  0  0  0  0
  2  8  1  0  0  0  0
  4  7  1  0  0  0  0
  4 17  1  0  0  0  0
  5 15  1  0  0  0  0
  6 20  1  0  0  0  0
  6  7  1  0  0  0  0
  7 27  1  0  0  0  0
  8 44  1  0  0  0  0
  9 33  1  0  0  0  0
  9 34  1  0  0  0  0
 10 27  2  0  0  0  0
 10  2  1  0  0  0  0
 11 13  1  0  0  0  0
 11  5  1  0  0  0  0
 12  2  1  0  0  0  0
 13 30  1  0  0  0  0
 14  4  2  0  0  0  0
 15  3  2  0  0  0  0
 16 19  1  0  0  0  0
 16 22  1  0  0  0  0
 17 38  1  0  0  0  0
 18 35  1  0  0  0  0
 18 13  2  0  0  0  0
 19 11  2  0  0  0  0
 20  9  1  1  0  0  0
 20 10  1  0  0  0  0
 21  6  1  0  0  0  0
 21 31  1  0  0  0  0
 22 12  1  6  0  0  0
 22 15  1  0  0  0  0
 23 18  1  0  0  0  0
 24 14  1  0  0  0  0
 24 25  2  0  0  0  0
 25 26  1  0  0  0  0
 26 17  2  0  0  0  0
 26 39  1  0  0  0  0
 27  1  1  0  0  0  0
 28 23  2  0  0  0  0
 28 19  1  0  0  0  0
 29 16  1  0  0  0  0
 32 21  1  0  0  0  0
 36 21  1  0  0  0  0
 37 12  1  0  0  0  0
 40 24  1  0  0  0  0
 41  9  1  0  0  0  0
 42 23  1  0  0  0  0
 43 14  1  0  0  0  0
 45 28  1  0  0  0  0
 46 25  1  0  0  0  0
M  CHG  1   1  -1
M  END
