1
q = -1.0, confidence = 0.026

 13 13  0  0  0  0  0  0  0  0999 V2000
    0.6748    1.4989    0.4944 O   0  0  0  0  0  1  0  0  0  0  0  0
    1.9886    1.0060    0.6572 O   0  0  0  0  0  0  0  0  0  0  0  0
    4.4744   -0.3772   -0.4278 O   0  0  0  0  0  0  0  0  0  0  0  0
    2.7430    1.3541   -0.5138 C   0  0  0  0  0  0  0  0  0  0  0  0
    2.6952    2.4534   -0.6733 H   0  0  0  0  0  0  0  0  0  0  0  0
    2.3147    0.8523   -1.4098 H   0  0  0  0  0  0  0  0  0  0  0  0
    4.1551    0.9534   -0.2896 C   0  0  0  0  0  0  0  0  0  0  0  0
    5.2780    1.6504    0.1027 C   0  0  0  0  0  0  0  0  0  0  0  0
    5.3240    2.7269    0.3000 H   0  0  0  0  0  0  0  0  0  0  0  0
    6.3454    0.6977    0.2024 C   0  0  0  0  0  0  0  0  0  0  0  0
    7.3869    0.8882    0.4838 H   0  0  0  0  0  0  0  0  0  0  0  0
    5.7967   -0.5185   -0.1292 C   0  0  0  0  0  0  0  0  0  0  0  0
    6.1985   -1.5341   -0.2035 H   0  0  0  0  0  0  0  0  0  0  0  0
  1  2  1  0  0  0  0
  3  7  1  0  0  0  0
  3 12  1  0  0  0  0
  4  7  1  0  0  0  0
  4  2  1  0  0  0  0
  5  4  1  0  0  0  0
  6  4  1  0  0  0  0
  7  8  2  0  0  0  0
  8 10  1  0  0  0  0
  8  9  1  0  0  0  0
 10 11  1  0  0  0  0
 12 10  2  0  0  0  0
 13 12  1  0  0  0  0
M  END
