12
q = -1.0

 18 18  0  0  0  0  0  0  0  0999 V2000
   -4.6971    0.3310   -0.4225 C   0  0  0  0  0  0  0  0  0  0  0  0
   -5.7486   -0.1948    0.3709 C   0  0  0  0  0  0  0  0  0  0  0  0
   -6.6053    0.6625    0.9450 F   0  0  0  0  0  0  0  0  0  0  0  0
   -5.8946   -1.5674    0.5707 C   0  0  0  0  0  0  0  0  0  0  0  0
   -4.9880   -2.4647   -0.0227 C   0  0  0  0  0  0  0  0  0  0  0  0
   -3.9515   -1.9674   -0.8247 C   0  0  0  0  0  0  0  0  0  0  0  0
   -3.8100   -0.5806   -1.0315 C   0  0  0  0  0  0  0  0  0  0  0  0
   -4.6363    1.6841   -0.5199 O   0  0  0  0  0  0  0  0  0  0  0  0
   -3.4665    2.2469   -1.1045 C   0  0  0  0  0  0  0  0  0  0  0  0
   -2.1957    1.8474   -0.3269 C   0  0  0  0  0  0  0  0  0  0  0  0
   -2.2131    1.9943    0.9326 O   0  5  0  0  0  0  0  0  0  0  0  0
   -1.2489    1.3339   -1.0046 O   0  0  0  0  0  0  0  0  0  0  0  0
   -6.7232   -1.9144    1.2049 H   0  0  0  0  0  0  0  0  0  0  0  0
   -5.0998   -3.5459    0.1429 H   0  0  0  0  0  0  0  0  0  0  0  0
   -3.2300   -2.6470   -1.3030 H   0  0  0  0  0  0  0  0  0  0  0  0
   -2.9798   -0.2135   -1.6482 H   0  0  0  0  0  0  0  0  0  0  0  0
   -3.3591    1.9531   -2.1706 H   0  0  0  0  0  0  0  0  0  0  0  0
   -3.6080    3.3436   -1.0432 H   0  0  0  0  0  0  0  0  0  0  0  0
  1  2  1  0  0  0  0
  2  4  2  0  0  0  0
  2  3  1  0  0  0  0
  4 13  1  0  0  0  0
  5 14  1  0  0  0  0
  5  4  1  0  0  0  0
  6  5  2  0  0  0  0
  7  6  1  0  0  0  0
  7  1  2  0  0  0  0
  8  1  1  0  0  0  0
  9 18  1  0  0  0  0
  9  8  1  0  0  0  0
  9 10  1  0  0  0  0
 10 11  1  0  0  0  0
 12 10  2  0  0  0  0
 15  6  1  0  0  0  0
 16  7  1  0  0  0  0
 17  9  1  0  0  0  0
M  CHG  1  11  -1
M  END
