1
q = -1.0

 33 34  0  0  1  0  0  0  0  0999 V2000
    0.4752    0.9905    0.0719 O   0  0  0  0  0  1  0  0  0  0  0  0
   -3.3333    0.7149   -0.2563 O   0  0  0  0  0  0  0  0  0  0  0  0
    7.1786   -1.8554    0.0533 O   0  0  0  0  0  0  0  0  0  0  0  0
    7.3420    0.2708    0.5364 O   0  0  0  0  0  0  0  0  0  0  0  0
   -2.4089    1.1332    1.7309 O   0  0  0  0  0  0  0  0  0  0  0  0
   -2.2083    1.8319    2.3835 H   0  0  0  0  0  0  0  0  0  0  0  0
    0.2523   -1.2474   -0.4544 N   0  0  0  0  0  2  0  0  0  0  0  0
   -1.0669   -0.8787   -0.4692 N   0  0  0  0  0  0  0  0  0  0  0  0
    6.6988   -0.7397    0.2533 N   0  0  0  0  0  0  0  0  0  0  0  0
    2.4613   -0.3468   -0.0537 C   0  0  0  0  0  0  0  0  0  0  0  0
    3.2551    0.7773    0.2641 C   0  0  0  0  0  0  0  0  0  0  0  0
    2.7575    1.7436    0.4260 H   0  0  0  0  0  0  0  0  0  0  0  0
    4.6435    0.6541    0.3652 C   0  0  0  0  0  0  0  0  0  0  0  0
    5.2931    1.5049    0.6093 H   0  0  0  0  0  0  0  0  0  0  0  0
    5.2243   -0.6021    0.1450 C   0  0  0  0  0  0  0  0  0  0  0  0
    4.4596   -1.7345   -0.1736 C   0  0  0  0  0  0  0  0  0  0  0  0
    4.9711   -2.6922   -0.3362 H   0  0  0  0  0  0  0  0  0  0  0  0
    3.0731   -1.6027   -0.2715 C   0  0  0  0  0  0  0  0  0  0  0  0
    2.4366   -2.4638   -0.5172 H   0  0  0  0  0  0  0  0  0  0  0  0
    0.9952   -0.1902   -0.1576 C   0  0  2  0  0  3  0  0  0  0  0  0
   -1.9569   -1.8458   -0.4864 C   0  0  0  0  0  0  0  0  0  0  0  0
   -1.5581   -2.8724   -0.5908 H   0  0  0  0  0  0  0  0  0  0  0  0
   -3.3699   -1.6977   -0.2191 C   0  0  0  0  0  0  0  0  0  0  0  0
   -4.0037   -0.4531    0.0416 C   0  0  0  0  0  0  0  0  0  0  0  0
   -5.3269   -0.3797    0.4900 C   0  0  0  0  0  0  0  0  0  0  0  0
   -5.7629    0.6101    0.6842 H   0  0  0  0  0  0  0  0  0  0  0  0
   -6.0650   -1.5599    0.6495 C   0  0  0  0  0  0  0  0  0  0  0  0
   -7.1089   -1.5038    0.9922 H   0  0  0  0  0  0  0  0  0  0  0  0
   -5.4834   -2.8080    0.3538 C   0  0  0  0  0  0  0  0  0  0  0  0
   -6.0692   -3.7316    0.4674 H   0  0  0  0  0  0  0  0  0  0  0  0
   -4.1568   -2.8724   -0.0731 C   0  0  0  0  0  0  0  0  0  0  0  0
   -3.6868   -3.8466   -0.2781 H   0  0  0  0  0  0  0  0  0  0  0  0
   -2.9756    1.8303    0.6196 C   0  0  0  0  0  2  0  0  0  0  0  0
  2 24  1  0  0  0  0
  2 33  1  0  0  0  0
  3  9  2  0  0  0  0
  5  6  1  0  0  0  0
  7 20  1  0  0  0  0
  8  7  1  0  0  0  0
  9  4  2  0  0  0  0
 10 11  1  0  0  0  0
 11 13  2  0  0  0  0
 11 12  1  0  0  0  0
 13 14  1  0  0  0  0
 15  9  1  0  0  0  0
 15 13  1  0  0  0  0
 16 15  2  0  0  0  0
 17 16  1  0  0  0  0
 18 16  1  0  0  0  0
 18 10  2  0  0  0  0
 19 18  1  0  0  0  0
 20 10  1  0  0  0  0
 20  1  1  1  0  0  0
 21  8  2  0  0  0  0
 21 23  1  0  0  0  0
 22 21  1  0  0  0  0
 23 31  2  0  0  0  0
 23 24  1  0  0  0  0
 24 25  2  0  0  0  0
 25 27  1  0  0  0  0
 25 26  1  0  0  0  0
 27 28  1  0  0  0  0
 29 30  1  0  0  0  0
 29 27  2  0  0  0  0
 31 29  1  0  0  0  0
 32 31  1  0  0  0  0
 33  5  1  0  0  0  0
M  END
