2
q = -1.0

  6  5  0  0  0  0  0  0  0  0999 V2000
    2.8265    1.2672   -0.1241 S   0  0  0  0  0  0  0  0  0  0  0  0
    2.4481    0.0362    0.8329 O   0  0  0  0  0  1  0  0  0  0  0  0
    1.6226    2.1527   -0.2500 O   0  0  0  0  0  1  0  0  0  0  0  0
    3.0911    0.5312   -1.5415 O   0  0  0  0  0  0  0  0  0  0  0  0
    4.0715    1.8849    0.3321 O   0  0  0  0  0  1  0  0  0  0  0  0
    2.6900   -0.4297   -1.4746 H   0  0  0  0  0  0  0  0  0  0  0  0
  1  5  1  0  0  0  0
  1  2  1  0  0  0  0
  3  1  1  0  0  0  0
  4  6  1  0  0  0  0
  4  1  1  0  0  0  0
M  END
