2
q = -1

 11 10  0  0  0  0  0  0  0  0999 V2000
   -3.1510    0.4410    0.2191 P   0  0  0  0  0  0  0  0  0  0  0  0
   -2.1739   -0.7381    0.6649 O   0  0  0  0  0  1  0  0  0  0  0  0
   -3.2686    0.6210   -1.3079 O   0  0  0  0  0  0  0  0  0  0  0  0
   -2.5786    1.9600    1.0406 C   0  0  0  0  0  0  0  0  0  0  0  0
   -3.2865    2.7893    0.8474 H   0  0  0  0  0  0  0  0  0  0  0  0
   -1.5934    2.2360    0.6159 H   0  0  0  0  0  0  0  0  0  0  0  0
   -2.4764    1.7930    2.1303 H   0  0  0  0  0  0  0  0  0  0  0  0
   -4.7530   -0.0050    0.9595 C   0  0  0  0  0  0  0  0  0  0  0  0
   -5.5005    0.7801    0.7339 H   0  0  0  0  0  0  0  0  0  0  0  0
   -4.6617   -0.1356    2.0549 H   0  0  0  0  0  0  0  0  0  0  0  0
   -5.0847   -0.9571    0.5018 H   0  0  0  0  0  0  0  0  0  0  0  0
  1  2  1  0  0  0  0
  1  8  1  0  0  0  0
  1  4  1  0  0  0  0
  3  1  2  0  0  0  0
  4  7  1  0  0  0  0
  5  4  1  0  0  0  0
  6  4  1  0  0  0  0
  8 10  1  0  0  0  0
  9  8  1  0  0  0  0
 11  8  1  0  0  0  0
M  END
