23
q = -1.0, confidence = 0.004

 26 28  0  0  1  0  0  0  0  0999 V2000
    4.2673   -0.8568    0.8601 C   0  0  1  0  0  0  0  0  0  0  0  0
    3.9629    1.3708    0.3825 C   0  0  0  0  0  0  0  0  0  0  0  0
    3.7331    2.7496    0.4261 C   0  0  0  0  0  0  0  0  0  0  0  0
    3.6269    3.4422   -0.8025 C   0  0  0  0  0  0  0  0  0  0  0  0
    3.7437    2.7665   -2.0275 C   0  0  0  0  0  0  0  0  0  0  0  0
    3.9446    1.3689   -2.0656 C   0  0  0  0  0  0  0  0  0  0  0  0
    4.0385    0.6900   -0.8529 C   0  0  0  0  0  0  0  0  0  0  0  0
    3.2564    0.6139    2.6198 C   0  0  0  0  0  0  0  0  0  0  0  0
    1.7628    0.5865    2.2221 C   0  0  0  0  0  0  0  0  0  0  0  0
    5.1294   -1.5184   -1.2421 C   0  0  0  0  0  0  0  0  0  0  0  0
    6.1558   -1.7906   -0.1323 C   0  0  0  0  0  0  0  0  0  0  0  0
    3.5860   -1.6088    1.3062 H   0  0  0  0  0  0  0  0  0  0  0  0
    3.6433    3.2823    1.3832 H   0  0  0  0  0  0  0  0  0  0  0  0
    3.4517    4.5280   -0.7925 H   0  0  0  0  0  0  0  0  0  0  0  0
    3.6584    3.3251   -2.9707 H   0  0  0  0  0  0  0  0  0  0  0  0
    3.9734    0.8275   -3.0218 H   0  0  0  0  0  0  0  0  0  0  0  0
    3.5026    1.5677    3.1234 H   0  0  0  0  0  0  0  0  0  0  0  0
    5.6111   -0.9908   -2.0876 H   0  0  0  0  0  0  0  0  0  0  0  0
    3.4798   -0.2017    3.3358 H   0  0  0  0  0  0  0  0  0  0  0  0
    4.7372   -2.4869   -1.6207 H   0  0  0  0  0  0  0  0  0  0  0  0
    4.0791    0.4431    1.4286 N   0  0  0  0  0  0  0  0  0  0  0  0
    4.1008   -0.7057   -0.6007 N   0  0  0  0  0  0  0  0  0  0  0  0
    1.4817   -0.3253    1.3764 O   0  5  0  0  0  0  0  0  0  0  0  0
    0.9742    1.4692    2.6631 O   0  0  0  0  0  0  0  0  0  0  0  0
    7.2387   -2.3073   -0.2429 O   0  0  0  0  0  0  0  0  0  0  0  0
    5.6320   -1.3600    1.0494 O   0  0  0  0  0  0  0  0  0  0  0  0
  1 26  1  0  0  0  0
  1 12  1  1  0  0  0
  1 21  1  0  0  0  0
  2  3  1  0  0  0  0
  2 21  1  0  0  0  0
  3 13  1  0  0  0  0
  4 14  1  0  0  0  0
  4  3  2  0  0  0  0
  5  4  1  0  0  0  0
  6  5  2  0  0  0  0
  6  7  1  0  0  0  0
  7 22  1  0  0  0  0
  7  2  2  0  0  0  0
  8 17  1  0  0  0  0
  8 19  1  0  0  0  0
  9  8  1  0  0  0  0
  9 24  2  0  0  0  0
 10 22  1  0  0  0  0
 10 11  1  0  0  0  0
 11 26  1  0  0  0  0
 15  5  1  0  0  0  0
 16  6  1  0  0  0  0
 18 10  1  0  0  0  0
 20 10  1  0  0  0  0
 21  8  1  0  0  0  0
 22  1  1  0  0  0  0
 23  9  1  0  0  0  0
 25 11  2  0  0  0  0
M  CHG  1  23  -1
M  END
