1
q = -1.0, confidence = 0.0

 17 17  0  0  0  0  0  0  0  0999 V2000
   -1.2768   -0.0236   -0.2547 O   0  5  0  0  0  0  0  0  0  0  0  0
   -1.7495    2.1574   -0.7051 O   0  0  0  0  0  0  0  0  0  0  0  0
   -2.0787    0.9939   -0.4408 C   0  0  0  0  0  0  0  0  0  0  0  0
   -3.5391    0.6175   -0.2986 C   0  0  0  0  0  0  0  0  0  0  0  0
   -3.9432   -0.7152   -0.0840 C   0  0  0  0  0  0  0  0  0  0  0  0
   -5.3025   -1.0239    0.0499 C   0  0  0  0  0  0  0  0  0  0  0  0
   -6.2650   -0.0012   -0.0269 C   0  0  0  0  0  0  0  0  0  0  0  0
   -7.7250   -0.3236    0.1833 C   0  0  0  0  0  0  0  0  0  0  0  0
   -8.0286   -1.5822   -0.2153 F   0  0  0  0  0  0  0  0  0  0  0  0
   -8.5337    0.5265   -0.4949 F   0  0  0  0  0  0  0  0  0  0  0  0
   -8.0672   -0.2312    1.4951 F   0  0  0  0  0  0  0  0  0  0  0  0
   -5.8667    1.3301   -0.2493 C   0  0  0  0  0  0  0  0  0  0  0  0
   -4.5085    1.6346   -0.3872 C   0  0  0  0  0  0  0  0  0  0  0  0
   -3.1745   -1.5008   -0.0366 H   0  0  0  0  0  0  0  0  0  0  0  0
   -5.6245   -2.0636    0.2063 H   0  0  0  0  0  0  0  0  0  0  0  0
   -6.6276    2.1206   -0.3219 H   0  0  0  0  0  0  0  0  0  0  0  0
   -4.1620    2.6626   -0.5691 H   0  0  0  0  0  0  0  0  0  0  0  0
  2  3  2  0  0  0  0
  3  4  1  0  0  0  0
  3  1  1  0  0  0  0
  4  5  1  0  0  0  0
  5 14  1  0  0  0  0
  5  6  2  0  0  0  0
  6 15  1  0  0  0  0
  7  6  1  0  0  0  0
  7  8  1  0  0  0  0
  8 11  1  0  0  0  0
  9  8  1  0  0  0  0
 10  8  1  0  0  0  0
 12  7  2  0  0  0  0
 13  4  2  0  0  0  0
 13 12  1  0  0  0  0
 16 12  1  0  0  0  0
 17 13  1  0  0  0  0
M  CHG  1   1  -1
M  END
