2
q = nan, confidence = 0.0

  7  6  0  0  0  0  0  0  0  0999 V2000
   -0.9439    1.7492    1.8042 P   0  0  0  0  0  0  0  0  0  0  0  0
   -0.9086    0.2434    1.2570 O   0  0  0  0  0  1  0  0  0  0  0  0
    0.5663    2.3503    1.4797 O   0  0  0  0  0  0  0  0  0  0  0  0
    0.9198    2.6349    2.3448 H   0  0  0  0  0  0  0  0  0  0  0  0
   -1.8357    2.5670    0.7118 O   0  0  0  0  0  0  0  0  0  0  0  0
   -2.3807    1.9279    0.1788 H   0  0  0  0  0  0  0  0  0  0  0  0
   -1.2882    1.9197    3.2483 O   0  0  0  0  0  0  0  0  0  0  0  0
  1  7  2  0  0  0  0
  2  1  1  0  0  0  0
  3  1  1  0  0  0  0
  3  4  1  0  0  0  0
  5  1  1  0  0  0  0
  6  5  1  0  0  0  0
M  END
