3
q = -1.0

 21 20  0  0  0  0  0  0  0  0999 V2000
    0.9347   -1.1176    0.8453 O   0  0  0  0  0  0  0  0  0  0  0  0
    0.7700   -2.0660    0.6746 H   0  0  0  0  0  0  0  0  0  0  0  0
    0.4155    0.9323   -0.6188 O   0  0  0  0  0  1  0  0  0  0  0  0
    2.1068   -1.4298   -1.2710 C   0  0  0  0  0  0  0  0  0  0  0  0
    1.2330   -1.1826   -1.9031 H   0  0  0  0  0  0  0  0  0  0  0  0
    2.1019   -2.5241   -1.0854 H   0  0  0  0  0  0  0  0  0  0  0  0
    3.0290   -1.1999   -1.8377 H   0  0  0  0  0  0  0  0  0  0  0  0
    2.0783   -0.6778    0.0632 C   0  0  0  0  0  0  0  0  0  0  0  0
    1.7720    0.8516   -0.1231 C   0  0  0  0  0  0  0  0  0  0  0  0
    1.8356    1.6203    1.2020 C   0  0  0  0  0  0  0  0  0  0  0  0
    1.2420    1.1159    1.9887 H   0  0  0  0  0  0  0  0  0  0  0  0
    1.4223    2.6352    1.0453 H   0  0  0  0  0  0  0  0  0  0  0  0
    2.8788    1.7256    1.5563 H   0  0  0  0  0  0  0  0  0  0  0  0
    3.3506   -0.9457    0.8702 C   0  0  0  0  0  0  0  0  0  0  0  0
    3.2609   -0.5486    1.8977 H   0  0  0  0  0  0  0  0  0  0  0  0
    4.2376   -0.4924    0.3852 H   0  0  0  0  0  0  0  0  0  0  0  0
    3.5290   -2.0376    0.9404 H   0  0  0  0  0  0  0  0  0  0  0  0
    2.6510    1.5148   -1.1836 C   0  0  0  0  0  0  0  0  0  0  0  0
    2.4814    1.0698   -2.1812 H   0  0  0  0  0  0  0  0  0  0  0  0
    3.7236    1.4209   -0.9234 H   0  0  0  0  0  0  0  0  0  0  0  0
    2.4035    2.5918   -1.2441 H   0  0  0  0  0  0  0  0  0  0  0  0
  2  1  1  0  0  0  0
  3  9  1  0  0  0  0
  4  6  1  0  0  0  0
  4  8  1  0  0  0  0
  5  4  1  0  0  0  0
  7  4  1  0  0  0  0
  8  1  1  0  0  0  0
  8 14  1  0  0  0  0
  9  8  1  0  0  0  0
  9 10  1  0  0  0  0
 10 13  1  0  0  0  0
 10 11  1  0  0  0  0
 12 10  1  0  0  0  0
 14 17  1  0  0  0  0
 14 15  1  0  0  0  0
 16 14  1  0  0  0  0
 18 20  1  0  0  0  0
 18  9  1  0  0  0  0
 19 18  1  0  0  0  0
 21 18  1  0  0  0  0
M  END
