1
q = -1.0

 11 10  0  0  0  0  0  0  0  0999 V2000
    1.0218    1.3479   -0.4871 O   0  5  0  0  0  0  0  0  0  0  0  0
    0.5264    2.9400    1.0481 O   0  0  0  0  0  0  0  0  0  0  0  0
    1.2315    2.4664    0.1292 C   0  0  0  0  0  0  0  0  0  0  0  0
    2.4844    3.1846   -0.3418 C   0  0  0  0  0  0  0  0  0  0  0  0
    2.8163    4.3433    0.2674 C   0  0  0  0  0  0  0  0  0  0  0  0
    3.2906    2.5504   -1.4407 C   0  0  0  0  0  0  0  0  0  0  0  0
    3.7222    4.9043   -0.0124 H   0  0  0  0  0  0  0  0  0  0  0  0
    2.1676    4.7392    1.0635 H   0  0  0  0  0  0  0  0  0  0  0  0
    3.4758    1.4768   -1.2351 H   0  0  0  0  0  0  0  0  0  0  0  0
    4.2521    3.0782   -1.5948 H   0  0  0  0  0  0  0  0  0  0  0  0
    2.7287    2.5657   -2.3980 H   0  0  0  0  0  0  0  0  0  0  0  0
  1  3  1  0  0  0  0
  3  2  2  0  0  0  0
  4  3  1  0  0  0  0
  4  5  2  0  0  0  0
  5  8  1  0  0  0  0
  6  9  1  0  0  0  0
  6  4  1  0  0  0  0
  7  5  1  0  0  0  0
 10  6  1  0  0  0  0
 11  6  1  0  0  0  0
M  CHG  1   1  -1
M  END
