2
q = -1.0

 26 27  0  0  0  0  0  0  0  0999 V2000
   -2.3270    1.2121   -0.5691 O   0  0  0  0  0  0  0  0  0  0  0  0
    1.9758    0.0060   -0.9105 O   0  5  0  0  0  0  0  0  0  0  0  0
   -4.5585   -1.4356    0.3875 O   0  0  0  0  0  0  0  0  0  0  0  0
   -1.9123   -1.0113   -0.0525 N   0  0  0  0  0  0  0  0  0  0  0  0
   -2.3620   -1.8965    0.2361 H   0  0  0  0  0  0  0  0  0  0  0  0
   -0.5812   -0.9589   -0.2255 N   0  0  0  0  0  0  0  0  0  0  0  0
   -2.7244    0.1015   -0.2350 C   0  0  0  0  0  0  0  0  0  0  0  0
   -4.1558   -0.1742    0.0138 C   0  0  0  0  0  0  0  0  0  0  0  0
   -5.2513    0.6621   -0.0641 C   0  0  0  0  0  0  0  0  0  0  0  0
   -5.2153    1.7206   -0.3402 H   0  0  0  0  0  0  0  0  0  0  0  0
   -6.3896   -0.1322    0.2816 C   0  0  0  0  0  0  0  0  0  0  0  0
   -7.4359    0.1883    0.3300 H   0  0  0  0  0  0  0  0  0  0  0  0
   -5.9107   -1.3966    0.5463 C   0  0  0  0  0  0  0  0  0  0  0  0
   -6.3849   -2.3366    0.8467 H   0  0  0  0  0  0  0  0  0  0  0  0
    0.0664   -2.0634   -0.0114 C   0  0  0  0  0  0  0  0  0  0  0  0
   -0.4918   -2.9810    0.2993 H   0  0  0  0  0  0  0  0  0  0  0  0
    1.5063   -2.2348   -0.1250 C   0  0  0  0  0  0  0  0  0  0  0  0
    2.0479   -3.5038    0.1990 C   0  0  0  0  0  0  0  0  0  0  0  0
    1.3536   -4.3003    0.5123 H   0  0  0  0  0  0  0  0  0  0  0  0
    3.4193   -3.7629    0.1373 C   0  0  0  0  0  0  0  0  0  0  0  0
    3.8060   -4.7590    0.3974 H   0  0  0  0  0  0  0  0  0  0  0  0
    4.2968   -2.7372   -0.2581 C   0  0  0  0  0  0  0  0  0  0  0  0
    5.3804   -2.9238   -0.3095 H   0  0  0  0  0  0  0  0  0  0  0  0
    3.7958   -1.4738   -0.5900 C   0  0  0  0  0  0  0  0  0  0  0  0
    4.4597   -0.6559   -0.9060 H   0  0  0  0  0  0  0  0  0  0  0  0
    2.4101   -1.2046   -0.5376 C   0  0  0  0  0  0  0  0  0  0  0  0
  1  7  2  0  0  0  0
  2 26  1  0  0  0  0
  3 13  1  0  0  0  0
  4  5  1  0  0  0  0
  6  4  1  0  0  0  0
  6 15  2  0  0  0  0
  7  4  1  0  0  0  0
  7  8  1  0  0  0  0
  8  3  1  0  0  0  0
  9  8  2  0  0  0  0
  9 11  1  0  0  0  0
 10  9  1  0  0  0  0
 11 12  1  0  0  0  0
 11 13  2  0  0  0  0
 13 14  1  0  0  0  0
 15 16  1  0  0  0  0
 17 15  1  0  0  0  0
 17 18  1  0  0  0  0
 18 19  1  0  0  0  0
 20 18  2  0  0  0  0
 20 21  1  0  0  0  0
 22 20  1  0  0  0  0
 23 22  1  0  0  0  0
 24 26  1  0  0  0  0
 24 22  2  0  0  0  0
 25 24  1  0  0  0  0
 26 17  2  0  0  0  0
M  CHG  1   2  -1
M  END
