4
q = -1.0

  8  7  0  0  0  0  0  0  0  0999 V2000
    3.8552    2.2773   -1.2309 F   0  0  0  0  0  0  0  0  0  0  0  0
    4.0461    2.7473    0.8932 F   0  0  0  0  0  0  0  0  0  0  0  0
    3.0153    4.1365   -0.4443 F   0  0  0  0  0  0  0  0  0  0  0  0
    2.1271    0.8089    0.4537 O   0  0  0  0  0  1  0  0  0  0  0  0
    1.8754    2.1286    0.1072 C   0  0  0  0  0  0  0  0  0  0  0  0
    3.2002    2.8245   -0.1627 C   0  0  0  0  0  0  0  0  0  0  0  0
    1.2531    2.2525   -0.8092 H   0  0  0  0  0  0  0  0  0  0  0  0
    1.3567    2.7278    0.9010 H   0  0  0  0  0  0  0  0  0  0  0  0
  1  6  1  0  0  0  0
  3  6  1  0  0  0  0
  5  4  1  0  0  0  0
  5  8  1  0  0  0  0
  6  5  1  0  0  0  0
  6  2  1  0  0  0  0
  7  5  1  0  0  0  0
M  END
