1
q = 0.0, confidence = 0.992

 14 13  0  0  0  0  0  0  0  0999 V2000
    0.5405    1.2607   -1.4056 O   0  0  0  0  0  1  0  0  0  0  0  0
    1.8222    1.7695   -1.4783 N   0  0  0  0  0  4  0  0  0  0  0  0
    2.2922    2.2368   -0.1281 C   0  0  0  0  0  0  0  0  0  0  0  0
    3.2637    2.7583   -0.2232 H   0  0  0  0  0  0  0  0  0  0  0  0
    2.3860    1.3427    0.5204 H   0  0  0  0  0  0  0  0  0  0  0  0
    1.5060    2.8966    0.2759 H   0  0  0  0  0  0  0  0  0  0  0  0
    1.7629    2.9260   -2.4257 C   0  0  0  0  0  0  0  0  0  0  0  0
    2.7705    3.3593   -2.5739 H   0  0  0  0  0  0  0  0  0  0  0  0
    1.0723    3.6704   -1.9932 H   0  0  0  0  0  0  0  0  0  0  0  0
    1.3476    2.5449   -3.3743 H   0  0  0  0  0  0  0  0  0  0  0  0
    2.7547    0.7176   -2.0132 C   0  0  0  0  0  0  0  0  0  0  0  0
    3.7761    1.1308   -2.1214 H   0  0  0  0  0  0  0  0  0  0  0  0
    2.3469    0.3911   -2.9852 H   0  0  0  0  0  0  0  0  0  0  0  0
    2.7432   -0.1233   -1.2915 H   0  0  0  0  0  0  0  0  0  0  0  0
  2  1  1  0  0  0  0
  2  3  1  0  0  0  0
  3  6  1  0  0  0  0
  3  5  1  0  0  0  0
  4  3  1  0  0  0  0
  7  9  1  0  0  0  0
  7  2  1  0  0  0  0
  8  7  1  0  0  0  0
 10  7  1  0  0  0  0
 11  2  1  0  0  0  0
 11 14  1  0  0  0  0
 12 11  1  0  0  0  0
 13 11  1  0  0  0  0
M  END
