11
q = -1.0, confidence = 0.014

 18 18  0  0  0  0  0  0  0  0999 V2000
    5.2638   -0.4698    0.8259 C   0  0  0  0  0  0  0  0  0  0  0  0
    5.6097   -1.5673   -0.0032 C   0  0  0  0  0  0  0  0  0  0  0  0
    4.6595   -1.8765   -1.4371 Cl  0  0  0  0  0  0  0  0  0  0  0  0
    6.6911   -2.3962    0.3118 C   0  0  0  0  0  0  0  0  0  0  0  0
    7.4522   -2.1461    1.4653 C   0  0  0  0  0  0  0  0  0  0  0  0
    7.1211   -1.0644    2.2918 C   0  0  0  0  0  0  0  0  0  0  0  0
    6.0368   -0.2294    1.9780 C   0  0  0  0  0  0  0  0  0  0  0  0
    4.1992    0.2782    0.4415 O   0  0  0  0  0  0  0  0  0  0  0  0
    3.7780    1.3741    1.2648 C   0  0  0  0  0  0  0  0  0  0  0  0
    2.5242    1.8999    0.5554 C   0  0  0  0  0  0  0  0  0  0  0  0
    1.5274    1.1014    0.5975 O   0  5  0  0  0  0  0  0  0  0  0  0
    2.6116    2.9856   -0.0737 O   0  0  0  0  0  0  0  0  0  0  0  0
    6.9261   -3.2374   -0.3553 H   0  0  0  0  0  0  0  0  0  0  0  0
    8.3013   -2.7999    1.7109 H   0  0  0  0  0  0  0  0  0  0  0  0
    7.7110   -0.8586    3.1972 H   0  0  0  0  0  0  0  0  0  0  0  0
    5.7918    0.6166    2.6338 H   0  0  0  0  0  0  0  0  0  0  0  0
    3.5279    1.0169    2.2875 H   0  0  0  0  0  0  0  0  0  0  0  0
    4.5641    2.1563    1.3086 H   0  0  0  0  0  0  0  0  0  0  0  0
  1  7  1  0  0  0  0
  2  4  1  0  0  0  0
  2  1  2  0  0  0  0
  3  2  1  0  0  0  0
  4  5  2  0  0  0  0
  5 14  1  0  0  0  0
  5  6  1  0  0  0  0
  6 15  1  0  0  0  0
  7  6  2  0  0  0  0
  7 16  1  0  0  0  0
  8  1  1  0  0  0  0
  8  9  1  0  0  0  0
  9 18  1  0  0  0  0
  9 17  1  0  0  0  0
 10 11  1  0  0  0  0
 10  9  1  0  0  0  0
 12 10  2  0  0  0  0
 13  4  1  0  0  0  0
M  CHG  1  11  -1
M  END
