1
q = -1.0

 16 16  0  0  0  0  0  0  0  0999 V2000
   -0.5053   -1.4943   -1.2114 O   0  5  0  0  0  0  0  0  0  0  0  0
   -2.1008   -2.8660   -0.4244 O   0  0  0  0  0  0  0  0  0  0  0  0
   -0.9658    1.0694   -1.3369 N   0  0  0  0  0  0  0  0  0  0  0  0
   -0.7980    2.0756   -1.4609 H   0  0  0  0  0  0  0  0  0  0  0  0
   -0.8285    0.6112   -2.2571 H   0  0  0  0  0  0  0  0  0  0  0  0
   -2.6144   -0.5412   -0.4681 C   0  0  0  0  0  0  0  0  0  0  0  0
   -2.2503    0.7965   -0.7493 C   0  0  0  0  0  0  0  0  0  0  0  0
   -3.0991    1.8598   -0.4014 C   0  0  0  0  0  0  0  0  0  0  0  0
   -2.7900    2.8956   -0.6157 H   0  0  0  0  0  0  0  0  0  0  0  0
   -4.3380    1.6009    0.2054 C   0  0  0  0  0  0  0  0  0  0  0  0
   -4.9984    2.4394    0.4733 H   0  0  0  0  0  0  0  0  0  0  0  0
   -4.7303    0.2768    0.4562 C   0  0  0  0  0  0  0  0  0  0  0  0
   -5.7055    0.0678    0.9208 H   0  0  0  0  0  0  0  0  0  0  0  0
   -3.8688   -0.7770    0.1207 C   0  0  0  0  0  0  0  0  0  0  0  0
   -4.1249   -1.8287    0.3192 H   0  0  0  0  0  0  0  0  0  0  0  0
   -1.6957   -1.7373   -0.7136 C   0  0  0  0  0  0  0  0  0  0  0  0
  1 16  1  0  0  0  0
  3  7  1  0  0  0  0
  4  3  1  0  0  0  0
  5  3  1  0  0  0  0
  6 14  1  0  0  0  0
  7  6  2  0  0  0  0
  7  8  1  0  0  0  0
  8 10  2  0  0  0  0
  9  8  1  0  0  0  0
 10 12  1  0  0  0  0
 10 11  1  0  0  0  0
 12 13  1  0  0  0  0
 14 15  1  0  0  0  0
 14 12  2  0  0  0  0
 16  6  1  0  0  0  0
 16  2  2  0  0  0  0
M  CHG  1   1  -1
M  END
