1
q = -1.0

 14 14  0  0  0  0  0  0  0  0999 V2000
    2.1801   -0.6403   -0.0602 O   0  5  0  0  0  0  0  0  0  0  0  0
    2.8333    1.5274   -0.0118 O   0  0  0  0  0  0  0  0  0  0  0  0
    7.7463    1.3510    0.0182 O   0  5  0  0  0  0  0  0  0  0  0  0
    5.5067    0.7960   -0.0023 C   0  0  0  0  0  0  0  0  0  0  0  0
    5.2996    1.8727   -0.0068 H   0  0  0  0  0  0  0  0  0  0  0  0
    4.5069   -0.1774   -0.0099 C   0  0  0  0  0  0  0  0  0  0  0  0
    3.0678    0.2713   -0.0282 C   0  0  0  0  0  0  0  0  0  0  0  0
    7.1810   -0.8886    0.0233 C   0  0  0  0  0  0  0  0  0  0  0  0
    8.2639   -1.0662    0.0366 H   0  0  0  0  0  0  0  0  0  0  0  0
    6.8508    0.4624    0.0133 N   0  3  0  0  0  0  0  0  0  0  0  0
    4.8439   -1.5445    0.0001 C   0  0  0  0  0  0  0  0  0  0  0  0
    4.0470   -2.2989   -0.0033 H   0  0  0  0  0  0  0  0  0  0  0  0
    6.2055   -1.8791    0.0174 C   0  0  0  0  0  0  0  0  0  0  0  0
    6.5325   -2.9294    0.0274 H   0  0  0  0  0  0  0  0  0  0  0  0
  1  7  1  0  0  0  0
  4 10  1  0  0  0  0
  5  4  1  0  0  0  0
  6  4  2  0  0  0  0
  6 11  1  0  0  0  0
  7  2  2  0  0  0  0
  7  6  1  0  0  0  0
  8  9  1  0  0  0  0
 10  3  1  0  0  0  0
 10  8  2  0  0  0  0
 11 13  2  0  0  0  0
 12 11  1  0  0  0  0
 13  8  1  0  0  0  0
 13 14  1  0  0  0  0
M  CHG  3   1  -1   3  -1  10   1
M  END
