29
q = -1.0, confidence = 0.04

 50 53  0  0  1  0  0  0  0  0999 V2000
   -1.4701   -0.8647   -0.9862 C   0  0  0  0  0  0  0  0  0  0  0  0
   -0.7604    0.3871   -0.6779 C   0  0  0  0  0  0  0  0  0  0  0  0
    0.7024    0.4810   -0.7005 C   0  0  2  0  0  3  0  0  0  0  0  0
    1.4924   -0.6451   -1.1421 C   0  0  0  0  0  3  0  0  0  0  0  0
   -3.8285   -0.0210   -1.4786 C   0  0  0  0  0  0  0  0  0  0  0  0
   -5.2150   -0.2339   -1.4846 C   0  0  0  0  0  0  0  0  0  0  0  0
   -5.7525   -1.4146   -0.9498 C   0  0  0  0  0  0  0  0  0  0  0  0
   -4.8933   -2.3973   -0.4276 C   0  0  0  0  0  0  0  0  0  0  0  0
   -3.5086   -2.1934   -0.4360 C   0  0  0  0  0  0  0  0  0  0  0  0
   -2.9627   -0.9943   -0.9408 C   0  0  0  0  0  0  0  0  0  0  0  0
   -1.5045    2.7695   -0.9429 C   0  0  0  0  0  0  0  0  0  0  0  0
   -2.2544    3.8823   -0.5374 C   0  0  0  0  0  0  0  0  0  0  0  0
   -3.0631    3.8093    0.6081 C   0  0  0  0  0  0  0  0  0  0  0  0
   -3.1147    2.6153    1.3457 C   0  0  0  0  0  0  0  0  0  0  0  0
   -2.3625    1.5043    0.9417 C   0  0  0  0  0  0  0  0  0  0  0  0
   -1.5512    1.5656   -0.2094 C   0  0  0  0  0  0  0  0  0  0  0  0
    1.1497    2.2982    1.0419 C   0  0  0  0  0  0  0  0  0  0  0  0
    1.7618    3.5043    1.4086 C   0  0  0  0  0  0  0  0  0  0  0  0
    2.5773    4.1896    0.4928 C   0  0  0  0  0  0  0  0  0  0  0  0
    2.7769    3.6586   -0.7911 C   0  0  0  0  0  0  0  0  0  0  0  0
    2.1676    2.4493   -1.1548 C   0  0  0  0  0  0  0  0  0  0  0  0
    1.3451    1.7554   -0.2437 C   0  0  0  0  0  0  0  0  0  0  0  0
    3.6105   -1.6765   -1.8958 C   0  0  0  0  0  0  0  0  0  0  0  0
    4.9891   -1.9129   -1.8193 C   0  0  0  0  0  0  0  0  0  0  0  0
    5.7612   -1.2711   -0.8383 C   0  0  0  0  0  0  0  0  0  0  0  0
    5.1322   -0.3943    0.0614 C   0  0  0  0  0  0  0  0  0  0  0  0
    3.7542   -0.1563   -0.0168 C   0  0  0  0  0  0  0  0  0  0  0  0
    2.9575   -0.7924   -1.0018 C   0  0  0  0  0  0  0  0  0  0  0  0
   -0.7952   -1.9331   -1.3140 O   0  5  0  0  0  0  0  0  0  0  0  0
    1.0754   -1.2514   -1.9584 H   0  0  0  0  0  0  0  0  0  0  0  0
   -3.4168    0.9065   -1.8996 H   0  0  0  0  0  0  0  0  0  0  0  0
   -5.8802    0.5318   -1.9117 H   0  0  0  0  0  0  0  0  0  0  0  0
   -6.8416   -1.5745   -0.9470 H   0  0  0  0  0  0  0  0  0  0  0  0
   -5.3078   -3.3308   -0.0171 H   0  0  0  0  0  0  0  0  0  0  0  0
   -2.8200   -2.9607   -0.0527 H   0  0  0  0  0  0  0  0  0  0  0  0
   -0.8670    2.8302   -1.8375 H   0  0  0  0  0  0  0  0  0  0  0  0
   -2.2036    4.8152   -1.1192 H   0  0  0  0  0  0  0  0  0  0  0  0
   -3.6496    4.6838    0.9283 H   0  0  0  0  0  0  0  0  0  0  0  0
   -3.7446    2.5496    2.2460 H   0  0  0  0  0  0  0  0  0  0  0  0
   -2.3990    0.5655    1.5136 H   0  0  0  0  0  0  0  0  0  0  0  0
    0.5074    1.7618    1.7536 H   0  0  0  0  0  0  0  0  0  0  0  0
    1.5998    3.9137    2.4174 H   0  0  0  0  0  0  0  0  0  0  0  0
    3.0583    5.1366    0.7812 H   0  0  0  0  0  0  0  0  0  0  0  0
    3.4169    4.1870   -1.5141 H   0  0  0  0  0  0  0  0  0  0  0  0
    2.3326    2.0235   -2.1561 H   0  0  0  0  0  0  0  0  0  0  0  0
    3.0096   -2.1883   -2.6641 H   0  0  0  0  0  0  0  0  0  0  0  0
    5.4640   -2.6051   -2.5317 H   0  0  0  0  0  0  0  0  0  0  0  0
    6.8446   -1.4534   -0.7732 H   0  0  0  0  0  0  0  0  0  0  0  0
    5.7243    0.1155    0.8373 H   0  0  0  0  0  0  0  0  0  0  0  0
    3.2904    0.5364    0.6967 H   0  0  0  0  0  0  0  0  0  0  0  0
  1 10  1  0  0  0  0
  1  2  2  0  0  0  0
  2 16  1  0  0  0  0
  3  4  1  1  0  0  0
  3  2  1  0  0  0  0
  3 22  1  0  0  0  0
  4 28  1  0  0  0  0
  5 10  1  0  0  0  0
  6  5  2  0  0  0  0
  6  7  1  0  0  0  0
  7 33  1  0  0  0  0
  7  8  2  0  0  0  0
  8 34  1  0  0  0  0
  9  8  1  0  0  0  0
  9 35  1  0  0  0  0
 10  9  2  0  0  0  0
 11 12  2  0  0  0  0
 11 16  1  0  0  0  0
 12 13  1  0  0  0  0
 13 38  1  0  0  0  0
 13 14  2  0  0  0  0
 14 39  1  0  0  0  0
 15 14  1  0  0  0  0
 15 40  1  0  0  0  0
 16 15  2  0  0  0  0
 17 18  1  0  0  0  0
 17 41  1  0  0  0  0
 18 42  1  0  0  0  0
 19 43  1  0  0  0  0
 19 18  2  0  0  0  0
 20 19  1  0  0  0  0
 21 20  2  0  0  0  0
 21 22  1  0  0  0  0
 22 17  2  0  0  0  0
 23 24  2  0  0  0  0
 23 28  1  0  0  0  0
 24 25  1  0  0  0  0
 25 48  1  0  0  0  0
 25 26  2  0  0  0  0
 26 49  1  0  0  0  0
 27 26  1  0  0  0  0
 27 50  1  0  0  0  0
 28 27  2  0  0  0  0
 29  1  1  0  0  0  0
 30  4  1  0  0  0  0
 31  5  1  0  0  0  0
 32  6  1  0  0  0  0
 36 11  1  0  0  0  0
 37 12  1  0  0  0  0
 44 20  1  0  0  0  0
 45 21  1  0  0  0  0
 46 23  1  0  0  0  0
 47 24  1  0  0  0  0
M  CHG  1  29  -1
M  END
