2
q = -1.0

 14 14  0  0  0  0  0  0  0  0999 V2000
   -3.1162    3.1341    0.1141 Cl  0  0  0  0  0  0  0  0  0  0  0  0
   -0.9181    1.2745    0.8828 O   0  5  0  0  0  0  0  0  0  0  0  0
   -6.9663   -0.0121    1.8288 O   0  0  0  0  0  0  0  0  0  0  0  0
   -6.0290   -1.8053    2.6653 O   0  0  0  0  0  0  0  0  0  0  0  0
   -5.9752   -0.6600    2.1911 N   0  0  0  0  0  0  0  0  0  0  0  0
   -2.0754    0.9163    1.3348 C   0  0  0  0  0  0  0  0  0  0  0  0
   -3.2831    1.6396    1.0081 C   0  0  0  0  0  0  0  0  0  0  0  0
   -4.5505    1.1591    1.3223 C   0  0  0  0  0  0  0  0  0  0  0  0
   -4.6599   -0.0616    2.0134 C   0  0  0  0  0  0  0  0  0  0  0  0
   -3.5137   -0.7475    2.4650 C   0  0  0  0  0  0  0  0  0  0  0  0
   -2.2563   -0.2577    2.1434 C   0  0  0  0  0  0  0  0  0  0  0  0
   -5.4618    1.6858    1.0118 H   0  0  0  0  0  0  0  0  0  0  0  0
   -3.6485   -1.6800    3.0287 H   0  0  0  0  0  0  0  0  0  0  0  0
   -1.3410   -0.7945    2.4347 H   0  0  0  0  0  0  0  0  0  0  0  0
  1  7  1  0  0  0  0
  2  6  1  0  0  0  0
  3  5  2  0  0  0  0
  5  4  2  0  0  0  0
  6 11  1  0  0  0  0
  7  8  1  0  0  0  0
  7  6  2  0  0  0  0
  8  9  2  0  0  0  0
  9  5  1  0  0  0  0
  9 10  1  0  0  0  0
 10 13  1  0  0  0  0
 11 14  1  0  0  0  0
 11 10  2  0  0  0  0
 12  8  1  0  0  0  0
M  CHG  1   2  -1
M  END
