2
q = -1.0

 16 16  0  0  0  0  0  0  0  0999 V2000
   -6.3250   -0.5439   -0.1846 S   0  0  0  0  0  0  0  0  0  0  0  0
   -0.3942   -0.5047   -0.7292 O   0  5  0  0  0  0  0  0  0  0  0  0
   -6.7254    0.5812    1.1782 C   0  0  0  0  0  0  0  0  0  0  0  0
   -6.2736    0.2458    2.1332 H   0  0  0  0  0  0  0  0  0  0  0  0
   -7.8274    0.5535    1.2752 H   0  0  0  0  0  0  0  0  0  0  0  0
   -6.4129    1.6221    0.9595 H   0  0  0  0  0  0  0  0  0  0  0  0
   -2.5398   -1.3018   -1.3703 C   0  0  0  0  0  0  0  0  0  0  0  0
   -2.0533   -1.9429   -2.1201 H   0  0  0  0  0  0  0  0  0  0  0  0
   -2.3499    0.3356    0.4173 C   0  0  0  0  0  0  0  0  0  0  0  0
   -1.7199    0.9687    1.0589 H   0  0  0  0  0  0  0  0  0  0  0  0
   -3.7439    0.3435    0.5573 C   0  0  0  0  0  0  0  0  0  0  0  0
   -4.1917    0.9992    1.3167 H   0  0  0  0  0  0  0  0  0  0  0  0
   -4.5536   -0.4702   -0.2624 C   0  0  0  0  0  0  0  0  0  0  0  0
   -1.7258   -0.4873   -0.5456 C   0  0  0  0  0  0  0  0  0  0  0  0
   -3.9280   -1.2932   -1.2289 C   0  0  0  0  0  0  0  0  0  0  0  0
   -4.5450   -1.9369   -1.8756 H   0  0  0  0  0  0  0  0  0  0  0  0
  1  3  1  0  0  0  0
  2 14  1  0  0  0  0
  3  5  1  0  0  0  0
  3  4  1  0  0  0  0
  6  3  1  0  0  0  0
  7 15  2  0  0  0  0
  7 14  1  0  0  0  0
  8  7  1  0  0  0  0
  9 11  1  0  0  0  0
  9 10  1  0  0  0  0
 11 12  1  0  0  0  0
 13  1  1  0  0  0  0
 13 11  2  0  0  0  0
 14  9  2  0  0  0  0
 15 13  1  0  0  0  0
 16 15  1  0  0  0  0
M  CHG  1   2  -1
M  END
