1
q = -1.0

 11 10  0  0  0  0  0  0  0  0999 V2000
   -0.0080    2.0188   -1.0910 O   0  5  0  0  0  0  0  0  0  0  0  0
   -0.0049    1.7916    1.1076 N   0  0  0  0  0  0  0  0  0  0  0  0
   -0.0040    2.2029    2.4857 C   0  0  0  0  0  0  0  0  0  0  0  0
   -0.9023    2.8075    2.7523 H   0  0  0  0  0  0  0  0  0  0  0  0
    0.8923    2.8116    2.7499 H   0  0  0  0  0  0  0  0  0  0  0  0
   -0.0010    1.2999    3.1262 H   0  0  0  0  0  0  0  0  0  0  0  0
   -0.0082    2.6035    0.0698 C   0  0  0  0  0  0  0  0  0  0  0  0
   -0.0117    4.1079    0.1643 C   0  0  0  0  0  0  0  0  0  0  0  0
    0.8800    4.4632    0.7211 H   0  0  0  0  0  0  0  0  0  0  0  0
   -0.9020    4.4589    0.7258 H   0  0  0  0  0  0  0  0  0  0  0  0
   -0.0153    4.5508   -0.8471 H   0  0  0  0  0  0  0  0  0  0  0  0
  1  7  1  0  0  0  0
  2  3  1  0  0  0  0
  3  5  1  0  0  0  0
  3  4  1  0  0  0  0
  3  6  1  0  0  0  0
  7  8  1  0  0  0  0
  7  2  2  0  0  0  0
  8  9  1  0  0  0  0
  8 10  1  0  0  0  0
 11  8  1  0  0  0  0
M  CHG  1   1  -1
M  END
