1
q = -1.0

 21 21  0  0  0  0  0  0  0  0999 V2000
   -1.1692   -0.1165   -0.1164 O   0  5  0  0  0  0  0  0  0  0  0  0
   -2.5065   -0.0846   -0.0519 C   0  0  0  0  0  0  0  0  0  0  0  0
   -3.2525   -0.0596   -1.2677 C   0  0  0  0  0  0  0  0  0  0  0  0
   -4.6524   -0.0318   -1.2004 C   0  0  0  0  0  0  0  0  0  0  0  0
   -5.2214   -0.0116   -2.1452 H   0  0  0  0  0  0  0  0  0  0  0  0
   -5.3501   -0.0258    0.0251 C   0  0  0  0  0  0  0  0  0  0  0  0
   -4.5886   -0.0402    1.2042 C   0  0  0  0  0  0  0  0  0  0  0  0
   -5.1075   -0.0274    2.1777 H   0  0  0  0  0  0  0  0  0  0  0  0
   -3.1804   -0.0666    1.1984 C   0  0  0  0  0  0  0  0  0  0  0  0
   -2.5246   -0.0505   -2.5839 C   0  0  0  0  0  0  0  0  0  0  0  0
   -3.2334   -0.0040   -3.4325 H   0  0  0  0  0  0  0  0  0  0  0  0
   -1.8874   -0.9499   -2.7071 H   0  0  0  0  0  0  0  0  0  0  0  0
   -1.8287    0.8113   -2.6605 H   0  0  0  0  0  0  0  0  0  0  0  0
   -6.8587   -0.0091    0.0559 C   0  0  0  0  0  0  0  0  0  0  0  0
   -7.2438    0.0862    1.0901 H   0  0  0  0  0  0  0  0  0  0  0  0
   -7.2871   -0.9395   -0.3750 H   0  0  0  0  0  0  0  0  0  0  0  0
   -7.2712    0.8346   -0.5366 H   0  0  0  0  0  0  0  0  0  0  0  0
   -2.4178   -0.0645    2.4990 C   0  0  0  0  0  0  0  0  0  0  0  0
   -2.6735    0.8230    3.1158 H   0  0  0  0  0  0  0  0  0  0  0  0
   -1.3262   -0.0555    2.3272 H   0  0  0  0  0  0  0  0  0  0  0  0
   -2.6567   -0.9585    3.1124 H   0  0  0  0  0  0  0  0  0  0  0  0
  1  2  1  0  0  0  0
  2  9  1  0  0  0  0
  3  4  1  0  0  0  0
  3  2  2  0  0  0  0
  4  6  2  0  0  0  0
  5  4  1  0  0  0  0
  6 14  1  0  0  0  0
  6  7  1  0  0  0  0
  7  8  1  0  0  0  0
  9  7  2  0  0  0  0
  9 18  1  0  0  0  0
 10  3  1  0  0  0  0
 11 10  1  0  0  0  0
 12 10  1  0  0  0  0
 13 10  1  0  0  0  0
 14 15  1  0  0  0  0
 16 14  1  0  0  0  0
 17 14  1  0  0  0  0
 18 21  1  0  0  0  0
 18 19  1  0  0  0  0
 20 18  1  0  0  0  0
M  CHG  1   1  -1
M  END
