3
q = 0.0, confidence = 0.564

 19 19  0  0  0  0  0  0  0  0999 V2000
   -0.5801   -0.6964    1.2069 S   0  0  0  0  0  1  0  0  0  0  0  0
    1.2694   -1.7115   -0.6515 S   0  0  0  0  0  0  0  0  0  0  0  0
    1.0389   -0.2828   -1.2414 O   0  0  0  0  0  1  0  0  0  0  0  0
    1.0799   -2.7840   -1.6481 O   0  0  0  0  0  1  0  0  0  0  0  0
    0.5115   -1.8833    0.7855 N   0  0  0  0  0  2  0  0  0  0  0  0
    3.0109   -1.7176   -0.2087 C   0  0  0  0  0  0  0  0  0  0  0  0
    3.9376   -2.0110   -1.2220 C   0  0  0  0  0  0  0  0  0  0  0  0
    3.5771   -2.3197   -2.2137 H   0  0  0  0  0  0  0  0  0  0  0  0
    5.3048   -1.9099   -0.9407 C   0  0  0  0  0  0  0  0  0  0  0  0
    6.0358   -2.1360   -1.7330 H   0  0  0  0  0  0  0  0  0  0  0  0
    5.7656   -1.5317    0.3398 C   0  0  0  0  0  0  0  0  0  0  0  0
    4.8083   -1.2603    1.3394 C   0  0  0  0  0  0  0  0  0  0  0  0
    5.1467   -0.9828    2.3503 H   0  0  0  0  0  0  0  0  0  0  0  0
    3.4342   -1.3504    1.0750 C   0  0  0  0  0  0  0  0  0  0  0  0
    2.6836   -1.1660    1.8558 H   0  0  0  0  0  0  0  0  0  0  0  0
    7.2416   -1.4624    0.6353 C   0  0  0  0  0  0  0  0  0  0  0  0
    7.8056   -1.0173   -0.2086 H   0  0  0  0  0  0  0  0  0  0  0  0
    7.6583   -2.4792    0.8001 H   0  0  0  0  0  0  0  0  0  0  0  0
    7.4508   -0.8687    1.5461 H   0  0  0  0  0  0  0  0  0  0  0  0
  2  6  1  0  0  0  0
  2  5  1  0  0  0  0
  3  2  1  0  0  0  0
  4  2  1  0  0  0  0
  5  1  1  0  0  0  0
  6 14  1  0  0  0  0
  7  9  1  0  0  0  0
  7  6  2  0  0  0  0
  8  7  1  0  0  0  0
  9 11  2  0  0  0  0
 10  9  1  0  0  0  0
 11 16  1  0  0  0  0
 11 12  1  0  0  0  0
 12 13  1  0  0  0  0
 14 12  2  0  0  0  0
 14 15  1  0  0  0  0
 16 18  1  0  0  0  0
 16 19  1  0  0  0  0
 17 16  1  0  0  0  0
M  END
