1
q = -1.0

 27 27  0  0  0  0  0  0  0  0999 V2000
    1.7249    0.5599   -0.5587 O   0  5  0  0  0  0  0  0  0  0  0  0
    2.7746   -0.2483   -0.7218 C   0  0  0  0  0  0  0  0  0  0  0  0
    2.6701   -1.4354   -1.5175 C   0  0  0  0  0  0  0  0  0  0  0  0
    3.7747   -2.2983   -1.6190 C   0  0  0  0  0  0  0  0  0  0  0  0
    3.6776   -3.2202   -2.2157 H   0  0  0  0  0  0  0  0  0  0  0  0
    4.9872   -1.9957   -0.9864 C   0  0  0  0  0  0  0  0  0  0  0  0
    5.8447   -2.6804   -1.0654 H   0  0  0  0  0  0  0  0  0  0  0  0
    5.1077   -0.7939   -0.2707 C   0  0  0  0  0  0  0  0  0  0  0  0
    6.0752   -0.5577    0.1927 H   0  0  0  0  0  0  0  0  0  0  0  0
    4.0338    0.1020   -0.1211 C   0  0  0  0  0  0  0  0  0  0  0  0
    4.2030    1.4446    0.6202 C   0  0  0  0  0  0  0  0  0  0  0  0
    3.9527    2.5923   -0.3870 C   0  0  0  0  0  0  0  0  0  0  0  0
    4.0234    3.5792    0.1171 H   0  0  0  0  0  0  0  0  0  0  0  0
    2.9506    2.4961   -0.8431 H   0  0  0  0  0  0  0  0  0  0  0  0
    4.7054    2.5663   -1.2008 H   0  0  0  0  0  0  0  0  0  0  0  0
    5.6246    1.6230    1.1842 C   0  0  0  0  0  0  0  0  0  0  0  0
    5.8789    0.8378    1.9252 H   0  0  0  0  0  0  0  0  0  0  0  0
    5.6975    2.6028    1.6985 H   0  0  0  0  0  0  0  0  0  0  0  0
    6.3946    1.6077    0.3868 H   0  0  0  0  0  0  0  0  0  0  0  0
    3.2175    1.5622    1.8077 C   0  0  0  0  0  0  0  0  0  0  0  0
    3.4638    0.8200    2.5953 H   0  0  0  0  0  0  0  0  0  0  0  0
    2.1735    1.4017    1.4816 H   0  0  0  0  0  0  0  0  0  0  0  0
    3.2945    2.5684    2.2702 H   0  0  0  0  0  0  0  0  0  0  0  0
    1.3953   -1.7385   -2.2606 C   0  0  0  0  0  0  0  0  0  0  0  0
    1.3017   -1.1106   -3.1720 H   0  0  0  0  0  0  0  0  0  0  0  0
    0.4943   -1.5175   -1.6426 H   0  0  0  0  0  0  0  0  0  0  0  0
    1.3534   -2.7976   -2.5819 H   0  0  0  0  0  0  0  0  0  0  0  0
  2  1  1  0  0  0  0
  2 10  1  0  0  0  0
  3  2  2  0  0  0  0
  4  3  1  0  0  0  0
  4  6  2  0  0  0  0
  5  4  1  0  0  0  0
  6  8  1  0  0  0  0
  7  6  1  0  0  0  0
  8 10  2  0  0  0  0
  8  9  1  0  0  0  0
 10 11  1  0  0  0  0
 11 16  1  0  0  0  0
 11 20  1  0  0  0  0
 12 13  1  0  0  0  0
 12 11  1  0  0  0  0
 14 12  1  0  0  0  0
 15 12  1  0  0  0  0
 16 18  1  0  0  0  0
 16 17  1  0  0  0  0
 19 16  1  0  0  0  0
 20 23  1  0  0  0  0
 20 21  1  0  0  0  0
 22 20  1  0  0  0  0
 24 26  1  0  0  0  0
 24  3  1  0  0  0  0
 25 24  1  0  0  0  0
 27 24  1  0  0  0  0
M  CHG  1   1  -1
M  END
