1
q = -1.0

 29 29  0  0  0  0  0  0  0  0999 V2000
   -1.7630    0.6268   -0.1859 O   0  5  0  0  0  0  0  0  0  0  0  0
   -2.8614   -0.0523   -0.3843 C   0  0  0  0  0  0  0  0  0  0  0  0
   -2.9001   -1.3721   -0.9744 C   0  0  0  0  0  0  0  0  0  0  0  0
   -4.1199   -2.1032   -1.0008 C   0  0  0  0  0  0  0  0  0  0  0  0
   -4.0996   -3.1205   -1.4294 H   0  0  0  0  0  0  0  0  0  0  0  0
   -5.3133   -1.5676   -0.5361 C   0  0  0  0  0  0  0  0  0  0  0  0
   -5.2760   -0.2291   -0.0576 C   0  0  0  0  0  0  0  0  0  0  0  0
   -6.2278    0.2089    0.2762 H   0  0  0  0  0  0  0  0  0  0  0  0
   -4.1190    0.5483    0.0224 C   0  0  0  0  0  0  0  0  0  0  0  0
   -4.1635    2.0064    0.5253 C   0  0  0  0  0  0  0  0  0  0  0  0
   -5.6003    2.4588    0.8458 C   0  0  0  0  0  0  0  0  0  0  0  0
   -6.2664    2.3937   -0.0385 H   0  0  0  0  0  0  0  0  0  0  0  0
   -5.5864    3.5171    1.1757 H   0  0  0  0  0  0  0  0  0  0  0  0
   -6.0523    1.8635    1.6652 H   0  0  0  0  0  0  0  0  0  0  0  0
   -3.3215    2.1793    1.8125 C   0  0  0  0  0  0  0  0  0  0  0  0
   -2.2589    1.9240    1.6474 H   0  0  0  0  0  0  0  0  0  0  0  0
   -3.7225    1.5410    2.6265 H   0  0  0  0  0  0  0  0  0  0  0  0
   -3.3771    3.2330    2.1578 H   0  0  0  0  0  0  0  0  0  0  0  0
   -3.6170    2.9404   -0.5800 C   0  0  0  0  0  0  0  0  0  0  0  0
   -2.5716    2.6813   -0.8232 H   0  0  0  0  0  0  0  0  0  0  0  0
   -3.6468    3.9969   -0.2412 H   0  0  0  0  0  0  0  0  0  0  0  0
   -4.2259    2.8586   -1.5036 H   0  0  0  0  0  0  0  0  0  0  0  0
   -6.6109   -2.3355   -0.5547 C   0  0  0  0  0  0  0  0  0  0  0  0
   -6.4751   -3.3524   -0.9719 H   0  0  0  0  0  0  0  0  0  0  0  0
   -7.3823   -1.8213   -1.1666 H   0  0  0  0  0  0  0  0  0  0  0  0
   -7.0365   -2.4449    0.4657 H   0  0  0  0  0  0  0  0  0  0  0  0
   -1.7600   -2.0208   -1.6073 C   0  0  0  0  0  0  0  0  0  0  0  0
   -0.6310   -1.5569   -1.8194 O   0  0  0  0  0  0  0  0  0  0  0  0
   -1.9894   -3.0765   -1.9455 H   0  0  0  0  0  0  0  0  0  0  0  0
  2  1  1  0  0  0  0
  2  9  1  0  0  0  0
  3  2  2  0  0  0  0
  4  3  1  0  0  0  0
  4  6  2  0  0  0  0
  5  4  1  0  0  0  0
  6  7  1  0  0  0  0
  7  9  2  0  0  0  0
  7  8  1  0  0  0  0
  9 10  1  0  0  0  0
 10 11  1  0  0  0  0
 10 15  1  0  0  0  0
 11 13  1  0  0  0  0
 11 14  1  0  0  0  0
 12 11  1  0  0  0  0
 15 18  1  0  0  0  0
 15 17  1  0  0  0  0
 16 15  1  0  0  0  0
 19 21  1  0  0  0  0
 19 10  1  0  0  0  0
 20 19  1  0  0  0  0
 22 19  1  0  0  0  0
 23  6  1  0  0  0  0
 23 26  1  0  0  0  0
 24 23  1  0  0  0  0
 25 23  1  0  0  0  0
 27  3  1  0  0  0  0
 28 27  2  0  0  0  0
 29 27  1  0  0  0  0
M  CHG  1   1  -1
M  END
