1
q = -1.0

 27 27  0  0  0  0  0  0  0  0999 V2000
    1.7657   -0.6662   -0.2097 O   0  5  0  0  0  0  0  0  0  0  0  0
    2.7911    0.0848    0.1943 C   0  0  0  0  0  0  0  0  0  0  0  0
    4.1463   -0.3040   -0.1013 C   0  0  0  0  0  0  0  0  0  0  0  0
    5.1748    0.5602    0.3110 C   0  0  0  0  0  0  0  0  0  0  0  0
    6.2145    0.2843    0.0823 H   0  0  0  0  0  0  0  0  0  0  0  0
    4.4464   -1.6326   -0.8208 C   0  0  0  0  0  0  0  0  0  0  0  0
    4.9653    1.7710    1.0079 C   0  0  0  0  0  0  0  0  0  0  0  0
    3.6399    2.1116    1.3198 C   0  0  0  0  0  0  0  0  0  0  0  0
    3.4274    3.0346    1.8841 H   0  0  0  0  0  0  0  0  0  0  0  0
    2.5815    1.2830    0.9269 C   0  0  0  0  0  0  0  0  0  0  0  0
    1.5397    1.5366    1.1894 H   0  0  0  0  0  0  0  0  0  0  0  0
    3.7627   -1.6579   -2.2076 C   0  0  0  0  0  0  0  0  0  0  0  0
    4.1510   -0.8406   -2.8494 H   0  0  0  0  0  0  0  0  0  0  0  0
    2.6689   -1.5366   -2.1017 H   0  0  0  0  0  0  0  0  0  0  0  0
    3.9673   -2.6211   -2.7205 H   0  0  0  0  0  0  0  0  0  0  0  0
    6.1309    2.6448    1.4023 C   0  0  0  0  0  0  0  0  0  0  0  0
    5.7974    3.5277    1.9825 H   0  0  0  0  0  0  0  0  0  0  0  0
    6.6845    3.0197    0.5146 H   0  0  0  0  0  0  0  0  0  0  0  0
    6.8673    2.0940    2.0255 H   0  0  0  0  0  0  0  0  0  0  0  0
    5.9541   -1.8558   -1.0332 C   0  0  0  0  0  0  0  0  0  0  0  0
    6.4054   -1.0650   -1.6662 H   0  0  0  0  0  0  0  0  0  0  0  0
    6.1153   -2.8259   -1.5458 H   0  0  0  0  0  0  0  0  0  0  0  0
    6.5097   -1.8892   -0.0742 H   0  0  0  0  0  0  0  0  0  0  0  0
    3.9090   -2.7994    0.0403 C   0  0  0  0  0  0  0  0  0  0  0  0
    4.0873   -3.7730   -0.4627 H   0  0  0  0  0  0  0  0  0  0  0  0
    2.8222   -2.6813    0.2048 H   0  0  0  0  0  0  0  0  0  0  0  0
    4.4147   -2.8242    1.0273 H   0  0  0  0  0  0  0  0  0  0  0  0
  1  2  1  0  0  0  0
  2 10  1  0  0  0  0
  3  2  2  0  0  0  0
  3  4  1  0  0  0  0
  4  7  2  0  0  0  0
  5  4  1  0  0  0  0
  6  3  1  0  0  0  0
  6 24  1  0  0  0  0
  7  8  1  0  0  0  0
  7 16  1  0  0  0  0
  8  9  1  0  0  0  0
 10 11  1  0  0  0  0
 10  8  2  0  0  0  0
 12 14  1  0  0  0  0
 12  6  1  0  0  0  0
 13 12  1  0  0  0  0
 15 12  1  0  0  0  0
 16 17  1  0  0  0  0
 16 19  1  0  0  0  0
 18 16  1  0  0  0  0
 20  6  1  0  0  0  0
 20 23  1  0  0  0  0
 21 20  1  0  0  0  0
 22 20  1  0  0  0  0
 24 26  1  0  0  0  0
 24 27  1  0  0  0  0
 25 24  1  0  0  0  0
M  CHG  1   1  -1
M  END
