2
q = nan, confidence = 0.0

  5  4  0  0  0  0  0  0  0  0999 V2000
   -2.8134   -0.1996    0.0037 P   0  0  0  0  0  0  0  0  0  0  0  0
   -1.6249   -0.8806   -0.9229 O   0  0  0  0  0  1  0  0  0  0  0  0
   -2.7625   -0.8237    1.4000 O   0  0  0  0  0  1  0  0  0  0  0  0
   -2.5615    1.3588   -0.0727 O   0  0  0  0  0  0  0  0  0  0  0  0
   -3.9894   -0.5273   -0.7333 H   0  0  0  0  0  0  0  0  0  0  0  0
  1  3  1  0  0  0  0
  2  1  1  0  0  0  0
  4  1  2  0  0  0  0
  5  1  1  0  0  0  0
M  END
