1
q = -1

  6  5  0  0  0  0  0  0  0  0999 V2000
   -1.3470   -0.7639    0.8561 O   0  0  0  0  0  1  0  0  0  0  0  0
   -2.7695   -0.8023    0.1568 P   0  0  1  0  0  0  0  0  0  0  0  0
   -3.1032    0.8251   -0.0706 O   0  0  0  0  0  0  0  0  0  0  0  0
   -2.9428   -1.6070   -1.1049 O   0  0  0  0  0  0  0  0  0  0  0  0
   -3.6414   -1.1606    1.2250 H   0  0  0  0  0  0  0  0  0  0  0  0
   -3.7247    0.9157   -0.8226 H   0  0  0  0  0  0  0  0  0  0  0  0
  2  1  1  0  0  0  0
  2  5  1  1  0  0  0
  3  2  1  0  0  0  0
  4  2  2  0  0  0  0
  6  3  1  0  0  0  0
M  END
