2
q = -1.0, confidence = 0.002

 14 14  0  0  0  0  0  0  0  0999 V2000
    1.0313    6.0272   -0.4291 Cl  0  0  0  0  0  0  0  0  0  0  0  0
   -1.5998    0.8002    0.4471 O   0  5  0  0  0  0  0  0  0  0  0  0
   -1.0854    0.3426   -2.3261 O   0  0  0  0  0  0  0  0  0  0  0  0
   -0.9706    1.9348    0.2096 C   0  0  0  0  0  0  0  0  0  0  0  0
   -0.7830    2.8547    1.2823 C   0  0  0  0  0  0  0  0  0  0  0  0
   -1.1038    2.5333    2.2847 H   0  0  0  0  0  0  0  0  0  0  0  0
   -0.1837    4.0960    1.0867 C   0  0  0  0  0  0  0  0  0  0  0  0
   -0.0469    4.7888    1.9298 H   0  0  0  0  0  0  0  0  0  0  0  0
    0.2729    4.4693   -0.1976 C   0  0  0  0  0  0  0  0  0  0  0  0
    0.1266    3.5906   -1.2669 C   0  0  0  0  0  0  0  0  0  0  0  0
    0.4908    3.8749   -2.2664 H   0  0  0  0  0  0  0  0  0  0  0  0
   -0.4888    2.3259   -1.0912 C   0  0  0  0  0  0  0  0  0  0  0  0
   -0.5916    1.4746   -2.2704 C   0  0  0  0  0  0  0  0  0  0  0  0
   -0.1561    1.9370   -3.2048 H   0  0  0  0  0  0  0  0  0  0  0  0
  1  9  1  0  0  0  0
  3 13  2  0  0  0  0
  4  2  1  0  0  0  0
  4  5  1  0  0  0  0
  5  6  1  0  0  0  0
  7  5  2  0  0  0  0
  7  8  1  0  0  0  0
  9  7  1  0  0  0  0
 10 12  1  0  0  0  0
 10  9  2  0  0  0  0
 11 10  1  0  0  0  0
 12  4  2  0  0  0  0
 13 12  1  0  0  0  0
 14 13  1  0  0  0  0
M  CHG  1   2  -1
M  END
