1
q = -1.0, confidence = 0.448

 36 40  0  0  1  0  0  0  0  0999 V2000
    1.8049    2.0311    0.7048 O   0  0  0  0  0  1  0  0  0  0  0  0
    3.2507   -0.1445   -0.6623 C   0  0  2  0  0  0  0  0  0  0  0  0
    3.2751    0.2700    0.8797 C   0  0  1  0  0  0  0  0  0  0  0  0
    3.3907    0.9374   -1.7220 C   0  0  0  0  0  0  0  0  0  0  0  0
    4.0075    1.7796   -1.3570 H   0  0  0  0  0  0  0  0  0  0  0  0
    3.8960    0.5327   -2.6230 H   0  0  0  0  0  0  0  0  0  0  0  0
    1.5043    0.8663   -3.3004 C   0  0  0  0  0  0  0  0  0  0  0  0
    2.0394    1.3143   -4.1692 H   0  0  0  0  0  0  0  0  0  0  0  0
    0.4240    1.0893   -3.3680 H   0  0  0  0  0  0  0  0  0  0  0  0
    1.6354   -0.2283   -3.3180 H   0  0  0  0  0  0  0  0  0  0  0  0
    1.8992    2.8836   -2.0743 C   0  0  0  0  0  0  0  0  0  0  0  0
    2.4853    3.3156   -2.9181 H   0  0  0  0  0  0  0  0  0  0  0  0
    2.2360    3.3165   -1.1164 H   0  0  0  0  0  0  0  0  0  0  0  0
    0.8326    3.1450   -2.2140 H   0  0  0  0  0  0  0  0  0  0  0  0
    3.1109    1.7493    1.1755 C   0  0  0  0  0  0  0  0  0  0  0  0
    3.1821    1.9276    2.2699 H   0  0  0  0  0  0  0  0  0  0  0  0
    3.8628    2.4027    0.6746 H   0  0  0  0  0  0  0  0  0  0  0  0
    2.0215    1.4198   -2.0379 N   0  0  0  0  0  0  0  0  0  0  0  0
    2.2423   -0.6736    1.7717 B   0  0  1  0  0  0  0  0  0  0  0  0
    1.7452   -0.1657    2.7519 H   0  0  0  0  0  0  0  0  0  0  0  0
    1.5359   -1.8390    0.6522 B   0  0  0  0  0  0  0  0  0  0  0  0
    0.4660   -2.3846    0.8336 H   0  0  0  0  0  0  0  0  0  0  0  0
    2.1844   -1.4270   -0.9152 B   0  0  2  0  0  0  0  0  0  0  0  0
    1.6465   -1.5694   -1.9900 H   0  0  0  0  0  0  0  0  0  0  0  0
    4.6560   -0.5084    0.2634 B   0  0  0  0  0  0  0  0  0  0  0  0
    5.6609    0.1276    0.0501 H   0  0  0  0  0  0  0  0  0  0  0  0
    4.0023   -0.9020    1.8631 B   0  0  2  0  0  0  0  0  0  0  0  0
    4.6247   -0.5470    2.8370 H   0  0  0  0  0  0  0  0  0  0  0  0
    2.9107   -2.3053    1.7012 B   0  0  0  0  0  0  0  0  0  0  0  0
    2.7788   -3.0943    2.6122 H   0  0  0  0  0  0  0  0  0  0  0  0
    2.8936   -2.7874   -0.0150 B   0  0  2  0  0  0  0  0  0  0  0  0
    2.7641   -3.9308   -0.3951 H   0  0  0  0  0  0  0  0  0  0  0  0
    3.9531   -1.6698   -0.9017 B   0  0  2  0  0  0  0  0  0  0  0  0
    4.5479   -1.8578   -1.9381 H   0  0  0  0  0  0  0  0  0  0  0  0
    4.4232   -2.2097    0.7258 B   0  0  1  0  0  0  0  0  0  0  0  0
    5.3831   -2.9241    0.9015 H   0  0  0  0  0  0  0  0  0  0  0  0
  1 15  1  0  0  0  0
  2  4  1  6  0  0  0
  2  3  1  0  0  0  0
  3 15  1  1  0  0  0
  3 19  1  0  0  0  0
  3 27  1  0  0  0  0
  4  5  1  0  0  0  0
  6  4  1  0  0  0  0
  7 18  1  0  0  0  0
  8  7  1  0  0  0  0
  9  7  1  0  0  0  0
 10  7  1  0  0  0  0
 11 18  1  0  0  0  0
 11 13  1  0  0  0  0
 12 11  1  0  0  0  0
 14 11  1  0  0  0  0
 15 16  1  0  0  0  0
 17 15  1  0  0  0  0
 18  4  1  0  0  0  0
 19 20  1  1  0  0  0
 21 22  1  0  0  0  0
 21 19  1  0  0  0  0
 23 24  1  6  0  0  0
 23  2  1  0  0  0  0
 23 31  1  0  0  0  0
 23 21  1  0  0  0  0
 25 35  1  0  0  0  0
 25 27  1  0  0  0  0
 26 25  1  0  0  0  0
 27 28  1  1  0  0  0
 29 19  1  0  0  0  0
 29 30  1  0  0  0  0
 31 32  1  6  0  0  0
 31 29  1  0  0  0  0
 33 34  1  6  0  0  0
 33  2  1  0  0  0  0
 33 31  1  0  0  0  0
 33 35  1  0  0  0  0
 35 36  1  1  0  0  0
 35 27  1  0  0  0  0
M  END
