1
q = -1.0

 21 21  0  0  0  0  0  0  0  0999 V2000
    1.2523   -2.0135    0.2835 O   0  5  0  0  0  0  0  0  0  0  0  0
    2.1749    0.0558    0.1150 O   0  0  0  0  0  0  0  0  0  0  0  0
    6.3634   -2.3379   -0.0059 O   0  0  0  0  0  0  0  0  0  0  0  0
    4.6509   -0.8578    0.2618 N   0  0  0  0  0  0  0  0  0  0  0  0
    2.2526   -1.1768    0.2255 C   0  0  0  0  0  0  0  0  0  0  0  0
    3.6181   -1.8606    0.3092 C   0  0  0  0  0  0  0  0  0  0  0  0
    5.9660   -1.1710    0.0802 C   0  0  0  0  0  0  0  0  0  0  0  0
    6.9153    0.0010   -0.0108 C   0  0  0  0  0  0  0  0  0  0  0  0
    6.5823    1.3144    0.3790 C   0  0  0  0  0  0  0  0  0  0  0  0
    7.5253    2.3472    0.2700 C   0  0  0  0  0  0  0  0  0  0  0  0
    8.8101    2.0784   -0.2287 C   0  0  0  0  0  0  0  0  0  0  0  0
    9.1521    0.7694   -0.6081 C   0  0  0  0  0  0  0  0  0  0  0  0
    8.2121   -0.2623   -0.4933 C   0  0  0  0  0  0  0  0  0  0  0  0
    4.2869    0.0968    0.1613 H   0  0  0  0  0  0  0  0  0  0  0  0
    3.6618   -2.4667    1.2413 H   0  0  0  0  0  0  0  0  0  0  0  0
    3.7212   -2.5938   -0.5212 H   0  0  0  0  0  0  0  0  0  0  0  0
    5.5889    1.5366    0.7986 H   0  0  0  0  0  0  0  0  0  0  0  0
    7.2574    3.3679    0.5834 H   0  0  0  0  0  0  0  0  0  0  0  0
    9.5487    2.8902   -0.3149 H   0  0  0  0  0  0  0  0  0  0  0  0
   10.1608    0.5535   -0.9929 H   0  0  0  0  0  0  0  0  0  0  0  0
    8.4490   -1.3012   -0.7673 H   0  0  0  0  0  0  0  0  0  0  0  0
  2  5  2  0  0  0  0
  3  7  2  0  0  0  0
  4  6  1  0  0  0  0
  5  1  1  0  0  0  0
  5  6  1  0  0  0  0
  6 15  1  0  0  0  0
  7  4  1  0  0  0  0
  8  7  1  0  0  0  0
  8  9  1  0  0  0  0
  9 17  1  0  0  0  0
 10  9  2  0  0  0  0
 10 18  1  0  0  0  0
 11 10  1  0  0  0  0
 12 13  1  0  0  0  0
 12 11  2  0  0  0  0
 13  8  2  0  0  0  0
 14  4  1  0  0  0  0
 16  6  1  0  0  0  0
 19 11  1  0  0  0  0
 20 12  1  0  0  0  0
 21 13  1  0  0  0  0
M  CHG  1   1  -1
M  END
