1
q = -1.0

 26 26  0  0  1  0  0  0  0  0999 V2000
    0.5751    0.1249   -1.1832 O   0  0  0  0  0  1  0  0  0  0  0  0
    2.0255    0.1526   -1.2377 C   0  0  1  0  0  0  0  0  0  0  0  0
    2.5720    1.2703   -0.3510 C   0  0  0  0  0  0  0  0  0  0  0  0
    3.3736    0.7153    0.6005 C   0  0  0  0  0  0  0  0  0  0  0  0
    3.4077   -0.7657    0.4246 C   0  0  0  0  0  0  0  0  0  0  0  0
    2.6271   -1.1203   -0.6356 C   0  0  0  0  0  0  0  0  0  0  0  0
    2.4058    0.3340   -2.7088 C   0  0  0  0  0  0  0  0  0  0  0  0
    2.1478    2.6877   -0.5284 C   0  0  0  0  0  0  0  0  0  0  0  0
    4.0956    1.4064    1.7131 C   0  0  0  0  0  0  0  0  0  0  0  0
    4.1789   -1.6639    1.3389 C   0  0  0  0  0  0  0  0  0  0  0  0
    2.3197   -2.4700   -1.1890 C   0  0  0  0  0  0  0  0  0  0  0  0
    1.9865    1.2818   -3.1026 H   0  0  0  0  0  0  0  0  0  0  0  0
    3.5078    0.3588   -2.8185 H   0  0  0  0  0  0  0  0  0  0  0  0
    2.0041   -0.5022   -3.3155 H   0  0  0  0  0  0  0  0  0  0  0  0
    1.0547    2.7964   -0.3523 H   0  0  0  0  0  0  0  0  0  0  0  0
    2.6652    3.3652    0.1774 H   0  0  0  0  0  0  0  0  0  0  0  0
    2.3388    3.0582   -1.5594 H   0  0  0  0  0  0  0  0  0  0  0  0
    3.9886    2.5064    1.6597 H   0  0  0  0  0  0  0  0  0  0  0  0
    3.7005    1.0786    2.6985 H   0  0  0  0  0  0  0  0  0  0  0  0
    5.1803    1.1670    1.7110 H   0  0  0  0  0  0  0  0  0  0  0  0
    3.8115   -1.5734    2.3837 H   0  0  0  0  0  0  0  0  0  0  0  0
    4.0948   -2.7273    1.0454 H   0  0  0  0  0  0  0  0  0  0  0  0
    5.2574   -1.3980    1.3602 H   0  0  0  0  0  0  0  0  0  0  0  0
    1.2312   -2.6853   -1.1275 H   0  0  0  0  0  0  0  0  0  0  0  0
    2.6086   -2.5537   -2.2599 H   0  0  0  0  0  0  0  0  0  0  0  0
    2.8449   -3.2702   -0.6334 H   0  0  0  0  0  0  0  0  0  0  0  0
  2  1  1  1  0  0  0
  2  6  1  0  0  0  0
  2  3  1  0  0  0  0
  3  4  2  0  0  0  0
  4  9  1  0  0  0  0
  5  4  1  0  0  0  0
  5 10  1  0  0  0  0
  6  5  2  0  0  0  0
  7  2  1  0  0  0  0
  8 15  1  0  0  0  0
  8  3  1  0  0  0  0
  8 16  1  0  0  0  0
  9 19  1  0  0  0  0
 10 23  1  0  0  0  0
 10 21  1  0  0  0  0
 11 24  1  0  0  0  0
 11  6  1  0  0  0  0
 11 26  1  0  0  0  0
 12  7  1  0  0  0  0
 13  7  1  0  0  0  0
 14  7  1  0  0  0  0
 17  8  1  0  0  0  0
 18  9  1  0  0  0  0
 20  9  1  0  0  0  0
 22 10  1  0  0  0  0
 25 11  1  0  0  0  0
M  END
