6
q = -1.0

 18 18  0  0  0  0  0  0  0  0999 V2000
   -3.3256    1.2921    1.8612 S   0  0  0  0  0  0  0  0  0  0  0  0
    0.3638   -4.2981    1.7024 F   0  0  0  0  0  0  0  0  0  0  0  0
    2.4114   -3.5640    1.5249 F   0  0  0  0  0  0  0  0  0  0  0  0
    1.1758   -3.7832   -0.2591 F   0  0  0  0  0  0  0  0  0  0  0  0
   -0.4915    0.6736    1.6894 O   0  0  0  0  0  0  0  0  0  0  0  0
    1.5314   -1.1541    0.6339 O   0  5  0  0  0  0  0  0  0  0  0  0
   -4.9261    0.6401    1.8480 C   0  0  0  0  0  0  0  0  0  0  0  0
   -5.7921    1.3140    1.8378 H   0  0  0  0  0  0  0  0  0  0  0  0
   -4.9285   -0.7470    1.8541 C   0  0  0  0  0  0  0  0  0  0  0  0
   -5.8456   -1.3521    1.8382 H   0  0  0  0  0  0  0  0  0  0  0  0
   -3.6138   -1.2885    1.8699 C   0  0  0  0  0  0  0  0  0  0  0  0
   -3.3897   -2.3628    1.8455 H   0  0  0  0  0  0  0  0  0  0  0  0
   -2.6231   -0.3086    1.8759 C   0  0  0  0  0  0  0  0  0  0  0  0
   -1.1519   -0.3933    1.8014 C   0  0  0  0  0  0  0  0  0  0  0  0
   -0.5567   -1.7120    1.7495 C   0  0  0  0  0  0  0  0  0  0  0  0
    0.6828   -1.9610    1.1789 C   0  0  0  0  0  0  0  0  0  0  0  0
    1.1550   -3.4157    1.0467 C   0  0  0  0  0  0  0  0  0  0  0  0
   -1.1513   -2.5814    2.0539 H   0  0  0  0  0  0  0  0  0  0  0  0
  1 13  1  0  0  0  0
  4 17  1  0  0  0  0
  5 14  2  0  0  0  0
  6 16  1  0  0  0  0
  7  9  2  0  0  0  0
  7  1  1  0  0  0  0
  8  7  1  0  0  0  0
  9 11  1  0  0  0  0
 10  9  1  0  0  0  0
 11 13  2  0  0  0  0
 12 11  1  0  0  0  0
 14 13  1  0  0  0  0
 15 14  1  0  0  0  0
 15 18  1  0  0  0  0
 16 15  2  0  0  0  0
 17 16  1  0  0  0  0
 17  3  1  0  0  0  0
 17  2  1  0  0  0  0
M  CHG  1   6  -1
M  END
