2
q = -1.0, confidence = 0.0

 21 21  0  0  0  0  0  0  0  0999 V2000
   -3.6455   -0.8252   -0.1804 I   0  0  0  0  0  0  0  0  0  0  0  0
   -1.9262    0.8636   -0.2741 O   0  0  0  0  0  1  0  0  0  0  0  0
   -3.9248    2.1707   -0.1332 C   0  0  0  0  0  0  0  0  0  0  0  0
   -4.6423    1.0324    0.2606 C   0  0  0  0  0  0  0  0  0  0  0  0
   -5.8875    1.0700    0.8950 C   0  0  0  0  0  0  0  0  0  0  0  0
   -6.3978    0.1589    1.2299 H   0  0  0  0  0  0  0  0  0  0  0  0
   -6.4747    2.3255    1.1200 C   0  0  0  0  0  0  0  0  0  0  0  0
   -7.4522    2.3812    1.6216 H   0  0  0  0  0  0  0  0  0  0  0  0
   -5.8080    3.4909    0.7184 C   0  0  0  0  0  0  0  0  0  0  0  0
   -6.2645    4.4760    0.8957 H   0  0  0  0  0  0  0  0  0  0  0  0
   -4.5487    3.4113    0.1072 C   0  0  0  0  0  0  0  0  0  0  0  0
   -4.0299    4.3345   -0.1851 H   0  0  0  0  0  0  0  0  0  0  0  0
   -2.5455    2.0436   -0.8117 C   0  0  0  0  0  0  0  0  0  0  0  0
   -1.6648    3.2622   -0.5185 C   0  0  0  0  0  0  0  0  0  0  0  0
   -1.5350    3.4119    0.5689 H   0  0  0  0  0  0  0  0  0  0  0  0
   -2.1003    4.1745   -0.9701 H   0  0  0  0  0  0  0  0  0  0  0  0
   -0.6699    3.1037   -0.9738 H   0  0  0  0  0  0  0  0  0  0  0  0
   -2.7315    1.8783   -2.3336 C   0  0  0  0  0  0  0  0  0  0  0  0
   -1.7377    1.7305   -2.7996 H   0  0  0  0  0  0  0  0  0  0  0  0
   -3.2121    2.7776   -2.7660 H   0  0  0  0  0  0  0  0  0  0  0  0
   -3.3640    1.0010   -2.5731 H   0  0  0  0  0  0  0  0  0  0  0  0
  1  4  1  0  0  0  0
  3 11  2  0  0  0  0
  3  4  1  0  0  0  0
  4  5  2  0  0  0  0
  5  7  1  0  0  0  0
  5  6  1  0  0  0  0
  7  8  1  0  0  0  0
  9 10  1  0  0  0  0
  9  7  2  0  0  0  0
 11  9  1  0  0  0  0
 12 11  1  0  0  0  0
 13 14  1  0  0  0  0
 13  2  1  0  0  0  0
 13  3  1  0  0  0  0
 14 15  1  0  0  0  0
 16 14  1  0  0  0  0
 17 14  1  0  0  0  0
 18 13  1  0  0  0  0
 19 18  1  0  0  0  0
 20 18  1  0  0  0  0
 21 18  1  0  0  0  0
M  END
