12
q = -1.0

 15 15  0  0  0  0  0  0  0  0999 V2000
   -2.6924    0.4949    0.4717 C   0  0  0  0  0  0  0  0  0  0  0  0
   -3.9059   -0.2823    0.1408 C   0  0  0  0  0  0  0  0  0  0  0  0
   -5.0602   -0.2104    0.9829 C   0  0  0  0  0  0  0  0  0  0  0  0
   -6.2051   -0.9664    0.6321 C   0  0  0  0  0  0  0  0  0  0  0  0
   -7.0859   -0.9026    1.2865 H   0  0  0  0  0  0  0  0  0  0  0  0
   -6.2104   -1.7666   -0.5096 C   0  0  0  0  0  0  0  0  0  0  0  0
   -7.0962   -2.3565   -0.7871 H   0  0  0  0  0  0  0  0  0  0  0  0
   -5.0658   -1.8268   -1.3265 C   0  0  0  0  0  0  0  0  0  0  0  0
   -3.9248   -1.0990   -1.0141 C   0  0  0  0  0  0  0  0  0  0  0  0
   -3.0325   -1.1496   -1.6520 H   0  0  0  0  0  0  0  0  0  0  0  0
   -2.7009    1.2193    1.5320 O   0  5  0  0  0  0  0  0  0  0  0  0
   -1.6825    0.4123   -0.3218 O   0  0  0  0  0  0  0  0  0  0  0  0
   -5.0866   -2.6064   -2.4278 F   0  0  0  0  0  0  0  0  0  0  0  0
   -5.1020    0.5427    2.0885 O   0  0  0  0  0  0  0  0  0  0  0  0
   -4.1980    0.9823    2.1414 H   0  0  0  0  0  0  0  0  0  0  0  0
  1 11  1  0  0  0  0
  2  1  1  0  0  0  0
  2  3  1  0  0  0  0
  3 14  1  0  0  0  0
  4  3  2  0  0  0  0
  4  5  1  0  0  0  0
  6  4  1  0  0  0  0
  7  6  1  0  0  0  0
  8  9  1  0  0  0  0
  8  6  2  0  0  0  0
  9  2  2  0  0  0  0
 10  9  1  0  0  0  0
 12  1  2  0  0  0  0
 13  8  1  0  0  0  0
 14 15  1  0  0  0  0
M  CHG  1  11  -1
M  END
