1
q = -1.0

 16 16  0  0  0  0  0  0  0  0999 V2000
    2.2872   -0.0852   -0.5546 O   0  5  0  0  0  0  0  0  0  0  0  0
    3.1266    1.2720    1.0612 O   0  0  0  0  0  0  0  0  0  0  0  0
    4.1431   -3.5926    0.8198 O   0  0  0  0  0  0  0  0  0  0  0  0
    3.1504   -1.8296    1.6411 O   0  0  0  0  0  0  0  0  0  0  0  0
    4.0174   -2.3757    0.9487 N   0  0  0  0  0  0  0  0  0  0  0  0
    4.6007   -0.1851   -0.0990 C   0  0  0  0  0  0  0  0  0  0  0  0
    4.9680   -1.5044    0.2320 C   0  0  0  0  0  0  0  0  0  0  0  0
    6.2255   -2.0379   -0.0878 C   0  0  0  0  0  0  0  0  0  0  0  0
    6.4446   -3.0777    0.1898 H   0  0  0  0  0  0  0  0  0  0  0  0
    7.1615   -1.2273   -0.7381 C   0  0  0  0  0  0  0  0  0  0  0  0
    8.1559   -1.6275   -0.9837 H   0  0  0  0  0  0  0  0  0  0  0  0
    6.8256    0.0978   -1.0696 C   0  0  0  0  0  0  0  0  0  0  0  0
    7.5587    0.7375   -1.5836 H   0  0  0  0  0  0  0  0  0  0  0  0
    5.5602    0.6107   -0.7523 C   0  0  0  0  0  0  0  0  0  0  0  0
    5.2936    1.6446   -1.0208 H   0  0  0  0  0  0  0  0  0  0  0  0
    3.2182    0.3740    0.1764 C   0  0  0  0  0  0  0  0  0  0  0  0
  1 16  1  0  0  0  0
  3  5  2  0  0  0  0
  5  4  2  0  0  0  0
  6 16  1  0  0  0  0
  6  7  1  0  0  0  0
  7  5  1  0  0  0  0
  8  9  1  0  0  0  0
  8  7  2  0  0  0  0
 10  8  1  0  0  0  0
 11 10  1  0  0  0  0
 12 14  1  0  0  0  0
 12 10  2  0  0  0  0
 13 12  1  0  0  0  0
 14  6  2  0  0  0  0
 15 14  1  0  0  0  0
 16  2  2  0  0  0  0
M  CHG  1   1  -1
M  END
