3
q = -1.0

 17 17  0  0  0  0  0  0  0  0999 V2000
    2.7907   -1.0638    1.4050 H   0  0  0  0  0  0  0  0  0  0  0  0
   -0.8914    2.2009   -0.5849 O   0  5  0  0  0  0  0  0  0  0  0  0
    0.3221    0.3167   -0.2441 O   0  0  0  0  0  0  0  0  0  0  0  0
    2.7198   -0.0685    1.3282 O   0  0  0  0  0  0  0  0  0  0  0  0
    3.3896   -0.5051   -0.7925 O   0  0  0  0  0  0  0  0  0  0  0  0
    0.1852    1.5859   -0.4280 C   0  0  0  0  0  0  0  0  0  0  0  0
    1.4963    2.3520   -0.4523 C   0  0  0  0  0  0  0  0  0  0  0  0
    2.9442    0.2622    0.0503 C   0  0  0  0  0  0  0  0  0  0  0  0
    2.7527    1.7369   -0.2262 C   0  0  0  0  0  0  0  0  0  0  0  0
    1.4484    3.7298   -0.7377 C   0  0  0  0  0  0  0  0  0  0  0  0
    0.4519    4.1634   -0.9100 H   0  0  0  0  0  0  0  0  0  0  0  0
    3.8602    3.8873   -0.5922 C   0  0  0  0  0  0  0  0  0  0  0  0
    4.7878    4.4778   -0.6481 H   0  0  0  0  0  0  0  0  0  0  0  0
    2.6146    4.5005   -0.8037 C   0  0  0  0  0  0  0  0  0  0  0  0
    2.5572    5.5771   -1.0270 H   0  0  0  0  0  0  0  0  0  0  0  0
    3.9243    2.5152   -0.3136 C   0  0  0  0  0  0  0  0  0  0  0  0
    4.9003    2.0305   -0.1580 H   0  0  0  0  0  0  0  0  0  0  0  0
  2  6  1  0  0  0  0
  4  1  1  0  0  0  0
  5  8  2  0  0  0  0
  6  3  2  0  0  0  0
  7  6  1  0  0  0  0
  7  9  1  0  0  0  0
  8  4  1  0  0  0  0
  9  8  1  0  0  0  0
 10  7  2  0  0  0  0
 11 10  1  0  0  0  0
 12 16  1  0  0  0  0
 13 12  1  0  0  0  0
 14 10  1  0  0  0  0
 14 12  2  0  0  0  0
 15 14  1  0  0  0  0
 16  9  2  0  0  0  0
 16 17  1  0  0  0  0
M  CHG  1   2  -1
M  END
