2
q = -1.0, confidence = 0.164

 27 31  0  0  1  0  0  0  0  0999 V2000
   -2.1220    1.0753   -2.9111 O   0  5  0  0  0  0  0  0  0  0  0  0
   -0.2440    0.4571   -1.8383 O   0  0  0  0  0  0  0  0  0  0  0  0
   -2.2619    0.3752   -0.5935 C   0  0  2  0  0  0  0  0  0  0  0  0
   -3.7087   -0.4766   -0.5820 C   0  0  1  0  0  0  0  0  0  0  0  0
   -4.3458   -0.8639   -1.9021 C   0  0  0  0  0  0  0  0  0  0  0  0
   -5.4316   -0.6636   -1.8543 H   0  0  0  0  0  0  0  0  0  0  0  0
   -4.1898   -1.9385   -2.1074 H   0  0  0  0  0  0  0  0  0  0  0  0
   -3.9070   -0.2638   -2.7212 H   0  0  0  0  0  0  0  0  0  0  0  0
   -1.5308    0.6737   -1.9152 C   0  0  0  0  0  0  0  0  0  0  0  0
   -2.2144   -1.2487   -0.1537 B   0  0  2  0  0  0  0  0  0  0  0  0
   -1.8075   -2.0271   -0.9727 H   0  0  0  0  0  0  0  0  0  0  0  0
   -2.1907    1.4556    0.6949 B   0  0  2  0  0  0  0  0  0  0  0  0
   -1.7236    2.5474    0.5133 H   0  0  0  0  0  0  0  0  0  0  0  0
   -3.7207    1.1789   -0.1583 B   0  0  0  0  0  0  0  0  0  0  0  0
   -4.1915    1.9568   -0.9450 H   0  0  0  0  0  0  0  0  0  0  0  0
   -3.7083   -1.5284    0.7578 B   0  0  1  0  0  0  0  0  0  0  0  0
   -4.2573   -2.5946    0.6230 H   0  0  0  0  0  0  0  0  0  0  0  0
   -2.1649   -1.2503    1.6097 B   0  0  1  0  0  0  0  0  0  0  0  0
   -1.6713   -2.1703    2.2152 H   0  0  0  0  0  0  0  0  0  0  0  0
   -2.1329    0.4480    2.1493 B   0  0  2  0  0  0  0  0  0  0  0  0
   -1.5626    0.8096    3.1550 H   0  0  0  0  0  0  0  0  0  0  0  0
   -3.6767    1.2121    1.6217 B   0  0  0  0  0  0  0  0  0  0  0  0
   -4.1964    2.1273    2.2161 H   0  0  0  0  0  0  0  0  0  0  0  0
   -4.6378   -0.0174    0.7757 B   0  0  2  0  0  0  0  0  0  0  0  0
   -5.8374   -0.0356    0.6512 H   0  0  0  0  0  0  0  0  0  0  0  0
   -3.6633   -0.4780    2.1961 B   0  0  0  0  0  0  0  0  0  0  0  0
   -4.1978   -0.8159    3.2265 H   0  0  0  0  0  0  0  0  0  0  0  0
  1  9  1  0  0  0  0
  3  9  1  6  0  0  0
  3  4  1  0  0  0  0
  3 10  1  0  0  0  0
  3 12  1  0  0  0  0
  4  5  1  6  0  0  0
  4 16  1  0  0  0  0
  4 24  1  0  0  0  0
  5  6  1  0  0  0  0
  7  5  1  0  0  0  0
  8  5  1  0  0  0  0
  9  2  2  0  0  0  0
 10 11  1  6  0  0  0
 10 16  1  0  0  0  0
 10 18  1  0  0  0  0
 12 13  1  6  0  0  0
 12 22  1  0  0  0  0
 12 20  1  0  0  0  0
 14 24  1  0  0  0  0
 14 22  1  0  0  0  0
 15 14  1  0  0  0  0
 16 17  1  6  0  0  0
 16 24  1  0  0  0  0
 18 20  1  0  0  0  0
 18 26  1  0  0  0  0
 18 19  1  1  0  0  0
 20 26  1  0  0  0  0
 20 21  1  1  0  0  0
 22 23  1  0  0  0  0
 24 25  1  6  0  0  0
 26 27  1  0  0  0  0
M  CHG  1   1  -1
M  END
