1
q = -1.0, confidence = 0.012

 54 55  0  0  0  0  0  0  0  0999 V2000
   -0.5722   -0.9630   -0.5513 O   0  5  0  0  0  0  0  0  0  0  0  0
    0.7354   -0.6412   -0.4224 C   0  0  0  0  0  0  0  0  0  0  0  0
    1.6933   -1.6270   -0.0224 C   0  0  0  0  0  0  0  0  0  0  0  0
    3.0216   -1.1927    0.1208 C   0  0  0  0  0  0  0  0  0  0  0  0
    3.7687   -1.9249    0.4507 H   0  0  0  0  0  0  0  0  0  0  0  0
    3.4617    0.1163   -0.1614 C   0  0  0  0  0  0  0  0  0  0  0  0
    2.5025    1.0210   -0.6370 C   0  0  0  0  0  0  0  0  0  0  0  0
    2.7989    2.0335   -0.9440 H   0  0  0  0  0  0  0  0  0  0  0  0
    1.1455    0.6759   -0.7654 C   0  0  0  0  0  0  0  0  0  0  0  0
    1.3322   -3.1155    0.1753 C   0  0  0  0  0  0  0  0  0  0  0  0
    0.7076   -3.6655   -1.1296 C   0  0  0  0  0  0  0  0  0  0  0  0
    1.4200   -3.5632   -1.9731 H   0  0  0  0  0  0  0  0  0  0  0  0
   -0.2295   -3.1452   -1.3961 H   0  0  0  0  0  0  0  0  0  0  0  0
    0.4696   -4.7424   -1.0094 H   0  0  0  0  0  0  0  0  0  0  0  0
    0.3539   -3.3000    1.3560 C   0  0  0  0  0  0  0  0  0  0  0  0
    0.7743   -2.8732    2.2896 H   0  0  0  0  0  0  0  0  0  0  0  0
    0.1658   -4.3799    1.5270 H   0  0  0  0  0  0  0  0  0  0  0  0
   -0.6243   -2.8325    1.1571 H   0  0  0  0  0  0  0  0  0  0  0  0
    2.5792   -3.9678    0.4835 C   0  0  0  0  0  0  0  0  0  0  0  0
    3.3341   -3.9125   -0.3263 H   0  0  0  0  0  0  0  0  0  0  0  0
    2.2754   -5.0289    0.5825 H   0  0  0  0  0  0  0  0  0  0  0  0
    3.0661   -3.6739    1.4356 H   0  0  0  0  0  0  0  0  0  0  0  0
    4.9426    0.4844    0.0292 C   0  0  0  0  0  0  0  0  0  0  0  0
    5.2240    1.9515   -0.3381 C   0  0  0  0  0  0  0  0  0  0  0  0
    4.9979    2.1610   -1.4031 H   0  0  0  0  0  0  0  0  0  0  0  0
    6.2960    2.1816   -0.1742 H   0  0  0  0  0  0  0  0  0  0  0  0
    4.6325    2.6528    0.2846 H   0  0  0  0  0  0  0  0  0  0  0  0
    5.8176   -0.4207   -0.8678 C   0  0  0  0  0  0  0  0  0  0  0  0
    5.6902   -1.4932   -0.6200 H   0  0  0  0  0  0  0  0  0  0  0  0
    6.8915   -0.1716   -0.7405 H   0  0  0  0  0  0  0  0  0  0  0  0
    5.5567   -0.2883   -1.9372 H   0  0  0  0  0  0  0  0  0  0  0  0
    5.3275    0.2694    1.5108 C   0  0  0  0  0  0  0  0  0  0  0  0
    5.1755   -0.7821    1.8261 H   0  0  0  0  0  0  0  0  0  0  0  0
    4.7163    0.9126    2.1759 H   0  0  0  0  0  0  0  0  0  0  0  0
    6.3962    0.5196    1.6751 H   0  0  0  0  0  0  0  0  0  0  0  0
    0.1754    1.6851   -1.3439 C   0  0  0  0  0  0  0  0  0  0  0  0
    0.7204    2.2558   -2.1429 H   0  0  0  0  0  0  0  0  0  0  0  0
   -0.6555    1.1525   -1.8461 H   0  0  0  0  0  0  0  0  0  0  0  0
   -0.4277    2.6190   -0.3839 N   0  0  0  0  0  0  0  0  0  0  0  0
    0.5454    3.4725    0.2943 C   0  0  0  0  0  0  0  0  0  0  0  0
    1.1048    4.1071   -0.4501 H   0  0  0  0  0  0  0  0  0  0  0  0
    1.2983    2.8260    0.7877 H   0  0  0  0  0  0  0  0  0  0  0  0
   -0.1234    4.3797    1.3298 C   0  0  0  0  0  0  0  0  0  0  0  0
   -0.5518    3.7480    2.1386 H   0  0  0  0  0  0  0  0  0  0  0  0
    0.6472    5.0246    1.8010 H   0  0  0  0  0  0  0  0  0  0  0  0
   -1.2323    5.2223    0.6929 C   0  0  0  0  0  0  0  0  0  0  0  0
   -0.7784    5.9377   -0.0295 H   0  0  0  0  0  0  0  0  0  0  0  0
   -1.7561    5.8333    1.4571 H   0  0  0  0  0  0  0  0  0  0  0  0
   -2.2148    4.3122   -0.0502 C   0  0  0  0  0  0  0  0  0  0  0  0
   -2.7698    3.6869    0.6829 H   0  0  0  0  0  0  0  0  0  0  0  0
   -2.9733    4.9073   -0.5998 H   0  0  0  0  0  0  0  0  0  0  0  0
   -1.4826    3.4005   -1.0369 C   0  0  0  0  0  0  0  0  0  0  0  0
   -2.1919    2.6886   -1.5074 H   0  0  0  0  0  0  0  0  0  0  0  0
   -1.0516    4.0257   -1.8673 H   0  0  0  0  0  0  0  0  0  0  0  0
  1  2  1  0  0  0  0
  2  3  1  0  0  0  0
  3  4  2  0  0  0  0
  3 10  1  0  0  0  0
  4  5  1  0  0  0  0
  6 23  1  0  0  0  0
  6  4  1  0  0  0  0
  7  6  2  0  0  0  0
  8  7  1  0  0  0  0
  9  7  1  0  0  0  0
  9  2  2  0  0  0  0
 10 19  1  0  0  0  0
 10 15  1  0  0  0  0
 11 14  1  0  0  0  0
 11 10  1  0  0  0  0
 12 11  1  0  0  0  0
 13 11  1  0  0  0  0
 15 17  1  0  0  0  0
 15 16  1  0  0  0  0
 18 15  1  0  0  0  0
 19 21  1  0  0  0  0
 19 22  1  0  0  0  0
 20 19  1  0  0  0  0
 23 32  1  0  0  0  0
 24 26  1  0  0  0  0
 24 23  1  0  0  0  0
 24 27  1  0  0  0  0
 25 24  1  0  0  0  0
 28 30  1  0  0  0  0
 28 29  1  0  0  0  0
 28 23  1  0  0  0  0
 31 28  1  0  0  0  0
 32 35  1  0  0  0  0
 32 33  1  0  0  0  0
 32 34  1  0  0  0  0
 36  9  1  0  0  0  0
 36 39  1  0  0  0  0
 37 36  1  0  0  0  0
 38 36  1  0  0  0  0
 39 40  1  0  0  0  0
 40 42  1  0  0  0  0
 40 43  1  0  0  0  0
 41 40  1  0  0  0  0
 43 45  1  0  0  0  0
 43 44  1  0  0  0  0
 46 43  1  0  0  0  0
 46 48  1  0  0  0  0
 47 46  1  0  0  0  0
 49 50  1  0  0  0  0
 49 46  1  0  0  0  0
 51 49  1  0  0  0  0
 52 39  1  0  0  0  0
 52 49  1  0  0  0  0
 53 52  1  0  0  0  0
 54 52  1  0  0  0  0
M  CHG  1   1  -1
M  END
