33
q = 0.0, confidence = 0.99

 37 39  0  0  1  0  0  0  0  0999 V2000
   -0.7170    0.0239    0.1121 P   0  0  0  0  0  0  0  0  0  0  0  0
   -1.8860    0.8777   -1.0058 C   0  0  0  0  0  0  0  0  0  0  0  0
   -1.3680    1.8427   -1.8931 C   0  0  0  0  0  0  0  0  0  0  0  0
   -0.2801    2.0037   -1.9473 H   0  0  0  0  0  0  0  0  0  0  0  0
   -2.2369    2.5799   -2.7098 C   0  0  0  0  0  0  0  0  0  0  0  0
   -1.8295    3.3294   -3.4042 H   0  0  0  0  0  0  0  0  0  0  0  0
   -3.6206    2.3528   -2.6471 C   0  0  0  0  0  0  0  0  0  0  0  0
   -4.3013    2.9260   -3.2941 H   0  0  0  0  0  0  0  0  0  0  0  0
   -4.1393    1.3891   -1.7653 C   0  0  0  0  0  0  0  0  0  0  0  0
   -5.2233    1.2065   -1.7228 H   0  0  0  0  0  0  0  0  0  0  0  0
   -3.2781    0.6524   -0.9413 C   0  0  0  0  0  0  0  0  0  0  0  0
   -3.6915   -0.1091   -0.2630 H   0  0  0  0  0  0  0  0  0  0  0  0
   -1.4847   -1.5843    0.5219 C   0  0  0  0  0  0  0  0  0  0  0  0
   -1.9986   -2.3653   -0.5372 C   0  0  0  0  0  0  0  0  0  0  0  0
   -2.0362   -1.9628   -1.5604 H   0  0  0  0  0  0  0  0  0  0  0  0
   -2.4641   -3.6642   -0.2844 C   0  0  0  0  0  0  0  0  0  0  0  0
   -2.8679   -4.2656   -1.1123 H   0  0  0  0  0  0  0  0  0  0  0  0
   -2.4213   -4.1914    1.0164 C   0  0  0  0  0  0  0  0  0  0  0  0
   -2.7917   -5.2088    1.2107 H   0  0  0  0  0  0  0  0  0  0  0  0
   -1.9077   -3.4178    2.0697 C   0  0  0  0  0  0  0  0  0  0  0  0
   -1.8761   -3.8259    3.0908 H   0  0  0  0  0  0  0  0  0  0  0  0
   -1.4337   -2.1201    1.8265 C   0  0  0  0  0  0  0  0  0  0  0  0
   -1.0329   -1.5233    2.6595 H   0  0  0  0  0  0  0  0  0  0  0  0
   -0.9318    0.9441    1.6239 N   0  0  0  0  0  0  0  0  0  0  0  0
   -2.0959    0.9936    2.3522 C   0  0  0  0  0  0  0  0  0  0  0  0
   -2.9353    0.3322    2.1116 H   0  0  0  0  0  0  0  0  0  0  0  0
   -1.9801    1.9616    3.3540 C   0  0  0  0  0  0  0  0  0  0  0  0
   -2.7458    2.2068    4.0980 H   0  0  0  0  0  0  0  0  0  0  0  0
   -0.7062    2.5450    3.2172 C   0  0  0  0  0  0  0  0  0  0  0  0
   -0.2827    3.3410    3.8394 H   0  0  0  0  0  0  0  0  0  0  0  0
   -0.0510    1.9179    2.1333 C   0  0  0  0  0  0  0  0  0  0  0  0
    1.2473    2.2314    1.6092 C   0  0  1  0  0  3  0  0  0  0  0  0
    1.8121    1.6245    0.6501 O   0  0  0  0  0  1  0  0  0  0  0  0
    2.0133    3.3769    2.2207 C   0  0  0  0  0  0  0  0  0  0  0  0
    3.0144    3.4334    1.7586 H   0  0  0  0  0  0  0  0  0  0  0  0
    2.1188    3.2531    3.3166 H   0  0  0  0  0  0  0  0  0  0  0  0
    1.4826    4.3352    2.0471 H   0  0  0  0  0  0  0  0  0  0  0  0
  1 13  1  0  0  0  0
  1 24  1  0  0  0  0
  2 11  1  0  0  0  0
  2  1  1  0  0  0  0
  3  2  2  0  0  0  0
  4  3  1  0  0  0  0
  5  7  2  0  0  0  0
  5  3  1  0  0  0  0
  6  5  1  0  0  0  0
  7  9  1  0  0  0  0
  8  7  1  0  0  0  0
  9 10  1  0  0  0  0
  9 11  2  0  0  0  0
 11 12  1  0  0  0  0
 13 22  1  0  0  0  0
 14 16  1  0  0  0  0
 14 13  2  0  0  0  0
 15 14  1  0  0  0  0
 16 18  2  0  0  0  0
 17 16  1  0  0  0  0
 18 19  1  0  0  0  0
 18 20  1  0  0  0  0
 20 21  1  0  0  0  0
 22 20  2  0  0  0  0
 22 23  1  0  0  0  0
 24 31  1  0  0  0  0
 24 25  1  0  0  0  0
 25 27  2  0  0  0  0
 26 25  1  0  0  0  0
 27 28  1  0  0  0  0
 29 27  1  0  0  0  0
 29 30  1  0  0  0  0
 31 29  2  0  0  0  0
 32 33  1  6  0  0  0
 32 31  1  0  0  0  0
 32 34  1  0  0  0  0
 34 36  1  0  0  0  0
 35 34  1  0  0  0  0
 37 34  1  0  0  0  0
M  END
