1
q = -1.0

 12 13  0  0  1  0  0  0  0  0999 V2000
    0.0229    0.4423    0.3324 O   0  5  0  0  0  0  0  0  0  0  0  0
    0.9197   -1.6377    0.0478 O   0  0  0  0  0  0  0  0  0  0  0  0
    2.3660    0.2487    0.2087 C   0  0  0  0  0  0  0  0  0  0  0  0
    2.5999    1.6330    0.4104 C   0  0  0  0  0  3  0  0  0  0  0  0
    1.8030    2.3721    0.5724 H   0  0  0  0  0  0  0  0  0  0  0  0
    3.9454    1.9239    0.3814 C   0  0  2  0  0  3  0  0  0  0  0  0
    5.2386    1.5282    0.2479 C   0  0  0  0  0  3  0  0  0  0  0  0
    6.2512    1.9621    0.2459 H   0  0  0  0  0  0  0  0  0  0  0  0
    4.6734    0.2957    0.0948 C   0  0  2  0  0  3  0  0  0  0  0  0
    3.5591   -0.5067    0.0314 C   0  0  0  0  0  0  0  0  0  0  0  0
    3.5751   -1.5928   -0.1283 H   0  0  0  0  0  0  0  0  0  0  0  0
    1.0039   -0.4072    0.1923 C   0  0  0  0  0  0  0  0  0  0  0  0
  2 12  2  0  0  0  0
  3  4  1  0  0  0  0
  4  5  1  0  0  0  0
  6  7  1  6  0  0  0
  6  4  1  0  0  0  0
  8  7  1  0  0  0  0
  9 10  1  6  0  0  0
  9  7  1  0  0  0  0
  9  6  1  0  0  0  0
 10  3  2  0  0  0  0
 11 10  1  0  0  0  0
 12  3  1  0  0  0  0
 12  1  1  0  0  0  0
M  CHG  1   1  -1
M  END
