1
q = -1.0

 30 30  0  0  1  0  0  0  0  0999 V2000
    0.0040   -0.2878    0.6927 O   0  0  0  0  0  1  0  0  0  0  0  0
   -1.4035   -0.2461    0.6789 C   0  0  1  0  0  0  0  0  0  0  0  0
   -1.7166    0.0064    1.7198 H   0  0  0  0  0  0  0  0  0  0  0  0
   -1.9325    0.8551   -0.2631 C   0  0  1  0  0  0  0  0  0  0  0  0
   -1.6373    0.5521   -1.2955 H   0  0  0  0  0  0  0  0  0  0  0  0
   -3.4716    0.8412   -0.2089 C   0  0  0  0  0  0  0  0  0  0  0  0
   -3.8069    1.1404    0.8087 H   0  0  0  0  0  0  0  0  0  0  0  0
   -3.8761    1.6043   -0.9040 H   0  0  0  0  0  0  0  0  0  0  0  0
   -4.0541   -0.5352   -0.5483 C   0  0  0  0  0  0  0  0  0  0  0  0
   -3.8079   -0.7906   -1.6046 H   0  0  0  0  0  0  0  0  0  0  0  0
   -5.1627   -0.5091   -0.4861 H   0  0  0  0  0  0  0  0  0  0  0  0
   -3.5053   -1.6433    0.3645 C   0  0  2  0  0  0  0  0  0  0  0  0
   -3.8193   -1.4027    1.4072 H   0  0  0  0  0  0  0  0  0  0  0  0
   -1.9697   -1.6272    0.3314 C   0  0  0  0  0  0  0  0  0  0  0  0
   -1.5472   -2.3756    1.0335 H   0  0  0  0  0  0  0  0  0  0  0  0
   -1.6198   -1.9098   -0.6868 H   0  0  0  0  0  0  0  0  0  0  0  0
   -1.2844    2.2399   -0.0034 C   0  0  0  0  0  0  0  0  0  0  0  0
   -0.1894    2.0922   -0.1170 H   0  0  0  0  0  0  0  0  0  0  0  0
   -1.4970    2.7722    1.4191 C   0  0  0  0  0  0  0  0  0  0  0  0
   -1.0606    2.0958    2.1805 H   0  0  0  0  0  0  0  0  0  0  0  0
   -2.5716    2.9199    1.6556 H   0  0  0  0  0  0  0  0  0  0  0  0
   -0.9945    3.7529    1.5392 H   0  0  0  0  0  0  0  0  0  0  0  0
   -1.7105    3.2693   -1.0576 C   0  0  0  0  0  0  0  0  0  0  0  0
   -2.7775    3.5570   -0.9534 H   0  0  0  0  0  0  0  0  0  0  0  0
   -1.5699    2.8812   -2.0888 H   0  0  0  0  0  0  0  0  0  0  0  0
   -1.1120    4.1977   -0.9630 H   0  0  0  0  0  0  0  0  0  0  0  0
   -4.0631   -3.0216    0.0042 C   0  0  0  0  0  0  0  0  0  0  0  0
   -5.1706   -3.0354    0.0587 H   0  0  0  0  0  0  0  0  0  0  0  0
   -3.6790   -3.8069    0.6865 H   0  0  0  0  0  0  0  0  0  0  0  0
   -3.7752   -3.3061   -1.0302 H   0  0  0  0  0  0  0  0  0  0  0  0
  2  1  1  0  0  0  0
  2  3  1  1  0  0  0
  4  5  1  6  0  0  0
  4  6  1  0  0  0  0
  4 17  1  0  0  0  0
  4  2  1  0  0  0  0
  6  7  1  0  0  0  0
  8  6  1  0  0  0  0
  9 11  1  0  0  0  0
  9  6  1  0  0  0  0
  9 12  1  0  0  0  0
 10  9  1  0  0  0  0
 12 13  1  1  0  0  0
 14 12  1  0  0  0  0
 14  2  1  0  0  0  0
 14 15  1  0  0  0  0
 16 14  1  0  0  0  0
 17 19  1  0  0  0  0
 18 17  1  0  0  0  0
 19 22  1  0  0  0  0
 19 21  1  0  0  0  0
 19 20  1  0  0  0  0
 23 26  1  0  0  0  0
 23 24  1  0  0  0  0
 23 17  1  0  0  0  0
 25 23  1  0  0  0  0
 27 28  1  0  0  0  0
 27 12  1  0  0  0  0
 27 29  1  0  0  0  0
 30 27  1  0  0  0  0
M  END
