1
q = 0.0, confidence = 0.986

 36 38  0  0  0  0  0  0  0  0999 V2000
    0.5138    1.6059   -1.4503 O   0  5  0  0  0  0  0  0  0  0  0  0
   -7.0456   -0.0485   -0.9456 O   0  0  0  0  0  0  0  0  0  0  0  0
   -1.4937    0.0415   -1.4804 N   0  0  0  0  0  4  0  0  0  0  0  0
   -1.0126    0.9796   -1.3883 H   0  0  0  0  0  0  0  0  0  0  0  0
    0.7868   -0.7492   -1.6769 C   0  0  0  0  0  0  0  0  0  0  0  0
    1.3112    0.6033   -1.6287 C   0  0  0  0  0  0  0  0  0  0  0  0
    2.7282    0.8095   -1.7808 C   0  0  0  0  0  0  0  0  0  0  0  0
    3.0797    1.8534   -1.7647 H   0  0  0  0  0  0  0  0  0  0  0  0
    3.5795   -0.2600   -1.9144 C   0  0  0  0  0  0  0  0  0  0  0  0
    4.6622   -0.0883   -2.0204 H   0  0  0  0  0  0  0  0  0  0  0  0
    3.1135   -1.6195   -1.8883 C   0  0  0  0  0  0  0  0  0  0  0  0
    4.0294   -2.7000   -1.9626 C   0  0  0  0  0  0  0  0  0  0  0  0
    5.1024   -2.4705   -2.0501 H   0  0  0  0  0  0  0  0  0  0  0  0
    3.5927   -4.0191   -1.8993 C   0  0  0  0  0  0  0  0  0  0  0  0
    4.3138   -4.8481   -1.9492 H   0  0  0  0  0  0  0  0  0  0  0  0
    2.2131   -4.2829   -1.7544 C   0  0  0  0  0  0  0  0  0  0  0  0
    1.8562   -5.3224   -1.6934 H   0  0  0  0  0  0  0  0  0  0  0  0
    1.2929   -3.2369   -1.6859 C   0  0  0  0  0  0  0  0  0  0  0  0
    0.2284   -3.4864   -1.5657 H   0  0  0  0  0  0  0  0  0  0  0  0
    1.7059   -1.8799   -1.7585 C   0  0  0  0  0  0  0  0  0  0  0  0
   -0.6115   -0.9475   -1.6150 C   0  0  0  0  0  0  0  0  0  0  0  0
   -1.0200   -1.9665   -1.6806 H   0  0  0  0  0  0  0  0  0  0  0  0
   -2.8913   -0.0458   -1.4032 C   0  0  0  0  0  0  0  0  0  0  0  0
   -3.6088    1.1447   -1.1408 C   0  0  0  0  0  0  0  0  0  0  0  0
   -3.0538    2.0859   -0.9894 H   0  0  0  0  0  0  0  0  0  0  0  0
   -4.9942    1.1107   -1.0087 C   0  0  0  0  0  0  0  0  0  0  0  0
   -5.5623    2.0264   -0.7909 H   0  0  0  0  0  0  0  0  0  0  0  0
   -5.6971   -0.1079   -1.1339 C   0  0  0  0  0  0  0  0  0  0  0  0
   -4.9867   -1.2924   -1.4174 C   0  0  0  0  0  0  0  0  0  0  0  0
   -5.5058   -2.2535   -1.5209 H   0  0  0  0  0  0  0  0  0  0  0  0
   -3.5939   -1.2569   -1.5497 C   0  0  0  0  0  0  0  0  0  0  0  0
   -3.0643   -2.1956   -1.7634 H   0  0  0  0  0  0  0  0  0  0  0  0
   -7.7971   -1.2404   -1.0983 C   0  0  0  0  0  0  0  0  0  0  0  0
   -7.7075   -1.6530   -2.1277 H   0  0  0  0  0  0  0  0  0  0  0  0
   -8.8525   -0.9713   -0.9087 H   0  0  0  0  0  0  0  0  0  0  0  0
   -7.4831   -2.0227   -0.3714 H   0  0  0  0  0  0  0  0  0  0  0  0
  3 23  1  0  0  0  0
  3  4  1  0  0  0  0
  5  6  1  0  0  0  0
  5 21  1  0  0  0  0
  6  1  1  0  0  0  0
  7  8  1  0  0  0  0
  7  6  2  0  0  0  0
  9 11  2  0  0  0  0
  9  7  1  0  0  0  0
 10  9  1  0  0  0  0
 11 20  1  0  0  0  0
 12 14  2  0  0  0  0
 12 11  1  0  0  0  0
 13 12  1  0  0  0  0
 14 16  1  0  0  0  0
 15 14  1  0  0  0  0
 16 17  1  0  0  0  0
 16 18  2  0  0  0  0
 18 19  1  0  0  0  0
 20 18  1  0  0  0  0
 20  5  2  0  0  0  0
 21  3  2  0  0  0  0
 22 21  1  0  0  0  0
 23 24  1  0  0  0  0
 24 26  2  0  0  0  0
 24 25  1  0  0  0  0
 26 27  1  0  0  0  0
 28 26  1  0  0  0  0
 28  2  1  0  0  0  0
 29 28  2  0  0  0  0
 30 29  1  0  0  0  0
 31 29  1  0  0  0  0
 31 23  2  0  0  0  0
 32 31  1  0  0  0  0
 33  2  1  0  0  0  0
 33 35  1  0  0  0  0
 33 36  1  0  0  0  0
 34 33  1  0  0  0  0
M  CHG  1   1  -1
M  END
