1
q = -1.0, confidence = 0.002

 18 18  0  0  0  0  0  0  0  0999 V2000
    0.6851   -0.1037    0.3368 O   0  5  0  0  0  0  0  0  0  0  0  0
    0.7855   -0.2761    2.6036 O   0  0  0  0  0  0  0  0  0  0  0  0
    1.3128   -0.2135    1.4552 C   0  0  0  0  0  0  0  0  0  0  0  0
    2.8038   -0.2613    1.3702 C   0  0  0  0  0  0  0  0  0  0  0  0
    3.3141   -0.3717    2.3400 H   0  0  0  0  0  0  0  0  0  0  0  0
    3.4772   -0.1604    0.1968 C   0  0  0  0  0  0  0  0  0  0  0  0
    2.8564   -0.0486   -0.7090 H   0  0  0  0  0  0  0  0  0  0  0  0
    4.9262   -0.1773   -0.0115 C   0  0  0  0  0  0  0  0  0  0  0  0
    5.4291   -0.0393   -1.3279 C   0  0  0  0  0  0  0  0  0  0  0  0
    4.7151    0.0750   -2.1588 H   0  0  0  0  0  0  0  0  0  0  0  0
    6.8068   -0.0463   -1.5826 C   0  0  0  0  0  0  0  0  0  0  0  0
    7.1739    0.0626   -2.6145 H   0  0  0  0  0  0  0  0  0  0  0  0
    7.7159   -0.1925   -0.5233 C   0  0  0  0  0  0  0  0  0  0  0  0
    8.7989   -0.1990   -0.7189 H   0  0  0  0  0  0  0  0  0  0  0  0
    7.2341   -0.3314    0.7913 C   0  0  0  0  0  0  0  0  0  0  0  0
    7.9422   -0.4470    1.6263 H   0  0  0  0  0  0  0  0  0  0  0  0
    5.8591   -0.3240    1.0451 C   0  0  0  0  0  0  0  0  0  0  0  0
    5.4964   -0.4338    2.0779 H   0  0  0  0  0  0  0  0  0  0  0  0
  1  3  1  0  0  0  0
  3  2  2  0  0  0  0
  4  3  1  0  0  0  0
  4  5  1  0  0  0  0
  6  4  2  0  0  0  0
  7  6  1  0  0  0  0
  8  6  1  0  0  0  0
  8 17  1  0  0  0  0
  9  8  2  0  0  0  0
 10  9  1  0  0  0  0
 11  9  1  0  0  0  0
 11 13  2  0  0  0  0
 12 11  1  0  0  0  0
 13 15  1  0  0  0  0
 14 13  1  0  0  0  0
 15 17  2  0  0  0  0
 15 16  1  0  0  0  0
 17 18  1  0  0  0  0
M  CHG  1   1  -1
M  END
