1
q = -1.0

 23 23  0  0  0  0  0  0  0  0999 V2000
   -1.7825   -1.1362   -0.1575 O   0  5  0  0  0  0  0  0  0  0  0  0
   -3.0910   -0.5205    1.5860 O   0  0  0  0  0  0  0  0  0  0  0  0
   -2.9173   -0.9686    0.4145 C   0  0  0  0  0  0  0  0  0  0  0  0
   -4.1513   -1.3410   -0.3831 C   0  0  0  0  0  0  0  0  0  0  0  0
   -4.2571   -2.6253   -0.9746 C   0  0  0  0  0  0  0  0  0  0  0  0
   -5.4249   -2.9569   -1.6858 C   0  0  0  0  0  0  0  0  0  0  0  0
   -5.5050   -3.9621   -2.1318 H   0  0  0  0  0  0  0  0  0  0  0  0
   -6.4844   -2.0489   -1.8481 C   0  0  0  0  0  0  0  0  0  0  0  0
   -6.3481   -0.7753   -1.2680 C   0  0  0  0  0  0  0  0  0  0  0  0
   -7.1604   -0.0394   -1.3892 H   0  0  0  0  0  0  0  0  0  0  0  0
   -5.2101   -0.4056   -0.5303 C   0  0  0  0  0  0  0  0  0  0  0  0
   -5.1268    0.9831    0.0545 C   0  0  0  0  0  0  0  0  0  0  0  0
   -4.2808    1.5479   -0.3898 H   0  0  0  0  0  0  0  0  0  0  0  0
   -4.9401    0.9475    1.1450 H   0  0  0  0  0  0  0  0  0  0  0  0
   -6.0550    1.5547   -0.1408 H   0  0  0  0  0  0  0  0  0  0  0  0
   -3.1529   -3.6478   -0.8588 C   0  0  0  0  0  0  0  0  0  0  0  0
   -2.2531   -3.3122   -1.4118 H   0  0  0  0  0  0  0  0  0  0  0  0
   -3.4760   -4.6268   -1.2627 H   0  0  0  0  0  0  0  0  0  0  0  0
   -2.8447   -3.7968    0.1968 H   0  0  0  0  0  0  0  0  0  0  0  0
   -7.7389   -2.4344   -2.5913 C   0  0  0  0  0  0  0  0  0  0  0  0
   -7.5557   -3.2661   -3.2999 H   0  0  0  0  0  0  0  0  0  0  0  0
   -8.1550   -1.5798   -3.1617 H   0  0  0  0  0  0  0  0  0  0  0  0
   -8.5324   -2.7707   -1.8890 H   0  0  0  0  0  0  0  0  0  0  0  0
  1  3  1  0  0  0  0
  3  2  2  0  0  0  0
  4  3  1  0  0  0  0
  5 16  1  0  0  0  0
  5  4  2  0  0  0  0
  6  5  1  0  0  0  0
  7  6  1  0  0  0  0
  8  6  2  0  0  0  0
  8  9  1  0  0  0  0
  9 11  2  0  0  0  0
 10  9  1  0  0  0  0
 11  4  1  0  0  0  0
 11 12  1  0  0  0  0
 12 14  1  0  0  0  0
 13 12  1  0  0  0  0
 15 12  1  0  0  0  0
 16 19  1  0  0  0  0
 17 16  1  0  0  0  0
 18 16  1  0  0  0  0
 20 23  1  0  0  0  0
 20  8  1  0  0  0  0
 21 20  1  0  0  0  0
 22 20  1  0  0  0  0
M  CHG  1   1  -1
M  END
