1
q = -1.0

 56 57  0  0  1  0  0  0  0  0999 V2000
    0.9673   -0.6284   -0.5759 O   0  0  0  0  0  1  0  0  0  0  0  0
   -0.3367   -0.9492   -0.6530 C   0  0  1  0  0  3  0  0  0  0  0  0
   -1.3042   -0.0123   -0.3095 C   0  0  0  0  0  3  0  0  0  0  0  0
   -0.5486   -2.3473   -1.2973 C   0  0  0  0  0  0  0  0  0  0  0  0
   -0.1574   -3.4892   -0.3342 C   0  0  0  0  0  0  0  0  0  0  0  0
    0.8773   -3.3650    0.0367 H   0  0  0  0  0  0  0  0  0  0  0  0
   -0.2006   -4.4564   -0.8764 H   0  0  0  0  0  0  0  0  0  0  0  0
   -0.8508   -3.5594    0.5233 H   0  0  0  0  0  0  0  0  0  0  0  0
   -1.9779   -2.5847   -1.8162 C   0  0  0  0  0  0  0  0  0  0  0  0
   -2.3206   -1.7576   -2.4685 H   0  0  0  0  0  0  0  0  0  0  0  0
   -2.7185   -2.7045   -1.0062 H   0  0  0  0  0  0  0  0  0  0  0  0
   -1.9839   -3.5164   -2.4182 H   0  0  0  0  0  0  0  0  0  0  0  0
    0.4041   -2.4143   -2.5211 C   0  0  0  0  0  0  0  0  0  0  0  0
    1.4638   -2.3578   -2.2103 H   0  0  0  0  0  0  0  0  0  0  0  0
    0.1928   -1.5977   -3.2411 H   0  0  0  0  0  0  0  0  0  0  0  0
    0.2497   -3.3781   -3.0466 H   0  0  0  0  0  0  0  0  0  0  0  0
   -2.7502   -0.3404   -0.0606 C   0  0  0  0  0  0  0  0  0  0  0  0
   -3.7779    0.2682   -0.8488 C   0  0  0  0  0  0  0  0  0  0  0  0
   -5.1284    0.0213   -0.5577 C   0  0  0  0  0  0  0  0  0  0  0  0
   -5.5321   -0.8197    0.4953 C   0  0  0  0  0  0  0  0  0  0  0  0
   -4.5207   -1.4095    1.2626 C   0  0  0  0  0  0  0  0  0  0  0  0
   -3.1507   -1.1855    1.0153 C   0  0  0  0  0  0  0  0  0  0  0  0
   -3.4614    1.1367   -2.0380 C   0  0  0  0  0  0  0  0  0  0  0  0
   -2.8721    0.5747   -2.7921 H   0  0  0  0  0  0  0  0  0  0  0  0
   -2.8605    2.0259   -1.7629 H   0  0  0  0  0  0  0  0  0  0  0  0
   -4.3892    1.4849   -2.5305 H   0  0  0  0  0  0  0  0  0  0  0  0
   -6.9925   -1.0709    0.7722 C   0  0  0  0  0  0  0  0  0  0  0  0
   -7.1354   -1.7194    1.6582 H   0  0  0  0  0  0  0  0  0  0  0  0
   -7.4874   -1.5638   -0.0911 H   0  0  0  0  0  0  0  0  0  0  0  0
   -7.5392   -0.1218    0.9526 H   0  0  0  0  0  0  0  0  0  0  0  0
   -2.1891   -1.8439    1.9759 C   0  0  0  0  0  0  0  0  0  0  0  0
   -1.1349   -1.6746    1.7079 H   0  0  0  0  0  0  0  0  0  0  0  0
   -2.3563   -2.9397    2.0138 H   0  0  0  0  0  0  0  0  0  0  0  0
   -2.3502   -1.4674    3.0085 H   0  0  0  0  0  0  0  0  0  0  0  0
   -0.9200    1.4334   -0.1711 C   0  0  0  0  0  0  0  0  0  0  0  0
   -0.2952    2.1054   -1.2722 C   0  0  0  0  0  0  0  0  0  0  0  0
    0.0399    3.4670   -1.1629 C   0  0  0  0  0  0  0  0  0  0  0  0
   -0.2167    4.2168   -0.0016 C   0  0  0  0  0  0  0  0  0  0  0  0
   -0.8726    3.5608    1.0501 C   0  0  0  0  0  0  0  0  0  0  0  0
   -1.2503    2.2042    0.9836 C   0  0  0  0  0  0  0  0  0  0  0  0
   -0.0163    1.4138   -2.5824 C   0  0  0  0  0  0  0  0  0  0  0  0
    0.3322    2.1368   -3.3447 H   0  0  0  0  0  0  0  0  0  0  0  0
   -0.9182    0.9046   -2.9708 H   0  0  0  0  0  0  0  0  0  0  0  0
    0.7494    0.6257   -2.4706 H   0  0  0  0  0  0  0  0  0  0  0  0
    0.1798    5.6686    0.0902 C   0  0  0  0  0  0  0  0  0  0  0  0
   -0.1475    6.1221    1.0458 H   0  0  0  0  0  0  0  0  0  0  0  0
   -0.2631    6.2622   -0.7368 H   0  0  0  0  0  0  0  0  0  0  0  0
    1.2809    5.7942    0.0159 H   0  0  0  0  0  0  0  0  0  0  0  0
   -2.0174    1.6448    2.1574 C   0  0  0  0  0  0  0  0  0  0  0  0
   -1.6566    0.6501    2.4755 H   0  0  0  0  0  0  0  0  0  0  0  0
   -3.0913    1.5152    1.9115 H   0  0  0  0  0  0  0  0  0  0  0  0
   -1.9462    2.3251    3.0282 H   0  0  0  0  0  0  0  0  0  0  0  0
   -4.8009   -2.0672    2.1024 H   0  0  0  0  0  0  0  0  0  0  0  0
   -1.1149    4.1266    1.9648 H   0  0  0  0  0  0  0  0  0  0  0  0
    0.5090    3.9633   -2.0293 H   0  0  0  0  0  0  0  0  0  0  0  0
   -5.8964    0.4966   -1.1901 H   0  0  0  0  0  0  0  0  0  0  0  0
  2  1  1  6  0  0  0
  2  3  1  0  0  0  0
  3 35  1  0  0  0  0
  3 17  1  0  0  0  0
  4  2  1  0  0  0  0
  4  5  1  0  0  0  0
  5  6  1  0  0  0  0
  5  8  1  0  0  0  0
  7  5  1  0  0  0  0
  9  4  1  0  0  0  0
  9 11  1  0  0  0  0
 10  9  1  0  0  0  0
 12  9  1  0  0  0  0
 13 14  1  0  0  0  0
 13  4  1  0  0  0  0
 15 13  1  0  0  0  0
 16 13  1  0  0  0  0
 17 22  1  0  0  0  0
 18 19  1  0  0  0  0
 18 17  2  0  0  0  0
 19 20  2  0  0  0  0
 20 27  1  0  0  0  0
 20 21  1  0  0  0  0
 21 53  1  0  0  0  0
 22 21  2  0  0  0  0
 22 31  1  0  0  0  0
 23 25  1  0  0  0  0
 23 18  1  0  0  0  0
 24 23  1  0  0  0  0
 26 23  1  0  0  0  0
 27 30  1  0  0  0  0
 27 28  1  0  0  0  0
 29 27  1  0  0  0  0
 31 33  1  0  0  0  0
 31 34  1  0  0  0  0
 32 31  1  0  0  0  0
 35 40  1  0  0  0  0
 36 37  1  0  0  0  0
 36 35  2  0  0  0  0
 37 38  2  0  0  0  0
 38 45  1  0  0  0  0
 38 39  1  0  0  0  0
 39 54  1  0  0  0  0
 40 39  2  0  0  0  0
 40 49  1  0  0  0  0
 41 44  1  0  0  0  0
 41 36  1  0  0  0  0
 42 41  1  0  0  0  0
 43 41  1  0  0  0  0
 45 46  1  0  0  0  0
 47 45  1  0  0  0  0
 48 45  1  0  0  0  0
 49 50  1  0  0  0  0
 49 52  1  0  0  0  0
 51 49  1  0  0  0  0
 55 37  1  0  0  0  0
 56 19  1  0  0  0  0
M  END
