1
q = 0.0, confidence = 1.0

 14 14  0  0  0  0  0  0  0  0999 V2000
   -0.2611    1.4077   -1.5981 O   0  0  0  0  0  1  0  0  0  0  0  0
   -0.4255    3.7727   -1.1858 C   0  0  0  0  0  0  0  0  0  0  0  0
    0.0396    5.0351   -1.6189 C   0  0  0  0  0  0  0  0  0  0  0  0
    0.7694    5.0877   -2.4419 H   0  0  0  0  0  0  0  0  0  0  0  0
   -0.4053    6.2066   -1.0053 C   0  0  0  0  0  0  0  0  0  0  0  0
   -0.0578    7.2009   -1.3184 H   0  0  0  0  0  0  0  0  0  0  0  0
   -1.3161    6.0986    0.0572 C   0  0  0  0  0  0  0  0  0  0  0  0
   -1.7891    4.8586    0.5151 C   0  0  0  0  0  0  0  0  0  0  0  0
   -2.4835    4.8295    1.3663 H   0  0  0  0  0  0  0  0  0  0  0  0
   -1.3411    3.6961   -0.1096 C   0  0  0  0  0  0  0  0  0  0  0  0
   -1.6523    2.7106    0.2573 H   0  0  0  0  0  0  0  0  0  0  0  0
    0.0975    2.5698   -1.8326 C   0  0  0  0  0  3  0  0  0  0  0  0
    0.8592    2.7548   -2.6356 H   0  0  0  0  0  0  0  0  0  0  0  0
   -1.7443    7.2167    0.6571 F   0  0  0  0  0  0  0  0  0  0  0  0
  2 10  1  0  0  0  0
  3  2  2  0  0  0  0
  3  5  1  0  0  0  0
  4  3  1  0  0  0  0
  5  7  2  0  0  0  0
  6  5  1  0  0  0  0
  7  8  1  0  0  0  0
  7 14  1  0  0  0  0
  8  9  1  0  0  0  0
 10 11  1  0  0  0  0
 10  8  2  0  0  0  0
 12  1  1  0  0  0  0
 12  2  1  0  0  0  0
 13 12  1  0  0  0  0
M  END
