1
q = 0.0, confidence = 0.976

 14 14  0  0  0  0  0  0  0  0999 V2000
   -1.6696    0.9800    1.1862 O   0  0  0  0  0  1  0  0  0  0  0  0
   -2.0488    3.1289    0.2415 C   0  0  0  0  0  0  0  0  0  0  0  0
   -1.5350    4.4281   -0.0215 C   0  0  0  0  0  0  0  0  0  0  0  0
   -2.3029    5.3678   -0.7220 C   0  0  0  0  0  0  0  0  0  0  0  0
   -1.8901    6.3671   -0.9170 H   0  0  0  0  0  0  0  0  0  0  0  0
   -3.5851    5.0151   -1.1686 C   0  0  0  0  0  0  0  0  0  0  0  0
   -4.1811    5.7576   -1.7206 H   0  0  0  0  0  0  0  0  0  0  0  0
   -4.1088    3.7303   -0.9268 C   0  0  0  0  0  0  0  0  0  0  0  0
   -5.1098    3.4614   -1.2934 H   0  0  0  0  0  0  0  0  0  0  0  0
   -3.3433    2.7984   -0.2299 C   0  0  0  0  0  0  0  0  0  0  0  0
   -3.7143    1.7811   -0.0430 H   0  0  0  0  0  0  0  0  0  0  0  0
   -1.2504    2.1295    0.9286 C   0  0  0  0  0  3  0  0  0  0  0  0
   -0.2281    2.4337    1.2424 H   0  0  0  0  0  0  0  0  0  0  0  0
    0.0615    4.8868    0.5025 Cl  0  0  0  0  0  0  0  0  0  0  0  0
  2 12  1  0  0  0  0
  3  2  1  0  0  0  0
  3 14  1  0  0  0  0
  4  3  2  0  0  0  0
  5  4  1  0  0  0  0
  6  8  2  0  0  0  0
  6  4  1  0  0  0  0
  7  6  1  0  0  0  0
  8 10  1  0  0  0  0
  9  8  1  0  0  0  0
 10 11  1  0  0  0  0
 10  2  2  0  0  0  0
 12  1  1  0  0  0  0
 12 13  1  0  0  0  0
M  END
