1
q = 0.0, confidence = 1.0

 18 18  0  0  0  0  0  0  0  0999 V2000
    1.4471   -0.3300   -0.4402 O   0  0  0  0  0  1  0  0  0  0  0  0
    2.4636   -0.2242    0.2695 C   0  0  0  0  0  3  0  0  0  0  0  0
    3.5209    0.7408    0.0113 C   0  0  0  0  0  0  0  0  0  0  0  0
    4.6368    0.7973    0.8743 C   0  0  0  0  0  0  0  0  0  0  0  0
    4.6879    0.1083    1.7323 H   0  0  0  0  0  0  0  0  0  0  0  0
    5.6717    1.7102    0.6553 C   0  0  0  0  0  0  0  0  0  0  0  0
    6.5295    1.7353    1.3395 H   0  0  0  0  0  0  0  0  0  0  0  0
    5.5957    2.5888   -0.4511 C   0  0  0  0  0  0  0  0  0  0  0  0
    6.5347    3.5074   -0.7592 O   0  0  0  0  0  0  0  0  0  0  0  0
    7.6886    3.6177    0.0622 C   0  0  0  0  0  0  0  0  0  0  0  0
    8.3064    4.4206   -0.3790 H   0  0  0  0  0  0  0  0  0  0  0  0
    8.2736    2.6724    0.0744 H   0  0  0  0  0  0  0  0  0  0  0  0
    7.4228    3.8939    1.1059 H   0  0  0  0  0  0  0  0  0  0  0  0
    4.4770    2.5381   -1.3247 C   0  0  0  0  0  0  0  0  0  0  0  0
    4.4542    3.2346   -2.1750 H   0  0  0  0  0  0  0  0  0  0  0  0
    3.4564    1.6275   -1.0957 C   0  0  0  0  0  0  0  0  0  0  0  0
    2.5830    1.5693   -1.7620 H   0  0  0  0  0  0  0  0  0  0  0  0
    2.5814   -0.8997    1.1583 H   0  0  0  0  0  0  0  0  0  0  0  0
  1  2  1  0  0  0  0
  2 18  1  0  0  0  0
  3  2  1  0  0  0  0
  3  4  1  0  0  0  0
  4  5  1  0  0  0  0
  6  4  2  0  0  0  0
  6  7  1  0  0  0  0
  8  6  1  0  0  0  0
  9  8  1  0  0  0  0
  9 10  1  0  0  0  0
 10 12  1  0  0  0  0
 10 13  1  0  0  0  0
 11 10  1  0  0  0  0
 14 16  1  0  0  0  0
 14  8  2  0  0  0  0
 15 14  1  0  0  0  0
 16  3  2  0  0  0  0
 17 16  1  0  0  0  0
M  END
