1
q = 0.0, confidence = 1.0

 18 18  0  0  0  0  0  0  0  0999 V2000
   -1.5085    0.0535   -0.1146 O   0  0  0  0  0  1  0  0  0  0  0  0
   -2.4476    0.0960    0.6943 C   0  0  0  0  0  3  0  0  0  0  0  0
   -3.5582    1.0437    0.5855 C   0  0  0  0  0  0  0  0  0  0  0  0
   -4.5728    1.0265    1.5718 C   0  0  0  0  0  0  0  0  0  0  0  0
   -4.5155    0.3090    2.4040 H   0  0  0  0  0  0  0  0  0  0  0  0
   -5.6353    1.9283    1.4670 C   0  0  0  0  0  0  0  0  0  0  0  0
   -6.4346    1.9317    2.2229 H   0  0  0  0  0  0  0  0  0  0  0  0
   -5.7000    2.8391    0.3984 C   0  0  0  0  0  0  0  0  0  0  0  0
   -6.5473    3.5354    0.3391 H   0  0  0  0  0  0  0  0  0  0  0  0
   -4.6853    2.8554   -0.5892 C   0  0  0  0  0  0  0  0  0  0  0  0
   -4.6650    3.6954   -1.6533 O   0  0  0  0  0  0  0  0  0  0  0  0
   -5.7268    4.6202   -1.8124 C   0  0  0  0  0  0  0  0  0  0  0  0
   -5.5081    5.1885   -2.7348 H   0  0  0  0  0  0  0  0  0  0  0  0
   -5.7900    5.3297   -0.9573 H   0  0  0  0  0  0  0  0  0  0  0  0
   -6.7080    4.1078   -1.9280 H   0  0  0  0  0  0  0  0  0  0  0  0
   -3.6126    1.9516   -0.4887 C   0  0  0  0  0  0  0  0  0  0  0  0
   -2.8201    1.9502   -1.2504 H   0  0  0  0  0  0  0  0  0  0  0  0
   -2.4611   -0.6162    1.5618 H   0  0  0  0  0  0  0  0  0  0  0  0
  1  2  1  0  0  0  0
  2 18  1  0  0  0  0
  3  2  1  0  0  0  0
  3  4  1  0  0  0  0
  4  5  1  0  0  0  0
  6  4  2  0  0  0  0
  6  7  1  0  0  0  0
  8  6  1  0  0  0  0
  9  8  1  0  0  0  0
 10 16  1  0  0  0  0
 10  8  2  0  0  0  0
 11 10  1  0  0  0  0
 12 11  1  0  0  0  0
 12 14  1  0  0  0  0
 13 12  1  0  0  0  0
 15 12  1  0  0  0  0
 16  3  2  0  0  0  0
 17 16  1  0  0  0  0
M  END
