1
q = -1.0

 19 20  0  0  0  0  0  0  0  0999 V2000
   -1.0039    0.1509   -0.5717 O   0  5  0  0  0  0  0  0  0  0  0  0
   -1.2539   -0.9439    1.4024 O   0  0  0  0  0  0  0  0  0  0  0  0
   -5.0152    1.3736   -0.4002 O   0  0  0  0  0  0  0  0  0  0  0  0
   -2.9524    2.2066   -0.5161 O   0  0  0  0  0  0  0  0  0  0  0  0
   -1.7181   -0.3285    0.4484 C   0  0  0  0  0  0  0  0  0  0  0  0
   -3.1839   -0.0546    0.2918 C   0  0  0  0  0  0  0  0  0  0  0  0
   -4.0895   -0.9891    0.7351 C   0  0  0  0  0  0  0  0  0  0  0  0
   -3.7138   -1.9154    1.1985 H   0  0  0  0  0  0  0  0  0  0  0  0
   -5.4985   -0.7860    0.5864 C   0  0  0  0  0  0  0  0  0  0  0  0
   -6.4833   -1.7259    0.9848 C   0  0  0  0  0  0  0  0  0  0  0  0
   -6.1593   -2.6657    1.4569 H   0  0  0  0  0  0  0  0  0  0  0  0
   -7.8348   -1.4590    0.7766 C   0  0  0  0  0  0  0  0  0  0  0  0
   -8.5963   -2.1887    1.0866 H   0  0  0  0  0  0  0  0  0  0  0  0
   -8.2277   -0.2480    0.1638 C   0  0  0  0  0  0  0  0  0  0  0  0
   -9.2959   -0.0418   -0.0000 H   0  0  0  0  0  0  0  0  0  0  0  0
   -7.2797    0.6987   -0.2376 C   0  0  0  0  0  0  0  0  0  0  0  0
   -7.5672    1.6474   -0.7115 H   0  0  0  0  0  0  0  0  0  0  0  0
   -5.9199    0.4282   -0.0208 C   0  0  0  0  0  0  0  0  0  0  0  0
   -3.6375    1.2380   -0.2408 C   0  0  0  0  0  0  0  0  0  0  0  0
  1  5  1  0  0  0  0
  3 19  1  0  0  0  0
  3 18  1  0  0  0  0
  4 19  2  0  0  0  0
  5  2  2  0  0  0  0
  6  5  1  0  0  0  0
  6  7  2  0  0  0  0
  7  8  1  0  0  0  0
  9  7  1  0  0  0  0
  9 10  1  0  0  0  0
 10 11  1  0  0  0  0
 12 10  2  0  0  0  0
 12 13  1  0  0  0  0
 14 12  1  0  0  0  0
 15 14  1  0  0  0  0
 16 18  1  0  0  0  0
 16 14  2  0  0  0  0
 17 16  1  0  0  0  0
 18  9  2  0  0  0  0
 19  6  1  0  0  0  0
M  CHG  1   1  -1
M  END
