1
q = -1.0, confidence = 0.0

 23 22  0  0  0  0  0  0  0  0999 V2000
    1.5176    0.4256    0.3989 O   0  0  0  0  0  1  0  0  0  0  0  0
    1.9062    3.3110    0.1003 C   0  0  0  0  0  0  0  0  0  0  0  0
    1.0139    3.0331    0.6945 H   0  0  0  0  0  0  0  0  0  0  0  0
    1.5842    3.3722   -0.9593 H   0  0  0  0  0  0  0  0  0  0  0  0
    2.2261    4.3233    0.4205 H   0  0  0  0  0  0  0  0  0  0  0  0
    3.0383    2.2936    0.2860 C   0  0  0  0  0  0  0  0  0  0  0  0
    3.9075    2.6517   -0.3072 H   0  0  0  0  0  0  0  0  0  0  0  0
    3.4601    2.1886    1.7564 C   0  0  0  0  0  0  0  0  0  0  0  0
    3.7160    3.1869    2.1654 H   0  0  0  0  0  0  0  0  0  0  0  0
    4.3440    1.5338    1.8957 H   0  0  0  0  0  0  0  0  0  0  0  0
    2.6324    1.7727    2.3662 H   0  0  0  0  0  0  0  0  0  0  0  0
    5.0791    0.3888   -0.9052 C   0  0  0  0  0  0  0  0  0  0  0  0
    4.9273    0.8039   -1.9243 H   0  0  0  0  0  0  0  0  0  0  0  0
    5.8242   -0.4278   -0.9909 H   0  0  0  0  0  0  0  0  0  0  0  0
    5.5287    1.1835   -0.2784 H   0  0  0  0  0  0  0  0  0  0  0  0
    3.7617   -0.1467   -0.3288 C   0  0  0  0  0  0  0  0  0  0  0  0
    3.9314   -0.4438    0.7306 H   0  0  0  0  0  0  0  0  0  0  0  0
    2.6456    0.9257   -0.3184 C   0  0  0  0  0  0  0  0  0  0  0  0
    3.3108   -1.3877   -1.1086 C   0  0  0  0  0  0  0  0  0  0  0  0
    2.3584   -1.7954   -0.7199 H   0  0  0  0  0  0  0  0  0  0  0  0
    4.0724   -2.1917   -1.0539 H   0  0  0  0  0  0  0  0  0  0  0  0
    3.1432   -1.1467   -2.1794 H   0  0  0  0  0  0  0  0  0  0  0  0
    2.3367    1.1009   -1.3784 H   0  0  0  0  0  0  0  0  0  0  0  0
  2  6  1  0  0  0  0
  2  5  1  0  0  0  0
  2  3  1  0  0  0  0
  4  2  1  0  0  0  0
  6  8  1  0  0  0  0
  7  6  1  0  0  0  0
  8 10  1  0  0  0  0
  8  9  1  0  0  0  0
  8 11  1  0  0  0  0
 12 16  1  0  0  0  0
 12 15  1  0  0  0  0
 13 12  1  0  0  0  0
 14 12  1  0  0  0  0
 16 18  1  0  0  0  0
 16 17  1  0  0  0  0
 18  6  1  0  0  0  0
 18  1  1  0  0  0  0
 19 21  1  0  0  0  0
 19 20  1  0  0  0  0
 19 16  1  0  0  0  0
 22 19  1  0  0  0  0
 23 18  1  0  0  0  0
M  END
