1
q = 0.0, confidence = 0.986

  8  7  0  0  0  0  0  0  0  0999 V2000
   -0.6080   -2.0669    1.6122 O   0  5  0  0  0  0  0  0  0  0  0  0
   -2.4121   -3.4758    1.4636 N   0  0  0  0  0  4  0  0  0  0  0  0
   -3.0547   -4.1015    1.9469 H   0  0  0  0  0  0  0  0  0  0  0  0
   -2.2124   -3.5659    0.4058 H   0  0  0  0  0  0  0  0  0  0  0  0
   -1.5936   -2.7477    3.5396 N   0  0  0  0  0  0  0  0  0  0  0  0
   -2.4550   -3.0297    4.0055 H   0  0  0  0  0  0  0  0  0  0  0  0
   -1.0441   -2.0231    4.0012 H   0  0  0  0  0  0  0  0  0  0  0  0
   -1.5183   -2.7404    2.1636 C   0  0  0  0  0  0  0  0  0  0  0  0
  1  8  1  0  0  0  0
  2  3  1  0  0  0  0
  2  8  2  0  0  0  0
  4  2  1  0  0  0  0
  5  7  1  0  0  0  0
  5  6  1  0  0  0  0
  8  5  1  0  0  0  0
M  CHG  1   1  -1
M  END
