16
q = -1.0

 16 15  0  0  0  0  0  0  0  0999 V2000
    3.8286   -1.0870   -1.9158 O   0  0  0  0  0  0  0  0  0  0  0  0
    2.7755   -0.2967   -1.6181 C   0  0  0  0  0  0  0  0  0  0  0  0
    1.7523   -0.8293   -1.0844 O   0  0  0  0  0  0  0  0  0  0  0  0
    2.9191    1.0671   -1.9487 C   0  0  0  0  0  0  0  0  0  0  0  0
    3.8396    1.4274   -2.4194 H   0  0  0  0  0  0  0  0  0  0  0  0
    2.0316    3.2185   -2.1539 O   0  0  0  0  0  0  0  0  0  0  0  0
    1.8323    1.9380   -1.7602 C   0  0  0  0  0  0  0  0  0  0  0  0
    0.9401    4.1190   -1.9654 C   0  0  0  0  0  0  0  0  0  0  0  0
    1.2815    5.0933   -2.3596 H   0  0  0  0  0  0  0  0  0  0  0  0
    0.6789    4.2131   -0.8910 H   0  0  0  0  0  0  0  0  0  0  0  0
    0.0362    3.7800   -2.5116 H   0  0  0  0  0  0  0  0  0  0  0  0
    3.7210   -2.4627   -1.5399 C   0  0  0  0  0  0  0  0  0  0  0  0
    4.6655   -2.9357   -1.8640 H   0  0  0  0  0  0  0  0  0  0  0  0
    2.8595   -2.9495   -2.0412 H   0  0  0  0  0  0  0  0  0  0  0  0
    3.5978   -2.5676   -0.4424 H   0  0  0  0  0  0  0  0  0  0  0  0
    0.6954    1.6361   -1.2683 O   0  5  0  0  0  0  0  0  0  0  0  0
  1  2  1  0  0  0  0
  1 12  1  0  0  0  0
  2  3  2  0  0  0  0
  4  7  2  0  0  0  0
  4  2  1  0  0  0  0
  5  4  1  0  0  0  0
  6  8  1  0  0  0  0
  6  7  1  0  0  0  0
  7 16  1  0  0  0  0
  8 10  1  0  0  0  0
  9  8  1  0  0  0  0
 11  8  1  0  0  0  0
 12 15  1  0  0  0  0
 13 12  1  0  0  0  0
 14 12  1  0  0  0  0
M  CHG  1  16  -1
M  END
