1
q = -1.0, confidence = 0.02

 18 18  0  0  0  0  0  0  0  0999 V2000
    1.3631   -0.2831   -0.3542 O   0  5  0  0  0  0  0  0  0  0  0  0
    2.4835    0.3495   -0.1630 C   0  0  0  0  0  0  0  0  0  0  0  0
    3.6892   -1.6289   -0.9383 C   0  0  0  0  0  0  0  0  0  0  0  0
    3.6556   -2.7266   -1.3621 N   0  0  0  0  0  0  0  0  0  0  0  0
    4.9946    0.2489   -0.1279 C   0  0  0  0  0  0  0  0  0  0  0  0
    3.7108   -0.3038   -0.4103 C   0  0  0  0  0  0  0  0  0  0  0  0
    2.3617    1.7507    0.3131 C   0  0  0  0  0  0  0  0  0  0  0  0
    1.2062    2.1066    1.0494 C   0  0  0  0  0  0  0  0  0  0  0  0
    0.4359    1.3468    1.2358 H   0  0  0  0  0  0  0  0  0  0  0  0
    3.1376    4.0569    0.4847 C   0  0  0  0  0  0  0  0  0  0  0  0
    3.8910    4.8234    0.2496 H   0  0  0  0  0  0  0  0  0  0  0  0
    3.3236    2.7466    0.0263 C   0  0  0  0  0  0  0  0  0  0  0  0
    4.2140    2.5057   -0.5687 H   0  0  0  0  0  0  0  0  0  0  0  0
    6.0717    0.6649    0.0984 N   0  0  0  0  0  0  0  0  0  0  0  0
    1.0313    3.4152    1.5121 C   0  0  0  0  0  0  0  0  0  0  0  0
    0.1250    3.6747    2.0794 H   0  0  0  0  0  0  0  0  0  0  0  0
    1.9977    4.3943    1.2332 C   0  0  0  0  0  0  0  0  0  0  0  0
    1.8587    5.4255    1.5916 H   0  0  0  0  0  0  0  0  0  0  0  0
  1  2  1  0  0  0  0
  2  7  1  0  0  0  0
  3  6  1  0  0  0  0
  4  3  3  0  0  0  0
  5 14  3  0  0  0  0
  6  2  2  0  0  0  0
  6  5  1  0  0  0  0
  7  8  1  0  0  0  0
  8  9  1  0  0  0  0
  8 15  2  0  0  0  0
 10 17  2  0  0  0  0
 11 10  1  0  0  0  0
 12  7  2  0  0  0  0
 12 10  1  0  0  0  0
 13 12  1  0  0  0  0
 15 16  1  0  0  0  0
 17 15  1  0  0  0  0
 17 18  1  0  0  0  0
M  CHG  1   1  -1
M  END
