7
q = -1.0, confidence = 0.01

  8  7  0  0  0  0  0  0  0  0999 V2000
    0.8320   -2.6505    0.2050 C   0  0  0  0  0  0  0  0  0  0  0  0
    1.2621   -3.2826    1.0106 H   0  0  0  0  0  0  0  0  0  0  0  0
    1.4368   -2.8047   -0.7171 H   0  0  0  0  0  0  0  0  0  0  0  0
    0.8506   -1.2674    0.5855 O   0  0  0  0  0  0  0  0  0  0  0  0
    1.7313   -0.7616    0.1852 H   0  0  0  0  0  0  0  0  0  0  0  0
   -0.6099   -3.1037   -0.0888 C   0  0  0  0  0  0  0  0  0  0  0  0
   -1.4604   -2.1041   -0.2173 O   0  5  0  0  0  0  0  0  0  0  0  0
   -0.8960   -4.2840   -0.2145 O   0  0  0  0  0  0  0  0  0  0  0  0
  1  4  1  0  0  0  0
  1  2  1  0  0  0  0
  3  1  1  0  0  0  0
  5  4  1  0  0  0  0
  6  1  1  0  0  0  0
  7  6  1  0  0  0  0
  8  6  2  0  0  0  0
M  CHG  1   7  -1
M  END
