1
q = -1.0

 46 47  0  0  0  0  0  0  0  0999 V2000
    0.6313   -0.5692   -0.4535 O   0  5  0  0  0  0  0  0  0  0  0  0
   -0.6898   -0.3081   -0.3225 C   0  0  0  0  0  0  0  0  0  0  0  0
   -1.1193    1.0470   -0.2323 C   0  0  0  0  0  0  0  0  0  0  0  0
   -2.4877    1.3233   -0.0364 C   0  0  0  0  0  0  0  0  0  0  0  0
   -3.4464    0.3057    0.0426 C   0  0  0  0  0  0  0  0  0  0  0  0
   -2.9871   -1.0210   -0.0887 C   0  0  0  0  0  0  0  0  0  0  0  0
   -1.6402   -1.3760   -0.2679 C   0  0  0  0  0  0  0  0  0  0  0  0
   -0.1793    2.1923   -0.3473 C   0  0  0  0  0  0  0  0  0  0  0  0
    0.7174    2.3043   -1.4315 C   0  0  0  0  0  0  0  0  0  0  0  0
    1.5688    3.4125   -1.5449 C   0  0  0  0  0  0  0  0  0  0  0  0
    1.5392    4.4316   -0.5800 C   0  0  0  0  0  0  0  0  0  0  0  0
    0.6435    4.3391    0.4992 C   0  0  0  0  0  0  0  0  0  0  0  0
   -0.2076    3.2310    0.6123 C   0  0  0  0  0  0  0  0  0  0  0  0
   -4.9464    0.5795    0.2428 C   0  0  0  0  0  0  0  0  0  0  0  0
   -5.7306    0.0278   -0.9697 C   0  0  0  0  0  0  0  0  0  0  0  0
   -5.4236   -0.1281    1.5316 C   0  0  0  0  0  0  0  0  0  0  0  0
   -5.2467    2.0824    0.3740 C   0  0  0  0  0  0  0  0  0  0  0  0
   -1.2296   -2.8588   -0.3730 C   0  0  0  0  0  0  0  0  0  0  0  0
   -0.4111   -3.1036   -1.6621 C   0  0  0  0  0  0  0  0  0  0  0  0
   -0.4158   -3.2476    0.8829 C   0  0  0  0  0  0  0  0  0  0  0  0
   -2.4561   -3.7908   -0.4305 C   0  0  0  0  0  0  0  0  0  0  0  0
   -2.7851    2.3788    0.0199 H   0  0  0  0  0  0  0  0  0  0  0  0
   -3.7285   -1.8282   -0.0459 H   0  0  0  0  0  0  0  0  0  0  0  0
    0.7491    1.5116   -2.1916 H   0  0  0  0  0  0  0  0  0  0  0  0
    2.2694    3.4702   -2.3909 H   0  0  0  0  0  0  0  0  0  0  0  0
    2.2116    5.2983   -0.6686 H   0  0  0  0  0  0  0  0  0  0  0  0
    0.6137    5.1316    1.2626 H   0  0  0  0  0  0  0  0  0  0  0  0
   -0.8971    3.1527    1.4671 H   0  0  0  0  0  0  0  0  0  0  0  0
   -5.4053    0.5201   -1.9082 H   0  0  0  0  0  0  0  0  0  0  0  0
   -6.8182    0.2089   -0.8432 H   0  0  0  0  0  0  0  0  0  0  0  0
   -5.5833   -1.0636   -1.0929 H   0  0  0  0  0  0  0  0  0  0  0  0
   -5.2671   -1.2240    1.4821 H   0  0  0  0  0  0  0  0  0  0  0  0
   -6.5070    0.0500    1.6932 H   0  0  0  0  0  0  0  0  0  0  0  0
   -4.8756    0.2514    2.4177 H   0  0  0  0  0  0  0  0  0  0  0  0
   -4.7219    2.5333    1.2404 H   0  0  0  0  0  0  0  0  0  0  0  0
   -6.3339    2.2371    0.5249 H   0  0  0  0  0  0  0  0  0  0  0  0
   -4.9539    2.6429   -0.5366 H   0  0  0  0  0  0  0  0  0  0  0  0
   -1.0068   -2.8276   -2.5560 H   0  0  0  0  0  0  0  0  0  0  0  0
   -0.1507   -4.1787   -1.7430 H   0  0  0  0  0  0  0  0  0  0  0  0
    0.5319   -2.5310   -1.6788 H   0  0  0  0  0  0  0  0  0  0  0  0
    0.5085   -2.6524    0.9756 H   0  0  0  0  0  0  0  0  0  0  0  0
   -0.1115   -4.3131    0.8291 H   0  0  0  0  0  0  0  0  0  0  0  0
   -1.0252   -3.1063    1.7988 H   0  0  0  0  0  0  0  0  0  0  0  0
   -3.0711   -3.7393    0.4905 H   0  0  0  0  0  0  0  0  0  0  0  0
   -2.1086   -4.8379   -0.5340 H   0  0  0  0  0  0  0  0  0  0  0  0
   -3.1082   -3.5679   -1.2992 H   0  0  0  0  0  0  0  0  0  0  0  0
  1  2  1  0  0  0  0
  2  7  2  0  0  0  0
  2  3  1  0  0  0  0
  3  4  2  0  0  0  0
  4 22  1  0  0  0  0
  4  5  1  0  0  0  0
  5 14  1  0  0  0  0
  6 23  1  0  0  0  0
  6  5  2  0  0  0  0
  7  6  1  0  0  0  0
  8  3  1  0  0  0  0
  8 13  1  0  0  0  0
  9  8  2  0  0  0  0
 10  9  1  0  0  0  0
 10 11  2  0  0  0  0
 11 12  1  0  0  0  0
 12 13  2  0  0  0  0
 12 27  1  0  0  0  0
 13 28  1  0  0  0  0
 14 17  1  0  0  0  0
 14 16  1  0  0  0  0
 15 30  1  0  0  0  0
 15 14  1  0  0  0  0
 16 33  1  0  0  0  0
 16 34  1  0  0  0  0
 17 36  1  0  0  0  0
 17 35  1  0  0  0  0
 18  7  1  0  0  0  0
 18 20  1  0  0  0  0
 19 18  1  0  0  0  0
 20 41  1  0  0  0  0
 20 43  1  0  0  0  0
 21 18  1  0  0  0  0
 21 44  1  0  0  0  0
 24  9  1  0  0  0  0
 25 10  1  0  0  0  0
 26 11  1  0  0  0  0
 29 15  1  0  0  0  0
 31 15  1  0  0  0  0
 32 16  1  0  0  0  0
 37 17  1  0  0  0  0
 38 19  1  0  0  0  0
 39 19  1  0  0  0  0
 40 19  1  0  0  0  0
 42 20  1  0  0  0  0
 45 21  1  0  0  0  0
 46 21  1  0  0  0  0
M  CHG  1   1  -1
M  END
