3
q = -1.0, confidence = 0.0

 12 11  0  0  0  0  0  0  0  0999 V2000
    1.9743   -1.3861    0.1774 S   0  0  0  0  0  0  0  0  0  0  0  0
    5.9594    0.5615   -0.3872 S   0  0  0  0  0  0  0  0  0  0  0  0
    1.1560   -0.3303   -0.6031 O   0  0  0  0  0  1  0  0  0  0  0  0
    1.9287   -1.1071    1.6614 O   0  0  0  0  0  1  0  0  0  0  0  0
    1.6286   -2.7813   -0.2124 O   0  0  0  0  0  1  0  0  0  0  0  0
    3.6954   -1.1006   -0.3392 C   0  0  0  0  0  0  0  0  0  0  0  0
    4.1919    0.2934    0.0107 C   0  0  0  0  0  0  0  0  0  0  0  0
    4.2827   -1.8893    0.1705 H   0  0  0  0  0  0  0  0  0  0  0  0
    3.7131   -1.2998   -1.4292 H   0  0  0  0  0  0  0  0  0  0  0  0
    4.1243    0.4453    1.1068 H   0  0  0  0  0  0  0  0  0  0  0  0
    3.5634    1.0680   -0.4732 H   0  0  0  0  0  0  0  0  0  0  0  0
    5.8240    0.4560   -1.7396 H   0  0  0  0  0  0  0  0  0  0  0  0
  1  4  1  0  0  0  0
  2  7  1  0  0  0  0
  3  1  1  0  0  0  0
  5  1  1  0  0  0  0
  6  7  1  0  0  0  0
  6  8  1  0  0  0  0
  6  1  1  0  0  0  0
  7 10  1  0  0  0  0
  9  6  1  0  0  0  0
 11  7  1  0  0  0  0
 12  2  1  0  0  0  0
M  END
