2
q = -1.0, confidence = 0.0

 14 13  0  0  0  0  0  0  0  0999 V2000
    4.2454    0.2660   -0.4478 S   0  0  0  0  0  0  0  0  0  0  0  0
    1.0186   -0.9367   -0.5223 O   0  5  0  0  0  0  0  0  0  0  0  0
    1.2405   -1.9024    1.5107 O   0  0  0  0  0  0  0  0  0  0  0  0
    1.6421   -1.6531    0.3505 C   0  0  0  0  0  0  0  0  0  0  0  0
    2.9816   -2.2503   -0.1049 C   0  0  0  0  0  0  0  0  0  0  0  0
    3.7693   -1.3861   -1.0839 C   0  0  0  0  0  0  0  0  0  0  0  0
    5.4762   -0.1977    0.8092 C   0  0  0  0  0  0  0  0  0  0  0  0
    3.5698   -2.4924    0.8017 H   0  0  0  0  0  0  0  0  0  0  0  0
    2.7570   -3.2292   -0.5873 H   0  0  0  0  0  0  0  0  0  0  0  0
    3.1564   -1.1684   -1.9813 H   0  0  0  0  0  0  0  0  0  0  0  0
    4.6883   -1.9045   -1.4288 H   0  0  0  0  0  0  0  0  0  0  0  0
    5.8729    0.7463    1.2293 H   0  0  0  0  0  0  0  0  0  0  0  0
    6.3157   -0.7606    0.3538 H   0  0  0  0  0  0  0  0  0  0  0  0
    5.0308   -0.7912    1.6322 H   0  0  0  0  0  0  0  0  0  0  0  0
  1  7  1  0  0  0  0
  2  4  1  0  0  0  0
  4  3  2  0  0  0  0
  5  4  1  0  0  0  0
  5  8  1  0  0  0  0
  6  1  1  0  0  0  0
  6  5  1  0  0  0  0
  7 12  1  0  0  0  0
  7 14  1  0  0  0  0
  9  5  1  0  0  0  0
 10  6  1  0  0  0  0
 11  6  1  0  0  0  0
 13  7  1  0  0  0  0
M  CHG  1   2  -1
M  END
