2
q = 0, confidence = 1.0

 21 21  0  0  0  0  0  0  0  0999 V2000
   -2.6858   -1.3689    0.0246 P   0  0  0  0  0  4  0  0  0  0  0  0
   -1.4462   -0.4307    0.0533 O   0  0  0  0  0  1  0  0  0  0  0  0
   -2.7303   -2.4781   -1.4143 C   0  0  0  0  0  0  0  0  0  0  0  0
   -2.5131   -1.8681   -2.3119 H   0  0  0  0  0  0  0  0  0  0  0  0
   -3.7262   -2.9546   -1.5025 H   0  0  0  0  0  0  0  0  0  0  0  0
   -1.9272   -3.2300   -1.2891 H   0  0  0  0  0  0  0  0  0  0  0  0
   -2.8641   -2.3642    1.5309 C   0  0  0  0  0  0  0  0  0  0  0  0
   -2.8307   -1.6857    2.4040 H   0  0  0  0  0  0  0  0  0  0  0  0
   -1.9830   -3.0357    1.5583 H   0  0  0  0  0  0  0  0  0  0  0  0
   -3.8007   -2.9547    1.5277 H   0  0  0  0  0  0  0  0  0  0  0  0
   -4.1363   -0.2742   -0.1295 C   0  0  0  0  0  0  0  0  0  0  0  0
   -3.9598    0.9540   -0.8009 C   0  0  0  0  0  0  0  0  0  0  0  0
   -2.9620    1.2234   -1.1782 H   0  0  0  0  0  0  0  0  0  0  0  0
   -5.0478    1.8222   -0.9696 C   0  0  0  0  0  0  0  0  0  0  0  0
   -4.9038    2.7806   -1.4913 H   0  0  0  0  0  0  0  0  0  0  0  0
   -6.3138    1.4714   -0.4729 C   0  0  0  0  0  0  0  0  0  0  0  0
   -7.1659    2.1555   -0.6036 H   0  0  0  0  0  0  0  0  0  0  0  0
   -6.4931    0.2482    0.1925 C   0  0  0  0  0  0  0  0  0  0  0  0
   -7.4836   -0.0270    0.5852 H   0  0  0  0  0  0  0  0  0  0  0  0
   -5.4083   -0.6251    0.3641 C   0  0  0  0  0  0  0  0  0  0  0  0
   -5.5605   -1.5785    0.8928 H   0  0  0  0  0  0  0  0  0  0  0  0
  1  2  1  0  0  0  0
  1  7  1  0  0  0  0
  3  6  1  0  0  0  0
  3  1  1  0  0  0  0
  4  3  1  0  0  0  0
  5  3  1  0  0  0  0
  7  9  1  0  0  0  0
  7  8  1  0  0  0  0
 10  7  1  0  0  0  0
 11  1  1  0  0  0  0
 11 20  1  0  0  0  0
 12 11  2  0  0  0  0
 13 12  1  0  0  0  0
 14 12  1  0  0  0  0
 14 16  2  0  0  0  0
 15 14  1  0  0  0  0
 16 18  1  0  0  0  0
 17 16  1  0  0  0  0
 18 20  2  0  0  0  0
 18 19  1  0  0  0  0
 20 21  1  0  0  0  0
M  END
