1
q = -1.0

 18 18  0  0  0  0  0  0  0  0999 V2000
    0.5920   -2.0000   -0.3653 O   0  5  0  0  0  0  0  0  0  0  0  0
    1.0714   -2.5712    1.7768 O   0  0  0  0  0  0  0  0  0  0  0  0
    7.4488   -2.4223   -0.1518 O   0  0  0  0  0  0  0  0  0  0  0  0
    7.7756   -2.2620    0.7535 H   0  0  0  0  0  0  0  0  0  0  0  0
    1.1135   -2.7519    0.5278 C   0  0  0  0  0  0  0  0  0  0  0  0
    3.4047   -3.5726   -0.0154 C   0  0  0  0  0  0  0  0  0  0  0  0
    1.9365   -3.9475    0.0228 C   0  0  0  0  0  0  0  0  0  0  0  0
    1.5899   -4.2376   -0.9865 H   0  0  0  0  0  0  0  0  0  0  0  0
    1.7761   -4.7952    0.7198 H   0  0  0  0  0  0  0  0  0  0  0  0
    4.1315   -3.5518   -1.2225 C   0  0  0  0  0  0  0  0  0  0  0  0
    3.6295   -3.8433   -2.1586 H   0  0  0  0  0  0  0  0  0  0  0  0
    5.4813   -3.1736   -1.2600 C   0  0  0  0  0  0  0  0  0  0  0  0
    6.0485   -3.1684   -2.2022 H   0  0  0  0  0  0  0  0  0  0  0  0
    5.4196   -2.8027    1.1422 C   0  0  0  0  0  0  0  0  0  0  0  0
    5.9246   -2.4991    2.0747 H   0  0  0  0  0  0  0  0  0  0  0  0
    6.1330   -2.7999   -0.0714 C   0  0  0  0  0  0  0  0  0  0  0  0
    4.0737   -3.1870    1.1654 C   0  0  0  0  0  0  0  0  0  0  0  0
    3.5079   -3.1660    2.1089 H   0  0  0  0  0  0  0  0  0  0  0  0
  1  5  1  0  0  0  0
  3 16  1  0  0  0  0
  3  4  1  0  0  0  0
  5  2  2  0  0  0  0
  6  7  1  0  0  0  0
  6 17  1  0  0  0  0
  7  5  1  0  0  0  0
  7  9  1  0  0  0  0
  8  7  1  0  0  0  0
 10  6  2  0  0  0  0
 11 10  1  0  0  0  0
 12 10  1  0  0  0  0
 12 16  2  0  0  0  0
 13 12  1  0  0  0  0
 14 17  2  0  0  0  0
 14 15  1  0  0  0  0
 16 14  1  0  0  0  0
 17 18  1  0  0  0  0
M  CHG  1   1  -1
M  END
