8
q = -1.0, confidence = 0.022

 19 19  0  0  0  0  0  0  0  0999 V2000
   -6.8251    1.1009    0.2564 N   0  0  0  0  0  0  0  0  0  0  0  0
   -6.8878    1.9133   -0.6715 O   0  0  0  0  0  0  0  0  0  0  0  0
   -0.6832   -3.2930   -0.1308 O   0  5  0  0  0  0  0  0  0  0  0  0
   -1.6786   -2.5437   -0.2894 C   0  0  0  0  0  0  0  0  0  0  0  0
   -4.5768   -1.4265   -1.3733 C   0  0  0  0  0  0  0  0  0  0  0  0
   -4.1511   -1.6390   -2.3658 H   0  0  0  0  0  0  0  0  0  0  0  0
   -4.1866   -2.2222   -0.2731 C   0  0  0  0  0  0  0  0  0  0  0  0
   -1.6715   -1.2702   -0.3673 O   0  0  0  0  0  0  0  0  0  0  0  0
   -7.4085    1.2157    1.3348 O   0  0  0  0  0  0  0  0  0  0  0  0
   -5.9684   -0.0850    0.0618 C   0  0  0  0  0  0  0  0  0  0  0  0
   -4.7639   -1.9545    0.9871 C   0  0  0  0  0  0  0  0  0  0  0  0
   -4.4813   -2.5758    1.8512 H   0  0  0  0  0  0  0  0  0  0  0  0
   -3.0777   -3.2211   -0.4166 C   0  0  0  0  0  0  0  0  0  0  0  0
   -3.1006   -3.7172   -1.4094 H   0  0  0  0  0  0  0  0  0  0  0  0
   -3.1300   -4.0258    0.3427 H   0  0  0  0  0  0  0  0  0  0  0  0
   -5.4535   -0.3516   -1.2154 C   0  0  0  0  0  0  0  0  0  0  0  0
   -5.7381    0.3012   -2.0512 H   0  0  0  0  0  0  0  0  0  0  0  0
   -5.6589   -0.8938    1.1638 C   0  0  0  0  0  0  0  0  0  0  0  0
   -6.1067   -0.6579    2.1384 H   0  0  0  0  0  0  0  0  0  0  0  0
  1  9  2  0  0  0  0
  2  1  2  0  0  0  0
  4  3  1  0  0  0  0
  5 16  2  0  0  0  0
  5  7  1  0  0  0  0
  6  5  1  0  0  0  0
  7 11  2  0  0  0  0
  8  4  2  0  0  0  0
 10  1  1  0  0  0  0
 10 18  2  0  0  0  0
 11 18  1  0  0  0  0
 11 12  1  0  0  0  0
 13  4  1  0  0  0  0
 13  7  1  0  0  0  0
 13 15  1  0  0  0  0
 14 13  1  0  0  0  0
 16 10  1  0  0  0  0
 17 16  1  0  0  0  0
 18 19  1  0  0  0  0
M  CHG  1   3  -1
M  END
