29
q = 0.0, confidence = 0.988

 29 30  0  0  0  0  0  0  0  0999 V2000
   -0.4310   -0.0681   -1.6729 C   0  0  0  0  0  0  0  0  0  0  0  0
   -1.8303    0.0882   -1.9150 C   0  0  0  0  0  0  0  0  0  0  0  0
   -2.2354    1.1110   -1.8689 H   0  0  0  0  0  0  0  0  0  0  0  0
   -2.6360   -1.0194   -2.1450 C   0  0  0  0  0  0  0  0  0  0  0  0
   -3.7145   -0.8719   -2.3117 H   0  0  0  0  0  0  0  0  0  0  0  0
   -2.1075   -2.3398   -2.1438 C   0  0  0  0  0  0  0  0  0  0  0  0
   -2.7703   -3.1985   -2.3231 H   0  0  0  0  0  0  0  0  0  0  0  0
   -0.7505   -2.5288   -1.9258 C   0  0  0  0  0  0  0  0  0  0  0  0
   -0.3180   -3.5428   -1.9281 H   0  0  0  0  0  0  0  0  0  0  0  0
    0.1150   -1.4193   -1.6937 C   0  0  0  0  0  0  0  0  0  0  0  0
    1.4952   -1.6370   -1.4363 C   0  0  0  0  0  0  0  0  0  0  0  0
    1.8849   -2.6682   -1.4078 H   0  0  0  0  0  0  0  0  0  0  0  0
    5.6751    0.5432   -0.1914 C   0  0  0  0  0  0  0  0  0  0  0  0
    6.1458    1.5003    0.0826 H   0  0  0  0  0  0  0  0  0  0  0  0
    4.3259    0.5361   -0.5537 C   0  0  0  0  0  0  0  0  0  0  0  0
    3.7308    1.4667   -0.5357 H   0  0  0  0  0  0  0  0  0  0  0  0
    3.7005   -0.6831   -0.8921 C   0  0  0  0  0  0  0  0  0  0  0  0
    4.4421   -1.8808   -0.8676 C   0  0  0  0  0  0  0  0  0  0  0  0
    3.9754   -2.8420   -1.1257 H   0  0  0  0  0  0  0  0  0  0  0  0
    5.7925   -1.8505   -0.5031 C   0  0  0  0  0  0  0  0  0  0  0  0
    6.3636   -2.7920   -0.4845 H   0  0  0  0  0  0  0  0  0  0  0  0
    6.4387   -0.6439   -0.1586 C   0  0  0  0  0  0  0  0  0  0  0  0
    7.8995   -0.6155    0.2074 C   0  0  0  0  0  0  0  0  0  0  0  0
    8.0929    0.0740    1.0535 H   0  0  0  0  0  0  0  0  0  0  0  0
    8.5151   -0.2565   -0.6455 H   0  0  0  0  0  0  0  0  0  0  0  0
    8.2737   -1.6199    0.4852 H   0  0  0  0  0  0  0  0  0  0  0  0
    2.3334   -0.6362   -1.2081 N   0  0  0  0  0  4  0  0  0  0  0  0
    1.8146    0.2983   -1.2333 H   0  0  0  0  0  0  0  0  0  0  0  0
    0.3489    0.9430   -1.4257 O   0  5  0  0  0  0  0  0  0  0  0  0
  1 29  1  0  0  0  0
  2  3  1  0  0  0  0
  2  1  2  0  0  0  0
  4  6  2  0  0  0  0
  4  2  1  0  0  0  0
  5  4  1  0  0  0  0
  6  8  1  0  0  0  0
  7  6  1  0  0  0  0
  8 10  2  0  0  0  0
  9  8  1  0  0  0  0
 10  1  1  0  0  0  0
 10 11  1  0  0  0  0
 11 12  1  0  0  0  0
 11 27  2  0  0  0  0
 13 22  1  0  0  0  0
 13 14  1  0  0  0  0
 15 16  1  0  0  0  0
 15 13  2  0  0  0  0
 17 18  2  0  0  0  0
 17 15  1  0  0  0  0
 18 20  1  0  0  0  0
 19 18  1  0  0  0  0
 20 21  1  0  0  0  0
 20 22  2  0  0  0  0
 22 23  1  0  0  0  0
 23 26  1  0  0  0  0
 23 24  1  0  0  0  0
 25 23  1  0  0  0  0
 27 17  1  0  0  0  0
 28 27  1  0  0  0  0
M  CHG  1  29  -1
M  END
