1
q = -1.0

 34 35  0  0  0  0  0  0  0  0999 V2000
    1.1401    0.5889   -0.6476 O   0  0  0  0  0  1  0  0  0  0  0  0
    0.6660    1.7493   -0.8247 N   0  0  0  0  0  0  0  0  0  0  0  0
    1.3824    2.9878   -0.3442 C   0  0  0  0  0  0  0  0  0  0  0  0
    1.3679    2.9709    1.1920 C   0  0  0  0  0  0  0  0  0  0  0  0
    1.7993    2.0113    1.5379 H   0  0  0  0  0  0  0  0  0  0  0  0
    0.3467    3.0902    1.5986 H   0  0  0  0  0  0  0  0  0  0  0  0
    1.9918    3.7922    1.5916 H   0  0  0  0  0  0  0  0  0  0  0  0
    2.8321    2.9280   -0.8338 C   0  0  0  0  0  0  0  0  0  0  0  0
    3.3536    2.0889   -0.3367 H   0  0  0  0  0  0  0  0  0  0  0  0
    3.3561    3.8668   -0.5696 H   0  0  0  0  0  0  0  0  0  0  0  0
    2.9006    2.7782   -1.9260 H   0  0  0  0  0  0  0  0  0  0  0  0
    0.4952    4.1127   -0.9895 C   0  0  0  0  0  0  0  0  0  0  0  0
    0.1359    5.2793   -0.0719 C   0  0  0  0  0  0  0  0  0  0  0  0
   -0.5389    5.9682   -0.6129 H   0  0  0  0  0  0  0  0  0  0  0  0
    1.0504    5.8325    0.2163 H   0  0  0  0  0  0  0  0  0  0  0  0
   -0.3879    4.9474    0.8422 H   0  0  0  0  0  0  0  0  0  0  0  0
    1.0231    4.6366   -2.3337 C   0  0  0  0  0  0  0  0  0  0  0  0
    0.2321    5.2529   -2.8025 H   0  0  0  0  0  0  0  0  0  0  0  0
    1.2769    3.8128   -3.0276 H   0  0  0  0  0  0  0  0  0  0  0  0
    1.9213    5.2650   -2.1848 H   0  0  0  0  0  0  0  0  0  0  0  0
   -0.7826    3.3531   -1.3233 N   0  0  0  0  0  0  0  0  0  0  0  0
   -1.8243    3.9533   -1.6793 O   0  0  0  0  0  1  0  0  0  0  0  0
   -0.5829    2.0082   -1.3208 C   0  0  0  0  0  3  0  0  0  0  0  0
   -1.5169    1.0099   -1.7469 C   0  0  0  0  0  0  0  0  0  0  0  0
   -2.9056    1.1674   -2.0625 C   0  0  0  0  0  0  0  0  0  0  0  0
   -3.4922    2.0915   -2.0502 H   0  0  0  0  0  0  0  0  0  0  0  0
   -3.4620   -0.0053   -2.3640 N   0  0  0  0  0  0  0  0  0  0  0  0
   -2.4634   -0.9147   -2.2578 N   0  0  0  0  0  0  0  0  0  0  0  0
   -2.7267   -2.3135   -2.5447 C   0  0  0  0  0  0  0  0  0  0  0  0
   -3.7178   -2.5732   -2.1326 H   0  0  0  0  0  0  0  0  0  0  0  0
   -1.9516   -2.9322   -2.0582 H   0  0  0  0  0  0  0  0  0  0  0  0
   -2.7268   -2.4955   -3.6382 H   0  0  0  0  0  0  0  0  0  0  0  0
   -1.2765   -0.3731   -1.8940 C   0  0  0  0  0  0  0  0  0  0  0  0
   -0.3647   -0.9743   -1.7912 H   0  0  0  0  0  0  0  0  0  0  0  0
  2  1  1  0  0  0  0
  2  3  1  0  0  0  0
  3  4  1  0  0  0  0
  4  5  1  0  0  0  0
  4  7  1  0  0  0  0
  4  6  1  0  0  0  0
  8 10  1  0  0  0  0
  8  3  1  0  0  0  0
  8  9  1  0  0  0  0
 11  8  1  0  0  0  0
 12  3  1  0  0  0  0
 12 13  1  0  0  0  0
 13 15  1  0  0  0  0
 13 16  1  0  0  0  0
 14 13  1  0  0  0  0
 17 20  1  0  0  0  0
 17 12  1  0  0  0  0
 18 17  1  0  0  0  0
 19 17  1  0  0  0  0
 21 23  1  0  0  0  0
 21 12  1  0  0  0  0
 22 21  1  0  0  0  0
 23  2  1  0  0  0  0
 24 23  1  0  0  0  0
 25 26  1  0  0  0  0
 25 24  1  0  0  0  0
 27 28  1  0  0  0  0
 27 25  2  0  0  0  0
 28 33  1  0  0  0  0
 29 28  1  0  0  0  0
 29 30  1  0  0  0  0
 29 31  1  0  0  0  0
 32 29  1  0  0  0  0
 33 34  1  0  0  0  0
 33 24  2  0  0  0  0
M  END
