6
q = -2.0, confidence = 0.63

  6  5  0  0  0  0  0  0  0  0999 V2000
   -0.2719   -1.5416    1.3775 S   0  0  0  0  0  0  0  0  0  0  0  0
   -2.1073   -0.7212    1.9644 S   0  0  0  0  0  0  0  0  0  0  0  0
   -3.4042   -0.8647    0.3338 S   0  0  0  0  0  0  0  0  0  0  0  0
   -2.9254    0.7999   -0.9505 S   0  0  0  0  0  0  0  0  0  0  0  0
   -1.4192    0.0799   -2.1730 S   0  0  0  0  0  0  0  0  0  0  0  0
   -0.0019    0.0333   -1.3706 O   0  0  0  0  0  0  0  0  0  0  0  0
  1  2  1  0  0  0  0
  3  2  1  0  0  0  0
  4  3  1  0  0  0  0
  5  6  1  0  0  0  0
  5  4  1  0  0  0  0
M  END
