1
q = -1.0

 28 29  0  0  0  0  0  0  0  0999 V2000
    0.2495   -0.1822   -1.1601 O   0  5  0  0  0  0  0  0  0  0  0  0
   -1.9857    0.1052   -0.6503 N   0  0  0  0  0  0  0  0  0  0  0  0
   -1.7735    1.4575   -0.2744 C   0  0  0  0  0  0  0  0  0  0  0  0
   -1.2835    2.3904   -1.2129 C   0  0  0  0  0  0  0  0  0  0  0  0
   -1.0417    3.7167   -0.8301 C   0  0  0  0  0  0  0  0  0  0  0  0
   -1.2944    4.1372    0.4861 C   0  0  0  0  0  0  0  0  0  0  0  0
   -1.7926    3.2120    1.4207 C   0  0  0  0  0  0  0  0  0  0  0  0
   -2.0250    1.8813    1.0496 C   0  0  0  0  0  0  0  0  0  0  0  0
   -3.1984   -0.5449   -0.3044 C   0  0  0  0  0  0  0  0  0  0  0  0
   -3.2294   -1.9285   -0.0143 C   0  0  0  0  0  0  0  0  0  0  0  0
   -4.4296   -2.5469    0.3549 C   0  0  0  0  0  0  0  0  0  0  0  0
   -5.6203   -1.8069    0.4502 C   0  0  0  0  0  0  0  0  0  0  0  0
   -5.5943   -0.4343    0.1591 C   0  0  0  0  0  0  0  0  0  0  0  0
   -4.4008    0.1932   -0.2224 C   0  0  0  0  0  0  0  0  0  0  0  0
   -1.0051   -0.5225   -1.4747 C   0  0  0  0  0  0  0  0  0  0  0  0
   -1.3090   -1.3761   -2.4849 C   0  0  0  0  0  0  0  0  0  0  0  0
   -4.3916    1.2662   -0.4604 H   0  0  0  0  0  0  0  0  0  0  0  0
   -1.0985    2.0596   -2.2453 H   0  0  0  0  0  0  0  0  0  0  0  0
   -0.6582    4.4332   -1.5726 H   0  0  0  0  0  0  0  0  0  0  0  0
   -1.1068    5.1798    0.7821 H   0  0  0  0  0  0  0  0  0  0  0  0
   -1.9942    3.5280    2.4557 H   0  0  0  0  0  0  0  0  0  0  0  0
   -2.4127    1.1577    1.7820 H   0  0  0  0  0  0  0  0  0  0  0  0
   -2.3073   -2.5193   -0.0982 H   0  0  0  0  0  0  0  0  0  0  0  0
   -4.4304   -3.6245    0.5794 H   0  0  0  0  0  0  0  0  0  0  0  0
   -6.5599   -2.2977    0.7435 H   0  0  0  0  0  0  0  0  0  0  0  0
   -6.5194    0.1598    0.2152 H   0  0  0  0  0  0  0  0  0  0  0  0
   -0.4982   -1.8956   -3.0107 H   0  0  0  0  0  0  0  0  0  0  0  0
   -2.3521   -1.5663   -2.7656 H   0  0  0  0  0  0  0  0  0  0  0  0
  2  9  1  0  0  0  0
  2  3  1  0  0  0  0
  3  8  1  0  0  0  0
  4  5  1  0  0  0  0
  4  3  2  0  0  0  0
  5  6  2  0  0  0  0
  6 20  1  0  0  0  0
  6  7  1  0  0  0  0
  7 21  1  0  0  0  0
  8  7  2  0  0  0  0
  8 22  1  0  0  0  0
  9 14  2  0  0  0  0
  9 10  1  0  0  0  0
 10 11  2  0  0  0  0
 11 12  1  0  0  0  0
 11 24  1  0  0  0  0
 12 25  1  0  0  0  0
 13 26  1  0  0  0  0
 13 12  2  0  0  0  0
 14 13  1  0  0  0  0
 15  1  1  0  0  0  0
 15  2  1  0  0  0  0
 16 15  2  0  0  0  0
 17 14  1  0  0  0  0
 18  4  1  0  0  0  0
 19  5  1  0  0  0  0
 23 10  1  0  0  0  0
 27 16  1  0  0  0  0
 28 16  1  0  0  0  0
M  CHG  1   1  -1
M  END
