1
q = -1.0

  5  4  0  0  0  0  0  0  0  0999 V2000
    0.7879   -1.3581   -1.6355 O   0  0  0  0  0  0  0  0  0  0  0  0
    1.3711   -3.4571   -2.1377 F   0  0  0  0  0  0  0  0  0  0  0  0
    1.0335   -2.9343   -0.0195 F   0  0  0  0  0  0  0  0  0  0  0  0
    2.8195   -2.1804   -1.0823 F   0  0  0  0  0  0  0  0  0  0  0  0
    1.4343   -2.3786   -1.2797 C   0  0  0  0  0  0  0  0  0  0  0  0
  1  5  1  0  0  0  0
  2  5  1  0  0  0  0
  5  4  1  0  0  0  0
  5  3  1  0  0  0  0
M  END
