14
q = -2.0, confidence = 0.568

 14 14  0  0  0  0  0  0  0  0999 V2000
   -1.5160   -0.3291   -2.1114 S   0  0  0  0  0  0  0  0  0  0  0  0
   -2.9860   -0.9292    0.1451 C   0  0  0  0  0  3  0  0  0  0  0  0
   -2.9117   -0.1069   -0.9909 C   0  0  0  0  0  0  0  0  0  0  0  0
   -3.8858    0.8674   -1.2383 C   0  0  0  0  0  0  0  0  0  0  0  0
   -3.8074    1.4844   -2.1454 H   0  0  0  0  0  0  0  0  0  0  0  0
   -4.9463    1.0126   -0.3311 C   0  0  0  0  0  0  0  0  0  0  0  0
   -5.7208    1.7720   -0.5163 H   0  0  0  0  0  0  0  0  0  0  0  0
   -5.0291    0.1881    0.8047 C   0  0  0  0  0  0  0  0  0  0  0  0
   -5.8664    0.3050    1.5090 H   0  0  0  0  0  0  0  0  0  0  0  0
   -4.0463   -0.7827    1.0541 C   0  0  0  0  0  0  0  0  0  0  0  0
   -4.0831   -1.4154    1.9521 H   0  0  0  0  0  0  0  0  0  0  0  0
   -1.9411    0.0421   -3.4711 O   0  0  0  0  0  1  0  0  0  0  0  0
   -1.1789   -1.7950   -1.8803 O   0  0  0  0  0  1  0  0  0  0  0  0
   -0.3999    0.5626   -1.5739 O   0  0  0  0  0  1  0  0  0  0  0  0
  1 13  1  0  0  0  0
  1 14  1  0  0  0  0
  1  3  1  0  0  0  0
  2 10  1  0  0  0  0
  3  2  2  0  0  0  0
  4  3  1  0  0  0  0
  4  6  2  0  0  0  0
  5  4  1  0  0  0  0
  6  8  1  0  0  0  0
  7  6  1  0  0  0  0
  8 10  2  0  0  0  0
  8  9  1  0  0  0  0
 10 11  1  0  0  0  0
 12  1  1  0  0  0  0
M  END
