6
q = nan, confidence = 0.0

  6  5  0  0  0  0  0  0  0  0999 V2000
   -1.4959   -2.1033    0.5435 As  0  0  0  0  0  0  0  0  0  0  0  0
   -1.9737   -2.5950    2.1946 O   0  0  0  0  0  0  0  0  0  0  0  0
   -1.1395   -2.6300    2.7054 H   0  0  0  0  0  0  0  0  0  0  0  0
   -1.5347   -3.7215   -0.1660 O   0  0  0  0  0  0  0  0  0  0  0  0
   -1.3753   -3.5403   -1.1232 H   0  0  0  0  0  0  0  0  0  0  0  0
   -0.0166   -1.3513    0.7867 O   0  0  0  0  0  1  0  0  0  0  0  0
  1  6  1  0  0  0  0
  1  2  1  0  0  0  0
  2  3  1  0  0  0  0
  4  1  1  0  0  0  0
  5  4  1  0  0  0  0
M  END
