1
q = -1.0, confidence = 0.008

 16 16  0  0  0  0  0  0  0  0999 V2000
   -0.7937   -0.3996   -1.0705 O   0  5  0  0  0  0  0  0  0  0  0  0
   -1.2929    0.2824    1.0315 O   0  0  0  0  0  0  0  0  0  0  0  0
   -1.5675   -0.2837   -0.0511 C   0  0  0  0  0  0  0  0  0  0  0  0
   -2.9079   -1.0191   -0.1564 C   0  0  0  0  0  0  0  0  0  0  0  0
   -2.9098   -2.2404   -0.3069 O   0  0  0  0  0  0  0  0  0  0  0  0
   -4.1744   -0.2327   -0.0223 C   0  0  0  0  0  0  0  0  0  0  0  0
   -4.1821    1.1444    0.2863 C   0  0  0  0  0  0  0  0  0  0  0  0
   -3.2281    1.6541    0.4846 H   0  0  0  0  0  0  0  0  0  0  0  0
   -5.3972   -0.9040   -0.2349 C   0  0  0  0  0  0  0  0  0  0  0  0
   -5.3564   -1.9787   -0.4692 H   0  0  0  0  0  0  0  0  0  0  0  0
   -6.6111    1.1629    0.1537 C   0  0  0  0  0  0  0  0  0  0  0  0
   -7.5642    1.7101    0.2218 H   0  0  0  0  0  0  0  0  0  0  0  0
   -5.3979    1.8365    0.3735 C   0  0  0  0  0  0  0  0  0  0  0  0
   -5.4015    2.9093    0.6204 H   0  0  0  0  0  0  0  0  0  0  0  0
   -6.6091   -0.2104   -0.1502 C   0  0  0  0  0  0  0  0  0  0  0  0
   -7.5603   -0.7376   -0.3214 H   0  0  0  0  0  0  0  0  0  0  0  0
  1  3  1  0  0  0  0
  3  2  2  0  0  0  0
  4  3  1  0  0  0  0
  4  6  1  0  0  0  0
  5  4  2  0  0  0  0
  6  7  1  0  0  0  0
  7 13  2  0  0  0  0
  7  8  1  0  0  0  0
  9 15  1  0  0  0  0
  9  6  2  0  0  0  0
 10  9  1  0  0  0  0
 11 12  1  0  0  0  0
 11 13  1  0  0  0  0
 13 14  1  0  0  0  0
 15 11  2  0  0  0  0
 16 15  1  0  0  0  0
M  CHG  1   1  -1
M  END
