4
q = -1.0, confidence = 0.002

  4  3  0  0  0  0  0  0  0  0999 V2000
    4.0512   -1.5383    1.7147 S   0  0  0  0  0  0  0  0  0  0  0  0
    2.5485   -0.5720   -0.4963 N   0  0  0  0  0  0  0  0  0  0  0  0
    3.2026   -0.9983    0.4005 C   0  0  0  0  0  0  0  0  0  0  0  0
    1.7742   -0.1398   -1.3855 O   0  0  0  0  0  0  0  0  0  0  0  0
  2  3  2  0  0  0  0
  3  1  2  0  0  0  0
  4  2  1  0  0  0  0
M  END
