3
q = 0.0, confidence = 0.962

 17 18  0  0  1  0  0  0  0  0999 V2000
   -3.6169   -1.6380    0.5374 S   0  0  0  0  0  0  0  0  0  0  0  0
   -1.9570   -1.0789    0.4417 N   0  0  0  0  0  0  0  0  0  0  0  0
   -0.7278    0.7928   -0.0977 O   0  0  0  0  0  1  0  0  0  0  0  0
   -3.9734   -1.7492    1.9583 O   0  0  0  0  0  0  0  0  0  0  0  0
   -3.8011   -2.7569   -0.3939 O   0  0  0  0  0  0  0  0  0  0  0  0
   -3.1329    0.7770   -0.4171 C   0  0  0  0  0  0  0  0  0  0  0  0
   -4.2107   -0.0941   -0.1814 C   0  0  0  0  0  0  0  0  0  0  0  0
   -5.5277    0.2407   -0.4891 C   0  0  0  0  0  0  0  0  0  0  0  0
   -6.3564   -0.4574   -0.3025 H   0  0  0  0  0  0  0  0  0  0  0  0
   -3.3663    2.0420   -0.9733 C   0  0  0  0  0  0  0  0  0  0  0  0
   -2.5270    2.7281   -1.1584 H   0  0  0  0  0  0  0  0  0  0  0  0
   -1.8376    0.1760   -0.0169 C   0  0  2  0  0  3  0  0  0  0  0  0
   -4.6877    2.4028   -1.2838 C   0  0  0  0  0  0  0  0  0  0  0  0
   -4.8947    3.3910   -1.7197 H   0  0  0  0  0  0  0  0  0  0  0  0
   -5.7534    1.5139   -1.0459 C   0  0  0  0  0  0  0  0  0  0  0  0
   -6.7805    1.8170   -1.2977 H   0  0  0  0  0  0  0  0  0  0  0  0
   -1.0304   -1.4140    1.0217 H   0  0  0  0  0  0  0  0  0  0  0  0
  1  4  2  0  0  0  0
  2  1  1  0  0  0  0
  2 17  1  0  0  0  0
  5  1  2  0  0  0  0
  6  7  1  0  0  0  0
  6 12  1  0  0  0  0
  7  1  1  0  0  0  0
  8  9  1  0  0  0  0
  8  7  2  0  0  0  0
 10  6  2  0  0  0  0
 11 10  1  0  0  0  0
 12  3  1  1  0  0  0
 12  2  1  0  0  0  0
 13 15  2  0  0  0  0
 13 10  1  0  0  0  0
 14 13  1  0  0  0  0
 15  8  1  0  0  0  0
 16 15  1  0  0  0  0
M  END
