3
q = -1.0

 16 16  0  0  0  0  0  0  0  0999 V2000
    4.1701    4.5032   -1.2356 Cl  0  0  0  0  0  0  0  0  0  0  0  0
    0.4738    0.3256    1.0491 O   0  5  0  0  0  0  0  0  0  0  0  0
    0.2520    0.5439   -1.1976 O   0  0  0  0  0  0  0  0  0  0  0  0
    2.4009   -1.7324    0.1393 O   0  0  0  0  0  0  0  0  0  0  0  0
    4.0326   -1.5211    1.5774 O   0  0  0  0  0  0  0  0  0  0  0  0
    3.2768   -1.0763    0.7091 N   0  0  0  0  0  0  0  0  0  0  0  0
    2.3461    1.0597   -0.1938 C   0  0  0  0  0  0  0  0  0  0  0  0
    3.4468    0.3218    0.2912 C   0  0  0  0  0  0  0  0  0  0  0  0
    4.7415    0.8581    0.3467 C   0  0  0  0  0  0  0  0  0  0  0  0
    5.5547    0.2375    0.7474 H   0  0  0  0  0  0  0  0  0  0  0  0
    4.9750    2.1534   -0.1211 C   0  0  0  0  0  0  0  0  0  0  0  0
    5.9818    2.5919   -0.1011 H   0  0  0  0  0  0  0  0  0  0  0  0
    3.8931    2.8910   -0.6374 C   0  0  0  0  0  0  0  0  0  0  0  0
    2.5971    2.3547   -0.6784 C   0  0  0  0  0  0  0  0  0  0  0  0
    1.7650    2.9458   -1.0851 H   0  0  0  0  0  0  0  0  0  0  0  0
    0.9016    0.5760   -0.1323 C   0  0  0  0  0  0  0  0  0  0  0  0
  1 13  1  0  0  0  0
  3 16  2  0  0  0  0
  4  6  2  0  0  0  0
  6  5  2  0  0  0  0
  7 16  1  0  0  0  0
  7  8  1  0  0  0  0
  8  9  2  0  0  0  0
  8  6  1  0  0  0  0
  9 10  1  0  0  0  0
 11 12  1  0  0  0  0
 11  9  1  0  0  0  0
 13 11  2  0  0  0  0
 14 13  1  0  0  0  0
 14  7  2  0  0  0  0
 15 14  1  0  0  0  0
 16  2  1  0  0  0  0
M  CHG  1   2  -1
M  END
