1
q = -1.0

 39 39  0  0  0  0  0  0  0  0999 V2000
   -0.3483   -0.0001   -0.2296 O   0  5  0  0  0  0  0  0  0  0  0  0
    1.0133    0.0001   -0.1187 C   0  0  0  0  0  0  0  0  0  0  0  0
    1.7029   -1.2514   -0.0644 C   0  0  0  0  0  0  0  0  0  0  0  0
    3.0977   -1.2028    0.0967 C   0  0  0  0  0  0  0  0  0  0  0  0
    3.6609   -2.1434    0.1482 H   0  0  0  0  0  0  0  0  0  0  0  0
    3.8138    0.0005    0.1926 C   0  0  0  0  0  0  0  0  0  0  0  0
    3.0974    1.2036    0.0966 C   0  0  0  0  0  0  0  0  0  0  0  0
    3.6603    2.1443    0.1479 H   0  0  0  0  0  0  0  0  0  0  0  0
    1.7025    1.2517   -0.0645 C   0  0  0  0  0  0  0  0  0  0  0  0
    5.3049    0.0007    0.4112 C   0  0  0  0  0  0  0  0  0  0  0  0
    5.7828    0.8995   -0.0260 H   0  0  0  0  0  0  0  0  0  0  0  0
    5.7835   -0.8961   -0.0294 H   0  0  0  0  0  0  0  0  0  0  0  0
    5.5473   -0.0014    1.4963 H   0  0  0  0  0  0  0  0  0  0  0  0
    0.9846   -2.6098   -0.2016 C   0  0  0  0  0  0  0  0  0  0  0  0
    0.0131   -2.8234    0.9824 C   0  0  0  0  0  0  0  0  0  0  0  0
   -0.5711   -3.7550    0.8406 H   0  0  0  0  0  0  0  0  0  0  0  0
   -0.7100   -2.0008    1.1217 H   0  0  0  0  0  0  0  0  0  0  0  0
    0.5805   -2.9101    1.9309 H   0  0  0  0  0  0  0  0  0  0  0  0
    1.9738   -3.7930   -0.1692 C   0  0  0  0  0  0  0  0  0  0  0  0
    2.7074   -3.7475   -0.9988 H   0  0  0  0  0  0  0  0  0  0  0  0
    1.4060   -4.7382   -0.2801 H   0  0  0  0  0  0  0  0  0  0  0  0
    2.5290   -3.8518    0.7882 H   0  0  0  0  0  0  0  0  0  0  0  0
    0.2678   -2.6733   -1.5713 C   0  0  0  0  0  0  0  0  0  0  0  0
    1.0120   -2.6117   -2.3908 H   0  0  0  0  0  0  0  0  0  0  0  0
   -0.4640   -1.8608   -1.7137 H   0  0  0  0  0  0  0  0  0  0  0  0
   -0.2776   -3.6336   -1.6728 H   0  0  0  0  0  0  0  0  0  0  0  0
    0.9838    2.6099   -0.2016 C   0  0  0  0  0  0  0  0  0  0  0  0
    1.9726    3.7934   -0.1694 C   0  0  0  0  0  0  0  0  0  0  0  0
    2.5280    3.8524    0.7880 H   0  0  0  0  0  0  0  0  0  0  0  0
    1.4045    4.7385   -0.2801 H   0  0  0  0  0  0  0  0  0  0  0  0
    2.7061    3.7481   -0.9990 H   0  0  0  0  0  0  0  0  0  0  0  0
    0.0124    2.8231    0.9826 C   0  0  0  0  0  0  0  0  0  0  0  0
   -0.7101    2.0001    1.1222 H   0  0  0  0  0  0  0  0  0  0  0  0
   -0.5725    3.7543    0.8407 H   0  0  0  0  0  0  0  0  0  0  0  0
    0.5800    2.9104    1.9309 H   0  0  0  0  0  0  0  0  0  0  0  0
    0.2669    2.6732   -1.5713 C   0  0  0  0  0  0  0  0  0  0  0  0
   -0.4646    1.8605   -1.7138 H   0  0  0  0  0  0  0  0  0  0  0  0
    1.0111    2.6120   -2.3909 H   0  0  0  0  0  0  0  0  0  0  0  0
   -0.2789    3.6333   -1.6727 H   0  0  0  0  0  0  0  0  0  0  0  0
  1  2  1  0  0  0  0
  2  9  2  0  0  0  0
  2  3  1  0  0  0  0
  3  4  2  0  0  0  0
  4  5  1  0  0  0  0
  4  6  1  0  0  0  0
  6 10  1  0  0  0  0
  7  8  1  0  0  0  0
  7  6  2  0  0  0  0
  9  7  1  0  0  0  0
 10 13  1  0  0  0  0
 11 10  1  0  0  0  0
 12 10  1  0  0  0  0
 14 19  1  0  0  0  0
 14  3  1  0  0  0  0
 14 15  1  0  0  0  0
 15 17  1  0  0  0  0
 15 18  1  0  0  0  0
 16 15  1  0  0  0  0
 19 22  1  0  0  0  0
 20 19  1  0  0  0  0
 21 19  1  0  0  0  0
 23 14  1  0  0  0  0
 24 23  1  0  0  0  0
 25 23  1  0  0  0  0
 26 23  1  0  0  0  0
 27 28  1  0  0  0  0
 27  9  1  0  0  0  0
 27 32  1  0  0  0  0
 28 29  1  0  0  0  0
 30 28  1  0  0  0  0
 31 28  1  0  0  0  0
 32 33  1  0  0  0  0
 32 35  1  0  0  0  0
 34 32  1  0  0  0  0
 36 27  1  0  0  0  0
 37 36  1  0  0  0  0
 38 36  1  0  0  0  0
 39 36  1  0  0  0  0
M  CHG  1   1  -1
M  END
