1
q = -1.0

 21 21  0  0  0  0  0  0  0  0999 V2000
   -0.3243   -0.6135    1.1886 O   0  5  0  0  0  0  0  0  0  0  0  0
    0.5905   -1.5689    1.3920 C   0  0  0  0  0  0  0  0  0  0  0  0
    1.9697   -1.1928    1.5131 C   0  0  0  0  0  0  0  0  0  0  0  0
    2.9283   -2.2178    1.6889 C   0  0  0  0  0  0  0  0  0  0  0  0
    2.5557   -3.5622    1.7738 C   0  0  0  0  0  0  0  0  0  0  0  0
    1.1931   -3.9148    1.7071 C   0  0  0  0  0  0  0  0  0  0  0  0
    0.2204   -2.9272    1.5238 C   0  0  0  0  0  0  0  0  0  0  0  0
    2.3086    0.2262    1.4820 C   0  0  0  0  0  0  0  0  0  0  0  0
    3.5488    0.7754    1.3711 C   0  0  0  0  0  0  0  0  0  0  0  0
    3.8243    2.2290    1.3558 C   0  0  0  0  0  0  0  0  0  0  0  0
    2.6856    3.1926    1.6586 C   0  0  0  0  0  0  0  0  0  0  0  0
    4.9602    2.6396    1.1131 O   0  0  0  0  0  0  0  0  0  0  0  0
    3.9890   -1.9391    1.7802 H   0  0  0  0  0  0  0  0  0  0  0  0
    3.3219   -4.3384    1.9170 H   0  0  0  0  0  0  0  0  0  0  0  0
    0.8904   -4.9686    1.8067 H   0  0  0  0  0  0  0  0  0  0  0  0
   -0.8493   -3.1783    1.4880 H   0  0  0  0  0  0  0  0  0  0  0  0
    1.4362    0.8950    1.5497 H   0  0  0  0  0  0  0  0  0  0  0  0
    4.4507    0.1563    1.2349 H   0  0  0  0  0  0  0  0  0  0  0  0
    1.8131    3.0173    0.9981 H   0  0  0  0  0  0  0  0  0  0  0  0
    3.0516    4.2263    1.5249 H   0  0  0  0  0  0  0  0  0  0  0  0
    2.3328    3.0607    2.7023 H   0  0  0  0  0  0  0  0  0  0  0  0
  1  2  1  0  0  0  0
  2  3  2  0  0  0  0
  2  7  1  0  0  0  0
  3  4  1  0  0  0  0
  4  5  2  0  0  0  0
  4 13  1  0  0  0  0
  5 14  1  0  0  0  0
  6  5  1  0  0  0  0
  6 15  1  0  0  0  0
  7  6  2  0  0  0  0
  8  3  1  0  0  0  0
  8 17  1  0  0  0  0
  9  8  2  0  0  0  0
 10  9  1  0  0  0  0
 10 11  1  0  0  0  0
 11 21  1  0  0  0  0
 12 10  2  0  0  0  0
 16  7  1  0  0  0  0
 18  9  1  0  0  0  0
 19 11  1  0  0  0  0
 20 11  1  0  0  0  0
M  CHG  1   1  -1
M  END
