1
q = 0.0, confidence = 1.0

 24 24  0  0  0  0  0  0  0  0999 V2000
   -0.4475   -1.3784    0.6416 O   0  0  0  0  0  1  0  0  0  0  0  0
    0.7667   -0.9695    0.4617 N   0  0  0  0  0  0  0  0  0  0  0  0
    1.1845    0.2636    0.9054 C   0  0  0  0  0  3  0  0  0  0  0  0
    2.4927    0.6828    0.7076 C   0  0  0  0  0  0  0  0  0  0  0  0
    3.4473   -0.1276    0.0539 C   0  0  0  0  0  0  0  0  0  0  0  0
    2.9816   -1.3833   -0.3839 C   0  0  0  0  0  0  0  0  0  0  0  0
    1.6631   -1.7795   -0.1841 C   0  0  0  0  0  0  0  0  0  0  0  0
    4.8849    0.3629   -0.1511 C   0  0  0  0  0  0  0  0  0  0  0  0
    4.8568    1.6607   -0.9915 C   0  0  0  0  0  0  0  0  0  0  0  0
    5.5203    0.6515    1.2287 C   0  0  0  0  0  0  0  0  0  0  0  0
    5.7468   -0.6800   -0.8826 C   0  0  0  0  0  0  0  0  0  0  0  0
    0.4057    0.8526    1.4096 H   0  0  0  0  0  0  0  0  0  0  0  0
    2.7612    1.6804    1.0841 H   0  0  0  0  0  0  0  0  0  0  0  0
    3.6434   -2.0859   -0.9064 H   0  0  0  0  0  0  0  0  0  0  0  0
    1.2378   -2.7361   -0.5130 H   0  0  0  0  0  0  0  0  0  0  0  0
    5.8883    2.0374   -1.1474 H   0  0  0  0  0  0  0  0  0  0  0  0
    4.2783    2.4636   -0.4929 H   0  0  0  0  0  0  0  0  0  0  0  0
    4.4002    1.4816   -1.9855 H   0  0  0  0  0  0  0  0  0  0  0  0
    6.5600    1.0165    1.1018 H   0  0  0  0  0  0  0  0  0  0  0  0
    5.5501   -0.2639    1.8532 H   0  0  0  0  0  0  0  0  0  0  0  0
    4.9595    1.4262    1.7885 H   0  0  0  0  0  0  0  0  0  0  0  0
    6.7760   -0.2903   -1.0115 H   0  0  0  0  0  0  0  0  0  0  0  0
    5.8203   -1.6285   -0.3130 H   0  0  0  0  0  0  0  0  0  0  0  0
    5.3502   -0.9088   -1.8924 H   0  0  0  0  0  0  0  0  0  0  0  0
  2  1  1  0  0  0  0
  2  3  1  0  0  0  0
  3 12  1  0  0  0  0
  4  3  1  0  0  0  0
  4 13  1  0  0  0  0
  5  4  2  0  0  0  0
  6  7  2  0  0  0  0
  6  5  1  0  0  0  0
  7  2  1  0  0  0  0
  8  5  1  0  0  0  0
  8 10  1  0  0  0  0
  9 17  1  0  0  0  0
  9  8  1  0  0  0  0
 10 21  1  0  0  0  0
 10 20  1  0  0  0  0
 11 23  1  0  0  0  0
 11  8  1  0  0  0  0
 14  6  1  0  0  0  0
 15  7  1  0  0  0  0
 16  9  1  0  0  0  0
 18  9  1  0  0  0  0
 19 10  1  0  0  0  0
 22 11  1  0  0  0  0
 24 11  1  0  0  0  0
M  END
