2
q = -1.0

 37 38  0  0  0  0  0  0  0  0999 V2000
   -0.6809    1.0110    0.0031 P   0  0  0  0  0  0  0  0  0  0  0  0
   -0.1322   -1.9077    0.2019 O   0  5  0  0  0  0  0  0  0  0  0  0
   -2.5122   -2.5948    0.1842 C   0  0  0  0  0  0  0  0  0  0  0  0
   -2.3865   -3.3352   -0.6353 H   0  0  0  0  0  0  0  0  0  0  0  0
   -2.4870   -3.1739    1.1331 H   0  0  0  0  0  0  0  0  0  0  0  0
   -1.3915   -1.5713    0.1551 C   0  0  0  0  0  0  0  0  0  0  0  0
   -1.9227   -0.2815    0.0519 C   0  0  0  0  0  0  0  0  0  0  0  0
   -3.3813   -0.3688   -0.0450 C   0  0  0  0  0  0  0  0  0  0  0  0
   -4.3827    0.6058   -0.2160 C   0  0  0  0  0  0  0  0  0  0  0  0
   -4.1243    1.6721   -0.2930 H   0  0  0  0  0  0  0  0  0  0  0  0
   -5.7301    0.2064   -0.2910 C   0  0  0  0  0  0  0  0  0  0  0  0
   -6.5118    0.9703   -0.4254 H   0  0  0  0  0  0  0  0  0  0  0  0
   -6.0908   -1.1468   -0.1973 C   0  0  0  0  0  0  0  0  0  0  0  0
   -7.1495   -1.4407   -0.2558 H   0  0  0  0  0  0  0  0  0  0  0  0
   -5.0936   -2.1317   -0.0334 C   0  0  0  0  0  0  0  0  0  0  0  0
   -5.3713   -3.1959    0.0333 H   0  0  0  0  0  0  0  0  0  0  0  0
   -3.7557   -1.7473    0.0369 C   0  0  0  0  0  0  0  0  0  0  0  0
   -1.0672    2.0996   -1.4690 C   0  0  0  0  0  0  0  0  0  0  0  0
   -2.1444    2.3577   -1.3682 H   0  0  0  0  0  0  0  0  0  0  0  0
   -0.8810    1.2694   -2.7441 C   0  0  0  0  0  0  0  0  0  0  0  0
   -1.5107    0.3580   -2.7241 H   0  0  0  0  0  0  0  0  0  0  0  0
    0.1746    0.9453   -2.8524 H   0  0  0  0  0  0  0  0  0  0  0  0
   -1.1600    1.8640   -3.6387 H   0  0  0  0  0  0  0  0  0  0  0  0
   -0.2424    3.3905   -1.4730 C   0  0  0  0  0  0  0  0  0  0  0  0
   -0.4470    4.0281   -0.5903 H   0  0  0  0  0  0  0  0  0  0  0  0
   -0.4783    3.9900   -2.3767 H   0  0  0  0  0  0  0  0  0  0  0  0
    0.8463    3.1791   -1.4926 H   0  0  0  0  0  0  0  0  0  0  0  0
   -0.8496    2.0912    1.5267 C   0  0  0  0  0  0  0  0  0  0  0  0
   -0.0347    2.8411    1.4106 H   0  0  0  0  0  0  0  0  0  0  0  0
   -0.5561    1.2336    2.7633 C   0  0  0  0  0  0  0  0  0  0  0  0
    0.4336    0.7386    2.6842 H   0  0  0  0  0  0  0  0  0  0  0  0
   -1.3193    0.4361    2.8743 H   0  0  0  0  0  0  0  0  0  0  0  0
   -0.5738    1.8566    3.6815 H   0  0  0  0  0  0  0  0  0  0  0  0
   -2.1946    2.8144    1.6339 C   0  0  0  0  0  0  0  0  0  0  0  0
   -2.4155    3.4432    0.7482 H   0  0  0  0  0  0  0  0  0  0  0  0
   -2.1990    3.4806    2.5222 H   0  0  0  0  0  0  0  0  0  0  0  0
   -3.0239    2.0896    1.7555 H   0  0  0  0  0  0  0  0  0  0  0  0
  1  7  1  0  0  0  0
  1 28  1  0  0  0  0
  3  5  1  0  0  0  0
  4  3  1  0  0  0  0
  6  3  1  0  0  0  0
  6  2  1  0  0  0  0
  7  6  2  0  0  0  0
  8 17  1  0  0  0  0
  8  7  1  0  0  0  0
  9  8  2  0  0  0  0
 10  9  1  0  0  0  0
 11  9  1  0  0  0  0
 11 13  2  0  0  0  0
 12 11  1  0  0  0  0
 13 15  1  0  0  0  0
 14 13  1  0  0  0  0
 15 16  1  0  0  0  0
 15 17  2  0  0  0  0
 17  3  1  0  0  0  0
 18 19  1  0  0  0  0
 18  1  1  0  0  0  0
 20 21  1  0  0  0  0
 20 18  1  0  0  0  0
 22 20  1  0  0  0  0
 23 20  1  0  0  0  0
 24 18  1  0  0  0  0
 24 25  1  0  0  0  0
 26 24  1  0  0  0  0
 27 24  1  0  0  0  0
 28 34  1  0  0  0  0
 28 30  1  0  0  0  0
 29 28  1  0  0  0  0
 30 32  1  0  0  0  0
 30 33  1  0  0  0  0
 31 30  1  0  0  0  0
 34 37  1  0  0  0  0
 34 36  1  0  0  0  0
 35 34  1  0  0  0  0
M  CHG  1   2  -1
M  END
