1
q = -1.0, confidence = 0.044

 11 10  0  0  0  0  0  0  0  0999 V2000
    1.5667   -1.5253   -0.0658 O   0  5  0  0  0  0  0  0  0  0  0  0
    2.8751    0.3113    0.0958 O   0  0  0  0  0  0  0  0  0  0  0  0
    2.7160   -0.9321   -0.0095 C   0  0  0  0  0  0  0  0  0  0  0  0
    3.8942   -1.8538   -0.0826 C   0  0  0  0  0  0  0  0  0  0  0  0
    3.6686   -2.9296   -0.1723 H   0  0  0  0  0  0  0  0  0  0  0  0
    5.1628   -1.3970   -0.0431 C   0  0  0  0  0  0  0  0  0  0  0  0
    5.2810   -0.3009    0.0465 H   0  0  0  0  0  0  0  0  0  0  0  0
    6.3988   -2.2346   -0.1111 C   0  0  0  0  0  0  0  0  0  0  0  0
    6.1675   -3.3147   -0.1985 H   0  0  0  0  0  0  0  0  0  0  0  0
    7.0335   -2.0866    0.7901 H   0  0  0  0  0  0  0  0  0  0  0  0
    7.0326   -1.9436   -0.9775 H   0  0  0  0  0  0  0  0  0  0  0  0
  1  3  1  0  0  0  0
  3  2  2  0  0  0  0
  4  6  2  0  0  0  0
  4  3  1  0  0  0  0
  5  4  1  0  0  0  0
  6  7  1  0  0  0  0
  8  6  1  0  0  0  0
  8 10  1  0  0  0  0
  9  8  1  0  0  0  0
 11  8  1  0  0  0  0
M  CHG  1   1  -1
M  END
