7
q = -1.0

 13 13  0  0  0  0  0  0  0  0999 V2000
    0.6954   -1.8782    1.8211 Br  0  0  0  0  0  0  0  0  0  0  0  0
    3.9553   -1.5792    2.5913 Br  0  0  0  0  0  0  0  0  0  0  0  0
    6.1109   -0.6324    0.2093 Br  0  0  0  0  0  0  0  0  0  0  0  0
    4.9459   -0.0691   -2.9092 Br  0  0  0  0  0  0  0  0  0  0  0  0
    1.9386   -0.7650   -3.0691 O   0  0  0  0  0  0  0  0  0  0  0  0
    0.9921   -1.0487   -2.8851 H   0  0  0  0  0  0  0  0  0  0  0  0
    0.2829   -1.4530   -1.2551 O   0  5  0  0  0  0  0  0  0  0  0  0
    2.4728   -0.9293   -1.8387 C   0  0  0  0  0  0  0  0  0  0  0  0
    1.5167   -1.3209   -0.8359 C   0  0  0  0  0  0  0  0  0  0  0  0
    1.9993   -1.4652    0.4859 C   0  0  0  0  0  0  0  0  0  0  0  0
    3.3649   -1.2796    0.8119 C   0  0  0  0  0  0  0  0  0  0  0  0
    4.2763   -0.8920   -0.1923 C   0  0  0  0  0  0  0  0  0  0  0  0
    3.8114   -0.6969   -1.5224 C   0  0  0  0  0  0  0  0  0  0  0  0
  4 13  1  0  0  0  0
  5  6  1  0  0  0  0
  5  8  1  0  0  0  0
  7  9  1  0  0  0  0
  8 13  2  0  0  0  0
  8  9  1  0  0  0  0
  9 10  2  0  0  0  0
 10 11  1  0  0  0  0
 10  1  1  0  0  0  0
 11  2  1  0  0  0  0
 12  3  1  0  0  0  0
 12 11  2  0  0  0  0
 13 12  1  0  0  0  0
M  CHG  1   7  -1
M  END
