1
q = -1.0

 15 15  0  0  0  0  0  0  0  0999 V2000
   -2.0427   -0.3283   -0.0002 O   0  5  0  0  0  0  0  0  0  0  0  0
   -2.3075    1.9302    0.0024 O   0  0  0  0  0  0  0  0  0  0  0  0
   -9.5983   -0.2816   -0.0000 N   0  0  0  0  0  0  0  0  0  0  0  0
   -2.7608    0.7637    0.0011 C   0  0  0  0  0  0  0  0  0  0  0  0
   -4.2387    0.5040    0.0008 C   0  0  0  0  0  0  0  0  0  0  0  0
   -5.1135    1.6085    0.0022 C   0  0  0  0  0  0  0  0  0  0  0  0
   -4.6808    2.6192    0.0036 H   0  0  0  0  0  0  0  0  0  0  0  0
   -6.4957    1.4112    0.0019 C   0  0  0  0  0  0  0  0  0  0  0  0
   -7.1854    2.2671    0.0031 H   0  0  0  0  0  0  0  0  0  0  0  0
   -7.0171    0.0950    0.0001 C   0  0  0  0  0  0  0  0  0  0  0  0
   -6.1373   -1.0142   -0.0014 C   0  0  0  0  0  0  0  0  0  0  0  0
   -6.5502   -2.0328   -0.0028 H   0  0  0  0  0  0  0  0  0  0  0  0
   -4.7557   -0.8077   -0.0010 C   0  0  0  0  0  0  0  0  0  0  0  0
   -4.0581   -1.6568   -0.0022 H   0  0  0  0  0  0  0  0  0  0  0  0
   -8.4363   -0.1132   -0.0002 C   0  0  0  0  0  0  0  0  0  0  0  0
  1  4  1  0  0  0  0
  4  2  2  0  0  0  0
  5  4  1  0  0  0  0
  5  6  1  0  0  0  0
  6  7  1  0  0  0  0
  8  6  2  0  0  0  0
  8  9  1  0  0  0  0
 10  8  1  0  0  0  0
 11 13  1  0  0  0  0
 11 10  2  0  0  0  0
 12 11  1  0  0  0  0
 13  5  2  0  0  0  0
 14 13  1  0  0  0  0
 15  3  3  0  0  0  0
 15 10  1  0  0  0  0
M  CHG  1   1  -1
M  END
