2
q = -1.0

 28 29  0  0  0  0  0  0  0  0999 V2000
    0.1009    1.1099   -0.3258 S   0  0  0  0  0  0  0  0  0  0  0  0
    1.0411   -1.3778    1.2253 O   0  5  0  0  0  0  0  0  0  0  0  0
   -0.4566   -2.8618    1.9306 O   0  0  0  0  0  0  0  0  0  0  0  0
   -3.7462   -1.2339    0.3997 N   0  0  0  0  0  0  0  0  0  0  0  0
   -4.0251    2.5599   -1.1897 C   0  0  0  0  0  0  0  0  0  0  0  0
   -4.1515    3.5625   -1.6241 H   0  0  0  0  0  0  0  0  0  0  0  0
   -5.6343   -1.6431    1.9776 C   0  0  0  0  0  0  0  0  0  0  0  0
   -4.9439   -1.8237    2.8257 H   0  0  0  0  0  0  0  0  0  0  0  0
   -6.5391   -2.2639    2.1322 H   0  0  0  0  0  0  0  0  0  0  0  0
   -5.9406   -0.5792    1.9863 H   0  0  0  0  0  0  0  0  0  0  0  0
   -5.0374    0.5159   -0.4319 N   0  0  0  0  0  0  0  0  0  0  0  0
   -1.3248   -1.0959    0.6170 C   0  0  0  0  0  0  0  0  0  0  0  0
   -5.1616    1.7415   -0.9502 C   0  0  0  0  0  0  0  0  0  0  0  0
   -2.6019    0.7841   -0.3197 C   0  0  0  0  0  0  0  0  0  0  0  0
   -4.9815   -2.0005    0.6456 C   0  0  0  0  0  0  0  0  0  0  0  0
   -4.7001   -3.0704    0.6090 H   0  0  0  0  0  0  0  0  0  0  0  0
   -5.6692   -1.7871   -0.1930 H   0  0  0  0  0  0  0  0  0  0  0  0
   -2.5451   -1.7405    0.7740 C   0  0  0  0  0  0  0  0  0  0  0  0
   -2.5312   -2.7293    1.2577 H   0  0  0  0  0  0  0  0  0  0  0  0
   -2.7615    2.0764   -0.8814 C   0  0  0  0  0  0  0  0  0  0  0  0
   -1.8601    2.6775   -1.0717 H   0  0  0  0  0  0  0  0  0  0  0  0
   -1.3044    0.2032    0.0208 C   0  0  0  0  0  0  0  0  0  0  0  0
   -0.1659   -1.8540    1.2774 C   0  0  0  0  0  0  0  0  0  0  0  0
   -6.5477    2.2233   -1.2814 C   0  0  0  0  0  0  0  0  0  0  0  0
   -7.2948    1.4691   -0.9756 H   0  0  0  0  0  0  0  0  0  0  0  0
   -6.6512    2.4072   -2.3713 H   0  0  0  0  0  0  0  0  0  0  0  0
   -6.7692    3.1833   -0.7713 H   0  0  0  0  0  0  0  0  0  0  0  0
   -3.8124    0.0519   -0.1287 C   0  0  0  0  0  0  0  0  0  0  0  0
  1 22  2  0  0  0  0
  2 23  1  0  0  0  0
  4 15  1  0  0  0  0
  4 18  1  0  0  0  0
  5 13  2  0  0  0  0
  5 20  1  0  0  0  0
  6  5  1  0  0  0  0
  7 10  1  0  0  0  0
  7  9  1  0  0  0  0
  7  8  1  0  0  0  0
 11 28  2  0  0  0  0
 12 18  2  0  0  0  0
 12 23  1  0  0  0  0
 13 11  1  0  0  0  0
 14 28  1  0  0  0  0
 14 22  1  0  0  0  0
 15  7  1  0  0  0  0
 16 15  1  0  0  0  0
 17 15  1  0  0  0  0
 18 19  1  0  0  0  0
 20 14  2  0  0  0  0
 21 20  1  0  0  0  0
 22 12  1  0  0  0  0
 23  3  2  0  0  0  0
 24 25  1  0  0  0  0
 24 13  1  0  0  0  0
 24 27  1  0  0  0  0
 26 24  1  0  0  0  0
 28  4  1  0  0  0  0
M  CHG  1   2  -1
M  END
