2
q = -1.0, confidence = 0.03

 57 58  0  0  1  0  0  0  0  0999 V2000
    0.5569    0.5532    0.5992 P   0  0  0  0  0  0  0  0  0  0  0  0
   -2.1114    0.6880   -0.9572 O   0  0  0  0  0  1  0  0  0  0  0  0
   -1.2376    1.7321   -1.2467 C   0  0  2  0  0  0  0  0  0  0  0  0
   -1.5157    2.2690   -2.6616 C   0  0  0  0  0  0  0  0  0  0  0  0
   -0.5536    3.3933   -3.0585 C   0  0  0  0  0  0  0  0  0  0  0  0
    0.9060    2.9437   -2.9256 C   0  0  0  0  0  0  0  0  0  0  0  0
    1.1947    2.4215   -1.5119 C   0  0  0  0  0  0  0  0  0  0  0  0
    0.2373    1.2877   -1.1194 C   0  0  1  0  0  0  0  0  0  0  0  0
    2.3713    0.1595    0.4728 C   0  0  0  0  0  0  0  0  0  0  0  0
    2.7004   -1.0489   -0.2068 C   0  0  0  0  0  0  0  0  0  0  0  0
    4.0457   -1.4363   -0.3264 C   0  0  0  0  0  0  0  0  0  0  0  0
    5.0893   -0.6731    0.2190 C   0  0  0  0  0  0  0  0  0  0  0  0
    4.7472    0.5055    0.9009 C   0  0  0  0  0  0  0  0  0  0  0  0
    3.4174    0.9459    1.0431 C   0  0  0  0  0  0  0  0  0  0  0  0
    1.6300   -1.9587   -0.8049 C   0  0  0  0  0  0  0  0  0  0  0  0
    1.6237   -3.3421   -0.1350 C   0  0  0  0  0  0  0  0  0  0  0  0
    1.7505   -2.0708   -2.3330 C   0  0  0  0  0  0  0  0  0  0  0  0
    6.5421   -1.1034    0.0787 C   0  0  0  0  0  0  0  0  0  0  0  0
    7.1556   -0.3384    0.6035 H   0  0  0  0  0  0  0  0  0  0  0  0
    6.9849   -1.1247   -1.3942 C   0  0  0  0  0  0  0  0  0  0  0  0
    8.0603   -1.3835   -1.4815 H   0  0  0  0  0  0  0  0  0  0  0  0
    6.8257   -0.1398   -1.8769 H   0  0  0  0  0  0  0  0  0  0  0  0
    6.4117   -1.8782   -1.9735 H   0  0  0  0  0  0  0  0  0  0  0  0
    6.8021   -2.4570    0.7610 C   0  0  0  0  0  0  0  0  0  0  0  0
    7.8757   -2.7307    0.7020 H   0  0  0  0  0  0  0  0  0  0  0  0
    6.2236   -3.2695    0.2741 H   0  0  0  0  0  0  0  0  0  0  0  0
    6.5095   -2.4323    1.8297 H   0  0  0  0  0  0  0  0  0  0  0  0
    3.1370    2.2136    1.8464 C   0  0  0  0  0  0  0  0  0  0  0  0
    2.6943    1.8504    3.2766 C   0  0  0  0  0  0  0  0  0  0  0  0
    2.4220    2.7579    3.8542 H   0  0  0  0  0  0  0  0  0  0  0  0
    3.5161    1.3333    3.8140 H   0  0  0  0  0  0  0  0  0  0  0  0
    1.8202    1.1685    3.2755 H   0  0  0  0  0  0  0  0  0  0  0  0
    4.2942    3.2198    1.8765 C   0  0  0  0  0  0  0  0  0  0  0  0
    4.6572    3.4583    0.8567 H   0  0  0  0  0  0  0  0  0  0  0  0
    5.1569    2.8487    2.4676 H   0  0  0  0  0  0  0  0  0  0  0  0
    3.9621    4.1646    2.3521 H   0  0  0  0  0  0  0  0  0  0  0  0
   -1.4010    2.5755   -0.5222 H   0  0  0  0  0  0  0  0  0  0  0  0
   -2.5730    2.6028   -2.7084 H   0  0  0  0  0  0  0  0  0  0  0  0
   -1.4195    1.4143   -3.3670 H   0  0  0  0  0  0  0  0  0  0  0  0
   -0.7691    3.7332   -4.0929 H   0  0  0  0  0  0  0  0  0  0  0  0
   -0.7241    4.2751   -2.4004 H   0  0  0  0  0  0  0  0  0  0  0  0
    1.5973    3.7765   -3.1736 H   0  0  0  0  0  0  0  0  0  0  0  0
    1.1116    2.1348   -3.6622 H   0  0  0  0  0  0  0  0  0  0  0  0
    1.0797    3.2570   -0.7842 H   0  0  0  0  0  0  0  0  0  0  0  0
    2.2445    2.0734   -1.4246 H   0  0  0  0  0  0  0  0  0  0  0  0
    0.3729    0.4386   -1.8258 H   0  0  0  0  0  0  0  0  0  0  0  0
    4.2821   -2.3703   -0.8612 H   0  0  0  0  0  0  0  0  0  0  0  0
    5.5604    1.1053    1.3364 H   0  0  0  0  0  0  0  0  0  0  0  0
    0.6427   -1.4989   -0.5824 H   0  0  0  0  0  0  0  0  0  0  0  0
    0.7832   -3.9580   -0.5152 H   0  0  0  0  0  0  0  0  0  0  0  0
    2.5659   -3.8939   -0.3328 H   0  0  0  0  0  0  0  0  0  0  0  0
    1.5131   -3.2511    0.9641 H   0  0  0  0  0  0  0  0  0  0  0  0
    1.7250   -1.0737   -2.8176 H   0  0  0  0  0  0  0  0  0  0  0  0
    0.9214   -2.6793   -2.7502 H   0  0  0  0  0  0  0  0  0  0  0  0
    2.7024   -2.5585   -2.6287 H   0  0  0  0  0  0  0  0  0  0  0  0
    2.2842    2.7249    1.3510 H   0  0  0  0  0  0  0  0  0  0  0  0
    0.6476    1.8239    1.2637 H   0  0  0  0  0  0  0  0  0  0  0  0
  1 57  1  0  0  0  0
  3  8  1  0  0  0  0
  3  2  1  0  0  0  0
  3 37  1  1  0  0  0
  4  3  1  0  0  0  0
  5  6  1  0  0  0  0
  5  4  1  0  0  0  0
  5 41  1  0  0  0  0
  6  7  1  0  0  0  0
  7 45  1  0  0  0  0
  7  8  1  0  0  0  0
  7 44  1  0  0  0  0
  8 46  1  6  0  0  0
  8  1  1  0  0  0  0
  9  1  1  0  0  0  0
  9 14  1  0  0  0  0
 10  9  2  0  0  0  0
 11 10  1  0  0  0  0
 11 12  2  0  0  0  0
 12 13  1  0  0  0  0
 13 14  2  0  0  0  0
 13 48  1  0  0  0  0
 14 28  1  0  0  0  0
 15 49  1  0  0  0  0
 15 10  1  0  0  0  0
 15 16  1  0  0  0  0
 16 52  1  0  0  0  0
 17 15  1  0  0  0  0
 18 12  1  0  0  0  0
 18 19  1  0  0  0  0
 18 24  1  0  0  0  0
 20 18  1  0  0  0  0
 21 20  1  0  0  0  0
 22 20  1  0  0  0  0
 23 20  1  0  0  0  0
 24 27  1  0  0  0  0
 25 24  1  0  0  0  0
 26 24  1  0  0  0  0
 28 33  1  0  0  0  0
 28 29  1  0  0  0  0
 29 31  1  0  0  0  0
 29 30  1  0  0  0  0
 32 29  1  0  0  0  0
 33 36  1  0  0  0  0
 33 35  1  0  0  0  0
 34 33  1  0  0  0  0
 38  4  1  0  0  0  0
 39  4  1  0  0  0  0
 40  5  1  0  0  0  0
 42  6  1  0  0  0  0
 43  6  1  0  0  0  0
 47 11  1  0  0  0  0
 50 16  1  0  0  0  0
 51 16  1  0  0  0  0
 53 17  1  0  0  0  0
 54 17  1  0  0  0  0
 55 17  1  0  0  0  0
 56 28  1  0  0  0  0
M  END
