1
q = 0.0, confidence = 0.948

 17 17  0  0  0  0  0  0  0  0999 V2000
    0.3979   -1.0988    1.8562 O   0  0  0  0  0  1  0  0  0  0  0  0
    1.3390   -0.1550    1.5703 C   0  0  0  0  0  3  0  0  0  0  0  0
    0.9951    1.2678    1.8247 C   0  0  0  0  0  0  0  0  0  0  0  0
    1.9989    2.2566    1.8782 C   0  0  0  0  0  0  0  0  0  0  0  0
    1.6702    3.6084    2.0549 C   0  0  0  0  0  0  0  0  0  0  0  0
    0.3334    4.0246    2.2104 C   0  0  0  0  0  0  0  0  0  0  0  0
   -0.6642    3.0251    2.2113 C   0  0  0  0  0  0  0  0  0  0  0  0
   -0.3426    1.6781    2.0250 C   0  0  0  0  0  0  0  0  0  0  0  0
   -0.0321    5.4771    2.3879 C   0  0  0  0  0  0  0  0  0  0  0  0
    2.3824   -0.4442    1.8116 H   0  0  0  0  0  0  0  0  0  0  0  0
    3.0536    1.9636    1.7829 H   0  0  0  0  0  0  0  0  0  0  0  0
    2.4765    4.3597    2.0755 H   0  0  0  0  0  0  0  0  0  0  0  0
   -1.7188    3.3151    2.3461 H   0  0  0  0  0  0  0  0  0  0  0  0
   -1.1380    0.9201    2.0153 H   0  0  0  0  0  0  0  0  0  0  0  0
   -0.8235    5.7843    1.6719 H   0  0  0  0  0  0  0  0  0  0  0  0
   -0.4321    5.6752    3.4055 H   0  0  0  0  0  0  0  0  0  0  0  0
    0.8419    6.1406    2.2380 H   0  0  0  0  0  0  0  0  0  0  0  0
  2 10  1  0  0  0  0
  2  3  1  0  0  0  0
  2  1  1  0  0  0  0
  3  4  2  0  0  0  0
  3  8  1  0  0  0  0
  4  5  1  0  0  0  0
  5 12  1  0  0  0  0
  5  6  2  0  0  0  0
  6  7  1  0  0  0  0
  6  9  1  0  0  0  0
  7 13  1  0  0  0  0
  8  7  2  0  0  0  0
  9 16  1  0  0  0  0
 11  4  1  0  0  0  0
 14  8  1  0  0  0  0
 15  9  1  0  0  0  0
 17  9  1  0  0  0  0
M  END
