2
q = -1.0, confidence = 0.01

 20 19  0  0  0  0  0  0  0  0999 V2000
    2.8395    2.2149   -0.6225 N   0  0  0  0  0  0  0  0  0  0  0  0
    1.3553    0.5162    0.0045 O   0  5  0  0  0  0  0  0  0  0  0  0
    2.4673    1.2191    0.3276 C   0  0  0  0  0  0  0  0  0  0  0  0
    2.7438    0.0045    2.5037 C   0  0  0  0  0  0  0  0  0  0  0  0
    1.8612   -0.5707    2.1719 H   0  0  0  0  0  0  0  0  0  0  0  0
    2.5075    0.4887    3.4784 H   0  0  0  0  0  0  0  0  0  0  0  0
    3.5614   -0.7216    2.7095 H   0  0  0  0  0  0  0  0  0  0  0  0
    4.4126    1.8061    1.7867 C   0  0  0  0  0  0  0  0  0  0  0  0
    4.6803    2.4643    0.9397 H   0  0  0  0  0  0  0  0  0  0  0  0
    5.2702    1.1301    2.0029 H   0  0  0  0  0  0  0  0  0  0  0  0
    4.2814    2.4346    2.6967 H   0  0  0  0  0  0  0  0  0  0  0  0
    3.1709    1.0169    1.4790 C   0  0  0  0  0  0  0  0  0  0  0  0
    2.0241    3.4200   -0.5468 C   0  0  0  0  0  0  0  0  0  0  0  0
    2.0203    3.8019    0.4935 H   0  0  0  0  0  0  0  0  0  0  0  0
    0.9615    3.2617   -0.8659 H   0  0  0  0  0  0  0  0  0  0  0  0
    2.4572    4.2062   -1.2001 H   0  0  0  0  0  0  0  0  0  0  0  0
    2.9915    1.7099   -1.9810 C   0  0  0  0  0  0  0  0  0  0  0  0
    3.6510    0.8203   -1.9728 H   0  0  0  0  0  0  0  0  0  0  0  0
    3.4638    2.4909   -2.6124 H   0  0  0  0  0  0  0  0  0  0  0  0
    2.0252    1.4143   -2.4596 H   0  0  0  0  0  0  0  0  0  0  0  0
  1 13  1  0  0  0  0
  1  3  1  0  0  0  0
  2  3  1  0  0  0  0
  3 12  2  0  0  0  0
  4  7  1  0  0  0  0
  4  6  1  0  0  0  0
  5  4  1  0  0  0  0
  8 10  1  0  0  0  0
  8 11  1  0  0  0  0
  9  8  1  0  0  0  0
 12  8  1  0  0  0  0
 12  4  1  0  0  0  0
 13 14  1  0  0  0  0
 15 13  1  0  0  0  0
 16 13  1  0  0  0  0
 17 18  1  0  0  0  0
 17  1  1  0  0  0  0
 19 17  1  0  0  0  0
 20 17  1  0  0  0  0
M  CHG  1   2  -1
M  END
