3
q = -1.0

  7  6  0  0  0  0  0  0  0  0999 V2000
   -5.5699   -1.2906   -0.7993 Cl  0  0  0  0  0  0  0  0  0  0  0  0
   -5.5503    1.5676    0.0358 Cl  0  0  0  0  0  0  0  0  0  0  0  0
   -2.8369    0.1856   -0.5956 O   0  5  0  0  0  0  0  0  0  0  0  0
   -2.9406   -0.4618    1.5866 O   0  0  0  0  0  0  0  0  0  0  0  0
   -3.4446   -0.1374    0.5088 C   0  0  0  0  0  0  0  0  0  0  0  0
   -4.9832   -0.0966    0.4106 C   0  0  0  0  0  0  0  0  0  0  0  0
   -5.4138   -0.3789    1.3860 H   0  0  0  0  0  0  0  0  0  0  0  0
  1  6  1  0  0  0  0
  2  6  1  0  0  0  0
  3  5  1  0  0  0  0
  5  4  2  0  0  0  0
  6  5  1  0  0  0  0
  6  7  1  0  0  0  0
M  CHG  1   3  -1
M  END
