1
q = -1.0

 16 15  0  0  0  0  0  0  0  0999 V2000
    0.8315   -0.4275   -0.5712 O   0  5  0  0  0  0  0  0  0  0  0  0
    2.4944   -1.5776    0.5027 O   0  0  0  0  0  0  0  0  0  0  0  0
    2.1105   -0.4458   -0.1924 C   0  0  0  0  0  0  0  0  0  0  0  0
    3.0213    0.5453   -0.4247 C   0  0  0  0  0  0  0  0  0  0  0  0
    2.6269    1.8374   -1.0820 C   0  0  0  0  0  0  0  0  0  0  0  0
    4.4703    0.3710   -0.0629 C   0  0  0  0  0  0  0  0  0  0  0  0
    2.0041   -2.8161    0.0098 C   0  0  0  0  0  0  0  0  0  0  0  0
    1.5362    1.9244   -1.2426 H   0  0  0  0  0  0  0  0  0  0  0  0
    2.9620    2.7105   -0.4770 H   0  0  0  0  0  0  0  0  0  0  0  0
    3.1269    1.9461   -2.0709 H   0  0  0  0  0  0  0  0  0  0  0  0
    4.7864    1.1212    0.6971 H   0  0  0  0  0  0  0  0  0  0  0  0
    4.6781   -0.6351    0.3441 H   0  0  0  0  0  0  0  0  0  0  0  0
    5.1239    0.5392   -0.9481 H   0  0  0  0  0  0  0  0  0  0  0  0
    2.4953   -3.6090    0.6053 H   0  0  0  0  0  0  0  0  0  0  0  0
    0.9030   -2.9050    0.1287 H   0  0  0  0  0  0  0  0  0  0  0  0
    2.2582   -2.9602   -1.0646 H   0  0  0  0  0  0  0  0  0  0  0  0
  1  3  1  0  0  0  0
  3  2  1  0  0  0  0
  4  3  2  0  0  0  0
  4  6  1  0  0  0  0
  5  9  1  0  0  0  0
  5  4  1  0  0  0  0
  6 12  1  0  0  0  0
  6 11  1  0  0  0  0
  7 15  1  0  0  0  0
  7  2  1  0  0  0  0
  7 14  1  0  0  0  0
  8  5  1  0  0  0  0
 10  5  1  0  0  0  0
 13  6  1  0  0  0  0
 16  7  1  0  0  0  0
M  CHG  1   1  -1
M  END
