1
q = 0.0, confidence = 0.894

 13 12  0  0  0  0  0  0  0  0999 V2000
   -1.6568    0.2878    1.2485 O   0  0  0  0  0  1  0  0  0  0  0  0
   -2.7350   -0.3534    0.7670 C   0  0  0  0  0  3  0  0  0  0  0  0
   -3.7204    0.3991   -0.0962 C   0  0  0  0  0  0  0  0  0  0  0  0
   -4.6645    1.2688    0.7560 C   0  0  0  0  0  0  0  0  0  0  0  0
   -5.6649    2.0524   -0.0935 C   0  0  0  0  0  0  0  0  0  0  0  0
   -3.1996   -1.0872    1.4649 H   0  0  0  0  0  0  0  0  0  0  0  0
   -4.3143   -0.3294   -0.6895 H   0  0  0  0  0  0  0  0  0  0  0  0
   -3.1744    1.0382   -0.8208 H   0  0  0  0  0  0  0  0  0  0  0  0
   -4.0514    1.9659    1.3673 H   0  0  0  0  0  0  0  0  0  0  0  0
   -5.2053    0.6225    1.4814 H   0  0  0  0  0  0  0  0  0  0  0  0
   -6.3300    2.6721    0.5394 H   0  0  0  0  0  0  0  0  0  0  0  0
   -5.1475    2.7310   -0.8029 H   0  0  0  0  0  0  0  0  0  0  0  0
   -6.3075    1.3744   -0.6920 H   0  0  0  0  0  0  0  0  0  0  0  0
  2  1  1  0  0  0  0
  2  6  1  0  0  0  0
  3  4  1  0  0  0  0
  3  2  1  0  0  0  0
  4  9  1  0  0  0  0
  4 10  1  0  0  0  0
  5 11  1  0  0  0  0
  5  4  1  0  0  0  0
  7  3  1  0  0  0  0
  8  3  1  0  0  0  0
 12  5  1  0  0  0  0
 13  5  1  0  0  0  0
M  END
