1
q = -1.0, confidence = 0.05

  8  7  0  0  0  0  0  0  0  0999 V2000
   -2.0379    1.0279    0.7669 O   0  5  0  0  0  0  0  0  0  0  0  0
   -1.6408   -0.3744    2.4982 O   0  0  0  0  0  0  0  0  0  0  0  0
   -2.3207    0.5029    1.9239 C   0  0  0  0  0  0  0  0  0  0  0  0
   -3.5734    0.9979    2.5825 C   0  0  0  0  0  0  0  0  0  0  0  0
   -4.3716    1.9412    2.0506 C   0  0  0  0  0  0  0  0  0  0  0  0
   -5.2855    2.2831    2.5618 H   0  0  0  0  0  0  0  0  0  0  0  0
   -4.1121    2.3927    1.0798 H   0  0  0  0  0  0  0  0  0  0  0  0
   -3.7961    0.5262    3.5533 H   0  0  0  0  0  0  0  0  0  0  0  0
  1  3  1  0  0  0  0
  3  2  2  0  0  0  0
  3  4  1  0  0  0  0
  4  8  1  0  0  0  0
  5  6  1  0  0  0  0
  5  4  2  0  0  0  0
  7  5  1  0  0  0  0
M  CHG  1   1  -1
M  END
