2
q = -1.0, confidence = 0.0

 31 32  0  0  0  0  0  0  0  0999 V2000
   -2.6248   -0.2868    1.2829 P   0  0  0  0  0  0  0  0  0  0  0  0
    0.0208    0.1471    0.8159 O   0  5  0  0  0  0  0  0  0  0  0  0
   -2.2787   -1.6770    0.1053 C   0  0  0  0  0  0  0  0  0  0  0  0
   -2.4593   -2.9881    0.5962 C   0  0  0  0  0  0  0  0  0  0  0  0
   -2.1246   -4.0984   -0.1950 C   0  0  0  0  0  0  0  0  0  0  0  0
   -1.6166   -3.9096   -1.4915 C   0  0  0  0  0  0  0  0  0  0  0  0
   -1.4433   -2.6079   -1.9897 C   0  0  0  0  0  0  0  0  0  0  0  0
   -1.7709   -1.4971   -1.1975 C   0  0  0  0  0  0  0  0  0  0  0  0
   -2.8522    1.1522    0.1454 C   0  0  0  0  0  0  0  0  0  0  0  0
   -2.1932    2.3780    0.3750 C   0  0  0  0  0  0  0  0  0  0  0  0
   -2.4445    3.4895   -0.4434 C   0  0  0  0  0  0  0  0  0  0  0  0
   -3.3594    3.3953   -1.5039 C   0  0  0  0  0  0  0  0  0  0  0  0
   -4.0318    2.1837   -1.7312 C   0  0  0  0  0  0  0  0  0  0  0  0
   -3.7868    1.0737   -0.9097 C   0  0  0  0  0  0  0  0  0  0  0  0
   -0.8562    0.0232    1.8122 C   0  0  0  0  0  0  0  0  0  0  0  0
   -0.4986    0.1055    3.1258 C   0  0  0  0  0  0  0  0  0  0  0  0
   -1.4054   -0.0094    4.3114 C   0  0  0  0  0  0  0  0  0  0  0  0
   -2.8614   -3.1353    1.6117 H   0  0  0  0  0  0  0  0  0  0  0  0
   -2.2668   -5.1159    0.2003 H   0  0  0  0  0  0  0  0  0  0  0  0
   -1.3556   -4.7797   -2.1134 H   0  0  0  0  0  0  0  0  0  0  0  0
   -1.0312   -2.4445   -2.9972 H   0  0  0  0  0  0  0  0  0  0  0  0
   -1.6056   -0.4849   -1.5915 H   0  0  0  0  0  0  0  0  0  0  0  0
   -1.4727    2.4602    1.2032 H   0  0  0  0  0  0  0  0  0  0  0  0
   -1.9171    4.4372   -0.2519 H   0  0  0  0  0  0  0  0  0  0  0  0
   -3.5503    4.2649   -2.1508 H   0  0  0  0  0  0  0  0  0  0  0  0
   -4.7546    2.1002   -2.5573 H   0  0  0  0  0  0  0  0  0  0  0  0
   -4.3188    0.1283   -1.1004 H   0  0  0  0  0  0  0  0  0  0  0  0
    0.5771    0.2730    3.3249 H   0  0  0  0  0  0  0  0  0  0  0  0
   -1.3784    0.9113    4.9344 H   0  0  0  0  0  0  0  0  0  0  0  0
   -2.4553   -0.1847    4.0043 H   0  0  0  0  0  0  0  0  0  0  0  0
   -1.0981   -0.8448    4.9780 H   0  0  0  0  0  0  0  0  0  0  0  0
  1 15  1  0  0  0  0
  2 15  1  0  0  0  0
  3  4  1  0  0  0  0
  3  1  1  0  0  0  0
  4 18  1  0  0  0  0
  5 19  1  0  0  0  0
  5  4  2  0  0  0  0
  6  5  1  0  0  0  0
  7  6  2  0  0  0  0
  7  8  1  0  0  0  0
  8  3  2  0  0  0  0
  9 10  1  0  0  0  0
  9  1  1  0  0  0  0
 10 23  1  0  0  0  0
 11 24  1  0  0  0  0
 11 10  2  0  0  0  0
 12 11  1  0  0  0  0
 13 12  2  0  0  0  0
 13 14  1  0  0  0  0
 14  9  2  0  0  0  0
 15 16  2  0  0  0  0
 16 28  1  0  0  0  0
 16 17  1  0  0  0  0
 17 29  1  0  0  0  0
 17 31  1  0  0  0  0
 20  6  1  0  0  0  0
 21  7  1  0  0  0  0
 22  8  1  0  0  0  0
 25 12  1  0  0  0  0
 26 13  1  0  0  0  0
 27 14  1  0  0  0  0
 30 17  1  0  0  0  0
M  CHG  1   2  -1
M  END
