2
q = 0.0, confidence = 0.99

 40 42  0  0  1  0  0  0  0  0999 V2000
    0.5184    0.0752   -0.0309 P   0  0  0  0  0  0  0  0  0  0  0  0
   -2.3197   -0.4606   -0.4793 O   0  0  0  0  0  1  0  0  0  0  0  0
   -2.5617    0.7660   -0.4532 C   0  0  2  0  0  3  0  0  0  0  0  0
   -3.7946    1.1828   -0.2031 O   0  0  0  0  0  0  0  0  0  0  0  0
   -4.8112    0.1784   -0.0002 C   0  0  0  0  0  0  0  0  0  0  0  0
   -1.5969    1.8673   -0.7007 C   0  0  0  0  0  0  0  0  0  0  0  0
   -0.1875    1.6799   -0.6045 C   0  0  0  0  0  0  0  0  0  0  0  0
    0.6629    2.7641   -0.8842 C   0  0  0  0  0  0  0  0  0  0  0  0
    0.1415    4.0143   -1.2566 C   0  0  0  0  0  0  0  0  0  0  0  0
   -1.2452    4.2012   -1.3392 C   0  0  0  0  0  0  0  0  0  0  0  0
   -2.1075    3.1351   -1.0570 C   0  0  0  0  0  0  0  0  0  0  0  0
    0.3878    0.1586    1.7927 C   0  0  0  0  0  0  0  0  0  0  0  0
    0.1868   -1.0465    2.4978 C   0  0  0  0  0  0  0  0  0  0  0  0
    0.1135   -1.0359    3.8979 C   0  0  0  0  0  0  0  0  0  0  0  0
    0.2293    0.1764    4.5969 C   0  0  0  0  0  0  0  0  0  0  0  0
    0.4186    1.3795    3.8965 C   0  0  0  0  0  0  0  0  0  0  0  0
    0.4975    1.3760    2.4963 C   0  0  0  0  0  0  0  0  0  0  0  0
    2.2944    0.1655   -0.4393 C   0  0  0  0  0  0  0  0  0  0  0  0
    3.2845    0.2582    0.5583 C   0  0  0  0  0  0  0  0  0  0  0  0
    4.6400    0.2963    0.1934 C   0  0  0  0  0  0  0  0  0  0  0  0
    5.0097    0.2466   -1.1590 C   0  0  0  0  0  0  0  0  0  0  0  0
    4.0228    0.1527   -2.1559 C   0  0  0  0  0  0  0  0  0  0  0  0
    2.6691    0.1042   -1.7999 C   0  0  0  0  0  0  0  0  0  0  0  0
   -5.7467    0.7363    0.1718 H   0  0  0  0  0  0  0  0  0  0  0  0
   -4.5594   -0.4461    0.8784 H   0  0  0  0  0  0  0  0  0  0  0  0
   -4.8959   -0.4677   -0.8953 H   0  0  0  0  0  0  0  0  0  0  0  0
    1.7519    2.6287   -0.8094 H   0  0  0  0  0  0  0  0  0  0  0  0
    0.8277    4.8454   -1.4780 H   0  0  0  0  0  0  0  0  0  0  0  0
   -1.6593    5.1785   -1.6265 H   0  0  0  0  0  0  0  0  0  0  0  0
   -3.1954    3.2705   -1.1221 H   0  0  0  0  0  0  0  0  0  0  0  0
    0.0874   -1.9917    1.9423 H   0  0  0  0  0  0  0  0  0  0  0  0
   -0.0402   -1.9776    4.4455 H   0  0  0  0  0  0  0  0  0  0  0  0
    0.1671    0.1851    5.6954 H   0  0  0  0  0  0  0  0  0  0  0  0
    0.5042    2.3294    4.4451 H   0  0  0  0  0  0  0  0  0  0  0  0
    0.6424    2.3213    1.9516 H   0  0  0  0  0  0  0  0  0  0  0  0
    2.9981    0.3001    1.6196 H   0  0  0  0  0  0  0  0  0  0  0  0
    5.4113    0.3667    0.9747 H   0  0  0  0  0  0  0  0  0  0  0  0
    6.0728    0.2779   -1.4404 H   0  0  0  0  0  0  0  0  0  0  0  0
    4.3112    0.1114   -3.2168 H   0  0  0  0  0  0  0  0  0  0  0  0
    1.8983    0.0254   -2.5833 H   0  0  0  0  0  0  0  0  0  0  0  0
  1 12  1  0  0  0  0
  3  2  1  6  0  0  0
  3  4  1  0  0  0  0
  4  5  1  0  0  0  0
  5 24  1  0  0  0  0
  5 25  1  0  0  0  0
  6  7  1  0  0  0  0
  6  3  1  0  0  0  0
  7  1  1  0  0  0  0
  8 27  1  0  0  0  0
  8  7  2  0  0  0  0
  9  8  1  0  0  0  0
 10  9  2  0  0  0  0
 10 11  1  0  0  0  0
 11  6  2  0  0  0  0
 12 17  2  0  0  0  0
 12 13  1  0  0  0  0
 13 14  2  0  0  0  0
 14 32  1  0  0  0  0
 14 15  1  0  0  0  0
 15 33  1  0  0  0  0
 16 34  1  0  0  0  0
 16 15  2  0  0  0  0
 17 16  1  0  0  0  0
 18  1  1  0  0  0  0
 18 19  1  0  0  0  0
 19 36  1  0  0  0  0
 20 19  2  0  0  0  0
 20 37  1  0  0  0  0
 21 20  1  0  0  0  0
 22 23  1  0  0  0  0
 22 21  2  0  0  0  0
 23 18  2  0  0  0  0
 26  5  1  0  0  0  0
 28  9  1  0  0  0  0
 29 10  1  0  0  0  0
 30 11  1  0  0  0  0
 31 13  1  0  0  0  0
 35 17  1  0  0  0  0
 38 21  1  0  0  0  0
 39 22  1  0  0  0  0
 40 23  1  0  0  0  0
M  END
