1
q = -1.0, confidence = 0.0

 24 26  0  0  0  0  0  0  0  0999 V2000
   -0.0147   -0.3363   -0.8699 O   0  5  0  0  0  0  0  0  0  0  0  0
    1.8078   -2.4654   -0.7179 C   0  0  0  0  0  0  0  0  0  0  0  0
    0.7671   -2.6556   -1.0169 H   0  0  0  0  0  0  0  0  0  0  0  0
    2.7094   -3.5098   -0.5944 C   0  0  0  0  0  0  0  0  0  0  0  0
    2.3904   -4.5455   -0.7878 H   0  0  0  0  0  0  0  0  0  0  0  0
    4.0602   -3.2405   -0.2241 C   0  0  0  0  0  0  0  0  0  0  0  0
    4.7765   -4.0714   -0.1296 H   0  0  0  0  0  0  0  0  0  0  0  0
    4.4717   -1.9421    0.0139 C   0  0  0  0  0  0  0  0  0  0  0  0
    5.5149   -1.7328    0.2998 H   0  0  0  0  0  0  0  0  0  0  0  0
    3.5665   -0.8347   -0.0990 C   0  0  0  0  0  0  0  0  0  0  0  0
    3.9699    0.4883    0.1681 C   0  0  0  0  0  0  0  0  0  0  0  0
    5.0083    0.6907    0.4729 H   0  0  0  0  0  0  0  0  0  0  0  0
    3.0576    1.5551    0.0521 C   0  0  0  0  0  0  0  0  0  0  0  0
    3.4421    2.9101    0.3266 C   0  0  0  0  0  0  0  0  0  0  0  0
    4.4825    3.1009    0.6345 H   0  0  0  0  0  0  0  0  0  0  0  0
    2.5455    3.9561    0.2106 C   0  0  0  0  0  0  0  0  0  0  0  0
    2.8689    4.9860    0.4280 H   0  0  0  0  0  0  0  0  0  0  0  0
    1.2041    3.7079   -0.2047 C   0  0  0  0  0  0  0  0  0  0  0  0
    0.4995    4.5452   -0.3231 H   0  0  0  0  0  0  0  0  0  0  0  0
    0.7965    2.4130   -0.4794 C   0  0  0  0  0  0  0  0  0  0  0  0
   -0.2292    2.2302   -0.8326 H   0  0  0  0  0  0  0  0  0  0  0  0
    1.6842    1.3030   -0.3474 C   0  0  0  0  0  0  0  0  0  0  0  0
    1.2348   -0.0441   -0.5884 C   0  0  0  0  0  0  0  0  0  0  0  0
    2.1955   -1.1123   -0.4816 C   0  0  0  0  0  0  0  0  0  0  0  0
  1 23  1  0  0  0  0
  2  4  2  0  0  0  0
  2 24  1  0  0  0  0
  3  2  1  0  0  0  0
  4  6  1  0  0  0  0
  5  4  1  0  0  0  0
  6  7  1  0  0  0  0
  6  8  2  0  0  0  0
  8  9  1  0  0  0  0
 10  8  1  0  0  0  0
 10 11  1  0  0  0  0
 11 12  1  0  0  0  0
 13 11  2  0  0  0  0
 13 14  1  0  0  0  0
 14 15  1  0  0  0  0
 16 14  2  0  0  0  0
 16 17  1  0  0  0  0
 18 16  1  0  0  0  0
 19 18  1  0  0  0  0
 20 22  1  0  0  0  0
 20 18  2  0  0  0  0
 21 20  1  0  0  0  0
 22 13  1  0  0  0  0
 23 24  1  0  0  0  0
 23 22  2  0  0  0  0
 24 10  2  0  0  0  0
M  CHG  1   1  -1
M  END
