2
q = -1.0, confidence = 0.206

 20 21  0  0  0  0  0  0  0  0999 V2000
   -2.1792   -1.3125   -0.0011 O   0  5  0  0  0  0  0  0  0  0  0  0
   -2.1094    0.9523   -0.0008 O   0  0  0  0  0  0  0  0  0  0  0  0
  -10.5942   -0.4089   -0.4000 N   0  0  0  0  0  0  0  0  0  0  0  0
  -10.5497    0.7112    0.4035 N   0  0  0  0  0  0  0  0  0  0  0  0
   -8.4620    0.0681    0.0008 N   0  0  0  0  0  0  0  0  0  0  0  0
   -9.3532   -0.7873   -0.6236 C   0  0  0  0  0  0  0  0  0  0  0  0
   -9.0342   -1.6311   -1.2471 H   0  0  0  0  0  0  0  0  0  0  0  0
   -9.2826    0.9909    0.6260 C   0  0  0  0  0  0  0  0  0  0  0  0
   -8.8978    1.8070    1.2492 H   0  0  0  0  0  0  0  0  0  0  0  0
   -7.0461    0.0123    0.0002 C   0  0  0  0  0  0  0  0  0  0  0  0
   -6.3915   -1.2363    0.0114 C   0  0  0  0  0  0  0  0  0  0  0  0
   -6.9812   -2.1633    0.0496 H   0  0  0  0  0  0  0  0  0  0  0  0
   -4.9954   -1.2854    0.0025 C   0  0  0  0  0  0  0  0  0  0  0  0
   -4.4610   -2.2459    0.0124 H   0  0  0  0  0  0  0  0  0  0  0  0
   -4.2372   -0.0978   -0.0006 C   0  0  0  0  0  0  0  0  0  0  0  0
   -4.8991    1.1462   -0.0034 C   0  0  0  0  0  0  0  0  0  0  0  0
   -4.2978    2.0659   -0.0137 H   0  0  0  0  0  0  0  0  0  0  0  0
   -6.2953    1.2054   -0.0114 C   0  0  0  0  0  0  0  0  0  0  0  0
   -6.8108    2.1756   -0.0494 H   0  0  0  0  0  0  0  0  0  0  0  0
   -2.7412   -0.1801   -0.0009 C   0  0  0  0  0  0  0  0  0  0  0  0
  1 20  1  0  0  0  0
  3  4  1  0  0  0  0
  4  8  2  0  0  0  0
  5  8  1  0  0  0  0
  6  3  2  0  0  0  0
  6  5  1  0  0  0  0
  7  6  1  0  0  0  0
  8  9  1  0  0  0  0
 10  5  1  0  0  0  0
 10 11  1  0  0  0  0
 11 12  1  0  0  0  0
 13 11  2  0  0  0  0
 13 14  1  0  0  0  0
 15 13  1  0  0  0  0
 16 15  2  0  0  0  0
 17 16  1  0  0  0  0
 18 16  1  0  0  0  0
 18 10  2  0  0  0  0
 19 18  1  0  0  0  0
 20  2  2  0  0  0  0
 20 15  1  0  0  0  0
M  CHG  1   1  -1
M  END
