14
q = -1.0

 20 21  0  0  0  0  0  0  0  0999 V2000
   -2.7773   -0.0377   -0.7771 C   0  0  0  0  0  0  0  0  0  0  0  0
   -6.3794   -1.3248   -0.9730 C   0  0  0  0  0  0  0  0  0  0  0  0
   -4.9852   -1.1526   -1.1966 C   0  0  0  0  0  0  0  0  0  0  0  0
   -4.4498   -1.7947   -1.9124 H   0  0  0  0  0  0  0  0  0  0  0  0
   -4.2609   -0.1762   -0.5206 C   0  0  0  0  0  0  0  0  0  0  0  0
   -7.1403   -2.3211   -1.6548 C   0  0  0  0  0  0  0  0  0  0  0  0
   -6.6250   -2.9737   -2.3767 H   0  0  0  0  0  0  0  0  0  0  0  0
   -6.2820    0.5316    0.6532 C   0  0  0  0  0  0  0  0  0  0  0  0
   -6.7930    1.1895    1.3742 H   0  0  0  0  0  0  0  0  0  0  0  0
   -7.0477   -0.4636   -0.0252 C   0  0  0  0  0  0  0  0  0  0  0  0
   -4.9257    0.6728    0.4129 C   0  0  0  0  0  0  0  0  0  0  0  0
   -4.3303    1.4384    0.9309 H   0  0  0  0  0  0  0  0  0  0  0  0
   -2.2380   -0.8257   -1.5954 O   0  5  0  0  0  0  0  0  0  0  0  0
   -2.1719    0.8819   -0.1022 O   0  0  0  0  0  0  0  0  0  0  0  0
   -8.4447   -0.6390    0.1967 C   0  0  0  0  0  0  0  0  0  0  0  0
   -8.9527    0.0191    0.9193 H   0  0  0  0  0  0  0  0  0  0  0  0
   -9.1556   -1.6179   -0.4829 C   0  0  0  0  0  0  0  0  0  0  0  0
  -10.2343   -1.7408   -0.3014 H   0  0  0  0  0  0  0  0  0  0  0  0
   -8.4986   -2.4659   -1.4161 C   0  0  0  0  0  0  0  0  0  0  0  0
   -9.0737   -3.2380   -1.9494 H   0  0  0  0  0  0  0  0  0  0  0  0
  1  5  1  0  0  0  0
  1 14  2  0  0  0  0
  2 10  1  0  0  0  0
  3  2  2  0  0  0  0
  3  5  1  0  0  0  0
  4  3  1  0  0  0  0
  5 11  2  0  0  0  0
  6 19  2  0  0  0  0
  6  2  1  0  0  0  0
  7  6  1  0  0  0  0
  8  9  1  0  0  0  0
 10 15  1  0  0  0  0
 10  8  2  0  0  0  0
 11  8  1  0  0  0  0
 11 12  1  0  0  0  0
 13  1  1  0  0  0  0
 15 16  1  0  0  0  0
 17 18  1  0  0  0  0
 17 15  2  0  0  0  0
 19 17  1  0  0  0  0
 20 19  1  0  0  0  0
M  CHG  1  13  -1
M  END
