2
q = -1.0

 19 18  0  0  0  0  0  0  0  0999 V2000
    2.2747   -1.8437    0.1619 O   0  5  0  0  0  0  0  0  0  0  0  0
    0.8096   -1.4808    1.8547 O   0  0  0  0  0  0  0  0  0  0  0  0
    1.7685   -2.1340    1.2723 C   0  0  0  0  0  0  0  0  0  0  0  0
    2.2877   -3.3627    2.0239 C   0  0  0  0  0  0  0  0  0  0  0  0
    3.7870   -3.1970    2.3272 C   0  0  0  0  0  0  0  0  0  0  0  0
    4.1071   -1.9990    3.2216 C   0  0  0  0  0  0  0  0  0  0  0  0
    2.0085   -4.6255    1.1876 C   0  0  0  0  0  0  0  0  0  0  0  0
    0.5276   -4.8576    0.8854 C   0  0  0  0  0  0  0  0  0  0  0  0
    1.7227   -3.4234    2.9784 H   0  0  0  0  0  0  0  0  0  0  0  0
    4.1552   -4.1328    2.8013 H   0  0  0  0  0  0  0  0  0  0  0  0
    4.3221   -3.1005    1.3581 H   0  0  0  0  0  0  0  0  0  0  0  0
    3.7920   -1.0447    2.7502 H   0  0  0  0  0  0  0  0  0  0  0  0
    5.1940   -1.9240    3.4263 H   0  0  0  0  0  0  0  0  0  0  0  0
    3.5830   -2.0690    4.1971 H   0  0  0  0  0  0  0  0  0  0  0  0
    2.5775   -4.5380    0.2371 H   0  0  0  0  0  0  0  0  0  0  0  0
    2.4256   -5.5024    1.7287 H   0  0  0  0  0  0  0  0  0  0  0  0
   -0.0733   -4.9220    1.8163 H   0  0  0  0  0  0  0  0  0  0  0  0
    0.3717   -5.7960    0.3161 H   0  0  0  0  0  0  0  0  0  0  0  0
    0.1056   -4.0286    0.2791 H   0  0  0  0  0  0  0  0  0  0  0  0
  1  3  1  0  0  0  0
  3  2  2  0  0  0  0
  3  4  1  0  0  0  0
  4  5  1  0  0  0  0
  4  9  1  0  0  0  0
  5 10  1  0  0  0  0
  5  6  1  0  0  0  0
  6 13  1  0  0  0  0
  6 14  1  0  0  0  0
  7 16  1  0  0  0  0
  7  4  1  0  0  0  0
  8  7  1  0  0  0  0
  8 17  1  0  0  0  0
 11  5  1  0  0  0  0
 12  6  1  0  0  0  0
 15  7  1  0  0  0  0
 18  8  1  0  0  0  0
 19  8  1  0  0  0  0
M  CHG  1   1  -1
M  END
