2
q = -1.0, confidence = 0.0

 33 36  0  0  0  0  0  0  0  0999 V2000
    1.8350   -0.3453   -0.0003 As  0  0  0  0  0  0  0  0  0  0  0  0
    2.3333    2.5715   -0.0001 O   0  5  0  0  0  0  0  0  0  0  0  0
    0.2080   -3.0640    0.0001 O   0  0  0  0  0  0  0  0  0  0  0  0
    3.5633    0.4648   -0.0004 C   0  0  0  0  0  0  0  0  0  0  0  0
    3.4670    1.8981   -0.0003 C   0  0  0  0  0  0  0  0  0  0  0  0
    4.7074    2.6074   -0.0005 C   0  0  0  0  0  0  0  0  0  0  0  0
    4.6629    3.7062   -0.0004 H   0  0  0  0  0  0  0  0  0  0  0  0
    5.9245    1.9273   -0.0007 C   0  0  0  0  0  0  0  0  0  0  0  0
    6.8592    2.5103   -0.0009 H   0  0  0  0  0  0  0  0  0  0  0  0
    5.9892    0.5150   -0.0009 C   0  0  0  0  0  0  0  0  0  0  0  0
    6.9598   -0.0016   -0.0011 H   0  0  0  0  0  0  0  0  0  0  0  0
    4.7972   -0.2144   -0.0007 C   0  0  0  0  0  0  0  0  0  0  0  0
    4.8140   -1.3160   -0.0008 H   0  0  0  0  0  0  0  0  0  0  0  0
    1.5735   -1.5937   -1.4405 C   0  0  0  0  0  0  0  0  0  0  0  0
    0.7494   -2.7167   -1.2180 C   0  0  0  0  0  0  0  0  0  0  0  0
    0.4000   -3.5558   -2.2918 C   0  0  0  0  0  0  0  0  0  0  0  0
   -0.2535   -4.4160   -2.0901 H   0  0  0  0  0  0  0  0  0  0  0  0
    0.8822   -3.2807   -3.5752 C   0  0  0  0  0  0  0  0  0  0  0  0
    0.6004   -3.9404   -4.4094 H   0  0  0  0  0  0  0  0  0  0  0  0
    1.7231   -2.1757   -3.8022 C   0  0  0  0  0  0  0  0  0  0  0  0
    2.1056   -1.9661   -4.8118 H   0  0  0  0  0  0  0  0  0  0  0  0
    2.0604   -1.3344   -2.7358 C   0  0  0  0  0  0  0  0  0  0  0  0
    2.7007   -0.4528   -2.8970 H   0  0  0  0  0  0  0  0  0  0  0  0
    1.5739   -1.5936    1.4401 C   0  0  0  0  0  0  0  0  0  0  0  0
    0.7498   -2.7166    1.2179 C   0  0  0  0  0  0  0  0  0  0  0  0
    0.4010   -3.5558    2.2918 C   0  0  0  0  0  0  0  0  0  0  0  0
   -0.2525   -4.4160    2.0904 H   0  0  0  0  0  0  0  0  0  0  0  0
    0.8837   -3.2807    3.5750 C   0  0  0  0  0  0  0  0  0  0  0  0
    0.6023   -3.9404    4.4094 H   0  0  0  0  0  0  0  0  0  0  0  0
    1.7246   -2.1756    3.8017 C   0  0  0  0  0  0  0  0  0  0  0  0
    2.1075   -1.9660    4.8111 H   0  0  0  0  0  0  0  0  0  0  0  0
    2.0613   -1.3342    2.7351 C   0  0  0  0  0  0  0  0  0  0  0  0
    2.7016   -0.4526    2.8961 H   0  0  0  0  0  0  0  0  0  0  0  0
  1 24  1  0  0  0  0
  3 25  1  0  0  0  0
  4  5  1  0  0  0  0
  4  1  1  0  0  0  0
  5  2  1  0  0  0  0
  6  7  1  0  0  0  0
  6  5  2  0  0  0  0
  8  6  1  0  0  0  0
  9  8  1  0  0  0  0
 10  8  2  0  0  0  0
 10 12  1  0  0  0  0
 11 10  1  0  0  0  0
 12  4  2  0  0  0  0
 13 12  1  0  0  0  0
 14 15  1  0  0  0  0
 14  1  1  0  0  0  0
 15  3  1  0  0  0  0
 16 17  1  0  0  0  0
 16 15  2  0  0  0  0
 18 16  1  0  0  0  0
 19 18  1  0  0  0  0
 20 18  2  0  0  0  0
 20 22  1  0  0  0  0
 21 20  1  0  0  0  0
 22 14  2  0  0  0  0
 23 22  1  0  0  0  0
 24 32  1  0  0  0  0
 25 24  2  0  0  0  0
 25 26  1  0  0  0  0
 26 28  2  0  0  0  0
 27 26  1  0  0  0  0
 28 30  1  0  0  0  0
 28 29  1  0  0  0  0
 30 31  1  0  0  0  0
 32 33  1  0  0  0  0
 32 30  2  0  0  0  0
M  CHG  1   2  -1
M  END
