3
q = -1

 37 39  0  0  1  0  0  0  0  0999 V2000
    1.0066    3.6326   -1.1308 O   0  0  0  0  0  0  0  0  0  0  0  0
   -0.5294    4.5245    0.4051 O   0  0  0  0  0  0  0  0  0  0  0  0
   -1.1398    1.5486   -1.4976 O   0  0  0  0  0  1  0  0  0  0  0  0
   -0.5723    0.2757    0.8093 O   0  0  0  0  0  0  0  0  0  0  0  0
    0.1838   -0.2805    1.0917 H   0  0  0  0  0  0  0  0  0  0  0  0
    2.2087    0.8051    0.8676 O   0  0  0  0  0  0  0  0  0  0  0  0
    4.0497    2.0449    0.1271 O   0  0  0  0  0  0  0  0  0  0  0  0
   -0.3533    3.7039   -0.7204 C   0  0  2  0  0  0  0  0  0  0  0  0
   -0.8850    4.1053   -1.6137 H   0  0  0  0  0  0  0  0  0  0  0  0
   -0.9636    2.3310   -0.3440 C   0  0  2  0  0  0  0  0  0  0  0  0
   -1.9579    2.5192    0.1226 H   0  0  0  0  0  0  0  0  0  0  0  0
   -0.0535    1.5938    0.6488 C   0  0  2  0  0  0  0  0  0  0  0  0
   -0.0323    2.1338    1.6219 H   0  0  0  0  0  0  0  0  0  0  0  0
    1.3337    1.5599    0.0384 C   0  0  1  0  0  0  0  0  0  0  0  0
    1.2622    1.0722   -0.9628 H   0  0  0  0  0  0  0  0  0  0  0  0
    1.8499    2.9800   -0.1833 C   0  0  1  0  0  0  0  0  0  0  0  0
    1.8623    3.5256    0.7878 H   0  0  0  0  0  0  0  0  0  0  0  0
    3.2754    2.8814   -0.7289 C   0  0  0  0  0  0  0  0  0  0  0  0
    3.2340    2.4666   -1.7654 H   0  0  0  0  0  0  0  0  0  0  0  0
    3.7761    3.8679   -0.7640 H   0  0  0  0  0  0  0  0  0  0  0  0
   -0.2194    5.8893    0.1712 C   0  0  0  0  0  0  0  0  0  0  0  0
   -0.3849    6.4302    1.1217 H   0  0  0  0  0  0  0  0  0  0  0  0
   -0.8800    6.3251   -0.6145 H   0  0  0  0  0  0  0  0  0  0  0  0
    0.8366    6.0231   -0.1496 H   0  0  0  0  0  0  0  0  0  0  0  0
    3.4992    0.7561    0.2545 C   0  0  1  0  0  0  0  0  0  0  0  0
    3.3590    0.3200   -0.7717 H   0  0  0  0  0  0  0  0  0  0  0  0
    4.3906   -0.1362    1.0822 C   0  0  0  0  0  0  0  0  0  0  0  0
    5.5732    0.3430    1.6684 C   0  0  0  0  0  0  0  0  0  0  0  0
    5.8525    1.3949    1.5183 H   0  0  0  0  0  0  0  0  0  0  0  0
    6.3779   -0.5200    2.4289 C   0  0  0  0  0  0  0  0  0  0  0  0
    7.3036   -0.1402    2.8877 H   0  0  0  0  0  0  0  0  0  0  0  0
    6.0062   -1.8618    2.6050 C   0  0  0  0  0  0  0  0  0  0  0  0
    6.6404   -2.5369    3.1997 H   0  0  0  0  0  0  0  0  0  0  0  0
    4.8242   -2.3423    2.0166 C   0  0  0  0  0  0  0  0  0  0  0  0
    4.5287   -3.3947    2.1451 H   0  0  0  0  0  0  0  0  0  0  0  0
    4.0183   -1.4830    1.2578 C   0  0  0  0  0  0  0  0  0  0  0  0
    3.0963   -1.8598    0.7899 H   0  0  0  0  0  0  0  0  0  0  0  0
  1  8  1  0  0  0  0
  1 16  1  0  0  0  0
  3 10  1  0  0  0  0
  4  5  1  0  0  0  0
  7 25  1  0  0  0  0
  8  9  1  6  0  0  0
  8 10  1  0  0  0  0
  8  2  1  0  0  0  0
 10 11  1  1  0  0  0
 10 12  1  0  0  0  0
 12  4  1  0  0  0  0
 12 13  1  1  0  0  0
 14 15  1  6  0  0  0
 14 12  1  0  0  0  0
 14  6  1  0  0  0  0
 16 14  1  0  0  0  0
 16 17  1  1  0  0  0
 18 16  1  0  0  0  0
 18  7  1  0  0  0  0
 19 18  1  0  0  0  0
 20 18  1  0  0  0  0
 21  2  1  0  0  0  0
 21 22  1  0  0  0  0
 23 21  1  0  0  0  0
 24 21  1  0  0  0  0
 25 26  1  6  0  0  0
 25  6  1  0  0  0  0
 25 27  1  0  0  0  0
 27 36  2  0  0  0  0
 27 28  1  0  0  0  0
 28 30  2  0  0  0  0
 29 28  1  0  0  0  0
 30 32  1  0  0  0  0
 30 31  1  0  0  0  0
 32 33  1  0  0  0  0
 34 35  1  0  0  0  0
 34 32  2  0  0  0  0
 36 34  1  0  0  0  0
 37 36  1  0  0  0  0
M  END
