3
q = -1.0, confidence = 0.002

 43 45  0  0  0  0  0  0  0  0999 V2000
   -3.2310    1.2344    0.7306 S   0  0  0  0  0  0  0  0  0  0  0  0
    2.5474    0.9252    0.9547 S   0  0  0  0  0  0  0  0  0  0  0  0
    0.1021    0.7217   -0.9647 O   0  5  0  0  0  0  0  0  0  0  0  0
   -4.7559   -0.9034    1.4339 C   0  0  0  0  0  0  0  0  0  0  0  0
   -4.4004   -0.6732    2.4503 H   0  0  0  0  0  0  0  0  0  0  0  0
   -5.6251   -1.9792    1.2192 C   0  0  0  0  0  0  0  0  0  0  0  0
   -5.9550   -2.5858    2.0766 H   0  0  0  0  0  0  0  0  0  0  0  0
   -6.0639   -2.2949   -0.0786 C   0  0  0  0  0  0  0  0  0  0  0  0
   -6.7399   -3.1463   -0.2460 H   0  0  0  0  0  0  0  0  0  0  0  0
   -5.6274   -1.5120   -1.1576 C   0  0  0  0  0  0  0  0  0  0  0  0
   -5.9630   -1.7457   -2.1798 H   0  0  0  0  0  0  0  0  0  0  0  0
   -4.7643   -0.4236   -0.9538 C   0  0  0  0  0  0  0  0  0  0  0  0
   -4.4453    0.1794   -1.8146 H   0  0  0  0  0  0  0  0  0  0  0  0
   -4.3147   -0.1131    0.3472 C   0  0  0  0  0  0  0  0  0  0  0  0
    5.0678    0.5640   -0.2440 C   0  0  0  0  0  0  0  0  0  0  0  0
    4.9990    1.5817   -0.6522 H   0  0  0  0  0  0  0  0  0  0  0  0
    6.1993   -0.2172   -0.5279 C   0  0  0  0  0  0  0  0  0  0  0  0
    6.9974    0.2024   -1.1595 H   0  0  0  0  0  0  0  0  0  0  0  0
    6.3184   -1.5172   -0.0149 C   0  0  0  0  0  0  0  0  0  0  0  0
    7.2058   -2.1257   -0.2442 H   0  0  0  0  0  0  0  0  0  0  0  0
    5.2928   -2.0342    0.7959 C   0  0  0  0  0  0  0  0  0  0  0  0
    5.3717   -3.0535    1.2041 H   0  0  0  0  0  0  0  0  0  0  0  0
    4.1556   -1.2686    1.0796 C   0  0  0  0  0  0  0  0  0  0  0  0
    3.3425   -1.6865    1.6883 H   0  0  0  0  0  0  0  0  0  0  0  0
    4.0337    0.0374    0.5559 C   0  0  0  0  0  0  0  0  0  0  0  0
    1.0704    2.8222   -0.3459 C   0  0  0  0  0  0  0  0  0  0  0  0
    0.8853    4.1779   -0.0275 C   0  0  0  0  0  0  0  0  0  0  0  0
    1.7709    4.7862    0.2211 H   0  0  0  0  0  0  0  0  0  0  0  0
   -0.3869    4.7796   -0.0226 C   0  0  0  0  0  0  0  0  0  0  0  0
   -1.4912    3.9643   -0.3336 C   0  0  0  0  0  0  0  0  0  0  0  0
   -2.5045    4.3993   -0.3226 H   0  0  0  0  0  0  0  0  0  0  0  0
   -1.3521    2.6020   -0.6473 C   0  0  0  0  0  0  0  0  0  0  0  0
   -0.5605    6.2474    0.2794 C   0  0  0  0  0  0  0  0  0  0  0  0
   -1.4927    6.4393    0.8477 H   0  0  0  0  0  0  0  0  0  0  0  0
   -0.6206    6.8498   -0.6532 H   0  0  0  0  0  0  0  0  0  0  0  0
    0.2877    6.6452    0.8708 H   0  0  0  0  0  0  0  0  0  0  0  0
   -2.5523    1.7372   -0.9069 C   0  0  0  0  0  0  0  0  0  0  0  0
   -2.2566    0.8174   -1.4466 H   0  0  0  0  0  0  0  0  0  0  0  0
   -3.3329    2.2810   -1.4759 H   0  0  0  0  0  0  0  0  0  0  0  0
    2.4419    2.2093   -0.3649 C   0  0  0  0  0  0  0  0  0  0  0  0
    3.2184    2.9808   -0.1979 H   0  0  0  0  0  0  0  0  0  0  0  0
    2.6407    1.6963   -1.3295 H   0  0  0  0  0  0  0  0  0  0  0  0
   -0.0576    2.0101   -0.6550 C   0  0  0  0  0  0  0  0  0  0  0  0
  3 43  1  0  0  0  0
  4  5  1  0  0  0  0
  6  4  1  0  0  0  0
  6  7  1  0  0  0  0
  8  6  2  0  0  0  0
  9  8  1  0  0  0  0
 10 12  2  0  0  0  0
 10  8  1  0  0  0  0
 11 10  1  0  0  0  0
 12 14  1  0  0  0  0
 13 12  1  0  0  0  0
 14  1  1  0  0  0  0
 14  4  2  0  0  0  0
 15 25  1  0  0  0  0
 16 15  1  0  0  0  0
 17 15  2  0  0  0  0
 17 19  1  0  0  0  0
 18 17  1  0  0  0  0
 19 21  2  0  0  0  0
 20 19  1  0  0  0  0
 21 23  1  0  0  0  0
 21 22  1  0  0  0  0
 23 24  1  0  0  0  0
 25  2  1  0  0  0  0
 25 23  2  0  0  0  0
 26 27  1  0  0  0  0
 27 29  2  0  0  0  0
 27 28  1  0  0  0  0
 29 33  1  0  0  0  0
 30 31  1  0  0  0  0
 30 29  1  0  0  0  0
 32 30  2  0  0  0  0
 33 34  1  0  0  0  0
 33 36  1  0  0  0  0
 35 33  1  0  0  0  0
 37 32  1  0  0  0  0
 37  1  1  0  0  0  0
 38 37  1  0  0  0  0
 39 37  1  0  0  0  0
 40 26  1  0  0  0  0
 40 41  1  0  0  0  0
 40  2  1  0  0  0  0
 42 40  1  0  0  0  0
 43 32  1  0  0  0  0
 43 26  2  0  0  0  0
M  CHG  1   3  -1
M  END
