1
q = -1.0

 21 21  0  0  0  0  0  0  0  0999 V2000
   -1.7440    0.7703    0.1538 O   0  5  0  0  0  0  0  0  0  0  0  0
   -2.1121   -0.1748   -1.8796 O   0  0  0  0  0  0  0  0  0  0  0  0
   -2.4056    0.0232   -0.6725 C   0  0  0  0  0  0  0  0  0  0  0  0
   -3.6187   -0.6290   -0.0927 C   0  0  0  0  0  0  0  0  0  0  0  0
   -4.4414   -1.3968   -0.8485 C   0  0  0  0  0  0  0  0  0  0  0  0
   -5.6560   -2.0955   -0.4281 C   0  0  0  0  0  0  0  0  0  0  0  0
   -6.1477   -2.0737    0.9014 C   0  0  0  0  0  0  0  0  0  0  0  0
   -7.3127   -2.7583    1.2499 C   0  0  0  0  0  0  0  0  0  0  0  0
   -8.0464   -3.4986    0.2941 C   0  0  0  0  0  0  0  0  0  0  0  0
   -7.5609   -3.5224   -1.0272 C   0  0  0  0  0  0  0  0  0  0  0  0
   -6.3917   -2.8370   -1.3810 C   0  0  0  0  0  0  0  0  0  0  0  0
   -9.2994   -4.2366    0.6898 C   0  0  0  0  0  0  0  0  0  0  0  0
   -3.7974   -0.4495    0.9794 H   0  0  0  0  0  0  0  0  0  0  0  0
   -4.1516   -1.5031   -1.9091 H   0  0  0  0  0  0  0  0  0  0  0  0
   -5.6014   -1.5101    1.6726 H   0  0  0  0  0  0  0  0  0  0  0  0
   -7.6694   -2.7235    2.2921 H   0  0  0  0  0  0  0  0  0  0  0  0
   -8.1112   -4.0910   -1.7938 H   0  0  0  0  0  0  0  0  0  0  0  0
   -6.0304   -2.8709   -2.4208 H   0  0  0  0  0  0  0  0  0  0  0  0
   -9.7754   -4.7305   -0.1793 H   0  0  0  0  0  0  0  0  0  0  0  0
  -10.0461   -3.5519    1.1439 H   0  0  0  0  0  0  0  0  0  0  0  0
   -9.0837   -5.0194    1.4476 H   0  0  0  0  0  0  0  0  0  0  0  0
  2  3  2  0  0  0  0
  3  4  1  0  0  0  0
  3  1  1  0  0  0  0
  4 13  1  0  0  0  0
  5  6  1  0  0  0  0
  5  4  2  0  0  0  0
  6  7  1  0  0  0  0
  7  8  2  0  0  0  0
  7 15  1  0  0  0  0
  8 16  1  0  0  0  0
  9 12  1  0  0  0  0
  9  8  1  0  0  0  0
 10  9  2  0  0  0  0
 11 10  1  0  0  0  0
 11  6  2  0  0  0  0
 12 20  1  0  0  0  0
 12 21  1  0  0  0  0
 14  5  1  0  0  0  0
 17 10  1  0  0  0  0
 18 11  1  0  0  0  0
 19 12  1  0  0  0  0
M  CHG  1   1  -1
M  END
