5
q = -1.0

 41 41  0  0  0  0  0  0  0  0999 V2000
    1.9256   -0.0139   -0.0360 Si  0  0  0  0  0  0  0  0  0  0  0  0
    2.5220   -1.4481    1.7538 Si  0  0  0  0  0  0  0  0  0  0  0  0
    2.6702    2.1676    0.5347 Si  0  0  0  0  0  0  0  0  0  0  0  0
    3.0230   -0.6982   -2.0160 Si  0  0  0  0  0  0  0  0  0  0  0  0
    0.2528   -0.0230   -0.2977 O   0  0  0  0  0  1  0  0  0  0  0  0
    1.6346   -3.1255    1.6222 C   0  0  0  0  0  0  0  0  0  0  0  0
    4.3976   -1.7684    1.6819 C   0  0  0  0  0  0  0  0  0  0  0  0
    2.0858   -0.6864    3.4421 C   0  0  0  0  0  0  0  0  0  0  0  0
    1.3577    2.9585    1.6602 C   0  0  0  0  0  0  0  0  0  0  0  0
    4.3225    2.0581    1.4769 C   0  0  0  0  0  0  0  0  0  0  0  0
    2.9887    3.2874   -0.9726 C   0  0  0  0  0  0  0  0  0  0  0  0
    4.8522   -0.1738   -1.9434 C   0  0  0  0  0  0  0  0  0  0  0  0
    2.9755   -2.5830   -2.2887 C   0  0  0  0  0  0  0  0  0  0  0  0
    2.1593    0.1501   -3.4809 C   0  0  0  0  0  0  0  0  0  0  0  0
    1.8807   -3.6385    0.6707 H   0  0  0  0  0  0  0  0  0  0  0  0
    0.5363   -2.9914    1.6686 H   0  0  0  0  0  0  0  0  0  0  0  0
    1.9368   -3.7885    2.4603 H   0  0  0  0  0  0  0  0  0  0  0  0
    4.6732   -2.2928    0.7440 H   0  0  0  0  0  0  0  0  0  0  0  0
    4.7129   -2.4080    2.5333 H   0  0  0  0  0  0  0  0  0  0  0  0
    4.9795   -0.8266    1.7288 H   0  0  0  0  0  0  0  0  0  0  0  0
    2.6311    0.2636    3.6136 H   0  0  0  0  0  0  0  0  0  0  0  0
    2.3413   -1.3822    4.2690 H   0  0  0  0  0  0  0  0  0  0  0  0
    1.0005   -0.4668    3.5017 H   0  0  0  0  0  0  0  0  0  0  0  0
    0.3666    2.9579    1.1631 H   0  0  0  0  0  0  0  0  0  0  0  0
    1.6242    4.0048    1.9182 H   0  0  0  0  0  0  0  0  0  0  0  0
    1.2593    2.3823    2.6027 H   0  0  0  0  0  0  0  0  0  0  0  0
    5.1039    1.5716    0.8579 H   0  0  0  0  0  0  0  0  0  0  0  0
    4.2261    1.4828    2.4194 H   0  0  0  0  0  0  0  0  0  0  0  0
    4.6815    3.0768    1.7348 H   0  0  0  0  0  0  0  0  0  0  0  0
    2.0972    3.3888   -1.6208 H   0  0  0  0  0  0  0  0  0  0  0  0
    3.8155    2.8857   -1.5929 H   0  0  0  0  0  0  0  0  0  0  0  0
    3.2838    4.3038   -0.6352 H   0  0  0  0  0  0  0  0  0  0  0  0
    4.9572    0.9268   -1.8607 H   0  0  0  0  0  0  0  0  0  0  0  0
    5.3859   -0.4980   -2.8616 H   0  0  0  0  0  0  0  0  0  0  0  0
    5.3665   -0.6293   -1.0727 H   0  0  0  0  0  0  0  0  0  0  0  0
    3.4338   -3.1273   -1.4375 H   0  0  0  0  0  0  0  0  0  0  0  0
    3.5400   -2.8518   -3.2067 H   0  0  0  0  0  0  0  0  0  0  0  0
    1.9380   -2.9520   -2.4123 H   0  0  0  0  0  0  0  0  0  0  0  0
    2.2330    1.2538   -3.3996 H   0  0  0  0  0  0  0  0  0  0  0  0
    1.0826   -0.1177   -3.4984 H   0  0  0  0  0  0  0  0  0  0  0  0
    2.6100   -0.1558   -4.4484 H   0  0  0  0  0  0  0  0  0  0  0  0
  1  3  1  0  0  0  0
  1  2  1  0  0  0  0
  1 14  1  0  0  0  0
  2  8  1  0  0  0  0
  3 10  1  0  0  0  0
  3  9  1  0  0  0  0
  4 12  1  0  0  0  0
  4  1  1  0  0  0  0
  5  1  1  0  0  0  0
  6 16  1  0  0  0  0
  6  2  1  0  0  0  0
  6 17  1  0  0  0  0
  7 20  1  0  0  0  0
  7  2  1  0  0  0  0
  7 19  1  0  0  0  0
  8 23  1  0  0  0  0
  8 21  1  0  0  0  0
  8 22  1  0  0  0  0
  9 25  1  0  0  0  0
  9 26  1  0  0  0  0
 10 29  1  0  0  0  0
 10 28  1  0  0  0  0
 11 32  1  0  0  0  0
 11  3  1  0  0  0  0
 12 33  1  0  0  0  0
 12 35  1  0  0  0  0
 13  4  1  0  0  0  0
 13 36  1  0  0  0  0
 14 39  1  0  0  0  0
 14  4  1  0  0  0  0
 15  6  1  0  0  0  0
 18  7  1  0  0  0  0
 24  9  1  0  0  0  0
 27 10  1  0  0  0  0
 30 11  1  0  0  0  0
 31 11  1  0  0  0  0
 34 12  1  0  0  0  0
 37 13  1  0  0  0  0
 38 13  1  0  0  0  0
 40 14  1  0  0  0  0
 41 14  1  0  0  0  0
M  HYD  1   5   0
M  ZBO  1   3   0
M  END
