1
q = -1.0

 24 25  0  0  0  0  0  0  0  0999 V2000
   -0.8779   -0.1818   -0.4239 O   0  0  0  0  0  1  0  0  0  0  0  0
   -2.2652    0.7515   -0.1108 As  0  0  0  0  0  0  0  0  0  0  0  0
   -2.6882    1.4645   -1.8513 C   0  0  0  0  0  0  0  0  0  0  0  0
   -2.3234    0.6781   -2.9612 C   0  0  0  0  0  0  0  0  0  0  0  0
   -1.7982   -0.2798   -2.8109 H   0  0  0  0  0  0  0  0  0  0  0  0
   -2.6084    1.1483   -4.2516 C   0  0  0  0  0  0  0  0  0  0  0  0
   -2.3243    0.5411   -5.1241 H   0  0  0  0  0  0  0  0  0  0  0  0
   -3.2425    2.3899   -4.4287 C   0  0  0  0  0  0  0  0  0  0  0  0
   -3.4584    2.7559   -5.4441 H   0  0  0  0  0  0  0  0  0  0  0  0
   -3.6005    3.1680   -3.3155 C   0  0  0  0  0  0  0  0  0  0  0  0
   -4.0933    4.1418   -3.4565 H   0  0  0  0  0  0  0  0  0  0  0  0
   -3.3273    2.7061   -2.0182 C   0  0  0  0  0  0  0  0  0  0  0  0
   -3.6012    3.3178   -1.1447 H   0  0  0  0  0  0  0  0  0  0  0  0
   -1.8610    2.2091    1.0850 C   0  0  0  0  0  0  0  0  0  0  0  0
   -1.1436    3.3114    0.5831 C   0  0  0  0  0  0  0  0  0  0  0  0
   -0.8674    3.3661   -0.4802 H   0  0  0  0  0  0  0  0  0  0  0  0
   -0.7646    4.3388    1.4598 C   0  0  0  0  0  0  0  0  0  0  0  0
   -0.1939    5.1956    1.0722 H   0  0  0  0  0  0  0  0  0  0  0  0
   -1.0954    4.2606    2.8219 C   0  0  0  0  0  0  0  0  0  0  0  0
   -0.7890    5.0652    3.5075 H   0  0  0  0  0  0  0  0  0  0  0  0
   -1.8124    3.1569    3.3147 C   0  0  0  0  0  0  0  0  0  0  0  0
   -2.0663    3.0935    4.3832 H   0  0  0  0  0  0  0  0  0  0  0  0
   -2.1998    2.1245    2.4484 C   0  0  0  0  0  0  0  0  0  0  0  0
   -2.7479    1.2530    2.8345 H   0  0  0  0  0  0  0  0  0  0  0  0
  1  2  1  0  0  0  0
  2 14  1  0  0  0  0
  3  2  1  0  0  0  0
  4  5  1  0  0  0  0
  4  3  2  0  0  0  0
  6  4  1  0  0  0  0
  7  6  1  0  0  0  0
  8  6  2  0  0  0  0
  8 10  1  0  0  0  0
  9  8  1  0  0  0  0
 10 12  2  0  0  0  0
 11 10  1  0  0  0  0
 12  3  1  0  0  0  0
 12 13  1  0  0  0  0
 14 23  1  0  0  0  0
 15 14  2  0  0  0  0
 15 17  1  0  0  0  0
 16 15  1  0  0  0  0
 17 19  2  0  0  0  0
 18 17  1  0  0  0  0
 19 21  1  0  0  0  0
 19 20  1  0  0  0  0
 21 22  1  0  0  0  0
 23 24  1  0  0  0  0
 23 21  2  0  0  0  0
M  END
