1
q = -1.0

 16 17  0  0  0  0  0  0  0  0999 V2000
    1.7066   -0.1025   -0.8760 O   0  5  0  0  0  0  0  0  0  0  0  0
    2.8471   -0.4093   -0.3740 C   0  0  0  0  0  0  0  0  0  0  0  0
    3.0575   -0.9331    0.8303 N   0  0  0  0  0  0  0  0  0  0  0  0
    4.7068   -1.2428    1.0977 S   0  0  0  0  0  0  0  0  0  0  0  0
    4.9355   -2.6995    1.1393 O   0  0  0  0  0  0  0  0  0  0  0  0
    5.2208   -0.4074    2.2056 O   0  0  0  0  0  0  0  0  0  0  0  0
    5.2335   -0.5620   -0.4962 C   0  0  0  0  0  0  0  0  0  0  0  0
    4.0814   -0.1646   -1.1868 C   0  0  0  0  0  0  0  0  0  0  0  0
    4.1885    0.3978   -2.4647 C   0  0  0  0  0  0  0  0  0  0  0  0
    3.2819    0.7022   -3.0079 H   0  0  0  0  0  0  0  0  0  0  0  0
    5.4703    0.5534   -3.0210 C   0  0  0  0  0  0  0  0  0  0  0  0
    5.5804    0.9928   -4.0237 H   0  0  0  0  0  0  0  0  0  0  0  0
    6.6186    0.1514   -2.3115 C   0  0  0  0  0  0  0  0  0  0  0  0
    7.6120    0.2824   -2.7665 H   0  0  0  0  0  0  0  0  0  0  0  0
    6.5136   -0.4186   -1.0284 C   0  0  0  0  0  0  0  0  0  0  0  0
    7.4039   -0.7371   -0.4668 H   0  0  0  0  0  0  0  0  0  0  0  0
  1  2  1  0  0  0  0
  2  3  2  0  0  0  0
  3  4  1  0  0  0  0
  4  5  2  0  0  0  0
  4  6  2  0  0  0  0
  7  4  1  0  0  0  0
  8  7  2  0  0  0  0
  8  2  1  0  0  0  0
  9  8  1  0  0  0  0
 10  9  1  0  0  0  0
 11  9  2  0  0  0  0
 11 13  1  0  0  0  0
 12 11  1  0  0  0  0
 13 15  2  0  0  0  0
 14 13  1  0  0  0  0
 15  7  1  0  0  0  0
 15 16  1  0  0  0  0
M  CHG  1   1  -1
M  END
