20
q = 0.0, confidence = 0.98

 20 19  0  0  1  0  0  0  0  0999 V2000
    0.0995    2.8658   -1.3172 O   0  0  0  0  0  0  0  0  0  0  0  0
   -0.4913    2.9818   -2.0875 H   0  0  0  0  0  0  0  0  0  0  0  0
    0.0299    4.0643   -0.4881 C   0  0  0  0  0  0  0  0  0  0  0  0
   -1.4243    4.3517   -0.1027 C   0  0  0  0  0  0  0  0  0  0  0  0
   -2.0297    4.5754   -1.0049 H   0  0  0  0  0  0  0  0  0  0  0  0
   -1.4854    5.2373    0.5608 H   0  0  0  0  0  0  0  0  0  0  0  0
   -1.8860    3.4842    0.4093 H   0  0  0  0  0  0  0  0  0  0  0  0
    0.6386    5.2125   -1.2984 C   0  0  0  0  0  0  0  0  0  0  0  0
    1.6872    4.9859   -1.5715 H   0  0  0  0  0  0  0  0  0  0  0  0
    0.6155    6.1604   -0.7260 H   0  0  0  0  0  0  0  0  0  0  0  0
    0.0616    5.3733   -2.2320 H   0  0  0  0  0  0  0  0  0  0  0  0
    0.9135    3.7821    0.7489 C   0  0  0  0  0  0  0  0  0  0  0  0
    1.8764    3.3507    0.3949 H   0  0  0  0  0  0  0  0  0  0  0  0
    1.1414    4.7470    1.2401 H   0  0  0  0  0  0  0  0  0  0  0  0
    0.3454    2.8095    1.7644 C   0  0  2  0  0  3  0  0  0  0  0  0
    0.2274    3.2699    3.1888 C   0  0  0  0  0  0  0  0  0  0  0  0
   -0.1422    2.4575    3.8394 H   0  0  0  0  0  0  0  0  0  0  0  0
   -0.4627    4.1395    3.2406 H   0  0  0  0  0  0  0  0  0  0  0  0
    1.2098    3.6368    3.5547 H   0  0  0  0  0  0  0  0  0  0  0  0
   -0.0028    1.6638    1.4526 O   0  0  0  0  0  1  0  0  0  0  0  0
  1  3  1  0  0  0  0
  2  1  1  0  0  0  0
  3  4  1  0  0  0  0
  3 12  1  0  0  0  0
  4  7  1  0  0  0  0
  4  6  1  0  0  0  0
  5  4  1  0  0  0  0
  8 10  1  0  0  0  0
  8  3  1  0  0  0  0
  9  8  1  0  0  0  0
 11  8  1  0  0  0  0
 12 14  1  0  0  0  0
 12 15  1  0  0  0  0
 13 12  1  0  0  0  0
 15 20  1  1  0  0  0
 15 16  1  0  0  0  0
 16 18  1  0  0  0  0
 16 19  1  0  0  0  0
 16 17  1  0  0  0  0
M  END
