2
q = -1.0

 62 63  0  0  0  0  0  0  0  0999 V2000
    0.5018    0.5792   -0.1429 P   0  0  1  0  0  0  0  0  0  0  0  0
    0.6962    0.1365   -1.6616 O   0  0  0  0  0  1  0  0  0  0  0  0
    1.4725    1.8908    0.2111 O   0  0  0  0  0  0  0  0  0  0  0  0
    7.0152    1.5434    0.4973 O   0  0  0  0  0  0  0  0  0  0  0  0
    7.3762    1.1688   -0.3273 H   0  0  0  0  0  0  0  0  0  0  0  0
    2.8595    1.7783    0.2437 C   0  0  0  0  0  0  0  0  0  0  0  0
    3.5821    1.3116   -0.8649 C   0  0  0  0  0  0  0  0  0  0  0  0
    4.9781    1.2241   -0.7933 C   0  0  0  0  0  0  0  0  0  0  0  0
    5.6598    1.6117    0.3770 C   0  0  0  0  0  0  0  0  0  0  0  0
    4.9252    2.0960    1.4787 C   0  0  0  0  0  0  0  0  0  0  0  0
    3.5302    2.1713    1.4139 C   0  0  0  0  0  0  0  0  0  0  0  0
   -1.2232    1.1144    0.1738 C   0  0  0  0  0  0  0  0  0  0  0  0
   -2.0532    1.4638   -0.9406 C   0  0  0  0  0  0  0  0  0  0  0  0
   -3.4111    1.0855   -0.8865 C   0  0  0  0  0  0  0  0  0  0  0  0
   -3.9952    0.4698    0.2268 C   0  0  0  0  0  0  0  0  0  0  0  0
   -3.1964    0.3550    1.3770 C   0  0  0  0  0  0  0  0  0  0  0  0
   -1.8287    0.6733    1.4001 C   0  0  0  0  0  0  0  0  0  0  0  0
   -1.1348    0.5415    2.7866 C   0  0  0  0  0  0  0  0  0  0  0  0
   -1.9895    1.3230    3.8186 C   0  0  0  0  0  0  0  0  0  0  0  0
   -1.0520   -0.9420    3.2069 C   0  0  0  0  0  0  0  0  0  0  0  0
    0.2777    1.1440    2.8619 C   0  0  0  0  0  0  0  0  0  0  0  0
   -1.6298    2.2716   -2.1987 C   0  0  0  0  0  0  0  0  0  0  0  0
   -0.2712    2.9870   -2.0699 C   0  0  0  0  0  0  0  0  0  0  0  0
   -1.6132    1.3499   -3.4394 C   0  0  0  0  0  0  0  0  0  0  0  0
   -2.6791    3.3961   -2.4145 C   0  0  0  0  0  0  0  0  0  0  0  0
   -5.4453   -0.0383    0.2422 C   0  0  0  0  0  0  0  0  0  0  0  0
   -5.4289   -1.5554    0.5418 C   0  0  0  0  0  0  0  0  0  0  0  0
   -6.1529    0.1855   -1.1050 C   0  0  0  0  0  0  0  0  0  0  0  0
   -6.2403    0.6993    1.3432 C   0  0  0  0  0  0  0  0  0  0  0  0
    3.0426    1.0077   -1.7721 H   0  0  0  0  0  0  0  0  0  0  0  0
    5.5416    0.8324   -1.6558 H   0  0  0  0  0  0  0  0  0  0  0  0
    5.4685    2.3965    2.3858 H   0  0  0  0  0  0  0  0  0  0  0  0
    2.9468    2.5348    2.2714 H   0  0  0  0  0  0  0  0  0  0  0  0
   -4.0336    1.2866   -1.7661 H   0  0  0  0  0  0  0  0  0  0  0  0
   -3.6570   -0.0233    2.3001 H   0  0  0  0  0  0  0  0  0  0  0  0
   -2.0892    2.3872    3.5243 H   0  0  0  0  0  0  0  0  0  0  0  0
   -3.0079    0.9080    3.9426 H   0  0  0  0  0  0  0  0  0  0  0  0
   -1.4949    1.2853    4.8104 H   0  0  0  0  0  0  0  0  0  0  0  0
   -2.0457   -1.4334    3.1933 H   0  0  0  0  0  0  0  0  0  0  0  0
   -0.6432   -1.0267    4.2346 H   0  0  0  0  0  0  0  0  0  0  0  0
   -0.3767   -1.4954    2.5268 H   0  0  0  0  0  0  0  0  0  0  0  0
    0.6073    1.1559    3.9204 H   0  0  0  0  0  0  0  0  0  0  0  0
    0.3072    2.1808    2.4778 H   0  0  0  0  0  0  0  0  0  0  0  0
    1.0293    0.5434    2.3172 H   0  0  0  0  0  0  0  0  0  0  0  0
   -0.1771    3.7274   -2.8896 H   0  0  0  0  0  0  0  0  0  0  0  0
   -0.1810    3.5305   -1.1094 H   0  0  0  0  0  0  0  0  0  0  0  0
    0.5823    2.2955   -2.1651 H   0  0  0  0  0  0  0  0  0  0  0  0
   -2.6034    0.8785   -3.6065 H   0  0  0  0  0  0  0  0  0  0  0  0
   -0.8529    0.5561   -3.3116 H   0  0  0  0  0  0  0  0  0  0  0  0
   -1.3604    1.9363   -4.3469 H   0  0  0  0  0  0  0  0  0  0  0  0
   -3.6943    3.0137   -2.6342 H   0  0  0  0  0  0  0  0  0  0  0  0
   -2.7466    4.0548   -1.5250 H   0  0  0  0  0  0  0  0  0  0  0  0
   -2.3713    4.0186   -3.2787 H   0  0  0  0  0  0  0  0  0  0  0  0
   -4.8611   -2.1071   -0.2351 H   0  0  0  0  0  0  0  0  0  0  0  0
   -4.9606   -1.7753    1.5219 H   0  0  0  0  0  0  0  0  0  0  0  0
   -6.4624   -1.9584    0.5636 H   0  0  0  0  0  0  0  0  0  0  0  0
   -5.6321   -0.3333   -1.9348 H   0  0  0  0  0  0  0  0  0  0  0  0
   -7.1860   -0.2131   -1.0576 H   0  0  0  0  0  0  0  0  0  0  0  0
   -6.2235    1.2619   -1.3609 H   0  0  0  0  0  0  0  0  0  0  0  0
   -6.2575    1.7917    1.1544 H   0  0  0  0  0  0  0  0  0  0  0  0
   -5.8036    0.5371    2.3486 H   0  0  0  0  0  0  0  0  0  0  0  0
   -7.2887    0.3371    1.3705 H   0  0  0  0  0  0  0  0  0  0  0  0
  1  2  1  6  0  0  0
  1 12  1  0  0  0  0
  1  3  1  0  0  0  0
  3  6  1  0  0  0  0
  5  4  1  0  0  0  0
  6 11  1  0  0  0  0
  7  8  1  0  0  0  0
  7  6  2  0  0  0  0
  8  9  2  0  0  0  0
  9  4  1  0  0  0  0
  9 10  1  0  0  0  0
 10 32  1  0  0  0  0
 11 10  2  0  0  0  0
 11 33  1  0  0  0  0
 12 17  1  0  0  0  0
 13 14  1  0  0  0  0
 13 12  2  0  0  0  0
 14 15  2  0  0  0  0
 15 26  1  0  0  0  0
 15 16  1  0  0  0  0
 16 17  2  0  0  0  0
 16 35  1  0  0  0  0
 17 18  1  0  0  0  0
 18 21  1  0  0  0  0
 18 20  1  0  0  0  0
 18 19  1  0  0  0  0
 19 37  1  0  0  0  0
 19 38  1  0  0  0  0
 20 40  1  0  0  0  0
 21 42  1  0  0  0  0
 22 23  1  0  0  0  0
 22 13  1  0  0  0  0
 23 46  1  0  0  0  0
 24 49  1  0  0  0  0
 24 22  1  0  0  0  0
 25 22  1  0  0  0  0
 25 52  1  0  0  0  0
 26 27  1  0  0  0  0
 26 29  1  0  0  0  0
 27 56  1  0  0  0  0
 27 55  1  0  0  0  0
 28 58  1  0  0  0  0
 28 26  1  0  0  0  0
 29 62  1  0  0  0  0
 29 61  1  0  0  0  0
 30  7  1  0  0  0  0
 31  8  1  0  0  0  0
 34 14  1  0  0  0  0
 36 19  1  0  0  0  0
 39 20  1  0  0  0  0
 41 20  1  0  0  0  0
 43 21  1  0  0  0  0
 44 21  1  0  0  0  0
 45 23  1  0  0  0  0
 47 23  1  0  0  0  0
 48 24  1  0  0  0  0
 50 24  1  0  0  0  0
 51 25  1  0  0  0  0
 53 25  1  0  0  0  0
 54 27  1  0  0  0  0
 57 28  1  0  0  0  0
 59 28  1  0  0  0  0
 60 29  1  0  0  0  0
M  END
