2
q = -1.0, confidence = 0.0

 17 17  0  0  0  0  0  0  0  0999 V2000
    2.4655    4.0224   -0.1514 N   0  0  0  0  0  0  0  0  0  0  0  0
    1.6846   -1.0196   -0.0329 O   0  5  0  0  0  0  0  0  0  0  0  0
    3.7150   -1.9613   -0.1729 O   0  0  0  0  0  0  0  0  0  0  0  0
    5.7546   -0.5027   -0.5697 O   0  0  0  0  0  0  0  0  0  0  0  0
    5.1392   -1.3057   -0.4254 H   0  0  0  0  0  0  0  0  0  0  0  0
    3.0146    5.1214   -0.2585 O   0  0  0  0  0  0  0  0  0  0  0  0
    1.2595    3.8540    0.0461 O   0  0  0  0  0  0  0  0  0  0  0  0
    2.9807   -0.9436   -0.1516 C   0  0  0  0  0  0  0  0  0  0  0  0
    3.5472    0.4204   -0.2624 C   0  0  0  0  0  0  0  0  0  0  0  0
    4.9586    0.5569   -0.4839 C   0  0  0  0  0  0  0  0  0  0  0  0
    5.5103    1.8585   -0.6117 C   0  0  0  0  0  0  0  0  0  0  0  0
    6.5915    1.9472   -0.7880 H   0  0  0  0  0  0  0  0  0  0  0  0
    4.6976    2.9815   -0.5076 C   0  0  0  0  0  0  0  0  0  0  0  0
    5.1016    3.9988   -0.5984 H   0  0  0  0  0  0  0  0  0  0  0  0
    3.3152    2.8248   -0.2723 C   0  0  0  0  0  0  0  0  0  0  0  0
    2.7353    1.5623   -0.1490 C   0  0  0  0  0  0  0  0  0  0  0  0
    1.6601    1.4617    0.0597 H   0  0  0  0  0  0  0  0  0  0  0  0
  1  7  2  0  0  0  0
  3  8  2  0  0  0  0
  4 10  1  0  0  0  0
  4  5  1  0  0  0  0
  6  1  2  0  0  0  0
  8  2  1  0  0  0  0
  9  8  1  0  0  0  0
  9 16  1  0  0  0  0
 10  9  2  0  0  0  0
 11 13  2  0  0  0  0
 11 10  1  0  0  0  0
 12 11  1  0  0  0  0
 13 15  1  0  0  0  0
 14 13  1  0  0  0  0
 15  1  1  0  0  0  0
 15 16  2  0  0  0  0
 16 17  1  0  0  0  0
M  CHG  1   2  -1
M  END
