1
q = -1.0, confidence = 0.004

 10  9  0  0  0  0  0  0  0  0999 V2000
    2.0519   -0.4209   -0.0292 O   0  5  0  0  0  0  0  0  0  0  0  0
    2.2997    1.8372   -0.0425 O   0  0  0  0  0  0  0  0  0  0  0  0
    5.1147    1.6403    0.1176 C   0  0  0  0  0  0  0  0  0  0  0  0
    4.8574    2.4440   -0.5990 H   0  0  0  0  0  0  0  0  0  0  0  0
    6.1902    1.4000    0.0065 H   0  0  0  0  0  0  0  0  0  0  0  0
    4.9573    2.0484    1.1357 H   0  0  0  0  0  0  0  0  0  0  0  0
    2.7611    0.6749   -0.0544 C   0  0  0  0  0  0  0  0  0  0  0  0
    4.2581    0.4020   -0.1212 C   0  0  0  0  0  0  0  0  0  0  0  0
    4.4490   -0.0381   -1.1245 H   0  0  0  0  0  0  0  0  0  0  0  0
    4.4825   -0.4155    0.5943 H   0  0  0  0  0  0  0  0  0  0  0  0
  3  6  1  0  0  0  0
  4  3  1  0  0  0  0
  5  3  1  0  0  0  0
  7  2  2  0  0  0  0
  7  1  1  0  0  0  0
  8  7  1  0  0  0  0
  8  3  1  0  0  0  0
  8 10  1  0  0  0  0
  9  8  1  0  0  0  0
M  CHG  1   1  -1
M  END
