4
q = -1.0

 14 13  0  0  0  0  0  0  0  0999 V2000
    4.0848    1.0675    2.1259 F   0  0  0  0  0  0  0  0  0  0  0  0
    3.3573    3.1218    2.0095 F   0  0  0  0  0  0  0  0  0  0  0  0
    4.9615    2.4550    0.6845 F   0  0  0  0  0  0  0  0  0  0  0  0
    1.6892    1.1624    0.7976 O   0  5  0  0  0  0  0  0  0  0  0  0
    0.7597    1.1597   -1.7100 O   0  0  0  0  0  0  0  0  0  0  0  0
    3.8058    2.0821    1.2758 C   0  0  0  0  0  0  0  0  0  0  0  0
    2.7364    1.6505    0.2556 C   0  0  0  0  0  0  0  0  0  0  0  0
    2.9520    1.8448   -1.1081 C   0  0  0  0  0  0  0  0  0  0  0  0
    3.9082    2.2541   -1.4526 H   0  0  0  0  0  0  0  0  0  0  0  0
    1.9043    1.6079   -2.0425 C   0  0  0  0  0  0  0  0  0  0  0  0
    2.1313    1.8712   -3.5061 C   0  0  0  0  0  0  0  0  0  0  0  0
    1.1848    2.1791   -3.9880 H   0  0  0  0  0  0  0  0  0  0  0  0
    2.4472    0.9108   -3.9686 H   0  0  0  0  0  0  0  0  0  0  0  0
    2.9264    2.6175   -3.6887 H   0  0  0  0  0  0  0  0  0  0  0  0
  3  6  1  0  0  0  0
  6  2  1  0  0  0  0
  6  1  1  0  0  0  0
  7  4  1  0  0  0  0
  7  6  1  0  0  0  0
  8  7  2  0  0  0  0
  9  8  1  0  0  0  0
 10  5  2  0  0  0  0
 10  8  1  0  0  0  0
 11 10  1  0  0  0  0
 12 11  1  0  0  0  0
 13 11  1  0  0  0  0
 14 11  1  0  0  0  0
M  CHG  1   4  -1
M  END
