2
q = -1.0

 27 27  0  0  0  0  0  0  0  0999 V2000
   -7.2552   -2.2431   -0.0032 Br  0  0  0  0  0  0  0  0  0  0  0  0
   -1.8659    0.4415    0.0023 O   0  5  0  0  0  0  0  0  0  0  0  0
   -3.0746   -0.1402    0.0009 C   0  0  0  0  0  0  0  0  0  0  0  0
   -4.2488    0.6756   -0.0011 C   0  0  0  0  0  0  0  0  0  0  0  0
   -5.4840    0.0048   -0.0023 C   0  0  0  0  0  0  0  0  0  0  0  0
   -6.4196    0.5751   -0.0038 H   0  0  0  0  0  0  0  0  0  0  0  0
   -5.5530   -1.3960   -0.0015 C   0  0  0  0  0  0  0  0  0  0  0  0
   -4.3941   -2.1824    0.0004 C   0  0  0  0  0  0  0  0  0  0  0  0
   -4.4664   -3.2791    0.0009 H   0  0  0  0  0  0  0  0  0  0  0  0
   -3.1367   -1.5639    0.0016 C   0  0  0  0  0  0  0  0  0  0  0  0
   -4.1817    2.2149   -0.0022 C   0  0  0  0  0  0  0  0  0  0  0  0
   -3.4510    2.7083   -1.2739 C   0  0  0  0  0  0  0  0  0  0  0  0
   -2.4042    2.3613   -1.3223 H   0  0  0  0  0  0  0  0  0  0  0  0
   -3.4357    3.8170   -1.2889 H   0  0  0  0  0  0  0  0  0  0  0  0
   -3.9743    2.3603   -2.1871 H   0  0  0  0  0  0  0  0  0  0  0  0
   -3.4533    2.7105    1.2700 C   0  0  0  0  0  0  0  0  0  0  0  0
   -3.9780    2.3638    2.1829 H   0  0  0  0  0  0  0  0  0  0  0  0
   -3.4384    3.8193    1.2833 H   0  0  0  0  0  0  0  0  0  0  0  0
   -2.4064    2.3639    1.3207 H   0  0  0  0  0  0  0  0  0  0  0  0
   -5.5892    2.8415   -0.0040 C   0  0  0  0  0  0  0  0  0  0  0  0
   -6.1719    2.5588   -0.9037 H   0  0  0  0  0  0  0  0  0  0  0  0
   -5.4944    3.9453   -0.0048 H   0  0  0  0  0  0  0  0  0  0  0  0
   -6.1735    2.5603    0.8952 H   0  0  0  0  0  0  0  0  0  0  0  0
   -1.8745   -2.3811    0.0036 C   0  0  0  0  0  0  0  0  0  0  0  0
   -1.2582   -2.1625    0.9004 H   0  0  0  0  0  0  0  0  0  0  0  0
   -1.2565   -2.1639   -0.8923 H   0  0  0  0  0  0  0  0  0  0  0  0
   -2.1019   -3.4630    0.0043 H   0  0  0  0  0  0  0  0  0  0  0  0
  1  7  1  0  0  0  0
  3 10  1  0  0  0  0
  3  2  1  0  0  0  0
  4  3  2  0  0  0  0
  5  7  2  0  0  0  0
  5  4  1  0  0  0  0
  6  5  1  0  0  0  0
  7  8  1  0  0  0  0
  8  9  1  0  0  0  0
  8 10  2  0  0  0  0
 10 24  1  0  0  0  0
 11  4  1  0  0  0  0
 11 16  1  0  0  0  0
 12 11  1  0  0  0  0
 13 12  1  0  0  0  0
 14 12  1  0  0  0  0
 15 12  1  0  0  0  0
 16 18  1  0  0  0  0
 16 19  1  0  0  0  0
 16 17  1  0  0  0  0
 20 11  1  0  0  0  0
 20 23  1  0  0  0  0
 21 20  1  0  0  0  0
 22 20  1  0  0  0  0
 24 27  1  0  0  0  0
 24 25  1  0  0  0  0
 26 24  1  0  0  0  0
M  CHG  1   2  -1
M  END
