3
q = 0.0, confidence = 0.998

 32 31  0  0  0  0  0  0  0  0999 V2000
   -3.1177    0.0929    1.2054 P   0  0  0  0  0  4  0  0  0  0  0  0
   -2.2167    3.5338    0.7431 N   0  0  0  0  0  0  0  0  0  0  0  0
   -1.9972   -0.4826    0.3673 O   0  0  0  0  0  1  0  0  0  0  0  0
   -0.5118    2.5155    1.8722 O   0  0  0  0  0  0  0  0  0  0  0  0
   -3.6587   -0.8823    2.3731 O   0  0  0  0  0  0  0  0  0  0  0  0
   -4.4250    0.4591    0.3150 O   0  0  0  0  0  0  0  0  0  0  0  0
   -2.6931    1.5656    2.1919 C   0  0  0  0  0  0  0  0  0  0  0  0
   -3.6428    2.0295    2.5248 H   0  0  0  0  0  0  0  0  0  0  0  0
   -2.1773    1.1616    3.0830 H   0  0  0  0  0  0  0  0  0  0  0  0
   -1.7127    2.5691    1.5635 C   0  0  0  0  0  0  0  0  0  0  0  0
   -3.5370    3.5196    0.1394 C   0  0  0  0  0  0  0  0  0  0  0  0
   -4.1864    2.7508    0.5889 H   0  0  0  0  0  0  0  0  0  0  0  0
   -3.4469    3.2935   -0.9451 H   0  0  0  0  0  0  0  0  0  0  0  0
   -4.0207    4.5127    0.2516 H   0  0  0  0  0  0  0  0  0  0  0  0
   -1.2988    4.5065    0.1656 C   0  0  0  0  0  0  0  0  0  0  0  0
   -1.8354    5.4649    0.0195 H   0  0  0  0  0  0  0  0  0  0  0  0
   -0.9214    4.1479   -0.8169 H   0  0  0  0  0  0  0  0  0  0  0  0
   -0.4523    4.6636    0.8556 H   0  0  0  0  0  0  0  0  0  0  0  0
   -3.9397   -2.2808    2.0489 C   0  0  0  0  0  0  0  0  0  0  0  0
   -4.8130   -2.5435    2.6783 H   0  0  0  0  0  0  0  0  0  0  0  0
   -4.2476   -2.3653    0.9857 H   0  0  0  0  0  0  0  0  0  0  0  0
   -2.7409   -3.1625    2.3368 C   0  0  0  0  0  0  0  0  0  0  0  0
   -1.8953   -2.9098    1.6686 H   0  0  0  0  0  0  0  0  0  0  0  0
   -3.0102   -4.2206    2.1465 H   0  0  0  0  0  0  0  0  0  0  0  0
   -2.4219   -3.0623    3.3936 H   0  0  0  0  0  0  0  0  0  0  0  0
   -4.4356    0.3595   -1.1466 C   0  0  0  0  0  0  0  0  0  0  0  0
   -5.0103    1.2481   -1.4769 H   0  0  0  0  0  0  0  0  0  0  0  0
   -3.3974    0.4532   -1.5238 H   0  0  0  0  0  0  0  0  0  0  0  0
   -5.0866   -0.9266   -1.6069 C   0  0  0  0  0  0  0  0  0  0  0  0
   -4.4643   -1.8126   -1.3724 H   0  0  0  0  0  0  0  0  0  0  0  0
   -5.1988   -0.9001   -2.7097 H   0  0  0  0  0  0  0  0  0  0  0  0
   -6.0931   -1.0449   -1.1583 H   0  0  0  0  0  0  0  0  0  0  0  0
  1  7  1  0  0  0  0
  1  5  1  0  0  0  0
  2 10  1  0  0  0  0
  3  1  1  0  0  0  0
  6  1  1  0  0  0  0
  7  8  1  0  0  0  0
  7  9  1  0  0  0  0
 10  4  2  0  0  0  0
 10  7  1  0  0  0  0
 11 14  1  0  0  0  0
 11 12  1  0  0  0  0
 11  2  1  0  0  0  0
 13 11  1  0  0  0  0
 15  2  1  0  0  0  0
 15 18  1  0  0  0  0
 16 15  1  0  0  0  0
 17 15  1  0  0  0  0
 19 22  1  0  0  0  0
 19  5  1  0  0  0  0
 19 20  1  0  0  0  0
 21 19  1  0  0  0  0
 22 25  1  0  0  0  0
 23 22  1  0  0  0  0
 24 22  1  0  0  0  0
 26  6  1  0  0  0  0
 27 26  1  0  0  0  0
 28 26  1  0  0  0  0
 29 30  1  0  0  0  0
 29 32  1  0  0  0  0
 29 26  1  0  0  0  0
 31 29  1  0  0  0  0
M  END
