2
q = -1

  5  4  0  0  0  0  0  0  0  0999 V2000
   -2.6712    0.2284    1.7439 P   0  0  0  0  0  0  0  0  0  0  0  0
   -2.4689   -0.0576    0.2486 O   0  0  0  0  0  0  0  0  0  0  0  0
   -2.4810    1.8372    1.9299 F   0  0  0  0  0  0  0  0  0  0  0  0
   -4.2524    0.1781    2.0243 F   0  0  0  0  0  0  0  0  0  0  0  0
   -1.9146   -0.5117    2.8135 O   0  0  0  0  0  0  0  0  0  0  0  0
  1  3  1  0  0  0  0
  1  4  1  0  0  0  0
  1  5  2  0  0  0  0
  2  1  1  0  0  0  0
M  END
