29
q = -1.0

 29 31  0  0  1  0  0  0  0  0999 V2000
    2.9285   -0.9192    0.1318 C   0  0  1  0  0  0  0  0  0  0  0  0
    2.1479   -1.4269    1.6015 B   0  0  0  0  0  0  0  0  0  0  0  0
    2.1634   -0.6810    2.5623 H   0  0  0  0  0  0  0  0  0  0  0  0
    0.6827   -2.4489    1.1170 B   0  0  0  0  0  0  0  0  0  0  0  0
   -0.2282   -2.5565    1.9120 H   0  0  0  0  0  0  0  0  0  0  0  0
    0.5878   -2.4480   -0.6826 B   0  0  0  0  0  0  0  0  0  0  0  0
   -0.4123   -2.5749   -1.3583 H   0  0  0  0  0  0  0  0  0  0  0  0
    3.6342   -2.2032    0.9676 B   0  0  2  0  0  0  0  0  0  0  0  0
    4.6804   -1.9872    1.5395 H   0  0  0  0  0  0  0  0  0  0  0  0
    2.2686   -3.1756    1.5868 B   0  0  0  0  0  2  0  0  0  0  0  0
    2.3614   -3.7820    2.6314 H   0  0  0  0  0  0  0  0  0  0  0  0
    1.3574   -3.8135    0.1784 B   0  0  0  0  0  0  0  0  0  0  0  0
    0.8330   -4.9059    0.2005 H   0  0  0  0  0  0  0  0  0  0  0  0
    3.5413   -2.1864   -0.7996 B   0  0  1  0  0  0  0  0  0  0  0  0
    4.5203   -1.9554   -1.4747 H   0  0  0  0  0  0  0  0  0  0  0  0
    3.1257   -3.6658    0.0937 B   0  0  1  0  0  0  0  0  0  0  0  0
    3.8453   -4.6381    0.0479 H   0  0  0  0  0  0  0  0  0  0  0  0
    3.6167    0.3496    0.1028 N   0  0  0  0  0  0  0  0  0  0  0  0
    4.6385    0.3439    0.1421 H   0  0  0  0  0  0  0  0  0  0  0  0
    2.9573    1.5236    0.0670 C   0  0  2  0  0  3  0  0  0  0  0  0
    3.7436    2.7902   -0.0428 C   0  0  0  0  0  0  0  0  0  0  0  0
    3.0899    4.0014    0.5607 C   0  0  0  0  0  0  0  0  0  0  0  0
    2.9194    3.8614    1.6486 H   0  0  0  0  0  0  0  0  0  0  0  0
    2.0912    4.1579    0.1048 H   0  0  0  0  0  0  0  0  0  0  0  0
    3.7056    4.9071    0.4096 H   0  0  0  0  0  0  0  0  0  0  0  0
    4.9183    2.8170   -0.7114 C   0  0  0  0  0  0  0  0  0  0  0  0
    5.4861    3.7542   -0.8174 H   0  0  0  0  0  0  0  0  0  0  0  0
    5.3334    1.9253   -1.2067 H   0  0  0  0  0  0  0  0  0  0  0  0
    1.6917    1.5845    0.1305 O   0  0  0  0  0  1  0  0  0  0  0  0
  1 18  1  6  0  0  0
  1  8  1  0  0  0  0
  1  2  1  0  0  0  0
  2  3  1  0  0  0  0
  4  5  1  0  0  0  0
  6 12  1  0  0  0  0
  6  4  1  0  0  0  0
  7  6  1  0  0  0  0
  8  9  1  1  0  0  0
 10  2  1  0  0  0  0
 10 11  1  0  0  0  0
 12 13  1  0  0  0  0
 12  4  1  0  0  0  0
 14 15  1  6  0  0  0
 14 16  1  0  0  0  0
 14  1  1  0  0  0  0
 14  8  1  0  0  0  0
 16 17  1  6  0  0  0
 16 12  1  0  0  0  0
 16  8  1  0  0  0  0
 18 19  1  0  0  0  0
 20 18  1  0  0  0  0
 20 29  1  1  0  0  0
 21 20  1  0  0  0  0
 21 22  1  0  0  0  0
 22 23  1  0  0  0  0
 24 22  1  0  0  0  0
 25 22  1  0  0  0  0
 26 21  2  0  0  0  0
 27 26  1  0  0  0  0
 28 26  1  0  0  0  0
M  END
