3
q = -1.0, confidence = 0.032

 27 28  0  0  0  0  0  0  0  0999 V2000
    5.6295    1.1449   -0.0037 N   0  0  0  0  0  0  0  0  0  0  0  0
    6.6973    1.7961   -0.2239 N   0  0  0  0  0  0  0  0  0  0  0  0
    1.6507   -1.8542   -0.4713 O   0  5  0  0  0  0  0  0  0  0  0  0
    1.7180   -2.6435   -2.5915 O   0  0  0  0  0  0  0  0  0  0  0  0
    3.6066   -1.9713   -4.1572 O   0  0  0  0  0  0  0  0  0  0  0  0
    2.7691   -2.4050   -3.7907 H   0  0  0  0  0  0  0  0  0  0  0  0
    2.1934   -1.9306   -1.6340 C   0  0  0  0  0  0  0  0  0  0  0  0
    3.4323   -1.1614   -1.8804 C   0  0  0  0  0  0  0  0  0  0  0  0
    4.0806   -1.2310   -3.1568 C   0  0  0  0  0  0  0  0  0  0  0  0
    5.2725   -0.4850   -3.3661 C   0  0  0  0  0  0  0  0  0  0  0  0
    5.7509   -0.5557   -4.3540 H   0  0  0  0  0  0  0  0  0  0  0  0
    5.8029    0.3000   -2.3546 C   0  0  0  0  0  0  0  0  0  0  0  0
    6.7233    0.8840   -2.4982 H   0  0  0  0  0  0  0  0  0  0  0  0
    5.1645    0.3762   -1.0832 C   0  0  0  0  0  0  0  0  0  0  0  0
    3.9878   -0.3570   -0.8683 C   0  0  0  0  0  0  0  0  0  0  0  0
    3.4935   -0.2975    0.1110 H   0  0  0  0  0  0  0  0  0  0  0  0
    7.1594    2.5707    0.8630 C   0  0  0  0  0  0  0  0  0  0  0  0
    6.5079    2.6596    2.1166 C   0  0  0  0  0  0  0  0  0  0  0  0
    5.5794    2.0885    2.2576 H   0  0  0  0  0  0  0  0  0  0  0  0
    7.0516    3.4585    3.1251 C   0  0  0  0  0  0  0  0  0  0  0  0
    6.5455    3.5297    4.1005 H   0  0  0  0  0  0  0  0  0  0  0  0
    8.2440    4.1757    2.9023 C   0  0  0  0  0  0  0  0  0  0  0  0
    8.6656    4.8033    3.7022 H   0  0  0  0  0  0  0  0  0  0  0  0
    8.8929    4.0900    1.6597 C   0  0  0  0  0  0  0  0  0  0  0  0
    9.8240    4.6497    1.4835 H   0  0  0  0  0  0  0  0  0  0  0  0
    8.3532    3.2914    0.6434 C   0  0  0  0  0  0  0  0  0  0  0  0
    8.8329    3.2006   -0.3424 H   0  0  0  0  0  0  0  0  0  0  0  0
  2  1  2  0  0  0  0
  2 17  1  0  0  0  0
  4  7  2  0  0  0  0
  5  6  1  0  0  0  0
  5  9  1  0  0  0  0
  7  3  1  0  0  0  0
  8  7  1  0  0  0  0
  8 15  1  0  0  0  0
  9  8  2  0  0  0  0
 10  9  1  0  0  0  0
 10 12  2  0  0  0  0
 11 10  1  0  0  0  0
 12 14  1  0  0  0  0
 13 12  1  0  0  0  0
 14 15  2  0  0  0  0
 14  1  1  0  0  0  0
 15 16  1  0  0  0  0
 17 18  1  0  0  0  0
 18 19  1  0  0  0  0
 18 20  2  0  0  0  0
 20 21  1  0  0  0  0
 22 20  1  0  0  0  0
 22 23  1  0  0  0  0
 24 22  2  0  0  0  0
 25 24  1  0  0  0  0
 26 17  2  0  0  0  0
 26 24  1  0  0  0  0
 27 26  1  0  0  0  0
M  CHG  1   3  -1
M  END
