4
q = -1.0

 15 14  0  0  0  0  0  0  0  0999 V2000
    2.4368   -0.9247   -1.4398 S   0  0  0  0  0  0  0  0  0  0  0  0
    4.2658   -0.2255    0.6447 S   0  0  0  0  0  0  0  0  0  0  0  0
    3.8249   -0.3237   -0.9204 N   0  0  0  0  0  0  0  0  0  0  0  0
    1.2314   -0.6080   -0.5663 O   0  0  0  0  0  0  0  0  0  0  0  0
    2.3195   -0.6862   -2.8868 O   0  0  0  0  0  0  0  0  0  0  0  0
    3.6033    0.9096    1.3809 O   0  0  0  0  0  0  0  0  0  0  0  0
    4.3893   -1.5130    1.3559 O   0  0  0  0  0  0  0  0  0  0  0  0
    6.0105    0.4389    0.3411 C   0  0  0  0  0  0  0  0  0  0  0  0
    1.5534   -3.3574   -1.9749 F   0  0  0  0  0  0  0  0  0  0  0  0
    3.7064   -3.2487   -1.6197 F   0  0  0  0  0  0  0  0  0  0  0  0
    2.3132   -3.1357    0.0591 F   0  0  0  0  0  0  0  0  0  0  0  0
    6.7049   -0.4206   -0.4004 F   0  0  0  0  0  0  0  0  0  0  0  0
    6.5918    0.5813    1.5354 F   0  0  0  0  0  0  0  0  0  0  0  0
    5.9516    1.6266   -0.2713 F   0  0  0  0  0  0  0  0  0  0  0  0
    2.5135   -2.8121   -1.2179 C   0  0  0  0  0  0  0  0  0  0  0  0
  1 15  1  0  0  0  0
  1  3  1  0  0  0  0
  1  4  1  0  0  0  0
  2  7  2  0  0  0  0
  2  6  2  0  0  0  0
  3  2  1  0  0  0  0
  5  1  1  0  0  0  0
  8  2  1  0  0  0  0
  8 13  1  0  0  0  0
  9 15  1  0  0  0  0
 10 15  1  0  0  0  0
 12  8  1  0  0  0  0
 14  8  1  0  0  0  0
 15 11  1  0  0  0  0
M  END
