1
q = 0.0, confidence = 0.824

 17 17  0  0  0  0  0  0  0  0999 V2000
   -0.3355   -2.3420    0.1814 O   0  0  0  0  0  1  0  0  0  0  0  0
   -1.5738   -1.8418    0.1213 C   0  0  0  0  0  3  0  0  0  0  0  0
   -2.4363   -1.9873    1.3749 C   0  0  0  0  0  0  0  0  0  0  0  0
   -3.2588   -1.2391    1.3561 H   0  0  0  0  0  0  0  0  0  0  0  0
   -1.8202   -1.7863    2.2751 H   0  0  0  0  0  0  0  0  0  0  0  0
   -3.0373   -3.4059    1.4404 C   0  0  0  0  0  0  0  0  0  0  0  0
   -2.2021   -4.1314    1.5546 H   0  0  0  0  0  0  0  0  0  0  0  0
   -3.6834   -3.5151    2.3379 H   0  0  0  0  0  0  0  0  0  0  0  0
   -3.8248   -3.7348    0.1651 C   0  0  0  0  0  0  0  0  0  0  0  0
   -4.7089   -3.0593    0.0979 H   0  0  0  0  0  0  0  0  0  0  0  0
   -4.2278   -4.7690    0.2139 H   0  0  0  0  0  0  0  0  0  0  0  0
   -2.9597   -3.5562   -1.0895 C   0  0  0  0  0  0  0  0  0  0  0  0
   -3.5489   -3.7759   -2.0058 H   0  0  0  0  0  0  0  0  0  0  0  0
   -2.1195   -4.2844   -1.0641 H   0  0  0  0  0  0  0  0  0  0  0  0
   -2.3596   -2.1374   -1.1581 C   0  0  0  0  0  0  0  0  0  0  0  0
   -1.6878   -2.0453   -2.0358 H   0  0  0  0  0  0  0  0  0  0  0  0
   -3.1802   -1.3972   -1.2852 H   0  0  0  0  0  0  0  0  0  0  0  0
  2  1  1  0  0  0  0
  2  3  1  0  0  0  0
  3  6  1  0  0  0  0
  3  5  1  0  0  0  0
  4  3  1  0  0  0  0
  6  7  1  0  0  0  0
  6  8  1  0  0  0  0
  9 11  1  0  0  0  0
  9  6  1  0  0  0  0
 10  9  1  0  0  0  0
 12 14  1  0  0  0  0
 12  9  1  0  0  0  0
 13 12  1  0  0  0  0
 15 12  1  0  0  0  0
 15  2  1  0  0  0  0
 16 15  1  0  0  0  0
 17 15  1  0  0  0  0
M  END
