1
q = -1.0

 11 10  0  0  0  0  0  0  0  0999 V2000
   -2.7017    1.7235    1.8762 O   0  0  0  0  0  1  0  0  0  0  0  0
   -2.5357    3.6567    0.5229 N   0  0  0  0  0  0  0  0  0  0  0  0
   -2.5477    2.9017    1.5974 C   0  0  0  0  0  2  0  0  0  0  0  0
   -2.7250    3.1374   -0.8466 C   0  0  0  0  0  0  0  0  0  0  0  0
   -2.4169    2.0785   -0.9110 H   0  0  0  0  0  0  0  0  0  0  0  0
   -2.0884    3.7356   -1.5268 H   0  0  0  0  0  0  0  0  0  0  0  0
   -3.7912    3.2064   -1.1372 H   0  0  0  0  0  0  0  0  0  0  0  0
   -2.3876    5.1044    0.6696 C   0  0  0  0  0  0  0  0  0  0  0  0
   -2.2778    5.3531    1.7404 H   0  0  0  0  0  0  0  0  0  0  0  0
   -3.2829    5.6187    0.2636 H   0  0  0  0  0  0  0  0  0  0  0  0
   -1.4927    5.4544    0.1151 H   0  0  0  0  0  0  0  0  0  0  0  0
  2  8  1  0  0  0  0
  2  3  1  0  0  0  0
  3  1  1  0  0  0  0
  4  2  1  0  0  0  0
  5  4  1  0  0  0  0
  6  4  1  0  0  0  0
  7  4  1  0  0  0  0
  8  9  1  0  0  0  0
 10  8  1  0  0  0  0
 11  8  1  0  0  0  0
M  END
