1
q = -1.0

 31 33  0  0  1  0  0  0  0  0999 V2000
    0.5437    0.7838   -0.3691 O   0  0  0  0  0  1  0  0  0  0  0  0
   -0.6106    1.0293   -1.0936 C   0  0  2  0  0  0  0  0  0  0  0  0
   -0.3294    1.1998   -2.1594 H   0  0  0  0  0  0  0  0  0  0  0  0
   -1.4177    2.2530   -0.5729 C   0  0  1  0  0  0  0  0  0  0  0  0
   -0.7559    3.0976   -0.2982 H   0  0  0  0  0  0  0  0  0  0  0  0
   -2.4642    2.5872   -1.6655 C   0  0  0  0  0  0  0  0  0  0  0  0
   -2.0072    2.6005   -2.6757 H   0  0  0  0  0  0  0  0  0  0  0  0
   -2.9004    3.5909   -1.5014 H   0  0  0  0  0  0  0  0  0  0  0  0
   -3.5334    1.4618   -1.5103 C   0  0  0  0  0  0  0  0  0  0  0  0
   -4.5270    1.8660   -1.2368 H   0  0  0  0  0  0  0  0  0  0  0  0
   -3.6708    0.8655   -2.4345 H   0  0  0  0  0  0  0  0  0  0  0  0
   -2.9407    0.5929   -0.3801 C   0  0  2  0  0  0  0  0  0  0  0  0
   -1.6852   -0.1209   -1.0222 C   0  0  2  0  0  0  0  0  0  0  0  0
   -1.9543   -0.4588   -2.0466 H   0  0  0  0  0  0  0  0  0  0  0  0
   -3.8199   -0.4707    0.2504 C   0  0  0  0  0  0  0  0  0  0  0  0
   -4.6875   -0.7642   -0.3687 H   0  0  0  0  0  0  0  0  0  0  0  0
   -4.1473   -0.2439    1.2827 H   0  0  0  0  0  0  0  0  0  0  0  0
   -2.2951    1.6662    0.5733 C   0  0  0  0  0  0  0  0  0  0  0  0
   -1.5227    1.1058    1.7795 C   0  0  0  0  0  0  0  0  0  0  0  0
   -0.6033    0.5527    1.5288 H   0  0  0  0  0  0  0  0  0  0  0  0
   -2.1643    0.4346    2.3866 H   0  0  0  0  0  0  0  0  0  0  0  0
   -1.2144    1.9423    2.4402 H   0  0  0  0  0  0  0  0  0  0  0  0
   -3.3295    2.6547    1.1404 C   0  0  0  0  0  0  0  0  0  0  0  0
   -2.8133    3.4720    1.6836 H   0  0  0  0  0  0  0  0  0  0  0  0
   -3.9832    2.1409    1.8756 H   0  0  0  0  0  0  0  0  0  0  0  0
   -3.9844    3.1194    0.3807 H   0  0  0  0  0  0  0  0  0  0  0  0
   -1.3130   -1.2893   -0.2479 N   0  0  0  0  0  0  0  0  0  0  0  0
   -0.6608   -1.1203    0.5396 H   0  0  0  0  0  0  0  0  0  0  0  0
   -2.7616   -2.0053    0.3470 S   0  0  0  0  0  0  0  0  0  0  0  0
   -3.2662   -2.9322   -0.6839 O   0  0  0  0  0  0  0  0  0  0  0  0
   -2.5342   -2.4492    1.7365 O   0  0  0  0  0  0  0  0  0  0  0  0
  2  3  1  6  0  0  0
  2 13  1  0  0  0  0
  2  4  1  0  0  0  0
  2  1  1  0  0  0  0
  4  5  1  1  0  0  0
  4 18  1  0  0  0  0
  6  9  1  0  0  0  0
  6  8  1  0  0  0  0
  6  4  1  0  0  0  0
  7  6  1  0  0  0  0
  9 10  1  0  0  0  0
 11  9  1  0  0  0  0
 12  9  1  6  0  0  0
 12 15  1  0  0  0  0
 12 18  1  0  0  0  0
 13 14  1  6  0  0  0
 13 12  1  0  0  0  0
 13 27  1  0  0  0  0
 15 29  1  0  0  0  0
 15 17  1  0  0  0  0
 16 15  1  0  0  0  0
 18 23  1  0  0  0  0
 18 19  1  0  0  0  0
 19 21  1  0  0  0  0
 19 22  1  0  0  0  0
 20 19  1  0  0  0  0
 23 24  1  0  0  0  0
 23 25  1  0  0  0  0
 26 23  1  0  0  0  0
 27 29  1  0  0  0  0
 27 28  1  0  0  0  0
 29 31  2  0  0  0  0
 30 29  2  0  0  0  0
M  END
