2
q = -1.0

 19 19  0  0  0  0  0  0  0  0999 V2000
    1.7563    0.6111   -1.2267 O   0  5  0  0  0  0  0  0  0  0  0  0
    0.7860   -1.6937   -1.1353 O   0  5  0  0  0  0  0  0  0  0  0  0
    5.7835    1.2771   -2.0928 O   0  0  0  0  0  0  0  0  0  0  0  0
    2.5825   -0.3743   -1.5828 N   0  3  0  0  0  0  0  0  0  0  0  0
    3.8106    2.2590   -1.4405 N   0  0  0  0  0  0  0  0  0  0  0  0
    2.8109    2.0592   -1.2869 H   0  0  0  0  0  0  0  0  0  0  0  0
    1.9928   -1.6457   -1.5663 C   0  0  0  0  0  0  0  0  0  0  0  0
    2.7786   -2.7314   -2.0167 C   0  0  0  0  0  0  0  0  0  0  0  0
    2.3040   -3.7216   -2.0308 H   0  0  0  0  0  0  0  0  0  0  0  0
    4.1078   -2.5255   -2.3858 C   0  0  0  0  0  0  0  0  0  0  0  0
    4.7228   -3.3757   -2.7162 H   0  0  0  0  0  0  0  0  0  0  0  0
    4.6688   -1.2404   -2.3176 C   0  0  0  0  0  0  0  0  0  0  0  0
    5.7170   -1.0218   -2.5594 H   0  0  0  0  0  0  0  0  0  0  0  0
    3.8965   -0.1503   -1.9101 C   0  0  0  0  0  0  0  0  0  0  0  0
    4.5821    1.2066   -1.8246 C   0  0  0  0  0  0  0  0  0  0  0  0
    4.3493    3.5938   -1.3189 C   0  0  0  0  0  0  0  0  0  0  0  0
    5.4356    3.5454   -1.5207 H   0  0  0  0  0  0  0  0  0  0  0  0
    4.1858    3.9948   -0.2967 H   0  0  0  0  0  0  0  0  0  0  0  0
    3.8785    4.2889   -2.0464 H   0  0  0  0  0  0  0  0  0  0  0  0
  3 15  2  0  0  0  0
  4  7  1  0  0  0  0
  4  1  1  0  0  0  0
  5 16  1  0  0  0  0
  5  6  1  0  0  0  0
  7  2  1  0  0  0  0
  8  7  2  0  0  0  0
  9  8  1  0  0  0  0
 10 12  2  0  0  0  0
 10  8  1  0  0  0  0
 11 10  1  0  0  0  0
 12 14  1  0  0  0  0
 13 12  1  0  0  0  0
 14 15  1  0  0  0  0
 14  4  2  0  0  0  0
 15  5  1  0  0  0  0
 16 18  1  0  0  0  0
 17 16  1  0  0  0  0
 19 16  1  0  0  0  0
M  CHG  3   1  -1   2  -1   4   1
M  END
