11
q = nan, confidence = 0.0

 25 24  0  0  0  0  0  0  0  0999 V2000
    7.7190   -0.2837    1.6227 O   0  0  0  0  0  0  0  0  0  0  0  0
    8.6233    0.5232   -0.3058 O   0  0  0  0  0  0  0  0  0  0  0  0
    6.4800    2.0360   -0.7230 F   0  0  0  0  0  0  0  0  0  0  0  0
   -0.5228   -1.1372   -2.3668 O   0  5  0  0  0  0  0  0  0  0  0  0
    6.3842    1.2246    0.3520 C   0  0  0  0  0  0  0  0  0  0  0  0
    7.7261    0.4466    0.4961 C   0  0  0  0  0  0  0  0  0  0  0  0
    5.1719    0.2544    0.1517 C   0  0  0  0  0  0  0  0  0  0  0  0
    2.5241    0.2393   -0.2572 C   0  0  0  0  0  0  0  0  0  0  0  0
   -0.2402   -0.9979   -1.1560 C   0  0  0  0  0  0  0  0  0  0  0  0
    0.9529   -1.8379   -0.6099 C   0  0  0  0  0  0  0  0  0  0  0  0
   -0.8310   -0.2930   -0.2794 O   0  0  0  0  0  0  0  0  0  0  0  0
    3.9136    0.9518   -0.4613 C   0  0  0  0  0  0  0  0  0  0  0  0
    2.3684   -1.2051   -0.8202 C   0  0  0  0  0  0  0  0  0  0  0  0
    1.6277    1.0372   -0.9231 F   0  0  0  0  0  0  0  0  0  0  0  0
    0.9740   -3.0439   -1.2405 F   0  0  0  0  0  0  0  0  0  0  0  0
    3.7702    2.1694    0.1306 F   0  0  0  0  0  0  0  0  0  0  0  0
    2.6289   -1.1754   -2.1468 F   0  0  0  0  0  0  0  0  0  0  0  0
    6.1706    1.9746    1.4636 F   0  0  0  0  0  0  0  0  0  0  0  0
    3.2685   -2.0130   -0.2043 F   0  0  0  0  0  0  0  0  0  0  0  0
    0.7830   -2.0691    0.7227 F   0  0  0  0  0  0  0  0  0  0  0  0
    5.5707   -0.7317   -0.6949 F   0  0  0  0  0  0  0  0  0  0  0  0
    4.8475   -0.2862    1.3489 F   0  0  0  0  0  0  0  0  0  0  0  0
    4.1068    1.1246   -1.7847 F   0  0  0  0  0  0  0  0  0  0  0  0
    2.2111    0.2540    1.0557 F   0  0  0  0  0  0  0  0  0  0  0  0
    8.5840   -0.7499    1.6625 H   0  0  0  0  0  0  0  0  0  0  0  0
  1 25  1  0  0  0  0
  2  6  2  0  0  0  0
  3  5  1  0  0  0  0
  4  9  1  0  0  0  0
  5  6  1  0  0  0  0
  5 18  1  0  0  0  0
  6  1  1  0  0  0  0
  7  5  1  0  0  0  0
  7 22  1  0  0  0  0
  8 24  1  0  0  0  0
  9 10  1  0  0  0  0
  9 11  2  0  0  0  0
 10 20  1  0  0  0  0
 12  8  1  0  0  0  0
 12 16  1  0  0  0  0
 12  7  1  0  0  0  0
 13 10  1  0  0  0  0
 13  8  1  0  0  0  0
 13 19  1  0  0  0  0
 14  8  1  0  0  0  0
 15 10  1  0  0  0  0
 17 13  1  0  0  0  0
 21  7  1  0  0  0  0
 23 12  1  0  0  0  0
M  CHG  1   4  -1
M  END
