1
q = -1.0

 16 16  0  0  0  0  0  0  0  0999 V2000
    0.6327   -0.9782    0.5041 O   0  5  0  0  0  0  0  0  0  0  0  0
    0.5853   -2.2016   -1.4067 O   0  0  0  0  0  0  0  0  0  0  0  0
    2.8316   -0.3793    1.6224 O   0  0  0  0  0  0  0  0  0  0  0  0
    1.8487   -0.4534    1.4325 H   0  0  0  0  0  0  0  0  0  0  0  0
    6.8031   -2.3787    0.0568 O   0  0  0  0  0  0  0  0  0  0  0  0
    7.1265   -3.0258   -0.5983 H   0  0  0  0  0  0  0  0  0  0  0  0
    1.2116   -1.7315   -0.4425 C   0  0  0  0  0  0  0  0  0  0  0  0
    2.6599   -1.9313   -0.2471 C   0  0  0  0  0  0  0  0  0  0  0  0
    3.4132   -1.2183    0.7453 C   0  0  0  0  0  0  0  0  0  0  0  0
    4.8066   -1.3854    0.8143 C   0  0  0  0  0  0  0  0  0  0  0  0
    5.3806   -0.8395    1.5746 H   0  0  0  0  0  0  0  0  0  0  0  0
    5.4621   -2.2577   -0.0686 C   0  0  0  0  0  0  0  0  0  0  0  0
    4.7262   -2.9757   -1.0472 C   0  0  0  0  0  0  0  0  0  0  0  0
    5.2461   -3.6589   -1.7372 H   0  0  0  0  0  0  0  0  0  0  0  0
    3.3501   -2.8004   -1.1246 C   0  0  0  0  0  0  0  0  0  0  0  0
    2.7549   -3.3307   -1.8821 H   0  0  0  0  0  0  0  0  0  0  0  0
  2  7  2  0  0  0  0
  4  3  1  0  0  0  0
  6  5  1  0  0  0  0
  7  8  1  0  0  0  0
  7  1  1  0  0  0  0
  8  9  1  0  0  0  0
  9 10  2  0  0  0  0
  9  3  1  0  0  0  0
 10 11  1  0  0  0  0
 12  5  1  0  0  0  0
 12 10  1  0  0  0  0
 13 12  2  0  0  0  0
 14 13  1  0  0  0  0
 15 13  1  0  0  0  0
 15  8  2  0  0  0  0
 16 15  1  0  0  0  0
M  CHG  1   1  -1
M  END
