1
q = 0.0, confidence = 0.784

 25 26  0  0  0  0  0  0  0  0999 V2000
    0.3723    0.3713   -1.0338 O   0  5  0  0  0  0  0  0  0  0  0  0
   -0.3480    0.2302    0.0426 C   0  0  0  0  0  3  0  0  0  0  0  0
   -1.6038    0.6910    0.3710 C   0  0  0  0  0  0  0  0  0  0  0  0
   -2.3005    1.6433   -0.5341 C   0  0  0  0  0  0  0  0  0  0  0  0
   -2.1120    1.6344   -1.9389 C   0  0  0  0  0  0  0  0  0  0  0  0
   -2.7322    2.5864   -2.7601 C   0  0  0  0  0  0  0  0  0  0  0  0
   -3.5589    3.5772   -2.2084 C   0  0  0  0  0  0  0  0  0  0  0  0
   -3.7567    3.6034   -0.8176 C   0  0  0  0  0  0  0  0  0  0  0  0
   -3.1379    2.6542    0.0048 C   0  0  0  0  0  0  0  0  0  0  0  0
   -2.2819    0.2077    1.5960 C   0  0  0  0  0  0  0  0  0  0  0  0
   -3.6873    0.0032    1.5990 C   0  0  0  0  0  0  0  0  0  0  0  0
   -4.3485   -0.5268    2.7141 C   0  0  0  0  0  0  0  0  0  0  0  0
   -3.6329   -0.8764    3.8716 C   0  0  0  0  0  0  0  0  0  0  0  0
   -2.2425   -0.6844    3.8907 C   0  0  0  0  0  0  0  0  0  0  0  0
   -1.5821   -0.1495    2.7761 C   0  0  0  0  0  0  0  0  0  0  0  0
   -1.4686    0.8686   -2.3898 H   0  0  0  0  0  0  0  0  0  0  0  0
   -2.5680    2.5490   -3.8484 H   0  0  0  0  0  0  0  0  0  0  0  0
   -4.0444    4.3238   -2.8551 H   0  0  0  0  0  0  0  0  0  0  0  0
   -4.3950    4.3787   -0.3657 H   0  0  0  0  0  0  0  0  0  0  0  0
   -3.2891    2.6982    1.0938 H   0  0  0  0  0  0  0  0  0  0  0  0
   -4.2632    0.2524    0.6955 H   0  0  0  0  0  0  0  0  0  0  0  0
   -5.4387   -0.6773    2.6744 H   0  0  0  0  0  0  0  0  0  0  0  0
   -4.1533   -1.2911    4.7479 H   0  0  0  0  0  0  0  0  0  0  0  0
   -1.6632   -0.9436    4.7911 H   0  0  0  0  0  0  0  0  0  0  0  0
   -0.4966   -0.0028    2.8123 H   0  0  0  0  0  0  0  0  0  0  0  0
  1  2  1  0  0  0  0
  2  3  2  0  0  0  0
  3 10  1  0  0  0  0
  4  9  1  0  0  0  0
  4  3  1  0  0  0  0
  5  4  2  0  0  0  0
  6  7  2  0  0  0  0
  6  5  1  0  0  0  0
  7  8  1  0  0  0  0
  8 19  1  0  0  0  0
  8  9  2  0  0  0  0
  9 20  1  0  0  0  0
 10 11  2  0  0  0  0
 10 15  1  0  0  0  0
 11 12  1  0  0  0  0
 12 13  2  0  0  0  0
 13 14  1  0  0  0  0
 13 23  1  0  0  0  0
 14 24  1  0  0  0  0
 15 25  1  0  0  0  0
 15 14  2  0  0  0  0
 16  5  1  0  0  0  0
 17  6  1  0  0  0  0
 18  7  1  0  0  0  0
 21 11  1  0  0  0  0
 22 12  1  0  0  0  0
M  CHG  1   1  -1
M  END
