1
q = -1.0, confidence = 0.008

 17 17  0  0  0  0  0  0  0  0999 V2000
   -1.3324   -0.2865    0.0323 O   0  5  0  0  0  0  0  0  0  0  0  0
   -3.3632   -1.1771   -0.3739 O   0  0  0  0  0  0  0  0  0  0  0  0
   -4.5614    2.9360    0.0117 O   0  0  0  0  0  0  0  0  0  0  0  0
   -2.6457   -0.1986   -0.1358 C   0  0  0  0  0  0  0  0  0  0  0  0
   -3.1587    1.1841   -0.0056 C   0  0  0  0  0  0  0  0  0  0  0  0
   -4.4731    1.5910   -0.1967 C   0  0  0  0  0  0  0  0  0  0  0  0
   -3.3085    3.4114    0.3430 C   0  0  0  0  0  0  0  0  0  0  0  0
   -2.4147    2.3707    0.3443 C   0  0  0  0  0  0  0  0  0  0  0  0
   -1.3458    2.4210    0.5704 H   0  0  0  0  0  0  0  0  0  0  0  0
   -5.7139    0.8659   -0.5653 C   0  0  0  0  0  0  0  0  0  0  0  0
   -5.4673   -0.2047   -0.6823 H   0  0  0  0  0  0  0  0  0  0  0  0
   -6.1418    1.2543   -1.5136 H   0  0  0  0  0  0  0  0  0  0  0  0
   -6.4931    0.9808    0.2173 H   0  0  0  0  0  0  0  0  0  0  0  0
   -3.1972    4.8686    0.6143 C   0  0  0  0  0  0  0  0  0  0  0  0
   -2.1506    5.1253    0.8622 H   0  0  0  0  0  0  0  0  0  0  0  0
   -3.8412    5.1779    1.4646 H   0  0  0  0  0  0  0  0  0  0  0  0
   -3.5039    5.4733   -0.2653 H   0  0  0  0  0  0  0  0  0  0  0  0
  2  4  2  0  0  0  0
  3  7  1  0  0  0  0
  4  5  1  0  0  0  0
  4  1  1  0  0  0  0
  5  8  1  0  0  0  0
  6  5  2  0  0  0  0
  6  3  1  0  0  0  0
  7  8  2  0  0  0  0
  7 14  1  0  0  0  0
  8  9  1  0  0  0  0
 10  6  1  0  0  0  0
 10 13  1  0  0  0  0
 11 10  1  0  0  0  0
 12 10  1  0  0  0  0
 14 15  1  0  0  0  0
 14 16  1  0  0  0  0
 17 14  1  0  0  0  0
M  CHG  1   1  -1
M  END
