5
q = -1.0

  7  6  0  0  0  0  0  0  0  0999 V2000
   -3.9495    3.3625   -0.4437 Cl  0  0  0  0  0  0  0  0  0  0  0  0
   -4.0766    0.4328   -0.5759 Cl  0  0  0  0  0  0  0  0  0  0  0  0
   -2.6969    1.9651   -2.6796 Cl  0  0  0  0  0  0  0  0  0  0  0  0
   -1.6343    2.3452    0.9721 O   0  5  0  0  0  0  0  0  0  0  0  0
   -0.9622    0.8281   -0.5839 O   0  0  0  0  0  0  0  0  0  0  0  0
   -3.0566    1.9075   -0.9316 C   0  0  0  0  0  0  0  0  0  0  0  0
   -1.7414    1.7057   -0.0877 C   0  0  0  0  0  0  0  0  0  0  0  0
  3  6  1  0  0  0  0
  5  7  2  0  0  0  0
  6  2  1  0  0  0  0
  6  1  1  0  0  0  0
  6  7  1  0  0  0  0
  7  4  1  0  0  0  0
M  CHG  1   4  -1
M  END
