1
q = -1.0

 46 47  0  0  0  0  0  0  0  0999 V2000
    1.4745    1.1691   -0.6180 O   0  5  0  0  0  0  0  0  0  0  0  0
   -2.5316    1.1462    0.2297 N   0  0  0  0  0  0  0  0  0  0  0  0
    0.9106    2.3349   -0.2683 C   0  0  0  0  0  0  0  0  0  0  0  0
    1.7424    3.4790   -0.1276 C   0  0  0  0  0  0  0  0  0  0  0  0
    1.1367    4.6816    0.2708 C   0  0  0  0  0  0  0  0  0  0  0  0
   -0.2459    4.7662    0.5243 C   0  0  0  0  0  0  0  0  0  0  0  0
   -1.0525    3.6379    0.3669 C   0  0  0  0  0  0  0  0  0  0  0  0
   -0.4922    2.4086   -0.0422 C   0  0  0  0  0  0  0  0  0  0  0  0
    3.2159    3.3646   -0.4026 C   0  0  0  0  0  0  0  0  0  0  0  0
   -1.3234    1.2140   -0.2180 C   0  0  0  0  0  0  0  0  0  0  0  0
   -3.2986   -0.0111    0.0141 C   0  0  0  0  0  0  0  0  0  0  0  0
   -3.6732   -0.4383   -1.2915 C   0  0  0  0  0  0  0  0  0  0  0  0
   -4.4594   -1.6031   -1.4055 C   0  0  0  0  0  0  0  0  0  0  0  0
   -4.8616   -2.3301   -0.2819 C   0  0  0  0  0  0  0  0  0  0  0  0
   -4.5050   -1.8818    1.0000 C   0  0  0  0  0  0  0  0  0  0  0  0
   -3.7411   -0.7190    1.1738 C   0  0  0  0  0  0  0  0  0  0  0  0
   -3.3262    0.3527   -2.5498 C   0  0  0  0  0  0  0  0  0  0  0  0
   -4.6012    0.8647   -3.2444 C   0  0  0  0  0  0  0  0  0  0  0  0
   -2.4460   -0.4548   -3.5176 C   0  0  0  0  0  0  0  0  0  0  0  0
   -3.3871   -0.1802    2.5566 C   0  0  0  0  0  0  0  0  0  0  0  0
   -4.3239    0.9872    2.9220 C   0  0  0  0  0  0  0  0  0  0  0  0
   -3.3702   -1.2453    3.6580 C   0  0  0  0  0  0  0  0  0  0  0  0
    1.7692    5.5765    0.3829 H   0  0  0  0  0  0  0  0  0  0  0  0
   -0.6881    5.7242    0.8356 H   0  0  0  0  0  0  0  0  0  0  0  0
   -2.1374    3.6679    0.5465 H   0  0  0  0  0  0  0  0  0  0  0  0
    3.4070    2.9505   -1.4132 H   0  0  0  0  0  0  0  0  0  0  0  0
    3.7159    4.3476   -0.3174 H   0  0  0  0  0  0  0  0  0  0  0  0
    3.7087    2.6619    0.3013 H   0  0  0  0  0  0  0  0  0  0  0  0
   -0.8494    0.3556   -0.7445 H   0  0  0  0  0  0  0  0  0  0  0  0
   -4.7595   -1.9461   -2.4080 H   0  0  0  0  0  0  0  0  0  0  0  0
   -5.4619   -3.2449   -0.3998 H   0  0  0  0  0  0  0  0  0  0  0  0
   -4.8309   -2.4527    1.8815 H   0  0  0  0  0  0  0  0  0  0  0  0
   -2.7474    1.2468   -2.2452 H   0  0  0  0  0  0  0  0  0  0  0  0
   -4.3430    1.4957   -4.1197 H   0  0  0  0  0  0  0  0  0  0  0  0
   -5.2291    0.0264   -3.6112 H   0  0  0  0  0  0  0  0  0  0  0  0
   -5.2205    1.4701   -2.5526 H   0  0  0  0  0  0  0  0  0  0  0  0
   -1.4992   -0.7756   -3.0397 H   0  0  0  0  0  0  0  0  0  0  0  0
   -2.9687   -1.3673   -3.8729 H   0  0  0  0  0  0  0  0  0  0  0  0
   -2.1893    0.1510   -4.4110 H   0  0  0  0  0  0  0  0  0  0  0  0
   -2.3620    0.2444    2.4878 H   0  0  0  0  0  0  0  0  0  0  0  0
   -5.3736    0.6345    2.9933 H   0  0  0  0  0  0  0  0  0  0  0  0
   -4.0422    1.4310    3.8995 H   0  0  0  0  0  0  0  0  0  0  0  0
   -4.2738    1.7809    2.1519 H   0  0  0  0  0  0  0  0  0  0  0  0
   -3.0009   -0.8090    4.6080 H   0  0  0  0  0  0  0  0  0  0  0  0
   -4.3845   -1.6474    3.8607 H   0  0  0  0  0  0  0  0  0  0  0  0
   -2.7142   -2.0998    3.3942 H   0  0  0  0  0  0  0  0  0  0  0  0
  1  3  1  0  0  0  0
  3  4  2  0  0  0  0
  3  8  1  0  0  0  0
  4  5  1  0  0  0  0
  5 23  1  0  0  0  0
  5  6  2  0  0  0  0
  6 24  1  0  0  0  0
  7  6  1  0  0  0  0
  7 25  1  0  0  0  0
  8  7  2  0  0  0  0
  9 27  1  0  0  0  0
  9  4  1  0  0  0  0
  9 28  1  0  0  0  0
 10  8  1  0  0  0  0
 10  2  2  0  0  0  0
 11  2  1  0  0  0  0
 11 16  1  0  0  0  0
 12 11  2  0  0  0  0
 13 12  1  0  0  0  0
 13 14  2  0  0  0  0
 14 15  1  0  0  0  0
 15 16  2  0  0  0  0
 15 32  1  0  0  0  0
 16 20  1  0  0  0  0
 17 33  1  0  0  0  0
 17 12  1  0  0  0  0
 18 36  1  0  0  0  0
 18 17  1  0  0  0  0
 19 37  1  0  0  0  0
 19 17  1  0  0  0  0
 20 21  1  0  0  0  0
 20 22  1  0  0  0  0
 21 41  1  0  0  0  0
 21 42  1  0  0  0  0
 22 45  1  0  0  0  0
 22 44  1  0  0  0  0
 26  9  1  0  0  0  0
 29 10  1  0  0  0  0
 30 13  1  0  0  0  0
 31 14  1  0  0  0  0
 34 18  1  0  0  0  0
 35 18  1  0  0  0  0
 38 19  1  0  0  0  0
 39 19  1  0  0  0  0
 40 20  1  0  0  0  0
 43 21  1  0  0  0  0
 46 22  1  0  0  0  0
M  CHG  1   1  -1
M  END
