2
q = -1.0

 27 28  0  0  0  0  0  0  0  0999 V2000
    9.1817   -1.6201   -0.4966 Cl  0  0  0  0  0  0  0  0  0  0  0  0
   -1.8989   -1.4346    0.0357 O   0  5  0  0  0  0  0  0  0  0  0  0
   -3.2826   -3.2047    0.1902 O   0  0  0  0  0  0  0  0  0  0  0  0
   -2.3226   -5.5401    0.3395 O   0  0  0  0  0  0  0  0  0  0  0  0
   -2.9559   -4.7326    0.2951 H   0  0  0  0  0  0  0  0  0  0  0  0
    2.7501   -3.2666   -0.0333 N   0  0  0  0  0  2  0  0  0  0  0  0
    3.7619   -4.0337    0.0336 N   0  0  0  0  0  2  0  0  0  0  0  0
   -2.1107   -2.6948    0.1220 C   0  0  0  0  0  0  0  0  0  0  0  0
   -0.9244   -3.5876    0.1407 C   0  0  0  0  0  0  0  0  0  0  0  0
   -1.1076   -5.0025    0.2570 C   0  0  0  0  0  0  0  0  0  0  0  0
    0.0380   -5.8456    0.2832 C   0  0  0  0  0  0  0  0  0  0  0  0
   -0.1251   -6.9298    0.3735 H   0  0  0  0  0  0  0  0  0  0  0  0
    1.3134   -5.3070    0.1945 C   0  0  0  0  0  0  0  0  0  0  0  0
    2.2105   -5.9426    0.2124 H   0  0  0  0  0  0  0  0  0  0  0  0
    1.5029   -3.8997    0.0724 C   0  0  0  0  0  0  0  0  0  0  0  0
    0.3746   -3.0620    0.0477 C   0  0  0  0  0  0  0  0  0  0  0  0
    0.5140   -1.9758   -0.0445 H   0  0  0  0  0  0  0  0  0  0  0  0
    5.0078   -3.3864   -0.0987 C   0  0  0  0  0  0  0  0  0  0  0  0
    6.1492   -4.2030    0.0556 C   0  0  0  0  0  0  0  0  0  0  0  0
    5.9917   -5.2701    0.2714 H   0  0  0  0  0  0  0  0  0  0  0  0
    7.4361   -3.6677   -0.0602 C   0  0  0  0  0  0  0  0  0  0  0  0
    8.3281   -4.2975    0.0635 H   0  0  0  0  0  0  0  0  0  0  0  0
    7.5832   -2.2992   -0.3437 C   0  0  0  0  0  0  0  0  0  0  0  0
    6.4572   -1.4664   -0.5093 C   0  0  0  0  0  0  0  0  0  0  0  0
    6.6056   -0.4014   -0.7372 H   0  0  0  0  0  0  0  0  0  0  0  0
    5.1771   -2.0084   -0.3828 C   0  0  0  0  0  0  0  0  0  0  0  0
    4.2772   -1.3881   -0.5032 H   0  0  0  0  0  0  0  0  0  0  0  0
  1 23  1  0  0  0  0
  2  8  1  0  0  0  0
  5  4  1  0  0  0  0
  6  7  1  0  0  0  0
  6 15  1  0  0  0  0
  8  9  1  0  0  0  0
  8  3  2  0  0  0  0
  9 10  1  0  0  0  0
 10 11  2  0  0  0  0
 10  4  1  0  0  0  0
 11 12  1  0  0  0  0
 13 14  1  0  0  0  0
 13 11  1  0  0  0  0
 15 13  2  0  0  0  0
 16 15  1  0  0  0  0
 16  9  2  0  0  0  0
 17 16  1  0  0  0  0
 18  7  1  0  0  0  0
 18 19  1  0  0  0  0
 19 20  1  0  0  0  0
 21 19  2  0  0  0  0
 21 22  1  0  0  0  0
 23 21  1  0  0  0  0
 24 26  1  0  0  0  0
 24 23  2  0  0  0  0
 25 24  1  0  0  0  0
 26 18  2  0  0  0  0
 27 26  1  0  0  0  0
M  CHG  1   2  -1
M  END
