1
q = -1.0

 30 31  0  0  0  0  0  0  0  0999 V2000
    1.6268   -1.3945   -0.0383 O   0  5  0  0  0  0  0  0  0  0  0  0
    2.6829   -3.3526   -0.3602 O   0  0  0  0  0  0  0  0  0  0  0  0
    5.1807   -3.4415   -0.6226 O   0  0  0  0  0  0  0  0  0  0  0  0
    4.1829   -3.6816   -0.5459 H   0  0  0  0  0  0  0  0  0  0  0  0
    5.2535    2.1028   -0.0914 N   0  0  0  0  0  2  0  0  0  0  0  0
    6.3794    2.6908   -0.1450 N   0  0  0  0  0  2  0  0  0  0  0  0
    2.6968   -2.0822   -0.2412 C   0  0  0  0  0  0  0  0  0  0  0  0
    3.9949   -1.3646   -0.3050 C   0  0  0  0  0  0  0  0  0  0  0  0
    5.1994   -2.1169   -0.4981 C   0  0  0  0  0  0  0  0  0  0  0  0
    6.4417   -1.4271   -0.5550 C   0  0  0  0  0  0  0  0  0  0  0  0
    7.3529   -2.0251   -0.7047 H   0  0  0  0  0  0  0  0  0  0  0  0
    6.4892   -0.0474   -0.4252 C   0  0  0  0  0  0  0  0  0  0  0  0
    7.4390    0.5052   -0.4664 H   0  0  0  0  0  0  0  0  0  0  0  0
    5.2966    0.7074   -0.2321 C   0  0  0  0  0  0  0  0  0  0  0  0
    4.0649    0.0324   -0.1757 C   0  0  0  0  0  0  0  0  0  0  0  0
    3.1420    0.6109   -0.0283 H   0  0  0  0  0  0  0  0  0  0  0  0
    6.3245    4.0930   -0.0042 C   0  0  0  0  0  0  0  0  0  0  0  0
    7.5573    4.7755   -0.0549 C   0  0  0  0  0  0  0  0  0  0  0  0
    8.4698    4.1778   -0.1988 H   0  0  0  0  0  0  0  0  0  0  0  0
    7.6033    6.1688    0.0750 C   0  0  0  0  0  0  0  0  0  0  0  0
    8.5733    6.6893    0.0335 H   0  0  0  0  0  0  0  0  0  0  0  0
    6.4252    6.9200    0.2582 C   0  0  0  0  0  0  0  0  0  0  0  0
    5.1921    6.2240    0.3073 C   0  0  0  0  0  0  0  0  0  0  0  0
    4.2604    6.7959    0.4497 H   0  0  0  0  0  0  0  0  0  0  0  0
    5.1334    4.8374    0.1795 C   0  0  0  0  0  0  0  0  0  0  0  0
    4.1823    4.2876    0.2157 H   0  0  0  0  0  0  0  0  0  0  0  0
    6.4618    8.4198    0.3984 C   0  0  0  0  0  0  0  0  0  0  0  0
    5.8647    8.9135   -0.3972 H   0  0  0  0  0  0  0  0  0  0  0  0
    7.4951    8.8126    0.3403 H   0  0  0  0  0  0  0  0  0  0  0  0
    6.0279    8.7446    1.3677 H   0  0  0  0  0  0  0  0  0  0  0  0
  2  7  2  0  0  0  0
  3  4  1  0  0  0  0
  3  9  1  0  0  0  0
  6  5  1  0  0  0  0
  6 17  1  0  0  0  0
  7  1  1  0  0  0  0
  8  7  1  0  0  0  0
  8 15  1  0  0  0  0
  9  8  2  0  0  0  0
 10  9  1  0  0  0  0
 10 12  2  0  0  0  0
 11 10  1  0  0  0  0
 12 14  1  0  0  0  0
 13 12  1  0  0  0  0
 14 15  2  0  0  0  0
 14  5  1  0  0  0  0
 15 16  1  0  0  0  0
 17 25  1  0  0  0  0
 18 17  2  0  0  0  0
 18 20  1  0  0  0  0
 19 18  1  0  0  0  0
 20 22  2  0  0  0  0
 21 20  1  0  0  0  0
 22 23  1  0  0  0  0
 22 27  1  0  0  0  0
 23 24  1  0  0  0  0
 25 26  1  0  0  0  0
 25 23  2  0  0  0  0
 27 30  1  0  0  0  0
 28 27  1  0  0  0  0
 29 27  1  0  0  0  0
M  CHG  1   1  -1
M  END
