1
q = -1.0, confidence = 0.006

 16 16  0  0  0  0  0  0  0  0999 V2000
    2.0264    0.1195   -0.4349 O   0  5  0  0  0  0  0  0  0  0  0  0
    4.5083   -0.6334   -0.9584 N   0  0  0  0  0  0  0  0  0  0  0  0
    5.7197   -1.1528   -1.3460 C   0  0  0  0  0  0  0  0  0  0  0  0
    5.8796   -2.0128   -2.2038 O   0  0  0  0  0  0  0  0  0  0  0  0
    6.7945   -0.5823   -0.6313 N   0  0  0  0  0  0  0  0  0  0  0  0
    6.7606    0.3979    0.3544 C   0  0  0  0  0  0  0  0  0  0  0  0
    7.7739    0.8143    0.9159 O   0  0  0  0  0  0  0  0  0  0  0  0
    5.3991    0.8962    0.6826 C   0  0  0  0  0  0  0  0  0  0  0  0
    5.3535    1.8597    1.6318 N   0  0  0  0  0  0  0  0  0  0  0  0
    4.3119    0.3544    0.0123 C   0  0  0  0  0  0  0  0  0  0  0  0
    2.9059    0.7204    0.2768 C   0  0  0  0  0  0  0  0  0  0  0  0
    2.6647    1.5951    1.1794 O   0  0  0  0  0  0  0  0  0  0  0  0
    3.6588   -0.9554   -1.4324 H   0  0  0  0  0  0  0  0  0  0  0  0
    4.4300    2.1731    1.9425 H   0  0  0  0  0  0  0  0  0  0  0  0
    6.2366    2.0914    2.0876 H   0  0  0  0  0  0  0  0  0  0  0  0
    7.7197   -0.9442   -0.8797 H   0  0  0  0  0  0  0  0  0  0  0  0
  1 11  1  0  0  0  0
  2 10  1  0  0  0  0
  3  2  1  0  0  0  0
  3  5  1  0  0  0  0
  4  3  2  0  0  0  0
  5  6  1  0  0  0  0
  6  8  1  0  0  0  0
  6  7  2  0  0  0  0
  8  9  1  0  0  0  0
  9 14  1  0  0  0  0
  9 15  1  0  0  0  0
 10 11  1  0  0  0  0
 10  8  2  0  0  0  0
 11 12  2  0  0  0  0
 13  2  1  0  0  0  0
 16  5  1  0  0  0  0
M  CHG  1   1  -1
M  END
