26
q = -1.0

 28 28  0  0  0  0  0  0  0  0999 V2000
   -3.9303    2.1012    0.0711 C   0  0  0  0  0  0  0  0  0  0  0  0
   -4.4208    3.3942    0.3342 C   0  0  0  0  0  0  0  0  0  0  0  0
   -3.6876    4.1363    0.6820 H   0  0  0  0  0  0  0  0  0  0  0  0
   -5.7730    3.7174    0.1781 C   0  0  0  0  0  0  0  0  0  0  0  0
   -6.1283    4.7382    0.3838 H   0  0  0  0  0  0  0  0  0  0  0  0
   -6.6682    2.7248   -0.2523 C   0  0  0  0  0  0  0  0  0  0  0  0
   -7.7321    2.9619   -0.4053 H   0  0  0  0  0  0  0  0  0  0  0  0
   -6.2100    1.4279   -0.5073 C   0  0  0  0  0  0  0  0  0  0  0  0
   -6.9084    0.6710   -0.8871 H   0  0  0  0  0  0  0  0  0  0  0  0
   -4.8480    1.0874   -0.3333 C   0  0  0  0  0  0  0  0  0  0  0  0
   -2.4488    1.8565    0.2752 C   0  0  0  0  0  0  0  0  0  0  0  0
   -4.9910   -1.3999   -0.3056 C   0  0  0  0  0  0  0  0  0  0  0  0
   -6.2296   -1.4393    0.5533 C   0  0  0  0  0  0  0  0  0  0  0  0
   -7.1570   -1.3698   -0.0511 H   0  0  0  0  0  0  0  0  0  0  0  0
   -6.2662   -2.4017    1.0972 H   0  0  0  0  0  0  0  0  0  0  0  0
   -6.2487   -0.6074    1.2833 H   0  0  0  0  0  0  0  0  0  0  0  0
   -4.4386   -2.6094   -0.7485 C   0  0  0  0  0  3  0  0  0  0  0  0
   -4.9428   -3.5346   -0.4395 H   0  0  0  0  0  0  0  0  0  0  0  0
   -3.2644   -2.7087   -1.5633 C   0  0  0  0  0  0  0  0  0  0  0  0
   -2.8001   -4.0767   -2.0280 C   0  0  0  0  0  0  0  0  0  0  0  0
   -1.7076   -4.1718   -1.8679 H   0  0  0  0  0  0  0  0  0  0  0  0
   -3.3220   -4.9104   -1.5217 H   0  0  0  0  0  0  0  0  0  0  0  0
   -2.9705   -4.1624   -3.1217 H   0  0  0  0  0  0  0  0  0  0  0  0
   -4.3947   -0.2174   -0.5931 N   0  0  0  0  0  4  0  0  0  0  0  0
   -1.8264    2.6679    1.0199 O   0  5  0  0  0  0  0  0  0  0  0  0
   -1.9413    0.8487   -0.3260 O   0  0  0  0  0  0  0  0  0  0  0  0
   -2.6090   -1.6918   -1.9200 O   0  0  0  0  0  0  0  0  0  0  0  0
   -3.4298   -0.2995   -0.9928 H   0  0  0  0  0  0  0  0  0  0  0  0
  1 11  1  0  0  0  0
  1  2  1  0  0  0  0
  2  3  1  0  0  0  0
  4  2  2  0  0  0  0
  4  5  1  0  0  0  0
  6  4  1  0  0  0  0
  7  6  1  0  0  0  0
  8 10  1  0  0  0  0
  8  6  2  0  0  0  0
  9  8  1  0  0  0  0
 10  1  2  0  0  0  0
 11 25  1  0  0  0  0
 12 13  1  0  0  0  0
 13 15  1  0  0  0  0
 13 16  1  0  0  0  0
 14 13  1  0  0  0  0
 17 18  1  0  0  0  0
 17 12  1  0  0  0  0
 19 17  1  0  0  0  0
 20 21  1  0  0  0  0
 20 19  1  0  0  0  0
 20 22  1  0  0  0  0
 23 20  1  0  0  0  0
 24 10  1  0  0  0  0
 24 12  2  0  0  0  0
 26 11  2  0  0  0  0
 27 19  2  0  0  0  0
 28 24  1  0  0  0  0
M  CHG  1  25  -1
M  END
