3
q = -1.0, confidence = 0.0

 39 40  0  0  0  0  0  0  0  0999 V2000
   -1.1967    2.5767   -0.1768 S   0  0  0  0  0  0  0  0  0  0  0  0
    1.0924    0.0604    0.6498 P   0  0  1  0  0  0  0  0  0  0  0  0
   -1.4483    1.1391    0.4136 O   0  0  0  0  0  1  0  0  0  0  0  0
   -1.8648    2.7914   -1.4790 O   0  0  0  0  0  1  0  0  0  0  0  0
   -1.4702    3.5457    0.9115 O   0  0  0  0  0  1  0  0  0  0  0  0
    1.1748    0.3515    2.5501 C   0  0  0  0  0  0  0  0  0  0  0  0
    0.6569   -0.8787    3.3142 C   0  0  0  0  0  0  0  0  0  0  0  0
   -0.3991   -1.0808    3.0581 H   0  0  0  0  0  0  0  0  0  0  0  0
    0.6994   -0.6648    4.4026 H   0  0  0  0  0  0  0  0  0  0  0  0
    1.2411   -1.8021    3.1404 H   0  0  0  0  0  0  0  0  0  0  0  0
    0.2592    1.5401    2.8960 C   0  0  0  0  0  0  0  0  0  0  0  0
   -0.7957    1.3466    2.6334 H   0  0  0  0  0  0  0  0  0  0  0  0
    0.5542    2.4727    2.3795 H   0  0  0  0  0  0  0  0  0  0  0  0
    0.3319    1.7230    3.9889 H   0  0  0  0  0  0  0  0  0  0  0  0
    2.6147    0.7034    2.9646 C   0  0  0  0  0  0  0  0  0  0  0  0
    3.3488   -0.0924    2.7383 H   0  0  0  0  0  0  0  0  0  0  0  0
    2.6320    0.8787    4.0611 H   0  0  0  0  0  0  0  0  0  0  0  0
    2.9544    1.6375    2.4774 H   0  0  0  0  0  0  0  0  0  0  0  0
    1.5566    1.7186   -0.0310 C   0  0  0  0  0  0  0  0  0  0  0  0
    0.6026    2.6790   -0.4389 C   0  0  0  0  0  0  0  0  0  0  0  0
    1.0103    3.8947   -1.0122 C   0  0  0  0  0  0  0  0  0  0  0  0
    0.2405    4.6090   -1.3393 H   0  0  0  0  0  0  0  0  0  0  0  0
    2.3708    4.1840   -1.1679 C   0  0  0  0  0  0  0  0  0  0  0  0
    2.6800    5.1374   -1.6220 H   0  0  0  0  0  0  0  0  0  0  0  0
    3.3314    3.2551   -0.7419 C   0  0  0  0  0  0  0  0  0  0  0  0
    4.4044    3.4715   -0.8524 H   0  0  0  0  0  0  0  0  0  0  0  0
    2.9244    2.0348   -0.1856 C   0  0  0  0  0  0  0  0  0  0  0  0
    3.6864    1.3004    0.1123 H   0  0  0  0  0  0  0  0  0  0  0  0
    2.5005   -1.0304    0.1619 C   0  0  0  0  0  0  0  0  0  0  0  0
    2.9336   -0.9807   -1.1845 C   0  0  0  0  0  0  0  0  0  0  0  0
    2.4707   -0.2583   -1.8730 H   0  0  0  0  0  0  0  0  0  0  0  0
    3.9091   -1.8719   -1.6511 C   0  0  0  0  0  0  0  0  0  0  0  0
    4.2310   -1.8148   -2.7021 H   0  0  0  0  0  0  0  0  0  0  0  0
    4.4682   -2.8329   -0.7932 C   0  0  0  0  0  0  0  0  0  0  0  0
    5.2355   -3.5297   -1.1630 H   0  0  0  0  0  0  0  0  0  0  0  0
    4.0367   -2.8994    0.5393 C   0  0  0  0  0  0  0  0  0  0  0  0
    4.4624   -3.6488    1.2238 H   0  0  0  0  0  0  0  0  0  0  0  0
    3.0597   -2.0083    1.0129 C   0  0  0  0  0  0  0  0  0  0  0  0
    2.7418   -2.0894    2.0595 H   0  0  0  0  0  0  0  0  0  0  0  0
  1  3  1  0  0  0  0
  1  5  1  0  0  0  0
  2  6  1  1  0  0  0
  4  1  1  0  0  0  0
  6 11  1  0  0  0  0
  6 15  1  0  0  0  0
  6  7  1  0  0  0  0
  7  9  1  0  0  0  0
  8  7  1  0  0  0  0
 10  7  1  0  0  0  0
 11 14  1  0  0  0  0
 12 11  1  0  0  0  0
 13 11  1  0  0  0  0
 15 17  1  0  0  0  0
 16 15  1  0  0  0  0
 18 15  1  0  0  0  0
 19  2  1  0  0  0  0
 20  1  1  0  0  0  0
 20 19  2  0  0  0  0
 21 20  1  0  0  0  0
 22 21  1  0  0  0  0
 23 21  2  0  0  0  0
 23 25  1  0  0  0  0
 24 23  1  0  0  0  0
 25 27  2  0  0  0  0
 26 25  1  0  0  0  0
 27 19  1  0  0  0  0
 27 28  1  0  0  0  0
 29  2  1  0  0  0  0
 29 38  1  0  0  0  0
 30 29  2  0  0  0  0
 31 30  1  0  0  0  0
 32 30  1  0  0  0  0
 32 34  2  0  0  0  0
 33 32  1  0  0  0  0
 34 36  1  0  0  0  0
 35 34  1  0  0  0  0
 36 38  2  0  0  0  0
 36 37  1  0  0  0  0
 38 39  1  0  0  0  0
M  END
