1
q = -1.0

 19 19  0  0  0  0  0  0  0  0999 V2000
   -0.9973   -1.0059   -2.1681 O   0  5  0  0  0  0  0  0  0  0  0  0
   -1.7691    0.0094   -1.8060 N   0  0  0  0  0  0  0  0  0  0  0  0
   -2.9854    0.1793   -2.2243 C   0  0  0  0  0  0  0  0  0  0  0  0
   -3.4113   -0.5674   -2.9151 H   0  0  0  0  0  0  0  0  0  0  0  0
   -3.8044    1.2950   -1.7655 C   0  0  0  0  0  0  0  0  0  0  0  0
   -5.2088    1.2662   -2.0174 C   0  0  0  0  0  0  0  0  0  0  0  0
   -6.0346    2.3031   -1.5427 C   0  0  0  0  0  0  0  0  0  0  0  0
   -7.1163    2.2828   -1.7291 H   0  0  0  0  0  0  0  0  0  0  0  0
   -5.4758    3.3694   -0.8201 C   0  0  0  0  0  0  0  0  0  0  0  0
   -6.1325    4.1734   -0.4543 H   0  0  0  0  0  0  0  0  0  0  0  0
   -4.0949    3.4136   -0.5709 C   0  0  0  0  0  0  0  0  0  0  0  0
   -3.6565    4.2512   -0.0091 H   0  0  0  0  0  0  0  0  0  0  0  0
   -3.2706    2.3860   -1.0445 C   0  0  0  0  0  0  0  0  0  0  0  0
   -2.1886    2.4131   -0.8506 H   0  0  0  0  0  0  0  0  0  0  0  0
   -5.6674    0.1889   -2.7126 O   0  0  0  0  0  0  0  0  0  0  0  0
   -7.0541    0.0808   -2.9662 C   0  0  0  0  0  0  0  0  0  0  0  0
   -7.6429    0.0324   -2.0228 H   0  0  0  0  0  0  0  0  0  0  0  0
   -7.1964   -0.8608   -3.5280 H   0  0  0  0  0  0  0  0  0  0  0  0
   -7.4319    0.9290   -3.5803 H   0  0  0  0  0  0  0  0  0  0  0  0
  1  2  1  0  0  0  0
  3  2  2  0  0  0  0
  3  5  1  0  0  0  0
  4  3  1  0  0  0  0
  5 13  1  0  0  0  0
  6  5  2  0  0  0  0
  6  7  1  0  0  0  0
  7  9  2  0  0  0  0
  8  7  1  0  0  0  0
  9 11  1  0  0  0  0
  9 10  1  0  0  0  0
 11 12  1  0  0  0  0
 13 14  1  0  0  0  0
 13 11  2  0  0  0  0
 15  6  1  0  0  0  0
 16 15  1  0  0  0  0
 16 17  1  0  0  0  0
 18 16  1  0  0  0  0
 19 16  1  0  0  0  0
M  CHG  1   1  -1
M  END
