1
q = -1.0

 19 19  0  0  0  0  0  0  0  0999 V2000
   -0.7263    1.2207   -2.4680 O   0  5  0  0  0  0  0  0  0  0  0  0
   -7.2990   -2.5849   -0.7649 O   0  0  0  0  0  0  0  0  0  0  0  0
   -1.7228    0.4170   -2.1131 N   0  0  0  0  0  0  0  0  0  0  0  0
   -2.9400    0.5383   -2.5439 C   0  0  0  0  0  0  0  0  0  0  0  0
   -3.1562    1.3626   -3.2490 H   0  0  0  0  0  0  0  0  0  0  0  0
   -4.0205   -0.3319   -2.0977 C   0  0  0  0  0  0  0  0  0  0  0  0
   -3.7989   -1.4786   -1.2995 C   0  0  0  0  0  0  0  0  0  0  0  0
   -2.7719   -1.7661   -1.0308 H   0  0  0  0  0  0  0  0  0  0  0  0
   -4.8679   -2.2523   -0.8353 C   0  0  0  0  0  0  0  0  0  0  0  0
   -4.6556   -3.1328   -0.2145 H   0  0  0  0  0  0  0  0  0  0  0  0
   -6.1958   -1.9008   -1.1692 C   0  0  0  0  0  0  0  0  0  0  0  0
   -6.4281   -0.7689   -1.9812 C   0  0  0  0  0  0  0  0  0  0  0  0
   -7.4666   -0.5123   -2.2344 H   0  0  0  0  0  0  0  0  0  0  0  0
   -5.3564   -0.0027   -2.4361 C   0  0  0  0  0  0  0  0  0  0  0  0
   -5.5521    0.8846   -3.0583 H   0  0  0  0  0  0  0  0  0  0  0  0
   -7.1230   -3.7160    0.0675 C   0  0  0  0  0  0  0  0  0  0  0  0
   -6.5264   -4.5116   -0.4326 H   0  0  0  0  0  0  0  0  0  0  0  0
   -8.1348   -4.1073    0.2818 H   0  0  0  0  0  0  0  0  0  0  0  0
   -6.6268   -3.4505    1.0280 H   0  0  0  0  0  0  0  0  0  0  0  0
  1  3  1  0  0  0  0
  2 16  1  0  0  0  0
  4  3  2  0  0  0  0
  4  6  1  0  0  0  0
  5  4  1  0  0  0  0
  6  7  1  0  0  0  0
  7  8  1  0  0  0  0
  7  9  2  0  0  0  0
  9 10  1  0  0  0  0
 11  9  1  0  0  0  0
 11  2  1  0  0  0  0
 12 11  2  0  0  0  0
 13 12  1  0  0  0  0
 14  6  2  0  0  0  0
 14 12  1  0  0  0  0
 15 14  1  0  0  0  0
 16 18  1  0  0  0  0
 16 19  1  0  0  0  0
 17 16  1  0  0  0  0
M  CHG  1   1  -1
M  END
