1
q = -1.0

 29 29  0  0  0  0  0  0  0  0999 V2000
   -2.0168   -0.0750   -0.4630 O   0  5  0  0  0  0  0  0  0  0  0  0
   -2.5449    2.1198   -0.2625 O   0  0  0  0  0  0  0  0  0  0  0  0
  -10.1469   -2.3317   -0.0739 O   0  0  0  0  0  0  0  0  0  0  0  0
  -12.8169    0.9102    0.1840 O   0  0  0  0  0  0  0  0  0  0  0  0
   -8.3889   -0.5063   -0.0973 N   0  0  0  0  0  0  0  0  0  0  0  0
   -8.7044   -1.5148   -0.1172 H   0  0  0  0  0  0  0  0  0  0  0  0
   -9.3450    0.3740   -0.0161 N   0  0  0  0  0  0  0  0  0  0  0  0
   -2.8531    0.8982   -0.3351 C   0  0  0  0  0  0  0  0  0  0  0  0
   -4.3096    0.5298   -0.2765 C   0  0  0  0  0  0  0  0  0  0  0  0
   -4.7172   -0.8188   -0.2960 C   0  0  0  0  0  0  0  0  0  0  0  0
   -3.9466   -1.6000   -0.3568 H   0  0  0  0  0  0  0  0  0  0  0  0
   -6.0724   -1.1522   -0.2355 C   0  0  0  0  0  0  0  0  0  0  0  0
   -6.3932   -2.2053   -0.2495 H   0  0  0  0  0  0  0  0  0  0  0  0
   -7.0420   -0.1289   -0.1547 C   0  0  0  0  0  0  0  0  0  0  0  0
   -6.6461    1.2267   -0.1328 C   0  0  0  0  0  0  0  0  0  0  0  0
   -7.4185    2.0046   -0.0686 H   0  0  0  0  0  0  0  0  0  0  0  0
   -5.2889    1.5431   -0.1925 C   0  0  0  0  0  0  0  0  0  0  0  0
   -4.9484    2.5885   -0.1751 H   0  0  0  0  0  0  0  0  0  0  0  0
  -10.6233   -0.0154    0.0356 C   0  0  0  0  0  0  0  0  0  0  0  0
  -11.0259   -1.4443    0.0030 C   0  0  0  0  0  0  0  0  0  0  0  0
  -12.4745   -1.8501    0.0599 C   0  0  0  0  0  0  0  0  0  0  0  0
  -12.5262   -2.9536    0.0200 H   0  0  0  0  0  0  0  0  0  0  0  0
  -13.0453   -1.3928   -0.7717 H   0  0  0  0  0  0  0  0  0  0  0  0
  -12.9574   -1.4603    0.9772 H   0  0  0  0  0  0  0  0  0  0  0  0
  -11.6038    1.1082    0.1285 C   0  0  0  0  0  0  0  0  0  0  0  0
  -11.0409    2.5203    0.1522 C   0  0  0  0  0  0  0  0  0  0  0  0
  -11.8857    3.2282    0.2229 H   0  0  0  0  0  0  0  0  0  0  0  0
  -10.4451    2.7257   -0.7591 H   0  0  0  0  0  0  0  0  0  0  0  0
  -10.3529    2.6592    1.0096 H   0  0  0  0  0  0  0  0  0  0  0  0
  1  8  1  0  0  0  0
  3 20  2  0  0  0  0
  5  7  1  0  0  0  0
  6  5  1  0  0  0  0
  7 19  2  0  0  0  0
  8  9  1  0  0  0  0
  8  2  2  0  0  0  0
  9 17  1  0  0  0  0
 10  9  2  0  0  0  0
 10 12  1  0  0  0  0
 11 10  1  0  0  0  0
 12 14  2  0  0  0  0
 13 12  1  0  0  0  0
 14 15  1  0  0  0  0
 14  5  1  0  0  0  0
 15 16  1  0  0  0  0
 17 18  1  0  0  0  0
 17 15  2  0  0  0  0
 19 25  1  0  0  0  0
 20 19  1  0  0  0  0
 20 21  1  0  0  0  0
 21 24  1  0  0  0  0
 22 21  1  0  0  0  0
 23 21  1  0  0  0  0
 25 26  1  0  0  0  0
 25  4  2  0  0  0  0
 26 27  1  0  0  0  0
 26 29  1  0  0  0  0
 28 26  1  0  0  0  0
M  CHG  1   1  -1
M  END
