5
q = -1.0

 19 19  0  0  0  0  0  0  0  0999 V2000
   -5.0449    0.3295    2.1275 O   0  0  0  0  0  0  0  0  0  0  0  0
   -4.1372    0.7573    2.2455 H   0  0  0  0  0  0  0  0  0  0  0  0
   -7.2304   -2.1548   -1.3422 O   0  0  0  0  0  0  0  0  0  0  0  0
   -2.6596    1.1108    1.6975 O   0  5  0  0  0  0  0  0  0  0  0  0
   -1.6446    0.6593   -0.2766 O   0  0  0  0  0  0  0  0  0  0  0  0
   -3.8592   -0.1217    0.0631 C   0  0  0  0  0  0  0  0  0  0  0  0
   -5.0119   -0.2135    0.9061 C   0  0  0  0  0  0  0  0  0  0  0  0
   -6.1614   -0.8961    0.4485 C   0  0  0  0  0  0  0  0  0  0  0  0
   -7.0215   -0.9406    1.1276 H   0  0  0  0  0  0  0  0  0  0  0  0
   -6.1715   -1.4824   -0.8259 C   0  0  0  0  0  0  0  0  0  0  0  0
   -5.0304   -1.3974   -1.6687 C   0  0  0  0  0  0  0  0  0  0  0  0
   -5.0730   -1.8698   -2.6595 H   0  0  0  0  0  0  0  0  0  0  0  0
   -3.9041   -0.7265   -1.2179 C   0  0  0  0  0  0  0  0  0  0  0  0
   -3.0071   -0.6469   -1.8485 H   0  0  0  0  0  0  0  0  0  0  0  0
   -2.6558    0.5869    0.5197 C   0  0  0  0  0  0  0  0  0  0  0  0
   -8.4024   -2.2788   -0.5562 C   0  0  0  0  0  0  0  0  0  0  0  0
   -8.2065   -2.8259    0.3926 H   0  0  0  0  0  0  0  0  0  0  0  0
   -9.1260   -2.8541   -1.1627 H   0  0  0  0  0  0  0  0  0  0  0  0
   -8.8411   -1.2863   -0.3106 H   0  0  0  0  0  0  0  0  0  0  0  0
  1  2  1  0  0  0  0
  3 10  1  0  0  0  0
  3 16  1  0  0  0  0
  5 15  2  0  0  0  0
  6 15  1  0  0  0  0
  6  7  1  0  0  0  0
  7  1  1  0  0  0  0
  8  7  2  0  0  0  0
  8  9  1  0  0  0  0
 10  8  1  0  0  0  0
 11 13  1  0  0  0  0
 11 10  2  0  0  0  0
 12 11  1  0  0  0  0
 13  6  2  0  0  0  0
 14 13  1  0  0  0  0
 15  4  1  0  0  0  0
 16 19  1  0  0  0  0
 16 17  1  0  0  0  0
 18 16  1  0  0  0  0
M  CHG  1   4  -1
M  END
