1
q = -1.0

 29 31  0  0  1  0  0  0  0  0999 V2000
   -0.5216   -0.0641   -0.4705 O   0  0  0  0  0  1  0  0  0  0  0  0
   -1.8407   -0.0994   -0.9729 C   0  0  1  0  0  0  0  0  0  0  0  0
   -2.5951   -1.3011   -0.3256 C   0  0  1  0  0  0  0  0  0  0  0  0
   -2.0806   -2.2361   -0.6382 H   0  0  0  0  0  0  0  0  0  0  0  0
   -2.5538   -1.1684    1.2100 C   0  0  0  0  0  0  0  0  0  0  0  0
   -3.0616   -2.0445    1.6680 H   0  0  0  0  0  0  0  0  0  0  0  0
   -1.5071   -1.1680    1.5738 H   0  0  0  0  0  0  0  0  0  0  0  0
   -3.2584    0.1341    1.6380 C   0  0  1  0  0  0  0  0  0  0  0  0
   -3.2158    0.2289    2.7436 H   0  0  0  0  0  0  0  0  0  0  0  0
   -2.5379    1.3352    0.9948 C   0  0  0  0  0  0  0  0  0  0  0  0
   -3.0331    2.2836    1.2963 H   0  0  0  0  0  0  0  0  0  0  0  0
   -1.4914    1.3813    1.3563 H   0  0  0  0  0  0  0  0  0  0  0  0
   -2.5782    1.2049   -0.5413 C   0  0  2  0  0  0  0  0  0  0  0  0
   -2.0502    2.0643   -1.0100 H   0  0  0  0  0  0  0  0  0  0  0  0
   -4.7259    0.1042    1.1706 C   0  0  0  0  0  0  0  0  0  0  0  0
   -5.2498    1.0316    1.4889 H   0  0  0  0  0  0  0  0  0  0  0  0
   -5.2618   -0.7482    1.6418 H   0  0  0  0  0  0  0  0  0  0  0  0
   -4.7735   -0.0274   -0.3643 C   0  0  1  0  0  0  0  0  0  0  0  0
   -5.8302   -0.0497   -0.7070 H   0  0  0  0  0  0  0  0  0  0  0  0
   -4.0504    1.1751   -1.0024 C   0  0  0  0  0  0  0  0  0  0  0  0
   -4.5465    2.1213   -0.6965 H   0  0  0  0  0  0  0  0  0  0  0  0
   -4.1227    1.1277   -2.1090 H   0  0  0  0  0  0  0  0  0  0  0  0
   -4.0672   -1.3306   -0.7869 C   0  0  0  0  0  0  0  0  0  0  0  0
   -4.5755   -2.2037   -0.3241 H   0  0  0  0  0  0  0  0  0  0  0  0
   -4.1410   -1.4720   -1.8854 H   0  0  0  0  0  0  0  0  0  0  0  0
   -1.7305   -0.2324   -2.4983 C   0  0  0  0  0  0  0  0  0  0  0  0
   -1.1705   -1.1538   -2.7553 H   0  0  0  0  0  0  0  0  0  0  0  0
   -2.7139   -0.2789   -3.0009 H   0  0  0  0  0  0  0  0  0  0  0  0
   -1.1769    0.6346   -2.9110 H   0  0  0  0  0  0  0  0  0  0  0  0
  2 13  1  0  0  0  0
  2  1  1  1  0  0  0
  2  3  1  0  0  0  0
  3  4  1  6  0  0  0
  3  5  1  0  0  0  0
  5  7  1  0  0  0  0
  5  8  1  0  0  0  0
  5  6  1  0  0  0  0
  8  9  1  1  0  0  0
 10 11  1  0  0  0  0
 10 12  1  0  0  0  0
 10  8  1  0  0  0  0
 13 14  1  6  0  0  0
 13 10  1  0  0  0  0
 15 16  1  0  0  0  0
 15  8  1  0  0  0  0
 15 17  1  0  0  0  0
 18 19  1  6  0  0  0
 18 15  1  0  0  0  0
 20 21  1  0  0  0  0
 20 13  1  0  0  0  0
 20 18  1  0  0  0  0
 22 20  1  0  0  0  0
 23 18  1  0  0  0  0
 23  3  1  0  0  0  0
 23 24  1  0  0  0  0
 25 23  1  0  0  0  0
 26  2  1  0  0  0  0
 27 26  1  0  0  0  0
 28 26  1  0  0  0  0
 29 26  1  0  0  0  0
M  END
