1
q = -1.0

  7  6  0  0  0  0  0  0  0  0999 V2000
    1.4897    0.0962    2.1354 O   0  0  0  0  0  1  0  0  0  0  0  0
    0.3481   -0.6109    2.3548 N   0  0  0  0  0  0  0  0  0  0  0  0
   -0.6873    0.0492    3.1586 C   0  0  0  0  0  0  0  0  0  0  0  0
   -0.3627    0.1190    4.2162 H   0  0  0  0  0  0  0  0  0  0  0  0
   -0.8617    1.0573    2.7450 H   0  0  0  0  0  0  0  0  0  0  0  0
   -1.6175   -0.5445    3.0794 H   0  0  0  0  0  0  0  0  0  0  0  0
    0.5478   -1.5770    2.6748 H   0  0  0  0  0  0  0  0  0  0  0  0
  1  2  1  0  0  0  0
  2  7  1  0  0  0  0
  2  3  1  0  0  0  0
  3  4  1  0  0  0  0
  5  3  1  0  0  0  0
  6  3  1  0  0  0  0
M  END
