1
q = -2.0, confidence = 0.788

 10  9  0  0  0  0  0  0  0  0999 V2000
   -1.9157    0.7505    0.2643 O   0  5  0  0  0  0  0  0  0  0  0  0
   -2.5186    0.3551    2.4245 O   0  0  0  0  0  0  0  0  0  0  0  0
   -3.3800    0.7124   -2.4690 O   0  5  0  0  0  0  0  0  0  0  0  0
   -3.1405   -1.2925   -1.4479 O   0  0  0  0  0  0  0  0  0  0  0  0
   -2.7898    0.6116    1.2334 C   0  0  0  0  0  0  0  0  0  0  0  0
   -4.1953    0.7586    0.7731 C   0  0  0  0  0  0  0  0  0  0  0  0
   -4.9319    1.0676    1.5317 H   0  0  0  0  0  0  0  0  0  0  0  0
   -4.5719    0.3684   -0.4713 C   0  0  0  0  0  0  0  0  0  0  0  0
   -5.6394    0.4112   -0.7515 H   0  0  0  0  0  0  0  0  0  0  0  0
   -3.6176   -0.0933   -1.5531 C   0  0  0  0  0  0  0  0  0  0  0  0
  1  5  1  0  0  0  0
  3 10  1  0  0  0  0
  5  2  2  0  0  0  0
  6  5  1  0  0  0  0
  6  7  1  0  0  0  0
  8  6  2  0  0  0  0
  9  8  1  0  0  0  0
 10  4  2  0  0  0  0
 10  8  1  0  0  0  0
M  CHG  2   1  -1   3  -1
M  END
