1
q = -1.0

 22 22  0  0  0  0  0  0  0  0999 V2000
    0.9051   -0.1190    0.5372 O   0  5  0  0  0  0  0  0  0  0  0  0
    2.0782   -0.8115    2.4770 C   0  0  0  0  0  0  0  0  0  0  0  0
    2.0336   -0.4575    1.1641 C   0  0  0  0  0  0  0  0  0  0  0  0
    3.2647   -0.3586    0.2738 C   0  0  0  0  0  0  0  0  0  0  0  0
    3.6106    1.1144   -0.0341 C   0  0  0  0  0  0  0  0  0  0  0  0
    4.7738    1.2270   -1.0262 C   0  0  0  0  0  0  0  0  0  0  0  0
    6.0089    0.4607   -0.5359 C   0  0  0  0  0  0  0  0  0  0  0  0
    5.6671   -0.9994   -0.2103 C   0  0  0  0  0  0  0  0  0  0  0  0
    4.5066   -1.0986    0.7894 C   0  0  0  0  0  0  0  0  0  0  0  0
    1.1665   -0.8241    3.0877 H   0  0  0  0  0  0  0  0  0  0  0  0
    3.0297   -1.0634    2.9602 H   0  0  0  0  0  0  0  0  0  0  0  0
    2.9720   -0.8301   -0.6927 H   0  0  0  0  0  0  0  0  0  0  0  0
    3.8800    1.6158    0.9227 H   0  0  0  0  0  0  0  0  0  0  0  0
    2.7120    1.6297   -0.4253 H   0  0  0  0  0  0  0  0  0  0  0  0
    5.0227    2.2943   -1.2057 H   0  0  0  0  0  0  0  0  0  0  0  0
    4.4503    0.8140   -2.0085 H   0  0  0  0  0  0  0  0  0  0  0  0
    6.4008    0.9541    0.3824 H   0  0  0  0  0  0  0  0  0  0  0  0
    6.8236    0.5107   -1.2889 H   0  0  0  0  0  0  0  0  0  0  0  0
    6.5599   -1.5276    0.1859 H   0  0  0  0  0  0  0  0  0  0  0  0
    5.3845   -1.5265   -1.1496 H   0  0  0  0  0  0  0  0  0  0  0  0
    4.2573   -2.1599    0.9987 H   0  0  0  0  0  0  0  0  0  0  0  0
    4.8239   -0.6512    1.7576 H   0  0  0  0  0  0  0  0  0  0  0  0
  1  3  1  0  0  0  0
  2 11  1  0  0  0  0
  2 10  1  0  0  0  0
  3  2  2  0  0  0  0
  4  9  1  0  0  0  0
  4  3  1  0  0  0  0
  5  4  1  0  0  0  0
  5 13  1  0  0  0  0
  6  7  1  0  0  0  0
  6  5  1  0  0  0  0
  7  8  1  0  0  0  0
  7 17  1  0  0  0  0
  8 19  1  0  0  0  0
  8  9  1  0  0  0  0
  9 21  1  0  0  0  0
  9 22  1  0  0  0  0
 12  4  1  0  0  0  0
 14  5  1  0  0  0  0
 15  6  1  0  0  0  0
 16  6  1  0  0  0  0
 18  7  1  0  0  0  0
 20  8  1  0  0  0  0
M  CHG  1   1  -1
M  END
