2
q = -1.0

 44 46  0  0  0  0  0  0  0  0999 V2000
   -0.2625   -1.7457   -1.0018 Si  0  0  0  0  0  0  0  0  0  0  0  0
   -0.0742   -0.0719   -0.7548 O   0  0  0  0  0  1  0  0  0  0  0  0
    1.1869   -2.3856   -2.0724 C   0  0  0  0  0  0  0  0  0  0  0  0
   -0.2241   -2.6177    0.6849 C   0  0  0  0  0  0  0  0  0  0  0  0
   -1.9001   -2.0244   -1.9472 C   0  0  0  0  0  0  0  0  0  0  0  0
    3.3120   -2.2806   -0.6765 C   0  0  0  0  0  0  0  0  0  0  0  0
    4.2851   -2.8966    0.1247 C   0  0  0  0  0  0  0  0  0  0  0  0
    4.2569   -4.2828    0.3433 C   0  0  0  0  0  0  0  0  0  0  0  0
    3.2462   -5.0526   -0.2541 C   0  0  0  0  0  0  0  0  0  0  0  0
    2.2718   -4.4370   -1.0533 C   0  0  0  0  0  0  0  0  0  0  0  0
    2.2847   -3.0423   -1.2751 C   0  0  0  0  0  0  0  0  0  0  0  0
   -2.4792   -3.3259    1.6090 C   0  0  0  0  0  0  0  0  0  0  0  0
   -3.6375   -3.0766    2.3619 C   0  0  0  0  0  0  0  0  0  0  0  0
   -3.7776   -1.8676    3.0617 C   0  0  0  0  0  0  0  0  0  0  0  0
   -2.7389   -0.9228    3.0147 C   0  0  0  0  0  0  0  0  0  0  0  0
   -1.5806   -1.1748    2.2669 C   0  0  0  0  0  0  0  0  0  0  0  0
   -1.4352   -2.3775    1.5395 C   0  0  0  0  0  0  0  0  0  0  0  0
   -3.0874    0.0539   -2.7747 C   0  0  0  0  0  0  0  0  0  0  0  0
   -4.0766    1.0431   -2.6640 C   0  0  0  0  0  0  0  0  0  0  0  0
   -4.9746    1.0267   -1.5851 C   0  0  0  0  0  0  0  0  0  0  0  0
   -4.8692    0.0111   -0.6213 C   0  0  0  0  0  0  0  0  0  0  0  0
   -3.8779   -0.9746   -0.7318 C   0  0  0  0  0  0  0  0  0  0  0  0
   -2.9704   -0.9733   -1.8132 C   0  0  0  0  0  0  0  0  0  0  0  0
    1.5680   -1.5152   -2.6479 H   0  0  0  0  0  0  0  0  0  0  0  0
    0.7594   -3.0995   -2.8083 H   0  0  0  0  0  0  0  0  0  0  0  0
    0.7047   -2.2644    1.1823 H   0  0  0  0  0  0  0  0  0  0  0  0
   -0.0779   -3.6992    0.4803 H   0  0  0  0  0  0  0  0  0  0  0  0
   -2.2759   -3.0129   -1.6040 H   0  0  0  0  0  0  0  0  0  0  0  0
   -1.6227   -2.1465   -3.0155 H   0  0  0  0  0  0  0  0  0  0  0  0
    3.3468   -1.1916   -0.8372 H   0  0  0  0  0  0  0  0  0  0  0  0
    5.0732   -2.2805    0.5841 H   0  0  0  0  0  0  0  0  0  0  0  0
    5.0208   -4.7628    0.9735 H   0  0  0  0  0  0  0  0  0  0  0  0
    3.2165   -6.1423   -0.0991 H   0  0  0  0  0  0  0  0  0  0  0  0
    1.4836   -5.0502   -1.5206 H   0  0  0  0  0  0  0  0  0  0  0  0
   -2.3778   -4.2779    1.0633 H   0  0  0  0  0  0  0  0  0  0  0  0
   -4.4362   -3.8332    2.4013 H   0  0  0  0  0  0  0  0  0  0  0  0
   -4.6851   -1.6687    3.6516 H   0  0  0  0  0  0  0  0  0  0  0  0
   -2.8292    0.0202    3.5767 H   0  0  0  0  0  0  0  0  0  0  0  0
   -0.7589   -0.4425    2.2519 H   0  0  0  0  0  0  0  0  0  0  0  0
   -2.3952    0.0682   -3.6320 H   0  0  0  0  0  0  0  0  0  0  0  0
   -4.1480    1.8302   -3.4306 H   0  0  0  0  0  0  0  0  0  0  0  0
   -5.7536    1.7993   -1.4983 H   0  0  0  0  0  0  0  0  0  0  0  0
   -5.5621   -0.0165    0.2337 H   0  0  0  0  0  0  0  0  0  0  0  0
   -3.8033   -1.7560    0.0380 H   0  0  0  0  0  0  0  0  0  0  0  0
  1  2  1  0  0  0  0
  1  4  1  0  0  0  0
  3 11  1  0  0  0  0
  3  1  1  0  0  0  0
  4 26  1  0  0  0  0
  4 17  1  0  0  0  0
  5 23  1  0  0  0  0
  5 28  1  0  0  0  0
  5  1  1  0  0  0  0
  6  7  1  0  0  0  0
  7  8  2  0  0  0  0
  7 31  1  0  0  0  0
  8 32  1  0  0  0  0
  9 33  1  0  0  0  0
  9  8  1  0  0  0  0
 10  9  2  0  0  0  0
 11 10  1  0  0  0  0
 11  6  2  0  0  0  0
 12 13  1  0  0  0  0
 13 36  1  0  0  0  0
 13 14  2  0  0  0  0
 14 37  1  0  0  0  0
 15 14  1  0  0  0  0
 15 38  1  0  0  0  0
 16 15  2  0  0  0  0
 17 12  2  0  0  0  0
 17 16  1  0  0  0  0
 18 19  2  0  0  0  0
 18 23  1  0  0  0  0
 19 20  1  0  0  0  0
 20 42  1  0  0  0  0
 20 21  2  0  0  0  0
 21 43  1  0  0  0  0
 22 21  1  0  0  0  0
 22 44  1  0  0  0  0
 23 22  2  0  0  0  0
 24  3  1  0  0  0  0
 25  3  1  0  0  0  0
 27  4  1  0  0  0  0
 29  5  1  0  0  0  0
 30  6  1  0  0  0  0
 34 10  1  0  0  0  0
 35 12  1  0  0  0  0
 39 16  1  0  0  0  0
 40 18  1  0  0  0  0
 41 19  1  0  0  0  0
M  END
