3
q = -1.0, confidence = 0.0

 21 21  0  0  0  0  0  0  0  0999 V2000
   -4.1845    2.8811   -0.7223 S   0  0  0  0  0  0  0  0  0  0  0  0
   -1.1659    2.6724    0.4465 O   0  5  0  0  0  0  0  0  0  0  0  0
   -0.8837    1.2721   -1.3046 O   0  0  0  0  0  0  0  0  0  0  0  0
   -4.5762    1.1491   -0.7076 C   0  0  0  0  0  0  0  0  0  0  0  0
   -3.8206    0.1414   -1.3443 C   0  0  0  0  0  0  0  0  0  0  0  0
   -2.9023    0.3879   -1.8940 H   0  0  0  0  0  0  0  0  0  0  0  0
   -4.2013   -1.2015   -1.2219 C   0  0  0  0  0  0  0  0  0  0  0  0
   -3.5806   -1.9697   -1.7113 H   0  0  0  0  0  0  0  0  0  0  0  0
   -5.3344   -1.5917   -0.4818 C   0  0  0  0  0  0  0  0  0  0  0  0
   -6.0986   -0.5704    0.1202 C   0  0  0  0  0  0  0  0  0  0  0  0
   -7.0019   -0.8366    0.6932 H   0  0  0  0  0  0  0  0  0  0  0  0
   -5.7322    0.7762    0.0142 C   0  0  0  0  0  0  0  0  0  0  0  0
   -6.3398    1.5507    0.5084 H   0  0  0  0  0  0  0  0  0  0  0  0
   -5.6920   -3.0475   -0.3179 C   0  0  0  0  0  0  0  0  0  0  0  0
   -6.7077   -3.1766    0.1049 H   0  0  0  0  0  0  0  0  0  0  0  0
   -4.9794   -3.5632    0.3635 H   0  0  0  0  0  0  0  0  0  0  0  0
   -5.6528   -3.5917   -1.2836 H   0  0  0  0  0  0  0  0  0  0  0  0
   -2.5429    2.9676   -1.5184 C   0  0  0  0  0  0  0  0  0  0  0  0
   -2.5882    2.5776   -2.5534 H   0  0  0  0  0  0  0  0  0  0  0  0
   -2.3451    4.0577   -1.5512 H   0  0  0  0  0  0  0  0  0  0  0  0
   -1.4348    2.2763   -0.7024 C   0  0  0  0  0  0  0  0  0  0  0  0
  1  4  1  0  0  0  0
  3 21  2  0  0  0  0
  4 12  1  0  0  0  0
  5  7  1  0  0  0  0
  5  4  2  0  0  0  0
  6  5  1  0  0  0  0
  7  9  2  0  0  0  0
  8  7  1  0  0  0  0
  9 14  1  0  0  0  0
  9 10  1  0  0  0  0
 10 11  1  0  0  0  0
 12 10  2  0  0  0  0
 12 13  1  0  0  0  0
 14 15  1  0  0  0  0
 14 16  1  0  0  0  0
 17 14  1  0  0  0  0
 18  1  1  0  0  0  0
 18 21  1  0  0  0  0
 19 18  1  0  0  0  0
 20 18  1  0  0  0  0
 21  2  1  0  0  0  0
M  CHG  1   2  -1
M  END
