1
q = -1.0, confidence = 0.05

  9  8  0  0  0  0  0  0  0  0999 V2000
   -0.0032    1.8876   -0.6920 O   0  5  0  0  0  0  0  0  0  0  0  0
    0.7370    2.8749   -0.2747 C   0  0  0  0  0  0  0  0  0  0  0  0
    1.1323    3.0614    0.8785 O   0  0  0  0  0  0  0  0  0  0  0  0
    1.1087    3.8673   -1.4251 C   0  0  0  0  0  0  0  0  0  0  0  0
    0.8920    3.5697   -2.5848 O   0  0  0  0  0  0  0  0  0  0  0  0
    1.7604    5.1411   -0.9689 C   0  0  0  0  0  0  0  0  0  0  0  0
    2.6798    4.8932   -0.3997 H   0  0  0  0  0  0  0  0  0  0  0  0
    1.1009    5.6744   -0.2535 H   0  0  0  0  0  0  0  0  0  0  0  0
    1.9946    5.7831   -1.8360 H   0  0  0  0  0  0  0  0  0  0  0  0
  1  2  1  0  0  0  0
  2  3  2  0  0  0  0
  4  6  1  0  0  0  0
  4  2  1  0  0  0  0
  5  4  2  0  0  0  0
  6  7  1  0  0  0  0
  6  8  1  0  0  0  0
  9  6  1  0  0  0  0
M  CHG  1   1  -1
M  END
