2
q = -1.0, confidence = 0.014

 28 29  0  0  0  0  0  0  0  0999 V2000
    1.0863    1.9311    0.5394 O   0  0  0  0  0  0  0  0  0  0  0  0
   -0.1924   -0.2948   -0.3311 O   0  5  0  0  0  0  0  0  0  0  0  0
   -6.8543   -1.3234    0.6545 O   0  0  0  0  0  0  0  0  0  0  0  0
   -0.8593    3.1479    0.4149 N   0  0  0  0  0  0  0  0  0  0  0  0
   -0.3068    3.9572    0.7121 H   0  0  0  0  0  0  0  0  0  0  0  0
   -4.4298   -0.3010   -0.4488 N   0  0  0  0  0  0  0  0  0  0  0  0
   -0.1628    1.9825    0.2638 C   0  0  0  0  0  0  0  0  0  0  0  0
   -0.8873    0.8047   -0.1892 C   0  0  0  0  0  0  0  0  0  0  0  0
   -2.2739    0.9102   -0.4138 C   0  0  0  0  0  0  0  0  0  0  0  0
   -2.9185    2.1674   -0.2374 C   0  0  0  0  0  0  0  0  0  0  0  0
   -3.9987    2.2304   -0.4299 H   0  0  0  0  0  0  0  0  0  0  0  0
   -2.2124    3.2762    0.1728 C   0  0  0  0  0  0  0  0  0  0  0  0
   -2.6433    4.2743    0.3175 H   0  0  0  0  0  0  0  0  0  0  0  0
   -3.0400   -0.3025   -0.8842 C   0  0  0  0  0  0  0  0  0  0  0  0
   -3.0301   -0.3242   -1.9979 H   0  0  0  0  0  0  0  0  0  0  0  0
   -2.4864   -1.2224   -0.5624 H   0  0  0  0  0  0  0  0  0  0  0  0
   -4.5718   -0.5348    0.9845 C   0  0  0  0  0  0  0  0  0  0  0  0
   -3.9694    0.2155    1.5381 H   0  0  0  0  0  0  0  0  0  0  0  0
   -4.1869   -1.5513    1.2713 H   0  0  0  0  0  0  0  0  0  0  0  0
   -6.0395   -0.4246    1.3896 C   0  0  0  0  0  0  0  0  0  0  0  0
   -6.1682   -0.6772    2.4614 H   0  0  0  0  0  0  0  0  0  0  0  0
   -6.3828    0.6288    1.2310 H   0  0  0  0  0  0  0  0  0  0  0  0
   -6.7250   -1.0864   -0.7378 C   0  0  0  0  0  0  0  0  0  0  0  0
   -7.0912   -0.0600   -0.9926 H   0  0  0  0  0  0  0  0  0  0  0  0
   -7.3686   -1.8280   -1.2525 H   0  0  0  0  0  0  0  0  0  0  0  0
   -5.2747   -1.2197   -1.2001 C   0  0  0  0  0  0  0  0  0  0  0  0
   -4.9493   -2.2881   -1.0709 H   0  0  0  0  0  0  0  0  0  0  0  0
   -5.2028   -0.9803   -2.2824 H   0  0  0  0  0  0  0  0  0  0  0  0
  2  8  1  0  0  0  0
  3 20  1  0  0  0  0
  4  5  1  0  0  0  0
  6 17  1  0  0  0  0
  7  4  1  0  0  0  0
  7  1  2  0  0  0  0
  8  7  1  0  0  0  0
  9 10  1  0  0  0  0
  9  8  2  0  0  0  0
 10 12  2  0  0  0  0
 11 10  1  0  0  0  0
 12 13  1  0  0  0  0
 12  4  1  0  0  0  0
 14 16  1  0  0  0  0
 14  6  1  0  0  0  0
 14  9  1  0  0  0  0
 15 14  1  0  0  0  0
 17 19  1  0  0  0  0
 17 20  1  0  0  0  0
 17 18  1  0  0  0  0
 20 21  1  0  0  0  0
 22 20  1  0  0  0  0
 23  3  1  0  0  0  0
 24 23  1  0  0  0  0
 25 23  1  0  0  0  0
 26 27  1  0  0  0  0
 26 23  1  0  0  0  0
 26  6  1  0  0  0  0
 28 26  1  0  0  0  0
M  CHG  1   2  -1
M  END
