13
q = -1.0

 14 14  0  0  0  0  0  0  0  0999 V2000
   -1.0943    0.2066   -2.0896 C   0  0  0  0  0  0  0  0  0  0  0  0
   -2.4885   -0.1719   -1.6295 C   0  0  0  0  0  0  0  0  0  0  0  0
   -2.7385   -1.3889   -0.9487 C   0  0  0  0  0  0  0  0  0  0  0  0
   -3.9500   -1.6321   -0.2842 C   0  0  0  0  0  0  0  0  0  0  0  0
   -4.9652   -0.6639   -0.2980 C   0  0  0  0  0  0  0  0  0  0  0  0
   -4.7588    0.5425   -0.9833 C   0  0  0  0  0  0  0  0  0  0  0  0
   -3.5416    0.7740   -1.6481 C   0  0  0  0  0  0  0  0  0  0  0  0
   -1.8210   -2.3561   -0.8598 F   0  0  0  0  0  0  0  0  0  0  0  0
   -4.1181   -2.7616    0.4111 F   0  0  0  0  0  0  0  0  0  0  0  0
   -6.0954   -0.8703    0.3737 F   0  0  0  0  0  0  0  0  0  0  0  0
   -5.7013    1.4879   -0.9613 F   0  0  0  0  0  0  0  0  0  0  0  0
   -3.4063    1.9694   -2.2188 F   0  0  0  0  0  0  0  0  0  0  0  0
   -0.1416   -0.5192   -1.6329 O   0  5  0  0  0  0  0  0  0  0  0  0
   -0.9456    1.2588   -2.7623 O   0  0  0  0  0  0  0  0  0  0  0  0
  1 13  1  0  0  0  0
  1  2  1  0  0  0  0
  2  3  1  0  0  0  0
  3  8  1  0  0  0  0
  3  4  2  0  0  0  0
  4  9  1  0  0  0  0
  5  4  1  0  0  0  0
  5 10  1  0  0  0  0
  6 11  1  0  0  0  0
  6  5  2  0  0  0  0
  7  2  2  0  0  0  0
  7  6  1  0  0  0  0
 12  7  1  0  0  0  0
 14  1  2  0  0  0  0
M  CHG  1  13  -1
M  END
