1
q = -1.0

 12 11  0  0  0  0  0  0  0  0999 V2000
   -1.6562   -1.6219   -1.0772 O   0  0  0  0  0  1  0  0  0  0  0  0
   -1.1934   -0.4945    1.5391 O   0  0  0  0  0  0  0  0  0  0  0  0
   -2.9029   -1.9398   -0.5194 C   0  0  0  0  0  0  0  0  0  0  0  0
   -2.8477   -2.2415    0.9819 C   0  0  0  0  0  0  0  0  0  0  0  0
   -2.4828   -1.0375    1.8452 C   0  0  0  0  0  0  0  0  0  0  0  0
   -0.4993   -1.1667    1.6990 H   0  0  0  0  0  0  0  0  0  0  0  0
   -3.3114   -2.8193   -1.0664 H   0  0  0  0  0  0  0  0  0  0  0  0
   -3.5868   -1.0741   -0.7013 H   0  0  0  0  0  0  0  0  0  0  0  0
   -3.8441   -2.6149    1.3032 H   0  0  0  0  0  0  0  0  0  0  0  0
   -2.1297   -3.0729    1.1625 H   0  0  0  0  0  0  0  0  0  0  0  0
   -3.1976   -0.2075    1.6686 H   0  0  0  0  0  0  0  0  0  0  0  0
   -2.5368   -1.3000    2.9261 H   0  0  0  0  0  0  0  0  0  0  0  0
  1  3  1  0  0  0  0
  2  6  1  0  0  0  0
  2  5  1  0  0  0  0
  3  4  1  0  0  0  0
  4 10  1  0  0  0  0
  4  9  1  0  0  0  0
  4  5  1  0  0  0  0
  5 12  1  0  0  0  0
  7  3  1  0  0  0  0
  8  3  1  0  0  0  0
 11  5  1  0  0  0  0
M  END
