2
q = -1.0

 13 12  0  0  0  0  0  0  0  0999 V2000
   -0.2794    1.1543    1.7438 O   0  0  0  0  0  0  0  0  0  0  0  0
   -0.2814    2.3060   -0.6779 O   0  0  0  0  0  1  0  0  0  0  0  0
   -1.0290    4.8887   -0.0243 O   0  0  0  0  0  0  0  0  0  0  0  0
   -0.1814    2.5792    1.6953 C   0  0  0  0  0  0  0  0  0  0  0  0
    0.4262    2.9808    0.3463 C   0  0  0  0  0  0  0  0  0  0  0  0
    0.3204    4.4838    0.0679 C   0  0  0  0  0  0  0  0  0  0  0  0
   -1.2250    0.9129    1.8141 H   0  0  0  0  0  0  0  0  0  0  0  0
   -1.4282    4.2793   -0.6784 H   0  0  0  0  0  0  0  0  0  0  0  0
    0.4592    2.9425    2.5282 H   0  0  0  0  0  0  0  0  0  0  0  0
   -1.1774    3.0623    1.7815 H   0  0  0  0  0  0  0  0  0  0  0  0
    1.4923    2.6495    0.3102 H   0  0  0  0  0  0  0  0  0  0  0  0
    0.7899    5.0554    0.8969 H   0  0  0  0  0  0  0  0  0  0  0  0
    0.8963    4.7094   -0.8621 H   0  0  0  0  0  0  0  0  0  0  0  0
  1  7  1  0  0  0  0
  2  5  1  0  0  0  0
  3  6  1  0  0  0  0
  4  1  1  0  0  0  0
  4 10  1  0  0  0  0
  4  9  1  0  0  0  0
  5  4  1  0  0  0  0
  6  5  1  0  0  0  0
  6 12  1  0  0  0  0
  8  3  1  0  0  0  0
 11  5  1  0  0  0  0
 13  6  1  0  0  0  0
M  END
