1
q = -1.0

 51 53  0  0  0  0  0  0  0  0999 V2000
    0.5321   -1.1300   -0.5203 O   0  5  0  0  0  0  0  0  0  0  0  0
   -0.7559   -0.7297   -0.4293 C   0  0  0  0  0  0  0  0  0  0  0  0
   -1.0488    0.6552   -0.5798 C   0  0  0  0  0  0  0  0  0  0  0  0
   -2.3726    1.1043   -0.3991 C   0  0  0  0  0  0  0  0  0  0  0  0
   -3.4190    0.2173   -0.1151 C   0  0  0  0  0  0  0  0  0  0  0  0
   -3.0980   -1.1541   -0.0327 C   0  0  0  0  0  0  0  0  0  0  0  0
   -1.8011   -1.6727   -0.1829 C   0  0  0  0  0  0  0  0  0  0  0  0
   -0.0046    1.6362   -0.9371 C   0  0  0  0  0  0  0  0  0  0  0  0
    0.8387    1.5894   -2.0135 C   0  0  0  0  0  0  0  0  0  0  0  0
    1.7452    2.7876   -2.0459 C   0  0  0  0  0  0  0  0  0  0  0  0
    1.3288    3.5699   -0.8248 C   0  0  0  0  0  0  0  0  0  0  0  0
    1.8245    4.7618   -0.2896 C   0  0  0  0  0  0  0  0  0  0  0  0
    1.2590    5.2628    0.8996 C   0  0  0  0  0  0  0  0  0  0  0  0
    0.2139    4.5736    1.5409 C   0  0  0  0  0  0  0  0  0  0  0  0
   -0.2895    3.3735    1.0097 C   0  0  0  0  0  0  0  0  0  0  0  0
    0.2705    2.8736   -0.1784 C   0  0  0  0  0  0  0  0  0  0  0  0
   -4.8727    0.6762    0.0889 C   0  0  0  0  0  0  0  0  0  0  0  0
   -5.0177    2.2028   -0.0325 C   0  0  0  0  0  0  0  0  0  0  0  0
   -5.7727    0.0124   -0.9781 C   0  0  0  0  0  0  0  0  0  0  0  0
   -5.3440    0.2516    1.4986 C   0  0  0  0  0  0  0  0  0  0  0  0
   -1.5415   -3.1897   -0.0786 C   0  0  0  0  0  0  0  0  0  0  0  0
   -0.7216   -3.4890    1.1971 C   0  0  0  0  0  0  0  0  0  0  0  0
   -0.7899   -3.6924   -1.3337 C   0  0  0  0  0  0  0  0  0  0  0  0
   -2.8570   -3.9869    0.0197 C   0  0  0  0  0  0  0  0  0  0  0  0
   -2.5628    2.1791   -0.5180 H   0  0  0  0  0  0  0  0  0  0  0  0
   -3.9133   -1.8611    0.1642 H   0  0  0  0  0  0  0  0  0  0  0  0
    0.8686    0.7856   -2.7595 H   0  0  0  0  0  0  0  0  0  0  0  0
    2.6465    5.3021   -0.7849 H   0  0  0  0  0  0  0  0  0  0  0  0
    1.6401    6.2001    1.3323 H   0  0  0  0  0  0  0  0  0  0  0  0
   -0.2130    4.9780    2.4714 H   0  0  0  0  0  0  0  0  0  0  0  0
   -1.1042    2.8333    1.5162 H   0  0  0  0  0  0  0  0  0  0  0  0
    2.8143    2.4767   -2.0101 H   0  0  0  0  0  0  0  0  0  0  0  0
    1.6337    3.3749   -2.9854 H   0  0  0  0  0  0  0  0  0  0  0  0
   -4.4030    2.7368    0.7201 H   0  0  0  0  0  0  0  0  0  0  0  0
   -6.0745    2.4946    0.1318 H   0  0  0  0  0  0  0  0  0  0  0  0
   -4.7240    2.5667   -1.0375 H   0  0  0  0  0  0  0  0  0  0  0  0
   -5.4533    0.3012   -1.9998 H   0  0  0  0  0  0  0  0  0  0  0  0
   -6.8287    0.3262   -0.8444 H   0  0  0  0  0  0  0  0  0  0  0  0
   -5.7399   -1.0935   -0.9145 H   0  0  0  0  0  0  0  0  0  0  0  0
   -5.2959   -0.8470    1.6356 H   0  0  0  0  0  0  0  0  0  0  0  0
   -6.3947    0.5662    1.6675 H   0  0  0  0  0  0  0  0  0  0  0  0
   -4.7142    0.7174    2.2834 H   0  0  0  0  0  0  0  0  0  0  0  0
    0.2790   -3.0257    1.1588 H   0  0  0  0  0  0  0  0  0  0  0  0
   -0.5678   -4.5825    1.3042 H   0  0  0  0  0  0  0  0  0  0  0  0
   -1.2541   -3.1250    2.0996 H   0  0  0  0  0  0  0  0  0  0  0  0
   -1.3761   -3.4776   -2.2502 H   0  0  0  0  0  0  0  0  0  0  0  0
   -0.6452   -4.7902   -1.2693 H   0  0  0  0  0  0  0  0  0  0  0  0
    0.2074   -3.2300   -1.4377 H   0  0  0  0  0  0  0  0  0  0  0  0
   -3.4295   -3.7469    0.9383 H   0  0  0  0  0  0  0  0  0  0  0  0
   -2.6221   -5.0694    0.0536 H   0  0  0  0  0  0  0  0  0  0  0  0
   -3.5143   -3.8146   -0.8564 H   0  0  0  0  0  0  0  0  0  0  0  0
  1  2  1  0  0  0  0
  2  7  1  0  0  0  0
  3  2  2  0  0  0  0
  3  4  1  0  0  0  0
  4  5  2  0  0  0  0
  5  6  1  0  0  0  0
  5 17  1  0  0  0  0
  6 26  1  0  0  0  0
  7 21  1  0  0  0  0
  7  6  2  0  0  0  0
  8  3  1  0  0  0  0
  8 16  1  0  0  0  0
  9  8  2  0  0  0  0
 10  9  1  0  0  0  0
 10 32  1  0  0  0  0
 10 11  1  0  0  0  0
 11 12  2  0  0  0  0
 11 16  1  0  0  0  0
 12 13  1  0  0  0  0
 13 29  1  0  0  0  0
 13 14  2  0  0  0  0
 14 30  1  0  0  0  0
 15 31  1  0  0  0  0
 15 14  1  0  0  0  0
 16 15  2  0  0  0  0
 17 20  1  0  0  0  0
 18 17  1  0  0  0  0
 18 35  1  0  0  0  0
 18 34  1  0  0  0  0
 19 39  1  0  0  0  0
 19 38  1  0  0  0  0
 19 17  1  0  0  0  0
 20 40  1  0  0  0  0
 20 41  1  0  0  0  0
 20 42  1  0  0  0  0
 21 24  1  0  0  0  0
 21 22  1  0  0  0  0
 22 44  1  0  0  0  0
 22 45  1  0  0  0  0
 23 47  1  0  0  0  0
 23 21  1  0  0  0  0
 24 50  1  0  0  0  0
 24 49  1  0  0  0  0
 25  4  1  0  0  0  0
 27  9  1  0  0  0  0
 28 12  1  0  0  0  0
 33 10  1  0  0  0  0
 36 18  1  0  0  0  0
 37 19  1  0  0  0  0
 43 22  1  0  0  0  0
 46 23  1  0  0  0  0
 48 23  1  0  0  0  0
 51 24  1  0  0  0  0
M  CHG  1   1  -1
M  END
