3
q = -1.0, confidence = 0.002

 28 29  0  0  0  0  0  0  0  0999 V2000
    9.9772   -2.7687    0.8104 F   0  0  0  0  0  0  0  0  0  0  0  0
    7.8877   -3.1880    0.3220 F   0  0  0  0  0  0  0  0  0  0  0  0
    1.4759    1.3610   -0.4831 O   0  5  0  0  0  0  0  0  0  0  0  0
    9.3273   -2.7960   -1.2682 F   0  0  0  0  0  0  0  0  0  0  0  0
    3.3072    0.0539   -0.3256 O   0  0  0  0  0  0  0  0  0  0  0  0
    5.7376    3.5579   -0.0246 N   0  0  0  0  0  0  0  0  0  0  0  0
    5.6729    1.2085   -0.1168 N   0  0  0  0  0  0  0  0  0  0  0  0
    7.3285   -0.5085   -0.0340 C   0  0  0  0  0  0  0  0  0  0  0  0
    6.5151   -1.2453   -0.1090 H   0  0  0  0  0  0  0  0  0  0  0  0
    3.5823    2.4308   -0.2373 C   0  0  0  0  0  0  0  0  0  0  0  0
    3.6997    4.8616   -0.1168 C   0  0  0  0  0  0  0  0  0  0  0  0
    3.2241    5.8522   -0.1060 H   0  0  0  0  0  0  0  0  0  0  0  0
    7.0236    0.8749   -0.0227 C   0  0  0  0  0  0  0  0  0  0  0  0
    2.9508    3.6850   -0.2260 C   0  0  0  0  0  0  0  0  0  0  0  0
    1.8541    3.7023   -0.3038 H   0  0  0  0  0  0  0  0  0  0  0  0
    2.7428    1.1987   -0.3547 C   0  0  0  0  0  0  0  0  0  0  0  0
    5.0235    2.4150   -0.1242 C   0  0  0  0  0  0  0  0  0  0  0  0
    8.6526   -0.9489    0.0588 C   0  0  0  0  0  0  0  0  0  0  0  0
    9.7087   -0.0253    0.1689 C   0  0  0  0  0  0  0  0  0  0  0  0
   10.7458   -0.3788    0.2524 H   0  0  0  0  0  0  0  0  0  0  0  0
    5.0945    4.7284   -0.0228 C   0  0  0  0  0  0  0  0  0  0  0  0
    5.7331    5.6268    0.0607 H   0  0  0  0  0  0  0  0  0  0  0  0
    8.0862    1.8041    0.0840 C   0  0  0  0  0  0  0  0  0  0  0  0
    7.8454    2.8730    0.0943 H   0  0  0  0  0  0  0  0  0  0  0  0
    9.4063    1.3426    0.1787 C   0  0  0  0  0  0  0  0  0  0  0  0
   10.2206    2.0779    0.2664 H   0  0  0  0  0  0  0  0  0  0  0  0
    8.9579   -2.4249   -0.0146 C   0  0  0  0  0  0  0  0  0  0  0  0
    4.9963    0.4232   -0.1895 H   0  0  0  0  0  0  0  0  0  0  0  0
  3 16  1  0  0  0  0
  4 27  1  0  0  0  0
  6 21  1  0  0  0  0
  7 13  1  0  0  0  0
  8 13  2  0  0  0  0
  8 18  1  0  0  0  0
  9  8  1  0  0  0  0
 10 14  2  0  0  0  0
 10 17  1  0  0  0  0
 11 12  1  0  0  0  0
 11 21  2  0  0  0  0
 13 23  1  0  0  0  0
 14 11  1  0  0  0  0
 15 14  1  0  0  0  0
 16  5  2  0  0  0  0
 16 10  1  0  0  0  0
 17  7  1  0  0  0  0
 17  6  2  0  0  0  0
 18 19  2  0  0  0  0
 19 25  1  0  0  0  0
 19 20  1  0  0  0  0
 21 22  1  0  0  0  0
 23 24  1  0  0  0  0
 23 25  2  0  0  0  0
 25 26  1  0  0  0  0
 27 18  1  0  0  0  0
 27  2  1  0  0  0  0
 27  1  1  0  0  0  0
 28  7  1  0  0  0  0
M  CHG  1   3  -1
M  END
