2
q = -1.0, confidence = 0.0

 37 39  0  0  1  0  0  0  0  0999 V2000
    1.0394    0.2930   -0.0373 P   0  0  0  0  0  0  0  0  0  0  0  0
   -1.5253    0.9703   -1.6268 O   0  0  0  0  0  1  0  0  0  0  0  0
   -0.9922    2.0824   -1.9927 C   0  0  2  0  0  3  0  0  0  0  0  0
   -1.9571    2.9795   -2.7388 C   0  0  0  0  0  0  0  0  0  0  0  0
   -2.2574    2.4870   -3.6867 H   0  0  0  0  0  0  0  0  0  0  0  0
   -1.5425    3.9764   -2.9647 H   0  0  0  0  0  0  0  0  0  0  0  0
   -2.8792    3.0992   -2.1346 H   0  0  0  0  0  0  0  0  0  0  0  0
    0.3431    2.4833   -1.7562 C   0  0  0  0  0  0  0  0  0  0  0  0
    0.9751    3.6936   -2.2261 C   0  0  0  0  0  0  0  0  0  0  0  0
    0.5050    4.4533   -2.8633 H   0  0  0  0  0  0  0  0  0  0  0  0
    2.2932    3.7142   -1.7711 C   0  0  0  0  0  0  0  0  0  0  0  0
    3.0368    4.4945   -1.9818 H   0  0  0  0  0  0  0  0  0  0  0  0
    2.5266    2.5335   -0.9956 C   0  0  0  0  0  0  0  0  0  0  0  0
    3.4680    2.2621   -0.4989 H   0  0  0  0  0  0  0  0  0  0  0  0
    1.3502    1.7694   -0.9821 C   0  0  1  0  0  3  0  0  0  0  0  0
    0.8434    0.8286    1.7237 C   0  0  0  0  0  0  0  0  0  0  0  0
    0.3609    2.1276    1.9830 C   0  0  0  0  0  0  0  0  0  0  0  0
    0.2386    2.8301    1.1434 H   0  0  0  0  0  0  0  0  0  0  0  0
    0.0467    2.5177    3.2936 C   0  0  0  0  0  0  0  0  0  0  0  0
   -0.3290    3.5349    3.4838 H   0  0  0  0  0  0  0  0  0  0  0  0
    0.2157    1.6196    4.3600 C   0  0  0  0  0  0  0  0  0  0  0  0
   -0.0293    1.9279    5.3878 H   0  0  0  0  0  0  0  0  0  0  0  0
    0.7118    0.3289    4.1109 C   0  0  0  0  0  0  0  0  0  0  0  0
    0.8633   -0.3744    4.9443 H   0  0  0  0  0  0  0  0  0  0  0  0
    1.0237   -0.0656    2.8008 C   0  0  0  0  0  0  0  0  0  0  0  0
    1.4276   -1.0731    2.6167 H   0  0  0  0  0  0  0  0  0  0  0  0
    2.6339   -0.6319   -0.0389 C   0  0  0  0  0  0  0  0  0  0  0  0
    3.6654   -0.3218    0.8719 C   0  0  0  0  0  0  0  0  0  0  0  0
    3.5044    0.4461    1.6432 H   0  0  0  0  0  0  0  0  0  0  0  0
    4.8977   -0.9899    0.7973 C   0  0  0  0  0  0  0  0  0  0  0  0
    5.6964   -0.7411    1.5129 H   0  0  0  0  0  0  0  0  0  0  0  0
    5.1128   -1.9684   -0.1858 C   0  0  0  0  0  0  0  0  0  0  0  0
    6.0792   -2.4925   -0.2407 H   0  0  0  0  0  0  0  0  0  0  0  0
    4.0922   -2.2735   -1.1013 C   0  0  0  0  0  0  0  0  0  0  0  0
    4.2574   -3.0348   -1.8792 H   0  0  0  0  0  0  0  0  0  0  0  0
    2.8595   -1.6088   -1.0286 C   0  0  0  0  0  0  0  0  0  0  0  0
    2.0538   -1.8323   -1.7444 H   0  0  0  0  0  0  0  0  0  0  0  0
  1 16  1  0  0  0  0
  3  8  1  0  0  0  0
  3  2  1  6  0  0  0
  4  7  1  0  0  0  0
  4  3  1  0  0  0  0
  5  4  1  0  0  0  0
  6  4  1  0  0  0  0
  8 15  1  0  0  0  0
  9 11  1  0  0  0  0
  9  8  2  0  0  0  0
 10  9  1  0  0  0  0
 11 13  2  0  0  0  0
 12 11  1  0  0  0  0
 13 15  1  0  0  0  0
 13 14  1  0  0  0  0
 15  1  1  1  0  0  0
 16 17  2  0  0  0  0
 16 25  1  0  0  0  0
 17 19  1  0  0  0  0
 18 17  1  0  0  0  0
 19 20  1  0  0  0  0
 19 21  2  0  0  0  0
 21 22  1  0  0  0  0
 23 21  1  0  0  0  0
 23 24  1  0  0  0  0
 25 23  2  0  0  0  0
 26 25  1  0  0  0  0
 27  1  1  0  0  0  0
 27 28  1  0  0  0  0
 28 29  1  0  0  0  0
 30 28  2  0  0  0  0
 30 31  1  0  0  0  0
 32 30  1  0  0  0  0
 33 32  1  0  0  0  0
 34 36  1  0  0  0  0
 34 32  2  0  0  0  0
 35 34  1  0  0  0  0
 36 27  2  0  0  0  0
 37 36  1  0  0  0  0
M  END
