1
q = -1.0

 16 16  0  0  0  0  0  0  0  0999 V2000
   -1.6145    0.8657   -0.7716 O   0  5  0  0  0  0  0  0  0  0  0  0
   -0.7435   -0.3827    1.2474 O   0  0  0  0  0  0  0  0  0  0  0  0
   -2.2936   -0.2460   -0.4614 C   0  0  0  0  0  0  0  0  0  0  0  0
   -1.8531   -0.9687    0.6785 C   0  0  0  0  0  0  0  0  0  0  0  0
   -2.5025   -2.1240    1.1161 C   0  0  0  0  0  0  0  0  0  0  0  0
   -3.6164   -2.5829    0.3835 C   0  0  0  0  0  0  0  0  0  0  0  0
   -4.0579   -1.8886   -0.7530 C   0  0  0  0  0  0  0  0  0  0  0  0
   -3.4025   -0.7206   -1.1819 C   0  0  0  0  0  0  0  0  0  0  0  0
   -0.3098   -0.7875    2.5459 C   0  0  0  0  0  0  0  0  0  0  0  0
   -2.1552   -2.6676    2.0055 H   0  0  0  0  0  0  0  0  0  0  0  0
   -4.1385   -3.4931    0.7127 H   0  0  0  0  0  0  0  0  0  0  0  0
   -4.9298   -2.2560   -1.3142 H   0  0  0  0  0  0  0  0  0  0  0  0
   -3.7429   -0.1544   -2.0607 H   0  0  0  0  0  0  0  0  0  0  0  0
    0.0734   -1.8282    2.5199 H   0  0  0  0  0  0  0  0  0  0  0  0
    0.5048   -0.0946    2.8180 H   0  0  0  0  0  0  0  0  0  0  0  0
   -1.1443   -0.7001    3.2714 H   0  0  0  0  0  0  0  0  0  0  0  0
  1  3  1  0  0  0  0
  2  9  1  0  0  0  0
  3  4  1  0  0  0  0
  4  5  2  0  0  0  0
  4  2  1  0  0  0  0
  5 10  1  0  0  0  0
  6 11  1  0  0  0  0
  6  5  1  0  0  0  0
  7  6  2  0  0  0  0
  8  7  1  0  0  0  0
  8  3  2  0  0  0  0
  9 15  1  0  0  0  0
  9 16  1  0  0  0  0
 12  7  1  0  0  0  0
 13  8  1  0  0  0  0
 14  9  1  0  0  0  0
M  CHG  1   1  -1
M  END
