1
q = 0.0, confidence = 0.934

 20 20  0  0  1  0  0  0  0  0999 V2000
   -1.2463   -1.4521   -0.5700 O   0  0  0  0  0  1  0  0  0  0  0  0
   -4.2418   -0.4652    0.1753 C   0  0  0  0  0  0  0  0  0  0  0  0
   -1.8365   -0.2622   -0.5207 C   0  0  0  0  0  3  0  0  0  0  0  0
   -2.1267    0.2019   -1.4983 H   0  0  0  0  0  0  0  0  0  0  0  0
   -5.3704    0.3675    0.3049 C   0  0  0  0  0  0  0  0  0  0  0  0
   -5.2407    1.3901    0.6959 H   0  0  0  0  0  0  0  0  0  0  0  0
   -2.8571    0.0170    0.5902 C   0  0  2  0  0  0  0  0  0  0  0  0
   -2.9179    1.1203    0.7151 H   0  0  0  0  0  0  0  0  0  0  0  0
   -4.4242   -1.7691   -0.3338 C   0  0  0  0  0  0  0  0  0  0  0  0
   -3.5424   -2.4161   -0.4612 H   0  0  0  0  0  0  0  0  0  0  0  0
   -6.6496   -0.0867   -0.0538 C   0  0  0  0  0  0  0  0  0  0  0  0
   -7.5187    0.5809    0.0549 H   0  0  0  0  0  0  0  0  0  0  0  0
   -5.7004   -2.2258   -0.6918 C   0  0  0  0  0  0  0  0  0  0  0  0
   -5.8234   -3.2453   -1.0897 H   0  0  0  0  0  0  0  0  0  0  0  0
   -6.8194   -1.3875   -0.5518 C   0  0  0  0  0  0  0  0  0  0  0  0
   -7.8208   -1.7464   -0.8354 H   0  0  0  0  0  0  0  0  0  0  0  0
   -2.4353   -0.6129    1.9245 C   0  0  0  0  0  0  0  0  0  0  0  0
   -3.1770   -0.4073    2.7214 H   0  0  0  0  0  0  0  0  0  0  0  0
   -1.4481   -0.2171    2.2445 H   0  0  0  0  0  0  0  0  0  0  0  0
   -2.3271   -1.7093    1.8135 H   0  0  0  0  0  0  0  0  0  0  0  0
  1  3  1  0  0  0  0
  2  5  1  0  0  0  0
  2  7  1  0  0  0  0
  3  7  1  0  0  0  0
  4  3  1  0  0  0  0
  5  6  1  0  0  0  0
  7  8  1  1  0  0  0
  7 17  1  0  0  0  0
  9  2  2  0  0  0  0
 10  9  1  0  0  0  0
 11 12  1  0  0  0  0
 11  5  2  0  0  0  0
 13 15  2  0  0  0  0
 13  9  1  0  0  0  0
 14 13  1  0  0  0  0
 15 11  1  0  0  0  0
 16 15  1  0  0  0  0
 17 19  1  0  0  0  0
 17 18  1  0  0  0  0
 20 17  1  0  0  0  0
M  END
