4
q = -1.0, confidence = 0.01

 70 75  0  0  1  0  0  0  0  0999 V2000
   -3.3675    0.0410    0.6115 P   0  0  0  0  0  0  0  0  0  0  0  0
    0.9449   -0.2365    1.3178 O   0  0  0  0  0  0  0  0  0  0  0  0
    1.9867   -0.1102    0.1656 B   0  0  0  0  0  0  0  0  0  0  0  0
   -0.6668    0.6231    0.0580 O   0  0  0  0  0  1  0  0  0  0  0  0
   -0.2694    0.1553    1.1597 C   0  0  2  0  0  3  0  0  0  0  0  0
   -3.3236   -0.1893    3.4394 C   0  0  0  0  0  0  0  0  0  0  0  0
   -2.5615   -0.0472    2.2659 C   0  0  0  0  0  0  0  0  0  0  0  0
   -1.1451    0.0147    2.3630 C   0  0  0  0  0  0  0  0  0  0  0  0
   -0.5261   -0.0566    3.6258 C   0  0  0  0  0  0  0  0  0  0  0  0
   -1.2987   -0.1792    4.7886 C   0  0  0  0  0  0  0  0  0  0  0  0
   -2.6962   -0.2488    4.6948 C   0  0  0  0  0  0  0  0  0  0  0  0
   -3.1204   -1.6191   -0.1240 C   0  0  0  0  0  0  0  0  0  0  0  0
   -2.6598   -2.7195    0.6254 C   0  0  0  0  0  0  0  0  0  0  0  0
   -2.4560   -3.9572   -0.0046 C   0  0  0  0  0  0  0  0  0  0  0  0
   -2.7159   -4.1033   -1.3753 C   0  0  0  0  0  0  0  0  0  0  0  0
   -3.1758   -3.0078   -2.1248 C   0  0  0  0  0  0  0  0  0  0  0  0
   -3.3674   -1.7663   -1.5057 C   0  0  0  0  0  0  0  0  0  0  0  0
   -5.1558    0.1781    0.9624 C   0  0  0  0  0  0  0  0  0  0  0  0
   -5.6692    1.4444    1.3148 C   0  0  0  0  0  0  0  0  0  0  0  0
   -7.0309    1.5929    1.6104 C   0  0  0  0  0  0  0  0  0  0  0  0
   -7.8901    0.4829    1.5426 C   0  0  0  0  0  0  0  0  0  0  0  0
   -7.3839   -0.7761    1.1836 C   0  0  0  0  0  0  0  0  0  0  0  0
   -6.0191   -0.9331    0.8955 C   0  0  0  0  0  0  0  0  0  0  0  0
    2.2081    1.4613   -0.2550 C   0  0  0  0  0  0  0  0  0  0  0  0
    3.6667    0.7155   -1.9765 F   0  0  0  0  0  0  0  0  0  0  0  0
    3.0726    1.7366   -1.3287 C   0  0  0  0  0  0  0  0  0  0  0  0
    4.1542    3.2221   -2.8533 F   0  0  0  0  0  0  0  0  0  0  0  0
    3.3347    3.0270   -1.8126 C   0  0  0  0  0  0  0  0  0  0  0  0
    2.9459    5.3685   -1.6319 F   0  0  0  0  0  0  0  0  0  0  0  0
    2.7231    4.1263   -1.1873 C   0  0  0  0  0  0  0  0  0  0  0  0
    1.2622    4.9418    0.5016 F   0  0  0  0  0  0  0  0  0  0  0  0
    1.8752    3.9050   -0.0935 C   0  0  0  0  0  0  0  0  0  0  0  0
    0.8528    2.4957    1.4501 F   0  0  0  0  0  0  0  0  0  0  0  0
    1.6622    2.5939    0.3674 C   0  0  0  0  0  0  0  0  0  0  0  0
    1.3657   -1.0702   -1.0188 C   0  0  0  0  0  0  0  0  0  0  0  0
    1.6481   -2.9600    0.4107 F   0  0  0  0  0  0  0  0  0  0  0  0
    1.2031   -2.4415   -0.7506 C   0  0  0  0  0  0  0  0  0  0  0  0
    0.4294   -4.6346   -1.3036 F   0  0  0  0  0  0  0  0  0  0  0  0
    0.5728   -3.3394   -1.6258 C   0  0  0  0  0  0  0  0  0  0  0  0
   -0.5881   -3.6911   -3.6733 F   0  0  0  0  0  0  0  0  0  0  0  0
    0.0468   -2.8605   -2.8333 C   0  0  0  0  0  0  0  0  0  0  0  0
   -0.3897   -1.0159   -4.2651 F   0  0  0  0  0  0  0  0  0  0  0  0
    0.1641   -1.4990   -3.1378 C   0  0  0  0  0  0  0  0  0  0  0  0
    0.8223    0.6618   -2.6003 F   0  0  0  0  0  0  0  0  0  0  0  0
    0.8093   -0.6396   -2.2330 C   0  0  0  0  0  0  0  0  0  0  0  0
    3.3901   -0.6348    0.8236 C   0  0  0  0  0  0  0  0  0  0  0  0
    4.0689   -1.9827   -1.0349 F   0  0  0  0  0  0  0  0  0  0  0  0
    4.3139   -1.4813    0.1898 C   0  0  0  0  0  0  0  0  0  0  0  0
    6.3758   -2.6832    0.1353 F   0  0  0  0  0  0  0  0  0  0  0  0
    5.5320   -1.8654    0.7784 C   0  0  0  0  0  0  0  0  0  0  0  0
    7.0182   -1.7418    2.6300 F   0  0  0  0  0  0  0  0  0  0  0  0
    5.8643   -1.3855    2.0542 C   0  0  0  0  0  0  0  0  0  0  0  0
    5.2861   -0.0585    3.9392 F   0  0  0  0  0  0  0  0  0  0  0  0
    4.9757   -0.5289    2.7227 C   0  0  0  0  0  0  0  0  0  0  0  0
    2.9804    0.6914    2.7733 F   0  0  0  0  0  0  0  0  0  0  0  0
    3.7748   -0.1667    2.0918 C   0  0  0  0  0  0  0  0  0  0  0  0
   -4.4196   -0.2515    3.3719 H   0  0  0  0  0  0  0  0  0  0  0  0
    0.5709    0.0036    3.6694 H   0  0  0  0  0  0  0  0  0  0  0  0
   -0.8056   -0.2210    5.7711 H   0  0  0  0  0  0  0  0  0  0  0  0
   -3.3089   -0.3505    5.6032 H   0  0  0  0  0  0  0  0  0  0  0  0
   -2.4476   -2.6069    1.6991 H   0  0  0  0  0  0  0  0  0  0  0  0
   -2.0702   -4.8076    0.5766 H   0  0  0  0  0  0  0  0  0  0  0  0
   -2.5251   -5.0657   -1.8714 H   0  0  0  0  0  0  0  0  0  0  0  0
   -3.3469   -3.1129   -3.2060 H   0  0  0  0  0  0  0  0  0  0  0  0
   -3.6990   -0.8992   -2.0983 H   0  0  0  0  0  0  0  0  0  0  0  0
   -4.9944    2.3135    1.3585 H   0  0  0  0  0  0  0  0  0  0  0  0
   -7.4259    2.5816    1.8884 H   0  0  0  0  0  0  0  0  0  0  0  0
   -8.9608    0.6020    1.7672 H   0  0  0  0  0  0  0  0  0  0  0  0
   -8.0558   -1.6458    1.1273 H   0  0  0  0  0  0  0  0  0  0  0  0
   -5.6211   -1.9203    0.6164 H   0  0  0  0  0  0  0  0  0  0  0  0
  1 18  1  0  0  0  0
  1  7  1  0  0  0  0
  3 46  1  0  0  0  0
  3  2  1  0  0  0  0
  5  4  1  1  0  0  0
  5  2  1  0  0  0  0
  5  8  1  0  0  0  0
  6 11  1  0  0  0  0
  7  8  1  0  0  0  0
  7  6  2  0  0  0  0
  8  9  2  0  0  0  0
  9 58  1  0  0  0  0
  9 10  1  0  0  0  0
 10 59  1  0  0  0  0
 11 10  2  0  0  0  0
 11 60  1  0  0  0  0
 12  1  1  0  0  0  0
 12 13  1  0  0  0  0
 13 61  1  0  0  0  0
 14 62  1  0  0  0  0
 14 13  2  0  0  0  0
 15 14  1  0  0  0  0
 16 17  1  0  0  0  0
 16 15  2  0  0  0  0
 17 12  2  0  0  0  0
 18 19  1  0  0  0  0
 19 66  1  0  0  0  0
 19 20  2  0  0  0  0
 20 67  1  0  0  0  0
 21 20  1  0  0  0  0
 21 68  1  0  0  0  0
 22 21  2  0  0  0  0
 23 18  2  0  0  0  0
 23 22  1  0  0  0  0
 24  3  1  0  0  0  0
 24 34  1  0  0  0  0
 25 26  1  0  0  0  0
 26 24  2  0  0  0  0
 27 28  1  0  0  0  0
 28 26  1  0  0  0  0
 28 30  2  0  0  0  0
 29 30  1  0  0  0  0
 30 32  1  0  0  0  0
 32 34  2  0  0  0  0
 32 31  1  0  0  0  0
 34 33  1  0  0  0  0
 35 37  1  0  0  0  0
 35  3  1  0  0  0  0
 37 36  1  0  0  0  0
 39 38  1  0  0  0  0
 39 37  2  0  0  0  0
 40 41  1  0  0  0  0
 41 39  1  0  0  0  0
 42 43  1  0  0  0  0
 43 41  2  0  0  0  0
 43 45  1  0  0  0  0
 44 45  1  0  0  0  0
 45 35  2  0  0  0  0
 46 56  1  0  0  0  0
 47 48  1  0  0  0  0
 48 50  1  0  0  0  0
 48 46  2  0  0  0  0
 49 50  1  0  0  0  0
 50 52  2  0  0  0  0
 52 51  1  0  0  0  0
 52 54  1  0  0  0  0
 54 53  1  0  0  0  0
 56 54  2  0  0  0  0
 56 55  1  0  0  0  0
 57  6  1  0  0  0  0
 63 15  1  0  0  0  0
 64 16  1  0  0  0  0
 65 17  1  0  0  0  0
 69 22  1  0  0  0  0
 70 23  1  0  0  0  0
M  END
