1
q = -1.0, confidence = 0.018

 24 24  0  0  0  0  0  0  0  0999 V2000
   -1.9488   -0.5412   -0.3665 O   0  5  0  0  0  0  0  0  0  0  0  0
   -2.9474    0.2462   -0.2355 C   0  0  0  0  0  0  0  0  0  0  0  0
   -4.3169   -0.4235   -0.1730 C   0  0  0  0  0  0  0  0  0  0  0  0
   -5.3469    0.5800   -0.0781 N   0  0  0  0  0  0  0  0  0  0  0  0
   -6.6677    0.2830   -0.0394 C   0  0  0  0  0  0  0  0  0  0  0  0
   -7.5516    1.3328    0.0572 N   0  0  0  0  0  0  0  0  0  0  0  0
   -8.9888    1.1196    0.1030 C   0  0  0  0  0  0  0  0  0  0  0  0
   -9.3708   -0.2889    0.0374 C   0  0  0  0  0  0  0  0  0  0  0  0
   -8.3382   -1.2938   -0.0624 C   0  0  0  0  0  0  0  0  0  0  0  0
   -7.0167   -0.9982   -0.0988 N   0  0  0  0  0  0  0  0  0  0  0  0
   -8.7113   -2.5769   -0.1211 N   0  0  0  0  0  0  0  0  0  0  0  0
   -7.9904   -3.2961   -0.1908 H   0  0  0  0  0  0  0  0  0  0  0  0
   -9.7609   -2.6958   -0.0850 H   0  0  0  0  0  0  0  0  0  0  0  0
  -10.7228   -0.5370    0.0777 N   0  0  0  0  0  2  0  0  0  0  0  0
  -11.1057   -1.7394    0.0241 O   0  0  0  0  0  1  0  0  0  0  0  0
   -9.7287    2.0885    0.1884 O   0  0  0  0  0  0  0  0  0  0  0  0
   -7.0841    2.7092    0.1179 C   0  0  0  0  0  0  0  0  0  0  0  0
   -7.9909    3.3383    0.1904 H   0  0  0  0  0  0  0  0  0  0  0  0
   -6.4466    2.8800    1.0108 H   0  0  0  0  0  0  0  0  0  0  0  0
   -6.5187    2.9842   -0.7973 H   0  0  0  0  0  0  0  0  0  0  0  0
   -4.9971    1.5415   -0.0316 H   0  0  0  0  0  0  0  0  0  0  0  0
   -4.3328   -1.1201    0.6943 H   0  0  0  0  0  0  0  0  0  0  0  0
   -4.4504   -1.0698   -1.0674 H   0  0  0  0  0  0  0  0  0  0  0  0
   -2.9037    1.5067   -0.1592 O   0  0  0  0  0  0  0  0  0  0  0  0
  1  2  1  0  0  0  0
  2  3  1  0  0  0  0
  2 24  2  0  0  0  0
  3  4  1  0  0  0  0
  3 22  1  0  0  0  0
  4  5  1  0  0  0  0
  4 21  1  0  0  0  0
  5  6  1  0  0  0  0
  6  7  1  0  0  0  0
  6 17  1  0  0  0  0
  7 16  2  0  0  0  0
  8 14  1  0  0  0  0
  8  7  1  0  0  0  0
  9  8  2  0  0  0  0
 10  9  1  0  0  0  0
 10  5  2  0  0  0  0
 11 13  1  0  0  0  0
 11  9  1  0  0  0  0
 12 11  1  0  0  0  0
 15 14  1  0  0  0  0
 17 18  1  0  0  0  0
 17 19  1  0  0  0  0
 20 17  1  0  0  0  0
 23  3  1  0  0  0  0
M  CHG  1   1  -1
M  END
