1
q = -1.0, confidence = 0.01

 16 15  0  0  0  0  0  0  0  0999 V2000
   -1.5491    0.0614   -0.3288 O   0  5  0  0  0  0  0  0  0  0  0  0
   -3.6623   -0.4550   -0.9210 O   0  0  0  0  0  0  0  0  0  0  0  0
   -4.5291    2.1999   -0.6042 C   0  0  0  0  0  0  0  0  0  0  0  0
   -4.9849    1.7525   -1.5078 H   0  0  0  0  0  0  0  0  0  0  0  0
   -4.7044    3.2941   -0.6149 H   0  0  0  0  0  0  0  0  0  0  0  0
   -5.0319    1.7651    0.2793 H   0  0  0  0  0  0  0  0  0  0  0  0
   -2.9504    1.8256    1.8039 O   0  0  0  0  0  0  0  0  0  0  0  0
   -1.4703    3.1996    0.7946 O   0  0  0  0  0  0  0  0  0  0  0  0
   -2.7951    0.3578   -0.6306 C   0  0  0  0  0  0  0  0  0  0  0  0
   -3.0243    1.8941   -0.5896 C   0  0  0  0  0  0  0  0  0  0  0  0
   -2.3782    2.3965    0.7053 C   0  0  0  0  0  0  0  0  0  0  0  0
   -2.2983    2.5231   -1.7904 C   0  0  0  0  0  0  0  0  0  0  0  0
   -2.7276    2.1372   -2.7360 H   0  0  0  0  0  0  0  0  0  0  0  0
   -1.2171    2.2906   -1.7593 H   0  0  0  0  0  0  0  0  0  0  0  0
   -2.4092    3.6248   -1.7731 H   0  0  0  0  0  0  0  0  0  0  0  0
   -2.4740    2.2081    2.5727 H   0  0  0  0  0  0  0  0  0  0  0  0
  2  9  2  0  0  0  0
  3 10  1  0  0  0  0
  3  6  1  0  0  0  0
  4  3  1  0  0  0  0
  5  3  1  0  0  0  0
  7 16  1  0  0  0  0
  9 10  1  0  0  0  0
  9  1  1  0  0  0  0
 10 11  1  0  0  0  0
 11  8  2  0  0  0  0
 11  7  1  0  0  0  0
 12 15  1  0  0  0  0
 12 14  1  0  0  0  0
 12 10  1  0  0  0  0
 13 12  1  0  0  0  0
M  CHG  1   1  -1
M  END
