1
q = -1.0

 16 16  0  0  0  0  0  0  0  0999 V2000
    2.3255    1.2708    0.9750 O   0  5  0  0  0  0  0  0  0  0  0  0
    3.4856    1.4293    0.3218 C   0  0  0  0  0  0  0  0  0  0  0  0
    4.5621    0.5019    0.4885 C   0  0  0  0  0  0  0  0  0  0  0  0
    5.7348    0.6762   -0.2673 C   0  0  0  0  0  0  0  0  0  0  0  0
    6.5540   -0.0532   -0.1445 H   0  0  0  0  0  0  0  0  0  0  0  0
    5.8868    1.7390   -1.1715 C   0  0  0  0  0  0  0  0  0  0  0  0
    6.8165    1.8483   -1.7498 H   0  0  0  0  0  0  0  0  0  0  0  0
    4.8372    2.6635   -1.3201 C   0  0  0  0  0  0  0  0  0  0  0  0
    4.9390    3.5092   -2.0183 H   0  0  0  0  0  0  0  0  0  0  0  0
    3.6555    2.5088   -0.5853 C   0  0  0  0  0  0  0  0  0  0  0  0
    2.8143    3.2102   -0.6982 H   0  0  0  0  0  0  0  0  0  0  0  0
    4.4811   -0.6363    1.4979 C   0  0  0  0  0  0  0  0  0  0  0  0
    5.0194   -1.5228    1.0925 H   0  0  0  0  0  0  0  0  0  0  0  0
    5.0523   -0.3306    2.4148 H   0  0  0  0  0  0  0  0  0  0  0  0
    3.1648   -1.0336    1.8443 O   0  0  0  0  0  0  0  0  0  0  0  0
    2.6675   -0.1668    1.8159 H   0  0  0  0  0  0  0  0  0  0  0  0
  2  3  1  0  0  0  0
  2  1  1  0  0  0  0
  3 12  1  0  0  0  0
  4  5  1  0  0  0  0
  4  3  2  0  0  0  0
  6  4  1  0  0  0  0
  7  6  1  0  0  0  0
  8  6  2  0  0  0  0
  8 10  1  0  0  0  0
  9  8  1  0  0  0  0
 10  2  2  0  0  0  0
 11 10  1  0  0  0  0
 12 15  1  0  0  0  0
 12 14  1  0  0  0  0
 13 12  1  0  0  0  0
 16 15  1  0  0  0  0
M  CHG  1   1  -1
M  END
