1
q = 0.0, confidence = 0.998

 29 29  0  0  0  0  0  0  0  0999 V2000
   -0.7401    0.4548    1.1186 O   0  5  0  0  0  0  0  0  0  0  0  0
   -0.5850    1.4882    1.8602 C   0  0  0  0  0  0  0  0  0  0  0  0
   -1.7413    1.9773    2.6877 C   0  0  0  0  0  0  0  0  0  0  0  0
   -1.6593    3.0579    2.9067 H   0  0  0  0  0  0  0  0  0  0  0  0
   -1.7385    1.4342    3.6575 H   0  0  0  0  0  0  0  0  0  0  0  0
   -2.7002    1.7381    2.1893 H   0  0  0  0  0  0  0  0  0  0  0  0
    0.6657    2.1469    1.9545 C   0  0  0  0  0  0  0  0  0  0  0  0
    0.6908    3.0863    2.5197 H   0  0  0  0  0  0  0  0  0  0  0  0
    1.8880    1.7103    1.4252 C   0  0  0  0  0  0  0  0  0  0  0  0
    3.1134    2.5422    1.7025 C   0  0  0  0  0  0  0  0  0  0  0  0
    3.5410    2.3228    2.7021 H   0  0  0  0  0  0  0  0  0  0  0  0
    2.8218    3.6094    1.6962 H   0  0  0  0  0  0  0  0  0  0  0  0
    3.9075    2.3768    0.9515 H   0  0  0  0  0  0  0  0  0  0  0  0
    2.0008    0.5976    0.6604 N   0  0  0  0  0  4  0  0  0  0  0  0
    1.1229    0.1762    0.2966 H   0  0  0  0  0  0  0  0  0  0  0  0
    3.2030   -0.0531    0.2962 C   0  0  0  0  0  0  0  0  0  0  0  0
    4.2071   -0.3110    1.2537 C   0  0  0  0  0  0  0  0  0  0  0  0
    4.0511   -0.0176    2.3009 H   0  0  0  0  0  0  0  0  0  0  0  0
    5.3804   -0.9749    0.8829 C   0  0  0  0  0  0  0  0  0  0  0  0
    6.1560   -1.1836    1.6333 H   0  0  0  0  0  0  0  0  0  0  0  0
    5.5569   -1.4075   -0.4425 C   0  0  0  0  0  0  0  0  0  0  0  0
    4.5449   -1.1779   -1.3911 C   0  0  0  0  0  0  0  0  0  0  0  0
    4.6728   -1.5349   -2.4229 H   0  0  0  0  0  0  0  0  0  0  0  0
    3.3754   -0.5032   -1.0292 C   0  0  0  0  0  0  0  0  0  0  0  0
    2.5746   -0.3373   -1.7615 H   0  0  0  0  0  0  0  0  0  0  0  0
    6.8450   -2.0775   -0.8553 C   0  0  0  0  0  0  0  0  0  0  0  0
    7.4187   -2.7432    0.1761 F   0  0  0  0  0  0  0  0  0  0  0  0
    7.7545   -1.1701   -1.2954 F   0  0  0  0  0  0  0  0  0  0  0  0
    6.6516   -2.9631   -1.8606 F   0  0  0  0  0  0  0  0  0  0  0  0
  1  2  1  0  0  0  0
  2  7  2  0  0  0  0
  2  3  1  0  0  0  0
  3  4  1  0  0  0  0
  3  5  1  0  0  0  0
  6  3  1  0  0  0  0
  7  8  1  0  0  0  0
  9 10  1  0  0  0  0
  9  7  1  0  0  0  0
 10 11  1  0  0  0  0
 12 10  1  0  0  0  0
 13 10  1  0  0  0  0
 14  9  2  0  0  0  0
 15 14  1  0  0  0  0
 16 14  1  0  0  0  0
 16 17  1  0  0  0  0
 17 18  1  0  0  0  0
 19 17  2  0  0  0  0
 19 20  1  0  0  0  0
 21 19  1  0  0  0  0
 22 24  1  0  0  0  0
 22 21  2  0  0  0  0
 23 22  1  0  0  0  0
 24 16  2  0  0  0  0
 25 24  1  0  0  0  0
 26 21  1  0  0  0  0
 26 27  1  0  0  0  0
 28 26  1  0  0  0  0
 29 26  1  0  0  0  0
M  CHG  1   1  -1
M  END
