2
q = 0.0, confidence = 0.972

 12 12  0  0  0  0  0  0  0  0999 V2000
    5.9112   -2.9139   -0.5512 Cl  0  0  0  0  0  0  0  0  0  0  0  0
    0.8170   -0.9515    1.4700 O   0  0  0  0  0  1  0  0  0  0  0  0
    1.9493   -1.3908    0.9894 N   0  0  0  0  0  0  0  0  0  0  0  0
    3.4010   -1.9056   -0.8560 C   0  0  0  0  0  0  0  0  0  0  0  0
    3.5705   -1.9151   -1.9409 H   0  0  0  0  0  0  0  0  0  0  0  0
    4.3897   -2.3556    0.0352 C   0  0  0  0  0  0  0  0  0  0  0  0
    2.1977   -1.4237   -0.3584 C   0  0  0  0  0  3  0  0  0  0  0  0
    1.3795   -1.0381   -0.9828 H   0  0  0  0  0  0  0  0  0  0  0  0
    2.9012   -1.8405    1.8691 C   0  0  0  0  0  0  0  0  0  0  0  0
    2.6098   -1.7732    2.9247 H   0  0  0  0  0  0  0  0  0  0  0  0
    4.1186   -2.3271    1.4172 C   0  0  0  0  0  0  0  0  0  0  0  0
    4.8633   -2.6758    2.1451 H   0  0  0  0  0  0  0  0  0  0  0  0
  1  6  1  0  0  0  0
  3  2  1  0  0  0  0
  3  9  1  0  0  0  0
  4  7  1  0  0  0  0
  4  6  2  0  0  0  0
  5  4  1  0  0  0  0
  6 11  1  0  0  0  0
  7  3  1  0  0  0  0
  8  7  1  0  0  0  0
  9 10  1  0  0  0  0
 11  9  2  0  0  0  0
 11 12  1  0  0  0  0
M  END
