4
q = 0.0, confidence = 0.988

 12 12  0  0  1  0  0  0  0  0999 V2000
    1.1932   -0.7685    2.2244 Cl  0  0  0  0  0  0  0  0  0  0  0  0
    2.5206   -2.6890   -2.4862 Cl  0  0  0  0  0  0  0  0  0  0  0  0
    2.0325   -1.8361   -0.0496 N   0  0  0  0  0  0  0  0  0  0  0  0
    0.9328   -1.4256   -0.5822 O   0  0  0  0  0  1  0  0  0  0  0  0
    3.5231   -2.1289    1.8454 C   0  0  0  0  0  0  0  0  0  0  0  0
    3.7113   -1.9411    2.9105 H   0  0  0  0  0  0  0  0  0  0  0  0
    2.9455   -2.5268   -0.8424 C   0  0  2  0  0  3  0  0  0  0  0  0
    2.3468   -1.6367    1.2866 C   0  0  0  0  0  0  0  0  0  0  0  0
    4.4224   -2.8470    1.0480 C   0  0  0  0  0  0  0  0  0  0  0  0
    5.3494   -3.2493    1.4785 H   0  0  0  0  0  0  0  0  0  0  0  0
    4.1234   -3.0419   -0.3069 C   0  0  0  0  0  0  0  0  0  0  0  0
    4.7976   -3.5896   -0.9784 H   0  0  0  0  0  0  0  0  0  0  0  0
  3  8  1  0  0  0  0
  4  3  1  0  0  0  0
  5  6  1  0  0  0  0
  7  2  1  6  0  0  0
  7 11  1  0  0  0  0
  7  3  1  0  0  0  0
  8  5  2  0  0  0  0
  8  1  1  0  0  0  0
  9 10  1  0  0  0  0
  9  5  1  0  0  0  0
 11  9  2  0  0  0  0
 12 11  1  0  0  0  0
M  END
