1
q = -1.0, confidence = 0.012

 33 33  0  0  0  0  0  0  0  0999 V2000
   -0.4622    0.8679    1.5635 O   0  5  0  0  0  0  0  0  0  0  0  0
   -2.0896    0.0401    0.3459 N   0  0  0  0  0  0  0  0  0  0  0  0
   -1.7396    0.8858    1.3005 C   0  0  0  0  0  0  0  0  0  0  0  0
   -3.3143   -0.1284   -0.3401 C   0  0  0  0  0  0  0  0  0  0  0  0
   -3.7115    0.8064   -1.3364 C   0  0  0  0  0  0  0  0  0  0  0  0
   -2.6042    1.7813    2.1949 C   0  0  0  0  0  0  0  0  0  0  0  0
   -4.0816   -1.2997   -0.0991 C   0  0  0  0  0  0  0  0  0  0  0  0
   -5.2527   -1.5095   -0.8494 C   0  0  0  0  0  0  0  0  0  0  0  0
   -5.8521   -2.4130   -0.6548 H   0  0  0  0  0  0  0  0  0  0  0  0
   -3.6445   -2.2934    0.9404 C   0  0  0  0  0  0  0  0  0  0  0  0
   -3.4302   -1.8041    1.9128 H   0  0  0  0  0  0  0  0  0  0  0  0
   -2.6931   -2.7808    0.6459 H   0  0  0  0  0  0  0  0  0  0  0  0
   -4.4123   -3.0748    1.0965 H   0  0  0  0  0  0  0  0  0  0  0  0
   -4.8893    0.5511   -2.0645 C   0  0  0  0  0  0  0  0  0  0  0  0
   -5.1990    1.2728   -2.8369 H   0  0  0  0  0  0  0  0  0  0  0  0
   -2.9126    2.0552   -1.6077 C   0  0  0  0  0  0  0  0  0  0  0  0
   -1.8216    1.8697   -1.5799 H   0  0  0  0  0  0  0  0  0  0  0  0
   -3.1182    2.8393   -0.8462 H   0  0  0  0  0  0  0  0  0  0  0  0
   -3.1813    2.4861   -2.5915 H   0  0  0  0  0  0  0  0  0  0  0  0
   -2.0866    3.2291    2.0553 C   0  0  0  0  0  0  0  0  0  0  0  0
   -1.0049    3.2800    2.2839 H   0  0  0  0  0  0  0  0  0  0  0  0
   -2.6304    3.8948    2.7560 H   0  0  0  0  0  0  0  0  0  0  0  0
   -2.2392    3.6144    1.0271 H   0  0  0  0  0  0  0  0  0  0  0  0
   -2.3567    1.2884    3.6418 C   0  0  0  0  0  0  0  0  0  0  0  0
   -1.2808    1.3322    3.8945 H   0  0  0  0  0  0  0  0  0  0  0  0
   -2.6980    0.2406    3.7677 H   0  0  0  0  0  0  0  0  0  0  0  0
   -2.9208    1.9235    4.3548 H   0  0  0  0  0  0  0  0  0  0  0  0
   -5.6596   -0.5942   -1.8289 C   0  0  0  0  0  0  0  0  0  0  0  0
   -6.5755   -0.7756   -2.4114 H   0  0  0  0  0  0  0  0  0  0  0  0
   -4.1097    1.7184    1.8990 C   0  0  0  0  0  0  0  0  0  0  0  0
   -4.6471    2.3431    2.6415 H   0  0  0  0  0  0  0  0  0  0  0  0
   -4.5041    0.6872    1.9769 H   0  0  0  0  0  0  0  0  0  0  0  0
   -4.3640    2.0985    0.8928 H   0  0  0  0  0  0  0  0  0  0  0  0
  2  3  2  0  0  0  0
  3  1  1  0  0  0  0
  3  6  1  0  0  0  0
  4  7  1  0  0  0  0
  4  2  1  0  0  0  0
  5  4  2  0  0  0  0
  6 24  1  0  0  0  0
  7 10  1  0  0  0  0
  8  9  1  0  0  0  0
  8  7  2  0  0  0  0
 10 13  1  0  0  0  0
 10 11  1  0  0  0  0
 12 10  1  0  0  0  0
 14 28  2  0  0  0  0
 14  5  1  0  0  0  0
 15 14  1  0  0  0  0
 16 17  1  0  0  0  0
 16  5  1  0  0  0  0
 16 18  1  0  0  0  0
 19 16  1  0  0  0  0
 20  6  1  0  0  0  0
 20 21  1  0  0  0  0
 20 22  1  0  0  0  0
 23 20  1  0  0  0  0
 24 26  1  0  0  0  0
 24 25  1  0  0  0  0
 24 27  1  0  0  0  0
 28  8  1  0  0  0  0
 29 28  1  0  0  0  0
 30 32  1  0  0  0  0
 30  6  1  0  0  0  0
 30 31  1  0  0  0  0
 33 30  1  0  0  0  0
M  CHG  1   1  -1
M  END
