17
q = -1.0

 18 18  0  0  0  0  0  0  0  0999 V2000
   -7.0757    0.6397   -0.0063 C   0  0  0  0  0  0  0  0  0  0  0  0
   -8.1671    0.5176   -0.0044 H   0  0  0  0  0  0  0  0  0  0  0  0
   -6.4751    1.8897   -0.0263 C   0  0  0  0  0  0  0  0  0  0  0  0
   -7.0957    2.8001   -0.0410 H   0  0  0  0  0  0  0  0  0  0  0  0
   -5.0526    2.0295   -0.0285 C   0  0  0  0  0  0  0  0  0  0  0  0
   -4.2423    0.8348   -0.0095 C   0  0  0  0  0  0  0  0  0  0  0  0
   -4.8687   -0.4140    0.0105 C   0  0  0  0  0  0  0  0  0  0  0  0
   -4.2467   -1.3181    0.0249 H   0  0  0  0  0  0  0  0  0  0  0  0
   -6.2692   -0.5170    0.0122 C   0  0  0  0  0  0  0  0  0  0  0  0
   -2.7311    0.9236   -0.0109 C   0  0  0  0  0  0  0  0  0  0  0  0
   -4.4540    3.2398   -0.0479 N   0  0  0  0  0  0  0  0  0  0  0  0
   -5.0096    4.0913   -0.0614 H   0  0  0  0  0  0  0  0  0  0  0  0
   -3.4025    3.1816   -0.0469 H   0  0  0  0  0  0  0  0  0  0  0  0
   -6.9056   -1.8273    0.0332 N   0  0  0  0  0  0  0  0  0  0  0  0
   -6.1814   -2.8304    0.0492 O   0  0  0  0  0  0  0  0  0  0  0  0
   -8.1469   -1.8705    0.0340 O   0  0  0  0  0  0  0  0  0  0  0  0
   -2.1093   -0.1993    0.0070 O   0  5  0  0  0  0  0  0  0  0  0  0
   -2.1753    2.0571   -0.0291 O   0  0  0  0  0  0  0  0  0  0  0  0
  1  2  1  0  0  0  0
  1  9  1  0  0  0  0
  3  1  2  0  0  0  0
  4  3  1  0  0  0  0
  5  3  1  0  0  0  0
  5  6  2  0  0  0  0
  6  7  1  0  0  0  0
  7  9  2  0  0  0  0
  7  8  1  0  0  0  0
  9 14  1  0  0  0  0
 10  6  1  0  0  0  0
 10 17  1  0  0  0  0
 11 13  1  0  0  0  0
 11  5  1  0  0  0  0
 12 11  1  0  0  0  0
 14 16  2  0  0  0  0
 14 15  2  0  0  0  0
 18 10  2  0  0  0  0
M  CHG  1  17  -1
M  END
