2
q = -1.0

 14 14  0  0  0  0  0  0  0  0999 V2000
    1.5873   -1.0806    0.8332 N   0  0  0  0  0  2  0  0  0  0  0  0
    0.3592   -1.6741    1.0029 O   0  0  0  0  0  1  0  0  0  0  0  0
    2.4159   -3.2502    0.6346 N   0  0  0  0  0  4  0  0  0  0  0  0
    4.1677    0.3587    0.6009 S   0  0  0  0  0  0  0  0  0  0  0  0
    2.5944   -1.9178    0.5735 C   0  0  0  0  0  0  0  0  0  0  0  0
    3.8855   -1.3300    0.2658 C   0  0  0  0  0  0  0  0  0  0  0  0
    4.9981   -1.9224   -0.3276 C   0  0  0  0  0  0  0  0  0  0  0  0
    6.0692   -1.0066   -0.5159 C   0  0  0  0  0  0  0  0  0  0  0  0
    5.7604    0.2640   -0.0568 C   0  0  0  0  0  0  0  0  0  0  0  0
    5.0269   -2.9722   -0.6511 H   0  0  0  0  0  0  0  0  0  0  0  0
    7.0311   -1.2681   -0.9766 H   0  0  0  0  0  0  0  0  0  0  0  0
    6.3945    1.1593   -0.0722 H   0  0  0  0  0  0  0  0  0  0  0  0
    1.4510   -3.5769    0.7328 H   0  0  0  0  0  0  0  0  0  0  0  0
    3.1892   -3.9069    0.5856 H   0  0  0  0  0  0  0  0  0  0  0  0
  1  2  1  0  0  0  0
  3 13  1  0  0  0  0
  5  3  2  0  0  0  0
  5  1  1  0  0  0  0
  6  5  1  0  0  0  0
  6  4  1  0  0  0  0
  7  6  2  0  0  0  0
  8  7  1  0  0  0  0
  8  9  2  0  0  0  0
  9  4  1  0  0  0  0
 10  7  1  0  0  0  0
 11  8  1  0  0  0  0
 12  9  1  0  0  0  0
 14  3  1  0  0  0  0
M  END
