1
q = -1.0

 19 19  0  0  1  0  0  0  0  0999 V2000
    0.8529   -1.4328    1.0237 O   0  5  0  0  0  0  0  0  0  0  0  0
    2.9646   -2.1335    1.3230 O   0  0  0  0  0  0  0  0  0  0  0  0
    1.5877    0.5734   -0.5886 N   0  0  0  0  0  0  0  0  0  0  0  0
    2.1267   -1.4709    0.7212 C   0  0  0  0  0  0  0  0  0  0  0  0
    2.5267   -0.5967   -0.4963 C   0  0  2  0  0  0  0  0  0  0  0  0
    2.3801   -1.2255   -1.3960 H   0  0  0  0  0  0  0  0  0  0  0  0
    3.9346   -0.0006   -0.3406 C   0  0  0  0  0  0  0  0  0  0  0  0
    4.4687    0.0531   -1.3089 H   0  0  0  0  0  0  0  0  0  0  0  0
    4.5090   -0.6688    0.3298 H   0  0  0  0  0  0  0  0  0  0  0  0
    3.6986    1.4125    0.2573 C   0  0  0  0  0  0  0  0  0  0  0  0
    4.2042    1.5520    1.2319 H   0  0  0  0  0  0  0  0  0  0  0  0
    4.0760    2.2059   -0.4181 H   0  0  0  0  0  0  0  0  0  0  0  0
    2.1676    1.5065    0.4238 C   0  0  0  0  0  0  0  0  0  0  0  0
    1.7505    2.5217    0.2853 H   0  0  0  0  0  0  0  0  0  0  0  0
    1.8586    1.1345    1.4193 H   0  0  0  0  0  0  0  0  0  0  0  0
    1.5889    1.1702   -1.9423 C   0  0  0  0  0  0  0  0  0  0  0  0
    2.6120    1.4681   -2.2559 H   0  0  0  0  0  0  0  0  0  0  0  0
    1.1762    0.4221   -2.6445 H   0  0  0  0  0  0  0  0  0  0  0  0
    0.9387    2.0648   -1.9423 H   0  0  0  0  0  0  0  0  0  0  0  0
  3  5  1  0  0  0  0
  3 13  1  0  0  0  0
  4  1  1  0  0  0  0
  4  2  2  0  0  0  0
  5  6  1  6  0  0  0
  5  7  1  0  0  0  0
  5  4  1  0  0  0  0
  7 10  1  0  0  0  0
  7  9  1  0  0  0  0
  8  7  1  0  0  0  0
 10 13  1  0  0  0  0
 10 11  1  0  0  0  0
 12 10  1  0  0  0  0
 13 15  1  0  0  0  0
 14 13  1  0  0  0  0
 16  3  1  0  0  0  0
 17 16  1  0  0  0  0
 18 16  1  0  0  0  0
 19 16  1  0  0  0  0
M  CHG  1   1  -1
M  END
