13
q = -1.0, confidence = 0.006

 15 14  0  0  0  0  0  0  0  0999 V2000
   -4.0693   -0.4701   -0.2057 N   0  0  0  0  0  2  0  0  0  0  0  0
   -3.2766    0.4010   -1.3019 S   0  0  0  0  0  0  0  0  0  0  0  0
   -5.7279   -0.3476   -0.0384 S   0  0  0  0  0  0  0  0  0  0  0  0
   -3.7705   -0.1465   -2.9419 C   0  0  0  0  0  0  0  0  0  0  0  0
   -4.8644    0.0120   -2.9968 H   0  0  0  0  0  0  0  0  0  0  0  0
   -3.5297   -1.2204   -3.0345 H   0  0  0  0  0  0  0  0  0  0  0  0
   -3.2128    0.4623   -3.6765 H   0  0  0  0  0  0  0  0  0  0  0  0
   -5.9886    1.2591    0.7518 C   0  0  0  0  0  0  0  0  0  0  0  0
   -7.0824    1.4065    0.8170 H   0  0  0  0  0  0  0  0  0  0  0  0
   -5.5061    2.0283    0.1205 H   0  0  0  0  0  0  0  0  0  0  0  0
   -5.5371    1.2205    1.7595 H   0  0  0  0  0  0  0  0  0  0  0  0
   -3.5016    1.8778   -1.2407 O   0  0  0  0  0  1  0  0  0  0  0  0
   -1.8214   -0.0217   -1.1657 O   0  0  0  0  0  1  0  0  0  0  0  0
   -6.4071   -0.2826   -1.3612 O   0  0  0  0  0  0  0  0  0  0  0  0
   -6.1016   -1.3985    0.9285 O   0  0  0  0  0  0  0  0  0  0  0  0
  1  3  1  0  0  0  0
  2 12  1  0  0  0  0
  2 13  1  0  0  0  0
  2  1  1  0  0  0  0
  3  8  1  0  0  0  0
  3 15  2  0  0  0  0
  4  2  1  0  0  0  0
  5  4  1  0  0  0  0
  6  4  1  0  0  0  0
  7  4  1  0  0  0  0
  8  9  1  0  0  0  0
  8 11  1  0  0  0  0
 10  8  1  0  0  0  0
 14  3  2  0  0  0  0
M  END
