2
q = -1.0

 25 26  0  0  0  0  0  0  0  0999 V2000
    1.1252    0.0955   -0.8202 P   0  0  0  0  0  0  0  0  0  0  0  0
   -0.2031   -0.4172   -0.0662 O   0  0  0  0  0  1  0  0  0  0  0  0
    1.1081    0.2900   -2.3245 O   0  0  0  0  0  0  0  0  0  0  0  0
    0.9949    1.9479    1.3351 C   0  0  0  0  0  0  0  0  0  0  0  0
    0.3056    1.2369    1.8143 H   0  0  0  0  0  0  0  0  0  0  0  0
    1.5212    1.6487    0.0629 C   0  0  0  0  0  0  0  0  0  0  0  0
    2.3598    2.5779   -0.5848 C   0  0  0  0  0  0  0  0  0  0  0  0
    2.7339    2.3457   -1.5938 H   0  0  0  0  0  0  0  0  0  0  0  0
    2.4864   -1.5911    1.0092 C   0  0  0  0  0  0  0  0  0  0  0  0
    1.8251   -1.1768    1.7860 H   0  0  0  0  0  0  0  0  0  0  0  0
    2.3664   -1.1484   -0.3229 C   0  0  0  0  0  0  0  0  0  0  0  0
    3.4470   -2.5565    1.3418 C   0  0  0  0  0  0  0  0  0  0  0  0
    3.5426   -2.9017    2.3827 H   0  0  0  0  0  0  0  0  0  0  0  0
    2.6866    3.7867    0.0467 C   0  0  0  0  0  0  0  0  0  0  0  0
    3.3410    4.5117   -0.4611 H   0  0  0  0  0  0  0  0  0  0  0  0
    2.1721    4.0762    1.3217 C   0  0  0  0  0  0  0  0  0  0  0  0
    2.4278    5.0263    1.8153 H   0  0  0  0  0  0  0  0  0  0  0  0
    4.1634   -2.6494   -0.9835 C   0  0  0  0  0  0  0  0  0  0  0  0
    4.8181   -3.0678   -1.7635 H   0  0  0  0  0  0  0  0  0  0  0  0
    3.2046   -1.6812   -1.3196 C   0  0  0  0  0  0  0  0  0  0  0  0
    3.0793   -1.3262   -2.3543 H   0  0  0  0  0  0  0  0  0  0  0  0
    4.2861   -3.0856    0.3454 C   0  0  0  0  0  0  0  0  0  0  0  0
    5.0393   -3.8440    0.6086 H   0  0  0  0  0  0  0  0  0  0  0  0
    1.3223    3.1595    1.9623 C   0  0  0  0  0  0  0  0  0  0  0  0
    0.9070    3.3936    2.9546 H   0  0  0  0  0  0  0  0  0  0  0  0
  1 11  1  0  0  0  0
  1  2  1  0  0  0  0
  1  6  1  0  0  0  0
  3  1  2  0  0  0  0
  4  5  1  0  0  0  0
  4 24  1  0  0  0  0
  6  4  2  0  0  0  0
  7 14  2  0  0  0  0
  7  6  1  0  0  0  0
  8  7  1  0  0  0  0
  9 12  1  0  0  0  0
  9 10  1  0  0  0  0
 11  9  2  0  0  0  0
 12 13  1  0  0  0  0
 14 16  1  0  0  0  0
 15 14  1  0  0  0  0
 16 17  1  0  0  0  0
 16 24  2  0  0  0  0
 18 22  1  0  0  0  0
 19 18  1  0  0  0  0
 20 18  2  0  0  0  0
 20 11  1  0  0  0  0
 21 20  1  0  0  0  0
 22 23  1  0  0  0  0
 22 12  2  0  0  0  0
 24 25  1  0  0  0  0
M  END
