1
q = -1.0

 14 14  0  0  0  0  0  0  0  0999 V2000
    1.6829    0.4556   -0.3037 O   0  5  0  0  0  0  0  0  0  0  0  0
    5.0374   -1.8152   -1.2161 N   0  0  0  0  0  0  0  0  0  0  0  0
    2.6705    0.5523    0.5273 C   0  0  0  0  0  0  0  0  0  0  0  0
    2.6799    1.2700    1.5697 O   0  0  0  0  0  0  0  0  0  0  0  0
    6.1250   -0.9287    0.7660 N   0  0  0  0  0  0  0  0  0  0  0  0
    3.8780   -0.2508    0.2081 C   0  0  0  0  0  0  0  0  0  0  0  0
    7.1882   -2.4281   -0.6342 N   0  0  0  0  0  0  0  0  0  0  0  0
    7.9904   -2.3717   -0.0114 H   0  0  0  0  0  0  0  0  0  0  0  0
    7.1958   -3.0210   -1.4607 H   0  0  0  0  0  0  0  0  0  0  0  0
    3.9583   -1.0918   -0.9222 C   0  0  0  0  0  0  0  0  0  0  0  0
    3.0932   -1.1652   -1.6044 H   0  0  0  0  0  0  0  0  0  0  0  0
    6.0797   -1.6998   -0.3522 C   0  0  0  0  0  0  0  0  0  0  0  0
    5.0281   -0.2201    1.0263 C   0  0  0  0  0  0  0  0  0  0  0  0
    5.0309    0.4181    1.9274 H   0  0  0  0  0  0  0  0  0  0  0  0
  1  3  1  0  0  0  0
  2 10  2  0  0  0  0
  2 12  1  0  0  0  0
  3  4  2  0  0  0  0
  5 13  1  0  0  0  0
  6  3  1  0  0  0  0
  6 13  2  0  0  0  0
  7 12  1  0  0  0  0
  7  8  1  0  0  0  0
  9  7  1  0  0  0  0
 10  6  1  0  0  0  0
 11 10  1  0  0  0  0
 12  5  2  0  0  0  0
 13 14  1  0  0  0  0
M  CHG  1   1  -1
M  END
