1
q = -1.0

 17 17  0  0  0  0  0  0  0  0999 V2000
    1.4315   -0.7118   -1.2873 O   0  5  0  0  0  0  0  0  0  0  0  0
    1.5667   -2.9863   -1.3425 O   0  0  0  0  0  0  0  0  0  0  0  0
    1.9514   -1.8419   -1.6531 C   0  0  0  0  0  0  0  0  0  0  0  0
    3.1813   -1.6396   -2.5568 C   0  0  0  0  0  0  0  0  0  0  0  0
    3.5469   -2.6355   -2.8664 H   0  0  0  0  0  0  0  0  0  0  0  0
    2.8434   -1.0898   -3.4602 H   0  0  0  0  0  0  0  0  0  0  0  0
    4.2609   -0.8543   -1.8416 C   0  0  0  0  0  0  0  0  0  0  0  0
    5.4266   -1.4947   -1.3772 C   0  0  0  0  0  0  0  0  0  0  0  0
    5.5739   -2.5651   -1.5910 H   0  0  0  0  0  0  0  0  0  0  0  0
    6.3901   -0.7915   -0.6353 C   0  0  0  0  0  0  0  0  0  0  0  0
    7.2925   -1.3122   -0.2798 H   0  0  0  0  0  0  0  0  0  0  0  0
    6.1991    0.5674   -0.3416 C   0  0  0  0  0  0  0  0  0  0  0  0
    6.9516    1.1198    0.2421 H   0  0  0  0  0  0  0  0  0  0  0  0
    5.0435    1.2195   -0.8071 C   0  0  0  0  0  0  0  0  0  0  0  0
    4.8826    2.2856   -0.5827 H   0  0  0  0  0  0  0  0  0  0  0  0
    4.0865    0.5172   -1.5526 C   0  0  0  0  0  0  0  0  0  0  0  0
    3.1718    1.0231   -1.8929 H   0  0  0  0  0  0  0  0  0  0  0  0
  3  2  2  0  0  0  0
  3  1  1  0  0  0  0
  4  7  1  0  0  0  0
  4  3  1  0  0  0  0
  5  4  1  0  0  0  0
  6  4  1  0  0  0  0
  7 16  2  0  0  0  0
  7  8  1  0  0  0  0
  8 10  2  0  0  0  0
  9  8  1  0  0  0  0
 10 12  1  0  0  0  0
 10 11  1  0  0  0  0
 12 13  1  0  0  0  0
 14 15  1  0  0  0  0
 14 12  2  0  0  0  0
 16 14  1  0  0  0  0
 17 16  1  0  0  0  0
M  CHG  1   1  -1
M  END
