1
q = 0.0, confidence = 0.766

 11 11  0  0  0  0  0  0  0  0999 V2000
   -0.3798    0.7839   -2.1479 O   0  0  0  0  0  1  0  0  0  0  0  0
   -0.1873   -0.5943   -2.2207 C   0  0  0  0  0  3  0  0  0  0  0  0
   -1.2317   -1.4994   -2.9200 C   0  0  0  0  0  0  0  0  0  0  0  0
    0.9255   -1.1938   -3.1130 C   0  0  0  0  0  0  0  0  0  0  0  0
   -0.0654   -2.3020   -3.5529 C   0  0  0  0  0  0  0  0  0  0  0  0
   -1.9519   -2.0689   -2.2968 H   0  0  0  0  0  0  0  0  0  0  0  0
   -1.8075   -0.9215   -3.6761 H   0  0  0  0  0  0  0  0  0  0  0  0
    1.8628   -1.5331   -2.6281 H   0  0  0  0  0  0  0  0  0  0  0  0
    1.1862   -0.5005   -3.9428 H   0  0  0  0  0  0  0  0  0  0  0  0
    0.1220   -3.2650   -3.0380 H   0  0  0  0  0  0  0  0  0  0  0  0
   -0.1366   -2.5007   -4.6403 H   0  0  0  0  0  0  0  0  0  0  0  0
  2  1  1  0  0  0  0
  3  6  1  0  0  0  0
  3  2  1  0  0  0  0
  4  8  1  0  0  0  0
  4  2  1  0  0  0  0
  5  4  1  0  0  0  0
  5 10  1  0  0  0  0
  5  3  1  0  0  0  0
  7  3  1  0  0  0  0
  9  4  1  0  0  0  0
 11  5  1  0  0  0  0
M  END
