1
q = 0.0, confidence = 0.854

 30 31  0  0  0  0  0  0  0  0999 V2000
   -0.0000   -1.1423   -1.9360 O   0  0  0  0  0  1  0  0  0  0  0  0
   -0.0000   -2.2266   -0.9984 C   0  0  0  0  0  3  0  0  0  0  0  0
    1.2499   -3.1151   -1.1267 C   0  0  0  0  0  0  0  0  0  0  0  0
    2.5897   -2.4347   -0.9846 C   0  0  0  0  0  0  0  0  0  0  0  0
    3.3817   -2.6167    0.1676 C   0  0  0  0  0  0  0  0  0  0  0  0
    4.6319   -1.9930    0.2995 C   0  0  0  0  0  0  0  0  0  0  0  0
    5.1181   -1.1702   -0.7275 C   0  0  0  0  0  0  0  0  0  0  0  0
    4.3425   -0.9794   -1.8825 C   0  0  0  0  0  0  0  0  0  0  0  0
    3.0933   -1.6049   -2.0102 C   0  0  0  0  0  0  0  0  0  0  0  0
    1.1746   -3.9254   -0.3710 H   0  0  0  0  0  0  0  0  0  0  0  0
    1.2116   -3.6185   -2.1252 H   0  0  0  0  0  0  0  0  0  0  0  0
    3.0082   -3.2702    0.9727 H   0  0  0  0  0  0  0  0  0  0  0  0
    5.2294   -2.1469    1.2110 H   0  0  0  0  0  0  0  0  0  0  0  0
    6.0938   -0.6723   -0.6234 H   0  0  0  0  0  0  0  0  0  0  0  0
    4.7178   -0.3372   -2.6949 H   0  0  0  0  0  0  0  0  0  0  0  0
    2.4851   -1.4550   -2.9146 H   0  0  0  0  0  0  0  0  0  0  0  0
   -1.2500   -3.1151   -1.1267 C   0  0  0  0  0  0  0  0  0  0  0  0
   -2.5897   -2.4347   -0.9846 C   0  0  0  0  0  0  0  0  0  0  0  0
   -3.3818   -2.6169    0.1675 C   0  0  0  0  0  0  0  0  0  0  0  0
   -4.6320   -1.9932    0.2995 C   0  0  0  0  0  0  0  0  0  0  0  0
   -5.1182   -1.1703   -0.7275 C   0  0  0  0  0  0  0  0  0  0  0  0
   -4.3425   -0.9793   -1.8823 C   0  0  0  0  0  0  0  0  0  0  0  0
   -3.0933   -1.6048   -2.0101 C   0  0  0  0  0  0  0  0  0  0  0  0
   -2.4851   -1.4547   -2.9144 H   0  0  0  0  0  0  0  0  0  0  0  0
   -4.7177   -0.3370   -2.6947 H   0  0  0  0  0  0  0  0  0  0  0  0
   -6.0939   -0.6724   -0.6233 H   0  0  0  0  0  0  0  0  0  0  0  0
   -5.2295   -2.1472    1.2109 H   0  0  0  0  0  0  0  0  0  0  0  0
   -3.0083   -3.2704    0.9726 H   0  0  0  0  0  0  0  0  0  0  0  0
   -1.1746   -3.9254   -0.3711 H   0  0  0  0  0  0  0  0  0  0  0  0
   -1.2116   -3.6185   -2.1253 H   0  0  0  0  0  0  0  0  0  0  0  0
  1  2  1  0  0  0  0
  3  2  1  0  0  0  0
  3  4  1  0  0  0  0
  3 10  1  0  0  0  0
  4  5  1  0  0  0  0
  5  6  2  0  0  0  0
  5 12  1  0  0  0  0
  6 13  1  0  0  0  0
  7 14  1  0  0  0  0
  7  6  1  0  0  0  0
  8  7  2  0  0  0  0
  9  8  1  0  0  0  0
  9  4  2  0  0  0  0
 11  3  1  0  0  0  0
 15  8  1  0  0  0  0
 16  9  1  0  0  0  0
 17  2  1  0  0  0  0
 17 18  1  0  0  0  0
 17 29  1  0  0  0  0
 18 19  1  0  0  0  0
 19 20  2  0  0  0  0
 19 28  1  0  0  0  0
 20 27  1  0  0  0  0
 21 26  1  0  0  0  0
 21 20  1  0  0  0  0
 22 21  2  0  0  0  0
 23 22  1  0  0  0  0
 23 18  2  0  0  0  0
 24 23  1  0  0  0  0
 25 22  1  0  0  0  0
 30 17  1  0  0  0  0
M  END
