1
q = 0.0, confidence = 0.976

 21 21  0  0  0  0  0  0  0  0999 V2000
   -0.9045    0.8283   -1.1759 O   0  5  0  0  0  0  0  0  0  0  0  0
    0.1992    2.7760   -1.6127 O   0  0  0  0  0  0  0  0  0  0  0  0
   -5.4674   -0.9105   -1.9336 O   0  0  0  0  0  0  0  0  0  0  0  0
   -2.9960    2.0604   -0.1469 N   0  0  0  0  0  0  0  0  0  0  0  0
   -4.4300   -2.3711   -0.4749 N   0  0  0  0  0  0  0  0  0  0  0  0
   -0.7754    2.0952   -1.2707 C   0  0  0  0  0  0  0  0  0  0  0  0
   -2.0740    2.9060   -0.9085 C   0  0  0  0  0  0  0  0  0  0  0  0
   -3.6060    1.0426   -0.8088 C   0  0  0  0  0  3  0  0  0  0  0  0
   -4.2044   -0.0055   -0.1194 C   0  0  0  0  0  0  0  0  0  0  0  0
   -4.1968    0.0198    1.2870 C   0  0  0  0  0  0  0  0  0  0  0  0
   -3.6342    1.1191    1.9506 C   0  0  0  0  0  0  0  0  0  0  0  0
   -2.9991    2.1118    1.2148 C   0  0  0  0  0  0  0  0  0  0  0  0
   -4.7734   -1.1405   -0.9458 C   0  0  0  0  0  0  0  0  0  0  0  0
   -2.5673    3.2456   -1.8398 H   0  0  0  0  0  0  0  0  0  0  0  0
   -1.7840    3.7779   -0.2998 H   0  0  0  0  0  0  0  0  0  0  0  0
   -3.5702    1.0622   -1.9056 H   0  0  0  0  0  0  0  0  0  0  0  0
   -4.6332   -0.8152    1.8522 H   0  0  0  0  0  0  0  0  0  0  0  0
   -3.6121    1.1746    3.0469 H   0  0  0  0  0  0  0  0  0  0  0  0
   -2.4041    2.9130    1.6690 H   0  0  0  0  0  0  0  0  0  0  0  0
   -3.5829   -2.4574    0.1171 H   0  0  0  0  0  0  0  0  0  0  0  0
   -4.6914   -3.1696   -1.0575 H   0  0  0  0  0  0  0  0  0  0  0  0
  2  6  2  0  0  0  0
  3 13  2  0  0  0  0
  4 12  1  0  0  0  0
  5 20  1  0  0  0  0
  6  1  1  0  0  0  0
  6  7  1  0  0  0  0
  7 15  1  0  0  0  0
  7  4  1  0  0  0  0
  8  4  1  0  0  0  0
  8  9  1  0  0  0  0
  9 10  2  0  0  0  0
 10 17  1  0  0  0  0
 10 11  1  0  0  0  0
 11 18  1  0  0  0  0
 12 19  1  0  0  0  0
 12 11  2  0  0  0  0
 13  5  1  0  0  0  0
 13  9  1  0  0  0  0
 14  7  1  0  0  0  0
 16  8  1  0  0  0  0
 21  5  1  0  0  0  0
M  CHG  1   1  -1
M  END
