2
q = -1.0

 15 15  0  0  1  0  0  0  0  0999 V2000
   -7.2717   -0.2675    0.1499 S   0  0  0  0  0  0  0  0  0  0  0  0
   -1.5423    1.2154   -0.5590 O   0  0  0  0  0  1  0  0  0  0  0  0
   -7.6414   -1.1324   -1.0063 O   0  0  0  0  0  1  0  0  0  0  0  0
   -7.0534   -0.9854    1.4450 O   0  0  0  0  0  1  0  0  0  0  0  0
   -7.9321    1.0670    0.2367 O   0  0  0  0  0  1  0  0  0  0  0  0
   -3.2267   -0.5340   -0.6676 C   0  0  0  0  0  0  0  0  0  0  0  0
   -2.4813   -1.2979   -0.9354 H   0  0  0  0  0  0  0  0  0  0  0  0
   -2.7782    0.8138   -0.5248 C   0  0  1  0  0  3  0  0  0  0  0  0
   -3.7541    1.7581   -0.3126 N   0  0  0  0  0  0  0  0  0  0  0  0
   -5.0875    1.4748   -0.1678 C   0  0  0  0  0  0  0  0  0  0  0  0
   -5.7898    2.3032    0.0137 H   0  0  0  0  0  0  0  0  0  0  0  0
   -5.5238    0.1667   -0.2330 C   0  0  0  0  0  0  0  0  0  0  0  0
   -4.5778   -0.8427   -0.5209 C   0  0  0  0  0  0  0  0  0  0  0  0
   -4.9456   -1.8758   -0.6322 H   0  0  0  0  0  0  0  0  0  0  0  0
   -3.4321    2.7311   -0.2566 H   0  0  0  0  0  0  0  0  0  0  0  0
  1  5  1  0  0  0  0
  1  4  1  0  0  0  0
  3  1  1  0  0  0  0
  6  8  1  0  0  0  0
  6 13  2  0  0  0  0
  7  6  1  0  0  0  0
  8  2  1  1  0  0  0
  8  9  1  0  0  0  0
  9 15  1  0  0  0  0
  9 10  1  0  0  0  0
 10 11  1  0  0  0  0
 12 10  2  0  0  0  0
 12  1  1  0  0  0  0
 13 12  1  0  0  0  0
 14 13  1  0  0  0  0
M  END
