1
q = 1.0

 43 46  0  0  1  0  0  0  0  0999 V2000
    1.8581    0.2462   -1.6275 O   0  0  0  0  0  1  0  0  0  0  0  0
   -0.2899    0.7940   -1.1104 N   0  0  2  0  0  0  0  0  0  0  0  0
   -3.5396   -0.6572   -0.1551 N   0  3  1  0  0  0  0  0  0  0  0  0
    1.0367    1.1195   -1.3077 C   0  0  2  0  0  3  0  0  0  0  0  0
    1.4570    2.5557   -1.1323 C   0  0  0  0  0  0  0  0  0  0  0  0
    2.2294    2.7533   -1.9003 H   0  0  0  0  0  0  0  0  0  0  0  0
    1.9874    2.5780   -0.1537 H   0  0  0  0  0  0  0  0  0  0  0  0
    0.2858    3.5303   -1.1714 C   0  0  0  0  0  0  0  0  0  0  0  0
    0.6192    4.5565   -0.9181 H   0  0  0  0  0  0  0  0  0  0  0  0
   -0.1439    3.5790   -2.1965 H   0  0  0  0  0  0  0  0  0  0  0  0
   -0.7683    3.0600   -0.1731 C   0  0  0  0  0  0  0  0  0  0  0  0
   -1.6181    3.7700   -0.1241 H   0  0  0  0  0  0  0  0  0  0  0  0
   -0.3027    3.0189    0.8345 H   0  0  0  0  0  0  0  0  0  0  0  0
   -1.3072    1.6566   -0.5029 C   0  0  2  0  0  0  0  0  0  0  0  0
   -2.1275    1.7634   -1.2634 H   0  0  0  0  0  0  0  0  0  0  0  0
   -1.8700    0.9990    0.7942 C   0  0  2  0  0  0  0  0  0  0  0  0
   -0.9974    0.9794    1.4909 H   0  0  0  0  0  0  0  0  0  0  0  0
   -2.2204   -0.4825    0.6393 C   0  0  2  0  0  0  0  0  0  0  0  0
   -2.4622   -0.9124    1.6363 H   0  0  0  0  0  0  0  0  0  0  0  0
   -1.1097   -1.2796   -0.0341 C   0  0  2  0  0  0  0  0  0  0  0  0
   -0.2299   -1.2203    0.6458 H   0  0  0  0  0  0  0  0  0  0  0  0
   -0.6792   -0.5887   -1.3345 C   0  0  0  0  0  0  0  0  0  0  0  0
    0.2079   -1.1189   -1.7345 H   0  0  0  0  0  0  0  0  0  0  0  0
   -1.4822   -0.6100   -2.1167 H   0  0  0  0  0  0  0  0  0  0  0  0
   -1.4807   -2.7515   -0.2284 C   0  0  0  0  0  0  0  0  0  0  0  0
   -0.6368   -3.2619   -0.7330 H   0  0  0  0  0  0  0  0  0  0  0  0
   -1.5687   -3.2307    0.7704 H   0  0  0  0  0  0  0  0  0  0  0  0
   -2.7999   -2.9088   -0.9888 C   0  0  0  0  0  0  0  0  0  0  0  0
   -2.6964   -2.5868   -2.0478 H   0  0  0  0  0  0  0  0  0  0  0  0
   -3.1234   -3.9690   -1.0265 H   0  0  0  0  0  0  0  0  0  0  0  0
   -3.9106   -2.1113   -0.3189 C   0  0  0  0  0  0  0  0  0  0  0  0
   -4.8645   -2.1379   -0.8835 H   0  0  0  0  0  0  0  0  0  0  0  0
   -4.1073   -2.4836    0.7075 H   0  0  0  0  0  0  0  0  0  0  0  0
   -4.6756    0.1319    0.4362 C   0  0  0  0  0  0  0  0  0  0  0  0
   -4.8854   -0.3382    1.4189 H   0  0  0  0  0  0  0  0  0  0  0  0
   -5.5589   -0.0291   -0.2141 H   0  0  0  0  0  0  0  0  0  0  0  0
   -4.3254    1.6040    0.6004 C   0  0  0  0  0  0  0  0  0  0  0  0
   -4.2249    2.0801   -0.3992 H   0  0  0  0  0  0  0  0  0  0  0  0
   -5.1863    2.1029    1.0902 H   0  0  0  0  0  0  0  0  0  0  0  0
   -3.0407    1.7703    1.4184 C   0  0  0  0  0  0  0  0  0  0  0  0
   -3.2116    1.3825    2.4462 H   0  0  0  0  0  0  0  0  0  0  0  0
   -2.7915    2.8419    1.5352 H   0  0  0  0  0  0  0  0  0  0  0  0
   -3.3375   -0.2774   -1.1000 H   0  0  0  0  0  0  0  0  0  0  0  0
  2 22  1  1  0  0  0
  2 14  1  0  0  0  0
  3 43  1  6  0  0  0
  3 34  1  0  0  0  0
  3 18  1  0  0  0  0
  4  1  1  6  0  0  0
  4  5  1  0  0  0  0
  4  2  1  0  0  0  0
  5  7  1  0  0  0  0
  6  5  1  0  0  0  0
  8  5  1  0  0  0  0
  8  9  1  0  0  0  0
  8 11  1  0  0  0  0
 10  8  1  0  0  0  0
 11 12  1  0  0  0  0
 11 13  1  0  0  0  0
 14 15  1  6  0  0  0
 14 11  1  0  0  0  0
 14 16  1  0  0  0  0
 16 40  1  0  0  0  0
 16 17  1  1  0  0  0
 18 16  1  0  0  0  0
 18 19  1  1  0  0  0
 20 18  1  0  0  0  0
 20 21  1  1  0  0  0
 22 20  1  0  0  0  0
 23 22  1  0  0  0  0
 24 22  1  0  0  0  0
 25 20  1  0  0  0  0
 25 27  1  0  0  0  0
 26 25  1  0  0  0  0
 28 31  1  0  0  0  0
 28 25  1  0  0  0  0
 29 28  1  0  0  0  0
 30 28  1  0  0  0  0
 31  3  1  0  0  0  0
 31 33  1  0  0  0  0
 32 31  1  0  0  0  0
 34 37  1  0  0  0  0
 34 35  1  0  0  0  0
 36 34  1  0  0  0  0
 37 39  1  0  0  0  0
 37 40  1  0  0  0  0
 38 37  1  0  0  0  0
 40 42  1  0  0  0  0
 40 41  1  0  0  0  0
M  END
