1
q = 0.0, confidence = 1.0

 14 13  0  0  0  0  0  0  0  0999 V2000
   -1.6041   -0.3492   -1.3728 O   0  5  0  0  0  0  0  0  0  0  0  0
   -1.7821   -2.6257   -1.3733 N   0  0  0  0  0  4  0  0  0  0  0  0
   -3.6163   -1.2918   -0.7671 N   0  0  0  0  0  0  0  0  0  0  0  0
   -2.3131   -1.3824   -1.1672 C   0  0  0  0  0  0  0  0  0  0  0  0
   -4.1845   -0.0113   -0.3721 C   0  0  0  0  0  0  0  0  0  0  0  0
   -4.3744   -2.4776   -0.3971 C   0  0  0  0  0  0  0  0  0  0  0  0
   -2.1349   -3.3887   -0.7938 H   0  0  0  0  0  0  0  0  0  0  0  0
   -0.7502   -2.6108   -1.4333 H   0  0  0  0  0  0  0  0  0  0  0  0
   -3.4698    0.7927   -0.6079 H   0  0  0  0  0  0  0  0  0  0  0  0
   -5.1392    0.1684   -0.9103 H   0  0  0  0  0  0  0  0  0  0  0  0
   -4.3683    0.0049    0.7235 H   0  0  0  0  0  0  0  0  0  0  0  0
   -4.1155   -2.8099    0.6341 H   0  0  0  0  0  0  0  0  0  0  0  0
   -5.4546   -2.2387   -0.4227 H   0  0  0  0  0  0  0  0  0  0  0  0
   -4.1979   -3.2971   -1.1207 H   0  0  0  0  0  0  0  0  0  0  0  0
  1  4  1  0  0  0  0
  2  4  2  0  0  0  0
  2  7  1  0  0  0  0
  3  6  1  0  0  0  0
  3  5  1  0  0  0  0
  4  3  1  0  0  0  0
  5 11  1  0  0  0  0
  6 12  1  0  0  0  0
  8  2  1  0  0  0  0
  9  5  1  0  0  0  0
 10  5  1  0  0  0  0
 13  6  1  0  0  0  0
 14  6  1  0  0  0  0
M  CHG  1   1  -1
M  END
