3
q = -1.0

 28 29  0  0  0  0  0  0  0  0999 V2000
   -1.7809    2.1975   -0.1018 S   0  0  0  0  0  0  0  0  0  0  0  0
    2.6688    2.7164   -0.0110 O   0  0  0  0  0  0  0  0  0  0  0  0
    0.2409    0.0488    0.0006 O   0  5  0  0  0  0  0  0  0  0  0  0
    6.3170   -2.4064    0.0894 O   0  0  0  0  0  0  0  0  0  0  0  0
    2.1688    1.4403   -0.0140 C   0  0  0  0  0  0  0  0  0  0  0  0
    0.7624    1.2403   -0.0316 C   0  0  0  0  0  0  0  0  0  0  0  0
   -0.0811    2.4170   -0.0573 C   0  0  0  0  0  0  0  0  0  0  0  0
    0.5262    3.7018   -0.0401 C   0  0  0  0  0  0  0  0  0  0  0  0
   -0.0954    4.6076   -0.0568 H   0  0  0  0  0  0  0  0  0  0  0  0
    1.8978    3.8189   -0.0207 C   0  0  0  0  0  0  0  0  0  0  0  0
    2.6878    5.0857   -0.0243 C   0  0  0  0  0  0  0  0  0  0  0  0
    3.3488    5.1433    0.8656 H   0  0  0  0  0  0  0  0  0  0  0  0
    2.0149    5.9619   -0.0230 H   0  0  0  0  0  0  0  0  0  0  0  0
    3.3403    5.1412   -0.9207 H   0  0  0  0  0  0  0  0  0  0  0  0
    3.2057    0.4192    0.0102 C   0  0  0  0  0  0  0  0  0  0  0  0
    2.9107   -0.9570   -0.1671 C   0  0  0  0  0  0  0  0  0  0  0  0
    1.8676   -1.2514   -0.3347 H   0  0  0  0  0  0  0  0  0  0  0  0
    3.9218   -1.9249   -0.1492 C   0  0  0  0  0  0  0  0  0  0  0  0
    3.6482   -2.9779   -0.2998 H   0  0  0  0  0  0  0  0  0  0  0  0
    5.2652   -1.5459    0.0504 C   0  0  0  0  0  0  0  0  0  0  0  0
    5.5753   -0.1772    0.2246 C   0  0  0  0  0  0  0  0  0  0  0  0
    6.6278    0.1028    0.3768 H   0  0  0  0  0  0  0  0  0  0  0  0
    4.5692    0.7819    0.2021 C   0  0  0  0  0  0  0  0  0  0  0  0
    4.8300    1.8403    0.3366 H   0  0  0  0  0  0  0  0  0  0  0  0
    6.0638   -3.7871   -0.0911 C   0  0  0  0  0  0  0  0  0  0  0  0
    5.6110   -3.9992   -1.0856 H   0  0  0  0  0  0  0  0  0  0  0  0
    5.3917   -4.1923    0.6985 H   0  0  0  0  0  0  0  0  0  0  0  0
    7.0430   -4.2966   -0.0257 H   0  0  0  0  0  0  0  0  0  0  0  0
  1  7  2  0  0  0  0
  5  2  1  0  0  0  0
  5 15  1  0  0  0  0
  6  5  2  0  0  0  0
  6  3  1  0  0  0  0
  7  8  1  0  0  0  0
  7  6  1  0  0  0  0
  8 10  2  0  0  0  0
  9  8  1  0  0  0  0
 10  2  1  0  0  0  0
 11 13  1  0  0  0  0
 11 10  1  0  0  0  0
 11 12  1  0  0  0  0
 14 11  1  0  0  0  0
 15 23  1  0  0  0  0
 16 18  1  0  0  0  0
 16 15  2  0  0  0  0
 17 16  1  0  0  0  0
 18 20  2  0  0  0  0
 19 18  1  0  0  0  0
 20  4  1  0  0  0  0
 20 21  1  0  0  0  0
 21 22  1  0  0  0  0
 23 21  2  0  0  0  0
 23 24  1  0  0  0  0
 25 28  1  0  0  0  0
 25  4  1  0  0  0  0
 25 27  1  0  0  0  0
 26 25  1  0  0  0  0
M  CHG  1   3  -1
M  END
