3
q = -1.0, confidence = 0.0

 14 14  0  0  0  0  0  0  0  0999 V2000
   -7.0824   -3.1505    0.1048 Br  0  0  0  0  0  0  0  0  0  0  0  0
   -1.0083   -1.5519   -2.7043 O   0  5  0  0  0  0  0  0  0  0  0  0
   -0.4939   -1.2242   -0.5287 O   0  0  0  0  0  0  0  0  0  0  0  0
   -3.5718   -2.4881   -2.0539 C   0  0  0  0  0  0  0  0  0  0  0  0
   -3.2262   -2.5357   -3.0969 H   0  0  0  0  0  0  0  0  0  0  0  0
   -4.3970   -2.2912    0.6278 C   0  0  0  0  0  0  0  0  0  0  0  0
   -4.7374   -2.1998    1.6686 H   0  0  0  0  0  0  0  0  0  0  0  0
   -5.2893   -2.7190   -0.3693 C   0  0  0  0  0  0  0  0  0  0  0  0
   -1.2849   -1.5938   -1.4745 C   0  0  0  0  0  0  0  0  0  0  0  0
   -2.6613   -2.0544   -1.0718 C   0  0  0  0  0  0  0  0  0  0  0  0
   -4.8863   -2.8271   -1.7113 C   0  0  0  0  0  0  0  0  0  0  0  0
   -5.6015   -3.1638   -2.4751 H   0  0  0  0  0  0  0  0  0  0  0  0
   -3.0832   -1.9675    0.2685 C   0  0  0  0  0  0  0  0  0  0  0  0
   -2.3681   -1.6069    1.0218 H   0  0  0  0  0  0  0  0  0  0  0  0
  2  9  1  0  0  0  0
  4 11  2  0  0  0  0
  4 10  1  0  0  0  0
  5  4  1  0  0  0  0
  6  7  1  0  0  0  0
  8  1  1  0  0  0  0
  8  6  2  0  0  0  0
  9 10  1  0  0  0  0
  9  3  2  0  0  0  0
 10 13  2  0  0  0  0
 11  8  1  0  0  0  0
 12 11  1  0  0  0  0
 13  6  1  0  0  0  0
 13 14  1  0  0  0  0
M  CHG  1   2  -1
M  END
