1
q = -1.0

 14 13  0  0  0  0  0  0  0  0999 V2000
   -1.6853   -0.9544    0.7297 O   0  5  0  0  0  0  0  0  0  0  0  0
   -2.5461   -0.7240   -1.3534 O   0  0  0  0  0  0  0  0  0  0  0  0
   -3.7951   -1.4842    0.4064 O   0  0  0  0  0  0  0  0  0  0  0  0
   -2.6290   -1.0260   -0.1505 C   0  0  0  0  0  0  0  0  0  0  0  0
   -4.9424   -1.5702   -0.4695 C   0  0  0  0  0  0  0  0  0  0  0  0
   -4.5767   -1.8670   -1.4757 H   0  0  0  0  0  0  0  0  0  0  0  0
   -5.6167   -0.2051   -0.5770 C   0  0  0  0  0  0  0  0  0  0  0  0
   -5.9370    0.1528    0.4231 H   0  0  0  0  0  0  0  0  0  0  0  0
   -6.5098   -0.2596   -1.2319 H   0  0  0  0  0  0  0  0  0  0  0  0
   -4.9154    0.5313   -1.0153 H   0  0  0  0  0  0  0  0  0  0  0  0
   -5.8455   -2.6483    0.1133 C   0  0  0  0  0  0  0  0  0  0  0  0
   -5.3059   -3.6131    0.1838 H   0  0  0  0  0  0  0  0  0  0  0  0
   -6.7406   -2.7917   -0.5241 H   0  0  0  0  0  0  0  0  0  0  0  0
   -6.1838   -2.3673    1.1316 H   0  0  0  0  0  0  0  0  0  0  0  0
  2  4  2  0  0  0  0
  4  3  1  0  0  0  0
  4  1  1  0  0  0  0
  5 11  1  0  0  0  0
  5  3  1  0  0  0  0
  6  5  1  0  0  0  0
  7  5  1  0  0  0  0
  7  8  1  0  0  0  0
  9  7  1  0  0  0  0
 10  7  1  0  0  0  0
 11 12  1  0  0  0  0
 11 14  1  0  0  0  0
 13 11  1  0  0  0  0
M  CHG  1   1  -1
M  END
