2
q = 0.0, confidence = 0.996

 40 43  0  0  1  0  0  0  0  0999 V2000
    0.1521    0.8593    0.3092 P   0  0  0  0  0  0  0  0  0  0  0  0
    0.1150   -1.8718   -0.6695 O   0  5  0  0  0  0  0  0  0  0  0  0
    1.3091   -1.4796   -0.4699 C   0  0  0  0  0  0  0  0  0  0  0  0
    2.3443   -2.3406   -0.7017 N   0  0  0  0  0  0  0  0  0  0  0  0
    2.0874   -3.2635   -1.0690 H   0  0  0  0  0  0  0  0  0  0  0  0
    3.6860   -2.0304   -0.5367 C   0  0  1  0  0  3  0  0  0  0  0  0
    4.6925   -2.9758   -0.8185 C   0  0  0  0  0  0  0  0  0  0  0  0
    4.4191   -3.9814   -1.1720 H   0  0  0  0  0  0  0  0  0  0  0  0
    6.0310   -2.6194   -0.6503 C   0  0  0  0  0  0  0  0  0  0  0  0
    6.8160   -3.3570   -0.8735 H   0  0  0  0  0  0  0  0  0  0  0  0
    6.3897   -1.3276   -0.2006 C   0  0  0  0  0  0  0  0  0  0  0  0
    7.4501   -1.0668   -0.0747 H   0  0  0  0  0  0  0  0  0  0  0  0
    5.4002   -0.3904    0.0799 C   0  0  0  0  0  0  0  0  0  0  0  0
    5.6646    0.6189    0.4293 H   0  0  0  0  0  0  0  0  0  0  0  0
    4.0287   -0.7184   -0.0803 C   0  0  0  0  0  0  0  0  0  0  0  0
    2.9651    0.2015    0.1995 C   0  0  0  0  0  0  0  0  0  0  0  0
    3.2175    1.2130    0.5574 H   0  0  0  0  0  0  0  0  0  0  0  0
    1.6499   -0.1586    0.0174 C   0  0  0  0  0  0  0  0  0  0  0  0
    0.5896    2.6039   -0.0152 C   0  0  0  0  0  0  0  0  0  0  0  0
    0.2797    3.1987   -1.2553 C   0  0  0  0  0  0  0  0  0  0  0  0
   -0.2078    2.5976   -2.0367 H   0  0  0  0  0  0  0  0  0  0  0  0
    0.6367    4.5343   -1.4916 C   0  0  0  0  0  0  0  0  0  0  0  0
    0.3946    4.9969   -2.4600 H   0  0  0  0  0  0  0  0  0  0  0  0
    1.3032    5.2765   -0.5035 C   0  0  0  0  0  0  0  0  0  0  0  0
    1.5802    6.3241   -0.6947 H   0  0  0  0  0  0  0  0  0  0  0  0
    1.6154    4.6835    0.7307 C   0  0  0  0  0  0  0  0  0  0  0  0
    2.1346    5.2637    1.5081 H   0  0  0  0  0  0  0  0  0  0  0  0
    1.2573    3.3512    0.9818 C   0  0  0  0  0  0  0  0  0  0  0  0
    1.4825    2.8992    1.9597 H   0  0  0  0  0  0  0  0  0  0  0  0
   -0.1233    0.7911    2.1219 C   0  0  0  0  0  0  0  0  0  0  0  0
   -1.0655    1.6733    2.6972 C   0  0  0  0  0  0  0  0  0  0  0  0
   -1.5332    2.4597    2.0843 H   0  0  0  0  0  0  0  0  0  0  0  0
   -1.3870    1.5700    4.0574 C   0  0  0  0  0  0  0  0  0  0  0  0
   -2.1159    2.2652    4.5002 H   0  0  0  0  0  0  0  0  0  0  0  0
   -0.7723    0.5897    4.8556 C   0  0  0  0  0  0  0  0  0  0  0  0
   -1.0243    0.5122    5.9237 H   0  0  0  0  0  0  0  0  0  0  0  0
    0.1714   -0.2811    4.2907 C   0  0  0  0  0  0  0  0  0  0  0  0
    0.6637   -1.0418    4.9147 H   0  0  0  0  0  0  0  0  0  0  0  0
    0.4956   -0.1847    2.9281 C   0  0  0  0  0  0  0  0  0  0  0  0
    1.2396   -0.8696    2.4952 H   0  0  0  0  0  0  0  0  0  0  0  0
  1 30  1  0  0  0  0
  2  3  1  0  0  0  0
  3 18  2  0  0  0  0
  4  6  1  0  0  0  0
  4  3  1  0  0  0  0
  5  4  1  0  0  0  0
  6  7  1  6  0  0  0
  6 15  1  0  0  0  0
  7  9  2  0  0  0  0
  8  7  1  0  0  0  0
  9 11  1  0  0  0  0
 10  9  1  0  0  0  0
 11 12  1  0  0  0  0
 11 13  2  0  0  0  0
 13 14  1  0  0  0  0
 15 13  1  0  0  0  0
 15 16  2  0  0  0  0
 16 17  1  0  0  0  0
 18 16  1  0  0  0  0
 18  1  1  0  0  0  0
 19  1  1  0  0  0  0
 19 28  1  0  0  0  0
 20 19  2  0  0  0  0
 21 20  1  0  0  0  0
 22 20  1  0  0  0  0
 22 24  2  0  0  0  0
 23 22  1  0  0  0  0
 24 26  1  0  0  0  0
 25 24  1  0  0  0  0
 26 28  2  0  0  0  0
 26 27  1  0  0  0  0
 28 29  1  0  0  0  0
 30 31  2  0  0  0  0
 30 39  1  0  0  0  0
 31 33  1  0  0  0  0
 32 31  1  0  0  0  0
 33 34  1  0  0  0  0
 33 35  2  0  0  0  0
 35 36  1  0  0  0  0
 37 35  1  0  0  0  0
 37 38  1  0  0  0  0
 39 37  2  0  0  0  0
 40 39  1  0  0  0  0
M  CHG  1   2  -1
M  END
