1
q = 0.0, confidence = 0.998

 14 13  0  0  1  0  0  0  0  0999 V2000
    0.0494   -0.9766    1.7672 O   0  0  0  0  0  1  0  0  0  0  0  0
    0.2554   -0.3911    3.9168 O   0  0  0  0  0  0  0  0  0  0  0  0
   -1.9537   -0.3985    3.0080 C   0  0  0  0  0  0  0  0  0  0  0  0
   -0.4884   -0.6257    2.8396 C   0  0  1  0  0  3  0  0  0  0  0  0
    1.7067   -0.3956    3.7503 C   0  0  0  0  0  0  0  0  0  0  0  0
    2.1979    0.9106    3.1538 C   0  0  0  0  0  0  0  0  0  0  0  0
   -2.2168    0.5827    2.5566 H   0  0  0  0  0  0  0  0  0  0  0  0
   -2.2239   -0.3826    4.0785 H   0  0  0  0  0  0  0  0  0  0  0  0
   -2.5322   -1.1695    2.4663 H   0  0  0  0  0  0  0  0  0  0  0  0
    2.0859   -0.5546    4.7772 H   0  0  0  0  0  0  0  0  0  0  0  0
    1.9913   -1.2614    3.1194 H   0  0  0  0  0  0  0  0  0  0  0  0
    1.8078    1.0597    2.1295 H   0  0  0  0  0  0  0  0  0  0  0  0
    3.3026    0.8871    3.0832 H   0  0  0  0  0  0  0  0  0  0  0  0
    1.9007    1.7763    3.7772 H   0  0  0  0  0  0  0  0  0  0  0  0
  3  8  1  0  0  0  0
  4  1  1  6  0  0  0
  4  3  1  0  0  0  0
  4  2  1  0  0  0  0
  5  2  1  0  0  0  0
  5 10  1  0  0  0  0
  6  5  1  0  0  0  0
  6 14  1  0  0  0  0
  7  3  1  0  0  0  0
  9  3  1  0  0  0  0
 11  5  1  0  0  0  0
 12  6  1  0  0  0  0
 13  6  1  0  0  0  0
M  END
