1
q = -1.0

 20 20  0  0  0  0  0  0  0  0999 V2000
    0.7557    2.0941    0.0014 O   0  5  0  0  0  0  0  0  0  0  0  0
    2.0886    2.1584    0.0006 C   0  0  0  0  0  0  0  0  0  0  0  0
    2.9271    1.0126   -0.0005 C   0  0  0  0  0  0  0  0  0  0  0  0
    2.4519    0.0215   -0.0008 H   0  0  0  0  0  0  0  0  0  0  0  0
    4.3258    1.1711   -0.0013 C   0  0  0  0  0  0  0  0  0  0  0  0
    4.9147    2.4472   -0.0009 C   0  0  0  0  0  0  0  0  0  0  0  0
    6.0062    2.5582   -0.0015 H   0  0  0  0  0  0  0  0  0  0  0  0
    4.0795    3.5796    0.0002 C   0  0  0  0  0  0  0  0  0  0  0  0
    2.6798    3.4492    0.0010 C   0  0  0  0  0  0  0  0  0  0  0  0
    2.0031    4.3120    0.0019 H   0  0  0  0  0  0  0  0  0  0  0  0
    5.2044    0.1167   -0.0025 O   0  0  0  0  0  0  0  0  0  0  0  0
    4.6701   -1.1848   -0.0027 C   0  0  0  0  0  0  0  0  0  0  0  0
    4.0428   -1.3890    0.8957 H   0  0  0  0  0  0  0  0  0  0  0  0
    5.5312   -1.8804   -0.0036 H   0  0  0  0  0  0  0  0  0  0  0  0
    4.0417   -1.3882   -0.9006 H   0  0  0  0  0  0  0  0  0  0  0  0
    4.7280    4.7876    0.0005 O   0  0  0  0  0  0  0  0  0  0  0  0
    3.9452    5.9596    0.0019 C   0  0  0  0  0  0  0  0  0  0  0  0
    3.2939    6.0324   -0.8994 H   0  0  0  0  0  0  0  0  0  0  0  0
    4.6517    6.8119    0.0022 H   0  0  0  0  0  0  0  0  0  0  0  0
    3.2950    6.0309    0.9042 H   0  0  0  0  0  0  0  0  0  0  0  0
  2  9  1  0  0  0  0
  2  1  1  0  0  0  0
  3  2  2  0  0  0  0
  4  3  1  0  0  0  0
  5  6  2  0  0  0  0
  5  3  1  0  0  0  0
  6  8  1  0  0  0  0
  7  6  1  0  0  0  0
  8 16  1  0  0  0  0
  8  9  2  0  0  0  0
  9 10  1  0  0  0  0
 11  5  1  0  0  0  0
 12 11  1  0  0  0  0
 12 13  1  0  0  0  0
 14 12  1  0  0  0  0
 15 12  1  0  0  0  0
 16 17  1  0  0  0  0
 17 19  1  0  0  0  0
 17 20  1  0  0  0  0
 18 17  1  0  0  0  0
M  CHG  1   1  -1
M  END
