2
q = -1.0, confidence = 0.0

 30 31  0  0  1  0  0  0  0  0999 V2000
    7.3955    2.8983   -1.7042 O   0  0  0  0  0  0  0  0  0  0  0  0
    1.4607   -1.9006    1.3597 O   0  5  0  0  0  0  0  0  0  0  0  0
    3.5985   -4.6605    0.1135 C   0  0  0  0  0  0  0  0  0  0  0  0
    2.9151   -5.4834    0.3996 H   0  0  0  0  0  0  0  0  0  0  0  0
    4.6407   -4.9836    0.3056 H   0  0  0  0  0  0  0  0  0  0  0  0
    3.4638   -4.5025   -0.9735 H   0  0  0  0  0  0  0  0  0  0  0  0
    1.8648   -2.8275    0.5665 C   0  0  0  0  0  0  0  0  0  0  0  0
    4.6205   -1.8728   -0.6280 C   0  0  0  0  0  0  0  0  0  0  0  0
    4.3671   -2.5206   -1.4810 H   0  0  0  0  0  0  0  0  0  0  0  0
    6.3500    1.4352   -0.0508 C   0  0  0  0  0  0  0  0  0  0  0  0
    6.5734    2.0950    0.7985 H   0  0  0  0  0  0  0  0  0  0  0  0
    5.2165   -0.1496    1.5120 C   0  0  0  0  0  0  0  0  0  0  0  0
    5.4474    0.5179    2.3573 H   0  0  0  0  0  0  0  0  0  0  0  0
    1.2764   -3.2290   -0.4699 O   0  0  0  0  0  0  0  0  0  0  0  0
    6.4221    0.8857   -2.4326 C   0  0  0  0  0  0  0  0  0  0  0  0
    6.7377    1.1850   -3.4425 H   0  0  0  0  0  0  0  0  0  0  0  0
    5.6512    0.2184    0.2033 C   0  0  0  0  0  0  0  0  0  0  0  0
    4.5108   -1.3273    1.7281 C   0  0  0  0  0  0  0  0  0  0  0  0
    4.1643   -1.5808    2.7413 H   0  0  0  0  0  0  0  0  0  0  0  0
    3.2643   -3.3943    0.8985 C   0  0  2  0  0  0  0  0  0  0  0  0
    3.2678   -3.6039    1.9881 H   0  0  0  0  0  0  0  0  0  0  0  0
    5.3427   -0.6742   -0.8856 C   0  0  0  0  0  0  0  0  0  0  0  0
    7.7333    3.8206   -0.6854 C   0  0  0  0  0  0  0  0  0  0  0  0
    6.8288    4.2162   -0.1706 H   0  0  0  0  0  0  0  0  0  0  0  0
    8.2617    4.6563   -1.1797 H   0  0  0  0  0  0  0  0  0  0  0  0
    8.4048    3.3656    0.0771 H   0  0  0  0  0  0  0  0  0  0  0  0
    5.7504   -0.2981   -2.2024 C   0  0  0  0  0  0  0  0  0  0  0  0
    5.5156   -0.9702   -3.0422 H   0  0  0  0  0  0  0  0  0  0  0  0
    6.7307    1.7671   -1.3500 C   0  0  0  0  0  0  0  0  0  0  0  0
    4.1967   -2.2144    0.6543 C   0  0  0  0  0  0  0  0  0  0  0  0
  1 29  1  0  0  0  0
  1 23  1  0  0  0  0
  3  5  1  0  0  0  0
  3  4  1  0  0  0  0
  3 20  1  0  0  0  0
  6  3  1  0  0  0  0
  7 20  1  0  0  0  0
  7  2  1  0  0  0  0
  8 30  1  0  0  0  0
  9  8  1  0  0  0  0
 10 17  1  0  0  0  0
 10 11  1  0  0  0  0
 12 18  1  0  0  0  0
 12 13  1  0  0  0  0
 14  7  2  0  0  0  0
 15 27  2  0  0  0  0
 15 29  1  0  0  0  0
 16 15  1  0  0  0  0
 17 12  2  0  0  0  0
 18 19  1  0  0  0  0
 20 21  1  1  0  0  0
 22  8  2  0  0  0  0
 22 17  1  0  0  0  0
 23 24  1  0  0  0  0
 23 26  1  0  0  0  0
 25 23  1  0  0  0  0
 27 22  1  0  0  0  0
 28 27  1  0  0  0  0
 29 10  2  0  0  0  0
 30 20  1  0  0  0  0
 30 18  2  0  0  0  0
M  CHG  1   2  -1
M  END
