1
q = -1.0

 24 24  0  0  0  0  0  0  0  0999 V2000
    1.3811   -0.7426   -0.5783 O   0  5  0  0  0  0  0  0  0  0  0  0
    2.2655   -1.9260   -2.2974 O   0  0  0  0  0  0  0  0  0  0  0  0
    3.7517   -0.5382    0.6712 O   0  0  0  0  0  0  0  0  0  0  0  0
    2.3233   -1.3749   -1.1704 C   0  0  0  0  0  0  0  0  0  0  0  0
    3.6380   -1.5509   -0.3567 C   0  0  0  0  0  0  0  0  0  0  0  0
    3.4805   -2.8716    0.4142 C   0  0  0  0  0  0  0  0  0  0  0  0
    4.3421   -3.0029    1.0983 H   0  0  0  0  0  0  0  0  0  0  0  0
    3.4543   -3.7140   -0.3022 H   0  0  0  0  0  0  0  0  0  0  0  0
    2.5463   -2.8954    1.0055 H   0  0  0  0  0  0  0  0  0  0  0  0
    4.8949   -1.6058   -1.2303 C   0  0  0  0  0  0  0  0  0  0  0  0
    5.1333   -0.6345   -1.7011 H   0  0  0  0  0  0  0  0  0  0  0  0
    4.7373   -2.3459   -2.0360 H   0  0  0  0  0  0  0  0  0  0  0  0
    5.7639   -1.9115   -0.6152 H   0  0  0  0  0  0  0  0  0  0  0  0
    3.6731    0.7859    0.3927 C   0  0  0  0  0  0  0  0  0  0  0  0
    3.6404    1.6366    1.5229 C   0  0  0  0  0  0  0  0  0  0  0  0
    3.6739    1.1696    2.5179 H   0  0  0  0  0  0  0  0  0  0  0  0
    3.5617    3.0247    1.3706 C   0  0  0  0  0  0  0  0  0  0  0  0
    3.5394    3.6636    2.2671 H   0  0  0  0  0  0  0  0  0  0  0  0
    3.5145    3.6037    0.0890 C   0  0  0  0  0  0  0  0  0  0  0  0
    3.4636    4.6960   -0.0307 H   0  0  0  0  0  0  0  0  0  0  0  0
    3.5487    2.7624   -1.0330 C   0  0  0  0  0  0  0  0  0  0  0  0
    3.5244    3.1940   -2.0466 H   0  0  0  0  0  0  0  0  0  0  0  0
    3.6205    1.3658   -0.8964 C   0  0  0  0  0  0  0  0  0  0  0  0
    3.6301    0.7395   -1.7974 H   0  0  0  0  0  0  0  0  0  0  0  0
  2  4  2  0  0  0  0
  4  1  1  0  0  0  0
  4  5  1  0  0  0  0
  5  6  1  0  0  0  0
  5  3  1  0  0  0  0
  6  9  1  0  0  0  0
  6  7  1  0  0  0  0
  8  6  1  0  0  0  0
 10 13  1  0  0  0  0
 10  5  1  0  0  0  0
 11 10  1  0  0  0  0
 12 10  1  0  0  0  0
 14  3  1  0  0  0  0
 14 15  1  0  0  0  0
 15 16  1  0  0  0  0
 17 15  2  0  0  0  0
 17 18  1  0  0  0  0
 19 17  1  0  0  0  0
 20 19  1  0  0  0  0
 21 23  1  0  0  0  0
 21 19  2  0  0  0  0
 22 21  1  0  0  0  0
 23 14  2  0  0  0  0
 24 23  1  0  0  0  0
M  CHG  1   1  -1
M  END
