1
q = 0.0, confidence = 0.998

 19 19  0  0  1  0  0  0  0  0999 V2000
   -1.0612    0.8975    0.1529 O   0  0  0  0  0  1  0  0  0  0  0  0
   -1.7466    1.9550    0.2222 C   0  0  1  0  0  3  0  0  0  0  0  0
   -1.1008    3.3028    0.2927 C   0  0  0  0  0  0  0  0  0  0  0  0
   -0.4180    3.3181    1.1676 H   0  0  0  0  0  0  0  0  0  0  0  0
   -1.8265    4.1341    0.3556 H   0  0  0  0  0  0  0  0  0  0  0  0
   -0.4484    3.4233   -0.5974 H   0  0  0  0  0  0  0  0  0  0  0  0
   -3.0947    1.8958    0.2308 N   0  0  0  0  0  0  0  0  0  0  0  0
   -3.5652    2.8034    0.2411 H   0  0  0  0  0  0  0  0  0  0  0  0
   -3.9643    0.7756    0.1449 C   0  0  0  0  0  0  0  0  0  0  0  0
   -3.5567   -0.5398    0.4408 C   0  0  0  0  0  0  0  0  0  0  0  0
   -2.5317   -0.7545    0.7650 H   0  0  0  0  0  0  0  0  0  0  0  0
   -4.4875   -1.5813    0.3286 C   0  0  0  0  0  0  0  0  0  0  0  0
   -4.1607   -2.6063    0.5585 H   0  0  0  0  0  0  0  0  0  0  0  0
   -5.8115   -1.3314   -0.0633 C   0  0  0  0  0  0  0  0  0  0  0  0
   -6.5308   -2.1593   -0.1470 H   0  0  0  0  0  0  0  0  0  0  0  0
   -6.2144   -0.0159   -0.3430 C   0  0  0  0  0  0  0  0  0  0  0  0
   -7.2500    0.1966   -0.6471 H   0  0  0  0  0  0  0  0  0  0  0  0
   -5.2958    1.0351   -0.2414 C   0  0  0  0  0  0  0  0  0  0  0  0
   -5.6095    2.0662   -0.4718 H   0  0  0  0  0  0  0  0  0  0  0  0
  2  1  1  6  0  0  0
  2  7  1  0  0  0  0
  2  3  1  0  0  0  0
  3  5  1  0  0  0  0
  3  4  1  0  0  0  0
  6  3  1  0  0  0  0
  7  8  1  0  0  0  0
  9  7  1  0  0  0  0
  9 10  1  0  0  0  0
 10 11  1  0  0  0  0
 12 10  2  0  0  0  0
 12 13  1  0  0  0  0
 14 12  1  0  0  0  0
 15 14  1  0  0  0  0
 16 18  1  0  0  0  0
 16 14  2  0  0  0  0
 17 16  1  0  0  0  0
 18  9  2  0  0  0  0
 19 18  1  0  0  0  0
M  END
