2
q = -1.0

 18 18  0  0  0  0  0  0  0  0999 V2000
   -0.6526   -0.0885   -0.4491 N   0  0  0  0  0  0  0  0  0  0  0  0
   -0.0996   -0.4616   -1.6267 O   0  5  0  0  0  0  0  0  0  0  0  0
   -1.9006    0.2112   -0.2852 C   0  0  0  0  0  0  0  0  0  0  0  0
   -2.3865    0.5565    1.0930 C   0  0  0  0  0  0  0  0  0  0  0  0
   -3.6145   -0.3059    1.4605 C   0  0  0  0  0  0  0  0  0  0  0  0
   -4.6882   -0.2449    0.3683 C   0  0  0  0  0  0  0  0  0  0  0  0
   -4.1281   -0.6781   -0.9910 C   0  0  0  0  0  0  0  0  0  0  0  0
   -2.9024    0.1681   -1.4011 C   0  0  0  0  0  0  0  0  0  0  0  0
   -1.5682    0.4408    1.8306 H   0  0  0  0  0  0  0  0  0  0  0  0
   -2.6902    1.6284    1.0913 H   0  0  0  0  0  0  0  0  0  0  0  0
   -3.2852   -1.3590    1.6004 H   0  0  0  0  0  0  0  0  0  0  0  0
   -4.0174    0.0313    2.4364 H   0  0  0  0  0  0  0  0  0  0  0  0
   -5.0853    0.7923    0.2957 H   0  0  0  0  0  0  0  0  0  0  0  0
   -5.5485   -0.8863    0.6470 H   0  0  0  0  0  0  0  0  0  0  0  0
   -3.8279   -1.7475   -0.9469 H   0  0  0  0  0  0  0  0  0  0  0  0
   -4.9000   -0.6010   -1.7824 H   0  0  0  0  0  0  0  0  0  0  0  0
   -3.2327    1.2148   -1.5913 H   0  0  0  0  0  0  0  0  0  0  0  0
   -2.4273   -0.2034   -2.3281 H   0  0  0  0  0  0  0  0  0  0  0  0
  1  3  2  0  0  0  0
  2  1  1  0  0  0  0
  3  4  1  0  0  0  0
  4  5  1  0  0  0  0
  4  9  1  0  0  0  0
  5 11  1  0  0  0  0
  5 12  1  0  0  0  0
  6 14  1  0  0  0  0
  6  5  1  0  0  0  0
  7 15  1  0  0  0  0
  7  6  1  0  0  0  0
  8  7  1  0  0  0  0
  8  3  1  0  0  0  0
 10  4  1  0  0  0  0
 13  6  1  0  0  0  0
 16  7  1  0  0  0  0
 17  8  1  0  0  0  0
 18  8  1  0  0  0  0
M  CHG  1   2  -1
M  END
