2
q = -1.0, confidence = 0.002

 17 17  0  0  1  0  0  0  0  0999 V2000
   -0.1898   -0.2088   -0.3924 N   0  0  0  0  0  0  0  0  0  0  0  0
    0.3133   -1.0324   -1.3366 O   0  5  0  0  0  0  0  0  0  0  0  0
   -1.4844    0.1266   -0.4021 C   0  0  0  0  0  0  0  0  0  0  0  0
   -2.3988   -0.3455   -1.3541 C   0  0  0  0  0  3  0  0  0  0  0  0
   -3.7817    0.1005   -1.2420 C   0  0  0  0  0  0  0  0  0  0  0  0
   -4.2568   -0.1353    0.2683 C   0  0  1  0  0  3  0  0  0  0  0  0
   -3.2766    0.2651    1.3506 C   0  0  0  0  0  0  0  0  0  0  0  0
   -2.0271    0.9454    0.7439 C   0  0  0  0  0  0  0  0  0  0  0  0
   -5.4096   -0.6007    0.4672 N   0  0  0  0  0  2  0  0  0  0  0  0
   -6.4648   -1.0723    0.1530 O   0  0  0  0  0  1  0  0  0  0  0  0
   -2.1039   -1.1463   -2.0473 H   0  0  0  0  0  0  0  0  0  0  0  0
   -4.4782   -0.3884   -1.9456 H   0  0  0  0  0  0  0  0  0  0  0  0
   -3.9010    1.2044   -1.3309 H   0  0  0  0  0  0  0  0  0  0  0  0
   -3.7674    0.9370    2.0835 H   0  0  0  0  0  0  0  0  0  0  0  0
   -2.9667   -0.6461    1.9056 H   0  0  0  0  0  0  0  0  0  0  0  0
   -1.2550    1.0646    1.5260 H   0  0  0  0  0  0  0  0  0  0  0  0
   -2.2933    1.9634    0.3852 H   0  0  0  0  0  0  0  0  0  0  0  0
  2  1  1  0  0  0  0
  3  1  2  0  0  0  0
  3  8  1  0  0  0  0
  4  5  1  0  0  0  0
  4  3  1  0  0  0  0
  5  6  1  0  0  0  0
  6  9  1  1  0  0  0
  6  7  1  0  0  0  0
  7 15  1  0  0  0  0
  7 14  1  0  0  0  0
  8  7  1  0  0  0  0
  8 16  1  0  0  0  0
 10  9  1  0  0  0  0
 11  4  1  0  0  0  0
 12  5  1  0  0  0  0
 13  5  1  0  0  0  0
 17  8  1  0  0  0  0
M  CHG  1   2  -1
M  END
