4
q = -1.0

 23 24  0  0  0  0  0  0  0  0999 V2000
    5.1650   -2.6683   -0.1763 O   0  0  0  0  0  0  0  0  0  0  0  0
    4.1522   -2.7313   -0.0442 H   0  0  0  0  0  0  0  0  0  0  0  0
    2.7724   -2.0867    0.1278 O   0  5  0  0  0  0  0  0  0  0  0  0
    2.0701    0.0433    0.2168 O   0  0  0  0  0  0  0  0  0  0  0  0
    7.1560    0.2879   -0.5204 N   0  0  0  0  0  0  0  0  0  0  0  0
    7.8264   -2.0532   -0.5511 C   0  0  0  0  0  0  0  0  0  0  0  0
    8.8192   -1.5922   -0.6974 H   0  0  0  0  0  0  0  0  0  0  0  0
    7.5989   -2.7333   -1.3980 H   0  0  0  0  0  0  0  0  0  0  0  0
    7.8374   -2.6897    0.3579 H   0  0  0  0  0  0  0  0  0  0  0  0
    6.7895   -0.9727   -0.4373 C   0  0  0  0  0  0  0  0  0  0  0  0
    5.4078   -1.3608   -0.2394 C   0  0  0  0  0  0  0  0  0  0  0  0
    4.4060   -0.3677   -0.1218 C   0  0  0  0  0  0  0  0  0  0  0  0
    4.8114    1.0200   -0.2168 C   0  0  0  0  0  0  0  0  0  0  0  0
    6.2163    1.2812   -0.4191 C   0  0  0  0  0  0  0  0  0  0  0  0
    6.6848    2.6206   -0.5241 C   0  0  0  0  0  0  0  0  0  0  0  0
    7.7654    2.7546   -0.6775 H   0  0  0  0  0  0  0  0  0  0  0  0
    5.8092    3.6934   -0.4360 C   0  0  0  0  0  0  0  0  0  0  0  0
    6.1808    4.7258   -0.5184 H   0  0  0  0  0  0  0  0  0  0  0  0
    4.4299    3.4448   -0.2385 C   0  0  0  0  0  0  0  0  0  0  0  0
    3.7280    4.2903   -0.1668 H   0  0  0  0  0  0  0  0  0  0  0  0
    3.9392    2.1464   -0.1302 C   0  0  0  0  0  0  0  0  0  0  0  0
    2.8689    1.9743    0.0260 H   0  0  0  0  0  0  0  0  0  0  0  0
    3.0043   -0.8149    0.0824 C   0  0  0  0  0  0  0  0  0  0  0  0
  1  2  1  0  0  0  0
  5 10  2  0  0  0  0
  5 14  1  0  0  0  0
  6 10  1  0  0  0  0
  6  9  1  0  0  0  0
  7  6  1  0  0  0  0
  8  6  1  0  0  0  0
 10 11  1  0  0  0  0
 11  1  1  0  0  0  0
 11 12  2  0  0  0  0
 12 23  1  0  0  0  0
 13 21  1  0  0  0  0
 13 12  1  0  0  0  0
 14 13  2  0  0  0  0
 15 17  2  0  0  0  0
 15 14  1  0  0  0  0
 16 15  1  0  0  0  0
 17 19  1  0  0  0  0
 18 17  1  0  0  0  0
 19 20  1  0  0  0  0
 19 21  2  0  0  0  0
 21 22  1  0  0  0  0
 23  3  1  0  0  0  0
 23  4  2  0  0  0  0
M  CHG  1   3  -1
M  END
