1
q = -1.0

 19 18  0  0  0  0  0  0  0  0999 V2000
   -1.8684   -0.5302   -1.0643 O   0  5  0  0  0  0  0  0  0  0  0  0
   -1.8125   -2.7880   -0.7446 O   0  0  0  0  0  0  0  0  0  0  0  0
   -4.6658   -0.4061    0.6565 O   0  0  0  0  0  0  0  0  0  0  0  0
   -4.9468    1.5914   -0.3859 O   0  0  0  0  0  0  0  0  0  0  0  0
   -2.3861   -1.7369   -1.0638 C   0  0  0  0  0  0  0  0  0  0  0  0
   -3.8256   -1.7475   -1.5721 C   0  0  0  0  0  0  0  0  0  0  0  0
   -4.3940   -2.3969   -0.8780 H   0  0  0  0  0  0  0  0  0  0  0  0
   -3.8107   -2.2765   -2.5487 H   0  0  0  0  0  0  0  0  0  0  0  0
   -4.4774   -0.3748   -1.7194 C   0  0  0  0  0  0  0  0  0  0  0  0
   -3.8823    0.2914   -2.3729 H   0  0  0  0  0  0  0  0  0  0  0  0
   -5.4746   -0.4806   -2.1988 H   0  0  0  0  0  0  0  0  0  0  0  0
   -4.7071    0.3975   -0.4304 C   0  0  0  0  0  0  0  0  0  0  0  0
   -4.9284    0.2191    1.9379 C   0  0  0  0  0  0  0  0  0  0  0  0
   -5.7700    0.9311    1.8112 H   0  0  0  0  0  0  0  0  0  0  0  0
   -5.2577   -0.6201    2.5820 H   0  0  0  0  0  0  0  0  0  0  0  0
   -3.7009    0.9096    2.5044 C   0  0  0  0  0  0  0  0  0  0  0  0
   -2.8276    0.2303    2.5131 H   0  0  0  0  0  0  0  0  0  0  0  0
   -3.9110    1.2502    3.5388 H   0  0  0  0  0  0  0  0  0  0  0  0
   -3.4258    1.7913    1.8970 H   0  0  0  0  0  0  0  0  0  0  0  0
  1  5  1  0  0  0  0
  3 13  1  0  0  0  0
  5  2  2  0  0  0  0
  6  5  1  0  0  0  0
  6  7  1  0  0  0  0
  8  6  1  0  0  0  0
  9  6  1  0  0  0  0
  9 12  1  0  0  0  0
 10  9  1  0  0  0  0
 11  9  1  0  0  0  0
 12  4  2  0  0  0  0
 12  3  1  0  0  0  0
 13 16  1  0  0  0  0
 13 15  1  0  0  0  0
 14 13  1  0  0  0  0
 16 17  1  0  0  0  0
 16 18  1  0  0  0  0
 19 16  1  0  0  0  0
M  CHG  1   1  -1
M  END
