1
q = -1.0, confidence = 0.006

  7  6  0  0  0  0  0  0  0  0999 V2000
   -1.9079    0.9390   -1.5806 O   0  0  0  0  0  0  0  0  0  0  0  0
   -2.0948    1.2663   -0.3518 N   0  0  0  0  0  0  0  0  0  0  0  0
   -3.0881    2.0913   -0.0091 C   0  0  0  0  0  0  0  0  0  0  0  0
   -3.1601    2.8127    2.4926 N   0  0  0  0  0  0  0  0  0  0  0  0
   -3.1519    2.4790    1.3653 C   0  0  0  0  0  0  0  0  0  0  0  0
   -4.6856    3.1224   -1.7906 N   0  0  0  0  0  0  0  0  0  0  0  0
   -3.9826    2.6524   -0.9748 C   0  0  0  0  0  0  0  0  0  0  0  0
  1  2  1  0  0  0  0
  2  3  2  0  0  0  0
  3  5  1  0  0  0  0
  5  4  3  0  0  0  0
  6  7  3  0  0  0  0
  7  3  1  0  0  0  0
M  END
