25
q = -1.0, confidence = 0.0

 32 32  0  0  1  0  0  0  0  0999 V2000
   -4.9573    0.6507   -1.0176 C   0  0  0  0  0  0  0  0  0  0  0  0
   -4.6531    1.3008   -1.8527 H   0  0  0  0  0  0  0  0  0  0  0  0
   -4.6455    1.0250    0.3062 C   0  0  0  0  0  0  0  0  0  0  0  0
   -5.6265   -0.5498   -1.2795 C   0  0  0  0  0  0  0  0  0  0  0  0
   -5.8540   -0.8265   -2.3216 H   0  0  0  0  0  0  0  0  0  0  0  0
   -5.0034    0.1536    1.3510 C   0  0  0  0  0  0  0  0  0  0  0  0
   -4.7514    0.4212    2.3891 H   0  0  0  0  0  0  0  0  0  0  0  0
   -5.6784   -1.0458    1.0833 C   0  0  0  0  0  0  0  0  0  0  0  0
   -5.9560   -1.7109    1.9163 H   0  0  0  0  0  0  0  0  0  0  0  0
   -6.0045   -1.4206   -0.2349 C   0  0  0  0  0  0  0  0  0  0  0  0
   -6.7679   -2.6886   -0.5309 C   0  0  0  0  0  0  0  0  0  0  0  0
   -6.6790   -3.3895    0.3275 H   0  0  0  0  0  0  0  0  0  0  0  0
   -6.3073   -3.1988   -1.4040 H   0  0  0  0  0  0  0  0  0  0  0  0
   -9.0057   -1.8337    0.3525 C   0  0  0  0  0  0  0  0  0  0  0  0
   -8.5538   -0.8659    0.6483 H   0  0  0  0  0  0  0  0  0  0  0  0
   -8.9739   -2.5046    1.2380 H   0  0  0  0  0  0  0  0  0  0  0  0
  -10.0724   -1.6518    0.1101 H   0  0  0  0  0  0  0  0  0  0  0  0
   -8.2704   -2.4647   -0.8344 C   0  0  0  0  0  0  0  0  0  0  0  0
   -8.3274   -1.7529   -1.6898 H   0  0  0  0  0  0  0  0  0  0  0  0
   -8.9300   -3.7794   -1.2649 C   0  0  0  0  0  0  0  0  0  0  0  0
   -9.9975   -3.6287   -1.5249 H   0  0  0  0  0  0  0  0  0  0  0  0
   -8.8890   -4.5288   -0.4456 H   0  0  0  0  0  0  0  0  0  0  0  0
   -8.4242   -4.2214   -2.1477 H   0  0  0  0  0  0  0  0  0  0  0  0
   -2.3589    2.7423   -1.1552 O   0  5  0  0  0  0  0  0  0  0  0  0
   -1.6586    1.5475    0.6569 O   0  0  0  0  0  0  0  0  0  0  0  0
   -4.6902    3.5721    0.1144 C   0  0  0  0  0  0  0  0  0  0  0  0
   -5.6802    3.6149    0.6088 H   0  0  0  0  0  0  0  0  0  0  0  0
   -4.8498    3.5464   -0.9801 H   0  0  0  0  0  0  0  0  0  0  0  0
   -4.1369    4.5020    0.3522 H   0  0  0  0  0  0  0  0  0  0  0  0
   -2.5151    2.2051   -0.0146 C   0  0  0  0  0  0  0  0  0  0  0  0
   -3.9250    2.3348    0.5949 C   0  0  2  0  0  0  0  0  0  0  0  0
   -3.7479    2.3944    1.6883 H   0  0  0  0  0  0  0  0  0  0  0  0
  1  3  1  0  0  0  0
  2  1  1  0  0  0  0
  3 31  1  0  0  0  0
  3  6  2  0  0  0  0
  4  1  2  0  0  0  0
  4 10  1  0  0  0  0
  5  4  1  0  0  0  0
  6  7  1  0  0  0  0
  8  6  1  0  0  0  0
  8  9  1  0  0  0  0
 10  8  2  0  0  0  0
 11 10  1  0  0  0  0
 11 12  1  0  0  0  0
 13 11  1  0  0  0  0
 14 15  1  0  0  0  0
 14 16  1  0  0  0  0
 17 14  1  0  0  0  0
 18 11  1  0  0  0  0
 18 14  1  0  0  0  0
 19 18  1  0  0  0  0
 20 18  1  0  0  0  0
 20 22  1  0  0  0  0
 21 20  1  0  0  0  0
 23 20  1  0  0  0  0
 24 30  1  0  0  0  0
 26 29  1  0  0  0  0
 26 31  1  0  0  0  0
 26 27  1  0  0  0  0
 28 26  1  0  0  0  0
 30 31  1  0  0  0  0
 30 25  2  0  0  0  0
 31 32  1  1  0  0  0
M  CHG  1  24  -1
M  END
