1
q = -1.0

 10  9  0  0  0  0  0  0  0  0999 V2000
    0.8172   -1.8017   -0.5065 O   0  5  0  0  0  0  0  0  0  0  0  0
    0.2341   -2.7346    1.4820 O   0  0  0  0  0  0  0  0  0  0  0  0
    3.9715   -3.0323    0.2991 O   0  0  0  0  0  0  0  0  0  0  0  0
    3.2359   -3.4541   -1.7946 O   0  0  0  0  0  0  0  0  0  0  0  0
    4.1198   -3.0643   -1.9729 H   0  0  0  0  0  0  0  0  0  0  0  0
    0.8297   -2.7377    0.4011 C   0  0  0  0  0  0  0  0  0  0  0  0
    1.7360   -3.9274   -0.0031 C   0  0  0  0  0  0  0  0  0  0  0  0
    1.8539   -4.5747    0.8836 H   0  0  0  0  0  0  0  0  0  0  0  0
    1.2456   -4.4870   -0.8224 H   0  0  0  0  0  0  0  0  0  0  0  0
    3.0934   -3.4336   -0.4505 C   0  0  0  0  0  0  0  0  0  0  0  0
  1  6  1  0  0  0  0
  4 10  1  0  0  0  0
  5  4  1  0  0  0  0
  6  2  2  0  0  0  0
  7  6  1  0  0  0  0
  7  8  1  0  0  0  0
  9  7  1  0  0  0  0
 10  7  1  0  0  0  0
 10  3  2  0  0  0  0
M  CHG  1   1  -1
M  END
