1
q = -1.0, confidence = 0.002

 19 19  0  0  0  0  0  0  0  0999 V2000
   -0.0577   -1.5550    0.9344 O   0  0  0  0  0  1  0  0  0  0  0  0
    1.4441   -3.1903    1.6608 O   0  0  0  0  0  0  0  0  0  0  0  0
    5.2544   -0.3397   -2.9445 O   0  0  0  0  0  0  0  0  0  0  0  0
    2.2917   -1.6474   -0.2214 C   0  0  0  0  0  0  0  0  0  0  0  0
    2.0328   -0.7556   -1.2918 C   0  0  0  0  0  0  0  0  0  0  0  0
    3.0209   -0.3431   -2.1872 C   0  0  0  0  0  0  0  0  0  0  0  0
    4.3453   -0.8081   -2.0397 C   0  0  0  0  0  0  0  0  0  0  0  0
    4.6475   -1.6942   -0.9876 C   0  0  0  0  0  0  0  0  0  0  0  0
    3.6260   -2.0909   -0.1078 C   0  0  0  0  0  0  0  0  0  0  0  0
    6.5931   -0.7756   -2.8310 C   0  0  0  0  0  0  0  0  0  0  0  0
    1.1584   -2.1114    0.8137 B   0  0  0  0  0  0  0  0  0  0  0  0
    1.0126   -0.3373   -1.3934 H   0  0  0  0  0  0  0  0  0  0  0  0
    2.8017    0.3557   -3.0087 H   0  0  0  0  0  0  0  0  0  0  0  0
    5.6698   -2.0658   -0.8345 H   0  0  0  0  0  0  0  0  0  0  0  0
    3.9128   -2.7604    0.7226 H   0  0  0  0  0  0  0  0  0  0  0  0
    6.6841   -1.8803   -2.9402 H   0  0  0  0  0  0  0  0  0  0  0  0
    7.1549   -0.2875   -3.6494 H   0  0  0  0  0  0  0  0  0  0  0  0
    7.0475   -0.4815   -1.8570 H   0  0  0  0  0  0  0  0  0  0  0  0
    2.2985   -3.5909    1.4268 H   0  0  0  0  0  0  0  0  0  0  0  0
  3 10  1  0  0  0  0
  3  7  1  0  0  0  0
  4  9  1  0  0  0  0
  4 11  1  0  0  0  0
  5  4  2  0  0  0  0
  6  7  2  0  0  0  0
  6  5  1  0  0  0  0
  7  8  1  0  0  0  0
  8 14  1  0  0  0  0
  8  9  2  0  0  0  0
  9 15  1  0  0  0  0
 10 18  1  0  0  0  0
 11  1  1  0  0  0  0
 11  2  1  0  0  0  0
 12  5  1  0  0  0  0
 13  6  1  0  0  0  0
 16 10  1  0  0  0  0
 17 10  1  0  0  0  0
 19  2  1  0  0  0  0
M  END
