1
q = -1.0, confidence = 0.006

 32 31  0  0  0  0  0  0  0  0999 V2000
    1.1357   -1.4518   -0.0320 O   0  5  0  0  0  0  0  0  0  0  0  0
    1.1273    1.4611   -0.0338 O   0  0  0  0  0  0  0  0  0  0  0  0
    3.2339   -2.5618    0.0324 C   0  0  0  0  0  0  0  0  0  0  0  0
    2.4036   -1.2552    0.0073 C   0  0  0  0  0  0  0  0  0  0  0  0
    3.0350    0.0086    0.0263 C   0  0  0  0  0  0  0  0  0  0  0  0
    2.3910    1.2730    0.0038 C   0  0  0  0  0  0  0  0  0  0  0  0
    3.2661    2.5522    0.0307 C   0  0  0  0  0  0  0  0  0  0  0  0
    4.7511   -2.3342    0.0882 C   0  0  0  0  0  0  0  0  0  0  0  0
    2.7887   -3.3632    1.2752 C   0  0  0  0  0  0  0  0  0  0  0  0
    2.8809   -3.3530   -1.2463 C   0  0  0  0  0  0  0  0  0  0  0  0
    2.3694    3.7992   -0.0223 C   0  0  0  0  0  0  0  0  0  0  0  0
    4.0916    2.5721    1.3358 C   0  0  0  0  0  0  0  0  0  0  0  0
    4.2129    2.5523   -1.1889 C   0  0  0  0  0  0  0  0  0  0  0  0
    4.1291    0.0204    0.0607 H   0  0  0  0  0  0  0  0  0  0  0  0
    5.1188   -1.7771   -0.7969 H   0  0  0  0  0  0  0  0  0  0  0  0
    5.2745   -3.3120    0.1061 H   0  0  0  0  0  0  0  0  0  0  0  0
    5.0529   -1.7791    0.9991 H   0  0  0  0  0  0  0  0  0  0  0  0
    1.6935   -3.5215    1.2602 H   0  0  0  0  0  0  0  0  0  0  0  0
    3.0468   -2.8237    2.2096 H   0  0  0  0  0  0  0  0  0  0  0  0
    3.2921   -4.3515    1.2983 H   0  0  0  0  0  0  0  0  0  0  0  0
    3.3903   -4.3384   -1.2431 H   0  0  0  0  0  0  0  0  0  0  0  0
    3.2010   -2.8032   -2.1551 H   0  0  0  0  0  0  0  0  0  0  0  0
    1.7884   -3.5181   -1.3107 H   0  0  0  0  0  0  0  0  0  0  0  0
    1.7602    3.8176   -0.9468 H   0  0  0  0  0  0  0  0  0  0  0  0
    2.9953    4.7141    0.0040 H   0  0  0  0  0  0  0  0  0  0  0  0
    1.6688    3.8271    0.8343 H   0  0  0  0  0  0  0  0  0  0  0  0
    4.7800    1.7068    1.4045 H   0  0  0  0  0  0  0  0  0  0  0  0
    3.4304    2.5521    2.2257 H   0  0  0  0  0  0  0  0  0  0  0  0
    4.7028    3.4973    1.3847 H   0  0  0  0  0  0  0  0  0  0  0  0
    3.6407    2.5119   -2.1379 H   0  0  0  0  0  0  0  0  0  0  0  0
    4.9094    1.6910   -1.1754 H   0  0  0  0  0  0  0  0  0  0  0  0
    4.8219    3.4802   -1.1965 H   0  0  0  0  0  0  0  0  0  0  0  0
  1  4  1  0  0  0  0
  2  6  2  0  0  0  0
  3  8  1  0  0  0  0
  3  9  1  0  0  0  0
  4  5  2  0  0  0  0
  4  3  1  0  0  0  0
  5 14  1  0  0  0  0
  6  5  1  0  0  0  0
  6  7  1  0  0  0  0
  7 12  1  0  0  0  0
  8 16  1  0  0  0  0
  8 17  1  0  0  0  0
  9 20  1  0  0  0  0
  9 19  1  0  0  0  0
 10 21  1  0  0  0  0
 10  3  1  0  0  0  0
 11 25  1  0  0  0  0
 11  7  1  0  0  0  0
 11 26  1  0  0  0  0
 12 29  1  0  0  0  0
 12 27  1  0  0  0  0
 12 28  1  0  0  0  0
 13 31  1  0  0  0  0
 13  7  1  0  0  0  0
 15  8  1  0  0  0  0
 18  9  1  0  0  0  0
 22 10  1  0  0  0  0
 23 10  1  0  0  0  0
 24 11  1  0  0  0  0
 30 13  1  0  0  0  0
 32 13  1  0  0  0  0
M  CHG  1   1  -1
M  END
