1
q = -1.0, confidence = 0.01

 11 10  0  0  1  0  0  0  0  0999 V2000
   -1.7574    1.6208   -0.2254 O   0  5  0  0  0  0  0  0  0  0  0  0
   -3.4821    2.7739    0.6717 O   0  0  0  0  0  0  0  0  0  0  0  0
   -1.3522    0.1759    2.0502 O   0  0  0  0  0  0  0  0  0  0  0  0
   -2.5735    1.9530    0.7447 C   0  0  0  0  0  0  0  0  0  0  0  0
   -2.2994    1.2638    2.1204 C   0  0  1  0  0  0  0  0  0  0  0  0
   -1.8046    2.0398    2.7452 H   0  0  0  0  0  0  0  0  0  0  0  0
   -3.5968    0.8227    2.7847 C   0  0  0  0  0  0  0  0  0  0  0  0
   -3.4195    0.4625    3.8171 H   0  0  0  0  0  0  0  0  0  0  0  0
   -4.0694    0.0060    2.1985 H   0  0  0  0  0  0  0  0  0  0  0  0
   -4.3001    1.6755    2.8009 H   0  0  0  0  0  0  0  0  0  0  0  0
   -1.8496   -0.6385    1.7626 H   0  0  0  0  0  0  0  0  0  0  0  0
  1  4  1  0  0  0  0
  2  4  2  0  0  0  0
  3  5  1  0  0  0  0
  4  5  1  0  0  0  0
  5  6  1  1  0  0  0
  5  7  1  0  0  0  0
  7 10  1  0  0  0  0
  7  8  1  0  0  0  0
  9  7  1  0  0  0  0
 11  3  1  0  0  0  0
M  CHG  1   1  -1
M  END
