1
q = -1.0

 23 24  0  0  0  0  0  0  0  0999 V2000
   -0.3832    1.3488    0.7781 O   0  5  0  0  0  0  0  0  0  0  0  0
   -2.9118    0.2476    1.0286 O   0  0  0  0  0  0  0  0  0  0  0  0
   -1.4500    2.0797    0.4286 C   0  0  0  0  0  0  0  0  0  0  0  0
   -2.7512    1.5253    0.5215 C   0  0  0  0  0  0  0  0  0  0  0  0
   -3.8692    2.2782    0.1364 C   0  0  0  0  0  0  0  0  0  0  0  0
   -4.8639    1.8155    0.2157 H   0  0  0  0  0  0  0  0  0  0  0  0
   -3.7079    3.5892   -0.3338 C   0  0  0  0  0  0  0  0  0  0  0  0
   -4.5898    4.1761   -0.6299 H   0  0  0  0  0  0  0  0  0  0  0  0
   -2.4198    4.1461   -0.4228 C   0  0  0  0  0  0  0  0  0  0  0  0
   -2.2865    5.1728   -0.7950 H   0  0  0  0  0  0  0  0  0  0  0  0
   -1.2977    3.4003   -0.0466 C   0  0  0  0  0  0  0  0  0  0  0  0
   -0.2770    3.8013   -0.1243 H   0  0  0  0  0  0  0  0  0  0  0  0
   -3.2391   -0.7703    0.1582 C   0  0  0  0  0  0  0  0  0  0  0  0
   -2.9205   -0.7326   -1.2112 C   0  0  0  0  0  0  0  0  0  0  0  0
   -2.3878    0.1323   -1.6301 H   0  0  0  0  0  0  0  0  0  0  0  0
   -3.2551   -1.8305   -2.0183 C   0  0  0  0  0  0  0  0  0  0  0  0
   -2.9970   -1.8031   -3.0880 H   0  0  0  0  0  0  0  0  0  0  0  0
   -3.8948   -2.9573   -1.4758 C   0  0  0  0  0  0  0  0  0  0  0  0
   -4.1537   -3.8119   -2.1180 H   0  0  0  0  0  0  0  0  0  0  0  0
   -4.1974   -2.9847   -0.1033 C   0  0  0  0  0  0  0  0  0  0  0  0
   -4.6983   -3.8615    0.3349 H   0  0  0  0  0  0  0  0  0  0  0  0
   -3.8731   -1.8956    0.7174 C   0  0  0  0  0  0  0  0  0  0  0  0
   -4.1096   -1.8897    1.7914 H   0  0  0  0  0  0  0  0  0  0  0  0
  3  4  1  0  0  0  0
  3  1  1  0  0  0  0
  4  2  1  0  0  0  0
  5  6  1  0  0  0  0
  5  4  2  0  0  0  0
  7  5  1  0  0  0  0
  8  7  1  0  0  0  0
  9  7  2  0  0  0  0
  9 11  1  0  0  0  0
 10  9  1  0  0  0  0
 11  3  2  0  0  0  0
 12 11  1  0  0  0  0
 13 22  1  0  0  0  0
 13  2  1  0  0  0  0
 14 13  2  0  0  0  0
 15 14  1  0  0  0  0
 16 18  2  0  0  0  0
 16 14  1  0  0  0  0
 17 16  1  0  0  0  0
 18 20  1  0  0  0  0
 19 18  1  0  0  0  0
 20 21  1  0  0  0  0
 20 22  2  0  0  0  0
 22 23  1  0  0  0  0
M  CHG  1   1  -1
M  END
