1
q = -1.0

 14 14  0  0  0  0  0  0  0  0999 V2000
    1.1601    1.0596    0.2306 O   0  5  0  0  0  0  0  0  0  0  0  0
    0.8766   -1.6049   -0.0793 O   0  0  0  0  0  0  0  0  0  0  0  0
    4.6159    0.0111    0.0344 O   0  0  0  0  0  0  0  0  0  0  0  0
    3.8632    2.2822    0.2451 C   0  0  0  0  0  0  0  0  0  0  0  0
    3.5292    0.8382    0.1286 C   0  0  0  0  0  0  0  0  0  0  0  0
    2.2309    0.3196    0.1082 C   0  0  0  0  0  0  0  0  0  0  0  0
    2.0624   -1.1260   -0.0354 C   0  0  0  0  0  0  0  0  0  0  0  0
    3.2463   -1.9277   -0.0976 C   0  0  0  0  0  0  0  0  0  0  0  0
    4.4745   -1.3149   -0.0711 C   0  0  0  0  0  0  0  0  0  0  0  0
    4.5451    2.6038   -0.5696 H   0  0  0  0  0  0  0  0  0  0  0  0
    2.9263    2.8650    0.1834 H   0  0  0  0  0  0  0  0  0  0  0  0
    4.3647    2.5155    1.2095 H   0  0  0  0  0  0  0  0  0  0  0  0
    3.1683   -3.0192   -0.1930 H   0  0  0  0  0  0  0  0  0  0  0  0
    5.4420   -1.8309   -0.1411 H   0  0  0  0  0  0  0  0  0  0  0  0
  2  7  2  0  0  0  0
  3  5  1  0  0  0  0
  4 12  1  0  0  0  0
  5  4  1  0  0  0  0
  6  5  2  0  0  0  0
  6  1  1  0  0  0  0
  7  6  1  0  0  0  0
  8  9  2  0  0  0  0
  8  7  1  0  0  0  0
  9  3  1  0  0  0  0
 10  4  1  0  0  0  0
 11  4  1  0  0  0  0
 13  8  1  0  0  0  0
 14  9  1  0  0  0  0
M  CHG  1   1  -1
M  END
