1
q = -1.0, confidence = 0.002

 17 17  0  0  0  0  0  0  0  0999 V2000
   -2.0212   -0.1721   -0.3405 O   0  5  0  0  0  0  0  0  0  0  0  0
   -2.5913    1.9935   -0.0389 O   0  0  0  0  0  0  0  0  0  0  0  0
   -5.0269    2.6781    0.1858 O   0  0  0  0  0  0  0  0  0  0  0  0
   -9.2763    0.1650    0.1848 O   0  0  0  0  0  0  0  0  0  0  0  0
   -8.7165   -1.9320   -0.0672 O   0  0  0  0  0  0  0  0  0  0  0  0
   -8.4519   -0.7352    0.0402 N   0  0  0  0  0  0  0  0  0  0  0  0
   -4.3275    0.3746   -0.1052 C   0  0  0  0  0  0  0  0  0  0  0  0
   -5.3282    1.3854    0.0660 C   0  0  0  0  0  0  0  0  0  0  0  0
   -6.6882    0.9983    0.1103 C   0  0  0  0  0  0  0  0  0  0  0  0
   -7.0120   -0.3496   -0.0099 C   0  0  0  0  0  0  0  0  0  0  0  0
   -6.0507   -1.3631   -0.1747 C   0  0  0  0  0  0  0  0  0  0  0  0
   -4.7120   -0.9793   -0.2194 C   0  0  0  0  0  0  0  0  0  0  0  0
   -2.8898    0.7498   -0.1610 C   0  0  0  0  0  0  0  0  0  0  0  0
   -7.4758    1.7509    0.2392 H   0  0  0  0  0  0  0  0  0  0  0  0
   -4.0169    2.7167    0.1326 H   0  0  0  0  0  0  0  0  0  0  0  0
   -6.3762   -2.4067   -0.2606 H   0  0  0  0  0  0  0  0  0  0  0  0
   -3.9137   -1.7246   -0.3442 H   0  0  0  0  0  0  0  0  0  0  0  0
  1 13  1  0  0  0  0
  5  6  2  0  0  0  0
  6  4  2  0  0  0  0
  7  8  1  0  0  0  0
  8  9  2  0  0  0  0
  8  3  1  0  0  0  0
  9 14  1  0  0  0  0
 10  6  1  0  0  0  0
 10  9  1  0  0  0  0
 11 10  2  0  0  0  0
 12 11  1  0  0  0  0
 12  7  2  0  0  0  0
 13  7  1  0  0  0  0
 13  2  2  0  0  0  0
 15  3  1  0  0  0  0
 16 11  1  0  0  0  0
 17 12  1  0  0  0  0
M  CHG  1   1  -1
M  END
