2
q = -1.0

 16 16  0  0  0  0  0  0  0  0999 V2000
    2.4785   -1.9929   -0.0350 O   0  5  0  0  0  0  0  0  0  0  0  0
    1.9085    0.2071   -0.0756 O   0  0  0  0  0  0  0  0  0  0  0  0
    6.5050   -0.9829    0.0133 N   0  0  0  0  0  0  0  0  0  0  0  0
    8.3532    0.5921    0.0129 C   0  0  0  0  0  0  0  0  0  0  0  0
    8.8391    0.1060   -0.8576 H   0  0  0  0  0  0  0  0  0  0  0  0
    8.5766    1.6748   -0.0074 H   0  0  0  0  0  0  0  0  0  0  0  0
    8.8133    0.1450    0.9177 H   0  0  0  0  0  0  0  0  0  0  0  0
    6.8751    0.3155   -0.0025 C   0  0  0  0  0  0  0  0  0  0  0  0
    5.9184    1.3530   -0.0323 C   0  0  0  0  0  0  0  0  0  0  0  0
    6.2447    2.4034   -0.0450 H   0  0  0  0  0  0  0  0  0  0  0  0
    4.5586    1.0299   -0.0474 C   0  0  0  0  0  0  0  0  0  0  0  0
    3.7812    1.8067   -0.0729 H   0  0  0  0  0  0  0  0  0  0  0  0
    4.1848   -0.3257   -0.0317 C   0  0  0  0  0  0  0  0  0  0  0  0
    5.2094   -1.2979   -0.0014 C   0  0  0  0  0  0  0  0  0  0  0  0
    4.9370   -2.3668    0.0135 H   0  0  0  0  0  0  0  0  0  0  0  0
    2.7562   -0.7649   -0.0457 C   0  0  0  0  0  0  0  0  0  0  0  0
  2 16  2  0  0  0  0
  4  7  1  0  0  0  0
  5  4  1  0  0  0  0
  6  4  1  0  0  0  0
  8  4  1  0  0  0  0
  8  3  2  0  0  0  0
  9  8  1  0  0  0  0
 10  9  1  0  0  0  0
 11  9  2  0  0  0  0
 11 13  1  0  0  0  0
 12 11  1  0  0  0  0
 13 14  2  0  0  0  0
 14  3  1  0  0  0  0
 14 15  1  0  0  0  0
 16  1  1  0  0  0  0
 16 13  1  0  0  0  0
M  CHG  1   1  -1
M  END
