1
q = -1.0

 14 13  0  0  0  0  0  0  0  0999 V2000
   -0.7535   -1.1649   -1.7036 O   0  5  0  0  0  0  0  0  0  0  0  0
   -1.6918   -1.1603    0.7960 O   0  0  0  0  0  0  0  0  0  0  0  0
   -2.1096   -1.8975   -3.5032 C   0  0  0  0  0  0  0  0  0  0  0  0
   -1.1629   -2.2249   -3.9723 H   0  0  0  0  0  0  0  0  0  0  0  0
   -2.4036   -0.9366   -3.9788 H   0  0  0  0  0  0  0  0  0  0  0  0
   -2.9142   -2.6328   -3.6878 H   0  0  0  0  0  0  0  0  0  0  0  0
   -1.8929   -1.6250   -2.0400 C   0  0  0  0  0  0  0  0  0  0  0  0
   -2.9421   -1.8660   -1.1090 C   0  0  0  0  0  0  0  0  0  0  0  0
   -3.8943   -2.2831   -1.4549 H   0  0  0  0  0  0  0  0  0  0  0  0
   -2.7349   -1.6569    0.2540 C   0  0  0  0  0  0  0  0  0  0  0  0
   -3.8097   -2.0781    1.2724 C   0  0  0  0  0  0  0  0  0  0  0  0
   -4.0989   -1.0522    2.1052 F   0  0  0  0  0  0  0  0  0  0  0  0
   -4.9597   -2.4649    0.6785 F   0  0  0  0  0  0  0  0  0  0  0  0
   -3.3619   -3.1049    2.0245 F   0  0  0  0  0  0  0  0  0  0  0  0
  3  7  1  0  0  0  0
  4  3  1  0  0  0  0
  5  3  1  0  0  0  0
  6  3  1  0  0  0  0
  7  1  1  0  0  0  0
  7  8  2  0  0  0  0
  8 10  1  0  0  0  0
  9  8  1  0  0  0  0
 10  2  2  0  0  0  0
 10 11  1  0  0  0  0
 11 14  1  0  0  0  0
 11 12  1  0  0  0  0
 13 11  1  0  0  0  0
M  CHG  1   1  -1
M  END
