3
q = -1.0

 18 18  0  0  0  0  0  0  0  0999 V2000
   -5.3777    3.6778    1.0191 Cl  0  0  0  0  0  0  0  0  0  0  0  0
   -5.7100   -0.7166   -2.1682 Cl  0  0  0  0  0  0  0  0  0  0  0  0
    0.8809    2.6270    0.7150 O   0  5  0  0  0  0  0  0  0  0  0  0
   -1.0114    1.8024    1.6410 O   0  0  0  0  0  0  0  0  0  0  0  0
   -2.5696    3.6360    0.3488 O   0  0  0  0  0  0  0  0  0  0  0  0
   -0.3918    2.6191    0.9357 C   0  0  0  0  0  0  0  0  0  0  0  0
   -1.1693    3.7267    0.2113 C   0  0  0  0  0  0  0  0  0  0  0  0
   -0.8815    4.7063    0.6448 H   0  0  0  0  0  0  0  0  0  0  0  0
   -0.8488    3.7281   -0.8555 H   0  0  0  0  0  0  0  0  0  0  0  0
   -3.2176    2.6061   -0.2559 C   0  0  0  0  0  0  0  0  0  0  0  0
   -4.6134    2.5101   -0.0212 C   0  0  0  0  0  0  0  0  0  0  0  0
   -5.3819    1.4960   -0.6050 C   0  0  0  0  0  0  0  0  0  0  0  0
   -6.4595    1.4442   -0.4030 H   0  0  0  0  0  0  0  0  0  0  0  0
   -4.7586    0.5567   -1.4416 C   0  0  0  0  0  0  0  0  0  0  0  0
   -3.3821    0.6352   -1.6924 C   0  0  0  0  0  0  0  0  0  0  0  0
   -2.9047   -0.1046   -2.3502 H   0  0  0  0  0  0  0  0  0  0  0  0
   -2.6177    1.6530   -1.1031 C   0  0  0  0  0  0  0  0  0  0  0  0
   -1.5374    1.6618   -1.3074 H   0  0  0  0  0  0  0  0  0  0  0  0
  2 14  1  0  0  0  0
  3  6  1  0  0  0  0
  6  4  2  0  0  0  0
  7  5  1  0  0  0  0
  7  8  1  0  0  0  0
  7  6  1  0  0  0  0
  9  7  1  0  0  0  0
 10 11  1  0  0  0  0
 10  5  1  0  0  0  0
 11  1  1  0  0  0  0
 12 13  1  0  0  0  0
 12 11  2  0  0  0  0
 14 12  1  0  0  0  0
 15 14  2  0  0  0  0
 15 17  1  0  0  0  0
 16 15  1  0  0  0  0
 17 10  2  0  0  0  0
 18 17  1  0  0  0  0
M  CHG  1   3  -1
M  END
