4
q = 0.0, confidence = 0.856

  4  4  0  0  1  0  0  0  0  0999 V2000
    2.9354   -1.5064    1.9873 O   0  0  0  0  0  0  0  0  0  0  0  0
    1.9588   -0.7137    2.5687 C   0  0  2  0  0  0  0  0  0  0  0  0
    3.0951   -1.0738    3.3511 C   0  0  0  0  0  0  0  0  0  0  0  0
    0.8968   -0.2469    2.1841 O   0  0  0  0  0  0  0  0  0  0  0  0
  1  2  1  0  0  0  0
  1  3  1  0  0  0  0
  2  4  1  1  0  0  0
  2  3  1  0  0  0  0
M  END
