2
q = -1.0, confidence = 0.004

 11 10  0  0  0  0  0  0  0  0999 V2000
   -2.1484    0.5560   -1.2199 S   0  0  0  0  0  0  0  0  0  0  0  0
   -0.8210    0.4813    1.3581 O   0  0  0  0  0  1  0  0  0  0  0  0
   -1.4134    1.6573    1.0820 N   0  0  0  0  0  0  0  0  0  0  0  0
   -2.6159    3.0663   -0.3623 N   0  0  0  0  0  0  0  0  0  0  0  0
   -2.0310    1.8493   -0.0876 C   0  0  0  0  0  0  0  0  0  0  0  0
   -1.2327    2.6655    2.1104 C   0  0  0  0  0  0  0  0  0  0  0  0
   -2.9128    3.1656   -1.3340 H   0  0  0  0  0  0  0  0  0  0  0  0
   -2.1767    3.9070    0.0177 H   0  0  0  0  0  0  0  0  0  0  0  0
   -1.2515    2.1443    3.0853 H   0  0  0  0  0  0  0  0  0  0  0  0
   -2.0590    3.4012    2.0817 H   0  0  0  0  0  0  0  0  0  0  0  0
   -0.2521    3.1772    2.0033 H   0  0  0  0  0  0  0  0  0  0  0  0
  1  5  2  0  0  0  0
  3  2  1  0  0  0  0
  3  6  1  0  0  0  0
  4  5  1  0  0  0  0
  4  8  1  0  0  0  0
  5  3  1  0  0  0  0
  6  9  1  0  0  0  0
  7  4  1  0  0  0  0
 10  6  1  0  0  0  0
 11  6  1  0  0  0  0
M  END
