1
q = -1.0

 34 37  0  0  1  0  0  0  0  0999 V2000
   -1.5842    1.2473    0.1144 O   0  5  0  0  0  0  0  0  0  0  0  0
   -2.2415    2.0585   -4.3652 O   0  0  0  0  0  0  0  0  0  0  0  0
   -5.8495    0.5987   -1.9080 O   0  0  0  0  0  0  0  0  0  0  0  0
   -7.1811   -0.2210    0.5758 O   0  0  0  0  0  0  0  0  0  0  0  0
   -6.6602   -4.5642   -0.6933 O   0  0  0  0  0  0  0  0  0  0  0  0
   -2.8324   -2.2099    0.2236 O   0  0  0  0  0  0  0  0  0  0  0  0
   -1.9659    1.6790   -2.1091 N   0  0  0  0  0  0  0  0  0  0  0  0
   -4.0428    1.3713   -3.0932 N   0  0  0  0  0  0  0  0  0  0  0  0
   -4.7648   -3.3328   -0.2050 N   0  0  0  0  0  0  0  0  0  0  0  0
   -6.8579   -2.3524   -0.0668 N   0  0  0  0  0  0  0  0  0  0  0  0
   -2.4319    1.2581   -0.8677 C   0  0  0  0  0  0  0  0  0  0  0  0
   -2.7139    1.7293   -3.2850 C   0  0  0  0  0  0  0  0  0  0  0  0
   -4.6515    0.9218   -1.8994 C   0  0  0  0  0  0  0  0  0  0  0  0
   -3.7715    0.8690   -0.7563 C   0  0  0  0  0  0  0  0  0  0  0  0
   -4.3155    0.3671    0.5644 C   0  0  1  0  0  0  0  0  0  0  0  0
   -5.3604    1.3162    1.1241 C   0  0  0  0  0  0  0  0  0  0  0  0
   -5.0034    2.5679    1.6568 C   0  0  0  0  0  0  0  0  0  0  0  0
   -3.9340    2.8272    1.7022 H   0  0  0  0  0  0  0  0  0  0  0  0
   -5.9762    3.4753    2.0966 C   0  0  0  0  0  0  0  0  0  0  0  0
   -5.6727    4.4481    2.5105 H   0  0  0  0  0  0  0  0  0  0  0  0
   -7.3392    3.1444    1.9995 C   0  0  0  0  0  0  0  0  0  0  0  0
   -8.1096    3.8544    2.3346 H   0  0  0  0  0  0  0  0  0  0  0  0
   -7.7220    1.9040    1.4746 C   0  0  0  0  0  0  0  0  0  0  0  0
   -8.7775    1.6110    1.3853 H   0  0  0  0  0  0  0  0  0  0  0  0
   -6.7289    1.0118    1.0521 C   0  0  0  0  0  0  0  0  0  0  0  0
   -6.2826   -1.1635    0.2964 C   0  0  0  0  0  0  0  0  0  0  0  0
   -6.1394   -3.5153   -0.3600 C   0  0  0  0  0  0  0  0  0  0  0  0
   -4.0957   -2.1613    0.1525 C   0  0  0  0  0  0  0  0  0  0  0  0
   -4.9090   -1.0151    0.4064 C   0  0  0  0  0  0  0  0  0  0  0  0
   -4.1860   -4.1593   -0.3795 H   0  0  0  0  0  0  0  0  0  0  0  0
   -3.4503    0.3285    1.2559 H   0  0  0  0  0  0  0  0  0  0  0  0
   -7.8762   -2.4076   -0.1526 H   0  0  0  0  0  0  0  0  0  0  0  0
   -4.6402    1.4022   -3.9231 H   0  0  0  0  0  0  0  0  0  0  0  0
   -0.9554    1.8557   -2.1939 H   0  0  0  0  0  0  0  0  0  0  0  0
  2 12  2  0  0  0  0
  3 13  2  0  0  0  0
  4 25  1  0  0  0  0
  5 27  2  0  0  0  0
  7 11  1  0  0  0  0
  8 13  1  0  0  0  0
  9 28  1  0  0  0  0
 10 26  1  0  0  0  0
 11 14  2  0  0  0  0
 11  1  1  0  0  0  0
 12  8  1  0  0  0  0
 12  7  1  0  0  0  0
 13 14  1  0  0  0  0
 14 15  1  0  0  0  0
 15 16  1  0  0  0  0
 15 31  1  1  0  0  0
 16 17  1  0  0  0  0
 17 18  1  0  0  0  0
 17 19  2  0  0  0  0
 19 20  1  0  0  0  0
 21 19  1  0  0  0  0
 21 22  1  0  0  0  0
 23 21  2  0  0  0  0
 24 23  1  0  0  0  0
 25 16  2  0  0  0  0
 25 23  1  0  0  0  0
 26 29  2  0  0  0  0
 26  4  1  0  0  0  0
 27  9  1  0  0  0  0
 27 10  1  0  0  0  0
 28  6  2  0  0  0  0
 28 29  1  0  0  0  0
 29 15  1  0  0  0  0
 30  9  1  0  0  0  0
 32 10  1  0  0  0  0
 33  8  1  0  0  0  0
 34  7  1  0  0  0  0
M  CHG  1   1  -1
M  END
