1
q = -1.0

 34 37  0  0  1  0  0  0  0  0999 V2000
    1.5847   -1.2496   -0.1140 O   0  5  0  0  0  0  0  0  0  0  0  0
    2.2416   -2.0560    4.3665 O   0  0  0  0  0  0  0  0  0  0  0  0
    5.8492   -0.5961    1.9087 O   0  0  0  0  0  0  0  0  0  0  0  0
    7.1808    0.2208   -0.5758 O   0  0  0  0  0  0  0  0  0  0  0  0
    6.6601    4.5647    0.6910 O   0  0  0  0  0  0  0  0  0  0  0  0
    2.8322    2.2100   -0.2247 O   0  0  0  0  0  0  0  0  0  0  0  0
    1.9661   -1.6788    2.1100 N   0  0  0  0  0  0  0  0  0  0  0  0
    4.0427   -1.3687    3.0943 N   0  0  0  0  0  0  0  0  0  0  0  0
    4.7647    3.3331    0.2033 N   0  0  0  0  0  0  0  0  0  0  0  0
    6.8577    2.3525    0.0656 N   0  0  0  0  0  0  0  0  0  0  0  0
    2.4321   -1.2587    0.8684 C   0  0  0  0  0  0  0  0  0  0  0  0
    2.7139   -1.7274    3.2861 C   0  0  0  0  0  0  0  0  0  0  0  0
    4.6513   -0.9198    1.9002 C   0  0  0  0  0  0  0  0  0  0  0  0
    3.7714   -0.8684    0.7569 C   0  0  0  0  0  0  0  0  0  0  0  0
    4.3152   -0.3672   -0.5641 C   0  0  2  0  0  0  0  0  0  0  0  0
    5.3601   -1.3167   -1.1234 C   0  0  0  0  0  0  0  0  0  0  0  0
    5.0030   -2.5686   -1.6553 C   0  0  0  0  0  0  0  0  0  0  0  0
    3.9335   -2.8279   -1.7004 H   0  0  0  0  0  0  0  0  0  0  0  0
    5.9757   -3.4763   -2.0946 C   0  0  0  0  0  0  0  0  0  0  0  0
    5.6721   -4.4494   -2.5079 H   0  0  0  0  0  0  0  0  0  0  0  0
    7.3387   -3.1454   -1.9976 C   0  0  0  0  0  0  0  0  0  0  0  0
    8.1091   -3.8557   -2.3323 H   0  0  0  0  0  0  0  0  0  0  0  0
    7.7216   -1.9048   -1.4735 C   0  0  0  0  0  0  0  0  0  0  0  0
    8.7772   -1.6118   -1.3843 H   0  0  0  0  0  0  0  0  0  0  0  0
    6.7285   -1.0123   -1.0515 C   0  0  0  0  0  0  0  0  0  0  0  0
    6.2824    1.1635   -0.2970 C   0  0  0  0  0  0  0  0  0  0  0  0
    6.1392    3.5157    0.3582 C   0  0  0  0  0  0  0  0  0  0  0  0
    4.0956    2.1614   -0.1536 C   0  0  0  0  0  0  0  0  0  0  0  0
    4.9088    1.0151   -0.4069 C   0  0  0  0  0  0  0  0  0  0  0  0
    4.1859    4.1596    0.3774 H   0  0  0  0  0  0  0  0  0  0  0  0
    3.4500   -0.3289   -1.2555 H   0  0  0  0  0  0  0  0  0  0  0  0
    7.8760    2.4077    0.1514 H   0  0  0  0  0  0  0  0  0  0  0  0
    4.6400   -1.3986    3.9243 H   0  0  0  0  0  0  0  0  0  0  0  0
    0.9557   -1.8557    2.1948 H   0  0  0  0  0  0  0  0  0  0  0  0
  1 11  1  0  0  0  0
  4 26  1  0  0  0  0
  6 28  2  0  0  0  0
  7 34  1  0  0  0  0
  7 12  1  0  0  0  0
  8 12  1  0  0  0  0
  8 33  1  0  0  0  0
  9 27  1  0  0  0  0
  9 30  1  0  0  0  0
 10 32  1  0  0  0  0
 10 27  1  0  0  0  0
 11  7  1  0  0  0  0
 12  2  2  0  0  0  0
 13  3  2  0  0  0  0
 13  8  1  0  0  0  0
 14 11  2  0  0  0  0
 14 13  1  0  0  0  0
 15 31  1  6  0  0  0
 15 29  1  0  0  0  0
 15 14  1  0  0  0  0
 16 25  1  0  0  0  0
 16 15  1  0  0  0  0
 17 16  2  0  0  0  0
 18 17  1  0  0  0  0
 19 21  2  0  0  0  0
 19 17  1  0  0  0  0
 20 19  1  0  0  0  0
 21 23  1  0  0  0  0
 22 21  1  0  0  0  0
 23 24  1  0  0  0  0
 23 25  2  0  0  0  0
 25  4  1  0  0  0  0
 26 10  1  0  0  0  0
 27  5  2  0  0  0  0
 28  9  1  0  0  0  0
 29 26  2  0  0  0  0
 29 28  1  0  0  0  0
M  CHG  1   1  -1
M  END
