2
q = -1.0

 54 55  0  0  1  0  0  0  0  0999 V2000
    0.1035   -1.4788    0.0329 P   0  0  2  0  0  0  0  0  0  0  0  0
    0.0660    1.4110    0.0455 O   0  5  0  0  0  0  0  0  0  0  0  0
   -1.1751    0.9205    0.0408 C   0  0  0  0  0  0  0  0  0  0  0  0
   -1.4157   -0.4835    0.0426 C   0  0  0  0  0  0  0  0  0  0  0  0
   -2.7201   -1.0164    0.0565 C   0  0  0  0  0  0  0  0  0  0  0  0
   -2.8500   -2.1084    0.0695 H   0  0  0  0  0  0  0  0  0  0  0  0
   -3.8375   -0.1732    0.0516 C   0  0  0  0  0  0  0  0  0  0  0  0
   -3.5853    1.2215    0.0420 C   0  0  0  0  0  0  0  0  0  0  0  0
   -4.4535    1.8945    0.0400 H   0  0  0  0  0  0  0  0  0  0  0  0
   -2.3105    1.8039    0.0394 C   0  0  0  0  0  0  0  0  0  0  0  0
   -5.2857   -0.6912    0.0521 C   0  0  0  0  0  0  0  0  0  0  0  0
   -5.3461   -2.2283    0.0649 C   0  0  0  0  0  0  0  0  0  0  0  0
   -4.8553   -2.6667   -0.8279 H   0  0  0  0  0  0  0  0  0  0  0  0
   -6.4022   -2.5660    0.0641 H   0  0  0  0  0  0  0  0  0  0  0  0
   -4.8612   -2.6515    0.9681 H   0  0  0  0  0  0  0  0  0  0  0  0
   -6.0109   -0.1877   -1.2167 C   0  0  0  0  0  0  0  0  0  0  0  0
   -5.5058   -0.5575   -2.1320 H   0  0  0  0  0  0  0  0  0  0  0  0
   -6.0270    0.9192   -1.2667 H   0  0  0  0  0  0  0  0  0  0  0  0
   -7.0631   -0.5415   -1.2342 H   0  0  0  0  0  0  0  0  0  0  0  0
   -6.0204   -0.1659    1.3065 C   0  0  0  0  0  0  0  0  0  0  0  0
   -6.0377    0.9417    1.3368 H   0  0  0  0  0  0  0  0  0  0  0  0
   -5.5223   -0.5192    2.2320 H   0  0  0  0  0  0  0  0  0  0  0  0
   -7.0726   -0.5198    1.3221 H   0  0  0  0  0  0  0  0  0  0  0  0
   -2.1166    3.3314    0.0376 C   0  0  0  0  0  0  0  0  0  0  0  0
   -1.3273    3.7491   -1.2258 C   0  0  0  0  0  0  0  0  0  0  0  0
   -1.1643    4.8473   -1.2305 H   0  0  0  0  0  0  0  0  0  0  0  0
   -1.8903    3.4823   -2.1436 H   0  0  0  0  0  0  0  0  0  0  0  0
   -0.3446    3.2437   -1.2588 H   0  0  0  0  0  0  0  0  0  0  0  0
   -3.4574    4.0872    0.0289 C   0  0  0  0  0  0  0  0  0  0  0  0
   -3.2639    5.1789    0.0259 H   0  0  0  0  0  0  0  0  0  0  0  0
   -4.0700    3.8611    0.9254 H   0  0  0  0  0  0  0  0  0  0  0  0
   -4.0616    3.8544   -0.8717 H   0  0  0  0  0  0  0  0  0  0  0  0
   -1.3416    3.7530    1.3085 C   0  0  0  0  0  0  0  0  0  0  0  0
   -1.1778    4.8511    1.3114 H   0  0  0  0  0  0  0  0  0  0  0  0
   -0.3595    3.2475    1.3543 H   0  0  0  0  0  0  0  0  0  0  0  0
   -1.9148    3.4894    2.2208 H   0  0  0  0  0  0  0  0  0  0  0  0
   -0.7540   -2.3223   -2.5825 C   0  0  0  0  0  0  0  0  0  0  0  0
   -0.3432   -1.3835   -3.0045 H   0  0  0  0  0  0  0  0  0  0  0  0
   -1.8196   -2.1383   -2.3403 H   0  0  0  0  0  0  0  0  0  0  0  0
   -0.7074   -3.1022   -3.3708 H   0  0  0  0  0  0  0  0  0  0  0  0
    0.0295   -2.7610   -1.3504 C   0  0  2  0  0  0  0  0  0  0  0  0
    1.1003   -2.8855   -1.6275 H   0  0  0  0  0  0  0  0  0  0  0  0
   -0.4341   -4.0599   -0.6661 C   0  0  0  0  0  0  0  0  0  0  0  0
   -1.5422   -4.0540   -0.5654 H   0  0  0  0  0  0  0  0  0  0  0  0
   -0.1748   -4.9483   -1.2799 H   0  0  0  0  0  0  0  0  0  0  0  0
    0.2133   -4.1033    0.7238 C   0  0  0  0  0  0  0  0  0  0  0  0
    1.3131   -4.2421    0.6221 H   0  0  0  0  0  0  0  0  0  0  0  0
   -0.1600   -4.9494    1.3382 H   0  0  0  0  0  0  0  0  0  0  0  0
   -0.0731   -2.7564    1.4113 C   0  0  1  0  0  0  0  0  0  0  0  0
   -1.1574   -2.7136    1.6552 H   0  0  0  0  0  0  0  0  0  0  0  0
    0.7331   -2.4611    2.6718 C   0  0  0  0  0  0  0  0  0  0  0  0
    0.4918   -1.4593    3.0783 H   0  0  0  0  0  0  0  0  0  0  0  0
    1.8223   -2.4823    2.4690 H   0  0  0  0  0  0  0  0  0  0  0  0
    0.5165   -3.2137    3.4583 H   0  0  0  0  0  0  0  0  0  0  0  0
  1  4  1  6  0  0  0
  1 49  1  0  0  0  0
  3  4  1  0  0  0  0
  3  2  1  0  0  0  0
  4  5  2  0  0  0  0
  5  6  1  0  0  0  0
  7 11  1  0  0  0  0
  7  5  1  0  0  0  0
  8  7  2  0  0  0  0
  9  8  1  0  0  0  0
 10  3  2  0  0  0  0
 10  8  1  0  0  0  0
 11 12  1  0  0  0  0
 11 20  1  0  0  0  0
 12 15  1  0  0  0  0
 13 12  1  0  0  0  0
 14 12  1  0  0  0  0
 16 11  1  0  0  0  0
 17 16  1  0  0  0  0
 18 16  1  0  0  0  0
 19 16  1  0  0  0  0
 20 23  1  0  0  0  0
 20 21  1  0  0  0  0
 20 22  1  0  0  0  0
 24 10  1  0  0  0  0
 24 33  1  0  0  0  0
 25 24  1  0  0  0  0
 26 25  1  0  0  0  0
 27 25  1  0  0  0  0
 28 25  1  0  0  0  0
 29 24  1  0  0  0  0
 29 31  1  0  0  0  0
 30 29  1  0  0  0  0
 32 29  1  0  0  0  0
 33 34  1  0  0  0  0
 33 35  1  0  0  0  0
 33 36  1  0  0  0  0
 37 39  1  0  0  0  0
 37 41  1  0  0  0  0
 38 37  1  0  0  0  0
 40 37  1  0  0  0  0
 41 42  1  6  0  0  0
 41 43  1  0  0  0  0
 41  1  1  0  0  0  0
 43 44  1  0  0  0  0
 43 46  1  0  0  0  0
 45 43  1  0  0  0  0
 46 48  1  0  0  0  0
 46 49  1  0  0  0  0
 47 46  1  0  0  0  0
 49 50  1  1  0  0  0
 49 51  1  0  0  0  0
 51 52  1  0  0  0  0
 51 54  1  0  0  0  0
 53 51  1  0  0  0  0
M  CHG  1   2  -1
M  END
