1
q = -1.0, confidence = 0.002

 13 13  0  0  0  0  0  0  0  0999 V2000
    1.1273   -0.4546   -1.5025 O   0  5  0  0  0  0  0  0  0  0  0  0
    5.4300   -3.7788   -2.5523 O   0  0  0  0  0  0  0  0  0  0  0  0
    6.1837   -3.2530   -2.8776 H   0  0  0  0  0  0  0  0  0  0  0  0
    2.1795   -1.2610   -1.7801 C   0  0  0  0  0  0  0  0  0  0  0  0
    2.0795   -2.6569   -1.5891 C   0  0  0  0  0  0  0  0  0  0  0  0
    1.1308   -3.0779   -1.2270 H   0  0  0  0  0  0  0  0  0  0  0  0
    3.1762   -3.4828   -1.8557 C   0  0  0  0  0  0  0  0  0  0  0  0
    3.1122   -4.5716   -1.7152 H   0  0  0  0  0  0  0  0  0  0  0  0
    4.3898   -2.9287   -2.3124 C   0  0  0  0  0  0  0  0  0  0  0  0
    4.4834   -1.5349   -2.5034 C   0  0  0  0  0  0  0  0  0  0  0  0
    5.4308   -1.0930   -2.8552 H   0  0  0  0  0  0  0  0  0  0  0  0
    3.3866   -0.7036   -2.2464 C   0  0  0  0  0  0  0  0  0  0  0  0
    3.4563    0.3856   -2.3779 H   0  0  0  0  0  0  0  0  0  0  0  0
  2  9  1  0  0  0  0
  3  2  1  0  0  0  0
  4  5  1  0  0  0  0
  4  1  1  0  0  0  0
  5  6  1  0  0  0  0
  7  8  1  0  0  0  0
  7  5  2  0  0  0  0
  9  7  1  0  0  0  0
 10  9  2  0  0  0  0
 10 12  1  0  0  0  0
 11 10  1  0  0  0  0
 12  4  2  0  0  0  0
 13 12  1  0  0  0  0
M  CHG  1   1  -1
M  END
