2
q = -1.0

 14 14  0  0  0  0  0  0  0  0999 V2000
    3.0604   -0.0748    1.0940 O   0  5  0  0  0  0  0  0  0  0  0  0
    1.6264   -0.1091   -0.6640 O   0  0  0  0  0  0  0  0  0  0  0  0
    4.4240   -2.2922   -1.2405 Cl  0  0  0  0  0  0  0  0  0  0  0  0
    3.1657    2.9996   -0.7955 Cl  0  0  0  0  0  0  0  0  0  0  0  0
    2.7761    0.0367   -0.1100 C   0  0  0  0  0  0  0  0  0  0  0  0
    3.8904    0.3827   -1.0874 C   0  0  0  0  0  0  0  0  0  0  0  0
    4.7133   -0.6106   -1.6508 C   0  0  0  0  0  0  0  0  0  0  0  0
    5.7583   -0.3067   -2.5354 C   0  0  0  0  0  0  0  0  0  0  0  0
    6.3710   -1.1182   -2.9509 H   0  0  0  0  0  0  0  0  0  0  0  0
    5.9963    1.0335   -2.8711 C   0  0  0  0  0  0  0  0  0  0  0  0
    6.8135    1.2864   -3.5628 H   0  0  0  0  0  0  0  0  0  0  0  0
    5.1983    2.0531   -2.3337 C   0  0  0  0  0  0  0  0  0  0  0  0
    5.3697    3.1077   -2.5894 H   0  0  0  0  0  0  0  0  0  0  0  0
    4.1586    1.7163   -1.4538 C   0  0  0  0  0  0  0  0  0  0  0  0
  2  5  2  0  0  0  0
  5  1  1  0  0  0  0
  6  5  1  0  0  0  0
  7  3  1  0  0  0  0
  7  6  2  0  0  0  0
  8  7  1  0  0  0  0
  9  8  1  0  0  0  0
 10  8  2  0  0  0  0
 10 12  1  0  0  0  0
 11 10  1  0  0  0  0
 12 14  2  0  0  0  0
 13 12  1  0  0  0  0
 14  6  1  0  0  0  0
 14  4  1  0  0  0  0
M  CHG  1   1  -1
M  END
