2
q = 0.0, confidence = 0.968

 38 40  0  0  0  0  0  0  0  0999 V2000
    2.0136   -0.0639   -0.2613 P   0  0  0  0  0  4  0  0  0  0  0  0
    0.8712   -0.8824    0.2695 O   0  0  0  0  0  1  0  0  0  0  0  0
    3.2959   -0.8474   -0.8414 O   0  0  0  0  0  0  0  0  0  0  0  0
    1.5544    0.8645   -1.4946 O   0  0  0  0  0  0  0  0  0  0  0  0
    2.7088    0.9000    0.8440 O   0  0  0  0  0  0  0  0  0  0  0  0
    4.1434   -1.6583   -0.0637 C   0  0  0  0  0  0  0  0  0  0  0  0
    3.6606   -2.4615    0.9786 C   0  0  0  0  0  0  0  0  0  0  0  0
    2.5923   -2.4839    1.2369 H   0  0  0  0  0  0  0  0  0  0  0  0
    4.5763   -3.2607    1.6804 C   0  0  0  0  0  0  0  0  0  0  0  0
    4.2051   -3.8982    2.4967 H   0  0  0  0  0  0  0  0  0  0  0  0
    5.9385   -3.2617    1.3426 C   0  0  0  0  0  0  0  0  0  0  0  0
    6.6447   -3.8973    1.8969 H   0  0  0  0  0  0  0  0  0  0  0  0
    6.3960   -2.4511    0.2912 C   0  0  0  0  0  0  0  0  0  0  0  0
    7.4619   -2.4451    0.0181 H   0  0  0  0  0  0  0  0  0  0  0  0
    5.4981   -1.6398   -0.4174 C   0  0  0  0  0  0  0  0  0  0  0  0
    5.8286   -0.9903   -1.2403 H   0  0  0  0  0  0  0  0  0  0  0  0
    2.3685    1.8339   -2.0989 C   0  0  0  0  0  0  0  0  0  0  0  0
    2.1063    3.1822   -1.8246 C   0  0  0  0  0  0  0  0  0  0  0  0
    1.3074    3.4478   -1.1191 H   0  0  0  0  0  0  0  0  0  0  0  0
    2.8721    4.1633   -2.4724 C   0  0  0  0  0  0  0  0  0  0  0  0
    2.6702    5.2256   -2.2681 H   0  0  0  0  0  0  0  0  0  0  0  0
    3.8815    3.7948   -3.3767 C   0  0  0  0  0  0  0  0  0  0  0  0
    4.4789    4.5683   -3.8817 H   0  0  0  0  0  0  0  0  0  0  0  0
    4.1229    2.4365   -3.6407 C   0  0  0  0  0  0  0  0  0  0  0  0
    4.9072    2.1430   -4.3545 H   0  0  0  0  0  0  0  0  0  0  0  0
    3.3636    1.4426   -3.0043 C   0  0  0  0  0  0  0  0  0  0  0  0
    3.5262    0.3741   -3.2003 H   0  0  0  0  0  0  0  0  0  0  0  0
    1.9944    1.7228    1.7273 C   0  0  0  0  0  0  0  0  0  0  0  0
    1.0374    1.1938    2.6048 C   0  0  0  0  0  0  0  0  0  0  0  0
    0.7947    0.1222    2.5793 H   0  0  0  0  0  0  0  0  0  0  0  0
    0.4010    2.0647    3.5030 C   0  0  0  0  0  0  0  0  0  0  0  0
   -0.3492    1.6615    4.1971 H   0  0  0  0  0  0  0  0  0  0  0  0
    0.7176    3.4329    3.5216 C   0  0  0  0  0  0  0  0  0  0  0  0
    0.2123    4.1027    4.2333 H   0  0  0  0  0  0  0  0  0  0  0  0
    1.6823    3.9405    2.6358 C   0  0  0  0  0  0  0  0  0  0  0  0
    1.9397    5.0105    2.6470 H   0  0  0  0  0  0  0  0  0  0  0  0
    2.3270    3.0849    1.7306 C   0  0  0  0  0  0  0  0  0  0  0  0
    3.0872    3.4509    1.0263 H   0  0  0  0  0  0  0  0  0  0  0  0
  1  2  1  0  0  0  0
  1  5  1  0  0  0  0
  3  1  1  0  0  0  0
  3  6  1  0  0  0  0
  4  1  1  0  0  0  0
  5 28  1  0  0  0  0
  6  7  1  0  0  0  0
  7  8  1  0  0  0  0
  7  9  2  0  0  0  0
  9 10  1  0  0  0  0
 11  9  1  0  0  0  0
 11 12  1  0  0  0  0
 13 11  2  0  0  0  0
 14 13  1  0  0  0  0
 15  6  2  0  0  0  0
 15 13  1  0  0  0  0
 16 15  1  0  0  0  0
 17 18  1  0  0  0  0
 17  4  1  0  0  0  0
 18 19  1  0  0  0  0
 20 21  1  0  0  0  0
 20 18  2  0  0  0  0
 22 20  1  0  0  0  0
 23 22  1  0  0  0  0
 24 22  2  0  0  0  0
 24 26  1  0  0  0  0
 25 24  1  0  0  0  0
 26 17  2  0  0  0  0
 27 26  1  0  0  0  0
 28 37  2  0  0  0  0
 28 29  1  0  0  0  0
 29 31  2  0  0  0  0
 30 29  1  0  0  0  0
 31 33  1  0  0  0  0
 31 32  1  0  0  0  0
 33 34  1  0  0  0  0
 35 36  1  0  0  0  0
 35 33  2  0  0  0  0
 37 35  1  0  0  0  0
 38 37  1  0  0  0  0
M  END
