1
q = 0.0, confidence = 0.992

 13 13  0  0  0  0  0  0  0  0999 V2000
   -1.4687   -2.4746    0.6195 O   0  0  0  0  0  1  0  0  0  0  0  0
   -2.5211   -1.7262    0.4464 N   0  0  0  0  0  0  0  0  0  0  0  0
   -2.7322   -1.0898   -0.7515 C   0  0  0  0  0  3  0  0  0  0  0  0
   -1.9775   -1.3041   -1.5229 H   0  0  0  0  0  0  0  0  0  0  0  0
   -3.7978   -0.2156   -0.9086 C   0  0  0  0  0  0  0  0  0  0  0  0
   -3.9211    0.3083   -1.8650 H   0  0  0  0  0  0  0  0  0  0  0  0
   -4.6962    0.0038    0.1599 C   0  0  0  0  0  0  0  0  0  0  0  0
   -4.4786   -0.6961    1.3679 C   0  0  0  0  0  0  0  0  0  0  0  0
   -5.1488   -0.5593    2.2268 H   0  0  0  0  0  0  0  0  0  0  0  0
   -3.3874   -1.5449    1.4898 C   0  0  0  0  0  0  0  0  0  0  0  0
   -3.1181   -2.0951    2.4002 H   0  0  0  0  0  0  0  0  0  0  0  0
   -5.7919    0.9129    0.0242 C   0  0  0  0  0  0  0  0  0  0  0  0
   -6.6950    1.6543   -0.0876 N   0  0  0  0  0  0  0  0  0  0  0  0
  2  1  1  0  0  0  0
  2 10  1  0  0  0  0
  3  2  1  0  0  0  0
  4  3  1  0  0  0  0
  5  3  1  0  0  0  0
  5  7  2  0  0  0  0
  6  5  1  0  0  0  0
  7  8  1  0  0  0  0
  8 10  2  0  0  0  0
  8  9  1  0  0  0  0
 10 11  1  0  0  0  0
 12  7  1  0  0  0  0
 13 12  3  0  0  0  0
M  END
