1
q = 0.0, confidence = 0.972

 15 15  0  0  1  0  0  0  0  0999 V2000
   -1.4797    2.3327    0.3581 O   0  0  0  0  0  1  0  0  0  0  0  0
   -2.5054    1.5140    0.4219 N   0  0  0  0  0  0  0  0  0  0  0  0
   -3.3314    1.4011   -0.6749 C   0  0  2  0  0  3  0  0  0  0  0  0
   -4.3960    0.4940   -0.6135 C   0  0  0  0  0  0  0  0  0  0  0  0
   -5.0388    0.3957   -1.4991 H   0  0  0  0  0  0  0  0  0  0  0  0
   -4.6101   -0.2955    0.5211 C   0  0  0  0  0  0  0  0  0  0  0  0
   -5.4336   -1.0225    0.5466 H   0  0  0  0  0  0  0  0  0  0  0  0
   -3.7395   -0.1580    1.6126 C   0  0  0  0  0  0  0  0  0  0  0  0
   -3.8514   -0.7667    2.5204 H   0  0  0  0  0  0  0  0  0  0  0  0
   -2.6923    0.7521    1.5423 C   0  0  0  0  0  0  0  0  0  0  0  0
   -1.9218    0.8973    2.3127 H   0  0  0  0  0  0  0  0  0  0  0  0
   -2.9729    2.2332   -1.8562 C   0  0  0  0  0  0  0  0  0  0  0  0
   -1.9646    1.9442   -2.2196 H   0  0  0  0  0  0  0  0  0  0  0  0
   -2.9062    3.3042   -1.5787 H   0  0  0  0  0  0  0  0  0  0  0  0
   -3.7093    2.0950   -2.6675 H   0  0  0  0  0  0  0  0  0  0  0  0
  1  2  1  0  0  0  0
  2 10  1  0  0  0  0
  3 12  1  6  0  0  0
  3  4  1  0  0  0  0
  3  2  1  0  0  0  0
  4  6  2  0  0  0  0
  5  4  1  0  0  0  0
  6  7  1  0  0  0  0
  6  8  1  0  0  0  0
  8  9  1  0  0  0  0
 10  8  2  0  0  0  0
 10 11  1  0  0  0  0
 12 14  1  0  0  0  0
 13 12  1  0  0  0  0
 15 12  1  0  0  0  0
M  END
