1
q = 0.0, confidence = 1.0

 31 32  0  0  0  0  0  0  0  0999 V2000
    0.6483   -2.0156   -0.5296 O   0  0  0  0  0  1  0  0  0  0  0  0
    1.8941   -2.3471   -0.3217 N   0  0  0  0  0  0  0  0  0  0  0  0
    2.5886   -3.0307   -1.2819 C   0  0  0  0  0  3  0  0  0  0  0  0
    2.0069   -3.2627   -2.1828 H   0  0  0  0  0  0  0  0  0  0  0  0
    3.9222   -3.3705   -1.0935 C   0  0  0  0  0  0  0  0  0  0  0  0
    4.4412   -3.9061   -1.9017 H   0  0  0  0  0  0  0  0  0  0  0  0
    4.6024   -3.0245    0.0905 C   0  0  0  0  0  0  0  0  0  0  0  0
    3.8489   -2.3381    1.0640 C   0  0  0  0  0  0  0  0  0  0  0  0
    4.3041   -2.0393    2.0188 H   0  0  0  0  0  0  0  0  0  0  0  0
    2.5179   -2.0048    0.8494 C   0  0  0  0  0  0  0  0  0  0  0  0
    1.9036   -1.4302    1.5567 H   0  0  0  0  0  0  0  0  0  0  0  0
    6.0663   -3.3251    0.2775 C   0  0  0  0  0  0  0  0  0  0  0  0
    6.2497   -3.6172    1.3341 H   0  0  0  0  0  0  0  0  0  0  0  0
    6.3367   -4.2007   -0.3472 H   0  0  0  0  0  0  0  0  0  0  0  0
    7.0008   -2.1488   -0.0854 C   0  0  0  0  0  0  0  0  0  0  0  0
    6.7832   -1.8054   -1.1190 H   0  0  0  0  0  0  0  0  0  0  0  0
    8.0441   -2.5304   -0.0926 H   0  0  0  0  0  0  0  0  0  0  0  0
    6.9102   -0.9463    0.8714 C   0  0  0  0  0  0  0  0  0  0  0  0
    5.9040   -0.4871    0.7888 H   0  0  0  0  0  0  0  0  0  0  0  0
    7.0264   -1.3097    1.9170 H   0  0  0  0  0  0  0  0  0  0  0  0
    7.9540    0.1059    0.5887 C   0  0  0  0  0  0  0  0  0  0  0  0
    7.6629    1.2737   -0.1463 C   0  0  0  0  0  0  0  0  0  0  0  0
    6.6390    1.4557   -0.5120 H   0  0  0  0  0  0  0  0  0  0  0  0
    8.6449    2.2149   -0.4284 C   0  0  0  0  0  0  0  0  0  0  0  0
    9.9566    2.0549   -0.0061 N   0  3  0  0  0  0  0  0  0  0  0  0
   10.8432    2.9161   -0.2683 O   0  5  0  0  0  0  0  0  0  0  0  0
   10.2575    0.9121    0.7214 C   0  0  0  0  0  0  0  0  0  0  0  0
   11.3099    0.8595    1.0279 H   0  0  0  0  0  0  0  0  0  0  0  0
    9.2910   -0.0414    1.0135 C   0  0  0  0  0  0  0  0  0  0  0  0
    9.5987   -0.9226    1.5989 H   0  0  0  0  0  0  0  0  0  0  0  0
    8.4817    3.1425   -0.9917 H   0  0  0  0  0  0  0  0  0  0  0  0
  1  2  1  0  0  0  0
  2 10  1  0  0  0  0
  3  5  1  0  0  0  0
  3  2  1  0  0  0  0
  4  3  1  0  0  0  0
  5  7  2  0  0  0  0
  6  5  1  0  0  0  0
  7 12  1  0  0  0  0
  7  8  1  0  0  0  0
  8  9  1  0  0  0  0
 10  8  2  0  0  0  0
 10 11  1  0  0  0  0
 12 13  1  0  0  0  0
 14 12  1  0  0  0  0
 15 12  1  0  0  0  0
 15 18  1  0  0  0  0
 16 15  1  0  0  0  0
 17 15  1  0  0  0  0
 18 20  1  0  0  0  0
 19 18  1  0  0  0  0
 21 18  1  0  0  0  0
 21 29  1  0  0  0  0
 22 21  2  0  0  0  0
 23 22  1  0  0  0  0
 24 22  1  0  0  0  0
 24 25  2  0  0  0  0
 25 27  1  0  0  0  0
 26 25  1  0  0  0  0
 27 29  2  0  0  0  0
 27 28  1  0  0  0  0
 29 30  1  0  0  0  0
 31 24  1  0  0  0  0
M  CHG  2  25   1  26  -1
M  END
