1
q = -1.0, confidence = 0.0

 20 20  0  0  0  0  0  0  0  0999 V2000
   -1.8979   -0.9999    0.2477 O   0  5  0  0  0  0  0  0  0  0  0  0
   -2.0753    1.2349    0.5509 O   0  0  0  0  0  0  0  0  0  0  0  0
   -8.8913   -1.4724   -0.4651 O   0  0  0  0  0  0  0  0  0  0  0  0
   -9.0029    0.7692   -0.1364 O   0  0  0  0  0  0  0  0  0  0  0  0
   -2.5837    0.0902    0.3453 C   0  0  0  0  0  0  0  0  0  0  0  0
   -4.0703   -0.0344    0.1952 C   0  0  0  0  0  0  0  0  0  0  0  0
   -4.6668   -1.2900   -0.0442 C   0  0  0  0  0  0  0  0  0  0  0  0
   -4.0209   -2.1766   -0.1130 H   0  0  0  0  0  0  0  0  0  0  0  0
   -6.0530   -1.3894   -0.1864 C   0  0  0  0  0  0  0  0  0  0  0  0
   -6.5458   -2.3547   -0.3731 H   0  0  0  0  0  0  0  0  0  0  0  0
   -4.8770    1.1175    0.2923 C   0  0  0  0  0  0  0  0  0  0  0  0
   -4.3870    2.0831    0.4821 H   0  0  0  0  0  0  0  0  0  0  0  0
   -6.2644    1.0196    0.1501 C   0  0  0  0  0  0  0  0  0  0  0  0
   -6.9021    1.9110    0.2242 H   0  0  0  0  0  0  0  0  0  0  0  0
   -6.8594   -0.2365   -0.0909 C   0  0  0  0  0  0  0  0  0  0  0  0
   -8.3366   -0.4074   -0.2528 C   0  0  0  0  0  0  0  0  0  0  0  0
  -10.4242    0.6807   -0.2800 C   0  0  0  0  0  0  0  0  0  0  0  0
  -10.6957    0.2782   -1.2769 H   0  0  0  0  0  0  0  0  0  0  0  0
  -10.8097    1.7086   -0.1601 H   0  0  0  0  0  0  0  0  0  0  0  0
  -10.8576    0.0114    0.4905 H   0  0  0  0  0  0  0  0  0  0  0  0
  1  5  1  0  0  0  0
  3 16  2  0  0  0  0
  5  2  2  0  0  0  0
  6 11  1  0  0  0  0
  6  5  1  0  0  0  0
  7  6  2  0  0  0  0
  8  7  1  0  0  0  0
  9 15  2  0  0  0  0
  9  7  1  0  0  0  0
 10  9  1  0  0  0  0
 11 12  1  0  0  0  0
 13 14  1  0  0  0  0
 13 11  2  0  0  0  0
 15 13  1  0  0  0  0
 16  4  1  0  0  0  0
 16 15  1  0  0  0  0
 17 19  1  0  0  0  0
 17  4  1  0  0  0  0
 17 20  1  0  0  0  0
 18 17  1  0  0  0  0
M  CHG  1   1  -1
M  END
