1
q = -1.0

 25 25  0  0  0  0  0  0  0  0999 V2000
    1.1077    1.0930   -1.4906 O   0  5  0  0  0  0  0  0  0  0  0  0
   -3.6417   -0.9080   -1.8988 O   0  0  0  0  0  0  0  0  0  0  0  0
   -2.0764    0.9602   -1.7237 C   0  0  0  0  0  0  0  0  0  0  0  0
   -1.2074    0.3241   -1.9408 H   0  0  0  0  0  0  0  0  0  0  0  0
   -5.6995    0.6272   -1.3924 O   0  0  0  0  0  0  0  0  0  0  0  0
   -4.2634    2.5914   -1.0990 C   0  0  0  0  0  0  0  0  0  0  0  0
   -5.1093    3.2405   -0.8382 H   0  0  0  0  0  0  0  0  0  0  0  0
   -2.9650    3.1350   -1.1323 C   0  0  0  0  0  0  0  0  0  0  0  0
   -2.8187    4.2006   -0.8975 H   0  0  0  0  0  0  0  0  0  0  0  0
   -3.3609    0.4014   -1.6817 C   0  0  0  0  0  0  0  0  0  0  0  0
    0.6383    2.0273    0.4828 O   0  0  0  0  0  0  0  0  0  0  0  0
    0.5065    1.9816   -0.7696 C   0  0  0  0  0  0  0  0  0  0  0  0
   -0.4585    2.9093   -1.4923 C   0  0  0  0  0  0  0  0  0  0  0  0
   -0.1158    3.0261   -2.5415 H   0  0  0  0  0  0  0  0  0  0  0  0
   -0.4518    3.9011   -1.0012 H   0  0  0  0  0  0  0  0  0  0  0  0
   -1.8646    2.3321   -1.4533 C   0  0  0  0  0  0  0  0  0  0  0  0
   -4.4803    1.2364   -1.3814 C   0  0  0  0  0  0  0  0  0  0  0  0
   -2.5557   -1.7791   -2.1741 C   0  0  0  0  0  0  0  0  0  0  0  0
   -2.9892   -2.7931   -2.2533 H   0  0  0  0  0  0  0  0  0  0  0  0
   -1.7922   -1.7778   -1.3672 H   0  0  0  0  0  0  0  0  0  0  0  0
   -2.0580   -1.5157   -3.1351 H   0  0  0  0  0  0  0  0  0  0  0  0
   -6.8060    1.3935   -0.9685 C   0  0  0  0  0  0  0  0  0  0  0  0
   -7.6923    0.7361   -1.0452 H   0  0  0  0  0  0  0  0  0  0  0  0
   -6.9700    2.2860   -1.6151 H   0  0  0  0  0  0  0  0  0  0  0  0
   -6.6862    1.7247    0.0872 H   0  0  0  0  0  0  0  0  0  0  0  0
  1 12  1  0  0  0  0
  2 10  1  0  0  0  0
  3 10  2  0  0  0  0
  3 16  1  0  0  0  0
  4  3  1  0  0  0  0
  5 17  1  0  0  0  0
  5 22  1  0  0  0  0
  6  7  1  0  0  0  0
  8  6  1  0  0  0  0
  8  9  1  0  0  0  0
 10 17  1  0  0  0  0
 12 11  2  0  0  0  0
 13 16  1  0  0  0  0
 13 15  1  0  0  0  0
 13 12  1  0  0  0  0
 14 13  1  0  0  0  0
 16  8  2  0  0  0  0
 17  6  2  0  0  0  0
 18  2  1  0  0  0  0
 18 20  1  0  0  0  0
 19 18  1  0  0  0  0
 21 18  1  0  0  0  0
 22 25  1  0  0  0  0
 23 22  1  0  0  0  0
 24 22  1  0  0  0  0
M  CHG  1   1  -1
M  END
