1
q = -1.0

 23 24  0  0  0  0  0  0  0  0999 V2000
   -0.0264   -0.1451   -1.3696 O   0  5  0  0  0  0  0  0  0  0  0  0
    0.0923   -1.4921    0.4053 O   0  0  0  0  0  0  0  0  0  0  0  0
   -0.1686   -1.2927   -0.8104 C   0  0  0  0  0  0  0  0  0  0  0  0
   -0.7597   -2.4311   -1.6492 C   0  0  0  0  0  0  0  0  0  0  0  0
   -0.8498   -2.0955   -2.7002 H   0  0  0  0  0  0  0  0  0  0  0  0
   -0.0491   -3.2801   -1.6163 H   0  0  0  0  0  0  0  0  0  0  0  0
   -2.0940   -2.8728   -1.0905 C   0  0  0  0  0  0  0  0  0  0  0  0
   -2.2169   -4.1094   -0.4636 C   0  0  0  0  0  0  0  0  0  0  0  0
   -1.3318   -4.7604   -0.3950 H   0  0  0  0  0  0  0  0  0  0  0  0
   -3.4507   -4.5518    0.0806 C   0  0  0  0  0  0  0  0  0  0  0  0
   -3.5070   -5.5403    0.5616 H   0  0  0  0  0  0  0  0  0  0  0  0
   -4.5775   -3.7503   -0.0020 C   0  0  0  0  0  0  0  0  0  0  0  0
   -5.5418   -4.0886    0.4088 H   0  0  0  0  0  0  0  0  0  0  0  0
   -4.5040   -2.4658   -0.6163 C   0  0  0  0  0  0  0  0  0  0  0  0
   -5.6445   -1.6121   -0.6928 C   0  0  0  0  0  0  0  0  0  0  0  0
   -6.6009   -1.9770   -0.2853 H   0  0  0  0  0  0  0  0  0  0  0  0
   -5.5586   -0.3524   -1.2658 C   0  0  0  0  0  0  0  0  0  0  0  0
   -6.4487    0.2936   -1.3178 H   0  0  0  0  0  0  0  0  0  0  0  0
   -4.3197    0.1040   -1.7880 C   0  0  0  0  0  0  0  0  0  0  0  0
   -4.2512    1.1077   -2.2348 H   0  0  0  0  0  0  0  0  0  0  0  0
   -3.1916   -0.7034   -1.7402 C   0  0  0  0  0  0  0  0  0  0  0  0
   -2.2337   -0.3222   -2.1227 H   0  0  0  0  0  0  0  0  0  0  0  0
   -3.2449   -2.0083   -1.1588 C   0  0  0  0  0  0  0  0  0  0  0  0
  1  3  1  0  0  0  0
  3  2  2  0  0  0  0
  4  6  1  0  0  0  0
  4  7  1  0  0  0  0
  4  3  1  0  0  0  0
  5  4  1  0  0  0  0
  7  8  1  0  0  0  0
  8  9  1  0  0  0  0
  8 10  2  0  0  0  0
 10 11  1  0  0  0  0
 12 10  1  0  0  0  0
 12 13  1  0  0  0  0
 14 12  2  0  0  0  0
 15 14  1  0  0  0  0
 15 16  1  0  0  0  0
 17 15  2  0  0  0  0
 18 17  1  0  0  0  0
 19 21  2  0  0  0  0
 19 17  1  0  0  0  0
 20 19  1  0  0  0  0
 21 23  1  0  0  0  0
 22 21  1  0  0  0  0
 23  7  2  0  0  0  0
 23 14  1  0  0  0  0
M  CHG  1   1  -1
M  END
