3
q = -1.0, confidence = 0.004

 24 24  0  0  0  0  0  0  0  0999 V2000
   -4.0432   -1.7006   -0.0684 N   0  0  0  0  0  0  0  0  0  0  0  0
   -3.0423   -1.4537   -0.1561 H   0  0  0  0  0  0  0  0  0  0  0  0
   -2.0086   -0.0762   -0.3313 O   0  5  0  0  0  0  0  0  0  0  0  0
   -5.5372   -3.4578    0.1497 O   0  0  0  0  0  0  0  0  0  0  0  0
   -2.3023    2.1119    0.0947 O   0  0  0  0  0  0  0  0  0  0  0  0
   -4.3887   -3.0360    0.0450 C   0  0  0  0  0  0  0  0  0  0  0  0
   -7.0431    0.5107    0.0076 C   0  0  0  0  0  0  0  0  0  0  0  0
   -8.1402    0.4108    0.0449 H   0  0  0  0  0  0  0  0  0  0  0  0
   -4.2482    0.7301   -0.0900 C   0  0  0  0  0  0  0  0  0  0  0  0
   -6.4677    1.8022   -0.0173 C   0  0  0  0  0  0  0  0  0  0  0  0
   -5.0711    1.8779   -0.0584 C   0  0  0  0  0  0  0  0  0  0  0  0
   -4.5623    2.8533   -0.0648 H   0  0  0  0  0  0  0  0  0  0  0  0
   -4.8557   -0.5677   -0.0631 C   0  0  0  0  0  0  0  0  0  0  0  0
   -6.2684   -0.6497   -0.0096 C   0  0  0  0  0  0  0  0  0  0  0  0
   -6.7239   -1.6465    0.0232 H   0  0  0  0  0  0  0  0  0  0  0  0
   -2.7747    0.9440   -0.1139 C   0  0  0  0  0  0  0  0  0  0  0  0
   -7.3308    3.0382   -0.0001 C   0  0  0  0  0  0  0  0  0  0  0  0
   -6.7191    3.9603    0.0343 H   0  0  0  0  0  0  0  0  0  0  0  0
   -7.9759    3.0943   -0.9024 H   0  0  0  0  0  0  0  0  0  0  0  0
   -8.0094    3.0470    0.8783 H   0  0  0  0  0  0  0  0  0  0  0  0
   -3.1818   -3.9684   -0.0009 C   0  0  0  0  0  0  0  0  0  0  0  0
   -3.3688   -4.8157    0.6848 H   0  0  0  0  0  0  0  0  0  0  0  0
   -3.0930   -4.3938   -1.0226 H   0  0  0  0  0  0  0  0  0  0  0  0
   -2.2252   -3.4740    0.2640 H   0  0  0  0  0  0  0  0  0  0  0  0
  1 13  1  0  0  0  0
  1  6  1  0  0  0  0
  2  1  1  0  0  0  0
  3 16  1  0  0  0  0
  6  4  2  0  0  0  0
  7  8  1  0  0  0  0
  9 13  1  0  0  0  0
  9 11  2  0  0  0  0
 10 17  1  0  0  0  0
 10  7  2  0  0  0  0
 11 10  1  0  0  0  0
 12 11  1  0  0  0  0
 13 14  2  0  0  0  0
 14  7  1  0  0  0  0
 14 15  1  0  0  0  0
 16  9  1  0  0  0  0
 16  5  2  0  0  0  0
 17 18  1  0  0  0  0
 17 20  1  0  0  0  0
 19 17  1  0  0  0  0
 21  6  1  0  0  0  0
 21 24  1  0  0  0  0
 21 22  1  0  0  0  0
 23 21  1  0  0  0  0
M  CHG  1   3  -1
M  END
