2
q = -1.0

 20 20  0  0  0  0  0  0  0  0999 V2000
   -2.6305    1.0859   -0.1357 O   0  5  0  0  0  0  0  0  0  0  0  0
   -1.6107   -0.9406    0.1847 O   0  0  0  0  0  0  0  0  0  0  0  0
   -2.6638   -0.1593    0.0311 C   0  0  0  0  0  0  0  0  0  0  0  0
   -3.8270   -0.8867    0.0758 N   0  0  0  0  0  0  0  0  0  0  0  0
   -3.6806   -1.8875    0.2224 H   0  0  0  0  0  0  0  0  0  0  0  0
   -9.1789    0.7007   -0.4340 O   0  0  0  0  0  0  0  0  0  0  0  0
   -5.1623   -0.4574   -0.0561 C   0  0  0  0  0  0  0  0  0  0  0  0
   -6.1758   -1.4321    0.0263 C   0  0  0  0  0  0  0  0  0  0  0  0
   -5.9032   -2.4873    0.1889 H   0  0  0  0  0  0  0  0  0  0  0  0
   -5.5345    0.8911   -0.2649 C   0  0  0  0  0  0  0  0  0  0  0  0
   -4.7516    1.6555   -0.3295 H   0  0  0  0  0  0  0  0  0  0  0  0
   -6.8823    1.2327   -0.3854 C   0  0  0  0  0  0  0  0  0  0  0  0
   -7.1818    2.2783   -0.5479 H   0  0  0  0  0  0  0  0  0  0  0  0
   -7.8965    0.2555   -0.3027 C   0  0  0  0  0  0  0  0  0  0  0  0
   -7.5299   -1.0889   -0.0943 C   0  0  0  0  0  0  0  0  0  0  0  0
   -8.2866   -1.8813   -0.0235 H   0  0  0  0  0  0  0  0  0  0  0  0
  -10.2244   -0.2464   -0.3566 C   0  0  0  0  0  0  0  0  0  0  0  0
  -10.1507   -1.0161   -1.1587 H   0  0  0  0  0  0  0  0  0  0  0  0
  -11.1686    0.3148   -0.4858 H   0  0  0  0  0  0  0  0  0  0  0  0
  -10.2459   -0.7649    0.6291 H   0  0  0  0  0  0  0  0  0  0  0  0
  1  3  1  0  0  0  0
  3  4  1  0  0  0  0
  3  2  2  0  0  0  0
  4  5  1  0  0  0  0
  6 17  1  0  0  0  0
  6 14  1  0  0  0  0
  7  8  1  0  0  0  0
  7  4  1  0  0  0  0
  8  9  1  0  0  0  0
 10  7  2  0  0  0  0
 11 10  1  0  0  0  0
 12 14  2  0  0  0  0
 12 10  1  0  0  0  0
 13 12  1  0  0  0  0
 14 15  1  0  0  0  0
 15 16  1  0  0  0  0
 15  8  2  0  0  0  0
 17 20  1  0  0  0  0
 18 17  1  0  0  0  0
 19 17  1  0  0  0  0
M  CHG  1   1  -1
M  END
