1
q = -1.0

 16 16  0  0  0  0  0  0  0  0999 V2000
    1.9758   -0.7518   -0.7981 O   0  5  0  0  0  0  0  0  0  0  0  0
    2.2616   -1.2364    1.3859 O   0  0  0  0  0  0  0  0  0  0  0  0
    8.2594   -1.9971   -0.8312 N   0  0  0  0  0  0  0  0  0  0  0  0
    2.7100   -1.1077    0.2254 C   0  0  0  0  0  0  0  0  0  0  0  0
    4.1532   -1.3441   -0.0755 C   0  0  0  0  0  0  0  0  0  0  0  0
    5.0229   -1.7447    0.9603 C   0  0  0  0  0  0  0  0  0  0  0  0
    4.6001   -1.8753    1.9673 H   0  0  0  0  0  0  0  0  0  0  0  0
    6.3758   -1.9758    0.7139 C   0  0  0  0  0  0  0  0  0  0  0  0
    7.0413   -2.2895    1.5342 H   0  0  0  0  0  0  0  0  0  0  0  0
    6.9107   -1.8128   -0.5902 C   0  0  0  0  0  0  0  0  0  0  0  0
    6.0338   -1.4111   -1.6306 C   0  0  0  0  0  0  0  0  0  0  0  0
    6.4314   -1.2806   -2.6499 H   0  0  0  0  0  0  0  0  0  0  0  0
    4.6815   -1.1831   -1.3739 C   0  0  0  0  0  0  0  0  0  0  0  0
    4.0022   -0.8773   -2.1823 H   0  0  0  0  0  0  0  0  0  0  0  0
    8.5452   -2.1478   -1.7983 H   0  0  0  0  0  0  0  0  0  0  0  0
    8.7853   -2.5451   -0.1509 H   0  0  0  0  0  0  0  0  0  0  0  0
  1  4  1  0  0  0  0
  3 10  1  0  0  0  0
  3 16  1  0  0  0  0
  4  2  2  0  0  0  0
  5  4  1  0  0  0  0
  5  6  1  0  0  0  0
  6  7  1  0  0  0  0
  8  6  2  0  0  0  0
  8  9  1  0  0  0  0
 10  8  1  0  0  0  0
 11 13  1  0  0  0  0
 11 10  2  0  0  0  0
 12 11  1  0  0  0  0
 13  5  2  0  0  0  0
 14 13  1  0  0  0  0
 15  3  1  0  0  0  0
M  CHG  1   1  -1
M  END
