3
q = -1.0, confidence = 0.032

 14 14  0  0  0  0  0  0  0  0999 V2000
    4.6829   -1.7058   -0.9181 Cl  0  0  0  0  0  0  0  0  0  0  0  0
    2.1907   -1.1053   -0.8930 O   0  0  0  0  0  0  0  0  0  0  0  0
    1.0929    0.7789    0.7383 O   0  5  0  0  0  0  0  0  0  0  0  0
    2.3240    0.9104    1.1917 C   0  0  0  0  0  0  0  0  0  0  0  0
    2.5348    1.8679    2.2179 C   0  0  0  0  0  0  0  0  0  0  0  0
    3.8015    2.0737    2.7578 C   0  0  0  0  0  0  0  0  0  0  0  0
    4.9099    1.3313    2.2946 C   0  0  0  0  0  0  0  0  0  0  0  0
    4.7294    0.3885    1.2880 C   0  0  0  0  0  0  0  0  0  0  0  0
    3.4525    0.1531    0.7140 C   0  0  0  0  0  0  0  0  0  0  0  0
    3.2544   -0.8251   -0.3459 C   0  0  0  0  0  0  0  0  0  0  0  0
    1.6571    2.4306    2.5656 H   0  0  0  0  0  0  0  0  0  0  0  0
    3.9355    2.8214    3.5545 H   0  0  0  0  0  0  0  0  0  0  0  0
    5.9086    1.4948    2.7236 H   0  0  0  0  0  0  0  0  0  0  0  0
    5.5807   -0.1962    0.9142 H   0  0  0  0  0  0  0  0  0  0  0  0
  1 10  1  0  0  0  0
  2 10  2  0  0  0  0
  3  4  1  0  0  0  0
  4  5  1  0  0  0  0
  5 11  1  0  0  0  0
  5  6  2  0  0  0  0
  6 12  1  0  0  0  0
  7 13  1  0  0  0  0
  7  6  1  0  0  0  0
  8  7  2  0  0  0  0
  9  4  2  0  0  0  0
  9  8  1  0  0  0  0
 10  9  1  0  0  0  0
 14  8  1  0  0  0  0
M  CHG  1   3  -1
M  END
