2
q = -1.0

 12 12  0  0  0  0  0  0  0  0999 V2000
   -4.1393    0.7382   -2.4361 C   0  0  0  0  0  0  0  0  0  0  0  0
    0.0535    1.6573   -0.0187 O   0  5  0  0  0  0  0  0  0  0  0  0
   -1.8331    0.7233   -1.7775 N   0  0  0  0  0  0  0  0  0  0  0  0
   -1.1992    3.4648    0.4234 O   0  0  0  0  0  0  0  0  0  0  0  0
   -4.4339    1.8171   -1.6949 N   0  0  0  0  0  0  0  0  0  0  0  0
   -1.0307    2.3792   -0.1392 C   0  0  0  0  0  0  0  0  0  0  0  0
   -3.4165    2.3551   -1.0041 C   0  0  0  0  0  0  0  0  0  0  0  0
   -2.1233    1.7980   -1.0178 C   0  0  0  0  0  0  0  0  0  0  0  0
   -2.8385    0.2054   -2.4974 C   0  0  0  0  0  0  0  0  0  0  0  0
   -4.9636    0.2692   -3.0016 H   0  0  0  0  0  0  0  0  0  0  0  0
   -3.6070    3.2561   -0.3976 H   0  0  0  0  0  0  0  0  0  0  0  0
   -2.6111   -0.6703   -3.1287 H   0  0  0  0  0  0  0  0  0  0  0  0
  1  5  1  0  0  0  0
  3  8  2  0  0  0  0
  5  7  2  0  0  0  0
  6  2  1  0  0  0  0
  6  4  2  0  0  0  0
  7 11  1  0  0  0  0
  8  7  1  0  0  0  0
  8  6  1  0  0  0  0
  9  1  2  0  0  0  0
  9  3  1  0  0  0  0
 10  1  1  0  0  0  0
 12  9  1  0  0  0  0
M  CHG  1   2  -1
M  END
