2
q = -2.0, confidence = 0.796

  9  9  0  0  0  0  0  0  0  0999 V2000
    1.8165    1.4362    0.5621 P   0  0  2  0  0  0  0  0  0  0  0  0
    0.2293    1.4536    0.7690 O   0  0  0  0  0  0  0  0  0  0  0  0
    2.6206    2.5953    1.0054 O   0  0  0  0  0  0  0  0  0  0  0  0
    1.8621    1.1456   -1.1343 O   0  0  0  0  0  0  0  0  0  0  0  0
    2.3106   -0.0889    1.0284 O   0  0  0  0  0  0  0  0  0  0  0  0
    2.3845   -1.2724   -0.2108 P   0  0  2  0  0  0  0  0  0  0  0  0
    1.2073   -0.1926   -1.1742 O   0  0  0  0  0  0  0  0  0  0  0  0
    1.4113   -2.4091    0.0792 O   0  0  0  0  0  0  0  0  0  0  0  0
    3.7014   -1.3226   -0.8838 O   0  0  0  0  0  0  0  0  0  0  0  0
  1  2  1  1  0  0  0
  1  3  2  0  0  0  0
  1  5  1  0  0  0  0
  4  1  1  0  0  0  0
  6  9  2  6  0  0  0
  6  8  1  0  0  0  0
  6  5  1  0  0  0  0
  7  4  1  0  0  0  0
  7  6  1  0  0  0  0
M  END
