1
q = -1.0

 19 19  0  0  0  0  0  0  0  0999 V2000
   -0.6457    0.1601    0.8509 O   0  5  0  0  0  0  0  0  0  0  0  0
   -1.3270    0.9477    1.6852 C   0  0  0  0  0  0  0  0  0  0  0  0
   -2.6859    0.9935    1.7942 C   0  0  0  0  0  0  0  0  0  0  0  0
   -3.6933    0.2756    1.0166 C   0  0  0  0  0  0  0  0  0  0  0  0
   -3.4048   -0.4595   -0.1632 C   0  0  0  0  0  0  0  0  0  0  0  0
   -4.4195   -1.1183   -0.8665 C   0  0  0  0  0  0  0  0  0  0  0  0
   -5.7628   -1.0850   -0.4388 C   0  0  0  0  0  0  0  0  0  0  0  0
   -6.0542   -0.3437    0.7256 C   0  0  0  0  0  0  0  0  0  0  0  0
   -5.0482    0.3216    1.4329 C   0  0  0  0  0  0  0  0  0  0  0  0
   -6.8418   -1.8287   -1.1839 C   0  0  0  0  0  0  0  0  0  0  0  0
   -0.6797    1.5824    2.3245 H   0  0  0  0  0  0  0  0  0  0  0  0
   -3.0638    1.6598    2.5856 H   0  0  0  0  0  0  0  0  0  0  0  0
   -2.3769   -0.5002   -0.5478 H   0  0  0  0  0  0  0  0  0  0  0  0
   -4.1579   -1.6691   -1.7848 H   0  0  0  0  0  0  0  0  0  0  0  0
   -7.0955   -0.2848    1.0816 H   0  0  0  0  0  0  0  0  0  0  0  0
   -5.3084    0.8957    2.3366 H   0  0  0  0  0  0  0  0  0  0  0  0
   -7.8245   -1.3241   -1.0940 H   0  0  0  0  0  0  0  0  0  0  0  0
   -6.6012   -1.9271   -2.2611 H   0  0  0  0  0  0  0  0  0  0  0  0
   -6.9689   -2.8587   -0.7842 H   0  0  0  0  0  0  0  0  0  0  0  0
  1  2  1  0  0  0  0
  2  3  2  0  0  0  0
  2 11  1  0  0  0  0
  3 12  1  0  0  0  0
  4  9  1  0  0  0  0
  4  3  1  0  0  0  0
  5  4  2  0  0  0  0
  6  7  2  0  0  0  0
  6  5  1  0  0  0  0
  7  8  1  0  0  0  0
  8 15  1  0  0  0  0
  8  9  2  0  0  0  0
  9 16  1  0  0  0  0
 10 17  1  0  0  0  0
 10 19  1  0  0  0  0
 10  7  1  0  0  0  0
 13  5  1  0  0  0  0
 14  6  1  0  0  0  0
 18 10  1  0  0  0  0
M  CHG  1   1  -1
M  END
