1
q = -1.0

 10 10  0  0  0  0  0  0  0  0999 V2000
    1.6555    1.0534   -0.2349 O   0  5  0  0  0  0  0  0  0  0  0  0
    2.8478    0.5415   -0.1982 C   0  0  0  0  0  0  0  0  0  0  0  0
    4.2369    1.1399   -0.0438 C   0  0  0  0  0  0  0  0  0  0  0  0
    4.6827    2.2606    0.0697 O   0  0  0  0  0  0  0  0  0  0  0  0
    4.7740   -0.3346   -0.0768 C   0  0  0  0  0  0  0  0  0  0  0  0
    5.8347   -0.9253    0.0098 O   0  0  0  0  0  0  0  0  0  0  0  0
    3.3635   -0.7665   -0.2463 C   0  0  0  0  0  0  0  0  0  0  0  0
    2.7883   -2.0264   -0.2854 N   0  0  0  0  0  0  0  0  0  0  0  0
    3.4863   -2.7748   -0.3834 H   0  0  0  0  0  0  0  0  0  0  0  0
    2.0034   -2.1296   -0.9504 H   0  0  0  0  0  0  0  0  0  0  0  0
  1  2  1  0  0  0  0
  2  3  1  0  0  0  0
  3  4  2  0  0  0  0
  5  3  1  0  0  0  0
  5  6  2  0  0  0  0
  7  2  2  0  0  0  0
  7  5  1  0  0  0  0
  8  7  1  0  0  0  0
  9  8  1  0  0  0  0
 10  8  1  0  0  0  0
M  CHG  1   1  -1
M  END
