1
q = -2.0, confidence = 0.88

 38 42  0  0  1  0  0  0  0  0999 V2000
   -1.4067   -0.4849   -0.0409 O   0  0  0  0  0  1  0  0  0  0  0  0
   -1.5963    1.8052    0.1057 N   0  0  0  0  0  0  0  0  0  0  0  0
   -2.2761    2.5589    0.2308 H   0  0  0  0  0  0  0  0  0  0  0  0
   -2.1066    0.5858    0.0290 C   0  0  2  0  0  3  0  0  0  0  0  0
   -3.5921    0.4175    0.0224 C   0  0  0  0  0  0  0  0  0  0  0  0
   -4.1580   -0.7625    0.5468 C   0  0  0  0  0  0  0  0  0  0  0  0
   -3.4906   -1.5326    0.9587 H   0  0  0  0  0  0  0  0  0  0  0  0
   -5.5478   -0.9354    0.5564 C   0  0  0  0  0  0  0  0  0  0  0  0
   -5.9827   -1.8528    0.9809 H   0  0  0  0  0  0  0  0  0  0  0  0
   -6.3857    0.0607    0.0281 C   0  0  0  0  0  0  0  0  0  0  0  0
   -7.4774   -0.0774    0.0324 H   0  0  0  0  0  0  0  0  0  0  0  0
   -5.8279    1.2311   -0.5107 C   0  0  0  0  0  0  0  0  0  0  0  0
   -6.4786    2.0073   -0.9401 H   0  0  0  0  0  0  0  0  0  0  0  0
   -4.4380    1.4107   -0.5142 C   0  0  0  0  0  0  0  0  0  0  0  0
   -4.0080    2.3173   -0.9676 H   0  0  0  0  0  0  0  0  0  0  0  0
   -0.1452    2.2452    0.0795 B   0  0  2  0  0  0  0  0  0  0  0  0
    1.1095    1.3884   -0.8331 B   0  0  2  0  0  0  0  0  0  0  0  0
    0.7789    0.3472   -1.5069 H   0  0  0  0  0  0  0  0  0  0  0  0
    1.1434    1.3423    0.8961 B   0  0  1  0  0  0  0  0  0  0  0  0
    0.8200    0.2709    1.5239 H   0  0  0  0  0  0  0  0  0  0  0  0
    0.6057    2.9100    1.5478 B   0  0  0  0  0  2  0  0  0  0  0  0
   -0.0245    2.9872    2.5821 H   0  0  0  0  0  0  0  0  0  0  0  0
    0.2522    3.9477    0.1170 B   0  0  1  0  0  0  0  0  0  0  0  0
   -0.6386    4.7751    0.1569 H   0  0  0  0  0  0  0  0  0  0  0  0
    0.5460    2.9877   -1.3818 B   0  0  0  0  0  2  0  0  0  0  0  0
   -0.1245    3.1192   -2.3848 H   0  0  0  0  0  0  0  0  0  0  0  0
    2.3095    2.5575   -1.4228 B   0  0  0  0  0  0  0  0  0  0  0  0
    2.8943    2.4067   -2.4758 H   0  0  0  0  0  0  0  0  0  0  0  0
    2.6846    1.5632    0.0040 B   0  0  2  0  0  0  0  0  0  0  0  0
    3.5218    0.6916   -0.0356 H   0  0  0  0  0  0  0  0  0  0  0  0
    2.3683    2.4792    1.4969 B   0  0  0  0  0  0  0  0  0  0  0  0
    2.9957    2.2754    2.5163 H   0  0  0  0  0  0  0  0  0  0  0  0
    1.8043    4.1048    0.9892 B   0  0  2  0  0  0  0  0  0  0  0  0
    2.0543    5.0857    1.6579 H   0  0  0  0  0  0  0  0  0  0  0  0
    1.7678    4.1528   -0.8079 B   0  0  2  0  0  0  0  0  0  0  0  0
    1.9918    5.1673   -1.4345 H   0  0  0  0  0  0  0  0  0  0  0  0
    3.0733    3.2805    0.0425 B   0  0  2  0  0  0  0  0  0  0  0  0
    4.2247    3.6605    0.0291 H   0  0  0  0  0  0  0  0  0  0  0  0
  2  3  1  0  0  0  0
  4  1  1  1  0  0  0
  4  2  1  0  0  0  0
  5  4  1  0  0  0  0
  5  6  1  0  0  0  0
  6  8  2  0  0  0  0
  6  7  1  0  0  0  0
  8  9  1  0  0  0  0
 10 11  1  0  0  0  0
 10  8  1  0  0  0  0
 12 10  2  0  0  0  0
 13 12  1  0  0  0  0
 14 12  1  0  0  0  0
 14  5  2  0  0  0  0
 15 14  1  0  0  0  0
 16  2  1  1  0  0  0
 16 23  1  0  0  0  0
 16 19  1  0  0  0  0
 17 18  1  6  0  0  0
 17 16  1  0  0  0  0
 17 19  1  0  0  0  0
 19 31  1  0  0  0  0
 19 20  1  1  0  0  0
 21 22  1  0  0  0  0
 23 24  1  1  0  0  0
 23 33  1  0  0  0  0
 25 35  1  0  0  0  0
 26 25  1  0  0  0  0
 27 17  1  0  0  0  0
 27 29  1  0  0  0  0
 28 27  1  0  0  0  0
 29 30  1  6  0  0  0
 29 37  1  0  0  0  0
 29 31  1  0  0  0  0
 31 32  1  0  0  0  0
 33 21  1  0  0  0  0
 33 34  1  1  0  0  0
 35 36  1  6  0  0  0
 35 37  1  0  0  0  0
 35 23  1  0  0  0  0
 37 38  1  6  0  0  0
 37 33  1  0  0  0  0
M  END
