2
q = -1.0

 44 47  0  0  0  0  0  0  0  0999 V2000
   -1.7758    0.6752   -0.2248 P   0  0  0  0  0  0  0  0  0  0  0  0
    1.1105    0.7330    0.1529 O   0  5  0  0  0  0  0  0  0  0  0  0
   -2.9123    1.1992   -1.5758 C   0  0  0  0  0  0  0  0  0  0  0  0
   -2.4211    2.0660   -2.5764 C   0  0  0  0  0  0  0  0  0  0  0  0
   -1.3928    2.4475   -2.5115 H   0  0  0  0  0  0  0  0  0  0  0  0
   -0.8136    2.1738    0.1630 C   0  0  0  0  0  0  0  0  0  0  0  0
   -3.6784   -0.7602    1.2573 C   0  0  0  0  0  0  0  0  0  0  0  0
   -3.5812   -1.4968    0.4442 H   0  0  0  0  0  0  0  0  0  0  0  0
   -2.9027    0.4215    1.2182 C   0  0  0  0  0  0  0  0  0  0  0  0
    0.5923    1.9522    0.2799 C   0  0  0  0  0  0  0  0  0  0  0  0
    1.4342    3.0778    0.5496 C   0  0  0  0  0  0  0  0  0  0  0  0
    2.9143    2.9291    0.5784 C   0  0  0  0  0  0  0  0  0  0  0  0
   -3.2392    2.4372   -3.6520 C   0  0  0  0  0  0  0  0  0  0  0  0
   -2.8434    3.1154   -4.4232 H   0  0  0  0  0  0  0  0  0  0  0  0
   -0.5356    4.5477    0.6263 C   0  0  0  0  0  0  0  0  0  0  0  0
   -0.9597    5.5544    0.7547 H   0  0  0  0  0  0  0  0  0  0  0  0
    0.8505    4.3419    0.7414 C   0  0  0  0  0  0  0  0  0  0  0  0
    1.5161    5.1935    0.9526 H   0  0  0  0  0  0  0  0  0  0  0  0
   -4.2285    0.7076   -1.6791 C   0  0  0  0  0  0  0  0  0  0  0  0
   -4.6344    0.0379   -0.9086 H   0  0  0  0  0  0  0  0  0  0  0  0
   -3.8373    1.0640    3.3815 C   0  0  0  0  0  0  0  0  0  0  0  0
   -3.8916    1.7817    4.2145 H   0  0  0  0  0  0  0  0  0  0  0  0
   -4.6180   -0.1029    3.4056 C   0  0  0  0  0  0  0  0  0  0  0  0
   -5.2879   -0.3037    4.2555 H   0  0  0  0  0  0  0  0  0  0  0  0
   -1.3624    3.4622    0.3163 C   0  0  0  0  0  0  0  0  0  0  0  0
   -2.4454    3.6072    0.1788 H   0  0  0  0  0  0  0  0  0  0  0  0
    3.6122    2.6235   -0.6098 C   0  0  0  0  0  0  0  0  0  0  0  0
    3.0399    2.4709   -1.5371 H   0  0  0  0  0  0  0  0  0  0  0  0
   -4.5503    1.9450   -3.7501 C   0  0  0  0  0  0  0  0  0  0  0  0
   -5.1895    2.2364   -4.5974 H   0  0  0  0  0  0  0  0  0  0  0  0
   -2.9868    1.3273    2.2954 C   0  0  0  0  0  0  0  0  0  0  0  0
   -2.3799    2.2444    2.2883 H   0  0  0  0  0  0  0  0  0  0  0  0
   -4.5357   -1.0132    2.3397 C   0  0  0  0  0  0  0  0  0  0  0  0
   -5.1365   -1.9356    2.3522 H   0  0  0  0  0  0  0  0  0  0  0  0
   -5.0410    1.0802   -2.7606 C   0  0  0  0  0  0  0  0  0  0  0  0
   -6.0682    0.6901   -2.8255 H   0  0  0  0  0  0  0  0  0  0  0  0
    5.7318    2.7008    0.5818 C   0  0  0  0  0  0  0  0  0  0  0  0
    6.8287    2.6103    0.5833 H   0  0  0  0  0  0  0  0  0  0  0  0
    5.0096    2.5155   -0.6089 C   0  0  0  0  0  0  0  0  0  0  0  0
    5.5401    2.2821   -1.5449 H   0  0  0  0  0  0  0  0  0  0  0  0
    5.0478    3.0062    1.7686 C   0  0  0  0  0  0  0  0  0  0  0  0
    5.6073    3.1539    2.7052 H   0  0  0  0  0  0  0  0  0  0  0  0
    3.6489    3.1252    1.7654 C   0  0  0  0  0  0  0  0  0  0  0  0
    3.1101    3.3632    2.6957 H   0  0  0  0  0  0  0  0  0  0  0  0
  1  6  1  0  0  0  0
  1  9  1  0  0  0  0
  2 10  1  0  0  0  0
  3  1  1  0  0  0  0
  4  5  1  0  0  0  0
  4  3  2  0  0  0  0
  6 10  2  0  0  0  0
  6 25  1  0  0  0  0
  7 33  1  0  0  0  0
  8  7  1  0  0  0  0
  9  7  2  0  0  0  0
  9 31  1  0  0  0  0
 10 11  1  0  0  0  0
 11 12  1  0  0  0  0
 11 17  2  0  0  0  0
 12 43  1  0  0  0  0
 13  4  1  0  0  0  0
 14 13  1  0  0  0  0
 15 17  1  0  0  0  0
 15 16  1  0  0  0  0
 17 18  1  0  0  0  0
 19  3  1  0  0  0  0
 19 20  1  0  0  0  0
 21 23  1  0  0  0  0
 21 22  1  0  0  0  0
 23 24  1  0  0  0  0
 25 15  2  0  0  0  0
 26 25  1  0  0  0  0
 27 39  1  0  0  0  0
 27 12  2  0  0  0  0
 28 27  1  0  0  0  0
 29 13  2  0  0  0  0
 29 35  1  0  0  0  0
 30 29  1  0  0  0  0
 31 21  2  0  0  0  0
 32 31  1  0  0  0  0
 33 34  1  0  0  0  0
 33 23  2  0  0  0  0
 35 19  2  0  0  0  0
 36 35  1  0  0  0  0
 37 38  1  0  0  0  0
 37 41  1  0  0  0  0
 39 37  2  0  0  0  0
 40 39  1  0  0  0  0
 41 42  1  0  0  0  0
 43 41  2  0  0  0  0
 43 44  1  0  0  0  0
M  CHG  1   2  -1
M  END
