3
q = -1

 15 15  0  0  0  0  0  0  0  0999 V2000
    2.5711   -2.0357   -1.7631 P   0  0  2  0  0  0  0  0  0  0  0  0
    3.0117   -2.4492   -3.0720 H   0  0  0  0  0  0  0  0  0  0  0  0
    1.3511   -1.0978   -2.0384 O   0  0  0  0  0  1  0  0  0  0  0  0
    2.4218   -3.2293   -0.8165 O   0  0  0  0  0  0  0  0  0  0  0  0
    3.9645   -0.9758   -1.1889 C   0  0  0  0  0  0  0  0  0  0  0  0
    4.0891    0.3569   -1.6281 C   0  0  0  0  0  0  0  0  0  0  0  0
    3.3385    0.7609   -2.3254 H   0  0  0  0  0  0  0  0  0  0  0  0
    5.1421    1.1582   -1.1613 C   0  0  0  0  0  0  0  0  0  0  0  0
    5.2326    2.2015   -1.5022 H   0  0  0  0  0  0  0  0  0  0  0  0
    6.0748    0.6327   -0.2506 C   0  0  0  0  0  0  0  0  0  0  0  0
    6.8986    1.2635    0.1180 H   0  0  0  0  0  0  0  0  0  0  0  0
    5.9539   -0.6955    0.1905 C   0  0  0  0  0  0  0  0  0  0  0  0
    6.6837   -1.1061    0.9061 H   0  0  0  0  0  0  0  0  0  0  0  0
    4.9020   -1.4983   -0.2789 C   0  0  0  0  0  0  0  0  0  0  0  0
    4.7737   -2.5374    0.0628 H   0  0  0  0  0  0  0  0  0  0  0  0
  1  2  1  6  0  0  0
  1  5  1  0  0  0  0
  1  4  2  0  0  0  0
  3  1  1  0  0  0  0
  5 14  1  0  0  0  0
  6  5  2  0  0  0  0
  6  8  1  0  0  0  0
  7  6  1  0  0  0  0
  8 10  2  0  0  0  0
  9  8  1  0  0  0  0
 10 11  1  0  0  0  0
 10 12  1  0  0  0  0
 12 13  1  0  0  0  0
 14 15  1  0  0  0  0
 14 12  2  0  0  0  0
M  END
