2
q = -1.0, confidence = 0.0

 28 29  0  0  0  0  0  0  0  0999 V2000
    2.5886    0.2750    1.5885 P   0  0  0  0  0  0  0  0  0  0  0  0
   -0.0369   -0.1471    0.9621 O   0  5  0  0  0  0  0  0  0  0  0  0
    2.3264    1.6668    0.3890 C   0  0  0  0  0  0  0  0  0  0  0  0
    1.8894    1.4886   -0.9398 C   0  0  0  0  0  0  0  0  0  0  0  0
    1.6139    2.6003   -1.7504 C   0  0  0  0  0  0  0  0  0  0  0  0
    1.7700    3.9016   -1.2452 C   0  0  0  0  0  0  0  0  0  0  0  0
    2.2075    4.0889    0.0770 C   0  0  0  0  0  0  0  0  0  0  0  0
    2.4890    2.9775    0.8872 C   0  0  0  0  0  0  0  0  0  0  0  0
    2.8838   -1.1594    0.4584 C   0  0  0  0  0  0  0  0  0  0  0  0
    2.2121   -2.3858    0.6447 C   0  0  0  0  0  0  0  0  0  0  0  0
    2.5081   -3.4937   -0.1635 C   0  0  0  0  0  0  0  0  0  0  0  0
    3.4828   -3.3962   -1.1691 C   0  0  0  0  0  0  0  0  0  0  0  0
    4.1691   -2.1848   -1.3512 C   0  0  0  0  0  0  0  0  0  0  0  0
    3.8778   -1.0779   -0.5408 C   0  0  0  0  0  0  0  0  0  0  0  0
    0.7845   -0.0274    1.9961 C   0  0  0  0  0  0  0  0  0  0  0  0
    0.3980   -0.1016    3.2965 C   0  0  0  0  0  0  0  0  0  0  0  0
    1.7393    0.4771   -1.3418 H   0  0  0  0  0  0  0  0  0  0  0  0
    1.2568    2.4384   -2.7789 H   0  0  0  0  0  0  0  0  0  0  0  0
    1.5506    4.7725   -1.8817 H   0  0  0  0  0  0  0  0  0  0  0  0
    2.3355    5.1060    0.4781 H   0  0  0  0  0  0  0  0  0  0  0  0
    2.8338    3.1233    1.9237 H   0  0  0  0  0  0  0  0  0  0  0  0
    1.4471   -2.4731    1.4314 H   0  0  0  0  0  0  0  0  0  0  0  0
    1.9698   -4.4417   -0.0068 H   0  0  0  0  0  0  0  0  0  0  0  0
    3.7096   -4.2632   -1.8078 H   0  0  0  0  0  0  0  0  0  0  0  0
    4.9389   -2.0988   -2.1335 H   0  0  0  0  0  0  0  0  0  0  0  0
    4.4205   -0.1322   -0.6972 H   0  0  0  0  0  0  0  0  0  0  0  0
    1.1430    0.0042    4.0962 H   0  0  0  0  0  0  0  0  0  0  0  0
   -0.6579   -0.2628    3.5684 H   0  0  0  0  0  0  0  0  0  0  0  0
  1 15  1  0  0  0  0
  2 15  1  0  0  0  0
  3  8  1  0  0  0  0
  3  1  1  0  0  0  0
  4  3  2  0  0  0  0
  5  6  2  0  0  0  0
  5  4  1  0  0  0  0
  6  7  1  0  0  0  0
  7 20  1  0  0  0  0
  7  8  2  0  0  0  0
  8 21  1  0  0  0  0
  9 10  1  0  0  0  0
  9  1  1  0  0  0  0
 10 22  1  0  0  0  0
 11 23  1  0  0  0  0
 11 10  2  0  0  0  0
 12 11  1  0  0  0  0
 13 12  2  0  0  0  0
 13 14  1  0  0  0  0
 14  9  2  0  0  0  0
 15 16  2  0  0  0  0
 16 28  1  0  0  0  0
 16 27  1  0  0  0  0
 17  4  1  0  0  0  0
 18  5  1  0  0  0  0
 19  6  1  0  0  0  0
 24 12  1  0  0  0  0
 25 13  1  0  0  0  0
 26 14  1  0  0  0  0
M  CHG  1   2  -1
M  END
