4
q = -1.0, confidence = 0.01

 15 16  0  0  1  0  0  0  0  0999 V2000
    0.5289   -2.8298    0.6574 H   0  0  0  0  0  0  0  0  0  0  0  0
    1.3029   -2.3353   -1.6646 O   0  0  0  0  0  0  0  0  0  0  0  0
    1.5905   -2.7915    0.5444 O   0  0  0  0  0  0  0  0  0  0  0  0
    0.4585   -0.2546   -0.0386 O   0  5  0  0  0  0  0  0  0  0  0  0
    0.9775    0.7058    1.9455 O   0  0  0  0  0  0  0  0  0  0  0  0
    4.4022   -1.2497   -0.7148 C   0  0  0  0  0  3  0  0  0  0  0  0
    4.9326   -2.0217   -1.2855 H   0  0  0  0  0  0  0  0  0  0  0  0
    3.0324   -1.2359   -0.3787 C   0  0  0  0  0  0  0  0  0  0  0  0
    2.6993   -0.0650    0.4117 C   0  0  0  0  0  0  0  0  0  0  0  0
    3.8654    0.6645    0.6112 C   0  0  1  0  0  3  0  0  0  0  0  0
    5.1806    1.0415    0.5653 C   0  0  0  0  0  3  0  0  0  0  0  0
    5.9248    1.7781    0.9072 H   0  0  0  0  0  0  0  0  0  0  0  0
    4.9685   -0.1081   -0.1332 C   0  0  1  0  0  3  0  0  0  0  0  0
    1.9161   -2.2265   -0.5908 C   0  0  0  0  0  0  0  0  0  0  0  0
    1.3105    0.1762    0.8573 C   0  0  0  0  0  0  0  0  0  0  0  0
  2 14  2  0  0  0  0
  3  1  1  0  0  0  0
  4 15  1  0  0  0  0
  6  8  1  0  0  0  0
  7  6  1  0  0  0  0
  8  9  2  0  0  0  0
  9 15  1  0  0  0  0
 10  9  1  1  0  0  0
 11 10  1  0  0  0  0
 11 12  1  0  0  0  0
 13  6  1  1  0  0  0
 13 11  1  0  0  0  0
 13 10  1  0  0  0  0
 14  8  1  0  0  0  0
 14  3  1  0  0  0  0
 15  5  2  0  0  0  0
M  CHG  1   4  -1
M  END
