12
q = -1.0, confidence = 0.004

 19 18  0  0  1  0  0  0  0  0999 V2000
   -2.9121   -1.4557   -0.0197 P   0  0  1  0  0  0  0  0  0  0  0  0
   -4.0022    1.3121   -0.0083 P   0  0  0  0  0  0  0  0  0  0  0  0
   -4.5100   -0.4769    0.0274 C   0  0  1  0  0  0  0  0  0  0  0  0
   -5.3548   -0.7946   -1.2188 C   0  0  0  0  0  0  0  0  0  0  0  0
   -5.6367   -1.8670   -1.2172 H   0  0  0  0  0  0  0  0  0  0  0  0
   -4.7943   -0.5827   -2.1490 H   0  0  0  0  0  0  0  0  0  0  0  0
   -6.2836   -0.1878   -1.2035 H   0  0  0  0  0  0  0  0  0  0  0  0
   -5.1340   -0.7044    1.3223 N   0  0  0  0  0  0  0  0  0  0  0  0
   -6.0488   -0.2384    1.3656 H   0  0  0  0  0  0  0  0  0  0  0  0
   -2.5361    0.8690    1.4405 H   0  0  0  0  0  0  0  0  0  0  0  0
   -5.2580   -1.7110    1.4835 H   0  0  0  0  0  0  0  0  0  0  0  0
   -1.8529   -0.6118    0.7593 O   0  0  0  0  0  1  0  0  0  0  0  0
   -3.2816   -2.7787    0.9110 O   0  0  0  0  0  0  0  0  0  0  0  0
   -3.2350   -3.5486    0.3094 H   0  0  0  0  0  0  0  0  0  0  0  0
   -2.5568   -1.9312   -1.4286 O   0  0  0  0  0  0  0  0  0  0  0  0
   -3.2068    1.6135    1.3498 O   0  0  0  0  0  0  0  0  0  0  0  0
   -5.4071    2.1210    0.2208 O   0  0  0  0  0  0  0  0  0  0  0  0
   -5.5346    2.7161   -0.5443 H   0  0  0  0  0  0  0  0  0  0  0  0
   -3.3449    1.7319   -1.3183 O   0  0  0  0  0  0  0  0  0  0  0  0
  1 15  2  6  0  0  0
  1  3  1  0  0  0  0
  1 12  1  0  0  0  0
  1 13  1  0  0  0  0
  2  3  1  0  0  0  0
  2 17  1  0  0  0  0
  2 16  1  0  0  0  0
  3  4  1  6  0  0  0
  3  8  1  0  0  0  0
  4  5  1  0  0  0  0
  4  7  1  0  0  0  0
  6  4  1  0  0  0  0
  8  9  1  0  0  0  0
  8 11  1  0  0  0  0
 14 13  1  0  0  0  0
 16 10  1  0  0  0  0
 18 17  1  0  0  0  0
 19  2  2  0  0  0  0
M  END
