2
q = -1.0

 14 14  0  0  0  0  0  0  0  0999 V2000
   -4.3907    3.5581    0.6461 Cl  0  0  0  0  0  0  0  0  0  0  0  0
   -1.6680    0.6057   -0.4864 O   0  5  0  0  0  0  0  0  0  0  0  0
   -2.3730    1.3646    1.5301 O   0  0  0  0  0  0  0  0  0  0  0  0
   -2.5765    1.0146    0.3568 C   0  0  0  0  0  0  0  0  0  0  0  0
   -3.9741    0.9724   -0.2056 C   0  0  0  0  0  0  0  0  0  0  0  0
   -4.4197   -0.2070   -0.8398 C   0  0  0  0  0  0  0  0  0  0  0  0
   -3.7330   -1.0592   -0.9511 H   0  0  0  0  0  0  0  0  0  0  0  0
   -5.7355   -0.3269   -1.3043 C   0  0  0  0  0  0  0  0  0  0  0  0
   -6.0569   -1.2666   -1.7766 H   0  0  0  0  0  0  0  0  0  0  0  0
   -6.6239    0.7506   -1.1661 C   0  0  0  0  0  0  0  0  0  0  0  0
   -7.6577    0.6727   -1.5357 H   0  0  0  0  0  0  0  0  0  0  0  0
   -6.1971    1.9406   -0.5596 C   0  0  0  0  0  0  0  0  0  0  0  0
   -6.8734    2.8007   -0.4555 H   0  0  0  0  0  0  0  0  0  0  0  0
   -4.8832    2.0452   -0.0754 C   0  0  0  0  0  0  0  0  0  0  0  0
  2  4  1  0  0  0  0
  4  3  2  0  0  0  0
  5 14  1  0  0  0  0
  5  4  1  0  0  0  0
  6  5  2  0  0  0  0
  7  6  1  0  0  0  0
  8 10  2  0  0  0  0
  8  6  1  0  0  0  0
  9  8  1  0  0  0  0
 10 12  1  0  0  0  0
 11 10  1  0  0  0  0
 12 13  1  0  0  0  0
 12 14  2  0  0  0  0
 14  1  1  0  0  0  0
M  CHG  1   2  -1
M  END
