2
q = -1.0

 25 25  0  0  0  0  0  0  0  0999 V2000
    0.1623    0.8407   -3.1238 O   0  5  0  0  0  0  0  0  0  0  0  0
   -0.5849    1.1440   -1.0123 O   0  0  0  0  0  0  0  0  0  0  0  0
   -4.7631   -0.5022   -0.2692 O   0  0  0  0  0  0  0  0  0  0  0  0
   -2.6841    0.2287    0.1437 O   0  0  0  0  0  0  0  0  0  0  0  0
   -1.9623    0.7685   -0.3419 H   0  0  0  0  0  0  0  0  0  0  0  0
   -2.9078    2.2879   -1.7571 N   0  0  0  0  0  0  0  0  0  0  0  0
   -1.8719    2.1264   -2.7594 C   0  0  0  0  0  0  0  0  0  0  0  0
   -1.5032    3.1146   -3.1071 H   0  0  0  0  0  0  0  0  0  0  0  0
   -2.2970    1.6385   -3.6581 H   0  0  0  0  0  0  0  0  0  0  0  0
   -3.9482    1.2837   -1.6829 C   0  0  0  0  0  0  0  0  0  0  0  0
   -3.9560    0.7056   -2.6286 H   0  0  0  0  0  0  0  0  0  0  0  0
   -4.9621    1.7310   -1.6043 H   0  0  0  0  0  0  0  0  0  0  0  0
   -2.7530    3.1926   -0.7001 C   0  0  0  0  0  0  0  0  0  0  0  0
   -0.6419    1.2972   -2.3124 C   0  0  0  0  0  0  0  0  0  0  0  0
   -1.5901    4.0012   -0.5756 C   0  0  0  0  0  0  0  0  0  0  0  0
   -0.7896    3.9446   -1.3237 H   0  0  0  0  0  0  0  0  0  0  0  0
   -3.8480    0.2502   -0.5319 C   0  0  0  0  0  0  0  0  0  0  0  0
   -3.7413    3.3062    0.3143 C   0  0  0  0  0  0  0  0  0  0  0  0
   -4.6592    2.7053    0.2719 H   0  0  0  0  0  0  0  0  0  0  0  0
   -1.4383    4.8814    0.5054 C   0  0  0  0  0  0  0  0  0  0  0  0
   -0.5282    5.4984    0.5624 H   0  0  0  0  0  0  0  0  0  0  0  0
   -3.5724    4.1896    1.3884 C   0  0  0  0  0  0  0  0  0  0  0  0
   -4.3636    4.2530    2.1508 H   0  0  0  0  0  0  0  0  0  0  0  0
   -2.4222    4.9851    1.5010 C   0  0  0  0  0  0  0  0  0  0  0  0
   -2.2965    5.6757    2.3469 H   0  0  0  0  0  0  0  0  0  0  0  0
  1 14  1  0  0  0  0
  5  4  1  0  0  0  0
  6 10  1  0  0  0  0
  6 13  1  0  0  0  0
  7 14  1  0  0  0  0
  7  6  1  0  0  0  0
  8  7  1  0  0  0  0
  9  7  1  0  0  0  0
 10 12  1  0  0  0  0
 10 17  1  0  0  0  0
 11 10  1  0  0  0  0
 13 15  2  0  0  0  0
 13 18  1  0  0  0  0
 14  2  2  0  0  0  0
 15 20  1  0  0  0  0
 16 15  1  0  0  0  0
 17  3  2  0  0  0  0
 17  4  1  0  0  0  0
 18 22  2  0  0  0  0
 19 18  1  0  0  0  0
 20 21  1  0  0  0  0
 20 24  2  0  0  0  0
 22 24  1  0  0  0  0
 22 23  1  0  0  0  0
 24 25  1  0  0  0  0
M  CHG  1   1  -1
M  END
