2
q = -1.0, confidence = 0.004

 13 13  0  0  0  0  0  0  0  0999 V2000
   -3.9843   -1.9913   -1.5789 S   0  0  0  0  0  0  0  0  0  0  0  0
    0.4329    0.2067   -1.3759 O   0  5  0  0  0  0  0  0  0  0  0  0
   -1.6927   -1.5311   -0.4764 N   0  0  0  0  0  0  0  0  0  0  0  0
   -0.3788    0.0714   -3.4560 O   0  0  0  0  0  0  0  0  0  0  0  0
   -0.4491   -0.2042   -2.2547 C   0  0  0  0  0  0  0  0  0  0  0  0
   -1.6381   -0.9860   -1.7420 C   0  0  0  0  0  0  0  0  0  0  0  0
   -2.8507   -2.0936   -0.2216 C   0  0  0  0  0  0  0  0  0  0  0  0
   -2.7865   -1.1532   -2.4960 C   0  0  0  0  0  0  0  0  0  0  0  0
   -2.9477   -0.8082   -3.5235 H   0  0  0  0  0  0  0  0  0  0  0  0
   -3.2310   -2.7536    1.0658 C   0  0  0  0  0  0  0  0  0  0  0  0
   -2.4692   -3.5090    1.3472 H   0  0  0  0  0  0  0  0  0  0  0  0
   -4.2114   -3.2596    0.9881 H   0  0  0  0  0  0  0  0  0  0  0  0
   -3.2761   -2.0145    1.8940 H   0  0  0  0  0  0  0  0  0  0  0  0
  1  7  1  0  0  0  0
  3  7  2  0  0  0  0
  4  5  2  0  0  0  0
  5  6  1  0  0  0  0
  5  2  1  0  0  0  0
  6  3  1  0  0  0  0
  7 10  1  0  0  0  0
  8  6  2  0  0  0  0
  8  1  1  0  0  0  0
  9  8  1  0  0  0  0
 10 11  1  0  0  0  0
 10 13  1  0  0  0  0
 12 10  1  0  0  0  0
M  CHG  1   2  -1
M  END
