1
q = -1.0

 30 29  0  0  0  0  0  0  0  0999 V2000
   -0.5705    0.0234    0.0205 O   0  0  0  0  0  1  0  0  0  0  0  0
   -2.2183   -0.0073    0.4109 Si  0  0  0  0  0  0  0  0  0  0  0  0
   -2.8979   -1.6798   -0.2083 C   0  0  0  0  0  0  0  0  0  0  0  0
   -4.3444   -1.8760    0.2844 C   0  0  0  0  0  0  0  0  0  0  0  0
   -2.8333   -1.7658   -1.7451 C   0  0  0  0  0  0  0  0  0  0  0  0
   -1.9979   -2.7806    0.3943 C   0  0  0  0  0  0  0  0  0  0  0  0
   -2.9122    1.6667   -0.2200 C   0  0  0  0  0  0  0  0  0  0  0  0
   -4.4042    1.7976    0.1386 C   0  0  0  0  0  0  0  0  0  0  0  0
   -2.7125    1.8078   -1.7413 C   0  0  0  0  0  0  0  0  0  0  0  0
   -2.1088    2.7821    0.4836 C   0  0  0  0  0  0  0  0  0  0  0  0
   -2.3720   -0.0739    2.1018 O   0  0  0  0  0  0  0  0  0  0  0  0
   -4.7084   -2.8873   -0.0025 H   0  0  0  0  0  0  0  0  0  0  0  0
   -4.4149   -1.7890    1.3874 H   0  0  0  0  0  0  0  0  0  0  0  0
   -5.0426   -1.1383   -0.1609 H   0  0  0  0  0  0  0  0  0  0  0  0
   -3.1331   -2.7847   -2.0764 H   0  0  0  0  0  0  0  0  0  0  0  0
   -3.5226   -1.0482   -2.2338 H   0  0  0  0  0  0  0  0  0  0  0  0
   -1.8091   -1.5799   -2.1273 H   0  0  0  0  0  0  0  0  0  0  0  0
   -2.3837   -3.7801    0.0950 H   0  0  0  0  0  0  0  0  0  0  0  0
   -0.9559   -2.7002    0.0254 H   0  0  0  0  0  0  0  0  0  0  0  0
   -1.9841   -2.7425    1.5022 H   0  0  0  0  0  0  0  0  0  0  0  0
   -4.7774    2.8094   -0.1348 H   0  0  0  0  0  0  0  0  0  0  0  0
   -5.0270    1.0595   -0.4059 H   0  0  0  0  0  0  0  0  0  0  0  0
   -4.5894    1.6546    1.2237 H   0  0  0  0  0  0  0  0  0  0  0  0
   -3.0467    2.8161   -2.0729 H   0  0  0  0  0  0  0  0  0  0  0  0
   -1.6478    1.6978   -2.0292 H   0  0  0  0  0  0  0  0  0  0  0  0
   -3.3033    1.0633   -2.3104 H   0  0  0  0  0  0  0  0  0  0  0  0
   -2.4924    3.7785    0.1719 H   0  0  0  0  0  0  0  0  0  0  0  0
   -2.1951    2.7409    1.5916 H   0  0  0  0  0  0  0  0  0  0  0  0
   -1.0338    2.7368    0.2182 H   0  0  0  0  0  0  0  0  0  0  0  0
   -2.3669    0.7968    2.5360 H   0  0  0  0  0  0  0  0  0  0  0  0
  1  2  1  0  0  0  0
  2 11  1  0  0  0  0
  3  4  1  0  0  0  0
  3  6  1  0  0  0  0
  3  2  1  0  0  0  0
  4 13  1  0  0  0  0
  5  3  1  0  0  0  0
  6 20  1  0  0  0  0
  7  8  1  0  0  0  0
  7  2  1  0  0  0  0
  7 10  1  0  0  0  0
  8 23  1  0  0  0  0
  9  7  1  0  0  0  0
 10 28  1  0  0  0  0
 11 30  1  0  0  0  0
 12  4  1  0  0  0  0
 14  4  1  0  0  0  0
 15  5  1  0  0  0  0
 16  5  1  0  0  0  0
 17  5  1  0  0  0  0
 18  6  1  0  0  0  0
 19  6  1  0  0  0  0
 21  8  1  0  0  0  0
 22  8  1  0  0  0  0
 24  9  1  0  0  0  0
 25  9  1  0  0  0  0
 26  9  1  0  0  0  0
 27 10  1  0  0  0  0
 29 10  1  0  0  0  0
M  END
