1
q = -1.0

 18 18  0  0  0  0  0  0  0  0999 V2000
    0.8426   -1.6881   -0.1474 O   0  5  0  0  0  0  0  0  0  0  0  0
    2.1200   -1.3810    0.1204 C   0  0  0  0  0  0  0  0  0  0  0  0
    3.0815   -1.3686   -0.9222 C   0  0  0  0  0  0  0  0  0  0  0  0
    2.7411   -1.6163   -1.9394 H   0  0  0  0  0  0  0  0  0  0  0  0
    4.4311   -1.0600   -0.6806 C   0  0  0  0  0  0  0  0  0  0  0  0
    4.8459   -0.7351    0.6433 C   0  0  0  0  0  0  0  0  0  0  0  0
    3.8839   -0.7459    1.6756 C   0  0  0  0  0  0  0  0  0  0  0  0
    4.2042   -0.5037    2.7014 H   0  0  0  0  0  0  0  0  0  0  0  0
    2.5435   -1.0651    1.4354 C   0  0  0  0  0  0  0  0  0  0  0  0
    1.8038   -1.0773    2.2502 H   0  0  0  0  0  0  0  0  0  0  0  0
    5.4294   -1.0760   -1.8086 C   0  0  0  0  0  0  0  0  0  0  0  0
    4.9513   -1.3254   -2.7743 H   0  0  0  0  0  0  0  0  0  0  0  0
    6.2315   -1.8214   -1.6240 H   0  0  0  0  0  0  0  0  0  0  0  0
    5.9400   -0.0964   -1.9199 H   0  0  0  0  0  0  0  0  0  0  0  0
    6.2842   -0.4036    0.9362 C   0  0  0  0  0  0  0  0  0  0  0  0
    6.4371   -0.1612    2.0047 H   0  0  0  0  0  0  0  0  0  0  0  0
    6.6406    0.4598    0.3350 H   0  0  0  0  0  0  0  0  0  0  0  0
    6.9560   -1.2511    0.6822 H   0  0  0  0  0  0  0  0  0  0  0  0
  1  2  1  0  0  0  0
  2  9  1  0  0  0  0
  3  5  1  0  0  0  0
  3  2  2  0  0  0  0
  4  3  1  0  0  0  0
  5  6  2  0  0  0  0
  6 15  1  0  0  0  0
  6  7  1  0  0  0  0
  7  8  1  0  0  0  0
  9  7  2  0  0  0  0
  9 10  1  0  0  0  0
 11 13  1  0  0  0  0
 11  5  1  0  0  0  0
 12 11  1  0  0  0  0
 14 11  1  0  0  0  0
 15 16  1  0  0  0  0
 17 15  1  0  0  0  0
 18 15  1  0  0  0  0
M  CHG  1   1  -1
M  END
