2
q = -1.0, confidence = 0.008

 24 24  0  0  1  0  0  0  0  0999 V2000
    1.6040   -2.2422   -2.3269 O   0  0  0  0  0  0  0  0  0  0  0  0
   -0.1650    0.7937   -1.7192 O   0  5  0  0  0  0  0  0  0  0  0  0
    0.3546   -0.1492   -3.6900 O   0  0  0  0  0  0  0  0  0  0  0  0
    0.2174   -1.8212   -0.5781 N   0  0  0  0  0  0  0  0  0  0  0  0
    0.9031   -3.0685   -0.2171 C   0  0  2  0  0  0  0  0  0  0  0  0
    1.6084   -2.8213    0.6111 H   0  0  0  0  0  0  0  0  0  0  0  0
    1.6994   -3.4317   -1.5008 C   0  0  0  0  0  0  0  0  0  0  0  0
    2.7700   -3.6466   -1.3221 H   0  0  0  0  0  0  0  0  0  0  0  0
    1.2548   -4.2777   -2.0683 H   0  0  0  0  0  0  0  0  0  0  0  0
    0.6817   -1.4518   -1.7190 C   0  0  0  0  0  0  0  0  0  0  0  0
    0.2723   -0.1866   -2.4655 C   0  0  0  0  0  0  0  0  0  0  0  0
   -0.0698   -4.1446    0.3367 C   0  0  0  0  0  0  0  0  0  0  0  0
   -1.1866   -4.4461   -0.6760 C   0  0  0  0  0  0  0  0  0  0  0  0
   -1.7625   -3.5294   -0.9097 H   0  0  0  0  0  0  0  0  0  0  0  0
   -1.8867   -5.2016   -0.2649 H   0  0  0  0  0  0  0  0  0  0  0  0
   -0.7884   -4.8508   -1.6292 H   0  0  0  0  0  0  0  0  0  0  0  0
   -0.6917   -3.5893    1.6318 C   0  0  0  0  0  0  0  0  0  0  0  0
    0.0919   -3.4017    2.3957 H   0  0  0  0  0  0  0  0  0  0  0  0
   -1.4201   -4.3087    2.0587 H   0  0  0  0  0  0  0  0  0  0  0  0
   -1.2106   -2.6305    1.4353 H   0  0  0  0  0  0  0  0  0  0  0  0
    0.7279   -5.4220    0.6502 C   0  0  0  0  0  0  0  0  0  0  0  0
    1.1678   -5.8705   -0.2647 H   0  0  0  0  0  0  0  0  0  0  0  0
    0.0721   -6.1894    1.1100 H   0  0  0  0  0  0  0  0  0  0  0  0
    1.5554   -5.2153    1.3612 H   0  0  0  0  0  0  0  0  0  0  0  0
  1 10  1  0  0  0  0
  1  7  1  0  0  0  0
  3 11  2  0  0  0  0
  4  5  1  0  0  0  0
  5 12  1  0  0  0  0
  5  6  1  1  0  0  0
  7  8  1  0  0  0  0
  7  5  1  0  0  0  0
  9  7  1  0  0  0  0
 10  4  2  0  0  0  0
 11  2  1  0  0  0  0
 11 10  1  0  0  0  0
 12 21  1  0  0  0  0
 12 17  1  0  0  0  0
 13 15  1  0  0  0  0
 13 12  1  0  0  0  0
 14 13  1  0  0  0  0
 16 13  1  0  0  0  0
 17 19  1  0  0  0  0
 17 18  1  0  0  0  0
 20 17  1  0  0  0  0
 21 23  1  0  0  0  0
 21 24  1  0  0  0  0
 22 21  1  0  0  0  0
M  CHG  1   2  -1
M  END
