1
q = -1.0

 13 12  0  0  0  0  0  0  0  0999 V2000
    1.6635   -0.2270    0.6065 O   0  5  0  0  0  0  0  0  0  0  0  0
    1.8654    2.0304    0.4990 O   0  0  0  0  0  0  0  0  0  0  0  0
    2.3473    0.8798    0.6426 C   0  0  0  0  0  0  0  0  0  0  0  0
    3.8439    0.6722    0.7904 C   0  0  0  0  0  0  0  0  0  0  0  0
    4.0339   -0.2717    1.3388 H   0  0  0  0  0  0  0  0  0  0  0  0
    4.2435    1.5233    1.3761 H   0  0  0  0  0  0  0  0  0  0  0  0
    4.5166    0.6270   -0.5988 C   0  0  0  0  0  0  0  0  0  0  0  0
    5.6169    0.6536   -0.4483 H   0  0  0  0  0  0  0  0  0  0  0  0
    4.2609    1.5646   -1.1394 H   0  0  0  0  0  0  0  0  0  0  0  0
    4.1359   -0.5956   -1.4358 C   0  0  0  0  0  0  0  0  0  0  0  0
    4.6220   -0.5641   -2.4317 H   0  0  0  0  0  0  0  0  0  0  0  0
    3.0407   -0.6796   -1.5881 H   0  0  0  0  0  0  0  0  0  0  0  0
    4.4524   -1.5341   -0.9360 H   0  0  0  0  0  0  0  0  0  0  0  0
  1  3  1  0  0  0  0
  2  3  2  0  0  0  0
  3  4  1  0  0  0  0
  4  5  1  0  0  0  0
  4  6  1  0  0  0  0
  7  8  1  0  0  0  0
  7  4  1  0  0  0  0
  9  7  1  0  0  0  0
 10 13  1  0  0  0  0
 10  7  1  0  0  0  0
 11 10  1  0  0  0  0
 12 10  1  0  0  0  0
M  CHG  1   1  -1
M  END
