1
q = -2.0, confidence = 0.932

 24 25  0  0  0  0  0  0  0  0999 V2000
   -0.4932   -1.1828    0.8895 O   0  0  0  0  0  1  0  0  0  0  0  0
    0.8526   -1.8761    2.9470 O   0  0  0  0  0  1  0  0  0  0  0  0
    0.8090   -0.8175    1.8806 S   0  0  0  0  0  3  0  0  0  0  0  0
    2.0028   -1.3347    0.5948 C   0  0  0  0  0  0  0  0  0  0  0  0
    2.4742   -0.4029   -0.3485 C   0  0  0  0  0  0  0  0  0  0  0  0
    3.3098   -0.8920   -1.3766 C   0  0  0  0  0  0  0  0  0  0  0  0
    3.6944   -0.1841   -2.1265 H   0  0  0  0  0  0  0  0  0  0  0  0
    3.6509   -2.2500   -1.4445 C   0  0  0  0  0  0  0  0  0  0  0  0
    4.3035   -2.6058   -2.2563 H   0  0  0  0  0  0  0  0  0  0  0  0
    3.1769   -3.1530   -0.4761 C   0  0  0  0  0  0  0  0  0  0  0  0
    3.4597   -4.2158   -0.5235 H   0  0  0  0  0  0  0  0  0  0  0  0
    2.3469   -2.6912    0.5524 C   0  0  0  0  0  0  0  0  0  0  0  0
    1.9557   -3.3500    1.3444 H   0  0  0  0  0  0  0  0  0  0  0  0
    2.2133    1.0704   -0.2563 C   0  0  0  0  0  0  0  0  0  0  0  0
    1.1134    1.6821   -0.9170 C   0  0  0  0  0  0  0  0  0  0  0  0
   -0.1044    0.6752   -1.7399 S   0  0  0  0  0  1  0  0  0  0  0  0
    1.0347    3.0919   -0.9548 C   0  0  0  0  0  0  0  0  0  0  0  0
    0.2245    3.5618   -1.5321 H   0  0  0  0  0  0  0  0  0  0  0  0
    1.9732    3.8859   -0.2826 C   0  0  0  0  0  0  0  0  0  0  0  0
    1.8855    4.9826   -0.3163 H   0  0  0  0  0  0  0  0  0  0  0  0
    3.0238    3.2806    0.4247 C   0  0  0  0  0  0  0  0  0  0  0  0
    3.7609    3.8955    0.9623 H   0  0  0  0  0  0  0  0  0  0  0  0
    3.1480    1.8837    0.4164 C   0  0  0  0  0  0  0  0  0  0  0  0
    3.9925    1.4001    0.9310 H   0  0  0  0  0  0  0  0  0  0  0  0
  1  3  1  0  0  0  0
  3  2  1  0  0  0  0
  4  3  1  0  0  0  0
  5 14  1  0  0  0  0
  5  4  2  0  0  0  0
  6  5  1  0  0  0  0
  7  6  1  0  0  0  0
  8  6  2  0  0  0  0
  8 10  1  0  0  0  0
  9  8  1  0  0  0  0
 10 12  2  0  0  0  0
 11 10  1  0  0  0  0
 12  4  1  0  0  0  0
 12 13  1  0  0  0  0
 14 23  1  0  0  0  0
 15 14  2  0  0  0  0
 16 15  1  0  0  0  0
 17 15  1  0  0  0  0
 17 19  2  0  0  0  0
 18 17  1  0  0  0  0
 19 21  1  0  0  0  0
 20 19  1  0  0  0  0
 21 22  1  0  0  0  0
 23 21  2  0  0  0  0
 23 24  1  0  0  0  0
M  END
