1
q = -1.0

 19 18  0  0  0  0  0  0  0  0999 V2000
   -1.0892   -0.7208    0.8884 O   0  0  0  0  0  1  0  0  0  0  0  0
   -1.9753   -0.7345   -0.2070 N   0  0  0  0  0  0  0  0  0  0  0  0
   -2.4850   -2.0969   -0.3969 C   0  0  0  0  0  0  0  0  0  0  0  0
   -1.6258   -2.7825   -0.4803 H   0  0  0  0  0  0  0  0  0  0  0  0
   -3.0678   -2.1518   -1.3349 H   0  0  0  0  0  0  0  0  0  0  0  0
   -3.1187   -2.4215    0.4551 H   0  0  0  0  0  0  0  0  0  0  0  0
   -3.0500    0.3229   -0.0444 C   0  0  0  0  0  0  0  0  0  0  0  0
   -2.3625    1.6659    0.2362 C   0  0  0  0  0  0  0  0  0  0  0  0
   -1.8679    1.6615    1.2238 H   0  0  0  0  0  0  0  0  0  0  0  0
   -3.1167    2.4768    0.2276 H   0  0  0  0  0  0  0  0  0  0  0  0
   -1.6061    1.8883   -0.5416 H   0  0  0  0  0  0  0  0  0  0  0  0
   -3.9775   -0.0225    1.1349 C   0  0  0  0  0  0  0  0  0  0  0  0
   -4.6167   -0.9035    0.9294 H   0  0  0  0  0  0  0  0  0  0  0  0
   -4.6505    0.8320    1.3448 H   0  0  0  0  0  0  0  0  0  0  0  0
   -3.3771   -0.2224    2.0443 H   0  0  0  0  0  0  0  0  0  0  0  0
   -3.8385    0.4147   -1.3596 C   0  0  0  0  0  0  0  0  0  0  0  0
   -3.1612    0.6143   -2.2124 H   0  0  0  0  0  0  0  0  0  0  0  0
   -4.5667    1.2469   -1.2939 H   0  0  0  0  0  0  0  0  0  0  0  0
   -4.4135   -0.5075   -1.5722 H   0  0  0  0  0  0  0  0  0  0  0  0
  2  7  1  0  0  0  0
  2  1  1  0  0  0  0
  3  2  1  0  0  0  0
  3  6  1  0  0  0  0
  4  3  1  0  0  0  0
  5  3  1  0  0  0  0
  7  8  1  0  0  0  0
  7 12  1  0  0  0  0
  8  9  1  0  0  0  0
 10  8  1  0  0  0  0
 11  8  1  0  0  0  0
 12 14  1  0  0  0  0
 12 15  1  0  0  0  0
 13 12  1  0  0  0  0
 16 18  1  0  0  0  0
 16  7  1  0  0  0  0
 17 16  1  0  0  0  0
 19 16  1  0  0  0  0
M  END
