1
q = -1.0

 18 19  0  0  0  0  0  0  0  0999 V2000
   -0.2670    0.7559   -0.9733 O   0  5  0  0  0  0  0  0  0  0  0  0
    0.5409    1.8156   -0.8717 C   0  0  0  0  0  0  0  0  0  0  0  0
    1.6327    1.8334    0.0038 C   0  0  0  0  0  0  0  0  0  0  0  0
    2.5019    2.9567    0.0684 C   0  0  0  0  0  0  0  0  0  0  0  0
    3.6289    2.9927    0.9447 C   0  0  0  0  0  0  0  0  0  0  0  0
    4.4563    4.1046    0.9960 C   0  0  0  0  0  0  0  0  0  0  0  0
    4.1980    5.2346    0.1728 C   0  0  0  0  0  0  0  0  0  0  0  0
    3.1120    5.2307   -0.6913 C   0  0  0  0  0  0  0  0  0  0  0  0
    2.2423    4.1054   -0.7691 C   0  0  0  0  0  0  0  0  0  0  0  0
    1.1174    4.0642   -1.6463 C   0  0  0  0  0  0  0  0  0  0  0  0
    0.2922    2.9550   -1.7050 C   0  0  0  0  0  0  0  0  0  0  0  0
    1.8188    0.9572    0.6418 H   0  0  0  0  0  0  0  0  0  0  0  0
    3.8310    2.1151    1.5786 H   0  0  0  0  0  0  0  0  0  0  0  0
    5.3216    4.1137    1.6764 H   0  0  0  0  0  0  0  0  0  0  0  0
    4.8625    6.1105    0.2221 H   0  0  0  0  0  0  0  0  0  0  0  0
    2.9065    6.1018   -1.3337 H   0  0  0  0  0  0  0  0  0  0  0  0
    0.9143    4.9371   -2.2869 H   0  0  0  0  0  0  0  0  0  0  0  0
   -0.5709    2.9187   -2.3864 H   0  0  0  0  0  0  0  0  0  0  0  0
  1  2  1  0  0  0  0
  2  3  1  0  0  0  0
  3  4  2  0  0  0  0
  3 12  1  0  0  0  0
  4  5  1  0  0  0  0
  5  6  2  0  0  0  0
  5 13  1  0  0  0  0
  6 14  1  0  0  0  0
  7 15  1  0  0  0  0
  7  6  1  0  0  0  0
  8  7  2  0  0  0  0
  9  8  1  0  0  0  0
  9  4  1  0  0  0  0
 10  9  2  0  0  0  0
 11 10  1  0  0  0  0
 11  2  2  0  0  0  0
 16  8  1  0  0  0  0
 17 10  1  0  0  0  0
 18 11  1  0  0  0  0
M  CHG  1   1  -1
M  END
