2
q = -1.0

 40 39  0  0  0  0  0  0  0  0999 V2000
    3.3566   -0.1301    0.6116 P   0  0  0  0  0  0  0  0  0  0  0  0
   -0.7558   -0.3562    0.7796 O   0  0  0  0  0  1  0  0  0  0  0  0
    0.5325   -0.4124    1.3572 C   0  0  0  0  0  0  0  0  0  0  0  0
    0.6375    0.6609    2.4501 C   0  0  0  0  0  0  0  0  0  0  0  0
    0.4350    1.6664    2.0316 H   0  0  0  0  0  0  0  0  0  0  0  0
    1.6514    0.6657    2.8980 H   0  0  0  0  0  0  0  0  0  0  0  0
   -0.1040    0.4619    3.2496 H   0  0  0  0  0  0  0  0  0  0  0  0
    0.7272   -1.8052    1.9718 C   0  0  0  0  0  0  0  0  0  0  0  0
   -0.0091   -1.9642    2.7850 H   0  0  0  0  0  0  0  0  0  0  0  0
    1.7462   -1.9116    2.3949 H   0  0  0  0  0  0  0  0  0  0  0  0
    0.5746   -2.5907    1.2065 H   0  0  0  0  0  0  0  0  0  0  0  0
    1.5215   -0.1356    0.1920 C   0  0  0  0  0  0  0  0  0  0  0  0
    1.2437    0.8508   -0.2284 H   0  0  0  0  0  0  0  0  0  0  0  0
    1.3091   -0.8687   -0.6125 H   0  0  0  0  0  0  0  0  0  0  0  0
    3.8707    1.6034   -0.0722 C   0  0  0  0  0  0  0  0  0  0  0  0
    3.3239    2.0101   -1.4497 C   0  0  0  0  0  0  0  0  0  0  0  0
    2.2182    1.9501   -1.5034 H   0  0  0  0  0  0  0  0  0  0  0  0
    3.7351    1.3947   -2.2699 H   0  0  0  0  0  0  0  0  0  0  0  0
    3.5993    3.0671   -1.6584 H   0  0  0  0  0  0  0  0  0  0  0  0
    3.3338    2.5932    0.9822 C   0  0  0  0  0  0  0  0  0  0  0  0
    3.7066    2.3523    1.9982 H   0  0  0  0  0  0  0  0  0  0  0  0
    2.2263    2.6016    1.0202 H   0  0  0  0  0  0  0  0  0  0  0  0
    3.6628    3.6240    0.7280 H   0  0  0  0  0  0  0  0  0  0  0  0
    5.4062    1.6956   -0.0814 C   0  0  0  0  0  0  0  0  0  0  0  0
    5.7170    2.7540   -0.2175 H   0  0  0  0  0  0  0  0  0  0  0  0
    5.8525    1.1153   -0.9124 H   0  0  0  0  0  0  0  0  0  0  0  0
    5.8456    1.3333    0.8706 H   0  0  0  0  0  0  0  0  0  0  0  0
    4.0413   -1.5069   -0.5525 C   0  0  0  0  0  0  0  0  0  0  0  0
    3.2970   -2.7980   -0.1601 C   0  0  0  0  0  0  0  0  0  0  0  0
    2.2267   -2.7735   -0.4424 H   0  0  0  0  0  0  0  0  0  0  0  0
    3.3617   -2.9962    0.9288 H   0  0  0  0  0  0  0  0  0  0  0  0
    3.7580   -3.6598   -0.6888 H   0  0  0  0  0  0  0  0  0  0  0  0
    3.8699   -1.2676   -2.0581 C   0  0  0  0  0  0  0  0  0  0  0  0
    4.5169   -0.4472   -2.4235 H   0  0  0  0  0  0  0  0  0  0  0  0
    2.8212   -1.0279   -2.3282 H   0  0  0  0  0  0  0  0  0  0  0  0
    4.1558   -2.1832   -2.6213 H   0  0  0  0  0  0  0  0  0  0  0  0
    5.5300   -1.7113   -0.2100 C   0  0  0  0  0  0  0  0  0  0  0  0
    5.9153   -2.6106   -0.7375 H   0  0  0  0  0  0  0  0  0  0  0  0
    5.6729   -1.8671    0.8786 H   0  0  0  0  0  0  0  0  0  0  0  0
    6.1588   -0.8548   -0.5155 H   0  0  0  0  0  0  0  0  0  0  0  0
  2  3  1  0  0  0  0
  3  8  1  0  0  0  0
  3  4  1  0  0  0  0
  4  6  1  0  0  0  0
  4  7  1  0  0  0  0
  5  4  1  0  0  0  0
  8 10  1  0  0  0  0
  8  9  1  0  0  0  0
 11  8  1  0  0  0  0
 12  1  1  0  0  0  0
 12  3  1  0  0  0  0
 13 12  1  0  0  0  0
 14 12  1  0  0  0  0
 15  1  1  0  0  0  0
 15 20  1  0  0  0  0
 16 15  1  0  0  0  0
 17 16  1  0  0  0  0
 18 16  1  0  0  0  0
 19 16  1  0  0  0  0
 20 22  1  0  0  0  0
 20 21  1  0  0  0  0
 23 20  1  0  0  0  0
 24 15  1  0  0  0  0
 24 27  1  0  0  0  0
 25 24  1  0  0  0  0
 26 24  1  0  0  0  0
 28 37  1  0  0  0  0
 28 29  1  0  0  0  0
 28  1  1  0  0  0  0
 29 31  1  0  0  0  0
 30 29  1  0  0  0  0
 32 29  1  0  0  0  0
 33 28  1  0  0  0  0
 34 33  1  0  0  0  0
 35 33  1  0  0  0  0
 36 33  1  0  0  0  0
 37 39  1  0  0  0  0
 38 37  1  0  0  0  0
 40 37  1  0  0  0  0
M  END
