1
q = -1.0, confidence = 0.0

 21 21  0  0  0  0  0  0  0  0999 V2000
    0.6722   -0.5483    0.6044 O   0  5  0  0  0  0  0  0  0  0  0  0
    1.9990   -0.5192    0.3669 C   0  0  0  0  0  0  0  0  0  0  0  0
    2.6063    0.5658   -0.2981 C   0  0  0  0  0  0  0  0  0  0  0  0
    1.9591    1.3807   -0.6557 H   0  0  0  0  0  0  0  0  0  0  0  0
    3.9928    0.6157   -0.5100 C   0  0  0  0  0  0  0  0  0  0  0  0
    4.6111    1.7904   -1.2249 C   0  0  0  0  0  0  0  0  0  0  0  0
    3.8453    2.5338   -1.5188 H   0  0  0  0  0  0  0  0  0  0  0  0
    5.1462    1.4735   -2.1456 H   0  0  0  0  0  0  0  0  0  0  0  0
    5.3635    2.3077   -0.5918 H   0  0  0  0  0  0  0  0  0  0  0  0
    4.8004   -0.4545   -0.0416 C   0  0  0  0  0  0  0  0  0  0  0  0
    6.2933   -0.4389   -0.2481 C   0  0  0  0  0  0  0  0  0  0  0  0
    6.5610   -0.3891   -1.3257 H   0  0  0  0  0  0  0  0  0  0  0  0
    6.7698   -1.3443    0.1748 H   0  0  0  0  0  0  0  0  0  0  0  0
    6.7682    0.4458    0.2287 H   0  0  0  0  0  0  0  0  0  0  0  0
    4.1768   -1.5316    0.6171 C   0  0  0  0  0  0  0  0  0  0  0  0
    4.8033   -2.3657    0.9756 H   0  0  0  0  0  0  0  0  0  0  0  0
    2.7914   -1.5987    0.8363 C   0  0  0  0  0  0  0  0  0  0  0  0
    2.1333   -2.7636    1.5234 C   0  0  0  0  0  0  0  0  0  0  0  0
    1.5237   -2.4307    2.3894 H   0  0  0  0  0  0  0  0  0  0  0  0
    2.8808   -3.4976    1.8810 H   0  0  0  0  0  0  0  0  0  0  0  0
    1.4340   -3.2885    0.8374 H   0  0  0  0  0  0  0  0  0  0  0  0
  2  1  1  0  0  0  0
  2 17  1  0  0  0  0
  3  2  2  0  0  0  0
  4  3  1  0  0  0  0
  5  3  1  0  0  0  0
  5 10  2  0  0  0  0
  6  9  1  0  0  0  0
  6  5  1  0  0  0  0
  7  6  1  0  0  0  0
  8  6  1  0  0  0  0
 10 15  1  0  0  0  0
 11 10  1  0  0  0  0
 11 13  1  0  0  0  0
 11 14  1  0  0  0  0
 12 11  1  0  0  0  0
 15 17  2  0  0  0  0
 15 16  1  0  0  0  0
 17 18  1  0  0  0  0
 18 20  1  0  0  0  0
 18 19  1  0  0  0  0
 21 18  1  0  0  0  0
M  CHG  1   1  -1
M  END
