1
q = -1.0, confidence = 0.0

 18 18  0  0  0  0  0  0  0  0999 V2000
    0.9261   -0.2900    0.5688 O   0  5  0  0  0  0  0  0  0  0  0  0
    2.2309   -0.1543    0.2597 C   0  0  0  0  0  0  0  0  0  0  0  0
    2.7079    0.9389   -0.4910 C   0  0  0  0  0  0  0  0  0  0  0  0
    1.9817    1.6765   -0.8629 H   0  0  0  0  0  0  0  0  0  0  0  0
    4.0772    1.0690   -0.7563 C   0  0  0  0  0  0  0  0  0  0  0  0
    4.4345    1.9300   -1.3435 H   0  0  0  0  0  0  0  0  0  0  0  0
    5.0031    0.1185   -0.2859 C   0  0  0  0  0  0  0  0  0  0  0  0
    6.4805    0.2490   -0.5621 C   0  0  0  0  0  0  0  0  0  0  0  0
    7.0656    0.3365    0.3780 H   0  0  0  0  0  0  0  0  0  0  0  0
    6.7017    1.1418   -1.1789 H   0  0  0  0  0  0  0  0  0  0  0  0
    6.8746   -0.6385   -1.1009 H   0  0  0  0  0  0  0  0  0  0  0  0
    4.5047   -0.9726    0.4585 C   0  0  0  0  0  0  0  0  0  0  0  0
    5.2109   -1.7344    0.8301 H   0  0  0  0  0  0  0  0  0  0  0  0
    3.1409   -1.1357    0.7432 C   0  0  0  0  0  0  0  0  0  0  0  0
    2.6120   -2.3117    1.5178 C   0  0  0  0  0  0  0  0  0  0  0  0
    2.0227   -1.9826    2.3990 H   0  0  0  0  0  0  0  0  0  0  0  0
    3.4314   -2.9688    1.8669 H   0  0  0  0  0  0  0  0  0  0  0  0
    1.9211   -2.9188    0.8942 H   0  0  0  0  0  0  0  0  0  0  0  0
  2  1  1  0  0  0  0
  2 14  1  0  0  0  0
  3  2  2  0  0  0  0
  4  3  1  0  0  0  0
  5  3  1  0  0  0  0
  5  7  2  0  0  0  0
  6  5  1  0  0  0  0
  7 12  1  0  0  0  0
  8  7  1  0  0  0  0
  8  9  1  0  0  0  0
 10  8  1  0  0  0  0
 11  8  1  0  0  0  0
 12 14  2  0  0  0  0
 12 13  1  0  0  0  0
 14 15  1  0  0  0  0
 15 17  1  0  0  0  0
 15 16  1  0  0  0  0
 18 15  1  0  0  0  0
M  CHG  1   1  -1
M  END
