1
q = -1.0, confidence = 0.002

 30 30  0  0  0  0  0  0  0  0999 V2000
    0.5494    0.3082    0.2813 O   0  5  0  0  0  0  0  0  0  0  0  0
    1.8338   -0.0188    0.0245 C   0  0  0  0  0  0  0  0  0  0  0  0
    2.1441   -1.3195   -0.4274 C   0  0  0  0  0  0  0  0  0  0  0  0
    1.3056   -2.0110   -0.5951 H   0  0  0  0  0  0  0  0  0  0  0  0
    3.4611   -1.7357   -0.6636 C   0  0  0  0  0  0  0  0  0  0  0  0
    3.7465   -3.1349   -1.1455 C   0  0  0  0  0  0  0  0  0  0  0  0
    4.2691   -3.1304   -2.1259 H   0  0  0  0  0  0  0  0  0  0  0  0
    2.8145   -3.7207   -1.2624 H   0  0  0  0  0  0  0  0  0  0  0  0
    4.4098   -3.6841   -0.4433 H   0  0  0  0  0  0  0  0  0  0  0  0
    4.5118   -0.8115   -0.4376 C   0  0  0  0  0  0  0  0  0  0  0  0
    5.9475   -1.2053   -0.6721 C   0  0  0  0  0  0  0  0  0  0  0  0
    6.2485   -2.0685   -0.0396 H   0  0  0  0  0  0  0  0  0  0  0  0
    6.6386   -0.3693   -0.4500 H   0  0  0  0  0  0  0  0  0  0  0  0
    6.1237   -1.5181   -1.7240 H   0  0  0  0  0  0  0  0  0  0  0  0
    4.1871    0.4846    0.0063 C   0  0  0  0  0  0  0  0  0  0  0  0
    5.0205    1.1835    0.1653 H   0  0  0  0  0  0  0  0  0  0  0  0
    2.8743    0.9302    0.2482 C   0  0  0  0  0  0  0  0  0  0  0  0
    2.5645    2.3682    0.7010 C   0  0  0  0  0  0  0  0  0  0  0  0
    1.6811    3.0545   -0.3680 C   0  0  0  0  0  0  0  0  0  0  0  0
    0.7411    2.4961   -0.5316 H   0  0  0  0  0  0  0  0  0  0  0  0
    2.2164    3.1140   -1.3373 H   0  0  0  0  0  0  0  0  0  0  0  0
    1.4267    4.0888   -0.0536 H   0  0  0  0  0  0  0  0  0  0  0  0
    1.8319    2.3472    2.0636 C   0  0  0  0  0  0  0  0  0  0  0  0
    0.8882    1.7749    2.0012 H   0  0  0  0  0  0  0  0  0  0  0  0
    1.5959    3.3822    2.3891 H   0  0  0  0  0  0  0  0  0  0  0  0
    2.4692    1.8808    2.8423 H   0  0  0  0  0  0  0  0  0  0  0  0
    3.8426    3.2093    0.8691 C   0  0  0  0  0  0  0  0  0  0  0  0
    3.5702    4.2344    1.1924 H   0  0  0  0  0  0  0  0  0  0  0  0
    4.4091    3.2989   -0.0798 H   0  0  0  0  0  0  0  0  0  0  0  0
    4.5201    2.7859    1.6381 H   0  0  0  0  0  0  0  0  0  0  0  0
  2 17  1  0  0  0  0
  2  1  1  0  0  0  0
  3  2  2  0  0  0  0
  4  3  1  0  0  0  0
  5 10  2  0  0  0  0
  5  3  1  0  0  0  0
  6  5  1  0  0  0  0
  6  9  1  0  0  0  0
  7  6  1  0  0  0  0
  8  6  1  0  0  0  0
 10 15  1  0  0  0  0
 11 13  1  0  0  0  0
 11 10  1  0  0  0  0
 11 12  1  0  0  0  0
 14 11  1  0  0  0  0
 15 16  1  0  0  0  0
 15 17  2  0  0  0  0
 17 18  1  0  0  0  0
 18 27  1  0  0  0  0
 18 23  1  0  0  0  0
 19 22  1  0  0  0  0
 19 18  1  0  0  0  0
 20 19  1  0  0  0  0
 21 19  1  0  0  0  0
 23 25  1  0  0  0  0
 23 26  1  0  0  0  0
 24 23  1  0  0  0  0
 27 28  1  0  0  0  0
 27 30  1  0  0  0  0
 29 27  1  0  0  0  0
M  CHG  1   1  -1
M  END
