1
q = -1.0, confidence = 0.0

 28 28  0  0  0  0  0  0  0  0999 V2000
    0.4733    0.2553    0.2899 O   0  5  0  0  0  0  0  0  0  0  0  0
    1.7658   -0.0418    0.0372 C   0  0  0  0  0  0  0  0  0  0  0  0
    5.7976   -0.9714   -0.5871 O   0  0  0  0  0  0  0  0  0  0  0  0
    3.4465   -1.6806   -0.6829 C   0  0  0  0  0  0  0  0  0  0  0  0
    3.6734   -2.6848   -1.0648 H   0  0  0  0  0  0  0  0  0  0  0  0
    4.1148    0.5342    0.0721 C   0  0  0  0  0  0  0  0  0  0  0  0
    4.9464    1.2263    0.2555 H   0  0  0  0  0  0  0  0  0  0  0  0
    2.1131   -1.3160   -0.4542 C   0  0  0  0  0  0  0  0  0  0  0  0
    1.2992   -2.0260   -0.6587 H   0  0  0  0  0  0  0  0  0  0  0  0
    2.7892    0.9241    0.3062 C   0  0  0  0  0  0  0  0  0  0  0  0
    4.4606   -0.7449   -0.4131 C   0  0  0  0  0  0  0  0  0  0  0  0
    3.6967    3.2018    1.0151 C   0  0  0  0  0  0  0  0  0  0  0  0
    4.3719    2.7681    1.7802 H   0  0  0  0  0  0  0  0  0  0  0  0
    3.3969    4.2097    1.3671 H   0  0  0  0  0  0  0  0  0  0  0  0
    4.2746    3.3345    0.0785 H   0  0  0  0  0  0  0  0  0  0  0  0
    2.4401    2.3395    0.8004 C   0  0  0  0  0  0  0  0  0  0  0  0
    6.1954   -2.2303   -1.0861 C   0  0  0  0  0  0  0  0  0  0  0  0
    5.8957   -3.0627   -0.4086 H   0  0  0  0  0  0  0  0  0  0  0  0
    7.2991   -2.2082   -1.1579 H   0  0  0  0  0  0  0  0  0  0  0  0
    5.7727   -2.4321   -2.0970 H   0  0  0  0  0  0  0  0  0  0  0  0
    1.6876    2.2572    2.1496 C   0  0  0  0  0  0  0  0  0  0  0  0
    0.7577    1.6673    2.0541 H   0  0  0  0  0  0  0  0  0  0  0  0
    1.4250    3.2761    2.5038 H   0  0  0  0  0  0  0  0  0  0  0  0
    2.3237    1.7802    2.9229 H   0  0  0  0  0  0  0  0  0  0  0  0
    1.5587    3.0378   -0.2622 C   0  0  0  0  0  0  0  0  0  0  0  0
    2.1078    3.1377   -1.2203 H   0  0  0  0  0  0  0  0  0  0  0  0
    1.2787    4.0567    0.0791 H   0  0  0  0  0  0  0  0  0  0  0  0
    0.6329    2.4659   -0.4570 H   0  0  0  0  0  0  0  0  0  0  0  0
  2  1  1  0  0  0  0
  2 10  1  0  0  0  0
  3 11  1  0  0  0  0
  4  8  1  0  0  0  0
  4 11  2  0  0  0  0
  5  4  1  0  0  0  0
  6  7  1  0  0  0  0
  6 10  2  0  0  0  0
  8  2  2  0  0  0  0
  9  8  1  0  0  0  0
 10 16  1  0  0  0  0
 11  6  1  0  0  0  0
 12 14  1  0  0  0  0
 12 13  1  0  0  0  0
 15 12  1  0  0  0  0
 16 12  1  0  0  0  0
 16 21  1  0  0  0  0
 17  3  1  0  0  0  0
 17 18  1  0  0  0  0
 19 17  1  0  0  0  0
 20 17  1  0  0  0  0
 21 23  1  0  0  0  0
 21 24  1  0  0  0  0
 22 21  1  0  0  0  0
 25 27  1  0  0  0  0
 25 16  1  0  0  0  0
 26 25  1  0  0  0  0
 28 25  1  0  0  0  0
M  CHG  1   1  -1
M  END
