1
q = -1.0

 18 18  0  0  0  0  0  0  0  0999 V2000
   -1.6512   -1.0302   -1.0557 O   0  5  0  0  0  0  0  0  0  0  0  0
   -3.4618    0.4267   -1.2644 N   0  0  0  0  0  0  0  0  0  0  0  0
   -2.4898   -0.2739   -1.7571 C   0  0  0  0  0  0  0  0  0  0  0  0
   -2.2310   -0.2725   -3.2411 C   0  0  0  0  0  0  0  0  0  0  0  0
   -2.2580   -1.3091   -3.6358 H   0  0  0  0  0  0  0  0  0  0  0  0
   -1.2075    0.1131   -3.4260 H   0  0  0  0  0  0  0  0  0  0  0  0
   -2.9830    0.3449   -3.7628 H   0  0  0  0  0  0  0  0  0  0  0  0
   -3.7806    0.4709    0.0941 C   0  0  0  0  0  0  0  0  0  0  0  0
   -4.2571    1.7024    0.6116 C   0  0  0  0  0  0  0  0  0  0  0  0
   -4.3117    2.5611   -0.0738 H   0  0  0  0  0  0  0  0  0  0  0  0
   -4.6485    1.8212    1.9503 C   0  0  0  0  0  0  0  0  0  0  0  0
   -5.0094    2.7911    2.3267 H   0  0  0  0  0  0  0  0  0  0  0  0
   -4.5929    0.7093    2.8098 C   0  0  0  0  0  0  0  0  0  0  0  0
   -4.9101    0.7991    3.8598 H   0  0  0  0  0  0  0  0  0  0  0  0
   -4.1364   -0.5209    2.3064 C   0  0  0  0  0  0  0  0  0  0  0  0
   -4.0895   -1.4018    2.9662 H   0  0  0  0  0  0  0  0  0  0  0  0
   -3.7301   -0.6436    0.9712 C   0  0  0  0  0  0  0  0  0  0  0  0
   -3.3710   -1.6075    0.5905 H   0  0  0  0  0  0  0  0  0  0  0  0
  2  8  1  0  0  0  0
  3  2  2  0  0  0  0
  3  1  1  0  0  0  0
  4  3  1  0  0  0  0
  5  4  1  0  0  0  0
  6  4  1  0  0  0  0
  7  4  1  0  0  0  0
  8  9  2  0  0  0  0
  8 17  1  0  0  0  0
  9 11  1  0  0  0  0
 10  9  1  0  0  0  0
 11 12  1  0  0  0  0
 11 13  2  0  0  0  0
 13 14  1  0  0  0  0
 15 13  1  0  0  0  0
 15 16  1  0  0  0  0
 17 15  2  0  0  0  0
 18 17  1  0  0  0  0
M  CHG  1   1  -1
M  END
