1
q = -1.0, confidence = 0.006

 20 21  0  0  1  0  0  0  0  0999 V2000
    1.7964   -0.8235    0.4343 O   0  5  0  0  0  0  0  0  0  0  0  0
    0.8967   -2.2573   -1.0895 O   0  0  0  0  0  0  0  0  0  0  0  0
    4.3388   -1.4043   -0.2963 N   0  0  0  0  0  0  0  0  0  0  0  0
    6.6348    1.7869   -1.2341 N   0  0  0  0  0  0  0  0  0  0  0  0
    5.7140   -0.7180    1.3735 N   0  0  0  0  0  0  0  0  0  0  0  0
    4.9305    0.2456   -2.0070 N   0  0  0  0  0  2  0  0  0  0  0  0
    5.8807    0.0873    0.2617 C   0  0  0  0  0  0  0  0  0  0  0  0
    7.5875    1.6962    0.8954 N   0  0  0  0  0  0  0  0  0  0  0  0
    8.1544    2.5054    0.6511 H   0  0  0  0  0  0  0  0  0  0  0  0
    7.6451    1.2716    1.8177 H   0  0  0  0  0  0  0  0  0  0  0  0
    3.2665   -2.0835   -0.9815 C   0  0  0  0  0  0  0  0  0  0  0  0
    3.3708   -3.1841   -0.8943 H   0  0  0  0  0  0  0  0  0  0  0  0
    3.3455   -1.8262   -2.0573 H   0  0  0  0  0  0  0  0  0  0  0  0
    5.0300   -0.3114   -0.7917 C   0  0  0  0  0  0  0  0  0  0  0  0
    4.7845   -1.5818    1.0047 C   0  0  0  0  0  0  0  0  0  0  0  0
    4.3718   -2.3811    1.6354 H   0  0  0  0  0  0  0  0  0  0  0  0
    6.7159    1.2031   -0.0186 C   0  0  2  0  0  3  0  0  0  0  0  0
    1.8533   -1.6990   -0.5176 C   0  0  0  0  0  0  0  0  0  0  0  0
    5.7693    1.2875   -2.1371 C   0  0  0  0  0  0  0  0  0  0  0  0
    5.7492    1.8063   -3.1128 H   0  0  0  0  0  0  0  0  0  0  0  0
  2 18  2  0  0  0  0
  3 15  1  0  0  0  0
  4 17  1  0  0  0  0
  6 14  1  0  0  0  0
  7  5  1  0  0  0  0
  8 10  1  0  0  0  0
  9  8  1  0  0  0  0
 11 12  1  0  0  0  0
 11 18  1  0  0  0  0
 11  3  1  0  0  0  0
 13 11  1  0  0  0  0
 14  3  1  0  0  0  0
 14  7  2  0  0  0  0
 15  5  2  0  0  0  0
 15 16  1  0  0  0  0
 17  7  1  0  0  0  0
 17  8  1  1  0  0  0
 18  1  1  0  0  0  0
 19  6  1  0  0  0  0
 19  4  2  0  0  0  0
 20 19  1  0  0  0  0
M  CHG  1   1  -1
M  END
