1
q = -1.0

 13 13  0  0  0  0  0  0  0  0999 V2000
   -1.7883    0.5939   -1.4443 O   0  5  0  0  0  0  0  0  0  0  0  0
   -2.1332    2.6128   -0.4369 O   0  0  0  0  0  0  0  0  0  0  0  0
   -5.5863   -0.6933   -0.9113 N   0  0  0  0  0  0  0  0  0  0  0  0
   -6.8754    1.8415    1.3199 F   0  0  0  0  0  0  0  0  0  0  0  0
   -2.5031    1.5261   -0.9140 C   0  0  0  0  0  0  0  0  0  0  0  0
   -3.9709    1.1173   -0.7454 C   0  0  0  0  0  0  0  0  0  0  0  0
   -4.4374   -0.0996   -1.2806 C   0  0  0  0  0  0  0  0  0  0  0  0
   -3.7869   -0.6308   -1.9925 H   0  0  0  0  0  0  0  0  0  0  0  0
   -6.3779   -0.0336   -0.0425 C   0  0  0  0  0  0  0  0  0  0  0  0
   -7.3201   -0.5122    0.2777 H   0  0  0  0  0  0  0  0  0  0  0  0
   -6.0353    1.2307    0.4628 C   0  0  0  0  0  0  0  0  0  0  0  0
   -4.8095    1.8171    0.1341 C   0  0  0  0  0  0  0  0  0  0  0  0
   -4.4661    2.7670    0.5708 H   0  0  0  0  0  0  0  0  0  0  0  0
  1  5  1  0  0  0  0
  3  9  1  0  0  0  0
  5  6  1  0  0  0  0
  5  2  2  0  0  0  0
  6 12  2  0  0  0  0
  7  3  2  0  0  0  0
  7  6  1  0  0  0  0
  8  7  1  0  0  0  0
  9 10  1  0  0  0  0
  9 11  2  0  0  0  0
 11  4  1  0  0  0  0
 12 11  1  0  0  0  0
 12 13  1  0  0  0  0
M  CHG  1   1  -1
M  END
