2
q = 0.0, confidence = 1.0

 37 39  0  0  1  0  0  0  0  0999 V2000
   -1.1026    0.2164    0.0374 P   0  0  1  0  0  0  0  0  0  0  0  0
    1.2990    2.0433   -0.5970 O   0  0  0  0  0  1  0  0  0  0  0  0
   -1.7565    1.6126   -1.0313 C   0  0  2  0  0  0  0  0  0  0  0  0
   -1.5723    1.5034   -2.1135 H   0  0  0  0  0  0  0  0  0  0  0  0
   -0.9841    2.8223   -0.3672 C   0  0  1  0  0  0  0  0  0  0  0  0
   -1.5125    3.7523   -0.6504 H   0  0  0  0  0  0  0  0  0  0  0  0
   -1.0843    2.5829    1.1818 C   0  0  0  0  0  0  0  0  0  0  0  0
   -0.0792    2.4687    1.6359 H   0  0  0  0  0  0  0  0  0  0  0  0
   -1.5856    3.4355    1.6783 H   0  0  0  0  0  0  0  0  0  0  0  0
   -1.9188    1.2832    1.3643 C   0  0  1  0  0  0  0  0  0  0  0  0
   -1.9110    0.9097    2.4040 H   0  0  0  0  0  0  0  0  0  0  0  0
   -3.2996    1.5097    0.7629 C   0  0  0  0  0  0  0  0  0  0  0  0
   -3.2042    1.7015   -0.5870 C   0  0  0  0  0  0  0  0  0  0  0  0
   -4.5161    1.5604    1.6287 C   0  0  0  0  0  0  0  0  0  0  0  0
   -4.6665    0.6006    2.1682 H   0  0  0  0  0  0  0  0  0  0  0  0
   -5.4344    1.7668    1.0482 H   0  0  0  0  0  0  0  0  0  0  0  0
   -4.4224    2.3466    2.4087 H   0  0  0  0  0  0  0  0  0  0  0  0
   -4.2864    1.9867   -1.5757 C   0  0  0  0  0  0  0  0  0  0  0  0
   -4.3159    1.1985   -2.3584 H   0  0  0  0  0  0  0  0  0  0  0  0
   -4.1090    2.9473   -2.1057 H   0  0  0  0  0  0  0  0  0  0  0  0
   -5.2853    2.0379   -1.1041 H   0  0  0  0  0  0  0  0  0  0  0  0
    0.4587    2.9451   -0.7995 C   0  0  1  0  0  3  0  0  0  0  0  0
    0.9030    4.2038   -1.4717 C   0  0  0  0  0  0  0  0  0  0  0  0
    1.9896    4.1935   -1.6670 H   0  0  0  0  0  0  0  0  0  0  0  0
    0.6216    5.0910   -0.8667 H   0  0  0  0  0  0  0  0  0  0  0  0
    0.3568    4.3013   -2.4354 H   0  0  0  0  0  0  0  0  0  0  0  0
   -2.1163   -1.2839   -0.1682 C   0  0  0  0  0  0  0  0  0  0  0  0
   -1.9798   -2.0487   -1.3472 C   0  0  0  0  0  0  0  0  0  0  0  0
   -1.3065   -1.7000   -2.1458 H   0  0  0  0  0  0  0  0  0  0  0  0
   -2.6851   -3.2540   -1.4794 C   0  0  0  0  0  0  0  0  0  0  0  0
   -2.5841   -3.8431   -2.4034 H   0  0  0  0  0  0  0  0  0  0  0  0
   -3.5130   -3.7107   -0.4402 C   0  0  0  0  0  0  0  0  0  0  0  0
   -4.0604   -4.6590   -0.5474 H   0  0  0  0  0  0  0  0  0  0  0  0
   -3.6402   -2.9566    0.7373 C   0  0  0  0  0  0  0  0  0  0  0  0
   -4.2855   -3.3119    1.5545 H   0  0  0  0  0  0  0  0  0  0  0  0
   -2.9456   -1.7459    0.8756 C   0  0  0  0  0  0  0  0  0  0  0  0
   -3.0491   -1.1678    1.8054 H   0  0  0  0  0  0  0  0  0  0  0  0
  1 27  1  6  0  0  0
  1 10  1  0  0  0  0
  3  4  1  6  0  0  0
  3 13  1  0  0  0  0
  3  5  1  0  0  0  0
  3  1  1  0  0  0  0
  5  6  1  6  0  0  0
  5  7  1  0  0  0  0
  7 10  1  0  0  0  0
  7  8  1  0  0  0  0
  7  9  1  0  0  0  0
 10 11  1  1  0  0  0
 12 10  1  0  0  0  0
 12 14  1  0  0  0  0
 13 12  2  0  0  0  0
 14 15  1  0  0  0  0
 14 17  1  0  0  0  0
 16 14  1  0  0  0  0
 18 21  1  0  0  0  0
 18 13  1  0  0  0  0
 19 18  1  0  0  0  0
 20 18  1  0  0  0  0
 22  2  1  1  0  0  0
 22  5  1  0  0  0  0
 23 25  1  0  0  0  0
 23 22  1  0  0  0  0
 24 23  1  0  0  0  0
 26 23  1  0  0  0  0
 27 36  1  0  0  0  0
 28 27  2  0  0  0  0
 29 28  1  0  0  0  0
 30 28  1  0  0  0  0
 30 32  2  0  0  0  0
 31 30  1  0  0  0  0
 32 34  1  0  0  0  0
 33 32  1  0  0  0  0
 34 36  2  0  0  0  0
 34 35  1  0  0  0  0
 36 37  1  0  0  0  0
M  END
