2
q = -1.0

 55 56  0  0  0  0  0  0  0  0999 V2000
   -1.5120    1.1937    0.1378 P   0  0  0  0  0  0  0  0  0  0  0  0
    0.6711   -0.6434    0.0292 O   0  5  0  0  0  0  0  0  0  0  0  0
    1.8231    3.5112   -0.0676 O   0  0  0  0  0  0  0  0  0  0  0  0
   -0.3887    3.9332    0.1417 O   0  0  0  0  0  0  0  0  0  0  0  0
    0.2396    1.6789    0.1080 C   0  0  0  0  0  0  0  0  0  0  0  0
    1.1047    0.5736    0.0687 C   0  0  0  0  0  0  0  0  0  0  0  0
    0.6832    3.0666    0.0535 C   0  0  0  0  0  0  0  0  0  0  0  0
   -0.0507    5.3205    0.1098 C   0  0  0  0  0  0  0  0  0  0  0  0
    0.5961    5.5921    0.9686 H   0  0  0  0  0  0  0  0  0  0  0  0
   -1.0081    5.8708    0.1641 H   0  0  0  0  0  0  0  0  0  0  0  0
    0.4917    5.5805   -0.8220 H   0  0  0  0  0  0  0  0  0  0  0  0
    2.6263    0.6857    0.0067 C   0  0  0  0  0  0  0  0  0  0  0  0
    2.8550    1.7696   -0.0186 H   0  0  0  0  0  0  0  0  0  0  0  0
    3.0561    0.0919   -1.3326 C   0  0  0  0  0  0  0  0  0  0  0  0
    3.3382    0.0936    1.2183 C   0  0  0  0  0  0  0  0  0  0  0  0
    3.4923   -1.2413   -1.4540 C   0  0  0  0  0  0  0  0  0  0  0  0
    3.5925   -1.8559   -0.5471 H   0  0  0  0  0  0  0  0  0  0  0  0
    3.7988   -1.7784   -2.7142 C   0  0  0  0  0  0  0  0  0  0  0  0
    4.1441   -2.8211   -2.7937 H   0  0  0  0  0  0  0  0  0  0  0  0
    3.6644   -0.9935   -3.8712 C   0  0  0  0  0  0  0  0  0  0  0  0
    3.9059   -1.4157   -4.8587 H   0  0  0  0  0  0  0  0  0  0  0  0
    3.2274    0.3368   -3.7583 C   0  0  0  0  0  0  0  0  0  0  0  0
    3.1264    0.9627   -4.6586 H   0  0  0  0  0  0  0  0  0  0  0  0
    2.9279    0.8752   -2.4978 C   0  0  0  0  0  0  0  0  0  0  0  0
    2.5868    1.9184   -2.4016 H   0  0  0  0  0  0  0  0  0  0  0  0
    4.7460    0.1898    1.2671 C   0  0  0  0  0  0  0  0  0  0  0  0
    5.2822    0.6548    0.4246 H   0  0  0  0  0  0  0  0  0  0  0  0
    5.4655   -0.3011    2.3645 C   0  0  0  0  0  0  0  0  0  0  0  0
    6.5632   -0.2163    2.3801 H   0  0  0  0  0  0  0  0  0  0  0  0
    4.7870   -0.8941    3.4426 C   0  0  0  0  0  0  0  0  0  0  0  0
    5.3490   -1.2801    4.3071 H   0  0  0  0  0  0  0  0  0  0  0  0
    3.3885   -0.9854    3.4068 C   0  0  0  0  0  0  0  0  0  0  0  0
    2.8408   -1.4433    4.2452 H   0  0  0  0  0  0  0  0  0  0  0  0
    2.6655   -0.4980    2.3048 C   0  0  0  0  0  0  0  0  0  0  0  0
    1.5692   -0.5895    2.3023 H   0  0  0  0  0  0  0  0  0  0  0  0
   -2.3364    1.8680   -1.4388 C   0  0  0  0  0  0  0  0  0  0  0  0
   -3.0648    1.0668   -1.6775 H   0  0  0  0  0  0  0  0  0  0  0  0
   -2.3823    2.0642    1.5591 C   0  0  0  0  0  0  0  0  0  0  0  0
   -2.6104    3.0629    1.1360 H   0  0  0  0  0  0  0  0  0  0  0  0
   -3.1243    3.1757   -1.3220 C   0  0  0  0  0  0  0  0  0  0  0  0
   -2.4691    4.0155   -1.0252 H   0  0  0  0  0  0  0  0  0  0  0  0
   -3.9557    3.1057   -0.5933 H   0  0  0  0  0  0  0  0  0  0  0  0
   -3.5725    3.4232   -2.3077 H   0  0  0  0  0  0  0  0  0  0  0  0
   -1.3005    1.9163   -2.5675 C   0  0  0  0  0  0  0  0  0  0  0  0
   -1.8048    2.0404   -3.5488 H   0  0  0  0  0  0  0  0  0  0  0  0
   -0.6815    0.9984   -2.6050 H   0  0  0  0  0  0  0  0  0  0  0  0
   -0.6070    2.7693   -2.4316 H   0  0  0  0  0  0  0  0  0  0  0  0
   -3.6917    1.3400    1.8900 C   0  0  0  0  0  0  0  0  0  0  0  0
   -3.4822    0.3178    2.2646 H   0  0  0  0  0  0  0  0  0  0  0  0
   -4.3600    1.2616    1.0086 H   0  0  0  0  0  0  0  0  0  0  0  0
   -4.2432    1.8949    2.6773 H   0  0  0  0  0  0  0  0  0  0  0  0
   -1.4917    2.2734    2.7871 C   0  0  0  0  0  0  0  0  0  0  0  0
   -2.0604    2.8481    3.5488 H   0  0  0  0  0  0  0  0  0  0  0  0
   -0.5835    2.8515    2.5353 H   0  0  0  0  0  0  0  0  0  0  0  0
   -1.1824    1.3084    3.2284 H   0  0  0  0  0  0  0  0  0  0  0  0
  1 38  1  0  0  0  0
  2  6  1  0  0  0  0
  3  7  2  0  0  0  0
  5  1  1  0  0  0  0
  6  5  2  0  0  0  0
  7  5  1  0  0  0  0
  7  4  1  0  0  0  0
  8  4  1  0  0  0  0
  8 10  1  0  0  0  0
  8  9  1  0  0  0  0
 11  8  1  0  0  0  0
 12  6  1  0  0  0  0
 12 15  1  0  0  0  0
 13 12  1  0  0  0  0
 14 12  1  0  0  0  0
 15 26  2  0  0  0  0
 15 34  1  0  0  0  0
 16 14  1  0  0  0  0
 16 17  1  0  0  0  0
 18 16  2  0  0  0  0
 19 18  1  0  0  0  0
 20 22  2  0  0  0  0
 20 18  1  0  0  0  0
 21 20  1  0  0  0  0
 22 24  1  0  0  0  0
 23 22  1  0  0  0  0
 24 25  1  0  0  0  0
 24 14  2  0  0  0  0
 26 28  1  0  0  0  0
 27 26  1  0  0  0  0
 28 29  1  0  0  0  0
 28 30  2  0  0  0  0
 30 31  1  0  0  0  0
 32 30  1  0  0  0  0
 32 33  1  0  0  0  0
 34 32  2  0  0  0  0
 35 34  1  0  0  0  0
 36 40  1  0  0  0  0
 36  1  1  0  0  0  0
 37 36  1  0  0  0  0
 38 48  1  0  0  0  0
 38 52  1  0  0  0  0
 39 38  1  0  0  0  0
 40 41  1  0  0  0  0
 40 42  1  0  0  0  0
 43 40  1  0  0  0  0
 44 47  1  0  0  0  0
 44 36  1  0  0  0  0
 45 44  1  0  0  0  0
 46 44  1  0  0  0  0
 48 49  1  0  0  0  0
 48 51  1  0  0  0  0
 50 48  1  0  0  0  0
 52 55  1  0  0  0  0
 52 53  1  0  0  0  0
 54 52  1  0  0  0  0
M  CHG  1   2  -1
M  END
