1
q = -1.0

 13 13  0  0  0  0  0  0  0  0999 V2000
    1.9067    0.1515   -0.7723 O   0  5  0  0  0  0  0  0  0  0  0  0
    8.3310    2.1960   -0.1354 N   0  0  0  0  0  0  0  0  0  0  0  0
    3.1715    0.5611   -0.6179 C   0  0  0  0  0  0  0  0  0  0  0  0
    4.1585    0.0984   -1.5238 C   0  0  0  0  0  0  0  0  0  0  0  0
    3.8537   -0.5961   -2.3201 H   0  0  0  0  0  0  0  0  0  0  0  0
    5.4829    0.5150   -1.3971 C   0  0  0  0  0  0  0  0  0  0  0  0
    6.2491    0.1480   -2.0951 H   0  0  0  0  0  0  0  0  0  0  0  0
    5.8543    1.4178   -0.3696 C   0  0  0  0  0  0  0  0  0  0  0  0
    4.8627    1.8962    0.5219 C   0  0  0  0  0  0  0  0  0  0  0  0
    5.1462    2.6048    1.3134 H   0  0  0  0  0  0  0  0  0  0  0  0
    3.5385    1.4750    0.4010 C   0  0  0  0  0  0  0  0  0  0  0  0
    2.7617    1.8498    1.0830 H   0  0  0  0  0  0  0  0  0  0  0  0
    7.2140    1.8463   -0.2404 C   0  0  0  0  0  0  0  0  0  0  0  0
  1  3  1  0  0  0  0
  3 11  1  0  0  0  0
  4  6  1  0  0  0  0
  4  3  2  0  0  0  0
  5  4  1  0  0  0  0
  6  8  2  0  0  0  0
  7  6  1  0  0  0  0
  8 13  1  0  0  0  0
  8  9  1  0  0  0  0
  9 10  1  0  0  0  0
 11  9  2  0  0  0  0
 11 12  1  0  0  0  0
 13  2  3  0  0  0  0
M  CHG  1   1  -1
M  END
