2
q = -1.0

 19 19  0  0  0  0  0  0  0  0999 V2000
    4.1680   -1.6642   -1.0027 S   0  0  0  0  0  0  0  0  0  0  0  0
    0.6183   -0.3395    0.4008 O   0  0  0  0  0  1  0  0  0  0  0  0
    1.8838   -0.9106    0.4431 C   0  0  0  0  0  0  0  0  0  0  0  0
    1.8490   -1.9693    0.7953 H   0  0  0  0  0  0  0  0  0  0  0  0
    2.5341   -0.3610    1.1635 H   0  0  0  0  0  0  0  0  0  0  0  0
    2.5232   -0.8906   -0.9512 C   0  0  0  0  0  0  0  0  0  0  0  0
    2.5658    0.1406   -1.3583 H   0  0  0  0  0  0  0  0  0  0  0  0
    1.9038   -1.4768   -1.6595 H   0  0  0  0  0  0  0  0  0  0  0  0
    5.2246   -0.4784   -0.2046 C   0  0  0  0  0  0  0  0  0  0  0  0
    4.8544    0.8463    0.1097 C   0  0  0  0  0  0  0  0  0  0  0  0
    3.8431    1.2135   -0.1111 H   0  0  0  0  0  0  0  0  0  0  0  0
    5.7799    1.7127    0.7115 C   0  0  0  0  0  0  0  0  0  0  0  0
    5.4706    2.7417    0.9521 H   0  0  0  0  0  0  0  0  0  0  0  0
    7.0827    1.2826    1.0033 C   0  0  0  0  0  0  0  0  0  0  0  0
    7.8031    1.9670    1.4752 H   0  0  0  0  0  0  0  0  0  0  0  0
    7.4547   -0.0351    0.6869 C   0  0  0  0  0  0  0  0  0  0  0  0
    8.4725   -0.3906    0.9098 H   0  0  0  0  0  0  0  0  0  0  0  0
    6.5377   -0.9107    0.0934 C   0  0  0  0  0  0  0  0  0  0  0  0
    6.8338   -1.9446   -0.1433 H   0  0  0  0  0  0  0  0  0  0  0  0
  1  6  1  0  0  0  0
  1  9  1  0  0  0  0
  2  3  1  0  0  0  0
  3  4  1  0  0  0  0
  3  5  1  0  0  0  0
  6  3  1  0  0  0  0
  7  6  1  0  0  0  0
  8  6  1  0  0  0  0
  9 18  2  0  0  0  0
  9 10  1  0  0  0  0
 10 12  2  0  0  0  0
 11 10  1  0  0  0  0
 12 13  1  0  0  0  0
 12 14  1  0  0  0  0
 14 15  1  0  0  0  0
 16 17  1  0  0  0  0
 16 14  2  0  0  0  0
 18 16  1  0  0  0  0
 19 18  1  0  0  0  0
M  END
