1
q = -1.0, confidence = 0.0

 22 23  0  0  0  0  0  0  0  0999 V2000
   -0.2283    0.2209   -1.4061 O   0  5  0  0  0  0  0  0  0  0  0  0
   -1.5305    0.1930   -1.0692 C   0  0  0  0  0  0  0  0  0  0  0  0
   -3.8496    0.0963   -1.8069 C   0  0  0  0  0  0  0  0  0  0  0  0
   -4.5761    0.0256   -2.6303 H   0  0  0  0  0  0  0  0  0  0  0  0
   -4.3116    0.0967   -0.4695 C   0  0  0  0  0  0  0  0  0  0  0  0
   -1.9708    0.2048    0.2733 C   0  0  0  0  0  0  0  0  0  0  0  0
   -1.2366    0.2554    1.0857 H   0  0  0  0  0  0  0  0  0  0  0  0
   -2.4863    0.1430   -2.1083 C   0  0  0  0  0  0  0  0  0  0  0  0
   -2.1304    0.1239   -3.1483 H   0  0  0  0  0  0  0  0  0  0  0  0
   -5.7592    0.0340   -0.1545 C   0  0  0  0  0  0  0  0  0  0  0  0
   -3.3393    0.1555    0.5555 C   0  0  0  0  0  0  0  0  0  0  0  0
   -3.6627    0.1870    1.6067 H   0  0  0  0  0  0  0  0  0  0  0  0
   -6.2266   -0.6576    0.9874 C   0  0  0  0  0  0  0  0  0  0  0  0
   -5.5050   -1.1792    1.6343 H   0  0  0  0  0  0  0  0  0  0  0  0
   -8.5307   -0.0902    0.4498 C   0  0  0  0  0  0  0  0  0  0  0  0
   -9.6050   -0.1384    0.6838 H   0  0  0  0  0  0  0  0  0  0  0  0
   -6.7158    0.6614   -0.9861 C   0  0  0  0  0  0  0  0  0  0  0  0
   -6.3762    1.2296   -1.8652 H   0  0  0  0  0  0  0  0  0  0  0  0
   -8.0838    0.5993   -0.6887 C   0  0  0  0  0  0  0  0  0  0  0  0
   -8.8075    1.1033   -1.3476 H   0  0  0  0  0  0  0  0  0  0  0  0
   -7.5942   -0.7180    1.2866 C   0  0  0  0  0  0  0  0  0  0  0  0
   -7.9331   -1.2701    2.1767 H   0  0  0  0  0  0  0  0  0  0  0  0
  1  2  1  0  0  0  0
  2  6  1  0  0  0  0
  3  5  2  0  0  0  0
  4  3  1  0  0  0  0
  5 10  1  0  0  0  0
  5 11  1  0  0  0  0
  6 11  2  0  0  0  0
  6  7  1  0  0  0  0
  8  3  1  0  0  0  0
  8  2  2  0  0  0  0
  9  8  1  0  0  0  0
 10 13  1  0  0  0  0
 11 12  1  0  0  0  0
 13 21  2  0  0  0  0
 13 14  1  0  0  0  0
 15 16  1  0  0  0  0
 15 21  1  0  0  0  0
 17 19  1  0  0  0  0
 17 10  2  0  0  0  0
 18 17  1  0  0  0  0
 19 15  2  0  0  0  0
 20 19  1  0  0  0  0
 21 22  1  0  0  0  0
M  CHG  1   1  -1
M  END
