2
q = -1.0, confidence = 0.012

 15 15  0  0  0  0  0  0  0  0999 V2000
    2.9747   -0.0585    1.5485 O   0  5  0  0  0  0  0  0  0  0  0  0
    1.9606    0.3821   -0.4367 O   0  0  0  0  0  0  0  0  0  0  0  0
    8.9354   -0.2913    1.1341 N   0  0  0  0  0  0  0  0  0  0  0  0
    4.3273    0.1896   -0.3901 C   0  0  0  0  0  0  0  0  0  0  0  0
    4.4168    0.3710   -1.7836 C   0  0  0  0  0  0  0  0  0  0  0  0
    3.4835    0.4976   -2.3511 H   0  0  0  0  0  0  0  0  0  0  0  0
    5.6681    0.3832   -2.4171 C   0  0  0  0  0  0  0  0  0  0  0  0
    5.7340    0.5236   -3.5065 H   0  0  0  0  0  0  0  0  0  0  0  0
    6.8399    0.2150   -1.6691 C   0  0  0  0  0  0  0  0  0  0  0  0
    7.8254    0.2227   -2.1565 H   0  0  0  0  0  0  0  0  0  0  0  0
    6.7579    0.0312   -0.2674 C   0  0  0  0  0  0  0  0  0  0  0  0
    5.4970    0.0195    0.3672 C   0  0  0  0  0  0  0  0  0  0  0  0
    5.4060   -0.1223    1.4530 H   0  0  0  0  0  0  0  0  0  0  0  0
    7.9549   -0.1452    0.5048 C   0  0  0  0  0  0  0  0  0  0  0  0
    2.9812    0.1709    0.3025 C   0  0  0  0  0  0  0  0  0  0  0  0
  2 15  2  0  0  0  0
  4 15  1  0  0  0  0
  4 12  1  0  0  0  0
  5  4  2  0  0  0  0
  6  5  1  0  0  0  0
  7  5  1  0  0  0  0
  7  9  2  0  0  0  0
  8  7  1  0  0  0  0
  9 11  1  0  0  0  0
 10  9  1  0  0  0  0
 11 12  2  0  0  0  0
 11 14  1  0  0  0  0
 12 13  1  0  0  0  0
 14  3  3  0  0  0  0
 15  1  1  0  0  0  0
M  CHG  1   1  -1
M  END
