1
q = 0.0, confidence = 0.994

 29 30  0  0  0  0  0  0  0  0999 V2000
   -1.1131    1.0399    0.6299 O   0  5  0  0  0  0  0  0  0  0  0  0
   -3.0305    0.4039   -0.9396 N   0  0  0  0  0  4  0  0  0  0  0  0
   -1.5382    2.2695    0.6601 C   0  0  0  0  0  0  0  0  0  0  0  0
   -0.9282    3.2802    1.4649 C   0  0  0  0  0  0  0  0  0  0  0  0
   -1.3972    4.5864    1.4271 C   0  0  0  0  0  0  0  0  0  0  0  0
   -2.4932    4.9707    0.6038 C   0  0  0  0  0  0  0  0  0  0  0  0
   -3.1234    4.0137   -0.1718 C   0  0  0  0  0  0  0  0  0  0  0  0
   -2.6802    2.6550   -0.1622 C   0  0  0  0  0  0  0  0  0  0  0  0
   -3.3762    1.6864   -0.9271 C   0  0  0  0  0  0  0  0  0  0  0  0
   -3.6336   -0.6709   -1.6169 C   0  0  0  0  0  0  0  0  0  0  0  0
   -4.7829   -0.4976   -2.4161 C   0  0  0  0  0  0  0  0  0  0  0  0
   -5.3525   -1.5913   -3.0744 C   0  0  0  0  0  0  0  0  0  0  0  0
   -4.7782   -2.8657   -2.9378 C   0  0  0  0  0  0  0  0  0  0  0  0
   -3.6363   -3.0321   -2.1425 C   0  0  0  0  0  0  0  0  0  0  0  0
   -3.0355   -1.9539   -1.4660 C   0  0  0  0  0  0  0  0  0  0  0  0
   -1.8184   -2.1483   -0.6080 C   0  0  0  0  0  0  0  0  0  0  0  0
   -2.1878    0.2463   -0.3104 H   0  0  0  0  0  0  0  0  0  0  0  0
   -0.0823    2.9794    2.1053 H   0  0  0  0  0  0  0  0  0  0  0  0
   -0.9063    5.3459    2.0561 H   0  0  0  0  0  0  0  0  0  0  0  0
   -2.8389    6.0142    0.5954 H   0  0  0  0  0  0  0  0  0  0  0  0
   -3.9851    4.2817   -0.8045 H   0  0  0  0  0  0  0  0  0  0  0  0
   -4.2456    2.0018   -1.5282 H   0  0  0  0  0  0  0  0  0  0  0  0
   -5.2429    0.4948   -2.5248 H   0  0  0  0  0  0  0  0  0  0  0  0
   -6.2500   -1.4471   -3.6939 H   0  0  0  0  0  0  0  0  0  0  0  0
   -5.2222   -3.7314   -3.4513 H   0  0  0  0  0  0  0  0  0  0  0  0
   -3.1857   -4.0307   -2.0339 H   0  0  0  0  0  0  0  0  0  0  0  0
   -2.0147   -1.9222    0.4659 H   0  0  0  0  0  0  0  0  0  0  0  0
   -1.4560   -3.1913   -0.6626 H   0  0  0  0  0  0  0  0  0  0  0  0
   -0.9785   -1.4878   -0.9093 H   0  0  0  0  0  0  0  0  0  0  0  0
  1  3  1  0  0  0  0
  2  9  2  0  0  0  0
  2 17  1  0  0  0  0
  3  4  1  0  0  0  0
  4 18  1  0  0  0  0
  5  4  2  0  0  0  0
  5 19  1  0  0  0  0
  6  5  1  0  0  0  0
  7  8  1  0  0  0  0
  7  6  2  0  0  0  0
  8  3  2  0  0  0  0
  9  8  1  0  0  0  0
 10 15  1  0  0  0  0
 10  2  1  0  0  0  0
 11 10  2  0  0  0  0
 12 13  2  0  0  0  0
 12 11  1  0  0  0  0
 13 14  1  0  0  0  0
 14 26  1  0  0  0  0
 14 15  2  0  0  0  0
 15 16  1  0  0  0  0
 16 27  1  0  0  0  0
 20  6  1  0  0  0  0
 21  7  1  0  0  0  0
 22  9  1  0  0  0  0
 23 11  1  0  0  0  0
 24 12  1  0  0  0  0
 25 13  1  0  0  0  0
 28 16  1  0  0  0  0
 29 16  1  0  0  0  0
M  CHG  1   1  -1
M  END
