3
q = -1.0, confidence = 0.0

 14 14  0  0  0  0  0  0  0  0999 V2000
    3.0237   -0.5529    1.8225 O   0  0  0  0  0  0  0  0  0  0  0  0
    2.5038    1.1513   -1.9654 O   0  5  0  0  0  0  0  0  0  0  0  0
    1.4324   -0.2528   -0.5337 O   0  0  0  0  0  0  0  0  0  0  0  0
    5.1793   -1.0340    1.2945 N   0  0  0  0  0  0  0  0  0  0  0  0
    5.2945   -1.3355    2.2674 H   0  0  0  0  0  0  0  0  0  0  0  0
    6.1203   -0.5807   -0.7776 N   0  0  0  0  0  0  0  0  0  0  0  0
    6.9478   -0.5709   -1.3778 H   0  0  0  0  0  0  0  0  0  0  0  0
    7.4217   -1.4591    0.9147 O   0  0  0  0  0  0  0  0  0  0  0  0
    6.3374   -1.0673    0.5216 C   0  0  0  0  0  0  0  0  0  0  0  0
    3.8913   -0.5868    0.9428 C   0  0  0  0  0  0  0  0  0  0  0  0
    2.4680    0.2933   -1.0426 C   0  0  0  0  0  0  0  0  0  0  0  0
    4.9088   -0.1438   -1.2309 C   0  0  0  0  0  0  0  0  0  0  0  0
    4.8612    0.2372   -2.2622 H   0  0  0  0  0  0  0  0  0  0  0  0
    3.7767   -0.1679   -0.4580 C   0  0  0  0  0  0  0  0  0  0  0  0
  2 11  1  0  0  0  0
  4  5  1  0  0  0  0
  6  9  1  0  0  0  0
  7  6  1  0  0  0  0
  9  8  2  0  0  0  0
  9  4  1  0  0  0  0
 10  4  1  0  0  0  0
 10  1  2  0  0  0  0
 11  3  2  0  0  0  0
 11 14  1  0  0  0  0
 12  6  1  0  0  0  0
 12 14  2  0  0  0  0
 13 12  1  0  0  0  0
 14 10  1  0  0  0  0
M  CHG  1   2  -1
M  END
