1
q = -1.0, confidence = 0.006

 11 11  0  0  0  0  0  0  0  0999 V2000
    2.8514   -0.8638   -0.1780 O   0  5  0  0  0  0  0  0  0  0  0  0
    3.9951   -0.3058   -0.2579 C   0  0  0  0  0  0  0  0  0  0  0  0
    4.4492    1.1308   -0.2977 C   0  0  0  0  0  0  0  0  0  0  0  0
    3.8699    2.2285   -0.2779 O   0  0  0  0  0  0  0  0  0  0  0  0
    5.9070    0.6155   -0.3513 C   0  0  0  0  0  0  0  0  0  0  0  0
    7.0153    1.1119   -0.3955 O   0  0  0  0  0  0  0  0  0  0  0  0
    5.3408   -0.7584   -0.3114 C   0  0  0  0  0  0  0  0  0  0  0  0
    5.9695   -2.0937   -0.3142 C   0  0  0  0  0  0  0  0  0  0  0  0
    6.7256   -2.1705    0.4963 H   0  0  0  0  0  0  0  0  0  0  0  0
    6.5293   -2.2544   -1.2613 H   0  0  0  0  0  0  0  0  0  0  0  0
    5.2265   -2.9069   -0.2007 H   0  0  0  0  0  0  0  0  0  0  0  0
  2  1  1  0  0  0  0
  3  4  2  0  0  0  0
  3  2  1  0  0  0  0
  5  7  1  0  0  0  0
  5  3  1  0  0  0  0
  6  5  2  0  0  0  0
  7  2  2  0  0  0  0
  8  7  1  0  0  0  0
  8 11  1  0  0  0  0
  8  9  1  0  0  0  0
 10  8  1  0  0  0  0
M  CHG  1   1  -1
M  END
