1
q = 0.0, confidence = 0.998

 26 27  0  0  1  0  0  0  0  0999 V2000
    0.9944   -0.5496   -1.2327 O   0  0  0  0  0  1  0  0  0  0  0  0
    2.9832   -1.5779   -0.5555 N   0  0  0  0  0  0  0  0  0  0  0  0
    4.3413   -1.4381   -0.8268 N   0  0  0  0  0  0  0  0  0  0  0  0
    2.2487   -0.6103   -1.2573 C   0  0  1  0  0  3  0  0  0  0  0  0
    3.2317    0.1768   -1.9496 C   0  0  0  0  0  0  0  0  0  0  0  0
    3.0035    1.0499   -2.5653 H   0  0  0  0  0  0  0  0  0  0  0  0
    4.4798   -0.3156   -1.6263 C   0  0  0  0  0  0  0  0  0  0  0  0
    5.2779   -1.7631    0.2422 C   0  0  0  0  0  0  0  0  0  0  0  0
    6.2996   -1.7642   -0.1779 H   0  0  0  0  0  0  0  0  0  0  0  0
    5.0603   -2.7746    0.6309 H   0  0  0  0  0  0  0  0  0  0  0  0
    5.2188   -1.0255    1.0727 H   0  0  0  0  0  0  0  0  0  0  0  0
    5.8242    0.2443   -1.9481 C   0  0  0  0  0  0  0  0  0  0  0  0
    6.3101    0.6593   -1.0392 H   0  0  0  0  0  0  0  0  0  0  0  0
    5.7126    1.0761   -2.6662 H   0  0  0  0  0  0  0  0  0  0  0  0
    6.5021   -0.5175   -2.3844 H   0  0  0  0  0  0  0  0  0  0  0  0
    2.4482   -2.7335    0.0680 C   0  0  0  0  0  0  0  0  0  0  0  0
    2.8744   -4.0197   -0.3198 C   0  0  0  0  0  0  0  0  0  0  0  0
    3.6437   -4.1257   -1.0993 H   0  0  0  0  0  0  0  0  0  0  0  0
    2.2934   -5.1453    0.2805 C   0  0  0  0  0  0  0  0  0  0  0  0
    2.6259   -6.1518   -0.0159 H   0  0  0  0  0  0  0  0  0  0  0  0
    1.2728   -4.9897    1.2337 C   0  0  0  0  0  0  0  0  0  0  0  0
    0.8016   -5.8761    1.6842 H   0  0  0  0  0  0  0  0  0  0  0  0
    0.8504   -3.7033    1.6029 C   0  0  0  0  0  0  0  0  0  0  0  0
    0.0437   -3.5713    2.3388 H   0  0  0  0  0  0  0  0  0  0  0  0
    1.4444   -2.5670    1.0382 C   0  0  0  0  0  0  0  0  0  0  0  0
    1.1274   -1.5583    1.3300 H   0  0  0  0  0  0  0  0  0  0  0  0
  2 16  1  0  0  0  0
  3  2  1  0  0  0  0
  3  8  1  0  0  0  0
  4  1  1  6  0  0  0
  4  2  1  0  0  0  0
  5  7  2  0  0  0  0
  5  4  1  0  0  0  0
  6  5  1  0  0  0  0
  7  3  1  0  0  0  0
  8 10  1  0  0  0  0
  8 11  1  0  0  0  0
  9  8  1  0  0  0  0
 12  7  1  0  0  0  0
 12 13  1  0  0  0  0
 14 12  1  0  0  0  0
 15 12  1  0  0  0  0
 16 25  1  0  0  0  0
 17 16  2  0  0  0  0
 17 19  1  0  0  0  0
 18 17  1  0  0  0  0
 19 21  2  0  0  0  0
 20 19  1  0  0  0  0
 21 23  1  0  0  0  0
 21 22  1  0  0  0  0
 23 24  1  0  0  0  0
 25 26  1  0  0  0  0
 25 23  2  0  0  0  0
M  END
