2
q = 0.0, confidence = 0.96

 20 20  0  0  1  0  0  0  0  0999 V2000
    3.0609    1.0527   -0.3204 O   0  0  0  0  0  0  0  0  0  0  0  0
    1.5048    0.7659    1.2573 O   0  0  0  0  0  1  0  0  0  0  0  0
    5.1102   -0.5286   -0.3947 N   0  0  0  0  0  0  0  0  0  0  0  0
    2.5937    0.4576    0.7553 C   0  0  1  0  0  3  0  0  0  0  0  0
    3.3998   -0.7073    1.3271 C   0  0  2  0  0  0  0  0  0  0  0  0
    4.9068   -0.5578    1.0650 C   0  0  0  0  0  0  0  0  0  0  0  0
    4.7542   -1.8144   -1.0275 C   0  0  0  0  0  0  0  0  0  0  0  0
    3.2709   -2.1174   -0.7995 C   0  0  0  0  0  0  0  0  0  0  0  0
    2.8882   -2.0245    0.6844 C   0  0  0  0  0  0  0  0  0  0  0  0
    3.1954   -0.7270    2.4150 H   0  0  0  0  0  0  0  0  0  0  0  0
    5.2948    0.3868    1.4976 H   0  0  0  0  0  0  0  0  0  0  0  0
    5.4542   -1.4034    1.5472 H   0  0  0  0  0  0  0  0  0  0  0  0
    3.9424    0.5580   -0.5873 H   0  0  0  0  0  0  0  0  0  0  0  0
    6.0708   -0.2538   -0.6286 H   0  0  0  0  0  0  0  0  0  0  0  0
    4.9777   -1.7435   -2.1110 H   0  0  0  0  0  0  0  0  0  0  0  0
    5.3830   -2.6391   -0.6079 H   0  0  0  0  0  0  0  0  0  0  0  0
    2.6341   -1.4165   -1.3803 H   0  0  0  0  0  0  0  0  0  0  0  0
    3.0403   -3.1305   -1.1869 H   0  0  0  0  0  0  0  0  0  0  0  0
    3.3315   -2.8705    1.2544 H   0  0  0  0  0  0  0  0  0  0  0  0
    1.7861   -2.0809    0.7862 H   0  0  0  0  0  0  0  0  0  0  0  0
  1  4  1  0  0  0  0
  3  6  1  0  0  0  0
  4  2  1  6  0  0  0
  4  5  1  0  0  0  0
  5 10  1  1  0  0  0
  6  5  1  0  0  0  0
  6 11  1  0  0  0  0
  6 12  1  0  0  0  0
  7  8  1  0  0  0  0
  7 16  1  0  0  0  0
  7  3  1  0  0  0  0
  8  9  1  0  0  0  0
  9 20  1  0  0  0  0
  9 19  1  0  0  0  0
  9  5  1  0  0  0  0
 13  1  1  0  0  0  0
 14  3  1  0  0  0  0
 15  7  1  0  0  0  0
 17  8  1  0  0  0  0
 18  8  1  0  0  0  0
M  END
