1
q = -1.0

  7  6  0  0  0  0  0  0  0  0999 V2000
    2.8869   -1.3581   -0.4665 O   0  5  0  0  0  0  0  0  0  0  0  0
    2.9671   -1.3442    1.8067 O   0  0  0  0  0  0  0  0  0  0  0  0
    5.5931   -1.7343   -0.3803 F   0  0  0  0  0  0  0  0  0  0  0  0
    5.1313    0.3548    0.1920 F   0  0  0  0  0  0  0  0  0  0  0  0
    3.4785   -1.2725    0.6875 C   0  0  0  0  0  0  0  0  0  0  0  0
    4.9870   -0.9684    0.5658 C   0  0  0  0  0  0  0  0  0  0  0  0
    5.4964   -1.1100    1.5447 H   0  0  0  0  0  0  0  0  0  0  0  0
  1  5  1  0  0  0  0
  3  6  1  0  0  0  0
  4  6  1  0  0  0  0
  5  2  2  0  0  0  0
  6  5  1  0  0  0  0
  6  7  1  0  0  0  0
M  CHG  1   1  -1
M  END
