2
q = -1.0, confidence = 0.268

 27 28  0  0  0  0  0  0  0  0999 V2000
  -13.4500    4.0523   -1.0152 Cl  0  0  0  0  0  0  0  0  0  0  0  0
   -1.9531   -1.6427   -0.1044 O   0  5  0  0  0  0  0  0  0  0  0  0
   -7.8038    0.7957   -0.0053 O   0  0  0  0  0  0  0  0  0  0  0  0
   -2.7793   -2.7559    1.6991 O   0  0  0  0  0  0  0  0  0  0  0  0
   -2.8842   -1.9342    0.7461 C   0  0  0  0  0  0  0  0  0  0  0  0
   -4.1869   -1.2203    0.5578 C   0  0  0  0  0  0  0  0  0  0  0  0
   -6.6544    0.1059    0.2326 C   0  0  0  0  0  0  0  0  0  0  0  0
  -10.9926    3.0973   -1.1183 N   0  0  0  0  0  0  0  0  0  0  0  0
   -5.5795    0.3807   -0.6424 C   0  0  0  0  0  0  0  0  0  0  0  0
   -5.7325    1.1184   -1.4432 H   0  0  0  0  0  0  0  0  0  0  0  0
  -10.0737    1.4366    0.3852 C   0  0  0  0  0  0  0  0  0  0  0  0
   -6.4925   -0.8348    1.2724 C   0  0  0  0  0  0  0  0  0  0  0  0
   -7.3134   -1.0650    1.9642 H   0  0  0  0  0  0  0  0  0  0  0  0
  -12.1386    3.0281   -0.4613 C   0  0  0  0  0  0  0  0  0  0  0  0
   -5.2622   -1.4869    1.4243 C   0  0  0  0  0  0  0  0  0  0  0  0
   -5.1128   -2.2236    2.2267 H   0  0  0  0  0  0  0  0  0  0  0  0
   -4.3619   -0.2770   -0.4786 C   0  0  0  0  0  0  0  0  0  0  0  0
   -3.5174   -0.0723   -1.1515 H   0  0  0  0  0  0  0  0  0  0  0  0
  -12.3668    2.1878    0.6473 C   0  0  0  0  0  0  0  0  0  0  0  0
  -13.3426    2.1757    1.1511 H   0  0  0  0  0  0  0  0  0  0  0  0
   -8.9225    0.5713    0.8317 C   0  0  0  0  0  0  0  0  0  0  0  0
   -8.6662    0.8010    1.8941 H   0  0  0  0  0  0  0  0  0  0  0  0
   -9.2228   -0.5038    0.8008 H   0  0  0  0  0  0  0  0  0  0  0  0
   -9.9778    2.3180   -0.7057 C   0  0  0  0  0  0  0  0  0  0  0  0
   -9.0334    2.3922   -1.2674 H   0  0  0  0  0  0  0  0  0  0  0  0
  -11.3060    1.3828    1.0670 C   0  0  0  0  0  0  0  0  0  0  0  0
  -11.4379    0.7094    1.9296 H   0  0  0  0  0  0  0  0  0  0  0  0
  1 14  1  0  0  0  0
  2  5  1  0  0  0  0
  3  7  1  0  0  0  0
  3 21  1  0  0  0  0
  5  4  2  0  0  0  0
  6  5  1  0  0  0  0
  6 15  1  0  0  0  0
  7 12  1  0  0  0  0
  8 24  2  0  0  0  0
  8 14  1  0  0  0  0
  9 17  1  0  0  0  0
  9  7  2  0  0  0  0
 10  9  1  0  0  0  0
 11 21  1  0  0  0  0
 11 26  2  0  0  0  0
 12 15  2  0  0  0  0
 12 13  1  0  0  0  0
 14 19  2  0  0  0  0
 15 16  1  0  0  0  0
 17  6  2  0  0  0  0
 18 17  1  0  0  0  0
 19 26  1  0  0  0  0
 19 20  1  0  0  0  0
 21 22  1  0  0  0  0
 23 21  1  0  0  0  0
 24 11  1  0  0  0  0
 25 24  1  0  0  0  0
 26 27  1  0  0  0  0
M  CHG  1   2  -1
M  END
