3
q = -1.0, confidence = 0.09

 24 25  0  0  0  0  0  0  0  0999 V2000
    5.1026   -0.2258    0.0846 O   0  0  0  0  0  0  0  0  0  0  0  0
    2.8892   -1.7434    0.1248 O   0  5  0  0  0  0  0  0  0  0  0  0
    1.5607    0.0821   -0.0259 O   0  0  0  0  0  0  0  0  0  0  0  0
   10.0700    2.4082    0.0259 C   0  0  0  0  0  0  0  0  0  0  0  0
   10.9844    1.7982    0.0999 H   0  0  0  0  0  0  0  0  0  0  0  0
   10.1526    3.7902   -0.0780 C   0  0  0  0  0  0  0  0  0  0  0  0
   11.1343    4.2873   -0.0873 H   0  0  0  0  0  0  0  0  0  0  0  0
    8.9664    4.5654   -0.1727 C   0  0  0  0  0  0  0  0  0  0  0  0
    9.0366    5.6609   -0.2550 H   0  0  0  0  0  0  0  0  0  0  0  0
    7.7215    3.9515   -0.1623 C   0  0  0  0  0  0  0  0  0  0  0  0
    6.8033    4.5553   -0.2359 H   0  0  0  0  0  0  0  0  0  0  0  0
    7.6019    2.5340   -0.0566 C   0  0  0  0  0  0  0  0  0  0  0  0
    8.8083    1.7489    0.0395 C   0  0  0  0  0  0  0  0  0  0  0  0
    8.6854    0.3295    0.1451 C   0  0  0  0  0  0  0  0  0  0  0  0
    9.6013   -0.2778    0.2183 H   0  0  0  0  0  0  0  0  0  0  0  0
    7.4486   -0.2831    0.1562 C   0  0  0  0  0  0  0  0  0  0  0  0
    7.3407   -1.3745    0.2364 H   0  0  0  0  0  0  0  0  0  0  0  0
    6.2522    0.4949    0.0616 C   0  0  0  0  0  0  0  0  0  0  0  0
    6.3323    1.8830   -0.0436 C   0  0  0  0  0  0  0  0  0  0  0  0
    5.4287    2.5029   -0.1180 H   0  0  0  0  0  0  0  0  0  0  0  0
    3.8745    0.4682   -0.0069 C   0  0  0  0  0  0  0  0  0  0  0  0
    3.8054    1.0531   -0.9533 H   0  0  0  0  0  0  0  0  0  0  0  0
    3.7534    1.1971    0.8275 H   0  0  0  0  0  0  0  0  0  0  0  0
    2.7020   -0.5161    0.0384 C   0  0  0  0  0  0  0  0  0  0  0  0
  3 24  2  0  0  0  0
  4 13  1  0  0  0  0
  4  5  1  0  0  0  0
  6  4  2  0  0  0  0
  7  6  1  0  0  0  0
  8 10  2  0  0  0  0
  8  6  1  0  0  0  0
  9  8  1  0  0  0  0
 10 12  1  0  0  0  0
 11 10  1  0  0  0  0
 12 19  2  0  0  0  0
 12 13  1  0  0  0  0
 13 14  2  0  0  0  0
 14 16  1  0  0  0  0
 14 15  1  0  0  0  0
 16 17  1  0  0  0  0
 18  1  1  0  0  0  0
 18 16  2  0  0  0  0
 19 18  1  0  0  0  0
 20 19  1  0  0  0  0
 21 24  1  0  0  0  0
 21  1  1  0  0  0  0
 21 23  1  0  0  0  0
 22 21  1  0  0  0  0
 24  2  1  0  0  0  0
M  CHG  1   2  -1
M  END
