3
q = -1.0

 22 22  0  0  1  0  0  0  0  0999 V2000
    7.5256    2.4586   -0.6461 O   0  5  0  0  0  0  0  0  0  0  0  0
    8.9738    1.0651    0.4493 O   0  0  0  0  0  0  0  0  0  0  0  0
    1.9815   -0.1786   -0.4001 O   0  5  0  0  0  0  0  0  0  0  0  0
    2.7827    1.5871    0.7770 O   0  0  0  0  0  0  0  0  0  0  0  0
    5.8480   -1.8495   -0.0773 N   0  0  0  0  0  0  0  0  0  0  0  0
    6.0214   -2.8605   -0.1302 H   0  0  0  0  0  0  0  0  0  0  0  0
    7.8865    1.4061   -0.0755 C   0  0  0  0  0  0  0  0  0  0  0  0
    6.7391    0.3529   -0.0106 C   0  0  0  0  0  0  0  0  0  0  0  0
    6.9521   -1.0388   -0.0493 C   0  0  2  0  0  3  0  0  0  0  0  0
    8.2993   -1.6737   -0.0629 C   0  0  0  0  0  0  0  0  0  0  0  0
    8.7040   -1.7114   -1.0971 H   0  0  0  0  0  0  0  0  0  0  0  0
    8.9714   -0.9782    0.4925 H   0  0  0  0  0  0  0  0  0  0  0  0
    8.2885   -2.7018    0.3526 H   0  0  0  0  0  0  0  0  0  0  0  0
    4.5455   -1.4533   -0.0241 C   0  0  0  0  0  0  0  0  0  0  0  0
    3.5025   -2.5296   -0.0346 C   0  0  0  0  0  0  0  0  0  0  0  0
    2.7824   -2.3839    0.7939 H   0  0  0  0  0  0  0  0  0  0  0  0
    2.9040   -2.4861   -0.9649 H   0  0  0  0  0  0  0  0  0  0  0  0
    3.9610   -3.5341    0.0591 H   0  0  0  0  0  0  0  0  0  0  0  0
    4.3112   -0.0671    0.0634 C   0  0  0  0  0  0  0  0  0  0  0  0
    2.9198    0.4937    0.1621 C   0  0  0  0  0  0  0  0  0  0  0  0
    5.4156    0.8078    0.0582 C   0  0  0  0  0  0  0  0  0  0  0  0
    5.2599    1.8977    0.0699 H   0  0  0  0  0  0  0  0  0  0  0  0
  1  7  1  0  0  0  0
  3 20  1  0  0  0  0
  5  9  1  0  0  0  0
  5 14  1  0  0  0  0
  6  5  1  0  0  0  0
  7  8  1  0  0  0  0
  7  2  2  0  0  0  0
  8 21  2  0  0  0  0
  9 10  1  6  0  0  0
  9  8  1  0  0  0  0
 10 13  1  0  0  0  0
 10 12  1  0  0  0  0
 11 10  1  0  0  0  0
 14 19  2  0  0  0  0
 15 14  1  0  0  0  0
 15 18  1  0  0  0  0
 15 16  1  0  0  0  0
 17 15  1  0  0  0  0
 19 20  1  0  0  0  0
 20  4  2  0  0  0  0
 21 19  1  0  0  0  0
 21 22  1  0  0  0  0
M  CHG  2   1  -1   3  -1
M  END
