2
q = -1.0, confidence = 0.004

 18 18  0  0  0  0  0  0  0  0999 V2000
    4.1699    1.1281   -0.1913 N   0  0  0  0  0  0  0  0  0  0  0  0
    0.9273   -0.5120   -0.1502 O   0  0  0  0  0  1  0  0  0  0  0  0
    7.7619    1.6478    0.2091 O   0  0  0  0  0  0  0  0  0  0  0  0
    7.6904    1.3551    1.1368 H   0  0  0  0  0  0  0  0  0  0  0  0
    1.8097    0.5688   -0.1981 C   0  0  0  0  0  0  0  0  0  0  0  0
    1.6400    1.2587    0.6667 H   0  0  0  0  0  0  0  0  0  0  0  0
    1.6491    1.1832   -1.1198 H   0  0  0  0  0  0  0  0  0  0  0  0
    3.2631    0.1356   -0.1738 C   0  0  0  0  0  0  0  0  0  0  0  0
    3.6216   -1.2246   -0.1259 C   0  0  0  0  0  0  0  0  0  0  0  0
    2.8279   -1.9831   -0.1104 H   0  0  0  0  0  0  0  0  0  0  0  0
    4.9834   -1.5522   -0.1034 C   0  0  0  0  0  0  0  0  0  0  0  0
    5.3034   -2.6057   -0.0699 H   0  0  0  0  0  0  0  0  0  0  0  0
    5.9343   -0.5227   -0.1289 C   0  0  0  0  0  0  0  0  0  0  0  0
    7.0157   -0.7210   -0.1231 H   0  0  0  0  0  0  0  0  0  0  0  0
    5.4748    0.8075   -0.1725 C   0  0  0  0  0  0  0  0  0  0  0  0
    6.4529    1.9696   -0.2181 C   0  0  0  0  0  0  0  0  0  0  0  0
    6.5458    2.3147   -1.2716 H   0  0  0  0  0  0  0  0  0  0  0  0
    5.9965    2.8199    0.3436 H   0  0  0  0  0  0  0  0  0  0  0  0
  1  8  2  0  0  0  0
  1 15  1  0  0  0  0
  3  4  1  0  0  0  0
  5  8  1  0  0  0  0
  5  2  1  0  0  0  0
  5  6  1  0  0  0  0
  7  5  1  0  0  0  0
  8  9  1  0  0  0  0
  9 10  1  0  0  0  0
  9 11  2  0  0  0  0
 11 12  1  0  0  0  0
 13 14  1  0  0  0  0
 13 11  1  0  0  0  0
 15 13  2  0  0  0  0
 16 15  1  0  0  0  0
 16  3  1  0  0  0  0
 16 18  1  0  0  0  0
 17 16  1  0  0  0  0
M  END
