1
q = -1.0

 19 19  0  0  1  0  0  0  0  0999 V2000
    1.1862    1.6390    0.8521 O   0  5  0  0  0  0  0  0  0  0  0  0
    3.3976    1.9009    1.1995 O   0  0  0  0  0  0  0  0  0  0  0  0
    1.5105   -0.5496   -0.5873 N   0  0  0  0  0  0  0  0  0  0  0  0
    1.7382   -0.0552   -1.4648 H   0  0  0  0  0  0  0  0  0  0  0  0
    2.4391    1.2276    0.8482 C   0  0  0  0  0  0  0  0  0  0  0  0
    2.6035   -0.2281    0.3824 C   0  0  2  0  0  0  0  0  0  0  0  0
    2.3743   -0.8474    1.2776 H   0  0  0  0  0  0  0  0  0  0  0  0
    3.9690   -0.5984   -0.1792 C   0  0  0  0  0  0  0  0  0  0  0  0
    4.1802    0.0188   -1.0823 H   0  0  0  0  0  0  0  0  0  0  0  0
    4.7365   -0.3162    0.5677 H   0  0  0  0  0  0  0  0  0  0  0  0
    4.0052   -2.0935   -0.5229 C   0  0  0  0  0  0  0  0  0  0  0  0
    3.9307   -2.6813    0.4182 H   0  0  0  0  0  0  0  0  0  0  0  0
    4.9716   -2.3700   -0.9923 H   0  0  0  0  0  0  0  0  0  0  0  0
    2.8384   -2.4744   -1.4472 C   0  0  0  0  0  0  0  0  0  0  0  0
    2.7993   -3.5716   -1.6096 H   0  0  0  0  0  0  0  0  0  0  0  0
    2.9967   -2.0180   -2.4513 H   0  0  0  0  0  0  0  0  0  0  0  0
    1.4877   -2.0048   -0.8952 C   0  0  0  0  0  0  0  0  0  0  0  0
    1.2251   -2.5113    0.0558 H   0  0  0  0  0  0  0  0  0  0  0  0
    0.6643   -2.1923   -1.6123 H   0  0  0  0  0  0  0  0  0  0  0  0
  3  6  1  0  0  0  0
  4  3  1  0  0  0  0
  5  1  1  0  0  0  0
  5  2  2  0  0  0  0
  6  5  1  0  0  0  0
  6  7  1  1  0  0  0
  8  6  1  0  0  0  0
  8 10  1  0  0  0  0
  9  8  1  0  0  0  0
 11  8  1  0  0  0  0
 11 12  1  0  0  0  0
 13 11  1  0  0  0  0
 14 17  1  0  0  0  0
 14 11  1  0  0  0  0
 15 14  1  0  0  0  0
 16 14  1  0  0  0  0
 17  3  1  0  0  0  0
 17 18  1  0  0  0  0
 19 17  1  0  0  0  0
M  CHG  1   1  -1
M  END
