1
q = -1.0, confidence = 0.018

 30 31  0  0  0  0  0  0  0  0999 V2000
    0.0024   -0.1222   -1.7634 O   0  0  0  0  0  1  0  0  0  0  0  0
   -0.8561   -0.5461    0.7499 N   0  0  0  0  0  0  0  0  0  0  0  0
   -1.2877   -0.5934   -1.6201 C   0  0  0  0  0  0  0  0  0  0  0  0
   -1.8973   -0.1293   -0.2566 C   0  0  0  0  0  0  0  0  0  0  0  0
   -2.0171    1.3931   -0.1391 C   0  0  0  0  0  0  0  0  0  0  0  0
   -2.4780    1.9546    1.0714 C   0  0  0  0  0  0  0  0  0  0  0  0
   -2.5828    3.3436    1.2356 C   0  0  0  0  0  0  0  0  0  0  0  0
   -2.2285    4.2012    0.1822 C   0  0  0  0  0  0  0  0  0  0  0  0
   -1.7714    3.6548   -1.0271 C   0  0  0  0  0  0  0  0  0  0  0  0
   -1.6618    2.2636   -1.1867 C   0  0  0  0  0  0  0  0  0  0  0  0
   -3.2215   -0.8573   -0.0278 C   0  0  0  0  0  0  0  0  0  0  0  0
   -3.2187   -2.2510    0.2103 C   0  0  0  0  0  0  0  0  0  0  0  0
   -4.4201   -2.9599    0.3504 C   0  0  0  0  0  0  0  0  0  0  0  0
   -5.6514   -2.2952    0.2391 C   0  0  0  0  0  0  0  0  0  0  0  0
   -5.6678   -0.9176   -0.0254 C   0  0  0  0  0  0  0  0  0  0  0  0
   -4.4654   -0.2067   -0.1601 C   0  0  0  0  0  0  0  0  0  0  0  0
   -0.9096   -1.5653    0.9267 H   0  0  0  0  0  0  0  0  0  0  0  0
   -0.9979   -0.0544    1.6416 H   0  0  0  0  0  0  0  0  0  0  0  0
   -1.3477   -1.7095   -1.6345 H   0  0  0  0  0  0  0  0  0  0  0  0
   -1.9408   -0.2199   -2.4445 H   0  0  0  0  0  0  0  0  0  0  0  0
   -2.7902    1.2917    1.8955 H   0  0  0  0  0  0  0  0  0  0  0  0
   -2.9514    3.7569    2.1869 H   0  0  0  0  0  0  0  0  0  0  0  0
   -2.3106    5.2920    0.3035 H   0  0  0  0  0  0  0  0  0  0  0  0
   -1.4884    4.3185   -1.8586 H   0  0  0  0  0  0  0  0  0  0  0  0
   -1.2567    1.8483   -2.1181 H   0  0  0  0  0  0  0  0  0  0  0  0
   -2.2654   -2.8037    0.2641 H   0  0  0  0  0  0  0  0  0  0  0  0
   -4.3910   -4.0439    0.5393 H   0  0  0  0  0  0  0  0  0  0  0  0
   -6.5947   -2.8513    0.3492 H   0  0  0  0  0  0  0  0  0  0  0  0
   -6.6263   -0.3865   -0.1299 H   0  0  0  0  0  0  0  0  0  0  0  0
   -4.4935    0.8713   -0.3734 H   0  0  0  0  0  0  0  0  0  0  0  0
  1  3  1  0  0  0  0
  2 17  1  0  0  0  0
  2 18  1  0  0  0  0
  3  4  1  0  0  0  0
  4  5  1  0  0  0  0
  4 11  1  0  0  0  0
  4  2  1  0  0  0  0
  5  6  1  0  0  0  0
  6  7  2  0  0  0  0
  6 21  1  0  0  0  0
  7 22  1  0  0  0  0
  8 23  1  0  0  0  0
  8  7  1  0  0  0  0
  9  8  2  0  0  0  0
 10  9  1  0  0  0  0
 10  5  2  0  0  0  0
 11 12  1  0  0  0  0
 12 26  1  0  0  0  0
 12 13  2  0  0  0  0
 13 27  1  0  0  0  0
 14 28  1  0  0  0  0
 14 13  1  0  0  0  0
 15 14  2  0  0  0  0
 16 11  2  0  0  0  0
 16 15  1  0  0  0  0
 19  3  1  0  0  0  0
 20  3  1  0  0  0  0
 24  9  1  0  0  0  0
 25 10  1  0  0  0  0
 29 15  1  0  0  0  0
 30 16  1  0  0  0  0
M  END
