1
q = -1.0, confidence = 0.0

 23 23  0  0  0  0  0  0  0  0999 V2000
    1.7165   -1.0586   -0.6835 O   0  5  0  0  0  0  0  0  0  0  0  0
    1.3816   -0.0006    1.2583 O   0  0  0  0  0  0  0  0  0  0  0  0
    2.0524   -0.1870    0.2059 C   0  0  0  0  0  0  0  0  0  0  0  0
    3.2896    0.6237   -0.0468 C   0  0  0  0  0  0  0  0  0  0  0  0
    4.0610    0.4309   -1.2077 C   0  0  0  0  0  0  0  0  0  0  0  0
    3.7353   -0.3310   -1.9305 H   0  0  0  0  0  0  0  0  0  0  0  0
    5.2136    1.1970   -1.4245 C   0  0  0  0  0  0  0  0  0  0  0  0
    5.8124    1.0395   -2.3365 H   0  0  0  0  0  0  0  0  0  0  0  0
    5.6275    2.1729   -0.4955 C   0  0  0  0  0  0  0  0  0  0  0  0
    4.8459    2.3582    0.6660 C   0  0  0  0  0  0  0  0  0  0  0  0
    5.1439    3.1147    1.4095 H   0  0  0  0  0  0  0  0  0  0  0  0
    3.6946    1.5959    0.8887 C   0  0  0  0  0  0  0  0  0  0  0  0
    3.0777    1.7325    1.7890 H   0  0  0  0  0  0  0  0  0  0  0  0
    6.8802    3.0013   -0.7418 C   0  0  0  0  0  0  0  0  0  0  0  0
    7.3042    2.6610   -1.7120 H   0  0  0  0  0  0  0  0  0  0  0  0
    6.5526    4.4982   -0.8773 C   0  0  0  0  0  0  0  0  0  0  0  0
    6.1324    4.9037    0.0665 H   0  0  0  0  0  0  0  0  0  0  0  0
    5.8079    4.6766   -1.6784 H   0  0  0  0  0  0  0  0  0  0  0  0
    7.4650    5.0829   -1.1155 H   0  0  0  0  0  0  0  0  0  0  0  0
    7.9447    2.7573    0.3415 C   0  0  0  0  0  0  0  0  0  0  0  0
    8.8734    3.3217    0.1177 H   0  0  0  0  0  0  0  0  0  0  0  0
    8.2029    1.6822    0.4177 H   0  0  0  0  0  0  0  0  0  0  0  0
    7.5852    3.0871    1.3383 H   0  0  0  0  0  0  0  0  0  0  0  0
  1  3  1  0  0  0  0
  3  2  2  0  0  0  0
  4  3  1  0  0  0  0
  4 12  1  0  0  0  0
  5  4  2  0  0  0  0
  6  5  1  0  0  0  0
  7  5  1  0  0  0  0
  7  9  2  0  0  0  0
  8  7  1  0  0  0  0
  9 10  1  0  0  0  0
 10 12  2  0  0  0  0
 10 11  1  0  0  0  0
 12 13  1  0  0  0  0
 14  9  1  0  0  0  0
 14 20  1  0  0  0  0
 15 14  1  0  0  0  0
 16 14  1  0  0  0  0
 16 17  1  0  0  0  0
 18 16  1  0  0  0  0
 19 16  1  0  0  0  0
 20 22  1  0  0  0  0
 20 23  1  0  0  0  0
 21 20  1  0  0  0  0
M  CHG  1   1  -1
M  END
