1
q = -1.0

 33 33  0  0  0  0  0  0  0  0999 V2000
    0.1265    0.1473   -0.2726 O   0  0  0  0  0  1  0  0  0  0  0  0
   -5.3388   -0.4148    0.4262 O   0  0  0  0  0  0  0  0  0  0  0  0
   -1.1514   -0.0775    0.2342 N   0  0  0  0  0  0  0  0  0  0  0  0
   -1.8893    1.2289    0.2284 C   0  0  0  0  0  0  0  0  0  0  0  0
   -3.3317    0.9724    0.7051 C   0  0  0  0  0  0  0  0  0  0  0  0
   -3.8829    1.9336    0.6472 H   0  0  0  0  0  0  0  0  0  0  0  0
   -3.3209    0.6630    1.7715 H   0  0  0  0  0  0  0  0  0  0  0  0
   -4.0404   -0.1302   -0.0811 C   0  0  0  0  0  0  0  0  0  0  0  0
   -4.1293    0.1652   -1.1560 H   0  0  0  0  0  0  0  0  0  0  0  0
   -3.2189   -1.4019    0.0436 C   0  0  0  0  0  0  0  0  0  0  0  0
   -3.2251   -1.6942    1.1150 H   0  0  0  0  0  0  0  0  0  0  0  0
   -3.7073   -2.2237   -0.5176 H   0  0  0  0  0  0  0  0  0  0  0  0
   -1.7606   -1.2756   -0.4399 C   0  0  0  0  0  0  0  0  0  0  0  0
   -1.2000    2.1283    1.2717 C   0  0  0  0  0  0  0  0  0  0  0  0
   -1.1838    1.6276    2.2597 H   0  0  0  0  0  0  0  0  0  0  0  0
   -1.7487    3.0856    1.3729 H   0  0  0  0  0  0  0  0  0  0  0  0
   -0.1581    2.3536    0.9791 H   0  0  0  0  0  0  0  0  0  0  0  0
   -1.8811    1.9497   -1.1395 C   0  0  0  0  0  0  0  0  0  0  0  0
   -0.8733    1.8920   -1.5898 H   0  0  0  0  0  0  0  0  0  0  0  0
   -2.1487    3.0174   -1.0099 H   0  0  0  0  0  0  0  0  0  0  0  0
   -2.5994    1.5140   -1.8579 H   0  0  0  0  0  0  0  0  0  0  0  0
   -1.0117   -2.5321    0.0351 C   0  0  0  0  0  0  0  0  0  0  0  0
   -1.5281   -3.4322   -0.3541 H   0  0  0  0  0  0  0  0  0  0  0  0
   -1.0100   -2.5915    1.1410 H   0  0  0  0  0  0  0  0  0  0  0  0
    0.0275   -2.5474   -0.3422 H   0  0  0  0  0  0  0  0  0  0  0  0
   -1.6651   -1.2200   -1.9800 C   0  0  0  0  0  0  0  0  0  0  0  0
   -2.2733   -0.4121   -2.4259 H   0  0  0  0  0  0  0  0  0  0  0  0
   -2.0170   -2.1799   -2.4073 H   0  0  0  0  0  0  0  0  0  0  0  0
   -0.6093   -1.0802   -2.2818 H   0  0  0  0  0  0  0  0  0  0  0  0
   -6.3176    0.5371    0.0874 C   0  0  0  0  0  0  0  0  0  0  0  0
   -6.1302    1.5418    0.5374 H   0  0  0  0  0  0  0  0  0  0  0  0
   -7.2883    0.1668    0.4716 H   0  0  0  0  0  0  0  0  0  0  0  0
   -6.4045    0.6739   -1.0191 H   0  0  0  0  0  0  0  0  0  0  0  0
  1  3  1  0  0  0  0
  4  3  1  0  0  0  0
  4  5  1  0  0  0  0
  4 14  1  0  0  0  0
  5  7  1  0  0  0  0
  6  5  1  0  0  0  0
  8 10  1  0  0  0  0
  8  2  1  0  0  0  0
  8  5  1  0  0  0  0
  9  8  1  0  0  0  0
 10 11  1  0  0  0  0
 12 10  1  0  0  0  0
 13 22  1  0  0  0  0
 13 10  1  0  0  0  0
 13  3  1  0  0  0  0
 14 16  1  0  0  0  0
 14 15  1  0  0  0  0
 17 14  1  0  0  0  0
 18 20  1  0  0  0  0
 18  4  1  0  0  0  0
 19 18  1  0  0  0  0
 21 18  1  0  0  0  0
 22 24  1  0  0  0  0
 23 22  1  0  0  0  0
 25 22  1  0  0  0  0
 26 13  1  0  0  0  0
 27 26  1  0  0  0  0
 28 26  1  0  0  0  0
 29 26  1  0  0  0  0
 30  2  1  0  0  0  0
 30 32  1  0  0  0  0
 30 31  1  0  0  0  0
 33 30  1  0  0  0  0
M  END
