6
q = -1.0

 46 47  0  0  1  0  0  0  0  0999 V2000
   -0.4815    0.3841   -0.0005 P   0  0  0  0  0  0  0  0  0  0  0  0
    3.2685    1.2062   -1.4648 O   0  0  0  0  0  0  0  0  0  0  0  0
    4.3801   -0.2008   -0.0723 O   0  0  0  0  0  0  0  0  0  0  0  0
   -0.9453   -1.0396   -2.5762 O   0  0  0  0  0  0  0  0  0  0  0  0
    1.2028   -1.5902   -3.0135 O   0  0  0  0  0  0  0  0  0  0  0  0
    0.6913   -2.3287    0.3030 O   0  5  0  0  0  0  0  0  0  0  0  0
    0.2332    1.8085    0.9467 C   0  0  0  0  0  0  0  0  0  0  0  0
   -0.5100    2.9949    1.1273 C   0  0  0  0  0  0  0  0  0  0  0  0
    0.0138    4.0590    1.8792 C   0  0  0  0  0  0  0  0  0  0  0  0
    1.2889    3.9599    2.4542 C   0  0  0  0  0  0  0  0  0  0  0  0
    2.0326    2.7806    2.2866 C   0  0  0  0  0  0  0  0  0  0  0  0
    1.5064    1.7080    1.5528 C   0  0  0  0  0  0  0  0  0  0  0  0
   -1.8655    1.2011   -0.8921 C   0  0  0  0  0  0  0  0  0  0  0  0
   -3.1910    0.9594   -0.4883 C   0  0  0  0  0  0  0  0  0  0  0  0
   -4.2567    1.6095   -1.1299 C   0  0  0  0  0  0  0  0  0  0  0  0
   -4.0045    2.5033   -2.1810 C   0  0  0  0  0  0  0  0  0  0  0  0
   -2.6816    2.7508   -2.5859 C   0  0  0  0  0  0  0  0  0  0  0  0
   -1.6163    2.1076   -1.9428 C   0  0  0  0  0  0  0  0  0  0  0  0
    1.8692   -1.7963    0.1318 C   0  0  0  0  0  0  0  0  0  0  0  0
    2.0522   -0.5970   -0.5724 C   0  0  0  0  0  0  0  0  0  0  0  0
    0.8496   -0.0192   -1.2652 C   0  0  1  0  0  0  0  0  0  0  0  0
    3.3363    0.0873   -0.6550 C   0  0  0  0  0  0  0  0  0  0  0  0
    0.2439   -0.9348   -2.3304 C   0  0  0  0  0  0  0  0  0  0  0  0
    3.0060   -2.5997    0.7170 C   0  0  0  0  0  0  0  0  0  0  0  0
    4.4601    1.9841   -1.5124 C   0  0  0  0  0  0  0  0  0  0  0  0
    0.7242   -2.4785   -4.0307 C   0  0  0  0  0  0  0  0  0  0  0  0
   -1.5052    3.0948    0.6709 H   0  0  0  0  0  0  0  0  0  0  0  0
   -0.5825    4.9751    2.0086 H   0  0  0  0  0  0  0  0  0  0  0  0
    1.7014    4.7977    3.0366 H   0  0  0  0  0  0  0  0  0  0  0  0
    3.0335    2.6867    2.7349 H   0  0  0  0  0  0  0  0  0  0  0  0
    2.0938    0.7862    1.4460 H   0  0  0  0  0  0  0  0  0  0  0  0
   -3.3841    0.2509    0.3303 H   0  0  0  0  0  0  0  0  0  0  0  0
   -5.2905    1.4100   -0.8094 H   0  0  0  0  0  0  0  0  0  0  0  0
   -4.8399    3.0082   -2.6892 H   0  0  0  0  0  0  0  0  0  0  0  0
   -2.4788    3.4500   -3.4114 H   0  0  0  0  0  0  0  0  0  0  0  0
   -0.5836    2.3146   -2.2622 H   0  0  0  0  0  0  0  0  0  0  0  0
    1.1519    0.9225   -1.7664 H   0  0  0  0  0  0  0  0  0  0  0  0
    3.9555   -2.4559    0.1739 H   0  0  0  0  0  0  0  0  0  0  0  0
    2.7025   -3.6642    0.7399 H   0  0  0  0  0  0  0  0  0  0  0  0
    3.1907   -2.2754    1.7643 H   0  0  0  0  0  0  0  0  0  0  0  0
    4.2585    2.8173   -2.2105 H   0  0  0  0  0  0  0  0  0  0  0  0
    5.3210    1.3824   -1.8689 H   0  0  0  0  0  0  0  0  0  0  0  0
    4.7186    2.3825   -0.5086 H   0  0  0  0  0  0  0  0  0  0  0  0
    1.6219   -2.9379   -4.4809 H   0  0  0  0  0  0  0  0  0  0  0  0
    0.1424   -1.9275   -4.7971 H   0  0  0  0  0  0  0  0  0  0  0  0
    0.0684   -3.2560   -3.5901 H   0  0  0  0  0  0  0  0  0  0  0  0
  1  7  1  0  0  0  0
  2 22  1  0  0  0  0
  4 23  2  0  0  0  0
  5 23  1  0  0  0  0
  7  8  2  0  0  0  0
  7 12  1  0  0  0  0
  8  9  1  0  0  0  0
  9 28  1  0  0  0  0
  9 10  2  0  0  0  0
 10 29  1  0  0  0  0
 11 10  1  0  0  0  0
 11 30  1  0  0  0  0
 12 11  2  0  0  0  0
 13 14  1  0  0  0  0
 13  1  1  0  0  0  0
 14 32  1  0  0  0  0
 15 33  1  0  0  0  0
 15 14  2  0  0  0  0
 16 15  1  0  0  0  0
 17 16  2  0  0  0  0
 17 18  1  0  0  0  0
 18 13  2  0  0  0  0
 19  6  1  0  0  0  0
 19 24  1  0  0  0  0
 20 19  2  0  0  0  0
 21 37  1  6  0  0  0
 21 20  1  0  0  0  0
 21  1  1  0  0  0  0
 22 20  1  0  0  0  0
 22  3  2  0  0  0  0
 23 21  1  0  0  0  0
 24 39  1  0  0  0  0
 24 40  1  0  0  0  0
 25  2  1  0  0  0  0
 25 43  1  0  0  0  0
 26 46  1  0  0  0  0
 26  5  1  0  0  0  0
 27  8  1  0  0  0  0
 31 12  1  0  0  0  0
 34 16  1  0  0  0  0
 35 17  1  0  0  0  0
 36 18  1  0  0  0  0
 38 24  1  0  0  0  0
 41 25  1  0  0  0  0
 42 25  1  0  0  0  0
 44 26  1  0  0  0  0
 45 26  1  0  0  0  0
M  CHG  1   6  -1
M  END
