5
q = -1.0

 29 30  0  0  0  0  0  0  0  0999 V2000
    5.9486   -2.2696   -0.2346 F   0  0  0  0  0  0  0  0  0  0  0  0
   -2.4280    2.2520    0.4786 O   0  5  0  0  0  0  0  0  0  0  0  0
    4.3297   -2.3669    1.2247 F   0  0  0  0  0  0  0  0  0  0  0  0
    3.8836   -2.5174   -0.9031 F   0  0  0  0  0  0  0  0  0  0  0  0
   -0.5576    1.1387    0.8831 O   0  0  0  0  0  0  0  0  0  0  0  0
    1.6733    1.9656   -0.1182 N   0  0  0  0  0  0  0  0  0  0  0  0
    4.5115   -0.3786   -0.0669 C   0  0  0  0  0  0  0  0  0  0  0  0
   -0.3600    3.2755   -0.2118 C   0  0  0  0  0  0  0  0  0  0  0  0
   -1.1745    2.1908    0.4164 C   0  0  0  0  0  0  0  0  0  0  0  0
    5.6327    0.4707   -0.0607 C   0  0  0  0  0  0  0  0  0  0  0  0
    6.6468    0.0507   -0.0418 H   0  0  0  0  0  0  0  0  0  0  0  0
    3.2153    0.1476   -0.1082 C   0  0  0  0  0  0  0  0  0  0  0  0
    2.3477   -0.5285   -0.1370 H   0  0  0  0  0  0  0  0  0  0  0  0
    5.4198    1.8571   -0.0741 C   0  0  0  0  0  0  0  0  0  0  0  0
    6.2838    2.5384   -0.0488 H   0  0  0  0  0  0  0  0  0  0  0  0
    2.9934    1.5489   -0.1290 C   0  0  0  0  0  0  0  0  0  0  0  0
    4.6792   -1.8754   -0.0018 C   0  0  0  0  0  0  0  0  0  0  0  0
    4.1289    2.3998   -0.1002 C   0  0  0  0  0  0  0  0  0  0  0  0
    4.0006    3.4880   -0.0540 H   0  0  0  0  0  0  0  0  0  0  0  0
   -1.0316    4.4521   -0.5975 C   0  0  0  0  0  0  0  0  0  0  0  0
   -2.1061    4.5058   -0.3692 H   0  0  0  0  0  0  0  0  0  0  0  0
    1.0470    3.1414   -0.4869 C   0  0  0  0  0  0  0  0  0  0  0  0
   -0.3702    5.4996   -1.2438 C   0  0  0  0  0  0  0  0  0  0  0  0
   -0.9111    6.4147   -1.5248 H   0  0  0  0  0  0  0  0  0  0  0  0
    1.6927    4.1957   -1.1834 C   0  0  0  0  0  0  0  0  0  0  0  0
    2.7449    4.0921   -1.4738 H   0  0  0  0  0  0  0  0  0  0  0  0
    0.9949    5.3512   -1.5463 C   0  0  0  0  0  0  0  0  0  0  0  0
    1.5303    6.1480   -2.0858 H   0  0  0  0  0  0  0  0  0  0  0  0
    0.9789    1.2972    0.2845 H   0  0  0  0  0  0  0  0  0  0  0  0
  1 17  1  0  0  0  0
  4 17  1  0  0  0  0
  6 29  1  0  0  0  0
  7 10  1  0  0  0  0
  7 17  1  0  0  0  0
  8  9  1  0  0  0  0
  9  2  1  0  0  0  0
  9  5  2  0  0  0  0
 10 11  1  0  0  0  0
 12  7  2  0  0  0  0
 13 12  1  0  0  0  0
 14 10  2  0  0  0  0
 14 15  1  0  0  0  0
 16  6  1  0  0  0  0
 16 12  1  0  0  0  0
 16 18  2  0  0  0  0
 17  3  1  0  0  0  0
 18 14  1  0  0  0  0
 18 19  1  0  0  0  0
 20 21  1  0  0  0  0
 20  8  2  0  0  0  0
 22  8  1  0  0  0  0
 22  6  1  0  0  0  0
 23 20  1  0  0  0  0
 24 23  1  0  0  0  0
 25 22  2  0  0  0  0
 26 25  1  0  0  0  0
 27 23  2  0  0  0  0
 27 25  1  0  0  0  0
 28 27  1  0  0  0  0
M  CHG  1   2  -1
M  END
