1
q = -1.0

 28 29  0  0  1  0  0  0  0  0999 V2000
   -1.4330    0.1511   -0.0901 O   0  0  0  0  0  1  0  0  0  0  0  0
   -1.9918   -1.1304   -0.1736 C   0  0  1  0  0  0  0  0  0  0  0  0
   -1.1893   -1.8609    0.0676 H   0  0  0  0  0  0  0  0  0  0  0  0
   -3.1811   -1.3215    0.8194 C   0  0  1  0  0  0  0  0  0  0  0  0
   -4.1372   -0.1269    0.5787 C   0  0  0  0  0  0  0  0  0  0  0  0
   -3.5710    0.8236    0.6199 H   0  0  0  0  0  0  0  0  0  0  0  0
   -4.9043   -0.0811    1.3771 H   0  0  0  0  0  0  0  0  0  0  0  0
   -4.7613   -0.4213   -0.8167 C   0  0  0  0  0  0  0  0  0  0  0  0
   -5.8631   -0.5271   -0.7610 H   0  0  0  0  0  0  0  0  0  0  0  0
   -4.5547    0.3790   -1.5563 H   0  0  0  0  0  0  0  0  0  0  0  0
   -4.0832   -1.7485   -1.2303 C   0  0  1  0  0  0  0  0  0  0  0  0
   -4.6211   -2.3021   -2.0265 H   0  0  0  0  0  0  0  0  0  0  0  0
   -2.6164   -1.4206   -1.5709 C   0  0  0  0  0  0  0  0  0  0  0  0
   -2.0958   -2.2586   -2.0741 H   0  0  0  0  0  0  0  0  0  0  0  0
   -2.5101   -0.5347   -2.2263 H   0  0  0  0  0  0  0  0  0  0  0  0
   -3.9523   -2.5080    0.1299 C   0  0  0  0  0  0  0  0  0  0  0  0
   -3.1539   -3.8197    0.0444 C   0  0  0  0  0  0  0  0  0  0  0  0
   -3.0170   -4.2565    1.0550 H   0  0  0  0  0  0  0  0  0  0  0  0
   -2.1484   -3.7092   -0.4031 H   0  0  0  0  0  0  0  0  0  0  0  0
   -3.7064   -4.5661   -0.5630 H   0  0  0  0  0  0  0  0  0  0  0  0
   -5.2979   -2.8398    0.7915 C   0  0  0  0  0  0  0  0  0  0  0  0
   -5.1398   -3.2855    1.7951 H   0  0  0  0  0  0  0  0  0  0  0  0
   -5.8496   -3.5867    0.1836 H   0  0  0  0  0  0  0  0  0  0  0  0
   -5.9580   -1.9619    0.9197 H   0  0  0  0  0  0  0  0  0  0  0  0
   -2.7320   -1.4881    2.2618 C   0  0  0  0  0  0  0  0  0  0  0  0
   -2.0641   -2.3668    2.3801 H   0  0  0  0  0  0  0  0  0  0  0  0
   -3.5970   -1.6219    2.9436 H   0  0  0  0  0  0  0  0  0  0  0  0
   -2.1661   -0.5937    2.5939 H   0  0  0  0  0  0  0  0  0  0  0  0
  2  1  1  0  0  0  0
  2  3  1  1  0  0  0
  2  4  1  0  0  0  0
  4 25  1  1  0  0  0
  5  6  1  0  0  0  0
  5  4  1  0  0  0  0
  5  7  1  0  0  0  0
  8  9  1  0  0  0  0
  8  5  1  0  0  0  0
 10  8  1  0  0  0  0
 11 12  1  6  0  0  0
 11  8  1  0  0  0  0
 11 16  1  0  0  0  0
 13 11  1  0  0  0  0
 13  2  1  0  0  0  0
 14 13  1  0  0  0  0
 15 13  1  0  0  0  0
 16 21  1  0  0  0  0
 16  4  1  0  0  0  0
 17 16  1  0  0  0  0
 17 18  1  0  0  0  0
 19 17  1  0  0  0  0
 20 17  1  0  0  0  0
 21 24  1  0  0  0  0
 21 22  1  0  0  0  0
 23 21  1  0  0  0  0
 25 26  1  0  0  0  0
 25 28  1  0  0  0  0
 25 27  1  0  0  0  0
M  END
