2
q = -1.0

 16 16  0  0  1  0  0  0  0  0999 V2000
    3.1273   -1.9709   -0.3145 S   0  0  0  0  0  0  0  0  0  0  0  0
   -0.7045    1.7323   -0.7282 O   0  5  0  0  0  0  0  0  0  0  0  0
    1.1558    3.0107   -0.6327 O   0  0  0  0  0  0  0  0  0  0  0  0
   -0.1870    0.5536    1.6274 N   0  0  0  0  0  0  0  0  0  0  0  0
    0.4470    2.0941   -0.2368 C   0  0  0  0  0  0  0  0  0  0  0  0
    0.9617    1.2170    0.9635 C   0  0  2  0  0  0  0  0  0  0  0  0
    1.7664   -1.1643    0.3931 C   0  0  0  0  0  0  0  0  0  0  0  0
    1.9552    0.2090    0.4497 C   0  0  0  0  0  0  0  0  0  0  0  0
    3.2219    0.6020   -0.0993 C   0  0  0  0  0  0  0  0  0  0  0  0
    3.9624   -0.4703   -0.5485 C   0  0  0  0  0  0  0  0  0  0  0  0
    0.1321   -0.2100    2.2397 H   0  0  0  0  0  0  0  0  0  0  0  0
   -0.6787    1.2302    2.2266 H   0  0  0  0  0  0  0  0  0  0  0  0
    1.4771    1.9098    1.6628 H   0  0  0  0  0  0  0  0  0  0  0  0
    0.8866   -1.7473    0.6919 H   0  0  0  0  0  0  0  0  0  0  0  0
    3.5343    1.6518   -0.1781 H   0  0  0  0  0  0  0  0  0  0  0  0
    4.9559   -0.4635   -1.0128 H   0  0  0  0  0  0  0  0  0  0  0  0
  1  7  1  0  0  0  0
  2  5  1  0  0  0  0
  3  5  2  0  0  0  0
  4 12  1  0  0  0  0
  4 11  1  0  0  0  0
  5  6  1  0  0  0  0
  6  4  1  0  0  0  0
  6 13  1  1  0  0  0
  7  8  2  0  0  0  0
  7 14  1  0  0  0  0
  8  6  1  0  0  0  0
  9  8  1  0  0  0  0
 10  1  1  0  0  0  0
 10  9  2  0  0  0  0
 15  9  1  0  0  0  0
 16 10  1  0  0  0  0
M  CHG  1   2  -1
M  END
