3
q = -1.0

 58 61  0  0  0  0  0  0  0  0999 V2000
   -2.0281   -0.1374    0.3328 P   0  0  0  0  0  0  0  0  0  0  0  0
    1.2543    1.0572    0.5084 P   0  0  0  0  0  0  0  0  0  0  0  0
    0.2463   -1.4678    1.2857 O   0  0  0  0  0  1  0  0  0  0  0  0
   -1.5344   -0.0576    2.1403 C   0  0  0  0  0  0  0  0  0  0  0  0
   -0.0695   -0.5658    2.3382 C   0  0  0  0  0  0  0  0  0  0  0  0
    0.9759    0.5819    2.2804 C   0  0  0  0  0  0  0  0  0  0  0  0
    0.0497   -1.3135    3.6707 C   0  0  0  0  0  0  0  0  0  0  0  0
   -3.3615   -1.4060    0.3582 C   0  0  0  0  0  0  0  0  0  0  0  0
   -4.5916   -1.2009   -0.2983 C   0  0  0  0  0  0  0  0  0  0  0  0
   -5.5548   -2.2214   -0.3267 C   0  0  0  0  0  0  0  0  0  0  0  0
   -5.2998   -3.4542    0.2927 C   0  0  0  0  0  0  0  0  0  0  0  0
   -4.0692   -3.6682    0.9346 C   0  0  0  0  0  0  0  0  0  0  0  0
   -3.1006   -2.6562    0.9610 C   0  0  0  0  0  0  0  0  0  0  0  0
   -2.9486    1.4140   -0.0066 C   0  0  0  0  0  0  0  0  0  0  0  0
   -2.7399    2.0353   -1.2538 C   0  0  0  0  0  0  0  0  0  0  0  0
   -3.4478    3.2015   -1.5844 C   0  0  0  0  0  0  0  0  0  0  0  0
   -4.3601    3.7553   -0.6738 C   0  0  0  0  0  0  0  0  0  0  0  0
   -4.5704    3.1397    0.5720 C   0  0  0  0  0  0  0  0  0  0  0  0
   -3.8730    1.9699    0.9034 C   0  0  0  0  0  0  0  0  0  0  0  0
    0.3847    2.6577    0.2224 C   0  0  0  0  0  0  0  0  0  0  0  0
   -0.4388    3.2879    1.1743 C   0  0  0  0  0  0  0  0  0  0  0  0
   -1.0711    4.5044    0.8749 C   0  0  0  0  0  0  0  0  0  0  0  0
   -0.8810    5.1079   -0.3758 C   0  0  0  0  0  0  0  0  0  0  0  0
   -0.0578    4.4876   -1.3297 C   0  0  0  0  0  0  0  0  0  0  0  0
    0.5674    3.2691   -1.0375 C   0  0  0  0  0  0  0  0  0  0  0  0
    3.0030    1.6224    0.4154 C   0  0  0  0  0  0  0  0  0  0  0  0
    3.6027    2.3422    1.4684 C   0  0  0  0  0  0  0  0  0  0  0  0
    4.9284    2.7852    1.3508 C   0  0  0  0  0  0  0  0  0  0  0  0
    5.6524    2.5363    0.1731 C   0  0  0  0  0  0  0  0  0  0  0  0
    5.0503    1.8376   -0.8848 C   0  0  0  0  0  0  0  0  0  0  0  0
    3.7320    1.3716   -0.7625 C   0  0  0  0  0  0  0  0  0  0  0  0
   -2.2296   -0.7050    2.7090 H   0  0  0  0  0  0  0  0  0  0  0  0
   -1.6653    0.9744    2.5184 H   0  0  0  0  0  0  0  0  0  0  0  0
    0.7143    1.4323    2.9399 H   0  0  0  0  0  0  0  0  0  0  0  0
    1.9492    0.1773    2.6231 H   0  0  0  0  0  0  0  0  0  0  0  0
   -0.6458   -2.1754    3.6832 H   0  0  0  0  0  0  0  0  0  0  0  0
    1.0804   -1.6947    3.8074 H   0  0  0  0  0  0  0  0  0  0  0  0
   -0.2000   -0.6473    4.5207 H   0  0  0  0  0  0  0  0  0  0  0  0
   -4.8013   -0.2371   -0.7854 H   0  0  0  0  0  0  0  0  0  0  0  0
   -6.5141   -2.0475   -0.8378 H   0  0  0  0  0  0  0  0  0  0  0  0
   -6.0570   -4.2525    0.2687 H   0  0  0  0  0  0  0  0  0  0  0  0
   -3.8533   -4.6382    1.4076 H   0  0  0  0  0  0  0  0  0  0  0  0
   -2.1253   -2.8460    1.4350 H   0  0  0  0  0  0  0  0  0  0  0  0
   -2.0090    1.6037   -1.9556 H   0  0  0  0  0  0  0  0  0  0  0  0
   -3.2755    3.6847   -2.5578 H   0  0  0  0  0  0  0  0  0  0  0  0
   -4.9110    4.6722   -0.9337 H   0  0  0  0  0  0  0  0  0  0  0  0
   -5.2899    3.5696    1.2859 H   0  0  0  0  0  0  0  0  0  0  0  0
   -4.0597    1.4769    1.8702 H   0  0  0  0  0  0  0  0  0  0  0  0
   -0.5988    2.8368    2.1640 H   0  0  0  0  0  0  0  0  0  0  0  0
   -1.7222    4.9773    1.6252 H   0  0  0  0  0  0  0  0  0  0  0  0
   -1.3806    6.0598   -0.6104 H   0  0  0  0  0  0  0  0  0  0  0  0
    0.0945    4.9531   -2.3153 H   0  0  0  0  0  0  0  0  0  0  0  0
    1.1974    2.7811   -1.7956 H   0  0  0  0  0  0  0  0  0  0  0  0
    3.0342    2.5641    2.3848 H   0  0  0  0  0  0  0  0  0  0  0  0
    5.3970    3.3341    2.1818 H   0  0  0  0  0  0  0  0  0  0  0  0
    6.6908    2.8889    0.0810 H   0  0  0  0  0  0  0  0  0  0  0  0
    5.6144    1.6388   -1.8086 H   0  0  0  0  0  0  0  0  0  0  0  0
    3.2633    0.7945   -1.5740 H   0  0  0  0  0  0  0  0  0  0  0  0
  1  8  1  0  0  0  0
  1  4  1  0  0  0  0
  2  6  1  0  0  0  0
  3  5  1  0  0  0  0
  4  5  1  0  0  0  0
  4 33  1  0  0  0  0
  4 32  1  0  0  0  0
  5  7  1  0  0  0  0
  6  5  1  0  0  0  0
  6 35  1  0  0  0  0
  6 34  1  0  0  0  0
  7 36  1  0  0  0  0
  7 37  1  0  0  0  0
  7 38  1  0  0  0  0
  8 13  1  0  0  0  0
  9  8  2  0  0  0  0
 10  9  1  0  0  0  0
 10 11  2  0  0  0  0
 11 12  1  0  0  0  0
 12 13  2  0  0  0  0
 12 42  1  0  0  0  0
 13 43  1  0  0  0  0
 14  1  1  0  0  0  0
 14 19  1  0  0  0  0
 15 14  2  0  0  0  0
 16 15  1  0  0  0  0
 16 17  2  0  0  0  0
 17 18  1  0  0  0  0
 18 19  2  0  0  0  0
 18 47  1  0  0  0  0
 19 48  1  0  0  0  0
 20  2  1  0  0  0  0
 20 21  1  0  0  0  0
 21 49  1  0  0  0  0
 22 21  2  0  0  0  0
 22 50  1  0  0  0  0
 23 22  1  0  0  0  0
 24 25  1  0  0  0  0
 24 23  2  0  0  0  0
 25 20  2  0  0  0  0
 26  2  1  0  0  0  0
 26 27  1  0  0  0  0
 27 54  1  0  0  0  0
 28 27  2  0  0  0  0
 28 55  1  0  0  0  0
 29 28  1  0  0  0  0
 30 31  1  0  0  0  0
 30 29  2  0  0  0  0
 31 26  2  0  0  0  0
 39  9  1  0  0  0  0
 40 10  1  0  0  0  0
 41 11  1  0  0  0  0
 44 15  1  0  0  0  0
 45 16  1  0  0  0  0
 46 17  1  0  0  0  0
 51 23  1  0  0  0  0
 52 24  1  0  0  0  0
 53 25  1  0  0  0  0
 56 29  1  0  0  0  0
 57 30  1  0  0  0  0
 58 31  1  0  0  0  0
M  END
