2
q = -1.0, confidence = 0.014

  3  2  0  0  0  0  0  0  0  0999 V2000
    0.1564   -3.7588    0.6318 N   0  0  0  0  0  0  0  0  0  0  0  0
   -0.7370   -2.1952   -1.0288 O   0  0  0  0  0  0  0  0  0  0  0  0
   -0.2889   -3.0007   -0.1696 C   0  0  0  0  0  0  0  0  0  0  0  0
  2  3  1  0  0  0  0
  3  1  3  0  0  0  0
M  END
