1
q = 0.0, confidence = 0.954

 20 19  0  0  0  0  0  0  0  0999 V2000
    0.6847    0.7522   -2.2945 O   0  5  0  0  0  0  0  0  0  0  0  0
    4.2493    0.5334    1.0571 O   0  0  0  0  0  0  0  0  0  0  0  0
    4.7943   -0.7710   -0.7273 O   0  0  0  0  0  0  0  0  0  0  0  0
    0.8911    1.7514   -1.4773 C   0  0  0  0  0  0  0  0  0  0  0  0
    0.1512    2.5763   -1.3802 H   0  0  0  0  0  0  0  0  0  0  0  0
    2.0833    1.7309   -0.6769 C   0  0  0  0  0  0  0  0  0  0  0  0
    2.8991    0.5646   -0.9528 C   0  0  0  0  0  3  0  0  0  0  0  0
    2.9646    0.2325   -2.0002 H   0  0  0  0  0  0  0  0  0  0  0  0
    4.0222    0.1536   -0.0858 C   0  0  0  0  0  0  0  0  0  0  0  0
    5.9031   -1.3025    0.0232 C   0  0  0  0  0  0  0  0  0  0  0  0
    6.0921   -2.2992   -0.4223 H   0  0  0  0  0  0  0  0  0  0  0  0
    5.5938   -1.4276    1.0814 H   0  0  0  0  0  0  0  0  0  0  0  0
    7.1287   -0.4068   -0.0745 C   0  0  0  0  0  0  0  0  0  0  0  0
    7.4089   -0.2320   -1.1326 H   0  0  0  0  0  0  0  0  0  0  0  0
    7.9902   -0.8801    0.4389 H   0  0  0  0  0  0  0  0  0  0  0  0
    6.9329    0.5695    0.4097 H   0  0  0  0  0  0  0  0  0  0  0  0
    2.3853    2.8167    0.3173 C   0  0  0  0  0  0  0  0  0  0  0  0
    1.4697    3.3853    0.5738 H   0  0  0  0  0  0  0  0  0  0  0  0
    3.1173    3.5263   -0.1244 H   0  0  0  0  0  0  0  0  0  0  0  0
    2.8451    2.4060    1.2341 H   0  0  0  0  0  0  0  0  0  0  0  0
  1  4  1  0  0  0  0
  3  9  1  0  0  0  0
  3 10  1  0  0  0  0
  4  5  1  0  0  0  0
  4  6  2  0  0  0  0
  6 17  1  0  0  0  0
  7  6  1  0  0  0  0
  7  9  1  0  0  0  0
  8  7  1  0  0  0  0
  9  2  2  0  0  0  0
 10 12  1  0  0  0  0
 11 10  1  0  0  0  0
 13 10  1  0  0  0  0
 13 16  1  0  0  0  0
 13 15  1  0  0  0  0
 14 13  1  0  0  0  0
 17 18  1  0  0  0  0
 17 20  1  0  0  0  0
 19 17  1  0  0  0  0
M  CHG  1   1  -1
M  END
