3
q = -1.0, confidence = 0.0

 49 51  0  0  0  0  0  0  0  0999 V2000
   -0.4103    0.2170    0.0312 P   0  0  0  0  0  0  0  0  0  0  0  0
    2.5574   -1.2640   -0.0074 S   0  0  0  0  0  0  0  0  0  0  0  0
    1.3649   -2.2716   -0.0031 O   0  0  0  0  0  1  0  0  0  0  0  0
    3.8292   -1.8970    0.3879 O   0  0  0  0  0  1  0  0  0  0  0  0
    2.5242   -0.4711   -1.2834 O   0  0  0  0  0  1  0  0  0  0  0  0
   -3.1342   -1.7475    2.5261 C   0  0  0  0  0  0  0  0  0  0  0  0
   -3.0041   -2.7034    3.0748 H   0  0  0  0  0  0  0  0  0  0  0  0
   -3.3376   -0.9701    3.2970 H   0  0  0  0  0  0  0  0  0  0  0  0
    0.8234    0.4919    1.3798 C   0  0  0  0  0  0  0  0  0  0  0  0
    0.5213    1.2959    2.4994 C   0  0  0  0  0  0  0  0  0  0  0  0
   -0.4725    1.7582    2.5895 H   0  0  0  0  0  0  0  0  0  0  0  0
   -0.5810    1.8775   -0.8053 C   0  0  0  0  0  0  0  0  0  0  0  0
   -1.2956    1.6608   -1.6321 H   0  0  0  0  0  0  0  0  0  0  0  0
   -1.8392   -1.3953    1.7841 C   0  0  0  0  0  0  0  0  0  0  0  0
   -1.5659   -2.2146    1.0817 H   0  0  0  0  0  0  0  0  0  0  0  0
   -0.9905   -1.3080    2.4926 H   0  0  0  0  0  0  0  0  0  0  0  0
   -3.1889   -0.1901    0.0081 C   0  0  0  0  0  0  0  0  0  0  0  0
   -3.3166    0.7569   -0.5575 H   0  0  0  0  0  0  0  0  0  0  0  0
   -2.9662   -0.9814   -0.7414 H   0  0  0  0  0  0  0  0  0  0  0  0
   -4.3283   -1.8335    1.5676 C   0  0  0  0  0  0  0  0  0  0  0  0
   -4.1717   -2.6850    0.8677 H   0  0  0  0  0  0  0  0  0  0  0  0
   -5.2620   -2.0546    2.1256 H   0  0  0  0  0  0  0  0  0  0  0  0
   -1.9907   -0.0972    0.9683 C   0  0  0  0  0  0  0  0  0  0  0  0
   -2.1591    0.7533    1.6668 H   0  0  0  0  0  0  0  0  0  0  0  0
    0.0211    4.7069   -1.4514 C   0  0  0  0  0  0  0  0  0  0  0  0
   -0.1167    5.6092   -2.0832 H   0  0  0  0  0  0  0  0  0  0  0  0
    0.7392    4.9923   -0.6500 H   0  0  0  0  0  0  0  0  0  0  0  0
    2.0963   -0.1228    1.3304 C   0  0  0  0  0  0  0  0  0  0  0  0
   -4.4824   -0.5414    0.7562 C   0  0  0  0  0  0  0  0  0  0  0  0
   -4.7454    0.2952    1.4421 H   0  0  0  0  0  0  0  0  0  0  0  0
   -5.3220   -0.6291    0.0352 H   0  0  0  0  0  0  0  0  0  0  0  0
    2.7317    0.9109    3.4327 C   0  0  0  0  0  0  0  0  0  0  0  0
    3.4758    1.0747    4.2268 H   0  0  0  0  0  0  0  0  0  0  0  0
    3.0421    0.0829    2.3450 C   0  0  0  0  0  0  0  0  0  0  0  0
    4.0100   -0.4328    2.2636 H   0  0  0  0  0  0  0  0  0  0  0  0
    1.4668    1.5121    3.5135 C   0  0  0  0  0  0  0  0  0  0  0  0
    1.2087    2.1502    4.3721 H   0  0  0  0  0  0  0  0  0  0  0  0
   -1.1586    3.0236    0.0389 C   0  0  0  0  0  0  0  0  0  0  0  0
   -0.4711    3.2346    0.8859 H   0  0  0  0  0  0  0  0  0  0  0  0
   -2.1379    2.7412    0.4795 H   0  0  0  0  0  0  0  0  0  0  0  0
   -1.3095    4.2983   -0.8070 C   0  0  0  0  0  0  0  0  0  0  0  0
   -2.0650    4.1173   -1.6046 H   0  0  0  0  0  0  0  0  0  0  0  0
   -1.7098    5.1220   -0.1793 H   0  0  0  0  0  0  0  0  0  0  0  0
    0.7650    2.2803   -1.4371 C   0  0  0  0  0  0  0  0  0  0  0  0
    1.5040    2.4487   -0.6227 H   0  0  0  0  0  0  0  0  0  0  0  0
    1.1784    1.4449   -2.0355 H   0  0  0  0  0  0  0  0  0  0  0  0
    0.6190    3.5578   -2.2730 C   0  0  0  0  0  0  0  0  0  0  0  0
    1.6055    3.8485   -2.6901 H   0  0  0  0  0  0  0  0  0  0  0  0
   -0.0400    3.3493   -3.1463 H   0  0  0  0  0  0  0  0  0  0  0  0
  1 23  1  0  0  0  0
  1  9  1  0  0  0  0
  2  3  1  0  0  0  0
  2  4  1  0  0  0  0
  2 28  1  0  0  0  0
  5  2  1  0  0  0  0
  6  7  1  0  0  0  0
  6  8  1  0  0  0  0
  9 10  1  0  0  0  0
 10 11  1  0  0  0  0
 10 36  2  0  0  0  0
 12  1  1  0  0  0  0
 12 38  1  0  0  0  0
 13 12  1  0  0  0  0
 14 16  1  0  0  0  0
 14  6  1  0  0  0  0
 15 14  1  0  0  0  0
 17 29  1  0  0  0  0
 17 23  1  0  0  0  0
 18 17  1  0  0  0  0
 19 17  1  0  0  0  0
 20 22  1  0  0  0  0
 20  6  1  0  0  0  0
 21 20  1  0  0  0  0
 23 24  1  0  0  0  0
 23 14  1  0  0  0  0
 25 41  1  0  0  0  0
 25 27  1  0  0  0  0
 26 25  1  0  0  0  0
 28  9  2  0  0  0  0
 28 34  1  0  0  0  0
 29 30  1  0  0  0  0
 29 20  1  0  0  0  0
 31 29  1  0  0  0  0
 32 36  1  0  0  0  0
 32 33  1  0  0  0  0
 34 32  2  0  0  0  0
 35 34  1  0  0  0  0
 36 37  1  0  0  0  0
 38 40  1  0  0  0  0
 38 39  1  0  0  0  0
 41 43  1  0  0  0  0
 41 38  1  0  0  0  0
 42 41  1  0  0  0  0
 44 12  1  0  0  0  0
 44 45  1  0  0  0  0
 46 44  1  0  0  0  0
 47 25  1  0  0  0  0
 47 44  1  0  0  0  0
 48 47  1  0  0  0  0
 49 47  1  0  0  0  0
M  END
