1
q = 0.0, confidence = 0.956

 20 20  0  0  0  0  0  0  0  0999 V2000
   -0.6275   -0.1276    1.6961 O   0  0  0  0  0  1  0  0  0  0  0  0
   -1.7030   -0.8911    1.4837 C   0  0  0  0  0  3  0  0  0  0  0  0
   -2.9673   -0.3331    0.9673 C   0  0  0  0  0  0  0  0  0  0  0  0
   -3.0437    0.9735    0.4326 C   0  0  0  0  0  0  0  0  0  0  0  0
   -4.2586    1.4656   -0.0418 C   0  0  0  0  0  0  0  0  0  0  0  0
   -5.4386    0.6835   -0.0110 C   0  0  0  0  0  0  0  0  0  0  0  0
   -5.3521   -0.6173    0.5249 C   0  0  0  0  0  0  0  0  0  0  0  0
   -4.1367   -1.1182    1.0090 C   0  0  0  0  0  0  0  0  0  0  0  0
   -6.7304    1.2671   -0.5434 C   0  0  0  0  0  0  0  0  0  0  0  0
   -7.9606    0.3650   -0.4978 C   0  0  0  0  0  0  0  0  0  0  0  0
   -1.8231   -1.7723    2.1520 H   0  0  0  0  0  0  0  0  0  0  0  0
   -2.1391    1.5966    0.3962 H   0  0  0  0  0  0  0  0  0  0  0  0
   -4.3029    2.4873   -0.4518 H   0  0  0  0  0  0  0  0  0  0  0  0
   -6.2487   -1.2509    0.5725 H   0  0  0  0  0  0  0  0  0  0  0  0
   -4.0971   -2.1346    1.4336 H   0  0  0  0  0  0  0  0  0  0  0  0
   -6.5468    1.5997   -1.5894 H   0  0  0  0  0  0  0  0  0  0  0  0
   -6.9340    2.2073    0.0164 H   0  0  0  0  0  0  0  0  0  0  0  0
   -8.8421    0.8898   -0.9141 H   0  0  0  0  0  0  0  0  0  0  0  0
   -7.8156   -0.5604   -1.0917 H   0  0  0  0  0  0  0  0  0  0  0  0
   -8.2144    0.0654    0.5394 H   0  0  0  0  0  0  0  0  0  0  0  0
  2  1  1  0  0  0  0
  2 11  1  0  0  0  0
  3  8  1  0  0  0  0
  3  2  1  0  0  0  0
  4  3  2  0  0  0  0
  5  6  2  0  0  0  0
  5  4  1  0  0  0  0
  6  7  1  0  0  0  0
  7 14  1  0  0  0  0
  7  8  2  0  0  0  0
  8 15  1  0  0  0  0
  9 10  1  0  0  0  0
  9  6  1  0  0  0  0
  9 17  1  0  0  0  0
 10 20  1  0  0  0  0
 12  4  1  0  0  0  0
 13  5  1  0  0  0  0
 16  9  1  0  0  0  0
 18 10  1  0  0  0  0
 19 10  1  0  0  0  0
M  END
