10
q = -1.0, confidence = 0.44

 21 21  0  0  1  0  0  0  0  0999 V2000
    0.8105    1.7924    0.3529 C   0  0  1  0  0  3  0  0  0  0  0  0
    1.9865    1.9590   -0.6394 C   0  0  2  0  0  0  0  0  0  0  0  0
    2.1005    0.6669   -1.4712 C   0  0  0  0  0  0  0  0  0  0  0  0
    2.1932   -0.5825   -0.6448 C   0  0  0  0  0  0  0  0  0  0  0  0
    1.4707   -2.5504    0.0883 C   0  0  0  0  0  3  0  0  0  0  0  0
    2.9550   -0.9293    0.4561 C   0  0  0  0  0  0  0  0  0  0  0  0
    1.3209   -1.6346   -0.8693 N   0  0  0  0  0  0  0  0  0  0  0  0
    2.5025   -2.1719    0.8688 N   0  0  0  0  0  0  0  0  0  0  0  0
    3.2069    2.2560    0.1290 N   0  0  0  0  0  0  0  0  0  0  0  0
   -0.3378    1.6605   -0.0435 O   0  0  0  0  0  1  0  0  0  0  0  0
    1.1816    1.7605    1.6223 O   0  0  0  0  0  0  0  0  0  0  0  0
    1.7039    2.7739   -1.3410 H   0  0  0  0  0  0  0  0  0  0  0  0
    3.3375    3.2704    0.2299 H   0  0  0  0  0  0  0  0  0  0  0  0
    4.0483    1.9024   -0.3421 H   0  0  0  0  0  0  0  0  0  0  0  0
    2.1837    1.8560    1.5635 H   0  0  0  0  0  0  0  0  0  0  0  0
    1.1750    0.5820   -2.0791 H   0  0  0  0  0  0  0  0  0  0  0  0
    2.9537    0.7577   -2.1784 H   0  0  0  0  0  0  0  0  0  0  0  0
    0.3953   -1.4933   -1.4516 H   0  0  0  0  0  0  0  0  0  0  0  0
    0.8654   -3.4514    0.2167 H   0  0  0  0  0  0  0  0  0  0  0  0
    2.7895   -2.6575    1.7196 H   0  0  0  0  0  0  0  0  0  0  0  0
    3.7546   -0.3976    0.9770 H   0  0  0  0  0  0  0  0  0  0  0  0
  1 10  1  6  0  0  0
  1 11  1  0  0  0  0
  2 12  1  6  0  0  0
  2  9  1  0  0  0  0
  2  1  1  0  0  0  0
  3  4  1  0  0  0  0
  3  2  1  0  0  0  0
  4  6  2  0  0  0  0
  5 19  1  0  0  0  0
  5  8  1  0  0  0  0
  6  8  1  0  0  0  0
  6 21  1  0  0  0  0
  7  4  1  0  0  0  0
  7  5  1  0  0  0  0
  8 20  1  0  0  0  0
  9 13  1  0  0  0  0
 14  9  1  0  0  0  0
 15 11  1  0  0  0  0
 16  3  1  0  0  0  0
 17  3  1  0  0  0  0
 18  7  1  0  0  0  0
M  END
