1
q = -1.0

 14 13  0  0  0  0  0  0  0  0999 V2000
    0.9464   -0.6787    1.5795 O   0  5  0  0  0  0  0  0  0  0  0  0
    2.2159   -0.8497    1.5224 C   0  0  0  0  0  0  0  0  0  0  0  0
    3.0331   -1.0075    0.3730 C   0  0  0  0  0  0  0  0  0  0  0  0
    2.7304   -0.9780   -0.9962 C   0  0  0  0  0  0  0  0  0  0  0  0
    2.8831   -0.8374    2.8772 C   0  0  0  0  0  0  0  0  0  0  0  0
    3.8787   -1.1158   -1.9703 C   0  0  0  0  0  0  0  0  0  0  0  0
    1.2200   -0.7357   -1.7364 S   0  0  0  0  0  0  0  0  0  0  0  0
    4.0990   -1.1601    0.6034 H   0  0  0  0  0  0  0  0  0  0  0  0
    3.9069   -1.2529    2.8547 H   0  0  0  0  0  0  0  0  0  0  0  0
    2.2634   -1.3921    3.6078 H   0  0  0  0  0  0  0  0  0  0  0  0
    2.9351    0.2160    3.2265 H   0  0  0  0  0  0  0  0  0  0  0  0
    4.5814   -1.9096   -1.6463 H   0  0  0  0  0  0  0  0  0  0  0  0
    4.4452   -0.1607   -2.0052 H   0  0  0  0  0  0  0  0  0  0  0  0
    3.5263   -1.3394   -2.9945 H   0  0  0  0  0  0  0  0  0  0  0  0
  2  1  1  0  0  0  0
  2  5  1  0  0  0  0
  3  8  1  0  0  0  0
  3  2  2  0  0  0  0
  4  3  1  0  0  0  0
  5 11  1  0  0  0  0
  5 10  1  0  0  0  0
  6 12  1  0  0  0  0
  6  4  1  0  0  0  0
  7  4  2  0  0  0  0
  9  5  1  0  0  0  0
 13  6  1  0  0  0  0
 14  6  1  0  0  0  0
M  CHG  1   1  -1
M  END
