2
q = -1.0

 23 23  0  0  0  0  0  0  0  0999 V2000
   -0.3585   -1.0943    0.2274 S   0  0  0  0  0  0  0  0  0  0  0  0
    0.4457    1.5848   -0.5166 O   0  0  0  0  0  1  0  0  0  0  0  0
   -0.8886    1.3799   -0.5533 N   0  0  0  0  0  0  0  0  0  0  0  0
   -1.4256    0.2086   -0.2069 C   0  0  0  0  0  0  0  0  0  0  0  0
   -2.8849   -0.0001   -0.1525 C   0  0  0  0  0  0  0  0  0  0  0  0
   -3.7476    0.8929    0.5185 C   0  0  0  0  0  0  0  0  0  0  0  0
   -5.1263    0.6534    0.6041 C   0  0  0  0  0  0  0  0  0  0  0  0
   -5.6731   -0.5062    0.0153 C   0  0  0  0  0  0  0  0  0  0  0  0
   -4.8167   -1.4176   -0.6433 C   0  0  0  0  0  0  0  0  0  0  0  0
   -3.4481   -1.1712   -0.7182 C   0  0  0  0  0  0  0  0  0  0  0  0
   -6.9911   -0.8329    0.0354 O   0  0  0  0  0  0  0  0  0  0  0  0
   -7.8937    0.0388    0.6909 C   0  0  0  0  0  0  0  0  0  0  0  0
   -1.5842    2.5392   -1.0925 C   0  0  0  0  0  0  0  0  0  0  0  0
   -3.3321    1.7824    1.0151 H   0  0  0  0  0  0  0  0  0  0  0  0
   -5.7611    1.3673    1.1454 H   0  0  0  0  0  0  0  0  0  0  0  0
   -5.2603   -2.3190   -1.0900 H   0  0  0  0  0  0  0  0  0  0  0  0
   -2.7847   -1.8881   -1.2238 H   0  0  0  0  0  0  0  0  0  0  0  0
   -8.8974   -0.4123    0.5844 H   0  0  0  0  0  0  0  0  0  0  0  0
   -7.9014    1.0515    0.2287 H   0  0  0  0  0  0  0  0  0  0  0  0
   -7.6572    0.1426    1.7736 H   0  0  0  0  0  0  0  0  0  0  0  0
   -2.6259    2.2787   -1.3457 H   0  0  0  0  0  0  0  0  0  0  0  0
   -1.0346    2.8596   -1.9984 H   0  0  0  0  0  0  0  0  0  0  0  0
   -1.5668    3.3692   -0.3577 H   0  0  0  0  0  0  0  0  0  0  0  0
  3  2  1  0  0  0  0
  3  4  1  0  0  0  0
  4  5  1  0  0  0  0
  4  1  2  0  0  0  0
  5  6  1  0  0  0  0
  6  7  2  0  0  0  0
  6 14  1  0  0  0  0
  7 15  1  0  0  0  0
  8 11  1  0  0  0  0
  8  7  1  0  0  0  0
  9  8  2  0  0  0  0
 10  9  1  0  0  0  0
 10  5  2  0  0  0  0
 11 12  1  0  0  0  0
 12 20  1  0  0  0  0
 13  3  1  0  0  0  0
 13 23  1  0  0  0  0
 16  9  1  0  0  0  0
 17 10  1  0  0  0  0
 18 12  1  0  0  0  0
 19 12  1  0  0  0  0
 21 13  1  0  0  0  0
 22 13  1  0  0  0  0
M  END
