1
q = 0.0, confidence = 0.994

 31 31  0  0  0  0  0  0  0  0999 V2000
    0.5289    1.5100    0.1521 O   0  0  0  0  0  1  0  0  0  0  0  0
   -2.2469    1.9305   -0.3894 N   0  0  0  0  0  0  0  0  0  0  0  0
   -3.2976    0.1333    0.2699 N   0  0  0  0  0  0  0  0  0  0  0  0
    0.0737    2.7985    0.0233 C   0  0  0  0  0  0  0  0  0  0  0  0
   -1.1826    2.7801   -0.9139 C   0  0  0  0  0  0  0  0  0  0  0  0
   -1.6064    3.7918   -1.0644 H   0  0  0  0  0  0  0  0  0  0  0  0
   -0.8771    2.3639   -1.8930 H   0  0  0  0  0  0  0  0  0  0  0  0
   -2.2279    0.5817   -0.4206 C   0  0  0  0  0  3  0  0  0  0  0  0
   -1.4745   -0.0327   -0.9399 H   0  0  0  0  0  0  0  0  0  0  0  0
   -3.3403    2.3491    0.3525 C   0  0  0  0  0  0  0  0  0  0  0  0
   -3.5472    3.4082    0.5278 H   0  0  0  0  0  0  0  0  0  0  0  0
   -4.0075    1.2188    0.7613 C   0  0  0  0  0  0  0  0  0  0  0  0
   -4.9192    1.1047    1.3528 H   0  0  0  0  0  0  0  0  0  0  0  0
   -3.6735   -1.2947    0.3914 C   0  0  0  0  0  0  0  0  0  0  0  0
   -2.7608   -1.8365    0.0635 H   0  0  0  0  0  0  0  0  0  0  0  0
   -3.9988   -1.6449    1.8419 C   0  0  0  0  0  0  0  0  0  0  0  0
   -3.1720   -1.3624    2.5227 H   0  0  0  0  0  0  0  0  0  0  0  0
   -4.1508   -2.7382    1.9271 H   0  0  0  0  0  0  0  0  0  0  0  0
   -4.9311   -1.1550    2.1914 H   0  0  0  0  0  0  0  0  0  0  0  0
   -4.7979   -1.6231   -0.5912 C   0  0  0  0  0  0  0  0  0  0  0  0
   -4.4832   -1.3952   -1.6282 H   0  0  0  0  0  0  0  0  0  0  0  0
   -5.7235   -1.0573   -0.3580 H   0  0  0  0  0  0  0  0  0  0  0  0
   -5.0338   -2.7039   -0.5370 H   0  0  0  0  0  0  0  0  0  0  0  0
    1.1133    3.7059   -0.6690 C   0  0  0  0  0  0  0  0  0  0  0  0
    2.0312    3.7385   -0.0509 H   0  0  0  0  0  0  0  0  0  0  0  0
    0.7475    4.7448   -0.8061 H   0  0  0  0  0  0  0  0  0  0  0  0
    1.3881    3.2884   -1.6578 H   0  0  0  0  0  0  0  0  0  0  0  0
   -0.2985    3.3825    1.4031 C   0  0  0  0  0  0  0  0  0  0  0  0
   -1.0401    2.7358    1.9140 H   0  0  0  0  0  0  0  0  0  0  0  0
   -0.7041    4.4142    1.3385 H   0  0  0  0  0  0  0  0  0  0  0  0
    0.6095    3.4051    2.0369 H   0  0  0  0  0  0  0  0  0  0  0  0
  2 10  1  0  0  0  0
  3 14  1  0  0  0  0
  3 12  1  0  0  0  0
  4  1  1  0  0  0  0
  4 28  1  0  0  0  0
  5  2  1  0  0  0  0
  5  4  1  0  0  0  0
  6  5  1  0  0  0  0
  7  5  1  0  0  0  0
  8  2  1  0  0  0  0
  8  3  1  0  0  0  0
  9  8  1  0  0  0  0
 10 11  1  0  0  0  0
 10 12  2  0  0  0  0
 12 13  1  0  0  0  0
 14 16  1  0  0  0  0
 15 14  1  0  0  0  0
 16 18  1  0  0  0  0
 16 19  1  0  0  0  0
 16 17  1  0  0  0  0
 20 23  1  0  0  0  0
 20 22  1  0  0  0  0
 20 14  1  0  0  0  0
 21 20  1  0  0  0  0
 24 25  1  0  0  0  0
 24  4  1  0  0  0  0
 26 24  1  0  0  0  0
 27 24  1  0  0  0  0
 28 29  1  0  0  0  0
 28 31  1  0  0  0  0
 30 28  1  0  0  0  0
M  END
