9
q = 0.0, confidence = 0.998

 25 25  0  0  1  0  0  0  0  0999 V2000
   -2.3806    0.9468   -0.0085 O   0  0  0  0  0  0  0  0  0  0  0  0
   -2.9717    1.8002    1.0163 C   0  0  0  0  0  0  0  0  0  0  0  0
   -4.1734    2.4450    0.3346 C   0  0  0  0  0  0  0  0  0  0  0  0
   -4.6084    1.3577   -0.6532 C   0  0  0  0  0  0  0  0  0  0  0  0
   -3.2652    0.8236   -1.1543 C   0  0  2  0  0  0  0  0  0  0  0  0
   -3.2509   -0.6205   -1.6422 C   0  0  0  0  0  0  0  0  0  0  0  0
   -3.5782   -1.5303   -0.5654 O   0  0  0  0  0  0  0  0  0  0  0  0
   -2.5524   -1.9306    0.2043 C   0  0  1  0  0  3  0  0  0  0  0  0
   -1.3868   -1.6041   -0.0021 O   0  0  0  0  0  1  0  0  0  0  0  0
   -2.9878   -2.8126    1.3465 C   0  0  0  0  0  0  0  0  0  0  0  0
   -1.8179   -3.3521    2.1622 C   0  0  0  0  0  0  0  0  0  0  0  0
   -2.1854   -3.9578    3.0128 H   0  0  0  0  0  0  0  0  0  0  0  0
   -1.2034   -2.5164    2.5529 H   0  0  0  0  0  0  0  0  0  0  0  0
   -1.1591   -3.9891    1.5397 H   0  0  0  0  0  0  0  0  0  0  0  0
   -3.6638   -2.1876    1.9715 H   0  0  0  0  0  0  0  0  0  0  0  0
   -3.6391   -3.6121    0.9329 H   0  0  0  0  0  0  0  0  0  0  0  0
   -2.2577   -0.8722   -2.0668 H   0  0  0  0  0  0  0  0  0  0  0  0
   -4.0342   -0.7637   -2.4106 H   0  0  0  0  0  0  0  0  0  0  0  0
   -2.8620    1.4568   -1.9777 H   0  0  0  0  0  0  0  0  0  0  0  0
   -5.1606    0.5480   -0.1316 H   0  0  0  0  0  0  0  0  0  0  0  0
   -5.2387    1.7323   -1.4828 H   0  0  0  0  0  0  0  0  0  0  0  0
   -4.9642    2.7318    1.0542 H   0  0  0  0  0  0  0  0  0  0  0  0
   -3.8524    3.3559   -0.2112 H   0  0  0  0  0  0  0  0  0  0  0  0
   -3.2563    1.1539    1.8736 H   0  0  0  0  0  0  0  0  0  0  0  0
   -2.1909    2.5172    1.3346 H   0  0  0  0  0  0  0  0  0  0  0  0
  1  2  1  0  0  0  0
  2 25  1  0  0  0  0
  2 24  1  0  0  0  0
  3  2  1  0  0  0  0
  3 22  1  0  0  0  0
  4 20  1  0  0  0  0
  4  3  1  0  0  0  0
  5 19  1  6  0  0  0
  5  4  1  0  0  0  0
  5  1  1  0  0  0  0
  6  5  1  0  0  0  0
  6  7  1  0  0  0  0
  7  8  1  0  0  0  0
  8  9  1  1  0  0  0
  8 10  1  0  0  0  0
 10 15  1  0  0  0  0
 10 11  1  0  0  0  0
 11 13  1  0  0  0  0
 11 12  1  0  0  0  0
 14 11  1  0  0  0  0
 16 10  1  0  0  0  0
 17  6  1  0  0  0  0
 18  6  1  0  0  0  0
 21  4  1  0  0  0  0
 23  3  1  0  0  0  0
M  END
