1,4
q = -1.0, confidence = 0.006

 38 40  0  0  0  0  0  0  0  0999 V2000
   -1.4827   -1.4639   -1.8583 Se  0  0  0  0  0  1  0  0  0  0  0  0
   -2.7568   -1.1840   -0.1060 P   0  0  0  0  0  4  0  0  0  0  0  0
   -3.3023    0.5823   -0.1358 C   0  0  0  0  0  0  0  0  0  0  0  0
   -1.9031    1.5933   -0.4406 S   0  0  0  0  0  1  0  0  0  0  0  0
   -4.5544    0.8082    0.0778 N   0  0  0  0  0  0  0  0  0  0  0  0
   -5.2236    2.0272    0.1269 C   0  0  0  0  0  0  0  0  0  0  0  0
   -4.6189    3.3116    0.0763 C   0  0  0  0  0  0  0  0  0  0  0  0
   -5.4106    4.4651    0.1491 C   0  0  0  0  0  0  0  0  0  0  0  0
   -6.8074    4.3731    0.2656 C   0  0  0  0  0  0  0  0  0  0  0  0
   -7.4170    3.1069    0.3173 C   0  0  0  0  0  0  0  0  0  0  0  0
   -6.6354    1.9500    0.2539 C   0  0  0  0  0  0  0  0  0  0  0  0
   -7.0853    0.9472    0.2991 H   0  0  0  0  0  0  0  0  0  0  0  0
   -8.5108    3.0242    0.4113 H   0  0  0  0  0  0  0  0  0  0  0  0
   -7.4199    5.2860    0.3172 H   0  0  0  0  0  0  0  0  0  0  0  0
   -4.9271    5.4538    0.1113 H   0  0  0  0  0  0  0  0  0  0  0  0
   -3.5270    3.3950   -0.0121 H   0  0  0  0  0  0  0  0  0  0  0  0
   -4.2145   -2.2669   -0.0745 C   0  0  0  0  0  0  0  0  0  0  0  0
   -4.3926   -3.2214    0.9452 C   0  0  0  0  0  0  0  0  0  0  0  0
   -5.5281   -4.0456    0.9339 C   0  0  0  0  0  0  0  0  0  0  0  0
   -6.4809   -3.9170   -0.0885 C   0  0  0  0  0  0  0  0  0  0  0  0
   -6.3013   -2.9636   -1.1058 C   0  0  0  0  0  0  0  0  0  0  0  0
   -5.1706   -2.1375   -1.1038 C   0  0  0  0  0  0  0  0  0  0  0  0
   -5.0264   -1.3871   -1.8950 H   0  0  0  0  0  0  0  0  0  0  0  0
   -7.0503   -2.8618   -1.9056 H   0  0  0  0  0  0  0  0  0  0  0  0
   -7.3711   -4.5643   -0.0941 H   0  0  0  0  0  0  0  0  0  0  0  0
   -5.6680   -4.7924    1.7299 H   0  0  0  0  0  0  0  0  0  0  0  0
   -3.6446   -3.3157    1.7468 H   0  0  0  0  0  0  0  0  0  0  0  0
   -1.8240   -1.4071    1.4447 C   0  0  0  0  0  0  0  0  0  0  0  0
   -0.7085   -2.2660    1.4837 C   0  0  0  0  0  0  0  0  0  0  0  0
    0.0512   -2.3588    2.6569 C   0  0  0  0  0  0  0  0  0  0  0  0
   -0.2996   -1.6004    3.7855 C   0  0  0  0  0  0  0  0  0  0  0  0
   -1.4283   -0.7642    3.7522 C   0  0  0  0  0  0  0  0  0  0  0  0
   -2.2001   -0.6684    2.5863 C   0  0  0  0  0  0  0  0  0  0  0  0
   -3.0763   -0.0033    2.5497 H   0  0  0  0  0  0  0  0  0  0  0  0
   -1.7046   -0.1725    4.6378 H   0  0  0  0  0  0  0  0  0  0  0  0
    0.3120   -1.6585    4.6987 H   0  0  0  0  0  0  0  0  0  0  0  0
    0.9371   -3.0108    2.6774 H   0  0  0  0  0  0  0  0  0  0  0  0
   -0.4170   -2.8261    0.5825 H   0  0  0  0  0  0  0  0  0  0  0  0
  1  2  1  0  0  0  0
  2 17  1  0  0  0  0
  2 28  1  0  0  0  0
  3  2  1  0  0  0  0
  3  5  2  0  0  0  0
  4  3  1  0  0  0  0
  5  6  1  0  0  0  0
  6 11  1  0  0  0  0
  7  6  2  0  0  0  0
  7  8  1  0  0  0  0
  8  9  2  0  0  0  0
  9 14  1  0  0  0  0
  9 10  1  0  0  0  0
 10 13  1  0  0  0  0
 11 12  1  0  0  0  0
 11 10  2  0  0  0  0
 15  8  1  0  0  0  0
 16  7  1  0  0  0  0
 17 18  1  0  0  0  0
 18 27  1  0  0  0  0
 19 18  2  0  0  0  0
 19 26  1  0  0  0  0
 20 19  1  0  0  0  0
 21 22  1  0  0  0  0
 21 20  2  0  0  0  0
 22 17  2  0  0  0  0
 23 22  1  0  0  0  0
 24 21  1  0  0  0  0
 25 20  1  0  0  0  0
 28 29  2  0  0  0  0
 28 33  1  0  0  0  0
 29 30  1  0  0  0  0
 30 37  1  0  0  0  0
 30 31  2  0  0  0  0
 31 36  1  0  0  0  0
 32 31  1  0  0  0  0
 32 35  1  0  0  0  0
 33 32  2  0  0  0  0
 34 33  1  0  0  0  0
 38 29  1  0  0  0  0
M  END
