1,4
q = -2.0, confidence = 0.868

 21 21  0  0  1  0  0  0  0  0999 V2000
    0.5414   -1.1344    0.7471 O   0  5  0  0  0  0  0  0  0  0  0  0
    2.5361   -1.6041    1.6724 O   0  0  0  0  0  0  0  0  0  0  0  0
    1.3805    0.8362   -0.6749 C   0  0  1  0  0  3  0  0  0  0  0  0
    0.5250    0.6849   -1.8100 C   0  0  0  0  0  3  0  0  0  0  0  0
    0.6683   -0.0316   -2.6256 H   0  0  0  0  0  0  0  0  0  0  0  0
   -0.5275    1.6466   -1.7130 C   0  0  0  0  0  3  0  0  0  0  0  0
   -1.3258    1.8039   -2.4470 H   0  0  0  0  0  0  0  0  0  0  0  0
   -0.3487    2.3693   -0.5068 C   0  0  0  0  0  0  0  0  0  0  0  0
   -1.0143    3.1425   -0.1071 H   0  0  0  0  0  0  0  0  0  0  0  0
    0.8193    1.8658    0.1366 C   0  0  0  0  0  0  0  0  0  0  0  0
    1.1765    2.1719    1.1258 H   0  0  0  0  0  0  0  0  0  0  0  0
    2.4894   -0.0890   -0.2506 C   0  0  0  0  0  0  0  0  0  0  0  0
    1.8691   -1.0151    0.8473 C   0  0  0  0  0  0  0  0  0  0  0  0
    2.9479   -1.0158   -1.3942 C   0  0  0  0  0  0  0  0  0  0  0  0
    3.3510   -0.4239   -2.2408 H   0  0  0  0  0  0  0  0  0  0  0  0
    2.1162   -1.6448   -1.7694 H   0  0  0  0  0  0  0  0  0  0  0  0
    3.7426   -1.6938   -1.0279 H   0  0  0  0  0  0  0  0  0  0  0  0
    3.6921    0.6621    0.3394 C   0  0  0  0  0  0  0  0  0  0  0  0
    4.3934   -0.0700    0.7831 H   0  0  0  0  0  0  0  0  0  0  0  0
    3.3861    1.3586    1.1437 H   0  0  0  0  0  0  0  0  0  0  0  0
    4.2158    1.2434   -0.4453 H   0  0  0  0  0  0  0  0  0  0  0  0
  1 13  1  0  0  0  0
  3 12  1  1  0  0  0
  3 10  1  0  0  0  0
  4  6  1  0  0  0  0
  4  3  1  0  0  0  0
  5  4  1  0  0  0  0
  6  8  1  0  0  0  0
  7  6  1  0  0  0  0
  8  9  1  0  0  0  0
  8 10  2  0  0  0  0
 10 11  1  0  0  0  0
 12 18  1  0  0  0  0
 12 13  1  0  0  0  0
 13  2  2  0  0  0  0
 14 17  1  0  0  0  0
 14 12  1  0  0  0  0
 15 14  1  0  0  0  0
 16 14  1  0  0  0  0
 18 19  1  0  0  0  0
 18 20  1  0  0  0  0
 21 18  1  0  0  0  0
M  CHG  1   1  -1
M  END
