1,9
q = -1.0, confidence = 0.004

 43 46  0  0  1  0  0  0  0  0999 V2000
    1.1494   -0.6152    0.1948 O   0  5  0  0  0  0  0  0  0  0  0  0
    2.2170    1.4360    0.0062 C   0  0  0  0  0  0  0  0  0  0  0  0
    3.5024   -0.8734    0.3826 C   0  0  1  0  0  0  0  0  0  0  0  0
    0.7091    3.3301   -0.2923 C   0  0  0  0  0  0  0  0  0  0  0  0
   -0.3031    3.7548   -0.3669 H   0  0  0  0  0  0  0  0  0  0  0  0
    2.2674   -0.0094    0.1947 C   0  0  0  0  0  0  0  0  0  0  0  0
    3.3048    2.3417    0.0468 C   0  0  0  0  0  3  0  0  0  0  0  0
    4.3276    1.9661    0.1891 H   0  0  0  0  0  0  0  0  0  0  0  0
    0.8872    1.9442   -0.1933 C   0  0  0  0  0  3  0  0  0  0  0  0
    1.7969    4.2263   -0.2375 C   0  0  0  0  0  0  0  0  0  0  0  0
    3.1216    3.7231   -0.0807 C   0  0  0  0  0  0  0  0  0  0  0  0
    5.6934   -1.6180   -0.6578 C   0  0  1  0  0  0  0  0  0  0  0  0
    6.3585   -1.4870   -1.5377 H   0  0  0  0  0  0  0  0  0  0  0  0
    4.2986    4.6624   -0.0341 C   0  0  0  0  0  0  0  0  0  0  0  0
    4.3762    5.2686   -0.9614 H   0  0  0  0  0  0  0  0  0  0  0  0
    5.2508    4.1122    0.0903 H   0  0  0  0  0  0  0  0  0  0  0  0
    4.2135    5.3859    0.8043 H   0  0  0  0  0  0  0  0  0  0  0  0
    4.2695   -0.4809    1.6817 C   0  0  0  0  0  0  0  0  0  0  0  0
    4.5712    0.5848    1.6578 H   0  0  0  0  0  0  0  0  0  0  0  0
    3.5906   -0.6011    2.5523 H   0  0  0  0  0  0  0  0  0  0  0  0
    3.0918   -2.3637    0.4990 C   0  0  0  0  0  0  0  0  0  0  0  0
    2.5185   -2.6602   -0.4031 H   0  0  0  0  0  0  0  0  0  0  0  0
    2.3989   -2.4884    1.3558 H   0  0  0  0  0  0  0  0  0  0  0  0
    5.5139   -1.3745    1.8438 C   0  0  1  0  0  0  0  0  0  0  0  0
    6.0504   -1.0684    2.7672 H   0  0  0  0  0  0  0  0  0  0  0  0
    5.0847   -2.8487    1.9541 C   0  0  0  0  0  0  0  0  0  0  0  0
    4.4329   -2.9911    2.8425 H   0  0  0  0  0  0  0  0  0  0  0  0
    5.9762   -3.4955    2.0997 H   0  0  0  0  0  0  0  0  0  0  0  0
    1.5560    5.7071   -0.3381 C   0  0  0  0  0  0  0  0  0  0  0  0
    1.9446    6.2402    0.5554 H   0  0  0  0  0  0  0  0  0  0  0  0
    0.4789    5.9391   -0.4342 H   0  0  0  0  0  0  0  0  0  0  0  0
    2.0850    6.1443   -1.2118 H   0  0  0  0  0  0  0  0  0  0  0  0
    4.4510   -0.7271   -0.8462 C   0  0  0  0  0  0  0  0  0  0  0  0
    3.9001   -1.0203   -1.7648 H   0  0  0  0  0  0  0  0  0  0  0  0
    4.7599    0.3278   -0.9835 H   0  0  0  0  0  0  0  0  0  0  0  0
    6.4383   -1.1948    0.6235 C   0  0  0  0  0  0  0  0  0  0  0  0
    6.7674   -0.1357    0.5439 H   0  0  0  0  0  0  0  0  0  0  0  0
    7.3561   -1.8075    0.7493 H   0  0  0  0  0  0  0  0  0  0  0  0
    5.2628   -3.0915   -0.5434 C   0  0  0  0  0  0  0  0  0  0  0  0
    6.1562   -3.7430   -0.4356 H   0  0  0  0  0  0  0  0  0  0  0  0
    4.7397   -3.4093   -1.4705 H   0  0  0  0  0  0  0  0  0  0  0  0
    4.3330   -3.2558    0.6732 C   0  0  2  0  0  0  0  0  0  0  0  0
    4.0044   -4.3134    0.7524 H   0  0  0  0  0  0  0  0  0  0  0  0
  2  7  1  0  0  0  0
  2  6  2  0  0  0  0
  3  6  1  6  0  0  0
  3 21  1  0  0  0  0
  3 18  1  0  0  0  0
  4 10  1  0  0  0  0
  4  9  2  0  0  0  0
  5  4  1  0  0  0  0
  6  1  1  0  0  0  0
  7  8  1  0  0  0  0
  9  2  1  0  0  0  0
 10 11  2  0  0  0  0
 11 14  1  0  0  0  0
 11  7  1  0  0  0  0
 12 13  1  6  0  0  0
 12 39  1  0  0  0  0
 12 36  1  0  0  0  0
 14 16  1  0  0  0  0
 14 17  1  0  0  0  0
 15 14  1  0  0  0  0
 18 24  1  0  0  0  0
 18 20  1  0  0  0  0
 19 18  1  0  0  0  0
 21 42  1  0  0  0  0
 21 23  1  0  0  0  0
 22 21  1  0  0  0  0
 24 26  1  0  0  0  0
 24 25  1  1  0  0  0
 26 28  1  0  0  0  0
 26 27  1  0  0  0  0
 29 10  1  0  0  0  0
 29 30  1  0  0  0  0
 31 29  1  0  0  0  0
 32 29  1  0  0  0  0
 33 12  1  0  0  0  0
 33  3  1  0  0  0  0
 34 33  1  0  0  0  0
 35 33  1  0  0  0  0
 36 38  1  0  0  0  0
 36 24  1  0  0  0  0
 37 36  1  0  0  0  0
 39 40  1  0  0  0  0
 39 42  1  0  0  0  0
 41 39  1  0  0  0  0
 42 43  1  1  0  0  0
 42 26  1  0  0  0  0
M  CHG  1   1  -1
M  END
