1,4
q = -1.0

 49 52  0  0  0  0  0  0  0  0999 V2000
   -1.8515    2.1146    0.4961 O   0  5  0  0  0  0  0  0  0  0  0  0
   -0.3780   -1.7991    0.0155 N   0  0  0  0  0  0  0  0  0  0  0  0
   -2.2506   -0.6938   -0.1968 N   0  0  0  0  0  0  0  0  0  0  0  0
   -0.8858   -0.5155   -0.0273 C   0  0  0  0  0  2  0  0  0  0  0  0
    0.9714   -2.1709    0.3435 C   0  0  0  0  0  0  0  0  0  0  0  0
   -3.0115    1.6537    0.1392 C   0  0  0  0  0  0  0  0  0  0  0  0
   -2.5578   -2.0702   -0.3167 C   0  0  0  0  0  0  0  0  0  0  0  0
    1.8103   -2.6734   -0.6817 C   0  0  0  0  0  0  0  0  0  0  0  0
   -4.1311    2.5423    0.1039 C   0  0  0  0  0  0  0  0  0  0  0  0
   -3.9220    3.5902    0.3643 H   0  0  0  0  0  0  0  0  0  0  0  0
   -3.8916   -2.5000   -0.5968 C   0  0  0  0  0  0  0  0  0  0  0  0
   -4.0822   -3.5755   -0.7149 H   0  0  0  0  0  0  0  0  0  0  0  0
   -3.2787    0.2816   -0.2123 C   0  0  0  0  0  0  0  0  0  0  0  0
   -1.3686   -2.7508   -0.1572 C   0  0  0  0  0  0  0  0  0  0  0  0
   -1.1551   -3.8217   -0.1460 H   0  0  0  0  0  0  0  0  0  0  0  0
    3.1149   -3.0597   -0.3248 C   0  0  0  0  0  0  0  0  0  0  0  0
    3.7926   -3.4505   -1.0985 H   0  0  0  0  0  0  0  0  0  0  0  0
    1.3355   -2.7958   -2.1258 C   0  0  0  0  0  0  0  0  0  0  0  0
    0.3980   -2.2096   -2.2164 H   0  0  0  0  0  0  0  0  0  0  0  0
    3.5682   -2.9386    0.9948 C   0  0  0  0  0  0  0  0  0  0  0  0
    4.5964   -3.2361    1.2516 H   0  0  0  0  0  0  0  0  0  0  0  0
   -4.6088   -0.1562   -0.5114 C   0  0  0  0  0  0  0  0  0  0  0  0
   -5.4176    2.1205   -0.2336 C   0  0  0  0  0  0  0  0  0  0  0  0
   -6.2414    2.8512   -0.2493 H   0  0  0  0  0  0  0  0  0  0  0  0
    2.7149   -2.4445    1.9880 C   0  0  0  0  0  0  0  0  0  0  0  0
    3.0765   -2.3610    3.0242 H   0  0  0  0  0  0  0  0  0  0  0  0
    1.3926   -2.0618    1.6902 C   0  0  0  0  0  0  0  0  0  0  0  0
    0.4718   -1.5776    2.8035 C   0  0  0  0  0  0  0  0  0  0  0  0
   -0.5182   -1.3613    2.3558 H   0  0  0  0  0  0  0  0  0  0  0  0
   -4.8760   -1.5611   -0.7225 C   0  0  0  0  0  0  0  0  0  0  0  0
   -5.9092   -1.8609   -0.9536 H   0  0  0  0  0  0  0  0  0  0  0  0
    1.0131   -4.2603   -2.4763 C   0  0  0  0  0  0  0  0  0  0  0  0
    1.9206   -4.8941   -2.3955 H   0  0  0  0  0  0  0  0  0  0  0  0
    0.6325   -4.3412   -3.5150 H   0  0  0  0  0  0  0  0  0  0  0  0
    0.2474   -4.6872   -1.7994 H   0  0  0  0  0  0  0  0  0  0  0  0
   -5.6691    0.7773   -0.5372 C   0  0  0  0  0  0  0  0  0  0  0  0
   -6.6833    0.4242   -0.7736 H   0  0  0  0  0  0  0  0  0  0  0  0
    2.3411   -2.2096   -3.1304 C   0  0  0  0  0  0  0  0  0  0  0  0
    2.6003   -1.1621   -2.8793 H   0  0  0  0  0  0  0  0  0  0  0  0
    1.9132   -2.2210   -4.1531 H   0  0  0  0  0  0  0  0  0  0  0  0
    3.2833   -2.7943   -3.1620 H   0  0  0  0  0  0  0  0  0  0  0  0
    0.2679   -2.6733    3.8644 C   0  0  0  0  0  0  0  0  0  0  0  0
   -0.1209   -3.6076    3.4115 H   0  0  0  0  0  0  0  0  0  0  0  0
   -0.4572   -2.3365    4.6329 H   0  0  0  0  0  0  0  0  0  0  0  0
    1.2159   -2.9208    4.3858 H   0  0  0  0  0  0  0  0  0  0  0  0
    0.9744   -0.2650    3.4264 C   0  0  0  0  0  0  0  0  0  0  0  0
    1.9814   -0.3848    3.8776 H   0  0  0  0  0  0  0  0  0  0  0  0
    0.2831    0.0729    4.2248 H   0  0  0  0  0  0  0  0  0  0  0  0
    1.0228    0.5335    2.6575 H   0  0  0  0  0  0  0  0  0  0  0  0
  2  5  1  0  0  0  0
  3  4  1  0  0  0  0
  4  2  1  0  0  0  0
  5 27  1  0  0  0  0
  6  1  1  0  0  0  0
  7  3  1  0  0  0  0
  7 14  2  0  0  0  0
  8 16  1  0  0  0  0
  8  5  2  0  0  0  0
  9  6  1  0  0  0  0
  9 10  1  0  0  0  0
 11  7  1  0  0  0  0
 12 11  1  0  0  0  0
 13  3  1  0  0  0  0
 13  6  2  0  0  0  0
 14 15  1  0  0  0  0
 14  2  1  0  0  0  0
 16 20  2  0  0  0  0
 17 16  1  0  0  0  0
 18  8  1  0  0  0  0
 19 18  1  0  0  0  0
 20 21  1  0  0  0  0
 20 25  1  0  0  0  0
 22 13  1  0  0  0  0
 23  9  2  0  0  0  0
 24 23  1  0  0  0  0
 25 26  1  0  0  0  0
 27 25  2  0  0  0  0
 27 28  1  0  0  0  0
 28 46  1  0  0  0  0
 28 42  1  0  0  0  0
 29 28  1  0  0  0  0
 30 11  2  0  0  0  0
 30 22  1  0  0  0  0
 31 30  1  0  0  0  0
 32 33  1  0  0  0  0
 32 18  1  0  0  0  0
 32 35  1  0  0  0  0
 34 32  1  0  0  0  0
 36 22  2  0  0  0  0
 36 23  1  0  0  0  0
 37 36  1  0  0  0  0
 38 39  1  0  0  0  0
 38 18  1  0  0  0  0
 40 38  1  0  0  0  0
 41 38  1  0  0  0  0
 42 45  1  0  0  0  0
 42 44  1  0  0  0  0
 43 42  1  0  0  0  0
 46 47  1  0  0  0  0
 46 48  1  0  0  0  0
 49 46  1  0  0  0  0
M  CHG  1   1  -1
M  END
