1,5
q = -1.0

 19 18  0  0  1  0  0  0  0  0999 V2000
    0.9957    3.1465    0.3249 O   0  0  0  0  0  1  0  0  0  0  0  0
    2.9421    4.1565   -0.1485 O   0  0  0  0  0  0  0  0  0  0  0  0
    2.6077    1.8999   -0.9696 C   0  0  0  0  0  0  0  0  0  0  0  0
    2.1216    3.1089   -0.1982 C   0  0  2  0  0  3  0  0  0  0  0  0
    1.8952    0.6667   -0.3546 C   0  0  0  0  0  3  0  0  0  0  0  0
    2.4230    0.3471    0.5703 H   0  0  0  0  0  0  0  0  0  0  0  0
    1.9654   -0.1686   -1.0738 H   0  0  0  0  0  0  0  0  0  0  0  0
    2.1369    2.1195   -2.4310 C   0  0  0  0  0  0  0  0  0  0  0  0
    1.0323    2.1987   -2.4797 H   0  0  0  0  0  0  0  0  0  0  0  0
    2.4425    1.2460   -3.0416 H   0  0  0  0  0  0  0  0  0  0  0  0
    2.5899    3.0292   -2.8745 H   0  0  0  0  0  0  0  0  0  0  0  0
    4.1385    1.7580   -0.9284 C   0  0  0  0  0  0  0  0  0  0  0  0
    4.6473    2.6307   -1.3850 H   0  0  0  0  0  0  0  0  0  0  0  0
    4.4338    0.8468   -1.4862 H   0  0  0  0  0  0  0  0  0  0  0  0
    4.5021    1.6491    0.1128 H   0  0  0  0  0  0  0  0  0  0  0  0
    2.4489    5.3268    0.5311 C   0  0  0  0  0  0  0  0  0  0  0  0
    1.5274    5.6988    0.0421 H   0  0  0  0  0  0  0  0  0  0  0  0
    3.2573    6.0754    0.4651 H   0  0  0  0  0  0  0  0  0  0  0  0
    2.2174    5.0921    1.5884 H   0  0  0  0  0  0  0  0  0  0  0  0
  2 16  1  0  0  0  0
  3 12  1  0  0  0  0
  3  5  1  0  0  0  0
  3  4  1  0  0  0  0
  4  2  1  0  0  0  0
  4  1  1  6  0  0  0
  5  6  1  0  0  0  0
  7  5  1  0  0  0  0
  8  3  1  0  0  0  0
  9  8  1  0  0  0  0
 10  8  1  0  0  0  0
 11  8  1  0  0  0  0
 12 15  1  0  0  0  0
 13 12  1  0  0  0  0
 14 12  1  0  0  0  0
 16 19  1  0  0  0  0
 17 16  1  0  0  0  0
 18 16  1  0  0  0  0
M  END
