1,4
q = -1.0

 53 56  0  0  1  0  0  0  0  0999 V2000
   -2.2813    0.9739    1.6151 O   0  5  0  0  0  0  0  0  0  0  0  0
    0.1782   -1.5221   -0.4849 N   0  0  0  0  0  0  0  0  0  0  0  0
   -1.9341   -0.9423   -0.4683 N   0  0  0  0  0  0  0  0  0  0  0  0
   -0.6961   -0.5341   -0.1256 C   0  0  0  0  0  2  0  0  0  0  0  0
   -3.2709    0.6856    0.7978 C   0  0  0  0  0  0  0  0  0  0  0  0
    1.4799   -1.6761    0.0881 C   0  0  0  0  0  0  0  0  0  0  0  0
    2.6284   -1.5237   -0.7312 C   0  0  0  0  0  0  0  0  0  0  0  0
   -3.1535   -0.2478   -0.2928 C   0  0  0  0  0  0  0  0  0  0  0  0
   -4.5555    1.2620    0.9970 C   0  0  0  0  0  0  0  0  0  0  0  0
   -4.6605    1.9678    1.8339 H   0  0  0  0  0  0  0  0  0  0  0  0
    0.3662   -2.2591    2.3478 C   0  0  0  0  0  0  0  0  0  0  0  0
   -0.5378   -2.1855    1.7124 H   0  0  0  0  0  0  0  0  0  0  0  0
   -1.9715   -2.2592   -1.1370 C   0  0  2  0  0  0  0  0  0  0  0  0
   -2.5719   -2.9517   -0.5053 H   0  0  0  0  0  0  0  0  0  0  0  0
   -0.4860   -2.6606   -1.1555 C   0  0  0  0  0  0  0  0  0  0  0  0
   -0.2886   -3.6023   -0.6028 H   0  0  0  0  0  0  0  0  0  0  0  0
   -0.1035   -2.7874   -2.1907 H   0  0  0  0  0  0  0  0  0  0  0  0
   -4.2415   -0.5682   -1.1355 C   0  0  0  0  0  0  0  0  0  0  0  0
   -5.6339    0.9498    0.1632 C   0  0  0  0  0  0  0  0  0  0  0  0
   -6.6109    1.4260    0.3419 H   0  0  0  0  0  0  0  0  0  0  0  0
    1.5859   -2.0341    1.4602 C   0  0  0  0  0  0  0  0  0  0  0  0
   -2.6681   -2.0827   -2.4850 C   0  0  0  0  0  0  0  0  0  0  0  0
   -2.6591   -3.0331   -3.0577 H   0  0  0  0  0  0  0  0  0  0  0  0
   -2.0897   -1.3375   -3.0735 H   0  0  0  0  0  0  0  0  0  0  0  0
    2.5004   -1.2325   -2.2199 C   0  0  0  0  0  0  0  0  0  0  0  0
    1.4726   -0.8431   -2.3792 H   0  0  0  0  0  0  0  0  0  0  0  0
    2.6616   -2.5289   -3.0385 C   0  0  0  0  0  0  0  0  0  0  0  0
    3.6882   -2.9350   -2.9232 H   0  0  0  0  0  0  0  0  0  0  0  0
    2.4913   -2.3392   -4.1183 H   0  0  0  0  0  0  0  0  0  0  0  0
    1.9587   -3.3204   -2.7117 H   0  0  0  0  0  0  0  0  0  0  0  0
   -5.4858    0.0475   -0.9021 C   0  0  0  0  0  0  0  0  0  0  0  0
   -6.3378   -0.1910   -1.5573 H   0  0  0  0  0  0  0  0  0  0  0  0
    3.8946   -1.6927   -0.1411 C   0  0  0  0  0  0  0  0  0  0  0  0
    4.7984   -1.5671   -0.7558 H   0  0  0  0  0  0  0  0  0  0  0  0
    2.8767   -2.1911    2.0026 C   0  0  0  0  0  0  0  0  0  0  0  0
    2.9835   -2.4549    3.0660 H   0  0  0  0  0  0  0  0  0  0  0  0
    0.2340   -1.1658    3.4215 C   0  0  0  0  0  0  0  0  0  0  0  0
    1.1210   -1.1439    4.0888 H   0  0  0  0  0  0  0  0  0  0  0  0
   -0.6629   -1.3458    4.0476 H   0  0  0  0  0  0  0  0  0  0  0  0
    0.1153   -0.1675    2.9516 H   0  0  0  0  0  0  0  0  0  0  0  0
    4.0208   -2.0172    1.2154 C   0  0  0  0  0  0  0  0  0  0  0  0
    5.0197   -2.1411    1.6609 H   0  0  0  0  0  0  0  0  0  0  0  0
   -4.1051   -1.6005   -2.2453 C   0  0  0  0  0  0  0  0  0  0  0  0
   -4.5316   -1.1939   -3.1861 H   0  0  0  0  0  0  0  0  0  0  0  0
   -4.7413   -2.4764   -1.9869 H   0  0  0  0  0  0  0  0  0  0  0  0
    0.3774   -3.6673    2.9677 C   0  0  0  0  0  0  0  0  0  0  0  0
    0.4619   -4.4553    2.1915 H   0  0  0  0  0  0  0  0  0  0  0  0
   -0.5570   -3.8435    3.5382 H   0  0  0  0  0  0  0  0  0  0  0  0
    1.2242   -3.8005    3.6723 H   0  0  0  0  0  0  0  0  0  0  0  0
    3.4877   -0.1658   -2.7118 C   0  0  0  0  0  0  0  0  0  0  0  0
    3.4335    0.7524   -2.0993 H   0  0  0  0  0  0  0  0  0  0  0  0
    3.2672    0.1088   -3.7634 H   0  0  0  0  0  0  0  0  0  0  0  0
    4.5346   -0.5329   -2.6854 H   0  0  0  0  0  0  0  0  0  0  0  0
  2  4  1  0  0  0  0
  2  6  1  0  0  0  0
  3  8  1  0  0  0  0
  3  4  1  0  0  0  0
  5  9  1  0  0  0  0
  5  1  1  0  0  0  0
  6 21  1  0  0  0  0
  7 33  1  0  0  0  0
  7  6  2  0  0  0  0
  8  5  2  0  0  0  0
  9 10  1  0  0  0  0
 11 46  1  0  0  0  0
 11 37  1  0  0  0  0
 12 11  1  0  0  0  0
 13 14  1  1  0  0  0
 13  3  1  0  0  0  0
 15 13  1  0  0  0  0
 15 16  1  0  0  0  0
 15  2  1  0  0  0  0
 17 15  1  0  0  0  0
 18 31  2  0  0  0  0
 18  8  1  0  0  0  0
 19 20  1  0  0  0  0
 19  9  2  0  0  0  0
 21 35  2  0  0  0  0
 21 11  1  0  0  0  0
 22 43  1  0  0  0  0
 22 13  1  0  0  0  0
 23 22  1  0  0  0  0
 24 22  1  0  0  0  0
 25  7  1  0  0  0  0
 26 25  1  0  0  0  0
 27 28  1  0  0  0  0
 27 30  1  0  0  0  0
 27 25  1  0  0  0  0
 29 27  1  0  0  0  0
 31 19  1  0  0  0  0
 32 31  1  0  0  0  0
 33 41  2  0  0  0  0
 34 33  1  0  0  0  0
 35 36  1  0  0  0  0
 37 39  1  0  0  0  0
 37 38  1  0  0  0  0
 40 37  1  0  0  0  0
 41 42  1  0  0  0  0
 41 35  1  0  0  0  0
 43 45  1  0  0  0  0
 43 18  1  0  0  0  0
 44 43  1  0  0  0  0
 46 48  1  0  0  0  0
 46 49  1  0  0  0  0
 47 46  1  0  0  0  0
 50 53  1  0  0  0  0
 50 25  1  0  0  0  0
 50 51  1  0  0  0  0
 52 50  1  0  0  0  0
M  CHG  1   1  -1
M  END
