1,2
q = -1.0

 23 24  0  0  1  0  0  0  0  0999 V2000
    0.4556   -2.4478    0.4651 O   0  0  0  0  0  1  0  0  0  0  0  0
   -1.6525   -0.7420    0.3228 C   0  0  0  0  0  3  0  0  0  0  0  0
   -2.0310   -0.1500    1.1802 H   0  0  0  0  0  0  0  0  0  0  0  0
   -2.3874   -0.4100   -0.9906 C   0  0  2  0  0  0  0  0  0  0  0  0
   -2.0709    0.5401   -1.4597 H   0  0  0  0  0  0  0  0  0  0  0  0
   -3.9119   -0.4690   -0.7053 C   0  0  0  0  0  0  0  0  0  0  0  0
   -4.1846    0.1223    0.1909 H   0  0  0  0  0  0  0  0  0  0  0  0
   -4.4795   -0.0473   -1.5589 H   0  0  0  0  0  0  0  0  0  0  0  0
   -4.1818   -1.9961   -0.5406 C   0  0  0  0  0  0  0  0  0  0  0  0
   -4.6099   -2.2625    0.4459 H   0  0  0  0  0  0  0  0  0  0  0  0
   -4.8853   -2.3692   -1.3107 H   0  0  0  0  0  0  0  0  0  0  0  0
   -2.7888   -2.6279   -0.7588 C   0  0  2  0  0  0  0  0  0  0  0  0
   -2.8186   -3.7084   -0.9971 H   0  0  0  0  0  0  0  0  0  0  0  0
   -1.9130   -2.2786    0.4970 C   0  0  1  0  0  0  0  0  0  0  0  0
   -2.4859   -2.5230    1.4202 H   0  0  0  0  0  0  0  0  0  0  0  0
   -2.1755   -1.6933   -1.8213 C   0  0  0  0  0  0  0  0  0  0  0  0
   -1.1076   -1.9020   -2.0427 H   0  0  0  0  0  0  0  0  0  0  0  0
   -2.7437   -1.7026   -2.7729 H   0  0  0  0  0  0  0  0  0  0  0  0
   -0.6430   -3.0568    0.5542 C   0  0  1  0  0  3  0  0  0  0  0  0
   -0.6325   -4.5451    0.6844 C   0  0  0  0  0  0  0  0  0  0  0  0
   -0.8684   -4.9897   -0.3072 H   0  0  0  0  0  0  0  0  0  0  0  0
   -1.4178   -4.8956    1.3820 H   0  0  0  0  0  0  0  0  0  0  0  0
    0.3636   -4.9064    0.9975 H   0  0  0  0  0  0  0  0  0  0  0  0
  2 14  1  0  0  0  0
  2  3  1  0  0  0  0
  4  5  1  6  0  0  0
  4  6  1  0  0  0  0
  4  2  1  0  0  0  0
  6  9  1  0  0  0  0
  6  7  1  0  0  0  0
  8  6  1  0  0  0  0
  9 10  1  0  0  0  0
 11  9  1  0  0  0  0
 12 13  1  6  0  0  0
 12  9  1  0  0  0  0
 12 14  1  0  0  0  0
 14 19  1  0  0  0  0
 14 15  1  1  0  0  0
 16  4  1  0  0  0  0
 16 12  1  0  0  0  0
 17 16  1  0  0  0  0
 18 16  1  0  0  0  0
 19  1  1  6  0  0  0
 19 20  1  0  0  0  0
 20 23  1  0  0  0  0
 20 22  1  0  0  0  0
 21 20  1  0  0  0  0
M  END
