2,5
q = -1.0

 44 45  0  0  0  0  0  0  0  0999 V2000
    1.1808   -0.0609   -0.0596 P   0  0  2  0  0  4  0  0  0  0  0  0
    0.0771    0.3901   -1.0969 O   0  0  0  0  0  1  0  0  0  0  0  0
    2.5607   -0.6826   -0.7796 N   0  0  0  0  0  0  0  0  0  0  0  0
    0.3618   -1.2491    1.0198 C   0  0  0  0  0  0  0  0  0  0  0  0
   -1.0533   -1.2429    0.9165 C   0  0  0  0  0  3  0  0  0  0  0  0
   -1.7841   -2.1162    1.7405 C   0  0  0  0  0  0  0  0  0  0  0  0
   -2.8824   -2.1178    1.6769 H   0  0  0  0  0  0  0  0  0  0  0  0
   -1.1184   -2.9550    2.6489 C   0  0  0  0  0  0  0  0  0  0  0  0
   -1.7070   -3.6356    3.2838 H   0  0  0  0  0  0  0  0  0  0  0  0
    0.2823   -2.9253    2.7706 C   0  0  0  0  0  0  0  0  0  0  0  0
    0.7908   -3.5731    3.5001 H   0  0  0  0  0  0  0  0  0  0  0  0
    1.0279   -2.0647    1.9564 C   0  0  0  0  0  0  0  0  0  0  0  0
    2.1249   -2.0280    2.0387 H   0  0  0  0  0  0  0  0  0  0  0  0
    1.6808    1.3883    0.9096 C   0  0  0  0  0  0  0  0  0  0  0  0
    1.0075    2.6019    0.6616 C   0  0  0  0  0  0  0  0  0  0  0  0
    0.2470    2.6526   -0.1342 H   0  0  0  0  0  0  0  0  0  0  0  0
    1.3119    3.7284    1.4418 C   0  0  0  0  0  0  0  0  0  0  0  0
    0.7866    4.6764    1.2526 H   0  0  0  0  0  0  0  0  0  0  0  0
    2.2753    3.6450    2.4585 C   0  0  0  0  0  0  0  0  0  0  0  0
    2.5082    4.5310    3.0685 H   0  0  0  0  0  0  0  0  0  0  0  0
    2.9413    2.4314    2.7062 C   0  0  0  0  0  0  0  0  0  0  0  0
    3.6933    2.3675    3.5071 H   0  0  0  0  0  0  0  0  0  0  0  0
    2.6438    1.2996    1.9372 C   0  0  0  0  0  0  0  0  0  0  0  0
    3.1627    0.3482    2.1309 H   0  0  0  0  0  0  0  0  0  0  0  0
    2.5316   -2.0035   -1.4887 C   0  0  0  0  0  0  0  0  0  0  0  0
    3.2672   -1.8830   -2.3098 H   0  0  0  0  0  0  0  0  0  0  0  0
    1.1889   -2.3332   -2.1521 C   0  0  0  0  0  0  0  0  0  0  0  0
    0.8502   -1.5162   -2.8157 H   0  0  0  0  0  0  0  0  0  0  0  0
    0.3907   -2.5159   -1.4055 H   0  0  0  0  0  0  0  0  0  0  0  0
    1.2972   -3.2588   -2.7518 H   0  0  0  0  0  0  0  0  0  0  0  0
    3.0298   -3.1484   -0.5999 C   0  0  0  0  0  0  0  0  0  0  0  0
    3.9744   -2.8790   -0.0888 H   0  0  0  0  0  0  0  0  0  0  0  0
    3.2170   -4.0496   -1.2181 H   0  0  0  0  0  0  0  0  0  0  0  0
    2.2797   -3.4200    0.1671 H   0  0  0  0  0  0  0  0  0  0  0  0
    3.5776    0.2953   -1.2705 C   0  0  0  0  0  0  0  0  0  0  0  0
    3.4665    1.1886   -0.6240 H   0  0  0  0  0  0  0  0  0  0  0  0
    3.3045    0.7421   -2.7122 C   0  0  0  0  0  0  0  0  0  0  0  0
    2.2786    1.1497   -2.8059 H   0  0  0  0  0  0  0  0  0  0  0  0
    3.4105   -0.0935   -3.4343 H   0  0  0  0  0  0  0  0  0  0  0  0
    4.0243    1.5298   -3.0120 H   0  0  0  0  0  0  0  0  0  0  0  0
    4.9986   -0.2325   -1.0596 C   0  0  0  0  0  0  0  0  0  0  0  0
    5.1681   -0.5010    0.0019 H   0  0  0  0  0  0  0  0  0  0  0  0
    5.7337    0.5472   -1.3415 H   0  0  0  0  0  0  0  0  0  0  0  0
    5.2118   -1.1253   -1.6821 H   0  0  0  0  0  0  0  0  0  0  0  0
  1  2  1  6  0  0  0
  1 14  1  0  0  0  0
  1  4  1  0  0  0  0
  3  1  1  0  0  0  0
  4 12  1  0  0  0  0
  5  4  2  0  0  0  0
  5  6  1  0  0  0  0
  6  8  2  0  0  0  0
  7  6  1  0  0  0  0
  8 10  1  0  0  0  0
  8  9  1  0  0  0  0
 10 11  1  0  0  0  0
 12 13  1  0  0  0  0
 12 10  2  0  0  0  0
 14 23  1  0  0  0  0
 15 14  2  0  0  0  0
 15 17  1  0  0  0  0
 16 15  1  0  0  0  0
 17 19  2  0  0  0  0
 18 17  1  0  0  0  0
 19 21  1  0  0  0  0
 19 20  1  0  0  0  0
 21 22  1  0  0  0  0
 23 24  1  0  0  0  0
 23 21  2  0  0  0  0
 25  3  1  0  0  0  0
 25 31  1  0  0  0  0
 26 25  1  0  0  0  0
 27 25  1  0  0  0  0
 27 29  1  0  0  0  0
 28 27  1  0  0  0  0
 30 27  1  0  0  0  0
 31 32  1  0  0  0  0
 31 34  1  0  0  0  0
 33 31  1  0  0  0  0
 35 41  1  0  0  0  0
 35  3  1  0  0  0  0
 35 36  1  0  0  0  0
 37 35  1  0  0  0  0
 38 37  1  0  0  0  0
 39 37  1  0  0  0  0
 40 37  1  0  0  0  0
 41 42  1  0  0  0  0
 43 41  1  0  0  0  0
 44 41  1  0  0  0  0
M  END
