1,7
q = -2.0, confidence = 0.554

 13 13  0  0  0  0  0  0  0  0999 V2000
    0.5992   -0.6427   -1.2554 O   0  0  0  0  0  0  0  0  0  0  0  0
    0.3083    1.3277    2.1398 O   0  0  0  0  0  0  0  0  0  0  0  0
    3.1037    1.1943    2.3724 F   0  0  0  0  0  0  0  0  0  0  0  0
    5.4254    0.4107    1.1619 F   0  0  0  0  0  0  0  0  0  0  0  0
    5.3426   -0.8755   -1.2288 F   0  0  0  0  0  0  0  0  0  0  0  0
    2.9715   -1.4180   -2.4741 F   0  0  0  0  0  0  0  0  0  0  0  0
    0.4756    0.6691    1.1196 C   0  0  0  0  0  0  0  0  0  0  0  0
    1.7969    0.2828    0.5766 C   0  0  0  0  0  0  0  0  0  0  0  0
    1.7484   -0.3986   -0.6815 C   0  0  0  0  0  0  0  0  0  0  0  0
    2.9769   -0.7822   -1.2906 C   0  0  0  0  0  0  0  0  0  0  0  0
    4.1906   -0.5048   -0.6583 C   0  0  0  0  0  0  0  0  0  0  0  0
    4.2352    0.1652    0.5894 C   0  0  0  0  0  0  0  0  0  0  0  0
    3.0410    0.5594    1.1963 C   0  0  0  0  0  0  0  0  0  0  0  0
  1  9  1  0  0  0  0
  5 11  1  0  0  0  0
  6 10  1  0  0  0  0
  7  2  2  0  0  0  0
  8  7  1  0  0  0  0
  8 13  1  0  0  0  0
  9  8  2  0  0  0  0
 10  9  1  0  0  0  0
 10 11  2  0  0  0  0
 11 12  1  0  0  0  0
 12  4  1  0  0  0  0
 12 13  2  0  0  0  0
 13  3  1  0  0  0  0
M  END
