1,4
q = -1.0

 18 17  0  0  0  0  0  0  0  0999 V2000
   -2.5236   -0.2472   -0.3231 O   0  0  0  0  0  1  0  0  0  0  0  0
   -2.9056    0.9796    0.0261 N   0  0  0  0  0  0  0  0  0  0  0  0
    0.4347    2.2126    1.2144 C   0  0  0  0  0  0  0  0  0  0  0  0
   -0.6269    1.3097    0.6588 C   0  0  0  0  0  3  0  0  0  0  0  0
   -1.8998    1.8127    0.5566 C   0  0  0  0  0  0  0  0  0  0  0  0
   -4.1816    1.3078   -0.1501 C   0  0  0  0  0  3  0  0  0  0  0  0
   -5.0657    0.2524   -0.7249 C   0  0  0  0  0  0  0  0  0  0  0  0
   -4.6621    2.6767    0.2231 C   0  0  0  0  0  0  0  0  0  0  0  0
    1.1893    2.4547    0.4380 H   0  0  0  0  0  0  0  0  0  0  0  0
    0.9955    1.7225    2.0373 H   0  0  0  0  0  0  0  0  0  0  0  0
    0.0217    3.1679    1.6033 H   0  0  0  0  0  0  0  0  0  0  0  0
   -2.2111    2.8211    0.8601 H   0  0  0  0  0  0  0  0  0  0  0  0
   -6.1040    0.6153   -0.8289 H   0  0  0  0  0  0  0  0  0  0  0  0
   -5.0495   -0.6613   -0.0921 H   0  0  0  0  0  0  0  0  0  0  0  0
   -4.6859   -0.0833   -1.7143 H   0  0  0  0  0  0  0  0  0  0  0  0
   -5.7400    2.7700   -0.0015 H   0  0  0  0  0  0  0  0  0  0  0  0
   -4.1305    3.4778   -0.3356 H   0  0  0  0  0  0  0  0  0  0  0  0
   -4.5238    2.8922    1.3054 H   0  0  0  0  0  0  0  0  0  0  0  0
  1  2  1  0  0  0  0
  2  5  1  0  0  0  0
  3 11  1  0  0  0  0
  3 10  1  0  0  0  0
  4  3  1  0  0  0  0
  5  4  2  0  0  0  0
  5 12  1  0  0  0  0
  6  2  1  0  0  0  0
  6  8  1  0  0  0  0
  7  6  1  0  0  0  0
  7 14  1  0  0  0  0
  8 18  1  0  0  0  0
  9  3  1  0  0  0  0
 13  7  1  0  0  0  0
 15  7  1  0  0  0  0
 16  8  1  0  0  0  0
 17  8  1  0  0  0  0
M  END
