1,4
q = -1.0

 13 13  0  0  0  0  0  0  0  0999 V2000
   -1.0571   -1.9541    0.0001 O   0  0  0  0  0  1  0  0  0  0  0  0
   -3.1958   -2.3715    0.0006 O   0  0  0  0  0  1  0  0  0  0  0  0
   -2.2921   -1.5580    0.0005 N   0  0  0  0  0  0  0  0  0  0  0  0
   -1.3327    0.6616   -0.0001 C   0  0  0  0  0  2  0  0  0  0  0  0
   -1.5502    2.0561   -0.0008 C   0  0  0  0  0  3  0  0  0  0  0  0
   -2.8520    2.5767   -0.0008 C   0  0  0  0  0  0  0  0  0  0  0  0
   -3.9899    1.7365   -0.0002 C   0  0  0  0  0  0  0  0  0  0  0  0
   -3.8201    0.3545    0.0003 C   0  0  0  0  0  0  0  0  0  0  0  0
   -2.5023   -0.1433    0.0003 C   0  0  0  0  0  0  0  0  0  0  0  0
   -0.6779    2.7286   -0.0012 H   0  0  0  0  0  0  0  0  0  0  0  0
   -2.9908    3.6693   -0.0013 H   0  0  0  0  0  0  0  0  0  0  0  0
   -5.0006    2.1695   -0.0002 H   0  0  0  0  0  0  0  0  0  0  0  0
   -4.6617   -0.3524    0.0006 H   0  0  0  0  0  0  0  0  0  0  0  0
  1  3  1  0  0  0  0
  3  2  1  0  0  0  0
  4  9  1  0  0  0  0
  5  4  1  0  0  0  0
  6  5  1  0  0  0  0
  6  7  2  0  0  0  0
  7 12  1  0  0  0  0
  7  8  1  0  0  0  0
  8 13  1  0  0  0  0
  9  8  2  0  0  0  0
  9  3  1  0  0  0  0
 10  5  1  0  0  0  0
 11  6  1  0  0  0  0
M  END
