1,2
q = -1.0, confidence = 0.01

 18 17  0  0  0  0  0  0  0  0999 V2000
   -2.2439   -0.6678   -0.2244 O   0  0  0  0  0  1  0  0  0  0  0  0
    0.1088   -1.8145   -1.9048 C   0  0  0  0  0  3  0  0  0  0  0  0
   -0.5966   -1.5125   -2.7001 H   0  0  0  0  0  0  0  0  0  0  0  0
    1.1568   -1.8775   -2.2372 H   0  0  0  0  0  0  0  0  0  0  0  0
   -0.3701   -2.5965   -0.8259 C   0  0  0  0  0  3  0  0  0  0  0  0
    0.3503   -3.2082   -0.2556 H   0  0  0  0  0  0  0  0  0  0  0  0
   -1.8370   -2.9750   -0.7122 C   0  0  0  0  0  0  0  0  0  0  0  0
   -1.9435   -4.0091   -0.3219 H   0  0  0  0  0  0  0  0  0  0  0  0
   -2.3030   -2.9572   -1.7200 H   0  0  0  0  0  0  0  0  0  0  0  0
   -2.6160   -1.9658    0.1808 C   0  0  0  0  0  0  0  0  0  0  0  0
   -2.2507   -2.1947    1.6636 C   0  0  0  0  0  0  0  0  0  0  0  0
   -2.7405   -1.4257    2.2956 H   0  0  0  0  0  0  0  0  0  0  0  0
   -1.1511   -2.0874    1.7887 H   0  0  0  0  0  0  0  0  0  0  0  0
   -2.5574   -3.1978    2.0292 H   0  0  0  0  0  0  0  0  0  0  0  0
   -4.1326   -2.1122   -0.0140 C   0  0  0  0  0  0  0  0  0  0  0  0
   -4.6653   -1.3627    0.6059 H   0  0  0  0  0  0  0  0  0  0  0  0
   -4.4923   -3.1221    0.2727 H   0  0  0  0  0  0  0  0  0  0  0  0
   -4.3977   -1.9305   -1.0749 H   0  0  0  0  0  0  0  0  0  0  0  0
  1 10  1  0  0  0  0
  2  5  1  0  0  0  0
  3  2  1  0  0  0  0
  4  2  1  0  0  0  0
  5  7  1  0  0  0  0
  5  6  1  0  0  0  0
  7  8  1  0  0  0  0
  7 10  1  0  0  0  0
  9  7  1  0  0  0  0
 10 11  1  0  0  0  0
 11 13  1  0  0  0  0
 11 14  1  0  0  0  0
 11 12  1  0  0  0  0
 15 10  1  0  0  0  0
 15 17  1  0  0  0  0
 15 16  1  0  0  0  0
 18 15  1  0  0  0  0
M  END
