1,6
q = -1.0

 27 27  0  0  1  0  0  0  0  0999 V2000
    2.4193   -0.2819    0.0830 O   0  0  0  0  0  1  0  0  0  0  0  0
    3.4216   -2.3059    0.3994 N   0  0  0  0  0  0  0  0  0  0  0  0
    3.3345   -3.3124    0.2491 H   0  0  0  0  0  0  0  0  0  0  0  0
    1.2172   -2.1541   -0.6780 C   0  0  0  0  0  0  0  0  0  0  0  0
    2.3981   -1.5575   -0.0407 C   0  0  1  0  0  3  0  0  0  0  0  0
    0.2383   -1.1893   -1.0635 C   0  0  0  0  0  3  0  0  0  0  0  0
    1.0300   -3.5346   -0.9063 C   0  0  0  0  0  0  0  0  0  0  0  0
    1.7936   -4.2721   -0.6063 H   0  0  0  0  0  0  0  0  0  0  0  0
   -0.9346   -1.6790   -1.6763 C   0  0  0  0  0  0  0  0  0  0  0  0
   -1.7352   -0.9843   -1.9674 H   0  0  0  0  0  0  0  0  0  0  0  0
    4.7073   -1.8417    0.9877 C   0  0  0  0  0  0  0  0  0  0  0  0
   -1.1167   -3.0511   -1.9111 C   0  0  0  0  0  0  0  0  0  0  0  0
   -2.0416   -3.3985   -2.3977 H   0  0  0  0  0  0  0  0  0  0  0  0
   -0.1375   -3.9867   -1.5266 C   0  0  0  0  0  0  0  0  0  0  0  0
   -0.2876   -5.0598   -1.7127 H   0  0  0  0  0  0  0  0  0  0  0  0
    5.5061   -3.1139    1.3082 C   0  0  0  0  0  0  0  0  0  0  0  0
    4.9753   -3.7467    2.0488 H   0  0  0  0  0  0  0  0  0  0  0  0
    6.4903   -2.8464    1.7368 H   0  0  0  0  0  0  0  0  0  0  0  0
    5.6915   -3.7130    0.3928 H   0  0  0  0  0  0  0  0  0  0  0  0
    4.4456   -1.0470    2.2797 C   0  0  0  0  0  0  0  0  0  0  0  0
    3.9312   -0.0933    2.0603 H   0  0  0  0  0  0  0  0  0  0  0  0
    5.4086   -0.8119    2.7736 H   0  0  0  0  0  0  0  0  0  0  0  0
    3.8281   -1.6353    2.9874 H   0  0  0  0  0  0  0  0  0  0  0  0
    5.4635   -0.9806   -0.0401 C   0  0  0  0  0  0  0  0  0  0  0  0
    5.6631   -1.5568   -0.9653 H   0  0  0  0  0  0  0  0  0  0  0  0
    6.4354   -0.6575    0.3815 H   0  0  0  0  0  0  0  0  0  0  0  0
    4.8804   -0.0775   -0.3024 H   0  0  0  0  0  0  0  0  0  0  0  0
  2 11  1  0  0  0  0
  3  2  1  0  0  0  0
  4  5  1  0  0  0  0
  5  1  1  1  0  0  0
  5  2  1  0  0  0  0
  6  4  2  0  0  0  0
  7  4  1  0  0  0  0
  7  8  1  0  0  0  0
  9  6  1  0  0  0  0
 10  9  1  0  0  0  0
 11 16  1  0  0  0  0
 11 20  1  0  0  0  0
 12  9  2  0  0  0  0
 12 14  1  0  0  0  0
 13 12  1  0  0  0  0
 14  7  2  0  0  0  0
 15 14  1  0  0  0  0
 16 18  1  0  0  0  0
 16 17  1  0  0  0  0
 19 16  1  0  0  0  0
 20 22  1  0  0  0  0
 20 23  1  0  0  0  0
 21 20  1  0  0  0  0
 24 26  1  0  0  0  0
 24 11  1  0  0  0  0
 25 24  1  0  0  0  0
 27 24  1  0  0  0  0
M  END
