1,2
q = -2.0, confidence = 0.782

 15 14  0  0  0  0  0  0  0  0999 V2000
    0.2984   -2.0784   -0.5434 O   0  5  0  0  0  0  0  0  0  0  0  0
    0.0835   -0.4280    1.8998 C   0  0  0  0  0  3  0  0  0  0  0  0
    0.4507   -1.6240    2.4587 C   0  0  0  0  0  0  0  0  0  0  0  0
    0.7655   -2.8294    1.7038 C   0  0  0  0  0  0  0  0  0  0  0  0
    0.6344   -3.0001    0.3382 C   0  0  0  0  0  0  0  0  0  0  0  0
    0.5030   -1.7719    3.9678 C   0  0  0  0  0  0  0  0  0  0  0  0
    0.8683   -4.3487   -0.3081 C   0  0  0  0  0  0  0  0  0  0  0  0
   -0.2159    0.3587    2.6181 H   0  0  0  0  0  0  0  0  0  0  0  0
    1.0679   -3.7178    2.2800 H   0  0  0  0  0  0  0  0  0  0  0  0
    0.2531   -0.8228    4.4827 H   0  0  0  0  0  0  0  0  0  0  0  0
   -0.2034   -2.5534    4.3269 H   0  0  0  0  0  0  0  0  0  0  0  0
    1.5140   -2.0893    4.3066 H   0  0  0  0  0  0  0  0  0  0  0  0
    1.6564   -4.2749   -1.0875 H   0  0  0  0  0  0  0  0  0  0  0  0
    1.1587   -5.1212    0.4284 H   0  0  0  0  0  0  0  0  0  0  0  0
   -0.0519   -4.6821   -0.8340 H   0  0  0  0  0  0  0  0  0  0  0  0
  1  5  1  0  0  0  0
  2  3  2  0  0  0  0
  2  8  1  0  0  0  0
  3  6  1  0  0  0  0
  4  9  1  0  0  0  0
  4  3  1  0  0  0  0
  5  4  2  0  0  0  0
  6 12  1  0  0  0  0
  6 11  1  0  0  0  0
  6 10  1  0  0  0  0
  7  5  1  0  0  0  0
  7 14  1  0  0  0  0
 13  7  1  0  0  0  0
 15  7  1  0  0  0  0
M  CHG  1   1  -1
M  END
