1,25
q = -1.0

 27 27  0  0  1  0  0  0  0  0999 V2000
   -0.7938   -1.6184   -0.2347 O   0  0  0  0  0  1  0  0  0  0  0  0
   -2.8466   -0.5972   -0.2731 N   0  0  0  0  0  0  0  0  0  0  0  0
   -2.6234   -2.9198   -1.0360 C   0  0  0  0  0  0  0  0  0  0  0  0
   -3.3630   -3.3556   -0.3340 H   0  0  0  0  0  0  0  0  0  0  0  0
   -1.8090   -3.6454   -1.2012 H   0  0  0  0  0  0  0  0  0  0  0  0
   -3.1461   -2.7358   -1.9958 H   0  0  0  0  0  0  0  0  0  0  0  0
   -2.0418   -1.6433   -0.4872 C   0  0  2  0  0  3  0  0  0  0  0  0
   -4.2887   -0.5700   -0.5697 C   0  0  0  0  0  0  0  0  0  0  0  0
   -4.7637   -1.5455   -0.3490 H   0  0  0  0  0  0  0  0  0  0  0  0
   -4.4462   -0.3479   -1.6485 H   0  0  0  0  0  0  0  0  0  0  0  0
   -4.8442    0.5669    0.3170 C   0  0  0  0  0  0  0  0  0  0  0  0
   -5.1281    0.0397    1.7354 C   0  0  0  0  0  0  0  0  0  0  0  0
   -5.4188    0.8698    2.4096 H   0  0  0  0  0  0  0  0  0  0  0  0
   -4.2477   -0.4654    2.1820 H   0  0  0  0  0  0  0  0  0  0  0  0
   -5.9622   -0.6908    1.7232 H   0  0  0  0  0  0  0  0  0  0  0  0
   -6.1080    1.1904   -0.2826 C   0  0  0  0  0  0  0  0  0  0  0  0
   -6.4658    2.0290    0.3474 H   0  0  0  0  0  0  0  0  0  0  0  0
   -6.9303    0.4489   -0.3456 H   0  0  0  0  0  0  0  0  0  0  0  0
   -5.9228    1.5856   -1.3022 H   0  0  0  0  0  0  0  0  0  0  0  0
   -3.6427    1.5396    0.3196 C   0  0  0  0  0  0  0  0  0  0  0  0
   -3.6842    2.2733    1.1476 H   0  0  0  0  0  0  0  0  0  0  0  0
   -3.6169    2.1085   -0.6344 H   0  0  0  0  0  0  0  0  0  0  0  0
   -2.3918    0.6460    0.4112 C   0  0  2  0  0  0  0  0  0  0  0  0
   -2.1988    0.3827    1.4759 H   0  0  0  0  0  0  0  0  0  0  0  0
   -1.1297    1.2523   -0.1771 C   0  0  0  0  0  3  0  0  0  0  0  0
   -0.8852    2.1582    0.4162 H   0  0  0  0  0  0  0  0  0  0  0  0
   -1.2852    1.5465   -1.2403 H   0  0  0  0  0  0  0  0  0  0  0  0
  2 23  1  0  0  0  0
  3  7  1  0  0  0  0
  3  4  1  0  0  0  0
  5  3  1  0  0  0  0
  6  3  1  0  0  0  0
  7  2  1  0  0  0  0
  7  1  1  1  0  0  0
  8  9  1  0  0  0  0
  8  2  1  0  0  0  0
  8 11  1  0  0  0  0
 10  8  1  0  0  0  0
 11 20  1  0  0  0  0
 11 12  1  0  0  0  0
 12 14  1  0  0  0  0
 12 13  1  0  0  0  0
 15 12  1  0  0  0  0
 16 11  1  0  0  0  0
 16 17  1  0  0  0  0
 18 16  1  0  0  0  0
 19 16  1  0  0  0  0
 20 23  1  0  0  0  0
 20 21  1  0  0  0  0
 22 20  1  0  0  0  0
 23 24  1  1  0  0  0
 25 23  1  0  0  0  0
 25 26  1  0  0  0  0
 27 25  1  0  0  0  0
M  END
