5,9
q = -2.0, confidence = 0.962

 33 36  0  0  1  0  0  0  0  0999 V2000
    4.0965   -2.4152    1.9825 Cl  0  0  0  0  0  0  0  0  0  0  0  0
    4.5582   -3.0327   -3.4257 Cl  0  0  0  0  0  0  0  0  0  0  0  0
    2.4718   -0.6876   -3.8294 Cl  0  0  0  0  0  0  0  0  0  0  0  0
    5.3561   -3.9318   -0.5044 Cl  0  0  0  0  0  0  0  0  0  0  0  0
    1.5606    0.5284   -1.3347 O   0  5  0  0  0  0  0  0  0  0  0  0
    2.2442   -0.2736    1.2713 O   0  0  0  0  0  0  0  0  0  0  0  0
    0.6044    2.5067    2.2900 C   0  0  2  0  0  0  0  0  0  0  0  0
   -0.4545    2.8092    2.2245 H   0  0  0  0  0  0  0  0  0  0  0  0
    1.2225    1.9599    0.9844 C   0  0  0  0  0  3  0  0  0  0  0  0
    1.4376    2.7230    0.2159 H   0  0  0  0  0  0  0  0  0  0  0  0
    2.4302   -0.4481   -1.1353 C   0  0  0  0  0  0  0  0  0  0  0  0
    2.8230   -0.8569    0.1725 C   0  0  0  0  0  0  0  0  0  0  0  0
    2.9941   -1.1436   -2.2403 C   0  0  0  0  0  0  0  0  0  0  0  0
    2.7765    2.9124    3.1088 C   0  0  0  0  0  0  0  0  0  0  0  0
    3.7042   -1.9349    0.3608 C   0  0  0  0  0  0  0  0  0  0  0  0
    4.2575   -2.6169   -0.7473 C   0  0  0  0  0  0  0  0  0  0  0  0
    2.4632    1.1476    1.4583 C   0  0  1  0  0  0  0  0  0  0  0  0
    3.4005    1.4388    0.9447 H   0  0  0  0  0  0  0  0  0  0  0  0
    3.9020   -2.2070   -2.0531 C   0  0  0  0  0  0  0  0  0  0  0  0
    3.8651    5.0366    3.4373 C   0  0  0  0  0  0  0  0  0  0  0  0
    4.7431    5.6224    3.7492 H   0  0  0  0  0  0  0  0  0  0  0  0
    1.6077    3.5859    2.6736 C   0  0  0  0  0  0  0  0  0  0  0  0
    1.5683    4.9806    2.5925 C   0  0  0  0  0  0  0  0  0  0  0  0
    0.6658    5.5043    2.2408 H   0  0  0  0  0  0  0  0  0  0  0  0
    2.4894    1.4271    2.9836 C   0  0  2  0  0  0  0  0  0  0  0  0
    3.1561    0.7350    3.5285 H   0  0  0  0  0  0  0  0  0  0  0  0
    0.9724    1.3984    3.3077 C   0  0  0  0  0  0  0  0  0  0  0  0
    0.4816    0.4324    3.0867 H   0  0  0  0  0  0  0  0  0  0  0  0
    0.7543    1.6954    4.3516 H   0  0  0  0  0  0  0  0  0  0  0  0
    2.7087    5.7035    2.9965 C   0  0  0  0  0  0  0  0  0  0  0  0
    2.6934    6.8037    2.9704 H   0  0  0  0  0  0  0  0  0  0  0  0
    3.9148    3.6280    3.4846 C   0  0  0  0  0  0  0  0  0  0  0  0
    4.8272    3.1107    3.8192 H   0  0  0  0  0  0  0  0  0  0  0  0
  2 19  1  0  0  0  0
  3 13  1  0  0  0  0
  5 11  1  0  0  0  0
  6 17  1  0  0  0  0
  7  8  1  6  0  0  0
  7 22  1  0  0  0  0
  7 27  1  0  0  0  0
  9 17  1  0  0  0  0
  9  7  1  0  0  0  0
 10  9  1  0  0  0  0
 11 12  1  0  0  0  0
 12 15  2  0  0  0  0
 12  6  1  0  0  0  0
 13 19  1  0  0  0  0
 13 11  2  0  0  0  0
 14 32  1  0  0  0  0
 15  1  1  0  0  0  0
 16  4  1  0  0  0  0
 16 15  1  0  0  0  0
 17 18  1  6  0  0  0
 17 25  1  0  0  0  0
 19 16  2  0  0  0  0
 20 32  2  0  0  0  0
 20 21  1  0  0  0  0
 22 14  2  0  0  0  0
 23 22  1  0  0  0  0
 23 30  2  0  0  0  0
 24 23  1  0  0  0  0
 25 14  1  0  0  0  0
 25 27  1  0  0  0  0
 25 26  1  1  0  0  0
 27 29  1  0  0  0  0
 28 27  1  0  0  0  0
 30 20  1  0  0  0  0
 31 30  1  0  0  0  0
 32 33  1  0  0  0  0
M  CHG  1   5  -1
M  END
