1,6
q = -1.0

 41 43  0  0  0  0  0  0  0  0999 V2000
   -0.1887   -1.4895    0.2191 O   0  5  0  0  0  0  0  0  0  0  0  0
   -3.6660   -0.4100    0.0227 C   0  0  0  0  0  0  0  0  0  0  0  0
   -1.1223   -0.6209   -0.0275 C   0  0  0  0  0  0  0  0  0  0  0  0
   -2.4849   -1.1230    0.0004 C   0  0  0  0  0  0  0  0  0  0  0  0
   -2.5369   -2.2227   -0.0221 H   0  0  0  0  0  0  0  0  0  0  0  0
    0.6771    0.9249   -0.3499 C   0  0  0  0  0  2  0  0  0  0  0  0
   -0.6927    0.7080   -0.3570 C   0  0  0  0  0  0  0  0  0  0  0  0
   -1.4167    1.5077   -0.5635 H   0  0  0  0  0  0  0  0  0  0  0  0
    1.2396    2.2484   -0.6409 C   0  0  0  0  0  0  0  0  0  0  0  0
   -3.6888    1.0499    0.3027 C   0  0  0  0  0  0  0  0  0  0  0  0
    2.4356    2.6825   -0.0184 C   0  0  0  0  0  0  0  0  0  0  0  0
    2.9408    1.9943    0.6735 H   0  0  0  0  0  0  0  0  0  0  0  0
   -4.9630   -1.0825   -0.1858 C   0  0  0  0  0  0  0  0  0  0  0  0
    2.9662    3.9530   -0.2720 C   0  0  0  0  0  0  0  0  0  0  0  0
    3.8881    4.2748    0.2357 H   0  0  0  0  0  0  0  0  0  0  0  0
   -4.2226    1.9583   -0.6379 C   0  0  0  0  0  0  0  0  0  0  0  0
   -4.6440    1.5754   -1.5795 H   0  0  0  0  0  0  0  0  0  0  0  0
   -7.3841   -1.1623    0.1781 C   0  0  0  0  0  0  0  0  0  0  0  0
   -8.2930   -0.7207    0.6130 H   0  0  0  0  0  0  0  0  0  0  0  0
   -3.1728    1.5470    1.5197 C   0  0  0  0  0  0  0  0  0  0  0  0
   -2.7975    0.8344    2.2698 H   0  0  0  0  0  0  0  0  0  0  0  0
   -6.2958   -2.9217   -1.0993 C   0  0  0  0  0  0  0  0  0  0  0  0
   -6.3552   -3.8515   -1.6845 H   0  0  0  0  0  0  0  0  0  0  0  0
   -6.1504   -0.5243    0.3518 C   0  0  0  0  0  0  0  0  0  0  0  0
   -6.0938    0.4100    0.9289 H   0  0  0  0  0  0  0  0  0  0  0  0
   -7.4617   -2.3622   -0.5469 C   0  0  0  0  0  0  0  0  0  0  0  0
   -8.4328   -2.8597   -0.6894 H   0  0  0  0  0  0  0  0  0  0  0  0
   -3.6573    3.8230    0.8205 C   0  0  0  0  0  0  0  0  0  0  0  0
   -3.6423    4.9050    1.0195 H   0  0  0  0  0  0  0  0  0  0  0  0
   -5.0610   -2.2911   -0.9212 C   0  0  0  0  0  0  0  0  0  0  0  0
   -4.1613   -2.7194   -1.3868 H   0  0  0  0  0  0  0  0  0  0  0  0
   -3.1609    2.9240    1.7785 C   0  0  0  0  0  0  0  0  0  0  0  0
   -2.7662    3.2990    2.7348 H   0  0  0  0  0  0  0  0  0  0  0  0
    0.6051    3.1324   -1.5515 C   0  0  0  0  0  0  0  0  0  0  0  0
   -0.3118    2.8104   -2.0671 H   0  0  0  0  0  0  0  0  0  0  0  0
   -4.1907    3.3370   -0.3852 C   0  0  0  0  0  0  0  0  0  0  0  0
   -4.5913    4.0382   -1.1325 H   0  0  0  0  0  0  0  0  0  0  0  0
    2.3280    4.8115   -1.1829 C   0  0  0  0  0  0  0  0  0  0  0  0
    2.7512    5.8042   -1.3971 H   0  0  0  0  0  0  0  0  0  0  0  0
    1.1496    4.3928   -1.8244 C   0  0  0  0  0  0  0  0  0  0  0  0
    0.6518    5.0567   -2.5471 H   0  0  0  0  0  0  0  0  0  0  0  0
  2 10  1  0  0  0  0
  3  4  1  0  0  0  0
  3  1  1  0  0  0  0
  4  2  2  0  0  0  0
  5  4  1  0  0  0  0
  7  6  1  0  0  0  0
  7  3  2  0  0  0  0
  8  7  1  0  0  0  0
  9  6  1  0  0  0  0
  9 11  1  0  0  0  0
 10 20  1  0  0  0  0
 11 12  1  0  0  0  0
 13  2  1  0  0  0  0
 13 24  1  0  0  0  0
 14 11  2  0  0  0  0
 14 15  1  0  0  0  0
 16 36  1  0  0  0  0
 16 10  2  0  0  0  0
 17 16  1  0  0  0  0
 18 24  2  0  0  0  0
 18 19  1  0  0  0  0
 20 32  2  0  0  0  0
 20 21  1  0  0  0  0
 22 30  1  0  0  0  0
 22 26  2  0  0  0  0
 23 22  1  0  0  0  0
 24 25  1  0  0  0  0
 26 18  1  0  0  0  0
 27 26  1  0  0  0  0
 28 29  1  0  0  0  0
 28 32  1  0  0  0  0
 30 13  2  0  0  0  0
 31 30  1  0  0  0  0
 32 33  1  0  0  0  0
 34  9  2  0  0  0  0
 35 34  1  0  0  0  0
 36 28  2  0  0  0  0
 37 36  1  0  0  0  0
 38 14  1  0  0  0  0
 39 38  1  0  0  0  0
 40 34  1  0  0  0  0
 40 38  2  0  0  0  0
 41 40  1  0  0  0  0
M  CHG  1   1  -1
M  END
