6,10
q = -2.0, confidence = 0.85

 18 18  0  0  1  0  0  0  0  0999 V2000
    1.1778    2.4219   -2.0374 O   0  0  0  0  0  0  0  0  0  0  0  0
   -0.5623    2.7305    0.0769 O   0  0  0  0  0  0  0  0  0  0  0  0
   -0.3718    3.1495   -0.7991 H   0  0  0  0  0  0  0  0  0  0  0  0
    1.0001    1.4511    2.4761 O   0  0  0  0  0  0  0  0  0  0  0  0
    2.4872    1.1195   -0.7040 O   0  0  0  0  0  0  0  0  0  0  0  0
    1.0552   -1.2414   -0.3528 O   0  0  0  0  0  1  0  0  0  0  0  0
    2.9681   -3.0727   -0.2980 O   0  0  0  0  0  0  0  0  0  0  0  0
    2.0740   -2.9729   -0.6919 H   0  0  0  0  0  0  0  0  0  0  0  0
    1.3369    1.7604   -1.0254 C   0  0  0  0  0  0  0  0  0  0  0  0
    0.3385    1.6515    0.0891 C   0  0  1  0  0  3  0  0  0  0  0  0
    1.1687    1.2881    1.2775 C   0  0  0  0  0  0  0  0  0  0  0  0
    2.3702    0.5488    0.6244 C   0  0  1  0  0  0  0  0  0  0  0  0
    3.3020    0.7669    1.1846 H   0  0  0  0  0  0  0  0  0  0  0  0
    2.1252   -0.9677    0.5176 C   0  0  2  0  0  0  0  0  0  0  0  0
    1.9276   -1.3234    1.5636 H   0  0  0  0  0  0  0  0  0  0  0  0
    3.3328   -1.7330   -0.0448 C   0  0  0  0  0  0  0  0  0  0  0  0
    3.6780   -1.2039   -0.9678 H   0  0  0  0  0  0  0  0  0  0  0  0
    4.1685   -1.7256    0.6881 H   0  0  0  0  0  0  0  0  0  0  0  0
  1  9  2  0  0  0  0
  3  2  1  0  0  0  0
  5 12  1  0  0  0  0
  6 14  1  0  0  0  0
  7 16  1  0  0  0  0
  8  7  1  0  0  0  0
  9  5  1  0  0  0  0
  9 10  1  0  0  0  0
 10  2  1  1  0  0  0
 10 11  1  0  0  0  0
 11  4  2  0  0  0  0
 12 13  1  1  0  0  0
 12 11  1  0  0  0  0
 14 12  1  0  0  0  0
 14 15  1  1  0  0  0
 16 14  1  0  0  0  0
 16 18  1  0  0  0  0
 17 16  1  0  0  0  0
M  END
