1,5
q = -1.0

 17 16  0  0  1  0  0  0  0  0999 V2000
   -1.8120   -0.6469    1.8955 O   0  5  0  0  0  0  0  0  0  0  0  0
   -2.4953   -1.6650    3.7737 O   0  0  0  0  0  0  0  0  0  0  0  0
    2.0220   -2.8411    2.0774 O   0  0  0  0  0  0  0  0  0  0  0  0
    3.1453   -0.8948    1.7689 O   0  0  0  0  0  0  0  0  0  0  0  0
    0.8549    0.6445    2.2841 C   0  0  0  0  0  3  0  0  0  0  0  0
    1.7742    1.1643    1.9779 H   0  0  0  0  0  0  0  0  0  0  0  0
    0.1364    1.2492    2.8640 H   0  0  0  0  0  0  0  0  0  0  0  0
    0.8796   -0.7660    2.5019 C   0  0  2  0  0  3  0  0  0  0  0  0
   -0.1165   -1.4378    3.4270 C   0  0  0  0  0  0  0  0  0  0  0  0
    0.0790   -2.5284    3.4471 H   0  0  0  0  0  0  0  0  0  0  0  0
    0.0080   -1.0830    4.4723 H   0  0  0  0  0  0  0  0  0  0  0  0
   -1.5975   -1.2486    3.0508 C   0  0  0  0  0  0  0  0  0  0  0  0
    2.0313   -1.6123    2.1017 C   0  0  0  0  0  0  0  0  0  0  0  0
    4.2928   -1.6688    1.4142 C   0  0  0  0  0  0  0  0  0  0  0  0
    5.1373   -0.9573    1.3689 H   0  0  0  0  0  0  0  0  0  0  0  0
    4.1564   -2.1603    0.4290 H   0  0  0  0  0  0  0  0  0  0  0  0
    4.4868   -2.4555    2.1703 H   0  0  0  0  0  0  0  0  0  0  0  0
  1 12  1  0  0  0  0
  3 13  2  0  0  0  0
  4 13  1  0  0  0  0
  5  8  1  0  0  0  0
  5  7  1  0  0  0  0
  6  5  1  0  0  0  0
  8 13  1  1  0  0  0
  8  9  1  0  0  0  0
  9 10  1  0  0  0  0
  9 11  1  0  0  0  0
 12  9  1  0  0  0  0
 12  2  2  0  0  0  0
 14  4  1  0  0  0  0
 14 17  1  0  0  0  0
 15 14  1  0  0  0  0
 16 14  1  0  0  0  0
M  CHG  1   1  -1
M  END
