1,10
q = -1.0

 27 27  0  0  0  0  0  0  0  0999 V2000
   -2.0039   -2.8916   -0.1973 O   0  0  0  0  0  1  0  0  0  0  0  0
   -4.1515   -2.5538   -0.3227 O   0  0  0  0  0  1  0  0  0  0  0  0
   -5.0249   -0.0832   -0.2664 O   0  0  0  0  0  0  0  0  0  0  0  0
   -4.3604    2.5852    0.4089 O   0  0  0  0  0  0  0  0  0  0  0  0
   -1.7569    3.0580    1.4614 O   0  0  0  0  0  0  0  0  0  0  0  0
    0.7801    2.1943    1.0850 O   0  0  0  0  0  0  0  0  0  0  0  0
    0.5958    0.4312    2.3619 O   0  0  0  0  0  0  0  0  0  0  0  0
   -3.0322   -2.0972   -0.1815 N   0  0  0  0  0  0  0  0  0  0  0  0
    0.1944    1.1850    1.4737 N   0  0  0  0  0  0  0  0  0  0  0  0
   -1.3783   -0.4113    0.3434 C   0  0  0  0  0  3  0  0  0  0  0  0
   -2.7487   -0.7193    0.0745 C   0  0  0  0  0  0  0  0  0  0  0  0
   -3.7918    0.2558    0.1355 C   0  0  0  0  0  0  0  0  0  0  0  0
   -3.4460    1.5644    0.5428 C   0  0  0  0  0  0  0  0  0  0  0  0
   -2.1262    1.8606    0.9825 C   0  0  0  0  0  0  0  0  0  0  0  0
   -1.1228    0.8584    0.8861 C   0  0  0  0  0  0  0  0  0  0  0  0
   -6.1875    0.4822    0.3466 C   0  0  0  0  0  0  0  0  0  0  0  0
   -6.9813   -0.2799    0.2303 H   0  0  0  0  0  0  0  0  0  0  0  0
   -6.4979    1.4239   -0.1472 H   0  0  0  0  0  0  0  0  0  0  0  0
   -6.0157    0.6810    1.4233 H   0  0  0  0  0  0  0  0  0  0  0  0
   -4.3340    3.1663   -0.9023 C   0  0  0  0  0  0  0  0  0  0  0  0
   -5.0449    4.0143   -0.8903 H   0  0  0  0  0  0  0  0  0  0  0  0
   -4.6489    2.4300   -1.6739 H   0  0  0  0  0  0  0  0  0  0  0  0
   -3.3165    3.5331   -1.1589 H   0  0  0  0  0  0  0  0  0  0  0  0
   -2.6776    3.9131    2.1469 C   0  0  0  0  0  0  0  0  0  0  0  0
   -3.2532    4.5458    1.4442 H   0  0  0  0  0  0  0  0  0  0  0  0
   -2.0512    4.5532    2.7964 H   0  0  0  0  0  0  0  0  0  0  0  0
   -3.3859    3.3283    2.7671 H   0  0  0  0  0  0  0  0  0  0  0  0
  1  8  1  0  0  0  0
  2  8  1  0  0  0  0
  3 12  1  0  0  0  0
  3 16  1  0  0  0  0
  4 13  1  0  0  0  0
  5 24  1  0  0  0  0
  6  9  2  0  0  0  0
  8 11  1  0  0  0  0
  9  7  2  0  0  0  0
 10 15  1  0  0  0  0
 11 12  1  0  0  0  0
 11 10  2  0  0  0  0
 12 13  2  0  0  0  0
 13 14  1  0  0  0  0
 14  5  1  0  0  0  0
 15 14  2  0  0  0  0
 15  9  1  0  0  0  0
 16 19  1  0  0  0  0
 17 16  1  0  0  0  0
 18 16  1  0  0  0  0
 20 21  1  0  0  0  0
 20  4  1  0  0  0  0
 22 20  1  0  0  0  0
 23 20  1  0  0  0  0
 24 27  1  0  0  0  0
 24 26  1  0  0  0  0
 25 24  1  0  0  0  0
M  END
