1,16
q = -1.0

 33 33  0  0  0  0  0  0  0  0999 V2000
    1.6666    1.0812   -1.1034 O   0  0  0  0  0  1  0  0  0  0  0  0
    1.5307    2.4671   -0.9859 C   0  0  0  0  0  0  0  0  0  0  0  0
    0.3974    3.0070   -1.8821 C   0  0  0  0  0  0  0  0  0  0  0  0
    0.6435    2.7858   -2.9384 H   0  0  0  0  0  0  0  0  0  0  0  0
    0.2539    4.1032   -1.7710 H   0  0  0  0  0  0  0  0  0  0  0  0
   -0.5542    2.4848   -1.6653 H   0  0  0  0  0  0  0  0  0  0  0  0
    2.8798    3.0803   -1.4077 C   0  0  0  0  0  0  0  0  0  0  0  0
    3.6864    2.7521   -0.7207 H   0  0  0  0  0  0  0  0  0  0  0  0
    2.8493    4.1895   -1.4247 H   0  0  0  0  0  0  0  0  0  0  0  0
    3.1304    2.7177   -2.4233 H   0  0  0  0  0  0  0  0  0  0  0  0
    1.2882    2.8682    0.4962 C   0  0  0  0  0  0  0  0  0  0  0  0
    2.0690    2.3853    1.1196 H   0  0  0  0  0  0  0  0  0  0  0  0
    1.3489    3.9652    0.6370 H   0  0  0  0  0  0  0  0  0  0  0  0
   -0.0271    2.4404    0.9590 N   0  0  0  0  0  0  0  0  0  0  0  0
   -1.8045    1.2180    1.1967 N   0  0  0  0  0  0  0  0  0  0  0  0
   -0.5111    1.1784    0.7372 C   0  0  0  0  0  2  0  0  0  0  0  0
   -0.9932    3.2522    1.5345 C   0  0  0  0  0  0  0  0  0  0  0  0
   -0.7997    4.2986    1.7874 H   0  0  0  0  0  0  0  0  0  0  0  0
   -2.1147    2.4800    1.6895 C   0  0  0  0  0  0  0  0  0  0  0  0
   -3.0995    2.7202    2.0996 H   0  0  0  0  0  0  0  0  0  0  0  0
   -2.7714    0.1369    1.0350 C   0  0  0  0  0  0  0  0  0  0  0  0
   -2.1853   -0.7301    0.6787 H   0  0  0  0  0  0  0  0  0  0  0  0
   -3.2046   -0.1083    2.0291 H   0  0  0  0  0  0  0  0  0  0  0  0
   -3.8632    0.4659    0.0155 C   0  0  0  0  0  0  0  0  0  0  0  0
   -3.3560    0.8227   -0.9050 H   0  0  0  0  0  0  0  0  0  0  0  0
   -4.5090    1.2912    0.3910 H   0  0  0  0  0  0  0  0  0  0  0  0
   -4.7150   -0.7588   -0.3242 C   0  0  0  0  0  0  0  0  0  0  0  0
   -4.0426   -1.5379   -0.7450 H   0  0  0  0  0  0  0  0  0  0  0  0
   -5.1497   -1.1896    0.6064 H   0  0  0  0  0  0  0  0  0  0  0  0
   -5.8296   -0.4508   -1.3239 C   0  0  0  0  0  0  0  0  0  0  0  0
   -6.5308    0.3138   -0.9282 H   0  0  0  0  0  0  0  0  0  0  0  0
   -6.4229   -1.3550   -1.5674 H   0  0  0  0  0  0  0  0  0  0  0  0
   -5.4113   -0.0577   -2.2733 H   0  0  0  0  0  0  0  0  0  0  0  0
  1  2  1  0  0  0  0
  2 11  1  0  0  0  0
  3  5  1  0  0  0  0
  3  6  1  0  0  0  0
  3  2  1  0  0  0  0
  4  3  1  0  0  0  0
  7  2  1  0  0  0  0
  7  8  1  0  0  0  0
  9  7  1  0  0  0  0
 10  7  1  0  0  0  0
 11 13  1  0  0  0  0
 11 14  1  0  0  0  0
 11 12  1  0  0  0  0
 14 17  1  0  0  0  0
 15 19  1  0  0  0  0
 16 14  1  0  0  0  0
 16 15  1  0  0  0  0
 17 19  2  0  0  0  0
 17 18  1  0  0  0  0
 19 20  1  0  0  0  0
 21 15  1  0  0  0  0
 21 23  1  0  0  0  0
 22 21  1  0  0  0  0
 24 26  1  0  0  0  0
 24 21  1  0  0  0  0
 25 24  1  0  0  0  0
 27 24  1  0  0  0  0
 27 29  1  0  0  0  0
 28 27  1  0  0  0  0
 30 31  1  0  0  0  0
 30 27  1  0  0  0  0
 32 30  1  0  0  0  0
 33 30  1  0  0  0  0
M  END
