1,9
q = -1.0

 21 21  0  0  1  0  0  0  0  0999 V2000
    1.3191   -0.2369   -0.0813 C   0  0  0  0  0  2  0  0  0  0  0  0
    1.6083   -1.6143   -0.1822 C   0  0  0  0  0  3  0  0  0  0  0  0
    2.8950   -2.1506    0.0057 C   0  0  0  0  0  0  0  0  0  0  0  0
    3.9499   -1.2642    0.3103 C   0  0  0  0  0  0  0  0  0  0  0  0
    3.7073    0.1052    0.4045 C   0  0  0  0  0  0  0  0  0  0  0  0
    2.4070    0.6240    0.2060 C   0  0  0  0  0  0  0  0  0  0  0  0
    2.2906    2.0332    0.3068 N   0  0  0  0  0  0  0  0  0  0  0  0
    1.2189    2.8219    0.0909 C   0  0  1  0  0  3  0  0  0  0  0  0
    0.0766    2.3946   -0.2146 O   0  0  0  0  0  1  0  0  0  0  0  0
    3.1459   -3.6327   -0.1206 C   0  0  0  0  0  0  0  0  0  0  0  0
    1.4108    4.3120    0.2281 C   0  0  0  0  0  0  0  0  0  0  0  0
    3.1576    2.5169    0.5475 H   0  0  0  0  0  0  0  0  0  0  0  0
    0.7713   -2.2876   -0.4199 H   0  0  0  0  0  0  0  0  0  0  0  0
    4.9693   -1.6488    0.4701 H   0  0  0  0  0  0  0  0  0  0  0  0
    4.5368    0.7964    0.6327 H   0  0  0  0  0  0  0  0  0  0  0  0
    2.2017   -4.1898   -0.2733 H   0  0  0  0  0  0  0  0  0  0  0  0
    3.6416   -4.0399    0.7854 H   0  0  0  0  0  0  0  0  0  0  0  0
    3.8135   -3.8579   -0.9796 H   0  0  0  0  0  0  0  0  0  0  0  0
    2.4477    4.5982    0.4864 H   0  0  0  0  0  0  0  0  0  0  0  0
    0.7234    4.6953    1.0080 H   0  0  0  0  0  0  0  0  0  0  0  0
    1.1263    4.8015   -0.7242 H   0  0  0  0  0  0  0  0  0  0  0  0
  1  6  1  0  0  0  0
  2  1  1  0  0  0  0
  2  3  1  0  0  0  0
  3  4  2  0  0  0  0
  4  5  1  0  0  0  0
  4 14  1  0  0  0  0
  5 15  1  0  0  0  0
  6  7  1  0  0  0  0
  6  5  2  0  0  0  0
  7 12  1  0  0  0  0
  8  9  1  1  0  0  0
  8 11  1  0  0  0  0
  8  7  1  0  0  0  0
 10  3  1  0  0  0  0
 10 17  1  0  0  0  0
 11 19  1  0  0  0  0
 11 20  1  0  0  0  0
 13  2  1  0  0  0  0
 16 10  1  0  0  0  0
 18 10  1  0  0  0  0
 21 11  1  0  0  0  0
M  END
