1,4
q = -1.0

 40 42  0  0  0  0  0  0  0  0999 V2000
   -2.0552   -0.2413   -0.9283 O   0  5  0  0  0  0  0  0  0  0  0  0
   -0.5927   -2.5855   -0.0939 N   0  0  0  0  0  0  0  0  0  0  0  0
    1.5249   -1.9829   -0.0501 N   0  0  0  0  0  0  0  0  0  0  0  0
    0.2455   -1.5382    0.0832 C   0  0  0  0  0  2  0  0  0  0  0  0
    0.1410   -3.8612   -0.2129 C   0  0  0  0  0  0  0  0  0  0  0  0
   -0.2785   -4.4723   -1.0352 H   0  0  0  0  0  0  0  0  0  0  0  0
    0.0466   -4.4429    0.7299 H   0  0  0  0  0  0  0  0  0  0  0  0
    1.5812   -3.3990   -0.4600 C   0  0  0  0  0  0  0  0  0  0  0  0
    2.3258   -3.9626    0.1347 H   0  0  0  0  0  0  0  0  0  0  0  0
    1.8766   -3.4673   -1.5310 H   0  0  0  0  0  0  0  0  0  0  0  0
   -2.0103   -2.5472   -0.1510 C   0  0  0  0  0  0  0  0  0  0  0  0
   -2.7447   -3.7067    0.1622 C   0  0  0  0  0  0  0  0  0  0  0  0
   -2.2174   -4.5993    0.5306 H   0  0  0  0  0  0  0  0  0  0  0  0
   -4.1384   -3.7481    0.0182 C   0  0  0  0  0  0  0  0  0  0  0  0
   -4.6920   -4.6633    0.2730 H   0  0  0  0  0  0  0  0  0  0  0  0
   -4.8056   -2.6062   -0.4586 C   0  0  0  0  0  0  0  0  0  0  0  0
   -5.8996   -2.6194   -0.5857 H   0  0  0  0  0  0  0  0  0  0  0  0
   -4.0904   -1.4471   -0.7697 C   0  0  0  0  0  0  0  0  0  0  0  0
   -4.6034   -0.5484   -1.1448 H   0  0  0  0  0  0  0  0  0  0  0  0
   -2.6743   -1.3541   -0.6208 C   0  0  0  0  0  0  0  0  0  0  0  0
    2.6799   -1.1468   -0.1521 C   0  0  0  0  0  0  0  0  0  0  0  0
    3.6750   -1.2321    0.8480 C   0  0  0  0  0  0  0  0  0  0  0  0
    4.8046   -0.4002    0.7411 C   0  0  0  0  0  0  0  0  0  0  0  0
    5.5758   -0.4496    1.5267 H   0  0  0  0  0  0  0  0  0  0  0  0
    4.9635    0.5035   -0.3225 C   0  0  0  0  0  0  0  0  0  0  0  0
    3.9593    0.5505   -1.3091 C   0  0  0  0  0  0  0  0  0  0  0  0
    4.0705    1.2437   -2.1591 H   0  0  0  0  0  0  0  0  0  0  0  0
    2.8177   -0.2661   -1.2551 C   0  0  0  0  0  0  0  0  0  0  0  0
    3.5202   -2.1679    2.0188 C   0  0  0  0  0  0  0  0  0  0  0  0
    2.4662   -2.2157    2.3579 H   0  0  0  0  0  0  0  0  0  0  0  0
    4.1485   -1.8461    2.8711 H   0  0  0  0  0  0  0  0  0  0  0  0
    3.8282   -3.2050    1.7617 H   0  0  0  0  0  0  0  0  0  0  0  0
    6.1677    1.4072   -0.4120 C   0  0  0  0  0  0  0  0  0  0  0  0
    5.8718    2.4759   -0.3543 H   0  0  0  0  0  0  0  0  0  0  0  0
    6.7015    1.2756   -1.3761 H   0  0  0  0  0  0  0  0  0  0  0  0
    6.8882    1.2124    0.4056 H   0  0  0  0  0  0  0  0  0  0  0  0
    1.7626   -0.1755   -2.3245 C   0  0  0  0  0  0  0  0  0  0  0  0
    0.8587    0.3471   -1.9327 H   0  0  0  0  0  0  0  0  0  0  0  0
    1.4130   -1.1740   -2.6551 H   0  0  0  0  0  0  0  0  0  0  0  0
    2.1360    0.3760   -3.2081 H   0  0  0  0  0  0  0  0  0  0  0  0
  1 20  1  0  0  0  0
  2  4  1  0  0  0  0
  3  4  1  0  0  0  0
  5  2  1  0  0  0  0
  5  7  1  0  0  0  0
  6  5  1  0  0  0  0
  8  5  1  0  0  0  0
  8  3  1  0  0  0  0
  8  9  1  0  0  0  0
 10  8  1  0  0  0  0
 11  2  1  0  0  0  0
 11 12  1  0  0  0  0
 12 13  1  0  0  0  0
 14 12  2  0  0  0  0
 14 15  1  0  0  0  0
 16 14  1  0  0  0  0
 17 16  1  0  0  0  0
 18 20  1  0  0  0  0
 18 16  2  0  0  0  0
 19 18  1  0  0  0  0
 20 11  2  0  0  0  0
 21  3  1  0  0  0  0
 21 22  1  0  0  0  0
 22 29  1  0  0  0  0
 23 22  2  0  0  0  0
 23 24  1  0  0  0  0
 25 23  1  0  0  0  0
 26 28  1  0  0  0  0
 26 25  2  0  0  0  0
 27 26  1  0  0  0  0
 28 21  2  0  0  0  0
 29 30  1  0  0  0  0
 29 31  1  0  0  0  0
 32 29  1  0  0  0  0
 33 34  1  0  0  0  0
 33 25  1  0  0  0  0
 33 36  1  0  0  0  0
 35 33  1  0  0  0  0
 37 38  1  0  0  0  0
 37 28  1  0  0  0  0
 39 37  1  0  0  0  0
 40 37  1  0  0  0  0
M  CHG  1   1  -1
M  END
