2,5
q = -2.0, confidence = 0.792

 17 17  0  0  0  0  0  0  0  0999 V2000
   -1.3054    3.8060   -0.1809 O   0  5  0  0  0  0  0  0  0  0  0  0
   -1.7562    1.5989    0.1035 O   0  0  0  0  0  0  0  0  0  0  0  0
   -0.9234    2.6496   -0.1456 C   0  0  0  0  0  0  0  0  0  0  0  0
    0.4669    2.1769   -0.3458 C   0  0  0  0  0  0  0  0  0  0  0  0
    0.7179    0.8378   -0.2332 C   0  0  0  0  0  3  0  0  0  0  0  0
    2.0962    0.3116   -0.2313 C   0  0  0  0  0  0  0  0  0  0  0  0
    2.4127   -0.9999   -0.6673 C   0  0  0  0  0  0  0  0  0  0  0  0
    3.7275   -1.4847   -0.6410 C   0  0  0  0  0  0  0  0  0  0  0  0
    4.7698   -0.6794   -0.1562 C   0  0  0  0  0  0  0  0  0  0  0  0
    4.4788    0.6154    0.3040 C   0  0  0  0  0  0  0  0  0  0  0  0
    3.1661    1.1010    0.2684 C   0  0  0  0  0  0  0  0  0  0  0  0
    1.2346    2.9432   -0.5574 H   0  0  0  0  0  0  0  0  0  0  0  0
    1.6094   -1.6514   -1.0354 H   0  0  0  0  0  0  0  0  0  0  0  0
    3.9386   -2.5048   -0.9972 H   0  0  0  0  0  0  0  0  0  0  0  0
    5.8010   -1.0624   -0.1258 H   0  0  0  0  0  0  0  0  0  0  0  0
    5.2834    1.2524    0.7027 H   0  0  0  0  0  0  0  0  0  0  0  0
    2.9488    2.1084    0.6535 H   0  0  0  0  0  0  0  0  0  0  0  0
  1  3  1  0  0  0  0
  3  2  2  0  0  0  0
  4  5  2  0  0  0  0
  4  3  1  0  0  0  0
  5  6  1  0  0  0  0
  6 11  1  0  0  0  0
  7  8  1  0  0  0  0
  7  6  2  0  0  0  0
  8  9  2  0  0  0  0
  9 15  1  0  0  0  0
  9 10  1  0  0  0  0
 10 16  1  0  0  0  0
 11 10  2  0  0  0  0
 11 17  1  0  0  0  0
 12  4  1  0  0  0  0
 13  7  1  0  0  0  0
 14  8  1  0  0  0  0
M  CHG  1   1  -1
M  END
