1,3
q = -1.0, confidence = 0.0

 20 19  0  0  1  0  0  0  0  0999 V2000
    0.7405   -1.5232   -0.2192 O   0  0  0  0  0  1  0  0  0  0  0  0
    2.6911   -0.3242   -0.4251 N   0  0  0  0  0  0  0  0  0  0  0  0
    0.6258    0.2170   -1.7387 C   0  0  0  0  0  3  0  0  0  0  0  0
    1.4168   -0.5785   -0.8130 C   0  0  2  0  0  3  0  0  0  0  0  0
    3.2281   -0.9913    0.7652 C   0  0  0  0  0  0  0  0  0  0  0  0
    3.9907   -2.2735    0.4352 C   0  0  0  0  0  0  0  0  0  0  0  0
    3.4992    0.7107   -1.0643 C   0  0  0  0  0  0  0  0  0  0  0  0
    3.3787    2.0829   -0.3971 C   0  0  0  0  0  0  0  0  0  0  0  0
    1.0230    1.1807   -2.0898 H   0  0  0  0  0  0  0  0  0  0  0  0
    0.1517   -0.3803   -2.5380 H   0  0  0  0  0  0  0  0  0  0  0  0
    2.3780   -1.2123    1.4389 H   0  0  0  0  0  0  0  0  0  0  0  0
    3.8832   -0.2656    1.2909 H   0  0  0  0  0  0  0  0  0  0  0  0
    4.4095   -2.7238    1.3577 H   0  0  0  0  0  0  0  0  0  0  0  0
    3.3139   -3.0144   -0.0338 H   0  0  0  0  0  0  0  0  0  0  0  0
    4.8332   -2.0813   -0.2606 H   0  0  0  0  0  0  0  0  0  0  0  0
    3.2058    0.7677   -2.1317 H   0  0  0  0  0  0  0  0  0  0  0  0
    4.5547    0.3647   -1.0510 H   0  0  0  0  0  0  0  0  0  0  0  0
    4.0431    2.8154   -0.8980 H   0  0  0  0  0  0  0  0  0  0  0  0
    2.3409    2.4676   -0.4407 H   0  0  0  0  0  0  0  0  0  0  0  0
    3.6715    2.0373    0.6713 H   0  0  0  0  0  0  0  0  0  0  0  0
  2  5  1  0  0  0  0
  3  4  1  0  0  0  0
  4  2  1  0  0  0  0
  4  1  1  1  0  0  0
  5 12  1  0  0  0  0
  5 11  1  0  0  0  0
  6  5  1  0  0  0  0
  6 13  1  0  0  0  0
  7 17  1  0  0  0  0
  7  2  1  0  0  0  0
  7  8  1  0  0  0  0
  8 20  1  0  0  0  0
  9  3  1  0  0  0  0
 10  3  1  0  0  0  0
 14  6  1  0  0  0  0
 15  6  1  0  0  0  0
 16  7  1  0  0  0  0
 18  8  1  0  0  0  0
 19  8  1  0  0  0  0
M  END
