3,4
q = -2.0, confidence = 0.924

 35 36  0  0  1  0  0  0  0  0999 V2000
   -0.9338    3.5176    0.2809 Cl  0  0  0  0  0  0  0  0  0  0  0  0
   -5.2708    0.3198   -0.4232 Cl  0  0  0  0  0  0  0  0  0  0  0  0
    0.5189    1.0015    0.4049 O   0  5  0  0  0  0  0  0  0  0  0  0
    0.8775   -1.5363   -0.4690 C   0  0  1  0  0  3  0  0  0  0  0  0
    1.0730   -0.8361   -1.7070 C   0  0  0  0  0  0  0  0  0  0  0  0
    2.4576   -0.8578   -2.0298 C   0  0  0  0  0  0  0  0  0  0  0  0
    3.1358   -1.5591   -0.9932 C   0  0  0  0  0  0  0  0  0  0  0  0
    2.1621   -1.9917   -0.0435 C   0  0  0  0  0  0  0  0  0  0  0  0
   -0.4475   -1.7345    0.2519 C   0  0  0  0  0  0  0  0  0  0  0  0
   -0.1899   -1.9222    1.7842 C   0  0  0  0  0  0  0  0  0  0  0  0
   -1.4347   -1.9993    2.6665 C   0  0  0  0  0  0  0  0  0  0  0  0
   -1.0848   -3.0387   -0.3173 C   0  0  0  0  0  0  0  0  0  0  0  0
   -1.3236   -3.0866   -1.8266 C   0  0  0  0  0  0  0  0  0  0  0  0
   -1.3450   -0.5015    0.0673 C   0  0  0  0  0  0  0  0  0  0  0  0
   -2.7328   -0.6185   -0.1207 C   0  0  0  0  0  0  0  0  0  0  0  0
   -3.5538    0.5173   -0.1855 C   0  0  0  0  0  0  0  0  0  0  0  0
   -3.0191    1.8069   -0.0622 C   0  0  0  0  0  0  0  0  0  0  0  0
   -1.6395    1.9394    0.1326 C   0  0  0  0  0  0  0  0  0  0  0  0
   -0.7907    0.8027    0.2072 C   0  0  0  0  0  0  0  0  0  0  0  0
    0.2881   -0.3086   -2.2637 H   0  0  0  0  0  0  0  0  0  0  0  0
    2.9259   -0.3597   -2.8856 H   0  0  0  0  0  0  0  0  0  0  0  0
    4.2197   -1.7050   -0.9099 H   0  0  0  0  0  0  0  0  0  0  0  0
    2.3852   -2.5156    0.8911 H   0  0  0  0  0  0  0  0  0  0  0  0
   -3.2025   -1.6055   -0.2080 H   0  0  0  0  0  0  0  0  0  0  0  0
   -3.6584    2.6969   -0.1186 H   0  0  0  0  0  0  0  0  0  0  0  0
    0.4057   -2.8514    1.9109 H   0  0  0  0  0  0  0  0  0  0  0  0
    0.4598   -1.0932    2.1341 H   0  0  0  0  0  0  0  0  0  0  0  0
   -0.4081   -3.8701   -0.0272 H   0  0  0  0  0  0  0  0  0  0  0  0
   -2.0342   -3.2335    0.2226 H   0  0  0  0  0  0  0  0  0  0  0  0
   -1.1407   -2.1627    3.7221 H   0  0  0  0  0  0  0  0  0  0  0  0
   -2.0261   -1.0634    2.6267 H   0  0  0  0  0  0  0  0  0  0  0  0
   -2.1070   -2.8340    2.3819 H   0  0  0  0  0  0  0  0  0  0  0  0
   -1.8344   -4.0295   -2.1062 H   0  0  0  0  0  0  0  0  0  0  0  0
   -1.9580   -2.2478   -2.1769 H   0  0  0  0  0  0  0  0  0  0  0  0
   -0.3726   -3.0438   -2.3933 H   0  0  0  0  0  0  0  0  0  0  0  0
  2 16  1  0  0  0  0
  4  8  1  0  0  0  0
  4  9  1  1  0  0  0
  5  4  1  0  0  0  0
  6  5  2  0  0  0  0
  6  7  1  0  0  0  0
  7 22  1  0  0  0  0
  7  8  2  0  0  0  0
  8 23  1  0  0  0  0
  9 10  1  0  0  0  0
 10 26  1  0  0  0  0
 10 27  1  0  0  0  0
 10 11  1  0  0  0  0
 11 30  1  0  0  0  0
 12 28  1  0  0  0  0
 12 29  1  0  0  0  0
 12  9  1  0  0  0  0
 13 12  1  0  0  0  0
 14 19  1  0  0  0  0
 14  9  1  0  0  0  0
 15 14  2  0  0  0  0
 16 15  1  0  0  0  0
 16 17  2  0  0  0  0
 17 18  1  0  0  0  0
 18 19  2  0  0  0  0
 18  1  1  0  0  0  0
 19  3  1  0  0  0  0
 20  5  1  0  0  0  0
 21  6  1  0  0  0  0
 24 15  1  0  0  0  0
 25 17  1  0  0  0  0
 31 11  1  0  0  0  0
 32 11  1  0  0  0  0
 33 13  1  0  0  0  0
 34 13  1  0  0  0  0
 35 13  1  0  0  0  0
M  CHG  1   3  -1
M  END
