2,7
q = -1.0, confidence = 0.002

 25 25  0  0  1  0  0  0  0  0999 V2000
   -1.1486   -0.2957   -0.7979 S   0  0  0  0  0  0  0  0  0  0  0  0
    1.7051    1.8358   -0.1070 O   0  0  0  0  0  1  0  0  0  0  0  0
   -1.0119    0.9138   -1.6711 O   0  0  0  0  0  0  0  0  0  0  0  0
   -0.8844   -1.6559   -1.3329 O   0  0  0  0  0  0  0  0  0  0  0  0
    0.6160    2.3186    0.2557 C   0  0  1  0  0  3  0  0  0  0  0  0
   -0.3026    1.4547    1.0743 C   0  0  0  0  0  0  0  0  0  0  0  0
   -0.1225   -0.0017    0.6485 C   0  0  0  0  0  3  0  0  0  0  0  0
    0.2500    3.7204   -0.1013 C   0  0  0  0  0  0  0  0  0  0  0  0
   -2.8542   -0.3048   -0.1905 C   0  0  0  0  0  0  0  0  0  0  0  0
   -3.3510   -1.4721    0.4114 C   0  0  0  0  0  0  0  0  0  0  0  0
   -4.6642   -1.4742    0.9014 C   0  0  0  0  0  0  0  0  0  0  0  0
   -5.4662   -0.3259    0.7777 C   0  0  0  0  0  0  0  0  0  0  0  0
   -4.9616    0.8269    0.1550 C   0  0  0  0  0  0  0  0  0  0  0  0
   -3.6466    0.8431   -0.3370 C   0  0  0  0  0  0  0  0  0  0  0  0
   -1.3495    1.8302    1.0610 H   0  0  0  0  0  0  0  0  0  0  0  0
    0.0490    1.5700    2.1269 H   0  0  0  0  0  0  0  0  0  0  0  0
   -0.4685   -0.7195    1.4171 H   0  0  0  0  0  0  0  0  0  0  0  0
    1.1236    4.2740   -0.4888 H   0  0  0  0  0  0  0  0  0  0  0  0
   -0.5194    3.6449   -0.9006 H   0  0  0  0  0  0  0  0  0  0  0  0
   -0.2144    4.2502    0.7540 H   0  0  0  0  0  0  0  0  0  0  0  0
   -2.7142   -2.3674    0.4701 H   0  0  0  0  0  0  0  0  0  0  0  0
   -5.0696   -2.3819    1.3732 H   0  0  0  0  0  0  0  0  0  0  0  0
   -6.4978   -0.3349    1.1608 H   0  0  0  0  0  0  0  0  0  0  0  0
   -5.5987    1.7172    0.0422 H   0  0  0  0  0  0  0  0  0  0  0  0
   -3.2312    1.7181   -0.8578 H   0  0  0  0  0  0  0  0  0  0  0  0
  1  9  1  0  0  0  0
  1  7  1  0  0  0  0
  3  1  2  0  0  0  0
  4  1  2  0  0  0  0
  5  2  1  1  0  0  0
  5  6  1  0  0  0  0
  6 16  1  0  0  0  0
  7  6  1  0  0  0  0
  7 17  1  0  0  0  0
  8  5  1  0  0  0  0
  8 20  1  0  0  0  0
  9 10  1  0  0  0  0
 10 21  1  0  0  0  0
 10 11  2  0  0  0  0
 11 22  1  0  0  0  0
 12 11  1  0  0  0  0
 12 23  1  0  0  0  0
 13 12  2  0  0  0  0
 14  9  2  0  0  0  0
 14 13  1  0  0  0  0
 15  6  1  0  0  0  0
 18  8  1  0  0  0  0
 19  8  1  0  0  0  0
 24 13  1  0  0  0  0
 25 14  1  0  0  0  0
M  END
