1,4
q = -1.0

 17 16  0  0  1  0  0  0  0  0999 V2000
    1.9765    0.3279   -0.3139 O   0  0  0  0  0  1  0  0  0  0  0  0
    4.1618    0.2582    0.1438 O   0  0  0  0  0  0  0  0  0  0  0  0
   -0.7092   -0.3976    3.0056 C   0  0  0  0  0  0  0  0  0  0  0  0
    0.0921    0.0699    2.0224 C   0  0  0  0  0  3  0  0  0  0  0  0
    1.3991    0.7177    2.4605 C   0  0  0  0  0  0  0  0  0  0  0  0
    2.6764    0.0115    1.9843 C   0  0  0  0  0  0  0  0  0  0  0  0
    2.8924    0.2048    0.5146 C   0  0  1  0  0  3  0  0  0  0  0  0
    4.4412    0.4461   -1.2644 C   0  0  0  0  0  0  0  0  0  0  0  0
   -0.4211   -0.2969    4.0682 H   0  0  0  0  0  0  0  0  0  0  0  0
   -1.6698   -0.8997    2.8330 H   0  0  0  0  0  0  0  0  0  0  0  0
    1.4532    1.7764    2.1242 H   0  0  0  0  0  0  0  0  0  0  0  0
    1.4265    0.7509    3.5699 H   0  0  0  0  0  0  0  0  0  0  0  0
    3.5759    0.3698    2.5216 H   0  0  0  0  0  0  0  0  0  0  0  0
    2.6113   -1.0818    2.1825 H   0  0  0  0  0  0  0  0  0  0  0  0
    5.5406    0.4454   -1.3492 H   0  0  0  0  0  0  0  0  0  0  0  0
    3.9979   -0.3758   -1.8574 H   0  0  0  0  0  0  0  0  0  0  0  0
    4.0203    1.4090   -1.6110 H   0  0  0  0  0  0  0  0  0  0  0  0
  2  7  1  0  0  0  0
  3  9  1  0  0  0  0
  4  5  1  0  0  0  0
  4  3  2  0  0  0  0
  5 12  1  0  0  0  0
  6 14  1  0  0  0  0
  6  5  1  0  0  0  0
  6 13  1  0  0  0  0
  7  1  1  1  0  0  0
  7  6  1  0  0  0  0
  8  2  1  0  0  0  0
 10  3  1  0  0  0  0
 11  5  1  0  0  0  0
 15  8  1  0  0  0  0
 16  8  1  0  0  0  0
 17  8  1  0  0  0  0
M  END
