3,4
q = -1.0

 38 41  0  0  0  0  0  0  0  0999 V2000
   -2.7609    1.5552   -0.1347 N   0  0  0  0  0  0  0  0  0  0  0  0
   -0.6362    1.8663   -0.6300 N   0  0  0  0  0  0  0  0  0  0  0  0
   -3.3527   -1.0156   -1.1365 O   0  5  0  0  0  0  0  0  0  0  0  0
   -1.5679    0.8976   -0.3544 C   0  0  0  0  0  2  0  0  0  0  0  0
   -1.2266    3.1293   -0.6267 C   0  0  0  0  0  0  0  0  0  0  0  0
   -2.5954    2.9363   -0.3257 C   0  0  0  0  0  0  0  0  0  0  0  0
   -3.4889    4.0188   -0.3248 C   0  0  0  0  0  0  0  0  0  0  0  0
   -4.5608    3.8764   -0.1390 H   0  0  0  0  0  0  0  0  0  0  0  0
   -2.9599    5.2899   -0.5965 C   0  0  0  0  0  0  0  0  0  0  0  0
   -3.6363    6.1573   -0.6047 H   0  0  0  0  0  0  0  0  0  0  0  0
   -1.5870    5.4806   -0.8647 C   0  0  0  0  0  0  0  0  0  0  0  0
   -1.2104    6.4942   -1.0663 H   0  0  0  0  0  0  0  0  0  0  0  0
   -0.6948    4.3986   -0.8905 C   0  0  0  0  0  0  0  0  0  0  0  0
    0.3736    4.5349   -1.1065 H   0  0  0  0  0  0  0  0  0  0  0  0
   -3.9852    0.8999    0.1896 C   0  0  0  0  0  0  0  0  0  0  0  0
   -4.2441   -0.3750   -0.4106 C   0  0  0  0  0  0  0  0  0  0  0  0
   -5.5295   -0.9396   -0.1745 C   0  0  0  0  0  0  0  0  0  0  0  0
   -5.7545   -1.8966   -0.6686 H   0  0  0  0  0  0  0  0  0  0  0  0
   -6.4617   -0.3160    0.6605 C   0  0  0  0  0  0  0  0  0  0  0  0
   -7.4418   -0.7901    0.8255 H   0  0  0  0  0  0  0  0  0  0  0  0
   -6.1481    0.8910    1.3119 C   0  0  0  0  0  0  0  0  0  0  0  0
   -6.8640    1.3629    1.9998 H   0  0  0  0  0  0  0  0  0  0  0  0
   -4.9046    1.4927    1.0705 C   0  0  0  0  0  0  0  0  0  0  0  0
   -4.6379    2.4311    1.5774 H   0  0  0  0  0  0  0  0  0  0  0  0
    0.7518    1.6251   -0.9842 C   0  0  0  0  0  0  0  0  0  0  0  0
    0.9383    2.0793   -1.9803 H   0  0  0  0  0  0  0  0  0  0  0  0
    0.8492    0.5308   -1.1305 H   0  0  0  0  0  0  0  0  0  0  0  0
    1.7638    2.1297    0.0237 C   0  0  0  0  0  0  0  0  0  0  0  0
    1.4038    2.5985    1.3008 C   0  0  0  0  0  0  0  0  0  0  0  0
    0.3421    2.6565    1.5815 H   0  0  0  0  0  0  0  0  0  0  0  0
    2.3889    2.9994    2.2182 C   0  0  0  0  0  0  0  0  0  0  0  0
    2.0888    3.3628    3.2131 H   0  0  0  0  0  0  0  0  0  0  0  0
    3.7461    2.9399    1.8698 C   0  0  0  0  0  0  0  0  0  0  0  0
    4.5182    3.2493    2.5903 H   0  0  0  0  0  0  0  0  0  0  0  0
    4.1135    2.4911    0.5907 C   0  0  0  0  0  0  0  0  0  0  0  0
    5.1748    2.4359    0.3048 H   0  0  0  0  0  0  0  0  0  0  0  0
    3.1289    2.0959   -0.3236 C   0  0  0  0  0  0  0  0  0  0  0  0
    3.4223    1.7367   -1.3221 H   0  0  0  0  0  0  0  0  0  0  0  0
  1 15  1  0  0  0  0
  2  5  1  0  0  0  0
  2  4  1  0  0  0  0
  3 16  1  0  0  0  0
  4  1  1  0  0  0  0
  5  6  1  0  0  0  0
  6  7  2  0  0  0  0
  6  1  1  0  0  0  0
  7  8  1  0  0  0  0
  9  7  1  0  0  0  0
 10  9  1  0  0  0  0
 11  9  2  0  0  0  0
 12 11  1  0  0  0  0
 13 11  1  0  0  0  0
 13  5  2  0  0  0  0
 14 13  1  0  0  0  0
 15 23  1  0  0  0  0
 16 17  1  0  0  0  0
 16 15  2  0  0  0  0
 17 19  2  0  0  0  0
 18 17  1  0  0  0  0
 19 20  1  0  0  0  0
 19 21  1  0  0  0  0
 21 22  1  0  0  0  0
 23 21  2  0  0  0  0
 23 24  1  0  0  0  0
 25  2  1  0  0  0  0
 25 28  1  0  0  0  0
 26 25  1  0  0  0  0
 27 25  1  0  0  0  0
 28 29  1  0  0  0  0
 29 30  1  0  0  0  0
 29 31  2  0  0  0  0
 31 32  1  0  0  0  0
 33 31  1  0  0  0  0
 33 34  1  0  0  0  0
 35 33  2  0  0  0  0
 36 35  1  0  0  0  0
 37 28  2  0  0  0  0
 37 35  1  0  0  0  0
 38 37  1  0  0  0  0
M  CHG  1   3  -1
M  END
