2,6
q = -2.0, confidence = 0.528

 29 29  0  0  1  0  0  0  0  0999 V2000
   -2.5662    2.3193    0.4239 Si  0  0  0  0  0  0  0  0  0  0  0  0
    1.2067    0.7304    0.7101 O   0  5  0  0  0  0  0  0  0  0  0  0
    0.2556    2.4836    1.7510 O   0  0  0  0  0  0  0  0  0  0  0  0
    0.1617    1.5373    0.9720 C   0  0  0  0  0  0  0  0  0  0  0  0
   -1.0961    1.1094    0.2790 C   0  0  2  0  0  3  0  0  0  0  0  0
   -1.0019   -0.0906   -0.3850 C   0  0  0  0  0  2  0  0  0  0  0  0
   -2.1788   -0.8549   -0.8359 C   0  0  0  0  0  0  0  0  0  0  0  0
   -3.1694   -1.1802    0.1289 C   0  0  0  0  0  0  0  0  0  0  0  0
   -3.0427   -0.8050    1.1553 H   0  0  0  0  0  0  0  0  0  0  0  0
   -4.2779   -1.9720   -0.1973 C   0  0  0  0  0  0  0  0  0  0  0  0
   -5.0251   -2.2060    0.5768 H   0  0  0  0  0  0  0  0  0  0  0  0
   -4.4400   -2.4594   -1.5041 C   0  0  0  0  0  0  0  0  0  0  0  0
   -5.3120   -3.0776   -1.7652 H   0  0  0  0  0  0  0  0  0  0  0  0
   -3.4714   -2.1512   -2.4726 C   0  0  0  0  0  0  0  0  0  0  0  0
   -3.5863   -2.5226   -3.5027 H   0  0  0  0  0  0  0  0  0  0  0  0
   -2.3517   -1.3751   -2.1417 C   0  0  0  0  0  0  0  0  0  0  0  0
   -1.6098   -1.1566   -2.9205 H   0  0  0  0  0  0  0  0  0  0  0  0
   -1.9082    4.0393   -0.0279 C   0  0  0  0  0  0  0  0  0  0  0  0
   -1.5692    4.0680   -1.0846 H   0  0  0  0  0  0  0  0  0  0  0  0
   -1.0523    4.2994    0.6245 H   0  0  0  0  0  0  0  0  0  0  0  0
   -2.7013    4.8060    0.0938 H   0  0  0  0  0  0  0  0  0  0  0  0
   -3.2034    2.3246    2.2077 C   0  0  0  0  0  0  0  0  0  0  0  0
   -2.3582    2.5370    2.8930 H   0  0  0  0  0  0  0  0  0  0  0  0
   -3.6412    1.3434    2.4841 H   0  0  0  0  0  0  0  0  0  0  0  0
   -3.9818    3.1012    2.3576 H   0  0  0  0  0  0  0  0  0  0  0  0
   -3.9649    1.9152   -0.7900 C   0  0  0  0  0  0  0  0  0  0  0  0
   -3.5682    1.7388   -1.8108 H   0  0  0  0  0  0  0  0  0  0  0  0
   -4.6577    2.7816   -0.8404 H   0  0  0  0  0  0  0  0  0  0  0  0
   -4.5489    1.0208   -0.5012 H   0  0  0  0  0  0  0  0  0  0  0  0
  1 22  1  0  0  0  0
  2  4  1  0  0  0  0
  4  3  2  0  0  0  0
  5  6  1  6  0  0  0
  5  1  1  0  0  0  0
  5  4  1  0  0  0  0
  7  6  1  0  0  0  0
  7  8  1  0  0  0  0
  8  9  1  0  0  0  0
 10  8  2  0  0  0  0
 10 11  1  0  0  0  0
 12 10  1  0  0  0  0
 13 12  1  0  0  0  0
 14 16  1  0  0  0  0
 14 12  2  0  0  0  0
 15 14  1  0  0  0  0
 16  7  2  0  0  0  0
 17 16  1  0  0  0  0
 18 21  1  0  0  0  0
 18  1  1  0  0  0  0
 18 20  1  0  0  0  0
 19 18  1  0  0  0  0
 22 25  1  0  0  0  0
 22 24  1  0  0  0  0
 22 23  1  0  0  0  0
 26 29  1  0  0  0  0
 26  1  1  0  0  0  0
 27 26  1  0  0  0  0
 28 26  1  0  0  0  0
M  CHG  1   2  -1
M  END
