3,5
q = -1.0

 47 50  0  0  0  0  0  0  0  0999 V2000
    1.9157    0.2150    0.0223 P   0  0  0  0  0  4  0  0  0  0  0  0
    0.8163    1.4161    0.2832 N   0  0  0  0  0  0  0  0  0  0  0  0
   -0.8339   -0.1821    0.1613 O   0  5  0  0  0  0  0  0  0  0  0  0
   -0.4770    1.0493    0.2787 C   0  0  0  0  0  0  0  0  0  0  0  0
   -2.8689    1.4966    0.2571 C   0  0  0  0  0  3  0  0  0  0  0  0
   -3.9497    2.3963    0.3139 C   0  0  0  0  0  0  0  0  0  0  0  0
   -4.9842    2.0261    0.2358 H   0  0  0  0  0  0  0  0  0  0  0  0
   -3.7309    3.7762    0.4705 C   0  0  0  0  0  0  0  0  0  0  0  0
   -4.5941    4.4599    0.5132 H   0  0  0  0  0  0  0  0  0  0  0  0
   -2.4263    4.2961    0.5724 C   0  0  0  0  0  0  0  0  0  0  0  0
   -2.2691    5.3784    0.6941 H   0  0  0  0  0  0  0  0  0  0  0  0
   -1.3342    3.4241    0.5164 C   0  0  0  0  0  0  0  0  0  0  0  0
   -0.2983    3.7896    0.5877 H   0  0  0  0  0  0  0  0  0  0  0  0
   -1.5602    2.0413    0.3639 C   0  0  0  0  0  0  0  0  0  0  0  0
    3.5267    1.0555   -0.0052 C   0  0  0  0  0  0  0  0  0  0  0  0
    3.6054    2.4134    0.3574 C   0  0  0  0  0  0  0  0  0  0  0  0
    2.6799    2.9392    0.6342 H   0  0  0  0  0  0  0  0  0  0  0  0
    4.8504    3.0606    0.3510 C   0  0  0  0  0  0  0  0  0  0  0  0
    4.9142    4.1221    0.6343 H   0  0  0  0  0  0  0  0  0  0  0  0
    6.0092    2.3592   -0.0173 C   0  0  0  0  0  0  0  0  0  0  0  0
    6.9836    2.8709   -0.0228 H   0  0  0  0  0  0  0  0  0  0  0  0
    5.9276    1.0049   -0.3838 C   0  0  0  0  0  0  0  0  0  0  0  0
    6.8348    0.4562   -0.6780 H   0  0  0  0  0  0  0  0  0  0  0  0
    4.6886    0.3505   -0.3795 C   0  0  0  0  0  0  0  0  0  0  0  0
    4.6267   -0.7088   -0.6720 H   0  0  0  0  0  0  0  0  0  0  0  0
    1.6772   -0.6131   -1.5875 C   0  0  0  0  0  0  0  0  0  0  0  0
    0.9407    0.0675   -2.5770 C   0  0  0  0  0  0  0  0  0  0  0  0
    0.5223    1.0615   -2.3594 H   0  0  0  0  0  0  0  0  0  0  0  0
    0.7218   -0.5371   -3.8216 C   0  0  0  0  0  0  0  0  0  0  0  0
    0.1215   -0.0147   -4.5809 H   0  0  0  0  0  0  0  0  0  0  0  0
    1.2486   -1.8116   -4.0879 C   0  0  0  0  0  0  0  0  0  0  0  0
    1.0702   -2.2868   -5.0643 H   0  0  0  0  0  0  0  0  0  0  0  0
    1.9922   -2.4856   -3.1063 C   0  0  0  0  0  0  0  0  0  0  0  0
    2.3981   -3.4876   -3.3111 H   0  0  0  0  0  0  0  0  0  0  0  0
    2.2042   -1.8925   -1.8526 C   0  0  0  0  0  0  0  0  0  0  0  0
    2.7588   -2.4383   -1.0742 H   0  0  0  0  0  0  0  0  0  0  0  0
    2.0212   -1.0891    1.2957 C   0  0  0  0  0  0  0  0  0  0  0  0
    1.1171   -2.1738    1.2735 C   0  0  0  0  0  0  0  0  0  0  0  0
    0.3830   -2.2583    0.4615 H   0  0  0  0  0  0  0  0  0  0  0  0
    1.1477   -3.1245    2.3017 C   0  0  0  0  0  0  0  0  0  0  0  0
    0.4374   -3.9647    2.2791 H   0  0  0  0  0  0  0  0  0  0  0  0
    2.0679   -2.9976    3.3557 C   0  0  0  0  0  0  0  0  0  0  0  0
    2.0850   -3.7446    4.1639 H   0  0  0  0  0  0  0  0  0  0  0  0
    2.9636   -1.9169    3.3815 C   0  0  0  0  0  0  0  0  0  0  0  0
    3.6841   -1.8149    4.2069 H   0  0  0  0  0  0  0  0  0  0  0  0
    2.9436   -0.9614    2.3547 C   0  0  0  0  0  0  0  0  0  0  0  0
    3.6468   -0.1153    2.3759 H   0  0  0  0  0  0  0  0  0  0  0  0
  1  2  1  0  0  0  0
  1 37  1  0  0  0  0
  3  4  1  0  0  0  0
  4  2  2  0  0  0  0
  4 14  1  0  0  0  0
  5  6  2  0  0  0  0
  5 14  1  0  0  0  0
  6  8  1  0  0  0  0
  7  6  1  0  0  0  0
  8  9  1  0  0  0  0
  8 10  2  0  0  0  0
 10 11  1  0  0  0  0
 12 10  1  0  0  0  0
 12 13  1  0  0  0  0
 14 12  2  0  0  0  0
 15  1  1  0  0  0  0
 15 16  1  0  0  0  0
 16 17  1  0  0  0  0
 18 16  2  0  0  0  0
 18 19  1  0  0  0  0
 20 18  1  0  0  0  0
 21 20  1  0  0  0  0
 22 24  1  0  0  0  0
 22 20  2  0  0  0  0
 23 22  1  0  0  0  0
 24 15  2  0  0  0  0
 25 24  1  0  0  0  0
 26  1  1  0  0  0  0
 27 28  1  0  0  0  0
 27 26  2  0  0  0  0
 29 27  1  0  0  0  0
 30 29  1  0  0  0  0
 31 29  2  0  0  0  0
 31 33  1  0  0  0  0
 32 31  1  0  0  0  0
 33 35  2  0  0  0  0
 34 33  1  0  0  0  0
 35 26  1  0  0  0  0
 35 36  1  0  0  0  0
 37 46  1  0  0  0  0
 38 37  2  0  0  0  0
 38 40  1  0  0  0  0
 39 38  1  0  0  0  0
 40 42  2  0  0  0  0
 41 40  1  0  0  0  0
 42 44  1  0  0  0  0
 42 43  1  0  0  0  0
 44 45  1  0  0  0  0
 46 47  1  0  0  0  0
 46 44  2  0  0  0  0
M  CHG  1   3  -1
M  END
