1,5
q = 0.0, confidence = 0.978

 34 33  0  0  1  0  0  0  0  0999 V2000
    1.0387   -1.3576    0.1323 O   0  0  0  0  0  1  0  0  0  0  0  0
    0.8650    0.8734   -0.1731 O   0  0  0  0  0  0  0  0  0  0  0  0
   -1.1549    1.8315   -0.2401 N   0  0  0  0  0  0  0  0  0  0  0  0
    2.9383   -0.0826   -0.1300 N   0  0  0  0  0  0  0  0  0  0  0  0
   -0.5208    0.6508   -0.1008 C   0  0  0  0  0  2  0  0  0  0  0  0
    1.5987   -0.2632   -0.0465 C   0  0  1  0  0  3  0  0  0  0  0  0
   -0.4525    3.1196   -0.3323 C   0  0  0  0  0  0  0  0  0  0  0  0
   -0.0623    3.6800    1.0362 C   0  0  0  0  0  0  0  0  0  0  0  0
   -2.6206    1.8916   -0.2028 C   0  0  0  0  0  0  0  0  0  0  0  0
   -3.2470    2.1620   -1.5694 C   0  0  0  0  0  0  0  0  0  0  0  0
    3.5468    1.2268   -0.3719 C   0  0  0  0  0  0  0  0  0  0  0  0
    3.8646    1.9927    0.9122 C   0  0  0  0  0  0  0  0  0  0  0  0
    3.8004   -1.2602    0.0168 C   0  0  0  0  0  0  0  0  0  0  0  0
    4.0767   -1.9652   -1.3101 C   0  0  0  0  0  0  0  0  0  0  0  0
    0.4411    2.9980   -0.9740 H   0  0  0  0  0  0  0  0  0  0  0  0
   -1.1280    3.8217   -0.8604 H   0  0  0  0  0  0  0  0  0  0  0  0
    0.6379    2.9975    1.5564 H   0  0  0  0  0  0  0  0  0  0  0  0
    0.4318    4.6663    0.9260 H   0  0  0  0  0  0  0  0  0  0  0  0
   -0.9513    3.8140    1.6846 H   0  0  0  0  0  0  0  0  0  0  0  0
   -2.9089    2.6787    0.5280 H   0  0  0  0  0  0  0  0  0  0  0  0
   -2.9779    0.9281    0.2021 H   0  0  0  0  0  0  0  0  0  0  0  0
   -4.3488    2.2249   -1.4681 H   0  0  0  0  0  0  0  0  0  0  0  0
   -2.8990    3.1193   -2.0092 H   0  0  0  0  0  0  0  0  0  0  0  0
   -3.0174    1.3410   -2.2747 H   0  0  0  0  0  0  0  0  0  0  0  0
    2.8685    1.8169   -1.0180 H   0  0  0  0  0  0  0  0  0  0  0  0
    4.4707    1.0529   -0.9620 H   0  0  0  0  0  0  0  0  0  0  0  0
    4.5467    1.4162    1.5692 H   0  0  0  0  0  0  0  0  0  0  0  0
    2.9385    2.2064    1.4816 H   0  0  0  0  0  0  0  0  0  0  0  0
    4.3549    2.9588    0.6773 H   0  0  0  0  0  0  0  0  0  0  0  0
    4.7431   -0.9215    0.4945 H   0  0  0  0  0  0  0  0  0  0  0  0
    3.3044   -1.9546    0.7224 H   0  0  0  0  0  0  0  0  0  0  0  0
    4.7496   -2.8319   -1.1540 H   0  0  0  0  0  0  0  0  0  0  0  0
    4.5611   -1.2863   -2.0415 H   0  0  0  0  0  0  0  0  0  0  0  0
    3.1320   -2.3396   -1.7511 H   0  0  0  0  0  0  0  0  0  0  0  0
  2  5  1  0  0  0  0
  2  6  1  0  0  0  0
  3  9  1  0  0  0  0
  3  5  1  0  0  0  0
  4  6  1  0  0  0  0
  4 13  1  0  0  0  0
  6  1  1  1  0  0  0
  7  3  1  0  0  0  0
  7  8  1  0  0  0  0
  8 17  1  0  0  0  0
  8 19  1  0  0  0  0
  9 21  1  0  0  0  0
  9 20  1  0  0  0  0
 10 22  1  0  0  0  0
 10  9  1  0  0  0  0
 11  4  1  0  0  0  0
 11 12  1  0  0  0  0
 12 28  1  0  0  0  0
 12 27  1  0  0  0  0
 13 30  1  0  0  0  0
 13 31  1  0  0  0  0
 14 32  1  0  0  0  0
 14 13  1  0  0  0  0
 15  7  1  0  0  0  0
 16  7  1  0  0  0  0
 18  8  1  0  0  0  0
 23 10  1  0  0  0  0
 24 10  1  0  0  0  0
 25 11  1  0  0  0  0
 26 11  1  0  0  0  0
 29 12  1  0  0  0  0
 33 14  1  0  0  0  0
 34 14  1  0  0  0  0
M  END
