1,4
q = -1.0

 23 23  0  0  0  0  0  0  0  0999 V2000
    2.0393   -0.2891   -0.1126 C   0  0  0  0  0  2  0  0  0  0  0  0
    2.4842   -1.6566   -0.2784 C   0  0  0  0  0  0  0  0  0  0  0  0
    1.7023   -2.5504   -1.0642 C   0  0  0  0  0  0  0  0  0  0  0  0
    0.5770   -2.1139   -1.6659 O   0  5  0  0  0  0  0  0  0  0  0  0
    3.6482   -2.2165    0.5278 C   0  0  0  0  0  0  0  0  0  0  0  0
    1.9026   -4.0414   -1.0906 C   0  0  0  0  0  0  0  0  0  0  0  0
    2.8543    0.9060   -0.0489 C   0  0  0  0  0  0  0  0  0  0  0  0
    4.2330    0.9070   -0.4086 C   0  0  0  0  0  0  0  0  0  0  0  0
    4.9967    2.0796   -0.3641 C   0  0  0  0  0  0  0  0  0  0  0  0
    4.4139    3.2953    0.0323 C   0  0  0  0  0  0  0  0  0  0  0  0
    3.0491    3.3219    0.3699 C   0  0  0  0  0  0  0  0  0  0  0  0
    2.2814    2.1538    0.3276 C   0  0  0  0  0  0  0  0  0  0  0  0
    3.3545   -3.0904    1.1446 H   0  0  0  0  0  0  0  0  0  0  0  0
    4.0527   -1.4435    1.2073 H   0  0  0  0  0  0  0  0  0  0  0  0
    4.4767   -2.5485   -0.1336 H   0  0  0  0  0  0  0  0  0  0  0  0
    2.9489   -4.3372   -0.8931 H   0  0  0  0  0  0  0  0  0  0  0  0
    1.6013   -4.4216   -2.0862 H   0  0  0  0  0  0  0  0  0  0  0  0
    1.2525   -4.5417   -0.3399 H   0  0  0  0  0  0  0  0  0  0  0  0
    4.6982   -0.0305   -0.7472 H   0  0  0  0  0  0  0  0  0  0  0  0
    6.0599    2.0465   -0.6498 H   0  0  0  0  0  0  0  0  0  0  0  0
    5.0153    4.2164    0.0658 H   0  0  0  0  0  0  0  0  0  0  0  0
    2.5743    4.2705    0.6658 H   0  0  0  0  0  0  0  0  0  0  0  0
    1.2126    2.1882    0.5760 H   0  0  0  0  0  0  0  0  0  0  0  0
  1  7  1  0  0  0  0
  2  1  1  0  0  0  0
  2  5  1  0  0  0  0
  3  2  2  0  0  0  0
  4  3  1  0  0  0  0
  5 13  1  0  0  0  0
  5 14  1  0  0  0  0
  6  3  1  0  0  0  0
  6 16  1  0  0  0  0
  6 18  1  0  0  0  0
  7 12  1  0  0  0  0
  8  9  1  0  0  0  0
  8  7  2  0  0  0  0
  9 10  2  0  0  0  0
 10 21  1  0  0  0  0
 10 11  1  0  0  0  0
 11 22  1  0  0  0  0
 12 11  2  0  0  0  0
 12 23  1  0  0  0  0
 15  5  1  0  0  0  0
 17  6  1  0  0  0  0
 19  8  1  0  0  0  0
 20  9  1  0  0  0  0
M  CHG  1   4  -1
M  END
