1,11
q = 0.0, confidence = 0.94

 25 26  0  0  1  0  0  0  0  0999 V2000
   -0.3783   -1.0522   -1.3930 O   0  5  0  0  0  0  0  0  0  0  0  0
   -3.3833    0.2267    0.3332 C   0  0  1  0  0  0  0  0  0  0  0  0
   -2.1690    0.2338   -0.5704 C   0  0  0  0  0  0  0  0  0  0  0  0
   -1.4994   -1.0278   -0.7377 C   0  0  0  0  0  0  0  0  0  0  0  0
   -2.1112   -2.2523   -0.0957 C   0  0  0  0  0  0  0  0  0  0  0  0
   -3.3833   -1.8754    0.6833 C   0  0  2  0  0  0  0  0  0  0  0  0
   -4.3378   -0.9414   -0.1558 C   0  0  0  0  0  0  0  0  0  0  0  0
   -3.0784   -0.6445    1.5825 C   0  0  0  0  0  0  0  0  0  0  0  0
   -4.4876   -1.1910   -1.6556 C   0  0  0  0  0  0  0  0  0  0  0  0
   -5.7340   -0.8404    0.4695 C   0  0  0  0  0  0  0  0  0  0  0  0
   -1.6805    1.3088   -1.4140 C   0  0  0  0  0  3  0  0  0  0  0  0
   -3.8139    1.2398    0.4634 H   0  0  0  0  0  0  0  0  0  0  0  0
   -1.3494   -2.7057    0.5717 H   0  0  0  0  0  0  0  0  0  0  0  0
   -2.3143   -2.9868   -0.9054 H   0  0  0  0  0  0  0  0  0  0  0  0
   -3.8442   -2.7693    1.1520 H   0  0  0  0  0  0  0  0  0  0  0  0
   -3.8221   -0.5092    2.3878 H   0  0  0  0  0  0  0  0  0  0  0  0
   -2.0594   -0.5641    2.0098 H   0  0  0  0  0  0  0  0  0  0  0  0
   -5.0799   -0.3785   -2.1255 H   0  0  0  0  0  0  0  0  0  0  0  0
   -3.5243   -1.2464   -2.1968 H   0  0  0  0  0  0  0  0  0  0  0  0
   -5.0293   -2.1432   -1.8352 H   0  0  0  0  0  0  0  0  0  0  0  0
   -5.7092   -0.6612    1.5612 H   0  0  0  0  0  0  0  0  0  0  0  0
   -6.3075   -0.0112    0.0058 H   0  0  0  0  0  0  0  0  0  0  0  0
   -6.3024   -1.7779    0.2963 H   0  0  0  0  0  0  0  0  0  0  0  0
   -1.4186    1.0455   -2.4532 H   0  0  0  0  0  0  0  0  0  0  0  0
   -2.1617    2.2911   -1.2880 H   0  0  0  0  0  0  0  0  0  0  0  0
  1  4  1  0  0  0  0
  2 12  1  1  0  0  0
  2  8  1  0  0  0  0
  3  2  1  0  0  0  0
  4  3  2  0  0  0  0
  4  5  1  0  0  0  0
  5 13  1  0  0  0  0
  5  6  1  0  0  0  0
  6 15  1  1  0  0  0
  6  8  1  0  0  0  0
  7  2  1  0  0  0  0
  7 10  1  0  0  0  0
  7  6  1  0  0  0  0
  8 17  1  0  0  0  0
  8 16  1  0  0  0  0
  9  7  1  0  0  0  0
 10 21  1  0  0  0  0
 11 25  1  0  0  0  0
 11  3  1  0  0  0  0
 14  5  1  0  0  0  0
 18  9  1  0  0  0  0
 19  9  1  0  0  0  0
 20  9  1  0  0  0  0
 22 10  1  0  0  0  0
 23 10  1  0  0  0  0
 24 11  1  0  0  0  0
M  CHG  1   1  -1
M  END
