1,5
q = -1.0

 31 31  0  0  1  0  0  0  0  0999 V2000
    1.4952    0.8690    1.1619 O   0  0  0  0  0  1  0  0  0  0  0  0
    2.3848    2.6689    0.0513 N   0  0  0  0  0  0  0  0  0  0  0  0
    1.6415    1.5316    0.0793 C   0  0  1  0  0  3  0  0  0  0  0  0
    1.0569    0.9307   -1.1234 C   0  0  0  0  0  3  0  0  0  0  0  0
   -0.1675    0.1885   -1.0398 C   0  0  0  0  0  3  0  0  0  0  0  0
   -0.7850   -0.2503    0.1556 C   0  0  0  0  0  3  0  0  0  0  0  0
   -2.0036   -1.1503    0.1040 C   0  0  0  0  0  0  0  0  0  0  0  0
   -3.2907   -0.3484    0.0704 C   0  0  0  0  0  0  0  0  0  0  0  0
   -3.8927    0.0017   -1.1549 C   0  0  0  0  0  0  0  0  0  0  0  0
   -5.0530    0.7896   -1.1888 C   0  0  0  0  0  0  0  0  0  0  0  0
   -5.6304    1.2449    0.0071 C   0  0  0  0  0  0  0  0  0  0  0  0
   -5.0407    0.9034    1.2347 C   0  0  0  0  0  0  0  0  0  0  0  0
   -3.8817    0.1136    1.2637 C   0  0  0  0  0  0  0  0  0  0  0  0
    3.1601    3.0546    1.2202 C   0  0  0  0  0  0  0  0  0  0  0  0
    2.4886    3.5212   -1.1184 C   0  0  0  0  0  0  0  0  0  0  0  0
    1.4664    1.1525   -2.1172 H   0  0  0  0  0  0  0  0  0  0  0  0
   -0.5529   -0.2009   -1.9985 H   0  0  0  0  0  0  0  0  0  0  0  0
   -0.6782    0.3588    1.0675 H   0  0  0  0  0  0  0  0  0  0  0  0
   -2.0022   -1.8120    0.9947 H   0  0  0  0  0  0  0  0  0  0  0  0
   -1.9431   -1.8105   -0.7856 H   0  0  0  0  0  0  0  0  0  0  0  0
   -3.4470   -0.3572   -2.0967 H   0  0  0  0  0  0  0  0  0  0  0  0
   -5.5126    1.0459   -2.1558 H   0  0  0  0  0  0  0  0  0  0  0  0
   -6.5422    1.8608   -0.0172 H   0  0  0  0  0  0  0  0  0  0  0  0
   -5.4900    1.2506    2.1778 H   0  0  0  0  0  0  0  0  0  0  0  0
   -3.4254   -0.1554    2.2301 H   0  0  0  0  0  0  0  0  0  0  0  0
    2.8036    4.0246    1.6278 H   0  0  0  0  0  0  0  0  0  0  0  0
    4.2332    3.1602    0.9521 H   0  0  0  0  0  0  0  0  0  0  0  0
    3.0463    2.2733    1.9920 H   0  0  0  0  0  0  0  0  0  0  0  0
    1.6773    3.2973   -1.8334 H   0  0  0  0  0  0  0  0  0  0  0  0
    3.4676    3.3982   -1.6325 H   0  0  0  0  0  0  0  0  0  0  0  0
    2.3925    4.5843   -0.8141 H   0  0  0  0  0  0  0  0  0  0  0  0
  2  3  1  0  0  0  0
  2 14  1  0  0  0  0
  3  1  1  6  0  0  0
  4  5  1  0  0  0  0
  4  3  1  0  0  0  0
  5  6  1  0  0  0  0
  6 18  1  0  0  0  0
  7  6  1  0  0  0  0
  7 19  1  0  0  0  0
  8  7  1  0  0  0  0
  8 13  1  0  0  0  0
  9  8  2  0  0  0  0
 10  9  1  0  0  0  0
 10 11  2  0  0  0  0
 11 12  1  0  0  0  0
 12 13  2  0  0  0  0
 12 24  1  0  0  0  0
 13 25  1  0  0  0  0
 14 26  1  0  0  0  0
 14 28  1  0  0  0  0
 15 31  1  0  0  0  0
 15  2  1  0  0  0  0
 16  4  1  0  0  0  0
 17  5  1  0  0  0  0
 20  7  1  0  0  0  0
 21  9  1  0  0  0  0
 22 10  1  0  0  0  0
 23 11  1  0  0  0  0
 27 14  1  0  0  0  0
 29 15  1  0  0  0  0
 30 15  1  0  0  0  0
M  END
