1,24
q = -2.0, confidence = 0.904

 33 35  0  0  1  0  0  0  0  0999 V2000
   -0.8062    1.0385   -0.8130 O   0  5  0  0  0  0  0  0  0  0  0  0
    0.1278    1.9575   -0.4873 C   0  0  0  0  0  0  0  0  0  0  0  0
    0.0866    3.2085   -1.1396 C   0  0  0  0  0  0  0  0  0  0  0  0
   -0.7088    3.3800   -1.8788 H   0  0  0  0  0  0  0  0  0  0  0  0
    1.0385    4.1881   -0.8391 C   0  0  0  0  0  0  0  0  0  0  0  0
    0.9993    5.1611   -1.3516 H   0  0  0  0  0  0  0  0  0  0  0  0
    2.0366    3.9287    0.1153 C   0  0  0  0  0  0  0  0  0  0  0  0
    2.7884    4.6946    0.3562 H   0  0  0  0  0  0  0  0  0  0  0  0
    2.0707    2.6857    0.7618 C   0  0  0  0  0  0  0  0  0  0  0  0
    2.8553    2.4764    1.5064 H   0  0  0  0  0  0  0  0  0  0  0  0
    1.1280    1.6804    0.4804 C   0  0  0  0  0  0  0  0  0  0  0  0
    2.1586   -0.6399    0.4139 C   0  0  0  0  0  0  0  0  0  0  0  0
    2.0303   -0.8481   -0.9738 C   0  0  0  0  0  0  0  0  0  0  0  0
    1.2727   -0.2942   -1.5460 H   0  0  0  0  0  0  0  0  0  0  0  0
    2.8550   -1.7709   -1.6325 C   0  0  0  0  0  0  0  0  0  0  0  0
    2.7359   -1.9269   -2.7153 H   0  0  0  0  0  0  0  0  0  0  0  0
    3.8231   -2.4944   -0.9174 C   0  0  0  0  0  0  0  0  0  0  0  0
    4.4707   -3.2163   -1.4376 H   0  0  0  0  0  0  0  0  0  0  0  0
    3.9613   -2.2900    0.4638 C   0  0  0  0  0  0  0  0  0  0  0  0
    4.7194   -2.8490    1.0333 H   0  0  0  0  0  0  0  0  0  0  0  0
    3.1318   -1.3692    1.1228 C   0  0  0  0  0  0  0  0  0  0  0  0
    3.2392   -1.2135    2.2084 H   0  0  0  0  0  0  0  0  0  0  0  0
   -0.1075   -0.3081    1.4663 C   0  0  0  0  0  0  0  0  0  0  0  0
   -1.2635    0.3762    1.9696 C   0  0  0  0  0  3  0  0  0  0  0  0
   -1.3285    1.4555    2.1594 H   0  0  0  0  0  0  0  0  0  0  0  0
   -2.3225   -0.5655    2.0974 C   0  0  0  0  0  0  0  0  0  0  0  0
   -3.3478   -0.3405    2.4111 H   0  0  0  0  0  0  0  0  0  0  0  0
   -1.8401   -1.8300    1.6548 C   0  0  0  0  0  0  0  0  0  0  0  0
   -2.4252   -2.7540    1.5728 H   0  0  0  0  0  0  0  0  0  0  0  0
   -0.4715   -1.6737    1.2795 C   0  0  0  0  0  0  0  0  0  0  0  0
    0.1766   -2.4481    0.8554 H   0  0  0  0  0  0  0  0  0  0  0  0
    1.2368    0.3215    1.1621 C   0  0  2  0  0  0  0  0  0  0  0  0
    1.7114    0.5110    2.1496 H   0  0  0  0  0  0  0  0  0  0  0  0
  1  2  1  0  0  0  0
  2 11  1  0  0  0  0
  3  5  1  0  0  0  0
  3  2  2  0  0  0  0
  4  3  1  0  0  0  0
  5  7  2  0  0  0  0
  6  5  1  0  0  0  0
  7  8  1  0  0  0  0
  7  9  1  0  0  0  0
  9 10  1  0  0  0  0
 11  9  2  0  0  0  0
 11 32  1  0  0  0  0
 12 21  1  0  0  0  0
 12 32  1  0  0  0  0
 13 12  2  0  0  0  0
 14 13  1  0  0  0  0
 15 13  1  0  0  0  0
 15 17  2  0  0  0  0
 16 15  1  0  0  0  0
 17 19  1  0  0  0  0
 18 17  1  0  0  0  0
 19 20  1  0  0  0  0
 19 21  2  0  0  0  0
 21 22  1  0  0  0  0
 23 24  1  0  0  0  0
 24 26  1  0  0  0  0
 24 25  1  0  0  0  0
 26 27  1  0  0  0  0
 28 26  2  0  0  0  0
 29 28  1  0  0  0  0
 30 23  2  0  0  0  0
 30 28  1  0  0  0  0
 31 30  1  0  0  0  0
 32 23  1  0  0  0  0
 32 33  1  1  0  0  0
M  CHG  1   1  -1
M  END
