1,14
q = -1.0

 18 17  0  0  0  0  0  0  0  0999 V2000
    1.6982   -1.6734   -0.3924 O   0  5  0  0  0  0  0  0  0  0  0  0
    5.5376   -0.4863    0.6212 O   0  0  0  0  0  0  0  0  0  0  0  0
    3.9106   -2.4984   -0.2997 C   0  0  0  0  0  0  0  0  0  0  0  0
    4.4225   -2.6846    0.6645 H   0  0  0  0  0  0  0  0  0  0  0  0
    4.7240   -2.2256   -0.9999 H   0  0  0  0  0  0  0  0  0  0  0  0
    3.3785   -3.4039   -0.6467 H   0  0  0  0  0  0  0  0  0  0  0  0
    2.9312   -1.3762   -0.1649 C   0  0  0  0  0  0  0  0  0  0  0  0
    3.2266   -0.0336    0.2672 C   0  0  0  0  0  0  0  0  0  0  0  0
    4.6271    0.3487    0.5813 C   0  0  0  0  0  0  0  0  0  0  0  0
    4.9874    1.8170    0.7886 C   0  0  0  0  0  0  0  0  0  0  0  0
    4.7108    2.1546    1.8077 H   0  0  0  0  0  0  0  0  0  0  0  0
    4.4801    2.4863    0.0667 H   0  0  0  0  0  0  0  0  0  0  0  0
    6.0838    1.9076    0.6828 H   0  0  0  0  0  0  0  0  0  0  0  0
    2.0355    0.7475    0.4258 C   0  0  0  0  0  2  0  0  0  0  0  0
    1.9848    1.9619    1.3146 C   0  0  0  0  0  0  0  0  0  0  0  0
    0.9399    2.2304    1.5537 H   0  0  0  0  0  0  0  0  0  0  0  0
    2.4545    2.8463    0.8391 H   0  0  0  0  0  0  0  0  0  0  0  0
    2.5307    1.7929    2.2661 H   0  0  0  0  0  0  0  0  0  0  0  0
  1  7  1  0  0  0  0
  3  7  1  0  0  0  0
  3  4  1  0  0  0  0
  5  3  1  0  0  0  0
  6  3  1  0  0  0  0
  7  8  2  0  0  0  0
  8 14  1  0  0  0  0
  8  9  1  0  0  0  0
  9  2  2  0  0  0  0
  9 10  1  0  0  0  0
 10 11  1  0  0  0  0
 12 10  1  0  0  0  0
 13 10  1  0  0  0  0
 14 15  1  0  0  0  0
 15 16  1  0  0  0  0
 15 18  1  0  0  0  0
 17 15  1  0  0  0  0
M  CHG  1   1  -1
M  END
