1,2
q = -1.0, confidence = 0.002

 16 16  0  0  0  0  0  0  0  0999 V2000
    2.6853   -2.3475    0.0656 O   0  5  0  0  0  0  0  0  0  0  0  0
    2.2167    0.3115    0.0754 C   0  0  0  0  0  2  0  0  0  0  0  0
    3.5689   -0.1829    0.0652 C   0  0  0  0  0  0  0  0  0  0  0  0
    4.6665    0.7094    0.0647 C   0  0  0  0  0  0  0  0  0  0  0  0
    5.6933    0.3140    0.0530 H   0  0  0  0  0  0  0  0  0  0  0  0
    4.4514    2.0893    0.0809 C   0  0  0  0  0  0  0  0  0  0  0  0
    5.3027    2.7850    0.0811 H   0  0  0  0  0  0  0  0  0  0  0  0
    3.1340    2.5772    0.0994 C   0  0  0  0  0  0  0  0  0  0  0  0
    2.9534    3.6632    0.1159 H   0  0  0  0  0  0  0  0  0  0  0  0
    2.0312    1.7020    0.0951 C   0  0  0  0  0  0  0  0  0  0  0  0
    1.0245    2.1413    0.0997 H   0  0  0  0  0  0  0  0  0  0  0  0
    3.7291   -1.6324    0.0607 C   0  0  0  0  0  0  0  0  0  0  0  0
    5.0629   -2.3115    0.0534 C   0  0  0  0  0  0  0  0  0  0  0  0
    4.9306   -3.4075    0.0440 H   0  0  0  0  0  0  0  0  0  0  0  0
    5.6492   -2.0183    0.9484 H   0  0  0  0  0  0  0  0  0  0  0  0
    5.6527   -2.0003   -0.8330 H   0  0  0  0  0  0  0  0  0  0  0  0
  2 10  1  0  0  0  0
  3  2  1  0  0  0  0
  4  3  1  0  0  0  0
  4  6  2  0  0  0  0
  5  4  1  0  0  0  0
  6  7  1  0  0  0  0
  6  8  1  0  0  0  0
  8  9  1  0  0  0  0
 10  8  2  0  0  0  0
 10 11  1  0  0  0  0
 12  3  2  0  0  0  0
 12  1  1  0  0  0  0
 13 12  1  0  0  0  0
 13 15  1  0  0  0  0
 14 13  1  0  0  0  0
 16 13  1  0  0  0  0
M  CHG  1   1  -1
M  END
