1,12
q = -1.0

 26 27  0  0  1  0  0  0  0  0999 V2000
    0.2791   -0.8365    0.7790 O   0  0  0  0  0  1  0  0  0  0  0  0
    1.3424   -0.8131   -0.0970 C   0  0  0  0  0  0  0  0  0  0  0  0
    2.6435   -0.6080    0.7493 C   0  0  0  0  0  0  0  0  0  0  0  0
    1.4504   -2.1979   -0.8268 C   0  0  0  0  0  0  0  0  0  0  0  0
    3.7061   -0.2750   -0.0349 F   0  0  0  0  0  0  0  0  0  0  0  0
    2.9888   -1.7172    1.4340 F   0  0  0  0  0  0  0  0  0  0  0  0
    2.4701    0.3744    1.6516 F   0  0  0  0  0  0  0  0  0  0  0  0
    2.5928   -2.2858   -1.5533 F   0  0  0  0  0  0  0  0  0  0  0  0
    0.4188   -2.3884   -1.6891 F   0  0  0  0  0  0  0  0  0  0  0  0
    1.4208   -3.2236    0.0379 F   0  0  0  0  0  0  0  0  0  0  0  0
    1.1310    0.3121   -1.1856 C   0  0  1  0  0  0  0  0  0  0  0  0
   -0.3468    0.2378   -1.6315 C   0  0  0  0  0  3  0  0  0  0  0  0
   -1.0100    1.4461   -1.2695 C   0  0  0  0  0  3  0  0  0  0  0  0
   -0.0294    2.3663   -0.6805 C   0  0  0  0  0  0  0  0  0  0  0  0
   -0.1915    3.6970   -0.2578 C   0  0  0  0  0  0  0  0  0  0  0  0
    0.9404    4.4179    0.1483 C   0  0  0  0  0  0  0  0  0  0  0  0
    2.2125    3.8168    0.1195 C   0  0  0  0  0  0  0  0  0  0  0  0
    2.3738    2.4809   -0.2892 C   0  0  0  0  0  0  0  0  0  0  0  0
    1.2479    1.7425   -0.6740 C   0  0  0  0  0  0  0  0  0  0  0  0
    1.8299    0.1325   -2.0292 H   0  0  0  0  0  0  0  0  0  0  0  0
   -0.6500   -0.4083   -2.4648 H   0  0  0  0  0  0  0  0  0  0  0  0
   -1.9295    1.8198   -1.7431 H   0  0  0  0  0  0  0  0  0  0  0  0
   -1.1871    4.1668   -0.2669 H   0  0  0  0  0  0  0  0  0  0  0  0
    0.8376    5.4641    0.4745 H   0  0  0  0  0  0  0  0  0  0  0  0
    3.0969    4.4008    0.4159 H   0  0  0  0  0  0  0  0  0  0  0  0
    3.3747    2.0303   -0.3075 H   0  0  0  0  0  0  0  0  0  0  0  0
  2  3  1  0  0  0  0
  2  1  1  0  0  0  0
  3  6  1  0  0  0  0
  3  7  1  0  0  0  0
  4  2  1  0  0  0  0
  4 10  1  0  0  0  0
  5  3  1  0  0  0  0
  8  4  1  0  0  0  0
  9  4  1  0  0  0  0
 11 20  1  6  0  0  0
 11 19  1  0  0  0  0
 11  2  1  0  0  0  0
 12 13  1  0  0  0  0
 12 11  1  0  0  0  0
 13 14  1  0  0  0  0
 14 19  2  0  0  0  0
 14 15  1  0  0  0  0
 15 16  2  0  0  0  0
 16 24  1  0  0  0  0
 17 16  1  0  0  0  0
 17 25  1  0  0  0  0
 18 17  2  0  0  0  0
 19 18  1  0  0  0  0
 21 12  1  0  0  0  0
 22 13  1  0  0  0  0
 23 15  1  0  0  0  0
 26 18  1  0  0  0  0
M  END
