1,42
q = -1.0, confidence = 0.0

 52 53  0  0  0  0  0  0  0  0999 V2000
   -0.5332    1.0457   -0.8584 O   0  5  0  0  0  0  0  0  0  0  0  0
   -0.5453   -1.7868   -0.4562 N   0  0  0  0  0  0  0  0  0  0  0  0
    1.4699   -2.4853   -0.9224 N   0  0  0  0  0  0  0  0  0  0  0  0
   -1.6311    0.4348   -0.4727 C   0  0  0  0  0  0  0  0  0  0  0  0
   -1.6753   -0.9631   -0.1525 C   0  0  0  0  0  0  0  0  0  0  0  0
   -2.8234   -1.5886    0.3643 C   0  0  0  0  0  0  0  0  0  0  0  0
   -2.7552   -2.6467    0.6504 H   0  0  0  0  0  0  0  0  0  0  0  0
   -4.0205   -0.8848    0.5249 C   0  0  0  0  0  0  0  0  0  0  0  0
   -4.0132    0.4714    0.1255 C   0  0  0  0  0  0  0  0  0  0  0  0
   -4.9494    1.0371    0.2216 H   0  0  0  0  0  0  0  0  0  0  0  0
   -2.8875    1.1462   -0.3614 C   0  0  0  0  0  0  0  0  0  0  0  0
   -2.9655    2.6362   -0.7465 C   0  0  0  0  0  0  0  0  0  0  0  0
   -2.4773    2.8327   -2.2009 C   0  0  0  0  0  0  0  0  0  0  0  0
   -1.4502    2.4442   -2.3270 H   0  0  0  0  0  0  0  0  0  0  0  0
   -2.4947    3.9097   -2.4709 H   0  0  0  0  0  0  0  0  0  0  0  0
   -3.1414    2.2935   -2.9071 H   0  0  0  0  0  0  0  0  0  0  0  0
   -2.0836    3.4455    0.2317 C   0  0  0  0  0  0  0  0  0  0  0  0
   -2.4895    3.3882    1.2621 H   0  0  0  0  0  0  0  0  0  0  0  0
   -2.0397    4.5149   -0.0648 H   0  0  0  0  0  0  0  0  0  0  0  0
   -1.0592    3.0330    0.2416 H   0  0  0  0  0  0  0  0  0  0  0  0
   -4.3974    3.1948   -0.6588 C   0  0  0  0  0  0  0  0  0  0  0  0
   -5.0945    2.6548   -1.3314 H   0  0  0  0  0  0  0  0  0  0  0  0
   -4.3949    4.2607   -0.9653 H   0  0  0  0  0  0  0  0  0  0  0  0
   -4.8049    3.1490    0.3714 H   0  0  0  0  0  0  0  0  0  0  0  0
   -5.2990   -1.5141    1.1027 C   0  0  0  0  0  0  0  0  0  0  0  0
   -5.7101   -0.7544    2.3847 C   0  0  0  0  0  0  0  0  0  0  0  0
   -6.6400   -1.1820    2.8153 H   0  0  0  0  0  0  0  0  0  0  0  0
   -5.8951    0.3189    2.1800 H   0  0  0  0  0  0  0  0  0  0  0  0
   -4.9120   -0.8166    3.1519 H   0  0  0  0  0  0  0  0  0  0  0  0
   -6.4377   -1.4163    0.0620 C   0  0  0  0  0  0  0  0  0  0  0  0
   -6.1706   -1.9603   -0.8666 H   0  0  0  0  0  0  0  0  0  0  0  0
   -6.6495   -0.3645   -0.2150 H   0  0  0  0  0  0  0  0  0  0  0  0
   -7.3757   -1.8544    0.4633 H   0  0  0  0  0  0  0  0  0  0  0  0
   -5.0998   -2.9964    1.4624 C   0  0  0  0  0  0  0  0  0  0  0  0
   -4.8275   -3.6016    0.5737 H   0  0  0  0  0  0  0  0  0  0  0  0
   -6.0392   -3.4162    1.8759 H   0  0  0  0  0  0  0  0  0  0  0  0
   -4.3088   -3.1311    2.2278 H   0  0  0  0  0  0  0  0  0  0  0  0
   -0.6577   -3.1028   -0.9018 C   0  0  0  0  0  0  0  0  0  0  0  0
   -1.6251   -3.5994   -1.0036 H   0  0  0  0  0  0  0  0  0  0  0  0
    0.6064   -3.5380   -1.1924 C   0  0  0  0  0  0  0  0  0  0  0  0
    0.9517   -4.4987   -1.5831 H   0  0  0  0  0  0  0  0  0  0  0  0
    0.7720   -1.3977   -0.4587 C   0  0  0  0  0  2  0  0  0  0  0  0
    2.8900   -2.4672   -1.3238 C   0  0  0  0  0  0  0  0  0  0  0  0
    3.2975   -1.5606   -0.8375 H   0  0  0  0  0  0  0  0  0  0  0  0
    2.9997   -2.2988   -2.8419 C   0  0  0  0  0  0  0  0  0  0  0  0
    2.5705   -3.1679   -3.3824 H   0  0  0  0  0  0  0  0  0  0  0  0
    4.0632   -2.2033   -3.1381 H   0  0  0  0  0  0  0  0  0  0  0  0
    2.4637   -1.3853   -3.1675 H   0  0  0  0  0  0  0  0  0  0  0  0
    3.6345   -3.6921   -0.7960 C   0  0  0  0  0  0  0  0  0  0  0  0
    3.5238   -3.7820    0.3018 H   0  0  0  0  0  0  0  0  0  0  0  0
    4.7142   -3.5929   -1.0214 H   0  0  0  0  0  0  0  0  0  0  0  0
    3.2833   -4.6337   -1.2670 H   0  0  0  0  0  0  0  0  0  0  0  0
  1  4  1  0  0  0  0
  2  5  1  0  0  0  0
  3 42  1  0  0  0  0
  4 11  2  0  0  0  0
  4  5  1  0  0  0  0
  5  6  2  0  0  0  0
  6  8  1  0  0  0  0
  6  7  1  0  0  0  0
  8 25  1  0  0  0  0
  9 10  1  0  0  0  0
  9  8  2  0  0  0  0
 11  9  1  0  0  0  0
 12 21  1  0  0  0  0
 12 11  1  0  0  0  0
 12 17  1  0  0  0  0
 13 12  1  0  0  0  0
 14 13  1  0  0  0  0
 15 13  1  0  0  0  0
 16 13  1  0  0  0  0
 17 20  1  0  0  0  0
 17 18  1  0  0  0  0
 19 17  1  0  0  0  0
 21 24  1  0  0  0  0
 22 21  1  0  0  0  0
 23 21  1  0  0  0  0
 25 34  1  0  0  0  0
 25 26  1  0  0  0  0
 26 27  1  0  0  0  0
 26 29  1  0  0  0  0
 28 26  1  0  0  0  0
 30 33  1  0  0  0  0
 30 25  1  0  0  0  0
 31 30  1  0  0  0  0
 32 30  1  0  0  0  0
 34 36  1  0  0  0  0
 34 37  1  0  0  0  0
 35 34  1  0  0  0  0
 38  2  1  0  0  0  0
 39 38  1  0  0  0  0
 40  3  1  0  0  0  0
 40 38  2  0  0  0  0
 41 40  1  0  0  0  0
 42  2  1  0  0  0  0
 43  3  1  0  0  0  0
 43 44  1  0  0  0  0
 43 49  1  0  0  0  0
 45 43  1  0  0  0  0
 46 45  1  0  0  0  0
 47 45  1  0  0  0  0
 48 45  1  0  0  0  0
 49 50  1  0  0  0  0
 51 49  1  0  0  0  0
 52 49  1  0  0  0  0
M  CHG  1   1  -1
M  END
