1,2
q = -2.0, confidence = 0.972

 42 44  0  0  1  0  0  0  0  0999 V2000
    0.5519   -0.3267    0.0818 O   0  5  0  0  0  0  0  0  0  0  0  0
   -1.2440    1.4954   -0.0993 C   0  0  2  0  0  3  0  0  0  0  0  0
   -1.9749    1.1669    1.0924 C   0  0  0  0  0  0  0  0  0  0  0  0
   -3.1470    0.4386    0.6943 C   0  0  0  0  0  0  0  0  0  0  0  0
   -3.1333    0.3154   -0.7371 C   0  0  0  0  0  0  0  0  0  0  0  0
   -1.9548    0.9709   -1.2318 C   0  0  0  0  0  0  0  0  0  0  0  0
    0.1593    1.9723   -0.1357 C   0  0  0  0  0  0  0  0  0  0  0  0
    1.0928    0.9052   -0.0535 C   0  0  0  0  0  0  0  0  0  0  0  0
    2.4928    1.1304   -0.0985 C   0  0  0  0  0  0  0  0  0  0  0  0
    2.9052    2.4796   -0.2105 C   0  0  0  0  0  0  0  0  0  0  0  0
    3.9833    2.6906   -0.2714 H   0  0  0  0  0  0  0  0  0  0  0  0
    1.9932    3.5417   -0.2797 C   0  0  0  0  0  0  0  0  0  0  0  0
    2.3643    4.5727   -0.3759 H   0  0  0  0  0  0  0  0  0  0  0  0
    0.6094    3.2933   -0.2460 C   0  0  0  0  0  0  0  0  0  0  0  0
   -0.1161    4.1176   -0.3120 H   0  0  0  0  0  0  0  0  0  0  0  0
    3.4764    0.0228   -0.0287 C   0  0  0  0  0  0  0  0  0  0  0  0
    3.2281   -1.2265   -0.6453 C   0  0  0  0  0  0  0  0  0  0  0  0
    2.2804   -1.3915   -1.1755 H   0  0  0  0  0  0  0  0  0  0  0  0
    4.1822   -2.2510   -0.5920 C   0  0  0  0  0  0  0  0  0  0  0  0
    3.9705   -3.2132   -1.0829 H   0  0  0  0  0  0  0  0  0  0  0  0
    5.3997   -2.0567    0.0796 C   0  0  0  0  0  0  0  0  0  0  0  0
    6.1446   -2.8658    0.1233 H   0  0  0  0  0  0  0  0  0  0  0  0
    5.6570   -0.8243    0.7002 C   0  0  0  0  0  0  0  0  0  0  0  0
    6.6030   -0.6637    1.2398 H   0  0  0  0  0  0  0  0  0  0  0  0
    4.7059    0.2031    0.6463 C   0  0  0  0  0  0  0  0  0  0  0  0
    4.9065    1.1564    1.1584 H   0  0  0  0  0  0  0  0  0  0  0  0
   -1.5682    1.5090    2.4920 C   0  0  0  0  0  0  0  0  0  0  0  0
   -0.5013    1.8017    2.5327 H   0  0  0  0  0  0  0  0  0  0  0  0
   -1.7208    0.6525    3.1772 H   0  0  0  0  0  0  0  0  0  0  0  0
   -2.1655    2.3633    2.8758 H   0  0  0  0  0  0  0  0  0  0  0  0
   -4.2228   -0.0484    1.6138 C   0  0  0  0  0  0  0  0  0  0  0  0
   -4.7504   -0.9286    1.1995 H   0  0  0  0  0  0  0  0  0  0  0  0
   -4.9793    0.7488    1.7792 H   0  0  0  0  0  0  0  0  0  0  0  0
   -3.8105   -0.3391    2.5983 H   0  0  0  0  0  0  0  0  0  0  0  0
   -4.1897   -0.3280   -1.5801 C   0  0  0  0  0  0  0  0  0  0  0  0
   -4.7411   -1.1087   -1.0223 H   0  0  0  0  0  0  0  0  0  0  0  0
   -3.7532   -0.8035   -2.4787 H   0  0  0  0  0  0  0  0  0  0  0  0
   -4.9305    0.4288   -1.9172 H   0  0  0  0  0  0  0  0  0  0  0  0
   -1.5281    1.0849   -2.6620 C   0  0  0  0  0  0  0  0  0  0  0  0
   -0.4506    1.3290   -2.7349 H   0  0  0  0  0  0  0  0  0  0  0  0
   -2.0897    1.8956   -3.1734 H   0  0  0  0  0  0  0  0  0  0  0  0
   -1.7097    0.1431   -3.2146 H   0  0  0  0  0  0  0  0  0  0  0  0
  2  7  1  1  0  0  0
  2  3  1  0  0  0  0
  3 27  1  0  0  0  0
  4  3  2  0  0  0  0
  4 31  1  0  0  0  0
  5  4  1  0  0  0  0
  6  5  2  0  0  0  0
  6  2  1  0  0  0  0
  7  8  1  0  0  0  0
  8  1  1  0  0  0  0
  9  8  2  0  0  0  0
  9 16  1  0  0  0  0
 10  9  1  0  0  0  0
 11 10  1  0  0  0  0
 12 14  1  0  0  0  0
 12 10  2  0  0  0  0
 13 12  1  0  0  0  0
 14  7  2  0  0  0  0
 15 14  1  0  0  0  0
 16 25  1  0  0  0  0
 17 19  1  0  0  0  0
 17 16  2  0  0  0  0
 18 17  1  0  0  0  0
 19 21  2  0  0  0  0
 20 19  1  0  0  0  0
 21 22  1  0  0  0  0
 21 23  1  0  0  0  0
 23 24  1  0  0  0  0
 25 23  2  0  0  0  0
 25 26  1  0  0  0  0
 27 28  1  0  0  0  0
 27 30  1  0  0  0  0
 27 29  1  0  0  0  0
 31 33  1  0  0  0  0
 31 34  1  0  0  0  0
 32 31  1  0  0  0  0
 35 36  1  0  0  0  0
 35  5  1  0  0  0  0
 37 35  1  0  0  0  0
 38 35  1  0  0  0  0
 39  6  1  0  0  0  0
 40 39  1  0  0  0  0
 41 39  1  0  0  0  0
 42 39  1  0  0  0  0
M  CHG  1   1  -1
M  END
