1,2
q = -2.0, confidence = 0.958

 68 72  0  0  1  0  0  0  0  0999 V2000
   -0.4257   -0.7292   -0.0004 O   0  5  0  0  0  0  0  0  0  0  0  0
   -1.9278    1.3425   -0.0004 C   0  0  2  0  0  3  0  0  0  0  0  0
   -2.7029    1.0229    1.1655 C   0  0  0  0  0  0  0  0  0  0  0  0
   -3.9661    0.5056    0.7182 C   0  0  0  0  0  0  0  0  0  0  0  0
   -3.9660    0.5053   -0.7189 C   0  0  0  0  0  0  0  0  0  0  0  0
   -2.7026    1.0223   -1.1663 C   0  0  0  0  0  0  0  0  0  0  0  0
   -2.2543    1.1877    2.5843 C   0  0  0  0  0  0  0  0  0  0  0  0
   -1.1548    1.3065    2.6377 H   0  0  0  0  0  0  0  0  0  0  0  0
   -2.5409    0.3153    3.2031 H   0  0  0  0  0  0  0  0  0  0  0  0
   -2.7118    2.0932    3.0372 H   0  0  0  0  0  0  0  0  0  0  0  0
   -5.1017    0.0971    1.6039 C   0  0  0  0  0  0  0  0  0  0  0  0
   -5.7280    0.9782    1.8620 H   0  0  0  0  0  0  0  0  0  0  0  0
   -4.7355   -0.3507    2.5470 H   0  0  0  0  0  0  0  0  0  0  0  0
   -5.7586   -0.6464    1.1135 H   0  0  0  0  0  0  0  0  0  0  0  0
   -5.1014    0.0964   -1.6046 C   0  0  0  0  0  0  0  0  0  0  0  0
   -5.7580   -0.6475   -1.1142 H   0  0  0  0  0  0  0  0  0  0  0  0
   -4.7351   -0.3512   -2.5478 H   0  0  0  0  0  0  0  0  0  0  0  0
   -5.7281    0.9773   -1.8625 H   0  0  0  0  0  0  0  0  0  0  0  0
   -2.2537    1.1860   -2.5851 C   0  0  0  0  0  0  0  0  0  0  0  0
   -2.5399    0.3131   -3.2032 H   0  0  0  0  0  0  0  0  0  0  0  0
   -1.1542    1.3050   -2.6382 H   0  0  0  0  0  0  0  0  0  0  0  0
   -2.7112    2.0910   -3.0388 H   0  0  0  0  0  0  0  0  0  0  0  0
   -0.4692    1.6103   -0.0003 C   0  0  0  0  0  0  0  0  0  0  0  0
    0.2990    0.4187   -0.0003 C   0  0  0  0  0  0  0  0  0  0  0  0
    1.7125    0.4441   -0.0002 C   0  0  0  0  0  0  0  0  0  0  0  0
    2.3051    1.7256   -0.0001 C   0  0  0  0  0  0  0  0  0  0  0  0
    3.3994    1.7774   -0.0000 H   0  0  0  0  0  0  0  0  0  0  0  0
    1.5765    2.9326   -0.0001 C   0  0  0  0  0  0  0  0  0  0  0  0
    0.1662    2.8544   -0.0003 C   0  0  0  0  0  0  0  0  0  0  0  0
   -0.4499    3.7661   -0.0003 H   0  0  0  0  0  0  0  0  0  0  0  0
    2.5227   -0.8505   -0.0001 C   0  0  2  0  0  0  0  0  0  0  0  0
    2.1838   -1.6905    1.2672 C   0  0  0  0  0  0  0  0  0  0  0  0
    2.4452   -1.0977    2.1705 H   0  0  0  0  0  0  0  0  0  0  0  0
    1.0942   -1.8853    1.3084 H   0  0  0  0  0  0  0  0  0  0  0  0
    2.9580   -3.0212    1.2595 C   0  0  2  0  0  0  0  0  0  0  0  0
    2.6858   -3.6013    2.1671 H   0  0  0  0  0  0  0  0  0  0  0  0
    4.4706   -2.7368    1.2573 C   0  0  0  0  0  0  0  0  0  0  0  0
    4.7544   -2.1731    2.1723 H   0  0  0  0  0  0  0  0  0  0  0  0
    5.0434   -3.6892    1.2729 H   0  0  0  0  0  0  0  0  0  0  0  0
    4.8318   -1.9238    0.0002 C   0  0  2  0  0  0  0  0  0  0  0  0
    5.9199   -1.6986    0.0003 H   0  0  0  0  0  0  0  0  0  0  0  0
    4.0492   -0.5962    0.0001 C   0  0  0  0  0  0  0  0  0  0  0  0
    4.3319    0.0015   -0.8934 H   0  0  0  0  0  0  0  0  0  0  0  0
    4.3317    0.0015    0.8936 H   0  0  0  0  0  0  0  0  0  0  0  0
    2.5805   -3.8253   -0.0000 C   0  0  0  0  0  0  0  0  0  0  0  0
    3.1077   -4.8038    0.0000 H   0  0  0  0  0  0  0  0  0  0  0  0
    1.4910   -4.0430   -0.0002 H   0  0  0  0  0  0  0  0  0  0  0  0
    2.9582   -3.0212   -1.2595 C   0  0  1  0  0  0  0  0  0  0  0  0
    2.6863   -3.6013   -2.1672 H   0  0  0  0  0  0  0  0  0  0  0  0
    2.1841   -1.6906   -1.2674 C   0  0  0  0  0  0  0  0  0  0  0  0
    1.0945   -1.8853   -1.3089 H   0  0  0  0  0  0  0  0  0  0  0  0
    2.4456   -1.0978   -2.1707 H   0  0  0  0  0  0  0  0  0  0  0  0
    4.4709   -2.7368   -1.2570 C   0  0  0  0  0  0  0  0  0  0  0  0
    5.0437   -3.6893   -1.2725 H   0  0  0  0  0  0  0  0  0  0  0  0
    4.7549   -2.1731   -2.1720 H   0  0  0  0  0  0  0  0  0  0  0  0
    2.2604    4.3119   -0.0001 C   0  0  0  0  0  0  0  0  0  0  0  0
    1.8292    5.0932   -1.2623 C   0  0  0  0  0  0  0  0  0  0  0  0
    2.3044    6.0959   -1.2805 H   0  0  0  0  0  0  0  0  0  0  0  0
    0.7315    5.2409   -1.3003 H   0  0  0  0  0  0  0  0  0  0  0  0
    2.1287    4.5527   -2.1830 H   0  0  0  0  0  0  0  0  0  0  0  0
    1.8291    5.0931    1.2622 C   0  0  0  0  0  0  0  0  0  0  0  0
    2.1286    4.5525    2.1829 H   0  0  0  0  0  0  0  0  0  0  0  0
    0.7314    5.2408    1.3001 H   0  0  0  0  0  0  0  0  0  0  0  0
    2.3043    6.0958    1.2806 H   0  0  0  0  0  0  0  0  0  0  0  0
    3.7950    4.2023   -0.0000 C   0  0  0  0  0  0  0  0  0  0  0  0
    4.1713    3.6715    0.8976 H   0  0  0  0  0  0  0  0  0  0  0  0
    4.2433    5.2162    0.0001 H   0  0  0  0  0  0  0  0  0  0  0  0
    4.1714    3.6716   -0.8977 H   0  0  0  0  0  0  0  0  0  0  0  0
  1 24  1  0  0  0  0
  2 23  1  1  0  0  0
  2  3  1  0  0  0  0
  3  7  1  0  0  0  0
  4  3  2  0  0  0  0
  4 11  1  0  0  0  0
  5  4  1  0  0  0  0
  6  5  2  0  0  0  0
  6  2  1  0  0  0  0
  7  8  1  0  0  0  0
  7 10  1  0  0  0  0
  7  9  1  0  0  0  0
 11 12  1  0  0  0  0
 11 13  1  0  0  0  0
 14 11  1  0  0  0  0
 15 16  1  0  0  0  0
 15  5  1  0  0  0  0
 17 15  1  0  0  0  0
 18 15  1  0  0  0  0
 19  6  1  0  0  0  0
 20 19  1  0  0  0  0
 21 19  1  0  0  0  0
 22 19  1  0  0  0  0
 23 24  2  0  0  0  0
 23 29  1  0  0  0  0
 24 25  1  0  0  0  0
 25 26  2  0  0  0  0
 26 27  1  0  0  0  0
 28 26  1  0  0  0  0
 28 56  1  0  0  0  0
 29 28  2  0  0  0  0
 30 29  1  0  0  0  0
 31 25  1  6  0  0  0
 31 42  1  0  0  0  0
 31 32  1  0  0  0  0
 32 34  1  0  0  0  0
 32 33  1  0  0  0  0
 35 32  1  0  0  0  0
 35 36  1  1  0  0  0
 37 35  1  0  0  0  0
 37 39  1  0  0  0  0
 37 38  1  0  0  0  0
 40 41  1  1  0  0  0
 40 37  1  0  0  0  0
 42 40  1  0  0  0  0
 42 44  1  0  0  0  0
 43 42  1  0  0  0  0
 45 46  1  0  0  0  0
 45 35  1  0  0  0  0
 47 45  1  0  0  0  0
 48 49  1  6  0  0  0
 48 53  1  0  0  0  0
 48 45  1  0  0  0  0
 50 48  1  0  0  0  0
 50 31  1  0  0  0  0
 51 50  1  0  0  0  0
 52 50  1  0  0  0  0
 53 40  1  0  0  0  0
 54 53  1  0  0  0  0
 55 53  1  0  0  0  0
 56 65  1  0  0  0  0
 56 61  1  0  0  0  0
 57 56  1  0  0  0  0
 58 57  1  0  0  0  0
 59 57  1  0  0  0  0
 60 57  1  0  0  0  0
 61 64  1  0  0  0  0
 61 63  1  0  0  0  0
 61 62  1  0  0  0  0
 65 67  1  0  0  0  0
 65 66  1  0  0  0  0
 68 65  1  0  0  0  0
M  CHG  1   1  -1
M  END
