3,5
q = -1.0

 17 16  0  0  0  0  0  0  0  0999 V2000
   -2.9144   -0.1650    1.1784 O   0  0  0  0  0  0  0  0  0  0  0  0
   -3.2867    1.5945   -0.2003 O   0  0  0  0  0  0  0  0  0  0  0  0
    1.4324    1.0671   -0.6375 O   0  5  0  0  0  0  0  0  0  0  0  0
    1.4130    3.3255   -0.8979 O   0  0  0  0  0  0  0  0  0  0  0  0
   -1.0445    0.8864    0.0547 C   0  0  0  0  0  2  0  0  0  0  0  0
   -0.5681    2.1680   -0.1921 C   0  0  0  0  0  0  0  0  0  0  0  0
   -2.4715    0.6916    0.4245 C   0  0  0  0  0  0  0  0  0  0  0  0
    0.8060    2.1768   -0.5599 C   0  0  0  0  0  0  0  0  0  0  0  0
   -4.6751    1.4826    0.1235 C   0  0  0  0  0  0  0  0  0  0  0  0
    2.8035    3.2333   -1.2167 C   0  0  0  0  0  0  0  0  0  0  0  0
   -1.1678    3.0866   -0.1304 H   0  0  0  0  0  0  0  0  0  0  0  0
   -5.1955    2.2466   -0.4816 H   0  0  0  0  0  0  0  0  0  0  0  0
   -4.8479    1.6630    1.2044 H   0  0  0  0  0  0  0  0  0  0  0  0
   -5.0589    0.4699   -0.1166 H   0  0  0  0  0  0  0  0  0  0  0  0
    3.3722    2.7853   -0.3754 H   0  0  0  0  0  0  0  0  0  0  0  0
    2.9686    2.6093   -2.1188 H   0  0  0  0  0  0  0  0  0  0  0  0
    3.1431    4.2679   -1.4029 H   0  0  0  0  0  0  0  0  0  0  0  0
  2  9  1  0  0  0  0
  2  7  1  0  0  0  0
  3  8  1  0  0  0  0
  4  8  1  0  0  0  0
  5  7  1  0  0  0  0
  6 11  1  0  0  0  0
  6  5  1  0  0  0  0
  7  1  2  0  0  0  0
  8  6  2  0  0  0  0
  9 13  1  0  0  0  0
 10  4  1  0  0  0  0
 10 15  1  0  0  0  0
 12  9  1  0  0  0  0
 14  9  1  0  0  0  0
 16 10  1  0  0  0  0
 17 10  1  0  0  0  0
M  CHG  1   3  -1
M  END
