1,5
q = -1.0

 13 12  0  0  0  0  0  0  0  0999 V2000
   -1.3429   -0.4257    1.3133 O   0  5  0  0  0  0  0  0  0  0  0  0
   -3.1601    0.4805    0.0033 C   0  0  0  0  0  0  0  0  0  0  0  0
   -1.9175   -0.3580    0.1672 C   0  0  0  0  0  0  0  0  0  0  0  0
   -1.3338   -1.0528   -0.9568 C   0  0  0  0  0  0  0  0  0  0  0  0
   -0.1895   -1.9108   -0.8203 C   0  0  0  0  0  3  0  0  0  0  0  0
    0.4806   -2.1888    0.3876 C   0  0  0  0  0  3  0  0  0  0  0  0
   -3.9992   -0.0488    0.5011 H   0  0  0  0  0  0  0  0  0  0  0  0
   -3.0322    1.4507    0.5200 H   0  0  0  0  0  0  0  0  0  0  0  0
   -3.4290    0.6466   -1.0562 H   0  0  0  0  0  0  0  0  0  0  0  0
   -1.7362   -0.8653   -1.9622 H   0  0  0  0  0  0  0  0  0  0  0  0
    0.2741   -2.2385   -1.7669 H   0  0  0  0  0  0  0  0  0  0  0  0
   -0.0501   -2.2115    1.3476 H   0  0  0  0  0  0  0  0  0  0  0  0
    1.4376   -2.7282    0.3248 H   0  0  0  0  0  0  0  0  0  0  0  0
  2  3  1  0  0  0  0
  2  7  1  0  0  0  0
  2  8  1  0  0  0  0
  3  1  1  0  0  0  0
  4  5  1  0  0  0  0
  4  3  2  0  0  0  0
  5  6  1  0  0  0  0
  6 12  1  0  0  0  0
  9  2  1  0  0  0  0
 10  4  1  0  0  0  0
 11  5  1  0  0  0  0
 13  6  1  0  0  0  0
M  CHG  1   1  -1
M  END
