7,22
q = 0.0, confidence = 0.566

 23 23  0  0  0  0  0  0  0  0999 V2000
    2.9766   -2.6201   -0.9658 C   0  0  0  0  0  0  0  0  0  0  0  0
    2.0207   -3.6142   -1.7010 C   0  0  0  0  0  0  0  0  0  0  0  0
    2.5954   -4.1426   -2.4860 H   0  0  0  0  0  0  0  0  0  0  0  0
    1.7035   -4.3706   -0.9511 H   0  0  0  0  0  0  0  0  0  0  0  0
    0.8483   -2.8396   -2.2189 C   0  0  0  0  0  3  0  0  0  0  0  0
    0.9992   -2.2964   -3.1723 H   0  0  0  0  0  0  0  0  0  0  0  0
   -0.4493   -2.8553   -1.6497 C   0  0  0  0  0  3  0  0  0  0  0  0
   -0.7147   -3.6255   -0.9020 H   0  0  0  0  0  0  0  0  0  0  0  0
   -1.2684   -1.6873   -1.8291 C   0  0  0  0  0  3  0  0  0  0  0  0
   -1.1673   -1.1625   -2.7998 H   0  0  0  0  0  0  0  0  0  0  0  0
   -2.5824   -1.4911   -1.1927 C   0  0  0  0  0  0  0  0  0  0  0  0
   -3.5046   -0.5837   -1.7657 C   0  0  0  0  0  0  0  0  0  0  0  0
   -3.2317   -0.0714   -2.7018 H   0  0  0  0  0  0  0  0  0  0  0  0
   -4.7454   -0.3269   -1.1670 C   0  0  0  0  0  0  0  0  0  0  0  0
   -5.4405    0.3862   -1.6364 H   0  0  0  0  0  0  0  0  0  0  0  0
   -5.1016   -0.9766    0.0255 C   0  0  0  0  0  0  0  0  0  0  0  0
   -6.0730   -0.7750    0.5012 H   0  0  0  0  0  0  0  0  0  0  0  0
   -4.2064   -1.8962    0.5996 C   0  0  0  0  0  0  0  0  0  0  0  0
   -4.4761   -2.4187    1.5304 H   0  0  0  0  0  0  0  0  0  0  0  0
   -2.9670   -2.1503    0.0001 C   0  0  0  0  0  0  0  0  0  0  0  0
   -2.2777   -2.8637    0.4752 H   0  0  0  0  0  0  0  0  0  0  0  0
    2.3590   -1.5312   -0.5177 O   0  5  0  0  0  0  0  0  0  0  0  0
    4.1630   -2.8441   -0.8054 O   0  0  0  0  0  0  0  0  0  0  0  0
  1 23  2  0  0  0  0
  1 22  1  0  0  0  0
  2  1  1  0  0  0  0
  2  4  1  0  0  0  0
  3  2  1  0  0  0  0
  5  2  1  0  0  0  0
  5  7  1  0  0  0  0
  6  5  1  0  0  0  0
  7  8  1  0  0  0  0
  9  7  1  0  0  0  0
  9 11  1  0  0  0  0
 10  9  1  0  0  0  0
 11 20  1  0  0  0  0
 12 11  2  0  0  0  0
 12 14  1  0  0  0  0
 13 12  1  0  0  0  0
 14 16  2  0  0  0  0
 15 14  1  0  0  0  0
 16 17  1  0  0  0  0
 16 18  1  0  0  0  0
 18 19  1  0  0  0  0
 20 21  1  0  0  0  0
 20 18  2  0  0  0  0
M  CHG  1  22  -1
M  END
