2,4
q = -1.0

 22 22  0  0  1  0  0  0  0  0999 V2000
    0.5416    2.5718   -0.5915 O   0  0  0  0  0  0  0  0  0  0  0  0
    0.8643    0.8671    1.4445 O   0  5  0  0  0  0  0  0  0  0  0  0
    2.3309    2.2029    2.4991 O   0  0  0  0  0  0  0  0  0  0  0  0
   -1.5675    0.9571   -0.2373 C   0  0  0  0  0  2  0  0  0  0  0  0
   -2.4663    0.3233   -0.1360 H   0  0  0  0  0  0  0  0  0  0  0  0
   -1.7885    2.3935   -0.2739 C   0  0  0  0  0  0  0  0  0  0  0  0
    1.6744    2.8611    0.2905 C   0  0  1  0  0  0  0  0  0  0  0  0
    1.5922    3.9080    0.6429 H   0  0  0  0  0  0  0  0  0  0  0  0
    1.6258    1.9359    1.5320 C   0  0  0  0  0  0  0  0  0  0  0  0
    2.9527    2.6446   -0.5045 C   0  0  0  0  0  0  0  0  0  0  0  0
    3.0052    1.6024   -0.8808 H   0  0  0  0  0  0  0  0  0  0  0  0
    3.8179    2.8163    0.1635 H   0  0  0  0  0  0  0  0  0  0  0  0
    3.0046    3.3373   -1.3663 H   0  0  0  0  0  0  0  0  0  0  0  0
   -3.0630    2.9974   -0.1508 C   0  0  0  0  0  0  0  0  0  0  0  0
   -3.9473    2.3472   -0.0611 H   0  0  0  0  0  0  0  0  0  0  0  0
   -3.1879    4.3915   -0.1260 C   0  0  0  0  0  0  0  0  0  0  0  0
   -4.1806    4.8543   -0.0232 H   0  0  0  0  0  0  0  0  0  0  0  0
   -2.0438    5.2040   -0.2311 C   0  0  0  0  0  0  0  0  0  0  0  0
   -2.1441    6.2997   -0.2154 H   0  0  0  0  0  0  0  0  0  0  0  0
   -0.7665    4.6321   -0.3708 C   0  0  0  0  0  0  0  0  0  0  0  0
    0.1251    5.2664   -0.4786 H   0  0  0  0  0  0  0  0  0  0  0  0
   -0.6562    3.2397   -0.3912 C   0  0  0  0  0  0  0  0  0  0  0  0
  1 22  1  0  0  0  0
  1  7  1  0  0  0  0
  2  9  1  0  0  0  0
  4  5  1  0  0  0  0
  6  4  1  0  0  0  0
  6 14  1  0  0  0  0
  7  8  1  1  0  0  0
  7  9  1  0  0  0  0
  9  3  2  0  0  0  0
 10 12  1  0  0  0  0
 10  7  1  0  0  0  0
 11 10  1  0  0  0  0
 13 10  1  0  0  0  0
 14 16  2  0  0  0  0
 14 15  1  0  0  0  0
 16 17  1  0  0  0  0
 18 19  1  0  0  0  0
 18 16  1  0  0  0  0
 20 18  2  0  0  0  0
 21 20  1  0  0  0  0
 22 20  1  0  0  0  0
 22  6  2  0  0  0  0
M  CHG  1   2  -1
M  END
