3,4
q = 0.0, confidence = 0.936

 25 24  0  0  1  0  0  0  0  0999 V2000
    2.0492    2.9593   -0.5262 C   0  0  0  0  0  0  0  0  0  0  0  0
    1.2842    1.8647    0.1635 C   0  0  1  0  0  3  0  0  0  0  0  0
    1.6265    1.4470    1.3504 O   0  0  0  0  0  1  0  0  0  0  0  0
    0.1255    1.2206   -0.4026 C   0  0  0  0  0  3  0  0  0  0  0  0
   -0.5164    0.2817    0.4729 C   0  0  0  0  0  3  0  0  0  0  0  0
   -1.8128   -0.7679   -0.2452 S   0  0  2  0  0  0  0  0  0  0  0  0
   -1.6609   -0.6225   -1.7625 O   0  0  0  0  0  0  0  0  0  0  0  0
   -3.3711    0.2665    0.2221 C   0  0  0  0  0  0  0  0  0  0  0  0
   -3.2360    1.6443   -0.4111 C   0  0  0  0  0  0  0  0  0  0  0  0
   -3.4913    0.2836    1.7432 C   0  0  0  0  0  0  0  0  0  0  0  0
   -4.4949   -0.5425   -0.4346 C   0  0  0  0  0  0  0  0  0  0  0  0
    3.1333    2.8585   -0.3301 H   0  0  0  0  0  0  0  0  0  0  0  0
    1.7245    3.9350   -0.1070 H   0  0  0  0  0  0  0  0  0  0  0  0
    1.8583    2.9725   -1.6156 H   0  0  0  0  0  0  0  0  0  0  0  0
   -0.1878    1.3322   -1.4522 H   0  0  0  0  0  0  0  0  0  0  0  0
   -0.6172    0.5101    1.5471 H   0  0  0  0  0  0  0  0  0  0  0  0
   -2.9444    1.5385   -1.4766 H   0  0  0  0  0  0  0  0  0  0  0  0
   -2.4808    2.2678    0.1068 H   0  0  0  0  0  0  0  0  0  0  0  0
   -4.2076    2.1797   -0.3707 H   0  0  0  0  0  0  0  0  0  0  0  0
   -2.7213    0.9235    2.2178 H   0  0  0  0  0  0  0  0  0  0  0  0
   -3.4134   -0.7385    2.1698 H   0  0  0  0  0  0  0  0  0  0  0  0
   -4.4835    0.6884    2.0342 H   0  0  0  0  0  0  0  0  0  0  0  0
   -4.3068   -0.6572   -1.5204 H   0  0  0  0  0  0  0  0  0  0  0  0
   -5.4634   -0.0185   -0.2977 H   0  0  0  0  0  0  0  0  0  0  0  0
   -4.5846   -1.5532    0.0138 H   0  0  0  0  0  0  0  0  0  0  0  0
  1 12  1  0  0  0  0
  1 13  1  0  0  0  0
  1  2  1  0  0  0  0
  2  3  1  1  0  0  0
  4  2  1  0  0  0  0
  4  5  1  0  0  0  0
  5 16  1  0  0  0  0
  6  7  2  6  0  0  0
  6  8  1  0  0  0  0
  6  5  1  0  0  0  0
  8 10  1  0  0  0  0
  9 19  1  0  0  0  0
  9 18  1  0  0  0  0
  9  8  1  0  0  0  0
 10 22  1  0  0  0  0
 10 21  1  0  0  0  0
 10 20  1  0  0  0  0
 11 24  1  0  0  0  0
 11 25  1  0  0  0  0
 11  8  1  0  0  0  0
 14  1  1  0  0  0  0
 15  4  1  0  0  0  0
 17  9  1  0  0  0  0
 23 11  1  0  0  0  0
M  END
