3,5
q = -1.0

 17 16  0  0  1  0  0  0  0  0999 V2000
    3.5998    0.5168   -1.1510 O   0  0  0  0  0  0  0  0  0  0  0  0
    4.8665    0.4533    0.7252 O   0  0  0  0  0  0  0  0  0  0  0  0
   -0.6311   -2.5479    0.5609 O   0  0  0  0  0  1  0  0  0  0  0  0
    1.2349   -2.0439    1.6936 O   0  0  0  0  0  0  0  0  0  0  0  0
    1.6459   -1.2490    0.5136 C   0  0  0  0  0  3  0  0  0  0  0  0
    2.8931   -0.7446    0.8144 C   0  0  0  0  0  0  0  0  0  0  0  0
    3.7466    0.1070    0.0025 C   0  0  0  0  0  0  0  0  0  0  0  0
    5.7830    1.3036    0.0454 C   0  0  0  0  0  0  0  0  0  0  0  0
    0.0597   -2.6263    1.6027 C   0  0  1  0  0  3  0  0  0  0  0  0
   -0.4065   -3.3492    2.8247 C   0  0  0  0  0  0  0  0  0  0  0  0
    3.3171   -1.0048    1.7970 H   0  0  0  0  0  0  0  0  0  0  0  0
    6.6466    1.4333    0.7235 H   0  0  0  0  0  0  0  0  0  0  0  0
    6.1121    0.8602   -0.9173 H   0  0  0  0  0  0  0  0  0  0  0  0
    5.3269    2.2915   -0.1786 H   0  0  0  0  0  0  0  0  0  0  0  0
    0.4436   -3.8130    3.3576 H   0  0  0  0  0  0  0  0  0  0  0  0
   -0.8772   -2.6099    3.5074 H   0  0  0  0  0  0  0  0  0  0  0  0
   -1.1625   -4.1057    2.5504 H   0  0  0  0  0  0  0  0  0  0  0  0
  1  7  2  0  0  0  0
  5  6  2  0  0  0  0
  5  4  1  0  0  0  0
  6 11  1  0  0  0  0
  7  2  1  0  0  0  0
  7  6  1  0  0  0  0
  8 12  1  0  0  0  0
  8  2  1  0  0  0  0
  9  3  1  1  0  0  0
  9  4  1  0  0  0  0
  9 10  1  0  0  0  0
 10 15  1  0  0  0  0
 10 16  1  0  0  0  0
 13  8  1  0  0  0  0
 14  8  1  0  0  0  0
 17 10  1  0  0  0  0
M  END
