1,5
q = -1.0

 11 10  0  0  0  0  0  0  0  0999 V2000
   -1.5890   -0.2946    1.1959 O   0  5  0  0  0  0  0  0  0  0  0  0
   -3.8188   -0.3612    1.4189 O   0  0  0  0  0  0  0  0  0  0  0  0
   -2.7973   -0.6850    0.8261 C   0  0  0  0  0  0  0  0  0  0  0  0
   -2.8018   -1.6280   -0.3929 C   0  0  0  0  0  0  0  0  0  0  0  0
   -1.5943   -1.4490   -1.2838 C   0  0  0  0  0  3  0  0  0  0  0  0
   -1.3033   -0.2195   -1.9358 C   0  0  0  0  0  3  0  0  0  0  0  0
   -3.7558   -1.4923   -0.9440 H   0  0  0  0  0  0  0  0  0  0  0  0
   -2.8239   -2.6605    0.0160 H   0  0  0  0  0  0  0  0  0  0  0  0
   -1.1884   -2.3710   -1.7355 H   0  0  0  0  0  0  0  0  0  0  0  0
   -2.0470    0.5932   -1.8823 H   0  0  0  0  0  0  0  0  0  0  0  0
   -0.7145   -0.2254   -2.8702 H   0  0  0  0  0  0  0  0  0  0  0  0
  3  1  1  0  0  0  0
  3  2  2  0  0  0  0
  4  8  1  0  0  0  0
  4  3  1  0  0  0  0
  5  4  1  0  0  0  0
  6 10  1  0  0  0  0
  6  5  1  0  0  0  0
  7  4  1  0  0  0  0
  9  5  1  0  0  0  0
 11  6  1  0  0  0  0
M  CHG  1   1  -1
M  END
