1,9
q = -2.0, confidence = 0.946

 34 34  0  0  0  0  0  0  0  0999 V2000
    1.2696   -0.7610    0.1053 O   0  5  0  0  0  0  0  0  0  0  0  0
    7.2269   -2.4871    0.6759 O   0  0  0  0  0  0  0  0  0  0  0  0
    0.1625    2.8976    1.9225 O   0  0  0  0  0  0  0  0  0  0  0  0
   -1.3705    3.2712    0.3079 O   0  0  0  0  0  0  0  0  0  0  0  0
    3.9383    2.6785    0.5401 O   0  0  0  0  0  0  0  0  0  0  0  0
    2.1307    3.8148   -0.2227 O   0  0  0  0  0  0  0  0  0  0  0  0
    2.2283    0.1646    0.1143 C   0  0  0  0  0  0  0  0  0  0  0  0
    1.8746    1.5052   -0.0172 C   0  0  0  0  0  0  0  0  0  0  0  0
    0.4026    1.7986   -0.2533 C   0  0  0  0  0  3  0  0  0  0  0  0
    0.2688    2.3129   -1.2260 H   0  0  0  0  0  0  0  0  0  0  0  0
   -0.2224    2.6895    0.7829 C   0  0  0  0  0  0  0  0  0  0  0  0
   -2.1055    4.0304    1.2653 C   0  0  0  0  0  0  0  0  0  0  0  0
   -2.3987    3.3991    2.1296 H   0  0  0  0  0  0  0  0  0  0  0  0
   -3.0055    4.4000    0.7400 H   0  0  0  0  0  0  0  0  0  0  0  0
   -1.5059    4.8802    1.6517 H   0  0  0  0  0  0  0  0  0  0  0  0
    2.7776    2.6459    0.1426 C   0  0  0  0  0  0  0  0  0  0  0  0
    2.8582    5.0075    0.0390 C   0  0  0  0  0  0  0  0  0  0  0  0
    3.0447    5.1315    1.1265 H   0  0  0  0  0  0  0  0  0  0  0  0
    2.2334    5.8406   -0.3339 H   0  0  0  0  0  0  0  0  0  0  0  0
    3.8429    5.0044   -0.4734 H   0  0  0  0  0  0  0  0  0  0  0  0
    3.5758   -0.4458    0.2620 C   0  0  0  0  0  0  0  0  0  0  0  0
    3.6851   -1.6847    0.9418 C   0  0  0  0  0  0  0  0  0  0  0  0
    2.7766   -2.1329    1.3680 H   0  0  0  0  0  0  0  0  0  0  0  0
    4.9094   -2.3391    1.0715 C   0  0  0  0  0  0  0  0  0  0  0  0
    4.9972   -3.2919    1.6136 H   0  0  0  0  0  0  0  0  0  0  0  0
    6.0731   -1.7821    0.4999 C   0  0  0  0  0  0  0  0  0  0  0  0
    5.9784   -0.5659   -0.2073 C   0  0  0  0  0  0  0  0  0  0  0  0
    6.8633   -0.1126   -0.6739 H   0  0  0  0  0  0  0  0  0  0  0  0
    4.7437    0.0880   -0.3169 C   0  0  0  0  0  0  0  0  0  0  0  0
    4.6964    1.0399   -0.8579 H   0  0  0  0  0  0  0  0  0  0  0  0
    8.4227   -1.9575    0.1407 C   0  0  0  0  0  0  0  0  0  0  0  0
    8.3792   -1.8644   -0.9685 H   0  0  0  0  0  0  0  0  0  0  0  0
    9.2286   -2.6664    0.4083 H   0  0  0  0  0  0  0  0  0  0  0  0
    8.6639   -0.9580    0.5681 H   0  0  0  0  0  0  0  0  0  0  0  0
  1  7  1  0  0  0  0
  4 11  1  0  0  0  0
  4 12  1  0  0  0  0
  6 17  1  0  0  0  0
  6 16  1  0  0  0  0
  7 21  1  0  0  0  0
  8  7  2  0  0  0  0
  8 16  1  0  0  0  0
  9  8  1  0  0  0  0
  9 11  1  0  0  0  0
 10  9  1  0  0  0  0
 11  3  2  0  0  0  0
 12 15  1  0  0  0  0
 12 13  1  0  0  0  0
 14 12  1  0  0  0  0
 16  5  2  0  0  0  0
 17 18  1  0  0  0  0
 19 17  1  0  0  0  0
 20 17  1  0  0  0  0
 21 22  1  0  0  0  0
 22 24  2  0  0  0  0
 22 23  1  0  0  0  0
 24 25  1  0  0  0  0
 26  2  1  0  0  0  0
 26 24  1  0  0  0  0
 27 26  2  0  0  0  0
 28 27  1  0  0  0  0
 29 27  1  0  0  0  0
 29 21  2  0  0  0  0
 30 29  1  0  0  0  0
 31 33  1  0  0  0  0
 31 34  1  0  0  0  0
 31  2  1  0  0  0  0
 32 31  1  0  0  0  0
M  CHG  1   1  -1
M  END
