1,3
q = -2.0, confidence = 0.796

 16 16  0  0  0  0  0  0  0  0999 V2000
   -0.1189   -1.7797   -1.5112 O   0  5  0  0  0  0  0  0  0  0  0  0
   -1.9854   -3.0422   -1.2541 O   0  0  0  0  0  0  0  0  0  0  0  0
   -0.5469    0.8312   -2.1832 C   0  0  0  0  0  3  0  0  0  0  0  0
   -1.7727    0.6294   -1.4315 C   0  0  0  0  0  0  0  0  0  0  0  0
   -2.0964   -0.6670   -0.8471 C   0  0  0  0  0  0  0  0  0  0  0  0
   -3.2639   -0.7883   -0.0344 C   0  0  0  0  0  0  0  0  0  0  0  0
   -4.0813    0.2943    0.2472 C   0  0  0  0  0  0  0  0  0  0  0  0
   -3.7835    1.5595   -0.3295 C   0  0  0  0  0  0  0  0  0  0  0  0
   -2.6730    1.7172   -1.1404 C   0  0  0  0  0  0  0  0  0  0  0  0
   -1.3967   -1.9609   -1.2640 C   0  0  0  0  0  0  0  0  0  0  0  0
   -0.2803    0.0774   -2.9428 H   0  0  0  0  0  0  0  0  0  0  0  0
   -0.3655    1.8731   -2.5014 H   0  0  0  0  0  0  0  0  0  0  0  0
   -3.5189   -1.8001    0.3137 H   0  0  0  0  0  0  0  0  0  0  0  0
   -4.9779    0.1699    0.8730 H   0  0  0  0  0  0  0  0  0  0  0  0
   -4.4580    2.4128   -0.1556 H   0  0  0  0  0  0  0  0  0  0  0  0
   -2.4888    2.6815   -1.6390 H   0  0  0  0  0  0  0  0  0  0  0  0
  1 10  1  0  0  0  0
  3  4  1  0  0  0  0
  4  9  2  0  0  0  0
  4  5  1  0  0  0  0
  5  6  2  0  0  0  0
  6  7  1  0  0  0  0
  6 13  1  0  0  0  0
  7 14  1  0  0  0  0
  8 15  1  0  0  0  0
  8  7  2  0  0  0  0
  9  8  1  0  0  0  0
 10  2  2  0  0  0  0
 10  5  1  0  0  0  0
 11  3  1  0  0  0  0
 12  3  1  0  0  0  0
 16  9  1  0  0  0  0
M  CHG  1   1  -1
M  END
