1,8
q = -2.0, confidence = 0.784

 20 19  0  0  0  0  0  0  0  0999 V2000
    1.5660    0.5608    0.5915 O   0  0  0  0  0  1  0  0  0  0  0  0
    2.8752    0.2506    0.1628 C   0  0  0  0  0  0  0  0  0  0  0  0
    3.8192    1.3029    0.7640 C   0  0  0  0  0  0  0  0  0  0  0  0
    3.3037   -1.1512    0.6354 C   0  0  0  0  0  0  0  0  0  0  0  0
    2.8902    0.3280   -1.4126 C   0  0  0  0  0  0  0  0  0  0  0  0
    1.5106    0.0399   -1.9342 C   0  0  0  0  0  3  0  0  0  0  0  0
    0.9318   -1.2240   -2.0541 C   0  0  0  0  0  3  0  0  0  0  0  0
   -0.5068   -1.2807   -2.1468 C   0  0  0  0  0  3  0  0  0  0  0  0
    3.4962    2.3203    0.4645 H   0  0  0  0  0  0  0  0  0  0  0  0
    4.8647    1.1508    0.4265 H   0  0  0  0  0  0  0  0  0  0  0  0
    3.7971    1.2433    1.8704 H   0  0  0  0  0  0  0  0  0  0  0  0
    3.1870   -1.2203    1.7353 H   0  0  0  0  0  0  0  0  0  0  0  0
    4.3632   -1.3547    0.3778 H   0  0  0  0  0  0  0  0  0  0  0  0
    2.6779   -1.9448    0.1855 H   0  0  0  0  0  0  0  0  0  0  0  0
    3.6366   -0.3814   -1.8273 H   0  0  0  0  0  0  0  0  0  0  0  0
    3.1941    1.3461   -1.7259 H   0  0  0  0  0  0  0  0  0  0  0  0
    0.9264    0.8941   -2.3254 H   0  0  0  0  0  0  0  0  0  0  0  0
    1.5311   -2.1295   -1.8624 H   0  0  0  0  0  0  0  0  0  0  0  0
   -0.9926   -2.2692   -2.1611 H   0  0  0  0  0  0  0  0  0  0  0  0
   -0.9822   -0.5369   -2.8109 H   0  0  0  0  0  0  0  0  0  0  0  0
  2  1  1  0  0  0  0
  2  4  1  0  0  0  0
  2  3  1  0  0  0  0
  3 11  1  0  0  0  0
  4 12  1  0  0  0  0
  5  2  1  0  0  0  0
  6  5  1  0  0  0  0
  7  6  1  0  0  0  0
  7 18  1  0  0  0  0
  8  7  1  0  0  0  0
  9  3  1  0  0  0  0
 10  3  1  0  0  0  0
 13  4  1  0  0  0  0
 14  4  1  0  0  0  0
 15  5  1  0  0  0  0
 16  5  1  0  0  0  0
 17  6  1  0  0  0  0
 19  8  1  0  0  0  0
 20  8  1  0  0  0  0
M  END
