1,5
q = -1.0

 18 18  0  0  1  0  0  0  0  0999 V2000
    1.1173   -1.9542    0.1059 O   0  0  0  0  0  1  0  0  0  0  0  0
    0.2130   -2.8210   -0.0713 C   0  0  2  0  0  3  0  0  0  0  0  0
   -1.0876   -2.5170   -0.1993 N   0  0  0  0  0  0  0  0  0  0  0  0
   -1.7182   -1.2540   -0.0998 C   0  0  2  0  0  3  0  0  0  0  0  0
   -1.0208   -0.0265    0.0347 C   0  0  0  0  0  2  0  0  0  0  0  0
   -1.8046    1.1385    0.1766 C   0  0  0  0  0  0  0  0  0  0  0  0
   -3.1997    1.1044    0.1608 C   0  0  0  0  0  0  0  0  0  0  0  0
   -3.9043    2.2306    0.2942 F   0  0  0  0  0  0  0  0  0  0  0  0
   -3.8732   -0.1208   -0.0002 C   0  0  0  0  0  0  0  0  0  0  0  0
   -3.1316   -1.2910   -0.1250 C   0  0  0  0  0  0  0  0  0  0  0  0
   -5.2046   -0.1521   -0.0227 F   0  0  0  0  0  0  0  0  0  0  0  0
    0.6206   -4.2652   -0.1360 C   0  0  0  0  0  0  0  0  0  0  0  0
   -1.3507    2.1271    0.3082 H   0  0  0  0  0  0  0  0  0  0  0  0
   -3.6777   -2.2407   -0.2318 H   0  0  0  0  0  0  0  0  0  0  0  0
   -0.2337   -4.9502   -0.2861 H   0  0  0  0  0  0  0  0  0  0  0  0
    1.3472   -4.4018   -0.9612 H   0  0  0  0  0  0  0  0  0  0  0  0
    1.1407   -4.5348    0.8046 H   0  0  0  0  0  0  0  0  0  0  0  0
   -1.7198   -3.3086   -0.3382 H   0  0  0  0  0  0  0  0  0  0  0  0
  2  1  1  1  0  0  0
  3  2  1  0  0  0  0
  4  3  1  1  0  0  0
  4  5  1  0  0  0  0
  5  6  1  0  0  0  0
  6 13  1  0  0  0  0
  7  6  2  0  0  0  0
  7  8  1  0  0  0  0
  9  7  1  0  0  0  0
 10  4  1  0  0  0  0
 10  9  2  0  0  0  0
 11  9  1  0  0  0  0
 12  2  1  0  0  0  0
 12 17  1  0  0  0  0
 14 10  1  0  0  0  0
 15 12  1  0  0  0  0
 16 12  1  0  0  0  0
 18  3  1  0  0  0  0
M  END
