1,5
q = -1.0, confidence = 0.0

 18 18  0  0  1  0  0  0  0  0999 V2000
   -1.1496   -1.9113   -0.3323 O   0  0  0  0  0  1  0  0  0  0  0  0
   -0.4323   -2.8459    0.1336 C   0  0  2  0  0  3  0  0  0  0  0  0
    0.8411   -2.6742    0.5237 N   0  0  0  0  0  0  0  0  0  0  0  0
    1.6708   -1.5431    0.3165 C   0  0  0  0  0  0  0  0  0  0  0  0
    1.1566   -0.2745   -0.0539 C   0  0  0  0  0  2  0  0  0  0  0  0
    2.1061    0.7031   -0.3984 C   0  0  2  0  0  3  0  0  0  0  0  0
    1.7412    1.9102   -0.8636 F   0  0  0  0  0  0  0  0  0  0  0  0
    3.4923    0.4765   -0.2836 C   0  0  0  0  0  0  0  0  0  0  0  0
    4.3297    1.4652   -0.6045 F   0  0  0  0  0  0  0  0  0  0  0  0
    3.9745   -0.7576    0.1551 C   0  0  0  0  0  0  0  0  0  0  0  0
    3.0580   -1.7708    0.4415 C   0  0  0  0  0  0  0  0  0  0  0  0
   -1.0376   -4.2162    0.2400 C   0  0  0  0  0  0  0  0  0  0  0  0
    1.3187   -3.5045    0.8820 H   0  0  0  0  0  0  0  0  0  0  0  0
    5.0584   -0.9145    0.2412 H   0  0  0  0  0  0  0  0  0  0  0  0
    3.4244   -2.7653    0.7400 H   0  0  0  0  0  0  0  0  0  0  0  0
   -0.3365   -4.9702    0.6418 H   0  0  0  0  0  0  0  0  0  0  0  0
   -1.3742   -4.5355   -0.7666 H   0  0  0  0  0  0  0  0  0  0  0  0
   -1.9376   -4.1707    0.8844 H   0  0  0  0  0  0  0  0  0  0  0  0
  2  1  1  6  0  0  0
  2 12  1  0  0  0  0
  2  3  1  0  0  0  0
  3 13  1  0  0  0  0
  4 11  2  0  0  0  0
  4  3  1  0  0  0  0
  5  4  1  0  0  0  0
  6  7  1  6  0  0  0
  6  8  1  0  0  0  0
  6  5  1  0  0  0  0
  8 10  2  0  0  0  0
  9  8  1  0  0  0  0
 10 14  1  0  0  0  0
 10 11  1  0  0  0  0
 11 15  1  0  0  0  0
 12 16  1  0  0  0  0
 12 18  1  0  0  0  0
 17 12  1  0  0  0  0
M  END
