1,6
q = -2.0, confidence = 0.758

 16 16  0  0  0  0  0  0  0  0999 V2000
    1.7036    1.2656   -1.2754 O   0  5  0  0  0  0  0  0  0  0  0  0
   -2.4602   -0.6420    0.8100 O   0  0  0  0  0  0  0  0  0  0  0  0
    1.4621    2.5710   -1.2304 C   0  0  0  0  0  0  0  0  0  0  0  0
    0.2484    3.1202   -0.8774 C   0  0  0  0  0  0  0  0  0  0  0  0
   -0.9420    2.3918   -0.5059 C   0  0  0  0  0  0  0  0  0  0  0  0
   -1.0651    1.0431   -0.2133 C   0  0  0  0  0  3  0  0  0  0  0  0
   -2.3831    0.5019    0.0235 C   0  0  0  0  0  0  0  0  0  0  0  0
   -3.6727    0.8285   -0.3867 C   0  0  0  0  0  0  0  0  0  0  0  0
   -4.5599   -0.1424    0.1772 C   0  0  0  0  0  0  0  0  0  0  0  0
   -3.7712   -1.0115    0.8961 C   0  0  0  0  0  0  0  0  0  0  0  0
    2.2940    3.2187   -1.5719 H   0  0  0  0  0  0  0  0  0  0  0  0
    0.1680    4.2147   -0.9679 H   0  0  0  0  0  0  0  0  0  0  0  0
   -1.8578    3.0166   -0.4615 H   0  0  0  0  0  0  0  0  0  0  0  0
   -3.9356    1.6645   -1.0434 H   0  0  0  0  0  0  0  0  0  0  0  0
   -5.6483   -0.1980    0.0605 H   0  0  0  0  0  0  0  0  0  0  0  0
   -3.9817   -1.9008    1.4989 H   0  0  0  0  0  0  0  0  0  0  0  0
  1  3  1  0  0  0  0
  2 10  1  0  0  0  0
  3  4  2  0  0  0  0
  4  5  1  0  0  0  0
  5 13  1  0  0  0  0
  5  6  2  0  0  0  0
  6  7  1  0  0  0  0
  7  2  1  0  0  0  0
  8  7  2  0  0  0  0
  8  9  1  0  0  0  0
  9 10  2  0  0  0  0
 10 16  1  0  0  0  0
 11  3  1  0  0  0  0
 12  4  1  0  0  0  0
 14  8  1  0  0  0  0
 15  9  1  0  0  0  0
M  CHG  1   1  -1
M  END
