1,7
q = -2.0, confidence = 0.918

 26 25  0  0  0  0  0  0  0  0999 V2000
   -0.6321   -1.9193   -1.4356 O   0  5  0  0  0  0  0  0  0  0  0  0
   -2.6044    1.5264    1.5588 O   0  0  0  0  0  0  0  0  0  0  0  0
   -1.4671   -0.5746    3.0520 O   0  0  0  0  0  0  0  0  0  0  0  0
   -4.6495   -2.8499   -0.5987 O   0  0  0  0  0  0  0  0  0  0  0  0
   -3.1255    1.1696   -0.7439 C   0  0  0  0  0  0  0  0  0  0  0  0
   -2.5453    0.7501    0.6046 C   0  0  0  0  0  0  0  0  0  0  0  0
   -1.9076   -0.6204    0.6449 C   0  0  0  0  0  3  0  0  0  0  0  0
   -2.6247   -1.6414   -0.2258 C   0  0  0  0  0  0  0  0  0  0  0  0
   -1.8972   -2.2588   -1.2329 C   0  0  0  0  0  0  0  0  0  0  0  0
   -2.4001   -3.3386   -2.1459 C   0  0  0  0  0  0  0  0  0  0  0  0
   -1.5093   -1.2031    1.9969 C   0  0  0  0  0  0  0  0  0  0  0  0
   -1.1725   -2.6950    2.0105 C   0  0  0  0  0  0  0  0  0  0  0  0
   -4.0103   -2.0302    0.0787 C   0  0  0  0  0  0  0  0  0  0  0  0
   -4.6874   -1.3861    1.2904 C   0  0  0  0  0  0  0  0  0  0  0  0
   -3.1485    2.2743   -0.7928 H   0  0  0  0  0  0  0  0  0  0  0  0
   -2.5469    0.7508   -1.5899 H   0  0  0  0  0  0  0  0  0  0  0  0
   -4.1644    0.7928   -0.8429 H   0  0  0  0  0  0  0  0  0  0  0  0
   -2.8219   -4.1813   -1.5644 H   0  0  0  0  0  0  0  0  0  0  0  0
   -3.2462   -2.9683   -2.7575 H   0  0  0  0  0  0  0  0  0  0  0  0
   -1.5751   -3.6836   -2.7987 H   0  0  0  0  0  0  0  0  0  0  0  0
   -2.1083   -3.2881    2.0737 H   0  0  0  0  0  0  0  0  0  0  0  0
   -0.6442   -3.0215    1.0941 H   0  0  0  0  0  0  0  0  0  0  0  0
   -0.5671   -2.9044    2.9124 H   0  0  0  0  0  0  0  0  0  0  0  0
   -5.5905   -1.9763    1.5309 H   0  0  0  0  0  0  0  0  0  0  0  0
   -4.0334   -1.3064    2.1810 H   0  0  0  0  0  0  0  0  0  0  0  0
   -5.0080   -0.3497    1.0538 H   0  0  0  0  0  0  0  0  0  0  0  0
  1  9  1  0  0  0  0
  4 13  2  0  0  0  0
  5  6  1  0  0  0  0
  6  7  1  0  0  0  0
  6  2  2  0  0  0  0
  7 11  1  0  0  0  0
  8 13  1  0  0  0  0
  8  7  1  0  0  0  0
  9  8  2  0  0  0  0
 10 18  1  0  0  0  0
 10  9  1  0  0  0  0
 11 12  1  0  0  0  0
 11  3  2  0  0  0  0
 12 21  1  0  0  0  0
 12 23  1  0  0  0  0
 13 14  1  0  0  0  0
 14 24  1  0  0  0  0
 14 25  1  0  0  0  0
 15  5  1  0  0  0  0
 16  5  1  0  0  0  0
 17  5  1  0  0  0  0
 19 10  1  0  0  0  0
 20 10  1  0  0  0  0
 22 12  1  0  0  0  0
 26 14  1  0  0  0  0
M  CHG  1   1  -1
M  END
