1,2
q = -1.0

 30 31  0  0  0  0  0  0  0  0999 V2000
    0.7246   -1.6194    1.5998 O   0  5  0  0  0  0  0  0  0  0  0  0
   -0.7654    0.4252    0.3166 C   0  0  0  0  0  2  0  0  0  0  0  0
   -1.3093   -0.9176    0.5509 C   0  0  0  0  0  0  0  0  0  0  0  0
   -0.5212   -1.9462    1.1348 C   0  0  0  0  0  0  0  0  0  0  0  0
   -0.7963   -3.4211    1.0536 C   0  0  0  0  0  0  0  0  0  0  0  0
   -2.6560   -1.2362   -0.0111 C   0  0  0  0  0  0  0  0  0  0  0  0
   -3.6490   -1.8343    0.7942 C   0  0  0  0  0  0  0  0  0  0  0  0
   -4.9323   -2.0805    0.2845 C   0  0  0  0  0  0  0  0  0  0  0  0
   -5.2445   -1.7299   -1.0385 C   0  0  0  0  0  0  0  0  0  0  0  0
   -4.2670   -1.1235   -1.8447 C   0  0  0  0  0  0  0  0  0  0  0  0
   -2.9866   -0.8725   -1.3340 C   0  0  0  0  0  0  0  0  0  0  0  0
   -1.6068    1.6174    0.3184 C   0  0  0  0  0  0  0  0  0  0  0  0
   -1.5575    2.5665   -0.7328 C   0  0  0  0  0  0  0  0  0  0  0  0
   -2.3581    3.7162   -0.7128 C   0  0  0  0  0  0  0  0  0  0  0  0
   -3.2404    3.9475    0.3558 C   0  0  0  0  0  0  0  0  0  0  0  0
   -3.3196    3.0074    1.3973 C   0  0  0  0  0  0  0  0  0  0  0  0
   -2.5198    1.8579    1.3774 C   0  0  0  0  0  0  0  0  0  0  0  0
   -1.7935   -3.6413    0.6346 H   0  0  0  0  0  0  0  0  0  0  0  0
   -0.7221   -3.8739    2.0639 H   0  0  0  0  0  0  0  0  0  0  0  0
   -0.0303   -3.9197    0.4205 H   0  0  0  0  0  0  0  0  0  0  0  0
   -3.4097   -2.0894    1.8383 H   0  0  0  0  0  0  0  0  0  0  0  0
   -5.6972   -2.5412    0.9286 H   0  0  0  0  0  0  0  0  0  0  0  0
   -6.2520   -1.9209   -1.4385 H   0  0  0  0  0  0  0  0  0  0  0  0
   -4.5063   -0.8398   -2.8811 H   0  0  0  0  0  0  0  0  0  0  0  0
   -2.2203   -0.3849   -1.9546 H   0  0  0  0  0  0  0  0  0  0  0  0
   -0.8917    2.3683   -1.5852 H   0  0  0  0  0  0  0  0  0  0  0  0
   -2.3030    4.4337   -1.5465 H   0  0  0  0  0  0  0  0  0  0  0  0
   -3.8715    4.8490    0.3710 H   0  0  0  0  0  0  0  0  0  0  0  0
   -4.0156    3.1719    2.2347 H   0  0  0  0  0  0  0  0  0  0  0  0
   -2.5850    1.1236    2.1948 H   0  0  0  0  0  0  0  0  0  0  0  0
  2 12  1  0  0  0  0
  2  3  1  0  0  0  0
  3  4  2  0  0  0  0
  4  1  1  0  0  0  0
  5  4  1  0  0  0  0
  5 19  1  0  0  0  0
  6  3  1  0  0  0  0
  6  7  1  0  0  0  0
  7 21  1  0  0  0  0
  8  7  2  0  0  0  0
  8 22  1  0  0  0  0
  9  8  1  0  0  0  0
 10 11  1  0  0  0  0
 10  9  2  0  0  0  0
 11  6  2  0  0  0  0
 12 17  1  0  0  0  0
 13 14  1  0  0  0  0
 13 12  2  0  0  0  0
 14 15  2  0  0  0  0
 15 28  1  0  0  0  0
 15 16  1  0  0  0  0
 16 29  1  0  0  0  0
 17 16  2  0  0  0  0
 17 30  1  0  0  0  0
 18  5  1  0  0  0  0
 20  5  1  0  0  0  0
 23  9  1  0  0  0  0
 24 10  1  0  0  0  0
 25 11  1  0  0  0  0
 26 13  1  0  0  0  0
 27 14  1  0  0  0  0
M  CHG  1   1  -1
M  END
