8,12
q = -1.0

 16 15  0  0  1  0  0  0  0  0999 V2000
   -3.0467    0.5304    2.4710 C   0  0  0  0  0  0  0  0  0  0  0  0
   -4.0689    0.1287    2.3164 H   0  0  0  0  0  0  0  0  0  0  0  0
   -3.0458    1.0734    3.4367 H   0  0  0  0  0  0  0  0  0  0  0  0
   -2.3626   -0.3388    2.5603 H   0  0  0  0  0  0  0  0  0  0  0  0
   -2.6327    1.4451    1.3171 C   0  0  0  0  0  0  0  0  0  0  0  0
   -1.6564    1.9275    1.5341 H   0  0  0  0  0  0  0  0  0  0  0  0
   -3.3680    2.2767    1.2163 H   0  0  0  0  0  0  0  0  0  0  0  0
   -2.4960    0.7466   -0.0282 C   0  0  0  0  0  3  0  0  0  0  0  0
   -2.2794    1.4794   -0.8322 H   0  0  0  0  0  0  0  0  0  0  0  0
   -3.8699    0.2447   -0.3822 O   0  0  0  0  0  0  0  0  0  0  0  0
   -4.0177   -1.0533   -0.4991 C   0  0  2  0  0  3  0  0  0  0  0  0
   -3.0702   -1.8614   -0.3946 O   0  0  0  0  0  1  0  0  0  0  0  0
   -5.4145   -1.5085   -0.8073 C   0  0  0  0  0  0  0  0  0  0  0  0
   -5.5810   -1.4324   -1.9016 H   0  0  0  0  0  0  0  0  0  0  0  0
   -6.1600   -0.8654   -0.3052 H   0  0  0  0  0  0  0  0  0  0  0  0
   -5.5342   -2.5646   -0.5095 H   0  0  0  0  0  0  0  0  0  0  0  0
  1  4  1  0  0  0  0
  1  3  1  0  0  0  0
  2  1  1  0  0  0  0
  5  6  1  0  0  0  0
  5  1  1  0  0  0  0
  7  5  1  0  0  0  0
  8  5  1  0  0  0  0
  9  8  1  0  0  0  0
 10  8  1  0  0  0  0
 11 12  1  6  0  0  0
 11 10  1  0  0  0  0
 13 16  1  0  0  0  0
 13 11  1  0  0  0  0
 13 15  1  0  0  0  0
 14 13  1  0  0  0  0
M  END
