1,3
q = -1.0

 26 27  0  0  0  0  0  0  0  0999 V2000
   -0.8911    0.5279   -0.1420 O   0  5  0  0  0  0  0  0  0  0  0  0
   -0.4411   -3.5758   -0.4409 O   0  0  0  0  0  0  0  0  0  0  0  0
    0.5586   -0.4659   -2.1675 C   0  0  0  0  0  3  0  0  0  0  0  0
   -0.4008    0.0045   -2.4405 H   0  0  0  0  0  0  0  0  0  0  0  0
    1.3320   -0.3808   -2.9506 H   0  0  0  0  0  0  0  0  0  0  0  0
    0.5588   -1.6526   -1.3566 C   0  0  0  0  0  3  0  0  0  0  0  0
    1.3650   -2.3874   -1.5315 H   0  0  0  0  0  0  0  0  0  0  0  0
   -0.5808   -2.3648   -0.7301 C   0  0  0  0  0  0  0  0  0  0  0  0
   -1.8417   -1.6636   -0.5017 C   0  0  0  0  0  0  0  0  0  0  0  0
   -3.0921   -2.5012   -0.3477 C   0  0  0  0  0  0  0  0  0  0  0  0
   -2.9215   -3.4915   -0.8130 H   0  0  0  0  0  0  0  0  0  0  0  0
   -3.2958   -2.7086    0.7309 H   0  0  0  0  0  0  0  0  0  0  0  0
   -4.2973   -1.7897   -0.9608 C   0  0  0  0  0  0  0  0  0  0  0  0
   -4.1561   -1.7352   -2.0660 H   0  0  0  0  0  0  0  0  0  0  0  0
   -5.2374   -2.3533   -0.7885 H   0  0  0  0  0  0  0  0  0  0  0  0
   -4.4301   -0.3820   -0.4310 C   0  0  0  0  0  0  0  0  0  0  0  0
   -5.6794    0.2372   -0.2610 C   0  0  0  0  0  0  0  0  0  0  0  0
   -6.5925   -0.3342   -0.4936 H   0  0  0  0  0  0  0  0  0  0  0  0
   -5.7802    1.5616    0.1954 C   0  0  0  0  0  0  0  0  0  0  0  0
   -6.7702    2.0253    0.3249 H   0  0  0  0  0  0  0  0  0  0  0  0
   -4.6143    2.2870    0.4864 C   0  0  0  0  0  0  0  0  0  0  0  0
   -4.6825    3.3265    0.8428 H   0  0  0  0  0  0  0  0  0  0  0  0
   -3.3613    1.6816    0.3238 C   0  0  0  0  0  0  0  0  0  0  0  0
   -2.4365    2.2324    0.5424 H   0  0  0  0  0  0  0  0  0  0  0  0
   -3.2496    0.3498   -0.1287 C   0  0  0  0  0  0  0  0  0  0  0  0
   -1.9098   -0.2864   -0.2973 C   0  0  0  0  0  0  0  0  0  0  0  0
  3  6  1  0  0  0  0
  4  3  1  0  0  0  0
  5  3  1  0  0  0  0
  6  8  1  0  0  0  0
  7  6  1  0  0  0  0
  8  9  1  0  0  0  0
  8  2  2  0  0  0  0
  9 10  1  0  0  0  0
  9 26  2  0  0  0  0
 10 12  1  0  0  0  0
 11 10  1  0  0  0  0
 13 15  1  0  0  0  0
 13 16  1  0  0  0  0
 13 10  1  0  0  0  0
 14 13  1  0  0  0  0
 16 17  2  0  0  0  0
 16 25  1  0  0  0  0
 17 19  1  0  0  0  0
 18 17  1  0  0  0  0
 19 20  1  0  0  0  0
 19 21  2  0  0  0  0
 21 22  1  0  0  0  0
 23 21  1  0  0  0  0
 23 24  1  0  0  0  0
 25 23  2  0  0  0  0
 26  1  1  0  0  0  0
 26 25  1  0  0  0  0
M  CHG  1   1  -1
M  END
