1,12
q = -1.0

 21 21  0  0  0  0  0  0  0  0999 V2000
   -1.1844    0.0432    0.7447 O   0  5  0  0  0  0  0  0  0  0  0  0
   -7.4311    0.5026    0.9291 O   0  0  0  0  0  0  0  0  0  0  0  0
   -7.1416    0.2125   -1.2199 O   0  0  0  0  0  0  0  0  0  0  0  0
   -6.7133    0.3329   -0.0647 N   0  0  0  0  0  0  0  0  0  0  0  0
   -2.4816    0.1080    0.5206 C   0  0  0  0  0  0  0  0  0  0  0  0
   -3.0382    0.0271   -0.7995 C   0  0  0  0  0  0  0  0  0  0  0  0
   -4.4203    0.0982   -0.9713 C   0  0  0  0  0  0  0  0  0  0  0  0
   -5.2677    0.2709    0.1384 C   0  0  0  0  0  0  0  0  0  0  0  0
   -4.7423    0.3927    1.4373 C   0  0  0  0  0  0  0  0  0  0  0  0
   -3.3649    0.3139    1.6223 C   0  0  0  0  0  0  0  0  0  0  0  0
   -2.0779   -0.0711   -1.9556 C   0  0  0  0  0  0  0  0  0  0  0  0
   -1.1467   -1.2622   -1.8878 C   0  0  0  0  0  3  0  0  0  0  0  0
    0.2240   -1.1829   -2.2699 C   0  0  0  0  0  3  0  0  0  0  0  0
   -4.8754    0.0377   -1.9703 H   0  0  0  0  0  0  0  0  0  0  0  0
   -5.4381    0.5372    2.2748 H   0  0  0  0  0  0  0  0  0  0  0  0
   -2.9211    0.4025    2.6252 H   0  0  0  0  0  0  0  0  0  0  0  0
   -1.4621    0.8525   -2.0048 H   0  0  0  0  0  0  0  0  0  0  0  0
   -2.6576   -0.1163   -2.9034 H   0  0  0  0  0  0  0  0  0  0  0  0
   -1.6607   -2.2342   -2.0020 H   0  0  0  0  0  0  0  0  0  0  0  0
    0.6040   -0.2126   -2.6318 H   0  0  0  0  0  0  0  0  0  0  0  0
    0.7230   -2.0563   -2.7251 H   0  0  0  0  0  0  0  0  0  0  0  0
  3  4  2  0  0  0  0
  4  8  1  0  0  0  0
  4  2  2  0  0  0  0
  5  1  1  0  0  0  0
  5 10  1  0  0  0  0
  6  5  2  0  0  0  0
  7  6  1  0  0  0  0
  7  8  2  0  0  0  0
  8  9  1  0  0  0  0
  9 10  2  0  0  0  0
  9 15  1  0  0  0  0
 10 16  1  0  0  0  0
 11 12  1  0  0  0  0
 11  6  1  0  0  0  0
 13 12  1  0  0  0  0
 14  7  1  0  0  0  0
 17 11  1  0  0  0  0
 18 11  1  0  0  0  0
 19 12  1  0  0  0  0
 20 13  1  0  0  0  0
 21 13  1  0  0  0  0
M  CHG  1   1  -1
M  END
