1,9
q = -1.0

 29 30  0  0  0  0  0  0  0  0999 V2000
   -0.6409    0.0547    0.7462 O   0  5  0  0  0  0  0  0  0  0  0  0
   -1.9588    0.0729    0.5728 C   0  0  0  0  0  0  0  0  0  0  0  0
   -2.5501    0.2031   -0.7203 C   0  0  0  0  0  0  0  0  0  0  0  0
   -3.9423    0.2354   -0.8483 C   0  0  0  0  0  0  0  0  0  0  0  0
   -4.8106    0.1573    0.2675 C   0  0  0  0  0  0  0  0  0  0  0  0
   -4.2107    0.0551    1.5449 C   0  0  0  0  0  0  0  0  0  0  0  0
   -2.8225    0.0126    1.6980 C   0  0  0  0  0  0  0  0  0  0  0  0
   -1.6140    0.3183   -1.8948 C   0  0  0  0  0  0  0  0  0  0  0  0
   -0.6747   -0.8618   -2.0379 C   0  0  0  0  0  3  0  0  0  0  0  0
    0.6932   -0.7244   -2.4134 C   0  0  0  0  0  3  0  0  0  0  0  0
   -6.2824    0.1858    0.1031 C   0  0  0  0  0  0  0  0  0  0  0  0
   -6.8918    0.9092   -0.9508 C   0  0  0  0  0  0  0  0  0  0  0  0
   -8.2840    0.9339   -1.1076 C   0  0  0  0  0  0  0  0  0  0  0  0
   -9.1128    0.2401   -0.2110 C   0  0  0  0  0  0  0  0  0  0  0  0
   -8.5276   -0.4808    0.8426 C   0  0  0  0  0  0  0  0  0  0  0  0
   -7.1350   -0.5096    0.9946 C   0  0  0  0  0  0  0  0  0  0  0  0
   -4.3714    0.3051   -1.8613 H   0  0  0  0  0  0  0  0  0  0  0  0
   -4.8493    0.0307    2.4416 H   0  0  0  0  0  0  0  0  0  0  0  0
   -2.3656   -0.0525    2.6975 H   0  0  0  0  0  0  0  0  0  0  0  0
   -2.2092    0.4239   -2.8288 H   0  0  0  0  0  0  0  0  0  0  0  0
   -1.0044    1.2424   -1.8000 H   0  0  0  0  0  0  0  0  0  0  0  0
   -1.1898   -1.8026   -2.3055 H   0  0  0  0  0  0  0  0  0  0  0  0
    1.0733    0.2926   -2.6104 H   0  0  0  0  0  0  0  0  0  0  0  0
    1.1861   -1.5105   -3.0123 H   0  0  0  0  0  0  0  0  0  0  0  0
   -6.2591    1.4844   -1.6434 H   0  0  0  0  0  0  0  0  0  0  0  0
   -8.7277    1.5119   -1.9333 H   0  0  0  0  0  0  0  0  0  0  0  0
  -10.2064    0.2611   -0.3325 H   0  0  0  0  0  0  0  0  0  0  0  0
   -9.1631   -1.0377    1.5487 H   0  0  0  0  0  0  0  0  0  0  0  0
   -6.6912   -1.1047    1.8071 H   0  0  0  0  0  0  0  0  0  0  0  0
  2  1  1  0  0  0  0
  2  7  1  0  0  0  0
  3  2  2  0  0  0  0
  4  3  1  0  0  0  0
  4  5  2  0  0  0  0
  5  6  1  0  0  0  0
  6  7  2  0  0  0  0
  6 18  1  0  0  0  0
  7 19  1  0  0  0  0
  8 21  1  0  0  0  0
  8  3  1  0  0  0  0
  9  8  1  0  0  0  0
 10  9  1  0  0  0  0
 11  5  1  0  0  0  0
 11 16  1  0  0  0  0
 12 11  2  0  0  0  0
 13 12  1  0  0  0  0
 13 14  2  0  0  0  0
 14 15  1  0  0  0  0
 15 16  2  0  0  0  0
 15 28  1  0  0  0  0
 16 29  1  0  0  0  0
 17  4  1  0  0  0  0
 20  8  1  0  0  0  0
 22  9  1  0  0  0  0
 23 10  1  0  0  0  0
 24 10  1  0  0  0  0
 25 12  1  0  0  0  0
 26 13  1  0  0  0  0
 27 14  1  0  0  0  0
M  CHG  1   1  -1
M  END
