1,9
q = -1.0

 22 22  0  0  0  0  0  0  0  0999 V2000
    1.6708    0.2604    0.4358 O   0  5  0  0  0  0  0  0  0  0  0  0
    2.9623    0.3213    0.1063 C   0  0  0  0  0  0  0  0  0  0  0  0
    3.4072    0.1314   -1.2334 C   0  0  0  0  0  0  0  0  0  0  0  0
    4.7748    0.2189   -1.5342 C   0  0  0  0  0  0  0  0  0  0  0  0
    5.7167    0.5136   -0.5357 C   0  0  0  0  0  0  0  0  0  0  0  0
    5.2734    0.7338    0.7784 C   0  0  0  0  0  0  0  0  0  0  0  0
    3.9135    0.6443    1.1221 C   0  0  0  0  0  0  0  0  0  0  0  0
    2.3521   -0.1183   -2.2796 C   0  0  0  0  0  0  0  0  0  0  0  0
    1.4956   -1.3366   -2.0072 C   0  0  0  0  0  3  0  0  0  0  0  0
    0.0925   -1.3684   -2.2584 C   0  0  0  0  0  3  0  0  0  0  0  0
    3.4281    0.8909    2.5250 C   0  0  0  0  0  0  0  0  0  0  0  0
    5.1018    0.0638   -2.5761 H   0  0  0  0  0  0  0  0  0  0  0  0
    6.7877    0.5774   -0.7798 H   0  0  0  0  0  0  0  0  0  0  0  0
    6.0024    0.9781    1.5689 H   0  0  0  0  0  0  0  0  0  0  0  0
    2.8431   -0.2365   -3.2711 H   0  0  0  0  0  0  0  0  0  0  0  0
    1.6840    0.7660   -2.3603 H   0  0  0  0  0  0  0  0  0  0  0  0
    2.0523   -2.2897   -2.0740 H   0  0  0  0  0  0  0  0  0  0  0  0
   -0.3921   -2.3079   -2.5790 H   0  0  0  0  0  0  0  0  0  0  0  0
   -0.3778   -0.4608   -2.6736 H   0  0  0  0  0  0  0  0  0  0  0  0
    2.6945    1.7236    2.5619 H   0  0  0  0  0  0  0  0  0  0  0  0
    4.2668    1.1315    3.2071 H   0  0  0  0  0  0  0  0  0  0  0  0
    2.8953    0.0039    2.9327 H   0  0  0  0  0  0  0  0  0  0  0  0
  2  1  1  0  0  0  0
  2  7  1  0  0  0  0
  3  2  2  0  0  0  0
  4  3  1  0  0  0  0
  4  5  2  0  0  0  0
  5  6  1  0  0  0  0
  6  7  2  0  0  0  0
  6 14  1  0  0  0  0
  7 11  1  0  0  0  0
  8  9  1  0  0  0  0
  8  3  1  0  0  0  0
 10  9  1  0  0  0  0
 11 20  1  0  0  0  0
 11 22  1  0  0  0  0
 11 21  1  0  0  0  0
 12  4  1  0  0  0  0
 13  5  1  0  0  0  0
 15  8  1  0  0  0  0
 16  8  1  0  0  0  0
 17  9  1  0  0  0  0
 18 10  1  0  0  0  0
 19 10  1  0  0  0  0
M  CHG  1   1  -1
M  END
