2,10
q = -1.0

 19 19  0  0  0  0  0  0  0  0999 V2000
   -6.9539    0.2273   -0.0676 Br  0  0  0  0  0  0  0  0  0  0  0  0
   -0.9293    0.2621    0.6636 O   0  5  0  0  0  0  0  0  0  0  0  0
   -2.2481    0.2389    0.4898 C   0  0  0  0  0  0  0  0  0  0  0  0
   -2.8269    0.1686   -0.8137 C   0  0  0  0  0  0  0  0  0  0  0  0
   -4.2200    0.1636   -0.9656 C   0  0  0  0  0  0  0  0  0  0  0  0
   -5.0556    0.2468    0.1611 C   0  0  0  0  0  0  0  0  0  0  0  0
   -4.5088    0.3436    1.4495 C   0  0  0  0  0  0  0  0  0  0  0  0
   -3.1165    0.3357    1.6077 C   0  0  0  0  0  0  0  0  0  0  0  0
   -1.8733    0.1246   -1.9787 C   0  0  0  0  0  0  0  0  0  0  0  0
   -0.9419   -1.0708   -1.9433 C   0  0  0  0  0  3  0  0  0  0  0  0
    0.4350   -0.9937   -2.3014 C   0  0  0  0  0  3  0  0  0  0  0  0
   -4.6600    0.1059   -1.9731 H   0  0  0  0  0  0  0  0  0  0  0  0
   -5.1698    0.4161    2.3254 H   0  0  0  0  0  0  0  0  0  0  0  0
   -2.6682    0.4119    2.6102 H   0  0  0  0  0  0  0  0  0  0  0  0
   -2.4501    0.1100   -2.9294 H   0  0  0  0  0  0  0  0  0  0  0  0
   -1.2562    1.0483   -1.9900 H   0  0  0  0  0  0  0  0  0  0  0  0
   -1.4601   -2.0350   -2.0965 H   0  0  0  0  0  0  0  0  0  0  0  0
    0.8294   -0.0144   -2.6228 H   0  0  0  0  0  0  0  0  0  0  0  0
    0.9339   -1.8563   -2.7770 H   0  0  0  0  0  0  0  0  0  0  0  0
  1  6  1  0  0  0  0
  3  2  1  0  0  0  0
  3  8  1  0  0  0  0
  4  3  2  0  0  0  0
  5  4  1  0  0  0  0
  5  6  2  0  0  0  0
  6  7  1  0  0  0  0
  7  8  2  0  0  0  0
  7 13  1  0  0  0  0
  8 14  1  0  0  0  0
  9 10  1  0  0  0  0
  9  4  1  0  0  0  0
 11 10  1  0  0  0  0
 12  5  1  0  0  0  0
 15  9  1  0  0  0  0
 16  9  1  0  0  0  0
 17 10  1  0  0  0  0
 18 11  1  0  0  0  0
 19 11  1  0  0  0  0
M  CHG  1   2  -1
M  END
