3,5
q = -1.0

 23 22  0  0  1  0  0  0  0  0999 V2000
   -2.5375   -0.2418    2.0141 O   0  0  0  0  0  0  0  0  0  0  0  0
   -2.2133    1.9681    1.6098 O   0  0  0  0  0  0  0  0  0  0  0  0
   -0.9204   -2.0117    0.0912 O   0  0  0  0  0  1  0  0  0  0  0  0
   -2.8764   -3.0711   -0.2123 O   0  0  0  0  0  0  0  0  0  0  0  0
   -2.0288    0.4777   -0.2423 C   0  0  0  0  0  3  0  0  0  0  0  0
   -2.7386   -0.7420   -0.7564 C   0  0  0  0  0  0  0  0  0  0  0  0
   -3.7859   -0.7896   -1.6246 C   0  0  0  0  0  0  0  0  0  0  0  0
   -4.4683    0.3679   -2.2645 C   0  0  0  0  0  0  0  0  0  0  0  0
   -2.2951    0.6624    1.2261 C   0  0  0  0  0  0  0  0  0  0  0  0
   -2.4218    2.2115    3.0105 C   0  0  0  0  0  0  0  0  0  0  0  0
   -2.1355   -1.9835   -0.2540 C   0  0  2  0  0  3  0  0  0  0  0  0
   -2.2531   -4.2890    0.2442 C   0  0  0  0  0  0  0  0  0  0  0  0
   -2.2599    1.3856   -0.8199 H   0  0  0  0  0  0  0  0  0  0  0  0
   -4.1619   -1.7928   -1.8906 H   0  0  0  0  0  0  0  0  0  0  0  0
   -4.0638    1.3472   -1.9483 H   0  0  0  0  0  0  0  0  0  0  0  0
   -4.4074    0.2977   -3.3720 H   0  0  0  0  0  0  0  0  0  0  0  0
   -5.5537    0.3465   -2.0252 H   0  0  0  0  0  0  0  0  0  0  0  0
   -1.6280    1.7299    3.6165 H   0  0  0  0  0  0  0  0  0  0  0  0
   -2.3910    3.3080    3.1379 H   0  0  0  0  0  0  0  0  0  0  0  0
   -3.4009    1.8102    3.3366 H   0  0  0  0  0  0  0  0  0  0  0  0
   -1.8897   -4.1614    1.2821 H   0  0  0  0  0  0  0  0  0  0  0  0
   -3.0405   -5.0601    0.2011 H   0  0  0  0  0  0  0  0  0  0  0  0
   -1.4056   -4.5600   -0.4157 H   0  0  0  0  0  0  0  0  0  0  0  0
  2 10  1  0  0  0  0
  4 12  1  0  0  0  0
  5  9  1  0  0  0  0
  6 11  1  0  0  0  0
  6  5  1  0  0  0  0
  7  6  2  0  0  0  0
  8 17  1  0  0  0  0
  8 15  1  0  0  0  0
  8  7  1  0  0  0  0
  9  2  1  0  0  0  0
  9  1  2  0  0  0  0
 10 19  1  0  0  0  0
 10 20  1  0  0  0  0
 10 18  1  0  0  0  0
 11  4  1  0  0  0  0
 11  3  1  6  0  0  0
 12 21  1  0  0  0  0
 13  5  1  0  0  0  0
 14  7  1  0  0  0  0
 16  8  1  0  0  0  0
 22 12  1  0  0  0  0
 23 12  1  0  0  0  0
M  END
