3,7
q = -1.0

 45 47  0  0  1  0  0  0  0  0999 V2000
   -1.2166   -0.1329   -0.0875 P   0  0  0  0  0  0  0  0  0  0  0  0
    0.9380    2.1037    1.6406 O   0  0  0  0  0  0  0  0  0  0  0  0
    1.4421    1.5569   -0.4909 O   0  0  0  0  0  1  0  0  0  0  0  0
    1.7318    4.2258   -1.3103 C   0  0  0  0  0  0  0  0  0  0  0  0
    1.4028    3.8868    0.1388 C   0  0  0  0  0  0  0  0  0  0  0  0
    1.2619    2.4133    0.4062 C   0  0  1  0  0  3  0  0  0  0  0  0
    0.6784    0.6503    1.9786 C   0  0  0  0  0  3  0  0  0  0  0  0
   -0.7450    0.6040    2.4944 C   0  0  0  0  0  0  0  0  0  0  0  0
   -1.0730    0.9123    3.8267 C   0  0  0  0  0  0  0  0  0  0  0  0
   -2.4116    0.8876    4.2500 C   0  0  0  0  0  0  0  0  0  0  0  0
   -3.4383    0.5620    3.3473 C   0  0  0  0  0  0  0  0  0  0  0  0
   -3.1291    0.2538    2.0134 C   0  0  0  0  0  0  0  0  0  0  0  0
   -1.7876    0.2780    1.5975 C   0  0  0  0  0  0  0  0  0  0  0  0
   -1.5650    1.3227   -1.1366 C   0  0  0  0  0  0  0  0  0  0  0  0
   -1.2565    1.2626   -2.5130 C   0  0  0  0  0  0  0  0  0  0  0  0
   -1.4438    2.3898   -3.3234 C   0  0  0  0  0  0  0  0  0  0  0  0
   -1.9252    3.5868   -2.7649 C   0  0  0  0  0  0  0  0  0  0  0  0
   -2.2241    3.6518   -1.3953 C   0  0  0  0  0  0  0  0  0  0  0  0
   -2.0465    2.5234   -0.5781 C   0  0  0  0  0  0  0  0  0  0  0  0
   -2.2814   -1.4919   -0.6850 C   0  0  0  0  0  0  0  0  0  0  0  0
   -3.3131   -1.2705   -1.6201 C   0  0  0  0  0  0  0  0  0  0  0  0
   -4.1435   -2.3343   -2.0071 C   0  0  0  0  0  0  0  0  0  0  0  0
   -3.9543   -3.6136   -1.4630 C   0  0  0  0  0  0  0  0  0  0  0  0
   -2.9318   -3.8343   -0.5243 C   0  0  0  0  0  0  0  0  0  0  0  0
   -2.0954   -2.7800   -0.1365 C   0  0  0  0  0  0  0  0  0  0  0  0
    2.6893    3.7675   -1.6254 H   0  0  0  0  0  0  0  0  0  0  0  0
    1.8187    5.3216   -1.4353 H   0  0  0  0  0  0  0  0  0  0  0  0
    0.9407    3.8595   -1.9926 H   0  0  0  0  0  0  0  0  0  0  0  0
    0.4509    4.3559    0.4683 H   0  0  0  0  0  0  0  0  0  0  0  0
    2.1685    4.2730    0.8465 H   0  0  0  0  0  0  0  0  0  0  0  0
    1.3892    0.4666    2.8102 H   0  0  0  0  0  0  0  0  0  0  0  0
   -0.2728    1.1675    4.5387 H   0  0  0  0  0  0  0  0  0  0  0  0
   -2.6569    1.1180    5.2975 H   0  0  0  0  0  0  0  0  0  0  0  0
   -4.4840    0.5354    3.6880 H   0  0  0  0  0  0  0  0  0  0  0  0
   -3.9249   -0.0237    1.3049 H   0  0  0  0  0  0  0  0  0  0  0  0
   -0.8767    0.3282   -2.9551 H   0  0  0  0  0  0  0  0  0  0  0  0
   -1.2106    2.3358   -4.3972 H   0  0  0  0  0  0  0  0  0  0  0  0
   -2.0694    4.4717   -3.4025 H   0  0  0  0  0  0  0  0  0  0  0  0
   -2.6064    4.5860   -0.9572 H   0  0  0  0  0  0  0  0  0  0  0  0
   -2.2861    2.5758    0.4945 H   0  0  0  0  0  0  0  0  0  0  0  0
   -3.4717   -0.2686   -2.0450 H   0  0  0  0  0  0  0  0  0  0  0  0
   -4.9464   -2.1580   -2.7382 H   0  0  0  0  0  0  0  0  0  0  0  0
   -4.6070   -4.4442   -1.7702 H   0  0  0  0  0  0  0  0  0  0  0  0
   -2.7849   -4.8355   -0.0927 H   0  0  0  0  0  0  0  0  0  0  0  0
   -1.2962   -2.9528    0.6013 H   0  0  0  0  0  0  0  0  0  0  0  0
  1 13  1  0  0  0  0
  2  7  1  0  0  0  0
  4  5  1  0  0  0  0
  5  6  1  0  0  0  0
  5 29  1  0  0  0  0
  5 30  1  0  0  0  0
  6  3  1  6  0  0  0
  6  2  1  0  0  0  0
  7  8  1  0  0  0  0
  7 31  1  0  0  0  0
  8  9  1  0  0  0  0
  9 10  2  0  0  0  0
  9 32  1  0  0  0  0
 10 33  1  0  0  0  0
 11 34  1  0  0  0  0
 11 10  1  0  0  0  0
 12 11  2  0  0  0  0
 13 12  1  0  0  0  0
 13  8  2  0  0  0  0
 14 19  1  0  0  0  0
 14  1  1  0  0  0  0
 15 14  2  0  0  0  0
 16 17  2  0  0  0  0
 16 15  1  0  0  0  0
 17 18  1  0  0  0  0
 18 39  1  0  0  0  0
 18 19  2  0  0  0  0
 19 40  1  0  0  0  0
 20 25  1  0  0  0  0
 20  1  1  0  0  0  0
 21 20  2  0  0  0  0
 22 21  1  0  0  0  0
 22 23  2  0  0  0  0
 23 24  1  0  0  0  0
 24 25  2  0  0  0  0
 24 44  1  0  0  0  0
 25 45  1  0  0  0  0
 26  4  1  0  0  0  0
 27  4  1  0  0  0  0
 28  4  1  0  0  0  0
 35 12  1  0  0  0  0
 36 15  1  0  0  0  0
 37 16  1  0  0  0  0
 38 17  1  0  0  0  0
 41 21  1  0  0  0  0
 42 22  1  0  0  0  0
 43 23  1  0  0  0  0
M  END
