1,12
q = -1.0

 22 21  0  0  0  0  0  0  0  0999 V2000
    2.4804    0.7436   -1.2350 O   0  5  0  0  0  0  0  0  0  0  0  0
    2.1983    4.9497   -0.9034 O   0  0  0  0  0  0  0  0  0  0  0  0
    0.6709    4.5669    0.7288 O   0  0  0  0  0  0  0  0  0  0  0  0
   -1.2922    2.1532    1.5211 O   0  0  0  0  0  0  0  0  0  0  0  0
   -1.5801    3.2251   -0.4620 O   0  0  0  0  0  0  0  0  0  0  0  0
    3.8130    2.6750   -1.5771 C   0  0  0  0  0  0  0  0  0  0  0  0
    4.5216    1.9261   -1.9725 H   0  0  0  0  0  0  0  0  0  0  0  0
    4.2732    3.2562   -0.7521 H   0  0  0  0  0  0  0  0  0  0  0  0
    3.5569    3.4332   -2.3441 H   0  0  0  0  0  0  0  0  0  0  0  0
    2.5727    1.9993   -1.1025 C   0  0  0  0  0  0  0  0  0  0  0  0
    1.4397    2.7012   -0.4894 C   0  0  0  0  0  0  0  0  0  0  0  0
    0.3448    1.9042   -0.1967 C   0  0  0  0  0  2  0  0  0  0  0  0
    1.4907    4.1823   -0.2735 C   0  0  0  0  0  0  0  0  0  0  0  0
    0.6011    5.9823    0.9687 C   0  0  0  0  0  0  0  0  0  0  0  0
   -0.0542    6.1079    1.8479 H   0  0  0  0  0  0  0  0  0  0  0  0
    0.1788    6.5049    0.0873 H   0  0  0  0  0  0  0  0  0  0  0  0
    1.6095    6.3927    1.1712 H   0  0  0  0  0  0  0  0  0  0  0  0
   -0.9066    2.4475    0.3992 C   0  0  0  0  0  0  0  0  0  0  0  0
   -2.7982    3.8054    0.0394 C   0  0  0  0  0  0  0  0  0  0  0  0
   -3.3069    4.2466   -0.8344 H   0  0  0  0  0  0  0  0  0  0  0  0
   -2.5595    4.5896    0.7854 H   0  0  0  0  0  0  0  0  0  0  0  0
   -3.4324    3.0339    0.5159 H   0  0  0  0  0  0  0  0  0  0  0  0
  1 10  1  0  0  0  0
  2 13  2  0  0  0  0
  3 14  1  0  0  0  0
  5 19  1  0  0  0  0
  5 18  1  0  0  0  0
  6 10  1  0  0  0  0
  6  8  1  0  0  0  0
  7  6  1  0  0  0  0
  9  6  1  0  0  0  0
 10 11  2  0  0  0  0
 11 13  1  0  0  0  0
 11 12  1  0  0  0  0
 12 18  1  0  0  0  0
 13  3  1  0  0  0  0
 14 17  1  0  0  0  0
 14 15  1  0  0  0  0
 16 14  1  0  0  0  0
 18  4  2  0  0  0  0
 19 22  1  0  0  0  0
 19 21  1  0  0  0  0
 20 19  1  0  0  0  0
M  CHG  1   1  -1
M  END
