2,7
q = -1.0, confidence = 0.0

 36 37  0  0  1  0  0  0  0  0999 V2000
   -1.9610    1.4158    2.1740 O   0  0  0  0  0  0  0  0  0  0  0  0
    0.8043    0.2358   -0.6021 O   0  0  0  0  0  1  0  0  0  0  0  0
    0.8271   -0.6569    1.5077 N   0  0  0  0  0  0  0  0  0  0  0  0
    1.5773   -0.9758    2.7191 C   0  0  0  0  0  0  0  0  0  0  0  0
   -0.6131   -0.4879    1.6659 C   0  0  1  0  0  0  0  0  0  0  0  0
    1.4034   -0.4086    0.3014 C   0  0  1  0  0  3  0  0  0  0  0  0
   -1.1441    0.9855    1.3861 C   0  0  0  0  0  3  0  0  0  0  0  0
   -1.4654   -1.4619    0.8647 C   0  0  0  0  0  0  0  0  0  0  0  0
   -2.8639   -1.4271    1.0533 C   0  0  0  0  0  0  0  0  0  0  0  0
   -3.7064   -2.2645    0.3167 C   0  0  0  0  0  0  0  0  0  0  0  0
   -3.1913   -3.1678   -0.6369 C   0  0  0  0  0  0  0  0  0  0  0  0
   -1.7951   -3.2092   -0.8058 C   0  0  0  0  0  0  0  0  0  0  0  0
   -0.9433   -2.3710   -0.0712 C   0  0  0  0  0  0  0  0  0  0  0  0
   -4.1101   -4.0331   -1.4605 C   0  0  0  0  0  0  0  0  0  0  0  0
    2.7563   -0.9486   -0.0223 C   0  0  0  0  0  0  0  0  0  0  0  0
    3.5991   -0.1655   -0.8390 C   0  0  0  0  0  0  0  0  0  0  0  0
    4.8541   -0.6510   -1.2257 C   0  0  0  0  0  0  0  0  0  0  0  0
    5.2679   -1.9320   -0.8238 C   0  0  0  0  0  0  0  0  0  0  0  0
    4.4211   -2.7293   -0.0363 C   0  0  0  0  0  0  0  0  0  0  0  0
    3.1714   -2.2406    0.3669 C   0  0  0  0  0  0  0  0  0  0  0  0
    1.3041   -0.2519    3.5142 H   0  0  0  0  0  0  0  0  0  0  0  0
    2.6616   -0.8907    2.5336 H   0  0  0  0  0  0  0  0  0  0  0  0
    1.3480   -1.9989    3.0834 H   0  0  0  0  0  0  0  0  0  0  0  0
   -0.8264   -0.6316    2.7426 H   0  0  0  0  0  0  0  0  0  0  0  0
   -3.2909   -0.7174    1.7777 H   0  0  0  0  0  0  0  0  0  0  0  0
   -4.7945   -2.2123    0.4807 H   0  0  0  0  0  0  0  0  0  0  0  0
   -1.3596   -3.9105   -1.5351 H   0  0  0  0  0  0  0  0  0  0  0  0
    0.1400   -2.4426   -0.2403 H   0  0  0  0  0  0  0  0  0  0  0  0
   -4.9274   -4.4613   -0.8456 H   0  0  0  0  0  0  0  0  0  0  0  0
   -3.5651   -4.8683   -1.9417 H   0  0  0  0  0  0  0  0  0  0  0  0
   -4.5911   -3.4412   -2.2685 H   0  0  0  0  0  0  0  0  0  0  0  0
    3.2501    0.8247   -1.1657 H   0  0  0  0  0  0  0  0  0  0  0  0
    5.5119   -0.0296   -1.8515 H   0  0  0  0  0  0  0  0  0  0  0  0
    6.2514   -2.3158   -1.1346 H   0  0  0  0  0  0  0  0  0  0  0  0
    4.7330   -3.7424    0.2587 H   0  0  0  0  0  0  0  0  0  0  0  0
    2.5010   -2.8780    0.9624 H   0  0  0  0  0  0  0  0  0  0  0  0
  3  5  1  0  0  0  0
  3  4  1  0  0  0  0
  4 23  1  0  0  0  0
  4 21  1  0  0  0  0
  5 24  1  1  0  0  0
  6  2  1  6  0  0  0
  6  3  1  0  0  0  0
  7  5  1  0  0  0  0
  7  1  2  0  0  0  0
  8  9  1  0  0  0  0
  8  5  1  0  0  0  0
  9 25  1  0  0  0  0
 10 26  1  0  0  0  0
 10  9  2  0  0  0  0
 11 10  1  0  0  0  0
 12 11  2  0  0  0  0
 12 13  1  0  0  0  0
 13  8  2  0  0  0  0
 14 29  1  0  0  0  0
 14 11  1  0  0  0  0
 15  6  1  0  0  0  0
 15 20  1  0  0  0  0
 16 15  2  0  0  0  0
 17 16  1  0  0  0  0
 17 18  2  0  0  0  0
 18 19  1  0  0  0  0
 19 35  1  0  0  0  0
 19 20  2  0  0  0  0
 20 36  1  0  0  0  0
 22  4  1  0  0  0  0
 27 12  1  0  0  0  0
 28 13  1  0  0  0  0
 30 14  1  0  0  0  0
 31 14  1  0  0  0  0
 32 16  1  0  0  0  0
 33 17  1  0  0  0  0
 34 18  1  0  0  0  0
M  END
