1,3
q = -1.0, confidence = 0.0

 34 35  0  0  1  0  0  0  0  0999 V2000
    0.3866    1.2484   -1.2507 O   0  0  0  0  0  1  0  0  0  0  0  0
    1.5771    1.0547    0.6685 N   0  0  0  0  0  0  0  0  0  0  0  0
    1.6252   -0.4046    0.4638 C   0  0  0  0  0  3  0  0  0  0  0  0
    0.9856    1.8026   -0.2781 C   0  0  2  0  0  3  0  0  0  0  0  0
    2.0953    1.5646    1.9327 C   0  0  0  0  0  0  0  0  0  0  0  0
    3.0383   -0.9006    0.3921 C   0  0  0  0  0  0  0  0  0  0  0  0
    3.3658   -2.1859    0.8799 C   0  0  0  0  0  0  0  0  0  0  0  0
    4.6671   -2.6898    0.7846 C   0  0  0  0  0  0  0  0  0  0  0  0
    5.7095   -1.9309    0.2109 C   0  0  0  0  0  0  0  0  0  0  0  0
    5.3871   -0.6453   -0.2638 C   0  0  0  0  0  0  0  0  0  0  0  0
    4.0814   -0.1420   -0.1806 C   0  0  0  0  0  0  0  0  0  0  0  0
    7.1049   -2.4911    0.0924 C   0  0  0  0  0  0  0  0  0  0  0  0
    0.9954    3.2944   -0.2316 C   0  0  0  0  0  0  0  0  0  0  0  0
    2.1749    4.0294    0.0084 C   0  0  0  0  0  0  0  0  0  0  0  0
    2.1493    5.4310   -0.0185 C   0  0  0  0  0  0  0  0  0  0  0  0
    0.9472    6.1096   -0.2751 C   0  0  0  0  0  0  0  0  0  0  0  0
   -0.2279    5.3817   -0.5251 C   0  0  0  0  0  0  0  0  0  0  0  0
   -0.2031    3.9813   -0.5170 C   0  0  0  0  0  0  0  0  0  0  0  0
    1.1472   -0.8643    1.3524 H   0  0  0  0  0  0  0  0  0  0  0  0
    3.2038    1.5218    1.9556 H   0  0  0  0  0  0  0  0  0  0  0  0
    1.7075    0.9230    2.7483 H   0  0  0  0  0  0  0  0  0  0  0  0
    1.7560    2.5997    2.1112 H   0  0  0  0  0  0  0  0  0  0  0  0
    2.5752   -2.8047    1.3331 H   0  0  0  0  0  0  0  0  0  0  0  0
    4.8838   -3.6990    1.1711 H   0  0  0  0  0  0  0  0  0  0  0  0
    6.1768   -0.0251   -0.7180 H   0  0  0  0  0  0  0  0  0  0  0  0
    3.8632    0.8598   -0.5844 H   0  0  0  0  0  0  0  0  0  0  0  0
    7.1632   -3.2627   -0.7056 H   0  0  0  0  0  0  0  0  0  0  0  0
    7.4318   -2.9794    1.0335 H   0  0  0  0  0  0  0  0  0  0  0  0
    7.8417   -1.7026   -0.1574 H   0  0  0  0  0  0  0  0  0  0  0  0
    3.1221    3.5017    0.1937 H   0  0  0  0  0  0  0  0  0  0  0  0
    3.0766    5.9970    0.1568 H   0  0  0  0  0  0  0  0  0  0  0  0
    0.9285    7.2099   -0.2893 H   0  0  0  0  0  0  0  0  0  0  0  0
   -1.1705    5.9091   -0.7362 H   0  0  0  0  0  0  0  0  0  0  0  0
   -1.1127    3.4033   -0.7364 H   0  0  0  0  0  0  0  0  0  0  0  0
  2  5  1  0  0  0  0
  3  2  1  0  0  0  0
  3 19  1  0  0  0  0
  4  1  1  1  0  0  0
  4 13  1  0  0  0  0
  4  2  1  0  0  0  0
  5 20  1  0  0  0  0
  5 22  1  0  0  0  0
  5 21  1  0  0  0  0
  6  3  1  0  0  0  0
  6  7  1  0  0  0  0
  7 23  1  0  0  0  0
  8  7  2  0  0  0  0
  8 24  1  0  0  0  0
  9  8  1  0  0  0  0
 10 11  1  0  0  0  0
 10  9  2  0  0  0  0
 11  6  2  0  0  0  0
 12  9  1  0  0  0  0
 12 28  1  0  0  0  0
 13 14  1  0  0  0  0
 14 30  1  0  0  0  0
 15 14  2  0  0  0  0
 15 31  1  0  0  0  0
 16 15  1  0  0  0  0
 17 18  1  0  0  0  0
 17 16  2  0  0  0  0
 18 13  2  0  0  0  0
 25 10  1  0  0  0  0
 26 11  1  0  0  0  0
 27 12  1  0  0  0  0
 29 12  1  0  0  0  0
 32 16  1  0  0  0  0
 33 17  1  0  0  0  0
 34 18  1  0  0  0  0
M  END
