1,5
q = -2.0, confidence = 0.572

 40 41  0  0  0  0  0  0  0  0999 V2000
    1.2946   -1.6944   -1.5560 O   0  5  0  0  0  0  0  0  0  0  0  0
    2.6583   -0.8246   -3.1385 O   0  0  0  0  0  0  0  0  0  0  0  0
    4.9179    1.1327   -0.1715 O   0  0  0  0  0  0  0  0  0  0  0  0
    2.1905    0.3397   -1.1905 N   0  0  0  0  0  0  0  0  0  0  0  0
    1.4091    0.3196    0.0290 C   0  0  0  0  0  3  0  0  0  0  0  0
    2.0622    0.5195    0.9099 H   0  0  0  0  0  0  0  0  0  0  0  0
    2.0931   -0.7472   -2.0507 C   0  0  0  0  0  0  0  0  0  0  0  0
    0.2537    1.2687    0.0002 C   0  0  0  0  0  0  0  0  0  0  0  0
   -0.6077    1.3274   -1.1242 C   0  0  0  0  0  0  0  0  0  0  0  0
   -0.3737    0.7074   -2.0037 H   0  0  0  0  0  0  0  0  0  0  0  0
   -1.7377    2.1471   -1.1303 C   0  0  0  0  0  0  0  0  0  0  0  0
   -2.3812    2.1467   -2.0242 H   0  0  0  0  0  0  0  0  0  0  0  0
   -2.0799    2.9604   -0.0221 C   0  0  0  0  0  0  0  0  0  0  0  0
   -1.1928    2.9469    1.0712 C   0  0  0  0  0  0  0  0  0  0  0  0
   -1.3806    3.5903    1.9422 H   0  0  0  0  0  0  0  0  0  0  0  0
   -0.0476    2.1318    1.0756 C   0  0  0  0  0  0  0  0  0  0  0  0
    0.6438    2.1799    1.9331 H   0  0  0  0  0  0  0  0  0  0  0  0
   -3.3666    3.8013   -0.0561 C   0  0  0  0  0  0  0  0  0  0  0  0
   -3.5546    4.6264    1.2284 C   0  0  0  0  0  0  0  0  0  0  0  0
   -2.7226    5.3427    1.3823 H   0  0  0  0  0  0  0  0  0  0  0  0
   -3.6235    3.9801    2.1268 H   0  0  0  0  0  0  0  0  0  0  0  0
   -4.4933    5.2132    1.1661 H   0  0  0  0  0  0  0  0  0  0  0  0
   -3.3191    4.7730   -1.2570 C   0  0  0  0  0  0  0  0  0  0  0  0
   -3.2220    4.2335   -2.2198 H   0  0  0  0  0  0  0  0  0  0  0  0
   -2.4570    5.4647   -1.1707 H   0  0  0  0  0  0  0  0  0  0  0  0
   -4.2468    5.3807   -1.3035 H   0  0  0  0  0  0  0  0  0  0  0  0
   -4.5797    2.8537   -0.2082 C   0  0  0  0  0  0  0  0  0  0  0  0
   -4.5180    2.2550   -1.1389 H   0  0  0  0  0  0  0  0  0  0  0  0
   -5.5266    3.4320   -0.2410 H   0  0  0  0  0  0  0  0  0  0  0  0
   -4.6368    2.1461    0.6442 H   0  0  0  0  0  0  0  0  0  0  0  0
    2.9431    1.5189   -1.5702 C   0  0  0  0  0  0  0  0  0  0  0  0
    2.2698    2.3764   -1.8033 H   0  0  0  0  0  0  0  0  0  0  0  0
    3.4783    1.2380   -2.5030 H   0  0  0  0  0  0  0  0  0  0  0  0
    3.8854    1.9705   -0.5036 C   0  0  0  0  0  0  0  0  0  0  0  0
    3.9169    3.0837    0.3099 C   0  0  0  0  0  0  0  0  0  0  0  0
    3.2039    3.9151    0.2812 H   0  0  0  0  0  0  0  0  0  0  0  0
    5.0443    2.9216    1.1858 C   0  0  0  0  0  0  0  0  0  0  0  0
    5.3899    3.6098    1.9653 H   0  0  0  0  0  0  0  0  0  0  0  0
    5.6115    1.7156    0.8474 C   0  0  0  0  0  0  0  0  0  0  0  0
    6.4791    1.1583    1.2152 H   0  0  0  0  0  0  0  0  0  0  0  0
  2  7  2  0  0  0  0
  3 39  1  0  0  0  0
  4  5  1  0  0  0  0
  5  6  1  0  0  0  0
  7  1  1  0  0  0  0
  7  4  1  0  0  0  0
  8  5  1  0  0  0  0
  8 16  1  0  0  0  0
  9  8  2  0  0  0  0
 10  9  1  0  0  0  0
 11  9  1  0  0  0  0
 11 13  2  0  0  0  0
 12 11  1  0  0  0  0
 13 14  1  0  0  0  0
 14 16  2  0  0  0  0
 14 15  1  0  0  0  0
 16 17  1  0  0  0  0
 18 13  1  0  0  0  0
 18 19  1  0  0  0  0
 19 20  1  0  0  0  0
 19 21  1  0  0  0  0
 22 19  1  0  0  0  0
 23 25  1  0  0  0  0
 23 18  1  0  0  0  0
 24 23  1  0  0  0  0
 26 23  1  0  0  0  0
 27 18  1  0  0  0  0
 27 30  1  0  0  0  0
 28 27  1  0  0  0  0
 29 27  1  0  0  0  0
 31  4  1  0  0  0  0
 31 34  1  0  0  0  0
 32 31  1  0  0  0  0
 33 31  1  0  0  0  0
 34  3  1  0  0  0  0
 34 35  2  0  0  0  0
 35 37  1  0  0  0  0
 36 35  1  0  0  0  0
 37 38  1  0  0  0  0
 39 37  2  0  0  0  0
 39 40  1  0  0  0  0
M  CHG  1   1  -1
M  END
