1,3
q = -2.0, confidence = 0.922

 35 35  0  0  1  0  0  0  0  0999 V2000
   -0.6572    0.6799    0.6110 O   0  5  0  0  0  0  0  0  0  0  0  0
   -1.2342   -0.9254   -1.3100 C   0  0  0  0  0  0  0  0  0  0  0  0
   -0.3595   -1.9788   -0.8896 C   0  0  0  0  0  3  0  0  0  0  0  0
   -0.5407   -2.6889   -0.0790 H   0  0  0  0  0  0  0  0  0  0  0  0
    0.7879   -1.9754   -1.7379 C   0  0  0  0  0  0  0  0  0  0  0  0
    1.6173   -2.6876   -1.6987 H   0  0  0  0  0  0  0  0  0  0  0  0
    0.6617   -0.8935   -2.6437 C   0  0  0  0  0  0  0  0  0  0  0  0
    1.3978   -0.5823   -3.3941 H   0  0  0  0  0  0  0  0  0  0  0  0
   -0.5863   -0.2547   -2.3835 C   0  0  0  0  0  0  0  0  0  0  0  0
   -0.9532    0.6575   -2.8667 H   0  0  0  0  0  0  0  0  0  0  0  0
   -2.4457   -0.3356   -0.6186 C   0  0  2  0  0  0  0  0  0  0  0  0
   -3.1408   -0.0100   -1.4200 H   0  0  0  0  0  0  0  0  0  0  0  0
   -1.8879    0.9135    0.0695 C   0  0  0  0  0  0  0  0  0  0  0  0
   -3.2833   -1.2830    0.3124 C   0  0  0  0  0  0  0  0  0  0  0  0
   -2.5643   -1.6038    1.6358 C   0  0  0  0  0  0  0  0  0  0  0  0
   -3.1984   -2.2682    2.2584 H   0  0  0  0  0  0  0  0  0  0  0  0
   -2.3680   -0.6792    2.2120 H   0  0  0  0  0  0  0  0  0  0  0  0
   -1.5921   -2.1090    1.4891 H   0  0  0  0  0  0  0  0  0  0  0  0
   -3.6257   -2.5783   -0.4476 C   0  0  0  0  0  0  0  0  0  0  0  0
   -4.1424   -2.3512   -1.4033 H   0  0  0  0  0  0  0  0  0  0  0  0
   -4.3043   -3.2134    0.1584 H   0  0  0  0  0  0  0  0  0  0  0  0
   -2.7285   -3.1790   -0.6907 H   0  0  0  0  0  0  0  0  0  0  0  0
   -4.6025   -0.5694    0.6671 C   0  0  0  0  0  0  0  0  0  0  0  0
   -5.2224   -1.2132    1.3240 H   0  0  0  0  0  0  0  0  0  0  0  0
   -4.4100    0.3816    1.2012 H   0  0  0  0  0  0  0  0  0  0  0  0
   -5.1985   -0.3405   -0.2402 H   0  0  0  0  0  0  0  0  0  0  0  0
   -2.4362    2.1617    0.0888 C   0  0  0  0  0  0  0  0  0  0  0  0
   -1.6990    3.3100    0.7251 C   0  0  0  0  0  0  0  0  0  0  0  0
   -0.7630    2.9752    1.2041 H   0  0  0  0  0  0  0  0  0  0  0  0
   -1.4360    4.0773   -0.0357 H   0  0  0  0  0  0  0  0  0  0  0  0
   -2.3310    3.8196    1.4859 H   0  0  0  0  0  0  0  0  0  0  0  0
   -3.7552    2.5104   -0.5460 C   0  0  0  0  0  0  0  0  0  0  0  0
   -3.6407    3.4039   -1.1984 H   0  0  0  0  0  0  0  0  0  0  0  0
   -4.1828    1.6969   -1.1610 H   0  0  0  0  0  0  0  0  0  0  0  0
   -4.5203    2.7821    0.2159 H   0  0  0  0  0  0  0  0  0  0  0  0
  2  3  1  0  0  0  0
  2 11  1  0  0  0  0
  3  4  1  0  0  0  0
  5  6  1  0  0  0  0
  5  3  1  0  0  0  0
  7  9  1  0  0  0  0
  7  5  2  0  0  0  0
  8  7  1  0  0  0  0
  9  2  2  0  0  0  0
 10  9  1  0  0  0  0
 11 12  1  6  0  0  0
 11 13  1  0  0  0  0
 11 14  1  0  0  0  0
 13 27  2  0  0  0  0
 13  1  1  0  0  0  0
 14 23  1  0  0  0  0
 14 15  1  0  0  0  0
 15 17  1  0  0  0  0
 15 16  1  0  0  0  0
 18 15  1  0  0  0  0
 19 21  1  0  0  0  0
 19 14  1  0  0  0  0
 20 19  1  0  0  0  0
 22 19  1  0  0  0  0
 23 25  1  0  0  0  0
 23 24  1  0  0  0  0
 26 23  1  0  0  0  0
 27 28  1  0  0  0  0
 28 29  1  0  0  0  0
 28 31  1  0  0  0  0
 30 28  1  0  0  0  0
 32 27  1  0  0  0  0
 32 35  1  0  0  0  0
 33 32  1  0  0  0  0
 34 32  1  0  0  0  0
M  CHG  1   1  -1
M  END
