1,6
q = -2.0, confidence = 0.958

 51 53  0  0  1  0  0  0  0  0999 V2000
   -0.3309   -0.3880    0.2420 O   0  0  0  0  0  1  0  0  0  0  0  0
   -1.6854    0.0306    0.1002 C   0  0  2  0  0  0  0  0  0  0  0  0
   -1.6401    1.4810   -0.5942 C   0  0  2  0  0  0  0  0  0  0  0  0
   -2.2757    1.4117   -1.5003 H   0  0  0  0  0  0  0  0  0  0  0  0
   -0.2310    1.6810   -1.1077 C   0  0  0  0  0  0  0  0  0  0  0  0
    0.8595    2.3108   -0.4244 C   0  0  0  0  0  3  0  0  0  0  0  0
    0.8038    2.8412    0.5277 H   0  0  0  0  0  0  0  0  0  0  0  0
    2.0314    2.1797   -1.2257 C   0  0  0  0  0  0  0  0  0  0  0  0
    3.0153    2.5957   -0.9951 H   0  0  0  0  0  0  0  0  0  0  0  0
    1.6952    1.4218   -2.3709 C   0  0  0  0  0  0  0  0  0  0  0  0
    2.3809    1.0917   -3.1592 H   0  0  0  0  0  0  0  0  0  0  0  0
    0.3012    1.1250   -2.3021 C   0  0  0  0  0  0  0  0  0  0  0  0
   -0.2487    0.5104   -3.0198 H   0  0  0  0  0  0  0  0  0  0  0  0
   -2.1632    2.7575    0.1713 C   0  0  0  0  0  0  0  0  0  0  0  0
   -3.7014    2.7479    0.3020 C   0  0  0  0  0  0  0  0  0  0  0  0
   -4.0891    1.9028    0.8964 H   0  0  0  0  0  0  0  0  0  0  0  0
   -4.1865    2.7125   -0.6950 H   0  0  0  0  0  0  0  0  0  0  0  0
   -4.0371    3.6815    0.7977 H   0  0  0  0  0  0  0  0  0  0  0  0
   -1.5109    2.9174    1.5802 C   0  0  0  0  0  0  0  0  0  0  0  0
   -0.8696    3.8202    1.6316 H   0  0  0  0  0  0  0  0  0  0  0  0
   -0.8828    2.0500    1.8564 H   0  0  0  0  0  0  0  0  0  0  0  0
   -2.2755    3.0280    2.3746 H   0  0  0  0  0  0  0  0  0  0  0  0
   -1.8501    4.0064   -0.6905 C   0  0  0  0  0  0  0  0  0  0  0  0
   -0.7661    4.1908   -0.8037 H   0  0  0  0  0  0  0  0  0  0  0  0
   -2.3023    4.9068   -0.2259 H   0  0  0  0  0  0  0  0  0  0  0  0
   -2.2799    3.9022   -1.7082 H   0  0  0  0  0  0  0  0  0  0  0  0
   -2.3808   -0.1428    1.5049 C   0  0  0  0  0  0  0  0  0  0  0  0
   -1.5935   -0.3872    2.2374 H   0  0  0  0  0  0  0  0  0  0  0  0
   -2.8838    0.7666    1.8721 H   0  0  0  0  0  0  0  0  0  0  0  0
   -3.3897   -1.3035    1.3421 C   0  0  1  0  0  0  0  0  0  0  0  0
   -3.6389   -1.8011    2.3015 H   0  0  0  0  0  0  0  0  0  0  0  0
   -4.6025   -0.7478    0.5775 C   0  0  0  0  0  0  0  0  0  0  0  0
   -5.0136    0.1658    1.0512 H   0  0  0  0  0  0  0  0  0  0  0  0
   -5.4313   -1.4816    0.5380 H   0  0  0  0  0  0  0  0  0  0  0  0
   -3.9900   -0.4917   -0.8253 C   0  0  0  0  0  0  0  0  0  0  0  0
   -4.5324   -1.0426   -1.6186 H   0  0  0  0  0  0  0  0  0  0  0  0
   -4.0250    0.5711   -1.1248 H   0  0  0  0  0  0  0  0  0  0  0  0
   -2.5262   -1.0303   -0.7437 C   0  0  1  0  0  0  0  0  0  0  0  0
   -1.9753   -1.3976   -2.1095 C   0  0  0  0  0  0  0  0  0  0  0  0
   -2.0686   -0.5515   -2.8216 H   0  0  0  0  0  0  0  0  0  0  0  0
   -2.5644   -2.2318   -2.5424 H   0  0  0  0  0  0  0  0  0  0  0  0
   -0.9126   -1.7002   -2.0699 H   0  0  0  0  0  0  0  0  0  0  0  0
   -2.7201   -2.2206    0.2790 C   0  0  0  0  0  0  0  0  0  0  0  0
   -3.6399   -3.3338   -0.2596 C   0  0  0  0  0  0  0  0  0  0  0  0
   -4.5440   -2.9727   -0.7836 H   0  0  0  0  0  0  0  0  0  0  0  0
   -3.9734   -3.9834    0.5759 H   0  0  0  0  0  0  0  0  0  0  0  0
   -3.0834   -3.9783   -0.9699 H   0  0  0  0  0  0  0  0  0  0  0  0
   -1.4509   -2.9261    0.7724 C   0  0  0  0  0  0  0  0  0  0  0  0
   -1.7280   -3.7840    1.4206 H   0  0  0  0  0  0  0  0  0  0  0  0
   -0.7801   -2.2583    1.3318 H   0  0  0  0  0  0  0  0  0  0  0  0
   -0.8646   -3.3224   -0.0808 H   0  0  0  0  0  0  0  0  0  0  0  0
  2  1  1  1  0  0  0
  2 27  1  0  0  0  0
  3  4  1  6  0  0  0
  3  2  1  0  0  0  0
  3 14  1  0  0  0  0
  5  3  1  0  0  0  0
  5  6  1  0  0  0  0
  6  7  1  0  0  0  0
  8  9  1  0  0  0  0
  8  6  1  0  0  0  0
 10 12  1  0  0  0  0
 10  8  2  0  0  0  0
 11 10  1  0  0  0  0
 12  5  2  0  0  0  0
 13 12  1  0  0  0  0
 14 15  1  0  0  0  0
 14 19  1  0  0  0  0
 15 18  1  0  0  0  0
 15 16  1  0  0  0  0
 17 15  1  0  0  0  0
 19 20  1  0  0  0  0
 19 21  1  0  0  0  0
 19 22  1  0  0  0  0
 23 25  1  0  0  0  0
 23 14  1  0  0  0  0
 24 23  1  0  0  0  0
 26 23  1  0  0  0  0
 27 29  1  0  0  0  0
 27 28  1  0  0  0  0
 30 27  1  0  0  0  0
 30 31  1  1  0  0  0
 32 33  1  0  0  0  0
 32 30  1  0  0  0  0
 34 32  1  0  0  0  0
 35 38  1  0  0  0  0
 35 32  1  0  0  0  0
 36 35  1  0  0  0  0
 37 35  1  0  0  0  0
 38 39  1  6  0  0  0
 38  2  1  0  0  0  0
 38 43  1  0  0  0  0
 39 42  1  0  0  0  0
 40 39  1  0  0  0  0
 41 39  1  0  0  0  0
 43 48  1  0  0  0  0
 43 30  1  0  0  0  0
 44 43  1  0  0  0  0
 44 46  1  0  0  0  0
 45 44  1  0  0  0  0
 47 44  1  0  0  0  0
 48 50  1  0  0  0  0
 48 49  1  0  0  0  0
 51 48  1  0  0  0  0
M  END
