1,4
q = -1.0

 17 16  0  0  1  0  0  0  0  0999 V2000
    1.6647    1.1428   -0.0001 O   0  0  0  0  0  1  0  0  0  0  0  0
    2.7699    0.5295   -0.0003 C   0  0  2  0  0  3  0  0  0  0  0  0
    2.8069   -0.8183   -0.0003 N   0  0  0  0  0  0  0  0  0  0  0  0
    1.5401   -1.5694    0.0000 C   0  0  0  0  0  3  0  0  0  0  0  0
    4.0503    1.3433   -0.0004 C   0  0  0  0  0  0  0  0  0  0  0  0
    3.7935    2.8480    0.0003 C   0  0  0  0  0  0  0  0  0  0  0  0
    4.0151   -1.6218   -0.0006 C   0  0  0  0  0  0  0  0  0  0  0  0
    1.4978   -2.2012   -0.9129 H   0  0  0  0  0  0  0  0  0  0  0  0
    1.4980   -2.2010    0.9132 H   0  0  0  0  0  0  0  0  0  0  0  0
    4.6532    1.0481    0.8860 H   0  0  0  0  0  0  0  0  0  0  0  0
    4.6526    1.0488   -0.8874 H   0  0  0  0  0  0  0  0  0  0  0  0
    4.7524    3.4017    0.0001 H   0  0  0  0  0  0  0  0  0  0  0  0
    3.2103    3.1500    0.8908 H   0  0  0  0  0  0  0  0  0  0  0  0
    3.2095    3.1507   -0.8895 H   0  0  0  0  0  0  0  0  0  0  0  0
    4.0415   -2.2752   -0.8991 H   0  0  0  0  0  0  0  0  0  0  0  0
    4.0423   -2.2749    0.8980 H   0  0  0  0  0  0  0  0  0  0  0  0
    4.9200   -0.9905   -0.0012 H   0  0  0  0  0  0  0  0  0  0  0  0
  2  1  1  1  0  0  0
  3  2  1  0  0  0  0
  3  4  1  0  0  0  0
  4  9  1  0  0  0  0
  5  2  1  0  0  0  0
  5  6  1  0  0  0  0
  5 10  1  0  0  0  0
  6 13  1  0  0  0  0
  7  3  1  0  0  0  0
  7 16  1  0  0  0  0
  8  4  1  0  0  0  0
 11  5  1  0  0  0  0
 12  6  1  0  0  0  0
 14  6  1  0  0  0  0
 15  7  1  0  0  0  0
 17  7  1  0  0  0  0
M  END
