4,5
q = -1.0

 16 16  0  0  1  0  0  0  0  0999 V2000
    0.5803   -2.7840    0.0916 F   0  0  0  0  0  0  0  0  0  0  0  0
    4.9506   -0.9924   -0.0223 F   0  0  0  0  0  0  0  0  0  0  0  0
    3.9619    1.5349   -0.0884 F   0  0  0  0  0  0  0  0  0  0  0  0
   -0.2278    1.9453   -0.1318 O   0  0  0  0  0  1  0  0  0  0  0  0
    0.7859   -0.4076    0.0676 C   0  0  0  0  0  3  0  0  0  0  0  0
    1.7033    0.6964   -0.0079 C   0  0  0  0  0  0  0  0  0  0  0  0
    3.1083    0.4944   -0.0308 C   0  0  0  0  0  0  0  0  0  0  0  0
    3.6228   -0.8015   -0.0039 C   0  0  0  0  0  0  0  0  0  0  0  0
    2.7530   -1.9057    0.0371 C   0  0  0  0  0  0  0  0  0  0  0  0
    1.3747   -1.6868    0.0661 C   0  0  0  0  0  0  0  0  0  0  0  0
    1.0476    1.9732   -0.1360 C   0  0  1  0  0  3  0  0  0  0  0  0
    1.7317    3.2965   -0.2977 C   0  0  0  0  0  0  0  0  0  0  0  0
    3.1645   -2.9247    0.0519 H   0  0  0  0  0  0  0  0  0  0  0  0
    0.9738    4.0876   -0.4391 H   0  0  0  0  0  0  0  0  0  0  0  0
    2.4328    3.2817   -1.1559 H   0  0  0  0  0  0  0  0  0  0  0  0
    2.3451    3.5265    0.5974 H   0  0  0  0  0  0  0  0  0  0  0  0
  2  8  1  0  0  0  0
  3  7  1  0  0  0  0
  6  5  2  0  0  0  0
  7  6  1  0  0  0  0
  7  8  2  0  0  0  0
  8  9  1  0  0  0  0
  9 13  1  0  0  0  0
  9 10  2  0  0  0  0
 10  5  1  0  0  0  0
 10  1  1  0  0  0  0
 11  4  1  6  0  0  0
 11  6  1  0  0  0  0
 12 11  1  0  0  0  0
 12 16  1  0  0  0  0
 14 12  1  0  0  0  0
 15 12  1  0  0  0  0
M  END
