1,4
q = -1.0, confidence = 0.0

 31 32  0  0  0  0  0  0  0  0999 V2000
    1.4881   -0.0449   -1.5113 O   0  5  0  0  0  0  0  0  0  0  0  0
    1.0800    2.1844    0.2038 N   0  0  0  0  0  0  0  0  0  0  0  0
   -1.0669    2.2382    0.5739 N   0  0  0  0  0  0  0  0  0  0  0  0
   -0.0483    1.3951    0.2190 C   0  0  0  0  0  2  0  0  0  0  0  0
    0.7585    3.4969    0.5431 C   0  0  0  0  0  0  0  0  0  0  0  0
    1.5048    4.2944    0.5540 H   0  0  0  0  0  0  0  0  0  0  0  0
   -0.5889    3.5272    0.7774 C   0  0  0  0  0  0  0  0  0  0  0  0
   -1.2468    4.3568    1.0506 H   0  0  0  0  0  0  0  0  0  0  0  0
   -2.4831    1.8788    0.6102 C   0  0  0  0  0  0  0  0  0  0  0  0
   -2.8903    2.1553    1.6076 H   0  0  0  0  0  0  0  0  0  0  0  0
   -2.5165    0.7793    0.5042 H   0  0  0  0  0  0  0  0  0  0  0  0
   -3.2779    2.5422   -0.5179 C   0  0  0  0  0  0  0  0  0  0  0  0
   -2.8296    2.1962   -1.4730 H   0  0  0  0  0  0  0  0  0  0  0  0
   -3.1451    3.6447   -0.4669 H   0  0  0  0  0  0  0  0  0  0  0  0
   -4.7751    2.2088   -0.4902 C   0  0  0  0  0  0  0  0  0  0  0  0
   -5.2338    2.6144    0.4404 H   0  0  0  0  0  0  0  0  0  0  0  0
   -5.2579    2.7612   -1.3242 H   0  0  0  0  0  0  0  0  0  0  0  0
   -5.0949    0.7160   -0.6196 C   0  0  0  0  0  0  0  0  0  0  0  0
   -4.5393    0.2613   -1.4648 H   0  0  0  0  0  0  0  0  0  0  0  0
   -6.1794    0.5502   -0.7782 H   0  0  0  0  0  0  0  0  0  0  0  0
   -4.8105    0.1516    0.2917 H   0  0  0  0  0  0  0  0  0  0  0  0
    2.5146    0.6257   -1.0379 C   0  0  0  0  0  0  0  0  0  0  0  0
    3.8408    0.2803   -1.4291 C   0  0  0  0  0  0  0  0  0  0  0  0
    3.9472   -0.5374   -2.1575 H   0  0  0  0  0  0  0  0  0  0  0  0
    4.9580    0.9472   -0.9187 C   0  0  0  0  0  0  0  0  0  0  0  0
    5.9649    0.6420   -1.2440 H   0  0  0  0  0  0  0  0  0  0  0  0
    4.8085    1.9878    0.0165 C   0  0  0  0  0  0  0  0  0  0  0  0
    5.6858    2.4973    0.4395 H   0  0  0  0  0  0  0  0  0  0  0  0
    3.5176    2.3699    0.4058 C   0  0  0  0  0  0  0  0  0  0  0  0
    3.3830    3.1784    1.1403 H   0  0  0  0  0  0  0  0  0  0  0  0
    2.3891    1.7253   -0.1257 C   0  0  0  0  0  0  0  0  0  0  0  0
  1 22  1  0  0  0  0
  2  4  1  0  0  0  0
  2  5  1  0  0  0  0
  3  9  1  0  0  0  0
  3  7  1  0  0  0  0
  4  3  1  0  0  0  0
  5  6  1  0  0  0  0
  5  7  2  0  0  0  0
  7  8  1  0  0  0  0
  9 10  1  0  0  0  0
 11  9  1  0  0  0  0
 12 15  1  0  0  0  0
 12 14  1  0  0  0  0
 12  9  1  0  0  0  0
 13 12  1  0  0  0  0
 15 16  1  0  0  0  0
 17 15  1  0  0  0  0
 18 15  1  0  0  0  0
 18 21  1  0  0  0  0
 19 18  1  0  0  0  0
 20 18  1  0  0  0  0
 22 31  1  0  0  0  0
 23 22  2  0  0  0  0
 23 25  1  0  0  0  0
 24 23  1  0  0  0  0
 25 27  2  0  0  0  0
 26 25  1  0  0  0  0
 27 29  1  0  0  0  0
 27 28  1  0  0  0  0
 29 30  1  0  0  0  0
 31  2  1  0  0  0  0
 31 29  2  0  0  0  0
M  CHG  1   1  -1
M  END
