1,18
q = -1.0, confidence = 0.006

 39 39  0  0  1  0  0  0  0  0999 V2000
    0.9956   -0.6166   -0.0027 C   0  0  0  0  0  3  0  0  0  0  0  0
    1.4180   -1.9328   -0.2781 C   0  0  0  0  0  0  0  0  0  0  0  0
    2.7934   -2.2875   -0.2551 C   0  0  0  0  0  0  0  0  0  0  0  0
    3.7791   -1.2667   -0.0230 C   0  0  0  0  0  0  0  0  0  0  0  0
    3.3735    0.0603    0.1422 C   0  0  0  0  0  0  0  0  0  0  0  0
    1.9959    0.3842    0.1462 C   0  0  0  0  0  0  0  0  0  0  0  0
    0.0578   -2.8333   -1.9784 C   0  0  0  0  0  0  0  0  0  0  0  0
    2.5654   -4.7105   -0.2592 C   0  0  0  0  0  0  0  0  0  0  0  0
    6.0917   -0.7474    0.1552 C   0  0  0  0  0  0  0  0  0  0  0  0
    1.4656    1.7470    0.1476 C   0  0  2  0  0  3  0  0  0  0  0  0
    1.8623    4.2546    0.2954 C   0  0  0  0  0  0  0  0  0  0  0  0
    3.1523    5.0480    0.5511 C   0  0  0  0  0  0  0  0  0  0  0  0
    1.2981    4.5998   -1.0943 C   0  0  0  0  0  0  0  0  0  0  0  0
    0.8343    4.5458    1.4035 C   0  0  0  0  0  0  0  0  0  0  0  0
    0.5013   -2.9108   -0.6230 O   0  0  0  0  0  0  0  0  0  0  0  0
    3.3041   -3.5090   -0.4805 O   0  0  0  0  0  0  0  0  0  0  0  0
    5.0583   -1.6998   -0.0248 O   0  0  0  0  0  0  0  0  0  0  0  0
    0.2045    1.9027   -0.0830 O   0  0  0  0  0  1  0  0  0  0  0  0
    2.2505    2.8178    0.3353 N   0  0  0  0  0  0  0  0  0  0  0  0
    4.1380    0.8427    0.2504 H   0  0  0  0  0  0  0  0  0  0  0  0
   -0.6945   -3.6332   -2.1165 H   0  0  0  0  0  0  0  0  0  0  0  0
    0.9002   -2.9954   -2.6870 H   0  0  0  0  0  0  0  0  0  0  0  0
   -0.4083   -1.8459   -2.1925 H   0  0  0  0  0  0  0  0  0  0  0  0
    3.3263   -5.5095   -0.1797 H   0  0  0  0  0  0  0  0  0  0  0  0
    1.8784   -4.9394   -1.0976 H   0  0  0  0  0  0  0  0  0  0  0  0
    1.9813   -4.6593    0.6817 H   0  0  0  0  0  0  0  0  0  0  0  0
    7.0420   -1.3105    0.1318 H   0  0  0  0  0  0  0  0  0  0  0  0
    6.0038   -0.2253    1.1344 H   0  0  0  0  0  0  0  0  0  0  0  0
    6.1001    0.0094   -0.6610 H   0  0  0  0  0  0  0  0  0  0  0  0
    2.9387    6.1333    0.5341 H   0  0  0  0  0  0  0  0  0  0  0  0
    3.9126    4.8425   -0.2302 H   0  0  0  0  0  0  0  0  0  0  0  0
    3.5833    4.8068    1.5447 H   0  0  0  0  0  0  0  0  0  0  0  0
    1.0414    5.6764   -1.1371 H   0  0  0  0  0  0  0  0  0  0  0  0
    0.3872    4.0115   -1.3116 H   0  0  0  0  0  0  0  0  0  0  0  0
    2.0456    4.3913   -1.8852 H   0  0  0  0  0  0  0  0  0  0  0  0
    0.5720    5.6220    1.3983 H   0  0  0  0  0  0  0  0  0  0  0  0
    1.2493    4.2969    2.4002 H   0  0  0  0  0  0  0  0  0  0  0  0
   -0.0899    3.9573    1.2529 H   0  0  0  0  0  0  0  0  0  0  0  0
    3.2293    2.6209    0.5502 H   0  0  0  0  0  0  0  0  0  0  0  0
  1  6  1  0  0  0  0
  2  3  1  0  0  0  0
  2  1  2  0  0  0  0
  3  4  2  0  0  0  0
  4  5  1  0  0  0  0
  5  6  2  0  0  0  0
  5 20  1  0  0  0  0
  6 10  1  0  0  0  0
  7 15  1  0  0  0  0
  8 24  1  0  0  0  0
  8 26  1  0  0  0  0
  9 28  1  0  0  0  0
 10 18  1  6  0  0  0
 10 19  1  0  0  0  0
 11 19  1  0  0  0  0
 11 12  1  0  0  0  0
 11 14  1  0  0  0  0
 12 32  1  0  0  0  0
 13 11  1  0  0  0  0
 14 37  1  0  0  0  0
 15  2  1  0  0  0  0
 16  8  1  0  0  0  0
 16  3  1  0  0  0  0
 17  4  1  0  0  0  0
 17  9  1  0  0  0  0
 19 39  1  0  0  0  0
 21  7  1  0  0  0  0
 22  7  1  0  0  0  0
 23  7  1  0  0  0  0
 25  8  1  0  0  0  0
 27  9  1  0  0  0  0
 29  9  1  0  0  0  0
 30 12  1  0  0  0  0
 31 12  1  0  0  0  0
 33 13  1  0  0  0  0
 34 13  1  0  0  0  0
 35 13  1  0  0  0  0
 36 14  1  0  0  0  0
 38 14  1  0  0  0  0
M  END
