1,20
q = -1.0

 20 21  0  0  0  0  0  0  0  0999 V2000
    0.3337    0.1459   -0.0002 C   0  0  0  0  0  3  0  0  0  0  0  0
    1.0423   -1.0979    0.0000 C   0  0  0  0  0  0  0  0  0  0  0  0
    2.4657   -0.8243   -0.0001 C   0  0  0  0  0  0  0  0  0  0  0  0
    3.6427   -1.5946    0.0000 C   0  0  0  0  0  0  0  0  0  0  0  0
    3.5952   -2.6938    0.0002 H   0  0  0  0  0  0  0  0  0  0  0  0
    4.8817   -0.9363   -0.0001 C   0  0  0  0  0  0  0  0  0  0  0  0
    5.8092   -1.5283    0.0000 H   0  0  0  0  0  0  0  0  0  0  0  0
    4.9618    0.4724   -0.0002 C   0  0  0  0  0  0  0  0  0  0  0  0
    5.9477    0.9606   -0.0003 H   0  0  0  0  0  0  0  0  0  0  0  0
    3.8016    1.2639   -0.0003 C   0  0  0  0  0  0  0  0  0  0  0  0
    3.8661    2.3615   -0.0004 H   0  0  0  0  0  0  0  0  0  0  0  0
    2.5693    0.5987   -0.0003 C   0  0  0  0  0  0  0  0  0  0  0  0
    1.2649    1.1398   -0.0004 N   0  0  0  0  0  0  0  0  0  0  0  0
    1.0299    2.5705   -0.0006 C   0  0  0  0  0  0  0  0  0  0  0  0
   -0.0533    2.7685   -0.0013 H   0  0  0  0  0  0  0  0  0  0  0  0
    1.4819    3.0374   -0.8998 H   0  0  0  0  0  0  0  0  0  0  0  0
    1.4806    3.0375    0.8993 H   0  0  0  0  0  0  0  0  0  0  0  0
    0.2185   -2.2369    0.0003 C   0  0  0  0  0  3  0  0  0  0  0  0
    0.6229   -3.2739    0.0003 H   0  0  0  0  0  0  0  0  0  0  0  0
   -1.0489   -2.1061    0.0003 O   0  0  0  0  0  1  0  0  0  0  0  0
  1  2  2  0  0  0  0
  2 18  1  0  0  0  0
  3  4  1  0  0  0  0
  3  2  1  0  0  0  0
  4  5  1  0  0  0  0
  6  4  2  0  0  0  0
  6  7  1  0  0  0  0
  8  6  1  0  0  0  0
  9  8  1  0  0  0  0
 10 12  1  0  0  0  0
 10  8  2  0  0  0  0
 11 10  1  0  0  0  0
 12  3  2  0  0  0  0
 13 12  1  0  0  0  0
 13  1  1  0  0  0  0
 14 13  1  0  0  0  0
 14 17  1  0  0  0  0
 15 14  1  0  0  0  0
 16 14  1  0  0  0  0
 18 19  1  0  0  0  0
 20 18  1  0  0  0  0
M  END
