1,5
q = -1.0

 32 33  0  0  0  0  0  0  0  0999 V2000
   -1.0016    0.0633    1.9054 O   0  5  0  0  0  0  0  0  0  0  0  0
   -2.5304   -1.2672    2.8875 N   0  0  0  0  0  0  0  0  0  0  0  0
   -2.2301   -0.9408    3.8091 H   0  0  0  0  0  0  0  0  0  0  0  0
   -3.2232   -2.0124    2.8238 H   0  0  0  0  0  0  0  0  0  0  0  0
    0.7302   -1.1329    0.0723 C   0  0  0  0  0  2  0  0  0  0  0  0
   -0.1235   -2.1535   -0.2121 C   0  0  0  0  0  0  0  0  0  0  0  0
   -1.5687   -1.8846   -0.4875 C   0  0  0  0  0  0  0  0  0  0  0  0
   -2.4317   -1.2764    0.4664 C   0  0  0  0  0  0  0  0  0  0  0  0
   -3.8068   -1.1090    0.1941 C   0  0  0  0  0  0  0  0  0  0  0  0
   -4.4563   -0.6371    0.9479 H   0  0  0  0  0  0  0  0  0  0  0  0
   -4.3427   -1.5135   -1.0350 C   0  0  0  0  0  0  0  0  0  0  0  0
   -5.4109   -1.3618   -1.2478 H   0  0  0  0  0  0  0  0  0  0  0  0
   -3.5053   -2.1229   -1.9822 C   0  0  0  0  0  0  0  0  0  0  0  0
   -3.9160   -2.4561   -2.9472 H   0  0  0  0  0  0  0  0  0  0  0  0
   -2.1463   -2.3201   -1.6998 C   0  0  0  0  0  0  0  0  0  0  0  0
   -1.5052   -2.8196   -2.4416 H   0  0  0  0  0  0  0  0  0  0  0  0
   -1.9206   -0.7973    1.7853 C   0  0  0  0  0  0  0  0  0  0  0  0
    0.2849   -3.6119   -0.2712 C   0  0  0  0  0  0  0  0  0  0  0  0
    0.2520   -4.0106   -1.3081 H   0  0  0  0  0  0  0  0  0  0  0  0
   -0.4132   -4.2363    0.3246 H   0  0  0  0  0  0  0  0  0  0  0  0
    1.3089   -3.7647    0.1160 H   0  0  0  0  0  0  0  0  0  0  0  0
    2.1797   -1.2390    0.3094 C   0  0  0  0  0  0  0  0  0  0  0  0
    3.0427   -1.8521   -0.6339 C   0  0  0  0  0  0  0  0  0  0  0  0
    2.6139   -2.3141   -1.5366 H   0  0  0  0  0  0  0  0  0  0  0  0
    4.4311   -1.8744   -0.4327 C   0  0  0  0  0  0  0  0  0  0  0  0
    5.0828   -2.3540   -1.1787 H   0  0  0  0  0  0  0  0  0  0  0  0
    4.9881   -1.2898    0.7154 C   0  0  0  0  0  0  0  0  0  0  0  0
    6.0768   -1.3079    0.8725 H   0  0  0  0  0  0  0  0  0  0  0  0
    4.1463   -0.6853    1.6658 C   0  0  0  0  0  0  0  0  0  0  0  0
    4.5762   -0.2349    2.5732 H   0  0  0  0  0  0  0  0  0  0  0  0
    2.7611   -0.6543    1.4638 C   0  0  0  0  0  0  0  0  0  0  0  0
    2.1020   -0.1758    2.2047 H   0  0  0  0  0  0  0  0  0  0  0  0
  2  3  1  0  0  0  0
  4  2  1  0  0  0  0
  5 22  1  0  0  0  0
  6  5  1  0  0  0  0
  7  6  2  0  0  0  0
  7  8  1  0  0  0  0
  8 17  2  0  0  0  0
  9  8  1  0  0  0  0
  9 10  1  0  0  0  0
 11  9  2  0  0  0  0
 12 11  1  0  0  0  0
 13 15  2  0  0  0  0
 13 11  1  0  0  0  0
 14 13  1  0  0  0  0
 15  7  1  0  0  0  0
 16 15  1  0  0  0  0
 17  1  1  0  0  0  0
 17  2  1  0  0  0  0
 18  6  1  0  0  0  0
 18 21  1  0  0  0  0
 18 20  1  0  0  0  0
 19 18  1  0  0  0  0
 22 31  1  0  0  0  0
 23 25  1  0  0  0  0
 23 22  2  0  0  0  0
 24 23  1  0  0  0  0
 25 27  2  0  0  0  0
 26 25  1  0  0  0  0
 27 28  1  0  0  0  0
 27 29  1  0  0  0  0
 29 30  1  0  0  0  0
 31 29  2  0  0  0  0
 31 32  1  0  0  0  0
M  CHG  1   1  -1
M  END
