2,8
q = -1.0, confidence = 0.026

 30 32  0  0  0  0  0  0  0  0999 V2000
    3.8452    0.7479   -0.1030 S   0  0  0  0  0  0  0  0  0  0  0  0
   -1.0042    1.6714   -1.0103 O   0  5  0  0  0  0  0  0  0  0  0  0
    3.9605   -1.7684   -0.9026 N   0  0  0  0  0  0  0  0  0  0  0  0
    1.8784   -0.7992   -1.3232 N   0  0  0  0  0  0  0  0  0  0  0  0
    1.6160   -1.7321   -1.6622 H   0  0  0  0  0  0  0  0  0  0  0  0
    1.2312    1.3399   -0.7610 N   0  0  0  0  0  0  0  0  0  0  0  0
    3.1772   -0.7235   -0.8505 C   0  0  0  0  0  0  0  0  0  0  0  0
    0.8805    0.1237   -1.2290 C   0  0  0  0  0  2  0  0  0  0  0  0
    0.1536    2.1275   -0.6487 C   0  0  0  0  0  0  0  0  0  0  0  0
    5.1863   -1.4887   -0.3328 C   0  0  0  0  0  0  0  0  0  0  0  0
    5.3308   -0.1598    0.1726 C   0  0  0  0  0  0  0  0  0  0  0  0
    6.5199    0.2689    0.7819 C   0  0  0  0  0  0  0  0  0  0  0  0
    6.6244    1.2950    1.1643 H   0  0  0  0  0  0  0  0  0  0  0  0
    7.5754   -0.6477    0.8901 C   0  0  0  0  0  0  0  0  0  0  0  0
    8.5172   -0.3333    1.3645 H   0  0  0  0  0  0  0  0  0  0  0  0
    7.4460   -1.9651    0.3972 C   0  0  0  0  0  0  0  0  0  0  0  0
    8.2907   -2.6638    0.4939 H   0  0  0  0  0  0  0  0  0  0  0  0
    6.2630   -2.3932   -0.2133 C   0  0  0  0  0  0  0  0  0  0  0  0
    6.1479   -3.4144   -0.6039 H   0  0  0  0  0  0  0  0  0  0  0  0
    0.2463    3.4805   -0.0810 C   0  0  0  0  0  0  0  0  0  0  0  0
    1.4777    3.9611    0.4177 C   0  0  0  0  0  0  0  0  0  0  0  0
    2.3638    3.3138    0.3530 H   0  0  0  0  0  0  0  0  0  0  0  0
    1.5485    5.2379    0.9847 C   0  0  0  0  0  0  0  0  0  0  0  0
    2.5069    5.6119    1.3753 H   0  0  0  0  0  0  0  0  0  0  0  0
    0.3979    6.0436    1.0543 C   0  0  0  0  0  0  0  0  0  0  0  0
    0.4578    7.0485    1.4998 H   0  0  0  0  0  0  0  0  0  0  0  0
   -0.8265    5.5710    0.5520 C   0  0  0  0  0  0  0  0  0  0  0  0
   -1.7245    6.2050    0.6023 H   0  0  0  0  0  0  0  0  0  0  0  0
   -0.9059    4.2938   -0.0145 C   0  0  0  0  0  0  0  0  0  0  0  0
   -1.8513    3.9022   -0.4145 H   0  0  0  0  0  0  0  0  0  0  0  0
  1 11  1  0  0  0  0
  2  9  1  0  0  0  0
  3  7  2  0  0  0  0
  3 10  1  0  0  0  0
  4  8  1  0  0  0  0
  4  7  1  0  0  0  0
  5  4  1  0  0  0  0
  6  9  2  0  0  0  0
  7  1  1  0  0  0  0
  8  6  1  0  0  0  0
  9 20  1  0  0  0  0
 10 18  2  0  0  0  0
 10 11  1  0  0  0  0
 11 12  2  0  0  0  0
 12 14  1  0  0  0  0
 12 13  1  0  0  0  0
 14 15  1  0  0  0  0
 16 17  1  0  0  0  0
 16 14  2  0  0  0  0
 18 16  1  0  0  0  0
 19 18  1  0  0  0  0
 20 29  2  0  0  0  0
 20 21  1  0  0  0  0
 21 23  2  0  0  0  0
 22 21  1  0  0  0  0
 23 25  1  0  0  0  0
 23 24  1  0  0  0  0
 25 26  1  0  0  0  0
 27 28  1  0  0  0  0
 27 25  2  0  0  0  0
 29 27  1  0  0  0  0
 30 29  1  0  0  0  0
M  CHG  1   2  -1
M  END
