1,8
q = -1.0

 27 27  0  0  0  0  0  0  0  0999 V2000
    1.6795    0.3692   -0.2992 O   0  5  0  0  0  0  0  0  0  0  0  0
    0.1369   -4.3053   -0.3843 O   0  0  0  0  0  0  0  0  0  0  0  0
   -1.2721   -3.0227    0.8528 O   0  0  0  0  0  0  0  0  0  0  0  0
    8.0273    0.4384    0.2235 O   0  0  0  0  0  0  0  0  0  0  0  0
    2.4895   -0.6405   -0.2304 C   0  0  0  0  0  0  0  0  0  0  0  0
    1.9040   -1.9394   -0.1985 C   0  0  0  0  0  0  0  0  0  0  0  0
    2.4833   -2.8618   -0.0486 H   0  0  0  0  0  0  0  0  0  0  0  0
    0.5070   -1.9203   -0.2255 C   0  0  0  0  0  2  0  0  0  0  0  0
   -0.1924   -3.2103    0.0486 C   0  0  0  0  0  0  0  0  0  0  0  0
   -2.0353   -4.1918    1.1537 C   0  0  0  0  0  0  0  0  0  0  0  0
   -2.6241   -4.5076    0.2669 H   0  0  0  0  0  0  0  0  0  0  0  0
   -2.7198   -3.9098    1.9736 H   0  0  0  0  0  0  0  0  0  0  0  0
   -1.3796   -5.0332    1.4552 H   0  0  0  0  0  0  0  0  0  0  0  0
    3.9282   -0.3566   -0.1122 C   0  0  0  0  0  0  0  0  0  0  0  0
    4.3704    0.9773    0.0292 C   0  0  0  0  0  0  0  0  0  0  0  0
    3.6156    1.7764    0.0502 H   0  0  0  0  0  0  0  0  0  0  0  0
    5.7288    1.2880    0.1457 C   0  0  0  0  0  0  0  0  0  0  0  0
    6.0341    2.3369    0.2575 H   0  0  0  0  0  0  0  0  0  0  0  0
    6.6876    0.2506    0.1194 C   0  0  0  0  0  0  0  0  0  0  0  0
    6.2591   -1.0896   -0.0245 C   0  0  0  0  0  0  0  0  0  0  0  0
    7.0228   -1.8801   -0.0470 H   0  0  0  0  0  0  0  0  0  0  0  0
    4.9035   -1.3850   -0.1365 C   0  0  0  0  0  0  0  0  0  0  0  0
    4.5933   -2.4326   -0.2561 H   0  0  0  0  0  0  0  0  0  0  0  0
    8.5185    1.7595    0.3666 C   0  0  0  0  0  0  0  0  0  0  0  0
    8.2529    2.3963   -0.5064 H   0  0  0  0  0  0  0  0  0  0  0  0
    9.6191    1.6778    0.4311 H   0  0  0  0  0  0  0  0  0  0  0  0
    8.1364    2.2448    1.2923 H   0  0  0  0  0  0  0  0  0  0  0  0
  1  5  1  0  0  0  0
  2  9  2  0  0  0  0
  3 10  1  0  0  0  0
  4 24  1  0  0  0  0
  5  6  2  0  0  0  0
  5 14  1  0  0  0  0
  6  7  1  0  0  0  0
  8  6  1  0  0  0  0
  8  9  1  0  0  0  0
  9  3  1  0  0  0  0
 10 13  1  0  0  0  0
 10 12  1  0  0  0  0
 11 10  1  0  0  0  0
 14 15  1  0  0  0  0
 15 16  1  0  0  0  0
 15 17  2  0  0  0  0
 17 18  1  0  0  0  0
 19 17  1  0  0  0  0
 19  4  1  0  0  0  0
 20 19  2  0  0  0  0
 21 20  1  0  0  0  0
 22 14  2  0  0  0  0
 22 20  1  0  0  0  0
 23 22  1  0  0  0  0
 24 26  1  0  0  0  0
 24 27  1  0  0  0  0
 25 24  1  0  0  0  0
M  CHG  1   1  -1
M  END
