4,5
q = 0.0, confidence = 0.502

  6  5  0  0  0  0  0  0  0  0999 V2000
   -0.1042   -2.7718    1.6258 O   0  0  0  0  0  0  0  0  0  0  0  0
   -0.2053   -2.9848   -0.5996 O   0  0  0  0  0  0  0  0  0  0  0  0
   -0.2505   -3.0985   -2.8597 O   0  5  0  0  0  0  0  0  0  0  0  0
   -0.0305   -1.0717   -1.8795 O   0  0  0  0  0  0  0  0  0  0  0  0
   -0.0989   -2.1910    0.5535 C   0  0  0  0  0  0  0  0  0  0  0  0
   -0.1641   -2.3619   -1.8977 C   0  0  0  0  0  0  0  0  0  0  0  0
  2  5  1  0  0  0  0
  3  6  1  0  0  0  0
  5  1  2  0  0  0  0
  6  4  2  0  0  0  0
  6  2  1  0  0  0  0
M  CHG  1   3  -1
M  END
