1,2
q = -1.0

 17 17  0  0  0  0  0  0  0  0999 V2000
   -0.1635    0.0409    1.9091 O   0  5  0  0  0  0  0  0  0  0  0  0
    1.3355   -0.0619   -0.2167 C   0  0  0  0  0  2  0  0  0  0  0  0
    1.9945   -0.0380    1.0276 C   0  0  0  0  0  0  0  0  0  0  0  0
    3.5002   -0.0754    1.2154 C   0  0  0  0  0  0  0  0  0  0  0  0
    3.7981    0.5911    2.0537 H   0  0  0  0  0  0  0  0  0  0  0  0
    3.8210   -1.0993    1.5198 H   0  0  0  0  0  0  0  0  0  0  0  0
    4.2329    0.3109   -0.0729 C   0  0  0  0  0  0  0  0  0  0  0  0
    4.1138    1.4024   -0.2571 H   0  0  0  0  0  0  0  0  0  0  0  0
    5.3218    0.1233    0.0283 H   0  0  0  0  0  0  0  0  0  0  0  0
    3.6490   -0.4654   -1.2560 C   0  0  0  0  0  0  0  0  0  0  0  0
    3.7471   -1.5560   -1.0555 H   0  0  0  0  0  0  0  0  0  0  0  0
    4.2210   -0.2679   -2.1866 H   0  0  0  0  0  0  0  0  0  0  0  0
    2.1669   -0.1199   -1.4709 C   0  0  0  0  0  0  0  0  0  0  0  0
    1.7047   -0.8155   -2.2003 H   0  0  0  0  0  0  0  0  0  0  0  0
    2.0788    0.8738   -1.9677 H   0  0  0  0  0  0  0  0  0  0  0  0
    1.0886    0.0190    2.1188 C   0  0  0  0  0  0  0  0  0  0  0  0
    1.4447    0.0488    3.1776 H   0  0  0  0  0  0  0  0  0  0  0  0
  1 16  1  0  0  0  0
  2  3  1  0  0  0  0
  3  4  1  0  0  0  0
  3 16  2  0  0  0  0
  4  6  1  0  0  0  0
  4  5  1  0  0  0  0
  7  9  1  0  0  0  0
  7  4  1  0  0  0  0
  8  7  1  0  0  0  0
 10 11  1  0  0  0  0
 10  7  1  0  0  0  0
 12 10  1  0  0  0  0
 13 10  1  0  0  0  0
 13  2  1  0  0  0  0
 14 13  1  0  0  0  0
 15 13  1  0  0  0  0
 16 17  1  0  0  0  0
M  CHG  1   1  -1
M  END
