1,22
q = -2.0, confidence = 0.984

 38 40  0  0  0  0  0  0  0  0999 V2000
   -0.3155    0.0811    2.1494 O   0  5  0  0  0  0  0  0  0  0  0  0
   -1.5115   -1.5679    3.1484 O   0  0  0  0  0  0  0  0  0  0  0  0
    1.8313   -1.3149   -2.1166 O   0  0  0  0  0  0  0  0  0  0  0  0
    7.1141    0.0932    1.1494 O   0  0  0  0  0  0  0  0  0  0  0  0
   -1.1161   -0.9689    2.1608 C   0  0  0  0  0  0  0  0  0  0  0  0
   -1.5362   -1.2911    0.7175 C   0  0  0  0  0  0  0  0  0  0  0  0
   -2.9445   -1.5013    0.4007 C   0  0  0  0  0  0  0  0  0  0  0  0
   -3.9701   -1.2776    1.3547 C   0  0  0  0  0  0  0  0  0  0  0  0
   -3.6859   -1.0071    2.3804 H   0  0  0  0  0  0  0  0  0  0  0  0
   -5.3133   -1.4174    1.0053 C   0  0  0  0  0  0  0  0  0  0  0  0
   -6.0932   -1.2330    1.7596 H   0  0  0  0  0  0  0  0  0  0  0  0
   -5.6762   -1.8003   -0.3050 C   0  0  0  0  0  0  0  0  0  0  0  0
   -6.7378   -1.9059   -0.5754 H   0  0  0  0  0  0  0  0  0  0  0  0
   -4.6846   -2.0633   -1.2479 C   0  0  0  0  0  0  0  0  0  0  0  0
   -4.9548   -2.3876   -2.2653 H   0  0  0  0  0  0  0  0  0  0  0  0
   -3.3106   -1.9327   -0.9176 C   0  0  0  0  0  0  0  0  0  0  0  0
   -2.2763   -2.2585   -1.8688 C   0  0  0  0  0  0  0  0  0  0  0  0
   -2.5828   -2.6410   -2.8556 H   0  0  0  0  0  0  0  0  0  0  0  0
   -0.9468   -2.1211   -1.5726 C   0  0  0  0  0  0  0  0  0  0  0  0
   -0.1583   -2.3624   -2.2968 H   0  0  0  0  0  0  0  0  0  0  0  0
   -0.5248   -1.6177   -0.2777 C   0  0  0  0  0  0  0  0  0  0  0  0
    0.8399   -1.2569    0.0706 C   0  0  0  0  0  3  0  0  0  0  0  0
    1.1283   -1.4111    1.1196 H   0  0  0  0  0  0  0  0  0  0  0  0
    1.9616   -1.1838   -0.8861 C   0  0  0  0  0  0  0  0  0  0  0  0
    3.3111   -0.8733   -0.3104 C   0  0  0  0  0  0  0  0  0  0  0  0
    4.4363   -1.0305   -1.1433 C   0  0  0  0  0  0  0  0  0  0  0  0
    4.2656   -1.3991   -2.1659 H   0  0  0  0  0  0  0  0  0  0  0  0
    5.7273   -0.7284   -0.6976 C   0  0  0  0  0  0  0  0  0  0  0  0
    6.5818   -0.8759   -1.3715 H   0  0  0  0  0  0  0  0  0  0  0  0
    5.9118   -0.2372    0.6145 C   0  0  0  0  0  0  0  0  0  0  0  0
    4.7895   -0.0612    1.4570 C   0  0  0  0  0  0  0  0  0  0  0  0
    4.9563    0.3311    2.4705 H   0  0  0  0  0  0  0  0  0  0  0  0
    3.5113   -0.3825    1.0035 C   0  0  0  0  0  0  0  0  0  0  0  0
    2.6536   -0.2173    1.6727 H   0  0  0  0  0  0  0  0  0  0  0  0
    8.2769   -0.0657    0.3561 C   0  0  0  0  0  0  0  0  0  0  0  0
    8.4284   -1.1254    0.0521 H   0  0  0  0  0  0  0  0  0  0  0  0
    9.1290    0.2539    0.9838 H   0  0  0  0  0  0  0  0  0  0  0  0
    8.2436    0.5669   -0.5589 H   0  0  0  0  0  0  0  0  0  0  0  0
  1  5  1  0  0  0  0
  3 24  2  0  0  0  0
  5  2  2  0  0  0  0
  6  5  1  0  0  0  0
  7  6  1  0  0  0  0
  7  8  1  0  0  0  0
  8  9  1  0  0  0  0
 10  8  2  0  0  0  0
 10 11  1  0  0  0  0
 12 10  1  0  0  0  0
 13 12  1  0  0  0  0
 14 16  1  0  0  0  0
 14 12  2  0  0  0  0
 15 14  1  0  0  0  0
 16  7  2  0  0  0  0
 17 19  2  0  0  0  0
 17 16  1  0  0  0  0
 18 17  1  0  0  0  0
 19 21  1  0  0  0  0
 20 19  1  0  0  0  0
 21 22  1  0  0  0  0
 21  6  2  0  0  0  0
 22 23  1  0  0  0  0
 24 25  1  0  0  0  0
 24 22  1  0  0  0  0
 25 33  1  0  0  0  0
 26 28  1  0  0  0  0
 26 25  2  0  0  0  0
 27 26  1  0  0  0  0
 28 30  2  0  0  0  0
 29 28  1  0  0  0  0
 30  4  1  0  0  0  0
 30 31  1  0  0  0  0
 31 32  1  0  0  0  0
 33 31  2  0  0  0  0
 33 34  1  0  0  0  0
 35 37  1  0  0  0  0
 35  4  1  0  0  0  0
 36 35  1  0  0  0  0
 38 35  1  0  0  0  0
M  CHG  1   1  -1
M  END
