1
q = -2.0, confidence = 0.96

 35 36  0  0  1  0  0  0  0  0999 V2000
   -0.6509    0.4076   -1.2451 O   0  5  0  0  0  0  0  0  0  0  0  0
   -1.6869    0.3921    1.1516 C   0  0  2  0  0  3  0  0  0  0  0  0
   -1.1541    1.5951    1.7197 C   0  0  2  0  0  3  0  0  0  0  0  0
   -0.0245    1.2226    2.5199 C   0  0  0  0  0  0  0  0  0  0  0  0
    0.1176   -0.2066    2.4694 C   0  0  0  0  0  0  0  0  0  0  0  0
   -0.9153   -0.7247    1.6246 C   0  0  1  0  0  3  0  0  0  0  0  0
   -1.7350    2.9631    1.5388 C   0  0  0  0  0  0  0  0  0  0  0  0
    0.8334    2.1344    3.3450 C   0  0  0  0  0  0  0  0  0  0  0  0
    1.0880   -1.0009    3.2872 C   0  0  0  0  0  0  0  0  0  0  0  0
   -1.2304   -2.1589    1.3332 C   0  0  0  0  0  0  0  0  0  0  0  0
   -2.6439    0.3092    0.0199 C   0  0  0  0  0  0  0  0  0  0  0  0
   -4.0376    0.2119    0.0918 C   0  0  0  0  0  0  0  0  0  0  0  0
   -4.8221    0.1124   -1.0802 C   0  0  0  0  0  0  0  0  0  0  0  0
   -4.1598    0.1075   -2.3240 C   0  0  0  0  0  0  0  0  0  0  0  0
   -2.7616    0.2012   -2.4241 C   0  0  0  0  0  0  0  0  0  0  0  0
   -2.0009    0.3059   -1.2488 C   0  0  0  0  0  0  0  0  0  0  0  0
   -6.3249    0.0121   -0.9877 C   0  0  0  0  0  0  0  0  0  0  0  0
   -2.5014    3.1622    2.3184 H   0  0  0  0  0  0  0  0  0  0  0  0
   -0.9724    3.7611    1.6138 H   0  0  0  0  0  0  0  0  0  0  0  0
   -2.2396    3.0541    0.5568 H   0  0  0  0  0  0  0  0  0  0  0  0
    0.6490    1.9763    4.4294 H   0  0  0  0  0  0  0  0  0  0  0  0
    1.9154    1.9538    3.1759 H   0  0  0  0  0  0  0  0  0  0  0  0
    0.6313    3.2000    3.1269 H   0  0  0  0  0  0  0  0  0  0  0  0
    0.7214   -1.1032    4.3320 H   0  0  0  0  0  0  0  0  0  0  0  0
    1.2256   -2.0188    2.8796 H   0  0  0  0  0  0  0  0  0  0  0  0
    2.0837   -0.5172    3.3391 H   0  0  0  0  0  0  0  0  0  0  0  0
   -1.5910   -2.2904    0.2951 H   0  0  0  0  0  0  0  0  0  0  0  0
   -0.3585   -2.8222    1.4746 H   0  0  0  0  0  0  0  0  0  0  0  0
   -2.0421   -2.5074    2.0078 H   0  0  0  0  0  0  0  0  0  0  0  0
   -4.5249    0.2113    1.0800 H   0  0  0  0  0  0  0  0  0  0  0  0
   -4.7571    0.0286   -3.2464 H   0  0  0  0  0  0  0  0  0  0  0  0
   -2.2554    0.1982   -3.4002 H   0  0  0  0  0  0  0  0  0  0  0  0
   -6.7905   -0.0627   -1.9895 H   0  0  0  0  0  0  0  0  0  0  0  0
   -6.6382   -0.8787   -0.4035 H   0  0  0  0  0  0  0  0  0  0  0  0
   -6.7618    0.8971   -0.4788 H   0  0  0  0  0  0  0  0  0  0  0  0
  2 11  1  6  0  0  0
  2  6  1  0  0  0  0
  2  3  1  0  0  0  0
  3  7  1  1  0  0  0
  3  4  1  0  0  0  0
  4  8  1  0  0  0  0
  5  4  2  0  0  0  0
  5  9  1  0  0  0  0
  6 10  1  1  0  0  0
  6  5  1  0  0  0  0
  7 19  1  0  0  0  0
  7 18  1  0  0  0  0
  8 21  1  0  0  0  0
  9 26  1  0  0  0  0
  9 24  1  0  0  0  0
 10 28  1  0  0  0  0
 10 29  1  0  0  0  0
 11 12  1  0  0  0  0
 12 30  1  0  0  0  0
 13 17  1  0  0  0  0
 13 12  2  0  0  0  0
 14 13  1  0  0  0  0
 15 14  2  0  0  0  0
 15 16  1  0  0  0  0
 16  1  1  0  0  0  0
 16 11  2  0  0  0  0
 17 35  1  0  0  0  0
 17 34  1  0  0  0  0
 20  7  1  0  0  0  0
 22  8  1  0  0  0  0
 23  8  1  0  0  0  0
 25  9  1  0  0  0  0
 27 10  1  0  0  0  0
 31 14  1  0  0  0  0
 32 15  1  0  0  0  0
 33 17  1  0  0  0  0
M  CHG  1   1  -1
M  END
