2,8
q = -1.0, confidence = 0.016

 16 15  0  0  0  0  0  0  0  0999 V2000
    1.1431   -2.4893   -1.7738 C   0  0  0  0  0  0  0  0  0  0  0  0
    0.2057   -1.7211   -0.8883 C   0  0  0  0  0  2  0  0  0  0  0  0
   -1.1115   -2.1487   -0.7677 C   0  0  0  0  0  0  0  0  0  0  0  0
   -1.9220   -1.2809    0.0042 C   0  0  0  0  0  0  0  0  0  0  0  0
   -3.9980   -0.4918    0.8264 C   0  0  0  0  0  0  0  0  0  0  0  0
   -4.2395    0.6865   -0.0039 C   0  0  0  0  0  0  0  0  0  0  0  0
   -4.4528    1.6705   -0.6964 C   0  0  0  0  0  0  0  0  0  0  0  0
   -1.4017   -0.2493    0.5477 O   0  5  0  0  0  0  0  0  0  0  0  0
   -3.2399   -1.5142    0.1433 O   0  0  0  0  0  0  0  0  0  0  0  0
    0.6330   -3.2780   -2.3662 H   0  0  0  0  0  0  0  0  0  0  0  0
    1.9391   -2.9719   -1.1668 H   0  0  0  0  0  0  0  0  0  0  0  0
    1.6794   -1.8147   -2.4748 H   0  0  0  0  0  0  0  0  0  0  0  0
   -1.5392   -3.0363   -1.2614 H   0  0  0  0  0  0  0  0  0  0  0  0
   -4.9563   -0.9824    1.0886 H   0  0  0  0  0  0  0  0  0  0  0  0
   -3.4756   -0.1989    1.7614 H   0  0  0  0  0  0  0  0  0  0  0  0
   -4.6537    2.5388   -1.3087 H   0  0  0  0  0  0  0  0  0  0  0  0
  1 11  1  0  0  0  0
  1  2  1  0  0  0  0
  2  3  1  0  0  0  0
  3  4  2  0  0  0  0
  4  9  1  0  0  0  0
  4  8  1  0  0  0  0
  5 14  1  0  0  0  0
  5 15  1  0  0  0  0
  6  5  1  0  0  0  0
  7  6  3  0  0  0  0
  9  5  1  0  0  0  0
 10  1  1  0  0  0  0
 12  1  1  0  0  0  0
 13  3  1  0  0  0  0
 16  7  1  0  0  0  0
M  CHG  1   8  -1
M  END
