9,29
q = -2.0, confidence = 0.968

 29 29  0  0  1  0  0  0  0  0999 V2000
   -1.2941   -0.5938   -2.1362 C   0  0  0  0  0  3  0  0  0  0  0  0
   -1.6547    0.4042   -2.4144 H   0  0  0  0  0  0  0  0  0  0  0  0
   -0.0571   -1.1794   -2.5143 C   0  0  0  0  0  0  0  0  0  0  0  0
    0.7196   -0.7025   -3.1237 H   0  0  0  0  0  0  0  0  0  0  0  0
    0.0354   -2.4582   -1.8950 C   0  0  0  0  0  0  0  0  0  0  0  0
    0.8745   -3.1588   -1.9897 H   0  0  0  0  0  0  0  0  0  0  0  0
   -1.1751   -2.6795   -1.1637 C   0  0  0  0  0  3  0  0  0  0  0  0
   -1.4231   -3.5708   -0.5751 H   0  0  0  0  0  0  0  0  0  0  0  0
   -2.0065   -1.5256   -1.3025 C   0  0  1  0  0  3  0  0  0  0  0  0
   -3.2958   -1.2614   -0.6130 C   0  0  0  0  0  0  0  0  0  0  0  0
   -4.1774   -2.2676   -0.3639 C   0  0  0  0  0  0  0  0  0  0  0  0
   -5.1265   -2.0499    0.1456 H   0  0  0  0  0  0  0  0  0  0  0  0
   -3.9678   -3.2983   -0.6812 H   0  0  0  0  0  0  0  0  0  0  0  0
   -3.5933    0.0600   -0.2626 N   0  0  0  0  0  0  0  0  0  0  0  0
   -2.7029    0.8425    0.2584 C   0  0  0  0  0  0  0  0  0  0  0  0
   -3.0190    2.3183    0.5256 C   0  0  0  0  0  0  0  0  0  0  0  0
   -2.1242    3.1601   -0.4128 C   0  0  0  0  0  0  0  0  0  0  0  0
   -1.0507    2.9461   -0.2415 H   0  0  0  0  0  0  0  0  0  0  0  0
   -2.2938    4.2417   -0.2358 H   0  0  0  0  0  0  0  0  0  0  0  0
   -2.3554    2.9496   -1.4773 H   0  0  0  0  0  0  0  0  0  0  0  0
   -4.4975    2.6153    0.2434 C   0  0  0  0  0  0  0  0  0  0  0  0
   -4.7600    2.3724   -0.8037 H   0  0  0  0  0  0  0  0  0  0  0  0
   -4.7090    3.6888    0.4260 H   0  0  0  0  0  0  0  0  0  0  0  0
   -5.1562    2.0077    0.8935 H   0  0  0  0  0  0  0  0  0  0  0  0
   -2.6789    2.6473    1.9940 C   0  0  0  0  0  0  0  0  0  0  0  0
   -1.6126    2.4428    2.2118 H   0  0  0  0  0  0  0  0  0  0  0  0
   -3.2974    2.0446    2.6900 H   0  0  0  0  0  0  0  0  0  0  0  0
   -2.8791    3.7184    2.2002 H   0  0  0  0  0  0  0  0  0  0  0  0
   -1.4671    0.4799    0.6131 O   0  5  0  0  0  0  0  0  0  0  0  0
  1  9  1  0  0  0  0
  2  1  1  0  0  0  0
  3  1  1  0  0  0  0
  3  5  2  0  0  0  0
  4  3  1  0  0  0  0
  5  7  1  0  0  0  0
  6  5  1  0  0  0  0
  7  8  1  0  0  0  0
  9  7  1  0  0  0  0
  9 10  1  1  0  0  0
 10 11  2  0  0  0  0
 10 14  1  0  0  0  0
 11 12  1  0  0  0  0
 13 11  1  0  0  0  0
 14 15  2  0  0  0  0
 15 16  1  0  0  0  0
 15 29  1  0  0  0  0
 16 25  1  0  0  0  0
 17 18  1  0  0  0  0
 17 19  1  0  0  0  0
 17 16  1  0  0  0  0
 20 17  1  0  0  0  0
 21 23  1  0  0  0  0
 21 16  1  0  0  0  0
 21 24  1  0  0  0  0
 22 21  1  0  0  0  0
 25 28  1  0  0  0  0
 25 26  1  0  0  0  0
 25 27  1  0  0  0  0
M  CHG  1  29  -1
M  END
