2,5
q = 0.0, confidence = 0.918

 30 31  0  0  1  0  0  0  0  0999 V2000
    1.7531   -1.7314    1.4851 O   0  0  0  0  0  0  0  0  0  0  0  0
   -1.2452    0.4771   -1.5584 O   0  0  0  0  0  1  0  0  0  0  0  0
    1.9358   -1.1648    0.4028 C   0  0  0  0  0  0  0  0  0  0  0  0
    0.7774   -0.7192   -0.4214 C   0  0  0  0  0  3  0  0  0  0  0  0
   -0.5478   -1.0989   -0.0100 C   0  0  0  0  0  3  0  0  0  0  0  0
   -1.6226   -0.4677   -0.7368 C   0  0  1  0  0  3  0  0  0  0  0  0
   -3.0604   -0.7927   -0.5670 C   0  0  0  0  0  0  0  0  0  0  0  0
   -3.4901   -1.9264    0.1550 C   0  0  0  0  0  0  0  0  0  0  0  0
   -4.8574   -2.2010    0.2857 C   0  0  0  0  0  0  0  0  0  0  0  0
   -5.8068   -1.3518   -0.3068 C   0  0  0  0  0  0  0  0  0  0  0  0
   -5.3844   -0.2270   -1.0357 C   0  0  0  0  0  0  0  0  0  0  0  0
   -4.0191    0.0509   -1.1672 C   0  0  0  0  0  0  0  0  0  0  0  0
    3.3253   -0.9015   -0.0995 C   0  0  0  0  0  0  0  0  0  0  0  0
    4.3995   -1.4057    0.6660 C   0  0  0  0  0  0  0  0  0  0  0  0
    5.7217   -1.1899    0.2654 C   0  0  0  0  0  0  0  0  0  0  0  0
    5.9902   -0.4595   -0.9058 C   0  0  0  0  0  0  0  0  0  0  0  0
    4.9305    0.0529   -1.6711 C   0  0  0  0  0  0  0  0  0  0  0  0
    3.6046   -0.1678   -1.2730 C   0  0  0  0  0  0  0  0  0  0  0  0
    0.9250   -0.5083   -1.4911 H   0  0  0  0  0  0  0  0  0  0  0  0
   -0.6975   -1.7713    0.8464 H   0  0  0  0  0  0  0  0  0  0  0  0
   -2.7521   -2.6041    0.6085 H   0  0  0  0  0  0  0  0  0  0  0  0
   -5.1855   -3.0871    0.8497 H   0  0  0  0  0  0  0  0  0  0  0  0
   -6.8805   -1.5705   -0.2035 H   0  0  0  0  0  0  0  0  0  0  0  0
   -6.1266    0.4371   -1.5037 H   0  0  0  0  0  0  0  0  0  0  0  0
   -3.6632    0.9238   -1.7335 H   0  0  0  0  0  0  0  0  0  0  0  0
    4.1543   -1.9659    1.5804 H   0  0  0  0  0  0  0  0  0  0  0  0
    6.5517   -1.5898    0.8675 H   0  0  0  0  0  0  0  0  0  0  0  0
    7.0303   -0.2866   -1.2219 H   0  0  0  0  0  0  0  0  0  0  0  0
    5.1379    0.6308   -2.5842 H   0  0  0  0  0  0  0  0  0  0  0  0
    2.7883    0.2489   -1.8793 H   0  0  0  0  0  0  0  0  0  0  0  0
  3  1  2  0  0  0  0
  4  5  1  0  0  0  0
  4  3  1  0  0  0  0
  5 20  1  0  0  0  0
  6  2  1  1  0  0  0
  6  7  1  0  0  0  0
  6  5  1  0  0  0  0
  7  8  1  0  0  0  0
  8  9  2  0  0  0  0
  8 21  1  0  0  0  0
  9 22  1  0  0  0  0
 10 23  1  0  0  0  0
 10  9  1  0  0  0  0
 11 10  2  0  0  0  0
 12 11  1  0  0  0  0
 12  7  2  0  0  0  0
 13  3  1  0  0  0  0
 13 14  1  0  0  0  0
 14 26  1  0  0  0  0
 15 14  2  0  0  0  0
 15 27  1  0  0  0  0
 16 15  1  0  0  0  0
 17 18  1  0  0  0  0
 17 16  2  0  0  0  0
 18 13  2  0  0  0  0
 19  4  1  0  0  0  0
 24 11  1  0  0  0  0
 25 12  1  0  0  0  0
 28 16  1  0  0  0  0
 29 17  1  0  0  0  0
 30 18  1  0  0  0  0
M  END
