4,10
q = -1.0

 21 20  0  0  0  0  0  0  0  0999 V2000
    0.6773   -0.1257   -2.1210 C   0  0  0  0  0  3  0  0  0  0  0  0
    1.4991   -0.1589   -2.8523 H   0  0  0  0  0  0  0  0  0  0  0  0
   -0.0299    0.7066   -2.2460 H   0  0  0  0  0  0  0  0  0  0  0  0
    0.3242   -1.3294   -1.4669 C   0  0  0  0  0  3  0  0  0  0  0  0
    0.9371   -2.2238   -1.6761 H   0  0  0  0  0  0  0  0  0  0  0  0
   -0.5607   -1.4244   -0.3463 C   0  0  0  0  0  3  0  0  0  0  0  0
   -0.5525   -2.4055    0.1545 H   0  0  0  0  0  0  0  0  0  0  0  0
   -1.8071   -0.6410   -0.1400 C   0  0  0  0  0  0  0  0  0  0  0  0
   -1.6227    0.8116   -0.0893 C   0  0  0  0  0  0  0  0  0  0  0  0
   -0.4593    1.2970   -0.0195 O   0  5  0  0  0  0  0  0  0  0  0  0
   -2.6838    1.5830   -0.0866 O   0  0  0  0  0  0  0  0  0  0  0  0
   -2.4950    3.0147    0.0500 C   0  0  0  0  0  0  0  0  0  0  0  0
   -1.9116    3.4018   -0.8068 H   0  0  0  0  0  0  0  0  0  0  0  0
   -1.9642    3.2385    0.9949 H   0  0  0  0  0  0  0  0  0  0  0  0
   -3.5105    3.4436    0.0573 H   0  0  0  0  0  0  0  0  0  0  0  0
   -3.0419   -1.1911    0.0665 C   0  0  0  0  0  3  0  0  0  0  0  0
   -3.8695   -0.4758    0.2163 H   0  0  0  0  0  0  0  0  0  0  0  0
   -3.3953   -2.6296    0.1032 C   0  0  0  0  0  0  0  0  0  0  0  0
   -2.5394   -3.3154   -0.0300 H   0  0  0  0  0  0  0  0  0  0  0  0
   -4.1422   -2.8457   -0.6930 H   0  0  0  0  0  0  0  0  0  0  0  0
   -3.9155   -2.8721    1.0550 H   0  0  0  0  0  0  0  0  0  0  0  0
  1  4  1  0  0  0  0
  2  1  1  0  0  0  0
  3  1  1  0  0  0  0
  4  6  1  0  0  0  0
  5  4  1  0  0  0  0
  6  8  1  0  0  0  0
  6  7  1  0  0  0  0
  8  9  2  0  0  0  0
  8 16  1  0  0  0  0
  9 11  1  0  0  0  0
  9 10  1  0  0  0  0
 11 12  1  0  0  0  0
 12 15  1  0  0  0  0
 12 14  1  0  0  0  0
 13 12  1  0  0  0  0
 16 18  1  0  0  0  0
 16 17  1  0  0  0  0
 18 21  1  0  0  0  0
 19 18  1  0  0  0  0
 20 18  1  0  0  0  0
M  CHG  1  10  -1
M  END
