1,12
q = -2.0, confidence = 0.848

 13 13  0  0  0  0  0  0  0  0999 V2000
    1.4225    0.0836    0.2322 C   0  0  0  0  0  3  0  0  0  0  0  0
    1.8922    1.0960    1.1024 C   0  0  0  0  0  0  0  0  0  0  0  0
    3.2646    1.2892    1.3270 C   0  0  0  0  0  0  0  0  0  0  0  0
    3.5729    2.0944    2.0129 H   0  0  0  0  0  0  0  0  0  0  0  0
    4.2039    0.4746    0.6822 C   0  0  0  0  0  0  0  0  0  0  0  0
    5.2838    0.6013    0.8404 H   0  0  0  0  0  0  0  0  0  0  0  0
    3.7372   -0.5225   -0.1946 C   0  0  0  0  0  0  0  0  0  0  0  0
    4.8976   -1.5381   -1.0257 Cl  0  0  0  0  0  0  0  0  0  0  0  0
    2.3649   -0.7250   -0.4299 C   0  0  0  0  0  0  0  0  0  0  0  0
    2.0560   -1.5060   -1.1394 H   0  0  0  0  0  0  0  0  0  0  0  0
    0.8538    1.9881    1.7116 C   0  0  0  0  0  0  0  0  0  0  0  0
   -0.3865    1.6828    1.3122 O   0  5  0  0  0  0  0  0  0  0  0  0
    1.0946    2.9264    2.4631 O   0  0  0  0  0  0  0  0  0  0  0  0
  1  2  1  0  0  0  0
  2  3  2  0  0  0  0
  2 11  1  0  0  0  0
  3  4  1  0  0  0  0
  5  6  1  0  0  0  0
  5  3  1  0  0  0  0
  7  5  2  0  0  0  0
  8  7  1  0  0  0  0
  9  7  1  0  0  0  0
  9  1  2  0  0  0  0
 10  9  1  0  0  0  0
 11 13  2  0  0  0  0
 12 11  1  0  0  0  0
M  CHG  1  12  -1
M  END
