1,15
q = -1.0

 20 19  0  0  0  0  0  0  0  0999 V2000
    0.3774    0.6942    1.4644 O   0  5  0  0  0  0  0  0  0  0  0  0
   -0.5590    2.2891    2.7686 O   0  0  0  0  0  0  0  0  0  0  0  0
   -3.1089    0.3300   -1.7443 O   0  0  0  0  0  0  0  0  0  0  0  0
   -3.9253   -0.9841   -0.0804 O   0  0  0  0  0  0  0  0  0  0  0  0
   -3.1394    1.9275    1.5904 C   0  0  0  0  0  0  0  0  0  0  0  0
   -3.0877    2.9573    1.1789 H   0  0  0  0  0  0  0  0  0  0  0  0
   -3.2162    2.0270    2.6911 H   0  0  0  0  0  0  0  0  0  0  0  0
   -4.0677    1.4532    1.2228 H   0  0  0  0  0  0  0  0  0  0  0  0
    0.7206    2.5002    3.3920 C   0  0  0  0  0  0  0  0  0  0  0  0
    1.0681    1.5715    3.8855 H   0  0  0  0  0  0  0  0  0  0  0  0
    0.5636    3.2988    4.1368 H   0  0  0  0  0  0  0  0  0  0  0  0
    1.4706    2.8141    2.6393 H   0  0  0  0  0  0  0  0  0  0  0  0
   -0.6366    1.3578    1.8279 C   0  0  0  0  0  0  0  0  0  0  0  0
   -1.9289    1.1205    1.2144 C   0  0  0  0  0  0  0  0  0  0  0  0
   -1.8594    0.1166    0.2689 C   0  0  0  0  0  2  0  0  0  0  0  0
   -3.0269   -0.1615   -0.6263 C   0  0  0  0  0  0  0  0  0  0  0  0
   -5.0566   -1.3268   -0.9122 C   0  0  0  0  0  0  0  0  0  0  0  0
   -5.6789   -2.0055   -0.3049 H   0  0  0  0  0  0  0  0  0  0  0  0
   -4.7114   -1.8313   -1.8355 H   0  0  0  0  0  0  0  0  0  0  0  0
   -5.6229   -0.4165   -1.1884 H   0  0  0  0  0  0  0  0  0  0  0  0
  1 13  1  0  0  0  0
  2  9  1  0  0  0  0
  3 16  2  0  0  0  0
  5  7  1  0  0  0  0
  6  5  1  0  0  0  0
  8  5  1  0  0  0  0
  9 10  1  0  0  0  0
  9 11  1  0  0  0  0
 12  9  1  0  0  0  0
 13  2  1  0  0  0  0
 14  5  1  0  0  0  0
 14 13  2  0  0  0  0
 15 14  1  0  0  0  0
 16  4  1  0  0  0  0
 16 15  1  0  0  0  0
 17 18  1  0  0  0  0
 17  4  1  0  0  0  0
 19 17  1  0  0  0  0
 20 17  1  0  0  0  0
M  CHG  1   1  -1
M  END
