1,15
q = -2.0, confidence = 0.654

 15 15  0  0  0  0  0  0  0  0999 V2000
    1.2178   -0.7492   -1.1539 C   0  0  0  0  0  2  0  0  0  0  0  0
    1.4485   -0.2391   -2.1147 H   0  0  0  0  0  0  0  0  0  0  0  0
    2.3173   -1.5127   -0.5969 C   0  0  0  0  0  0  0  0  0  0  0  0
    3.5648   -1.4865   -1.2730 C   0  0  0  0  0  0  0  0  0  0  0  0
    3.6387   -0.8970   -2.1989 H   0  0  0  0  0  0  0  0  0  0  0  0
    4.6740   -2.1892   -0.7959 C   0  0  0  0  0  0  0  0  0  0  0  0
    5.6199   -2.1649   -1.3584 H   0  0  0  0  0  0  0  0  0  0  0  0
    4.5841   -2.9364    0.3978 C   0  0  0  0  0  0  0  0  0  0  0  0
    5.4587   -3.4870    0.7747 H   0  0  0  0  0  0  0  0  0  0  0  0
    3.3732   -2.9833    1.0881 C   0  0  0  0  0  0  0  0  0  0  0  0
    3.2861   -3.5680    2.0178 H   0  0  0  0  0  0  0  0  0  0  0  0
    2.2326   -2.2924    0.6076 C   0  0  0  0  0  0  0  0  0  0  0  0
    1.0166   -2.3598    1.3744 C   0  0  0  0  0  3  0  0  0  0  0  0
    1.0326   -2.9448    2.3220 H   0  0  0  0  0  0  0  0  0  0  0  0
   -0.0613   -1.7684    1.0960 O   0  0  0  0  0  1  0  0  0  0  0  0
  1  3  1  0  0  0  0
  2  1  1  0  0  0  0
  3 12  1  0  0  0  0
  4  6  1  0  0  0  0
  4  3  2  0  0  0  0
  5  4  1  0  0  0  0
  6  8  2  0  0  0  0
  7  6  1  0  0  0  0
  8  9  1  0  0  0  0
  8 10  1  0  0  0  0
 10 11  1  0  0  0  0
 12 10  2  0  0  0  0
 12 13  1  0  0  0  0
 13 14  1  0  0  0  0
 15 13  1  0  0  0  0
M  END
