17,22
q = -1.0, confidence = 0.22

 47 46  0  0  1  0  0  0  0  0999 V2000
   -2.4972   -1.7362   -0.9814 S   0  0  0  0  0  0  0  0  0  0  0  0
    4.3249   -1.7683    0.1884 F   0  0  0  0  0  0  0  0  0  0  0  0
    4.5647    0.3975    0.0777 F   0  0  0  0  0  0  0  0  0  0  0  0
    4.0529   -0.5508    1.9783 F   0  0  0  0  0  0  0  0  0  0  0  0
    0.0732    1.5904    2.4133 F   0  0  0  0  0  0  0  0  0  0  0  0
    2.1997    2.0559    2.3526 F   0  0  0  0  0  0  0  0  0  0  0  0
    1.5342    0.0842    3.0100 F   0  0  0  0  0  0  0  0  0  0  0  0
    1.8605    3.0875   -1.2496 F   0  0  0  0  0  0  0  0  0  0  0  0
    2.7047    1.1973   -1.8597 F   0  0  0  0  0  0  0  0  0  0  0  0
    0.8149    1.8768   -2.7290 F   0  0  0  0  0  0  0  0  0  0  0  0
    0.1390    3.7207    0.5907 F   0  0  0  0  0  0  0  0  0  0  0  0
   -2.0139    3.4872    0.5243 F   0  0  0  0  0  0  0  0  0  0  0  0
   -0.9050    3.8017   -1.3269 F   0  0  0  0  0  0  0  0  0  0  0  0
   -3.6001    1.8690   -0.9330 O   0  0  0  0  0  0  0  0  0  0  0  0
   -3.8112    0.8056    1.0614 O   0  0  0  0  0  0  0  0  0  0  0  0
   -1.3595   -0.8977    2.3701 O   0  0  0  0  0  0  0  0  0  0  0  0
   -0.0981   -2.2828    1.0606 O   0  0  0  0  0  1  0  0  0  0  0  0
   -3.7727   -2.2423    0.2863 C   0  0  0  0  0  0  0  0  0  0  0  0
   -3.4135   -3.5831    0.9247 C   0  0  0  0  0  0  0  0  0  0  0  0
   -5.1273   -2.2688   -0.4213 C   0  0  0  0  0  0  0  0  0  0  0  0
    3.8236   -0.5869    0.6418 C   0  0  0  0  0  0  0  0  0  0  0  0
    2.3736   -0.4313    0.3407 C   0  0  0  0  0  2  0  0  0  0  0  0
    1.4283    0.5801    0.6941 C   0  0  1  0  0  3  0  0  0  0  0  0
    1.2900    1.0824    2.1141 C   0  0  0  0  0  0  0  0  0  0  0  0
    0.7220    1.1107   -0.4836 C   0  0  2  0  0  3  0  0  0  0  0  0
    1.5302    1.8141   -1.5693 C   0  0  0  0  0  0  0  0  0  0  0  0
   -0.6673    1.6683   -0.2748 C   0  0  0  0  0  0  0  0  0  0  0  0
   -0.8666    3.1734   -0.1296 C   0  0  0  0  0  0  0  0  0  0  0  0
   -1.6864    0.7898   -0.0791 C   0  0  0  0  0  0  0  0  0  0  0  0
   -3.1316    1.1597    0.1131 C   0  0  0  0  0  0  0  0  0  0  0  0
   -4.9616    2.3005   -0.8219 C   0  0  0  0  0  0  0  0  0  0  0  0
   -1.3551   -0.6603   -0.0490 C   0  0  1  0  0  3  0  0  0  0  0  0
   -0.9305   -1.3114    1.1946 C   0  0  2  0  0  3  0  0  0  0  0  0
   -0.8742   -1.5614    3.5576 C   0  0  0  0  0  0  0  0  0  0  0  0
   -3.7708   -1.4293    1.0397 H   0  0  0  0  0  0  0  0  0  0  0  0
   -2.4186   -3.5634    1.4107 H   0  0  0  0  0  0  0  0  0  0  0  0
   -3.3952   -4.3927    0.1659 H   0  0  0  0  0  0  0  0  0  0  0  0
   -4.1661   -3.8549    1.6953 H   0  0  0  0  0  0  0  0  0  0  0  0
   -5.1303   -2.9864   -1.2689 H   0  0  0  0  0  0  0  0  0  0  0  0
   -5.3950   -1.2687   -0.8137 H   0  0  0  0  0  0  0  0  0  0  0  0
   -5.9189   -2.5885    0.2879 H   0  0  0  0  0  0  0  0  0  0  0  0
   -5.6347    1.4399   -0.6338 H   0  0  0  0  0  0  0  0  0  0  0  0
   -5.2076    2.7870   -1.7818 H   0  0  0  0  0  0  0  0  0  0  0  0
   -5.0693    3.0205    0.0144 H   0  0  0  0  0  0  0  0  0  0  0  0
   -0.9554   -0.8205    4.3711 H   0  0  0  0  0  0  0  0  0  0  0  0
    0.1729   -1.8853    3.4270 H   0  0  0  0  0  0  0  0  0  0  0  0
   -1.5236   -2.4347    3.7658 H   0  0  0  0  0  0  0  0  0  0  0  0
  1 18  1  0  0  0  0
  2 21  1  0  0  0  0
  3 21  1  0  0  0  0
  9 26  1  0  0  0  0
 10 26  1  0  0  0  0
 13 28  1  0  0  0  0
 14 31  1  0  0  0  0
 14 30  1  0  0  0  0
 16 34  1  0  0  0  0
 18 19  1  0  0  0  0
 18 35  1  0  0  0  0
 19 36  1  0  0  0  0
 19 38  1  0  0  0  0
 20 18  1  0  0  0  0
 20 41  1  0  0  0  0
 21  4  1  0  0  0  0
 22 21  1  0  0  0  0
 23 22  1  6  0  0  0
 23 24  1  0  0  0  0
 24  6  1  0  0  0  0
 24  5  1  0  0  0  0
 24  7  1  0  0  0  0
 25 27  1  1  0  0  0
 25 23  1  0  0  0  0
 26  8  1  0  0  0  0
 26 25  1  0  0  0  0
 27 28  1  0  0  0  0
 27 29  2  0  0  0  0
 28 12  1  0  0  0  0
 28 11  1  0  0  0  0
 29 32  1  0  0  0  0
 29 30  1  0  0  0  0
 30 15  2  0  0  0  0
 31 42  1  0  0  0  0
 31 44  1  0  0  0  0
 32  1  1  1  0  0  0
 32 33  1  0  0  0  0
 33 17  1  1  0  0  0
 33 16  1  0  0  0  0
 34 47  1  0  0  0  0
 34 45  1  0  0  0  0
 37 19  1  0  0  0  0
 39 20  1  0  0  0  0
 40 20  1  0  0  0  0
 43 31  1  0  0  0  0
 46 34  1  0  0  0  0
M  END
