1,5
q = -1.0

 20 19  0  0  0  0  0  0  0  0999 V2000
    1.7110   -1.6989   -0.5326 O   0  5  0  0  0  0  0  0  0  0  0  0
    2.0689   -2.0001   -2.7443 O   0  0  0  0  0  0  0  0  0  0  0  0
    0.2452    3.7875    0.4499 O   0  0  0  0  0  0  0  0  0  0  0  0
    1.7778    3.0541   -1.0530 O   0  0  0  0  0  0  0  0  0  0  0  0
    0.4032    0.5667   -0.8745 C   0  0  0  0  0  2  0  0  0  0  0  0
    0.8599   -0.0781   -2.0020 C   0  0  0  0  0  0  0  0  0  0  0  0
   -0.2871    1.8954   -1.0024 C   0  0  0  0  0  0  0  0  0  0  0  0
    1.5693   -1.2937   -1.7187 C   0  0  0  0  0  0  0  0  0  0  0  0
    0.5730    3.0195   -0.4316 C   0  0  0  0  0  0  0  0  0  0  0  0
    2.7874   -3.1924   -2.4038 C   0  0  0  0  0  0  0  0  0  0  0  0
    2.6956    4.0398   -0.5635 C   0  0  0  0  0  0  0  0  0  0  0  0
    0.7545    0.2861   -3.0375 H   0  0  0  0  0  0  0  0  0  0  0  0
   -1.2353    1.9150   -0.4329 H   0  0  0  0  0  0  0  0  0  0  0  0
   -0.5077    2.1416   -2.0656 H   0  0  0  0  0  0  0  0  0  0  0  0
    3.1507   -3.6113   -3.3588 H   0  0  0  0  0  0  0  0  0  0  0  0
    3.6388   -2.9637   -1.7321 H   0  0  0  0  0  0  0  0  0  0  0  0
    2.1263   -3.9213   -1.8919 H   0  0  0  0  0  0  0  0  0  0  0  0
    2.2316    5.0462   -0.5594 H   0  0  0  0  0  0  0  0  0  0  0  0
    3.0147    3.7883    0.4675 H   0  0  0  0  0  0  0  0  0  0  0  0
    3.5651    4.0123   -1.2441 H   0  0  0  0  0  0  0  0  0  0  0  0
  2 10  1  0  0  0  0
  2  8  1  0  0  0  0
  4 11  1  0  0  0  0
  4  9  1  0  0  0  0
  6  8  2  0  0  0  0
  6  5  1  0  0  0  0
  7  5  1  0  0  0  0
  7 13  1  0  0  0  0
  7  9  1  0  0  0  0
  8  1  1  0  0  0  0
  9  3  2  0  0  0  0
 10 17  1  0  0  0  0
 10 16  1  0  0  0  0
 11 18  1  0  0  0  0
 11 19  1  0  0  0  0
 12  6  1  0  0  0  0
 14  7  1  0  0  0  0
 15 10  1  0  0  0  0
 20 11  1  0  0  0  0
M  CHG  1   1  -1
M  END
