1,9
q = -2.0, confidence = 0.588

 16 16  0  0  0  0  0  0  0  0999 V2000
   -1.3933   -0.1855    1.1006 O   0  5  0  0  0  0  0  0  0  0  0  0
   -0.7517    0.2858   -2.8141 O   0  0  0  0  0  0  0  0  0  0  0  0
   -2.4696   -0.0667    0.3539 C   0  0  0  0  0  0  0  0  0  0  0  0
   -2.3444    0.1077   -1.0575 C   0  0  0  0  0  0  0  0  0  0  0  0
   -3.4898    0.2271   -1.8728 C   0  0  0  0  0  0  0  0  0  0  0  0
   -4.7628    0.1812   -1.3004 C   0  0  0  0  0  0  0  0  0  0  0  0
   -4.8884    0.0086    0.0983 C   0  0  0  0  0  0  0  0  0  0  0  0
   -3.7772   -0.1192    0.9417 C   0  0  0  0  0  0  0  0  0  0  0  0
   -0.9496    0.1693   -1.5934 C   0  0  0  0  0  3  0  0  0  0  0  0
   -3.8926   -0.3190    2.4275 C   0  0  0  0  0  0  0  0  0  0  0  0
   -3.3373    0.3595   -2.9557 H   0  0  0  0  0  0  0  0  0  0  0  0
   -5.6646    0.2771   -1.9240 H   0  0  0  0  0  0  0  0  0  0  0  0
   -5.8945   -0.0295    0.5491 H   0  0  0  0  0  0  0  0  0  0  0  0
   -4.9484   -0.3102    2.7615 H   0  0  0  0  0  0  0  0  0  0  0  0
   -3.4359   -1.2834    2.7394 H   0  0  0  0  0  0  0  0  0  0  0  0
   -3.3396    0.4675    2.9845 H   0  0  0  0  0  0  0  0  0  0  0  0
  2  9  2  0  0  0  0
  3  8  1  0  0  0  0
  3  1  1  0  0  0  0
  4  3  2  0  0  0  0
  5  6  2  0  0  0  0
  5  4  1  0  0  0  0
  6  7  1  0  0  0  0
  7 13  1  0  0  0  0
  7  8  2  0  0  0  0
  8 10  1  0  0  0  0
  9  4  1  0  0  0  0
 10 15  1  0  0  0  0
 10 14  1  0  0  0  0
 10 16  1  0  0  0  0
 11  5  1  0  0  0  0
 12  6  1  0  0  0  0
M  CHG  1   1  -1
M  END
