18,41
q = -1.0, confidence = 0.02

 42 43  0  0  1  0  0  0  0  0999 V2000
   -3.2381   -0.7560   -1.0486 C   0  0  0  0  0  0  0  0  0  0  0  0
   -2.4970   -2.0334   -0.5920 C   0  0  2  0  0  0  0  0  0  0  0  0
   -2.9556   -2.8680   -1.1577 H   0  0  0  0  0  0  0  0  0  0  0  0
   -2.7022   -2.2735    0.9307 C   0  0  0  0  0  0  0  0  0  0  0  0
   -2.1616   -1.4411    1.4331 H   0  0  0  0  0  0  0  0  0  0  0  0
   -4.1817   -2.2034    1.3215 C   0  0  0  0  0  0  0  0  0  0  0  0
   -4.6422   -1.2348    1.0504 H   0  0  0  0  0  0  0  0  0  0  0  0
   -4.2954   -2.3550    2.4142 H   0  0  0  0  0  0  0  0  0  0  0  0
   -4.7667   -2.9926    0.8051 H   0  0  0  0  0  0  0  0  0  0  0  0
   -2.0791   -3.5989    1.3843 C   0  0  0  0  0  0  0  0  0  0  0  0
   -2.2008   -3.7308    2.4786 H   0  0  0  0  0  0  0  0  0  0  0  0
   -0.9958   -3.6584    1.1594 H   0  0  0  0  0  0  0  0  0  0  0  0
   -2.5759   -4.4606    0.8894 H   0  0  0  0  0  0  0  0  0  0  0  0
   -0.4298   -3.1619   -1.4415 C   0  0  0  0  0  0  0  0  0  0  0  0
   -0.9893   -4.0311   -1.7976 H   0  0  0  0  0  0  0  0  0  0  0  0
    0.9126   -2.9116   -1.3907 C   0  0  0  0  0  0  0  0  0  0  0  0
    1.7766   -3.5132   -1.6860 H   0  0  0  0  0  0  0  0  0  0  0  0
   -0.1656   -1.0780   -0.5526 C   0  0  0  0  0  2  0  0  0  0  0  0
    2.3541   -1.1809   -0.3964 C   0  0  0  0  0  0  0  0  0  0  0  0
    3.2279   -0.5137   -1.2842 C   0  0  0  0  0  0  0  0  0  0  0  0
    4.4875   -0.1290   -0.7852 C   0  0  0  0  0  0  0  0  0  0  0  0
    5.1752    0.4041   -1.4610 H   0  0  0  0  0  0  0  0  0  0  0  0
    4.8944   -0.4043    0.5326 C   0  0  0  0  0  0  0  0  0  0  0  0
    4.0207   -1.1369    1.3584 C   0  0  0  0  0  0  0  0  0  0  0  0
    4.3380   -1.4089    2.3780 H   0  0  0  0  0  0  0  0  0  0  0  0
    2.7557   -1.5551    0.9079 C   0  0  0  0  0  0  0  0  0  0  0  0
    2.8486   -0.2485   -2.7113 C   0  0  0  0  0  0  0  0  0  0  0  0
    3.6699    0.2576   -3.2525 H   0  0  0  0  0  0  0  0  0  0  0  0
    1.9256    0.3708   -2.7707 H   0  0  0  0  0  0  0  0  0  0  0  0
    2.6133   -1.1928   -3.2453 H   0  0  0  0  0  0  0  0  0  0  0  0
    6.2262    0.0781    1.0487 C   0  0  0  0  0  0  0  0  0  0  0  0
    6.9813    0.1351    0.2402 H   0  0  0  0  0  0  0  0  0  0  0  0
    6.6201   -0.5804    1.8476 H   0  0  0  0  0  0  0  0  0  0  0  0
    6.1353    1.0981    1.4808 H   0  0  0  0  0  0  0  0  0  0  0  0
    1.8843   -2.4421    1.7609 C   0  0  0  0  0  0  0  0  0  0  0  0
    0.8229   -2.1303    1.7363 H   0  0  0  0  0  0  0  0  0  0  0  0
    2.2253   -2.4487    2.8132 H   0  0  0  0  0  0  0  0  0  0  0  0
    1.9150   -3.4892    1.3909 H   0  0  0  0  0  0  0  0  0  0  0  0
   -1.0658   -2.0467   -0.9135 N   0  0  0  0  0  0  0  0  0  0  0  0
    1.0632   -1.6416   -0.8374 N   0  0  0  0  0  0  0  0  0  0  0  0
   -2.6578    0.3834   -0.8256 O   0  5  0  0  0  0  0  0  0  0  0  0
   -4.3772   -0.8810   -1.4960 O   0  0  0  0  0  0  0  0  0  0  0  0
  1 41  1  0  0  0  0
  1  2  1  0  0  0  0
  2  3  1  6  0  0  0
  2  4  1  0  0  0  0
  4  6  1  0  0  0  0
  4 10  1  0  0  0  0
  4  5  1  0  0  0  0
  6  8  1  0  0  0  0
  7  6  1  0  0  0  0
  9  6  1  0  0  0  0
 10 11  1  0  0  0  0
 12 10  1  0  0  0  0
 13 10  1  0  0  0  0
 14 16  2  0  0  0  0
 14 39  1  0  0  0  0
 15 14  1  0  0  0  0
 16 40  1  0  0  0  0
 17 16  1  0  0  0  0
 19 26  1  0  0  0  0
 20 21  1  0  0  0  0
 20 19  2  0  0  0  0
 21 23  2  0  0  0  0
 22 21  1  0  0  0  0
 23 31  1  0  0  0  0
 23 24  1  0  0  0  0
 24 25  1  0  0  0  0
 26 24  2  0  0  0  0
 26 35  1  0  0  0  0
 27 20  1  0  0  0  0
 28 27  1  0  0  0  0
 29 27  1  0  0  0  0
 30 27  1  0  0  0  0
 31 34  1  0  0  0  0
 31 33  1  0  0  0  0
 32 31  1  0  0  0  0
 35 37  1  0  0  0  0
 36 35  1  0  0  0  0
 38 35  1  0  0  0  0
 39  2  1  0  0  0  0
 39 18  1  0  0  0  0
 40 18  1  0  0  0  0
 40 19  1  0  0  0  0
 42  1  2  0  0  0  0
M  CHG  1  41  -1
M  END
