1,42
q = -1.0, confidence = 0.0

 55 56  0  0  0  0  0  0  0  0999 V2000
    0.0866   -1.1285   -0.6838 O   0  5  0  0  0  0  0  0  0  0  0  0
   -1.3484    1.3287   -0.1475 N   0  0  0  0  0  0  0  0  0  0  0  0
   -1.2664    3.5229   -0.3240 N   0  0  0  0  0  0  0  0  0  0  0  0
   -1.1738   -1.1474   -0.3559 C   0  0  0  0  0  0  0  0  0  0  0  0
   -1.9013   -2.4057   -0.3145 C   0  0  0  0  0  0  0  0  0  0  0  0
   -3.2438   -2.4121    0.0680 C   0  0  0  0  0  0  0  0  0  0  0  0
   -3.7672   -3.3770    0.1004 H   0  0  0  0  0  0  0  0  0  0  0  0
   -3.9655   -1.2565    0.4542 C   0  0  0  0  0  0  0  0  0  0  0  0
   -3.2756   -0.0449    0.4037 C   0  0  0  0  0  0  0  0  0  0  0  0
   -3.7713    0.8776    0.7339 H   0  0  0  0  0  0  0  0  0  0  0  0
   -1.9341    0.0273   -0.0252 C   0  0  0  0  0  0  0  0  0  0  0  0
   -1.1653   -3.7178   -0.6475 C   0  0  0  0  0  0  0  0  0  0  0  0
   -0.5619   -3.6440   -2.0704 C   0  0  0  0  0  0  0  0  0  0  0  0
   -1.3684   -3.5642   -2.8280 H   0  0  0  0  0  0  0  0  0  0  0  0
    0.0208   -4.5637   -2.2899 H   0  0  0  0  0  0  0  0  0  0  0  0
    0.0960   -2.7624   -2.1765 H   0  0  0  0  0  0  0  0  0  0  0  0
   -0.0568   -3.9434    0.4094 C   0  0  0  0  0  0  0  0  0  0  0  0
    0.6076   -3.0636    0.4799 H   0  0  0  0  0  0  0  0  0  0  0  0
    0.5530   -4.8359    0.1525 H   0  0  0  0  0  0  0  0  0  0  0  0
   -0.5072   -4.1137    1.4085 H   0  0  0  0  0  0  0  0  0  0  0  0
   -2.0989   -4.9417   -0.6094 C   0  0  0  0  0  0  0  0  0  0  0  0
   -2.5387   -5.1034    0.3957 H   0  0  0  0  0  0  0  0  0  0  0  0
   -1.5202   -5.8523   -0.8667 H   0  0  0  0  0  0  0  0  0  0  0  0
   -2.9281   -4.8552   -1.3411 H   0  0  0  0  0  0  0  0  0  0  0  0
   -5.4240   -1.3784    0.9250 C   0  0  0  0  0  0  0  0  0  0  0  0
   -6.2776   -1.9977   -0.2052 C   0  0  0  0  0  0  0  0  0  0  0  0
   -7.3342   -2.1115    0.1168 H   0  0  0  0  0  0  0  0  0  0  0  0
   -5.9047   -2.9997   -0.4962 H   0  0  0  0  0  0  0  0  0  0  0  0
   -6.2575   -1.3573   -1.1104 H   0  0  0  0  0  0  0  0  0  0  0  0
   -6.0290   -0.0127    1.2921 C   0  0  0  0  0  0  0  0  0  0  0  0
   -6.0288    0.6817    0.4268 H   0  0  0  0  0  0  0  0  0  0  0  0
   -5.4785    0.4707    2.1248 H   0  0  0  0  0  0  0  0  0  0  0  0
   -7.0815   -0.1386    1.6179 H   0  0  0  0  0  0  0  0  0  0  0  0
   -5.4886   -2.2886    2.1729 C   0  0  0  0  0  0  0  0  0  0  0  0
   -6.5359   -2.4041    2.5235 H   0  0  0  0  0  0  0  0  0  0  0  0
   -4.8894   -1.8617    3.0024 H   0  0  0  0  0  0  0  0  0  0  0  0
   -5.0906   -3.3004    1.9592 H   0  0  0  0  0  0  0  0  0  0  0  0
   -2.0904    2.4529   -0.3132 C   0  0  0  0  0  3  0  0  0  0  0  0
   -3.1694    2.4774   -0.4614 H   0  0  0  0  0  0  0  0  0  0  0  0
    0.0337    3.0570   -0.1786 C   0  0  0  0  0  0  0  0  0  0  0  0
    0.8903    3.7353   -0.1670 H   0  0  0  0  0  0  0  0  0  0  0  0
    0.0236    1.6717   -0.0779 C   0  0  0  0  0  3  0  0  0  0  0  0
   -1.6586    4.9510   -0.4902 C   0  0  0  0  0  0  0  0  0  0  0  0
   -1.1834    5.7238    0.7529 C   0  0  0  0  0  0  0  0  0  0  0  0
   -1.6513    5.3158    1.6705 H   0  0  0  0  0  0  0  0  0  0  0  0
   -1.4610    6.7923    0.6622 H   0  0  0  0  0  0  0  0  0  0  0  0
   -0.0843    5.6652    0.8714 H   0  0  0  0  0  0  0  0  0  0  0  0
   -3.1829    5.0615   -0.6204 C   0  0  0  0  0  0  0  0  0  0  0  0
   -3.5596    4.5248   -1.5135 H   0  0  0  0  0  0  0  0  0  0  0  0
   -3.4569    6.1280   -0.7313 H   0  0  0  0  0  0  0  0  0  0  0  0
   -3.7010    4.6731    0.2787 H   0  0  0  0  0  0  0  0  0  0  0  0
   -0.9843    5.4894   -1.7646 C   0  0  0  0  0  0  0  0  0  0  0  0
    0.1190    5.4309   -1.6953 H   0  0  0  0  0  0  0  0  0  0  0  0
   -1.2620    6.5505   -1.9194 H   0  0  0  0  0  0  0  0  0  0  0  0
   -1.3048    4.9091   -2.6522 H   0  0  0  0  0  0  0  0  0  0  0  0
  1  4  1  0  0  0  0
  2 42  1  0  0  0  0
  2 11  1  0  0  0  0
  3 38  1  0  0  0  0
  3 40  1  0  0  0  0
  4  5  2  0  0  0  0
  4 11  1  0  0  0  0
  5  6  1  0  0  0  0
  6  7  1  0  0  0  0
  6  8  2  0  0  0  0
  8 25  1  0  0  0  0
  9  8  1  0  0  0  0
  9 10  1  0  0  0  0
 11  9  2  0  0  0  0
 12 21  1  0  0  0  0
 12  5  1  0  0  0  0
 12 17  1  0  0  0  0
 13 12  1  0  0  0  0
 14 13  1  0  0  0  0
 15 13  1  0  0  0  0
 16 13  1  0  0  0  0
 17 18  1  0  0  0  0
 17 20  1  0  0  0  0
 19 17  1  0  0  0  0
 21 22  1  0  0  0  0
 23 21  1  0  0  0  0
 24 21  1  0  0  0  0
 25 30  1  0  0  0  0
 25 34  1  0  0  0  0
 26 27  1  0  0  0  0
 26 25  1  0  0  0  0
 28 26  1  0  0  0  0
 29 26  1  0  0  0  0
 30 33  1  0  0  0  0
 30 32  1  0  0  0  0
 31 30  1  0  0  0  0
 34 35  1  0  0  0  0
 34 36  1  0  0  0  0
 37 34  1  0  0  0  0
 38  2  1  0  0  0  0
 39 38  1  0  0  0  0
 40 41  1  0  0  0  0
 40 42  2  0  0  0  0
 43  3  1  0  0  0  0
 43 44  1  0  0  0  0
 44 47  1  0  0  0  0
 44 45  1  0  0  0  0
 46 44  1  0  0  0  0
 48 43  1  0  0  0  0
 48 51  1  0  0  0  0
 49 48  1  0  0  0  0
 50 48  1  0  0  0  0
 52 53  1  0  0  0  0
 52 43  1  0  0  0  0
 54 52  1  0  0  0  0
 55 52  1  0  0  0  0
M  CHG  1   1  -1
M  END
