1,14
q = -2.0, confidence = 0.786

 14 14  0  0  0  0  0  0  0  0999 V2000
    2.2064    0.1486    0.0951 C   0  0  0  0  0  3  0  0  0  0  0  0
    3.0816   -0.9469   -0.1751 C   0  0  0  0  0  0  0  0  0  0  0  0
    4.4764   -0.7812   -0.1051 C   0  0  0  0  0  0  0  0  0  0  0  0
    5.1388   -1.6355   -0.3233 H   0  0  0  0  0  0  0  0  0  0  0  0
    5.0285    0.4548    0.2635 C   0  0  0  0  0  0  0  0  0  0  0  0
    6.1211    0.5778    0.3210 H   0  0  0  0  0  0  0  0  0  0  0  0
    4.1785    1.5228    0.5916 C   0  0  0  0  0  0  0  0  0  0  0  0
    4.6019    2.4851    0.9210 H   0  0  0  0  0  0  0  0  0  0  0  0
    2.7832    1.3629    0.5162 C   0  0  0  0  0  0  0  0  0  0  0  0
    2.1501    2.2090    0.8278 H   0  0  0  0  0  0  0  0  0  0  0  0
    2.4060   -2.2513   -0.4889 C   0  0  0  0  0  0  0  0  0  0  0  0
    2.5663   -2.5034   -1.5724 H   0  0  0  0  0  0  0  0  0  0  0  0
    2.8895   -3.0836    0.0836 H   0  0  0  0  0  0  0  0  0  0  0  0
    1.0350   -2.1982   -0.1890 O   0  0  0  0  0  1  0  0  0  0  0  0
  1  9  1  0  0  0  0
  2  3  1  0  0  0  0
  2  1  2  0  0  0  0
  3  5  2  0  0  0  0
  4  3  1  0  0  0  0
  5  6  1  0  0  0  0
  5  7  1  0  0  0  0
  7  8  1  0  0  0  0
  9  7  2  0  0  0  0
  9 10  1  0  0  0  0
 11 14  1  0  0  0  0
 11  2  1  0  0  0  0
 11 13  1  0  0  0  0
 12 11  1  0  0  0  0
M  END
