1,5
q = -2.0, confidence = 0.888

 27 28  0  0  0  0  0  0  0  0999 V2000
   -1.0388   -2.1068   -0.3462 O   0  5  0  0  0  0  0  0  0  0  0  0
    0.8091   -3.3697   -0.6262 O   0  0  0  0  0  0  0  0  0  0  0  0
    0.2996   -2.2938   -0.3611 C   0  0  0  0  0  0  0  0  0  0  0  0
    1.0262   -1.0153   -0.0372 C   0  0  0  0  0  0  0  0  0  0  0  0
    0.2179    0.0923    0.0872 C   0  0  0  0  0  3  0  0  0  0  0  0
    2.5023   -1.0319    0.0984 C   0  0  0  0  0  0  0  0  0  0  0  0
    3.1382   -0.2427    1.0865 C   0  0  0  0  0  0  0  0  0  0  0  0
    4.5320   -0.2296    1.2137 C   0  0  0  0  0  0  0  0  0  0  0  0
    5.3260   -1.0104    0.3571 C   0  0  0  0  0  0  0  0  0  0  0  0
    4.7093   -1.8101   -0.6181 C   0  0  0  0  0  0  0  0  0  0  0  0
    3.3135   -1.8277   -0.7455 C   0  0  0  0  0  0  0  0  0  0  0  0
    0.7330    1.4743    0.0715 C   0  0  0  0  0  0  0  0  0  0  0  0
    0.3158    2.4822    0.9754 C   0  0  0  0  0  0  0  0  0  0  0  0
    0.7822    3.8003    0.8644 C   0  0  0  0  0  0  0  0  0  0  0  0
    1.6613    4.1598   -0.1686 C   0  0  0  0  0  0  0  0  0  0  0  0
    2.0777    3.1792   -1.0845 C   0  0  0  0  0  0  0  0  0  0  0  0
    1.6271    1.8598   -0.9632 C   0  0  0  0  0  0  0  0  0  0  0  0
    2.5212    0.3642    1.7651 H   0  0  0  0  0  0  0  0  0  0  0  0
    5.0032    0.3907    1.9915 H   0  0  0  0  0  0  0  0  0  0  0  0
    6.4223   -1.0017    0.4559 H   0  0  0  0  0  0  0  0  0  0  0  0
    5.3226   -2.4323   -1.2881 H   0  0  0  0  0  0  0  0  0  0  0  0
    2.8339   -2.4697   -1.4957 H   0  0  0  0  0  0  0  0  0  0  0  0
   -0.3763    2.2321    1.7896 H   0  0  0  0  0  0  0  0  0  0  0  0
    0.4494    4.5558    1.5929 H   0  0  0  0  0  0  0  0  0  0  0  0
    2.0187    5.1964   -0.2607 H   0  0  0  0  0  0  0  0  0  0  0  0
    2.7668    3.4436   -1.9013 H   0  0  0  0  0  0  0  0  0  0  0  0
    1.9697    1.0955   -1.6766 H   0  0  0  0  0  0  0  0  0  0  0  0
  2  3  2  0  0  0  0
  3  1  1  0  0  0  0
  3  4  1  0  0  0  0
  4  5  2  0  0  0  0
  4  6  1  0  0  0  0
  6  7  1  0  0  0  0
  7  8  2  0  0  0  0
  7 18  1  0  0  0  0
  8 19  1  0  0  0  0
  9 20  1  0  0  0  0
  9  8  1  0  0  0  0
 10  9  2  0  0  0  0
 11 10  1  0  0  0  0
 11  6  2  0  0  0  0
 12  5  1  0  0  0  0
 12 13  1  0  0  0  0
 13 23  1  0  0  0  0
 14 13  2  0  0  0  0
 14 24  1  0  0  0  0
 15 14  1  0  0  0  0
 16 17  1  0  0  0  0
 16 15  2  0  0  0  0
 17 12  2  0  0  0  0
 21 10  1  0  0  0  0
 22 11  1  0  0  0  0
 25 15  1  0  0  0  0
 26 16  1  0  0  0  0
 27 17  1  0  0  0  0
M  CHG  1   1  -1
M  END
