1,7
q = -1.0, confidence = 0.016

 17 16  0  0  0  0  0  0  0  0999 V2000
    0.2160    1.8173   -0.3426 O   0  5  0  0  0  0  0  0  0  0  0  0
    0.5535    3.8244    0.6578 O   0  0  0  0  0  0  0  0  0  0  0  0
    0.0088   -0.2506    3.2547 C   0  0  0  0  0  0  0  0  0  0  0  0
    0.2292    0.4035    4.1248 H   0  0  0  0  0  0  0  0  0  0  0  0
    0.7163   -1.1066    3.2669 H   0  0  0  0  0  0  0  0  0  0  0  0
   -0.9943   -0.6998    3.4089 H   0  0  0  0  0  0  0  0  0  0  0  0
    0.0681    0.4777    1.9372 C   0  0  0  0  0  2  0  0  0  0  0  0
    0.2670    1.8588    1.9882 C   0  0  0  0  0  0  0  0  0  0  0  0
    0.3819    2.4338    2.9203 H   0  0  0  0  0  0  0  0  0  0  0  0
    0.3427    2.4984    0.7203 C   0  0  0  0  0  0  0  0  0  0  0  0
    0.6108    4.4098   -0.6608 C   0  0  0  0  0  0  0  0  0  0  0  0
   -0.3477    4.2100   -1.1859 H   0  0  0  0  0  0  0  0  0  0  0  0
    1.4088    3.9062   -1.2464 H   0  0  0  0  0  0  0  0  0  0  0  0
    0.8717    5.8924   -0.4954 C   0  0  0  0  0  0  0  0  0  0  0  0
    0.0643    6.3753    0.0901 H   0  0  0  0  0  0  0  0  0  0  0  0
    0.9211    6.3811   -1.4884 H   0  0  0  0  0  0  0  0  0  0  0  0
    1.8320    6.0708    0.0279 H   0  0  0  0  0  0  0  0  0  0  0  0
  1 10  1  0  0  0  0
  2 10  1  0  0  0  0
  3  5  1  0  0  0  0
  3  6  1  0  0  0  0
  3  4  1  0  0  0  0
  7  8  1  0  0  0  0
  7  3  1  0  0  0  0
  8  9  1  0  0  0  0
 10  8  2  0  0  0  0
 11 14  1  0  0  0  0
 11  2  1  0  0  0  0
 12 11  1  0  0  0  0
 13 11  1  0  0  0  0
 14 17  1  0  0  0  0
 14 15  1  0  0  0  0
 16 14  1  0  0  0  0
M  CHG  1   1  -1
M  END
