1,11
q = -1.0, confidence = 0.014

 22 22  0  0  1  0  0  0  0  0999 V2000
   -0.1398    0.8122    0.1307 C   0  0  0  0  0  3  0  0  0  0  0  0
    0.6057    2.0257    0.0235 C   0  0  0  0  0  0  0  0  0  0  0  0
   -0.0027    3.3025    0.0740 C   0  0  0  0  0  0  0  0  0  0  0  0
   -1.3846    3.3885    0.2453 C   0  0  0  0  0  0  0  0  0  0  0  0
   -2.1465    2.2134    0.3721 C   0  0  0  0  0  0  0  0  0  0  0  0
   -1.5254    0.9522    0.3165 C   0  0  0  0  0  0  0  0  0  0  0  0
    2.0374    1.8201   -0.1387 C   0  0  1  0  0  3  0  0  0  0  0  0
    3.0228    2.9454   -0.2708 C   0  0  0  0  0  0  0  0  0  0  0  0
   -3.4472   -0.4115   -0.1898 C   0  0  0  0  0  0  0  0  0  0  0  0
   -4.0749   -1.7074    0.2475 C   0  0  0  0  0  0  0  0  0  0  0  0
    2.4657    0.6357   -0.1682 O   0  0  0  0  0  1  0  0  0  0  0  0
   -2.2728   -0.2049    0.5152 O   0  0  0  0  0  0  0  0  0  0  0  0
   -3.8685    0.3540   -1.0266 O   0  0  0  0  0  0  0  0  0  0  0  0
    0.6040    4.2157   -0.0183 H   0  0  0  0  0  0  0  0  0  0  0  0
   -1.8837    4.3674    0.2884 H   0  0  0  0  0  0  0  0  0  0  0  0
   -3.2335    2.2752    0.5153 H   0  0  0  0  0  0  0  0  0  0  0  0
    2.9749    3.6089    0.6166 H   0  0  0  0  0  0  0  0  0  0  0  0
    2.7795    3.5694   -1.1550 H   0  0  0  0  0  0  0  0  0  0  0  0
    4.0444    2.5396   -0.3751 H   0  0  0  0  0  0  0  0  0  0  0  0
   -4.2712   -1.6806    1.3378 H   0  0  0  0  0  0  0  0  0  0  0  0
   -3.3704   -2.5437    0.0712 H   0  0  0  0  0  0  0  0  0  0  0  0
   -5.0150   -1.8672   -0.3071 H   0  0  0  0  0  0  0  0  0  0  0  0
  1  6  1  0  0  0  0
  2  3  1  0  0  0  0
  2  1  2  0  0  0  0
  3  4  2  0  0  0  0
  4 15  1  0  0  0  0
  4  5  1  0  0  0  0
  5 16  1  0  0  0  0
  6  5  2  0  0  0  0
  6 12  1  0  0  0  0
  7 11  1  1  0  0  0
  7  2  1  0  0  0  0
  8  7  1  0  0  0  0
  8 17  1  0  0  0  0
  9 10  1  0  0  0  0
  9 12  1  0  0  0  0
 10 20  1  0  0  0  0
 13  9  2  0  0  0  0
 14  3  1  0  0  0  0
 18  8  1  0  0  0  0
 19  8  1  0  0  0  0
 21 10  1  0  0  0  0
 22 10  1  0  0  0  0
M  END
