1,2
q = -1.0, confidence = 0.02

 13 12  0  0  0  0  0  0  0  0999 V2000
   -0.1640    1.9507    0.9530 O   0  5  0  0  0  0  0  0  0  0  0  0
   -0.1072    1.6353   -1.6963 C   0  0  0  0  0  2  0  0  0  0  0  0
   -0.2787    2.9160   -1.1782 C   0  0  0  0  0  0  0  0  0  0  0  0
   -0.2992    3.0065    0.2560 C   0  0  0  0  0  0  0  0  0  0  0  0
   -0.4484    4.3338    0.9713 C   0  0  0  0  0  0  0  0  0  0  0  0
   -0.7544    4.2143    2.4610 C   0  0  0  0  0  0  0  0  0  0  0  0
   -0.0764    1.5697   -2.8058 H   0  0  0  0  0  0  0  0  0  0  0  0
   -0.3902    3.8330   -1.7838 H   0  0  0  0  0  0  0  0  0  0  0  0
   -1.2228    4.9289    0.4404 H   0  0  0  0  0  0  0  0  0  0  0  0
    0.5011    4.8951    0.8101 H   0  0  0  0  0  0  0  0  0  0  0  0
   -1.7155    3.6881    2.6285 H   0  0  0  0  0  0  0  0  0  0  0  0
   -0.8177    5.2126    2.9367 H   0  0  0  0  0  0  0  0  0  0  0  0
    0.0274    3.6258    2.9788 H   0  0  0  0  0  0  0  0  0  0  0  0
  2  3  1  0  0  0  0
  3  4  2  0  0  0  0
  4  1  1  0  0  0  0
  4  5  1  0  0  0  0
  5  6  1  0  0  0  0
  6 11  1  0  0  0  0
  6 12  1  0  0  0  0
  6 13  1  0  0  0  0
  7  2  1  0  0  0  0
  8  3  1  0  0  0  0
  9  5  1  0  0  0  0
 10  5  1  0  0  0  0
M  CHG  1   1  -1
M  END
