1,3
q = -1.0, confidence = 0.008

 13 13  0  0  0  0  0  0  0  0999 V2000
    0.2623    1.2584   -1.9163 O   0  5  0  0  0  0  0  0  0  0  0  0
    0.2569    2.3318   -1.2016 C   0  0  0  0  0  0  0  0  0  0  0  0
    0.0512    2.0303    0.2215 C   0  0  0  0  0  2  0  0  0  0  0  0
   -0.0930    2.9732    1.2454 C   0  0  0  0  0  0  0  0  0  0  0  0
   -0.2810    2.5583    2.2531 H   0  0  0  0  0  0  0  0  0  0  0  0
   -0.0310    4.3878    1.2006 C   0  0  0  0  0  0  0  0  0  0  0  0
   -0.1828    4.8966    2.1687 H   0  0  0  0  0  0  0  0  0  0  0  0
    0.2104    5.2305    0.1131 C   0  0  0  0  0  0  0  0  0  0  0  0
    0.2288    6.3112    0.3276 H   0  0  0  0  0  0  0  0  0  0  0  0
    0.4382    4.8672   -1.2353 C   0  0  0  0  0  0  0  0  0  0  0  0
    0.6164    5.7109   -1.9237 H   0  0  0  0  0  0  0  0  0  0  0  0
    0.4615    3.6065   -1.8231 C   0  0  0  0  0  0  0  0  0  0  0  0
    0.6449    3.5505   -2.9096 H   0  0  0  0  0  0  0  0  0  0  0  0
  1  2  1  0  0  0  0
  2  3  1  0  0  0  0
  3  4  1  0  0  0  0
  4  5  1  0  0  0  0
  6  4  2  0  0  0  0
  6  7  1  0  0  0  0
  8  9  1  0  0  0  0
  8  6  1  0  0  0  0
 10  8  2  0  0  0  0
 11 10  1  0  0  0  0
 12 10  1  0  0  0  0
 12  2  2  0  0  0  0
 13 12  1  0  0  0  0
M  CHG  1   1  -1
M  END
