1,4
q = -1.0

 10  9  0  0  1  0  0  0  0  0999 V2000
   -1.5114   -1.1530    0.9457 O   0  0  0  0  0  1  0  0  0  0  0  0
   -2.3354   -1.6787    0.1571 C   0  0  2  0  0  3  0  0  0  0  0  0
   -2.2596   -1.5287   -1.1431 O   0  0  0  0  0  0  0  0  0  0  0  0
   -1.1277   -0.7219   -1.6598 C   0  0  0  0  0  3  0  0  0  0  0  0
   -0.5731   -1.4094   -2.3286 H   0  0  0  0  0  0  0  0  0  0  0  0
   -1.6037    0.0544   -2.2921 H   0  0  0  0  0  0  0  0  0  0  0  0
   -3.4917   -2.4923    0.6445 C   0  0  0  0  0  0  0  0  0  0  0  0
   -4.4152   -1.8797    0.5815 H   0  0  0  0  0  0  0  0  0  0  0  0
   -3.3317   -2.7909    1.6946 H   0  0  0  0  0  0  0  0  0  0  0  0
   -3.6429   -3.3781   -0.0003 H   0  0  0  0  0  0  0  0  0  0  0  0
  2  7  1  0  0  0  0
  2  1  1  1  0  0  0
  3  2  1  0  0  0  0
  4  3  1  0  0  0  0
  5  4  1  0  0  0  0
  6  4  1  0  0  0  0
  7  9  1  0  0  0  0
  8  7  1  0  0  0  0
 10  7  1  0  0  0  0
M  END
