1,6
q = -1.0

 14 13  0  0  1  0  0  0  0  0999 V2000
   -1.4539   -1.8397   -0.1449 O   0  5  0  0  0  0  0  0  0  0  0  0
   -3.5379   -2.3110   -0.8138 O   0  0  0  0  0  0  0  0  0  0  0  0
   -0.5935    2.9057   -0.1149 O   0  0  0  0  0  0  0  0  0  0  0  0
   -2.5703    2.7201   -1.1733 O   0  0  0  0  0  0  0  0  0  0  0  0
    0.1673    2.2523    0.3191 H   0  0  0  0  0  0  0  0  0  0  0  0
   -1.5797    0.6757    1.5464 C   0  0  0  0  0  3  0  0  0  0  0  0
   -2.1159   -0.0751    2.1526 H   0  0  0  0  0  0  0  0  0  0  0  0
   -1.0933    1.4904    2.1080 H   0  0  0  0  0  0  0  0  0  0  0  0
   -1.9445    0.8872    0.1906 C   0  0  2  0  0  3  0  0  0  0  0  0
   -1.6973    2.2668   -0.4458 C   0  0  0  0  0  0  0  0  0  0  0  0
   -2.9988    0.0211   -0.4689 C   0  0  0  0  0  0  0  0  0  0  0  0
   -3.1340    0.3566   -1.5169 H   0  0  0  0  0  0  0  0  0  0  0  0
   -3.9852    0.1733    0.0150 H   0  0  0  0  0  0  0  0  0  0  0  0
   -2.7000   -1.4925   -0.4816 C   0  0  0  0  0  0  0  0  0  0  0  0
  2 14  2  0  0  0  0
  3  5  1  0  0  0  0
  4 10  2  0  0  0  0
  6  8  1  0  0  0  0
  6  7  1  0  0  0  0
  9 10  1  1  0  0  0
  9  6  1  0  0  0  0
 10  3  1  0  0  0  0
 11 13  1  0  0  0  0
 11  9  1  0  0  0  0
 12 11  1  0  0  0  0
 14 11  1  0  0  0  0
 14  1  1  0  0  0  0
M  CHG  1   1  -1
M  END
