5,15
q = -1.0

 46 48  0  0  1  0  0  0  0  0999 V2000
    0.0782    0.5735   -1.4717 C   0  0  0  0  0  0  0  0  0  0  0  0
   -0.8451   -0.0053   -1.5886 H   0  0  0  0  0  0  0  0  0  0  0  0
    1.1961    0.5146   -2.3453 C   0  0  0  0  0  0  0  0  0  0  0  0
    1.2716   -0.0991   -3.2489 H   0  0  0  0  0  0  0  0  0  0  0  0
    2.2193    1.3370   -1.8030 C   0  0  0  0  0  3  0  0  0  0  0  0
    3.1971    1.5283   -2.2582 H   0  0  0  0  0  0  0  0  0  0  0  0
    1.7086    1.9418   -0.6096 C   0  0  0  0  0  0  0  0  0  0  0  0
    2.2454    2.6688    0.0089 H   0  0  0  0  0  0  0  0  0  0  0  0
    0.3715    1.4918   -0.4082 C   0  0  0  0  0  0  0  0  0  0  0  0
   -0.5763    1.9462    0.6979 C   0  0  0  0  0  0  0  0  0  0  0  0
   -0.2416    1.2045    2.0355 C   0  0  0  0  0  0  0  0  0  0  0  0
    0.8010    1.4384    2.3342 H   0  0  0  0  0  0  0  0  0  0  0  0
   -0.9171    1.5660    2.8355 H   0  0  0  0  0  0  0  0  0  0  0  0
   -0.3638   -0.2723    1.8322 C   0  0  2  0  0  3  0  0  0  0  0  0
    0.4459   -0.8688    1.0568 O   0  0  0  0  0  1  0  0  0  0  0  0
   -1.3675   -0.9520    2.3920 N   0  0  0  0  0  0  0  0  0  0  0  0
   -2.0304   -0.4163    2.9569 H   0  0  0  0  0  0  0  0  0  0  0  0
   -1.7653   -2.3044    1.9563 C   0  0  0  0  0  0  0  0  0  0  0  0
   -2.3133   -2.7731    2.7958 H   0  0  0  0  0  0  0  0  0  0  0  0
   -0.8395   -2.8820    1.7762 H   0  0  0  0  0  0  0  0  0  0  0  0
   -2.6113   -2.2215    0.7010 C   0  0  0  0  0  0  0  0  0  0  0  0
   -2.0177   -2.3850   -0.5657 C   0  0  0  0  0  0  0  0  0  0  0  0
   -0.9530   -2.6531   -0.6456 H   0  0  0  0  0  0  0  0  0  0  0  0
   -2.7774   -2.1954   -1.7308 C   0  0  0  0  0  0  0  0  0  0  0  0
   -2.3049   -2.3365   -2.7149 H   0  0  0  0  0  0  0  0  0  0  0  0
   -4.1325   -1.8384   -1.6403 C   0  0  0  0  0  0  0  0  0  0  0  0
   -4.7280   -1.6930   -2.5540 H   0  0  0  0  0  0  0  0  0  0  0  0
   -4.7329   -1.6871   -0.3792 C   0  0  0  0  0  0  0  0  0  0  0  0
   -5.7994   -1.4273   -0.3034 H   0  0  0  0  0  0  0  0  0  0  0  0
   -3.9760   -1.8797    0.7859 C   0  0  0  0  0  0  0  0  0  0  0  0
   -4.4563   -1.7690    1.7721 H   0  0  0  0  0  0  0  0  0  0  0  0
   -2.0536    1.6730    0.3093 C   0  0  0  0  0  0  0  0  0  0  0  0
   -2.2127    0.5973    0.0849 H   0  0  0  0  0  0  0  0  0  0  0  0
   -2.6779    1.8933    1.2041 H   0  0  0  0  0  0  0  0  0  0  0  0
   -2.5423    2.5406   -0.8578 C   0  0  0  0  0  0  0  0  0  0  0  0
   -2.0060    2.2533   -1.7880 H   0  0  0  0  0  0  0  0  0  0  0  0
   -3.6143    2.3263   -1.0446 H   0  0  0  0  0  0  0  0  0  0  0  0
   -2.3240    4.0330   -0.5869 C   0  0  0  0  0  0  0  0  0  0  0  0
   -2.9758    4.3544    0.2559 H   0  0  0  0  0  0  0  0  0  0  0  0
   -2.6341    4.6335   -1.4658 H   0  0  0  0  0  0  0  0  0  0  0  0
   -0.8614    4.3226   -0.2301 C   0  0  0  0  0  0  0  0  0  0  0  0
   -0.7238    5.3953    0.0152 H   0  0  0  0  0  0  0  0  0  0  0  0
   -0.2130    4.1194   -1.1106 H   0  0  0  0  0  0  0  0  0  0  0  0
   -0.4030    3.4675    0.9558 C   0  0  0  0  0  0  0  0  0  0  0  0
   -1.0116    3.7275    1.8493 H   0  0  0  0  0  0  0  0  0  0  0  0
    0.6495    3.6908    1.2289 H   0  0  0  0  0  0  0  0  0  0  0  0
  1  9  1  0  0  0  0
  2  1  1  0  0  0  0
  3  5  1  0  0  0  0
  3  1  2  0  0  0  0
  4  3  1  0  0  0  0
  5  7  1  0  0  0  0
  6  5  1  0  0  0  0
  7  9  2  0  0  0  0
  7  8  1  0  0  0  0
  9 10  1  0  0  0  0
 10 44  1  0  0  0  0
 10 11  1  0  0  0  0
 11 12  1  0  0  0  0
 11 13  1  0  0  0  0
 14 15  1  6  0  0  0
 14 11  1  0  0  0  0
 14 16  1  0  0  0  0
 16 17  1  0  0  0  0
 18 16  1  0  0  0  0
 18 19  1  0  0  0  0
 20 18  1  0  0  0  0
 21 30  1  0  0  0  0
 21 18  1  0  0  0  0
 22 21  2  0  0  0  0
 23 22  1  0  0  0  0
 24 26  2  0  0  0  0
 24 22  1  0  0  0  0
 25 24  1  0  0  0  0
 26 28  1  0  0  0  0
 27 26  1  0  0  0  0
 28 29  1  0  0  0  0
 28 30  2  0  0  0  0
 30 31  1  0  0  0  0
 32 10  1  0  0  0  0
 32 34  1  0  0  0  0
 33 32  1  0  0  0  0
 35 38  1  0  0  0  0
 35 32  1  0  0  0  0
 36 35  1  0  0  0  0
 37 35  1  0  0  0  0
 38 41  1  0  0  0  0
 38 39  1  0  0  0  0
 40 38  1  0  0  0  0
 41 42  1  0  0  0  0
 41 44  1  0  0  0  0
 43 41  1  0  0  0  0
 44 46  1  0  0  0  0
 44 45  1  0  0  0  0
M  END
