1,3
q = -1.0

 14 14  0  0  0  0  0  0  0  0999 V2000
    0.0240    0.1184    1.9186 O   0  5  0  0  0  0  0  0  0  0  0  0
   -0.4237    2.1541    0.9152 C   0  0  0  0  0  0  0  0  0  0  0  0
   -0.3080    1.4337   -0.2871 C   0  0  0  0  0  2  0  0  0  0  0  0
   -0.2238    1.3601    2.0673 C   0  0  0  0  0  0  0  0  0  0  0  0
   -0.2823    1.7646    3.1056 H   0  0  0  0  0  0  0  0  0  0  0  0
   -1.1959    3.6335   -0.7789 C   0  0  0  0  0  0  0  0  0  0  0  0
   -0.9659    4.5807   -1.3064 H   0  0  0  0  0  0  0  0  0  0  0  0
   -2.2992    3.5074   -0.8025 H   0  0  0  0  0  0  0  0  0  0  0  0
   -0.5375    2.3918   -1.4320 C   0  0  0  0  0  0  0  0  0  0  0  0
    0.4511    2.6429   -1.8830 H   0  0  0  0  0  0  0  0  0  0  0  0
   -1.1307    1.9559   -2.2611 H   0  0  0  0  0  0  0  0  0  0  0  0
   -0.7160    3.6231    0.6964 C   0  0  0  0  0  0  0  0  0  0  0  0
   -1.4687    4.0461    1.3939 H   0  0  0  0  0  0  0  0  0  0  0  0
    0.2061    4.2379    0.8180 H   0  0  0  0  0  0  0  0  0  0  0  0
  1  4  1  0  0  0  0
  2  4  2  0  0  0  0
  3  2  1  0  0  0  0
  4  5  1  0  0  0  0
  6 12  1  0  0  0  0
  7  6  1  0  0  0  0
  8  6  1  0  0  0  0
  9  6  1  0  0  0  0
  9  3  1  0  0  0  0
 10  9  1  0  0  0  0
 11  9  1  0  0  0  0
 12 14  1  0  0  0  0
 12  2  1  0  0  0  0
 12 13  1  0  0  0  0
M  CHG  1   1  -1
M  END
