1,9
q = 0.0, confidence = 0.552

 29 30  0  0  1  0  0  0  0  0999 V2000
    0.1219   -2.1910    0.9997 O   0  5  0  0  0  0  0  0  0  0  0  0
    1.2070   -2.9443    0.9932 C   0  0  0  0  0  0  0  0  0  0  0  0
    2.2278   -2.9575    0.0863 C   0  0  0  0  0  0  0  0  0  0  0  0
    2.3472   -1.9823   -1.0604 C   0  0  2  0  0  0  0  0  0  0  0  0
    3.6699   -2.1578   -1.8319 C   0  0  0  0  0  0  0  0  0  0  0  0
    4.6924   -1.4199   -0.9502 C   0  0  0  0  0  0  0  0  0  0  0  0
    3.9343   -0.1545   -0.5048 C   0  0  0  0  0  0  0  0  0  0  0  0
    2.4702   -0.5770   -0.4492 C   0  0  2  0  0  3  0  0  0  0  0  0
    1.4248    0.0524    0.1332 C   0  0  0  0  0  2  0  0  0  0  0  0
    1.4780    1.3039    0.9094 C   0  0  0  0  0  0  0  0  0  0  0  0
    2.2182    2.4410    0.4971 C   0  0  0  0  0  0  0  0  0  0  0  0
    2.2122    3.6248    1.2493 C   0  0  0  0  0  0  0  0  0  0  0  0
    1.4689    3.7077    2.4373 C   0  0  0  0  0  0  0  0  0  0  0  0
    0.7317    2.5906    2.8665 C   0  0  0  0  0  0  0  0  0  0  0  0
    0.7323    1.4112    2.1126 C   0  0  0  0  0  0  0  0  0  0  0  0
    1.2374   -3.6707    1.8352 H   0  0  0  0  0  0  0  0  0  0  0  0
    3.0408   -3.6826    0.2539 H   0  0  0  0  0  0  0  0  0  0  0  0
    1.4507   -2.0409   -1.7202 H   0  0  0  0  0  0  0  0  0  0  0  0
    3.9247   -3.2222   -2.0096 H   0  0  0  0  0  0  0  0  0  0  0  0
    3.5980   -1.6605   -2.8232 H   0  0  0  0  0  0  0  0  0  0  0  0
    4.9378   -2.0423   -0.0640 H   0  0  0  0  0  0  0  0  0  0  0  0
    5.6453   -1.1959   -1.4710 H   0  0  0  0  0  0  0  0  0  0  0  0
    4.0614    0.6379   -1.2773 H   0  0  0  0  0  0  0  0  0  0  0  0
    4.2947    0.2823    0.4492 H   0  0  0  0  0  0  0  0  0  0  0  0
    2.7974    2.3966   -0.4371 H   0  0  0  0  0  0  0  0  0  0  0  0
    2.7925    4.4937    0.9011 H   0  0  0  0  0  0  0  0  0  0  0  0
    1.4643    4.6376    3.0263 H   0  0  0  0  0  0  0  0  0  0  0  0
    0.1507    2.6401    3.8007 H   0  0  0  0  0  0  0  0  0  0  0  0
    0.1659    0.5302    2.4535 H   0  0  0  0  0  0  0  0  0  0  0  0
  2  1  1  0  0  0  0
  2 16  1  0  0  0  0
  3 17  1  0  0  0  0
  3  2  2  0  0  0  0
  4 18  1  6  0  0  0
  4  8  1  0  0  0  0
  4  3  1  0  0  0  0
  5  4  1  0  0  0  0
  5  6  1  0  0  0  0
  6  7  1  0  0  0  0
  6 21  1  0  0  0  0
  7  8  1  0  0  0  0
  7 24  1  0  0  0  0
  8  9  1  1  0  0  0
  9 10  1  0  0  0  0
 10 15  1  0  0  0  0
 11 10  2  0  0  0  0
 11 12  1  0  0  0  0
 12 13  2  0  0  0  0
 13 14  1  0  0  0  0
 13 27  1  0  0  0  0
 14 28  1  0  0  0  0
 15 29  1  0  0  0  0
 15 14  2  0  0  0  0
 19  5  1  0  0  0  0
 20  5  1  0  0  0  0
 22  6  1  0  0  0  0
 23  7  1  0  0  0  0
 25 11  1  0  0  0  0
 26 12  1  0  0  0  0
M  CHG  1   1  -1
M  END
