1,18
q = 0.0, confidence = 0.518

 29 30  0  0  1  0  0  0  0  0999 V2000
   -0.9097   -0.9491   -1.7471 O   0  5  0  0  0  0  0  0  0  0  0  0
   -0.4906   -2.1977   -1.8984 C   0  0  0  0  0  0  0  0  0  0  0  0
   -0.6703   -2.5829   -2.9273 H   0  0  0  0  0  0  0  0  0  0  0  0
    0.0911   -3.0411   -0.9958 C   0  0  0  0  0  0  0  0  0  0  0  0
    0.3396   -4.0539   -1.3527 H   0  0  0  0  0  0  0  0  0  0  0  0
    0.5117   -2.6543    0.4072 C   0  0  1  0  0  0  0  0  0  0  0  0
   -0.3800   -2.4209    1.0416 H   0  0  0  0  0  0  0  0  0  0  0  0
    1.4086   -3.7328    1.0507 C   0  0  0  0  0  0  0  0  0  0  0  0
    1.0547   -4.7640    0.8472 H   0  0  0  0  0  0  0  0  0  0  0  0
    1.4305   -3.5977    2.1542 H   0  0  0  0  0  0  0  0  0  0  0  0
    2.7987   -3.4331    0.4633 C   0  0  0  0  0  0  0  0  0  0  0  0
    3.6261   -3.9287    1.0109 H   0  0  0  0  0  0  0  0  0  0  0  0
    2.8370   -3.7828   -0.5896 H   0  0  0  0  0  0  0  0  0  0  0  0
    2.8785   -1.8947    0.5037 C   0  0  0  0  0  0  0  0  0  0  0  0
    3.5707   -1.4560   -0.2441 H   0  0  0  0  0  0  0  0  0  0  0  0
    3.2546   -1.5730    1.5023 H   0  0  0  0  0  0  0  0  0  0  0  0
    1.4376   -1.4304    0.3212 C   0  0  1  0  0  3  0  0  0  0  0  0
    0.9770   -0.2014   -0.0075 C   0  0  0  0  0  2  0  0  0  0  0  0
    1.8087    0.9700   -0.3216 C   0  0  0  0  0  0  0  0  0  0  0  0
    2.8505    1.4261    0.5264 C   0  0  0  0  0  0  0  0  0  0  0  0
    3.0874    0.8559    1.4379 H   0  0  0  0  0  0  0  0  0  0  0  0
    3.5751    2.5909    0.2275 C   0  0  0  0  0  0  0  0  0  0  0  0
    4.3743    2.9249    0.9081 H   0  0  0  0  0  0  0  0  0  0  0  0
    3.2863    3.3291   -0.9308 C   0  0  0  0  0  0  0  0  0  0  0  0
    3.8539    4.2429   -1.1638 H   0  0  0  0  0  0  0  0  0  0  0  0
    2.2686    2.8831   -1.7944 C   0  0  0  0  0  0  0  0  0  0  0  0
    2.0448    3.4449   -2.7150 H   0  0  0  0  0  0  0  0  0  0  0  0
    1.5385    1.7276   -1.4933 C   0  0  0  0  0  0  0  0  0  0  0  0
    0.7465    1.3669   -2.1680 H   0  0  0  0  0  0  0  0  0  0  0  0
  2  1  1  0  0  0  0
  2  4  2  0  0  0  0
  3  2  1  0  0  0  0
  4  6  1  0  0  0  0
  5  4  1  0  0  0  0
  6  7  1  1  0  0  0
  6  8  1  0  0  0  0
  8 10  1  0  0  0  0
  9  8  1  0  0  0  0
 11 14  1  0  0  0  0
 11 12  1  0  0  0  0
 11  8  1  0  0  0  0
 13 11  1  0  0  0  0
 14 16  1  0  0  0  0
 15 14  1  0  0  0  0
 17 18  1  6  0  0  0
 17  6  1  0  0  0  0
 17 14  1  0  0  0  0
 19 18  1  0  0  0  0
 19 20  1  0  0  0  0
 20 21  1  0  0  0  0
 22 20  2  0  0  0  0
 22 23  1  0  0  0  0
 24 22  1  0  0  0  0
 25 24  1  0  0  0  0
 26 28  1  0  0  0  0
 26 24  2  0  0  0  0
 27 26  1  0  0  0  0
 28 19  2  0  0  0  0
 29 28  1  0  0  0  0
M  CHG  1   1  -1
M  END
