1,27
q = -2.0, confidence = 0.888

 38 40  0  0  1  0  0  0  0  0999 V2000
   -0.1278   -1.7373    0.8244 O   0  0  0  0  0  1  0  0  0  0  0  0
   -1.2231   -0.8594    0.9454 C   0  0  2  0  0  0  0  0  0  0  0  0
   -1.4571   -0.7403    2.0356 H   0  0  0  0  0  0  0  0  0  0  0  0
   -2.4499   -1.4773    0.2813 C   0  0  0  0  0  0  0  0  0  0  0  0
   -2.7103   -1.2758   -1.0878 C   0  0  0  0  0  0  0  0  0  0  0  0
   -2.0599   -0.5985   -1.6625 H   0  0  0  0  0  0  0  0  0  0  0  0
   -3.7949   -1.9115   -1.7091 C   0  0  0  0  0  0  0  0  0  0  0  0
   -3.9909   -1.7408   -2.7789 H   0  0  0  0  0  0  0  0  0  0  0  0
   -4.6366   -2.7558   -0.9662 C   0  0  0  0  0  0  0  0  0  0  0  0
   -5.4911   -3.2512   -1.4522 H   0  0  0  0  0  0  0  0  0  0  0  0
   -4.3890   -2.9574    0.4009 C   0  0  0  0  0  0  0  0  0  0  0  0
   -5.0487   -3.6127    0.9902 H   0  0  0  0  0  0  0  0  0  0  0  0
   -3.3013   -2.3205    1.0174 C   0  0  0  0  0  0  0  0  0  0  0  0
   -3.1043   -2.4790    2.0902 H   0  0  0  0  0  0  0  0  0  0  0  0
   -0.8029    0.4911    0.3775 C   0  0  0  0  0  0  0  0  0  0  0  0
   -1.8137    1.5762    0.3482 C   0  0  0  0  0  0  0  0  0  0  0  0
   -1.8473    2.5233   -0.7043 C   0  0  0  0  0  0  0  0  0  0  0  0
   -1.1055    2.4498   -1.5120 H   0  0  0  0  0  0  0  0  0  0  0  0
   -2.8115    3.5371   -0.7360 C   0  0  0  0  0  0  0  0  0  0  0  0
   -2.8142    4.2584   -1.5677 H   0  0  0  0  0  0  0  0  0  0  0  0
   -3.7771    3.6313    0.2803 C   0  0  0  0  0  0  0  0  0  0  0  0
   -4.5364    4.4276    0.2541 H   0  0  0  0  0  0  0  0  0  0  0  0
   -3.7711    2.6919    1.3227 C   0  0  0  0  0  0  0  0  0  0  0  0
   -4.5271    2.7484    2.1210 H   0  0  0  0  0  0  0  0  0  0  0  0
   -2.8067    1.6751    1.3532 C   0  0  0  0  0  0  0  0  0  0  0  0
   -2.8211    0.9492    2.1794 H   0  0  0  0  0  0  0  0  0  0  0  0
    0.5007    0.5796   -0.0383 C   0  0  0  0  0  3  0  0  0  0  0  0
    1.1570    1.8646   -0.3520 C   0  0  0  0  0  0  0  0  0  0  0  0
    1.8825    2.1060   -1.5446 C   0  0  0  0  0  0  0  0  0  0  0  0
    1.9162    1.3349   -2.3251 H   0  0  0  0  0  0  0  0  0  0  0  0
    2.5461    3.3225   -1.7624 C   0  0  0  0  0  0  0  0  0  0  0  0
    3.0904    3.4809   -2.7064 H   0  0  0  0  0  0  0  0  0  0  0  0
    2.5225    4.3322   -0.7878 C   0  0  0  0  0  0  0  0  0  0  0  0
    3.0511    5.2825   -0.9562 H   0  0  0  0  0  0  0  0  0  0  0  0
    1.8141    4.1127    0.4055 C   0  0  0  0  0  0  0  0  0  0  0  0
    1.7818    4.8947    1.1799 H   0  0  0  0  0  0  0  0  0  0  0  0
    1.1406    2.9038    0.6166 C   0  0  0  0  0  0  0  0  0  0  0  0
    0.5774    2.7456    1.5485 H   0  0  0  0  0  0  0  0  0  0  0  0
  1  2  1  0  0  0  0
  2  3  1  1  0  0  0
  4  2  1  0  0  0  0
  4 13  1  0  0  0  0
  5  4  2  0  0  0  0
  6  5  1  0  0  0  0
  7  5  1  0  0  0  0
  7  9  2  0  0  0  0
  8  7  1  0  0  0  0
  9 11  1  0  0  0  0
 10  9  1  0  0  0  0
 11 12  1  0  0  0  0
 11 13  2  0  0  0  0
 13 14  1  0  0  0  0
 15  2  1  0  0  0  0
 16 15  1  0  0  0  0
 16 25  1  0  0  0  0
 17 16  2  0  0  0  0
 18 17  1  0  0  0  0
 19 17  1  0  0  0  0
 19 21  2  0  0  0  0
 20 19  1  0  0  0  0
 21 23  1  0  0  0  0
 22 21  1  0  0  0  0
 23 25  2  0  0  0  0
 23 24  1  0  0  0  0
 25 26  1  0  0  0  0
 27 15  2  0  0  0  0
 28 27  1  0  0  0  0
 28 37  1  0  0  0  0
 29 28  2  0  0  0  0
 30 29  1  0  0  0  0
 31 29  1  0  0  0  0
 31 33  2  0  0  0  0
 32 31  1  0  0  0  0
 33 35  1  0  0  0  0
 34 33  1  0  0  0  0
 35 37  2  0  0  0  0
 35 36  1  0  0  0  0
 37 38  1  0  0  0  0
M  END
