1,6
q = -2.0, confidence = 0.828

 26 25  0  0  0  0  0  0  0  0999 V2000
   -1.4430   -0.0004   -0.1479 O   0  5  0  0  0  0  0  0  0  0  0  0
   -3.6989    0.2511   -0.8458 N   0  0  0  0  0  0  0  0  0  0  0  0
   -1.9487    0.2756   -2.5018 C   0  0  0  0  0  0  0  0  0  0  0  0
   -0.5248    0.7025   -2.5740 C   0  0  0  0  0  3  0  0  0  0  0  0
    0.5344   -0.1729   -2.7452 C   0  0  0  0  0  3  0  0  0  0  0  0
    1.8931    0.0883   -2.3711 C   0  0  0  0  0  3  0  0  0  0  0  0
   -2.4300    0.1872   -1.0285 C   0  0  0  0  0  0  0  0  0  0  0  0
   -4.4634    0.0392    0.3802 C   0  0  0  0  0  0  0  0  0  0  0  0
   -3.8108    0.5413    1.6844 C   0  0  0  0  0  0  0  0  0  0  0  0
   -5.7995    0.7869    0.1836 C   0  0  0  0  0  0  0  0  0  0  0  0
   -4.7562   -1.4734    0.4912 C   0  0  0  0  0  0  0  0  0  0  0  0
   -2.6400    0.9492   -3.0421 H   0  0  0  0  0  0  0  0  0  0  0  0
   -2.0740   -0.7390   -2.9384 H   0  0  0  0  0  0  0  0  0  0  0  0
   -0.3193    1.7770   -2.4677 H   0  0  0  0  0  0  0  0  0  0  0  0
    0.2538   -1.2192   -2.9663 H   0  0  0  0  0  0  0  0  0  0  0  0
    2.2588    1.1171   -2.4954 H   0  0  0  0  0  0  0  0  0  0  0  0
    2.6472   -0.6672   -2.6320 H   0  0  0  0  0  0  0  0  0  0  0  0
   -4.4739    0.3396    2.5511 H   0  0  0  0  0  0  0  0  0  0  0  0
   -3.6486    1.6374    1.6397 H   0  0  0  0  0  0  0  0  0  0  0  0
   -2.8361    0.0536    1.8576 H   0  0  0  0  0  0  0  0  0  0  0  0
   -6.4839    0.6298    1.0429 H   0  0  0  0  0  0  0  0  0  0  0  0
   -6.2961    0.4378   -0.7429 H   0  0  0  0  0  0  0  0  0  0  0  0
   -5.6142    1.8749    0.0761 H   0  0  0  0  0  0  0  0  0  0  0  0
   -5.4430   -1.6887    1.3357 H   0  0  0  0  0  0  0  0  0  0  0  0
   -3.8223   -2.0476    0.6536 H   0  0  0  0  0  0  0  0  0  0  0  0
   -5.2210   -1.8389   -0.4459 H   0  0  0  0  0  0  0  0  0  0  0  0
  2  8  1  0  0  0  0
  3  7  1  0  0  0  0
  4  3  1  0  0  0  0
  4 14  1  0  0  0  0
  5  4  1  0  0  0  0
  5  6  1  0  0  0  0
  7  2  2  0  0  0  0
  7  1  1  0  0  0  0
  8 11  1  0  0  0  0
  8  9  1  0  0  0  0
  9 20  1  0  0  0  0
  9 18  1  0  0  0  0
 10  8  1  0  0  0  0
 10 21  1  0  0  0  0
 11 25  1  0  0  0  0
 11 24  1  0  0  0  0
 12  3  1  0  0  0  0
 13  3  1  0  0  0  0
 15  5  1  0  0  0  0
 16  6  1  0  0  0  0
 17  6  1  0  0  0  0
 19  9  1  0  0  0  0
 22 10  1  0  0  0  0
 23 10  1  0  0  0  0
 26 11  1  0  0  0  0
M  CHG  1   1  -1
M  END
