1,3
q = -1.0, confidence = 0.0

 30 30  0  0  0  0  0  0  0  0999 V2000
    0.8165    1.2340    1.4322 O   0  0  0  0  0  1  0  0  0  0  0  0
   -0.4842    1.3985    1.0924 N   0  0  0  0  0  0  0  0  0  0  0  0
   -0.8353    0.5228    0.1546 C   0  0  0  0  0  2  0  0  0  0  0  0
   -1.1456    2.5777    1.7583 C   0  0  0  0  0  0  0  0  0  0  0  0
   -0.1046    3.7120    1.8086 C   0  0  0  0  0  0  0  0  0  0  0  0
   -1.5330    2.1660    3.1887 C   0  0  0  0  0  0  0  0  0  0  0  0
   -2.3602    3.0636    0.9573 C   0  0  0  0  0  0  0  0  0  0  0  0
   -2.1844    0.2269   -0.3253 C   0  0  0  0  0  0  0  0  0  0  0  0
   -2.3739   -0.0359   -1.7051 C   0  0  0  0  0  0  0  0  0  0  0  0
   -3.6173   -0.4304   -2.2044 C   0  0  0  0  0  0  0  0  0  0  0  0
   -4.7251   -0.6263   -1.3502 C   0  0  0  0  0  0  0  0  0  0  0  0
   -4.5279   -0.4159    0.0288 C   0  0  0  0  0  0  0  0  0  0  0  0
   -3.2893    0.0028    0.5332 C   0  0  0  0  0  0  0  0  0  0  0  0
   -6.0593   -1.0601   -1.9008 C   0  0  0  0  0  0  0  0  0  0  0  0
   -0.5563    4.5941    2.3037 H   0  0  0  0  0  0  0  0  0  0  0  0
    0.2037    4.0102    0.7868 H   0  0  0  0  0  0  0  0  0  0  0  0
    0.7965    3.4009    2.3651 H   0  0  0  0  0  0  0  0  0  0  0  0
   -1.9232    3.0402    3.7472 H   0  0  0  0  0  0  0  0  0  0  0  0
   -0.6470    1.7721    3.7228 H   0  0  0  0  0  0  0  0  0  0  0  0
   -2.3195    1.3856    3.1849 H   0  0  0  0  0  0  0  0  0  0  0  0
   -3.2104    2.3612    0.9832 H   0  0  0  0  0  0  0  0  0  0  0  0
   -2.0958    3.2356   -0.1046 H   0  0  0  0  0  0  0  0  0  0  0  0
   -2.6999    4.0265    1.3872 H   0  0  0  0  0  0  0  0  0  0  0  0
   -1.5087    0.0568   -2.3780 H   0  0  0  0  0  0  0  0  0  0  0  0
   -3.7303   -0.6147   -3.2849 H   0  0  0  0  0  0  0  0  0  0  0  0
   -5.3630   -0.5921    0.7257 H   0  0  0  0  0  0  0  0  0  0  0  0
   -3.1638    0.1251    1.6196 H   0  0  0  0  0  0  0  0  0  0  0  0
   -6.7819   -1.2866   -1.0930 H   0  0  0  0  0  0  0  0  0  0  0  0
   -5.9616   -1.9650   -2.5357 H   0  0  0  0  0  0  0  0  0  0  0  0
   -6.5071   -0.2695   -2.5402 H   0  0  0  0  0  0  0  0  0  0  0  0
  2  1  1  0  0  0  0
  2  4  1  0  0  0  0
  3  2  1  0  0  0  0
  4  5  1  0  0  0  0
  4  6  1  0  0  0  0
  5 15  1  0  0  0  0
  5 17  1  0  0  0  0
  6 19  1  0  0  0  0
  6 18  1  0  0  0  0
  7 21  1  0  0  0  0
  7 23  1  0  0  0  0
  7  4  1  0  0  0  0
  8  3  1  0  0  0  0
  8 13  1  0  0  0  0
  9  8  2  0  0  0  0
 10  9  1  0  0  0  0
 10 11  2  0  0  0  0
 11 12  1  0  0  0  0
 12 13  2  0  0  0  0
 12 26  1  0  0  0  0
 13 27  1  0  0  0  0
 14 11  1  0  0  0  0
 14 28  1  0  0  0  0
 16  5  1  0  0  0  0
 20  6  1  0  0  0  0
 22  7  1  0  0  0  0
 24  9  1  0  0  0  0
 25 10  1  0  0  0  0
 29 14  1  0  0  0  0
 30 14  1  0  0  0  0
M  END
