1,5
q = -1.0

 13 13  0  0  0  0  0  0  0  0999 V2000
   -1.5225    1.7004   -1.2984 O   0  0  0  0  0  1  0  0  0  0  0  0
   -2.7824    1.5487   -1.2210 C   0  0  0  0  0  3  0  0  0  0  0  0
   -3.4192    2.2680   -1.7804 H   0  0  0  0  0  0  0  0  0  0  0  0
   -3.3213    0.4131   -0.5373 C   0  0  0  0  0  0  0  0  0  0  0  0
   -2.3084   -0.4199    0.0630 C   0  0  0  0  0  3  0  0  0  0  0  0
   -2.7209   -1.6969    0.5060 C   0  0  0  0  0  0  0  0  0  0  0  0
   -1.9805   -2.3909    0.9336 H   0  0  0  0  0  0  0  0  0  0  0  0
   -4.0647   -2.0878    0.4177 C   0  0  0  0  0  0  0  0  0  0  0  0
   -4.3613   -3.0852    0.7805 H   0  0  0  0  0  0  0  0  0  0  0  0
   -5.0536   -1.2306   -0.1217 C   0  0  0  0  0  0  0  0  0  0  0  0
   -6.1021   -1.5598   -0.1686 H   0  0  0  0  0  0  0  0  0  0  0  0
   -4.6817    0.0216   -0.6077 C   0  0  0  0  0  0  0  0  0  0  0  0
   -5.4258    0.6945   -1.0637 H   0  0  0  0  0  0  0  0  0  0  0  0
  1  2  1  0  0  0  0
  2  4  1  0  0  0  0
  3  2  1  0  0  0  0
  4  5  1  0  0  0  0
  5  6  2  0  0  0  0
  6  7  1  0  0  0  0
  8  6  1  0  0  0  0
  8  9  1  0  0  0  0
 10  8  2  0  0  0  0
 11 10  1  0  0  0  0
 12  4  2  0  0  0  0
 12 10  1  0  0  0  0
 13 12  1  0  0  0  0
M  END
