1,6
q = -1.0

 28 27  0  0  1  0  0  0  0  0999 V2000
   -2.1624   -0.4148    0.2327 O   0  0  0  0  0  1  0  0  0  0  0  0
   -1.9508    1.7597    0.7181 O   0  0  0  0  0  0  0  0  0  0  0  0
   -0.3224    2.6600   -1.3843 O   0  0  0  0  0  0  0  0  0  0  0  0
    1.2441    3.0254    0.2252 O   0  0  0  0  0  0  0  0  0  0  0  0
   -2.6826    0.7103    0.4093 C   0  0  1  0  0  3  0  0  0  0  0  0
   -0.4943    1.5531    0.7527 C   0  0  0  0  0  3  0  0  0  0  0  0
   -0.1718    1.8192    1.7786 H   0  0  0  0  0  0  0  0  0  0  0  0
    0.1136    2.4837   -0.2458 C   0  0  0  0  0  0  0  0  0  0  0  0
    2.0688    3.7779   -0.7013 C   0  0  0  0  0  0  0  0  0  0  0  0
    2.1737    3.1911   -1.6375 H   0  0  0  0  0  0  0  0  0  0  0  0
    1.5346    4.7155   -0.9604 H   0  0  0  0  0  0  0  0  0  0  0  0
    3.4016    4.0293   -0.0315 C   0  0  0  0  0  0  0  0  0  0  0  0
    4.0583    4.6100   -0.7085 H   0  0  0  0  0  0  0  0  0  0  0  0
    3.9051    3.0719    0.2093 H   0  0  0  0  0  0  0  0  0  0  0  0
    3.2750    4.6082    0.9042 H   0  0  0  0  0  0  0  0  0  0  0  0
   -4.1623    0.9875    0.2066 C   0  0  0  0  0  0  0  0  0  0  0  0
   -4.2677    1.5541   -1.2351 C   0  0  0  0  0  0  0  0  0  0  0  0
   -5.3223    1.8200   -1.4468 H   0  0  0  0  0  0  0  0  0  0  0  0
   -3.9495    0.8015   -1.9851 H   0  0  0  0  0  0  0  0  0  0  0  0
   -3.6426    2.4600   -1.3583 H   0  0  0  0  0  0  0  0  0  0  0  0
   -4.6625    2.0343    1.2201 C   0  0  0  0  0  0  0  0  0  0  0  0
   -5.7354    2.2385    1.0366 H   0  0  0  0  0  0  0  0  0  0  0  0
   -4.1065    2.9861    1.1294 H   0  0  0  0  0  0  0  0  0  0  0  0
   -4.5604    1.6689    2.2616 H   0  0  0  0  0  0  0  0  0  0  0  0
   -4.9596   -0.3199    0.3274 C   0  0  0  0  0  0  0  0  0  0  0  0
   -6.0280   -0.1231    0.1132 H   0  0  0  0  0  0  0  0  0  0  0  0
   -4.8891   -0.7431    1.3492 H   0  0  0  0  0  0  0  0  0  0  0  0
   -4.5964   -1.0846   -0.3853 H   0  0  0  0  0  0  0  0  0  0  0  0
  2  6  1  0  0  0  0
  3  8  2  0  0  0  0
  5  1  1  6  0  0  0
  5  2  1  0  0  0  0
  6  7  1  0  0  0  0
  8  4  1  0  0  0  0
  8  6  1  0  0  0  0
  9 12  1  0  0  0  0
  9  4  1  0  0  0  0
 10  9  1  0  0  0  0
 11  9  1  0  0  0  0
 12 14  1  0  0  0  0
 12 15  1  0  0  0  0
 13 12  1  0  0  0  0
 16 25  1  0  0  0  0
 16  5  1  0  0  0  0
 16 21  1  0  0  0  0
 17 16  1  0  0  0  0
 18 17  1  0  0  0  0
 19 17  1  0  0  0  0
 20 17  1  0  0  0  0
 21 24  1  0  0  0  0
 22 21  1  0  0  0  0
 23 21  1  0  0  0  0
 25 27  1  0  0  0  0
 26 25  1  0  0  0  0
 28 25  1  0  0  0  0
M  END
