1,11
q = -1.0

 21 21  0  0  0  0  0  0  0  0999 V2000
   -0.7176    1.0926   -0.2734 C   0  0  0  0  0  2  0  0  0  0  0  0
   -0.1814    2.3707   -0.3215 C   0  0  0  0  0  0  0  0  0  0  0  0
    1.2452    2.3639   -0.3909 C   0  0  0  0  0  0  0  0  0  0  0  0
    3.3344    3.4443   -0.5530 C   0  0  0  0  0  0  0  0  0  0  0  0
   -2.1751    0.9088   -0.2017 C   0  0  0  0  0  0  0  0  0  0  0  0
   -2.8321   -0.0816   -0.9709 C   0  0  0  0  0  0  0  0  0  0  0  0
   -4.2187   -0.2610   -0.8821 C   0  0  0  0  0  0  0  0  0  0  0  0
   -4.9819    0.5246   -0.0016 C   0  0  0  0  0  0  0  0  0  0  0  0
   -4.3463    1.5090    0.7726 C   0  0  0  0  0  0  0  0  0  0  0  0
   -2.9631    1.7064    0.6660 C   0  0  0  0  0  0  0  0  0  0  0  0
    1.8734    1.2632   -0.3901 O   0  5  0  0  0  0  0  0  0  0  0  0
    1.9088    3.5276   -0.4725 O   0  0  0  0  0  0  0  0  0  0  0  0
   -0.7528    3.3114   -0.3668 H   0  0  0  0  0  0  0  0  0  0  0  0
    3.6945    4.4821   -0.6688 H   0  0  0  0  0  0  0  0  0  0  0  0
    3.6501    2.8275   -1.4186 H   0  0  0  0  0  0  0  0  0  0  0  0
    3.7599    2.9962    0.3690 H   0  0  0  0  0  0  0  0  0  0  0  0
   -2.2369   -0.6975   -1.6587 H   0  0  0  0  0  0  0  0  0  0  0  0
   -4.7091   -1.0267   -1.5030 H   0  0  0  0  0  0  0  0  0  0  0  0
   -6.0686    0.3705    0.0799 H   0  0  0  0  0  0  0  0  0  0  0  0
   -4.9343    2.1284    1.4676 H   0  0  0  0  0  0  0  0  0  0  0  0
   -2.4662    2.4709    1.2826 H   0  0  0  0  0  0  0  0  0  0  0  0
  1  5  1  0  0  0  0
  2  1  1  0  0  0  0
  3 11  1  0  0  0  0
  3  2  2  0  0  0  0
  4 12  1  0  0  0  0
  4 16  1  0  0  0  0
  5 10  1  0  0  0  0
  6  7  1  0  0  0  0
  6  5  2  0  0  0  0
  7  8  2  0  0  0  0
  8 19  1  0  0  0  0
  8  9  1  0  0  0  0
  9 20  1  0  0  0  0
 10  9  2  0  0  0  0
 10 21  1  0  0  0  0
 12  3  1  0  0  0  0
 13  2  1  0  0  0  0
 14  4  1  0  0  0  0
 15  4  1  0  0  0  0
 17  6  1  0  0  0  0
 18  7  1  0  0  0  0
M  CHG  1  11  -1
M  END
