1,4
q = -1.0, confidence = 0.012

 35 34  0  0  0  0  0  0  0  0999 V2000
    0.4937   -0.5420   -1.0958 C   0  0  0  0  0  2  0  0  0  0  0  0
   -0.5326   -1.1335   -1.7981 C   0  0  0  0  0  0  0  0  0  0  0  0
   -1.8449   -0.9297   -1.2248 C   0  0  0  0  0  0  0  0  0  0  0  0
   -1.9773   -0.2507   -0.1675 O   0  5  0  0  0  0  0  0  0  0  0  0
   -2.8823   -1.4702   -1.8735 O   0  0  0  0  0  0  0  0  0  0  0  0
   -4.2792   -1.2460   -1.4504 C   0  0  0  0  0  0  0  0  0  0  0  0
   -4.6057    0.2507   -1.5088 C   0  0  0  0  0  0  0  0  0  0  0  0
   -5.0733   -2.0190   -2.5052 C   0  0  0  0  0  0  0  0  0  0  0  0
   -4.5088   -1.8347   -0.0540 C   0  0  0  0  0  0  0  0  0  0  0  0
    1.8470   -0.4524   -1.6756 C   0  0  0  0  0  0  0  0  0  0  0  0
    2.1230    0.3560   -2.5609 O   0  0  0  0  0  0  0  0  0  0  0  0
    2.7392   -1.2714   -1.0729 O   0  0  0  0  0  0  0  0  0  0  0  0
    4.1878   -1.1771   -1.3605 C   0  0  0  0  0  0  0  0  0  0  0  0
    4.4503   -1.5355   -2.8269 C   0  0  0  0  0  0  0  0  0  0  0  0
    4.6945    0.2232   -0.9981 C   0  0  0  0  0  0  0  0  0  0  0  0
    4.7962   -2.2272   -0.4286 C   0  0  0  0  0  0  0  0  0  0  0  0
   -0.4380   -1.6767   -2.7534 H   0  0  0  0  0  0  0  0  0  0  0  0
   -4.0414    0.8143   -0.7436 H   0  0  0  0  0  0  0  0  0  0  0  0
   -4.3641    0.6576   -2.5111 H   0  0  0  0  0  0  0  0  0  0  0  0
   -5.6889    0.4004   -1.3296 H   0  0  0  0  0  0  0  0  0  0  0  0
   -4.8665   -1.6196   -3.5173 H   0  0  0  0  0  0  0  0  0  0  0  0
   -4.7962   -3.0913   -2.4914 H   0  0  0  0  0  0  0  0  0  0  0  0
   -6.1591   -1.9325   -2.3060 H   0  0  0  0  0  0  0  0  0  0  0  0
   -3.9524   -1.2685    0.7146 H   0  0  0  0  0  0  0  0  0  0  0  0
   -5.5891   -1.7963    0.1897 H   0  0  0  0  0  0  0  0  0  0  0  0
   -4.1880   -2.8951   -0.0266 H   0  0  0  0  0  0  0  0  0  0  0  0
    4.0301   -2.5343   -3.0608 H   0  0  0  0  0  0  0  0  0  0  0  0
    3.9952   -0.7885   -3.5017 H   0  0  0  0  0  0  0  0  0  0  0  0
    5.5427   -1.5699   -3.0120 H   0  0  0  0  0  0  0  0  0  0  0  0
    4.3917    0.4902    0.0336 H   0  0  0  0  0  0  0  0  0  0  0  0
    5.8014    0.2409   -1.0539 H   0  0  0  0  0  0  0  0  0  0  0  0
    4.2942    0.9835   -1.6925 H   0  0  0  0  0  0  0  0  0  0  0  0
    4.3717   -3.2293   -0.6370 H   0  0  0  0  0  0  0  0  0  0  0  0
    5.8928   -2.2744   -0.5776 H   0  0  0  0  0  0  0  0  0  0  0  0
    4.5983   -1.9745    0.6309 H   0  0  0  0  0  0  0  0  0  0  0  0
  2  3  2  0  0  0  0
  2  1  1  0  0  0  0
  3  4  1  0  0  0  0
  5  6  1  0  0  0  0
  5  3  1  0  0  0  0
  6  9  1  0  0  0  0
  7  6  1  0  0  0  0
  7 20  1  0  0  0  0
  7 18  1  0  0  0  0
  8 22  1  0  0  0  0
  8 23  1  0  0  0  0
  8  6  1  0  0  0  0
  9 26  1  0  0  0  0
  9 25  1  0  0  0  0
  9 24  1  0  0  0  0
 10  1  1  0  0  0  0
 10 12  1  0  0  0  0
 11 10  2  0  0  0  0
 13 12  1  0  0  0  0
 13 15  1  0  0  0  0
 13 16  1  0  0  0  0
 14 13  1  0  0  0  0
 15 30  1  0  0  0  0
 16 35  1  0  0  0  0
 17  2  1  0  0  0  0
 19  7  1  0  0  0  0
 21  8  1  0  0  0  0
 27 14  1  0  0  0  0
 28 14  1  0  0  0  0
 29 14  1  0  0  0  0
 31 15  1  0  0  0  0
 32 15  1  0  0  0  0
 33 16  1  0  0  0  0
 34 16  1  0  0  0  0
M  CHG  1   4  -1
M  END
