1,2
q = -1.0

 28 30  0  0  1  0  0  0  0  0999 V2000
   -0.3136   -2.3298   -0.3076 O   0  0  0  0  0  1  0  0  0  0  0  0
   -1.4839    0.1176   -0.2302 C   0  0  0  0  0  3  0  0  0  0  0  0
   -1.9958    0.7428    1.0871 C   0  0  1  0  0  0  0  0  0  0  0  0
   -3.3988    1.3860    0.8702 C   0  0  1  0  0  0  0  0  0  0  0  0
   -3.6052    2.3237   -0.3436 C   0  0  0  0  0  0  0  0  0  0  0  0
   -4.4373    1.5106   -1.3045 C   0  0  0  0  0  0  0  0  0  0  0  0
   -4.8437    0.3370   -0.7743 C   0  0  0  0  0  0  0  0  0  0  0  0
   -4.3074    0.1250    0.6162 C   0  0  1  0  0  0  0  0  0  0  0  0
   -3.3341   -1.0731    0.8443 C   0  0  1  0  0  0  0  0  0  0  0  0
   -2.3764   -1.1618   -0.3890 C   0  0  2  0  0  0  0  0  0  0  0  0
   -2.3829   -0.5023    1.9152 C   0  0  0  0  0  0  0  0  0  0  0  0
   -1.5698   -2.4093   -0.3955 C   0  0  2  0  0  3  0  0  0  0  0  0
   -2.1970   -3.7629   -0.4774 C   0  0  0  0  0  0  0  0  0  0  0  0
   -1.5896    0.7889   -1.1076 H   0  0  0  0  0  0  0  0  0  0  0  0
   -1.2787    1.4313    1.5757 H   0  0  0  0  0  0  0  0  0  0  0  0
   -3.6832    1.8961    1.8113 H   0  0  0  0  0  0  0  0  0  0  0  0
   -2.6528    2.6766   -0.8010 H   0  0  0  0  0  0  0  0  0  0  0  0
   -4.1460    3.2505   -0.0524 H   0  0  0  0  0  0  0  0  0  0  0  0
   -4.7126    1.8731   -2.3072 H   0  0  0  0  0  0  0  0  0  0  0  0
   -5.5083   -0.3803   -1.2807 H   0  0  0  0  0  0  0  0  0  0  0  0
   -5.1305    0.0395    1.3582 H   0  0  0  0  0  0  0  0  0  0  0  0
   -3.8486   -2.0228    1.0856 H   0  0  0  0  0  0  0  0  0  0  0  0
   -2.9818   -1.1398   -1.3248 H   0  0  0  0  0  0  0  0  0  0  0  0
   -2.9040   -0.2522    2.8605 H   0  0  0  0  0  0  0  0  0  0  0  0
   -1.5205   -1.1607    2.1489 H   0  0  0  0  0  0  0  0  0  0  0  0
   -2.5904   -4.0361    0.5259 H   0  0  0  0  0  0  0  0  0  0  0  0
   -1.4520   -4.5231   -0.7741 H   0  0  0  0  0  0  0  0  0  0  0  0
   -3.0609   -3.7658   -1.1699 H   0  0  0  0  0  0  0  0  0  0  0  0
  2  3  1  0  0  0  0
  3 15  1  1  0  0  0
  3 11  1  0  0  0  0
  4  3  1  0  0  0  0
  4 16  1  1  0  0  0
  5 18  1  0  0  0  0
  5  4  1  0  0  0  0
  6  7  2  0  0  0  0
  6  5  1  0  0  0  0
  7  8  1  0  0  0  0
  8  9  1  0  0  0  0
  8  4  1  0  0  0  0
  8 21  1  1  0  0  0
  9 22  1  1  0  0  0
  9 11  1  0  0  0  0
 10 23  1  6  0  0  0
 10  2  1  0  0  0  0
 10  9  1  0  0  0  0
 11 25  1  0  0  0  0
 11 24  1  0  0  0  0
 12 10  1  0  0  0  0
 12  1  1  1  0  0  0
 13 12  1  0  0  0  0
 13 26  1  0  0  0  0
 14  2  1  0  0  0  0
 17  5  1  0  0  0  0
 19  6  1  0  0  0  0
 20  7  1  0  0  0  0
 27 13  1  0  0  0  0
 28 13  1  0  0  0  0
M  END
