2,7
q = -1.0, confidence = 0.06

 56 58  0  0  0  0  0  0  0  0999 V2000
    1.2630   -1.7009   -1.5746 S   0  0  0  0  0  0  0  0  0  0  0  0
    0.8552   -0.2570   -1.9863 O   0  0  0  0  0  1  0  0  0  0  0  0
    0.1063   -2.5192   -1.1161 O   0  0  0  0  0  1  0  0  0  0  0  0
    2.1574   -2.2776   -2.6028 O   0  0  0  0  0  1  0  0  0  0  0  0
    0.3490   -1.0806    1.3885 N   0  0  0  0  0  0  0  0  0  0  0  0
   -1.7254   -0.5056    1.1562 N   0  0  0  0  0  0  0  0  0  0  0  0
   -0.4700   -0.2036    0.7261 C   0  0  0  0  0  2  0  0  0  0  0  0
   -0.3929   -1.9306    2.2044 C   0  0  0  0  0  0  0  0  0  0  0  0
    0.0746   -2.7392    2.7723 H   0  0  0  0  0  0  0  0  0  0  0  0
   -1.7038   -1.5663    2.0542 C   0  0  0  0  0  0  0  0  0  0  0  0
   -2.6215   -1.9926    2.4684 H   0  0  0  0  0  0  0  0  0  0  0  0
    1.7587   -1.1806    1.1823 C   0  0  0  0  0  0  0  0  0  0  0  0
    2.2982   -1.4410   -0.0910 C   0  0  0  0  0  0  0  0  0  0  0  0
    3.6874   -1.5468   -0.2492 C   0  0  0  0  0  0  0  0  0  0  0  0
    4.0443   -1.7753   -1.2624 H   0  0  0  0  0  0  0  0  0  0  0  0
    4.5716   -1.3978    0.8354 C   0  0  0  0  0  0  0  0  0  0  0  0
    4.0069   -1.1430    2.1050 C   0  0  0  0  0  0  0  0  0  0  0  0
    4.6582   -1.0185    2.9830 H   0  0  0  0  0  0  0  0  0  0  0  0
    2.6232   -1.0346    2.2789 C   0  0  0  0  0  0  0  0  0  0  0  0
    2.1971   -0.8193    3.2702 H   0  0  0  0  0  0  0  0  0  0  0  0
    6.0969   -1.5077    0.6767 C   0  0  0  0  0  0  0  0  0  0  0  0
    6.5045   -1.7917   -0.7790 C   0  0  0  0  0  0  0  0  0  0  0  0
    6.0831   -2.7483   -1.1471 H   0  0  0  0  0  0  0  0  0  0  0  0
    7.6085   -1.8615   -0.8514 H   0  0  0  0  0  0  0  0  0  0  0  0
    6.1741   -0.9861   -1.4647 H   0  0  0  0  0  0  0  0  0  0  0  0
    6.6177   -2.6590    1.5668 C   0  0  0  0  0  0  0  0  0  0  0  0
    6.3879   -2.4906    2.6378 H   0  0  0  0  0  0  0  0  0  0  0  0
    7.7190   -2.7526    1.4698 H   0  0  0  0  0  0  0  0  0  0  0  0
    6.1625   -3.6254    1.2701 H   0  0  0  0  0  0  0  0  0  0  0  0
    6.7455   -0.1759    1.1186 C   0  0  0  0  0  0  0  0  0  0  0  0
    6.3840    0.6664    0.4948 H   0  0  0  0  0  0  0  0  0  0  0  0
    7.8488   -0.2322    1.0162 H   0  0  0  0  0  0  0  0  0  0  0  0
    6.5179    0.0646    2.1762 H   0  0  0  0  0  0  0  0  0  0  0  0
   -2.9413    0.2156    0.7454 C   0  0  0  0  0  0  0  0  0  0  0  0
   -2.6178    0.8753   -0.0826 H   0  0  0  0  0  0  0  0  0  0  0  0
   -3.2425    0.8778    1.5792 H   0  0  0  0  0  0  0  0  0  0  0  0
   -4.0567   -0.7147    0.3335 C   0  0  0  0  0  0  0  0  0  0  0  0
   -3.9860   -1.3738   -0.9247 C   0  0  0  0  0  0  0  0  0  0  0  0
   -5.0239   -2.2517   -1.2833 C   0  0  0  0  0  0  0  0  0  0  0  0
   -4.9692   -2.7592   -2.2602 H   0  0  0  0  0  0  0  0  0  0  0  0
   -6.1219   -2.5003   -0.4397 C   0  0  0  0  0  0  0  0  0  0  0  0
   -6.1704   -1.8311    0.7946 C   0  0  0  0  0  0  0  0  0  0  0  0
   -7.0259   -2.0047    1.4676 H   0  0  0  0  0  0  0  0  0  0  0  0
   -5.1575   -0.9404    1.1980 C   0  0  0  0  0  0  0  0  0  0  0  0
   -2.8278   -1.1627   -1.8641 C   0  0  0  0  0  0  0  0  0  0  0  0
   -2.5565   -0.0913   -1.9667 H   0  0  0  0  0  0  0  0  0  0  0  0
   -3.0633   -1.5506   -2.8734 H   0  0  0  0  0  0  0  0  0  0  0  0
   -1.9028   -1.6772   -1.5218 H   0  0  0  0  0  0  0  0  0  0  0  0
   -7.2086   -3.4597   -0.8562 C   0  0  0  0  0  0  0  0  0  0  0  0
   -8.0330   -3.4919   -0.1178 H   0  0  0  0  0  0  0  0  0  0  0  0
   -6.8119   -4.4909   -0.9665 H   0  0  0  0  0  0  0  0  0  0  0  0
   -7.6405   -3.1781   -1.8389 H   0  0  0  0  0  0  0  0  0  0  0  0
   -5.2818   -0.2396    2.5333 C   0  0  0  0  0  0  0  0  0  0  0  0
   -5.3834    0.8603    2.4172 H   0  0  0  0  0  0  0  0  0  0  0  0
   -4.4021   -0.4079    3.1894 H   0  0  0  0  0  0  0  0  0  0  0  0
   -6.1748   -0.5954    3.0817 H   0  0  0  0  0  0  0  0  0  0  0  0
  1  3  1  0  0  0  0
  1 13  1  0  0  0  0
  2  1  1  0  0  0  0
  4  1  1  0  0  0  0
  5  8  1  0  0  0  0
  6 10  1  0  0  0  0
  7  6  1  0  0  0  0
  7  5  1  0  0  0  0
  8  9  1  0  0  0  0
 10  8  2  0  0  0  0
 10 11  1  0  0  0  0
 12  5  1  0  0  0  0
 12 19  1  0  0  0  0
 13 12  2  0  0  0  0
 14 13  1  0  0  0  0
 14 16  2  0  0  0  0
 15 14  1  0  0  0  0
 16 17  1  0  0  0  0
 17 19  2  0  0  0  0
 17 18  1  0  0  0  0
 19 20  1  0  0  0  0
 21 16  1  0  0  0  0
 21 30  1  0  0  0  0
 21 26  1  0  0  0  0
 22 21  1  0  0  0  0
 23 22  1  0  0  0  0
 24 22  1  0  0  0  0
 25 22  1  0  0  0  0
 26 27  1  0  0  0  0
 28 26  1  0  0  0  0
 29 26  1  0  0  0  0
 30 33  1  0  0  0  0
 31 30  1  0  0  0  0
 32 30  1  0  0  0  0
 34  6  1  0  0  0  0
 34 36  1  0  0  0  0
 35 34  1  0  0  0  0
 37 34  1  0  0  0  0
 37 44  1  0  0  0  0
 38 37  2  0  0  0  0
 39 38  1  0  0  0  0
 39 41  2  0  0  0  0
 40 39  1  0  0  0  0
 41 42  1  0  0  0  0
 42 44  2  0  0  0  0
 42 43  1  0  0  0  0
 44 53  1  0  0  0  0
 45 48  1  0  0  0  0
 45 38  1  0  0  0  0
 46 45  1  0  0  0  0
 47 45  1  0  0  0  0
 49 41  1  0  0  0  0
 49 50  1  0  0  0  0
 51 49  1  0  0  0  0
 52 49  1  0  0  0  0
 53 56  1  0  0  0  0
 53 55  1  0  0  0  0
 54 53  1  0  0  0  0
M  END
