2,3
q = -1.0, confidence = 0.018

 19 20  0  0  1  0  0  0  0  0999 V2000
    0.5745   -2.6648    0.0021 O   0  0  0  0  0  0  0  0  0  0  0  0
   -0.8085    0.9795   -0.0006 O   0  0  0  0  0  1  0  0  0  0  0  0
    0.1527   -1.5239    0.0010 C   0  0  0  0  0  3  0  0  0  0  0  0
   -1.7355    0.1308   -0.0002 C   0  0  2  0  0  3  0  0  0  0  0  0
   -2.2239   -2.3320   -0.7394 C   0  0  0  0  0  0  0  0  0  0  0  0
   -1.3658   -1.2885    0.0001 C   0  0  0  0  0  0  0  0  0  0  0  0
   -2.2250   -2.3323    0.7378 C   0  0  0  0  0  0  0  0  0  0  0  0
   -3.1371    0.5952   -0.0008 C   0  0  0  0  0  0  0  0  0  0  0  0
   -3.4521    1.8954    0.7440 C   0  0  0  0  0  0  0  0  0  0  0  0
   -3.4513    1.8967   -0.7434 C   0  0  0  0  0  0  0  0  0  0  0  0
   -3.1017   -1.9636   -1.2922 H   0  0  0  0  0  0  0  0  0  0  0  0
   -1.6128   -3.0950   -1.2483 H   0  0  0  0  0  0  0  0  0  0  0  0
   -3.1036   -1.9640    1.2895 H   0  0  0  0  0  0  0  0  0  0  0  0
   -1.6146   -3.0953    1.2474 H   0  0  0  0  0  0  0  0  0  0  0  0
   -3.9113   -0.1853   -0.0018 H   0  0  0  0  0  0  0  0  0  0  0  0
   -4.4106    1.9287    1.2832 H   0  0  0  0  0  0  0  0  0  0  0  0
   -2.5971    2.3629    1.2559 H   0  0  0  0  0  0  0  0  0  0  0  0
   -2.5957    2.3652   -1.2535 H   0  0  0  0  0  0  0  0  0  0  0  0
   -4.4093    1.9312   -1.2835 H   0  0  0  0  0  0  0  0  0  0  0  0
  3  1  2  0  0  0  0
  4  2  1  6  0  0  0
  4  6  1  0  0  0  0
  5  6  1  0  0  0  0
  5  7  1  0  0  0  0
  6  3  1  0  0  0  0
  6  7  1  0  0  0  0
  7 14  1  0  0  0  0
  7 13  1  0  0  0  0
  8  4  1  0  0  0  0
  8  9  1  0  0  0  0
  9 17  1  0  0  0  0
  9 16  1  0  0  0  0
 10  8  1  0  0  0  0
 10  9  1  0  0  0  0
 11  5  1  0  0  0  0
 12  5  1  0  0  0  0
 15  8  1  0  0  0  0
 18 10  1  0  0  0  0
 19 10  1  0  0  0  0
M  END
