2,8
q = -1.0, confidence = 0.0

 16 16  0  0  0  0  0  0  0  0999 V2000
    2.1170   -1.7759   -1.8623 C   0  0  0  0  0  0  0  0  0  0  0  0
    1.9250   -1.0474   -0.6395 C   0  0  0  0  0  3  0  0  0  0  0  0
    0.9936   -1.7755   -2.7625 C   0  0  0  0  0  3  0  0  0  0  0  0
    4.3851   -2.3906   -1.2563 C   0  0  0  0  0  0  0  0  0  0  0  0
    3.3327   -2.4425   -2.1639 C   0  0  0  0  0  0  0  0  0  0  0  0
    3.0242   -1.0229    0.2458 C   0  0  0  0  0  0  0  0  0  0  0  0
    4.2428   -1.6733   -0.0368 C   0  0  0  0  0  0  0  0  0  0  0  0
   -0.0735   -1.1655   -2.4933 O   0  0  0  0  0  1  0  0  0  0  0  0
    5.3958   -1.6111    0.9300 C   0  0  0  0  0  0  0  0  0  0  0  0
    2.9329   -0.4770    1.2002 H   0  0  0  0  0  0  0  0  0  0  0  0
    3.4382   -2.9951   -3.1123 H   0  0  0  0  0  0  0  0  0  0  0  0
    1.0563   -2.3196   -3.7374 H   0  0  0  0  0  0  0  0  0  0  0  0
    5.3351   -2.9024   -1.4765 H   0  0  0  0  0  0  0  0  0  0  0  0
    5.1194   -1.0866    1.8644 H   0  0  0  0  0  0  0  0  0  0  0  0
    5.7556   -2.6276    1.1937 H   0  0  0  0  0  0  0  0  0  0  0  0
    6.2606   -1.0775    0.4811 H   0  0  0  0  0  0  0  0  0  0  0  0
  1  2  1  0  0  0  0
  2  6  2  0  0  0  0
  3  8  1  0  0  0  0
  3  1  1  0  0  0  0
  4  7  2  0  0  0  0
  5  1  2  0  0  0  0
  5  4  1  0  0  0  0
  6 10  1  0  0  0  0
  7  6  1  0  0  0  0
  7  9  1  0  0  0  0
  9 15  1  0  0  0  0
  9 14  1  0  0  0  0
 11  5  1  0  0  0  0
 12  3  1  0  0  0  0
 13  4  1  0  0  0  0
 16  9  1  0  0  0  0
M  END
