1,12
q = -1.0

 16 16  0  0  0  0  0  0  0  0999 V2000
    1.8755   -1.3724    0.4282 O   0  5  0  0  0  0  0  0  0  0  0  0
    3.0636   -0.8929    0.1736 C   0  0  0  0  0  0  0  0  0  0  0  0
    4.2500   -1.6472    0.4027 C   0  0  0  0  0  0  0  0  0  0  0  0
    4.1661   -2.6339    0.8802 H   0  0  0  0  0  0  0  0  0  0  0  0
    5.4769   -1.1167    0.0218 C   0  0  0  0  0  0  0  0  0  0  0  0
    6.3943   -1.6971    0.2092 H   0  0  0  0  0  0  0  0  0  0  0  0
    5.5815    0.1582   -0.6040 C   0  0  0  0  0  0  0  0  0  0  0  0
    6.5710    0.5494   -0.8823 H   0  0  0  0  0  0  0  0  0  0  0  0
    4.4357    0.9031   -0.8485 C   0  0  0  0  0  0  0  0  0  0  0  0
    4.5094    1.8921   -1.3263 H   0  0  0  0  0  0  0  0  0  0  0  0
    3.1588    0.4088   -0.4517 C   0  0  0  0  0  0  0  0  0  0  0  0
    1.8859    1.0164   -0.6834 C   0  0  0  0  0  2  0  0  0  0  0  0
    1.7559    2.1548   -1.6474 C   0  0  0  0  0  0  0  0  0  0  0  0
    2.4014    3.0086   -1.3485 H   0  0  0  0  0  0  0  0  0  0  0  0
    0.7161    2.5148   -1.7395 H   0  0  0  0  0  0  0  0  0  0  0  0
    2.1070    1.8421   -2.6555 H   0  0  0  0  0  0  0  0  0  0  0  0
  2  3  1  0  0  0  0
  2  1  1  0  0  0  0
  3  4  1  0  0  0  0
  5  6  1  0  0  0  0
  5  3  2  0  0  0  0
  7  5  1  0  0  0  0
  8  7  1  0  0  0  0
  9  7  2  0  0  0  0
  9 11  1  0  0  0  0
 10  9  1  0  0  0  0
 11  2  2  0  0  0  0
 12 11  1  0  0  0  0
 13 14  1  0  0  0  0
 13 12  1  0  0  0  0
 15 13  1  0  0  0  0
 16 13  1  0  0  0  0
M  CHG  1   1  -1
M  END
