2,20
q = -1.0

 26 25  0  0  1  0  0  0  0  0999 V2000
    3.6390    3.1785    0.9862 O   0  0  0  0  0  0  0  0  0  0  0  0
    2.4128    0.6904   -0.1722 O   0  0  0  0  0  1  0  0  0  0  0  0
    1.2775    0.2247   -3.1583 O   0  0  0  0  0  0  0  0  0  0  0  0
   -0.9934    0.3542   -3.0993 O   0  0  0  0  0  0  0  0  0  0  0  0
    5.7511    2.7378    2.0399 C   0  0  0  0  0  0  0  0  0  0  0  0
    5.3182    3.2542    2.9151 H   0  0  0  0  0  0  0  0  0  0  0  0
    6.6133    3.3272    1.6609 H   0  0  0  0  0  0  0  0  0  0  0  0
    6.1526    1.7461    2.3321 H   0  0  0  0  0  0  0  0  0  0  0  0
    4.7212    2.6048    0.9463 C   0  0  0  0  0  0  0  0  0  0  0  0
    5.0605    1.7065   -0.2412 C   0  0  0  0  0  0  0  0  0  0  0  0
    5.0156    0.6549    0.1191 H   0  0  0  0  0  0  0  0  0  0  0  0
    6.1056    1.8727   -0.5744 H   0  0  0  0  0  0  0  0  0  0  0  0
    4.0579    1.9315   -1.3678 C   0  0  0  0  0  0  0  0  0  0  0  0
    4.1279    2.9599   -1.7715 H   0  0  0  0  0  0  0  0  0  0  0  0
    4.2500    1.2394   -2.2179 H   0  0  0  0  0  0  0  0  0  0  0  0
    2.6445    1.6556   -0.9382 C   0  0  1  0  0  3  0  0  0  0  0  0
    1.4935    2.4775   -1.4264 C   0  0  0  0  0  0  0  0  0  0  0  0
    1.7368    2.9919   -2.3812 H   0  0  0  0  0  0  0  0  0  0  0  0
    1.3854    3.2759   -0.6592 H   0  0  0  0  0  0  0  0  0  0  0  0
    0.2160    1.6411   -1.5166 C   0  0  0  0  0  3  0  0  0  0  0  0
   -0.7080    2.2453   -1.4979 H   0  0  0  0  0  0  0  0  0  0  0  0
    0.2517    0.6869   -2.6654 C   0  0  0  0  0  0  0  0  0  0  0  0
   -1.0463   -0.6074   -4.1629 C   0  0  0  0  0  0  0  0  0  0  0  0
   -2.1176   -0.8009   -4.3465 H   0  0  0  0  0  0  0  0  0  0  0  0
   -0.5332   -1.5460   -3.8731 H   0  0  0  0  0  0  0  0  0  0  0  0
   -0.5605   -0.2094   -5.0759 H   0  0  0  0  0  0  0  0  0  0  0  0
  3 22  2  0  0  0  0
  4 22  1  0  0  0  0
  5  8  1  0  0  0  0
  5  6  1  0  0  0  0
  7  5  1  0  0  0  0
  9  1  2  0  0  0  0
  9  5  1  0  0  0  0
 10 11  1  0  0  0  0
 10  9  1  0  0  0  0
 12 10  1  0  0  0  0
 13 16  1  0  0  0  0
 13 10  1  0  0  0  0
 14 13  1  0  0  0  0
 15 13  1  0  0  0  0
 16  2  1  6  0  0  0
 17 16  1  0  0  0  0
 17 19  1  0  0  0  0
 18 17  1  0  0  0  0
 20 21  1  0  0  0  0
 20 17  1  0  0  0  0
 22 20  1  0  0  0  0
 23 25  1  0  0  0  0
 23  4  1  0  0  0  0
 24 23  1  0  0  0  0
 26 23  1  0  0  0  0
M  END
