1,7
q = -1.0

 26 26  0  0  0  0  0  0  0  0999 V2000
    2.2586    1.5260   -1.3833 O   0  5  0  0  0  0  0  0  0  0  0  0
    2.8676    3.7347   -2.0063 C   0  0  0  0  0  0  0  0  0  0  0  0
    1.9112    2.7461   -1.4128 C   0  0  0  0  0  0  0  0  0  0  0  0
    0.6116    3.1328   -0.8790 C   0  0  0  0  0  0  0  0  0  0  0  0
    0.2136    4.5915   -0.7633 C   0  0  0  0  0  0  0  0  0  0  0  0
    0.6722    5.2223    0.5606 C   0  0  0  0  0  0  0  0  0  0  0  0
   -0.1542    2.0816   -0.3937 C   0  0  0  0  0  2  0  0  0  0  0  0
   -1.4757    2.2927    0.2198 C   0  0  0  0  0  0  0  0  0  0  0  0
   -1.6534    2.1304    1.6134 C   0  0  0  0  0  0  0  0  0  0  0  0
   -2.8996    2.3747    2.2063 C   0  0  0  0  0  0  0  0  0  0  0  0
   -3.9937    2.7643    1.4172 C   0  0  0  0  0  0  0  0  0  0  0  0
   -3.8346    2.9028    0.0292 C   0  0  0  0  0  0  0  0  0  0  0  0
   -2.5876    2.6733   -0.5674 C   0  0  0  0  0  0  0  0  0  0  0  0
    3.0736    4.5592   -1.2937 H   0  0  0  0  0  0  0  0  0  0  0  0
    3.8110    3.2332   -2.2848 H   0  0  0  0  0  0  0  0  0  0  0  0
    2.4193    4.2038   -2.9073 H   0  0  0  0  0  0  0  0  0  0  0  0
   -0.8867    4.6800   -0.8453 H   0  0  0  0  0  0  0  0  0  0  0  0
    0.6297    5.1615   -1.6197 H   0  0  0  0  0  0  0  0  0  0  0  0
    0.3900    6.2926    0.6114 H   0  0  0  0  0  0  0  0  0  0  0  0
    0.2028    4.7047    1.4213 H   0  0  0  0  0  0  0  0  0  0  0  0
    1.7723    5.1573    0.6905 H   0  0  0  0  0  0  0  0  0  0  0  0
   -0.7969    1.8308    2.2348 H   0  0  0  0  0  0  0  0  0  0  0  0
   -3.0148    2.2629    3.2950 H   0  0  0  0  0  0  0  0  0  0  0  0
   -4.9720    2.9538    1.8832 H   0  0  0  0  0  0  0  0  0  0  0  0
   -4.6908    3.1915   -0.5984 H   0  0  0  0  0  0  0  0  0  0  0  0
   -2.4655    2.7809   -1.6554 H   0  0  0  0  0  0  0  0  0  0  0  0
  2  3  1  0  0  0  0
  2 14  1  0  0  0  0
  3  1  1  0  0  0  0
  3  4  2  0  0  0  0
  4  5  1  0  0  0  0
  4  7  1  0  0  0  0
  5  6  1  0  0  0  0
  6 19  1  0  0  0  0
  6 21  1  0  0  0  0
  6 20  1  0  0  0  0
  7  8  1  0  0  0  0
  8  9  1  0  0  0  0
  9 10  2  0  0  0  0
  9 22  1  0  0  0  0
 10 23  1  0  0  0  0
 11 24  1  0  0  0  0
 11 10  1  0  0  0  0
 12 11  2  0  0  0  0
 13 12  1  0  0  0  0
 13  8  2  0  0  0  0
 15  2  1  0  0  0  0
 16  2  1  0  0  0  0
 17  5  1  0  0  0  0
 18  5  1  0  0  0  0
 25 12  1  0  0  0  0
 26 13  1  0  0  0  0
M  CHG  1   1  -1
M  END
