5,19
q = -1.0, confidence = 0.094

 50 52  0  0  1  0  0  0  0  0999 V2000
   -0.2672    0.9263   -2.4083 N   0  0  0  0  0  0  0  0  0  0  0  0
   -0.0484    1.9190   -2.5395 H   0  0  0  0  0  0  0  0  0  0  0  0
    2.0092    0.5798   -2.1417 N   0  0  0  0  0  0  0  0  0  0  0  0
    2.1025    1.4105   -2.7306 H   0  0  0  0  0  0  0  0  0  0  0  0
    0.5202   -0.9929   -1.3914 O   0  0  0  0  0  1  0  0  0  0  0  0
    0.6319    0.6865    2.9227 O   0  0  0  0  0  0  0  0  0  0  0  0
    1.6853    1.4663    1.0641 O   0  0  0  0  0  0  0  0  0  0  0  0
   -1.6501    0.6351   -2.1528 C   0  0  0  0  0  0  0  0  0  0  0  0
   -2.2039    0.9886   -0.8959 C   0  0  0  0  0  0  0  0  0  0  0  0
   -3.5860    0.7981   -0.7007 C   0  0  0  0  0  0  0  0  0  0  0  0
   -4.0393    1.1224    0.2484 H   0  0  0  0  0  0  0  0  0  0  0  0
   -4.3790    0.2134   -1.7004 C   0  0  0  0  0  0  0  0  0  0  0  0
   -5.4561    0.0676   -1.5283 H   0  0  0  0  0  0  0  0  0  0  0  0
   -3.8066   -0.1688   -2.9249 C   0  0  0  0  0  0  0  0  0  0  0  0
   -4.4296   -0.6190   -3.7117 H   0  0  0  0  0  0  0  0  0  0  0  0
   -2.4410    0.0560   -3.1566 C   0  0  0  0  0  0  0  0  0  0  0  0
   -1.9778   -0.2012   -4.1203 H   0  0  0  0  0  0  0  0  0  0  0  0
   -1.3009    1.5418    0.1682 C   0  0  1  0  0  3  0  0  0  0  0  0
   -0.4811    0.6443    0.7840 C   0  0  0  0  0  2  0  0  0  0  0  0
    0.6258    0.9419    1.7209 C   0  0  0  0  0  0  0  0  0  0  0  0
    2.8652    1.7278    1.8439 C   0  0  0  0  0  0  0  0  0  0  0  0
    2.7222    2.6438    2.4521 H   0  0  0  0  0  0  0  0  0  0  0  0
    3.6839    1.8692    1.1162 H   0  0  0  0  0  0  0  0  0  0  0  0
    3.0846    0.8785    2.5188 H   0  0  0  0  0  0  0  0  0  0  0  0
    3.2144    0.1784   -1.5147 C   0  0  0  0  0  0  0  0  0  0  0  0
    3.3192   -0.8997   -0.6133 C   0  0  0  0  0  0  0  0  0  0  0  0
    2.4396   -1.5087   -0.3808 H   0  0  0  0  0  0  0  0  0  0  0  0
    4.5518   -1.1738   -0.0064 C   0  0  0  0  0  0  0  0  0  0  0  0
    4.6144   -2.0154    0.7015 H   0  0  0  0  0  0  0  0  0  0  0  0
    5.7091   -0.4148   -0.2723 C   0  0  0  0  0  0  0  0  0  0  0  0
    5.5840    0.6547   -1.1832 C   0  0  0  0  0  0  0  0  0  0  0  0
    6.4625    1.2750   -1.4187 H   0  0  0  0  0  0  0  0  0  0  0  0
    4.3618    0.9486   -1.7959 C   0  0  0  0  0  0  0  0  0  0  0  0
    4.2939    1.7981   -2.4949 H   0  0  0  0  0  0  0  0  0  0  0  0
    7.0336   -0.7495    0.3618 C   0  0  0  0  0  0  0  0  0  0  0  0
    6.9046   -1.2955    1.3164 H   0  0  0  0  0  0  0  0  0  0  0  0
    7.6335    0.1603    0.5606 H   0  0  0  0  0  0  0  0  0  0  0  0
    7.6407   -1.3969   -0.3069 H   0  0  0  0  0  0  0  0  0  0  0  0
    0.7427    0.1312   -1.9340 C   0  0  2  0  0  3  0  0  0  0  0  0
   -1.3112    3.0061    0.3967 C   0  0  0  0  0  0  0  0  0  0  0  0
   -0.8718    3.5794    1.6151 C   0  0  0  0  0  0  0  0  0  0  0  0
   -0.5765    2.9314    2.4525 H   0  0  0  0  0  0  0  0  0  0  0  0
   -0.8491    4.9689    1.7842 C   0  0  0  0  0  0  0  0  0  0  0  0
   -0.5117    5.3933    2.7419 H   0  0  0  0  0  0  0  0  0  0  0  0
   -1.2723    5.8198    0.7493 C   0  0  0  0  0  0  0  0  0  0  0  0
   -1.2575    6.9110    0.8882 H   0  0  0  0  0  0  0  0  0  0  0  0
   -1.7343    5.2666   -0.4549 C   0  0  0  0  0  0  0  0  0  0  0  0
   -2.0848    5.9233   -1.2654 H   0  0  0  0  0  0  0  0  0  0  0  0
   -1.7613    3.8759   -0.6267 C   0  0  0  0  0  0  0  0  0  0  0  0
   -2.1444    3.4544   -1.5693 H   0  0  0  0  0  0  0  0  0  0  0  0
  1  8  1  0  0  0  0
  1 39  1  0  0  0  0
  2  1  1  0  0  0  0
  3 39  1  0  0  0  0
  3 25  1  0  0  0  0
  4  3  1  0  0  0  0
  7 20  1  0  0  0  0
  7 21  1  0  0  0  0
  8  9  1  0  0  0  0
  9 10  2  0  0  0  0
  9 18  1  0  0  0  0
 10 11  1  0  0  0  0
 12 13  1  0  0  0  0
 12 10  1  0  0  0  0
 14 12  2  0  0  0  0
 15 14  1  0  0  0  0
 16 14  1  0  0  0  0
 16  8  2  0  0  0  0
 17 16  1  0  0  0  0
 18 40  1  0  0  0  0
 18 19  1  6  0  0  0
 19 20  1  0  0  0  0
 20  6  2  0  0  0  0
 21 22  1  0  0  0  0
 21 24  1  0  0  0  0
 23 21  1  0  0  0  0
 25 26  1  0  0  0  0
 26 27  1  0  0  0  0
 26 28  2  0  0  0  0
 28 29  1  0  0  0  0
 30 28  1  0  0  0  0
 30 35  1  0  0  0  0
 31 30  2  0  0  0  0
 32 31  1  0  0  0  0
 33 25  2  0  0  0  0
 33 31  1  0  0  0  0
 34 33  1  0  0  0  0
 35 37  1  0  0  0  0
 35 36  1  0  0  0  0
 38 35  1  0  0  0  0
 39  5  1  6  0  0  0
 40 41  1  0  0  0  0
 41 43  2  0  0  0  0
 41 42  1  0  0  0  0
 43 44  1  0  0  0  0
 45 46  1  0  0  0  0
 45 43  1  0  0  0  0
 47 45  2  0  0  0  0
 48 47  1  0  0  0  0
 49 47  1  0  0  0  0
 49 40  2  0  0  0  0
 50 49  1  0  0  0  0
M  END
