1,2
q = -1.0

 37 38  0  0  0  0  0  0  0  0999 V2000
    1.1944   -0.7404   -1.1955 O   0  5  0  0  0  0  0  0  0  0  0  0
    0.2826    1.5435    0.1105 C   0  0  0  0  0  2  0  0  0  0  0  0
    1.6631    1.1213    0.2478 C   0  0  0  0  0  0  0  0  0  0  0  0
    2.1076   -0.0352   -0.4747 C   0  0  0  0  0  0  0  0  0  0  0  0
    3.4495   -0.6522   -0.3496 C   0  0  0  0  0  0  0  0  0  0  0  0
    4.5475    0.1659   -0.3062 C   0  0  0  0  0  0  0  0  0  0  0  0
    2.5292    1.7458    1.3308 C   0  0  0  0  0  0  0  0  0  0  0  0
    3.5119   -2.1542   -0.4190 C   0  0  0  0  0  0  0  0  0  0  0  0
    5.9636   -0.1844   -0.1700 C   0  0  0  0  0  0  0  0  0  0  0  0
    6.4310   -1.3169    0.5450 C   0  0  0  0  0  0  0  0  0  0  0  0
    7.8016   -1.5863    0.6513 C   0  0  0  0  0  0  0  0  0  0  0  0
    8.7443   -0.7346    0.0529 C   0  0  0  0  0  0  0  0  0  0  0  0
    8.3024    0.4058   -0.6385 C   0  0  0  0  0  0  0  0  0  0  0  0
    6.9340    0.6805   -0.7382 C   0  0  0  0  0  0  0  0  0  0  0  0
   -0.2415    2.8932    0.0786 C   0  0  0  0  0  0  0  0  0  0  0  0
    0.6009    4.0352   -0.0402 C   0  0  0  0  0  0  0  0  0  0  0  0
    0.0696    5.3290   -0.0933 C   0  0  0  0  0  0  0  0  0  0  0  0
   -1.3199    5.5321   -0.0397 C   0  0  0  0  0  0  0  0  0  0  0  0
   -2.1715    4.4175    0.0540 C   0  0  0  0  0  0  0  0  0  0  0  0
   -1.6467    3.1223    0.1083 C   0  0  0  0  0  0  0  0  0  0  0  0
    4.3644    1.2424   -0.4492 H   0  0  0  0  0  0  0  0  0  0  0  0
    1.8847    2.2423    2.0808 H   0  0  0  0  0  0  0  0  0  0  0  0
    3.2174    2.5173    0.9299 H   0  0  0  0  0  0  0  0  0  0  0  0
    3.1543    0.9876    1.8418 H   0  0  0  0  0  0  0  0  0  0  0  0
    4.5092   -2.5152   -0.7288 H   0  0  0  0  0  0  0  0  0  0  0  0
    3.2589   -2.6177    0.5587 H   0  0  0  0  0  0  0  0  0  0  0  0
    2.7585   -2.5124   -1.1465 H   0  0  0  0  0  0  0  0  0  0  0  0
    5.7123   -1.9712    1.0566 H   0  0  0  0  0  0  0  0  0  0  0  0
    8.1387   -2.4671    1.2194 H   0  0  0  0  0  0  0  0  0  0  0  0
    9.8201   -0.9505    0.1377 H   0  0  0  0  0  0  0  0  0  0  0  0
    9.0322    1.0891   -1.0993 H   0  0  0  0  0  0  0  0  0  0  0  0
    6.5934    1.5790   -1.2768 H   0  0  0  0  0  0  0  0  0  0  0  0
    1.6890    3.8937   -0.1059 H   0  0  0  0  0  0  0  0  0  0  0  0
    0.7487    6.1913   -0.1843 H   0  0  0  0  0  0  0  0  0  0  0  0
   -1.7358    6.5501   -0.0821 H   0  0  0  0  0  0  0  0  0  0  0  0
   -3.2631    4.5597    0.0803 H   0  0  0  0  0  0  0  0  0  0  0  0
   -2.3221    2.2592    0.1636 H   0  0  0  0  0  0  0  0  0  0  0  0
  1  4  1  0  0  0  0
  2  3  1  0  0  0  0
  3  7  1  0  0  0  0
  4  5  1  0  0  0  0
  4  3  2  0  0  0  0
  5  6  2  0  0  0  0
  6  9  1  0  0  0  0
  7 24  1  0  0  0  0
  7 22  1  0  0  0  0
  8  5  1  0  0  0  0
  8 26  1  0  0  0  0
  9 10  1  0  0  0  0
 10 11  2  0  0  0  0
 10 28  1  0  0  0  0
 11 29  1  0  0  0  0
 12 30  1  0  0  0  0
 12 11  1  0  0  0  0
 13 12  2  0  0  0  0
 14 13  1  0  0  0  0
 14  9  2  0  0  0  0
 15 20  1  0  0  0  0
 15  2  1  0  0  0  0
 16 15  2  0  0  0  0
 17 16  1  0  0  0  0
 17 18  2  0  0  0  0
 18 19  1  0  0  0  0
 19 36  1  0  0  0  0
 19 20  2  0  0  0  0
 20 37  1  0  0  0  0
 21  6  1  0  0  0  0
 23  7  1  0  0  0  0
 25  8  1  0  0  0  0
 27  8  1  0  0  0  0
 31 13  1  0  0  0  0
 32 14  1  0  0  0  0
 33 16  1  0  0  0  0
 34 17  1  0  0  0  0
 35 18  1  0  0  0  0
M  CHG  1   1  -1
M  END
