1,4
q = -1.0

 35 34  0  0  0  0  0  0  0  0999 V2000
   -1.4453   -0.1100    0.0023 O   0  5  0  0  0  0  0  0  0  0  0  0
   -2.4483    0.7253   -0.1355 C   0  0  0  0  0  0  0  0  0  0  0  0
   -2.0734    2.0455   -0.3960 C   0  0  0  0  0  0  0  0  0  0  0  0
   -0.6828    2.2751   -0.4707 C   0  0  0  0  0  2  0  0  0  0  0  0
   -3.8133    0.2296   -0.0127 C   0  0  0  0  0  0  0  0  0  0  0  0
   -4.1120   -1.0709    0.2402 C   0  0  0  0  0  0  0  0  0  0  0  0
   -5.4810   -1.6653    0.3761 C   0  0  0  0  0  0  0  0  0  0  0  0
   -6.6621   -0.7031    0.2341 C   0  0  0  0  0  0  0  0  0  0  0  0
   -8.0375   -1.3619    0.4144 C   0  0  0  0  0  0  0  0  0  0  0  0
   -8.4012   -2.3833   -0.6663 C   0  0  0  0  0  0  0  0  0  0  0  0
   -0.2299    3.6950   -0.7500 C   0  0  0  0  0  0  0  0  0  0  0  0
   -0.7482    4.7392    0.2535 C   0  0  0  0  0  0  0  0  0  0  0  0
   -0.1987    6.1435   -0.0118 C   0  0  0  0  0  0  0  0  0  0  0  0
   -0.7117    7.1907    0.9769 C   0  0  0  0  0  0  0  0  0  0  0  0
   -2.8176    2.8460   -0.5369 H   0  0  0  0  0  0  0  0  0  0  0  0
   -4.6089    0.9805   -0.1400 H   0  0  0  0  0  0  0  0  0  0  0  0
   -3.2581   -1.7629    0.3544 H   0  0  0  0  0  0  0  0  0  0  0  0
   -5.5431   -2.1851    1.3622 H   0  0  0  0  0  0  0  0  0  0  0  0
   -5.5697   -2.4935   -0.3651 H   0  0  0  0  0  0  0  0  0  0  0  0
   -6.5502    0.1140    0.9792 H   0  0  0  0  0  0  0  0  0  0  0  0
   -6.6184   -0.2127   -0.7642 H   0  0  0  0  0  0  0  0  0  0  0  0
   -8.8109   -0.5644    0.4352 H   0  0  0  0  0  0  0  0  0  0  0  0
   -8.0807   -1.8468    1.4156 H   0  0  0  0  0  0  0  0  0  0  0  0
   -9.4222   -2.7876   -0.5140 H   0  0  0  0  0  0  0  0  0  0  0  0
   -8.3708   -1.9251   -1.6773 H   0  0  0  0  0  0  0  0  0  0  0  0
   -7.7064   -3.2482   -0.6755 H   0  0  0  0  0  0  0  0  0  0  0  0
    0.8771    3.7492   -0.7809 H   0  0  0  0  0  0  0  0  0  0  0  0
   -0.5692    3.9754   -1.7741 H   0  0  0  0  0  0  0  0  0  0  0  0
   -0.4712    4.4218    1.2815 H   0  0  0  0  0  0  0  0  0  0  0  0
   -1.8593    4.7682    0.2317 H   0  0  0  0  0  0  0  0  0  0  0  0
   -0.4556    6.4479   -1.0513 H   0  0  0  0  0  0  0  0  0  0  0  0
    0.9130    6.1084    0.0230 H   0  0  0  0  0  0  0  0  0  0  0  0
   -0.2941    8.1962    0.7665 H   0  0  0  0  0  0  0  0  0  0  0  0
   -1.8183    7.2736    0.9388 H   0  0  0  0  0  0  0  0  0  0  0  0
   -0.4385    6.9258    2.0197 H   0  0  0  0  0  0  0  0  0  0  0  0
  2  5  1  0  0  0  0
  2  1  1  0  0  0  0
  3  2  2  0  0  0  0
  4  3  1  0  0  0  0
  5  6  2  0  0  0  0
  6 17  1  0  0  0  0
  6  7  1  0  0  0  0
  7 18  1  0  0  0  0
  8  7  1  0  0  0  0
  8  9  1  0  0  0  0
  8 20  1  0  0  0  0
  9 22  1  0  0  0  0
  9 23  1  0  0  0  0
 10 24  1  0  0  0  0
 10  9  1  0  0  0  0
 11  4  1  0  0  0  0
 11 12  1  0  0  0  0
 12 29  1  0  0  0  0
 13 32  1  0  0  0  0
 13 12  1  0  0  0  0
 13 14  1  0  0  0  0
 14 35  1  0  0  0  0
 15  3  1  0  0  0  0
 16  5  1  0  0  0  0
 19  7  1  0  0  0  0
 21  8  1  0  0  0  0
 25 10  1  0  0  0  0
 26 10  1  0  0  0  0
 27 11  1  0  0  0  0
 28 11  1  0  0  0  0
 30 12  1  0  0  0  0
 31 13  1  0  0  0  0
 33 14  1  0  0  0  0
 34 14  1  0  0  0  0
M  CHG  1   1  -1
M  END
