1,2
q = -2.0, confidence = 0.908

 32 33  0  0  1  0  0  0  0  0999 V2000
   -0.9266   -0.0005    1.4655 O   0  5  0  0  0  0  0  0  0  0  0  0
   -0.6137    0.0002   -1.0958 C   0  0  2  0  0  3  0  0  0  0  0  0
    0.2186   -1.1661   -1.1936 C   0  0  0  0  0  0  0  0  0  0  0  0
    1.5734   -0.7180   -1.3569 C   0  0  0  0  0  0  0  0  0  0  0  0
    1.5734    0.7184   -1.3567 C   0  0  0  0  0  0  0  0  0  0  0  0
    0.2186    1.1664   -1.1932 C   0  0  0  0  0  0  0  0  0  0  0  0
   -0.2508   -2.5857   -1.1218 C   0  0  0  0  0  0  0  0  0  0  0  0
   -0.3000   -3.0335   -2.1373 H   0  0  0  0  0  0  0  0  0  0  0  0
   -1.2649   -2.6445   -0.6815 H   0  0  0  0  0  0  0  0  0  0  0  0
    0.4315   -3.2059   -0.5089 H   0  0  0  0  0  0  0  0  0  0  0  0
    2.7651   -1.6009   -1.5572 C   0  0  0  0  0  0  0  0  0  0  0  0
    2.6558   -2.5560   -1.0099 H   0  0  0  0  0  0  0  0  0  0  0  0
    3.6970   -1.1189   -1.2052 H   0  0  0  0  0  0  0  0  0  0  0  0
    2.8956   -1.8351   -2.6358 H   0  0  0  0  0  0  0  0  0  0  0  0
    2.7651    1.6015   -1.5567 C   0  0  0  0  0  0  0  0  0  0  0  0
    2.8946    1.8372   -2.6351 H   0  0  0  0  0  0  0  0  0  0  0  0
    3.6972    1.1187   -1.2063 H   0  0  0  0  0  0  0  0  0  0  0  0
    2.6563    2.5558   -1.0079 H   0  0  0  0  0  0  0  0  0  0  0  0
   -0.2509    2.5860   -1.1211 C   0  0  0  0  0  0  0  0  0  0  0  0
    0.4317    3.2062   -0.5083 H   0  0  0  0  0  0  0  0  0  0  0  0
   -1.2648    2.6448   -0.6804 H   0  0  0  0  0  0  0  0  0  0  0  0
   -0.3004    3.0340   -2.1365 H   0  0  0  0  0  0  0  0  0  0  0  0
   -2.0167    0.0001   -0.6189 C   0  0  0  0  0  0  0  0  0  0  0  0
   -2.1031   -0.0003    0.7992 C   0  0  0  0  0  0  0  0  0  0  0  0
   -3.3507   -0.0005    1.4465 C   0  0  0  0  0  0  0  0  0  0  0  0
   -3.3907   -0.0008    2.5449 H   0  0  0  0  0  0  0  0  0  0  0  0
   -4.5142   -0.0002    0.6605 C   0  0  0  0  0  0  0  0  0  0  0  0
   -5.4974   -0.0003    1.1553 H   0  0  0  0  0  0  0  0  0  0  0  0
   -4.4410    0.0002   -0.7434 C   0  0  0  0  0  0  0  0  0  0  0  0
   -5.3638    0.0003   -1.3418 H   0  0  0  0  0  0  0  0  0  0  0  0
   -3.1894    0.0003   -1.3856 C   0  0  0  0  0  0  0  0  0  0  0  0
   -3.1224    0.0006   -2.4840 H   0  0  0  0  0  0  0  0  0  0  0  0
  2 23  1  1  0  0  0
  3  7  1  0  0  0  0
  3  2  1  0  0  0  0
  4  5  1  0  0  0  0
  4  3  2  0  0  0  0
  5  6  2  0  0  0  0
  6 19  1  0  0  0  0
  6  2  1  0  0  0  0
  7  9  1  0  0  0  0
  7 10  1  0  0  0  0
  8  7  1  0  0  0  0
 11  4  1  0  0  0  0
 11 13  1  0  0  0  0
 11 12  1  0  0  0  0
 14 11  1  0  0  0  0
 15  5  1  0  0  0  0
 15 17  1  0  0  0  0
 15 18  1  0  0  0  0
 16 15  1  0  0  0  0
 19 21  1  0  0  0  0
 19 20  1  0  0  0  0
 22 19  1  0  0  0  0
 23 24  1  0  0  0  0
 24 25  2  0  0  0  0
 24  1  1  0  0  0  0
 25 26  1  0  0  0  0
 27 28  1  0  0  0  0
 27 25  1  0  0  0  0
 29 27  2  0  0  0  0
 30 29  1  0  0  0  0
 31 29  1  0  0  0  0
 31 23  2  0  0  0  0
 32 31  1  0  0  0  0
M  CHG  1   1  -1
M  END
