1,2
q = -1.0, confidence = 0.0

 32 34  0  0  1  0  0  0  0  0999 V2000
    1.8891    2.0719   -1.2807 O   0  0  0  0  0  1  0  0  0  0  0  0
    1.2215    0.5913    0.9773 C   0  0  0  0  0  3  0  0  0  0  0  0
    1.4502    1.4737    1.6148 H   0  0  0  0  0  0  0  0  0  0  0  0
    0.8834   -0.2357    1.6259 H   0  0  0  0  0  0  0  0  0  0  0  0
    2.4627    0.1730    0.1495 C   0  0  1  0  0  0  0  0  0  0  0  0
    2.7626    1.4123   -0.6855 C   0  0  2  0  0  3  0  0  0  0  0  0
    4.0844    1.7466   -0.5782 N   0  0  0  0  0  0  0  0  0  0  0  0
    4.6776    2.9149   -1.1916 C   0  0  0  0  0  0  0  0  0  0  0  0
    3.8944    3.4166   -1.7899 H   0  0  0  0  0  0  0  0  0  0  0  0
    5.5209    2.6273   -1.8525 H   0  0  0  0  0  0  0  0  0  0  0  0
    5.0535    3.6164   -0.4181 H   0  0  0  0  0  0  0  0  0  0  0  0
    4.7209    0.9047    0.3634 C   0  0  0  0  0  0  0  0  0  0  0  0
    6.0469    0.9548    0.8019 C   0  0  0  0  0  0  0  0  0  0  0  0
    6.7578    1.6921    0.4025 H   0  0  0  0  0  0  0  0  0  0  0  0
    6.4410    0.0218    1.7813 C   0  0  0  0  0  0  0  0  0  0  0  0
    7.4780    0.0350    2.1488 H   0  0  0  0  0  0  0  0  0  0  0  0
    5.5329   -0.9193    2.2924 C   0  0  0  0  0  0  0  0  0  0  0  0
    5.8640   -1.6351    3.0592 H   0  0  0  0  0  0  0  0  0  0  0  0
    4.2006   -0.9564    1.8315 C   0  0  0  0  0  0  0  0  0  0  0  0
    3.4934   -1.6984    2.2307 H   0  0  0  0  0  0  0  0  0  0  0  0
    3.7920   -0.0378    0.8654 C   0  0  0  0  0  0  0  0  0  0  0  0
    2.1196   -1.0435   -0.7283 C   0  0  0  0  0  0  0  0  0  0  0  0
    2.2968   -1.0431   -2.1254 C   0  0  0  0  0  0  0  0  0  0  0  0
    2.6616   -0.1401   -2.6362 H   0  0  0  0  0  0  0  0  0  0  0  0
    1.9762   -2.1777   -2.8882 C   0  0  0  0  0  0  0  0  0  0  0  0
    2.1107   -2.1509   -3.9801 H   0  0  0  0  0  0  0  0  0  0  0  0
    1.4786   -3.3325   -2.2666 C   0  0  0  0  0  0  0  0  0  0  0  0
    1.2230   -4.2197   -2.8653 H   0  0  0  0  0  0  0  0  0  0  0  0
    1.2992   -3.3417   -0.8740 C   0  0  0  0  0  0  0  0  0  0  0  0
    0.8979   -4.2358   -0.3728 H   0  0  0  0  0  0  0  0  0  0  0  0
    1.6172   -2.2090   -0.1130 C   0  0  0  0  0  0  0  0  0  0  0  0
    1.4482   -2.2278    0.9732 H   0  0  0  0  0  0  0  0  0  0  0  0
  2  3  1  0  0  0  0
  2  4  1  0  0  0  0
  5 21  1  0  0  0  0
  5  2  1  1  0  0  0
  6  1  1  1  0  0  0
  6  7  1  0  0  0  0
  6  5  1  0  0  0  0
  7 12  1  0  0  0  0
  8  7  1  0  0  0  0
  8 11  1  0  0  0  0
  9  8  1  0  0  0  0
 10  8  1  0  0  0  0
 12 13  2  0  0  0  0
 12 21  1  0  0  0  0
 13 15  1  0  0  0  0
 14 13  1  0  0  0  0
 15 16  1  0  0  0  0
 15 17  2  0  0  0  0
 17 18  1  0  0  0  0
 19 20  1  0  0  0  0
 19 17  1  0  0  0  0
 21 19  2  0  0  0  0
 22 31  1  0  0  0  0
 22  5  1  0  0  0  0
 23 22  2  0  0  0  0
 24 23  1  0  0  0  0
 25 27  2  0  0  0  0
 25 23  1  0  0  0  0
 26 25  1  0  0  0  0
 27 29  1  0  0  0  0
 28 27  1  0  0  0  0
 29 30  1  0  0  0  0
 29 31  2  0  0  0  0
 31 32  1  0  0  0  0
M  END
