1,5
q = -1.0

 31 32  0  0  0  0  0  0  0  0999 V2000
   -0.7166   -2.0064   -0.1638 O   0  5  0  0  0  0  0  0  0  0  0  0
    1.1183   -3.2905   -0.0990 O   0  0  0  0  0  0  0  0  0  0  0  0
    0.5334   -2.0932   -0.0862 C   0  0  0  0  0  0  0  0  0  0  0  0
    1.3772   -0.9095    0.0307 C   0  0  0  0  0  0  0  0  0  0  0  0
    0.6400    0.2590    0.0878 C   0  0  0  0  0  2  0  0  0  0  0  0
    0.2447   -4.4291   -0.2110 C   0  0  0  0  0  0  0  0  0  0  0  0
    1.3599    1.5494    0.0356 C   0  0  0  0  0  0  0  0  0  0  0  0
    2.1837    1.8187   -1.0899 C   0  0  0  0  0  0  0  0  0  0  0  0
    2.8283    3.0511   -1.2484 C   0  0  0  0  0  0  0  0  0  0  0  0
    2.6957    4.0522   -0.2729 C   0  0  0  0  0  0  0  0  0  0  0  0
    1.9075    3.7987    0.8600 C   0  0  0  0  0  0  0  0  0  0  0  0
    1.2411    2.5735    1.0073 C   0  0  0  0  0  0  0  0  0  0  0  0
    2.8610   -1.0362    0.0945 C   0  0  0  0  0  0  0  0  0  0  0  0
    3.5753   -1.8076   -0.8496 C   0  0  0  0  0  0  0  0  0  0  0  0
    4.9741   -1.8864   -0.8024 C   0  0  0  0  0  0  0  0  0  0  0  0
    5.6881   -1.2015    0.1936 C   0  0  0  0  0  0  0  0  0  0  0  0
    4.9906   -0.4376    1.1428 C   0  0  0  0  0  0  0  0  0  0  0  0
    3.5930   -0.3558    1.0925 C   0  0  0  0  0  0  0  0  0  0  0  0
   -0.3730   -4.3586   -1.1275 H   0  0  0  0  0  0  0  0  0  0  0  0
    0.9079   -5.3107   -0.2461 H   0  0  0  0  0  0  0  0  0  0  0  0
   -0.4350   -4.4839    0.6618 H   0  0  0  0  0  0  0  0  0  0  0  0
    2.3169    1.0331   -1.8488 H   0  0  0  0  0  0  0  0  0  0  0  0
    3.4507    3.2259   -2.1394 H   0  0  0  0  0  0  0  0  0  0  0  0
    3.2075    5.0189   -0.3918 H   0  0  0  0  0  0  0  0  0  0  0  0
    1.8053    4.5657    1.6433 H   0  0  0  0  0  0  0  0  0  0  0  0
    0.6386    2.4073    1.9085 H   0  0  0  0  0  0  0  0  0  0  0  0
    3.0248   -2.3459   -1.6350 H   0  0  0  0  0  0  0  0  0  0  0  0
    5.5117   -2.4868   -1.5524 H   0  0  0  0  0  0  0  0  0  0  0  0
    6.7863   -1.2644    0.2308 H   0  0  0  0  0  0  0  0  0  0  0  0
    5.5399    0.1000    1.9308 H   0  0  0  0  0  0  0  0  0  0  0  0
    3.0517    0.2477    1.8357 H   0  0  0  0  0  0  0  0  0  0  0  0
  1  3  1  0  0  0  0
  2  3  1  0  0  0  0
  3  4  2  0  0  0  0
  4  5  1  0  0  0  0
  4 13  1  0  0  0  0
  6  2  1  0  0  0  0
  6 21  1  0  0  0  0
  7  5  1  0  0  0  0
  7 12  1  0  0  0  0
  8  7  2  0  0  0  0
  9  8  1  0  0  0  0
  9 10  2  0  0  0  0
 10 11  1  0  0  0  0
 11 12  2  0  0  0  0
 11 25  1  0  0  0  0
 12 26  1  0  0  0  0
 13 18  1  0  0  0  0
 14 15  1  0  0  0  0
 14 13  2  0  0  0  0
 15 16  2  0  0  0  0
 16 29  1  0  0  0  0
 16 17  1  0  0  0  0
 17 30  1  0  0  0  0
 18 17  2  0  0  0  0
 18 31  1  0  0  0  0
 19  6  1  0  0  0  0
 20  6  1  0  0  0  0
 22  8  1  0  0  0  0
 23  9  1  0  0  0  0
 24 10  1  0  0  0  0
 27 14  1  0  0  0  0
 28 15  1  0  0  0  0
M  CHG  1   1  -1
M  END
