2
q = -2.0, confidence = 0.952

 50 52  0  0  1  0  0  0  0  0999 V2000
    0.1898    2.5989   -0.2031 Si  0  0  0  0  0  0  0  0  0  0  0  0
    0.2179   -0.4638   -0.6669 O   0  5  0  0  0  0  0  0  0  0  0  0
   -1.3915    1.6907    0.2780 C   0  0  1  0  0  3  0  0  0  0  0  0
   -2.6478    1.7058   -0.4153 C   0  0  0  0  0  0  0  0  0  0  0  0
   -3.5258    0.7415    0.1438 C   0  0  0  0  0  0  0  0  0  0  0  0
   -2.8802    0.1715    1.2969 C   0  0  0  0  0  0  0  0  0  0  0  0
   -3.2921   -0.8116    2.2410 C   0  0  0  0  0  0  0  0  0  0  0  0
   -2.3954   -1.2059    3.2203 C   0  0  0  0  0  0  0  0  0  0  0  0
   -1.0761   -0.6629    3.2825 C   0  0  0  0  0  0  0  0  0  0  0  0
   -0.6432    0.2931    2.3761 C   0  0  0  0  0  0  0  0  0  0  0  0
   -1.5509    0.7468    1.3735 C   0  0  0  0  0  0  0  0  0  0  0  0
    0.4823    4.0395    0.9856 C   0  0  0  0  0  0  0  0  0  0  0  0
    0.0171    3.2181   -1.9764 C   0  0  0  0  0  0  0  0  0  0  0  0
    1.6193    1.3641   -0.0418 C   0  0  0  0  0  0  0  0  0  0  0  0
    2.8978    1.8133    0.3422 C   0  0  0  0  0  0  0  0  0  0  0  0
    3.9841    0.9324    0.4693 C   0  0  0  0  0  0  0  0  0  0  0  0
    5.3581    1.4215    0.8520 C   0  0  0  0  0  0  0  0  0  0  0  0
    3.7562   -0.4364    0.2195 C   0  0  0  0  0  0  0  0  0  0  0  0
    2.5072   -0.9607   -0.1556 C   0  0  0  0  0  0  0  0  0  0  0  0
    1.4408   -0.0209   -0.2925 C   0  0  0  0  0  0  0  0  0  0  0  0
    2.2951   -2.4708   -0.3752 C   0  0  0  0  0  0  0  0  0  0  0  0
    1.7807   -2.7392   -1.8099 C   0  0  0  0  0  0  0  0  0  0  0  0
    1.2850   -3.0006    0.6708 C   0  0  0  0  0  0  0  0  0  0  0  0
    3.6061   -3.2602   -0.1989 C   0  0  0  0  0  0  0  0  0  0  0  0
   -2.8604    2.2974   -1.3139 H   0  0  0  0  0  0  0  0  0  0  0  0
   -4.5299    0.4910   -0.2203 H   0  0  0  0  0  0  0  0  0  0  0  0
   -4.2989   -1.2487    2.1801 H   0  0  0  0  0  0  0  0  0  0  0  0
   -2.6958   -1.9623    3.9608 H   0  0  0  0  0  0  0  0  0  0  0  0
   -0.3907   -1.0145    4.0682 H   0  0  0  0  0  0  0  0  0  0  0  0
    0.3753    0.7040    2.4275 H   0  0  0  0  0  0  0  0  0  0  0  0
    0.5996    3.6820    2.0282 H   0  0  0  0  0  0  0  0  0  0  0  0
    1.3898    4.6156    0.7120 H   0  0  0  0  0  0  0  0  0  0  0  0
   -0.3807    4.7350    0.9556 H   0  0  0  0  0  0  0  0  0  0  0  0
   -0.7840    3.9816   -2.0582 H   0  0  0  0  0  0  0  0  0  0  0  0
    0.9667    3.6816   -2.3120 H   0  0  0  0  0  0  0  0  0  0  0  0
   -0.2264    2.3819   -2.6618 H   0  0  0  0  0  0  0  0  0  0  0  0
    3.0587    2.8841    0.5500 H   0  0  0  0  0  0  0  0  0  0  0  0
    5.7783    0.8367    1.6963 H   0  0  0  0  0  0  0  0  0  0  0  0
    6.0719    1.3195    0.0069 H   0  0  0  0  0  0  0  0  0  0  0  0
    5.3437    2.4880    1.1495 H   0  0  0  0  0  0  0  0  0  0  0  0
    4.6060   -1.1238    0.3319 H   0  0  0  0  0  0  0  0  0  0  0  0
    2.5112   -2.3751   -2.5607 H   0  0  0  0  0  0  0  0  0  0  0  0
    1.6491   -3.8301   -1.9626 H   0  0  0  0  0  0  0  0  0  0  0  0
    0.8106   -2.2497   -2.0063 H   0  0  0  0  0  0  0  0  0  0  0  0
    1.6611   -2.8253    1.6995 H   0  0  0  0  0  0  0  0  0  0  0  0
    1.1435   -4.0932    0.5393 H   0  0  0  0  0  0  0  0  0  0  0  0
    0.2923   -2.5252    0.5772 H   0  0  0  0  0  0  0  0  0  0  0  0
    3.4085   -4.3368   -0.3720 H   0  0  0  0  0  0  0  0  0  0  0  0
    4.0209   -3.1609    0.8246 H   0  0  0  0  0  0  0  0  0  0  0  0
    4.3843   -2.9444   -0.9231 H   0  0  0  0  0  0  0  0  0  0  0  0
  1 14  1  0  0  0  0
  1 12  1  0  0  0  0
  2 20  1  0  0  0  0
  3  1  1  6  0  0  0
  3 11  1  0  0  0  0
  4  5  2  0  0  0  0
  4  3  1  0  0  0  0
  5  6  1  0  0  0  0
  6 11  2  0  0  0  0
  6  7  1  0  0  0  0
  7  8  2  0  0  0  0
  8  9  1  0  0  0  0
  8 28  1  0  0  0  0
  9 29  1  0  0  0  0
 10 30  1  0  0  0  0
 10  9  2  0  0  0  0
 11 10  1  0  0  0  0
 12 31  1  0  0  0  0
 13  1  1  0  0  0  0
 14 15  1  0  0  0  0
 15 16  2  0  0  0  0
 15 37  1  0  0  0  0
 16 17  1  0  0  0  0
 17 40  1  0  0  0  0
 17 38  1  0  0  0  0
 18 41  1  0  0  0  0
 18 16  1  0  0  0  0
 19 18  2  0  0  0  0
 20 19  1  0  0  0  0
 20 14  2  0  0  0  0
 21 24  1  0  0  0  0
 21 19  1  0  0  0  0
 21 23  1  0  0  0  0
 22 21  1  0  0  0  0
 23 45  1  0  0  0  0
 24 49  1  0  0  0  0
 25  4  1  0  0  0  0
 26  5  1  0  0  0  0
 27  7  1  0  0  0  0
 32 12  1  0  0  0  0
 33 12  1  0  0  0  0
 34 13  1  0  0  0  0
 35 13  1  0  0  0  0
 36 13  1  0  0  0  0
 39 17  1  0  0  0  0
 42 22  1  0  0  0  0
 43 22  1  0  0  0  0
 44 22  1  0  0  0  0
 46 23  1  0  0  0  0
 47 23  1  0  0  0  0
 48 24  1  0  0  0  0
 50 24  1  0  0  0  0
M  CHG  1   2  -1
M  END
