2,4
q = -1.0

 54 57  0  0  0  0  0  0  0  0999 V2000
    2.2779   -0.2414    0.0171 P   0  0  0  0  0  4  0  0  0  0  0  0
   -0.9609   -2.5996   -0.1693 O   0  5  0  0  0  0  0  0  0  0  0  0
    0.0500    1.1759    0.4563 N   0  0  0  0  0  2  0  0  0  0  0  0
   -0.3767   -0.0310    0.2140 C   0  0  0  0  0  2  0  0  0  0  0  0
    0.6941   -1.0293    0.1077 C   0  0  0  0  0  0  0  0  0  0  0  0
    0.3004   -2.3696   -0.1095 C   0  0  0  0  0  0  0  0  0  0  0  0
    1.2031   -3.5645   -0.2768 C   0  0  0  0  0  0  0  0  0  0  0  0
    1.7593   -3.5082   -1.2341 H   0  0  0  0  0  0  0  0  0  0  0  0
    0.5799   -4.4771   -0.2838 H   0  0  0  0  0  0  0  0  0  0  0  0
    1.9559   -3.6325    0.5308 H   0  0  0  0  0  0  0  0  0  0  0  0
   -0.5244    2.4091    0.2307 C   0  0  0  0  0  0  0  0  0  0  0  0
   -1.3268    2.6725   -0.9104 C   0  0  0  0  0  0  0  0  0  0  0  0
   -1.5437    1.8444   -1.6034 H   0  0  0  0  0  0  0  0  0  0  0  0
   -1.8133    3.9661   -1.1409 C   0  0  0  0  0  0  0  0  0  0  0  0
   -2.4310    4.1558   -2.0334 H   0  0  0  0  0  0  0  0  0  0  0  0
   -1.5245    5.0171   -0.2533 C   0  0  0  0  0  0  0  0  0  0  0  0
   -1.9142    6.0290   -0.4416 H   0  0  0  0  0  0  0  0  0  0  0  0
   -0.7154    4.7649    0.8700 C   0  0  0  0  0  0  0  0  0  0  0  0
   -0.4707    5.5823    1.5665 H   0  0  0  0  0  0  0  0  0  0  0  0
   -0.2087    3.4823    1.1044 C   0  0  0  0  0  0  0  0  0  0  0  0
    0.4384    3.2763    1.9706 H   0  0  0  0  0  0  0  0  0  0  0  0
    2.9077    0.4075    1.6081 C   0  0  0  0  0  0  0  0  0  0  0  0
    2.0428    0.4844    2.7167 C   0  0  0  0  0  0  0  0  0  0  0  0
    0.9963    0.1695    2.6022 H   0  0  0  0  0  0  0  0  0  0  0  0
    2.5222    0.9704    3.9414 C   0  0  0  0  0  0  0  0  0  0  0  0
    1.8442    1.0295    4.8062 H   0  0  0  0  0  0  0  0  0  0  0  0
    3.8587    1.3856    4.0645 C   0  0  0  0  0  0  0  0  0  0  0  0
    4.2288    1.7726    5.0261 H   0  0  0  0  0  0  0  0  0  0  0  0
    4.7252    1.2985    2.9638 C   0  0  0  0  0  0  0  0  0  0  0  0
    5.7757    1.6118    3.0595 H   0  0  0  0  0  0  0  0  0  0  0  0
    4.2552    0.8024    1.7378 C   0  0  0  0  0  0  0  0  0  0  0  0
    4.9458    0.7080    0.8858 H   0  0  0  0  0  0  0  0  0  0  0  0
    2.2622    1.0750   -1.2485 C   0  0  0  0  0  0  0  0  0  0  0  0
    3.0698    2.2238   -1.1429 C   0  0  0  0  0  0  0  0  0  0  0  0
    3.7085    2.3809   -0.2625 H   0  0  0  0  0  0  0  0  0  0  0  0
    3.0283    3.1966   -2.1529 C   0  0  0  0  0  0  0  0  0  0  0  0
    3.6508    4.0994   -2.0603 H   0  0  0  0  0  0  0  0  0  0  0  0
    2.1867    3.0308   -3.2636 C   0  0  0  0  0  0  0  0  0  0  0  0
    2.1487    3.8035   -4.0462 H   0  0  0  0  0  0  0  0  0  0  0  0
    1.3740    1.8897   -3.3582 C   0  0  0  0  0  0  0  0  0  0  0  0
    0.6800    1.7633   -4.2028 H   0  0  0  0  0  0  0  0  0  0  0  0
    1.4088    0.9072   -2.3599 C   0  0  0  0  0  0  0  0  0  0  0  0
    0.7136    0.0522   -2.4161 H   0  0  0  0  0  0  0  0  0  0  0  0
    3.5619   -1.4396   -0.5089 C   0  0  0  0  0  0  0  0  0  0  0  0
    3.8011   -1.6437   -1.8830 C   0  0  0  0  0  0  0  0  0  0  0  0
    3.2657   -1.0367   -2.6285 H   0  0  0  0  0  0  0  0  0  0  0  0
    4.7211   -2.6181   -2.2979 C   0  0  0  0  0  0  0  0  0  0  0  0
    4.9022   -2.7727   -3.3722 H   0  0  0  0  0  0  0  0  0  0  0  0
    5.4105   -3.3886   -1.3480 C   0  0  0  0  0  0  0  0  0  0  0  0
    6.1328   -4.1512   -1.6762 H   0  0  0  0  0  0  0  0  0  0  0  0
    5.1820   -3.1807    0.0221 C   0  0  0  0  0  0  0  0  0  0  0  0
    5.7238   -3.7794    0.7698 H   0  0  0  0  0  0  0  0  0  0  0  0
    4.2611   -2.2107    0.4430 C   0  0  0  0  0  0  0  0  0  0  0  0
    4.0827   -2.0526    1.5172 H   0  0  0  0  0  0  0  0  0  0  0  0
  1  5  1  0  0  0  0
  1 22  1  0  0  0  0
  2  6  1  0  0  0  0
  4  3  1  0  0  0  0
  5  4  1  0  0  0  0
  6  5  2  0  0  0  0
  7  6  1  0  0  0  0
  7 10  1  0  0  0  0
  8  7  1  0  0  0  0
  9  7  1  0  0  0  0
 11  3  1  0  0  0  0
 11 20  1  0  0  0  0
 12 11  2  0  0  0  0
 13 12  1  0  0  0  0
 14 12  1  0  0  0  0
 14 16  2  0  0  0  0
 15 14  1  0  0  0  0
 16 18  1  0  0  0  0
 17 16  1  0  0  0  0
 18 20  2  0  0  0  0
 18 19  1  0  0  0  0
 20 21  1  0  0  0  0
 22 31  2  0  0  0  0
 22 23  1  0  0  0  0
 23 25  2  0  0  0  0
 24 23  1  0  0  0  0
 25 27  1  0  0  0  0
 25 26  1  0  0  0  0
 27 28  1  0  0  0  0
 29 30  1  0  0  0  0
 29 27  2  0  0  0  0
 31 29  1  0  0  0  0
 32 31  1  0  0  0  0
 33 34  1  0  0  0  0
 33  1  1  0  0  0  0
 34 35  1  0  0  0  0
 36 37  1  0  0  0  0
 36 34  2  0  0  0  0
 38 36  1  0  0  0  0
 39 38  1  0  0  0  0
 40 38  2  0  0  0  0
 40 42  1  0  0  0  0
 41 40  1  0  0  0  0
 42 33  2  0  0  0  0
 43 42  1  0  0  0  0
 44  1  1  0  0  0  0
 44 53  1  0  0  0  0
 45 44  2  0  0  0  0
 46 45  1  0  0  0  0
 47 45  1  0  0  0  0
 47 49  2  0  0  0  0
 48 47  1  0  0  0  0
 49 51  1  0  0  0  0
 50 49  1  0  0  0  0
 51 53  2  0  0  0  0
 51 52  1  0  0  0  0
 53 54  1  0  0  0  0
M  CHG  1   2  -1
M  END
