2,42
q = -1.0, confidence = 0.026

 42 43  0  0  0  0  0  0  0  0999 V2000
   -2.2109    3.1894   -1.4902 O   0  5  0  0  0  0  0  0  0  0  0  0
   -1.2063    1.6355   -0.2335 O   0  0  0  0  0  0  0  0  0  0  0  0
    2.6668    1.0819   -1.1454 N   0  0  0  0  0  0  0  0  0  0  0  0
   -1.3797    2.2939   -1.3449 C   0  0  0  0  0  0  0  0  0  0  0  0
    5.0031   -1.0511   -2.6866 C   0  0  0  0  0  0  0  0  0  0  0  0
    4.9709    0.0373   -2.8921 H   0  0  0  0  0  0  0  0  0  0  0  0
    4.8521   -1.5813   -3.6494 H   0  0  0  0  0  0  0  0  0  0  0  0
    6.0226   -1.2943   -2.3212 H   0  0  0  0  0  0  0  0  0  0  0  0
    3.5989    1.2114    1.1139 C   0  0  0  0  0  0  0  0  0  0  0  0
    2.8459    2.5098    1.3799 C   0  0  0  0  0  0  0  0  0  0  0  0
    2.4015    2.8514    0.4232 H   0  0  0  0  0  0  0  0  0  0  0  0
    3.1043    1.9686   -2.1260 C   0  0  0  0  0  0  0  0  0  0  0  0
    4.1582    2.2381   -2.2327 H   0  0  0  0  0  0  0  0  0  0  0  0
   -0.5043    1.9013   -2.5663 C   0  0  0  0  0  0  0  0  0  0  0  0
   -0.8976    0.9548   -2.9943 H   0  0  0  0  0  0  0  0  0  0  0  0
   -0.5956    2.6986   -3.3240 H   0  0  0  0  0  0  0  0  0  0  0  0
    1.9880    2.3781   -2.8130 C   0  0  0  0  0  0  0  0  0  0  0  0
    1.8755    3.0653   -3.6566 H   0  0  0  0  0  0  0  0  0  0  0  0
    0.9074    1.7294   -2.2298 N   0  0  0  0  0  0  0  0  0  0  0  0
    1.6794    2.2660    2.3546 C   0  0  0  0  0  0  0  0  0  0  0  0
    2.0489    1.9146    3.3407 H   0  0  0  0  0  0  0  0  0  0  0  0
    0.9830    1.5014    1.9463 H   0  0  0  0  0  0  0  0  0  0  0  0
    1.0983    3.1967    2.5157 H   0  0  0  0  0  0  0  0  0  0  0  0
    4.9027   -1.2672    0.6989 C   0  0  0  0  0  0  0  0  0  0  0  0
    5.3840   -2.2452    0.5650 H   0  0  0  0  0  0  0  0  0  0  0  0
    4.1210   -0.7374   -0.3426 C   0  0  0  0  0  0  0  0  0  0  0  0
    3.9416   -1.4849   -1.6573 C   0  0  0  0  0  0  0  0  0  0  0  0
    2.9430   -1.1999   -2.0486 H   0  0  0  0  0  0  0  0  0  0  0  0
    5.0426   -0.5887    1.9159 C   0  0  0  0  0  0  0  0  0  0  0  0
    5.6512   -1.0298    2.7198 H   0  0  0  0  0  0  0  0  0  0  0  0
    3.4955    0.5107   -0.1100 C   0  0  0  0  0  0  0  0  0  0  0  0
    3.7752    3.6298    1.8741 C   0  0  0  0  0  0  0  0  0  0  0  0
    4.2226    3.3881    2.8602 H   0  0  0  0  0  0  0  0  0  0  0  0
    3.2106    4.5770    1.9920 H   0  0  0  0  0  0  0  0  0  0  0  0
    4.6068    3.8102    1.1635 H   0  0  0  0  0  0  0  0  0  0  0  0
    3.9399   -3.0097   -1.4794 C   0  0  0  0  0  0  0  0  0  0  0  0
    4.9574   -3.3964   -1.2595 H   0  0  0  0  0  0  0  0  0  0  0  0
    3.6064   -3.4977   -2.4176 H   0  0  0  0  0  0  0  0  0  0  0  0
    3.2653   -3.3097   -0.6532 H   0  0  0  0  0  0  0  0  0  0  0  0
    4.3930    0.6330    2.1233 C   0  0  0  0  0  0  0  0  0  0  0  0
    4.4939    1.1478    3.0908 H   0  0  0  0  0  0  0  0  0  0  0  0
    1.3113    0.9347   -1.2011 C   0  0  0  0  0  2  0  0  0  0  0  0
  1  4  1  0  0  0  0
  3 31  1  0  0  0  0
  4  2  2  0  0  0  0
  5  8  1  0  0  0  0
  5 27  1  0  0  0  0
  6  5  1  0  0  0  0
  7  5  1  0  0  0  0
  9 10  1  0  0  0  0
  9 40  1  0  0  0  0
 10 32  1  0  0  0  0
 10 20  1  0  0  0  0
 11 10  1  0  0  0  0
 12  3  1  0  0  0  0
 13 12  1  0  0  0  0
 14 19  1  0  0  0  0
 14  4  1  0  0  0  0
 15 14  1  0  0  0  0
 16 14  1  0  0  0  0
 17 19  1  0  0  0  0
 17 12  2  0  0  0  0
 18 17  1  0  0  0  0
 19 42  1  0  0  0  0
 20 23  1  0  0  0  0
 20 21  1  0  0  0  0
 22 20  1  0  0  0  0
 24 29  1  0  0  0  0
 25 24  1  0  0  0  0
 26 31  1  0  0  0  0
 26 24  2  0  0  0  0
 27 36  1  0  0  0  0
 27 26  1  0  0  0  0
 28 27  1  0  0  0  0
 29 40  2  0  0  0  0
 29 30  1  0  0  0  0
 31  9  2  0  0  0  0
 32 34  1  0  0  0  0
 32 33  1  0  0  0  0
 35 32  1  0  0  0  0
 36 37  1  0  0  0  0
 36 39  1  0  0  0  0
 38 36  1  0  0  0  0
 40 41  1  0  0  0  0
 42  3  1  0  0  0  0
M  CHG  1   1  -1
M  END
