1,16
q = -2.0, confidence = 0.904

 34 36  0  0  1  0  0  0  0  0999 V2000
    0.0621   -0.0834    1.3920 O   0  0  0  0  0  1  0  0  0  0  0  0
   -2.1401    0.0391    2.2030 N   0  0  0  0  0  0  0  0  0  0  0  0
   -0.8028   -2.0295    2.4648 C   0  0  0  0  0  0  0  0  0  0  0  0
   -1.1200   -0.8231    1.5862 C   0  0  2  0  0  0  0  0  0  0  0  0
   -2.7218    0.8070    1.1948 C   0  0  0  0  0  0  0  0  0  0  0  0
   -3.4058    2.0287    1.2882 C   0  0  0  0  0  0  0  0  0  0  0  0
   -3.8868    2.6152    0.1006 C   0  0  0  0  0  0  0  0  0  0  0  0
   -3.6847    2.0035   -1.1474 C   0  0  0  0  0  0  0  0  0  0  0  0
   -2.9940    0.7744   -1.2274 C   0  0  0  0  0  0  0  0  0  0  0  0
   -2.5237    0.1786   -0.0585 C   0  0  0  0  0  0  0  0  0  0  0  0
   -1.7721   -1.1301    0.1786 C   0  0  2  0  0  0  0  0  0  0  0  0
   -2.7986   -2.2997    0.2308 C   0  0  0  0  0  0  0  0  0  0  0  0
   -3.0300   -2.6438   -1.2422 C   0  0  0  0  0  0  0  0  0  0  0  0
   -1.6258   -2.5243   -1.8591 C   0  0  0  0  0  0  0  0  0  0  0  0
   -0.8586   -1.5171   -0.9949 C   0  0  0  0  0  0  0  0  0  0  0  0
    0.3842   -1.0478   -1.2990 C   0  0  0  0  0  3  0  0  0  0  0  0
    1.0307   -1.5081   -2.5910 C   0  0  0  0  0  0  0  0  0  0  0  0
   -0.1236   -2.7195    1.9271 H   0  0  0  0  0  0  0  0  0  0  0  0
   -0.2868   -1.6827    3.3826 H   0  0  0  0  0  0  0  0  0  0  0  0
   -1.7175   -2.5732    2.7630 H   0  0  0  0  0  0  0  0  0  0  0  0
   -1.8357    0.5236    3.0515 H   0  0  0  0  0  0  0  0  0  0  0  0
   -3.5483    2.5259    2.2597 H   0  0  0  0  0  0  0  0  0  0  0  0
   -4.4172    3.5783    0.1554 H   0  0  0  0  0  0  0  0  0  0  0  0
   -4.0529    2.4883   -2.0635 H   0  0  0  0  0  0  0  0  0  0  0  0
   -2.7999    0.3068   -2.2049 H   0  0  0  0  0  0  0  0  0  0  0  0
   -2.3328   -3.1689    0.7403 H   0  0  0  0  0  0  0  0  0  0  0  0
   -3.7175   -2.0307    0.7879 H   0  0  0  0  0  0  0  0  0  0  0  0
   -3.4886   -3.6426   -1.3858 H   0  0  0  0  0  0  0  0  0  0  0  0
   -3.7177   -1.9020   -1.6978 H   0  0  0  0  0  0  0  0  0  0  0  0
   -1.0995   -3.5061   -1.8370 H   0  0  0  0  0  0  0  0  0  0  0  0
   -1.6498   -2.2280   -2.9299 H   0  0  0  0  0  0  0  0  0  0  0  0
    1.4883   -2.5186   -2.4868 H   0  0  0  0  0  0  0  0  0  0  0  0
    0.3042   -1.5836   -3.4304 H   0  0  0  0  0  0  0  0  0  0  0  0
    1.8418   -0.8307   -2.9294 H   0  0  0  0  0  0  0  0  0  0  0  0
  2 21  1  0  0  0  0
  3 20  1  0  0  0  0
  3 19  1  0  0  0  0
  4  1  1  6  0  0  0
  4  2  1  0  0  0  0
  4  3  1  0  0  0  0
  5  6  1  0  0  0  0
  5  2  1  0  0  0  0
  6 22  1  0  0  0  0
  7 23  1  0  0  0  0
  7  6  2  0  0  0  0
  8  7  1  0  0  0  0
  9  8  2  0  0  0  0
  9 10  1  0  0  0  0
 10 11  1  0  0  0  0
 10  5  2  0  0  0  0
 11 15  1  6  0  0  0
 11 12  1  0  0  0  0
 11  4  1  0  0  0  0
 12 26  1  0  0  0  0
 12 27  1  0  0  0  0
 13 12  1  0  0  0  0
 14 30  1  0  0  0  0
 14 13  1  0  0  0  0
 14 15  1  0  0  0  0
 16 15  2  0  0  0  0
 17 32  1  0  0  0  0
 17 16  1  0  0  0  0
 18  3  1  0  0  0  0
 24  8  1  0  0  0  0
 25  9  1  0  0  0  0
 28 13  1  0  0  0  0
 29 13  1  0  0  0  0
 31 14  1  0  0  0  0
 33 17  1  0  0  0  0
 34 17  1  0  0  0  0
M  END
