1,12
q = -1.0

 43 44  0  0  0  0  0  0  0  0999 V2000
    1.8863   -1.1904    0.6067 C   0  0  0  0  0  2  0  0  0  0  0  0
    1.9064   -2.5246    0.9120 N   0  0  0  0  0  0  0  0  0  0  0  0
    3.1461   -3.0866    0.6361 C   0  0  0  0  0  0  0  0  0  0  0  0
    3.3549   -4.1492    0.7895 H   0  0  0  0  0  0  0  0  0  0  0  0
    3.9405   -2.0673    0.1762 C   0  0  0  0  0  0  0  0  0  0  0  0
    4.9839   -2.0534   -0.1500 H   0  0  0  0  0  0  0  0  0  0  0  0
    3.1495   -0.9176    0.1733 N   0  0  0  0  0  0  0  0  0  0  0  0
    0.6870   -3.2127    1.2611 C   0  0  0  0  0  0  0  0  0  0  0  0
    0.1532   -2.6549    2.0523 H   0  0  0  0  0  0  0  0  0  0  0  0
    0.8899   -4.2538    1.5689 H   0  0  0  0  0  0  0  0  0  0  0  0
   -0.4875   -3.3130   -0.2039 S   0  0  0  0  0  0  0  0  0  0  0  0
   -0.2488   -1.9706   -0.9436 O   0  0  0  0  0  1  0  0  0  0  0  0
   -0.0184   -4.4540   -1.0210 O   0  0  0  0  0  1  0  0  0  0  0  0
   -1.8253   -3.4042    0.4432 O   0  0  0  0  0  1  0  0  0  0  0  0
    3.5508    0.3717   -0.3256 C   0  0  0  0  0  0  0  0  0  0  0  0
    3.1817    0.7219   -1.6464 C   0  0  0  0  0  0  0  0  0  0  0  0
    3.5728    1.9945   -2.1056 C   0  0  0  0  0  0  0  0  0  0  0  0
    3.3054    2.3011   -3.1279 H   0  0  0  0  0  0  0  0  0  0  0  0
    4.2923    2.8718   -1.2848 C   0  0  0  0  0  0  0  0  0  0  0  0
    4.5877    3.8613   -1.6660 H   0  0  0  0  0  0  0  0  0  0  0  0
    4.6326    2.4984    0.0215 C   0  0  0  0  0  0  0  0  0  0  0  0
    5.1871    3.2007    0.6615 H   0  0  0  0  0  0  0  0  0  0  0  0
    4.2619    1.2413    0.5343 C   0  0  0  0  0  0  0  0  0  0  0  0
    2.4233   -0.2309   -2.5618 C   0  0  0  0  0  0  0  0  0  0  0  0
    2.0517   -1.0795   -1.9552 H   0  0  0  0  0  0  0  0  0  0  0  0
    3.3603   -0.8029   -3.6404 C   0  0  0  0  0  0  0  0  0  0  0  0
    3.7561   -0.0019   -4.2995 H   0  0  0  0  0  0  0  0  0  0  0  0
    2.8186   -1.5324   -4.2758 H   0  0  0  0  0  0  0  0  0  0  0  0
    4.2278   -1.3240   -3.1871 H   0  0  0  0  0  0  0  0  0  0  0  0
    1.1799    0.4278   -3.1768 C   0  0  0  0  0  0  0  0  0  0  0  0
    1.4368    1.2675   -3.8554 H   0  0  0  0  0  0  0  0  0  0  0  0
    0.5121    0.8143   -2.3800 H   0  0  0  0  0  0  0  0  0  0  0  0
    0.6095   -0.3188   -3.7644 H   0  0  0  0  0  0  0  0  0  0  0  0
    4.6275    0.8396    1.9577 C   0  0  0  0  0  0  0  0  0  0  0  0
    4.0188   -0.0511    2.2161 H   0  0  0  0  0  0  0  0  0  0  0  0
    4.2874    1.9324    2.9829 C   0  0  0  0  0  0  0  0  0  0  0  0
    3.2218    2.2271    2.9148 H   0  0  0  0  0  0  0  0  0  0  0  0
    4.9064    2.8418    2.8395 H   0  0  0  0  0  0  0  0  0  0  0  0
    4.4792    1.5658    4.0117 H   0  0  0  0  0  0  0  0  0  0  0  0
    6.1102    0.4334    2.0436 C   0  0  0  0  0  0  0  0  0  0  0  0
    6.7701    1.2868    1.7829 H   0  0  0  0  0  0  0  0  0  0  0  0
    6.3480   -0.3960    1.3477 H   0  0  0  0  0  0  0  0  0  0  0  0
    6.3697    0.1035    3.0704 H   0  0  0  0  0  0  0  0  0  0  0  0
  1  2  1  0  0  0  0
  2  8  1  0  0  0  0
  3  4  1  0  0  0  0
  3  2  1  0  0  0  0
  5  3  2  0  0  0  0
  6  5  1  0  0  0  0
  7  5  1  0  0  0  0
  7  1  1  0  0  0  0
  8 10  1  0  0  0  0
  8  9  1  0  0  0  0
 11 14  1  0  0  0  0
 11  8  1  0  0  0  0
 12 11  1  0  0  0  0
 13 11  1  0  0  0  0
 15  7  1  0  0  0  0
 15 23  1  0  0  0  0
 16 15  2  0  0  0  0
 17 16  1  0  0  0  0
 17 19  2  0  0  0  0
 18 17  1  0  0  0  0
 19 21  1  0  0  0  0
 20 19  1  0  0  0  0
 21 23  2  0  0  0  0
 21 22  1  0  0  0  0
 23 34  1  0  0  0  0
 24 25  1  0  0  0  0
 24 16  1  0  0  0  0
 26 29  1  0  0  0  0
 26 24  1  0  0  0  0
 27 26  1  0  0  0  0
 28 26  1  0  0  0  0
 30 24  1  0  0  0  0
 30 32  1  0  0  0  0
 31 30  1  0  0  0  0
 33 30  1  0  0  0  0
 34 40  1  0  0  0  0
 34 35  1  0  0  0  0
 34 36  1  0  0  0  0
 36 39  1  0  0  0  0
 37 36  1  0  0  0  0
 38 36  1  0  0  0  0
 40 43  1  0  0  0  0
 41 40  1  0  0  0  0
 42 40  1  0  0  0  0
M  END
