2,3
q = -2.0, confidence = 0.956

 40 43  0  0  1  0  0  0  0  0999 V2000
   -0.5602    0.2582    2.2642 O   0  0  0  0  0  0  0  0  0  0  0  0
    0.1343    1.5649   -1.1842 O   0  5  0  0  0  0  0  0  0  0  0  0
   -1.2704   -0.5147    0.0848 C   0  0  1  0  0  3  0  0  0  0  0  0
   -1.0094   -0.6752    1.5906 C   0  0  0  0  0  0  0  0  0  0  0  0
   -1.3230   -1.9780    2.2289 C   0  0  0  0  0  0  0  0  0  0  0  0
   -1.9189   -2.9701    1.5006 C   0  0  0  0  0  0  0  0  0  0  0  0
   -2.1754   -3.9212    1.9988 H   0  0  0  0  0  0  0  0  0  0  0  0
   -2.2428   -2.8592    0.0894 C   0  0  0  0  0  0  0  0  0  0  0  0
   -2.8812   -3.9228   -0.5938 C   0  0  0  0  0  0  0  0  0  0  0  0
   -3.1201   -4.8432   -0.0377 H   0  0  0  0  0  0  0  0  0  0  0  0
   -3.2131   -3.8088   -1.9458 C   0  0  0  0  0  0  0  0  0  0  0  0
   -3.7101   -4.6420   -2.4648 H   0  0  0  0  0  0  0  0  0  0  0  0
   -2.9181   -2.6176   -2.6368 C   0  0  0  0  0  0  0  0  0  0  0  0
   -3.1851   -2.5164   -3.6995 H   0  0  0  0  0  0  0  0  0  0  0  0
   -2.2921   -1.5563   -1.9742 C   0  0  0  0  0  0  0  0  0  0  0  0
   -2.0728   -0.6168   -2.5039 H   0  0  0  0  0  0  0  0  0  0  0  0
   -1.9332   -1.6599   -0.6152 C   0  0  0  0  0  0  0  0  0  0  0  0
   -1.9124    0.8387   -0.2253 C   0  0  0  0  0  0  0  0  0  0  0  0
   -1.1274    1.8220   -0.8324 C   0  0  0  0  0  0  0  0  0  0  0  0
   -1.6523    3.1367   -1.1071 C   0  0  0  0  0  0  0  0  0  0  0  0
   -2.9687    3.3970   -0.7691 C   0  0  0  0  0  0  0  0  0  0  0  0
   -3.3912    4.3943   -0.9756 H   0  0  0  0  0  0  0  0  0  0  0  0
   -3.8063    2.4228   -0.1460 C   0  0  0  0  0  0  0  0  0  0  0  0
   -5.1523    2.7172    0.2085 C   0  0  0  0  0  0  0  0  0  0  0  0
   -5.5464    3.7193   -0.0250 H   0  0  0  0  0  0  0  0  0  0  0  0
   -5.9564    1.7758    0.8385 C   0  0  0  0  0  0  0  0  0  0  0  0
   -6.9951    2.0212    1.1067 H   0  0  0  0  0  0  0  0  0  0  0  0
   -5.4260    0.4965    1.1420 C   0  0  0  0  0  0  0  0  0  0  0  0
   -6.0552   -0.2504    1.6503 H   0  0  0  0  0  0  0  0  0  0  0  0
   -4.1166    0.1746    0.8069 C   0  0  0  0  0  0  0  0  0  0  0  0
   -3.7307   -0.8220    1.0594 H   0  0  0  0  0  0  0  0  0  0  0  0
   -3.2676    1.1131    0.1469 C   0  0  0  0  0  0  0  0  0  0  0  0
   -0.7395    4.1532   -1.7301 C   0  0  0  0  0  0  0  0  0  0  0  0
   -1.2629    5.1122   -1.9093 H   0  0  0  0  0  0  0  0  0  0  0  0
   -0.3280    3.7836   -2.6927 H   0  0  0  0  0  0  0  0  0  0  0  0
    0.1386    4.3393   -1.0765 H   0  0  0  0  0  0  0  0  0  0  0  0
   -0.9914   -2.0992    3.6843 C   0  0  0  0  0  0  0  0  0  0  0  0
   -1.2943   -3.0810    4.0953 H   0  0  0  0  0  0  0  0  0  0  0  0
   -1.4829   -1.2906    4.2630 H   0  0  0  0  0  0  0  0  0  0  0  0
    0.0984   -1.9603    3.8442 H   0  0  0  0  0  0  0  0  0  0  0  0
  2 19  1  0  0  0  0
  3 18  1  1  0  0  0
  3  4  1  0  0  0  0
  4  5  1  0  0  0  0
  4  1  2  0  0  0  0
  5 37  1  0  0  0  0
  6  7  1  0  0  0  0
  6  5  2  0  0  0  0
  8  6  1  0  0  0  0
  9 10  1  0  0  0  0
  9  8  1  0  0  0  0
 11  9  2  0  0  0  0
 12 11  1  0  0  0  0
 13 15  2  0  0  0  0
 13 11  1  0  0  0  0
 14 13  1  0  0  0  0
 15 17  1  0  0  0  0
 16 15  1  0  0  0  0
 17  3  1  0  0  0  0
 17  8  2  0  0  0  0
 18 32  1  0  0  0  0
 19 18  2  0  0  0  0
 20 19  1  0  0  0  0
 20 21  2  0  0  0  0
 21 23  1  0  0  0  0
 22 21  1  0  0  0  0
 23 32  2  0  0  0  0
 23 24  1  0  0  0  0
 24 26  2  0  0  0  0
 25 24  1  0  0  0  0
 26 27  1  0  0  0  0
 26 28  1  0  0  0  0
 28 29  1  0  0  0  0
 30 31  1  0  0  0  0
 30 28  2  0  0  0  0
 32 30  1  0  0  0  0
 33 20  1  0  0  0  0
 33 36  1  0  0  0  0
 34 33  1  0  0  0  0
 35 33  1  0  0  0  0
 37 40  1  0  0  0  0
 37 38  1  0  0  0  0
 37 39  1  0  0  0  0
M  CHG  1   2  -1
M  END
