1,4
q = -1.0, confidence = 0.0

 37 39  0  0  0  0  0  0  0  0999 V2000
    1.1923   -2.6932    0.6958 O   0  5  0  0  0  0  0  0  0  0  0  0
    2.6783   -0.3888   -0.0486 N   0  0  0  0  0  0  0  0  0  0  0  0
    1.3159    0.5472   -1.5123 N   0  0  0  0  0  0  0  0  0  0  0  0
    1.3566   -0.1886   -0.3542 C   0  0  0  0  0  2  0  0  0  0  0  0
    3.4905    0.2165   -1.0213 C   0  0  0  0  0  0  0  0  0  0  0  0
    4.8807    0.2666   -1.2055 C   0  0  0  0  0  0  0  0  0  0  0  0
    5.5652   -0.2389   -0.5132 H   0  0  0  0  0  0  0  0  0  0  0  0
    5.3588    0.9724   -2.3193 C   0  0  0  0  0  0  0  0  0  0  0  0
    6.4438    1.0299   -2.4896 H   0  0  0  0  0  0  0  0  0  0  0  0
    4.4809    1.6022   -3.2285 C   0  0  0  0  0  0  0  0  0  0  0  0
    4.8935    2.1494   -4.0887 H   0  0  0  0  0  0  0  0  0  0  0  0
    3.0899    1.5305   -3.0646 C   0  0  0  0  0  0  0  0  0  0  0  0
    2.4074    2.0005   -3.7863 H   0  0  0  0  0  0  0  0  0  0  0  0
    2.6096    0.8239   -1.9524 C   0  0  0  0  0  0  0  0  0  0  0  0
    3.1146   -1.2405    1.0097 C   0  0  0  0  0  0  0  0  0  0  0  0
    2.3391   -2.4241    1.2751 C   0  0  0  0  0  0  0  0  0  0  0  0
    2.8959   -3.3264    2.2293 C   0  0  0  0  0  0  0  0  0  0  0  0
    2.3322   -4.2509    2.4216 H   0  0  0  0  0  0  0  0  0  0  0  0
    4.0766   -3.0383    2.9161 C   0  0  0  0  0  0  0  0  0  0  0  0
    4.4560   -3.7578    3.6585 H   0  0  0  0  0  0  0  0  0  0  0  0
    4.7684   -1.8309    2.6961 C   0  0  0  0  0  0  0  0  0  0  0  0
    5.6758   -1.5876    3.2670 H   0  0  0  0  0  0  0  0  0  0  0  0
    4.2778   -0.9360    1.7377 C   0  0  0  0  0  0  0  0  0  0  0  0
    4.7910    0.0202    1.5576 H   0  0  0  0  0  0  0  0  0  0  0  0
    0.0895    0.8543   -2.2483 C   0  0  0  0  0  0  0  0  0  0  0  0
    0.3411    1.6219   -3.0063 H   0  0  0  0  0  0  0  0  0  0  0  0
   -0.6271    1.3212   -1.5435 H   0  0  0  0  0  0  0  0  0  0  0  0
   -0.5463   -0.3794   -2.8918 C   0  0  0  0  0  0  0  0  0  0  0  0
    0.1621   -0.8245   -3.6238 H   0  0  0  0  0  0  0  0  0  0  0  0
   -0.6937   -1.1402   -2.0924 H   0  0  0  0  0  0  0  0  0  0  0  0
   -1.8899   -0.0728   -3.5557 C   0  0  0  0  0  0  0  0  0  0  0  0
   -1.7442    0.6598   -4.3814 H   0  0  0  0  0  0  0  0  0  0  0  0
   -2.5494    0.4287   -2.8131 H   0  0  0  0  0  0  0  0  0  0  0  0
   -2.5883   -1.3281   -4.0785 C   0  0  0  0  0  0  0  0  0  0  0  0
   -3.5543   -1.0831   -4.5632 H   0  0  0  0  0  0  0  0  0  0  0  0
   -2.8032   -2.0333   -3.2498 H   0  0  0  0  0  0  0  0  0  0  0  0
   -1.9608   -1.8590   -4.8243 H   0  0  0  0  0  0  0  0  0  0  0  0
  1 16  1  0  0  0  0
  2 15  1  0  0  0  0
  3  4  1  0  0  0  0
  4  2  1  0  0  0  0
  5  2  1  0  0  0  0
  6  5  1  0  0  0  0
  6  7  1  0  0  0  0
  8  6  2  0  0  0  0
  9  8  1  0  0  0  0
 10 12  2  0  0  0  0
 10  8  1  0  0  0  0
 11 10  1  0  0  0  0
 12 14  1  0  0  0  0
 13 12  1  0  0  0  0
 14  3  1  0  0  0  0
 14  5  2  0  0  0  0
 15 16  2  0  0  0  0
 15 23  1  0  0  0  0
 16 17  1  0  0  0  0
 17 18  1  0  0  0  0
 17 19  2  0  0  0  0
 19 20  1  0  0  0  0
 21 19  1  0  0  0  0
 21 22  1  0  0  0  0
 23 21  2  0  0  0  0
 24 23  1  0  0  0  0
 25 27  1  0  0  0  0
 25  3  1  0  0  0  0
 26 25  1  0  0  0  0
 28 25  1  0  0  0  0
 28 30  1  0  0  0  0
 29 28  1  0  0  0  0
 31 28  1  0  0  0  0
 31 33  1  0  0  0  0
 32 31  1  0  0  0  0
 34 31  1  0  0  0  0
 34 36  1  0  0  0  0
 35 34  1  0  0  0  0
 37 34  1  0  0  0  0
M  CHG  1   1  -1
M  END
