1,3
q = -1.0

 20 20  0  0  0  0  0  0  0  0999 V2000
   -1.1672    0.7683   -0.2896 O   0  5  0  0  0  0  0  0  0  0  0  0
   -3.7393    1.5415    0.0287 O   0  0  0  0  0  0  0  0  0  0  0  0
    0.2640   -0.6366   -2.1723 C   0  0  0  0  0  3  0  0  0  0  0  0
   -0.3557   -1.5720   -1.2551 C   0  0  0  0  0  3  0  0  0  0  0  0
   -1.7951   -1.4139   -0.9438 C   0  0  0  0  0  0  0  0  0  0  0  0
   -2.7881   -2.4052   -1.0596 C   0  0  0  0  0  0  0  0  0  0  0  0
   -2.5041   -3.4300   -1.3484 H   0  0  0  0  0  0  0  0  0  0  0  0
   -4.1323   -2.0750   -0.8312 C   0  0  0  0  0  0  0  0  0  0  0  0
   -4.9172   -2.8409   -0.9206 H   0  0  0  0  0  0  0  0  0  0  0  0
   -4.4909   -0.7526   -0.4920 C   0  0  0  0  0  0  0  0  0  0  0  0
   -5.5475   -0.5134   -0.3067 H   0  0  0  0  0  0  0  0  0  0  0  0
   -3.5074    0.2437   -0.3596 C   0  0  0  0  0  0  0  0  0  0  0  0
   -2.1357   -0.0934   -0.5547 C   0  0  0  0  0  0  0  0  0  0  0  0
   -5.0729    1.9195    0.2725 C   0  0  0  0  0  0  0  0  0  0  0  0
   -5.7162    1.8027   -0.6310 H   0  0  0  0  0  0  0  0  0  0  0  0
   -5.0551    2.9881    0.5612 H   0  0  0  0  0  0  0  0  0  0  0  0
   -5.5336    1.3316    1.1010 H   0  0  0  0  0  0  0  0  0  0  0  0
    0.0279   -2.6070   -1.2107 H   0  0  0  0  0  0  0  0  0  0  0  0
    1.0808   -1.0061   -2.8193 H   0  0  0  0  0  0  0  0  0  0  0  0
   -0.3819    0.0993   -2.6832 H   0  0  0  0  0  0  0  0  0  0  0  0
  2 14  1  0  0  0  0
  3  4  1  0  0  0  0
  4 18  1  0  0  0  0
  4  5  1  0  0  0  0
  5 13  1  0  0  0  0
  6  5  2  0  0  0  0
  6  8  1  0  0  0  0
  7  6  1  0  0  0  0
  8 10  2  0  0  0  0
  9  8  1  0  0  0  0
 10 12  1  0  0  0  0
 10 11  1  0  0  0  0
 12  2  1  0  0  0  0
 13 12  2  0  0  0  0
 13  1  1  0  0  0  0
 14 16  1  0  0  0  0
 14 17  1  0  0  0  0
 15 14  1  0  0  0  0
 19  3  1  0  0  0  0
 20  3  1  0  0  0  0
M  CHG  1   1  -1
M  END
