1,4
q = 0.0, confidence = 0.942

 21 21  0  0  0  0  0  0  0  0999 V2000
    1.5166    0.6543    0.2306 O   0  5  0  0  0  0  0  0  0  0  0  0
    2.2924   -0.3297   -0.2081 C   0  0  0  0  0  0  0  0  0  0  0  0
    2.2757   -0.5425   -1.6089 C   0  0  0  0  0  0  0  0  0  0  0  0
    1.6387    0.5486   -2.3741 C   0  0  0  0  0  3  0  0  0  0  0  0
    2.8622   -1.7486   -2.2901 C   0  0  0  0  0  0  0  0  0  0  0  0
    2.9876   -1.1522    0.8081 C   0  0  0  0  0  0  0  0  0  0  0  0
    2.3820   -1.3338    2.0713 C   0  0  0  0  0  0  0  0  0  0  0  0
    3.0290   -2.0752    3.0662 C   0  0  0  0  0  0  0  0  0  0  0  0
    4.2957   -2.6322    2.8212 C   0  0  0  0  0  0  0  0  0  0  0  0
    4.9137   -2.4417    1.5750 C   0  0  0  0  0  0  0  0  0  0  0  0
    4.2636   -1.7089    0.5724 C   0  0  0  0  0  0  0  0  0  0  0  0
    2.0159    1.5585   -2.1292 H   0  0  0  0  0  0  0  0  0  0  0  0
    1.5564    0.3673   -3.4587 H   0  0  0  0  0  0  0  0  0  0  0  0
    2.8640   -2.6451   -1.6402 H   0  0  0  0  0  0  0  0  0  0  0  0
    2.2964   -1.9851   -3.2122 H   0  0  0  0  0  0  0  0  0  0  0  0
    3.9100   -1.5521   -2.6046 H   0  0  0  0  0  0  0  0  0  0  0  0
    1.3865   -0.9020    2.2403 H   0  0  0  0  0  0  0  0  0  0  0  0
    2.5413   -2.2240    4.0416 H   0  0  0  0  0  0  0  0  0  0  0  0
    4.8049   -3.2129    3.6057 H   0  0  0  0  0  0  0  0  0  0  0  0
    5.9129   -2.8619    1.3844 H   0  0  0  0  0  0  0  0  0  0  0  0
    4.7647   -1.5404   -0.3909 H   0  0  0  0  0  0  0  0  0  0  0  0
  2  1  1  0  0  0  0
  2  6  1  0  0  0  0
  3  2  2  0  0  0  0
  4 12  1  0  0  0  0
  4  3  1  0  0  0  0
  5 14  1  0  0  0  0
  5  3  1  0  0  0  0
  6  7  1  0  0  0  0
  7 17  1  0  0  0  0
  7  8  2  0  0  0  0
  8 18  1  0  0  0  0
  9  8  1  0  0  0  0
  9 19  1  0  0  0  0
 10  9  2  0  0  0  0
 11  6  2  0  0  0  0
 11 10  1  0  0  0  0
 13  4  1  0  0  0  0
 15  5  1  0  0  0  0
 16  5  1  0  0  0  0
 20 10  1  0  0  0  0
 21 11  1  0  0  0  0
M  CHG  1   1  -1
M  END
