3,18
q = -1.0

 30 31  0  0  1  0  0  0  0  0999 V2000
   -1.0390    0.0855   -0.0368 C   0  0  2  0  0  3  0  0  0  0  0  0
   -0.3768    1.2125    0.1822 O   0  0  0  0  0  0  0  0  0  0  0  0
   -0.4861   -1.0292   -0.2534 O   0  0  0  0  0  1  0  0  0  0  0  0
    1.0055    1.3942    0.0700 C   0  0  0  0  0  0  0  0  0  0  0  0
    3.2998    0.7358   -0.2221 C   0  0  0  0  0  3  0  0  0  0  0  0
    4.0706   -0.0316   -0.3876 H   0  0  0  0  0  0  0  0  0  0  0  0
   -2.4967    0.2138   -0.0140 C   0  0  0  0  0  0  0  0  0  0  0  0
    3.6829    2.0836   -0.2189 C   0  0  0  0  0  0  0  0  0  0  0  0
    4.7453    2.3373   -0.3575 H   0  0  0  0  0  0  0  0  0  0  0  0
   -3.1194    1.4672    0.2013 C   0  0  0  0  0  0  0  0  0  0  0  0
   -2.5027    2.3626    0.3569 H   0  0  0  0  0  0  0  0  0  0  0  0
   -3.2999   -0.9335   -0.2117 C   0  0  0  0  0  0  0  0  0  0  0  0
   -2.8180   -1.9066   -0.3803 H   0  0  0  0  0  0  0  0  0  0  0  0
   -6.8222    0.5410    0.0134 C   0  0  0  0  0  0  0  0  0  0  0  0
   -7.3187   -0.4411    0.1257 H   0  0  0  0  0  0  0  0  0  0  0  0
   -7.1690    0.9835   -0.9454 H   0  0  0  0  0  0  0  0  0  0  0  0
   -7.1772    1.2130    0.8198 H   0  0  0  0  0  0  0  0  0  0  0  0
    1.9509    0.3629   -0.0524 C   0  0  0  0  0  2  0  0  0  0  0  0
   -5.3252    0.4194    0.0192 C   0  0  0  0  0  0  0  0  0  0  0  0
   -4.6906   -0.8256   -0.1943 C   0  0  0  0  0  0  0  0  0  0  0  0
   -5.3071   -1.7241   -0.3481 H   0  0  0  0  0  0  0  0  0  0  0  0
    2.7342    3.1162   -0.0530 C   0  0  0  0  0  0  0  0  0  0  0  0
    1.3878    2.7470    0.0854 C   0  0  0  0  0  0  0  0  0  0  0  0
    0.6005    3.5076    0.1950 H   0  0  0  0  0  0  0  0  0  0  0  0
    3.1567    4.5613   -0.0356 C   0  0  0  0  0  0  0  0  0  0  0  0
    3.8009    4.7743    0.8426 H   0  0  0  0  0  0  0  0  0  0  0  0
    2.2881    5.2446    0.0075 H   0  0  0  0  0  0  0  0  0  0  0  0
    3.7500    4.8145   -0.9376 H   0  0  0  0  0  0  0  0  0  0  0  0
   -4.5105    1.5588    0.2187 C   0  0  0  0  0  0  0  0  0  0  0  0
   -4.9849    2.5370    0.3910 H   0  0  0  0  0  0  0  0  0  0  0  0
  1  3  1  6  0  0  0
  1  7  1  0  0  0  0
  1  2  1  0  0  0  0
  4 23  2  0  0  0  0
  4  2  1  0  0  0  0
  5  8  1  0  0  0  0
  5 18  1  0  0  0  0
  6  5  1  0  0  0  0
  7 10  1  0  0  0  0
  8 22  2  0  0  0  0
  9  8  1  0  0  0  0
 10 29  2  0  0  0  0
 10 11  1  0  0  0  0
 12 20  1  0  0  0  0
 12  7  2  0  0  0  0
 13 12  1  0  0  0  0
 14 19  1  0  0  0  0
 14 15  1  0  0  0  0
 14 17  1  0  0  0  0
 16 14  1  0  0  0  0
 18  4  1  0  0  0  0
 19 29  1  0  0  0  0
 20 19  2  0  0  0  0
 21 20  1  0  0  0  0
 22 25  1  0  0  0  0
 22 23  1  0  0  0  0
 23 24  1  0  0  0  0
 25 27  1  0  0  0  0
 25 26  1  0  0  0  0
 28 25  1  0  0  0  0
 29 30  1  0  0  0  0
M  END
