1,3
q = -2.0, confidence = 0.59

 42 43  0  0  0  0  0  0  0  0999 V2000
    1.9471    0.5898   -0.6572 O   0  0  0  0  0  1  0  0  0  0  0  0
    1.6501    1.7182    0.1308 N   0  0  0  0  0  0  0  0  0  0  0  0
   -0.6555   -0.2493    0.1151 C   0  0  0  0  0  3  0  0  0  0  0  0
   -0.8201    1.1072    0.0462 C   0  0  0  0  0  0  0  0  0  0  0  0
    0.2844    2.1296   -0.1771 C   0  0  0  0  0  0  0  0  0  0  0  0
   -1.8309   -1.1543    0.0554 C   0  0  0  0  0  0  0  0  0  0  0  0
   -2.6958   -1.0803   -1.0684 C   0  0  0  0  0  0  0  0  0  0  0  0
   -3.7709   -1.9622   -1.2312 C   0  0  0  0  0  0  0  0  0  0  0  0
   -4.0305   -2.9507   -0.2679 C   0  0  0  0  0  0  0  0  0  0  0  0
   -3.1966   -3.0371    0.8577 C   0  0  0  0  0  0  0  0  0  0  0  0
   -2.1123   -2.1605    1.0124 C   0  0  0  0  0  0  0  0  0  0  0  0
   -2.1702    1.7518    0.1193 C   0  0  0  0  0  0  0  0  0  0  0  0
   -3.0854    1.3977    1.1376 C   0  0  0  0  0  0  0  0  0  0  0  0
   -4.3470    1.9996    1.2214 C   0  0  0  0  0  0  0  0  0  0  0  0
   -4.7290    2.9787    0.2897 C   0  0  0  0  0  0  0  0  0  0  0  0
   -3.8299    3.3527   -0.7207 C   0  0  0  0  0  0  0  0  0  0  0  0
   -2.5648    2.7522   -0.8005 C   0  0  0  0  0  0  0  0  0  0  0  0
    2.6994    2.7600   -0.1272 C   0  0  0  0  0  0  0  0  0  0  0  0
    4.0447    2.1642    0.3196 C   0  0  0  0  0  0  0  0  0  0  0  0
    2.7809    3.1514   -1.6161 C   0  0  0  0  0  0  0  0  0  0  0  0
    2.3907    3.9910    0.7403 C   0  0  0  0  0  0  0  0  0  0  0  0
    0.0670    3.0156    0.4509 H   0  0  0  0  0  0  0  0  0  0  0  0
    0.2010    2.4760   -1.2417 H   0  0  0  0  0  0  0  0  0  0  0  0
   -2.5110   -0.3000   -1.8219 H   0  0  0  0  0  0  0  0  0  0  0  0
   -4.4169   -1.8725   -2.1184 H   0  0  0  0  0  0  0  0  0  0  0  0
   -4.8755   -3.6446   -0.3920 H   0  0  0  0  0  0  0  0  0  0  0  0
   -3.3902   -3.7987    1.6292 H   0  0  0  0  0  0  0  0  0  0  0  0
   -1.4814   -2.2573    1.9048 H   0  0  0  0  0  0  0  0  0  0  0  0
   -2.7918    0.6345    1.8724 H   0  0  0  0  0  0  0  0  0  0  0  0
   -5.0387    1.7030    2.0249 H   0  0  0  0  0  0  0  0  0  0  0  0
   -5.7215    3.4503    0.3532 H   0  0  0  0  0  0  0  0  0  0  0  0
   -4.1167    4.1179   -1.4589 H   0  0  0  0  0  0  0  0  0  0  0  0
   -1.8805    3.0494   -1.6096 H   0  0  0  0  0  0  0  0  0  0  0  0
    4.0282    1.9255    1.4016 H   0  0  0  0  0  0  0  0  0  0  0  0
    4.2621    1.2377   -0.2440 H   0  0  0  0  0  0  0  0  0  0  0  0
    4.8623    2.8890    0.1366 H   0  0  0  0  0  0  0  0  0  0  0  0
    3.6164    3.8597   -1.7836 H   0  0  0  0  0  0  0  0  0  0  0  0
    2.9533    2.2518   -2.2382 H   0  0  0  0  0  0  0  0  0  0  0  0
    1.8520    3.6446   -1.9660 H   0  0  0  0  0  0  0  0  0  0  0  0
    1.5136    4.5605    0.3755 H   0  0  0  0  0  0  0  0  0  0  0  0
    2.2046    3.6931    1.7920 H   0  0  0  0  0  0  0  0  0  0  0  0
    3.2587    4.6793    0.7264 H   0  0  0  0  0  0  0  0  0  0  0  0
  1  2  1  0  0  0  0
  4  3  2  0  0  0  0
  4 12  1  0  0  0  0
  5  4  1  0  0  0  0
  5  2  1  0  0  0  0
  5 22  1  0  0  0  0
  6  3  1  0  0  0  0
  6 11  1  0  0  0  0
  7  6  2  0  0  0  0
  8  7  1  0  0  0  0
  8  9  2  0  0  0  0
  9 10  1  0  0  0  0
 10 11  2  0  0  0  0
 10 27  1  0  0  0  0
 11 28  1  0  0  0  0
 12 13  1  0  0  0  0
 13 14  2  0  0  0  0
 13 29  1  0  0  0  0
 14 30  1  0  0  0  0
 15 31  1  0  0  0  0
 15 14  1  0  0  0  0
 16 15  2  0  0  0  0
 17 16  1  0  0  0  0
 17 12  2  0  0  0  0
 18  2  1  0  0  0  0
 18 19  1  0  0  0  0
 18 21  1  0  0  0  0
 19 34  1  0  0  0  0
 20 18  1  0  0  0  0
 21 41  1  0  0  0  0
 23  5  1  0  0  0  0
 24  7  1  0  0  0  0
 25  8  1  0  0  0  0
 26  9  1  0  0  0  0
 32 16  1  0  0  0  0
 33 17  1  0  0  0  0
 35 19  1  0  0  0  0
 36 19  1  0  0  0  0
 37 20  1  0  0  0  0
 38 20  1  0  0  0  0
 39 20  1  0  0  0  0
 40 21  1  0  0  0  0
 42 21  1  0  0  0  0
M  END
