1,3
q = 0.0, confidence = 0.964

 32 33  0  0  0  0  0  0  0  0999 V2000
    0.3545    0.6881   -1.4694 O   0  5  0  0  0  0  0  0  0  0  0  0
    0.5329   -0.3555   -0.6980 C   0  0  0  0  0  0  0  0  0  0  0  0
   -0.6839   -1.0268   -0.2918 C   0  0  0  0  0  3  0  0  0  0  0  0
   -1.8914   -0.5505   -0.9014 C   0  0  0  0  0  3  0  0  0  0  0  0
    1.8621   -0.7910   -0.2632 C   0  0  0  0  0  0  0  0  0  0  0  0
    2.9870   -0.1524   -0.6836 C   0  0  0  0  0  3  0  0  0  0  0  0
   -3.2472   -0.9990   -0.5413 C   0  0  0  0  0  0  0  0  0  0  0  0
   -3.5319   -1.7457    0.6262 C   0  0  0  0  0  0  0  0  0  0  0  0
   -4.8410   -2.1471    0.9202 C   0  0  0  0  0  0  0  0  0  0  0  0
   -5.8981   -1.8093    0.0591 C   0  0  0  0  0  0  0  0  0  0  0  0
   -5.6327   -1.0658   -1.1024 C   0  0  0  0  0  0  0  0  0  0  0  0
   -4.3235   -0.6671   -1.3977 C   0  0  0  0  0  0  0  0  0  0  0  0
    4.3731   -0.4777   -0.3601 C   0  0  0  0  0  0  0  0  0  0  0  0
    5.4065    0.3279   -0.8987 C   0  0  0  0  0  0  0  0  0  0  0  0
    6.7524    0.0632   -0.6171 C   0  0  0  0  0  0  0  0  0  0  0  0
    7.0973   -1.0166    0.2106 C   0  0  0  0  0  0  0  0  0  0  0  0
    6.0847   -1.8284    0.7538 C   0  0  0  0  0  0  0  0  0  0  0  0
    4.7411   -1.5640    0.4734 C   0  0  0  0  0  0  0  0  0  0  0  0
   -0.6567   -1.8216    0.4686 H   0  0  0  0  0  0  0  0  0  0  0  0
   -1.7725   -0.1631   -1.9272 H   0  0  0  0  0  0  0  0  0  0  0  0
    1.9015   -1.6708    0.3987 H   0  0  0  0  0  0  0  0  0  0  0  0
    2.8291    0.7159   -1.3469 H   0  0  0  0  0  0  0  0  0  0  0  0
   -2.7217   -2.0132    1.3207 H   0  0  0  0  0  0  0  0  0  0  0  0
   -5.0391   -2.7276    1.8340 H   0  0  0  0  0  0  0  0  0  0  0  0
   -6.9261   -2.1235    0.2942 H   0  0  0  0  0  0  0  0  0  0  0  0
   -6.4532   -0.7946   -1.7840 H   0  0  0  0  0  0  0  0  0  0  0  0
   -4.1181   -0.0818   -2.3077 H   0  0  0  0  0  0  0  0  0  0  0  0
    5.1352    1.1753   -1.5476 H   0  0  0  0  0  0  0  0  0  0  0  0
    7.5381    0.7034   -1.0461 H   0  0  0  0  0  0  0  0  0  0  0  0
    8.1540   -1.2280    0.4340 H   0  0  0  0  0  0  0  0  0  0  0  0
    6.3499   -2.6765    1.4033 H   0  0  0  0  0  0  0  0  0  0  0  0
    3.9622   -2.2092    0.9063 H   0  0  0  0  0  0  0  0  0  0  0  0
  1  2  1  0  0  0  0
  2  3  1  0  0  0  0
  2  5  2  0  0  0  0
  3 19  1  0  0  0  0
  4  7  1  0  0  0  0
  4  3  1  0  0  0  0
  5 21  1  0  0  0  0
  6 13  1  0  0  0  0
  6  5  1  0  0  0  0
  7  8  1  0  0  0  0
  8  9  2  0  0  0  0
  8 23  1  0  0  0  0
  9 24  1  0  0  0  0
 10 25  1  0  0  0  0
 10  9  1  0  0  0  0
 11 10  2  0  0  0  0
 12 11  1  0  0  0  0
 12  7  2  0  0  0  0
 13 18  1  0  0  0  0
 14 15  1  0  0  0  0
 14 13  2  0  0  0  0
 15 16  2  0  0  0  0
 16 30  1  0  0  0  0
 16 17  1  0  0  0  0
 17 31  1  0  0  0  0
 18 17  2  0  0  0  0
 18 32  1  0  0  0  0
 20  4  1  0  0  0  0
 22  6  1  0  0  0  0
 26 11  1  0  0  0  0
 27 12  1  0  0  0  0
 28 14  1  0  0  0  0
 29 15  1  0  0  0  0
M  CHG  1   1  -1
M  END
