3
q = -2.0, confidence = 0.962

 62 64  0  0  1  0  0  0  0  0999 V2000
   -3.4327    1.2865   -0.9289 S   0  0  0  0  0  0  0  0  0  0  0  0
    0.2034    2.1380    0.2033 Si  0  0  0  0  0  0  0  0  0  0  0  0
    0.9460   -0.8274   -0.2796 O   0  5  0  0  0  0  0  0  0  0  0  0
   -1.0690    0.8993    0.8385 C   0  0  2  0  0  3  0  0  0  0  0  0
   -0.9100   -0.0700    1.9103 C   0  0  0  0  0  0  0  0  0  0  0  0
   -2.0402   -0.9545    1.9427 C   0  0  0  0  0  0  0  0  0  0  0  0
   -2.9446   -0.5208    0.9138 C   0  0  0  0  0  0  0  0  0  0  0  0
   -2.3605    0.6227    0.2769 C   0  0  0  0  0  0  0  0  0  0  0  0
    0.2649   -0.1611    2.8396 C   0  0  0  0  0  0  0  0  0  0  0  0
    0.0105    0.2807    3.8267 H   0  0  0  0  0  0  0  0  0  0  0  0
    1.1427    0.3844    2.4456 H   0  0  0  0  0  0  0  0  0  0  0  0
    0.5684   -1.2125    3.0163 H   0  0  0  0  0  0  0  0  0  0  0  0
   -2.2981   -2.0432    2.9344 C   0  0  0  0  0  0  0  0  0  0  0  0
   -2.8544   -1.6400    3.8081 H   0  0  0  0  0  0  0  0  0  0  0  0
   -1.3572   -2.4914    3.3051 H   0  0  0  0  0  0  0  0  0  0  0  0
   -2.8992   -2.8574    2.4874 H   0  0  0  0  0  0  0  0  0  0  0  0
   -4.2208   -0.8745    0.3551 C   0  0  0  0  0  0  0  0  0  0  0  0
   -4.8270   -1.7352    0.6666 H   0  0  0  0  0  0  0  0  0  0  0  0
   -4.6147   -0.0015   -0.6345 C   0  0  0  0  0  0  0  0  0  0  0  0
    1.9068    1.3154    0.1435 C   0  0  0  0  0  0  0  0  0  0  0  0
    2.0560   -0.0679   -0.1363 C   0  0  0  0  0  0  0  0  0  0  0  0
    3.3408   -0.6780   -0.2666 C   0  0  0  0  0  0  0  0  0  0  0  0
    4.4534    0.1644   -0.0983 C   0  0  0  0  0  0  0  0  0  0  0  0
    5.4604   -0.2653   -0.1918 H   0  0  0  0  0  0  0  0  0  0  0  0
    4.3536    1.5411    0.1887 C   0  0  0  0  0  0  0  0  0  0  0  0
    3.0690    2.0955    0.3069 C   0  0  0  0  0  0  0  0  0  0  0  0
    2.9754    3.1712    0.5295 H   0  0  0  0  0  0  0  0  0  0  0  0
    5.5959    2.3802    0.3515 C   0  0  0  0  0  0  0  0  0  0  0  0
    6.2576    1.9765    1.1461 H   0  0  0  0  0  0  0  0  0  0  0  0
    5.3495    3.4270    0.6154 H   0  0  0  0  0  0  0  0  0  0  0  0
    6.1959    2.4007   -0.5828 H   0  0  0  0  0  0  0  0  0  0  0  0
    3.5005   -2.1803   -0.5668 C   0  0  0  0  0  0  0  0  0  0  0  0
    4.9827   -2.5819   -0.6882 C   0  0  0  0  0  0  0  0  0  0  0  0
    5.5430   -2.4048    0.2522 H   0  0  0  0  0  0  0  0  0  0  0  0
    5.4967   -2.0401   -1.5079 H   0  0  0  0  0  0  0  0  0  0  0  0
    5.0488   -3.6649   -0.9136 H   0  0  0  0  0  0  0  0  0  0  0  0
    2.8854   -3.0065    0.5875 C   0  0  0  0  0  0  0  0  0  0  0  0
    3.3777   -2.7583    1.5502 H   0  0  0  0  0  0  0  0  0  0  0  0
    3.0344   -4.0895    0.3975 H   0  0  0  0  0  0  0  0  0  0  0  0
    1.7988   -2.8371    0.6915 H   0  0  0  0  0  0  0  0  0  0  0  0
    2.8121   -2.5279   -1.9088 C   0  0  0  0  0  0  0  0  0  0  0  0
    2.9280   -3.6106   -2.1214 H   0  0  0  0  0  0  0  0  0  0  0  0
    3.2787   -1.9645   -2.7424 H   0  0  0  0  0  0  0  0  0  0  0  0
    1.7321   -2.2964   -1.8997 H   0  0  0  0  0  0  0  0  0  0  0  0
    0.2458    3.6375    1.3688 C   0  0  0  0  0  0  0  0  0  0  0  0
    0.6158    3.2894    2.3577 H   0  0  0  0  0  0  0  0  0  0  0  0
    1.0054    4.3604    0.9986 H   0  0  0  0  0  0  0  0  0  0  0  0
   -1.1219    4.3206    1.5073 C   0  0  0  0  0  0  0  0  0  0  0  0
   -1.0931    5.1713    2.2189 H   0  0  0  0  0  0  0  0  0  0  0  0
   -1.8953    3.6111    1.8680 H   0  0  0  0  0  0  0  0  0  0  0  0
   -1.4791    4.7190    0.5352 H   0  0  0  0  0  0  0  0  0  0  0  0
   -0.3034    2.6522   -1.5522 C   0  0  0  0  0  0  0  0  0  0  0  0
   -0.4387    1.7221   -2.1457 H   0  0  0  0  0  0  0  0  0  0  0  0
   -1.3075    3.1294   -1.5048 H   0  0  0  0  0  0  0  0  0  0  0  0
    0.7051    3.5917   -2.2262 C   0  0  0  0  0  0  0  0  0  0  0  0
    1.7107    3.1274   -2.2878 H   0  0  0  0  0  0  0  0  0  0  0  0
    0.8192    4.5441   -1.6670 H   0  0  0  0  0  0  0  0  0  0  0  0
    0.3968    3.8546   -3.2589 H   0  0  0  0  0  0  0  0  0  0  0  0
   -5.8511   -0.0501   -1.4732 C   0  0  0  0  0  0  0  0  0  0  0  0
   -6.5304   -0.8429   -1.1061 H   0  0  0  0  0  0  0  0  0  0  0  0
   -5.6053   -0.2721   -2.5331 H   0  0  0  0  0  0  0  0  0  0  0  0
   -6.4015    0.9133   -1.4567 H   0  0  0  0  0  0  0  0  0  0  0  0
  1 19  1  0  0  0  0
  1  8  1  0  0  0  0
  2 45  1  0  0  0  0
  3 21  1  0  0  0  0
  4  2  1  6  0  0  0
  4  5  1  0  0  0  0
  5  6  2  0  0  0  0
  5  9  1  0  0  0  0
  6 13  1  0  0  0  0
  7  6  1  0  0  0  0
  8  4  1  0  0  0  0
  8  7  2  0  0  0  0
  9 12  1  0  0  0  0
  9 10  1  0  0  0  0
 11  9  1  0  0  0  0
 13 15  1  0  0  0  0
 13 14  1  0  0  0  0
 16 13  1  0  0  0  0
 17 18  1  0  0  0  0
 17  7  1  0  0  0  0
 19 17  2  0  0  0  0
 20  2  1  0  0  0  0
 20 26  1  0  0  0  0
 21 20  2  0  0  0  0
 22 21  1  0  0  0  0
 22 23  2  0  0  0  0
 23 25  1  0  0  0  0
 24 23  1  0  0  0  0
 25 26  2  0  0  0  0
 25 28  1  0  0  0  0
 26 27  1  0  0  0  0
 28 30  1  0  0  0  0
 28 29  1  0  0  0  0
 31 28  1  0  0  0  0
 32 22  1  0  0  0  0
 32 37  1  0  0  0  0
 33 32  1  0  0  0  0
 33 34  1  0  0  0  0
 35 33  1  0  0  0  0
 36 33  1  0  0  0  0
 37 40  1  0  0  0  0
 37 38  1  0  0  0  0
 39 37  1  0  0  0  0
 41 44  1  0  0  0  0
 41 32  1  0  0  0  0
 42 41  1  0  0  0  0
 43 41  1  0  0  0  0
 45 48  1  0  0  0  0
 45 46  1  0  0  0  0
 47 45  1  0  0  0  0
 48 50  1  0  0  0  0
 48 49  1  0  0  0  0
 51 48  1  0  0  0  0
 52 54  1  0  0  0  0
 52  2  1  0  0  0  0
 53 52  1  0  0  0  0
 55 57  1  0  0  0  0
 55 52  1  0  0  0  0
 56 55  1  0  0  0  0
 58 55  1  0  0  0  0
 59 62  1  0  0  0  0
 59 60  1  0  0  0  0
 59 19  1  0  0  0  0
 61 59  1  0  0  0  0
M  CHG  1   3  -1
M  END
