1,8
q = -1.0, confidence = 0.032

 30 30  0  0  1  0  0  0  0  0999 V2000
    0.7718   -1.7438    0.9064 S   0  0  0  0  0  1  0  0  0  0  0  0
    1.9453   -0.4994   -1.4433 S   0  0  0  0  0  0  0  0  0  0  0  0
    3.4626   -1.5879    0.6319 N   0  0  0  0  0  0  0  0  0  0  0  0
    3.6384   -2.0234    2.0291 C   0  0  0  0  0  0  0  0  0  0  0  0
    2.2422   -1.3782    0.1447 C   0  0  1  0  0  3  0  0  0  0  0  0
    4.6816   -1.3806   -0.1762 C   0  0  0  0  0  0  0  0  0  0  0  0
    2.8987    0.8429   -1.3585 N   0  0  0  0  0  2  0  0  0  0  0  0
    0.4529    1.2027    0.2271 N   0  0  0  0  0  1  0  0  0  0  0  0
    5.0582   -2.6284   -0.9710 C   0  0  0  0  0  0  0  0  0  0  0  0
    3.7070   -0.8259    2.9753 C   0  0  0  0  0  0  0  0  0  0  0  0
    1.5656    2.8709    1.5584 C   0  0  0  0  0  0  0  0  0  0  0  0
    2.6796    3.6683    1.8075 C   0  0  0  0  0  0  0  0  0  0  0  0
    3.8229    3.5302    0.9882 C   0  0  0  0  0  0  0  0  0  0  0  0
    3.8556    2.5956   -0.0459 C   0  0  0  0  0  0  0  0  0  0  0  0
    2.7583    1.7300   -0.3192 C   0  0  0  0  0  0  0  0  0  0  0  0
    1.5735    1.9093    0.5114 C   0  0  0  0  0  0  0  0  0  0  0  0
    4.5642   -2.6321    2.0677 H   0  0  0  0  0  0  0  0  0  0  0  0
    2.7952   -2.6921    2.2940 H   0  0  0  0  0  0  0  0  0  0  0  0
    5.4851   -1.0952    0.5322 H   0  0  0  0  0  0  0  0  0  0  0  0
    4.5036   -0.5108   -0.8429 H   0  0  0  0  0  0  0  0  0  0  0  0
    5.9943   -2.4450   -1.5346 H   0  0  0  0  0  0  0  0  0  0  0  0
    5.2207   -3.5075   -0.3144 H   0  0  0  0  0  0  0  0  0  0  0  0
    4.2644   -2.8805   -1.7019 H   0  0  0  0  0  0  0  0  0  0  0  0
    3.8527   -1.1707    4.0181 H   0  0  0  0  0  0  0  0  0  0  0  0
    4.5451   -0.1501    2.7123 H   0  0  0  0  0  0  0  0  0  0  0  0
    2.7678   -0.2402    2.9276 H   0  0  0  0  0  0  0  0  0  0  0  0
    0.6451    2.9652    2.1526 H   0  0  0  0  0  0  0  0  0  0  0  0
    2.6631    4.4036    2.6250 H   0  0  0  0  0  0  0  0  0  0  0  0
    4.7038    4.1662    1.1664 H   0  0  0  0  0  0  0  0  0  0  0  0
    4.7426    2.4902   -0.6879 H   0  0  0  0  0  0  0  0  0  0  0  0
  2  7  1  0  0  0  0
  2  5  1  0  0  0  0
  3  4  1  0  0  0  0
  4 17  1  0  0  0  0
  4 18  1  0  0  0  0
  4 10  1  0  0  0  0
  5  3  1  0  0  0  0
  5  1  1  1  0  0  0
  6 19  1  0  0  0  0
  6  3  1  0  0  0  0
  7 15  1  0  0  0  0
  8 16  1  0  0  0  0
  9 22  1  0  0  0  0
  9  6  1  0  0  0  0
 10 24  1  0  0  0  0
 11 12  1  0  0  0  0
 11 27  1  0  0  0  0
 12 28  1  0  0  0  0
 13 29  1  0  0  0  0
 13 12  2  0  0  0  0
 14 13  1  0  0  0  0
 15 14  2  0  0  0  0
 15 16  1  0  0  0  0
 16 11  2  0  0  0  0
 20  6  1  0  0  0  0
 21  9  1  0  0  0  0
 23  9  1  0  0  0  0
 25 10  1  0  0  0  0
 26 10  1  0  0  0  0
 30 14  1  0  0  0  0
M  END
