1,2
q = -1.0

 12 12  0  0  0  0  0  0  0  0999 V2000
    0.6900    1.6924    1.5476 S   0  0  0  0  0  1  0  0  0  0  0  0
   -1.1949    1.6817   -0.5074 N   0  0  0  0  0  1  0  0  0  0  0  0
   -0.8644    2.9552   -0.2032 C   0  0  0  0  0  0  0  0  0  0  0  0
   -1.4692    4.0952   -0.8117 C   0  0  0  0  0  0  0  0  0  0  0  0
   -1.0748    5.3759   -0.4364 C   0  0  0  0  0  0  0  0  0  0  0  0
   -0.0949    5.5638    0.5714 C   0  0  0  0  0  0  0  0  0  0  0  0
    0.4963    4.4684    1.2058 C   0  0  0  0  0  0  0  0  0  0  0  0
    0.1229    3.1619    0.8248 C   0  0  0  0  0  0  0  0  0  0  0  0
   -2.2317    3.9290   -1.5872 H   0  0  0  0  0  0  0  0  0  0  0  0
   -1.5293    6.2530   -0.9219 H   0  0  0  0  0  0  0  0  0  0  0  0
    0.2001    6.5840    0.8608 H   0  0  0  0  0  0  0  0  0  0  0  0
    1.2509    4.6122    1.9938 H   0  0  0  0  0  0  0  0  0  0  0  0
  2  3  1  0  0  0  0
  3  8  1  0  0  0  0
  4  5  1  0  0  0  0
  4  3  2  0  0  0  0
  5  6  2  0  0  0  0
  6 11  1  0  0  0  0
  6  7  1  0  0  0  0
  7 12  1  0  0  0  0
  8  7  2  0  0  0  0
  8  1  1  0  0  0  0
  9  4  1  0  0  0  0
 10  5  1  0  0  0  0
M  END
