1,2
q = 0.0, confidence = 0.958

 42 47  0  0  0  0  0  0  0  0999 V2000
    2.3116    1.6308    0.0348 Si  0  0  0  0  0  3  0  0  0  0  0  0
   -0.6786    1.3651   -0.4704 Si  0  0  0  0  0  0  0  0  0  0  0  0
   -2.1820    1.2556    1.3542 Si  0  0  0  0  0  0  0  0  0  0  0  0
   -2.5669    1.0548   -1.8441 Si  0  0  0  0  0  0  0  0  0  0  0  0
    1.3358    3.2651   -0.1265 C   0  0  0  0  0  0  0  0  0  0  0  0
    1.9047    4.5486    0.0209 C   0  0  0  0  0  0  0  0  0  0  0  0
    1.1467    5.7023   -0.2319 C   0  0  0  0  0  0  0  0  0  0  0  0
   -0.1937    5.5839   -0.6420 C   0  0  0  0  0  0  0  0  0  0  0  0
   -0.7763    4.3155   -0.7829 C   0  0  0  0  0  0  0  0  0  0  0  0
   -0.0234    3.1513   -0.5149 C   0  0  0  0  0  0  0  0  0  0  0  0
    3.4270    1.7911    1.5837 C   0  0  0  0  0  0  0  0  0  0  0  0
    3.4935    1.6620   -1.4737 C   0  0  0  0  0  0  0  0  0  0  0  0
   -3.4737    0.0175    0.6796 C   0  0  0  0  0  0  0  0  0  0  0  0
   -4.2450   -0.8217    1.5128 C   0  0  0  0  0  0  0  0  0  0  0  0
   -5.1661   -1.7350    0.9744 C   0  0  0  0  0  0  0  0  0  0  0  0
   -5.3353   -1.8176   -0.4177 C   0  0  0  0  0  0  0  0  0  0  0  0
   -4.5860   -0.9825   -1.2627 C   0  0  0  0  0  0  0  0  0  0  0  0
   -3.6518   -0.0635   -0.7357 C   0  0  0  0  0  0  0  0  0  0  0  0
   -1.4688    0.6655    3.0125 C   0  0  0  0  0  0  0  0  0  0  0  0
   -3.0456    2.9269    1.6352 C   0  0  0  0  0  0  0  0  0  0  0  0
    2.9602    4.6555    0.3253 H   0  0  0  0  0  0  0  0  0  0  0  0
    1.6017    6.6992   -0.1192 H   0  0  0  0  0  0  0  0  0  0  0  0
   -0.7874    6.4885   -0.8487 H   0  0  0  0  0  0  0  0  0  0  0  0
   -1.8295    4.2326   -1.0966 H   0  0  0  0  0  0  0  0  0  0  0  0
    4.2488    1.0454    1.5790 H   0  0  0  0  0  0  0  0  0  0  0  0
    2.8495    1.6641    2.5218 H   0  0  0  0  0  0  0  0  0  0  0  0
    3.8981    2.7965    1.6115 H   0  0  0  0  0  0  0  0  0  0  0  0
    2.9168    1.5995   -2.4185 H   0  0  0  0  0  0  0  0  0  0  0  0
    4.2315    0.8357   -1.4654 H   0  0  0  0  0  0  0  0  0  0  0  0
    4.0530    2.6217   -1.4815 H   0  0  0  0  0  0  0  0  0  0  0  0
   -4.1164   -0.7735    2.6071 H   0  0  0  0  0  0  0  0  0  0  0  0
   -5.7516   -2.3878    1.6410 H   0  0  0  0  0  0  0  0  0  0  0  0
   -6.0524   -2.5356   -0.8456 H   0  0  0  0  0  0  0  0  0  0  0  0
   -4.7248   -1.0565   -2.3542 H   0  0  0  0  0  0  0  0  0  0  0  0
   -0.9579   -0.3104    2.8962 H   0  0  0  0  0  0  0  0  0  0  0  0
   -2.2486    0.5701    3.7969 H   0  0  0  0  0  0  0  0  0  0  0  0
   -0.7156    1.3979    3.3689 H   0  0  0  0  0  0  0  0  0  0  0  0
   -3.5814    3.2494    0.7201 H   0  0  0  0  0  0  0  0  0  0  0  0
   -2.3033    3.7113    1.8880 H   0  0  0  0  0  0  0  0  0  0  0  0
   -3.7844    2.8554    2.4609 H   0  0  0  0  0  0  0  0  0  0  0  0
   -2.4441    0.3981   -3.2021 H   0  0  0  0  0  0  0  0  0  0  0  0
   -3.2996    2.3570   -2.0966 H   0  0  0  0  0  0  0  0  0  0  0  0
  1 11  1  0  0  0  0
  2  3  1  0  0  0  0
  2  5  1  0  0  0  0
  2  9  1  0  0  0  0
  3 20  1  0  0  0  0
  3 19  1  0  0  0  0
  4 18  1  0  0  0  0
  4  2  1  0  0  0  0
  4 13  1  0  0  0  0
  5  6  1  0  0  0  0
  5  1  1  0  0  0  0
  6 21  1  0  0  0  0
  7 22  1  0  0  0  0
  7  6  2  0  0  0  0
  8  7  1  0  0  0  0
  9  8  2  0  0  0  0
  9 10  1  0  0  0  0
 10  2  1  0  0  0  0
 10  5  2  0  0  0  0
 11 27  1  0  0  0  0
 11 26  1  0  0  0  0
 12 29  1  0  0  0  0
 12  1  1  0  0  0  0
 13  3  1  0  0  0  0
 13 14  1  0  0  0  0
 14 31  1  0  0  0  0
 15 14  2  0  0  0  0
 15 32  1  0  0  0  0
 16 15  1  0  0  0  0
 17 18  1  0  0  0  0
 17 16  2  0  0  0  0
 18 13  2  0  0  0  0
 19 37  1  0  0  0  0
 19 36  1  0  0  0  0
 20 39  1  0  0  0  0
 20 40  1  0  0  0  0
 23  8  1  0  0  0  0
 24  9  1  0  0  0  0
 25 11  1  0  0  0  0
 28 12  1  0  0  0  0
 30 12  1  0  0  0  0
 33 16  1  0  0  0  0
 34 17  1  0  0  0  0
 35 19  1  0  0  0  0
 38 20  1  0  0  0  0
 41  4  1  0  0  0  0
 42  4  1  0  0  0  0
M  ZBO  3   3   0   4   0   9   0
M  END
