1,2
q = 0.0, confidence = 0.954

 22 22  0  0  0  0  0  0  0  0999 V2000
   -1.8627    1.1908   -0.0288 Si  0  0  0  0  0  3  0  0  0  0  0  0
   -1.3455   -1.8673    0.0734 Si  0  0  0  0  0  3  0  0  0  0  0  0
   -3.4027    0.0529   -0.0515 C   0  0  0  0  0  0  0  0  0  0  0  0
   -4.7303    0.5324   -0.1115 C   0  0  0  0  0  0  0  0  0  0  0  0
   -5.8166   -0.3549   -0.0988 C   0  0  0  0  0  0  0  0  0  0  0  0
   -5.5889   -1.7409   -0.0234 C   0  0  0  0  0  0  0  0  0  0  0  0
   -4.2762   -2.2317    0.0366 C   0  0  0  0  0  0  0  0  0  0  0  0
   -3.1771   -1.3455    0.0214 C   0  0  0  0  0  0  0  0  0  0  0  0
   -2.0219    2.3633   -1.5380 C   0  0  0  0  0  0  0  0  0  0  0  0
   -2.0842    2.3152    1.5081 C   0  0  0  0  0  0  0  0  0  0  0  0
   -1.1195   -2.8542   -1.0672 H   0  0  0  0  0  0  0  0  0  0  0  0
   -1.1350   -2.7473    1.3023 H   0  0  0  0  0  0  0  0  0  0  0  0
   -4.9243    1.6176   -0.1682 H   0  0  0  0  0  0  0  0  0  0  0  0
   -6.8474    0.0311   -0.1471 H   0  0  0  0  0  0  0  0  0  0  0  0
   -6.4413   -2.4388   -0.0127 H   0  0  0  0  0  0  0  0  0  0  0  0
   -4.1073   -3.3201    0.0935 H   0  0  0  0  0  0  0  0  0  0  0  0
   -3.0415    2.8021   -1.5842 H   0  0  0  0  0  0  0  0  0  0  0  0
   -1.2999    3.2046   -1.4743 H   0  0  0  0  0  0  0  0  0  0  0  0
   -1.8411    1.8257   -2.4909 H   0  0  0  0  0  0  0  0  0  0  0  0
   -3.0956    2.7753    1.4974 H   0  0  0  0  0  0  0  0  0  0  0  0
   -1.3398    3.1371    1.5366 H   0  0  0  0  0  0  0  0  0  0  0  0
   -1.9901    1.7320    2.4465 H   0  0  0  0  0  0  0  0  0  0  0  0
  1 10  1  0  0  0  0
  2 12  1  0  0  0  0
  3  1  1  0  0  0  0
  3  8  1  0  0  0  0
  4  5  1  0  0  0  0
  4  3  2  0  0  0  0
  5  6  2  0  0  0  0
  6 15  1  0  0  0  0
  6  7  1  0  0  0  0
  7 16  1  0  0  0  0
  8  7  2  0  0  0  0
  8  2  1  0  0  0  0
  9 18  1  0  0  0  0
  9  1  1  0  0  0  0
 10 21  1  0  0  0  0
 10 22  1  0  0  0  0
 11  2  1  0  0  0  0
 13  4  1  0  0  0  0
 14  5  1  0  0  0  0
 17  9  1  0  0  0  0
 19  9  1  0  0  0  0
 20 10  1  0  0  0  0
M  END
