1,8
q = 0.0, confidence = 0.904

 16 16  0  0  0  0  0  0  0  0999 V2000
   -1.6966    0.1138   -1.5209 Si  0  0  0  0  0  3  0  0  0  0  0  0
   -2.9533   -1.1138   -0.7976 C   0  0  0  0  0  0  0  0  0  0  0  0
   -4.1908   -1.4282   -1.4008 C   0  0  0  0  0  0  0  0  0  0  0  0
   -5.0543   -2.3639   -0.8127 C   0  0  0  0  0  0  0  0  0  0  0  0
   -4.6876   -3.0017    0.3858 C   0  0  0  0  0  0  0  0  0  0  0  0
   -3.4606   -2.6984    0.9938 C   0  0  0  0  0  0  0  0  0  0  0  0
   -2.5860   -1.7535    0.4139 C   0  0  0  0  0  0  0  0  0  0  0  0
   -0.9361   -1.2499    1.2287 Si  0  0  0  0  0  3  0  0  0  0  0  0
   -0.0967   -2.4888    1.4571 H   0  0  0  0  0  0  0  0  0  0  0  0
   -1.3051   -0.7905    2.6310 H   0  0  0  0  0  0  0  0  0  0  0  0
   -3.1834   -3.2026    1.9346 H   0  0  0  0  0  0  0  0  0  0  0  0
   -5.3643   -3.7385    0.8465 H   0  0  0  0  0  0  0  0  0  0  0  0
   -6.0181   -2.6015   -1.2898 H   0  0  0  0  0  0  0  0  0  0  0  0
   -4.4849   -0.9380   -2.3436 H   0  0  0  0  0  0  0  0  0  0  0  0
   -1.3127   -0.3738   -2.9064 H   0  0  0  0  0  0  0  0  0  0  0  0
   -2.4483    1.4033   -1.8525 H   0  0  0  0  0  0  0  0  0  0  0  0
  1  2  1  0  0  0  0
  2  7  1  0  0  0  0
  3  4  1  0  0  0  0
  3  2  2  0  0  0  0
  4  5  2  0  0  0  0
  5 12  1  0  0  0  0
  5  6  1  0  0  0  0
  6 11  1  0  0  0  0
  7  6  2  0  0  0  0
  7  8  1  0  0  0  0
  8  9  1  0  0  0  0
  8 10  1  0  0  0  0
 13  4  1  0  0  0  0
 14  3  1  0  0  0  0
 15  1  1  0  0  0  0
 16  1  1  0  0  0  0
M  END
