2,3
q = nan, confidence = 0.0

 42 41  0  0  0  0  0  0  0  0999 V2000
    2.8187   -2.6053    0.2144 Si  0  0  0  0  0  0  0  0  0  0  0  0
    1.1614   -1.1208    0.9652 Si  0  0  0  0  0  3  0  0  0  0  0  0
    0.7311    0.9671    0.0596 Si  0  0  0  0  0  3  0  0  0  0  0  0
    1.3722    2.4680    1.7725 Si  0  0  0  0  0  0  0  0  0  0  0  0
    2.1216    1.5266   -1.7710 Si  0  0  0  0  0  0  0  0  0  0  0  0
    2.9622   -2.7985   -1.6752 C   0  0  0  0  0  0  0  0  0  0  0  0
    3.8286   -3.4502   -1.9165 H   0  0  0  0  0  0  0  0  0  0  0  0
    3.1232   -1.8238   -2.1761 H   0  0  0  0  0  0  0  0  0  0  0  0
    2.0594   -3.2650   -2.1177 H   0  0  0  0  0  0  0  0  0  0  0  0
    4.4925   -2.0257    0.9086 C   0  0  0  0  0  0  0  0  0  0  0  0
    4.4474   -1.9670    2.0152 H   0  0  0  0  0  0  0  0  0  0  0  0
    4.7619   -1.0200    0.5297 H   0  0  0  0  0  0  0  0  0  0  0  0
    5.3030   -2.7338    0.6328 H   0  0  0  0  0  0  0  0  0  0  0  0
    2.4874   -4.3385    0.9438 C   0  0  0  0  0  0  0  0  0  0  0  0
    1.5434   -4.7841    0.5674 H   0  0  0  0  0  0  0  0  0  0  0  0
    2.4150   -4.2865    2.0496 H   0  0  0  0  0  0  0  0  0  0  0  0
    3.3136   -5.0353    0.6869 H   0  0  0  0  0  0  0  0  0  0  0  0
    0.9286    1.8897    3.5327 C   0  0  0  0  0  0  0  0  0  0  0  0
    1.3464    0.8830    3.7336 H   0  0  0  0  0  0  0  0  0  0  0  0
   -0.1620    1.8566    3.7226 H   0  0  0  0  0  0  0  0  0  0  0  0
    1.3734    2.5990    4.2628 H   0  0  0  0  0  0  0  0  0  0  0  0
    0.6212    4.2165    1.5730 C   0  0  0  0  0  0  0  0  0  0  0  0
    1.1418    4.9294    2.2474 H   0  0  0  0  0  0  0  0  0  0  0  0
   -0.4548    4.2379    1.8419 H   0  0  0  0  0  0  0  0  0  0  0  0
    0.7221    4.5945    0.5354 H   0  0  0  0  0  0  0  0  0  0  0  0
    3.2643    2.6944    1.7684 C   0  0  0  0  0  0  0  0  0  0  0  0
    3.6233    3.1849    0.8417 H   0  0  0  0  0  0  0  0  0  0  0  0
    3.7739    1.7140    1.8594 H   0  0  0  0  0  0  0  0  0  0  0  0
    3.5685    3.3294    2.6279 H   0  0  0  0  0  0  0  0  0  0  0  0
    3.9547    1.1008   -1.4892 C   0  0  0  0  0  0  0  0  0  0  0  0
    4.0935    0.0062   -1.3991 H   0  0  0  0  0  0  0  0  0  0  0  0
    4.3480    1.5654   -0.5654 H   0  0  0  0  0  0  0  0  0  0  0  0
    4.5633    1.4576   -2.3477 H   0  0  0  0  0  0  0  0  0  0  0  0
    2.0528    3.4157   -2.0626 C   0  0  0  0  0  0  0  0  0  0  0  0
    2.4285    3.9622   -1.1737 H   0  0  0  0  0  0  0  0  0  0  0  0
    1.0287    3.7870   -2.2716 H   0  0  0  0  0  0  0  0  0  0  0  0
    2.6945    3.6923   -2.9261 H   0  0  0  0  0  0  0  0  0  0  0  0
    1.6627    0.6904   -3.4262 C   0  0  0  0  0  0  0  0  0  0  0  0
    2.2785    1.1356   -4.2364 H   0  0  0  0  0  0  0  0  0  0  0  0
    0.5982    0.8170   -3.7019 H   0  0  0  0  0  0  0  0  0  0  0  0
    1.8867   -0.3954   -3.4064 H   0  0  0  0  0  0  0  0  0  0  0  0
    1.5029   -1.0115    2.4436 H   0  0  0  0  0  0  0  0  0  0  0  0
  1 10  1  0  0  0  0
  1 14  1  0  0  0  0
  1  2  1  0  0  0  0
  2 42  1  0  0  0  0
  3  2  1  0  0  0  0
  3  4  1  0  0  0  0
  4 18  1  0  0  0  0
  5 30  1  0  0  0  0
  5  3  1  0  0  0  0
  6  1  1  0  0  0  0
  7  6  1  0  0  0  0
  8  6  1  0  0  0  0
  9  6  1  0  0  0  0
 10 11  1  0  0  0  0
 12 10  1  0  0  0  0
 13 10  1  0  0  0  0
 14 16  1  0  0  0  0
 15 14  1  0  0  0  0
 17 14  1  0  0  0  0
 18 20  1  0  0  0  0
 18 19  1  0  0  0  0
 18 21  1  0  0  0  0
 22  4  1  0  0  0  0
 22 24  1  0  0  0  0
 22 23  1  0  0  0  0
 25 22  1  0  0  0  0
 26  4  1  0  0  0  0
 26 28  1  0  0  0  0
 26 29  1  0  0  0  0
 27 26  1  0  0  0  0
 30 31  1  0  0  0  0
 30 32  1  0  0  0  0
 33 30  1  0  0  0  0
 34  5  1  0  0  0  0
 34 35  1  0  0  0  0
 36 34  1  0  0  0  0
 37 34  1  0  0  0  0
 38 41  1  0  0  0  0
 38  5  1  0  0  0  0
 39 38  1  0  0  0  0
 40 38  1  0  0  0  0
M  END
