1,2
q = -2.0, confidence = 0.504

 38 43  0  0  0  0  0  0  0  0999 V2000
    0.8362   -1.0703   -1.0135 Si  0  0  0  0  0  3  0  0  0  0  0  0
    1.0538    1.0691    1.1180 Si  0  0  0  0  0  3  0  0  0  0  0  0
    0.5115   -0.4197   -2.7867 C   0  0  0  0  0  0  0  0  0  0  0  0
    0.8590   -2.9672   -1.2227 C   0  0  0  0  0  0  0  0  0  0  0  0
    1.3390    2.9484    1.2859 C   0  0  0  0  0  0  0  0  0  0  0  0
    0.8499    0.5020    2.9373 C   0  0  0  0  0  0  0  0  0  0  0  0
    2.7059   -0.6959   -0.6173 C   0  0  0  0  0  0  0  0  0  0  0  0
    2.8239    0.4422    0.5794 C   0  0  0  0  0  0  0  0  0  0  0  0
    3.1596   -1.1915    0.9478 B   0  0  2  0  0  0  0  0  0  0  0  0
    3.9631   -1.8502   -0.4914 B   0  0  1  0  0  0  0  0  0  0  0  0
    4.0080   -0.5724   -1.7157 B   0  0  0  0  0  0  0  0  0  0  0  0
    3.2423    0.8734   -1.0166 B   0  0  1  0  0  0  0  0  0  0  0  0
    4.2198    1.4070    0.3662 B   0  0  1  0  0  0  0  0  0  0  0  0
    4.1630    0.1293    1.5916 B   0  0  2  0  0  0  0  0  0  0  0  0
    5.4658   -0.9360   -0.7541 B   0  0  1  0  0  0  0  0  0  0  0  0
    5.0144    0.7630   -1.0936 B   0  0  0  0  0  2  0  0  0  0  0  0
    5.5931    0.2893    0.5370 B   0  0  1  0  0  0  0  0  0  0  0  0
    0.5016    0.6839   -2.8473 H   0  0  0  0  0  0  0  0  0  0  0  0
   -0.4599   -0.7944   -3.1696 H   0  0  0  0  0  0  0  0  0  0  0  0
    1.3106   -0.7955   -3.4604 H   0  0  0  0  0  0  0  0  0  0  0  0
    1.1596   -3.4954   -0.2965 H   0  0  0  0  0  0  0  0  0  0  0  0
    1.6074   -3.2196   -2.0021 H   0  0  0  0  0  0  0  0  0  0  0  0
   -0.1191   -3.3640   -1.5595 H   0  0  0  0  0  0  0  0  0  0  0  0
    1.5439    3.4609    0.3269 H   0  0  0  0  0  0  0  0  0  0  0  0
    2.2224    3.0999    1.9396 H   0  0  0  0  0  0  0  0  0  0  0  0
    0.4751    3.4369    1.7800 H   0  0  0  0  0  0  0  0  0  0  0  0
    1.1340   -0.5575    3.0755 H   0  0  0  0  0  0  0  0  0  0  0  0
   -0.1877    0.6356    3.3024 H   0  0  0  0  0  0  0  0  0  0  0  0
    1.5183    1.1192    3.5735 H   0  0  0  0  0  0  0  0  0  0  0  0
    2.3597   -1.8207    1.5971 H   0  0  0  0  0  0  0  0  0  0  0  0
    3.7344   -2.9927   -0.8017 H   0  0  0  0  0  0  0  0  0  0  0  0
    3.8010   -0.8257   -2.8784 H   0  0  0  0  0  0  0  0  0  0  0  0
    2.5028    1.6049   -1.6273 H   0  0  0  0  0  0  0  0  0  0  0  0
    4.1753    2.5692    0.6839 H   0  0  0  0  0  0  0  0  0  0  0  0
    4.0667    0.4035    2.7638 H   0  0  0  0  0  0  0  0  0  0  0  0
    6.4313   -1.4610   -1.2602 H   0  0  0  0  0  0  0  0  0  0  0  0
    5.6350    1.4855   -1.8390 H   0  0  0  0  0  0  0  0  0  0  0  0
    6.6534    0.6713    0.9773 H   0  0  0  0  0  0  0  0  0  0  0  0
  1  7  1  0  0  0  0
  2  5  1  0  0  0  0
  2  6  1  0  0  0  0
  2  8  1  0  0  0  0
  3  1  1  0  0  0  0
  4  1  1  0  0  0  0
  4 21  1  0  0  0  0
  5 26  1  0  0  0  0
  5 25  1  0  0  0  0
  6 27  1  0  0  0  0
  6 28  1  0  0  0  0
  6 29  1  0  0  0  0
  7  8  1  0  0  0  0
  7  9  1  0  0  0  0
  8  9  1  0  0  0  0
  8 14  1  0  0  0  0
  9 30  1  1  0  0  0
 10 31  1  6  0  0  0
 10  9  1  0  0  0  0
 11  7  1  0  0  0  0
 11 10  1  0  0  0  0
 12 33  1  6  0  0  0
 12  7  1  0  0  0  0
 12 13  1  0  0  0  0
 12  8  1  0  0  0  0
 13 17  1  0  0  0  0
 13 34  1  1  0  0  0
 13 14  1  0  0  0  0
 14 35  1  1  0  0  0
 15 36  1  6  0  0  0
 15 10  1  0  0  0  0
 15 17  1  0  0  0  0
 16 15  1  0  0  0  0
 17 38  1  1  0  0  0
 17 14  1  0  0  0  0
 18  3  1  0  0  0  0
 19  3  1  0  0  0  0
 20  3  1  0  0  0  0
 22  4  1  0  0  0  0
 23  4  1  0  0  0  0
 24  5  1  0  0  0  0
 32 11  1  0  0  0  0
 37 16  1  0  0  0  0
M  ZBO  2   1   0   4   0
M  END
