1,2
q = 0.0, confidence = 0.954

 54 57  0  0  0  0  0  0  0  0999 V2000
    1.2783    0.6967    0.6916 Si  0  0  0  0  0  3  0  0  0  0  0  0
   -1.3854    0.5765    0.6396 Si  0  0  0  0  0  3  0  0  0  0  0  0
   -0.1008    1.3374    1.5929 N   0  0  0  0  0  0  0  0  0  0  0  0
   -0.1760    2.2706    2.7046 C   0  0  0  0  0  0  0  0  0  0  0  0
   -0.1707    1.5917    4.0785 C   0  0  0  0  0  0  0  0  0  0  0  0
    2.4129   -0.3522    1.8094 C   0  0  0  0  0  0  0  0  0  0  0  0
    3.8248   -0.3401    1.7554 C   0  0  0  0  0  0  0  0  0  0  0  0
    4.5926   -1.2425    2.5123 C   0  0  0  0  0  0  0  0  0  0  0  0
    3.9590   -2.1775    3.3454 C   0  0  0  0  0  0  0  0  0  0  0  0
    2.5551   -2.2002    3.4223 C   0  0  0  0  0  0  0  0  0  0  0  0
    1.7954   -1.2984    2.6630 C   0  0  0  0  0  0  0  0  0  0  0  0
    2.2795    2.1473   -0.0254 C   0  0  0  0  0  0  0  0  0  0  0  0
    2.0459    2.5654   -1.3561 C   0  0  0  0  0  0  0  0  0  0  0  0
    2.6868    3.6940   -1.8902 C   0  0  0  0  0  0  0  0  0  0  0  0
    3.5787    4.4345   -1.0961 C   0  0  0  0  0  0  0  0  0  0  0  0
    3.8207    4.0420    0.2300 C   0  0  0  0  0  0  0  0  0  0  0  0
    3.1768    2.9100    0.7576 C   0  0  0  0  0  0  0  0  0  0  0  0
   -2.4457   -0.5671    1.7415 C   0  0  0  0  0  0  0  0  0  0  0  0
   -3.4477   -0.0747    2.6090 C   0  0  0  0  0  0  0  0  0  0  0  0
   -4.1442   -0.9317    3.4772 C   0  0  0  0  0  0  0  0  0  0  0  0
   -3.8515   -2.3053    3.4964 C   0  0  0  0  0  0  0  0  0  0  0  0
   -2.8555   -2.8159    2.6477 C   0  0  0  0  0  0  0  0  0  0  0  0
   -2.1635   -1.9523    1.7837 C   0  0  0  0  0  0  0  0  0  0  0  0
   -2.4925    1.9611   -0.0600 C   0  0  0  0  0  0  0  0  0  0  0  0
   -3.8998    1.8927   -0.1713 C   0  0  0  0  0  0  0  0  0  0  0  0
   -4.6376    2.9412   -0.7467 C   0  0  0  0  0  0  0  0  0  0  0  0
   -3.9789    4.0858   -1.2230 C   0  0  0  0  0  0  0  0  0  0  0  0
   -2.5806    4.1768   -1.1161 C   0  0  0  0  0  0  0  0  0  0  0  0
   -1.8497    3.1268   -0.5410 C   0  0  0  0  0  0  0  0  0  0  0  0
    0.6736    2.9899    2.6412 H   0  0  0  0  0  0  0  0  0  0  0  0
   -1.0970    2.8899    2.5997 H   0  0  0  0  0  0  0  0  0  0  0  0
   -1.0239    0.8890    4.1705 H   0  0  0  0  0  0  0  0  0  0  0  0
    0.7611    1.0093    4.2267 H   0  0  0  0  0  0  0  0  0  0  0  0
   -0.2464    2.3392    4.8960 H   0  0  0  0  0  0  0  0  0  0  0  0
    4.3403    0.3920    1.1121 H   0  0  0  0  0  0  0  0  0  0  0  0
    5.6921   -1.2125    2.4538 H   0  0  0  0  0  0  0  0  0  0  0  0
    4.5578   -2.8859    3.9387 H   0  0  0  0  0  0  0  0  0  0  0  0
    2.0510   -2.9271    4.0785 H   0  0  0  0  0  0  0  0  0  0  0  0
    0.6946   -1.3266    2.7232 H   0  0  0  0  0  0  0  0  0  0  0  0
    1.3379    1.9857   -1.9743 H   0  0  0  0  0  0  0  0  0  0  0  0
    2.4900    4.0010   -2.9296 H   0  0  0  0  0  0  0  0  0  0  0  0
    4.0838    5.3207   -1.5109 H   0  0  0  0  0  0  0  0  0  0  0  0
    4.5146    4.6229    0.8579 H   0  0  0  0  0  0  0  0  0  0  0  0
    3.3779    2.6154    1.8009 H   0  0  0  0  0  0  0  0  0  0  0  0
   -3.6866    1.0015    2.6109 H   0  0  0  0  0  0  0  0  0  0  0  0
   -4.9200   -0.5257    4.1454 H   0  0  0  0  0  0  0  0  0  0  0  0
   -4.3978   -2.9775    4.1762 H   0  0  0  0  0  0  0  0  0  0  0  0
   -2.6160   -3.8911    2.6638 H   0  0  0  0  0  0  0  0  0  0  0  0
   -1.3698   -2.3463    1.1236 H   0  0  0  0  0  0  0  0  0  0  0  0
   -4.4348    1.0056    0.2044 H   0  0  0  0  0  0  0  0  0  0  0  0
   -5.7342    2.8664   -0.8190 H   0  0  0  0  0  0  0  0  0  0  0  0
   -4.5552    4.9091   -1.6730 H   0  0  0  0  0  0  0  0  0  0  0  0
   -2.0568    5.0739   -1.4824 H   0  0  0  0  0  0  0  0  0  0  0  0
   -0.7531    3.2070   -0.4569 H   0  0  0  0  0  0  0  0  0  0  0  0
  1  3  1  0  0  0  0
  1  6  1  0  0  0  0
  2  3  1  0  0  0  0
  2 18  1  0  0  0  0
  3  4  1  0  0  0  0
  4  5  1  0  0  0  0
  5 32  1  0  0  0  0
  5 33  1  0  0  0  0
  5 34  1  0  0  0  0
  6 11  1  0  0  0  0
  7  6  2  0  0  0  0
  7  8  1  0  0  0  0
  8  9  2  0  0  0  0
  9 10  1  0  0  0  0
  9 37  1  0  0  0  0
 10 38  1  0  0  0  0
 11 39  1  0  0  0  0
 11 10  2  0  0  0  0
 12  1  1  0  0  0  0
 12 17  1  0  0  0  0
 13 12  2  0  0  0  0
 14 13  1  0  0  0  0
 14 15  2  0  0  0  0
 15 16  1  0  0  0  0
 16 17  2  0  0  0  0
 16 43  1  0  0  0  0
 17 44  1  0  0  0  0
 18 23  2  0  0  0  0
 18 19  1  0  0  0  0
 19 45  1  0  0  0  0
 19 20  2  0  0  0  0
 20 21  1  0  0  0  0
 20 46  1  0  0  0  0
 21 47  1  0  0  0  0
 22 48  1  0  0  0  0
 22 21  2  0  0  0  0
 23 22  1  0  0  0  0
 24  2  1  0  0  0  0
 25 24  1  0  0  0  0
 25 50  1  0  0  0  0
 26 25  2  0  0  0  0
 27 28  2  0  0  0  0
 27 26  1  0  0  0  0
 28 29  1  0  0  0  0
 29 54  1  0  0  0  0
 29 24  2  0  0  0  0
 30  4  1  0  0  0  0
 31  4  1  0  0  0  0
 35  7  1  0  0  0  0
 36  8  1  0  0  0  0
 40 13  1  0  0  0  0
 41 14  1  0  0  0  0
 42 15  1  0  0  0  0
 49 23  1  0  0  0  0
 51 26  1  0  0  0  0
 52 27  1  0  0  0  0
 53 28  1  0  0  0  0
M  END
