1,2
q = 0.0, confidence = 0.96

 56 59  0  0  0  0  0  0  0  0999 V2000
    1.5918    0.4697   -0.1198 Si  0  0  0  0  0  3  0  0  0  0  0  0
   -1.4406    1.1690   -0.1408 Si  0  0  0  0  0  3  0  0  0  0  0  0
    3.3820    3.0815   -0.5202 O   0  0  0  0  0  0  0  0  0  0  0  0
    1.7066    4.5951   -0.6561 O   0  0  0  0  0  0  0  0  0  0  0  0
    1.1117    2.3022   -0.3839 C   0  0  0  0  0  0  0  0  0  0  0  0
   -0.2158    2.5909   -0.4240 C   0  0  0  0  0  0  0  0  0  0  0  0
    2.1801    3.3266   -0.5257 C   0  0  0  0  0  0  0  0  0  0  0  0
    2.7052    5.6074   -0.7881 C   0  0  0  0  0  0  0  0  0  0  0  0
    2.4799   -0.1071   -1.7168 C   0  0  0  0  0  0  0  0  0  0  0  0
    3.7141    0.4146   -2.1700 C   0  0  0  0  0  0  0  0  0  0  0  0
    4.3080   -0.0543   -3.3536 C   0  0  0  0  0  0  0  0  0  0  0  0
    3.6748   -1.0428   -4.1240 C   0  0  0  0  0  0  0  0  0  0  0  0
    2.4336   -1.5526   -3.7100 C   0  0  0  0  0  0  0  0  0  0  0  0
    1.8493   -1.0872   -2.5213 C   0  0  0  0  0  0  0  0  0  0  0  0
    2.7231    0.4268    1.4214 C   0  0  0  0  0  0  0  0  0  0  0  0
    4.1334    0.4905    1.4003 C   0  0  0  0  0  0  0  0  0  0  0  0
    4.8799    0.4198    2.5877 C   0  0  0  0  0  0  0  0  0  0  0  0
    4.2300    0.2949    3.8267 C   0  0  0  0  0  0  0  0  0  0  0  0
    2.8272    0.2457    3.8715 C   0  0  0  0  0  0  0  0  0  0  0  0
    2.0872    0.3088    2.6798 C   0  0  0  0  0  0  0  0  0  0  0  0
   -2.4968    1.0849   -1.7353 C   0  0  0  0  0  0  0  0  0  0  0  0
   -1.8219    0.6899   -2.9162 C   0  0  0  0  0  0  0  0  0  0  0  0
   -2.5083    0.5209   -4.1279 C   0  0  0  0  0  0  0  0  0  0  0  0
   -3.8951    0.7433   -4.1877 C   0  0  0  0  0  0  0  0  0  0  0  0
   -4.5821    1.1448   -3.0318 C   0  0  0  0  0  0  0  0  0  0  0  0
   -3.8872    1.3165   -1.8216 C   0  0  0  0  0  0  0  0  0  0  0  0
   -2.4946    1.7654    1.3342 C   0  0  0  0  0  0  0  0  0  0  0  0
   -3.3514    2.8862    1.2450 C   0  0  0  0  0  0  0  0  0  0  0  0
   -4.0738    3.3406    2.3606 C   0  0  0  0  0  0  0  0  0  0  0  0
   -3.9424    2.6885    3.5973 C   0  0  0  0  0  0  0  0  0  0  0  0
   -3.0796    1.5863    3.7139 C   0  0  0  0  0  0  0  0  0  0  0  0
   -2.3658    1.1347    2.5927 C   0  0  0  0  0  0  0  0  0  0  0  0
   -0.5458    3.6356   -0.5855 H   0  0  0  0  0  0  0  0  0  0  0  0
    3.3341    5.4323   -1.6852 H   0  0  0  0  0  0  0  0  0  0  0  0
    3.3734    5.6248    0.0973 H   0  0  0  0  0  0  0  0  0  0  0  0
    2.1631    6.5660   -0.8799 H   0  0  0  0  0  0  0  0  0  0  0  0
    4.1953    1.2256   -1.6031 H   0  0  0  0  0  0  0  0  0  0  0  0
    5.2724    0.3640   -3.6825 H   0  0  0  0  0  0  0  0  0  0  0  0
    4.1421   -1.4066   -5.0524 H   0  0  0  0  0  0  0  0  0  0  0  0
    1.9176   -2.3133   -4.3174 H   0  0  0  0  0  0  0  0  0  0  0  0
    0.8703   -1.4839   -2.1949 H   0  0  0  0  0  0  0  0  0  0  0  0
    4.6613    0.5879    0.4405 H   0  0  0  0  0  0  0  0  0  0  0  0
    5.9796    0.4655    2.5461 H   0  0  0  0  0  0  0  0  0  0  0  0
    4.8169    0.2399    4.7568 H   0  0  0  0  0  0  0  0  0  0  0  0
    2.3079    0.1575    4.8390 H   0  0  0  0  0  0  0  0  0  0  0  0
    0.9848    0.2566    2.7152 H   0  0  0  0  0  0  0  0  0  0  0  0
   -0.7355    0.5018   -2.8798 H   0  0  0  0  0  0  0  0  0  0  0  0
   -1.9588    0.2125   -5.0311 H   0  0  0  0  0  0  0  0  0  0  0  0
   -4.4381    0.6073   -5.1358 H   0  0  0  0  0  0  0  0  0  0  0  0
   -5.6674    1.3284   -3.0715 H   0  0  0  0  0  0  0  0  0  0  0  0
   -4.4460    1.6376   -0.9273 H   0  0  0  0  0  0  0  0  0  0  0  0
   -3.4531    3.4232    0.2876 H   0  0  0  0  0  0  0  0  0  0  0  0
   -4.7392    4.2132    2.2665 H   0  0  0  0  0  0  0  0  0  0  0  0
   -4.5065    3.0453    4.4730 H   0  0  0  0  0  0  0  0  0  0  0  0
   -2.9609    1.0799    4.6847 H   0  0  0  0  0  0  0  0  0  0  0  0
   -1.6858    0.2688    2.6811 H   0  0  0  0  0  0  0  0  0  0  0  0
  1 15  1  0  0  0  0
  2 27  1  0  0  0  0
  4  7  1  0  0  0  0
  5  1  1  0  0  0  0
  6  5  2  0  0  0  0
  6  2  1  0  0  0  0
  7  3  2  0  0  0  0
  7  5  1  0  0  0  0
  8  4  1  0  0  0  0
  8 35  1  0  0  0  0
  9  1  1  0  0  0  0
 10  9  1  0  0  0  0
 10 37  1  0  0  0  0
 11 10  2  0  0  0  0
 12 13  2  0  0  0  0
 12 11  1  0  0  0  0
 13 14  1  0  0  0  0
 14 41  1  0  0  0  0
 14  9  2  0  0  0  0
 15 20  1  0  0  0  0
 16 15  2  0  0  0  0
 16 17  1  0  0  0  0
 17 18  2  0  0  0  0
 18 19  1  0  0  0  0
 18 44  1  0  0  0  0
 19 45  1  0  0  0  0
 20 46  1  0  0  0  0
 20 19  2  0  0  0  0
 21  2  1  0  0  0  0
 22 47  1  0  0  0  0
 22 21  2  0  0  0  0
 23 22  1  0  0  0  0
 24 23  2  0  0  0  0
 24 25  1  0  0  0  0
 25 26  2  0  0  0  0
 26 21  1  0  0  0  0
 26 51  1  0  0  0  0
 27 32  1  0  0  0  0
 28 27  2  0  0  0  0
 28 29  1  0  0  0  0
 29 30  2  0  0  0  0
 30 31  1  0  0  0  0
 30 54  1  0  0  0  0
 31 55  1  0  0  0  0
 32 56  1  0  0  0  0
 32 31  2  0  0  0  0
 33  6  1  0  0  0  0
 34  8  1  0  0  0  0
 36  8  1  0  0  0  0
 38 11  1  0  0  0  0
 39 12  1  0  0  0  0
 40 13  1  0  0  0  0
 42 16  1  0  0  0  0
 43 17  1  0  0  0  0
 48 23  1  0  0  0  0
 49 24  1  0  0  0  0
 50 25  1  0  0  0  0
 52 28  1  0  0  0  0
 53 29  1  0  0  0  0
M  END
