1,12
 OpenBabel05122313063D

 28 28  0  0  0  0  0  0  0  0999 V2000
    1.7197    1.5160   -0.2922 Si  0  0  0  0  0  3  0  0  0  0  0  0
    3.5898    1.2947    0.0023 C   0  0  0  0  0  0  0  0  0  0  0  0
    4.4951    2.3712    0.1291 C   0  0  0  0  0  0  0  0  0  0  0  0
    4.1292    3.4113    0.0824 H   0  0  0  0  0  0  0  0  0  0  0  0
    5.8658    2.1377    0.3176 C   0  0  0  0  0  0  0  0  0  0  0  0
    6.5630    2.9846    0.4199 H   0  0  0  0  0  0  0  0  0  0  0  0
    6.3491    0.8185    0.3767 C   0  0  0  0  0  0  0  0  0  0  0  0
    7.4250    0.6328    0.5250 H   0  0  0  0  0  0  0  0  0  0  0  0
    5.4586   -0.2582    0.2473 C   0  0  0  0  0  0  0  0  0  0  0  0
    5.8523   -1.2884    0.2937 H   0  0  0  0  0  0  0  0  0  0  0  0
    4.0763   -0.0365    0.0632 C   0  0  0  0  0  0  0  0  0  0  0  0
    2.7882   -1.4305   -0.1405 Si  0  0  0  0  0  3  0  0  0  0  0  0
    1.0985    2.8315    0.9445 C   0  0  0  0  0  0  0  0  0  0  0  0
    1.6437    3.7849    0.7756 H   0  0  0  0  0  0  0  0  0  0  0  0
    1.2768    2.5230    1.9939 H   0  0  0  0  0  0  0  0  0  0  0  0
    0.0164    3.0372    0.8165 H   0  0  0  0  0  0  0  0  0  0  0  0
    1.5029    2.2578   -2.0351 C   0  0  0  0  0  0  0  0  0  0  0  0
    2.1177    3.1788   -2.1253 H   0  0  0  0  0  0  0  0  0  0  0  0
    0.4461    2.5236   -2.2377 H   0  0  0  0  0  0  0  0  0  0  0  0
    1.8403    1.5421   -2.8110 H   0  0  0  0  0  0  0  0  0  0  0  0
    3.2739   -2.3612   -1.7426 C   0  0  0  0  0  0  0  0  0  0  0  0
    4.3298   -2.7020   -1.6836 H   0  0  0  0  0  0  0  0  0  0  0  0
    3.1833   -1.6851   -2.6167 H   0  0  0  0  0  0  0  0  0  0  0  0
    2.6396   -3.2506   -1.9336 H   0  0  0  0  0  0  0  0  0  0  0  0
    3.0905   -2.6502    1.3125 C   0  0  0  0  0  0  0  0  0  0  0  0
    4.1595   -2.9518    1.3390 H   0  0  0  0  0  0  0  0  0  0  0  0
    2.4913   -3.5817    1.2376 H   0  0  0  0  0  0  0  0  0  0  0  0
    2.8512   -2.1675    2.2819 H   0  0  0  0  0  0  0  0  0  0  0  0
  1  2  1  0  0  0  0
  1 13  1  0  0  0  0
  2 11  2  0  0  0  0
  2  3  1  0  0  0  0
  3  5  2  0  0  0  0
  4  3  1  0  0  0  0
  5  7  1  0  0  0  0
  5  6  1  0  0  0  0
  7  8  1  0  0  0  0
  9 10  1  0  0  0  0
  9  7  2  0  0  0  0
 11  9  1  0  0  0  0
 12 11  1  0  0  0  0
 12 25  1  0  0  0  0
 13 15  1  0  0  0  0
 14 13  1  0  0  0  0
 16 13  1  0  0  0  0
 17  1  1  0  0  0  0
 18 17  1  0  0  0  0
 19 17  1  0  0  0  0
 20 17  1  0  0  0  0
 21 22  1  0  0  0  0
 21 12  1  0  0  0  0
 23 21  1  0  0  0  0
 24 21  1  0  0  0  0
 25 26  1  0  0  0  0
 25 28  1  0  0  0  0
 27 25  1  0  0  0  0
M  END
