1,2
 OpenBabel05122313063D

 22 21  0  0  0  0  0  0  0  0999 V2000
   -0.5840   -0.9964   -0.2228 Si  0  0  0  0  0  3  0  0  0  0  0  0
    0.4978    1.7120   -0.2484 Si  0  0  0  0  0  3  0  0  0  0  0  0
   -1.0222   -2.3005    0.6952 F   0  0  0  0  0  0  0  0  0  0  0  0
   -0.6389   -1.6214   -1.7543 F   0  0  0  0  0  0  0  0  0  0  0  0
    0.9519    2.2330   -1.7496 F   0  0  0  0  0  0  0  0  0  0  0  0
    0.9933    2.9493    0.7190 F   0  0  0  0  0  0  0  0  0  0  0  0
   -1.3666    1.5997   -0.1879 C   0  0  0  0  0  0  0  0  0  0  0  0
   -1.9115    0.3549   -0.1207 C   0  0  0  0  0  0  0  0  0  0  0  0
   -3.4010    0.0287   -0.0296 C   0  0  0  0  0  0  0  0  0  0  0  0
   -3.7481   -1.0829   -1.0451 C   0  0  0  0  0  0  0  0  0  0  0  0
   -4.2766    1.2620   -0.3019 C   0  0  0  0  0  0  0  0  0  0  0  0
   -3.6708   -0.4890    1.4048 C   0  0  0  0  0  0  0  0  0  0  0  0
   -1.9987    2.5064   -0.2215 H   0  0  0  0  0  0  0  0  0  0  0  0
   -4.8316   -1.3149   -0.9965 H   0  0  0  0  0  0  0  0  0  0  0  0
   -3.1958   -2.0188   -0.8277 H   0  0  0  0  0  0  0  0  0  0  0  0
   -3.5045   -0.7744   -2.0811 H   0  0  0  0  0  0  0  0  0  0  0  0
   -5.3489    0.9881   -0.2343 H   0  0  0  0  0  0  0  0  0  0  0  0
   -4.0931    1.6738   -1.3151 H   0  0  0  0  0  0  0  0  0  0  0  0
   -4.0933    2.0677    0.4374 H   0  0  0  0  0  0  0  0  0  0  0  0
   -4.7402   -0.7651    1.5127 H   0  0  0  0  0  0  0  0  0  0  0  0
   -3.4360    0.2908    2.1571 H   0  0  0  0  0  0  0  0  0  0  0  0
   -3.0580   -1.3830    1.6304 H   0  0  0  0  0  0  0  0  0  0  0  0
  1  8  1  0  0  0  0
  1  3  1  0  0  0  0
  2  7  1  0  0  0  0
  2  6  1  0  0  0  0
  4  1  1  0  0  0  0
  5  2  1  0  0  0  0
  7  8  2  0  0  0  0
  8  9  1  0  0  0  0
  9 12  1  0  0  0  0
 10 14  1  0  0  0  0
 10 15  1  0  0  0  0
 10  9  1  0  0  0  0
 11 17  1  0  0  0  0
 11  9  1  0  0  0  0
 11 19  1  0  0  0  0
 12 20  1  0  0  0  0
 12 22  1  0  0  0  0
 12 21  1  0  0  0  0
 13  7  1  0  0  0  0
 16 10  1  0  0  0  0
 18 11  1  0  0  0  0
M  END
