1,2
 OpenBabel05122313063D

 27 26  0  0  0  0  0  0  0  0999 V2000
   -1.3848    2.2106   -1.1146 Si  0  0  0  0  0  3  0  0  0  0  0  0
    1.4206    2.3038   -1.0593 Si  0  0  0  0  0  3  0  0  0  0  0  0
    0.0010    3.2929   -2.0457 N   0  3  0  0  0  0  0  0  0  0  0  0
   -2.6820    1.8708   -2.4691 C   0  0  0  0  0  0  0  0  0  0  0  0
   -3.5275    1.3414   -1.9814 H   0  0  0  0  0  0  0  0  0  0  0  0
   -2.3039    1.2128   -3.2757 H   0  0  0  0  0  0  0  0  0  0  0  0
   -3.0900    2.7983   -2.9229 H   0  0  0  0  0  0  0  0  0  0  0  0
   -2.2026    3.4289    0.0816 C   0  0  0  0  0  0  0  0  0  0  0  0
   -2.9804    2.8584    0.6317 H   0  0  0  0  0  0  0  0  0  0  0  0
   -2.6925    4.2798   -0.4346 H   0  0  0  0  0  0  0  0  0  0  0  0
   -1.4917    3.7948    0.8462 H   0  0  0  0  0  0  0  0  0  0  0  0
    2.7906    2.0153   -2.3508 C   0  0  0  0  0  0  0  0  0  0  0  0
    3.6353    1.5408   -1.8066 H   0  0  0  0  0  0  0  0  0  0  0  0
    3.1751    2.9505   -2.8089 H   0  0  0  0  0  0  0  0  0  0  0  0
    2.4828    1.3191   -3.1554 H   0  0  0  0  0  0  0  0  0  0  0  0
    2.1143    3.6033    0.1330 C   0  0  0  0  0  0  0  0  0  0  0  0
    2.9817    3.1391    0.6464 H   0  0  0  0  0  0  0  0  0  0  0  0
    1.3823    3.8697    0.9189 H   0  0  0  0  0  0  0  0  0  0  0  0
    2.4750    4.5134   -0.3886 H   0  0  0  0  0  0  0  0  0  0  0  0
    0.0441    2.9882   -3.4915 C   0  0  0  0  0  0  0  0  0  0  0  0
   -0.8584    3.3866   -3.9996 H   0  0  0  0  0  0  0  0  0  0  0  0
    0.0839    1.8954   -3.6557 H   0  0  0  0  0  0  0  0  0  0  0  0
    0.9420    3.4448   -3.9573 H   0  0  0  0  0  0  0  0  0  0  0  0
   -0.0604    4.7520   -1.8493 C   0  0  0  0  0  0  0  0  0  0  0  0
   -0.9687    5.1697   -2.3343 H   0  0  0  0  0  0  0  0  0  0  0  0
    0.8303    5.2428   -2.2970 H   0  0  0  0  0  0  0  0  0  0  0  0
   -0.0937    4.9971   -0.7737 H   0  0  0  0  0  0  0  0  0  0  0  0
  1  8  1  0  0  0  0
  2 16  1  0  0  0  0
  3 24  1  0  0  0  0
  3  1  1  0  0  0  0
  3  2  1  0  0  0  0
  4  5  1  0  0  0  0
  4  1  1  0  0  0  0
  6  4  1  0  0  0  0
  7  4  1  0  0  0  0
  8  9  1  0  0  0  0
  8 11  1  0  0  0  0
 10  8  1  0  0  0  0
 12 13  1  0  0  0  0
 12  2  1  0  0  0  0
 14 12  1  0  0  0  0
 15 12  1  0  0  0  0
 16 17  1  0  0  0  0
 16 18  1  0  0  0  0
 19 16  1  0  0  0  0
 20  3  1  0  0  0  0
 21 20  1  0  0  0  0
 22 20  1  0  0  0  0
 23 20  1  0  0  0  0
 24 27  1  0  0  0  0
 25 24  1  0  0  0  0
 26 24  1  0  0  0  0
M  CHG  1   3   1
M  END
