1,2
 OpenBabel05122313063D

 23 22  0  0  0  0  0  0  0  0999 V2000
    3.2594    1.1624   -0.2173 Si  0  5  0  0  0  0  0  0  0  0  0  0
    2.2910   -1.4372   -0.5262 Si  0  0  0  0  0  3  0  0  0  0  0  0
    3.8839   -0.4957   -0.8352 O   0  3  2  0  0  0  0  0  0  0  0  0
    3.8686    2.3101   -1.6088 C   0  0  0  0  0  0  0  0  0  0  0  0
    4.9643    2.2317   -1.7728 H   0  0  0  0  0  0  0  0  0  0  0  0
    3.6590    3.3686   -1.3444 H   0  0  0  0  0  0  0  0  0  0  0  0
    3.3460    2.0894   -2.5608 H   0  0  0  0  0  0  0  0  0  0  0  0
    4.3630    1.4826    1.2890 C   0  0  0  0  0  0  0  0  0  0  0  0
    4.0483    0.8197    2.1198 H   0  0  0  0  0  0  0  0  0  0  0  0
    4.2107    2.5282    1.6317 H   0  0  0  0  0  0  0  0  0  0  0  0
    5.4459    1.3566    1.0789 H   0  0  0  0  0  0  0  0  0  0  0  0
    2.0693   -2.3623   -2.1692 C   0  0  0  0  0  0  0  0  0  0  0  0
    1.8657   -1.6560   -2.9982 H   0  0  0  0  0  0  0  0  0  0  0  0
    1.2016   -3.0509   -2.0869 H   0  0  0  0  0  0  0  0  0  0  0  0
    2.9538   -2.9817   -2.4282 H   0  0  0  0  0  0  0  0  0  0  0  0
    2.8627   -2.6964    0.7685 C   0  0  0  0  0  0  0  0  0  0  0  0
    3.8336   -3.1611    0.4967 H   0  0  0  0  0  0  0  0  0  0  0  0
    2.1184   -3.5134    0.8598 H   0  0  0  0  0  0  0  0  0  0  0  0
    2.9392   -2.1960    1.7540 H   0  0  0  0  0  0  0  0  0  0  0  0
    5.2231   -0.9735   -0.9406 C   0  0  0  0  0  0  0  0  0  0  0  0
    5.8516   -0.1918   -1.4125 H   0  0  0  0  0  0  0  0  0  0  0  0
    5.2374   -1.8778   -1.5818 H   0  0  0  0  0  0  0  0  0  0  0  0
    5.6385   -1.2247    0.0577 H   0  0  0  0  0  0  0  0  0  0  0  0
  1  8  1  0  0  0  0
  1  3  1  0  0  0  0
  2 16  1  0  0  0  0
  3 20  1  1  0  0  0
  3  2  1  0  0  0  0
  4  6  1  0  0  0  0
  4  1  1  0  0  0  0
  5  4  1  0  0  0  0
  7  4  1  0  0  0  0
  8 10  1  0  0  0  0
  8  9  1  0  0  0  0
 11  8  1  0  0  0  0
 12 14  1  0  0  0  0
 12  2  1  0  0  0  0
 13 12  1  0  0  0  0
 15 12  1  0  0  0  0
 16 18  1  0  0  0  0
 16 19  1  0  0  0  0
 17 16  1  0  0  0  0
 20 23  1  0  0  0  0
 21 20  1  0  0  0  0
 22 20  1  0  0  0  0
M  CHG  2   1  -1   3   1
M  ZCH  2   1   0   3   0
M  ZBO  1   2   0
M  END
