1,2
 OpenBabel05122313063D

 25 24  0  0  0  0  0  0  0  0999 V2000
   -0.3713    1.5488    0.3727 Si  0  0  0  0  0  3  0  0  0  0  0  0
   -0.3707   -1.5489    0.3728 Si  0  0  0  0  0  3  0  0  0  0  0  0
   -2.1825    1.1331    0.1099 O   0  0  0  0  0  0  0  0  0  0  0  0
   -2.1815   -1.1356    0.1057 O   0  0  0  0  0  0  0  0  0  0  0  0
   -0.4903    2.0074    2.2164 C   0  0  0  0  0  0  0  0  0  0  0  0
   -0.4431    3.1816   -0.5926 C   0  0  0  0  0  0  0  0  0  0  0  0
   -0.4382   -3.1835   -0.5895 C   0  0  0  0  0  0  0  0  0  0  0  0
   -0.4929   -2.0039    2.2172 C   0  0  0  0  0  0  0  0  0  0  0  0
   -2.7462   -0.0012   -0.0488 C   0  0  0  0  0  3  0  0  0  0  0  0
   -4.1828   -0.0011   -0.4860 C   0  0  0  0  0  0  0  0  0  0  0  0
    0.4530    2.4991    2.5337 H   0  0  0  0  0  0  0  0  0  0  0  0
   -1.3225    2.7173    2.4020 H   0  0  0  0  0  0  0  0  0  0  0  0
   -0.6328    1.1174    2.8607 H   0  0  0  0  0  0  0  0  0  0  0  0
    0.5307    3.7061   -0.5011 H   0  0  0  0  0  0  0  0  0  0  0  0
   -0.6145    2.9843   -1.6700 H   0  0  0  0  0  0  0  0  0  0  0  0
   -1.2405    3.8572   -0.2206 H   0  0  0  0  0  0  0  0  0  0  0  0
   -1.2358   -3.8593   -0.2179 H   0  0  0  0  0  0  0  0  0  0  0  0
   -0.6076   -2.9886   -1.6676 H   0  0  0  0  0  0  0  0  0  0  0  0
    0.5359   -3.7068   -0.4949 H   0  0  0  0  0  0  0  0  0  0  0  0
   -0.6393   -1.1127    2.8591 H   0  0  0  0  0  0  0  0  0  0  0  0
   -1.3236   -2.7154    2.4025 H   0  0  0  0  0  0  0  0  0  0  0  0
    0.4509   -2.4923    2.5381 H   0  0  0  0  0  0  0  0  0  0  0  0
   -4.6964    0.9121   -0.1368 H   0  0  0  0  0  0  0  0  0  0  0  0
   -4.1946   -0.0003   -1.5964 H   0  0  0  0  0  0  0  0  0  0  0  0
   -4.6961   -0.9150   -0.1382 H   0  0  0  0  0  0  0  0  0  0  0  0
  1  5  1  0  0  0  0
  2  8  1  0  0  0  0
  3  1  1  0  0  0  0
  4  2  1  0  0  0  0
  5 12  1  0  0  0  0
  5 11  1  0  0  0  0
  5 13  1  0  0  0  0
  6 14  1  0  0  0  0
  6 16  1  0  0  0  0
  6  1  1  0  0  0  0
  7 19  1  0  0  0  0
  7 17  1  0  0  0  0
  7  2  1  0  0  0  0
  8 21  1  0  0  0  0
  8 22  1  0  0  0  0
  8 20  1  0  0  0  0
  9  4  1  0  0  0  0
  9  3  1  0  0  0  0
 10 25  1  0  0  0  0
 10 23  1  0  0  0  0
 10  9  1  0  0  0  0
 15  6  1  0  0  0  0
 18  7  1  0  0  0  0
 24 10  1  0  0  0  0
M  END
