2,27
q = -1.0

 35 36  0  0  1  0  0  0  0  0999 V2000
    0.2969    2.2131   -1.2584 N   0  0  0  0  0  0  0  0  0  0  0  0
    0.6759    0.9275   -0.9431 C   0  0  0  0  0  2  0  0  0  0  0  0
    1.9385    0.8068   -1.5019 N   0  0  0  0  0  0  0  0  0  0  0  0
    1.2667    2.8454   -2.0235 C   0  0  0  0  0  0  0  0  0  0  0  0
    1.1349    3.8677   -2.3885 H   0  0  0  0  0  0  0  0  0  0  0  0
    2.2988    1.9653   -2.1766 C   0  0  0  0  0  0  0  0  0  0  0  0
    3.2629    2.0676   -2.6817 H   0  0  0  0  0  0  0  0  0  0  0  0
   -0.9107    2.9177   -0.8410 C   0  0  0  0  0  0  0  0  0  0  0  0
   -1.2590    2.5047    0.1224 H   0  0  0  0  0  0  0  0  0  0  0  0
   -1.7137    2.8037   -1.5922 H   0  0  0  0  0  0  0  0  0  0  0  0
   -0.6533    3.9859   -0.7081 H   0  0  0  0  0  0  0  0  0  0  0  0
    2.9214   -0.2503   -1.2145 C   0  0  1  0  0  0  0  0  0  0  0  0
    3.7414   -0.0843   -1.9463 H   0  0  0  0  0  0  0  0  0  0  0  0
    3.5299   -0.0554    0.2015 C   0  0  0  0  0  0  0  0  0  0  0  0
    2.6911   -0.1091    0.9276 H   0  0  0  0  0  0  0  0  0  0  0  0
    4.5578   -1.1470    0.5223 C   0  0  0  0  0  0  0  0  0  0  0  0
    4.1193   -2.1641    0.5450 H   0  0  0  0  0  0  0  0  0  0  0  0
    5.0121   -0.9649    1.5163 H   0  0  0  0  0  0  0  0  0  0  0  0
    5.3842   -1.1526   -0.2210 H   0  0  0  0  0  0  0  0  0  0  0  0
    4.1570    1.3357    0.3544 C   0  0  0  0  0  0  0  0  0  0  0  0
    4.5977    1.4438    1.3651 H   0  0  0  0  0  0  0  0  0  0  0  0
    3.4099    2.1436    0.2358 H   0  0  0  0  0  0  0  0  0  0  0  0
    4.9702    1.5014   -0.3851 H   0  0  0  0  0  0  0  0  0  0  0  0
    2.3430   -1.6450   -1.5258 C   0  0  0  0  0  0  0  0  0  0  0  0
    2.0344   -1.6549   -2.5898 H   0  0  0  0  0  0  0  0  0  0  0  0
    3.1564   -2.3921   -1.4270 H   0  0  0  0  0  0  0  0  0  0  0  0
    1.1679   -2.0497   -0.6856 C   0  0  1  0  0  3  0  0  0  0  0  0
    1.0927   -2.1280    0.7645 C   0  0  0  0  0  3  0  0  0  0  0  0
    1.9067   -1.9627    1.4777 H   0  0  0  0  0  0  0  0  0  0  0  0
   -0.2420   -2.5860    1.1182 C   0  0  0  0  0  0  0  0  0  0  0  0
   -0.6231   -2.7025    2.1392 H   0  0  0  0  0  0  0  0  0  0  0  0
   -0.9842   -2.7556   -0.0739 C   0  0  0  0  0  0  0  0  0  0  0  0
   -2.0465   -3.0181   -0.1386 H   0  0  0  0  0  0  0  0  0  0  0  0
   -0.1376   -2.4156   -1.2065 C   0  0  0  0  0  3  0  0  0  0  0  0
   -0.4171   -2.4867   -2.2643 H   0  0  0  0  0  0  0  0  0  0  0  0
  1  2  1  0  0  0  0
  1  8  1  0  0  0  0
  3 12  1  0  0  0  0
  3  2  1  0  0  0  0
  4  1  1  0  0  0  0
  5  4  1  0  0  0  0
  6  4  2  0  0  0  0
  6  3  1  0  0  0  0
  7  6  1  0  0  0  0
  8 11  1  0  0  0  0
  8  9  1  0  0  0  0
 10  8  1  0  0  0  0
 12 13  1  6  0  0  0
 12 14  1  0  0  0  0
 14 20  1  0  0  0  0
 14 16  1  0  0  0  0
 14 15  1  0  0  0  0
 16 17  1  0  0  0  0
 16 18  1  0  0  0  0
 19 16  1  0  0  0  0
 20 21  1  0  0  0  0
 22 20  1  0  0  0  0
 23 20  1  0  0  0  0
 24 26  1  0  0  0  0
 24 12  1  0  0  0  0
 25 24  1  0  0  0  0
 27 24  1  1  0  0  0
 27 28  1  0  0  0  0
 28 30  1  0  0  0  0
 28 29  1  0  0  0  0
 30 31  1  0  0  0  0
 32 30  2  0  0  0  0
 33 32  1  0  0  0  0
 34 27  1  0  0  0  0
 34 32  1  0  0  0  0
 35 34  1  0  0  0  0
M  END
