1,5
q = -1.0

 19 19  0  0  0  0  0  0  0  0999 V2000
   -1.6401   -2.1366    0.6751 C   0  0  0  0  0  3  0  0  0  0  0  0
   -1.0020   -2.6579   -0.4818 C   0  0  0  0  0  0  0  0  0  0  0  0
   -1.0740   -1.9514   -1.7218 C   0  0  0  0  0  0  0  0  0  0  0  0
   -1.8410   -0.7587   -1.8294 C   0  0  0  0  0  3  0  0  0  0  0  0
   -2.4953   -0.2360   -0.6790 C   0  0  0  0  0  3  0  0  0  0  0  0
   -2.8508   -1.1928    0.4836 C   0  0  0  0  0  0  0  0  0  0  0  0
   -4.1227   -2.0013    0.1427 C   0  0  0  0  0  0  0  0  0  0  0  0
   -3.0721   -0.3958    1.7822 C   0  0  0  0  0  0  0  0  0  0  0  0
   -1.5822   -2.6959    1.6233 H   0  0  0  0  0  0  0  0  0  0  0  0
   -0.3443   -3.5369   -0.4061 H   0  0  0  0  0  0  0  0  0  0  0  0
   -0.4991   -2.3110   -2.5864 H   0  0  0  0  0  0  0  0  0  0  0  0
   -1.8410   -0.2017   -2.7789 H   0  0  0  0  0  0  0  0  0  0  0  0
   -3.1252    0.6616   -0.7871 H   0  0  0  0  0  0  0  0  0  0  0  0
   -3.9693   -2.5815   -0.7879 H   0  0  0  0  0  0  0  0  0  0  0  0
   -4.9923   -1.3260   -0.0064 H   0  0  0  0  0  0  0  0  0  0  0  0
   -4.3669   -2.7124    0.9605 H   0  0  0  0  0  0  0  0  0  0  0  0
   -3.9037    0.3303    1.6747 H   0  0  0  0  0  0  0  0  0  0  0  0
   -3.3167   -1.0769    2.6226 H   0  0  0  0  0  0  0  0  0  0  0  0
   -2.1654    0.1760    2.0847 H   0  0  0  0  0  0  0  0  0  0  0  0
  1  9  1  0  0  0  0
  2 10  1  0  0  0  0
  2  1  1  0  0  0  0
  3  2  2  0  0  0  0
  4  3  1  0  0  0  0
  4  5  1  0  0  0  0
  5  6  1  0  0  0  0
  6  1  1  0  0  0  0
  6  8  1  0  0  0  0
  7  6  1  0  0  0  0
  7 16  1  0  0  0  0
  8 19  1  0  0  0  0
  8 18  1  0  0  0  0
 11  3  1  0  0  0  0
 12  4  1  0  0  0  0
 13  5  1  0  0  0  0
 14  7  1  0  0  0  0
 15  7  1  0  0  0  0
 17  8  1  0  0  0  0
M  END
