1,8
q = 0.0, confidence = 0.984

 24 24  0  0  1  0  0  0  0  0999 V2000
    2.6788    0.1590   -0.9288 C   0  0  0  0  0  3  0  0  0  0  0  0
    2.8500   -0.2335   -1.9423 H   0  0  0  0  0  0  0  0  0  0  0  0
    2.4482    1.5460   -0.7600 C   0  0  0  0  0  0  0  0  0  0  0  0
    2.4561    2.2072   -1.6382 H   0  0  0  0  0  0  0  0  0  0  0  0
    2.0416    2.0822    0.5232 C   0  0  0  0  0  0  0  0  0  0  0  0
    1.8935    1.1643    1.6053 C   0  0  0  0  0  3  0  0  0  0  0  0
    1.5194    1.5388    2.5713 H   0  0  0  0  0  0  0  0  0  0  0  0
    2.1174   -0.2481    1.4242 C   0  0  0  0  0  3  0  0  0  0  0  0
    1.8962   -0.9356    2.2539 H   0  0  0  0  0  0  0  0  0  0  0  0
    2.5086   -0.7819    0.1600 C   0  0  1  0  0  3  0  0  0  0  0  0
    1.7108    3.5382    0.6638 C   0  0  0  0  0  0  0  0  0  0  0  0
    1.3054    3.7648    1.6679 H   0  0  0  0  0  0  0  0  0  0  0  0
    0.9417    3.8091   -0.0897 H   0  0  0  0  0  0  0  0  0  0  0  0
    2.6143    4.1605    0.4974 H   0  0  0  0  0  0  0  0  0  0  0  0
    2.6845   -2.2663   -0.0956 C   0  0  0  0  0  0  0  0  0  0  0  0
    2.3122   -2.4303   -1.1298 H   0  0  0  0  0  0  0  0  0  0  0  0
    1.8398   -3.1477    0.8286 C   0  0  0  0  0  0  0  0  0  0  0  0
    2.1932   -3.1088    1.8808 H   0  0  0  0  0  0  0  0  0  0  0  0
    1.9010   -4.2059    0.5061 H   0  0  0  0  0  0  0  0  0  0  0  0
    0.7762   -2.8385    0.7936 H   0  0  0  0  0  0  0  0  0  0  0  0
    4.1778   -2.6331   -0.0416 C   0  0  0  0  0  0  0  0  0  0  0  0
    4.7764   -2.0171   -0.7428 H   0  0  0  0  0  0  0  0  0  0  0  0
    4.3285   -3.6983   -0.3105 H   0  0  0  0  0  0  0  0  0  0  0  0
    4.5886   -2.4774    0.9780 H   0  0  0  0  0  0  0  0  0  0  0  0
  1  3  1  0  0  0  0
  1 10  1  0  0  0  0
  2  1  1  0  0  0  0
  3  5  2  0  0  0  0
  4  3  1  0  0  0  0
  5 11  1  0  0  0  0
  5  6  1  0  0  0  0
  6  7  1  0  0  0  0
  8  6  1  0  0  0  0
  8  9  1  0  0  0  0
 10 15  1  6  0  0  0
 10  8  1  0  0  0  0
 11 12  1  0  0  0  0
 13 11  1  0  0  0  0
 14 11  1  0  0  0  0
 15 21  1  0  0  0  0
 15 17  1  0  0  0  0
 16 15  1  0  0  0  0
 17 18  1  0  0  0  0
 19 17  1  0  0  0  0
 20 17  1  0  0  0  0
 21 24  1  0  0  0  0
 22 21  1  0  0  0  0
 23 21  1  0  0  0  0
M  END
