18,20
q = -1.0

 40 43  0  0  1  0  0  0  0  0999 V2000
   -2.6850   -0.2070   -2.0662 F   0  0  0  0  0  0  0  0  0  0  0  0
   -4.8000   -1.8676   -2.2691 F   0  0  0  0  0  0  0  0  0  0  0  0
   -4.8460   -4.2269   -0.8744 F   0  0  0  0  0  0  0  0  0  0  0  0
   -2.7393   -4.8958    0.7438 F   0  0  0  0  0  0  0  0  0  0  0  0
   -0.6184   -3.2424    0.9724 F   0  0  0  0  0  0  0  0  0  0  0  0
   -0.4755    3.1511   -1.7567 F   0  0  0  0  0  0  0  0  0  0  0  0
   -2.5212    4.9028   -1.7340 F   0  0  0  0  0  0  0  0  0  0  0  0
   -4.7708    4.3896   -0.2523 F   0  0  0  0  0  0  0  0  0  0  0  0
   -4.9258    2.0910    1.2335 F   0  0  0  0  0  0  0  0  0  0  0  0
   -2.8892    0.3354    1.2443 F   0  0  0  0  0  0  0  0  0  0  0  0
    3.2532   -2.0414   -1.8087 F   0  0  0  0  0  0  0  0  0  0  0  0
    5.9350   -2.0337   -2.0379 F   0  0  0  0  0  0  0  0  0  0  0  0
    7.4148    0.0204   -0.9856 F   0  0  0  0  0  0  0  0  0  0  0  0
    6.1564    2.0736    0.3224 F   0  0  0  0  0  0  0  0  0  0  0  0
    3.4740    2.0827    0.5854 F   0  0  0  0  0  0  0  0  0  0  0  0
   -0.4408   -0.7161   -0.3707 C   0  0  0  0  0  0  0  0  0  0  0  0
   -0.4479    0.7375   -0.2838 C   0  0  0  0  0  0  0  0  0  0  0  0
    0.9274    1.1617   -0.3281 C   0  0  0  0  0  3  0  0  0  0  0  0
    1.7823    0.0194   -0.4670 C   0  0  1  0  0  3  0  0  0  0  0  0
    0.9237   -1.1417   -0.4643 C   0  0  0  0  0  3  0  0  0  0  0  0
   -1.5945   -1.6302   -0.4902 C   0  0  0  0  0  0  0  0  0  0  0  0
   -2.6826   -1.3323   -1.3369 C   0  0  0  0  0  0  0  0  0  0  0  0
   -3.7875   -2.1879   -1.4618 C   0  0  0  0  0  0  0  0  0  0  0  0
   -3.8086   -3.4014   -0.7547 C   0  0  0  0  0  0  0  0  0  0  0  0
   -2.7281   -3.7421    0.0764 C   0  0  0  0  0  0  0  0  0  0  0  0
   -1.6347   -2.8695    0.1842 C   0  0  0  0  0  0  0  0  0  0  0  0
   -1.5855    1.6747   -0.2405 C   0  0  0  0  0  0  0  0  0  0  0  0
   -1.5454    2.8662   -0.9992 C   0  0  0  0  0  0  0  0  0  0  0  0
   -2.6021    3.7896   -1.0036 C   0  0  0  0  0  0  0  0  0  0  0  0
   -3.7583    3.5251   -0.2517 C   0  0  0  0  0  0  0  0  0  0  0  0
   -3.8355    2.3467    0.5094 C   0  0  0  0  0  0  0  0  0  0  0  0
   -2.7636    1.4424    0.5002 C   0  0  0  0  0  0  0  0  0  0  0  0
    3.2484    0.0237   -0.6031 C   0  0  0  0  0  0  0  0  0  0  0  0
    3.9321   -1.0181   -1.2681 C   0  0  0  0  0  0  0  0  0  0  0  0
    5.3297   -1.0322   -1.3985 C   0  0  0  0  0  0  0  0  0  0  0  0
    6.0893    0.0203   -0.8627 C   0  0  0  0  0  0  0  0  0  0  0  0
    5.4417    1.0746   -0.1958 C   0  0  0  0  0  0  0  0  0  0  0  0
    4.0448    1.0654   -0.0761 C   0  0  0  0  0  0  0  0  0  0  0  0
    1.2604    2.2018   -0.2916 H   0  0  0  0  0  0  0  0  0  0  0  0
    1.2477   -2.1811   -0.5586 H   0  0  0  0  0  0  0  0  0  0  0  0
  1 22  1  0  0  0  0
  2 23  1  0  0  0  0
  3 24  1  0  0  0  0
  6 28  1  0  0  0  0
  7 29  1  0  0  0  0
  8 30  1  0  0  0  0
 11 34  1  0  0  0  0
 12 35  1  0  0  0  0
 13 36  1  0  0  0  0
 16 17  2  0  0  0  0
 17 27  1  0  0  0  0
 18 39  1  0  0  0  0
 18 17  1  0  0  0  0
 19 33  1  6  0  0  0
 19 20  1  0  0  0  0
 19 18  1  0  0  0  0
 20 16  1  0  0  0  0
 21 16  1  0  0  0  0
 21 26  1  0  0  0  0
 22 21  2  0  0  0  0
 23 22  1  0  0  0  0
 23 24  2  0  0  0  0
 24 25  1  0  0  0  0
 25 26  2  0  0  0  0
 25  4  1  0  0  0  0
 26  5  1  0  0  0  0
 27 32  1  0  0  0  0
 28 27  2  0  0  0  0
 29 28  1  0  0  0  0
 29 30  2  0  0  0  0
 30 31  1  0  0  0  0
 31  9  1  0  0  0  0
 32 31  2  0  0  0  0
 32 10  1  0  0  0  0
 33 38  1  0  0  0  0
 34 33  2  0  0  0  0
 35 34  1  0  0  0  0
 35 36  2  0  0  0  0
 36 37  1  0  0  0  0
 37 38  2  0  0  0  0
 37 14  1  0  0  0  0
 38 15  1  0  0  0  0
 40 20  1  0  0  0  0
M  END
