6,8
q = 0.0, confidence = 0.986

 72 74  0  0  1  0  0  0  0  0999 V2000
   -3.6455    0.0295    0.4824 Si  0  0  0  0  0  0  0  0  0  0  0  0
   -2.4085   -0.1873   -0.7024 O   0  0  0  0  0  0  0  0  0  0  0  0
   -0.1731    4.3627   -0.1733 O   0  0  0  0  0  0  0  0  0  0  0  0
    3.0403   -1.1926   -1.1706 O   0  0  0  0  0  0  0  0  0  0  0  0
   -1.0754   -0.4279   -0.7222 C   0  0  0  0  0  0  0  0  0  0  0  0
   -0.6059   -1.7784   -0.8797 C   0  0  2  0  0  3  0  0  0  0  0  0
    0.7876   -2.0275   -1.0775 C   0  0  2  0  0  3  0  0  0  0  0  0
    1.7030   -0.9199   -1.0144 C   0  0  1  0  0  3  0  0  0  0  0  0
    1.2686    0.4203   -0.7737 C   0  0  1  0  0  3  0  0  0  0  0  0
    2.1986    1.6349   -0.8139 C   0  0  1  0  0  0  0  0  0  0  0  0
    2.2081    1.9567   -1.8822 H   0  0  0  0  0  0  0  0  0  0  0  0
    1.6227    2.8175   -0.0058 C   0  0  0  0  0  0  0  0  0  0  0  0
    1.7393    2.6191    1.0820 H   0  0  0  0  0  0  0  0  0  0  0  0
    2.2051    3.7341   -0.2216 H   0  0  0  0  0  0  0  0  0  0  0  0
    0.1754    3.0635   -0.2933 C   0  0  0  0  0  0  0  0  0  0  0  0
   -0.6649    2.0313   -0.5864 C   0  0  0  0  0  0  0  0  0  0  0  0
   -1.7388    2.1730   -0.7395 H   0  0  0  0  0  0  0  0  0  0  0  0
   -0.1549    0.6696   -0.6833 C   0  0  0  0  0  0  0  0  0  0  0  0
   -1.5431    4.6999   -0.3303 C   0  0  0  0  0  0  0  0  0  0  0  0
   -1.9183    4.4197   -1.3390 H   0  0  0  0  0  0  0  0  0  0  0  0
   -1.6159    5.7946   -0.1995 H   0  0  0  0  0  0  0  0  0  0  0  0
   -2.1711    4.1928    0.4345 H   0  0  0  0  0  0  0  0  0  0  0  0
    3.5190   -1.0245   -2.5004 C   0  0  0  0  0  0  0  0  0  0  0  0
    3.0763   -1.7769   -3.1923 H   0  0  0  0  0  0  0  0  0  0  0  0
    4.6157   -1.1578   -2.4610 H   0  0  0  0  0  0  0  0  0  0  0  0
    3.2997   -0.0103   -2.8972 H   0  0  0  0  0  0  0  0  0  0  0  0
    1.3107   -3.4254   -1.3580 C   0  0  0  0  0  0  0  0  0  0  0  0
    2.2680   -3.3346   -1.9048 H   0  0  0  0  0  0  0  0  0  0  0  0
    0.6061   -3.9240   -2.0554 H   0  0  0  0  0  0  0  0  0  0  0  0
    1.5374   -4.3157   -0.1293 C   0  0  0  0  0  0  0  0  0  0  0  0
    2.3416   -3.9078    0.5105 H   0  0  0  0  0  0  0  0  0  0  0  0
    1.8304   -5.3388   -0.4417 H   0  0  0  0  0  0  0  0  0  0  0  0
    0.6267   -4.3927    0.4969 H   0  0  0  0  0  0  0  0  0  0  0  0
   -1.6245   -2.8890   -0.9886 C   0  0  0  0  0  0  0  0  0  0  0  0
   -2.4373   -2.7058   -0.2649 H   0  0  0  0  0  0  0  0  0  0  0  0
   -1.1658   -3.8507   -0.6932 H   0  0  0  0  0  0  0  0  0  0  0  0
   -2.2109   -2.9840   -2.4043 C   0  0  0  0  0  0  0  0  0  0  0  0
   -2.7107   -2.0362   -2.6859 H   0  0  0  0  0  0  0  0  0  0  0  0
   -2.9601   -3.7985   -2.4676 H   0  0  0  0  0  0  0  0  0  0  0  0
   -1.4241   -3.1876   -3.1591 H   0  0  0  0  0  0  0  0  0  0  0  0
   -4.2666   -1.6276    1.1273 C   0  0  0  0  0  0  0  0  0  0  0  0
   -4.6320   -2.2911    0.3187 H   0  0  0  0  0  0  0  0  0  0  0  0
   -5.1128   -1.4439    1.8219 H   0  0  0  0  0  0  0  0  0  0  0  0
   -3.4798   -2.1573    1.6997 H   0  0  0  0  0  0  0  0  0  0  0  0
   -3.0329    1.0575    1.9312 C   0  0  0  0  0  0  0  0  0  0  0  0
   -2.3531    0.4586    2.5676 H   0  0  0  0  0  0  0  0  0  0  0  0
   -3.8976    1.3613    2.5570 H   0  0  0  0  0  0  0  0  0  0  0  0
   -2.4825    1.9667    1.6240 H   0  0  0  0  0  0  0  0  0  0  0  0
   -5.0129    0.9003   -0.5442 C   0  0  0  0  0  0  0  0  0  0  0  0
   -4.5087    2.2582   -1.0646 C   0  0  0  0  0  0  0  0  0  0  0  0
   -3.6471    2.1341   -1.7518 H   0  0  0  0  0  0  0  0  0  0  0  0
   -4.1996    2.9315   -0.2383 H   0  0  0  0  0  0  0  0  0  0  0  0
   -5.3118    2.7800   -1.6312 H   0  0  0  0  0  0  0  0  0  0  0  0
   -6.2425    1.1206    0.3589 C   0  0  0  0  0  0  0  0  0  0  0  0
   -7.0550    1.6222   -0.2120 H   0  0  0  0  0  0  0  0  0  0  0  0
   -6.0107    1.7653    1.2323 H   0  0  0  0  0  0  0  0  0  0  0  0
   -6.6554    0.1655    0.7437 H   0  0  0  0  0  0  0  0  0  0  0  0
   -5.3978    0.0082   -1.7399 C   0  0  0  0  0  0  0  0  0  0  0  0
   -5.7963   -0.9747   -1.4147 H   0  0  0  0  0  0  0  0  0  0  0  0
   -4.5280   -0.1807   -2.4012 H   0  0  0  0  0  0  0  0  0  0  0  0
   -6.1880    0.4983   -2.3510 H   0  0  0  0  0  0  0  0  0  0  0  0
    3.6458    1.4271   -0.3930 C   0  0  0  0  0  0  0  0  0  0  0  0
    3.9675    0.9529    0.8931 C   0  0  0  0  0  0  0  0  0  0  0  0
    3.1589    0.6698    1.5809 H   0  0  0  0  0  0  0  0  0  0  0  0
    5.3030    0.8116    1.2893 C   0  0  0  0  0  0  0  0  0  0  0  0
    5.5310    0.4154    2.2903 H   0  0  0  0  0  0  0  0  0  0  0  0
    6.3432    1.1642    0.4128 C   0  0  0  0  0  0  0  0  0  0  0  0
    7.3929    1.0518    0.7243 H   0  0  0  0  0  0  0  0  0  0  0  0
    6.0343    1.6682   -0.8592 C   0  0  0  0  0  0  0  0  0  0  0  0
    6.8403    1.9624   -1.5490 H   0  0  0  0  0  0  0  0  0  0  0  0
    4.6933    1.8007   -1.2549 C   0  0  0  0  0  0  0  0  0  0  0  0
    4.4549    2.2007   -2.2542 H   0  0  0  0  0  0  0  0  0  0  0  0
  1 41  1  0  0  0  0
  1 45  1  0  0  0  0
  2  1  1  0  0  0  0
  5  2  1  0  0  0  0
  5 18  2  0  0  0  0
  6 34  1  6  0  0  0
  6  5  1  0  0  0  0
  7 27  1  6  0  0  0
  7  8  1  0  0  0  0
  7  6  1  0  0  0  0
  8  4  1  1  0  0  0
  8  9  1  0  0  0  0
  9 18  1  6  0  0  0
 10 11  1  6  0  0  0
 10  9  1  0  0  0  0
 10 62  1  0  0  0  0
 10 12  1  0  0  0  0
 12 13  1  0  0  0  0
 14 12  1  0  0  0  0
 15  3  1  0  0  0  0
 15 12  1  0  0  0  0
 16 15  2  0  0  0  0
 17 16  1  0  0  0  0
 18 16  1  0  0  0  0
 19 21  1  0  0  0  0
 19  3  1  0  0  0  0
 19 22  1  0  0  0  0
 20 19  1  0  0  0  0
 23 25  1  0  0  0  0
 23  4  1  0  0  0  0
 24 23  1  0  0  0  0
 26 23  1  0  0  0  0
 27 30  1  0  0  0  0
 28 27  1  0  0  0  0
 29 27  1  0  0  0  0
 30 33  1  0  0  0  0
 30 31  1  0  0  0  0
 32 30  1  0  0  0  0
 34 36  1  0  0  0  0
 34 35  1  0  0  0  0
 37 34  1  0  0  0  0
 38 37  1  0  0  0  0
 39 37  1  0  0  0  0
 40 37  1  0  0  0  0
 41 44  1  0  0  0  0
 41 43  1  0  0  0  0
 42 41  1  0  0  0  0
 45 47  1  0  0  0  0
 45 46  1  0  0  0  0
 48 45  1  0  0  0  0
 49 54  1  0  0  0  0
 49  1  1  0  0  0  0
 50 49  1  0  0  0  0
 50 52  1  0  0  0  0
 51 50  1  0  0  0  0
 53 50  1  0  0  0  0
 54 57  1  0  0  0  0
 54 56  1  0  0  0  0
 55 54  1  0  0  0  0
 58 59  1  0  0  0  0
 58 49  1  0  0  0  0
 60 58  1  0  0  0  0
 61 58  1  0  0  0  0
 62 63  1  0  0  0  0
 63 65  2  0  0  0  0
 63 64  1  0  0  0  0
 65 66  1  0  0  0  0
 67 68  1  0  0  0  0
 67 65  1  0  0  0  0
 69 67  2  0  0  0  0
 70 69  1  0  0  0  0
 71 69  1  0  0  0  0
 71 62  2  0  0  0  0
 72 71  1  0  0  0  0
M  END
