13
q = 0.0, confidence = 1.0

 60 63  0  0  1  0  0  0  0  0999 V2000
    7.7257   -1.4459   -0.4632 F   0  0  0  0  0  0  0  0  0  0  0  0
   -0.3704   -2.5489    2.3444 O   0  0  0  0  0  0  0  0  0  0  0  0
    2.1583    1.2388    0.6112 O   0  0  0  0  0  0  0  0  0  0  0  0
   -0.7638   -1.4677    1.6347 C   0  0  0  0  0  0  0  0  0  0  0  0
   -1.1390   -3.7400    2.2368 C   0  0  0  0  0  0  0  0  0  0  0  0
   -2.1524   -3.6187    2.6785 H   0  0  0  0  0  0  0  0  0  0  0  0
   -0.5907   -4.5139    2.8035 H   0  0  0  0  0  0  0  0  0  0  0  0
   -1.2315   -4.0585    1.1761 H   0  0  0  0  0  0  0  0  0  0  0  0
    0.1889   -0.4138    1.5209 C   0  0  0  0  0  0  0  0  0  0  0  0
    1.1842   -0.5427    1.9626 H   0  0  0  0  0  0  0  0  0  0  0  0
   -0.1259    0.7741    0.8091 C   0  0  1  0  0  3  0  0  0  0  0  0
   -1.4006    0.9238    0.1599 C   0  0  2  0  0  3  0  0  0  0  0  0
   -2.3426   -0.1488    0.2517 C   0  0  1  0  0  3  0  0  0  0  0  0
   -2.0169   -1.3411    0.9832 C   0  0  0  0  0  3  0  0  0  0  0  0
   -2.7488   -2.1576    1.0069 H   0  0  0  0  0  0  0  0  0  0  0  0
   -3.7472   -0.0305   -0.3173 C   0  0  2  0  0  0  0  0  0  0  0  0
   -3.9811   -0.9914   -0.8221 H   0  0  0  0  0  0  0  0  0  0  0  0
   -3.8756    1.1050   -1.3442 C   0  0  0  0  0  0  0  0  0  0  0  0
   -3.4121    0.7832   -2.3003 H   0  0  0  0  0  0  0  0  0  0  0  0
   -4.9493    1.2878   -1.5509 H   0  0  0  0  0  0  0  0  0  0  0  0
   -3.1889    2.3842   -0.8603 C   0  0  0  0  0  0  0  0  0  0  0  0
   -3.3606    3.2129   -1.5778 H   0  0  0  0  0  0  0  0  0  0  0  0
   -3.6162    2.7168    0.1117 H   0  0  0  0  0  0  0  0  0  0  0  0
   -1.6860    2.1391   -0.7199 C   0  0  1  0  0  0  0  0  0  0  0  0
   -1.3164    1.8793   -1.7364 H   0  0  0  0  0  0  0  0  0  0  0  0
   -0.8710    3.3492   -0.2644 C   0  0  0  0  0  0  0  0  0  0  0  0
   -1.2311    3.7041    0.7264 H   0  0  0  0  0  0  0  0  0  0  0  0
   -1.0315    4.1874   -0.9733 H   0  0  0  0  0  0  0  0  0  0  0  0
    0.6156    2.9882   -0.2093 C   0  0  0  0  0  0  0  0  0  0  0  0
    1.2262    3.8873    0.0104 H   0  0  0  0  0  0  0  0  0  0  0  0
    0.9363    2.6067   -1.2007 H   0  0  0  0  0  0  0  0  0  0  0  0
    0.9125    1.9042    0.8457 C   0  0  2  0  0  0  0  0  0  0  0  0
    3.3319    2.0055    0.4580 C   0  0  0  0  0  0  0  0  0  0  0  0
    3.5334    2.6446    1.3523 H   0  0  0  0  0  0  0  0  0  0  0  0
    3.2478    2.6963   -0.4160 H   0  0  0  0  0  0  0  0  0  0  0  0
    4.4984    1.0670    0.2359 C   0  0  0  0  0  0  0  0  0  0  0  0
    5.8178    1.5401    0.3708 C   0  0  0  0  0  0  0  0  0  0  0  0
    5.9975    2.5857    0.6695 H   0  0  0  0  0  0  0  0  0  0  0  0
    6.9135    0.6996    0.1327 C   0  0  0  0  0  0  0  0  0  0  0  0
    7.9488    1.0548    0.2356 H   0  0  0  0  0  0  0  0  0  0  0  0
    6.6762   -0.6303   -0.2380 C   0  0  0  0  0  0  0  0  0  0  0  0
    5.3762   -1.1289   -0.3730 C   0  0  0  0  0  0  0  0  0  0  0  0
    5.2255   -2.1789   -0.6622 H   0  0  0  0  0  0  0  0  0  0  0  0
    4.2896   -0.2742   -0.1369 C   0  0  0  0  0  0  0  0  0  0  0  0
    3.2617   -0.6491   -0.2357 H   0  0  0  0  0  0  0  0  0  0  0  0
    0.8971    2.5098    2.2662 C   0  0  0  0  0  0  0  0  0  0  0  0
    1.1392    1.7356    3.0188 H   0  0  0  0  0  0  0  0  0  0  0  0
   -0.0979    2.9288    2.5114 H   0  0  0  0  0  0  0  0  0  0  0  0
    1.6387    3.3294    2.3490 H   0  0  0  0  0  0  0  0  0  0  0  0
   -4.7467    0.1391    0.8653 C   0  0  0  0  0  0  0  0  0  0  0  0
   -4.6001   -0.7118    1.5674 H   0  0  0  0  0  0  0  0  0  0  0  0
   -4.4897    1.0560    1.4345 H   0  0  0  0  0  0  0  0  0  0  0  0
   -6.1983    0.1847    0.4471 C   0  0  0  0  0  0  0  0  0  0  0  0
   -6.9671    1.2650    0.6985 C   0  0  0  0  0  0  0  0  0  0  0  0
   -8.0293    1.2955    0.4080 H   0  0  0  0  0  0  0  0  0  0  0  0
   -6.5588    2.1512    1.2102 H   0  0  0  0  0  0  0  0  0  0  0  0
   -6.7343   -1.0334   -0.2597 C   0  0  0  0  0  0  0  0  0  0  0  0
   -7.8228   -0.9573   -0.4439 H   0  0  0  0  0  0  0  0  0  0  0  0
   -6.5434   -1.9550    0.3319 H   0  0  0  0  0  0  0  0  0  0  0  0
   -6.2353   -1.1858   -1.2412 H   0  0  0  0  0  0  0  0  0  0  0  0
  1 41  1  0  0  0  0
  3 32  1  0  0  0  0
  4  2  1  0  0  0  0
  5  2  1  0  0  0  0
  5  6  1  0  0  0  0
  5  7  1  0  0  0  0
  8  5  1  0  0  0  0
  9  4  2  0  0  0  0
  9 10  1  0  0  0  0
 11 32  1  0  0  0  0
 11  9  1  1  0  0  0
 12 13  1  0  0  0  0
 12 11  1  0  0  0  0
 13 14  1  0  0  0  0
 14 15  1  0  0  0  0
 14  4  1  0  0  0  0
 16 13  1  0  0  0  0
 16 50  1  0  0  0  0
 17 16  1  0  0  0  0
 18 21  1  0  0  0  0
 18 16  1  0  0  0  0
 19 18  1  0  0  0  0
 20 18  1  0  0  0  0
 21 24  1  0  0  0  0
 21 23  1  0  0  0  0
 22 21  1  0  0  0  0
 24 26  1  0  0  0  0
 24 12  1  0  0  0  0
 25 24  1  0  0  0  0
 26 29  1  0  0  0  0
 26 27  1  0  0  0  0
 28 26  1  0  0  0  0
 29 30  1  0  0  0  0
 29 32  1  0  0  0  0
 31 29  1  0  0  0  0
 32 46  1  0  0  0  0
 33  3  1  0  0  0  0
 33 34  1  0  0  0  0
 35 33  1  0  0  0  0
 36 37  1  0  0  0  0
 36 33  1  0  0  0  0
 37 38  1  0  0  0  0
 39 40  1  0  0  0  0
 39 37  2  0  0  0  0
 41 39  1  0  0  0  0
 42 41  2  0  0  0  0
 42 44  1  0  0  0  0
 43 42  1  0  0  0  0
 44 36  2  0  0  0  0
 45 44  1  0  0  0  0
 46 49  1  0  0  0  0
 46 48  1  0  0  0  0
 46 47  1  0  0  0  0
 50 52  1  0  0  0  0
 50 51  1  0  0  0  0
 53 54  2  0  0  0  0
 53 50  1  0  0  0  0
 54 56  1  0  0  0  0
 55 54  1  0  0  0  0
 57 59  1  0  0  0  0
 57 53  1  0  0  0  0
 58 57  1  0  0  0  0
 60 57  1  0  0  0  0
M  END
