6,9
q = -2.0, confidence = 0.6

 26 25  0  0  0  0  0  0  0  0999 V2000
   -3.2636   -2.7798   -2.0823 O   0  0  0  0  0  0  0  0  0  0  0  0
   -3.2716   -0.6689   -1.2464 O   0  0  0  0  0  0  0  0  0  0  0  0
    3.7120   -2.4065   -1.3436 O   0  0  0  0  0  0  0  0  0  0  0  0
    3.3180   -0.1930   -1.6132 O   0  0  0  0  0  0  0  0  0  0  0  0
   -2.6468   -1.6866   -1.5469 C   0  0  0  0  0  0  0  0  0  0  0  0
   -1.1939   -1.8498   -1.4032 C   0  0  0  0  0  3  0  0  0  0  0  0
   -0.5037   -2.8855   -1.9831 C   0  0  0  0  0  0  0  0  0  0  0  0
    0.9382   -2.8028   -1.9444 C   0  0  0  0  0  0  0  0  0  0  0  0
    1.4612   -1.6850   -1.3468 C   0  0  0  0  0  3  0  0  0  0  0  0
    2.8886   -1.3335   -1.4459 C   0  0  0  0  0  0  0  0  0  0  0  0
   -5.4632   -3.0534   -1.0358 C   0  0  0  0  0  0  0  0  0  0  0  0
   -4.6853   -2.6799   -2.2886 C   0  0  0  0  0  0  0  0  0  0  0  0
    5.1253   -2.1256   -1.4195 C   0  0  0  0  0  0  0  0  0  0  0  0
    5.8685   -3.3752   -0.9955 C   0  0  0  0  0  0  0  0  0  0  0  0
   -1.0244   -3.7103   -2.4968 H   0  0  0  0  0  0  0  0  0  0  0  0
    1.5768   -3.5615   -2.4272 H   0  0  0  0  0  0  0  0  0  0  0  0
   -6.5516   -3.0548   -1.2490 H   0  0  0  0  0  0  0  0  0  0  0  0
   -5.1784   -4.0642   -0.6807 H   0  0  0  0  0  0  0  0  0  0  0  0
   -5.2703   -2.3260   -0.2236 H   0  0  0  0  0  0  0  0  0  0  0  0
   -4.8986   -3.3805   -3.1205 H   0  0  0  0  0  0  0  0  0  0  0  0
   -4.9310   -1.6471   -2.6101 H   0  0  0  0  0  0  0  0  0  0  0  0
    5.3516   -1.2601   -0.7627 H   0  0  0  0  0  0  0  0  0  0  0  0
    5.3759   -1.8194   -2.4583 H   0  0  0  0  0  0  0  0  0  0  0  0
    5.6155   -4.2350   -1.6473 H   0  0  0  0  0  0  0  0  0  0  0  0
    6.9621   -3.2051   -1.0526 H   0  0  0  0  0  0  0  0  0  0  0  0
    5.6130   -3.6453    0.0484 H   0  0  0  0  0  0  0  0  0  0  0  0
  1  5  1  0  0  0  0
  4 10  2  0  0  0  0
  5  6  1  0  0  0  0
  5  2  2  0  0  0  0
  7  8  1  0  0  0  0
  7  6  2  0  0  0  0
  8  9  2  0  0  0  0
 10  9  1  0  0  0  0
 10  3  1  0  0  0  0
 11 18  1  0  0  0  0
 11 19  1  0  0  0  0
 12  1  1  0  0  0  0
 12 11  1  0  0  0  0
 13  3  1  0  0  0  0
 13 14  1  0  0  0  0
 13 22  1  0  0  0  0
 14 26  1  0  0  0  0
 15  7  1  0  0  0  0
 16  8  1  0  0  0  0
 17 11  1  0  0  0  0
 20 12  1  0  0  0  0
 21 12  1  0  0  0  0
 23 13  1  0  0  0  0
 24 14  1  0  0  0  0
 25 14  1  0  0  0  0
M  END
