4,6
q = 0.0, confidence = 1.0

 41 42  0  0  1  0  0  0  0  0999 V2000
    0.3065    2.2738   -0.5934 Si  0  0  0  0  0  0  0  0  0  0  0  0
   -0.5723   -0.5188   -1.2290 C   0  0  0  0  0  0  0  0  0  0  0  0
   -0.9146    0.8869   -1.1022 C   0  0  1  0  0  3  0  0  0  0  0  0
   -2.2934    1.2401   -1.2807 C   0  0  0  0  0  3  0  0  0  0  0  0
   -3.3068    0.2887   -1.5625 C   0  0  0  0  0  3  0  0  0  0  0  0
   -2.9477   -1.0851   -1.6453 C   0  0  0  0  0  3  0  0  0  0  0  0
   -1.5988   -1.4889   -1.5151 C   0  0  0  0  0  3  0  0  0  0  0  0
    0.8034   -0.9216   -0.9865 C   0  0  0  0  0  0  0  0  0  0  0  0
    2.7339   -2.4262   -0.7033 C   0  0  0  0  0  0  0  0  0  0  0  0
    3.4513   -1.3183    0.0100 C   0  0  0  0  0  0  0  0  0  0  0  0
    4.2816   -0.4225   -0.6940 C   0  0  0  0  0  0  0  0  0  0  0  0
    4.9283    0.6276   -0.0246 C   0  0  0  0  0  0  0  0  0  0  0  0
    4.7550    0.7895    1.3588 C   0  0  0  0  0  0  0  0  0  0  0  0
    3.9297   -0.0979    2.0693 C   0  0  0  0  0  0  0  0  0  0  0  0
    3.2795   -1.1438    1.4000 C   0  0  0  0  0  0  0  0  0  0  0  0
    1.0194    1.9807    1.1306 C   0  0  0  0  0  0  0  0  0  0  0  0
    1.6919    2.4085   -1.8807 C   0  0  0  0  0  0  0  0  0  0  0  0
   -0.6589    3.8997   -0.5532 C   0  0  0  0  0  0  0  0  0  0  0  0
    0.6740   -3.1905   -1.4659 O   0  0  0  0  0  1  0  0  0  0  0  0
    1.2848   -2.1592   -1.0791 N   0  0  0  0  0  0  0  0  0  0  0  0
   -2.5932    2.2896   -1.1536 H   0  0  0  0  0  0  0  0  0  0  0  0
   -4.3557    0.6025   -1.6455 H   0  0  0  0  0  0  0  0  0  0  0  0
   -3.7241   -1.8483   -1.7982 H   0  0  0  0  0  0  0  0  0  0  0  0
   -1.3069   -2.5439   -1.5642 H   0  0  0  0  0  0  0  0  0  0  0  0
    1.5251   -0.1820   -0.6295 H   0  0  0  0  0  0  0  0  0  0  0  0
    3.2258   -2.7037   -1.6560 H   0  0  0  0  0  0  0  0  0  0  0  0
    2.6588   -3.3396   -0.0840 H   0  0  0  0  0  0  0  0  0  0  0  0
    4.4223   -0.5538   -1.7787 H   0  0  0  0  0  0  0  0  0  0  0  0
    5.5739    1.3198   -0.5859 H   0  0  0  0  0  0  0  0  0  0  0  0
    5.2635    1.6109    1.8858 H   0  0  0  0  0  0  0  0  0  0  0  0
    3.7846    0.0299    3.1524 H   0  0  0  0  0  0  0  0  0  0  0  0
    2.6093   -1.8197    1.9534 H   0  0  0  0  0  0  0  0  0  0  0  0
    0.2110    2.0453    1.8858 H   0  0  0  0  0  0  0  0  0  0  0  0
    1.7746    2.7613    1.3597 H   0  0  0  0  0  0  0  0  0  0  0  0
    1.5120    0.9972    1.2485 H   0  0  0  0  0  0  0  0  0  0  0  0
    1.2767    2.5480   -2.8996 H   0  0  0  0  0  0  0  0  0  0  0  0
    2.3322    3.2849   -1.6487 H   0  0  0  0  0  0  0  0  0  0  0  0
    2.3470    1.5150   -1.8968 H   0  0  0  0  0  0  0  0  0  0  0  0
   -1.1101    4.1561   -1.5332 H   0  0  0  0  0  0  0  0  0  0  0  0
    0.0331    4.7225   -0.2790 H   0  0  0  0  0  0  0  0  0  0  0  0
   -1.4607    3.8729    0.2128 H   0  0  0  0  0  0  0  0  0  0  0  0
  1 18  1  0  0  0  0
  1 16  1  0  0  0  0
  2  3  1  0  0  0  0
  2  8  2  0  0  0  0
  3  1  1  1  0  0  0
  4 21  1  0  0  0  0
  4  3  1  0  0  0  0
  5  4  1  0  0  0  0
  6  5  1  0  0  0  0
  6  7  1  0  0  0  0
  7  2  1  0  0  0  0
  8 25  1  0  0  0  0
  9 27  1  0  0  0  0
  9 10  1  0  0  0  0
 10 15  1  0  0  0  0
 11 12  1  0  0  0  0
 11 10  2  0  0  0  0
 12 13  2  0  0  0  0
 13 30  1  0  0  0  0
 13 14  1  0  0  0  0
 14 31  1  0  0  0  0
 15 32  1  0  0  0  0
 15 14  2  0  0  0  0
 16 35  1  0  0  0  0
 16 34  1  0  0  0  0
 16 33  1  0  0  0  0
 17 37  1  0  0  0  0
 17  1  1  0  0  0  0
 18 40  1  0  0  0  0
 18 41  1  0  0  0  0
 19 20  1  0  0  0  0
 20  8  1  0  0  0  0
 20  9  1  0  0  0  0
 22  5  1  0  0  0  0
 23  6  1  0  0  0  0
 24  7  1  0  0  0  0
 26  9  1  0  0  0  0
 28 11  1  0  0  0  0
 29 12  1  0  0  0  0
 36 17  1  0  0  0  0
 38 17  1  0  0  0  0
 39 18  1  0  0  0  0
M  END
