1
q = -2.0, confidence = 0.81

 40 41  0  0  1  0  0  0  0  0999 V2000
    1.3527    0.2265   -1.8789 C   0  0  1  0  0  3  0  0  0  0  0  0
    0.4514   -0.8294   -2.2417 C   0  0  0  0  0  3  0  0  0  0  0  0
    0.7436   -1.8514   -2.5133 H   0  0  0  0  0  0  0  0  0  0  0  0
   -0.8845   -0.3299   -2.1859 C   0  0  0  0  0  0  0  0  0  0  0  0
   -1.7965   -0.8939   -2.4119 H   0  0  0  0  0  0  0  0  0  0  0  0
   -0.8257    1.0241   -1.7707 C   0  0  0  0  0  0  0  0  0  0  0  0
   -1.6797    1.6934   -1.6193 H   0  0  0  0  0  0  0  0  0  0  0  0
    0.5451    1.3668   -1.5661 C   0  0  0  0  0  3  0  0  0  0  0  0
    0.8969    2.3450   -1.2165 H   0  0  0  0  0  0  0  0  0  0  0  0
    2.7894   -0.0113   -1.4297 C   0  0  2  0  0  0  0  0  0  0  0  0
    3.1882   -0.8760   -1.9971 H   0  0  0  0  0  0  0  0  0  0  0  0
    2.5845   -0.4636    0.0185 C   0  0  2  0  0  3  0  0  0  0  0  0
    2.1932   -1.8103    0.3468 C   0  0  2  0  0  3  0  0  0  0  0  0
    1.6983   -1.8190    1.6912 C   0  0  0  0  0  0  0  0  0  0  0  0
    1.7700   -0.4856    2.1995 C   0  0  0  0  0  0  0  0  0  0  0  0
    2.3082    0.3638    1.1683 C   0  0  1  0  0  3  0  0  0  0  0  0
    2.3786   -3.0438   -0.4915 C   0  0  0  0  0  0  0  0  0  0  0  0
    2.7705   -2.8101   -1.4989 H   0  0  0  0  0  0  0  0  0  0  0  0
    1.4368   -3.6153   -0.6220 H   0  0  0  0  0  0  0  0  0  0  0  0
    3.1064   -3.7303   -0.0093 H   0  0  0  0  0  0  0  0  0  0  0  0
    1.3405   -3.0475    2.4704 C   0  0  0  0  0  0  0  0  0  0  0  0
    2.2478   -3.4968    2.9302 H   0  0  0  0  0  0  0  0  0  0  0  0
    0.8780   -3.8257    1.8332 H   0  0  0  0  0  0  0  0  0  0  0  0
    0.6345   -2.8274    3.2949 H   0  0  0  0  0  0  0  0  0  0  0  0
    1.4742   -0.0922    3.6161 C   0  0  0  0  0  0  0  0  0  0  0  0
    0.6598   -0.7053    4.0499 H   0  0  0  0  0  0  0  0  0  0  0  0
    1.1704    0.9683    3.7088 H   0  0  0  0  0  0  0  0  0  0  0  0
    2.3682   -0.2325    4.2614 H   0  0  0  0  0  0  0  0  0  0  0  0
    2.6115    1.8265    1.3511 C   0  0  0  0  0  0  0  0  0  0  0  0
    2.2416    2.1846    2.3298 H   0  0  0  0  0  0  0  0  0  0  0  0
    2.1514    2.4724    0.5790 H   0  0  0  0  0  0  0  0  0  0  0  0
    3.7055    2.0134    1.3260 H   0  0  0  0  0  0  0  0  0  0  0  0
    3.7561    1.1627   -1.6663 C   0  0  0  0  0  0  0  0  0  0  0  0
    3.7905    1.3744   -2.7550 H   0  0  0  0  0  0  0  0  0  0  0  0
    3.3553    2.0790   -1.1855 H   0  0  0  0  0  0  0  0  0  0  0  0
    5.1376    0.8849   -1.1460 C   0  0  0  0  0  0  0  0  0  0  0  0
    5.2094    0.6678   -0.0640 H   0  0  0  0  0  0  0  0  0  0  0  0
    6.2559    0.8574   -1.8910 C   0  0  0  0  0  0  0  0  0  0  0  0
    6.2283    1.0576   -2.9756 H   0  0  0  0  0  0  0  0  0  0  0  0
    7.2399    0.6401   -1.4472 H   0  0  0  0  0  0  0  0  0  0  0  0
  1  8  1  0  0  0  0
  1 10  1  1  0  0  0
  2  4  1  0  0  0  0
  2  1  1  0  0  0  0
  3  2  1  0  0  0  0
  4  6  2  0  0  0  0
  5  4  1  0  0  0  0
  6  7  1  0  0  0  0
  6  8  1  0  0  0  0
  8  9  1  0  0  0  0
 10 11  1  6  0  0  0
 12 10  1  6  0  0  0
 12 13  1  0  0  0  0
 12 16  1  0  0  0  0
 13 17  1  1  0  0  0
 13 14  1  0  0  0  0
 14 15  2  0  0  0  0
 14 21  1  0  0  0  0
 15 25  1  0  0  0  0
 16 29  1  1  0  0  0
 16 15  1  0  0  0  0
 17 20  1  0  0  0  0
 18 17  1  0  0  0  0
 19 17  1  0  0  0  0
 21 22  1  0  0  0  0
 21 24  1  0  0  0  0
 23 21  1  0  0  0  0
 25 27  1  0  0  0  0
 25 26  1  0  0  0  0
 25 28  1  0  0  0  0
 29 30  1  0  0  0  0
 31 29  1  0  0  0  0
 32 29  1  0  0  0  0
 33 10  1  0  0  0  0
 33 35  1  0  0  0  0
 33 36  1  0  0  0  0
 34 33  1  0  0  0  0
 36 37  1  0  0  0  0
 38 40  1  0  0  0  0
 38 36  2  0  0  0  0
 39 38  1  0  0  0  0
M  END
