7,13
q = -2.0, confidence = 0.574

 16 16  0  0  0  0  0  0  0  0999 V2000
   -0.3133   -3.8582    2.2747 C   0  0  0  0  0  0  0  0  0  0  0  0
    0.3048   -4.7361    2.0322 H   0  0  0  0  0  0  0  0  0  0  0  0
   -1.5804   -3.9137    1.6557 C   0  0  0  0  0  0  0  0  0  0  0  0
   -1.7010   -4.8352    1.0655 H   0  0  0  0  0  0  0  0  0  0  0  0
   -2.5805   -2.9653    1.3442 C   0  0  0  0  0  0  0  0  0  0  0  0
   -3.2701   -3.3204    0.5629 H   0  0  0  0  0  0  0  0  0  0  0  0
   -2.8231   -1.6136    1.7054 C   0  0  0  0  0  3  0  0  0  0  0  0
   -3.6397   -1.1488    1.1321 H   0  0  0  0  0  0  0  0  0  0  0  0
   -2.2345   -0.7227    2.6426 C   0  0  0  0  0  3  0  0  0  0  0  0
   -2.7102    0.2695    2.6210 H   0  0  0  0  0  0  0  0  0  0  0  0
   -1.0393   -0.7231    3.3980 C   0  0  0  0  0  3  0  0  0  0  0  0
   -0.8363    0.2667    3.8368 H   0  0  0  0  0  0  0  0  0  0  0  0
    0.1059   -1.5568    3.4415 C   0  0  0  0  0  3  0  0  0  0  0  0
    0.9755   -1.0519    3.8894 H   0  0  0  0  0  0  0  0  0  0  0  0
    0.4298   -2.8441    2.9266 C   0  0  0  0  0  0  0  0  0  0  0  0
    1.4889   -3.1063    3.0716 H   0  0  0  0  0  0  0  0  0  0  0  0
  1 15  2  0  0  0  0
  2  1  1  0  0  0  0
  3  1  1  0  0  0  0
  4  3  1  0  0  0  0
  5  3  2  0  0  0  0
  5  7  1  0  0  0  0
  6  5  1  0  0  0  0
  7  9  1  0  0  0  0
  8  7  1  0  0  0  0
  9 11  1  0  0  0  0
 10  9  1  0  0  0  0
 11 13  1  0  0  0  0
 11 12  1  0  0  0  0
 13 14  1  0  0  0  0
 15 16  1  0  0  0  0
 15 13  1  0  0  0  0
M  END
