3,20
q = -2.0, confidence = 0.81

 56 57  0  0  1  0  0  0  0  0999 V2000
    5.1200    1.4267   -0.2013 Si  0  0  0  0  0  0  0  0  0  0  0  0
   -1.2368    3.3826   -0.2057 Si  0  0  0  0  0  0  0  0  0  0  0  0
    3.3130    1.0109   -0.1366 C   0  0  0  0  0  2  0  0  0  0  0  0
    2.1282    1.5494   -0.2001 C   0  0  0  0  0  3  0  0  0  0  0  0
    0.8172    1.3979   -0.1414 C   0  0  0  0  0  0  0  0  0  0  0  0
   -0.5168    1.6196   -0.1023 C   0  0  0  0  0  0  0  0  0  0  0  0
   -2.2038    3.7497    1.3799 C   0  0  0  0  0  0  0  0  0  0  0  0
   -2.6358    4.7715    1.3444 H   0  0  0  0  0  0  0  0  0  0  0  0
   -1.5441    3.6872    2.2693 H   0  0  0  0  0  0  0  0  0  0  0  0
   -3.0302    3.0234    1.5127 H   0  0  0  0  0  0  0  0  0  0  0  0
   -2.3663    3.5229   -1.7178 C   0  0  0  0  0  0  0  0  0  0  0  0
   -2.7850    4.5480   -1.7953 H   0  0  0  0  0  0  0  0  0  0  0  0
   -3.2075    2.8050   -1.6496 H   0  0  0  0  0  0  0  0  0  0  0  0
   -1.8057    3.3102   -2.6508 H   0  0  0  0  0  0  0  0  0  0  0  0
    0.2202    4.5763   -0.3702 C   0  0  0  0  0  0  0  0  0  0  0  0
   -0.1374    5.6247   -0.4331 H   0  0  0  0  0  0  0  0  0  0  0  0
    0.8124    4.3597   -1.2824 H   0  0  0  0  0  0  0  0  0  0  0  0
    0.9022    4.4967    0.5007 H   0  0  0  0  0  0  0  0  0  0  0  0
   -1.3129    0.3852    0.0083 C   0  0  2  0  0  3  0  0  0  0  0  0
   -0.6306   -0.8378    0.0505 C   0  0  0  0  0  2  0  0  0  0  0  0
   -2.7347    0.4833    0.0625 C   0  0  0  0  0  0  0  0  0  0  0  0
   -3.9648    0.5651    0.1205 C   0  0  0  0  0  0  0  0  0  0  0  0
   -5.3851    0.6090    0.1575 C   0  0  0  0  0  0  0  0  0  0  0  0
   -6.1372   -0.5966    0.1631 C   0  0  0  0  0  0  0  0  0  0  0  0
   -5.5998   -1.5562    0.1423 H   0  0  0  0  0  0  0  0  0  0  0  0
   -7.5354   -0.5572    0.1913 C   0  0  0  0  0  0  0  0  0  0  0  0
   -8.1053   -1.4990    0.1950 H   0  0  0  0  0  0  0  0  0  0  0  0
   -8.2134    0.6739    0.2154 C   0  0  0  0  0  0  0  0  0  0  0  0
   -9.3134    0.6992    0.2387 H   0  0  0  0  0  0  0  0  0  0  0  0
   -7.4798    1.8727    0.2099 C   0  0  0  0  0  0  0  0  0  0  0  0
   -8.0055    2.8397    0.2285 H   0  0  0  0  0  0  0  0  0  0  0  0
   -6.0811    1.8467    0.1810 C   0  0  0  0  0  0  0  0  0  0  0  0
   -5.5038    2.7832    0.1760 H   0  0  0  0  0  0  0  0  0  0  0  0
   -1.4257   -2.0776   -0.0999 C   0  0  0  0  0  0  0  0  0  0  0  0
   -2.2889   -2.2007   -1.2249 C   0  0  0  0  0  0  0  0  0  0  0  0
   -2.3690   -1.3531   -1.9221 H   0  0  0  0  0  0  0  0  0  0  0  0
   -3.0282   -3.3650   -1.4665 C   0  0  0  0  0  0  0  0  0  0  0  0
   -3.6780   -3.4197   -2.3538 H   0  0  0  0  0  0  0  0  0  0  0  0
   -2.9446   -4.4547   -0.5843 C   0  0  0  0  0  0  0  0  0  0  0  0
   -3.5263   -5.3703   -0.7692 H   0  0  0  0  0  0  0  0  0  0  0  0
   -2.1060   -4.3572    0.5366 C   0  0  0  0  0  0  0  0  0  0  0  0
   -2.0347   -5.1965    1.2458 H   0  0  0  0  0  0  0  0  0  0  0  0
   -1.3542   -3.1961    0.7685 C   0  0  0  0  0  0  0  0  0  0  0  0
   -0.7199   -3.1544    1.6611 H   0  0  0  0  0  0  0  0  0  0  0  0
    5.4538    2.9619    0.8551 C   0  0  0  0  0  0  0  0  0  0  0  0
    4.8559    3.8218    0.4907 H   0  0  0  0  0  0  0  0  0  0  0  0
    6.5264    3.2453    0.8224 H   0  0  0  0  0  0  0  0  0  0  0  0
    5.1785    2.7837    1.9146 H   0  0  0  0  0  0  0  0  0  0  0  0
    5.5853    1.7699   -2.0059 C   0  0  0  0  0  0  0  0  0  0  0  0
    5.3970    0.8887   -2.6520 H   0  0  0  0  0  0  0  0  0  0  0  0
    6.6603    2.0329   -2.0903 H   0  0  0  0  0  0  0  0  0  0  0  0
    4.9894    2.6153   -2.4054 H   0  0  0  0  0  0  0  0  0  0  0  0
    6.1427   -0.0275    0.4535 C   0  0  0  0  0  0  0  0  0  0  0  0
    5.9537   -0.2086    1.5308 H   0  0  0  0  0  0  0  0  0  0  0  0
    7.2259    0.1814    0.3347 H   0  0  0  0  0  0  0  0  0  0  0  0
    5.9165   -0.9666   -0.0906 H   0  0  0  0  0  0  0  0  0  0  0  0
  1  3  1  0  0  0  0
  1 53  1  0  0  0  0
  1 45  1  0  0  0  0
  2  6  1  0  0  0  0
  2  7  1  0  0  0  0
  4  5  2  0  0  0  0
  4  3  1  0  0  0  0
  5  6  2  0  0  0  0
  6 19  1  0  0  0  0
  7 10  1  0  0  0  0
  7  9  1  0  0  0  0
  8  7  1  0  0  0  0
 11 13  1  0  0  0  0
 11  2  1  0  0  0  0
 12 11  1  0  0  0  0
 14 11  1  0  0  0  0
 15  2  1  0  0  0  0
 15 18  1  0  0  0  0
 16 15  1  0  0  0  0
 17 15  1  0  0  0  0
 19 20  1  6  0  0  0
 19 21  1  0  0  0  0
 21 22  3  0  0  0  0
 22 23  1  0  0  0  0
 23 24  2  0  0  0  0
 23 32  1  0  0  0  0
 24 26  1  0  0  0  0
 25 24  1  0  0  0  0
 26 27  1  0  0  0  0
 26 28  2  0  0  0  0
 28 29  1  0  0  0  0
 30 28  1  0  0  0  0
 30 31  1  0  0  0  0
 32 30  2  0  0  0  0
 33 32  1  0  0  0  0
 34 20  1  0  0  0  0
 34 43  1  0  0  0  0
 35 34  2  0  0  0  0
 36 35  1  0  0  0  0
 37 35  1  0  0  0  0
 37 39  2  0  0  0  0
 38 37  1  0  0  0  0
 39 41  1  0  0  0  0
 40 39  1  0  0  0  0
 41 43  2  0  0  0  0
 41 42  1  0  0  0  0
 43 44  1  0  0  0  0
 45 48  1  0  0  0  0
 46 45  1  0  0  0  0
 47 45  1  0  0  0  0
 49  1  1  0  0  0  0
 50 49  1  0  0  0  0
 51 49  1  0  0  0  0
 52 49  1  0  0  0  0
 53 54  1  0  0  0  0
 55 53  1  0  0  0  0
 56 53  1  0  0  0  0
M  END
