2,4
q = -1.0, confidence = 0.004

 50 52  0  0  1  0  0  0  0  0999 V2000
    0.7932    0.2641   -0.0788 S   0  0  0  0  0  1  0  0  0  0  0  0
   -0.3323   -2.4570    0.5842 C   0  0  1  0  0  3  0  0  0  0  0  0
   -1.0103   -1.7933    1.7001 C   0  0  2  0  0  3  0  0  0  0  0  0
   -2.4045   -1.5162    1.5766 C   0  0  0  0  0  3  0  0  0  0  0  0
   -2.8989   -0.9449    2.3789 H   0  0  0  0  0  0  0  0  0  0  0  0
   -3.1831   -1.9316    0.4341 C   0  0  0  0  0  0  0  0  0  0  0  0
   -2.4824   -2.5752   -0.6219 C   0  0  0  0  0  0  0  0  0  0  0  0
   -3.0198   -2.8033   -1.5557 H   0  0  0  0  0  0  0  0  0  0  0  0
   -1.0705   -2.9056   -0.5551 C   0  0  1  0  0  3  0  0  0  0  0  0
   -0.2372   -1.3868    2.9232 C   0  0  0  0  0  0  0  0  0  0  0  0
    0.1874   -2.2811    3.4237 H   0  0  0  0  0  0  0  0  0  0  0  0
   -0.8831   -0.8528    3.6458 H   0  0  0  0  0  0  0  0  0  0  0  0
    0.6182   -0.7322    2.6572 H   0  0  0  0  0  0  0  0  0  0  0  0
   -4.6588   -1.6520    0.3646 C   0  0  0  0  0  0  0  0  0  0  0  0
   -5.2271   -2.4023    0.9551 H   0  0  0  0  0  0  0  0  0  0  0  0
   -5.0285   -1.6943   -0.6773 H   0  0  0  0  0  0  0  0  0  0  0  0
   -4.8992   -0.6530    0.7804 H   0  0  0  0  0  0  0  0  0  0  0  0
   -0.4161   -3.5170   -1.7606 C   0  0  0  0  0  0  0  0  0  0  0  0
   -0.8886   -4.4889   -2.0110 H   0  0  0  0  0  0  0  0  0  0  0  0
    0.6648   -3.6752   -1.5982 H   0  0  0  0  0  0  0  0  0  0  0  0
   -0.5413   -2.8299   -2.6258 H   0  0  0  0  0  0  0  0  0  0  0  0
    1.7660   -1.1696    0.2894 C   0  0  0  0  0  0  0  0  0  0  0  0
    1.1605   -2.4245    0.5727 C   0  0  0  0  0  0  0  0  0  0  0  0
    1.9517   -3.5526    0.8434 C   0  0  0  0  0  0  0  0  0  0  0  0
    1.4602   -4.5142    1.0601 H   0  0  0  0  0  0  0  0  0  0  0  0
    3.3513   -3.4532    0.8362 C   0  0  0  0  0  0  0  0  0  0  0  0
    3.9719   -4.3371    1.0445 H   0  0  0  0  0  0  0  0  0  0  0  0
    3.9525   -2.2145    0.5546 C   0  0  0  0  0  0  0  0  0  0  0  0
    5.0501   -2.1243    0.5342 H   0  0  0  0  0  0  0  0  0  0  0  0
    3.1847   -1.0690    0.2804 C   0  0  0  0  0  0  0  0  0  0  0  0
    3.8359    0.2376   -0.0376 C   0  0  0  0  0  0  0  0  0  0  0  0
    4.0224    0.6230   -1.3903 C   0  0  0  0  0  0  0  0  0  0  0  0
    4.6475    1.8520   -1.6629 C   0  0  0  0  0  0  0  0  0  0  0  0
    4.7926    2.1498   -2.7146 H   0  0  0  0  0  0  0  0  0  0  0  0
    5.0823    2.7121   -0.6374 C   0  0  0  0  0  0  0  0  0  0  0  0
    4.8633    2.3179    0.6942 C   0  0  0  0  0  0  0  0  0  0  0  0
    5.1792    2.9848    1.5136 H   0  0  0  0  0  0  0  0  0  0  0  0
    4.2438    1.0956    1.0123 C   0  0  0  0  0  0  0  0  0  0  0  0
    3.5174   -0.2511   -2.5098 C   0  0  0  0  0  0  0  0  0  0  0  0
    3.8511   -1.3018   -2.3921 H   0  0  0  0  0  0  0  0  0  0  0  0
    3.8588    0.1184   -3.4960 H   0  0  0  0  0  0  0  0  0  0  0  0
    2.4054   -0.2668   -2.5124 H   0  0  0  0  0  0  0  0  0  0  0  0
    5.7761    4.0117   -0.9642 C   0  0  0  0  0  0  0  0  0  0  0  0
    5.8075    4.6904   -0.0892 H   0  0  0  0  0  0  0  0  0  0  0  0
    5.2712    4.5451   -1.7954 H   0  0  0  0  0  0  0  0  0  0  0  0
    6.8258    3.8378   -1.2859 H   0  0  0  0  0  0  0  0  0  0  0  0
    3.9758    0.7174    2.4483 C   0  0  0  0  0  0  0  0  0  0  0  0
    2.8855    0.5887    2.6185 H   0  0  0  0  0  0  0  0  0  0  0  0
    4.3467    1.4918    3.1476 H   0  0  0  0  0  0  0  0  0  0  0  0
    4.4475   -0.2497    2.7167 H   0  0  0  0  0  0  0  0  0  0  0  0
  1 22  1  0  0  0  0
  2 23  1  6  0  0  0
  2  3  1  0  0  0  0
  3 10  1  6  0  0  0
  4  3  1  0  0  0  0
  4  5  1  0  0  0  0
  6  4  1  0  0  0  0
  7  9  1  0  0  0  0
  7  6  2  0  0  0  0
  8  7  1  0  0  0  0
  9 18  1  6  0  0  0
  9  2  1  0  0  0  0
 10 11  1  0  0  0  0
 10 12  1  0  0  0  0
 13 10  1  0  0  0  0
 14  6  1  0  0  0  0
 14 17  1  0  0  0  0
 14 15  1  0  0  0  0
 16 14  1  0  0  0  0
 18 20  1  0  0  0  0
 19 18  1  0  0  0  0
 21 18  1  0  0  0  0
 22 23  1  0  0  0  0
 23 24  2  0  0  0  0
 24 25  1  0  0  0  0
 26 24  1  0  0  0  0
 26 27  1  0  0  0  0
 28 26  2  0  0  0  0
 29 28  1  0  0  0  0
 30 22  2  0  0  0  0
 30 28  1  0  0  0  0
 31 30  1  0  0  0  0
 31 38  1  0  0  0  0
 32 31  2  0  0  0  0
 33 32  1  0  0  0  0
 33 35  2  0  0  0  0
 34 33  1  0  0  0  0
 35 36  1  0  0  0  0
 36 38  2  0  0  0  0
 36 37  1  0  0  0  0
 38 47  1  0  0  0  0
 39 40  1  0  0  0  0
 39 32  1  0  0  0  0
 41 39  1  0  0  0  0
 42 39  1  0  0  0  0
 43 35  1  0  0  0  0
 43 44  1  0  0  0  0
 45 43  1  0  0  0  0
 46 43  1  0  0  0  0
 47 48  1  0  0  0  0
 47 50  1  0  0  0  0
 47 49  1  0  0  0  0
M  END
