1,7
q = -1.0, confidence = 0.014

 10 10  0  0  0  0  0  0  0  0999 V2000
    1.7753   -0.7657   -2.3443 C   0  0  0  0  0  3  0  0  0  0  0  0
    2.7550   -0.8126   -1.8518 H   0  0  0  0  0  0  0  0  0  0  0  0
    1.3569    0.2356   -3.3233 C   0  0  0  0  0  0  0  0  0  0  0  0
    1.9503    1.1063   -3.6301 H   0  0  0  0  0  0  0  0  0  0  0  0
    0.0366   -0.0720   -3.7571 C   0  0  0  0  0  0  0  0  0  0  0  0
   -0.5775    0.5189   -4.4464 H   0  0  0  0  0  0  0  0  0  0  0  0
   -0.4034   -1.2395   -3.0055 C   0  0  0  0  0  3  0  0  0  0  0  0
   -1.3906   -1.7132   -3.0851 H   0  0  0  0  0  0  0  0  0  0  0  0
    0.7012   -1.7168   -2.2066 C   0  0  0  0  0  3  0  0  0  0  0  0
    0.7007   -2.6144   -1.5785 H   0  0  0  0  0  0  0  0  0  0  0  0
  1  9  1  0  0  0  0
  1  2  1  0  0  0  0
  3  1  1  0  0  0  0
  4  3  1  0  0  0  0
  5  3  2  0  0  0  0
  5  7  1  0  0  0  0
  6  5  1  0  0  0  0
  7  9  1  0  0  0  0
  8  7  1  0  0  0  0
  9 10  1  0  0  0  0
M  END
