4,10
q = -1.0

 23 24  0  0  0  0  0  0  0  0999 V2000
   -5.0904   -0.4737    0.0000 Br  0  0  0  0  0  0  0  0  0  0  0  0
    2.9125    1.9631   -0.0000 S   0  0  0  0  0  0  0  0  0  0  0  0
    0.3878    2.2523    0.0000 N   0  0  0  0  0  0  0  0  0  0  0  0
    1.3389    1.2584    0.0000 C   0  0  0  0  0  2  0  0  0  0  0  0
    0.8859    3.5696   -0.0000 C   0  0  0  0  0  0  0  0  0  0  0  0
   -0.0031    4.7710    0.0000 C   0  0  0  0  0  0  0  0  0  0  0  0
    2.2633    3.5961   -0.0000 C   0  0  0  0  0  0  0  0  0  0  0  0
    3.1924    4.7679   -0.0002 C   0  0  0  0  0  0  0  0  0  0  0  0
   -0.9547    1.7398    0.0000 C   0  0  0  0  0  0  0  0  0  0  0  0
   -0.9776    0.3146    0.0000 C   0  0  0  0  0  3  0  0  0  0  0  0
   -2.2221   -0.3375    0.0000 C   0  0  0  0  0  0  0  0  0  0  0  0
   -3.4039    0.4204    0.0000 C   0  0  0  0  0  0  0  0  0  0  0  0
   -3.3772    1.8226   -0.0000 C   0  0  0  0  0  0  0  0  0  0  0  0
   -2.1406    2.4895   -0.0000 C   0  0  0  0  0  0  0  0  0  0  0  0
   -0.6547    4.8023    0.8965 H   0  0  0  0  0  0  0  0  0  0  0  0
   -0.6546    4.8024   -0.8965 H   0  0  0  0  0  0  0  0  0  0  0  0
    0.6091    5.6901    0.0001 H   0  0  0  0  0  0  0  0  0  0  0  0
    2.6336    5.7225    0.0005 H   0  0  0  0  0  0  0  0  0  0  0  0
    3.8505    4.7654   -0.8941 H   0  0  0  0  0  0  0  0  0  0  0  0
    3.8515    4.7648    0.8930 H   0  0  0  0  0  0  0  0  0  0  0  0
   -2.2544   -1.4365    0.0001 H   0  0  0  0  0  0  0  0  0  0  0  0
   -4.3131    2.3974   -0.0001 H   0  0  0  0  0  0  0  0  0  0  0  0
   -2.1447    3.5834   -0.0001 H   0  0  0  0  0  0  0  0  0  0  0  0
  1 12  1  0  0  0  0
  2  7  1  0  0  0  0
  2  4  1  0  0  0  0
  3  9  1  0  0  0  0
  4  3  1  0  0  0  0
  5  3  1  0  0  0  0
  5  6  1  0  0  0  0
  6 17  1  0  0  0  0
  6 15  1  0  0  0  0
  7  5  2  0  0  0  0
  8  7  1  0  0  0  0
  8 18  1  0  0  0  0
  8 20  1  0  0  0  0
  9 10  1  0  0  0  0
 11 10  2  0  0  0  0
 11 21  1  0  0  0  0
 12 11  1  0  0  0  0
 13 14  1  0  0  0  0
 13 12  2  0  0  0  0
 14  9  2  0  0  0  0
 16  6  1  0  0  0  0
 19  8  1  0  0  0  0
 22 13  1  0  0  0  0
 23 14  1  0  0  0  0
M  END
