9,35
q = 0.0, confidence = 0.94

 72 78  0  0  1  0  0  0  0  0999 V2000
   -1.3629    0.3421    0.9844 N   0  0  0  0  0  0  0  0  0  0  0  0
   -1.3608    1.3747    1.0210 H   0  0  0  0  0  0  0  0  0  0  0  0
    1.3633   -0.3401    0.9848 N   0  0  0  0  0  0  0  0  0  0  0  0
    1.3611   -1.3726    1.0238 H   0  0  0  0  0  0  0  0  0  0  0  0
    2.7719    0.0784    0.6829 C   0  0  0  0  0  0  0  0  0  0  0  0
    3.3768    0.0534    1.6148 H   0  0  0  0  0  0  0  0  0  0  0  0
    2.8066    1.5023    0.1602 C   0  0  0  0  0  0  0  0  0  0  0  0
    2.1429    1.8692   -1.0504 C   0  0  0  0  0  0  0  0  0  0  0  0
    1.3631    0.9356   -1.8875 C   0  0  0  0  0  3  0  0  0  0  0  0
    0.9226    1.4352   -2.7715 H   0  0  0  0  0  0  0  0  0  0  0  0
    1.5677   -0.4960   -2.0216 C   0  0  0  0  0  3  0  0  0  0  0  0
    1.2116   -0.9114   -2.9837 H   0  0  0  0  0  0  0  0  0  0  0  0
    2.7241   -1.2446   -1.5002 C   0  0  0  0  0  0  0  0  0  0  0  0
    3.3578   -0.9566   -0.2552 C   0  0  0  0  0  0  0  0  0  0  0  0
    3.4954    2.4750    0.9047 C   0  0  0  0  0  0  0  0  0  0  0  0
    4.0043    2.1670    1.8330 H   0  0  0  0  0  0  0  0  0  0  0  0
    3.5409    3.8176    0.4991 C   0  0  0  0  0  0  0  0  0  0  0  0
    4.0787    4.5626    1.1042 H   0  0  0  0  0  0  0  0  0  0  0  0
    2.8822    4.1927   -0.6820 C   0  0  0  0  0  0  0  0  0  0  0  0
    2.9018    5.2406   -1.0189 H   0  0  0  0  0  0  0  0  0  0  0  0
    2.2011    3.2318   -1.4375 C   0  0  0  0  0  0  0  0  0  0  0  0
    1.6932    3.5270   -2.3689 H   0  0  0  0  0  0  0  0  0  0  0  0
    3.2564   -2.3137   -2.2642 C   0  0  0  0  0  0  0  0  0  0  0  0
    2.7744   -2.5550   -3.2247 H   0  0  0  0  0  0  0  0  0  0  0  0
    4.3741   -3.0428   -1.8454 C   0  0  0  0  0  0  0  0  0  0  0  0
    4.7593   -3.8612   -2.4733 H   0  0  0  0  0  0  0  0  0  0  0  0
    5.0076   -2.7262   -0.6325 C   0  0  0  0  0  0  0  0  0  0  0  0
    5.8901   -3.2897   -0.2947 H   0  0  0  0  0  0  0  0  0  0  0  0
    4.4868   -1.6890    0.1531 C   0  0  0  0  0  0  0  0  0  0  0  0
    4.9577   -1.4433    1.1192 H   0  0  0  0  0  0  0  0  0  0  0  0
   -2.7715   -0.0772    0.6836 C   0  0  0  0  0  0  0  0  0  0  0  0
   -3.3762   -0.0507    1.6156 H   0  0  0  0  0  0  0  0  0  0  0  0
   -2.8062   -1.5021    0.1635 C   0  0  0  0  0  0  0  0  0  0  0  0
   -2.1430   -1.8712   -1.0466 C   0  0  0  0  0  0  0  0  0  0  0  0
   -1.3632   -0.9391   -1.8855 C   0  0  0  0  0  3  0  0  0  0  0  0
   -0.9226   -1.4403   -2.7686 H   0  0  0  0  0  0  0  0  0  0  0  0
   -1.5680    0.4923   -2.0222 C   0  0  0  0  0  3  0  0  0  0  0  0
   -1.2121    0.9059   -2.9852 H   0  0  0  0  0  0  0  0  0  0  0  0
   -2.7245    1.2414   -1.5021 C   0  0  0  0  0  0  0  0  0  0  0  0
   -3.3579    0.9557   -0.2564 C   0  0  0  0  0  0  0  0  0  0  0  0
   -3.4950   -2.4735    0.9099 C   0  0  0  0  0  0  0  0  0  0  0  0
   -4.0036   -2.1637    1.8378 H   0  0  0  0  0  0  0  0  0  0  0  0
   -3.5407   -3.8167    0.5066 C   0  0  0  0  0  0  0  0  0  0  0  0
   -4.0785   -4.5606    1.1131 H   0  0  0  0  0  0  0  0  0  0  0  0
   -2.8825   -4.1939   -0.6741 C   0  0  0  0  0  0  0  0  0  0  0  0
   -2.9024   -5.2424   -1.0092 H   0  0  0  0  0  0  0  0  0  0  0  0
   -2.2015   -3.2344   -1.4314 C   0  0  0  0  0  0  0  0  0  0  0  0
   -1.6938   -3.5313   -2.3625 H   0  0  0  0  0  0  0  0  0  0  0  0
   -3.2574    2.3087   -2.2682 C   0  0  0  0  0  0  0  0  0  0  0  0
   -2.7758    2.5483   -3.2293 H   0  0  0  0  0  0  0  0  0  0  0  0
   -4.3754    3.0383   -1.8507 C   0  0  0  0  0  0  0  0  0  0  0  0
   -4.7610    3.8553   -2.4802 H   0  0  0  0  0  0  0  0  0  0  0  0
   -5.0085    2.7239   -0.6369 C   0  0  0  0  0  0  0  0  0  0  0  0
   -5.8911    3.2877   -0.3002 H   0  0  0  0  0  0  0  0  0  0  0  0
   -4.4871    1.6886    0.1507 C   0  0  0  0  0  0  0  0  0  0  0  0
   -4.9577    1.4447    1.1174 H   0  0  0  0  0  0  0  0  0  0  0  0
   -0.7531   -0.1722    2.2395 C   0  0  2  0  0  0  0  0  0  0  0  0
   -0.8531   -1.2812    2.2046 H   0  0  0  0  0  0  0  0  0  0  0  0
   -1.4331    0.3506    3.5148 C   0  0  0  0  0  0  0  0  0  0  0  0
   -1.4003    1.4639    3.4986 H   0  0  0  0  0  0  0  0  0  0  0  0
   -2.5046    0.0657    3.5151 H   0  0  0  0  0  0  0  0  0  0  0  0
   -0.7454   -0.1679    4.7828 C   0  0  0  0  0  0  0  0  0  0  0  0
   -0.8675   -1.2724    4.8391 H   0  0  0  0  0  0  0  0  0  0  0  0
   -1.2440    0.2474    5.6824 H   0  0  0  0  0  0  0  0  0  0  0  0
    0.7466    0.1784    4.7822 C   0  0  0  0  0  0  0  0  0  0  0  0
    1.2454   -0.2349    5.6827 H   0  0  0  0  0  0  0  0  0  0  0  0
    0.8687    1.2830    4.8360 H   0  0  0  0  0  0  0  0  0  0  0  0
    1.4340   -0.3430    3.5153 C   0  0  0  0  0  0  0  0  0  0  0  0
    2.5055   -0.0581    3.5147 H   0  0  0  0  0  0  0  0  0  0  0  0
    1.4012   -1.4564    3.5017 H   0  0  0  0  0  0  0  0  0  0  0  0
    0.7538    0.1769    2.2390 C   0  0  1  0  0  0  0  0  0  0  0  0
    0.8538    1.2858    2.2017 H   0  0  0  0  0  0  0  0  0  0  0  0
  1  2  1  0  0  0  0
  1 57  1  0  0  0  0
  3  4  1  0  0  0  0
  3 71  1  0  0  0  0
  5  3  1  0  0  0  0
  5  6  1  0  0  0  0
  7  5  1  0  0  0  0
  7 15  1  0  0  0  0
  8  7  2  0  0  0  0
  9  8  1  0  0  0  0
 10  9  1  0  0  0  0
 11  9  1  0  0  0  0
 11 13  1  0  0  0  0
 12 11  1  0  0  0  0
 13 14  1  0  0  0  0
 14 29  2  0  0  0  0
 14  5  1  0  0  0  0
 15 16  1  0  0  0  0
 17 15  2  0  0  0  0
 17 18  1  0  0  0  0
 19 17  1  0  0  0  0
 20 19  1  0  0  0  0
 21  8  1  0  0  0  0
 21 19  2  0  0  0  0
 22 21  1  0  0  0  0
 23 25  1  0  0  0  0
 23 13  2  0  0  0  0
 24 23  1  0  0  0  0
 25 27  2  0  0  0  0
 26 25  1  0  0  0  0
 27 28  1  0  0  0  0
 27 29  1  0  0  0  0
 29 30  1  0  0  0  0
 31  1  1  0  0  0  0
 31 32  1  0  0  0  0
 33 31  1  0  0  0  0
 33 41  1  0  0  0  0
 34 33  2  0  0  0  0
 35 34  1  0  0  0  0
 36 35  1  0  0  0  0
 37 35  1  0  0  0  0
 37 39  1  0  0  0  0
 38 37  1  0  0  0  0
 39 40  1  0  0  0  0
 40 55  2  0  0  0  0
 40 31  1  0  0  0  0
 41 42  1  0  0  0  0
 43 41  2  0  0  0  0
 43 44  1  0  0  0  0
 45 43  1  0  0  0  0
 46 45  1  0  0  0  0
 47 34  1  0  0  0  0
 47 45  2  0  0  0  0
 48 47  1  0  0  0  0
 49 51  1  0  0  0  0
 49 39  2  0  0  0  0
 50 49  1  0  0  0  0
 51 53  2  0  0  0  0
 52 51  1  0  0  0  0
 53 54  1  0  0  0  0
 53 55  1  0  0  0  0
 55 56  1  0  0  0  0
 57 58  1  6  0  0  0
 57 59  1  0  0  0  0
 59 61  1  0  0  0  0
 59 62  1  0  0  0  0
 60 59  1  0  0  0  0
 62 63  1  0  0  0  0
 62 64  1  0  0  0  0
 65 62  1  0  0  0  0
 65 67  1  0  0  0  0
 65 66  1  0  0  0  0
 68 65  1  0  0  0  0
 69 68  1  0  0  0  0
 70 68  1  0  0  0  0
 71 72  1  6  0  0  0
 71 57  1  0  0  0  0
 71 68  1  0  0  0  0
M  END
