9,13
q = -1.0, confidence = 0.158

 14 14  0  0  0  0  0  0  0  0999 V2000
    0.1287   -2.3532    2.2767 C   0  0  0  0  0  0  0  0  0  0  0  0
    0.2449   -3.3271    1.7760 H   0  0  0  0  0  0  0  0  0  0  0  0
   -1.2018   -1.8742    2.4134 C   0  0  0  0  0  0  0  0  0  0  0  0
   -1.9814   -2.5286    1.9905 H   0  0  0  0  0  0  0  0  0  0  0  0
   -1.6643   -0.6166    2.9199 C   0  0  0  0  0  0  0  0  0  0  0  0
   -2.7494   -0.4396    2.8303 H   0  0  0  0  0  0  0  0  0  0  0  0
   -0.9014    0.4962    3.3503 C   0  0  0  0  0  0  0  0  0  0  0  0
   -1.4665    1.4208    3.5506 H   0  0  0  0  0  0  0  0  0  0  0  0
    0.5261    0.6257    3.4002 C   0  0  0  0  0  3  0  0  0  0  0  0
    0.8937    1.6406    3.6240 H   0  0  0  0  0  0  0  0  0  0  0  0
    1.5211   -0.3286    3.0780 C   0  0  0  0  0  3  0  0  0  0  0  0
    2.5626    0.0299    3.1009 H   0  0  0  0  0  0  0  0  0  0  0  0
    1.3302   -1.6381    2.5287 C   0  0  0  0  0  3  0  0  0  0  0  0
    2.2499   -2.1344    2.1760 H   0  0  0  0  0  0  0  0  0  0  0  0
  1  3  2  0  0  0  0
  1 13  1  0  0  0  0
  2  1  1  0  0  0  0
  3  5  1  0  0  0  0
  4  3  1  0  0  0  0
  5  7  2  0  0  0  0
  6  5  1  0  0  0  0
  7  9  1  0  0  0  0
  7  8  1  0  0  0  0
  9 10  1  0  0  0  0
 11 12  1  0  0  0  0
 11  9  1  0  0  0  0
 13 11  1  0  0  0  0
 14 13  1  0  0  0  0
M  END
