5
q = -1.0, confidence = 0.002

 37 42  0  0  1  0  0  0  0  0999 V2000
    0.8974   -0.9495   -0.7627 C   0  0  0  0  0  0  0  0  0  0  0  0
   -0.3223   -1.4806   -0.2363 C   0  0  0  0  0  0  0  0  0  0  0  0
   -0.4797   -0.9438    1.0871 C   0  0  2  0  0  3  0  0  0  0  0  0
    0.6511   -0.1229    1.3591 C   0  0  2  0  0  3  0  0  0  0  0  0
    1.4529    0.0021    0.1681 C   0  0  1  0  0  3  0  0  0  0  0  0
    3.6524   -0.6374   -0.7334 C   0  0  0  0  0  0  0  0  0  0  0  0
    3.7768   -1.5902   -0.1735 H   0  0  0  0  0  0  0  0  0  0  0  0
    4.6739   -0.2648   -0.9526 H   0  0  0  0  0  0  0  0  0  0  0  0
    2.9377   -0.9765   -2.0873 C   0  0  0  0  0  0  0  0  0  0  0  0
    2.8489   -0.0460   -2.6933 H   0  0  0  0  0  0  0  0  0  0  0  0
    3.5725   -1.6725   -2.6719 H   0  0  0  0  0  0  0  0  0  0  0  0
    1.5535   -1.5537   -1.8593 C   0  0  0  0  0  0  0  0  0  0  0  0
    0.9098   -2.6801   -2.3797 C   0  0  0  0  0  0  0  0  0  0  0  0
    1.3841   -3.2400   -3.2023 H   0  0  0  0  0  0  0  0  0  0  0  0
   -0.3041   -3.2282   -1.8183 C   0  0  0  0  0  0  0  0  0  0  0  0
   -0.6742   -4.1774   -2.2379 H   0  0  0  0  0  0  0  0  0  0  0  0
   -0.9335   -2.6612   -0.7046 C   0  0  0  0  0  0  0  0  0  0  0  0
   -1.9452   -3.2707    0.2694 C   0  0  0  0  0  0  0  0  0  0  0  0
   -1.4718   -4.1865    0.6881 H   0  0  0  0  0  0  0  0  0  0  0  0
   -2.8508   -3.6256   -0.2650 H   0  0  0  0  0  0  0  0  0  0  0  0
   -2.4185   -2.3577    1.4696 C   0  0  0  0  0  0  0  0  0  0  0  0
   -3.2226   -1.6879    1.0895 H   0  0  0  0  0  0  0  0  0  0  0  0
   -2.8908   -3.0010    2.2381 H   0  0  0  0  0  0  0  0  0  0  0  0
   -1.3489   -1.4555    2.0707 C   0  0  0  0  0  0  0  0  0  0  0  0
   -1.0132   -1.0891    3.3758 C   0  0  0  0  0  0  0  0  0  0  0  0
   -1.6054   -1.4612    4.2269 H   0  0  0  0  0  0  0  0  0  0  0  0
    0.1495   -0.2755    3.6687 C   0  0  0  0  0  0  0  0  0  0  0  0
    0.3866   -0.0970    4.7302 H   0  0  0  0  0  0  0  0  0  0  0  0
    1.0037    0.2268    2.6829 C   0  0  0  0  0  0  0  0  0  0  0  0
    2.3581    0.9083    2.7456 C   0  0  0  0  0  0  0  0  0  0  0  0
    2.8018    0.8323    3.7587 H   0  0  0  0  0  0  0  0  0  0  0  0
    2.2253    1.9952    2.5405 H   0  0  0  0  0  0  0  0  0  0  0  0
    3.3579    0.3086    1.6959 C   0  0  0  0  0  0  0  0  0  0  0  0
    3.5148   -0.7608    1.9578 H   0  0  0  0  0  0  0  0  0  0  0  0
    4.3405    0.8094    1.8140 H   0  0  0  0  0  0  0  0  0  0  0  0
    2.9075    0.3716    0.1995 C   0  0  2  0  0  0  0  0  0  0  0  0
    3.0683    1.4022   -0.1822 H   0  0  0  0  0  0  0  0  0  0  0  0
  1  2  1  0  0  0  0
  3  2  1  1  0  0  0
  3  4  1  0  0  0  0
  3 24  1  0  0  0  0
  4 29  1  1  0  0  0
  5  1  1  1  0  0  0
  5 36  1  0  0  0  0
  5  4  1  0  0  0  0
  6  7  1  0  0  0  0
  6 36  1  0  0  0  0
  8  6  1  0  0  0  0
  9 12  1  0  0  0  0
  9  6  1  0  0  0  0
 10  9  1  0  0  0  0
 11  9  1  0  0  0  0
 12  1  2  0  0  0  0
 13 12  1  0  0  0  0
 13 15  2  0  0  0  0
 14 13  1  0  0  0  0
 15 17  1  0  0  0  0
 16 15  1  0  0  0  0
 17  2  2  0  0  0  0
 17 18  1  0  0  0  0
 18 19  1  0  0  0  0
 18 21  1  0  0  0  0
 20 18  1  0  0  0  0
 21 24  1  0  0  0  0
 21 23  1  0  0  0  0
 22 21  1  0  0  0  0
 24 25  2  0  0  0  0
 25 27  1  0  0  0  0
 25 26  1  0  0  0  0
 27 28  1  0  0  0  0
 29 30  1  0  0  0  0
 29 27  2  0  0  0  0
 30 31  1  0  0  0  0
 32 30  1  0  0  0  0
 33 35  1  0  0  0  0
 33 34  1  0  0  0  0
 33 30  1  0  0  0  0
 36 37  1  6  0  0  0
 36 33  1  0  0  0  0
M  END
