14,18
q = 0.0, confidence = 0.998

 43 45  0  0  1  0  0  0  0  0999 V2000
    3.3217    1.4170    0.0170 N   0  0  0  0  0  0  0  0  0  0  0  0
    0.4923   -1.2678   -1.6882 N   0  0  0  0  0  0  0  0  0  0  0  0
   -1.5321   -1.9958   -1.9396 N   0  0  0  0  0  0  0  0  0  0  0  0
    0.5207   -1.2802    1.6991 N   0  0  0  0  0  0  0  0  0  0  0  0
   -1.5190   -1.9433    2.0038 N   0  0  0  0  0  0  0  0  0  0  0  0
    2.7888   -2.3210   -0.0353 C   0  0  0  0  0  0  0  0  0  0  0  0
    2.4109   -0.8388   -0.0127 C   0  0  1  0  0  0  0  0  0  0  0  0
    3.6307    0.1035   -0.0199 C   0  0  0  0  0  0  0  0  0  0  0  0
    4.9621   -0.3478   -0.0646 C   0  0  0  0  0  0  0  0  0  0  0  0
    5.9970    0.6009   -0.0717 C   0  0  0  0  0  0  0  0  0  0  0  0
    5.6732    1.9625   -0.0341 C   0  0  0  0  0  0  0  0  0  0  0  0
    4.3152    2.3170    0.0098 C   0  0  0  0  0  0  0  0  0  0  0  0
    1.6270   -0.4362   -1.3001 C   0  0  0  0  0  0  0  0  0  0  0  0
   -0.8041   -1.0163   -1.3213 C   0  0  0  0  0  2  0  0  0  0  0  0
    0.5676   -2.3761   -2.5279 C   0  0  0  0  0  0  0  0  0  0  0  0
   -0.7110   -2.8370   -2.6863 C   0  0  0  0  0  0  0  0  0  0  0  0
    1.6707   -0.4704    1.3086 C   0  0  0  0  0  0  0  0  0  0  0  0
   -0.7764   -0.9888    1.3645 C   0  0  0  0  0  2  0  0  0  0  0  0
    0.5821   -2.3928    2.5347 C   0  0  0  0  0  0  0  0  0  0  0  0
   -0.7060   -2.8131    2.7257 C   0  0  0  0  0  0  0  0  0  0  0  0
   -2.9755   -2.1408   -1.8334 C   0  0  0  0  0  0  0  0  0  0  0  0
   -2.9694   -2.0339    1.9399 C   0  0  0  0  0  0  0  0  0  0  0  0
    3.4039   -2.5962    0.8446 H   0  0  0  0  0  0  0  0  0  0  0  0
    3.3664   -2.5819   -0.9444 H   0  0  0  0  0  0  0  0  0  0  0  0
    1.8823   -2.9574   -0.0218 H   0  0  0  0  0  0  0  0  0  0  0  0
    5.1997   -1.4194   -0.0938 H   0  0  0  0  0  0  0  0  0  0  0  0
    7.0472    0.2738   -0.1060 H   0  0  0  0  0  0  0  0  0  0  0  0
    6.4529    2.7378   -0.0380 H   0  0  0  0  0  0  0  0  0  0  0  0
    4.0145    3.3788    0.0417 H   0  0  0  0  0  0  0  0  0  0  0  0
    2.3401   -0.4461   -2.1483 H   0  0  0  0  0  0  0  0  0  0  0  0
    1.2614    0.6004   -1.1784 H   0  0  0  0  0  0  0  0  0  0  0  0
    1.5116   -2.7273   -2.9539 H   0  0  0  0  0  0  0  0  0  0  0  0
   -1.1042   -3.6726   -3.2730 H   0  0  0  0  0  0  0  0  0  0  0  0
    1.3418    0.5813    1.2384 H   0  0  0  0  0  0  0  0  0  0  0  0
    2.4050   -0.5353    2.1359 H   0  0  0  0  0  0  0  0  0  0  0  0
    1.5253   -2.7728    2.9376 H   0  0  0  0  0  0  0  0  0  0  0  0
   -1.1103   -3.6363    3.3223 H   0  0  0  0  0  0  0  0  0  0  0  0
   -3.3474   -1.3443   -1.1630 H   0  0  0  0  0  0  0  0  0  0  0  0
   -3.4539   -2.0387   -2.8274 H   0  0  0  0  0  0  0  0  0  0  0  0
   -3.2363   -3.1307   -1.4092 H   0  0  0  0  0  0  0  0  0  0  0  0
   -3.4050   -2.0060    2.9577 H   0  0  0  0  0  0  0  0  0  0  0  0
   -3.2827   -2.9718    1.4395 H   0  0  0  0  0  0  0  0  0  0  0  0
   -3.3346   -1.1670    1.3575 H   0  0  0  0  0  0  0  0  0  0  0  0
  2 14  1  0  0  0  0
  2 13  1  0  0  0  0
  3 21  1  0  0  0  0
  3 14  1  0  0  0  0
  4 19  1  0  0  0  0
  5 20  1  0  0  0  0
  6 25  1  0  0  0  0
  6  7  1  0  0  0  0
  6 23  1  0  0  0  0
  7 13  1  6  0  0  0
  7 17  1  0  0  0  0
  8  7  1  0  0  0  0
  8  1  2  0  0  0  0
  9  8  1  0  0  0  0
 10  9  2  0  0  0  0
 10 11  1  0  0  0  0
 11 12  2  0  0  0  0
 12  1  1  0  0  0  0
 12 29  1  0  0  0  0
 13 31  1  0  0  0  0
 15  2  1  0  0  0  0
 16 15  2  0  0  0  0
 16  3  1  0  0  0  0
 17  4  1  0  0  0  0
 17 35  1  0  0  0  0
 18  4  1  0  0  0  0
 18  5  1  0  0  0  0
 19 20  2  0  0  0  0
 19 36  1  0  0  0  0
 20 37  1  0  0  0  0
 21 40  1  0  0  0  0
 21 38  1  0  0  0  0
 22  5  1  0  0  0  0
 22 41  1  0  0  0  0
 24  6  1  0  0  0  0
 26  9  1  0  0  0  0
 27 10  1  0  0  0  0
 28 11  1  0  0  0  0
 30 13  1  0  0  0  0
 32 15  1  0  0  0  0
 33 16  1  0  0  0  0
 34 17  1  0  0  0  0
 39 21  1  0  0  0  0
 42 22  1  0  0  0  0
 43 22  1  0  0  0  0
M  END
