3,7
q = -1.0

 28 30  0  0  0  0  0  0  0  0999 V2000
    0.6186    2.4873    0.1994 N   0  0  0  0  0  0  0  0  0  0  0  0
   -1.5137    2.0537    0.1540 N   0  0  0  0  0  0  0  0  0  0  0  0
   -0.2783    1.4475    0.0886 C   0  0  0  0  0  2  0  0  0  0  0  0
   -0.0263    3.7038    0.3588 C   0  0  0  0  0  0  0  0  0  0  0  0
   -1.3695    3.4351    0.3374 C   0  0  0  0  0  0  0  0  0  0  0  0
    1.9774    2.1361    0.0218 C   0  0  0  0  0  0  0  0  0  0  0  0
    2.1359    0.7468   -0.2268 C   0  0  0  0  0  3  0  0  0  0  0  0
    3.4402    0.3193   -0.5428 C   0  0  0  0  0  0  0  0  0  0  0  0
    4.5232    1.2173   -0.5387 C   0  0  0  0  0  0  0  0  0  0  0  0
    4.3293    2.5765   -0.2392 C   0  0  0  0  0  0  0  0  0  0  0  0
    3.0365    3.0518    0.0329 C   0  0  0  0  0  0  0  0  0  0  0  0
   -2.7683    1.4095   -0.0587 C   0  0  0  0  0  0  0  0  0  0  0  0
   -2.9148    0.5156   -1.1343 C   0  0  0  0  0  0  0  0  0  0  0  0
   -4.1589   -0.0989   -1.3387 C   0  0  0  0  0  0  0  0  0  0  0  0
   -5.2456    0.1775   -0.4921 C   0  0  0  0  0  0  0  0  0  0  0  0
   -5.0890    1.0816    0.5709 C   0  0  0  0  0  0  0  0  0  0  0  0
   -3.8492    1.6977    0.7938 C   0  0  0  0  0  0  0  0  0  0  0  0
    0.5071    4.6532    0.4544 H   0  0  0  0  0  0  0  0  0  0  0  0
   -2.2353    4.1003    0.3909 H   0  0  0  0  0  0  0  0  0  0  0  0
    3.6146   -0.7326   -0.8134 H   0  0  0  0  0  0  0  0  0  0  0  0
    5.5328    0.8514   -0.7828 H   0  0  0  0  0  0  0  0  0  0  0  0
    5.1805    3.2735   -0.2367 H   0  0  0  0  0  0  0  0  0  0  0  0
    2.8639    4.1199    0.2354 H   0  0  0  0  0  0  0  0  0  0  0  0
   -2.0561    0.3140   -1.7978 H   0  0  0  0  0  0  0  0  0  0  0  0
   -4.2787   -0.7965   -2.1814 H   0  0  0  0  0  0  0  0  0  0  0  0
   -6.2184   -0.3071   -0.6641 H   0  0  0  0  0  0  0  0  0  0  0  0
   -5.9343    1.3026    1.2398 H   0  0  0  0  0  0  0  0  0  0  0  0
   -3.7098    2.3867    1.6402 H   0  0  0  0  0  0  0  0  0  0  0  0
  1  4  1  0  0  0  0
  2  5  1  0  0  0  0
  3  2  1  0  0  0  0
  3  1  1  0  0  0  0
  4 18  1  0  0  0  0
  5  4  2  0  0  0  0
  5 19  1  0  0  0  0
  6 11  1  0  0  0  0
  6  1  1  0  0  0  0
  7  6  2  0  0  0  0
  8  9  2  0  0  0  0
  8  7  1  0  0  0  0
  9 10  1  0  0  0  0
 10 22  1  0  0  0  0
 10 11  2  0  0  0  0
 11 23  1  0  0  0  0
 12  2  1  0  0  0  0
 12 17  1  0  0  0  0
 13 12  2  0  0  0  0
 14 13  1  0  0  0  0
 14 15  2  0  0  0  0
 15 16  1  0  0  0  0
 16 17  2  0  0  0  0
 16 27  1  0  0  0  0
 17 28  1  0  0  0  0
 20  8  1  0  0  0  0
 21  9  1  0  0  0  0
 24 13  1  0  0  0  0
 25 14  1  0  0  0  0
 26 15  1  0  0  0  0
M  END
