66,67
q = 0.0, confidence = 0.998

 67 72  0  0  0  0  0  0  0  0999 V2000
   -2.2909   -1.2887    2.6246 Se  0  0  0  0  0  0  0  0  0  0  0  0
    0.8216   -0.0461    2.0593 N   0  0  0  0  0  0  0  0  0  0  0  0
    1.9109   -0.4155    0.1912 N   0  0  0  0  0  0  0  0  0  0  0  0
   -3.0733    0.3401   -0.0577 N   0  0  0  0  0  0  0  0  0  0  0  0
   -1.9360   -0.5390   -1.7040 N   0  0  0  0  0  0  0  0  0  0  0  0
    1.8380   -0.9513    2.3738 C   0  0  0  0  0  0  0  0  0  0  0  0
    2.2301   -1.5572    3.5764 C   0  0  0  0  0  0  0  0  0  0  0  0
    1.7218   -1.3429    4.5263 H   0  0  0  0  0  0  0  0  0  0  0  0
    3.3116   -2.4505    3.5224 C   0  0  0  0  0  0  0  0  0  0  0  0
    3.6441   -2.9461    4.4463 H   0  0  0  0  0  0  0  0  0  0  0  0
    3.9803   -2.7224    2.3096 C   0  0  0  0  0  0  0  0  0  0  0  0
    4.8220   -3.4304    2.3051 H   0  0  0  0  0  0  0  0  0  0  0  0
    3.6063   -2.0988    1.1095 C   0  0  0  0  0  0  0  0  0  0  0  0
    4.1414   -2.2905    0.1713 H   0  0  0  0  0  0  0  0  0  0  0  0
    2.5286   -1.2038    1.1638 C   0  0  0  0  0  0  0  0  0  0  0  0
    2.3827   -0.2663   -1.1857 C   0  0  0  0  0  0  0  0  0  0  0  0
    1.7801    0.5659   -1.6076 H   0  0  0  0  0  0  0  0  0  0  0  0
    2.1510   -1.1915   -1.7489 H   0  0  0  0  0  0  0  0  0  0  0  0
    3.8593    0.0463   -1.2875 C   0  0  0  0  0  0  0  0  0  0  0  0
    4.6908   -0.7570   -2.0907 C   0  0  0  0  0  0  0  0  0  0  0  0
    4.2570   -1.6165   -2.6279 H   0  0  0  0  0  0  0  0  0  0  0  0
    6.0607   -0.4727   -2.2060 C   0  0  0  0  0  0  0  0  0  0  0  0
    6.7018   -1.1068   -2.8373 H   0  0  0  0  0  0  0  0  0  0  0  0
    6.6093    0.6165   -1.5117 C   0  0  0  0  0  0  0  0  0  0  0  0
    7.6837    0.8401   -1.5967 H   0  0  0  0  0  0  0  0  0  0  0  0
    5.7818    1.4227   -0.7118 C   0  0  0  0  0  0  0  0  0  0  0  0
    6.2057    2.2845   -0.1741 H   0  0  0  0  0  0  0  0  0  0  0  0
    4.4124    1.1444   -0.6000 C   0  0  0  0  0  0  0  0  0  0  0  0
    3.7531    1.7890    0.0061 H   0  0  0  0  0  0  0  0  0  0  0  0
   -0.0335    0.6184    3.0298 C   0  0  0  0  0  0  0  0  0  0  0  0
   -0.5511    1.4271    2.4774 H   0  0  0  0  0  0  0  0  0  0  0  0
    0.6218    1.1157    3.7791 H   0  0  0  0  0  0  0  0  0  0  0  0
   -1.0134   -0.3040    3.7515 C   0  0  0  0  0  0  0  0  0  0  0  0
   -1.5932    0.2799    4.4940 H   0  0  0  0  0  0  0  0  0  0  0  0
   -0.4838   -1.1000    4.3110 H   0  0  0  0  0  0  0  0  0  0  0  0
   -3.6249    0.1400    2.3526 C   0  0  0  0  0  0  0  0  0  0  0  0
   -4.5789   -0.4119    2.2413 H   0  0  0  0  0  0  0  0  0  0  0  0
   -3.6981    0.7286    3.2886 H   0  0  0  0  0  0  0  0  0  0  0  0
   -3.3824    1.0704    1.1576 C   0  0  0  0  0  0  0  0  0  0  0  0
   -4.2796    1.7017    0.9800 H   0  0  0  0  0  0  0  0  0  0  0  0
   -2.5348    1.7637    1.3227 H   0  0  0  0  0  0  0  0  0  0  0  0
   -0.8493   -0.8695   -2.6024 C   0  0  0  0  0  0  0  0  0  0  0  0
   -0.1489   -0.0083   -2.5615 H   0  0  0  0  0  0  0  0  0  0  0  0
   -1.2421   -0.9121   -3.6387 H   0  0  0  0  0  0  0  0  0  0  0  0
   -0.1302   -2.1546   -2.2388 C   0  0  0  0  0  0  0  0  0  0  0  0
   -0.1258   -2.6414   -0.9172 C   0  0  0  0  0  0  0  0  0  0  0  0
   -0.7223   -2.1373   -0.1407 H   0  0  0  0  0  0  0  0  0  0  0  0
    0.6578   -3.7546   -0.5761 C   0  0  0  0  0  0  0  0  0  0  0  0
    0.6663   -4.1128    0.4642 H   0  0  0  0  0  0  0  0  0  0  0  0
    1.4367   -4.3988   -1.5499 C   0  0  0  0  0  0  0  0  0  0  0  0
    2.0551   -5.2674   -1.2779 H   0  0  0  0  0  0  0  0  0  0  0  0
    1.4153   -3.9346   -2.8757 C   0  0  0  0  0  0  0  0  0  0  0  0
    2.0109   -4.4428   -3.6493 H   0  0  0  0  0  0  0  0  0  0  0  0
    0.6335   -2.8210   -3.2176 C   0  0  0  0  0  0  0  0  0  0  0  0
    0.6289   -2.4516   -4.2558 H   0  0  0  0  0  0  0  0  0  0  0  0
   -3.2044   -1.1148   -1.7619 C   0  0  0  0  0  0  0  0  0  0  0  0
   -3.9450   -0.5338   -0.7058 C   0  0  0  0  0  0  0  0  0  0  0  0
   -5.2920   -0.8642   -0.4976 C   0  0  0  0  0  0  0  0  0  0  0  0
   -5.8853   -0.3992    0.3017 H   0  0  0  0  0  0  0  0  0  0  0  0
   -5.8614   -1.8091   -1.3661 C   0  0  0  0  0  0  0  0  0  0  0  0
   -6.9158   -2.0920   -1.2325 H   0  0  0  0  0  0  0  0  0  0  0  0
   -5.1127   -2.4023   -2.4056 C   0  0  0  0  0  0  0  0  0  0  0  0
   -5.5931   -3.1441   -3.0602 H   0  0  0  0  0  0  0  0  0  0  0  0
   -3.7681   -2.0633   -2.6240 C   0  0  0  0  0  0  0  0  0  0  0  0
   -3.1829   -2.5264   -3.4304 H   0  0  0  0  0  0  0  0  0  0  0  0
    0.8571    0.2758    0.7263 C   0  0  0  0  0  2  0  0  0  0  0  0
   -1.8439    0.3485   -0.6648 C   0  0  0  0  0  2  0  0  0  0  0  0
  1 33  1  0  0  0  0
  2  6  1  0  0  0  0
  2 30  1  0  0  0  0
  3 66  1  0  0  0  0
  3 15  1  0  0  0  0
  4 39  1  0  0  0  0
  5 67  1  0  0  0  0
  6  7  1  0  0  0  0
  7  8  1  0  0  0  0
  9  7  2  0  0  0  0
  9 10  1  0  0  0  0
 11  9  1  0  0  0  0
 12 11  1  0  0  0  0
 13 15  1  0  0  0  0
 13 11  2  0  0  0  0
 14 13  1  0  0  0  0
 15  6  2  0  0  0  0
 16  3  1  0  0  0  0
 17 16  1  0  0  0  0
 18 16  1  0  0  0  0
 19 16  1  0  0  0  0
 19 28  1  0  0  0  0
 20 19  2  0  0  0  0
 21 20  1  0  0  0  0
 22 20  1  0  0  0  0
 22 24  2  0  0  0  0
 23 22  1  0  0  0  0
 24 26  1  0  0  0  0
 25 24  1  0  0  0  0
 26 28  2  0  0  0  0
 26 27  1  0  0  0  0
 28 29  1  0  0  0  0
 30 33  1  0  0  0  0
 30 32  1  0  0  0  0
 31 30  1  0  0  0  0
 33 35  1  0  0  0  0
 33 34  1  0  0  0  0
 36  1  1  0  0  0  0
 36 38  1  0  0  0  0
 37 36  1  0  0  0  0
 39 41  1  0  0  0  0
 39 36  1  0  0  0  0
 40 39  1  0  0  0  0
 42 43  1  0  0  0  0
 42 45  1  0  0  0  0
 42  5  1  0  0  0  0
 44 42  1  0  0  0  0
 45 46  1  0  0  0  0
 46 48  2  0  0  0  0
 46 47  1  0  0  0  0
 48 49  1  0  0  0  0
 50 51  1  0  0  0  0
 50 48  1  0  0  0  0
 52 50  2  0  0  0  0
 53 52  1  0  0  0  0
 54 52  1  0  0  0  0
 54 45  2  0  0  0  0
 55 54  1  0  0  0  0
 56  5  1  0  0  0  0
 56 57  1  0  0  0  0
 57 58  2  0  0  0  0
 57  4  1  0  0  0  0
 58 59  1  0  0  0  0
 60 61  1  0  0  0  0
 60 58  1  0  0  0  0
 62 60  2  0  0  0  0
 63 62  1  0  0  0  0
 64 62  1  0  0  0  0
 64 56  2  0  0  0  0
 65 64  1  0  0  0  0
 66  2  1  0  0  0  0
 67  4  1  0  0  0  0
M  END
