2,6
q = 0.0, confidence = 0.992

 46 48  0  0  1  0  0  0  0  0999 V2000
    0.6749    0.1416    0.5133 P   0  0  0  0  0  0  0  0  0  0  0  0
   -3.0672   -1.0281    0.3932 C   0  0  0  0  0  3  0  0  0  0  0  0
   -3.2702   -1.4380   -0.9759 C   0  0  0  0  0  0  0  0  0  0  0  0
   -2.8799   -0.5715   -2.0184 C   0  0  0  0  0  0  0  0  0  0  0  0
   -2.3387    0.7281   -1.7149 C   0  0  0  0  0  3  0  0  0  0  0  0
   -2.2064    1.1443   -0.3562 C   0  0  0  0  0  3  0  0  0  0  0  0
   -2.5760    0.2708    0.7366 C   0  0  2  0  0  3  0  0  0  0  0  0
   -2.3941    0.6745    2.1874 C   0  0  1  0  0  0  0  0  0  0  0  0
   -1.0124    1.2785    2.5218 C   0  0  0  0  0  0  0  0  0  0  0  0
    0.2008    0.3654    2.2902 C   0  0  0  0  0  0  0  0  0  0  0  0
   -3.5197    1.6379    2.6012 C   0  0  0  0  0  0  0  0  0  0  0  0
    2.2816   -0.7378    0.5577 C   0  0  0  0  0  0  0  0  0  0  0  0
    3.2303   -0.4919   -0.4554 C   0  0  0  0  0  0  0  0  0  0  0  0
    4.4578   -1.1687   -0.4474 C   0  0  0  0  0  0  0  0  0  0  0  0
    4.7481   -2.0940    0.5670 C   0  0  0  0  0  0  0  0  0  0  0  0
    3.8020   -2.3472    1.5722 C   0  0  0  0  0  0  0  0  0  0  0  0
    2.5691   -1.6794    1.5666 C   0  0  0  0  0  0  0  0  0  0  0  0
    1.1394    1.8303   -0.0708 C   0  0  0  0  0  0  0  0  0  0  0  0
    1.6612    2.8008    0.8092 C   0  0  0  0  0  0  0  0  0  0  0  0
    2.0004    4.0771    0.3346 C   0  0  0  0  0  0  0  0  0  0  0  0
    1.8348    4.3912   -1.0236 C   0  0  0  0  0  0  0  0  0  0  0  0
    1.3336    3.4222   -1.9076 C   0  0  0  0  0  0  0  0  0  0  0  0
    0.9821    2.1477   -1.4370 C   0  0  0  0  0  0  0  0  0  0  0  0
   -3.2327   -1.7597    1.1976 H   0  0  0  0  0  0  0  0  0  0  0  0
   -3.5879   -2.4663   -1.1955 H   0  0  0  0  0  0  0  0  0  0  0  0
   -2.8860   -0.9247   -3.0594 H   0  0  0  0  0  0  0  0  0  0  0  0
   -1.9703    1.3751   -2.5228 H   0  0  0  0  0  0  0  0  0  0  0  0
   -1.7418    2.1204   -0.1479 H   0  0  0  0  0  0  0  0  0  0  0  0
   -2.4946   -0.2575    2.7849 H   0  0  0  0  0  0  0  0  0  0  0  0
   -1.0333    1.5462    3.5995 H   0  0  0  0  0  0  0  0  0  0  0  0
   -0.8763    2.2441    1.9870 H   0  0  0  0  0  0  0  0  0  0  0  0
   -0.0160   -0.6637    2.6461 H   0  0  0  0  0  0  0  0  0  0  0  0
    1.0845    0.7299    2.8526 H   0  0  0  0  0  0  0  0  0  0  0  0
   -3.4481    1.8934    3.6779 H   0  0  0  0  0  0  0  0  0  0  0  0
   -3.4623    2.5842    2.0240 H   0  0  0  0  0  0  0  0  0  0  0  0
   -4.5172    1.1924    2.4176 H   0  0  0  0  0  0  0  0  0  0  0  0
    3.0051    0.2241   -1.2574 H   0  0  0  0  0  0  0  0  0  0  0  0
    5.1906   -0.9728   -1.2447 H   0  0  0  0  0  0  0  0  0  0  0  0
    5.7127   -2.6243    0.5713 H   0  0  0  0  0  0  0  0  0  0  0  0
    4.0180   -3.0807    2.3637 H   0  0  0  0  0  0  0  0  0  0  0  0
    1.8235   -1.9137    2.3378 H   0  0  0  0  0  0  0  0  0  0  0  0
    1.8118    2.5656    1.8734 H   0  0  0  0  0  0  0  0  0  0  0  0
    2.4006    4.8295    1.0313 H   0  0  0  0  0  0  0  0  0  0  0  0
    2.1031    5.3924   -1.3941 H   0  0  0  0  0  0  0  0  0  0  0  0
    1.2168    3.6579   -2.9765 H   0  0  0  0  0  0  0  0  0  0  0  0
    0.6130    1.3672   -2.1242 H   0  0  0  0  0  0  0  0  0  0  0  0
  1 12  1  0  0  0  0
  1 10  1  0  0  0  0
  2  7  1  0  0  0  0
  2 24  1  0  0  0  0
  3  2  1  0  0  0  0
  4  5  1  0  0  0  0
  4  3  2  0  0  0  0
  5  6  1  0  0  0  0
  6 28  1  0  0  0  0
  6  7  1  0  0  0  0
  7  8  1  1  0  0  0
  8  9  1  0  0  0  0
  8 11  1  0  0  0  0
  8 29  1  1  0  0  0
  9 30  1  0  0  0  0
 10  9  1  0  0  0  0
 10 32  1  0  0  0  0
 10 33  1  0  0  0  0
 11 34  1  0  0  0  0
 12 17  1  0  0  0  0
 13 14  1  0  0  0  0
 13 12  2  0  0  0  0
 14 15  2  0  0  0  0
 15 39  1  0  0  0  0
 15 16  1  0  0  0  0
 16 40  1  0  0  0  0
 17 16  2  0  0  0  0
 17 41  1  0  0  0  0
 18  1  1  0  0  0  0
 18 19  1  0  0  0  0
 19 42  1  0  0  0  0
 20 19  2  0  0  0  0
 20 43  1  0  0  0  0
 21 20  1  0  0  0  0
 22 23  1  0  0  0  0
 22 21  2  0  0  0  0
 23 18  2  0  0  0  0
 25  3  1  0  0  0  0
 26  4  1  0  0  0  0
 27  5  1  0  0  0  0
 31  9  1  0  0  0  0
 35 11  1  0  0  0  0
 36 11  1  0  0  0  0
 37 13  1  0  0  0  0
 38 14  1  0  0  0  0
 44 21  1  0  0  0  0
 45 22  1  0  0  0  0
 46 23  1  0  0  0  0
M  END
