1,6
q = 0.0, confidence = 0.998

 37 38  0  0  0  0  0  0  0  0999 V2000
   -0.0800   -0.8260   -1.7908 C   0  0  0  0  0  3  0  0  0  0  0  0
   -0.1570   -1.8439   -2.1973 H   0  0  0  0  0  0  0  0  0  0  0  0
    1.0048   -0.0046   -2.2303 C   0  0  0  0  0  0  0  0  0  0  0  0
    1.7362   -0.3983   -2.9490 H   0  0  0  0  0  0  0  0  0  0  0  0
    1.1596    1.3014   -1.6931 C   0  0  0  0  0  0  0  0  0  0  0  0
    0.1847    1.7636   -0.7485 C   0  0  0  0  0  3  0  0  0  0  0  0
    0.3039    2.7708   -0.3285 H   0  0  0  0  0  0  0  0  0  0  0  0
   -0.9085    0.9533   -0.3110 C   0  0  0  0  0  0  0  0  0  0  0  0
   -1.0813   -0.3682   -0.8825 C   0  0  0  0  0  0  0  0  0  0  0  0
    2.2822    2.2017   -2.1325 C   0  0  0  0  0  0  0  0  0  0  0  0
    3.1443    1.6164   -2.5042 H   0  0  0  0  0  0  0  0  0  0  0  0
    2.6325    2.8421   -1.3006 H   0  0  0  0  0  0  0  0  0  0  0  0
    1.9394    2.8678   -2.9525 H   0  0  0  0  0  0  0  0  0  0  0  0
   -1.9513    1.5630    0.6356 C   0  0  0  0  0  0  0  0  0  0  0  0
   -2.7876    0.4313    1.2704 C   0  0  0  0  0  0  0  0  0  0  0  0
   -2.1521   -0.1197    1.9948 H   0  0  0  0  0  0  0  0  0  0  0  0
   -3.6084    0.8882    1.8619 H   0  0  0  0  0  0  0  0  0  0  0  0
   -3.3570   -0.5246    0.2310 C   0  0  0  0  0  0  0  0  0  0  0  0
   -3.9953    0.0415   -0.4799 H   0  0  0  0  0  0  0  0  0  0  0  0
   -4.0275   -1.2666    0.7117 H   0  0  0  0  0  0  0  0  0  0  0  0
   -2.2715   -1.2925   -0.5602 C   0  0  0  0  0  0  0  0  0  0  0  0
   -2.8473    2.4951   -0.2170 C   0  0  0  0  0  0  0  0  0  0  0  0
   -3.3107    1.9663   -1.0727 H   0  0  0  0  0  0  0  0  0  0  0  0
   -2.2557    3.3362   -0.6303 H   0  0  0  0  0  0  0  0  0  0  0  0
   -3.6593    2.9212    0.4072 H   0  0  0  0  0  0  0  0  0  0  0  0
   -1.3146    2.3941    1.7643 C   0  0  0  0  0  0  0  0  0  0  0  0
   -2.1134    2.7767    2.4312 H   0  0  0  0  0  0  0  0  0  0  0  0
   -0.7608    3.2751    1.3846 H   0  0  0  0  0  0  0  0  0  0  0  0
   -0.6198    1.7848    2.3722 H   0  0  0  0  0  0  0  0  0  0  0  0
   -2.9062   -1.7885   -1.8790 C   0  0  0  0  0  0  0  0  0  0  0  0
   -3.8338   -2.3546   -1.6575 H   0  0  0  0  0  0  0  0  0  0  0  0
   -2.2343   -2.4663   -2.4419 H   0  0  0  0  0  0  0  0  0  0  0  0
   -3.1731   -0.9400   -2.5413 H   0  0  0  0  0  0  0  0  0  0  0  0
   -1.8015   -2.5153    0.2584 C   0  0  0  0  0  0  0  0  0  0  0  0
   -1.4230   -2.2133    1.2534 H   0  0  0  0  0  0  0  0  0  0  0  0
   -0.9810   -3.0571   -0.2518 H   0  0  0  0  0  0  0  0  0  0  0  0
   -2.6449   -3.2222    0.3996 H   0  0  0  0  0  0  0  0  0  0  0  0
  1  9  1  0  0  0  0
  2  1  1  0  0  0  0
  3  1  1  0  0  0  0
  3  5  2  0  0  0  0
  4  3  1  0  0  0  0
  5  6  1  0  0  0  0
  6  7  1  0  0  0  0
  6  8  1  0  0  0  0
  8 14  1  0  0  0  0
  9 21  1  0  0  0  0
  9  8  2  0  0  0  0
 10  5  1  0  0  0  0
 10 12  1  0  0  0  0
 11 10  1  0  0  0  0
 13 10  1  0  0  0  0
 14 15  1  0  0  0  0
 14 26  1  0  0  0  0
 15 17  1  0  0  0  0
 15 16  1  0  0  0  0
 18 20  1  0  0  0  0
 18 15  1  0  0  0  0
 19 18  1  0  0  0  0
 21 18  1  0  0  0  0
 21 34  1  0  0  0  0
 22 25  1  0  0  0  0
 22 14  1  0  0  0  0
 23 22  1  0  0  0  0
 24 22  1  0  0  0  0
 26 29  1  0  0  0  0
 26 27  1  0  0  0  0
 28 26  1  0  0  0  0
 30 31  1  0  0  0  0
 30 21  1  0  0  0  0
 32 30  1  0  0  0  0
 33 30  1  0  0  0  0
 34 37  1  0  0  0  0
 34 35  1  0  0  0  0
 36 34  1  0  0  0  0
M  END
