3,21
q = -1.0

 33 36  0  0  0  0  0  0  0  0999 V2000
   -1.7888    0.9106   -0.2007 N   0  0  0  0  0  0  0  0  0  0  0  0
   -1.8589   -1.3915    0.2490 N   0  0  0  0  0  0  0  0  0  0  0  0
   -1.1088   -0.2963   -0.0789 C   0  0  0  0  0  2  0  0  0  0  0  0
   -3.2516   -1.3356    0.4831 C   0  0  0  0  0  0  0  0  0  0  0  0
   -3.9716   -2.4069    1.0210 C   0  0  0  0  0  0  0  0  0  0  0  0
   -3.4609   -3.3103    1.3736 H   0  0  0  0  0  0  0  0  0  0  0  0
   -5.3850   -2.3333    1.0936 C   0  0  0  0  0  0  0  0  0  0  0  0
   -5.9363   -3.1845    1.5208 H   0  0  0  0  0  0  0  0  0  0  0  0
   -6.0781   -1.2347    0.6082 C   0  0  0  0  0  0  0  0  0  0  0  0
   -7.1779   -1.2110    0.6251 H   0  0  0  0  0  0  0  0  0  0  0  0
   -5.3730   -0.1196    0.0663 C   0  0  0  0  0  0  0  0  0  0  0  0
   -6.0202    1.0194   -0.4928 C   0  0  0  0  0  0  0  0  0  0  0  0
   -7.1195    1.0608   -0.4958 H   0  0  0  0  0  0  0  0  0  0  0  0
   -5.2678    2.0432   -1.0520 C   0  0  0  0  0  0  0  0  0  0  0  0
   -5.7725    2.8963   -1.5303 H   0  0  0  0  0  0  0  0  0  0  0  0
   -3.8530    2.0315   -1.0091 C   0  0  0  0  0  0  0  0  0  0  0  0
   -3.2864    2.8522   -1.4620 H   0  0  0  0  0  0  0  0  0  0  0  0
   -3.1870    0.9668   -0.3938 C   0  0  0  0  0  0  0  0  0  0  0  0
   -3.9365   -0.1569    0.0644 C   0  0  0  0  0  0  0  0  0  0  0  0
   -0.9301    2.0542   -0.1017 C   0  0  0  0  0  0  0  0  0  0  0  0
    0.4527    1.7274   -0.1016 C   0  0  0  0  0  3  0  0  0  0  0  0
    1.3813    2.7702    0.0780 C   0  0  0  0  0  0  0  0  0  0  0  0
    2.4572    2.5415    0.0944 H   0  0  0  0  0  0  0  0  0  0  0  0
    0.9535    4.0958    0.2569 C   0  0  0  0  0  0  0  0  0  0  0  0
    1.6959    4.8981    0.3887 H   0  0  0  0  0  0  0  0  0  0  0  0
   -0.4172    4.3912    0.2965 C   0  0  0  0  0  0  0  0  0  0  0  0
   -0.7610    5.4212    0.4733 H   0  0  0  0  0  0  0  0  0  0  0  0
   -1.3670    3.3711    0.1263 C   0  0  0  0  0  0  0  0  0  0  0  0
   -2.4338    3.6102    0.2097 H   0  0  0  0  0  0  0  0  0  0  0  0
   -1.1946   -2.6773    0.4545 C   0  0  0  0  0  0  0  0  0  0  0  0
   -0.1871   -2.6411    0.0074 H   0  0  0  0  0  0  0  0  0  0  0  0
   -1.7805   -3.4759   -0.0406 H   0  0  0  0  0  0  0  0  0  0  0  0
   -1.1150   -2.9025    1.5379 H   0  0  0  0  0  0  0  0  0  0  0  0
  1 20  1  0  0  0  0
  1  3  1  0  0  0  0
  2 30  1  0  0  0  0
  2  4  1  0  0  0  0
  3  2  1  0  0  0  0
  4  5  1  0  0  0  0
  5  7  2  0  0  0  0
  5  6  1  0  0  0  0
  7  8  1  0  0  0  0
  9 10  1  0  0  0  0
  9  7  1  0  0  0  0
 11  9  2  0  0  0  0
 12 11  1  0  0  0  0
 13 12  1  0  0  0  0
 14 16  1  0  0  0  0
 14 12  2  0  0  0  0
 15 14  1  0  0  0  0
 16 18  2  0  0  0  0
 17 16  1  0  0  0  0
 18  1  1  0  0  0  0
 18 19  1  0  0  0  0
 19 11  1  0  0  0  0
 19  4  2  0  0  0  0
 20 21  2  0  0  0  0
 20 28  1  0  0  0  0
 21 22  1  0  0  0  0
 22 23  1  0  0  0  0
 22 24  2  0  0  0  0
 24 26  1  0  0  0  0
 24 25  1  0  0  0  0
 26 27  1  0  0  0  0
 28 29  1  0  0  0  0
 28 26  2  0  0  0  0
 30 33  1  0  0  0  0
 31 30  1  0  0  0  0
 32 30  1  0  0  0  0
M  END
