2
q = -2.0, confidence = 0.632

 61 66  0  0  1  0  0  0  0  0999 V2000
    0.3398    3.0671    0.8236 Si  0  0  0  0  0  0  0  0  0  0  0  0
    1.6696    2.1265   -0.1417 C   0  0  2  0  0  3  0  0  0  0  0  0
    1.7036    1.9558   -1.5773 C   0  0  0  0  0  0  0  0  0  0  0  0
    2.4753    0.7949   -1.8857 C   0  0  0  0  0  0  0  0  0  0  0  0
    2.6530    0.4180   -2.8993 H   0  0  0  0  0  0  0  0  0  0  0  0
    2.9899    0.2463   -0.6758 C   0  0  0  0  0  0  0  0  0  0  0  0
    2.4775    1.0522    0.4109 C   0  0  0  0  0  0  0  0  0  0  0  0
   -0.9278    1.6720    0.7667 C   0  0  1  0  0  3  0  0  0  0  0  0
   -1.7525    1.4139   -0.3853 C   0  0  0  0  0  0  0  0  0  0  0  0
   -1.9389    2.1232   -1.2042 H   0  0  0  0  0  0  0  0  0  0  0  0
   -2.2749    0.0909   -0.3573 C   0  0  0  0  0  0  0  0  0  0  0  0
   -1.8234   -0.5074    0.8693 C   0  0  0  0  0  0  0  0  0  0  0  0
   -0.9729    0.4533    1.5552 C   0  0  0  0  0  0  0  0  0  0  0  0
    2.8441    0.7205    1.7619 C   0  0  0  0  0  0  0  0  0  0  0  0
    2.4887    1.3377    2.5960 H   0  0  0  0  0  0  0  0  0  0  0  0
    3.6765   -0.3474    1.9968 C   0  0  0  0  0  0  0  0  0  0  0  0
    3.9694   -0.5949    3.0289 H   0  0  0  0  0  0  0  0  0  0  0  0
    4.2021   -1.1685    0.9334 C   0  0  0  0  0  0  0  0  0  0  0  0
    3.8665   -0.8756   -0.4303 C   0  0  0  0  0  0  0  0  0  0  0  0
   -0.3791    0.0831    2.7998 C   0  0  0  0  0  0  0  0  0  0  0  0
    0.2580    0.7922    3.3439 H   0  0  0  0  0  0  0  0  0  0  0  0
   -0.6458   -1.1699    3.3287 C   0  0  0  0  0  0  0  0  0  0  0  0
   -0.1984   -1.4563    4.2923 H   0  0  0  0  0  0  0  0  0  0  0  0
   -1.4990   -2.0965    2.6579 C   0  0  0  0  0  0  0  0  0  0  0  0
   -1.6904   -3.0769    3.1189 H   0  0  0  0  0  0  0  0  0  0  0  0
   -2.0901   -1.7793    1.4459 C   0  0  0  0  0  0  0  0  0  0  0  0
   -2.7543   -2.4879    0.9311 H   0  0  0  0  0  0  0  0  0  0  0  0
   -3.2324   -0.5313   -1.3330 C   0  0  0  0  0  0  0  0  0  0  0  0
   -2.8128   -1.4817   -1.7214 H   0  0  0  0  0  0  0  0  0  0  0  0
   -3.3202    0.1330   -2.2183 H   0  0  0  0  0  0  0  0  0  0  0  0
   -4.6078   -0.7911   -0.7398 C   0  0  0  0  0  0  0  0  0  0  0  0
   -5.2803   -2.0011   -0.9985 C   0  0  0  0  0  0  0  0  0  0  0  0
   -4.7917   -2.7648   -1.6249 H   0  0  0  0  0  0  0  0  0  0  0  0
   -6.5577   -2.2434   -0.4691 C   0  0  0  0  0  0  0  0  0  0  0  0
   -7.0658   -3.1966   -0.6820 H   0  0  0  0  0  0  0  0  0  0  0  0
   -7.1818   -1.2767    0.3338 C   0  0  0  0  0  0  0  0  0  0  0  0
   -8.1814   -1.4659    0.7536 H   0  0  0  0  0  0  0  0  0  0  0  0
   -6.5185   -0.0684    0.6032 C   0  0  0  0  0  0  0  0  0  0  0  0
   -6.9978    0.6938    1.2366 H   0  0  0  0  0  0  0  0  0  0  0  0
   -5.2426    0.1699    0.0728 C   0  0  0  0  0  0  0  0  0  0  0  0
   -4.7221    1.1142    0.2977 H   0  0  0  0  0  0  0  0  0  0  0  0
   -0.3045    4.5976   -0.0718 C   0  0  0  0  0  0  0  0  0  0  0  0
   -1.0401    5.1137    0.5788 H   0  0  0  0  0  0  0  0  0  0  0  0
   -0.8033    4.3699   -1.0320 H   0  0  0  0  0  0  0  0  0  0  0  0
    0.5240    5.3055   -0.2784 H   0  0  0  0  0  0  0  0  0  0  0  0
    0.8552    3.5985    2.5591 C   0  0  0  0  0  0  0  0  0  0  0  0
    0.0107    4.1349    3.0384 H   0  0  0  0  0  0  0  0  0  0  0  0
    1.7146    4.2974    2.4987 H   0  0  0  0  0  0  0  0  0  0  0  0
    1.1422    2.7654    3.2268 H   0  0  0  0  0  0  0  0  0  0  0  0
    1.0700    2.8343   -2.6216 C   0  0  0  0  0  0  0  0  0  0  0  0
    1.2355    2.4137   -3.6304 H   0  0  0  0  0  0  0  0  0  0  0  0
    1.5052    3.8542   -2.5893 H   0  0  0  0  0  0  0  0  0  0  0  0
   -0.0246    2.9435   -2.4938 H   0  0  0  0  0  0  0  0  0  0  0  0
    5.0566   -2.2687    1.2047 C   0  0  0  0  0  0  0  0  0  0  0  0
    5.3138   -2.4938    2.2516 H   0  0  0  0  0  0  0  0  0  0  0  0
    5.5579   -3.0576    0.1728 C   0  0  0  0  0  0  0  0  0  0  0  0
    6.2153   -3.9103    0.4003 H   0  0  0  0  0  0  0  0  0  0  0  0
    5.2189   -2.7672   -1.1684 C   0  0  0  0  0  0  0  0  0  0  0  0
    5.6105   -3.3960   -1.9820 H   0  0  0  0  0  0  0  0  0  0  0  0
    4.3857   -1.6894   -1.4634 C   0  0  0  0  0  0  0  0  0  0  0  0
    4.1172   -1.4721   -2.5076 H   0  0  0  0  0  0  0  0  0  0  0  0
  1 46  1  0  0  0  0
  2  7  1  0  0  0  0
  2  1  1  1  0  0  0
  3  2  1  0  0  0  0
  4  3  2  0  0  0  0
  4  6  1  0  0  0  0
  5  4  1  0  0  0  0
  6 19  2  0  0  0  0
  6  7  1  0  0  0  0
  7 14  2  0  0  0  0
  8  1  1  6  0  0  0
  8 13  1  0  0  0  0
  9 11  2  0  0  0  0
  9  8  1  0  0  0  0
 10  9  1  0  0  0  0
 11 12  1  0  0  0  0
 12 26  2  0  0  0  0
 12 13  1  0  0  0  0
 13 20  2  0  0  0  0
 14 16  1  0  0  0  0
 14 15  1  0  0  0  0
 16 17  1  0  0  0  0
 18 54  1  0  0  0  0
 18 16  2  0  0  0  0
 19 18  1  0  0  0  0
 20 22  1  0  0  0  0
 20 21  1  0  0  0  0
 22 23  1  0  0  0  0
 24 25  1  0  0  0  0
 24 22  2  0  0  0  0
 26 24  1  0  0  0  0
 27 26  1  0  0  0  0
 28 31  1  0  0  0  0
 28 11  1  0  0  0  0
 29 28  1  0  0  0  0
 30 28  1  0  0  0  0
 31 40  1  0  0  0  0
 32 31  2  0  0  0  0
 32 34  1  0  0  0  0
 33 32  1  0  0  0  0
 34 36  2  0  0  0  0
 35 34  1  0  0  0  0
 36 38  1  0  0  0  0
 36 37  1  0  0  0  0
 38 39  1  0  0  0  0
 40 41  1  0  0  0  0
 40 38  2  0  0  0  0
 42 43  1  0  0  0  0
 42  1  1  0  0  0  0
 44 42  1  0  0  0  0
 45 42  1  0  0  0  0
 46 47  1  0  0  0  0
 46 49  1  0  0  0  0
 48 46  1  0  0  0  0
 50 52  1  0  0  0  0
 50 53  1  0  0  0  0
 50  3  1  0  0  0  0
 51 50  1  0  0  0  0
 54 55  1  0  0  0  0
 56 57  1  0  0  0  0
 56 54  2  0  0  0  0
 58 56  1  0  0  0  0
 59 58  1  0  0  0  0
 60 58  2  0  0  0  0
 60 19  1  0  0  0  0
 61 60  1  0  0  0  0
M  END
