5,12
q = -1.0

 63 66  0  0  0  0  0  0  0  0999 V2000
   -0.8743   -2.5961   -0.9124 N   0  0  0  0  0  0  0  0  0  0  0  0
    0.8209   -1.2518   -0.5857 N   0  0  0  0  0  0  0  0  0  0  0  0
   -0.8744    2.5957   -0.9134 N   0  0  0  0  0  0  0  0  0  0  0  0
    0.8207    1.2513   -0.5865 N   0  0  0  0  0  0  0  0  0  0  0  0
   -0.5260   -1.3662   -0.3607 C   0  0  0  0  0  2  0  0  0  0  0  0
    0.2583   -3.2211   -1.4390 C   0  0  0  0  0  0  0  0  0  0  0  0
    1.3109   -2.3736   -1.2281 C   0  0  0  0  0  0  0  0  0  0  0  0
   -2.2574   -3.1382   -1.0863 C   0  0  0  0  0  0  0  0  0  0  0  0
   -3.0492   -2.1533   -1.9639 C   0  0  0  0  0  0  0  0  0  0  0  0
   -2.9273   -3.3506    0.2814 C   0  0  0  0  0  0  0  0  0  0  0  0
   -2.2009   -4.5003   -1.8007 C   0  0  0  0  0  0  0  0  0  0  0  0
   -0.5262    1.3659   -0.3615 C   0  0  0  0  0  2  0  0  0  0  0  0
    0.2582    3.2206   -1.4400 C   0  0  0  0  0  0  0  0  0  0  0  0
    1.3108    2.3730   -1.2289 C   0  0  0  0  0  0  0  0  0  0  0  0
   -2.2575    3.1376   -1.0877 C   0  0  0  0  0  0  0  0  0  0  0  0
   -3.0493    2.1522   -1.9648 C   0  0  0  0  0  0  0  0  0  0  0  0
   -2.9276    3.3508    0.2799 C   0  0  0  0  0  0  0  0  0  0  0  0
   -2.2010    4.4992   -1.8030 C   0  0  0  0  0  0  0  0  0  0  0  0
    3.0673   -0.0003   -1.0179 C   0  0  0  0  0  0  0  0  0  0  0  0
    3.0418   -0.0007   -2.4347 C   0  0  0  0  0  0  0  0  0  0  0  0
    4.2164   -0.0009   -3.2025 C   0  0  0  0  0  0  0  0  0  0  0  0
    5.4703   -0.0009   -2.5666 C   0  0  0  0  0  0  0  0  0  0  0  0
    5.5266   -0.0005   -1.1647 C   0  0  0  0  0  0  0  0  0  0  0  0
    4.3402   -0.0002   -0.4088 C   0  0  0  0  0  0  0  0  0  0  0  0
    1.9585    0.0005    1.4413 C   0  0  0  0  0  0  0  0  0  0  0  0
    2.1580   -1.2028    2.1536 C   0  0  0  0  0  0  0  0  0  0  0  0
    2.5123   -1.2101    3.5110 C   0  0  0  0  0  0  0  0  0  0  0  0
    2.6922    0.0015    4.1989 C   0  0  0  0  0  0  0  0  0  0  0  0
    2.5122    1.2126    3.5102 C   0  0  0  0  0  0  0  0  0  0  0  0
    2.1579    1.2044    2.1528 C   0  0  0  0  0  0  0  0  0  0  0  0
    1.6688   -0.0000   -0.1545 B   0  0  0  0  0  0  0  0  0  0  0  0
    0.2380   -4.2035   -1.9113 H   0  0  0  0  0  0  0  0  0  0  0  0
    2.3676   -2.4809   -1.4863 H   0  0  0  0  0  0  0  0  0  0  0  0
   -4.1089   -2.4688   -2.0450 H   0  0  0  0  0  0  0  0  0  0  0  0
   -3.0085   -1.1446   -1.5119 H   0  0  0  0  0  0  0  0  0  0  0  0
   -2.6094   -2.1071   -2.9814 H   0  0  0  0  0  0  0  0  0  0  0  0
   -3.9078   -3.8498    0.1413 H   0  0  0  0  0  0  0  0  0  0  0  0
   -3.0895   -2.3888    0.7955 H   0  0  0  0  0  0  0  0  0  0  0  0
   -2.2906   -3.9838    0.9301 H   0  0  0  0  0  0  0  0  0  0  0  0
   -3.2384   -4.8668   -1.9259 H   0  0  0  0  0  0  0  0  0  0  0  0
   -1.7481   -4.4281   -2.8098 H   0  0  0  0  0  0  0  0  0  0  0  0
   -1.6463   -5.2570   -1.2097 H   0  0  0  0  0  0  0  0  0  0  0  0
    0.2380    4.2029   -1.9124 H   0  0  0  0  0  0  0  0  0  0  0  0
    2.3675    2.4803   -1.4872 H   0  0  0  0  0  0  0  0  0  0  0  0
   -4.1089    2.4678   -2.0461 H   0  0  0  0  0  0  0  0  0  0  0  0
   -2.6095    2.1052   -2.9821 H   0  0  0  0  0  0  0  0  0  0  0  0
   -3.0089    1.1438   -1.5121 H   0  0  0  0  0  0  0  0  0  0  0  0
   -3.9079    3.8501    0.1393 H   0  0  0  0  0  0  0  0  0  0  0  0
   -2.2909    3.9842    0.9283 H   0  0  0  0  0  0  0  0  0  0  0  0
   -3.0900    2.3893    0.7945 H   0  0  0  0  0  0  0  0  0  0  0  0
   -3.2385    4.8655   -1.9286 H   0  0  0  0  0  0  0  0  0  0  0  0
   -1.6467    5.2564   -1.2122 H   0  0  0  0  0  0  0  0  0  0  0  0
   -1.7478    4.4265   -2.8118 H   0  0  0  0  0  0  0  0  0  0  0  0
    2.0658   -0.0008   -2.9480 H   0  0  0  0  0  0  0  0  0  0  0  0
    4.1566   -0.0013   -4.3035 H   0  0  0  0  0  0  0  0  0  0  0  0
    6.3972   -0.0011   -3.1631 H   0  0  0  0  0  0  0  0  0  0  0  0
    6.5033   -0.0004   -0.6531 H   0  0  0  0  0  0  0  0  0  0  0  0
    4.3979    0.0001    0.6915 H   0  0  0  0  0  0  0  0  0  0  0  0
    1.9971   -2.1629    1.6364 H   0  0  0  0  0  0  0  0  0  0  0  0
    2.6336   -2.1687    4.0417 H   0  0  0  0  0  0  0  0  0  0  0  0
    2.9598    0.0019    5.2680 H   0  0  0  0  0  0  0  0  0  0  0  0
    2.6335    2.1715    4.0402 H   0  0  0  0  0  0  0  0  0  0  0  0
    1.9970    2.1641    1.6349 H   0  0  0  0  0  0  0  0  0  0  0  0
  1  5  1  0  0  0  0
  2  5  1  0  0  0  0
  2 31  1  0  0  0  0
  3 12  1  0  0  0  0
  4 12  1  0  0  0  0
  4 31  1  0  0  0  0
  6  7  2  0  0  0  0
  6  1  1  0  0  0  0
  7  2  1  0  0  0  0
  8  1  1  0  0  0  0
  8 10  1  0  0  0  0
  9 35  1  0  0  0  0
  9  8  1  0  0  0  0
 10 38  1  0  0  0  0
 10 39  1  0  0  0  0
 11 42  1  0  0  0  0
 11  8  1  0  0  0  0
 13 14  2  0  0  0  0
 13  3  1  0  0  0  0
 14  4  1  0  0  0  0
 15  3  1  0  0  0  0
 15 17  1  0  0  0  0
 16 47  1  0  0  0  0
 16 15  1  0  0  0  0
 17 50  1  0  0  0  0
 17 49  1  0  0  0  0
 18 52  1  0  0  0  0
 18 15  1  0  0  0  0
 19 24  1  0  0  0  0
 19 31  1  0  0  0  0
 20 19  2  0  0  0  0
 21 22  2  0  0  0  0
 21 20  1  0  0  0  0
 22 23  1  0  0  0  0
 23 57  1  0  0  0  0
 23 24  2  0  0  0  0
 24 58  1  0  0  0  0
 25 30  2  0  0  0  0
 25 26  1  0  0  0  0
 26 27  2  0  0  0  0
 27 60  1  0  0  0  0
 27 28  1  0  0  0  0
 28 61  1  0  0  0  0
 29 62  1  0  0  0  0
 29 28  2  0  0  0  0
 30 29  1  0  0  0  0
 31 25  1  0  0  0  0
 32  6  1  0  0  0  0
 33  7  1  0  0  0  0
 34  9  1  0  0  0  0
 36  9  1  0  0  0  0
 37 10  1  0  0  0  0
 40 11  1  0  0  0  0
 41 11  1  0  0  0  0
 43 13  1  0  0  0  0
 44 14  1  0  0  0  0
 45 16  1  0  0  0  0
 46 16  1  0  0  0  0
 48 17  1  0  0  0  0
 51 18  1  0  0  0  0
 53 18  1  0  0  0  0
 54 20  1  0  0  0  0
 55 21  1  0  0  0  0
 56 22  1  0  0  0  0
 59 26  1  0  0  0  0
 63 30  1  0  0  0  0
M  END
