1,9
q = -1.0

 32 32  0  0  0  0  0  0  0  0999 V2000
    2.0805    0.3562    0.1478 C   0  0  0  0  0  2  0  0  0  0  0  0
    2.3706    1.4552    0.9246 N   0  0  0  0  0  0  0  0  0  0  0  0
    3.3258   -0.1215   -0.2157 N   0  0  0  0  0  0  0  0  0  0  0  0
    3.7288    1.6765    1.0326 C   0  0  0  0  0  0  0  0  0  0  0  0
    4.1607    2.5008    1.6059 H   0  0  0  0  0  0  0  0  0  0  0  0
    4.3332    0.6792    0.3163 C   0  0  0  0  0  0  0  0  0  0  0  0
    5.3946    0.4835    0.1622 H   0  0  0  0  0  0  0  0  0  0  0  0
    1.2839    2.3084    1.4554 C   0  0  0  0  0  0  0  0  0  0  0  0
    0.0389    1.4025    1.4959 C   0  0  0  0  0  3  0  0  0  0  0  0
   -0.8725    2.0360    1.4998 H   0  0  0  0  0  0  0  0  0  0  0  0
    0.0457    0.8526    2.4658 H   0  0  0  0  0  0  0  0  0  0  0  0
    1.1102    3.5035    0.5015 C   0  0  0  0  0  0  0  0  0  0  0  0
    0.2857    4.1567    0.8491 H   0  0  0  0  0  0  0  0  0  0  0  0
    2.0375    4.1102    0.4508 H   0  0  0  0  0  0  0  0  0  0  0  0
    0.8719    3.1466   -0.5186 H   0  0  0  0  0  0  0  0  0  0  0  0
    1.6563    2.8104    2.8603 C   0  0  0  0  0  0  0  0  0  0  0  0
    1.8971    1.9618    3.5311 H   0  0  0  0  0  0  0  0  0  0  0  0
    2.5172    3.5116    2.8537 H   0  0  0  0  0  0  0  0  0  0  0  0
    0.7915    3.3537    3.2892 H   0  0  0  0  0  0  0  0  0  0  0  0
    3.6009   -1.3072   -1.0954 C   0  0  0  0  0  0  0  0  0  0  0  0
    5.1130   -1.5829   -1.1323 C   0  0  0  0  0  0  0  0  0  0  0  0
    5.2812   -2.4786   -1.7598 H   0  0  0  0  0  0  0  0  0  0  0  0
    5.6852   -0.7511   -1.5902 H   0  0  0  0  0  0  0  0  0  0  0  0
    5.5261   -1.7975   -0.1259 H   0  0  0  0  0  0  0  0  0  0  0  0
    2.8885   -2.5339   -0.5073 C   0  0  0  0  0  0  0  0  0  0  0  0
    1.7913   -2.4088   -0.5694 H   0  0  0  0  0  0  0  0  0  0  0  0
    3.1533   -3.4328   -1.0986 H   0  0  0  0  0  0  0  0  0  0  0  0
    3.2036   -2.6996    0.5432 H   0  0  0  0  0  0  0  0  0  0  0  0
    3.1101   -0.9774   -2.5139 C   0  0  0  0  0  0  0  0  0  0  0  0
    3.6240   -0.0720   -2.8964 H   0  0  0  0  0  0  0  0  0  0  0  0
    2.0122   -0.8287   -2.5207 H   0  0  0  0  0  0  0  0  0  0  0  0
    3.3382   -1.8225   -3.1937 H   0  0  0  0  0  0  0  0  0  0  0  0
  1  2  1  0  0  0  0
  2  4  1  0  0  0  0
  2  8  1  0  0  0  0
  3  1  1  0  0  0  0
  3  6  1  0  0  0  0
  4  5  1  0  0  0  0
  6  4  2  0  0  0  0
  7  6  1  0  0  0  0
  8  9  1  0  0  0  0
  8 16  1  0  0  0  0
  9 10  1  0  0  0  0
  9 11  1  0  0  0  0
 12 13  1  0  0  0  0
 12  8  1  0  0  0  0
 14 12  1  0  0  0  0
 15 12  1  0  0  0  0
 16 19  1  0  0  0  0
 16 17  1  0  0  0  0
 18 16  1  0  0  0  0
 20 25  1  0  0  0  0
 20  3  1  0  0  0  0
 21 20  1  0  0  0  0
 21 24  1  0  0  0  0
 22 21  1  0  0  0  0
 23 21  1  0  0  0  0
 25 28  1  0  0  0  0
 26 25  1  0  0  0  0
 27 25  1  0  0  0  0
 29 20  1  0  0  0  0
 30 29  1  0  0  0  0
 31 29  1  0  0  0  0
 32 29  1  0  0  0  0
M  END
