3,15
q = -1.0, confidence = 0.01

 24 25  0  0  0  0  0  0  0  0999 V2000
   -3.3129    1.4719   -0.3129 N   0  0  0  0  0  0  0  0  0  0  0  0
   -2.0685    1.6030    0.2248 C   0  0  0  0  0  3  0  0  0  0  0  0
   -0.9614    2.3214   -0.3438 C   0  0  0  0  0  3  0  0  0  0  0  0
   -0.9464    2.8310   -1.3116 H   0  0  0  0  0  0  0  0  0  0  0  0
    0.0644    2.4245    0.6682 C   0  0  0  0  0  0  0  0  0  0  0  0
    1.3065    3.1176    0.7100 C   0  0  0  0  0  0  0  0  0  0  0  0
    1.6397    3.6942   -0.1642 H   0  0  0  0  0  0  0  0  0  0  0  0
    2.0658    3.0761    1.8753 C   0  0  0  0  0  0  0  0  0  0  0  0
    3.0162    3.6286    1.9232 H   0  0  0  0  0  0  0  0  0  0  0  0
    1.6217    2.3521    3.0163 C   0  0  0  0  0  0  0  0  0  0  0  0
    2.2244    2.3726    3.9370 H   0  0  0  0  0  0  0  0  0  0  0  0
    0.4351    1.6260    2.9877 C   0  0  0  0  0  0  0  0  0  0  0  0
    0.0885    1.0845    3.8788 H   0  0  0  0  0  0  0  0  0  0  0  0
   -0.3521    1.6276    1.8036 C   0  0  0  0  0  0  0  0  0  0  0  0
   -1.6084    0.9950    1.4513 C   0  0  0  0  0  3  0  0  0  0  0  0
   -2.2035    0.3639    2.1192 H   0  0  0  0  0  0  0  0  0  0  0  0
   -3.5825    2.0525   -1.6169 C   0  0  0  0  0  0  0  0  0  0  0  0
   -3.2659    3.1161   -1.6336 H   0  0  0  0  0  0  0  0  0  0  0  0
   -4.6703    2.0171   -1.8126 H   0  0  0  0  0  0  0  0  0  0  0  0
   -3.0551    1.5120   -2.4338 H   0  0  0  0  0  0  0  0  0  0  0  0
   -4.2207    0.4892    0.2496 C   0  0  0  0  0  0  0  0  0  0  0  0
   -4.3591    0.6606    1.3378 H   0  0  0  0  0  0  0  0  0  0  0  0
   -3.8502   -0.5513    0.1013 H   0  0  0  0  0  0  0  0  0  0  0  0
   -5.2081    0.5829   -0.2384 H   0  0  0  0  0  0  0  0  0  0  0  0
  1  2  1  0  0  0  0
  1 21  1  0  0  0  0
  2 15  1  0  0  0  0
  3  2  1  0  0  0  0
  3  5  1  0  0  0  0
  4  3  1  0  0  0  0
  5  6  2  0  0  0  0
  5 14  1  0  0  0  0
  6  8  1  0  0  0  0
  7  6  1  0  0  0  0
  8  9  1  0  0  0  0
  8 10  2  0  0  0  0
 10 11  1  0  0  0  0
 12 10  1  0  0  0  0
 12 13  1  0  0  0  0
 14 12  2  0  0  0  0
 15 14  1  0  0  0  0
 15 16  1  0  0  0  0
 17  1  1  0  0  0  0
 18 17  1  0  0  0  0
 19 17  1  0  0  0  0
 20 17  1  0  0  0  0
 21 22  1  0  0  0  0
 23 21  1  0  0  0  0
 24 21  1  0  0  0  0
M  END
