22,26
q = -1.0

 32 33  0  0  1  0  0  0  0  0999 V2000
    1.9934    0.6216   -0.1126 C   0  0  0  0  0  0  0  0  0  0  0  0
    2.8039    1.7927   -0.2075 C   0  0  0  0  0  0  0  0  0  0  0  0
    4.2040    1.6365   -0.2253 C   0  0  0  0  0  0  0  0  0  0  0  0
    4.8401    2.5331   -0.3017 H   0  0  0  0  0  0  0  0  0  0  0  0
    4.8128    0.3745   -0.1447 C   0  0  0  0  0  0  0  0  0  0  0  0
    5.9088    0.3090   -0.1639 H   0  0  0  0  0  0  0  0  0  0  0  0
    4.0118   -0.7776   -0.0483 C   0  0  0  0  0  0  0  0  0  0  0  0
    2.6105   -0.6329   -0.0362 C   0  0  0  0  0  0  0  0  0  0  0  0
    2.0040   -1.5464    0.0423 H   0  0  0  0  0  0  0  0  0  0  0  0
    5.8839   -2.2463    0.0243 C   0  0  0  0  0  0  0  0  0  0  0  0
    6.0589   -3.3359    0.1011 H   0  0  0  0  0  0  0  0  0  0  0  0
    6.3804   -1.7414    0.8852 H   0  0  0  0  0  0  0  0  0  0  0  0
    6.3512   -1.8733   -0.9164 H   0  0  0  0  0  0  0  0  0  0  0  0
    2.2267    3.0690   -0.2066 N   0  0  0  0  0  0  0  0  0  0  0  0
    1.3066    3.1305   -0.6501 H   0  0  0  0  0  0  0  0  0  0  0  0
    2.8449    3.8080   -0.5473 H   0  0  0  0  0  0  0  0  0  0  0  0
    4.4857   -2.0594    0.0332 O   0  0  0  0  0  0  0  0  0  0  0  0
    0.4800    0.7675   -0.0331 C   0  0  1  0  0  0  0  0  0  0  0  0
    0.1895    1.5715   -0.7454 H   0  0  0  0  0  0  0  0  0  0  0  0
   -0.2757   -0.4656   -0.4805 C   0  0  0  0  0  3  0  0  0  0  0  0
    0.0063   -0.7807   -1.5003 H   0  0  0  0  0  0  0  0  0  0  0  0
   -0.7778   -1.5472    0.3021 C   0  0  0  0  0  3  0  0  0  0  0  0
   -0.7493   -2.5492   -0.1598 H   0  0  0  0  0  0  0  0  0  0  0  0
   -1.5649   -1.4700    1.4983 C   0  0  0  0  0  3  0  0  0  0  0  0
   -1.9795   -2.4066    1.8987 H   0  0  0  0  0  0  0  0  0  0  0  0
   -2.0145   -0.2235    2.0341 C   0  0  0  0  0  3  0  0  0  0  0  0
   -2.8510   -0.2506    2.7517 H   0  0  0  0  0  0  0  0  0  0  0  0
   -1.4909    1.0078    1.5605 C   0  0  0  0  0  3  0  0  0  0  0  0
   -2.0648    1.9051    1.8421 H   0  0  0  0  0  0  0  0  0  0  0  0
    0.0041    1.1972    1.3643 C   0  0  0  0  0  0  0  0  0  0  0  0
    0.5485    0.5843    2.1125 H   0  0  0  0  0  0  0  0  0  0  0  0
    0.2943    2.2492    1.5499 H   0  0  0  0  0  0  0  0  0  0  0  0
  1  8  1  0  0  0  0
  1 18  1  0  0  0  0
  2 14  1  0  0  0  0
  2  1  2  0  0  0  0
  3  2  1  0  0  0  0
  3  5  2  0  0  0  0
  4  3  1  0  0  0  0
  5  7  1  0  0  0  0
  6  5  1  0  0  0  0
  7  8  2  0  0  0  0
  7 17  1  0  0  0  0
  8  9  1  0  0  0  0
 10 17  1  0  0  0  0
 10 11  1  0  0  0  0
 10 12  1  0  0  0  0
 13 10  1  0  0  0  0
 15 14  1  0  0  0  0
 16 14  1  0  0  0  0
 18 19  1  6  0  0  0
 18 30  1  0  0  0  0
 20 18  1  0  0  0  0
 20 22  1  0  0  0  0
 21 20  1  0  0  0  0
 22 24  1  0  0  0  0
 23 22  1  0  0  0  0
 24 25  1  0  0  0  0
 24 26  1  0  0  0  0
 26 27  1  0  0  0  0
 28 29  1  0  0  0  0
 28 26  1  0  0  0  0
 30 32  1  0  0  0  0
 30 28  1  0  0  0  0
 30 31  1  0  0  0  0
M  END
