3,37
q = -1.0

 55 58  0  0  1  0  0  0  0  0999 V2000
   -1.4655    1.3000    0.3353 C   0  0  0  0  0  0  0  0  0  0  0  0
   -1.4576    2.3847    0.5353 H   0  0  0  0  0  0  0  0  0  0  0  0
   -0.4130    0.6782   -0.2687 C   0  0  0  0  0  2  0  0  0  0  0  0
    0.7849    1.4087   -0.8167 C   0  0  2  0  0  0  0  0  0  0  0  0
    0.8710    1.1370   -1.8964 H   0  0  0  0  0  0  0  0  0  0  0  0
    2.0898    0.9545   -0.2487 N   0  0  0  0  0  0  0  0  0  0  0  0
    2.1653   -0.1149    0.5166 C   0  0  0  0  0  3  0  0  0  0  0  0
    1.2253   -0.4542    0.9775 H   0  0  0  0  0  0  0  0  0  0  0  0
    3.4400   -0.6693    0.9407 C   0  0  0  0  0  0  0  0  0  0  0  0
    3.4776   -1.8901    1.6485 C   0  0  0  0  0  0  0  0  0  0  0  0
    2.5388   -2.4348    1.8288 H   0  0  0  0  0  0  0  0  0  0  0  0
    4.7037   -2.4102    2.0713 C   0  0  0  0  0  0  0  0  0  0  0  0
    4.7394   -3.3672    2.6118 H   0  0  0  0  0  0  0  0  0  0  0  0
    5.8915   -1.7098    1.7936 C   0  0  0  0  0  0  0  0  0  0  0  0
    6.8584   -2.1194    2.1230 H   0  0  0  0  0  0  0  0  0  0  0  0
    5.8565   -0.4943    1.0906 C   0  0  0  0  0  0  0  0  0  0  0  0
    6.7922    0.0448    0.8755 H   0  0  0  0  0  0  0  0  0  0  0  0
    4.6359    0.0368    0.6505 C   0  0  0  0  0  0  0  0  0  0  0  0
    4.5160    1.3520   -0.0820 C   0  0  0  0  0  0  0  0  0  0  0  0
    5.4244    1.5516   -0.6840 H   0  0  0  0  0  0  0  0  0  0  0  0
    4.4369    2.1825    0.6563 H   0  0  0  0  0  0  0  0  0  0  0  0
    3.2910    1.3622   -0.9897 C   0  0  0  0  0  0  0  0  0  0  0  0
    3.1064    2.3674   -1.4117 H   0  0  0  0  0  0  0  0  0  0  0  0
    3.4037    0.6352   -1.8276 H   0  0  0  0  0  0  0  0  0  0  0  0
    0.6830    2.9184   -0.6959 C   0  0  0  0  0  0  0  0  0  0  0  0
    0.1775    3.6789   -1.7665 C   0  0  0  0  0  0  0  0  0  0  0  0
   -0.0960    3.1731   -2.7059 H   0  0  0  0  0  0  0  0  0  0  0  0
    0.0114    5.0655   -1.6376 C   0  0  0  0  0  0  0  0  0  0  0  0
   -0.3850    5.6495   -2.4820 H   0  0  0  0  0  0  0  0  0  0  0  0
    0.3514    5.7071   -0.4353 C   0  0  0  0  0  0  0  0  0  0  0  0
    0.2224    6.7953   -0.3344 H   0  0  0  0  0  0  0  0  0  0  0  0
    0.8572    4.9550    0.6369 C   0  0  0  0  0  0  0  0  0  0  0  0
    1.1231    5.4519    1.5824 H   0  0  0  0  0  0  0  0  0  0  0  0
    1.0198    3.5672    0.5083 C   0  0  0  0  0  0  0  0  0  0  0  0
    1.4069    2.9749    1.3518 H   0  0  0  0  0  0  0  0  0  0  0  0
   -2.6364    0.4907    0.6609 C   0  0  0  0  0  0  0  0  0  0  0  0
   -2.5799   -0.8144    0.2562 C   0  0  0  0  0  2  0  0  0  0  0  0
   -3.6915   -1.8014    0.4045 C   0  0  0  0  0  0  0  0  0  0  0  0
   -3.4218   -2.5304    1.2031 H   0  0  0  0  0  0  0  0  0  0  0  0
   -3.7676   -2.4276   -0.5073 H   0  0  0  0  0  0  0  0  0  0  0  0
   -5.0153   -1.0944    0.7293 C   0  0  0  0  0  0  0  0  0  0  0  0
   -5.4165   -0.6237   -0.1941 H   0  0  0  0  0  0  0  0  0  0  0  0
   -5.7702   -1.8409    1.0521 H   0  0  0  0  0  0  0  0  0  0  0  0
   -4.8137   -0.0314    1.8096 C   0  0  0  0  0  0  0  0  0  0  0  0
   -4.3963   -0.5219    2.7168 H   0  0  0  0  0  0  0  0  0  0  0  0
   -5.7827    0.4190    2.1138 H   0  0  0  0  0  0  0  0  0  0  0  0
   -3.8493    1.0982    1.3738 C   0  0  0  0  0  0  0  0  0  0  0  0
   -4.5624    2.0793    0.4163 C   0  0  0  0  0  0  0  0  0  0  0  0
   -5.4079    2.5829    0.9307 H   0  0  0  0  0  0  0  0  0  0  0  0
   -4.9594    1.5556   -0.4756 H   0  0  0  0  0  0  0  0  0  0  0  0
   -3.8677    2.8654    0.0562 H   0  0  0  0  0  0  0  0  0  0  0  0
   -3.3910    1.8671    2.6307 C   0  0  0  0  0  0  0  0  0  0  0  0
   -4.2717    2.2490    3.1881 H   0  0  0  0  0  0  0  0  0  0  0  0
   -2.7548    2.7389    2.3766 H   0  0  0  0  0  0  0  0  0  0  0  0
   -2.8136    1.2085    3.3108 H   0  0  0  0  0  0  0  0  0  0  0  0
  1  2  1  0  0  0  0
  1 36  2  0  0  0  0
  3  1  1  0  0  0  0
  4  5  1  6  0  0  0
  4 25  1  0  0  0  0
  4  3  1  0  0  0  0
  4  6  1  0  0  0  0
  6  7  1  0  0  0  0
  7  9  1  0  0  0  0
  7  8  1  0  0  0  0
  9 10  1  0  0  0  0
 10 11  1  0  0  0  0
 10 12  2  0  0  0  0
 12 13  1  0  0  0  0
 14 12  1  0  0  0  0
 14 15  1  0  0  0  0
 16 14  2  0  0  0  0
 17 16  1  0  0  0  0
 18  9  2  0  0  0  0
 18 16  1  0  0  0  0
 19 18  1  0  0  0  0
 19 21  1  0  0  0  0
 20 19  1  0  0  0  0
 22  6  1  0  0  0  0
 22 19  1  0  0  0  0
 23 22  1  0  0  0  0
 24 22  1  0  0  0  0
 25 34  1  0  0  0  0
 26 28  1  0  0  0  0
 26 25  2  0  0  0  0
 27 26  1  0  0  0  0
 28 30  2  0  0  0  0
 29 28  1  0  0  0  0
 30 31  1  0  0  0  0
 30 32  1  0  0  0  0
 32 33  1  0  0  0  0
 34 32  2  0  0  0  0
 34 35  1  0  0  0  0
 36 47  1  0  0  0  0
 37 38  1  0  0  0  0
 37 36  1  0  0  0  0
 38 41  1  0  0  0  0
 38 39  1  0  0  0  0
 40 38  1  0  0  0  0
 41 43  1  0  0  0  0
 41 44  1  0  0  0  0
 42 41  1  0  0  0  0
 44 46  1  0  0  0  0
 44 45  1  0  0  0  0
 47 44  1  0  0  0  0
 47 52  1  0  0  0  0
 48 49  1  0  0  0  0
 48 47  1  0  0  0  0
 50 48  1  0  0  0  0
 51 48  1  0  0  0  0
 52 53  1  0  0  0  0
 52 55  1  0  0  0  0
 54 52  1  0  0  0  0
M  END
