12,18
q = 0.0, confidence = 0.994

 31 34  0  0  0  0  0  0  0  0999 V2000
    3.2068    2.0829    0.5343 C   0  0  0  0  0  0  0  0  0  0  0  0
    3.1959    2.0350    1.6474 H   0  0  0  0  0  0  0  0  0  0  0  0
    4.2631    1.9368    0.2278 H   0  0  0  0  0  0  0  0  0  0  0  0
    2.6105    3.4114    0.0095 C   0  0  0  0  0  0  0  0  0  0  0  0
    3.1110    3.6825   -0.9429 H   0  0  0  0  0  0  0  0  0  0  0  0
    2.7574    4.2573    0.7082 H   0  0  0  0  0  0  0  0  0  0  0  0
    1.1180    3.1123   -0.2708 C   0  0  0  0  0  0  0  0  0  0  0  0
    0.7221    3.6846   -1.1354 H   0  0  0  0  0  0  0  0  0  0  0  0
    0.4708    3.3681    0.5994 H   0  0  0  0  0  0  0  0  0  0  0  0
    1.1063    1.6171   -0.4784 C   0  0  0  0  0  0  0  0  0  0  0  0
    0.0277    0.8211   -1.0043 C   0  0  0  0  0  0  0  0  0  0  0  0
   -1.2191    1.4162   -1.4225 C   0  0  0  0  0  3  0  0  0  0  0  0
   -1.3450    2.5031   -1.3343 H   0  0  0  0  0  0  0  0  0  0  0  0
   -2.2745    0.6253   -1.9215 C   0  0  0  0  0  0  0  0  0  0  0  0
   -3.2220    1.0946   -2.2193 H   0  0  0  0  0  0  0  0  0  0  0  0
   -2.1297   -0.7956   -1.9716 C   0  0  0  0  0  0  0  0  0  0  0  0
   -2.9668   -1.4238   -2.3048 H   0  0  0  0  0  0  0  0  0  0  0  0
   -0.9430   -1.4000   -1.5047 C   0  0  0  0  0  3  0  0  0  0  0  0
   -0.8829   -2.4950   -1.4926 H   0  0  0  0  0  0  0  0  0  0  0  0
    0.1766   -0.6175   -1.0368 C   0  0  0  0  0  0  0  0  0  0  0  0
    1.4119   -1.2286   -0.5464 C   0  0  0  0  0  0  0  0  0  0  0  0
    1.6149   -2.6304   -0.5515 C   0  0  0  0  0  0  0  0  0  0  0  0
    0.8311   -3.2979   -0.9343 H   0  0  0  0  0  0  0  0  0  0  0  0
    2.7948   -3.1940   -0.0679 C   0  0  0  0  0  0  0  0  0  0  0  0
    2.9207   -4.2869   -0.0787 H   0  0  0  0  0  0  0  0  0  0  0  0
    3.8208   -2.3687    0.4388 C   0  0  0  0  0  0  0  0  0  0  0  0
    4.7492   -2.8159    0.8244 H   0  0  0  0  0  0  0  0  0  0  0  0
    3.6526   -0.9864    0.4514 C   0  0  0  0  0  0  0  0  0  0  0  0
    4.4483   -0.3393    0.8481 H   0  0  0  0  0  0  0  0  0  0  0  0
    2.4619   -0.3894   -0.0374 C   0  0  0  0  0  0  0  0  0  0  0  0
    2.2698    1.0368   -0.0241 C   0  0  0  0  0  0  0  0  0  0  0  0
  1  2  1  0  0  0  0
  3  1  1  0  0  0  0
  4  1  1  0  0  0  0
  4  6  1  0  0  0  0
  5  4  1  0  0  0  0
  7  4  1  0  0  0  0
  7  9  1  0  0  0  0
  8  7  1  0  0  0  0
 10  7  1  0  0  0  0
 10 31  1  0  0  0  0
 11 10  2  0  0  0  0
 12 13  1  0  0  0  0
 12 11  1  0  0  0  0
 14 12  1  0  0  0  0
 15 14  1  0  0  0  0
 16 14  2  0  0  0  0
 16 18  1  0  0  0  0
 17 16  1  0  0  0  0
 18 19  1  0  0  0  0
 18 20  1  0  0  0  0
 20 11  1  0  0  0  0
 20 21  2  0  0  0  0
 21 30  1  0  0  0  0
 22 21  1  0  0  0  0
 22 24  2  0  0  0  0
 23 22  1  0  0  0  0
 24 26  1  0  0  0  0
 25 24  1  0  0  0  0
 26 28  2  0  0  0  0
 26 27  1  0  0  0  0
 28 29  1  0  0  0  0
 30 31  2  0  0  0  0
 30 28  1  0  0  0  0
 31  1  1  0  0  0  0
M  END
