2,7
q = -1.0

 29 30  0  0  0  0  0  0  0  0999 V2000
   -2.4903    0.2649    0.2419 P   0  0  0  0  0  4  0  0  0  0  0  0
   -1.5120   -1.1268    0.7372 C   0  0  0  0  0  3  0  0  0  0  0  0
   -1.9435   -2.3961   -0.0218 C   0  0  0  0  0  0  0  0  0  0  0  0
   -3.4610   -2.6768   -0.0215 C   0  0  0  0  0  0  0  0  0  0  0  0
   -4.2865   -1.5961   -0.7454 C   0  0  0  0  0  0  0  0  0  0  0  0
   -4.2694   -0.2315   -0.0318 C   0  0  0  0  0  0  0  0  0  0  0  0
   -1.4864    0.8190   -1.1077 C   0  0  0  0  0  3  0  0  0  0  0  0
   -1.5796    2.2908   -1.4963 C   0  0  0  0  0  0  0  0  0  0  0  0
   -1.5922    3.2547   -0.2998 C   0  0  0  0  0  0  0  0  0  0  0  0
   -2.7118    2.9834    0.7162 C   0  0  0  0  0  0  0  0  0  0  0  0
   -2.5362    1.6428    1.4493 C   0  0  0  0  0  0  0  0  0  0  0  0
   -1.5136   -1.2834    1.8367 H   0  0  0  0  0  0  0  0  0  0  0  0
   -1.5719    0.1373   -1.9816 H   0  0  0  0  0  0  0  0  0  0  0  0
   -0.7102    2.5420   -2.1428 H   0  0  0  0  0  0  0  0  0  0  0  0
   -2.4863    2.4915   -2.1190 H   0  0  0  0  0  0  0  0  0  0  0  0
   -1.6803    4.2988   -0.6675 H   0  0  0  0  0  0  0  0  0  0  0  0
   -0.6186    3.1810    0.2280 H   0  0  0  0  0  0  0  0  0  0  0  0
   -2.7454    3.7995    1.4690 H   0  0  0  0  0  0  0  0  0  0  0  0
   -3.6994    3.0029    0.2014 H   0  0  0  0  0  0  0  0  0  0  0  0
   -1.5704    1.6171    1.9961 H   0  0  0  0  0  0  0  0  0  0  0  0
   -3.3503    1.4534    2.1791 H   0  0  0  0  0  0  0  0  0  0  0  0
   -1.6091   -2.3361   -1.0831 H   0  0  0  0  0  0  0  0  0  0  0  0
   -1.4100   -3.2708    0.4058 H   0  0  0  0  0  0  0  0  0  0  0  0
   -3.8202   -2.7710    1.0288 H   0  0  0  0  0  0  0  0  0  0  0  0
   -3.6543   -3.6582   -0.5060 H   0  0  0  0  0  0  0  0  0  0  0  0
   -5.3373   -1.9354   -0.8646 H   0  0  0  0  0  0  0  0  0  0  0  0
   -3.8870   -1.4715   -1.7777 H   0  0  0  0  0  0  0  0  0  0  0  0
   -4.7462   -0.3129    0.9704 H   0  0  0  0  0  0  0  0  0  0  0  0
   -4.8136    0.5470   -0.6075 H   0  0  0  0  0  0  0  0  0  0  0  0
  1  2  1  0  0  0  0
  1 11  1  0  0  0  0
  2 12  1  0  0  0  0
  3  4  1  0  0  0  0
  3 23  1  0  0  0  0
  3  2  1  0  0  0  0
  4 24  1  0  0  0  0
  5  6  1  0  0  0  0
  5  4  1  0  0  0  0
  6  1  1  0  0  0  0
  6 28  1  0  0  0  0
  7  1  1  0  0  0  0
  8  7  1  0  0  0  0
  8  9  1  0  0  0  0
  9 17  1  0  0  0  0
  9 10  1  0  0  0  0
 10 11  1  0  0  0  0
 10 18  1  0  0  0  0
 11 20  1  0  0  0  0
 11 21  1  0  0  0  0
 13  7  1  0  0  0  0
 14  8  1  0  0  0  0
 15  8  1  0  0  0  0
 16  9  1  0  0  0  0
 19 10  1  0  0  0  0
 22  3  1  0  0  0  0
 25  4  1  0  0  0  0
 26  5  1  0  0  0  0
 27  5  1  0  0  0  0
 29  6  1  0  0  0  0
M  END
