3,17
q = 0.0, confidence = 0.996

 27 28  0  0  0  0  0  0  0  0999 V2000
   -2.5502    1.0029    1.4219 S   0  0  0  0  0  0  0  0  0  0  0  0
   -2.3137   -0.0986   -0.8765 N   0  0  0  0  0  0  0  0  0  0  0  0
   -1.5917    0.7031   -0.0331 C   0  0  0  0  0  2  0  0  0  0  0  0
   -3.8760   -0.0048    0.8365 C   0  0  0  0  0  0  0  0  0  0  0  0
   -5.0861   -0.3318    1.4628 C   0  0  0  0  0  0  0  0  0  0  0  0
   -5.3298    0.0738    2.4554 H   0  0  0  0  0  0  0  0  0  0  0  0
   -5.9766   -1.1899    0.7957 C   0  0  0  0  0  0  0  0  0  0  0  0
   -6.9311   -1.4555    1.2732 H   0  0  0  0  0  0  0  0  0  0  0  0
   -5.6599   -1.7126   -0.4733 C   0  0  0  0  0  0  0  0  0  0  0  0
   -6.3694   -2.3858   -0.9768 H   0  0  0  0  0  0  0  0  0  0  0  0
   -4.4504   -1.3914   -1.1078 C   0  0  0  0  0  0  0  0  0  0  0  0
   -4.1975   -1.8080   -2.0926 H   0  0  0  0  0  0  0  0  0  0  0  0
   -3.5611   -0.5299   -0.4441 C   0  0  0  0  0  0  0  0  0  0  0  0
   -1.6576   -0.4928   -2.1201 C   0  0  0  0  0  0  0  0  0  0  0  0
   -2.3321   -0.2520   -2.9721 H   0  0  0  0  0  0  0  0  0  0  0  0
   -1.5085   -1.5915   -2.1066 H   0  0  0  0  0  0  0  0  0  0  0  0
   -0.3209    0.2382   -2.2459 C   0  0  0  0  0  3  0  0  0  0  0  0
    0.4878   -0.4024   -2.6356 H   0  0  0  0  0  0  0  0  0  0  0  0
   -0.2535    1.6281   -2.5630 C   0  0  0  0  0  3  0  0  0  0  0  0
   -1.5147    2.4580   -2.7252 C   0  0  0  0  0  0  0  0  0  0  0  0
   -1.8498    2.4012   -3.7860 H   0  0  0  0  0  0  0  0  0  0  0  0
   -1.3103    3.5210   -2.4960 H   0  0  0  0  0  0  0  0  0  0  0  0
   -2.3529    2.1380   -2.0810 H   0  0  0  0  0  0  0  0  0  0  0  0
    0.8855    2.1649   -3.4031 C   0  0  0  0  0  0  0  0  0  0  0  0
    1.7852    1.5268   -3.3671 H   0  0  0  0  0  0  0  0  0  0  0  0
    1.1846    3.1785   -3.0754 H   0  0  0  0  0  0  0  0  0  0  0  0
    0.5466    2.2277   -4.4620 H   0  0  0  0  0  0  0  0  0  0  0  0
  2 13  1  0  0  0  0
  2  3  1  0  0  0  0
  3  1  1  0  0  0  0
  4  1  1  0  0  0  0
  4  5  1  0  0  0  0
  5  6  1  0  0  0  0
  7  8  1  0  0  0  0
  7  5  2  0  0  0  0
  9  7  1  0  0  0  0
 10  9  1  0  0  0  0
 11  9  2  0  0  0  0
 11 13  1  0  0  0  0
 12 11  1  0  0  0  0
 13  4  2  0  0  0  0
 14 16  1  0  0  0  0
 14  2  1  0  0  0  0
 15 14  1  0  0  0  0
 17 14  1  0  0  0  0
 18 17  1  0  0  0  0
 19 17  1  0  0  0  0
 20 19  1  0  0  0  0
 20 22  1  0  0  0  0
 20 23  1  0  0  0  0
 21 20  1  0  0  0  0
 24 25  1  0  0  0  0
 24 26  1  0  0  0  0
 24 19  1  0  0  0  0
 27 24  1  0  0  0  0
M  END
