1,4
q = 0.0, confidence = 0.866

 16 15  0  0  0  0  0  0  0  0999 V2000
    1.9940   -1.3749    1.3599 C   0  0  0  0  0  3  0  0  0  0  0  0
    3.2596   -1.4097    0.6417 C   0  0  0  0  0  0  0  0  0  0  0  0
    3.3352   -1.3391   -0.7706 C   0  0  0  0  0  0  0  0  0  0  0  0
    2.1535   -1.2209   -1.6127 C   0  0  0  0  0  3  0  0  0  0  0  0
    4.4865   -1.3189    1.5241 C   0  0  0  0  0  0  0  0  0  0  0  0
    4.6494   -1.1696   -1.5031 C   0  0  0  0  0  0  0  0  0  0  0  0
    2.0443   -1.4050    2.4593 H   0  0  0  0  0  0  0  0  0  0  0  0
    1.1594   -1.9776    0.9570 H   0  0  0  0  0  0  0  0  0  0  0  0
    1.2868   -1.8649   -1.3756 H   0  0  0  0  0  0  0  0  0  0  0  0
    2.3219   -1.1292   -2.6967 H   0  0  0  0  0  0  0  0  0  0  0  0
    4.6790   -2.3036    2.0026 H   0  0  0  0  0  0  0  0  0  0  0  0
    4.3170   -0.5962    2.3489 H   0  0  0  0  0  0  0  0  0  0  0  0
    5.4130   -1.0207    1.0010 H   0  0  0  0  0  0  0  0  0  0  0  0
    4.8936   -2.1024   -2.0561 H   0  0  0  0  0  0  0  0  0  0  0  0
    5.5141   -0.9349   -0.8563 H   0  0  0  0  0  0  0  0  0  0  0  0
    4.5686   -0.3656   -2.2635 H   0  0  0  0  0  0  0  0  0  0  0  0
  1  7  1  0  0  0  0
  2  1  1  0  0  0  0
  2  5  1  0  0  0  0
  3  2  2  0  0  0  0
  4  9  1  0  0  0  0
  4  3  1  0  0  0  0
  5 11  1  0  0  0  0
  5 12  1  0  0  0  0
  6 15  1  0  0  0  0
  6  3  1  0  0  0  0
  8  1  1  0  0  0  0
 10  4  1  0  0  0  0
 13  5  1  0  0  0  0
 14  6  1  0  0  0  0
 16  6  1  0  0  0  0
M  END
