4,8
q = -1.0

 21 22  0  0  0  0  0  0  0  0999 V2000
    5.2517   -0.3229   -0.8964 Br  0  0  0  0  0  0  0  0  0  0  0  0
    0.1861   -2.1213    1.9412 N   0  0  0  0  0  0  0  0  0  0  0  0
   -1.9510   -1.9502    2.2802 N   0  0  0  0  0  0  0  0  0  0  0  0
   -0.9284   -1.4129    1.5386 C   0  0  0  0  0  2  0  0  0  0  0  0
   -1.4794   -2.9626    3.1164 C   0  0  0  0  0  0  0  0  0  0  0  0
   -0.1285   -3.0689    2.9025 C   0  0  0  0  0  0  0  0  0  0  0  0
    1.4172   -1.7634    1.3306 C   0  0  0  0  0  0  0  0  0  0  0  0
    1.2730   -0.7124    0.3828 C   0  0  0  0  0  3  0  0  0  0  0  0
    2.4531   -0.3010   -0.2702 C   0  0  0  0  0  0  0  0  0  0  0  0
    3.6873   -0.9169    0.0153 C   0  0  0  0  0  0  0  0  0  0  0  0
    3.7947   -1.9543    0.9550 C   0  0  0  0  0  0  0  0  0  0  0  0
    2.6370   -2.3835    1.6241 C   0  0  0  0  0  0  0  0  0  0  0  0
   -3.3395   -1.5252    2.2021 C   0  0  0  0  0  0  0  0  0  0  0  0
   -2.1399   -3.5206    3.7868 H   0  0  0  0  0  0  0  0  0  0  0  0
    0.6115   -3.7344    3.3546 H   0  0  0  0  0  0  0  0  0  0  0  0
    2.4339    0.5064   -1.0170 H   0  0  0  0  0  0  0  0  0  0  0  0
    4.7669   -2.4205    1.1634 H   0  0  0  0  0  0  0  0  0  0  0  0
    2.7079   -3.1941    2.3648 H   0  0  0  0  0  0  0  0  0  0  0  0
   -3.9348   -2.0963    2.9364 H   0  0  0  0  0  0  0  0  0  0  0  0
   -3.7509   -1.7063    1.1906 H   0  0  0  0  0  0  0  0  0  0  0  0
   -3.4306   -0.4458    2.4303 H   0  0  0  0  0  0  0  0  0  0  0  0
  1 10  1  0  0  0  0
  2  6  1  0  0  0  0
  3  5  1  0  0  0  0
  4  2  1  0  0  0  0
  4  3  1  0  0  0  0
  5 14  1  0  0  0  0
  6  5  2  0  0  0  0
  6 15  1  0  0  0  0
  7 12  1  0  0  0  0
  7  2  1  0  0  0  0
  8  7  2  0  0  0  0
  9 10  2  0  0  0  0
  9  8  1  0  0  0  0
 10 11  1  0  0  0  0
 11 17  1  0  0  0  0
 11 12  2  0  0  0  0
 12 18  1  0  0  0  0
 13  3  1  0  0  0  0
 13 21  1  0  0  0  0
 13 19  1  0  0  0  0
 16  9  1  0  0  0  0
 20 13  1  0  0  0  0
M  END
