1,7
q = -1.0, confidence = 0.0

 38 39  0  0  0  0  0  0  0  0999 V2000
   -1.7925   -1.3501   -0.0144 C   0  0  0  0  0  2  0  0  0  0  0  0
   -2.6855   -2.3273    0.0385 O   0  0  0  0  0  0  0  0  0  0  0  0
   -4.0823   -1.9433    0.0356 C   0  0  0  0  0  0  0  0  0  0  0  0
   -4.6136   -1.8660    1.4548 C   0  0  0  0  0  0  0  0  0  0  0  0
   -0.5047   -1.6831    0.2044 N   0  0  0  0  0  0  0  0  0  0  0  0
    0.0123   -2.9550    0.7034 C   0  0  0  0  0  0  0  0  0  0  0  0
    0.0840   -0.3812    0.1229 C   0  0  0  0  0  2  0  0  0  0  0  0
    1.4246   -0.1070    0.1736 C   0  0  0  0  0  3  0  0  0  0  0  0
    2.4760   -1.1496    0.0074 C   0  0  0  0  0  0  0  0  0  0  0  0
    2.4382   -2.0559   -1.0779 C   0  0  0  0  0  0  0  0  0  0  0  0
    3.4363   -3.0277   -1.2458 C   0  0  0  0  0  0  0  0  0  0  0  0
    4.5025   -3.1085   -0.3364 C   0  0  0  0  0  0  0  0  0  0  0  0
    4.5672   -2.2004    0.7349 C   0  0  0  0  0  0  0  0  0  0  0  0
    3.5713   -1.2292    0.9003 C   0  0  0  0  0  0  0  0  0  0  0  0
    1.8953    1.2962    0.3110 C   0  0  0  0  0  0  0  0  0  0  0  0
    1.2774    2.1982    1.2094 C   0  0  0  0  0  0  0  0  0  0  0  0
    1.7098    3.5276    1.3076 C   0  0  0  0  0  0  0  0  0  0  0  0
    2.7776    3.9886    0.5185 C   0  0  0  0  0  0  0  0  0  0  0  0
    3.4167    3.0992   -0.3608 C   0  0  0  0  0  0  0  0  0  0  0  0
    2.9854    1.7687   -0.4580 C   0  0  0  0  0  0  0  0  0  0  0  0
   -4.1688   -0.9673   -0.4815 H   0  0  0  0  0  0  0  0  0  0  0  0
   -4.5987   -2.7243   -0.5572 H   0  0  0  0  0  0  0  0  0  0  0  0
   -5.6961   -1.6265    1.4392 H   0  0  0  0  0  0  0  0  0  0  0  0
   -4.0930   -1.0727    2.0268 H   0  0  0  0  0  0  0  0  0  0  0  0
   -4.4814   -2.8304    1.9844 H   0  0  0  0  0  0  0  0  0  0  0  0
    0.5254   -3.5338   -0.0894 H   0  0  0  0  0  0  0  0  0  0  0  0
   -0.8377   -3.5426    1.0978 H   0  0  0  0  0  0  0  0  0  0  0  0
    0.7452   -2.7576    1.5083 H   0  0  0  0  0  0  0  0  0  0  0  0
    1.6147   -1.9766   -1.8048 H   0  0  0  0  0  0  0  0  0  0  0  0
    3.3876   -3.7192   -2.1014 H   0  0  0  0  0  0  0  0  0  0  0  0
    5.2876   -3.8685   -0.4678 H   0  0  0  0  0  0  0  0  0  0  0  0
    5.4038   -2.2512    1.4490 H   0  0  0  0  0  0  0  0  0  0  0  0
    3.6276   -0.5156    1.7365 H   0  0  0  0  0  0  0  0  0  0  0  0
    0.4529    1.8385    1.8398 H   0  0  0  0  0  0  0  0  0  0  0  0
    1.2144    4.2090    2.0167 H   0  0  0  0  0  0  0  0  0  0  0  0
    3.1173    5.0326    0.5973 H   0  0  0  0  0  0  0  0  0  0  0  0
    4.2586    3.4460   -0.9802 H   0  0  0  0  0  0  0  0  0  0  0  0
    3.4886    1.0782   -1.1521 H   0  0  0  0  0  0  0  0  0  0  0  0
  1  2  1  0  0  0  0
  1  5  1  0  0  0  0
  3  2  1  0  0  0  0
  3  4  1  0  0  0  0
  4 25  1  0  0  0  0
  4 24  1  0  0  0  0
  5  6  1  0  0  0  0
  6 27  1  0  0  0  0
  6 28  1  0  0  0  0
  7  8  1  0  0  0  0
  7  5  1  0  0  0  0
  8 15  1  0  0  0  0
  9  8  1  0  0  0  0
  9 14  1  0  0  0  0
 10  9  2  0  0  0  0
 11 10  1  0  0  0  0
 11 12  2  0  0  0  0
 12 13  1  0  0  0  0
 13 14  2  0  0  0  0
 13 32  1  0  0  0  0
 14 33  1  0  0  0  0
 15 16  1  0  0  0  0
 16 17  2  0  0  0  0
 16 34  1  0  0  0  0
 17 35  1  0  0  0  0
 18 36  1  0  0  0  0
 18 17  1  0  0  0  0
 19 18  2  0  0  0  0
 20 19  1  0  0  0  0
 20 15  2  0  0  0  0
 21  3  1  0  0  0  0
 22  3  1  0  0  0  0
 23  4  1  0  0  0  0
 26  6  1  0  0  0  0
 29 10  1  0  0  0  0
 30 11  1  0  0  0  0
 31 12  1  0  0  0  0
 37 19  1  0  0  0  0
 38 20  1  0  0  0  0
M  END
