1,18
q = 0.0, confidence = 0.996

 28 29  0  0  0  0  0  0  0  0999 V2000
   -1.4894    1.4100   -0.2908 C   0  0  0  0  0  2  0  0  0  0  0  0
   -1.5290    2.5745    0.4118 N   0  0  0  0  0  0  0  0  0  0  0  0
   -2.6554    3.3078    0.0745 C   0  0  0  0  0  0  0  0  0  0  0  0
   -2.8773    4.2816    0.5209 H   0  0  0  0  0  0  0  0  0  0  0  0
   -3.3345    2.5656   -0.8574 C   0  0  0  0  0  0  0  0  0  0  0  0
   -4.2684    2.7655   -1.3909 H   0  0  0  0  0  0  0  0  0  0  0  0
   -2.6057    1.4034   -1.0689 N   0  0  0  0  0  0  0  0  0  0  0  0
   -3.0352    0.3366   -1.9718 C   0  0  0  0  0  0  0  0  0  0  0  0
   -2.1368   -0.0508   -2.5106 H   0  0  0  0  0  0  0  0  0  0  0  0
   -3.7465    0.7641   -2.7004 H   0  0  0  0  0  0  0  0  0  0  0  0
   -3.5418   -0.4667   -1.4011 H   0  0  0  0  0  0  0  0  0  0  0  0
   -0.5289    2.9532    1.4041 C   0  0  0  0  0  0  0  0  0  0  0  0
   -0.2957    2.0550    2.0441 H   0  0  0  0  0  0  0  0  0  0  0  0
   -0.9878    3.7062    2.0720 H   0  0  0  0  0  0  0  0  0  0  0  0
    0.7115    3.5798    0.8037 C   0  0  0  0  0  0  0  0  0  0  0  0
    0.4444    4.4693    0.1950 H   0  0  0  0  0  0  0  0  0  0  0  0
    1.3405    3.9314    1.6469 H   0  0  0  0  0  0  0  0  0  0  0  0
    1.4647    1.4260   -0.4398 C   0  0  0  0  0  2  0  0  0  0  0  0
    1.5686    2.7346   -0.0499 N   0  0  0  0  0  0  0  0  0  0  0  0
    2.7107    3.3121   -0.5898 C   0  0  0  0  0  0  0  0  0  0  0  0
    2.9721    4.3589   -0.4098 H   0  0  0  0  0  0  0  0  0  0  0  0
    3.3323    2.3450   -1.3267 C   0  0  0  0  0  0  0  0  0  0  0  0
    4.2480    2.3769   -1.9240 H   0  0  0  0  0  0  0  0  0  0  0  0
    2.5619    1.1999   -1.2260 N   0  0  0  0  0  0  0  0  0  0  0  0
    2.9324   -0.0406   -1.9070 C   0  0  0  0  0  0  0  0  0  0  0  0
    3.4425   -0.7323   -1.2096 H   0  0  0  0  0  0  0  0  0  0  0  0
    3.6271    0.2177   -2.7255 H   0  0  0  0  0  0  0  0  0  0  0  0
    2.0108   -0.4791   -2.3555 H   0  0  0  0  0  0  0  0  0  0  0  0
  1  2  1  0  0  0  0
  2 12  1  0  0  0  0
  3  2  1  0  0  0  0
  3  4  1  0  0  0  0
  5  3  2  0  0  0  0
  6  5  1  0  0  0  0
  7  5  1  0  0  0  0
  7  1  1  0  0  0  0
  8 11  1  0  0  0  0
  8  7  1  0  0  0  0
  9  8  1  0  0  0  0
 10  8  1  0  0  0  0
 12 13  1  0  0  0  0
 12 14  1  0  0  0  0
 15 12  1  0  0  0  0
 15 17  1  0  0  0  0
 16 15  1  0  0  0  0
 18 19  1  0  0  0  0
 19 15  1  0  0  0  0
 20 21  1  0  0  0  0
 20 19  1  0  0  0  0
 22 24  1  0  0  0  0
 22 20  2  0  0  0  0
 23 22  1  0  0  0  0
 24 18  1  0  0  0  0
 25 24  1  0  0  0  0
 25 26  1  0  0  0  0
 27 25  1  0  0  0  0
 28 25  1  0  0  0  0
M  END
