9,15
q = 0.0, confidence = 0.988

 40 41  0  0  1  0  0  0  0  0999 V2000
    4.1010    0.5656    0.2133 Si  0  0  0  0  0  0  0  0  0  0  0  0
   -3.2585    1.5913   -0.5874 O   0  0  0  0  0  0  0  0  0  0  0  0
   -4.0524    2.6966   -0.1049 C   0  0  0  0  0  0  0  0  0  0  0  0
   -5.0675    2.5072   -0.5050 H   0  0  0  0  0  0  0  0  0  0  0  0
   -3.6570    3.6389   -0.5343 H   0  0  0  0  0  0  0  0  0  0  0  0
    1.2692    0.9557   -0.5334 N   0  0  0  0  0  0  0  0  0  0  0  0
   -1.4303    2.9234   -0.6541 O   0  0  0  0  0  0  0  0  0  0  0  0
   -1.2354    0.5489   -1.1503 C   0  0  2  0  0  3  0  0  0  0  0  0
   -0.2183   -2.0951   -1.8149 C   0  0  0  0  0  3  0  0  0  0  0  0
    0.1659   -3.1070   -2.0039 H   0  0  0  0  0  0  0  0  0  0  0  0
    0.6663   -1.0783   -1.3562 C   0  0  0  0  0  0  0  0  0  0  0  0
   -1.9328    1.8136   -0.7667 C   0  0  0  0  0  0  0  0  0  0  0  0
   -1.5734   -1.7703   -2.0763 C   0  0  0  0  0  3  0  0  0  0  0  0
   -2.2699   -2.5316   -2.4511 H   0  0  0  0  0  0  0  0  0  0  0  0
   -2.0623   -0.4939   -1.7067 C   0  0  0  0  0  3  0  0  0  0  0  0
   -3.1311   -0.2758   -1.8141 H   0  0  0  0  0  0  0  0  0  0  0  0
    2.4064    0.1300   -0.5276 C   0  0  0  0  0  0  0  0  0  0  0  0
    5.1453   -1.0003    0.0511 C   0  0  0  0  0  0  0  0  0  0  0  0
    6.1613   -0.8210    0.4588 H   0  0  0  0  0  0  0  0  0  0  0  0
    5.2568   -1.3092   -1.0080 H   0  0  0  0  0  0  0  0  0  0  0  0
    4.6979   -1.8433    0.6152 H   0  0  0  0  0  0  0  0  0  0  0  0
   -4.0456    2.7278    1.4147 C   0  0  0  0  0  0  0  0  0  0  0  0
   -4.7322    3.5160    1.7836 H   0  0  0  0  0  0  0  0  0  0  0  0
   -3.0298    2.9506    1.7966 H   0  0  0  0  0  0  0  0  0  0  0  0
   -4.3724    1.7523    1.8260 H   0  0  0  0  0  0  0  0  0  0  0  0
    0.1785    0.2527   -1.0194 C   0  0  0  0  0  0  0  0  0  0  0  0
    2.0615   -1.1099   -1.0323 C   0  0  0  0  0  0  0  0  0  0  0  0
    2.7269   -1.9702   -1.1567 H   0  0  0  0  0  0  0  0  0  0  0  0
    1.2669    2.2505    0.1328 C   0  0  0  0  0  0  0  0  0  0  0  0
    0.4994    2.9028   -0.3128 H   0  0  0  0  0  0  0  0  0  0  0  0
    2.2642    2.7107    0.0149 H   0  0  0  0  0  0  0  0  0  0  0  0
    1.0496    2.1304    1.2147 H   0  0  0  0  0  0  0  0  0  0  0  0
    3.8958    1.0167    2.0395 C   0  0  0  0  0  0  0  0  0  0  0  0
    4.8782    0.9799    2.5543 H   0  0  0  0  0  0  0  0  0  0  0  0
    3.2113    0.3034    2.5419 H   0  0  0  0  0  0  0  0  0  0  0  0
    3.4813    2.0347    2.1769 H   0  0  0  0  0  0  0  0  0  0  0  0
    4.9315    1.9721   -0.7456 C   0  0  0  0  0  0  0  0  0  0  0  0
    4.3726    2.9272   -0.6799 H   0  0  0  0  0  0  0  0  0  0  0  0
    5.0323    1.7104   -1.8185 H   0  0  0  0  0  0  0  0  0  0  0  0
    5.9490    2.1538   -0.3410 H   0  0  0  0  0  0  0  0  0  0  0  0
  1 33  1  0  0  0  0
  2  3  1  0  0  0  0
  3 22  1  0  0  0  0
  4  3  1  0  0  0  0
  5  3  1  0  0  0  0
  6 17  1  0  0  0  0
  6 29  1  0  0  0  0
  8 26  1  0  0  0  0
  8 12  1  1  0  0  0
  9 11  1  0  0  0  0
 10  9  1  0  0  0  0
 11 27  1  0  0  0  0
 11 26  2  0  0  0  0
 12  7  2  0  0  0  0
 12  2  1  0  0  0  0
 13  9  1  0  0  0  0
 13 15  1  0  0  0  0
 14 13  1  0  0  0  0
 15  8  1  0  0  0  0
 16 15  1  0  0  0  0
 17  1  1  0  0  0  0
 18  1  1  0  0  0  0
 18 19  1  0  0  0  0
 18 21  1  0  0  0  0
 20 18  1  0  0  0  0
 22 23  1  0  0  0  0
 22 24  1  0  0  0  0
 22 25  1  0  0  0  0
 26  6  1  0  0  0  0
 27 17  2  0  0  0  0
 28 27  1  0  0  0  0
 29 32  1  0  0  0  0
 30 29  1  0  0  0  0
 31 29  1  0  0  0  0
 33 36  1  0  0  0  0
 33 35  1  0  0  0  0
 33 34  1  0  0  0  0
 37 38  1  0  0  0  0
 37 40  1  0  0  0  0
 37  1  1  0  0  0  0
 39 37  1  0  0  0  0
M  END
