2,7
q = -1.0

 34 34  0  0  1  0  0  0  0  0999 V2000
    1.1830    1.2521   -0.3285 C   0  0  1  0  0  3  0  0  0  0  0  0
   -0.0000    1.4965    0.4565 C   0  0  0  0  0  3  0  0  0  0  0  0
    0.0000    1.8444    1.4965 H   0  0  0  0  0  0  0  0  0  0  0  0
   -1.1830    1.2521   -0.3286 C   0  0  0  0  0  0  0  0  0  0  0  0
   -0.7151    0.8182   -1.6264 C   0  0  0  0  0  0  0  0  0  0  0  0
   -1.3484    0.5388   -2.4758 H   0  0  0  0  0  0  0  0  0  0  0  0
    0.7151    0.8181   -1.6263 C   0  0  0  0  0  3  0  0  0  0  0  0
    1.3484    0.5390   -2.4759 H   0  0  0  0  0  0  0  0  0  0  0  0
    2.6174    1.5644    0.0803 C   0  0  0  0  0  0  0  0  0  0  0  0
    2.8760    1.1373    1.5373 C   0  0  0  0  0  0  0  0  0  0  0  0
    2.1841    1.6368    2.2448 H   0  0  0  0  0  0  0  0  0  0  0  0
    3.9087    1.4061    1.8383 H   0  0  0  0  0  0  0  0  0  0  0  0
    2.7492    0.0426    1.6538 H   0  0  0  0  0  0  0  0  0  0  0  0
    2.8077    3.0949   -0.0513 C   0  0  0  0  0  0  0  0  0  0  0  0
    2.6156    3.4326   -1.0898 H   0  0  0  0  0  0  0  0  0  0  0  0
    3.8451    3.3815    0.2176 H   0  0  0  0  0  0  0  0  0  0  0  0
    2.1150    3.6437    0.6182 H   0  0  0  0  0  0  0  0  0  0  0  0
    3.6186    0.8477   -0.8427 C   0  0  0  0  0  0  0  0  0  0  0  0
    3.4888   -0.2518   -0.8063 H   0  0  0  0  0  0  0  0  0  0  0  0
    4.6559    1.0790   -0.5278 H   0  0  0  0  0  0  0  0  0  0  0  0
    3.5145    1.1759   -1.8965 H   0  0  0  0  0  0  0  0  0  0  0  0
   -2.6174    1.5645    0.0803 C   0  0  0  0  0  0  0  0  0  0  0  0
   -3.6185    0.8475   -0.8426 C   0  0  0  0  0  0  0  0  0  0  0  0
   -3.5145    1.1754   -1.8965 H   0  0  0  0  0  0  0  0  0  0  0  0
   -4.6558    1.0787   -0.5277 H   0  0  0  0  0  0  0  0  0  0  0  0
   -3.4887   -0.2520   -0.8060 H   0  0  0  0  0  0  0  0  0  0  0  0
   -2.8078    3.0950   -0.0519 C   0  0  0  0  0  0  0  0  0  0  0  0
   -2.1151    3.6440    0.6176 H   0  0  0  0  0  0  0  0  0  0  0  0
   -3.8453    3.3815    0.2170 H   0  0  0  0  0  0  0  0  0  0  0  0
   -2.6157    3.4323   -1.0904 H   0  0  0  0  0  0  0  0  0  0  0  0
   -2.8760    1.1377    1.5374 C   0  0  0  0  0  0  0  0  0  0  0  0
   -2.7492    0.0430    1.6541 H   0  0  0  0  0  0  0  0  0  0  0  0
   -3.9086    1.4066    1.8383 H   0  0  0  0  0  0  0  0  0  0  0  0
   -2.1840    1.6375    2.2447 H   0  0  0  0  0  0  0  0  0  0  0  0
  1  9  1  6  0  0  0
  1  2  1  0  0  0  0
  2  3  1  0  0  0  0
  4 22  1  0  0  0  0
  4  2  1  0  0  0  0
  5  7  1  0  0  0  0
  5  4  2  0  0  0  0
  6  5  1  0  0  0  0
  7  1  1  0  0  0  0
  8  7  1  0  0  0  0
  9 10  1  0  0  0  0
 10 13  1  0  0  0  0
 10 12  1  0  0  0  0
 10 11  1  0  0  0  0
 14  9  1  0  0  0  0
 14 16  1  0  0  0  0
 14 17  1  0  0  0  0
 15 14  1  0  0  0  0
 18 19  1  0  0  0  0
 18 20  1  0  0  0  0
 18  9  1  0  0  0  0
 21 18  1  0  0  0  0
 22 31  1  0  0  0  0
 23 26  1  0  0  0  0
 23 25  1  0  0  0  0
 23 22  1  0  0  0  0
 24 23  1  0  0  0  0
 27 22  1  0  0  0  0
 27 29  1  0  0  0  0
 27 28  1  0  0  0  0
 30 27  1  0  0  0  0
 31 32  1  0  0  0  0
 31 33  1  0  0  0  0
 31 34  1  0  0  0  0
M  END
