2,5
q = -1.0

 50 54  0  0  1  0  0  0  0  0999 V2000
    1.1626   -0.6018   -1.0432 C   0  0  1  0  0  3  0  0  0  0  0  0
    0.7097    0.6995   -0.6040 C   0  0  2  0  0  3  0  0  0  0  0  0
   -0.7525    0.6922   -0.5944 C   0  0  0  0  0  0  0  0  0  0  0  0
   -1.1861   -0.6278   -1.0008 C   0  0  0  0  0  0  0  0  0  0  0  0
   -0.0111   -1.4174   -1.2589 C   0  0  0  0  0  3  0  0  0  0  0  0
   -0.0067   -2.4502   -1.6241 H   0  0  0  0  0  0  0  0  0  0  0  0
    2.5471   -1.0263   -1.3589 C   0  0  0  0  0  0  0  0  0  0  0  0
    2.9518   -2.3655   -1.1623 C   0  0  0  0  0  0  0  0  0  0  0  0
    2.2533   -3.0831   -0.7078 H   0  0  0  0  0  0  0  0  0  0  0  0
    4.2417   -2.7826   -1.5132 C   0  0  0  0  0  0  0  0  0  0  0  0
    4.5409   -3.8273   -1.3401 H   0  0  0  0  0  0  0  0  0  0  0  0
    5.1518   -1.8706   -2.0718 C   0  0  0  0  0  0  0  0  0  0  0  0
    6.1672   -2.1971   -2.3425 H   0  0  0  0  0  0  0  0  0  0  0  0
    4.7562   -0.5413   -2.2844 C   0  0  0  0  0  0  0  0  0  0  0  0
    5.4575    0.1792   -2.7320 H   0  0  0  0  0  0  0  0  0  0  0  0
    3.4656   -0.1206   -1.9342 C   0  0  0  0  0  0  0  0  0  0  0  0
    3.1621    0.9185   -2.1202 H   0  0  0  0  0  0  0  0  0  0  0  0
    1.5574    1.8908   -0.3479 C   0  0  0  0  0  0  0  0  0  0  0  0
    2.6063    1.8627    0.5954 C   0  0  0  0  0  0  0  0  0  0  0  0
    2.7744    0.9455    1.1795 H   0  0  0  0  0  0  0  0  0  0  0  0
    3.4184    2.9871    0.7897 C   0  0  0  0  0  0  0  0  0  0  0  0
    4.2302    2.9499    1.5316 H   0  0  0  0  0  0  0  0  0  0  0  0
    3.1912    4.1595    0.0502 C   0  0  0  0  0  0  0  0  0  0  0  0
    3.8255    5.0447    0.2088 H   0  0  0  0  0  0  0  0  0  0  0  0
    2.1472    4.1989   -0.8869 C   0  0  0  0  0  0  0  0  0  0  0  0
    1.9603    5.1145   -1.4683 H   0  0  0  0  0  0  0  0  0  0  0  0
    1.3352    3.0730   -1.0864 C   0  0  0  0  0  0  0  0  0  0  0  0
    0.5194    3.1052   -1.8233 H   0  0  0  0  0  0  0  0  0  0  0  0
   -1.6115    1.8876   -0.4123 C   0  0  0  0  0  0  0  0  0  0  0  0
   -1.4722    2.7519    0.6945 C   0  0  0  0  0  0  0  0  0  0  0  0
   -0.7437    2.5145    1.4814 H   0  0  0  0  0  0  0  0  0  0  0  0
   -2.2624    3.9040    0.8014 C   0  0  0  0  0  0  0  0  0  0  0  0
   -2.1432    4.5635    1.6742 H   0  0  0  0  0  0  0  0  0  0  0  0
   -3.2046    4.2128   -0.1930 C   0  0  0  0  0  0  0  0  0  0  0  0
   -3.8270    5.1162   -0.1045 H   0  0  0  0  0  0  0  0  0  0  0  0
   -3.3484    3.3620   -1.2999 C   0  0  0  0  0  0  0  0  0  0  0  0
   -4.0817    3.5964   -2.0865 H   0  0  0  0  0  0  0  0  0  0  0  0
   -2.5568    2.2104   -1.4112 C   0  0  0  0  0  0  0  0  0  0  0  0
   -2.6666    1.5497   -2.2837 H   0  0  0  0  0  0  0  0  0  0  0  0
   -2.5806   -1.0867   -1.2020 C   0  0  0  0  0  0  0  0  0  0  0  0
   -3.6275   -0.6888   -0.3414 C   0  0  0  0  0  0  0  0  0  0  0  0
   -3.4031   -0.0451    0.5211 H   0  0  0  0  0  0  0  0  0  0  0  0
   -4.9381   -1.1235   -0.5695 C   0  0  0  0  0  0  0  0  0  0  0  0
   -5.7402   -0.8111    0.1158 H   0  0  0  0  0  0  0  0  0  0  0  0
   -5.2281   -1.9630   -1.6582 C   0  0  0  0  0  0  0  0  0  0  0  0
   -6.2591   -2.3058   -1.8329 H   0  0  0  0  0  0  0  0  0  0  0  0
   -4.1956   -2.3659   -2.5181 C   0  0  0  0  0  0  0  0  0  0  0  0
   -4.4130   -3.0223   -3.3743 H   0  0  0  0  0  0  0  0  0  0  0  0
   -2.8815   -1.9305   -2.2925 C   0  0  0  0  0  0  0  0  0  0  0  0
   -2.0779   -2.2337   -2.9803 H   0  0  0  0  0  0  0  0  0  0  0  0
  1  7  1  6  0  0  0
  1  2  1  0  0  0  0
  2  3  1  0  0  0  0
  2 18  1  6  0  0  0
  3 29  1  0  0  0  0
  4  3  2  0  0  0  0
  5  1  1  0  0  0  0
  5  4  1  0  0  0  0
  6  5  1  0  0  0  0
  7  8  1  0  0  0  0
  8  9  1  0  0  0  0
 10 11  1  0  0  0  0
 10  8  2  0  0  0  0
 12 10  1  0  0  0  0
 13 12  1  0  0  0  0
 14 12  2  0  0  0  0
 14 16  1  0  0  0  0
 15 14  1  0  0  0  0
 16  7  2  0  0  0  0
 17 16  1  0  0  0  0
 18 19  1  0  0  0  0
 19 21  2  0  0  0  0
 19 20  1  0  0  0  0
 21 22  1  0  0  0  0
 23 24  1  0  0  0  0
 23 21  1  0  0  0  0
 25 23  2  0  0  0  0
 26 25  1  0  0  0  0
 27 25  1  0  0  0  0
 27 18  2  0  0  0  0
 28 27  1  0  0  0  0
 29 30  1  0  0  0  0
 30 32  2  0  0  0  0
 30 31  1  0  0  0  0
 32 33  1  0  0  0  0
 34 35  1  0  0  0  0
 34 32  1  0  0  0  0
 36 34  2  0  0  0  0
 37 36  1  0  0  0  0
 38 36  1  0  0  0  0
 38 29  2  0  0  0  0
 39 38  1  0  0  0  0
 40  4  1  0  0  0  0
 40 41  1  0  0  0  0
 41 42  1  0  0  0  0
 43 41  2  0  0  0  0
 43 44  1  0  0  0  0
 45 43  1  0  0  0  0
 46 45  1  0  0  0  0
 47 49  1  0  0  0  0
 47 45  2  0  0  0  0
 48 47  1  0  0  0  0
 49 40  2  0  0  0  0
 50 49  1  0  0  0  0
M  END
