5,12
q = 0.0, confidence = 1.0

 37 37  0  0  1  0  0  0  0  0999 V2000
   -4.0388   -0.8755    0.1398 Si  0  0  0  0  0  0  0  0  0  0  0  0
   -0.7437    2.7472   -1.0813 O   0  0  0  0  0  0  0  0  0  0  0  0
    0.8240    3.0453    0.5593 O   0  0  0  0  0  0  0  0  0  0  0  0
    0.1673   -0.1780   -1.2849 C   0  0  1  0  0  3  0  0  0  0  0  0
    0.8196    1.0381   -0.8351 C   0  0  1  0  0  3  0  0  0  0  0  0
    2.1911    1.2379   -1.1062 C   0  0  0  0  0  0  0  0  0  0  0  0
    2.6584    2.1578   -0.7289 H   0  0  0  0  0  0  0  0  0  0  0  0
    2.9564    0.2447   -1.7902 C   0  0  0  0  0  0  0  0  0  0  0  0
    4.0345    0.3899   -1.9428 H   0  0  0  0  0  0  0  0  0  0  0  0
    2.3321   -0.9500   -2.2173 C   0  0  0  0  0  3  0  0  0  0  0  0
    2.9236   -1.7394   -2.7011 H   0  0  0  0  0  0  0  0  0  0  0  0
    0.9438   -1.1651   -1.9650 C   0  0  0  0  0  3  0  0  0  0  0  0
    0.4642   -2.1086   -2.2563 H   0  0  0  0  0  0  0  0  0  0  0  0
   -1.2021   -0.4126   -0.9653 C   0  0  0  0  0  0  0  0  0  0  0  0
   -2.3727   -0.5895   -0.6164 C   0  0  0  0  0  0  0  0  0  0  0  0
   -5.1781   -1.6728   -1.1371 C   0  0  0  0  0  0  0  0  0  0  0  0
   -5.3087   -1.0158   -2.0205 H   0  0  0  0  0  0  0  0  0  0  0  0
   -6.1791   -1.8630   -0.6977 H   0  0  0  0  0  0  0  0  0  0  0  0
   -4.7666   -2.6411   -1.4865 H   0  0  0  0  0  0  0  0  0  0  0  0
   -4.7155    0.8035    0.6858 C   0  0  0  0  0  0  0  0  0  0  0  0
   -4.8162    1.4921   -0.1772 H   0  0  0  0  0  0  0  0  0  0  0  0
   -4.0415    1.2756    1.4291 H   0  0  0  0  0  0  0  0  0  0  0  0
   -5.7150    0.6881    1.1539 H   0  0  0  0  0  0  0  0  0  0  0  0
   -3.7650   -2.0055    1.6280 C   0  0  0  0  0  0  0  0  0  0  0  0
   -4.7008   -2.1323    2.2104 H   0  0  0  0  0  0  0  0  0  0  0  0
   -2.9867   -1.5811    2.2941 H   0  0  0  0  0  0  0  0  0  0  0  0
   -3.4200   -3.0075    1.3024 H   0  0  0  0  0  0  0  0  0  0  0  0
    0.0110    2.1008   -0.1043 C   0  0  0  0  0  0  0  0  0  0  0  0
   -0.6564    1.6005    0.6471 H   0  0  0  0  0  0  0  0  0  0  0  0
   -1.7802    3.5560   -0.5482 C   0  0  0  0  0  0  0  0  0  0  0  0
   -2.3029    4.0220   -1.4045 H   0  0  0  0  0  0  0  0  0  0  0  0
   -1.3763    4.3540    0.1118 H   0  0  0  0  0  0  0  0  0  0  0  0
   -2.5101    2.9431    0.0312 H   0  0  0  0  0  0  0  0  0  0  0  0
    1.1568    2.7250    1.9009 C   0  0  0  0  0  0  0  0  0  0  0  0
    1.5637    3.6444    2.3641 H   0  0  0  0  0  0  0  0  0  0  0  0
    1.9219    1.9203    1.9652 H   0  0  0  0  0  0  0  0  0  0  0  0
    0.2620    2.3940    2.4771 H   0  0  0  0  0  0  0  0  0  0  0  0
  1 20  1  0  0  0  0
  1 24  1  0  0  0  0
  2 30  1  0  0  0  0
  2 28  1  0  0  0  0
  3 34  1  0  0  0  0
  4 14  1  1  0  0  0
  4  5  1  0  0  0  0
  5 28  1  6  0  0  0
  6  5  1  0  0  0  0
  6  7  1  0  0  0  0
  8  6  2  0  0  0  0
  9  8  1  0  0  0  0
 10 12  1  0  0  0  0
 10  8  1  0  0  0  0
 11 10  1  0  0  0  0
 12  4  1  0  0  0  0
 13 12  1  0  0  0  0
 14 15  3  0  0  0  0
 15  1  1  0  0  0  0
 16 18  1  0  0  0  0
 16  1  1  0  0  0  0
 17 16  1  0  0  0  0
 19 16  1  0  0  0  0
 20 23  1  0  0  0  0
 20 22  1  0  0  0  0
 21 20  1  0  0  0  0
 24 25  1  0  0  0  0
 24 26  1  0  0  0  0
 27 24  1  0  0  0  0
 28  3  1  0  0  0  0
 28 29  1  0  0  0  0
 30 33  1  0  0  0  0
 30 32  1  0  0  0  0
 31 30  1  0  0  0  0
 34 36  1  0  0  0  0
 34 35  1  0  0  0  0
 34 37  1  0  0  0  0
M  END
