4,14
q = 0.0, confidence = 0.944

 24 25  0  0  0  0  0  0  0  0999 V2000
    0.6739    2.8685   -0.7314 N   0  0  0  0  0  0  0  0  0  0  0  0
   -1.3372    2.0525   -0.9188 N   0  0  0  0  0  0  0  0  0  0  0  0
   -3.8927   -1.0706   -0.0726 N   0  0  0  0  0  0  0  0  0  0  0  0
   -0.0106    1.6932   -0.6655 C   0  0  0  0  0  2  0  0  0  0  0  0
    2.0761    3.0352   -0.3802 C   0  0  0  0  0  0  0  0  0  0  0  0
    2.4130    2.1091    0.1178 H   0  0  0  0  0  0  0  0  0  0  0  0
    2.1801    3.8774    0.3294 H   0  0  0  0  0  0  0  0  0  0  0  0
    2.6924    3.2316   -1.2788 H   0  0  0  0  0  0  0  0  0  0  0  0
   -0.1890    3.9261   -1.0387 C   0  0  0  0  0  0  0  0  0  0  0  0
    0.1738    4.9534   -1.1440 H   0  0  0  0  0  0  0  0  0  0  0  0
   -1.4536    3.4216   -1.1538 C   0  0  0  0  0  0  0  0  0  0  0  0
   -2.4020    3.9195   -1.3722 H   0  0  0  0  0  0  0  0  0  0  0  0
   -2.2649    1.0427   -0.7108 C   0  0  0  0  0  0  0  0  0  0  0  0
   -1.6441   -0.1894   -0.3132 C   0  0  0  0  0  3  0  0  0  0  0  0
   -2.5333   -1.2106    0.0251 C   0  0  0  0  0  3  0  0  0  0  0  0
   -2.1929   -2.1781    0.4171 H   0  0  0  0  0  0  0  0  0  0  0  0
   -4.7473   -2.1982    0.3340 C   0  0  0  0  0  0  0  0  0  0  0  0
   -4.4388   -3.1139   -0.2040 H   0  0  0  0  0  0  0  0  0  0  0  0
   -5.7996   -1.9724    0.0905 H   0  0  0  0  0  0  0  0  0  0  0  0
   -4.6520   -2.3638    1.4245 H   0  0  0  0  0  0  0  0  0  0  0  0
   -4.4540    0.0953   -0.4930 C   0  0  0  0  0  0  0  0  0  0  0  0
   -5.5496    0.1269   -0.5460 H   0  0  0  0  0  0  0  0  0  0  0  0
   -3.6542    1.1880   -0.8139 C   0  0  0  0  0  0  0  0  0  0  0  0
   -4.1314    2.1276   -1.1232 H   0  0  0  0  0  0  0  0  0  0  0  0
  1  4  1  0  0  0  0
  1  5  1  0  0  0  0
  2 13  1  0  0  0  0
  2  4  1  0  0  0  0
  3 15  1  0  0  0  0
  3 17  1  0  0  0  0
  5  6  1  0  0  0  0
  5  7  1  0  0  0  0
  8  5  1  0  0  0  0
  9  1  1  0  0  0  0
 10  9  1  0  0  0  0
 11  9  2  0  0  0  0
 11  2  1  0  0  0  0
 12 11  1  0  0  0  0
 13 14  2  0  0  0  0
 14 15  1  0  0  0  0
 15 16  1  0  0  0  0
 17 20  1  0  0  0  0
 18 17  1  0  0  0  0
 19 17  1  0  0  0  0
 21  3  1  0  0  0  0
 22 21  1  0  0  0  0
 23 13  1  0  0  0  0
 23 21  2  0  0  0  0
 24 23  1  0  0  0  0
M  END
