2,5
q = 0.0, confidence = 0.984

 22 24  0  0  1  0  0  0  0  0999 V2000
   -0.9950   -1.2759    0.6905 C   0  0  0  0  0  3  0  0  0  0  0  0
   -0.8221   -1.3406   -0.7034 C   0  0  0  0  0  3  0  0  0  0  0  0
   -2.0439   -0.6397   -1.3088 C   0  0  2  0  0  0  0  0  0  0  0  0
   -1.9510    0.8708   -0.9103 C   0  0  2  0  0  0  0  0  0  0  0  0
   -0.5501    1.4583   -0.9120 C   0  0  0  0  0  3  0  0  0  0  0  0
   -0.2004    1.9173    0.3669 C   0  0  0  0  0  3  0  0  0  0  0  0
   -1.3306    1.7546    1.3475 C   0  0  0  0  0  0  0  0  0  0  0  0
   -2.3566    0.8755    0.6107 C   0  0  2  0  0  0  0  0  0  0  0  0
   -2.3679   -0.6426    0.9354 C   0  0  1  0  0  0  0  0  0  0  0  0
   -3.1246   -1.1606   -0.3227 C   0  0  0  0  0  0  0  0  0  0  0  0
   -0.4623   -1.9025    1.4197 H   0  0  0  0  0  0  0  0  0  0  0  0
   -0.1969   -2.0698   -1.2404 H   0  0  0  0  0  0  0  0  0  0  0  0
   -2.2000   -0.8263   -2.3863 H   0  0  0  0  0  0  0  0  0  0  0  0
   -2.6287    1.4876   -1.5371 H   0  0  0  0  0  0  0  0  0  0  0  0
   -0.0201    1.7496   -1.8320 H   0  0  0  0  0  0  0  0  0  0  0  0
    0.6701    2.5607    0.5604 H   0  0  0  0  0  0  0  0  0  0  0  0
   -1.7491    2.7624    1.5663 H   0  0  0  0  0  0  0  0  0  0  0  0
   -1.0048    1.3372    2.3231 H   0  0  0  0  0  0  0  0  0  0  0  0
   -3.3859    1.2574    0.7525 H   0  0  0  0  0  0  0  0  0  0  0  0
   -2.8039   -0.8831    1.9227 H   0  0  0  0  0  0  0  0  0  0  0  0
   -3.2270   -2.2639   -0.3477 H   0  0  0  0  0  0  0  0  0  0  0  0
   -4.1243   -0.6984   -0.4601 H   0  0  0  0  0  0  0  0  0  0  0  0
  1  9  1  0  0  0  0
  1 11  1  0  0  0  0
  2  1  1  0  0  0  0
  3 13  1  6  0  0  0
  3  4  1  0  0  0  0
  3  2  1  0  0  0  0
  3 10  1  0  0  0  0
  4 14  1  6  0  0  0
  4  8  1  0  0  0  0
  5  4  1  0  0  0  0
  5  6  1  0  0  0  0
  6 16  1  0  0  0  0
  6  7  1  0  0  0  0
  7 17  1  0  0  0  0
  7 18  1  0  0  0  0
  8 19  1  1  0  0  0
  8  9  1  0  0  0  0
  8  7  1  0  0  0  0
  9 20  1  1  0  0  0
 10  9  1  0  0  0  0
 12  2  1  0  0  0  0
 15  5  1  0  0  0  0
 21 10  1  0  0  0  0
 22 10  1  0  0  0  0
M  END
