1,3
q = -1.0

 57 58  0  0  1  0  0  0  0  0999 V2000
   -0.3198   -0.6939    0.5340 C   0  0  2  0  0  3  0  0  0  0  0  0
   -1.4574   -1.3794    1.0894 C   0  0  2  0  0  3  0  0  0  0  0  0
   -2.3339   -0.3998    1.6585 C   0  0  2  0  0  3  0  0  0  0  0  0
   -1.7130    0.8859    1.5054 C   0  0  0  0  0  0  0  0  0  0  0  0
   -0.4590    0.7076    0.8341 C   0  0  0  0  0  0  0  0  0  0  0  0
    0.4915    1.8521    0.5937 C   0  0  0  0  0  0  0  0  0  0  0  0
    0.5172    2.4481    1.5315 H   0  0  0  0  0  0  0  0  0  0  0  0
    0.0638    2.5196   -0.1818 H   0  0  0  0  0  0  0  0  0  0  0  0
    1.9371    1.4720    0.2082 C   0  0  2  0  0  0  0  0  0  0  0  0
    1.8926    0.8668   -0.7158 H   0  0  0  0  0  0  0  0  0  0  0  0
    2.5441    0.6506    1.3232 C   0  0  0  0  0  0  0  0  0  0  0  0
    2.9960    1.2449    2.1381 H   0  0  0  0  0  0  0  0  0  0  0  0
    2.5428   -0.6881    1.5053 C   0  0  0  0  0  0  0  0  0  0  0  0
    3.0219   -1.0420    2.4344 H   0  0  0  0  0  0  0  0  0  0  0  0
    1.9765   -1.8002    0.6475 C   0  0  1  0  0  0  0  0  0  0  0  0
    1.5810   -2.5534    1.3684 H   0  0  0  0  0  0  0  0  0  0  0  0
    0.7743   -1.3834   -0.2318 C   0  0  0  0  0  0  0  0  0  0  0  0
    1.0937   -0.7515   -1.0791 H   0  0  0  0  0  0  0  0  0  0  0  0
    0.3419   -2.2898   -0.6965 H   0  0  0  0  0  0  0  0  0  0  0  0
   -1.6521   -2.8616    1.1504 C   0  0  0  0  0  0  0  0  0  0  0  0
   -1.2783   -3.2492    2.1225 H   0  0  0  0  0  0  0  0  0  0  0  0
   -1.1044   -3.3836    0.3440 H   0  0  0  0  0  0  0  0  0  0  0  0
   -2.7185   -3.1416    1.0590 H   0  0  0  0  0  0  0  0  0  0  0  0
   -3.6461   -0.6730    2.3255 C   0  0  0  0  0  0  0  0  0  0  0  0
   -3.5107   -0.8078    3.4203 H   0  0  0  0  0  0  0  0  0  0  0  0
   -4.1173   -1.5943    1.9326 H   0  0  0  0  0  0  0  0  0  0  0  0
   -4.3579    0.1598    2.1698 H   0  0  0  0  0  0  0  0  0  0  0  0
   -2.2338    2.1918    2.0199 C   0  0  0  0  0  0  0  0  0  0  0  0
   -2.0203    3.0241    1.3223 H   0  0  0  0  0  0  0  0  0  0  0  0
   -1.7544    2.4390    2.9922 H   0  0  0  0  0  0  0  0  0  0  0  0
   -3.3273    2.1606    2.1778 H   0  0  0  0  0  0  0  0  0  0  0  0
    2.8113    2.7195   -0.1781 C   0  0  0  0  0  0  0  0  0  0  0  0
    2.2186    3.3973   -1.4293 C   0  0  0  0  0  0  0  0  0  0  0  0
    2.8964    4.1974   -1.7910 H   0  0  0  0  0  0  0  0  0  0  0  0
    1.2351    3.8672   -1.2301 H   0  0  0  0  0  0  0  0  0  0  0  0
    2.0786    2.6684   -2.2535 H   0  0  0  0  0  0  0  0  0  0  0  0
    4.2309    2.2311   -0.5246 C   0  0  0  0  0  0  0  0  0  0  0  0
    4.8758    3.0834   -0.8214 H   0  0  0  0  0  0  0  0  0  0  0  0
    4.2078    1.5143   -1.3708 H   0  0  0  0  0  0  0  0  0  0  0  0
    4.7122    1.7215    0.3342 H   0  0  0  0  0  0  0  0  0  0  0  0
    2.8953    3.7544    0.9595 C   0  0  0  0  0  0  0  0  0  0  0  0
    3.5446    4.6009    0.6561 H   0  0  0  0  0  0  0  0  0  0  0  0
    3.3288    3.3270    1.8864 H   0  0  0  0  0  0  0  0  0  0  0  0
    1.9020    4.1786    1.2100 H   0  0  0  0  0  0  0  0  0  0  0  0
    3.0888   -2.5713   -0.1628 C   0  0  0  0  0  0  0  0  0  0  0  0
    2.4779   -3.8128   -0.8404 C   0  0  0  0  0  0  0  0  0  0  0  0
    3.2749   -4.4240   -1.3111 H   0  0  0  0  0  0  0  0  0  0  0  0
    1.7576   -3.5477   -1.6394 H   0  0  0  0  0  0  0  0  0  0  0  0
    1.9528   -4.4567   -0.1037 H   0  0  0  0  0  0  0  0  0  0  0  0
    4.1865   -3.0441    0.8106 C   0  0  0  0  0  0  0  0  0  0  0  0
    4.9329   -3.6663    0.2758 H   0  0  0  0  0  0  0  0  0  0  0  0
    3.7615   -3.6592    1.6315 H   0  0  0  0  0  0  0  0  0  0  0  0
    4.7273   -2.1911    1.2656 H   0  0  0  0  0  0  0  0  0  0  0  0
    3.7267   -1.6626   -1.2271 C   0  0  0  0  0  0  0  0  0  0  0  0
    4.5389   -2.2004   -1.7576 H   0  0  0  0  0  0  0  0  0  0  0  0
    4.1643   -0.7560   -0.7648 H   0  0  0  0  0  0  0  0  0  0  0  0
    2.9929   -1.3397   -1.9933 H   0  0  0  0  0  0  0  0  0  0  0  0
  1  5  1  6  0  0  0
  1  2  1  0  0  0  0
  2 20  1  1  0  0  0
  2  3  1  0  0  0  0
  3 24  1  1  0  0  0
  4  3  1  0  0  0  0
  4 28  1  0  0  0  0
  5  4  2  0  0  0  0
  6  5  1  0  0  0  0
  6  7  1  0  0  0  0
  8  6  1  0  0  0  0
  9 10  1  6  0  0  0
  9  6  1  0  0  0  0
  9 11  1  0  0  0  0
 11 13  2  0  0  0  0
 11 12  1  0  0  0  0
 13 14  1  0  0  0  0
 15 16  1  1  0  0  0
 15 13  1  0  0  0  0
 17  1  1  0  0  0  0
 17 15  1  0  0  0  0
 18 17  1  0  0  0  0
 19 17  1  0  0  0  0
 20 21  1  0  0  0  0
 22 20  1  0  0  0  0
 23 20  1  0  0  0  0
 24 25  1  0  0  0  0
 26 24  1  0  0  0  0
 27 24  1  0  0  0  0
 28 31  1  0  0  0  0
 28 30  1  0  0  0  0
 29 28  1  0  0  0  0
 32  9  1  0  0  0  0
 32 41  1  0  0  0  0
 33 35  1  0  0  0  0
 33 32  1  0  0  0  0
 34 33  1  0  0  0  0
 36 33  1  0  0  0  0
 37 32  1  0  0  0  0
 37 40  1  0  0  0  0
 38 37  1  0  0  0  0
 39 37  1  0  0  0  0
 41 44  1  0  0  0  0
 41 43  1  0  0  0  0
 42 41  1  0  0  0  0
 45 15  1  0  0  0  0
 45 50  1  0  0  0  0
 46 45  1  0  0  0  0
 46 49  1  0  0  0  0
 47 46  1  0  0  0  0
 48 46  1  0  0  0  0
 50 53  1  0  0  0  0
 50 52  1  0  0  0  0
 51 50  1  0  0  0  0
 54 56  1  0  0  0  0
 54 45  1  0  0  0  0
 55 54  1  0  0  0  0
 57 54  1  0  0  0  0
M  END
