2,24
q = -2.0, confidence = 0.86

 44 47  0  0  0  0  0  0  0  0999 V2000
   -3.7515   -1.1094   -0.4714 C   0  0  0  0  0  0  0  0  0  0  0  0
   -2.8321   -1.3436   -1.5416 C   0  0  0  0  0  3  0  0  0  0  0  0
   -2.9330   -0.9707   -2.5690 H   0  0  0  0  0  0  0  0  0  0  0  0
   -1.7728   -2.1667   -1.0528 C   0  0  0  0  0  0  0  0  0  0  0  0
   -0.9141   -2.5262   -1.6307 H   0  0  0  0  0  0  0  0  0  0  0  0
   -2.0121   -2.4311    0.3175 C   0  0  0  0  0  0  0  0  0  0  0  0
   -1.1852   -3.2281    1.2788 C   0  0  0  0  0  0  0  0  0  0  0  0
   -0.2825   -2.6270    1.5257 H   0  0  0  0  0  0  0  0  0  0  0  0
   -0.8243   -4.1567    0.7903 H   0  0  0  0  0  0  0  0  0  0  0  0
   -1.9657   -3.5406    2.5672 C   0  0  0  0  0  0  0  0  0  0  0  0
   -1.2692   -3.9199    3.3424 H   0  0  0  0  0  0  0  0  0  0  0  0
   -2.6986   -4.3566    2.3773 H   0  0  0  0  0  0  0  0  0  0  0  0
   -2.7173   -2.3052    3.0843 C   0  0  0  0  0  0  0  0  0  0  0  0
   -3.1878   -2.5179    4.0659 H   0  0  0  0  0  0  0  0  0  0  0  0
   -1.9895   -1.4795    3.2373 H   0  0  0  0  0  0  0  0  0  0  0  0
   -3.7885   -1.8477    2.0807 C   0  0  0  0  0  0  0  0  0  0  0  0
   -4.2513   -0.8922    2.4066 H   0  0  0  0  0  0  0  0  0  0  0  0
   -4.6206   -2.5891    2.0626 H   0  0  0  0  0  0  0  0  0  0  0  0
   -3.2108   -1.7396    0.6959 C   0  0  0  0  0  0  0  0  0  0  0  0
   -5.0125   -0.2928   -0.5670 C   0  0  0  0  0  0  0  0  0  0  0  0
   -5.7702   -0.8106   -1.1932 H   0  0  0  0  0  0  0  0  0  0  0  0
   -5.4637   -0.1933    0.4408 H   0  0  0  0  0  0  0  0  0  0  0  0
   -3.4542    1.6228   -0.4450 C   0  0  0  0  0  0  0  0  0  0  0  0
   -3.1906    1.4944    0.9605 C   0  0  0  0  0  3  0  0  0  0  0  0
   -3.8693    1.0670    1.7078 H   0  0  0  0  0  0  0  0  0  0  0  0
   -1.9148    2.0685    1.2317 C   0  0  0  0  0  0  0  0  0  0  0  0
   -1.4277    2.1287    2.2109 H   0  0  0  0  0  0  0  0  0  0  0  0
   -1.3675    2.5320    0.0089 C   0  0  0  0  0  0  0  0  0  0  0  0
   -0.0844    3.2769   -0.2270 C   0  0  0  0  0  0  0  0  0  0  0  0
    0.7555    2.7951    0.3124 H   0  0  0  0  0  0  0  0  0  0  0  0
   -0.1988    4.2867    0.2294 H   0  0  0  0  0  0  0  0  0  0  0  0
    0.2396    3.4189   -1.7240 C   0  0  0  0  0  0  0  0  0  0  0  0
    0.6841    2.4711   -2.0881 H   0  0  0  0  0  0  0  0  0  0  0  0
    1.0058    4.2087   -1.8625 H   0  0  0  0  0  0  0  0  0  0  0  0
   -1.0102    3.7361   -2.5576 C   0  0  0  0  0  0  0  0  0  0  0  0
   -1.4661    4.6861   -2.1989 H   0  0  0  0  0  0  0  0  0  0  0  0
   -0.7322    3.9015   -3.6188 H   0  0  0  0  0  0  0  0  0  0  0  0
   -2.0530    2.6065   -2.4676 C   0  0  0  0  0  0  0  0  0  0  0  0
   -1.6599    1.7125   -2.9994 H   0  0  0  0  0  0  0  0  0  0  0  0
   -2.9966    2.8974   -2.9747 H   0  0  0  0  0  0  0  0  0  0  0  0
   -2.3159    2.2487   -1.0314 C   0  0  0  0  0  0  0  0  0  0  0  0
   -4.6814    1.0976   -1.1389 C   0  0  0  0  0  0  0  0  0  0  0  0
   -5.5407    1.7926   -1.0163 H   0  0  0  0  0  0  0  0  0  0  0  0
   -4.4911    1.0291   -2.2293 H   0  0  0  0  0  0  0  0  0  0  0  0
  1 19  2  0  0  0  0
  2  4  1  0  0  0  0
  2  1  1  0  0  0  0
  3  2  1  0  0  0  0
  4  6  2  0  0  0  0
  5  4  1  0  0  0  0
  6 19  1  0  0  0  0
  6  7  1  0  0  0  0
  7  8  1  0  0  0  0
  7 10  1  0  0  0  0
  9  7  1  0  0  0  0
 10 13  1  0  0  0  0
 10 11  1  0  0  0  0
 12 10  1  0  0  0  0
 13 15  1  0  0  0  0
 13 14  1  0  0  0  0
 16 17  1  0  0  0  0
 16 13  1  0  0  0  0
 18 16  1  0  0  0  0
 19 16  1  0  0  0  0
 20  1  1  0  0  0  0
 20 22  1  0  0  0  0
 21 20  1  0  0  0  0
 23 24  1  0  0  0  0
 24 26  1  0  0  0  0
 24 25  1  0  0  0  0
 26 27  1  0  0  0  0
 28 26  2  0  0  0  0
 29 28  1  0  0  0  0
 29 31  1  0  0  0  0
 29 30  1  0  0  0  0
 32 29  1  0  0  0  0
 33 32  1  0  0  0  0
 34 32  1  0  0  0  0
 35 38  1  0  0  0  0
 35 36  1  0  0  0  0
 35 32  1  0  0  0  0
 37 35  1  0  0  0  0
 38 41  1  0  0  0  0
 39 38  1  0  0  0  0
 40 38  1  0  0  0  0
 41 23  2  0  0  0  0
 41 28  1  0  0  0  0
 42 43  1  0  0  0  0
 42 20  1  0  0  0  0
 42 23  1  0  0  0  0
 44 42  1  0  0  0  0
M  END
