6,11
q = -1.0, confidence = 0.012

 34 36  0  0  1  0  0  0  0  0999 V2000
    1.0078    0.4688    1.3703 O   0  0  0  0  0  0  0  0  0  0  0  0
    0.7482   -3.0463    0.9667 O   0  0  0  0  0  0  0  0  0  0  0  0
    0.0282    6.9620   -0.0100 Cl  0  0  0  0  0  0  0  0  0  0  0  0
    7.0442   -0.9717   -0.2221 Cl  0  0  0  0  0  0  0  0  0  0  0  0
   -0.1134    0.0361   -0.6552 C   0  0  1  0  0  3  0  0  0  0  0  0
    0.1675   -1.3931   -0.6452 C   0  0  1  0  0  3  0  0  0  0  0  0
   -0.5917   -2.0001   -1.6924 C   0  0  0  0  0  0  0  0  0  0  0  0
   -0.5674   -3.0657   -1.9500 H   0  0  0  0  0  0  0  0  0  0  0  0
   -1.3563   -0.9731   -2.3599 C   0  0  0  0  0  0  0  0  0  0  0  0
   -2.0299   -1.1203   -3.2120 H   0  0  0  0  0  0  0  0  0  0  0  0
   -1.0792    0.2680   -1.7103 C   0  0  0  0  0  3  0  0  0  0  0  0
   -1.5382    1.2320   -1.9581 H   0  0  0  0  0  0  0  0  0  0  0  0
    0.4424    0.9478    0.3847 C   0  0  0  0  0  0  0  0  0  0  0  0
    0.3035    2.4286    0.2282 C   0  0  0  0  0  0  0  0  0  0  0  0
    0.2665    3.2083    1.4048 C   0  0  0  0  0  0  0  0  0  0  0  0
    0.3139    2.6911    2.3744 H   0  0  0  0  0  0  0  0  0  0  0  0
    0.1703    4.5998    1.3404 C   0  0  0  0  0  0  0  0  0  0  0  0
    0.1218    5.2089    2.2538 H   0  0  0  0  0  0  0  0  0  0  0  0
    0.1410    5.2286    0.0814 C   0  0  0  0  0  0  0  0  0  0  0  0
    0.2120    4.4761   -1.1032 C   0  0  0  0  0  0  0  0  0  0  0  0
    0.2152    4.9894   -2.0748 H   0  0  0  0  0  0  0  0  0  0  0  0
    0.2854    3.0800   -1.0235 C   0  0  0  0  0  0  0  0  0  0  0  0
    0.3735    2.4983   -1.9523 H   0  0  0  0  0  0  0  0  0  0  0  0
    1.1416   -2.1438    0.2353 C   0  0  0  0  0  0  0  0  0  0  0  0
    2.5894   -1.8120    0.0925 C   0  0  0  0  0  0  0  0  0  0  0  0
    3.4984   -2.4351    0.9738 C   0  0  0  0  0  0  0  0  0  0  0  0
    3.0942   -3.1217    1.7321 H   0  0  0  0  0  0  0  0  0  0  0  0
    4.8679   -2.1799    0.8860 C   0  0  0  0  0  0  0  0  0  0  0  0
    5.5808   -2.6544    1.5747 H   0  0  0  0  0  0  0  0  0  0  0  0
    5.3386   -1.2962   -0.1035 C   0  0  0  0  0  0  0  0  0  0  0  0
    4.4526   -0.6722   -0.9989 C   0  0  0  0  0  0  0  0  0  0  0  0
    4.8447    0.0097   -1.7660 H   0  0  0  0  0  0  0  0  0  0  0  0
    3.0822   -0.9322   -0.8937 C   0  0  0  0  0  0  0  0  0  0  0  0
    2.3891   -0.4460   -1.5962 H   0  0  0  0  0  0  0  0  0  0  0  0
  3 19  1  0  0  0  0
  4 30  1  0  0  0  0
  5  6  1  0  0  0  0
  5 13  1  1  0  0  0
  6 24  1  6  0  0  0
  7  6  1  0  0  0  0
  8  7  1  0  0  0  0
  9 11  1  0  0  0  0
  9  7  2  0  0  0  0
 10  9  1  0  0  0  0
 11  5  1  0  0  0  0
 12 11  1  0  0  0  0
 13  1  2  0  0  0  0
 14 13  1  0  0  0  0
 14 15  1  0  0  0  0
 15 16  1  0  0  0  0
 17 15  2  0  0  0  0
 17 18  1  0  0  0  0
 19 17  1  0  0  0  0
 20 22  1  0  0  0  0
 20 19  2  0  0  0  0
 21 20  1  0  0  0  0
 22 14  2  0  0  0  0
 23 22  1  0  0  0  0
 24  2  2  0  0  0  0
 25 24  1  0  0  0  0
 25 26  1  0  0  0  0
 26 27  1  0  0  0  0
 28 26  2  0  0  0  0
 28 29  1  0  0  0  0
 30 28  1  0  0  0  0
 31 33  1  0  0  0  0
 31 30  2  0  0  0  0
 32 31  1  0  0  0  0
 33 25  2  0  0  0  0
 34 33  1  0  0  0  0
M  END
