4,8
q = 0.0, confidence = 0.974

 18 19  0  0  1  0  0  0  0  0999 V2000
    2.1005   -2.7032    0.1148 O   0  0  0  0  0  0  0  0  0  0  0  0
    2.0176    2.7266    0.1618 O   0  0  0  0  0  0  0  0  0  0  0  0
    0.9568    0.7084    0.8641 C   0  0  1  0  0  3  0  0  0  0  0  0
   -0.1334    1.3826    1.4895 C   0  0  0  0  0  3  0  0  0  0  0  0
   -1.1861    0.6535    2.1018 C   0  0  0  0  0  0  0  0  0  0  0  0
   -1.1736   -0.7696    2.0465 C   0  0  0  0  0  0  0  0  0  0  0  0
   -0.0939   -1.4674    1.4439 C   0  0  0  0  0  3  0  0  0  0  0  0
    0.9539   -0.7309    0.8227 C   0  0  1  0  0  3  0  0  0  0  0  0
    2.0456   -1.4757    0.1034 C   0  0  0  0  0  0  0  0  0  0  0  0
    3.0463   -0.6483   -0.6081 C   0  0  0  0  0  0  0  0  0  0  0  0
    3.0200    0.7096   -0.5930 C   0  0  0  0  0  0  0  0  0  0  0  0
    1.9967    1.4953    0.1431 C   0  0  0  0  0  0  0  0  0  0  0  0
   -0.1355    2.4817    1.4522 H   0  0  0  0  0  0  0  0  0  0  0  0
   -2.0410    1.1812    2.5448 H   0  0  0  0  0  0  0  0  0  0  0  0
   -2.0232   -1.3346    2.4562 H   0  0  0  0  0  0  0  0  0  0  0  0
   -0.0721   -2.5630    1.3681 H   0  0  0  0  0  0  0  0  0  0  0  0
    3.8187   -1.2115   -1.1545 H   0  0  0  0  0  0  0  0  0  0  0  0
    3.7716    1.3108   -1.1284 H   0  0  0  0  0  0  0  0  0  0  0  0
  3 12  1  6  0  0  0
  3  4  1  0  0  0  0
  4  5  1  0  0  0  0
  5 14  1  0  0  0  0
  6  5  2  0  0  0  0
  6 15  1  0  0  0  0
  7  6  1  0  0  0  0
  8  9  1  6  0  0  0
  8  3  1  0  0  0  0
  8  7  1  0  0  0  0
  9  1  2  0  0  0  0
 10 11  2  0  0  0  0
 10  9  1  0  0  0  0
 11 12  1  0  0  0  0
 12  2  2  0  0  0  0
 13  4  1  0  0  0  0
 16  7  1  0  0  0  0
 17 10  1  0  0  0  0
 18 11  1  0  0  0  0
M  END
