7
q = -2.0, confidence = 0.636

 51 52  0  0  1  0  0  0  0  0999 V2000
   -3.7468   -0.3019   -0.0002 Si  0  0  0  0  0  0  0  0  0  0  0  0
   -2.4196   -0.1064    1.3406 C   0  0  1  0  0  3  0  0  0  0  0  0
   -1.4397   -1.1597    1.6070 C   0  0  0  0  0  0  0  0  0  0  0  0
   -0.2373   -0.5228    2.0542 C   0  0  0  0  0  0  0  0  0  0  0  0
   -0.4310    0.9160    2.0179 C   0  0  0  0  0  0  0  0  0  0  0  0
   -1.7631    1.1821    1.5690 C   0  0  0  0  0  0  0  0  0  0  0  0
   -2.4194   -0.1061   -1.3408 C   0  0  2  0  0  3  0  0  0  0  0  0
   -1.4394   -1.1592   -1.6074 C   0  0  0  0  0  0  0  0  0  0  0  0
   -0.2370   -0.5220   -2.0543 C   0  0  0  0  0  0  0  0  0  0  0  0
   -0.4308    0.9167   -2.0175 C   0  0  0  0  0  0  0  0  0  0  0  0
   -1.7631    1.1825   -1.5688 C   0  0  0  0  0  0  0  0  0  0  0  0
   -1.6705   -2.6389    1.7079 C   0  0  0  0  0  0  0  0  0  0  0  0
   -1.8668   -2.9349    2.7627 H   0  0  0  0  0  0  0  0  0  0  0  0
   -0.7893   -3.2133    1.3602 H   0  0  0  0  0  0  0  0  0  0  0  0
   -2.5378   -2.9711    1.1145 H   0  0  0  0  0  0  0  0  0  0  0  0
    0.9407   -1.2135    2.6689 C   0  0  0  0  0  0  0  0  0  0  0  0
    0.8270   -1.2369    3.7751 H   0  0  0  0  0  0  0  0  0  0  0  0
    1.8956   -0.6984    2.4486 H   0  0  0  0  0  0  0  0  0  0  0  0
    1.0314   -2.2601    2.3249 H   0  0  0  0  0  0  0  0  0  0  0  0
    0.5336    1.9390    2.5318 C   0  0  0  0  0  0  0  0  0  0  0  0
    0.4017    2.0873    3.6260 H   0  0  0  0  0  0  0  0  0  0  0  0
    0.3835    2.9190    2.0391 H   0  0  0  0  0  0  0  0  0  0  0  0
    1.5846    1.6375    2.3572 H   0  0  0  0  0  0  0  0  0  0  0  0
   -2.3896    2.5430    1.6494 C   0  0  0  0  0  0  0  0  0  0  0  0
   -2.6070    2.8037    2.7091 H   0  0  0  0  0  0  0  0  0  0  0  0
   -3.3435    2.6042    1.1014 H   0  0  0  0  0  0  0  0  0  0  0  0
   -1.7193    3.3279    1.2479 H   0  0  0  0  0  0  0  0  0  0  0  0
   -1.6699   -2.6384   -1.7085 C   0  0  0  0  0  0  0  0  0  0  0  0
   -1.8681   -2.9342   -2.7631 H   0  0  0  0  0  0  0  0  0  0  0  0
   -2.5359   -2.9713   -1.1136 H   0  0  0  0  0  0  0  0  0  0  0  0
   -0.7879   -3.2127   -1.3627 H   0  0  0  0  0  0  0  0  0  0  0  0
    0.9411   -1.2124   -2.6692 C   0  0  0  0  0  0  0  0  0  0  0  0
    0.8275   -1.2352   -3.7755 H   0  0  0  0  0  0  0  0  0  0  0  0
    1.0319   -2.2591   -2.3258 H   0  0  0  0  0  0  0  0  0  0  0  0
    1.8959   -0.6972   -2.4485 H   0  0  0  0  0  0  0  0  0  0  0  0
    0.5337    1.9400   -2.5310 C   0  0  0  0  0  0  0  0  0  0  0  0
    0.4022    2.0883   -3.6253 H   0  0  0  0  0  0  0  0  0  0  0  0
    1.5848    1.6386   -2.3560 H   0  0  0  0  0  0  0  0  0  0  0  0
    0.3833    2.9199   -2.0383 H   0  0  0  0  0  0  0  0  0  0  0  0
   -2.3897    2.5434   -1.6487 C   0  0  0  0  0  0  0  0  0  0  0  0
   -2.6072    2.8044   -2.7083 H   0  0  0  0  0  0  0  0  0  0  0  0
   -1.7194    3.3282   -1.2469 H   0  0  0  0  0  0  0  0  0  0  0  0
   -3.3436    2.6042   -1.1007 H   0  0  0  0  0  0  0  0  0  0  0  0
   -5.1482    0.9746   -0.0001 C   0  0  0  0  0  0  0  0  0  0  0  0
   -5.7818    0.8016    0.8947 H   0  0  0  0  0  0  0  0  0  0  0  0
   -5.7809    0.8028   -0.8958 H   0  0  0  0  0  0  0  0  0  0  0  0
   -4.8522    2.0382    0.0008 H   0  0  0  0  0  0  0  0  0  0  0  0
   -4.7223   -1.9271   -0.0005 C   0  0  0  0  0  0  0  0  0  0  0  0
   -4.1333   -2.8608   -0.0017 H   0  0  0  0  0  0  0  0  0  0  0  0
   -5.3791   -1.9432   -0.8952 H   0  0  0  0  0  0  0  0  0  0  0  0
   -5.3777   -1.9445    0.8952 H   0  0  0  0  0  0  0  0  0  0  0  0
  1 44  1  0  0  0  0
  2  1  1  6  0  0  0
  2  6  1  0  0  0  0
  2  3  1  0  0  0  0
  3 12  1  0  0  0  0
  3  4  2  0  0  0  0
  4 16  1  0  0  0  0
  5  4  1  0  0  0  0
  5 20  1  0  0  0  0
  6 24  1  0  0  0  0
  6  5  2  0  0  0  0
  7  1  1  1  0  0  0
  8  7  1  0  0  0  0
  9 10  1  0  0  0  0
  9  8  2  0  0  0  0
 10 11  2  0  0  0  0
 11  7  1  0  0  0  0
 12 13  1  0  0  0  0
 14 12  1  0  0  0  0
 15 12  1  0  0  0  0
 16 17  1  0  0  0  0
 18 16  1  0  0  0  0
 19 16  1  0  0  0  0
 20 21  1  0  0  0  0
 22 20  1  0  0  0  0
 23 20  1  0  0  0  0
 24 25  1  0  0  0  0
 26 24  1  0  0  0  0
 27 24  1  0  0  0  0
 28  8  1  0  0  0  0
 28 31  1  0  0  0  0
 28 30  1  0  0  0  0
 29 28  1  0  0  0  0
 32 35  1  0  0  0  0
 32 34  1  0  0  0  0
 32  9  1  0  0  0  0
 33 32  1  0  0  0  0
 36 38  1  0  0  0  0
 36 39  1  0  0  0  0
 36 10  1  0  0  0  0
 37 36  1  0  0  0  0
 40 11  1  0  0  0  0
 40 42  1  0  0  0  0
 40 43  1  0  0  0  0
 41 40  1  0  0  0  0
 44 47  1  0  0  0  0
 44 45  1  0  0  0  0
 46 44  1  0  0  0  0
 48  1  1  0  0  0  0
 48 51  1  0  0  0  0
 49 48  1  0  0  0  0
 50 48  1  0  0  0  0
M  END
