2,4
q = 0.0, confidence = 0.968

 31 31  0  0  1  0  0  0  0  0999 V2000
    0.5471   -1.1435   -1.1779 C   0  0  1  0  0  3  0  0  0  0  0  0
    1.4206   -0.0168   -1.4040 C   0  0  0  0  0  3  0  0  0  0  0  0
    0.8408    1.2396   -1.0624 C   0  0  1  0  0  3  0  0  0  0  0  0
   -0.4622    1.1516   -0.4516 C   0  0  0  0  0  3  0  0  0  0  0  0
   -1.5331    0.3014   -1.1376 C   0  0  2  0  0  0  0  0  0  0  0  0
   -0.9120   -1.0395   -1.5917 C   0  0  0  0  0  0  0  0  0  0  0  0
    1.1687   -2.3563   -1.3651 O   0  0  0  0  0  0  0  0  0  0  0  0
    0.5575   -3.4908   -0.7735 C   0  0  0  0  0  0  0  0  0  0  0  0
    1.4363    2.4495   -1.1827 O   0  0  0  0  0  0  0  0  0  0  0  0
    2.8499    2.4648   -1.3350 C   0  0  0  0  0  0  0  0  0  0  0  0
   -2.1343    1.0867   -2.3316 C   0  0  0  0  0  0  0  0  0  0  0  0
   -2.7062    0.0126   -0.1822 C   0  0  0  0  0  0  0  0  0  0  0  0
   -3.3541   -1.0170   -0.1634 O   0  0  0  0  0  0  0  0  0  0  0  0
   -2.9758    1.0724    0.6118 O   0  0  0  0  0  0  0  0  0  0  0  0
   -4.0437    0.8794    1.5495 C   0  0  0  0  0  0  0  0  0  0  0  0
    2.4459   -0.1514   -1.7733 H   0  0  0  0  0  0  0  0  0  0  0  0
   -0.8288    2.0844    0.0022 H   0  0  0  0  0  0  0  0  0  0  0  0
   -1.5080   -1.8686   -1.1665 H   0  0  0  0  0  0  0  0  0  0  0  0
   -0.9641   -1.1478   -2.6977 H   0  0  0  0  0  0  0  0  0  0  0  0
    0.3920   -3.3268    0.3156 H   0  0  0  0  0  0  0  0  0  0  0  0
    1.2572   -4.3358   -0.9131 H   0  0  0  0  0  0  0  0  0  0  0  0
   -0.4152   -3.7501   -1.2458 H   0  0  0  0  0  0  0  0  0  0  0  0
    3.3383    1.8959   -0.5126 H   0  0  0  0  0  0  0  0  0  0  0  0
    3.1616    3.5240   -1.2879 H   0  0  0  0  0  0  0  0  0  0  0  0
    3.1640    2.0371   -2.3121 H   0  0  0  0  0  0  0  0  0  0  0  0
   -2.5690    2.0467   -1.9902 H   0  0  0  0  0  0  0  0  0  0  0  0
   -2.9307    0.4986   -2.8310 H   0  0  0  0  0  0  0  0  0  0  0  0
   -1.3400    1.3064   -3.0729 H   0  0  0  0  0  0  0  0  0  0  0  0
   -3.7958    0.0525    2.2449 H   0  0  0  0  0  0  0  0  0  0  0  0
   -4.9885    0.6290    1.0270 H   0  0  0  0  0  0  0  0  0  0  0  0
   -4.1427    1.8317    2.0999 H   0  0  0  0  0  0  0  0  0  0  0  0
  1  7  1  6  0  0  0
  2  1  1  0  0  0  0
  2  3  1  0  0  0  0
  3  9  1  1  0  0  0
  3  4  1  0  0  0  0
  4 17  1  0  0  0  0
  5  4  1  0  0  0  0
  5 12  1  1  0  0  0
  6  1  1  0  0  0  0
  6 18  1  0  0  0  0
  6  5  1  0  0  0  0
  7  8  1  0  0  0  0
  8 20  1  0  0  0  0
 10 24  1  0  0  0  0
 10  9  1  0  0  0  0
 10 23  1  0  0  0  0
 11 26  1  0  0  0  0
 11  5  1  0  0  0  0
 12 13  2  0  0  0  0
 12 14  1  0  0  0  0
 14 15  1  0  0  0  0
 15 31  1  0  0  0  0
 15 29  1  0  0  0  0
 16  2  1  0  0  0  0
 19  6  1  0  0  0  0
 21  8  1  0  0  0  0
 22  8  1  0  0  0  0
 25 10  1  0  0  0  0
 27 11  1  0  0  0  0
 28 11  1  0  0  0  0
 30 15  1  0  0  0  0
M  END
