1,5
q = 0.0, confidence = 0.936

 21 22  0  0  1  0  0  0  0  0999 V2000
   -1.5923   -1.0808    1.2820 C   0  0  0  0  0  3  0  0  0  0  0  0
   -1.8500    0.3077    1.3968 C   0  0  0  0  0  3  0  0  0  0  0  0
   -3.0227    1.0196    0.6980 C   0  0  1  0  0  0  0  0  0  0  0  0
   -2.4622    1.9472   -0.3960 C   0  0  0  0  0  0  0  0  0  0  0  0
   -1.5923    1.0813   -1.2821 C   0  0  0  0  0  3  0  0  0  0  0  0
   -1.8502   -0.3072   -1.3968 C   0  0  0  0  0  3  0  0  0  0  0  0
   -3.0230   -1.0188   -0.6979 C   0  0  1  0  0  0  0  0  0  0  0  0
   -2.4626   -1.9466    0.3960 C   0  0  0  0  0  0  0  0  0  0  0  0
   -3.9363    0.0005    0.0001 C   0  0  0  0  0  0  0  0  0  0  0  0
   -1.0015   -1.5781    2.0708 H   0  0  0  0  0  0  0  0  0  0  0  0
   -1.3944    0.8560    2.2355 H   0  0  0  0  0  0  0  0  0  0  0  0
   -3.5876    1.6091    1.4498 H   0  0  0  0  0  0  0  0  0  0  0  0
   -3.2907    2.4132   -0.9770 H   0  0  0  0  0  0  0  0  0  0  0  0
   -1.8649    2.7691    0.0427 H   0  0  0  0  0  0  0  0  0  0  0  0
   -1.0014    1.5784   -2.0710 H   0  0  0  0  0  0  0  0  0  0  0  0
   -1.3948   -0.8557   -2.2355 H   0  0  0  0  0  0  0  0  0  0  0  0
   -3.5881   -1.6082   -1.4496 H   0  0  0  0  0  0  0  0  0  0  0  0
   -1.8655   -2.7686   -0.0427 H   0  0  0  0  0  0  0  0  0  0  0  0
   -3.2911   -2.4124    0.9771 H   0  0  0  0  0  0  0  0  0  0  0  0
   -4.5952    0.5243   -0.7233 H   0  0  0  0  0  0  0  0  0  0  0  0
   -4.5952   -0.5232    0.7236 H   0  0  0  0  0  0  0  0  0  0  0  0
  1  2  1  0  0  0  0
  1 10  1  0  0  0  0
  2 11  1  0  0  0  0
  3  2  1  0  0  0  0
  3 12  1  1  0  0  0
  4 14  1  0  0  0  0
  4  3  1  0  0  0  0
  5  4  1  0  0  0  0
  6  5  1  0  0  0  0
  6  7  1  0  0  0  0
  7 17  1  6  0  0  0
  7  9  1  0  0  0  0
  7  8  1  0  0  0  0
  8 19  1  0  0  0  0
  8  1  1  0  0  0  0
  9  3  1  0  0  0  0
  9 21  1  0  0  0  0
 13  4  1  0  0  0  0
 15  5  1  0  0  0  0
 16  6  1  0  0  0  0
 18  8  1  0  0  0  0
 20  9  1  0  0  0  0
M  END
