1,2
q = 0.0, confidence = 0.636

 19 19  0  0  0  0  0  0  0  0999 V2000
   -0.1805   -0.3493   -1.4781 C   0  0  0  0  0  3  0  0  0  0  0  0
   -0.3306   -0.6938    1.1553 C   0  0  0  0  0  3  0  0  0  0  0  0
   -0.9958   -0.9281   -0.2744 C   0  0  0  0  0  0  0  0  0  0  0  0
   -2.4555   -0.4927   -0.1946 C   0  0  0  0  0  0  0  0  0  0  0  0
   -2.9487    0.7187   -0.7168 C   0  0  0  0  0  0  0  0  0  0  0  0
   -4.2968    1.0822   -0.5585 C   0  0  0  0  0  0  0  0  0  0  0  0
   -5.1863    0.2350    0.1169 C   0  0  0  0  0  0  0  0  0  0  0  0
   -4.7125   -0.9826    0.6341 C   0  0  0  0  0  0  0  0  0  0  0  0
   -3.3654   -1.3348    0.4834 C   0  0  0  0  0  0  0  0  0  0  0  0
   -0.0028   -1.1172   -2.2505 H   0  0  0  0  0  0  0  0  0  0  0  0
   -0.6716    0.5169   -1.9491 H   0  0  0  0  0  0  0  0  0  0  0  0
   -0.8924    0.0532    1.7420 H   0  0  0  0  0  0  0  0  0  0  0  0
   -0.2896   -1.6385    1.7240 H   0  0  0  0  0  0  0  0  0  0  0  0
   -1.0043   -2.0272   -0.4045 H   0  0  0  0  0  0  0  0  0  0  0  0
   -2.2785    1.3894   -1.2738 H   0  0  0  0  0  0  0  0  0  0  0  0
   -4.6539    2.0359   -0.9773 H   0  0  0  0  0  0  0  0  0  0  0  0
   -6.2434    0.5171    0.2355 H   0  0  0  0  0  0  0  0  0  0  0  0
   -5.3997   -1.6642    1.1592 H   0  0  0  0  0  0  0  0  0  0  0  0
   -2.9999   -2.2865    0.9019 H   0  0  0  0  0  0  0  0  0  0  0  0
  1  3  1  0  0  0  0
  2 13  1  0  0  0  0
  2 12  1  0  0  0  0
  3  4  1  0  0  0  0
  3  2  1  0  0  0  0
  4  9  1  0  0  0  0
  5  6  1  0  0  0  0
  5  4  2  0  0  0  0
  6  7  2  0  0  0  0
  7 17  1  0  0  0  0
  7  8  1  0  0  0  0
  8 18  1  0  0  0  0
  9  8  2  0  0  0  0
  9 19  1  0  0  0  0
 10  1  1  0  0  0  0
 11  1  1  0  0  0  0
 14  3  1  0  0  0  0
 15  5  1  0  0  0  0
 16  6  1  0  0  0  0
M  END
