4,7
q = -1.0

 45 46  0  0  1  0  0  0  0  0999 V2000
    1.8250    1.7031   -1.8262 S   0  0  0  0  0  1  0  0  0  0  0  0
    1.8512    0.4527   -0.2913 P   0  0  0  0  0  4  0  0  0  0  0  0
    0.3463   -2.0283    1.6981 N   0  0  0  0  0  0  0  0  0  0  0  0
   -1.6722   -0.5286    1.7115 C   0  0  0  0  0  3  0  0  0  0  0  0
   -2.3338   -1.1614    2.3117 H   0  0  0  0  0  0  0  0  0  0  0  0
   -0.3217   -0.8446    1.3433 C   0  0  2  0  0  3  0  0  0  0  0  0
    0.2105    0.2537    0.5288 C   0  0  1  0  0  3  0  0  0  0  0  0
   -0.8030    1.3152    0.5612 C   0  0  0  0  0  0  0  0  0  0  0  0
   -0.8276    2.6501    0.0467 C   0  0  0  0  0  0  0  0  0  0  0  0
    0.0455    3.0255   -0.5047 H   0  0  0  0  0  0  0  0  0  0  0  0
   -1.9546    3.4275    0.2563 C   0  0  0  0  0  0  0  0  0  0  0  0
   -1.9731    4.4579   -0.1294 H   0  0  0  0  0  0  0  0  0  0  0  0
   -3.0947    2.9294    0.9551 C   0  0  0  0  0  0  0  0  0  0  0  0
   -3.9689    3.5829    1.0951 H   0  0  0  0  0  0  0  0  0  0  0  0
   -3.1147    1.6393    1.4556 C   0  0  0  0  0  0  0  0  0  0  0  0
   -3.9869    1.2476    1.9993 H   0  0  0  0  0  0  0  0  0  0  0  0
   -1.9607    0.8184    1.2800 C   0  0  0  0  0  0  0  0  0  0  0  0
    2.9987    1.1005    1.0677 C   0  0  0  0  0  0  0  0  0  0  0  0
    3.2934    0.2193    1.6766 H   0  0  0  0  0  0  0  0  0  0  0  0
    4.2591    1.7180    0.4544 C   0  0  0  0  0  0  0  0  0  0  0  0
    4.8454    0.9895   -0.1365 H   0  0  0  0  0  0  0  0  0  0  0  0
    4.9118    2.1114    1.2611 H   0  0  0  0  0  0  0  0  0  0  0  0
    3.9831    2.5494   -0.2241 H   0  0  0  0  0  0  0  0  0  0  0  0
    2.2582    2.1046    1.9578 C   0  0  0  0  0  0  0  0  0  0  0  0
    1.4001    1.6497    2.4902 H   0  0  0  0  0  0  0  0  0  0  0  0
    1.8751    2.9541    1.3565 H   0  0  0  0  0  0  0  0  0  0  0  0
    2.9528    2.5177    2.7177 H   0  0  0  0  0  0  0  0  0  0  0  0
    2.3645   -1.2996   -0.7637 C   0  0  0  0  0  0  0  0  0  0  0  0
    1.7021   -1.9414   -0.1434 H   0  0  0  0  0  0  0  0  0  0  0  0
    2.0606   -1.5393   -2.2464 C   0  0  0  0  0  0  0  0  0  0  0  0
    1.0224   -1.2715   -2.5127 H   0  0  0  0  0  0  0  0  0  0  0  0
    2.2121   -2.6120   -2.4841 H   0  0  0  0  0  0  0  0  0  0  0  0
    2.7269   -0.9273   -2.8855 H   0  0  0  0  0  0  0  0  0  0  0  0
    3.8279   -1.6265   -0.4459 C   0  0  0  0  0  0  0  0  0  0  0  0
    4.0819   -1.5101    0.6260 H   0  0  0  0  0  0  0  0  0  0  0  0
    4.5219   -0.9970   -1.0386 H   0  0  0  0  0  0  0  0  0  0  0  0
    4.0320   -2.6822   -0.7191 H   0  0  0  0  0  0  0  0  0  0  0  0
    1.4830   -1.8727    2.5962 C   0  0  0  0  0  0  0  0  0  0  0  0
    2.1177   -2.7813    2.5595 H   0  0  0  0  0  0  0  0  0  0  0  0
    1.1676   -1.7101    3.6567 H   0  0  0  0  0  0  0  0  0  0  0  0
    2.1005   -1.0111    2.2939 H   0  0  0  0  0  0  0  0  0  0  0  0
   -0.4981   -3.1531    2.0675 C   0  0  0  0  0  0  0  0  0  0  0  0
    0.1184   -4.0734    2.0948 H   0  0  0  0  0  0  0  0  0  0  0  0
   -1.2963   -3.2952    1.3159 H   0  0  0  0  0  0  0  0  0  0  0  0
   -0.9724   -3.0317    3.0730 H   0  0  0  0  0  0  0  0  0  0  0  0
  1  2  1  0  0  0  0
  2 18  1  0  0  0  0
  3 42  1  0  0  0  0
  3 38  1  0  0  0  0
  4  5  1  0  0  0  0
  6  3  1  6  0  0  0
  6  4  1  0  0  0  0
  7  2  1  1  0  0  0
  7  8  1  0  0  0  0
  7  6  1  0  0  0  0
  8 17  1  0  0  0  0
  9 11  1  0  0  0  0
  9  8  2  0  0  0  0
 10  9  1  0  0  0  0
 11 13  2  0  0  0  0
 12 11  1  0  0  0  0
 13 14  1  0  0  0  0
 13 15  1  0  0  0  0
 15 16  1  0  0  0  0
 17 15  2  0  0  0  0
 17  4  1  0  0  0  0
 18 19  1  0  0  0  0
 18 24  1  0  0  0  0
 20 18  1  0  0  0  0
 20 22  1  0  0  0  0
 21 20  1  0  0  0  0
 23 20  1  0  0  0  0
 24 25  1  0  0  0  0
 24 27  1  0  0  0  0
 26 24  1  0  0  0  0
 28 34  1  0  0  0  0
 28  2  1  0  0  0  0
 28 29  1  0  0  0  0
 30 28  1  0  0  0  0
 31 30  1  0  0  0  0
 32 30  1  0  0  0  0
 33 30  1  0  0  0  0
 34 35  1  0  0  0  0
 36 34  1  0  0  0  0
 37 34  1  0  0  0  0
 38 40  1  0  0  0  0
 39 38  1  0  0  0  0
 41 38  1  0  0  0  0
 42 43  1  0  0  0  0
 42 45  1  0  0  0  0
 44 42  1  0  0  0  0
M  END
