14,20
q = -1.0

 35 36  0  0  1  0  0  0  0  0999 V2000
   -0.1606   -0.5142    1.1771 S   0  0  2  0  0  0  0  0  0  0  0  0
   -0.3564    0.1225    2.5345 O   0  0  0  0  0  0  0  0  0  0  0  0
    5.6888   -0.0472    0.1518 O   0  0  0  0  0  0  0  0  0  0  0  0
   -0.3252   -2.3317    1.4345 C   0  0  0  0  0  0  0  0  0  0  0  0
    0.2361   -2.8380    0.6235 H   0  0  0  0  0  0  0  0  0  0  0  0
    0.2186   -2.4611    2.3912 H   0  0  0  0  0  0  0  0  0  0  0  0
   -1.7750   -2.7855    1.5166 C   0  0  0  0  0  0  0  0  0  0  0  0
   -1.7865   -3.7808    2.0060 H   0  0  0  0  0  0  0  0  0  0  0  0
   -2.3392   -2.1086    2.1932 H   0  0  0  0  0  0  0  0  0  0  0  0
   -2.4561   -2.9072    0.1436 C   0  0  0  0  0  0  0  0  0  0  0  0
   -1.8457   -3.5622   -0.5116 H   0  0  0  0  0  0  0  0  0  0  0  0
   -3.4323   -3.4212    0.2723 H   0  0  0  0  0  0  0  0  0  0  0  0
   -2.7284   -1.6154   -0.5728 C   0  0  1  0  0  3  0  0  0  0  0  0
   -2.2870   -1.2744   -1.9018 C   0  0  0  0  0  3  0  0  0  0  0  0
   -1.6812   -1.9134   -2.5558 H   0  0  0  0  0  0  0  0  0  0  0  0
   -2.8748    0.0028   -2.2539 C   0  0  0  0  0  0  0  0  0  0  0  0
   -2.7416    0.5370   -3.2025 H   0  0  0  0  0  0  0  0  0  0  0  0
   -3.6455    0.4536   -1.1415 C   0  0  0  0  0  0  0  0  0  0  0  0
   -4.1938    1.4026   -1.0863 H   0  0  0  0  0  0  0  0  0  0  0  0
   -3.5470   -0.5286   -0.0834 C   0  0  0  0  0  3  0  0  0  0  0  0
   -4.0638   -0.4930    0.8830 H   0  0  0  0  0  0  0  0  0  0  0  0
    1.6114   -0.4321    0.8006 C   0  0  0  0  0  0  0  0  0  0  0  0
    2.1539   -1.0214   -0.3497 C   0  0  0  0  0  0  0  0  0  0  0  0
    1.5108   -1.5636   -1.0606 H   0  0  0  0  0  0  0  0  0  0  0  0
    3.5299   -0.9182   -0.6011 C   0  0  0  0  0  0  0  0  0  0  0  0
    3.9514   -1.4031   -1.4916 H   0  0  0  0  0  0  0  0  0  0  0  0
    4.3580   -0.2055    0.3010 C   0  0  0  0  0  0  0  0  0  0  0  0
    3.7870    0.3962    1.4486 C   0  0  0  0  0  0  0  0  0  0  0  0
    4.4520    0.9382    2.1361 H   0  0  0  0  0  0  0  0  0  0  0  0
    2.4199    0.2819    1.7003 C   0  0  0  0  0  0  0  0  0  0  0  0
    1.9577    0.7256    2.5949 H   0  0  0  0  0  0  0  0  0  0  0  0
    6.3411   -0.6574   -0.9539 C   0  0  0  0  0  0  0  0  0  0  0  0
    5.9653   -0.2596   -1.9226 H   0  0  0  0  0  0  0  0  0  0  0  0
    6.2191   -1.7622   -0.9418 H   0  0  0  0  0  0  0  0  0  0  0  0
    7.4132   -0.4104   -0.8554 H   0  0  0  0  0  0  0  0  0  0  0  0
  1  4  1  0  0  0  0
  1  2  2  1  0  0  0
  3 27  1  0  0  0  0
  4  7  1  0  0  0  0
  4  6  1  0  0  0  0
  5  4  1  0  0  0  0
  7  8  1  0  0  0  0
  7  9  1  0  0  0  0
 10 12  1  0  0  0  0
 10  7  1  0  0  0  0
 11 10  1  0  0  0  0
 13 20  1  0  0  0  0
 13 10  1  6  0  0  0
 14 13  1  0  0  0  0
 15 14  1  0  0  0  0
 16 14  1  0  0  0  0
 16 18  2  0  0  0  0
 17 16  1  0  0  0  0
 18 19  1  0  0  0  0
 18 20  1  0  0  0  0
 20 21  1  0  0  0  0
 22  1  1  0  0  0  0
 22 30  1  0  0  0  0
 23 22  2  0  0  0  0
 24 23  1  0  0  0  0
 25 23  1  0  0  0  0
 25 27  2  0  0  0  0
 26 25  1  0  0  0  0
 27 28  1  0  0  0  0
 28 30  2  0  0  0  0
 28 29  1  0  0  0  0
 30 31  1  0  0  0  0
 32 34  1  0  0  0  0
 32 35  1  0  0  0  0
 32  3  1  0  0  0  0
 33 32  1  0  0  0  0
M  END
