2,8
q = -1.0

 27 28  0  0  1  0  0  0  0  0999 V2000
    0.4661    1.3648    0.6983 C   0  0  2  0  0  3  0  0  0  0  0  0
    1.1207    1.9339   -0.4615 C   0  0  0  0  0  3  0  0  0  0  0  0
    0.6120    2.1466   -1.4085 H   0  0  0  0  0  0  0  0  0  0  0  0
    2.4842    2.1885   -0.1304 C   0  0  0  0  0  0  0  0  0  0  0  0
    3.2352    2.6352   -0.7929 H   0  0  0  0  0  0  0  0  0  0  0  0
    2.7059    1.7653    1.2333 C   0  0  0  0  0  0  0  0  0  0  0  0
    3.6458    1.8449    1.7911 H   0  0  0  0  0  0  0  0  0  0  0  0
    1.4690    1.2468    1.7320 C   0  0  0  0  0  3  0  0  0  0  0  0
    1.2963    0.8522    2.7411 H   0  0  0  0  0  0  0  0  0  0  0  0
   -0.9387    0.9787    0.7907 C   0  0  0  0  0  0  0  0  0  0  0  0
   -1.2426    0.4644    1.7339 H   0  0  0  0  0  0  0  0  0  0  0  0
   -1.7648    1.2380   -0.1655 N   0  0  0  0  0  0  0  0  0  0  0  0
   -3.0856    0.7857   -0.1229 C   0  0  0  0  0  0  0  0  0  0  0  0
   -4.0746    1.5599   -0.7814 C   0  0  0  0  0  0  0  0  0  0  0  0
   -3.7565    2.4852   -1.2833 H   0  0  0  0  0  0  0  0  0  0  0  0
   -5.4116    1.1726   -0.7774 C   0  0  0  0  0  0  0  0  0  0  0  0
   -6.1855    1.7765   -1.2727 H   0  0  0  0  0  0  0  0  0  0  0  0
   -5.8048   -0.0291   -0.1443 C   0  0  0  0  0  0  0  0  0  0  0  0
   -4.8277   -0.8327    0.4814 C   0  0  0  0  0  0  0  0  0  0  0  0
   -5.0980   -1.7896    0.9479 H   0  0  0  0  0  0  0  0  0  0  0  0
   -3.4880   -0.4220    0.4934 C   0  0  0  0  0  0  0  0  0  0  0  0
   -2.7324   -1.0760    0.9543 H   0  0  0  0  0  0  0  0  0  0  0  0
   -7.1289   -0.3333   -0.2090 O   0  0  0  0  0  0  0  0  0  0  0  0
   -7.5767   -1.5272    0.4038 C   0  0  0  0  0  0  0  0  0  0  0  0
   -8.6696   -1.5721    0.2417 H   0  0  0  0  0  0  0  0  0  0  0  0
   -7.3730   -1.5340    1.4984 H   0  0  0  0  0  0  0  0  0  0  0  0
   -7.1072   -2.4287   -0.0505 H   0  0  0  0  0  0  0  0  0  0  0  0
  1 10  1  6  0  0  0
  1  8  1  0  0  0  0
  2  4  1  0  0  0  0
  2  1  1  0  0  0  0
  3  2  1  0  0  0  0
  4  6  2  0  0  0  0
  5  4  1  0  0  0  0
  6  8  1  0  0  0  0
  6  7  1  0  0  0  0
  8  9  1  0  0  0  0
 10 11  1  0  0  0  0
 12 13  1  0  0  0  0
 12 10  2  0  0  0  0
 13 21  1  0  0  0  0
 14 16  1  0  0  0  0
 14 13  2  0  0  0  0
 15 14  1  0  0  0  0
 16 18  2  0  0  0  0
 17 16  1  0  0  0  0
 18 19  1  0  0  0  0
 19 21  2  0  0  0  0
 19 20  1  0  0  0  0
 21 22  1  0  0  0  0
 23 18  1  0  0  0  0
 23 24  1  0  0  0  0
 24 26  1  0  0  0  0
 25 24  1  0  0  0  0
 27 24  1  0  0  0  0
M  END
