9,11
q = -2.0, confidence = 0.802

 12 11  0  0  1  0  0  0  0  0999 V2000
    0.5067   -2.4238   -1.6170 F   0  0  0  0  0  0  0  0  0  0  0  0
    2.0508   -2.8782   -0.1378 F   0  0  0  0  0  0  0  0  0  0  0  0
    2.0147   -0.5523   -2.6018 F   0  0  0  0  0  0  0  0  0  0  0  0
    3.5889   -1.1608   -1.1848 F   0  0  0  0  0  0  0  0  0  0  0  0
    1.4034    1.4671   -1.2008 F   0  0  0  0  0  0  0  0  0  0  0  0
    2.6679    2.1620    1.0567 F   0  0  0  0  0  0  0  0  0  0  0  0
    3.7762    0.2792    1.1285 F   0  0  0  0  0  0  0  0  0  0  0  0
    3.9731    1.6019   -0.5906 F   0  0  0  0  0  0  0  0  0  0  0  0
    1.3258   -1.8364   -0.6654 C   0  0  0  0  0  0  0  0  0  0  0  0
    2.2782   -0.7880   -1.2844 C   0  0  0  0  0  0  0  0  0  0  0  0
    1.9093    0.4260   -0.3936 C   0  0  1  0  0  0  0  0  0  0  0  0
    3.0923    1.1034    0.3059 C   0  0  0  0  0  0  0  0  0  0  0  0
  1  9  1  0  0  0  0
  3 10  1  0  0  0  0
  8 12  1  0  0  0  0
  9  2  1  0  0  0  0
 10  4  1  0  0  0  0
 10  9  1  0  0  0  0
 10 11  1  0  0  0  0
 11  5  1  6  0  0  0
 11 12  1  0  0  0  0
 12  6  1  0  0  0  0
 12  7  1  0  0  0  0
M  END
