2,26
q = -2.0, confidence = 0.864

 62 65  0  0  0  0  0  0  0  0999 V2000
    1.1669    1.7378    0.6975 C   0  0  0  0  0  0  0  0  0  0  0  0
    1.0228    0.8708    1.8187 C   0  0  0  0  0  3  0  0  0  0  0  0
    0.4038    1.0693    2.7029 H   0  0  0  0  0  0  0  0  0  0  0  0
    1.8749   -0.2608    1.6271 C   0  0  0  0  0  0  0  0  0  0  0  0
    2.1904   -1.3721    2.5816 C   0  0  0  0  0  0  0  0  0  0  0  0
    1.2636   -1.7083    3.0887 H   0  0  0  0  0  0  0  0  0  0  0  0
    2.8620   -0.9661    3.3732 H   0  0  0  0  0  0  0  0  0  0  0  0
    2.8807   -2.5316    1.8538 C   0  0  0  0  0  0  0  0  0  0  0  0
    2.1351   -3.0382    1.2039 H   0  0  0  0  0  0  0  0  0  0  0  0
    3.2388   -3.2824    2.5872 H   0  0  0  0  0  0  0  0  0  0  0  0
    4.0454   -2.0172    0.9980 C   0  0  0  0  0  0  0  0  0  0  0  0
    4.6036   -2.8632    0.5478 H   0  0  0  0  0  0  0  0  0  0  0  0
    4.7663   -1.4816    1.6559 H   0  0  0  0  0  0  0  0  0  0  0  0
    3.5643   -1.0750   -0.1204 C   0  0  0  0  0  0  0  0  0  0  0  0
    4.4204   -0.5115   -0.5461 H   0  0  0  0  0  0  0  0  0  0  0  0
    3.1361   -1.6694   -0.9578 H   0  0  0  0  0  0  0  0  0  0  0  0
    2.5155   -0.1149    0.3634 C   0  0  0  0  0  0  0  0  0  0  0  0
    2.0366    1.0980   -0.2512 C   0  0  0  0  0  0  0  0  0  0  0  0
    0.5312    3.0957    0.5585 C   0  0  0  0  0  0  0  0  0  0  0  0
    1.3071    3.8667    0.3652 H   0  0  0  0  0  0  0  0  0  0  0  0
    0.0719    3.3632    1.5306 H   0  0  0  0  0  0  0  0  0  0  0  0
   -0.5305    3.0958   -0.5587 C   0  0  0  0  0  0  0  0  0  0  0  0
   -1.3062    3.8671   -0.3657 H   0  0  0  0  0  0  0  0  0  0  0  0
   -0.0711    3.3629   -1.5309 H   0  0  0  0  0  0  0  0  0  0  0  0
   -1.1668    1.7381   -0.6975 C   0  0  0  0  0  0  0  0  0  0  0  0
   -1.0234    0.8711   -1.8189 C   0  0  0  0  0  3  0  0  0  0  0  0
   -0.4046    1.0696   -2.7033 H   0  0  0  0  0  0  0  0  0  0  0  0
   -1.8757   -0.2603   -1.6270 C   0  0  0  0  0  0  0  0  0  0  0  0
   -2.1916   -1.3715   -2.5814 C   0  0  0  0  0  0  0  0  0  0  0  0
   -1.2651   -1.7079   -3.0888 H   0  0  0  0  0  0  0  0  0  0  0  0
   -2.8634   -0.9655   -3.3727 H   0  0  0  0  0  0  0  0  0  0  0  0
   -2.8819   -2.5309   -1.8532 C   0  0  0  0  0  0  0  0  0  0  0  0
   -2.1361   -3.0376   -1.2036 H   0  0  0  0  0  0  0  0  0  0  0  0
   -3.2403   -3.2817   -2.5865 H   0  0  0  0  0  0  0  0  0  0  0  0
   -4.0462   -2.0162   -0.9972 C   0  0  0  0  0  0  0  0  0  0  0  0
   -4.6045   -2.8621   -0.5467 H   0  0  0  0  0  0  0  0  0  0  0  0
   -4.7672   -1.4806   -1.6549 H   0  0  0  0  0  0  0  0  0  0  0  0
   -3.5646   -1.0741    0.1211 C   0  0  0  0  0  0  0  0  0  0  0  0
   -4.4205   -0.5103    0.5469 H   0  0  0  0  0  0  0  0  0  0  0  0
   -3.1364   -1.6685    0.9584 H   0  0  0  0  0  0  0  0  0  0  0  0
   -2.5158   -0.1142   -0.3631 C   0  0  0  0  0  0  0  0  0  0  0  0
   -2.0363    1.0984    0.2514 C   0  0  0  0  0  0  0  0  0  0  0  0
    2.5646    1.7755   -1.5022 C   0  0  0  0  0  0  0  0  0  0  0  0
    1.8103    2.5355   -1.7948 H   0  0  0  0  0  0  0  0  0  0  0  0
    3.8583    2.5412   -1.1541 C   0  0  0  0  0  0  0  0  0  0  0  0
    4.2272    3.1110   -2.0317 H   0  0  0  0  0  0  0  0  0  0  0  0
    4.6605    1.8405   -0.8445 H   0  0  0  0  0  0  0  0  0  0  0  0
    3.6993    3.2543   -0.3206 H   0  0  0  0  0  0  0  0  0  0  0  0
    2.7727    0.8618   -2.7183 C   0  0  0  0  0  0  0  0  0  0  0  0
    2.9994    1.4713   -3.6165 H   0  0  0  0  0  0  0  0  0  0  0  0
    1.8806    0.2393   -2.9200 H   0  0  0  0  0  0  0  0  0  0  0  0
    3.6220    0.1672   -2.5693 H   0  0  0  0  0  0  0  0  0  0  0  0
   -2.5635    1.7757    1.5028 C   0  0  0  0  0  0  0  0  0  0  0  0
   -1.8087    2.5353    1.7956 H   0  0  0  0  0  0  0  0  0  0  0  0
   -3.8569    2.5422    1.1556 C   0  0  0  0  0  0  0  0  0  0  0  0
   -4.2252    3.1118    2.0336 H   0  0  0  0  0  0  0  0  0  0  0  0
   -4.6595    1.8421    0.8458 H   0  0  0  0  0  0  0  0  0  0  0  0
   -3.6978    3.2557    0.3223 H   0  0  0  0  0  0  0  0  0  0  0  0
   -2.7717    0.8615    2.7187 C   0  0  0  0  0  0  0  0  0  0  0  0
   -2.9970    1.4708    3.6174 H   0  0  0  0  0  0  0  0  0  0  0  0
   -1.8801    0.2379    2.9193 H   0  0  0  0  0  0  0  0  0  0  0  0
   -3.6219    0.1680    2.5698 H   0  0  0  0  0  0  0  0  0  0  0  0
  1  2  1  0  0  0  0
  2  3  1  0  0  0  0
  4  2  1  0  0  0  0
  4  5  1  0  0  0  0
  5  6  1  0  0  0  0
  5  7  1  0  0  0  0
  8  5  1  0  0  0  0
  8 10  1  0  0  0  0
  9  8  1  0  0  0  0
 11 13  1  0  0  0  0
 11  8  1  0  0  0  0
 12 11  1  0  0  0  0
 14 17  1  0  0  0  0
 14 11  1  0  0  0  0
 15 14  1  0  0  0  0
 16 14  1  0  0  0  0
 17  4  2  0  0  0  0
 18 17  1  0  0  0  0
 18  1  2  0  0  0  0
 19  1  1  0  0  0  0
 19 21  1  0  0  0  0
 20 19  1  0  0  0  0
 22 23  1  0  0  0  0
 22 19  1  0  0  0  0
 24 22  1  0  0  0  0
 25 22  1  0  0  0  0
 25 42  2  0  0  0  0
 26 28  1  0  0  0  0
 26 25  1  0  0  0  0
 27 26  1  0  0  0  0
 28 41  2  0  0  0  0
 29 32  1  0  0  0  0
 29 28  1  0  0  0  0
 30 29  1  0  0  0  0
 31 29  1  0  0  0  0
 32 33  1  0  0  0  0
 32 35  1  0  0  0  0
 34 32  1  0  0  0  0
 35 36  1  0  0  0  0
 35 38  1  0  0  0  0
 37 35  1  0  0  0  0
 38 39  1  0  0  0  0
 38 40  1  0  0  0  0
 41 38  1  0  0  0  0
 41 42  1  0  0  0  0
 42 53  1  0  0  0  0
 43 45  1  0  0  0  0
 43 18  1  0  0  0  0
 44 43  1  0  0  0  0
 45 47  1  0  0  0  0
 45 48  1  0  0  0  0
 46 45  1  0  0  0  0
 49 52  1  0  0  0  0
 49 43  1  0  0  0  0
 50 49  1  0  0  0  0
 51 49  1  0  0  0  0
 53 54  1  0  0  0  0
 53 59  1  0  0  0  0
 55 53  1  0  0  0  0
 55 56  1  0  0  0  0
 57 55  1  0  0  0  0
 58 55  1  0  0  0  0
 59 61  1  0  0  0  0
 59 60  1  0  0  0  0
 62 59  1  0  0  0  0
M  END
