2,10
q = 0.0, confidence = 0.994

 30 31  0  0  1  0  0  0  0  0999 V2000
   -1.3958    1.5040    0.1690 C   0  0  1  0  0  3  0  0  0  0  0  0
   -0.9049    1.6053   -1.1652 C   0  0  0  0  0  3  0  0  0  0  0  0
   -1.3786    0.9319   -1.8989 H   0  0  0  0  0  0  0  0  0  0  0  0
   -0.2241    2.8414   -1.7409 C   0  0  0  0  0  0  0  0  0  0  0  0
   -0.5812    3.7447   -1.2078 H   0  0  0  0  0  0  0  0  0  0  0  0
   -0.5503    2.9627   -2.7926 H   0  0  0  0  0  0  0  0  0  0  0  0
    1.3162    2.7519   -1.7016 C   0  0  0  0  0  0  0  0  0  0  0  0
    1.6760    2.2106   -2.5998 H   0  0  0  0  0  0  0  0  0  0  0  0
    1.7752    3.7659   -1.7525 H   0  0  0  0  0  0  0  0  0  0  0  0
    1.8471    2.0180   -0.4909 C   0  0  0  0  0  3  0  0  0  0  0  0
    2.8508    1.5750   -0.6112 H   0  0  0  0  0  0  0  0  0  0  0  0
    1.3724    2.1549    0.8362 C   0  0  0  0  0  3  0  0  0  0  0  0
    2.0374    1.7789    1.6317 H   0  0  0  0  0  0  0  0  0  0  0  0
    0.3022    3.1503    1.2475 C   0  0  0  0  0  0  0  0  0  0  0  0
    0.3530    4.0412    0.5903 H   0  0  0  0  0  0  0  0  0  0  0  0
    0.5276    3.5161    2.2685 H   0  0  0  0  0  0  0  0  0  0  0  0
   -1.1112    2.5437    1.2461 C   0  0  0  0  0  0  0  0  0  0  0  0
   -1.2991    2.0585    2.2239 H   0  0  0  0  0  0  0  0  0  0  0  0
   -1.8885    3.3376    1.1659 H   0  0  0  0  0  0  0  0  0  0  0  0
   -2.5885    0.6528    0.4654 C   0  0  0  0  0  0  0  0  0  0  0  0
   -3.6422    0.5523   -0.4675 C   0  0  0  0  0  0  0  0  0  0  0  0
   -3.5728    1.0915   -1.4236 H   0  0  0  0  0  0  0  0  0  0  0  0
   -4.7807   -0.2144   -0.1824 C   0  0  0  0  0  0  0  0  0  0  0  0
   -5.5934   -0.2786   -0.9215 H   0  0  0  0  0  0  0  0  0  0  0  0
   -4.8820   -0.8979    1.0380 C   0  0  0  0  0  0  0  0  0  0  0  0
   -5.7714   -1.5072    1.2586 H   0  0  0  0  0  0  0  0  0  0  0  0
   -3.8412   -0.8027    1.9773 C   0  0  0  0  0  0  0  0  0  0  0  0
   -3.9061   -1.3481    2.9307 H   0  0  0  0  0  0  0  0  0  0  0  0
   -2.7108   -0.0287    1.6972 C   0  0  0  0  0  0  0  0  0  0  0  0
   -1.8830    0.0054    2.4217 H   0  0  0  0  0  0  0  0  0  0  0  0
  1 20  1  6  0  0  0
  1 17  1  0  0  0  0
  2  1  1  0  0  0  0
  3  2  1  0  0  0  0
  4  7  1  0  0  0  0
  4  5  1  0  0  0  0
  4  2  1  0  0  0  0
  6  4  1  0  0  0  0
  7 10  1  0  0  0  0
  8  7  1  0  0  0  0
  9  7  1  0  0  0  0
 10 12  1  0  0  0  0
 11 10  1  0  0  0  0
 12 14  1  0  0  0  0
 12 13  1  0  0  0  0
 14 16  1  0  0  0  0
 15 14  1  0  0  0  0
 17 14  1  0  0  0  0
 17 18  1  0  0  0  0
 19 17  1  0  0  0  0
 20 29  1  0  0  0  0
 21 23  1  0  0  0  0
 21 20  2  0  0  0  0
 22 21  1  0  0  0  0
 23 25  2  0  0  0  0
 24 23  1  0  0  0  0
 25 26  1  0  0  0  0
 25 27  1  0  0  0  0
 27 28  1  0  0  0  0
 29 27  2  0  0  0  0
 29 30  1  0  0  0  0
M  END
