3,26
q = -2.0, confidence = 0.948

 56 56  0  0  1  0  0  0  0  0999 V2000
    4.5640    1.0077    0.2462 Si  0  0  0  0  0  0  0  0  0  0  0  0
    1.5494   -2.1664   -0.7488 Si  0  0  0  0  0  0  0  0  0  0  0  0
   -0.1173    2.0147   -0.1177 C   0  0  2  0  0  3  0  0  0  0  0  0
   -1.3588    2.4183    0.4591 C   0  0  2  0  0  3  0  0  0  0  0  0
   -2.3626    2.3191   -0.5654 C   0  0  0  0  0  0  0  0  0  0  0  0
   -1.7143    1.9349   -1.7796 C   0  0  0  0  0  0  0  0  0  0  0  0
   -0.3264    1.7433   -1.5129 C   0  0  1  0  0  3  0  0  0  0  0  0
    1.1734    1.8274    0.6143 C   0  0  0  0  0  0  0  0  0  0  0  0
   -1.4844    3.1389    1.7688 C   0  0  0  0  0  0  0  0  0  0  0  0
   -1.0058    2.6062    2.6106 H   0  0  0  0  0  0  0  0  0  0  0  0
   -2.5351    3.3370    2.0425 H   0  0  0  0  0  0  0  0  0  0  0  0
   -0.9777    4.1245    1.6857 H   0  0  0  0  0  0  0  0  0  0  0  0
   -3.7824    2.8031   -0.5206 C   0  0  0  0  0  0  0  0  0  0  0  0
   -3.9382    3.5916   -1.2872 H   0  0  0  0  0  0  0  0  0  0  0  0
   -4.0464    3.2458    0.4573 H   0  0  0  0  0  0  0  0  0  0  0  0
   -4.5145    2.0006   -0.7429 H   0  0  0  0  0  0  0  0  0  0  0  0
   -2.3733    1.9048   -3.1214 C   0  0  0  0  0  0  0  0  0  0  0  0
   -2.4481    2.9382   -3.5278 H   0  0  0  0  0  0  0  0  0  0  0  0
   -3.3983    1.4900   -3.0697 H   0  0  0  0  0  0  0  0  0  0  0  0
   -1.8035    1.2929   -3.8437 H   0  0  0  0  0  0  0  0  0  0  0  0
    0.7011    1.4402   -2.5552 C   0  0  0  0  0  0  0  0  0  0  0  0
    0.3659    0.6104   -3.2084 H   0  0  0  0  0  0  0  0  0  0  0  0
    1.6621    1.1464   -2.1041 H   0  0  0  0  0  0  0  0  0  0  0  0
    0.8739    2.3296   -3.1990 H   0  0  0  0  0  0  0  0  0  0  0  0
    1.6191    0.3745    0.4958 C   0  0  2  0  0  3  0  0  0  0  0  0
    0.7570   -0.5745   -0.0101 C   0  0  0  0  0  2  0  0  0  0  0  0
    3.0114    0.1614    0.9892 C   0  0  0  0  0  0  0  0  0  0  0  0
    3.2183   -0.5634    2.1157 C   0  0  0  0  0  0  0  0  0  0  0  0
    5.1936    2.2805    1.5028 C   0  0  0  0  0  0  0  0  0  0  0  0
    5.4016    1.7998    2.4803 H   0  0  0  0  0  0  0  0  0  0  0  0
    4.4373    3.0741    1.6734 H   0  0  0  0  0  0  0  0  0  0  0  0
    6.1270    2.7668    1.1504 H   0  0  0  0  0  0  0  0  0  0  0  0
    4.2774    1.8946   -1.4038 C   0  0  0  0  0  0  0  0  0  0  0  0
    5.2374    2.3498   -1.7257 H   0  0  0  0  0  0  0  0  0  0  0  0
    3.5301    2.7097   -1.3348 H   0  0  0  0  0  0  0  0  0  0  0  0
    3.9531    1.2013   -2.2045 H   0  0  0  0  0  0  0  0  0  0  0  0
    5.8797   -0.3285   -0.0263 C   0  0  0  0  0  0  0  0  0  0  0  0
    5.5349   -1.0718   -0.7737 H   0  0  0  0  0  0  0  0  0  0  0  0
    6.1101   -0.8740    0.9109 H   0  0  0  0  0  0  0  0  0  0  0  0
    6.8231    0.1213   -0.3997 H   0  0  0  0  0  0  0  0  0  0  0  0
    2.5364   -1.5988   -2.2764 C   0  0  0  0  0  0  0  0  0  0  0  0
    3.0915   -2.4648   -2.6939 H   0  0  0  0  0  0  0  0  0  0  0  0
    3.2740   -0.8136   -2.0201 H   0  0  0  0  0  0  0  0  0  0  0  0
    1.8724   -1.2041   -3.0699 H   0  0  0  0  0  0  0  0  0  0  0  0
    0.3856   -3.5060   -1.4197 C   0  0  0  0  0  0  0  0  0  0  0  0
    0.9927   -4.1314   -2.1079 H   0  0  0  0  0  0  0  0  0  0  0  0
   -0.4644   -3.0856   -1.9869 H   0  0  0  0  0  0  0  0  0  0  0  0
   -0.0094   -4.1806   -0.6362 H   0  0  0  0  0  0  0  0  0  0  0  0
    2.8120   -3.1454    0.3043 C   0  0  0  0  0  0  0  0  0  0  0  0
    2.4381   -3.4023    1.3146 H   0  0  0  0  0  0  0  0  0  0  0  0
    3.7645   -2.5970    0.4250 H   0  0  0  0  0  0  0  0  0  0  0  0
    3.0239   -4.0975   -0.2284 H   0  0  0  0  0  0  0  0  0  0  0  0
    1.9695    2.4961    0.2138 H   0  0  0  0  0  0  0  0  0  0  0  0
    1.0713    2.1193    1.6822 H   0  0  0  0  0  0  0  0  0  0  0  0
    4.2242   -0.7241    2.5423 H   0  0  0  0  0  0  0  0  0  0  0  0
    2.3814   -1.0377    2.6581 H   0  0  0  0  0  0  0  0  0  0  0  0
  1 27  1  0  0  0  0
  1 29  1  0  0  0  0
  2 26  1  0  0  0  0
  2 49  1  0  0  0  0
  3  4  1  0  0  0  0
  3  8  1  1  0  0  0
  4  9  1  6  0  0  0
  5 13  1  0  0  0  0
  5  4  1  0  0  0  0
  6  7  1  0  0  0  0
  6  5  2  0  0  0  0
  7 21  1  6  0  0  0
  7  3  1  0  0  0  0
  8 54  1  0  0  0  0
  9 11  1  0  0  0  0
  9 10  1  0  0  0  0
 12  9  1  0  0  0  0
 13 15  1  0  0  0  0
 14 13  1  0  0  0  0
 16 13  1  0  0  0  0
 17 19  1  0  0  0  0
 17  6  1  0  0  0  0
 18 17  1  0  0  0  0
 20 17  1  0  0  0  0
 21 23  1  0  0  0  0
 22 21  1  0  0  0  0
 24 21  1  0  0  0  0
 25 26  1  1  0  0  0
 25  8  1  0  0  0  0
 25 27  1  0  0  0  0
 27 28  2  0  0  0  0
 28 55  1  0  0  0  0
 28 56  1  0  0  0  0
 29 31  1  0  0  0  0
 29 30  1  0  0  0  0
 32 29  1  0  0  0  0
 33 35  1  0  0  0  0
 33  1  1  0  0  0  0
 34 33  1  0  0  0  0
 36 33  1  0  0  0  0
 37  1  1  0  0  0  0
 37 39  1  0  0  0  0
 38 37  1  0  0  0  0
 40 37  1  0  0  0  0
 41 43  1  0  0  0  0
 41  2  1  0  0  0  0
 42 41  1  0  0  0  0
 44 41  1  0  0  0  0
 45  2  1  0  0  0  0
 45 48  1  0  0  0  0
 46 45  1  0  0  0  0
 47 45  1  0  0  0  0
 49 51  1  0  0  0  0
 49 50  1  0  0  0  0
 52 49  1  0  0  0  0
 53  8  1  0  0  0  0
M  END
