5,7
q = 0.0, confidence = 0.98

 40 42  0  0  1  0  0  0  0  0999 V2000
   -0.1716   -0.7443   -2.3813 S   0  0  0  0  0  0  0  0  0  0  0  0
   -1.7572   -2.6155   -0.8744 N   0  0  0  0  0  0  0  0  0  0  0  0
   -1.5250   -1.2386   -1.0523 C   0  0  1  0  0  0  0  0  0  0  0  0
   -1.1797   -0.4082    0.1692 C   0  0  2  0  0  3  0  0  0  0  0  0
    0.1238   -0.4258    0.7276 C   0  0  0  0  0  3  0  0  0  0  0  0
    1.3337   -0.6845   -0.0065 C   0  0  1  0  0  3  0  0  0  0  0  0
    1.3044   -0.7387   -1.4222 C   0  0  0  0  0  3  0  0  0  0  0  0
   -0.7567   -3.4153   -0.1886 C   0  0  0  0  0  0  0  0  0  0  0  0
   -2.3842   -3.2839   -2.0028 C   0  0  0  0  0  0  0  0  0  0  0  0
    2.6369   -0.7539    0.7079 C   0  0  0  0  0  0  0  0  0  0  0  0
    3.7845   -0.0976    0.2124 C   0  0  0  0  0  0  0  0  0  0  0  0
    5.0063   -0.1948    0.8899 C   0  0  0  0  0  0  0  0  0  0  0  0
    5.1016   -0.9407    2.0769 C   0  0  0  0  0  0  0  0  0  0  0  0
    3.9645   -1.5880    2.5830 C   0  0  0  0  0  0  0  0  0  0  0  0
    2.7409   -1.4961    1.9031 C   0  0  0  0  0  0  0  0  0  0  0  0
   -2.3219    0.0303    1.0182 C   0  0  0  0  0  0  0  0  0  0  0  0
   -2.1779    1.1067    1.9264 C   0  0  0  0  0  0  0  0  0  0  0  0
   -3.2422    1.5096    2.7407 C   0  0  0  0  0  0  0  0  0  0  0  0
   -4.4852    0.8595    2.6619 C   0  0  0  0  0  0  0  0  0  0  0  0
   -4.6459   -0.2041    1.7622 C   0  0  0  0  0  0  0  0  0  0  0  0
   -3.5778   -0.6172    0.9525 C   0  0  0  0  0  0  0  0  0  0  0  0
   -2.4024   -0.7904   -1.5597 H   0  0  0  0  0  0  0  0  0  0  0  0
    0.2395   -0.1565    1.7883 H   0  0  0  0  0  0  0  0  0  0  0  0
    2.2339   -0.8616   -1.9979 H   0  0  0  0  0  0  0  0  0  0  0  0
   -2.7622   -4.2772   -1.6903 H   0  0  0  0  0  0  0  0  0  0  0  0
   -1.6774   -3.4351   -2.8559 H   0  0  0  0  0  0  0  0  0  0  0  0
   -3.2416   -2.6847   -2.3693 H   0  0  0  0  0  0  0  0  0  0  0  0
    3.7028    0.5257   -0.6908 H   0  0  0  0  0  0  0  0  0  0  0  0
    5.8889    0.3323    0.4973 H   0  0  0  0  0  0  0  0  0  0  0  0
    6.0611   -1.0092    2.6113 H   0  0  0  0  0  0  0  0  0  0  0  0
    4.0290   -2.1720    3.5136 H   0  0  0  0  0  0  0  0  0  0  0  0
    1.8545   -2.0179    2.2958 H   0  0  0  0  0  0  0  0  0  0  0  0
   -1.2278    1.6585    1.9660 H   0  0  0  0  0  0  0  0  0  0  0  0
   -3.1039    2.3556    3.4311 H   0  0  0  0  0  0  0  0  0  0  0  0
   -5.3242    1.1847    3.2952 H   0  0  0  0  0  0  0  0  0  0  0  0
   -5.6116   -0.7279    1.6932 H   0  0  0  0  0  0  0  0  0  0  0  0
   -3.7065   -1.4834    0.2881 H   0  0  0  0  0  0  0  0  0  0  0  0
   -0.4397   -2.9144    0.7439 H   0  0  0  0  0  0  0  0  0  0  0  0
    0.1515   -3.5941   -0.8144 H   0  0  0  0  0  0  0  0  0  0  0  0
   -1.1954   -4.3977    0.0751 H   0  0  0  0  0  0  0  0  0  0  0  0
  1  7  1  0  0  0  0
  1  3  1  0  0  0  0
  2  8  1  0  0  0  0
  3 22  1  6  0  0  0
  3  2  1  0  0  0  0
  3  4  1  0  0  0  0
  4  5  1  0  0  0  0
  4 16  1  1  0  0  0
  5 23  1  0  0  0  0
  6 10  1  6  0  0  0
  6  5  1  0  0  0  0
  7  6  1  0  0  0  0
  8 40  1  0  0  0  0
  8 38  1  0  0  0  0
  9 25  1  0  0  0  0
  9  2  1  0  0  0  0
 10 15  1  0  0  0  0
 11 10  2  0  0  0  0
 11 12  1  0  0  0  0
 12 13  2  0  0  0  0
 13 14  1  0  0  0  0
 13 30  1  0  0  0  0
 14 31  1  0  0  0  0
 15 32  1  0  0  0  0
 15 14  2  0  0  0  0
 16 17  1  0  0  0  0
 17 33  1  0  0  0  0
 17 18  2  0  0  0  0
 18 34  1  0  0  0  0
 19 18  1  0  0  0  0
 19 35  1  0  0  0  0
 20 19  2  0  0  0  0
 21 16  2  0  0  0  0
 21 20  1  0  0  0  0
 24  7  1  0  0  0  0
 26  9  1  0  0  0  0
 27  9  1  0  0  0  0
 28 11  1  0  0  0  0
 29 12  1  0  0  0  0
 36 20  1  0  0  0  0
 37 21  1  0  0  0  0
 39  8  1  0  0  0  0
M  END
