12,37
q = -2.0, confidence = 0.682

 50 51  0  0  1  0  0  0  0  0999 V2000
    0.1602   -3.6359   -0.3100 O   0  0  0  0  0  0  0  0  0  0  0  0
   -0.2570   -2.6415    1.6762 O   0  0  0  0  0  0  0  0  0  0  0  0
   -3.0209   -2.7538    0.8274 O   0  0  0  0  0  0  0  0  0  0  0  0
   -3.9269   -0.7323    1.2721 O   0  0  0  0  0  0  0  0  0  0  0  0
   -0.0132   -3.8980    2.3093 C   0  0  0  0  0  0  0  0  0  0  0  0
   -0.8190   -4.6159    2.0542 H   0  0  0  0  0  0  0  0  0  0  0  0
   -0.0108   -3.6981    3.3960 H   0  0  0  0  0  0  0  0  0  0  0  0
    0.9579   -4.3268    1.9895 H   0  0  0  0  0  0  0  0  0  0  0  0
   -2.0014   -0.7464   -0.0958 C   0  0  2  0  0  0  0  0  0  0  0  0
   -1.5176   -1.3096   -1.4732 C   0  0  0  0  0  0  0  0  0  0  0  0
   -0.2210   -2.6496    0.3165 C   0  0  0  0  0  0  0  0  0  0  0  0
   -0.5923   -1.3406   -0.2874 C   0  0  2  0  0  3  0  0  0  0  0  0
   -3.0019   -1.5384    0.6829 C   0  0  0  0  0  0  0  0  0  0  0  0
   -4.9030   -1.4085    2.0645 C   0  0  0  0  0  0  0  0  0  0  0  0
   -5.4769   -2.1356    1.4547 H   0  0  0  0  0  0  0  0  0  0  0  0
   -5.5726   -0.6242    2.4614 H   0  0  0  0  0  0  0  0  0  0  0  0
   -4.4231   -1.9637    2.8966 H   0  0  0  0  0  0  0  0  0  0  0  0
   -1.2505   -0.3386   -2.6116 C   0  0  0  0  0  0  0  0  0  0  0  0
   -0.8470    0.6323   -2.2801 H   0  0  0  0  0  0  0  0  0  0  0  0
   -2.1775   -0.1579   -3.1929 H   0  0  0  0  0  0  0  0  0  0  0  0
   -0.5081   -0.7962   -3.2996 H   0  0  0  0  0  0  0  0  0  0  0  0
   -2.1417   -2.5970   -1.9948 C   0  0  0  0  0  0  0  0  0  0  0  0
   -1.4553   -3.0675   -2.7273 H   0  0  0  0  0  0  0  0  0  0  0  0
   -3.0900   -2.3560   -2.5192 H   0  0  0  0  0  0  0  0  0  0  0  0
   -2.3564   -3.3312   -1.2023 H   0  0  0  0  0  0  0  0  0  0  0  0
    0.1604    3.6359    0.3100 O   0  0  0  0  0  0  0  0  0  0  0  0
   -0.2568    2.6414   -1.6762 O   0  0  0  0  0  0  0  0  0  0  0  0
   -3.0208    2.7538   -0.8274 O   0  0  0  0  0  0  0  0  0  0  0  0
   -3.9268    0.7324   -1.2722 O   0  0  0  0  0  0  0  0  0  0  0  0
   -0.0130    3.8979   -2.3093 C   0  0  0  0  0  0  0  0  0  0  0  0
   -0.8188    4.6158   -2.0543 H   0  0  0  0  0  0  0  0  0  0  0  0
   -0.0105    3.6980   -3.3960 H   0  0  0  0  0  0  0  0  0  0  0  0
    0.9581    4.3266   -1.9895 H   0  0  0  0  0  0  0  0  0  0  0  0
   -2.0013    0.7464    0.0959 C   0  0  1  0  0  0  0  0  0  0  0  0
   -1.5176    1.3096    1.4732 C   0  0  0  0  0  0  0  0  0  0  0  0
   -0.2209    2.6496   -0.3166 C   0  0  0  0  0  0  0  0  0  0  0  0
   -0.5922    1.3406    0.2874 C   0  0  2  0  0  3  0  0  0  0  0  0
   -3.0019    1.5385   -0.6829 C   0  0  0  0  0  0  0  0  0  0  0  0
   -4.9029    1.4086   -2.0646 C   0  0  0  0  0  0  0  0  0  0  0  0
   -5.4768    2.1357   -1.4549 H   0  0  0  0  0  0  0  0  0  0  0  0
   -5.5724    0.6244   -2.4615 H   0  0  0  0  0  0  0  0  0  0  0  0
   -4.4229    1.9638   -2.8967 H   0  0  0  0  0  0  0  0  0  0  0  0
   -1.2504    0.3387    2.6116 C   0  0  0  0  0  0  0  0  0  0  0  0
   -0.8470   -0.6323    2.2802 H   0  0  0  0  0  0  0  0  0  0  0  0
   -2.1775    0.1580    3.1930 H   0  0  0  0  0  0  0  0  0  0  0  0
   -0.5080    0.7962    3.2996 H   0  0  0  0  0  0  0  0  0  0  0  0
   -2.1416    2.5971    1.9948 C   0  0  0  0  0  0  0  0  0  0  0  0
   -1.4551    3.0676    2.7273 H   0  0  0  0  0  0  0  0  0  0  0  0
   -3.0899    2.3561    2.5192 H   0  0  0  0  0  0  0  0  0  0  0  0
   -2.3563    3.3313    1.2023 H   0  0  0  0  0  0  0  0  0  0  0  0
  1 11  2  0  0  0  0
  2  5  1  0  0  0  0
  4 14  1  0  0  0  0
  5  7  1  0  0  0  0
  6  5  1  0  0  0  0
  8  5  1  0  0  0  0
  9 34  1  0  0  0  0
  9 13  1  1  0  0  0
 10 12  1  0  0  0  0
 10  9  1  0  0  0  0
 11  2  1  0  0  0  0
 12  9  1  0  0  0  0
 12 11  1  1  0  0  0
 13  3  2  0  0  0  0
 13  4  1  0  0  0  0
 14 16  1  0  0  0  0
 14 17  1  0  0  0  0
 15 14  1  0  0  0  0
 18 19  1  0  0  0  0
 18 10  1  0  0  0  0
 20 18  1  0  0  0  0
 21 18  1  0  0  0  0
 22 10  1  0  0  0  0
 22 25  1  0  0  0  0
 23 22  1  0  0  0  0
 24 22  1  0  0  0  0
 27 36  1  0  0  0  0
 28 38  2  0  0  0  0
 29 38  1  0  0  0  0
 30 31  1  0  0  0  0
 30 33  1  0  0  0  0
 30 27  1  0  0  0  0
 32 30  1  0  0  0  0
 34 38  1  6  0  0  0
 34 37  1  0  0  0  0
 34 35  1  0  0  0  0
 35 47  1  0  0  0  0
 35 43  1  0  0  0  0
 36 26  2  0  0  0  0
 37 36  1  6  0  0  0
 37 35  1  0  0  0  0
 39 40  1  0  0  0  0
 39 29  1  0  0  0  0
 41 39  1  0  0  0  0
 42 39  1  0  0  0  0
 43 45  1  0  0  0  0
 43 46  1  0  0  0  0
 44 43  1  0  0  0  0
 47 49  1  0  0  0  0
 47 48  1  0  0  0  0
 50 47  1  0  0  0  0
M  END
