3,34
q = -1.0

 42 46  0  0  0  0  0  0  0  0999 V2000
   -0.7511    2.4748   -0.9937 N   0  0  0  0  0  0  0  0  0  0  0  0
   -2.6921    2.0836   -1.8771 N   0  0  0  0  0  0  0  0  0  0  0  0
    0.1527   -0.1847   -0.1248 C   0  0  0  0  0  3  0  0  0  0  0  0
    0.7743   -1.4323   -0.2433 C   0  0  0  0  0  0  0  0  0  0  0  0
    0.1529   -2.3371   -0.3380 H   0  0  0  0  0  0  0  0  0  0  0  0
    2.1847   -1.5917   -0.3036 C   0  0  0  0  0  0  0  0  0  0  0  0
    2.7562   -2.8825   -0.5501 C   0  0  0  0  0  0  0  0  0  0  0  0
    2.0805   -3.7474   -0.6375 H   0  0  0  0  0  0  0  0  0  0  0  0
    4.1084   -3.0209   -0.7453 C   0  0  0  0  0  0  0  0  0  0  0  0
    4.5401   -3.9984   -1.0118 H   0  0  0  0  0  0  0  0  0  0  0  0
    4.9997   -1.9085   -0.5863 C   0  0  0  0  0  0  0  0  0  0  0  0
    6.4005   -2.0869   -0.8313 C   0  0  0  0  0  0  0  0  0  0  0  0
    6.7439   -3.0734   -1.1802 H   0  0  0  0  0  0  0  0  0  0  0  0
    7.2923   -1.0551   -0.6667 C   0  0  0  0  0  0  0  0  0  0  0  0
    8.3603   -1.1876   -0.8993 H   0  0  0  0  0  0  0  0  0  0  0  0
    6.8572    0.1934   -0.1173 C   0  0  0  0  0  0  0  0  0  0  0  0
    7.8014    1.2119    0.1916 C   0  0  0  0  0  0  0  0  0  0  0  0
    8.8556    1.0443   -0.0803 H   0  0  0  0  0  0  0  0  0  0  0  0
    7.4222    2.3724    0.8528 C   0  0  0  0  0  0  0  0  0  0  0  0
    8.1668    3.1466    1.0922 H   0  0  0  0  0  0  0  0  0  0  0  0
    6.0770    2.5233    1.2633 C   0  0  0  0  0  0  0  0  0  0  0  0
    5.7794    3.3996    1.8596 H   0  0  0  0  0  0  0  0  0  0  0  0
    5.1279    1.5581    0.9411 C   0  0  0  0  0  0  0  0  0  0  0  0
    4.1073    1.6743    1.3244 H   0  0  0  0  0  0  0  0  0  0  0  0
    5.4599    0.3921    0.1890 C   0  0  0  0  0  0  0  0  0  0  0  0
    4.4934   -0.6304   -0.1919 C   0  0  0  0  0  0  0  0  0  0  0  0
    3.0499   -0.4432   -0.1925 C   0  0  0  0  0  0  0  0  0  0  0  0
    2.4028    0.8241   -0.1933 C   0  0  0  0  0  0  0  0  0  0  0  0
    3.0087    1.7362   -0.2779 H   0  0  0  0  0  0  0  0  0  0  0  0
    1.0137    0.9549   -0.1593 C   0  0  0  0  0  0  0  0  0  0  0  0
    0.4167    2.3419   -0.1238 C   0  0  0  0  0  0  0  0  0  0  0  0
    0.0931    2.5933    0.9104 H   0  0  0  0  0  0  0  0  0  0  0  0
    1.1586    3.1013   -0.4355 H   0  0  0  0  0  0  0  0  0  0  0  0
   -1.7827    1.5733   -0.9804 C   0  0  0  0  0  2  0  0  0  0  0  0
   -1.0013    3.5200   -1.8689 C   0  0  0  0  0  0  0  0  0  0  0  0
   -0.2898    4.3351   -2.0295 H   0  0  0  0  0  0  0  0  0  0  0  0
   -2.2292    3.2742   -2.4253 C   0  0  0  0  0  0  0  0  0  0  0  0
   -2.8018    3.8319   -3.1719 H   0  0  0  0  0  0  0  0  0  0  0  0
   -3.9822    1.4879   -2.1900 C   0  0  0  0  0  0  0  0  0  0  0  0
   -4.7658    1.8644   -1.5022 H   0  0  0  0  0  0  0  0  0  0  0  0
   -4.2573    1.7461   -3.2295 H   0  0  0  0  0  0  0  0  0  0  0  0
   -3.8918    0.3875   -2.1014 H   0  0  0  0  0  0  0  0  0  0  0  0
  1 34  1  0  0  0  0
  1 31  1  0  0  0  0
  2 34  1  0  0  0  0
  4  3  2  0  0  0  0
  5  4  1  0  0  0  0
  6  4  1  0  0  0  0
  6 27  1  0  0  0  0
  7  6  2  0  0  0  0
  8  7  1  0  0  0  0
  9 11  2  0  0  0  0
  9  7  1  0  0  0  0
 10  9  1  0  0  0  0
 11 26  1  0  0  0  0
 12 14  2  0  0  0  0
 12 11  1  0  0  0  0
 13 12  1  0  0  0  0
 14 16  1  0  0  0  0
 15 14  1  0  0  0  0
 16 25  2  0  0  0  0
 16 17  1  0  0  0  0
 17 19  2  0  0  0  0
 18 17  1  0  0  0  0
 19 20  1  0  0  0  0
 19 21  1  0  0  0  0
 21 22  1  0  0  0  0
 23 21  2  0  0  0  0
 23 24  1  0  0  0  0
 25 23  1  0  0  0  0
 26 25  1  0  0  0  0
 27 26  2  0  0  0  0
 28 27  1  0  0  0  0
 28 30  2  0  0  0  0
 29 28  1  0  0  0  0
 30  3  1  0  0  0  0
 30 31  1  0  0  0  0
 31 32  1  0  0  0  0
 33 31  1  0  0  0  0
 35  1  1  0  0  0  0
 36 35  1  0  0  0  0
 37  2  1  0  0  0  0
 37 35  2  0  0  0  0
 38 37  1  0  0  0  0
 39 42  1  0  0  0  0
 39  2  1  0  0  0  0
 39 40  1  0  0  0  0
 41 39  1  0  0  0  0
M  END
