3,7
q = -1.0

 39 40  0  0  1  0  0  0  0  0999 V2000
   -1.8758   -0.6415    0.1079 N   0  0  0  0  0  0  0  0  0  0  0  0
    3.2376   -0.6626   -0.2976 O   0  0  0  0  0  0  0  0  0  0  0  0
    2.0377   -0.5203   -0.0938 C   0  0  0  0  0  3  0  0  0  0  0  0
    1.3946    0.8656   -0.0923 C   0  0  1  0  0  3  0  0  0  0  0  0
    0.0293    0.7806   -0.0626 C   0  0  0  0  0  0  0  0  0  0  0  0
   -0.6145    1.6730   -0.1123 H   0  0  0  0  0  0  0  0  0  0  0  0
   -0.5233   -0.5648    0.0582 C   0  0  0  0  0  3  0  0  0  0  0  0
    2.1467    2.1290   -0.0903 C   0  0  0  0  0  0  0  0  0  0  0  0
    1.5563    3.3129    0.4237 C   0  0  0  0  0  0  0  0  0  0  0  0
    0.5493    3.2679    0.8648 H   0  0  0  0  0  0  0  0  0  0  0  0
    2.2464    4.5289    0.4073 C   0  0  0  0  0  0  0  0  0  0  0  0
    1.7706    5.4329    0.8172 H   0  0  0  0  0  0  0  0  0  0  0  0
    3.5486    4.5934   -0.1188 C   0  0  0  0  0  0  0  0  0  0  0  0
    4.0936    5.5498   -0.1295 H   0  0  0  0  0  0  0  0  0  0  0  0
    4.1522    3.4292   -0.6188 C   0  0  0  0  0  0  0  0  0  0  0  0
    5.1739    3.4710   -1.0263 H   0  0  0  0  0  0  0  0  0  0  0  0
    3.4665    2.2076   -0.6024 C   0  0  0  0  0  0  0  0  0  0  0  0
    3.9364    1.2892   -0.9757 H   0  0  0  0  0  0  0  0  0  0  0  0
   -2.5746   -1.8866    0.3985 C   0  0  0  0  0  0  0  0  0  0  0  0
   -2.8213   -2.4484   -0.5279 H   0  0  0  0  0  0  0  0  0  0  0  0
   -3.5219   -1.6601    0.9243 H   0  0  0  0  0  0  0  0  0  0  0  0
   -1.9195   -2.5180    1.0273 H   0  0  0  0  0  0  0  0  0  0  0  0
   -2.7252    0.5157   -0.0719 C   0  0  0  0  0  0  0  0  0  0  0  0
   -3.1558    1.2244    1.0742 C   0  0  0  0  0  0  0  0  0  0  0  0
   -3.9888    2.3425    0.8773 C   0  0  0  0  0  0  0  0  0  0  0  0
   -4.3323    2.9134    1.7540 H   0  0  0  0  0  0  0  0  0  0  0  0
   -4.3721    2.7366   -0.4120 C   0  0  0  0  0  0  0  0  0  0  0  0
   -5.0230    3.6137   -0.5463 H   0  0  0  0  0  0  0  0  0  0  0  0
   -3.9207    2.0242   -1.5315 C   0  0  0  0  0  0  0  0  0  0  0  0
   -4.2141    2.3425   -2.5438 H   0  0  0  0  0  0  0  0  0  0  0  0
   -3.0849    0.9011   -1.3830 C   0  0  0  0  0  0  0  0  0  0  0  0
   -2.7132    0.8030    2.4519 C   0  0  0  0  0  0  0  0  0  0  0  0
   -1.6175    0.6371    2.4993 H   0  0  0  0  0  0  0  0  0  0  0  0
   -3.1850   -0.1543    2.7601 H   0  0  0  0  0  0  0  0  0  0  0  0
   -2.9844    1.5645    3.2069 H   0  0  0  0  0  0  0  0  0  0  0  0
   -2.5566    0.1461   -2.5756 C   0  0  0  0  0  0  0  0  0  0  0  0
   -1.4484    0.1934   -2.6214 H   0  0  0  0  0  0  0  0  0  0  0  0
   -2.9573    0.5605   -3.5196 H   0  0  0  0  0  0  0  0  0  0  0  0
   -2.8258   -0.9296   -2.5333 H   0  0  0  0  0  0  0  0  0  0  0  0
  1 19  1  0  0  0  0
  2  3  2  0  0  0  0
  4  3  1  1  0  0  0
  4  8  1  0  0  0  0
  4  5  1  0  0  0  0
  5  7  2  0  0  0  0
  6  5  1  0  0  0  0
  7  1  1  0  0  0  0
  8  9  1  0  0  0  0
  9 10  1  0  0  0  0
 11  9  2  0  0  0  0
 11 12  1  0  0  0  0
 13 11  1  0  0  0  0
 14 13  1  0  0  0  0
 15 17  1  0  0  0  0
 15 13  2  0  0  0  0
 16 15  1  0  0  0  0
 17  8  2  0  0  0  0
 18 17  1  0  0  0  0
 19 21  1  0  0  0  0
 19 22  1  0  0  0  0
 20 19  1  0  0  0  0
 23  1  1  0  0  0  0
 23 24  1  0  0  0  0
 24 32  1  0  0  0  0
 25 24  2  0  0  0  0
 25 26  1  0  0  0  0
 27 25  1  0  0  0  0
 28 27  1  0  0  0  0
 29 31  1  0  0  0  0
 29 27  2  0  0  0  0
 30 29  1  0  0  0  0
 31 23  2  0  0  0  0
 32 33  1  0  0  0  0
 32 34  1  0  0  0  0
 32 35  1  0  0  0  0
 36 39  1  0  0  0  0
 36 31  1  0  0  0  0
 37 36  1  0  0  0  0
 38 36  1  0  0  0  0
M  END
