1,4
q = -1.0

 13 13  0  0  1  0  0  0  0  0999 V2000
    3.6457    0.3511   -0.1253 C   0  0  0  0  0  3  0  0  0  0  0  0
    3.2764   -0.3832   -1.3033 C   0  0  0  0  0  0  0  0  0  0  0  0
    2.3646   -1.4128   -0.9218 C   0  0  0  0  0  0  0  0  0  0  0  0
    2.1581   -1.3144    0.4949 C   0  0  0  0  0  3  0  0  0  0  0  0
    2.9551   -0.2254    0.9991 C   0  0  1  0  0  3  0  0  0  0  0  0
    3.0751    0.1681    2.4397 C   0  0  0  0  0  0  0  0  0  0  0  0
    4.3311    1.2059   -0.0830 H   0  0  0  0  0  0  0  0  0  0  0  0
    3.6267   -0.1816   -2.3229 H   0  0  0  0  0  0  0  0  0  0  0  0
    1.8749   -2.1321   -1.5888 H   0  0  0  0  0  0  0  0  0  0  0  0
    1.5444   -1.9884    1.1042 H   0  0  0  0  0  0  0  0  0  0  0  0
    3.3698    1.2290    2.5477 H   0  0  0  0  0  0  0  0  0  0  0  0
    2.1103    0.0201    2.9612 H   0  0  0  0  0  0  0  0  0  0  0  0
    3.8439   -0.4540    2.9439 H   0  0  0  0  0  0  0  0  0  0  0  0
  1  7  1  0  0  0  0
  1  5  1  0  0  0  0
  2  3  2  0  0  0  0
  2  1  1  0  0  0  0
  3  4  1  0  0  0  0
  4  5  1  0  0  0  0
  4 10  1  0  0  0  0
  5  6  1  1  0  0  0
  6 11  1  0  0  0  0
  6 13  1  0  0  0  0
  6 12  1  0  0  0  0
  8  2  1  0  0  0  0
  9  3  1  0  0  0  0
M  END
