2,5
q = -1.0, confidence = 0.0

 36 40  0  0  0  0  0  0  0  0999 V2000
   -1.6834    0.9328   -1.4108 N   0  0  0  0  0  0  0  0  0  0  0  0
   -0.4314   -1.2501   -1.2743 C   0  0  0  0  0  3  0  0  0  0  0  0
   -1.1784   -1.8303   -0.7274 H   0  0  0  0  0  0  0  0  0  0  0  0
   -0.5585    0.1320   -1.6525 C   0  0  0  0  0  3  0  0  0  0  0  0
    0.6197    0.5233   -2.3493 C   0  0  0  0  0  3  0  0  0  0  0  0
    0.8297    1.5106   -2.7679 H   0  0  0  0  0  0  0  0  0  0  0  0
    2.6511   -0.8678   -3.2386 C   0  0  0  0  0  0  0  0  0  0  0  0
    3.1935   -0.0148   -3.6699 H   0  0  0  0  0  0  0  0  0  0  0  0
    3.1292   -2.1646   -3.3552 C   0  0  0  0  0  0  0  0  0  0  0  0
    4.0731   -2.3487   -3.8894 H   0  0  0  0  0  0  0  0  0  0  0  0
    2.4216   -3.2710   -2.7985 C   0  0  0  0  0  0  0  0  0  0  0  0
    2.8296   -4.2846   -2.9272 H   0  0  0  0  0  0  0  0  0  0  0  0
    1.2432   -3.0932   -2.0888 C   0  0  0  0  0  0  0  0  0  0  0  0
    0.7124   -3.9463   -1.6429 H   0  0  0  0  0  0  0  0  0  0  0  0
    0.7317   -1.7754   -1.9408 C   0  0  0  0  0  0  0  0  0  0  0  0
    1.4192   -0.6580   -2.5560 C   0  0  0  0  0  0  0  0  0  0  0  0
   -1.6852    2.3176   -1.1558 C   0  0  0  0  0  0  0  0  0  0  0  0
   -0.6090    3.2157   -1.0437 C   0  0  0  0  0  0  0  0  0  0  0  0
    0.4360    2.8999   -1.1655 H   0  0  0  0  0  0  0  0  0  0  0  0
   -0.9039    4.5486   -0.7210 C   0  0  0  0  0  0  0  0  0  0  0  0
   -0.0739    5.2655   -0.6302 H   0  0  0  0  0  0  0  0  0  0  0  0
   -2.2301    4.9847   -0.5098 C   0  0  0  0  0  0  0  0  0  0  0  0
   -2.4233    6.0386   -0.2606 H   0  0  0  0  0  0  0  0  0  0  0  0
   -3.2976    4.0842   -0.6089 C   0  0  0  0  0  0  0  0  0  0  0  0
   -4.3318    4.4167   -0.4335 H   0  0  0  0  0  0  0  0  0  0  0  0
   -3.0309    2.7408   -0.9309 C   0  0  0  0  0  0  0  0  0  0  0  0
   -3.8753    1.5709   -1.0816 C   0  0  0  0  0  0  0  0  0  0  0  0
   -5.2654    1.3729   -0.9962 C   0  0  0  0  0  0  0  0  0  0  0  0
   -5.9303    2.2145   -0.7502 H   0  0  0  0  0  0  0  0  0  0  0  0
   -5.7869    0.0975   -1.2441 C   0  0  0  0  0  0  0  0  0  0  0  0
   -6.8720   -0.0731   -1.1839 H   0  0  0  0  0  0  0  0  0  0  0  0
   -4.9297   -0.9685   -1.5931 C   0  0  0  0  0  0  0  0  0  0  0  0
   -5.3563   -1.9590   -1.8119 H   0  0  0  0  0  0  0  0  0  0  0  0
   -3.5408   -0.7999   -1.6729 C   0  0  0  0  0  0  0  0  0  0  0  0
   -2.8962   -1.6401   -1.9560 H   0  0  0  0  0  0  0  0  0  0  0  0
   -3.0164    0.4727   -1.3915 C   0  0  0  0  0  0  0  0  0  0  0  0
  1 36  1  0  0  0  0
  1 17  1  0  0  0  0
  2  3  1  0  0  0  0
  4  1  1  0  0  0  0
  4  2  1  0  0  0  0
  5  4  1  0  0  0  0
  6  5  1  0  0  0  0
  7 16  1  0  0  0  0
  8  7  1  0  0  0  0
  9  7  2  0  0  0  0
  9 11  1  0  0  0  0
 10  9  1  0  0  0  0
 11 13  2  0  0  0  0
 12 11  1  0  0  0  0
 13 15  1  0  0  0  0
 13 14  1  0  0  0  0
 15  2  1  0  0  0  0
 16  5  1  0  0  0  0
 16 15  2  0  0  0  0
 17 18  2  0  0  0  0
 17 26  1  0  0  0  0
 18 20  1  0  0  0  0
 19 18  1  0  0  0  0
 20 21  1  0  0  0  0
 20 22  2  0  0  0  0
 22 23  1  0  0  0  0
 24 22  1  0  0  0  0
 24 25  1  0  0  0  0
 26 24  2  0  0  0  0
 27 28  1  0  0  0  0
 27 26  1  0  0  0  0
 28 29  1  0  0  0  0
 30 31  1  0  0  0  0
 30 28  2  0  0  0  0
 32 30  1  0  0  0  0
 33 32  1  0  0  0  0
 34 32  2  0  0  0  0
 34 36  1  0  0  0  0
 35 34  1  0  0  0  0
 36 27  2  0  0  0  0
M  END
