2,5
q = -1.0, confidence = 0.0

 40 44  0  0  0  0  0  0  0  0999 V2000
   -1.1416    1.1463   -1.5556 N   0  0  0  0  0  0  0  0  0  0  0  0
    1.2272    0.7680   -2.3331 C   0  0  0  0  0  3  0  0  0  0  0  0
    1.4707    1.7745   -2.6836 H   0  0  0  0  0  0  0  0  0  0  0  0
   -0.0009    0.3544   -1.7418 C   0  0  0  0  0  3  0  0  0  0  0  0
    0.0886   -1.0428   -1.4190 C   0  0  0  0  0  3  0  0  0  0  0  0
   -0.7002   -1.6507   -0.9720 H   0  0  0  0  0  0  0  0  0  0  0  0
    1.8087   -2.8645   -2.1778 C   0  0  0  0  0  0  0  0  0  0  0  0
    1.2359   -3.7255   -1.8043 H   0  0  0  0  0  0  0  0  0  0  0  0
    3.0407   -3.0228   -2.7948 C   0  0  0  0  0  0  0  0  0  0  0  0
    3.4552   -4.0332   -2.9279 H   0  0  0  0  0  0  0  0  0  0  0  0
    3.7956   -1.9008   -3.2492 C   0  0  0  0  0  0  0  0  0  0  0  0
    4.7792   -2.0710   -3.7117 H   0  0  0  0  0  0  0  0  0  0  0  0
    3.3149   -0.6056   -3.1238 C   0  0  0  0  0  0  0  0  0  0  0  0
    3.8946    0.2582   -3.4784 H   0  0  0  0  0  0  0  0  0  0  0  0
    2.0311   -0.4119   -2.5374 C   0  0  0  0  0  0  0  0  0  0  0  0
    1.2934   -1.5493   -2.0226 C   0  0  0  0  0  0  0  0  0  0  0  0
   -1.1712    2.5161   -1.2552 C   0  0  0  0  0  0  0  0  0  0  0  0
   -0.1272    3.4132   -0.9706 C   0  0  0  0  0  0  0  0  0  0  0  0
    0.9281    3.1059   -0.9735 H   0  0  0  0  0  0  0  0  0  0  0  0
   -0.4754    4.7339   -0.6505 C   0  0  0  0  0  0  0  0  0  0  0  0
    0.3250    5.4556   -0.4281 H   0  0  0  0  0  0  0  0  0  0  0  0
   -1.8254    5.1524   -0.6122 C   0  0  0  0  0  0  0  0  0  0  0  0
   -2.0603    6.1972   -0.3595 H   0  0  0  0  0  0  0  0  0  0  0  0
   -2.8629    4.2546   -0.8891 C   0  0  0  0  0  0  0  0  0  0  0  0
   -3.9134    4.5811   -0.8527 H   0  0  0  0  0  0  0  0  0  0  0  0
   -2.5449    2.9188   -1.2128 C   0  0  0  0  0  0  0  0  0  0  0  0
   -3.3402    1.7570   -1.5297 C   0  0  0  0  0  0  0  0  0  0  0  0
   -4.8250    1.6487   -1.7231 C   0  0  0  0  0  0  0  0  0  0  0  0
   -5.1261    2.2689   -2.5985 H   0  0  0  0  0  0  0  0  0  0  0  0
   -5.3660    2.0861   -0.8547 H   0  0  0  0  0  0  0  0  0  0  0  0
   -5.2592    0.1873   -1.9398 C   0  0  0  0  0  0  0  0  0  0  0  0
   -6.2824    0.1565   -2.3663 H   0  0  0  0  0  0  0  0  0  0  0  0
   -5.3134   -0.3313   -0.9587 H   0  0  0  0  0  0  0  0  0  0  0  0
   -4.2786   -0.5785   -2.8366 C   0  0  0  0  0  0  0  0  0  0  0  0
   -4.6554   -1.6027   -3.0333 H   0  0  0  0  0  0  0  0  0  0  0  0
   -4.2028   -0.0702   -3.8228 H   0  0  0  0  0  0  0  0  0  0  0  0
   -2.8787   -0.6608   -2.2020 C   0  0  0  0  0  0  0  0  0  0  0  0
   -2.8974   -1.3756   -1.3474 H   0  0  0  0  0  0  0  0  0  0  0  0
   -2.1433   -1.0663   -2.9268 H   0  0  0  0  0  0  0  0  0  0  0  0
   -2.4683    0.7019   -1.7362 C   0  0  0  0  0  0  0  0  0  0  0  0
  1 17  1  0  0  0  0
  2  4  1  0  0  0  0
  3  2  1  0  0  0  0
  4  1  1  0  0  0  0
  4  5  1  0  0  0  0
  5  6  1  0  0  0  0
  7 16  1  0  0  0  0
  7  8  1  0  0  0  0
  9  7  2  0  0  0  0
 10  9  1  0  0  0  0
 11 13  2  0  0  0  0
 11  9  1  0  0  0  0
 12 11  1  0  0  0  0
 13 15  1  0  0  0  0
 14 13  1  0  0  0  0
 15  2  1  0  0  0  0
 15 16  2  0  0  0  0
 16  5  1  0  0  0  0
 17 26  2  0  0  0  0
 17 18  1  0  0  0  0
 18 20  2  0  0  0  0
 19 18  1  0  0  0  0
 20 22  1  0  0  0  0
 20 21  1  0  0  0  0
 22 23  1  0  0  0  0
 24 25  1  0  0  0  0
 24 22  2  0  0  0  0
 26 24  1  0  0  0  0
 27 26  1  0  0  0  0
 28 27  1  0  0  0  0
 28 30  1  0  0  0  0
 29 28  1  0  0  0  0
 31 28  1  0  0  0  0
 31 33  1  0  0  0  0
 32 31  1  0  0  0  0
 34 37  1  0  0  0  0
 34 31  1  0  0  0  0
 35 34  1  0  0  0  0
 36 34  1  0  0  0  0
 37 40  1  0  0  0  0
 37 38  1  0  0  0  0
 39 37  1  0  0  0  0
 40  1  1  0  0  0  0
 40 27  2  0  0  0  0
M  END
