1,4
q = -1.0

 35 37  0  0  0  0  0  0  0  0999 V2000
   -0.2690    0.9230    1.4632 C   0  0  0  0  0  3  0  0  0  0  0  0
   -1.0820    1.5025    1.0262 H   0  0  0  0  0  0  0  0  0  0  0  0
   -0.3326   -0.4674    1.8453 C   0  0  0  0  0  3  0  0  0  0  0  0
    0.9507   -0.8044    2.3850 C   0  0  0  0  0  3  0  0  0  0  0  0
    1.2603   -1.7796    2.7677 H   0  0  0  0  0  0  0  0  0  0  0  0
    3.0366    0.6482    3.0306 C   0  0  0  0  0  0  0  0  0  0  0  0
    3.6556   -0.1849    3.3925 H   0  0  0  0  0  0  0  0  0  0  0  0
    3.4794    1.9601    3.0939 C   0  0  0  0  0  0  0  0  0  0  0  0
    4.4727    2.1779    3.5138 H   0  0  0  0  0  0  0  0  0  0  0  0
    2.6724    3.0433    2.6286 C   0  0  0  0  0  0  0  0  0  0  0  0
    3.0587    4.0699    2.7153 H   0  0  0  0  0  0  0  0  0  0  0  0
    1.4283    2.8262    2.0580 C   0  0  0  0  0  0  0  0  0  0  0  0
    0.8170    3.6557    1.6745 H   0  0  0  0  0  0  0  0  0  0  0  0
    0.9485    1.4898    1.9722 C   0  0  0  0  0  0  0  0  0  0  0  0
    1.7373    0.3965    2.5004 C   0  0  0  0  0  0  0  0  0  0  0  0
   -1.5504   -1.3158    1.7709 C   0  0  0  0  0  0  0  0  0  0  0  0
   -1.4879   -2.7186    1.4997 C   0  0  0  0  0  0  0  0  0  0  0  0
   -2.6810   -3.4469    1.3379 C   0  0  0  0  0  0  0  0  0  0  0  0
   -2.6097   -4.5205    1.0990 H   0  0  0  0  0  0  0  0  0  0  0  0
   -3.9484   -2.8607    1.4752 C   0  0  0  0  0  0  0  0  0  0  0  0
   -3.9923   -1.5046    1.8314 C   0  0  0  0  0  0  0  0  0  0  0  0
   -4.9707   -1.0233    1.9894 H   0  0  0  0  0  0  0  0  0  0  0  0
   -2.8358   -0.7229    1.9916 C   0  0  0  0  0  0  0  0  0  0  0  0
   -0.1933   -3.4832    1.3787 C   0  0  0  0  0  0  0  0  0  0  0  0
   -0.3646   -4.4656    0.8982 H   0  0  0  0  0  0  0  0  0  0  0  0
    0.2480   -3.6872    2.3771 H   0  0  0  0  0  0  0  0  0  0  0  0
    0.5909   -2.9544    0.8028 H   0  0  0  0  0  0  0  0  0  0  0  0
   -5.2157   -3.6466    1.2635 C   0  0  0  0  0  0  0  0  0  0  0  0
   -5.0089   -4.7137    1.0535 H   0  0  0  0  0  0  0  0  0  0  0  0
   -5.7956   -3.2356    0.4101 H   0  0  0  0  0  0  0  0  0  0  0  0
   -5.8781   -3.5938    2.1523 H   0  0  0  0  0  0  0  0  0  0  0  0
   -3.0449    0.7050    2.4462 C   0  0  0  0  0  0  0  0  0  0  0  0
   -4.0062    0.7842    2.9897 H   0  0  0  0  0  0  0  0  0  0  0  0
   -3.1072    1.4126    1.5935 H   0  0  0  0  0  0  0  0  0  0  0  0
   -2.2391    1.0606    3.1149 H   0  0  0  0  0  0  0  0  0  0  0  0
  1  3  1  0  0  0  0
  1 14  1  0  0  0  0
  2  1  1  0  0  0  0
  3  4  1  0  0  0  0
  4 15  1  0  0  0  0
  4  5  1  0  0  0  0
  6  8  1  0  0  0  0
  6  7  1  0  0  0  0
  8  9  1  0  0  0  0
 10 11  1  0  0  0  0
 10  8  2  0  0  0  0
 12 10  1  0  0  0  0
 13 12  1  0  0  0  0
 14 12  2  0  0  0  0
 14 15  1  0  0  0  0
 15  6  2  0  0  0  0
 16  3  1  0  0  0  0
 16 23  1  0  0  0  0
 17 16  2  0  0  0  0
 18 20  2  0  0  0  0
 18 17  1  0  0  0  0
 19 18  1  0  0  0  0
 20 21  1  0  0  0  0
 21 22  1  0  0  0  0
 21 23  2  0  0  0  0
 23 32  1  0  0  0  0
 24 17  1  0  0  0  0
 24 26  1  0  0  0  0
 25 24  1  0  0  0  0
 27 24  1  0  0  0  0
 28 20  1  0  0  0  0
 28 31  1  0  0  0  0
 29 28  1  0  0  0  0
 30 28  1  0  0  0  0
 32 33  1  0  0  0  0
 32 35  1  0  0  0  0
 34 32  1  0  0  0  0
M  END
