5,7
q = -1.0

 45 47  0  0  0  0  0  0  0  0999 V2000
   -2.9902    0.0181    0.0565 P   0  0  0  0  0  4  0  0  0  0  0  0
    0.5933   -3.0777    1.5275 S   0  0  0  0  0  0  0  0  0  0  0  0
   -1.5321   -2.0054   -1.6133 O   0  0  0  0  0  0  0  0  0  0  0  0
   -3.7257    0.8073    1.5244 C   0  0  0  0  0  0  0  0  0  0  0  0
   -1.6225   -0.9829    0.5819 C   0  0  0  0  0  3  0  0  0  0  0  0
   -1.6516   -1.3192    1.6337 H   0  0  0  0  0  0  0  0  0  0  0  0
    0.3164   -2.2530   -0.0525 C   0  0  0  0  0  3  0  0  0  0  0  0
    0.9511   -2.6368   -0.8748 H   0  0  0  0  0  0  0  0  0  0  0  0
   -4.3167   -0.9657   -0.7207 C   0  0  0  0  0  0  0  0  0  0  0  0
   -2.5097    1.3032   -1.1417 C   0  0  0  0  0  0  0  0  0  0  0  0
   -3.4462    1.9739    3.6360 C   0  0  0  0  0  0  0  0  0  0  0  0
   -2.7853    2.4193    4.3949 H   0  0  0  0  0  0  0  0  0  0  0  0
   -5.1671   -0.3954   -1.6873 C   0  0  0  0  0  0  0  0  0  0  0  0
   -4.9986    0.6373   -2.0281 H   0  0  0  0  0  0  0  0  0  0  0  0
   -5.1265    0.8478    1.6858 C   0  0  0  0  0  0  0  0  0  0  0  0
   -5.7845    0.4002    0.9265 H   0  0  0  0  0  0  0  0  0  0  0  0
   -4.8398    2.0123    3.8012 C   0  0  0  0  0  0  0  0  0  0  0  0
   -5.2764    2.4826    4.6957 H   0  0  0  0  0  0  0  0  0  0  0  0
   -2.8787    1.3730    2.5025 C   0  0  0  0  0  0  0  0  0  0  0  0
   -1.7836    1.3810    2.3543 H   0  0  0  0  0  0  0  0  0  0  0  0
   -4.5198   -2.2918   -0.2927 C   0  0  0  0  0  0  0  0  0  0  0  0
   -3.8404   -2.7355    0.4509 H   0  0  0  0  0  0  0  0  0  0  0  0
   -5.6785    1.4507    2.8251 C   0  0  0  0  0  0  0  0  0  0  0  0
   -6.7714    1.4774    2.9512 H   0  0  0  0  0  0  0  0  0  0  0  0
   -5.5726   -3.0427   -0.8308 C   0  0  0  0  0  0  0  0  0  0  0  0
   -5.7253   -4.0820   -0.5031 H   0  0  0  0  0  0  0  0  0  0  0  0
   -6.2199   -1.1540   -2.2220 C   0  0  0  0  0  0  0  0  0  0  0  0
   -6.8813   -0.7101   -2.9812 H   0  0  0  0  0  0  0  0  0  0  0  0
   -6.4236   -2.4753   -1.7945 C   0  0  0  0  0  0  0  0  0  0  0  0
   -7.2465   -3.0698   -2.2194 H   0  0  0  0  0  0  0  0  0  0  0  0
   -2.0343    0.9081   -2.4122 C   0  0  0  0  0  0  0  0  0  0  0  0
   -1.9831   -0.1641   -2.6578 H   0  0  0  0  0  0  0  0  0  0  0  0
   -2.5558    2.6647   -0.7871 C   0  0  0  0  0  0  0  0  0  0  0  0
   -2.9074    2.9671    0.2088 H   0  0  0  0  0  0  0  0  0  0  0  0
   -1.0617   -1.8779   -0.4662 C   0  0  0  0  0  0  0  0  0  0  0  0
   -1.6130    1.8886   -3.3210 C   0  0  0  0  0  0  0  0  0  0  0  0
   -1.2388    1.5839   -4.3101 H   0  0  0  0  0  0  0  0  0  0  0  0
    0.1215   -4.7939    1.0873 C   0  0  0  0  0  0  0  0  0  0  0  0
   -0.9434   -4.8500    0.7856 H   0  0  0  0  0  0  0  0  0  0  0  0
    0.2797   -5.4183    1.9886 H   0  0  0  0  0  0  0  0  0  0  0  0
    0.7585   -5.1762    0.2643 H   0  0  0  0  0  0  0  0  0  0  0  0
   -1.6633    3.2491   -2.9720 C   0  0  0  0  0  0  0  0  0  0  0  0
   -1.3331    4.0147   -3.6911 H   0  0  0  0  0  0  0  0  0  0  0  0
   -2.1327    3.6344   -1.7075 C   0  0  0  0  0  0  0  0  0  0  0  0
   -2.1603    4.6975   -1.4265 H   0  0  0  0  0  0  0  0  0  0  0  0
  1  5  1  0  0  0  0
  1  4  1  0  0  0  0
  3 35  2  0  0  0  0
  4 15  2  0  0  0  0
  4 19  1  0  0  0  0
  5  6  1  0  0  0  0
  7  2  1  0  0  0  0
  8  7  1  0  0  0  0
  9 21  1  0  0  0  0
  9  1  1  0  0  0  0
 10 33  1  0  0  0  0
 10  1  1  0  0  0  0
 11 17  1  0  0  0  0
 11 12  1  0  0  0  0
 13  9  2  0  0  0  0
 14 13  1  0  0  0  0
 15 23  1  0  0  0  0
 16 15  1  0  0  0  0
 17 18  1  0  0  0  0
 19 11  2  0  0  0  0
 20 19  1  0  0  0  0
 21 22  1  0  0  0  0
 23 24  1  0  0  0  0
 23 17  2  0  0  0  0
 25 26  1  0  0  0  0
 25 21  2  0  0  0  0
 27 29  2  0  0  0  0
 27 13  1  0  0  0  0
 28 27  1  0  0  0  0
 29 25  1  0  0  0  0
 30 29  1  0  0  0  0
 31 10  2  0  0  0  0
 32 31  1  0  0  0  0
 33 34  1  0  0  0  0
 35  7  1  0  0  0  0
 35  5  1  0  0  0  0
 36 42  2  0  0  0  0
 36 31  1  0  0  0  0
 37 36  1  0  0  0  0
 38  2  1  0  0  0  0
 38 40  1  0  0  0  0
 39 38  1  0  0  0  0
 41 38  1  0  0  0  0
 42 44  1  0  0  0  0
 43 42  1  0  0  0  0
 44 45  1  0  0  0  0
 44 33  2  0  0  0  0
M  END
