1,6
q = -1.0, confidence = 0.016

 31 32  0  0  1  0  0  0  0  0999 V2000
   -0.8595    1.0581   -0.9318 C   0  0  0  0  0  3  0  0  0  0  0  0
   -0.4880    2.2632   -0.0998 C   0  0  0  0  0  0  0  0  0  0  0  0
    0.5906    1.2780   -0.5599 C   0  0  1  0  0  0  0  0  0  0  0  0
    1.1432    0.2373    0.4208 C   0  0  1  0  0  0  0  0  0  0  0  0
    0.2822   -1.0255    0.3221 C   0  0  0  0  0  3  0  0  0  0  0  0
   -0.0932   -1.5877   -0.9275 C   0  0  0  0  0  3  0  0  0  0  0  0
   -0.5116    3.6069   -0.8131 C   0  0  0  0  0  0  0  0  0  0  0  0
   -0.8537    2.3654    1.3688 C   0  0  0  0  0  0  0  0  0  0  0  0
    2.6182   -0.0931    0.2348 C   0  0  0  0  0  0  0  0  0  0  0  0
    3.1448   -0.4306   -1.0297 C   0  0  0  0  0  0  0  0  0  0  0  0
    4.4991   -0.7592   -1.1821 C   0  0  0  0  0  0  0  0  0  0  0  0
    5.3567   -0.7612   -0.0695 C   0  0  0  0  0  0  0  0  0  0  0  0
    4.8468   -0.4297    1.1946 C   0  0  0  0  0  0  0  0  0  0  0  0
    3.4904   -0.0990    1.3409 C   0  0  0  0  0  0  0  0  0  0  0  0
   -1.1949    1.2362   -1.9708 H   0  0  0  0  0  0  0  0  0  0  0  0
    1.3006    1.6548   -1.3162 H   0  0  0  0  0  0  0  0  0  0  0  0
    1.0422    0.6194    1.4580 H   0  0  0  0  0  0  0  0  0  0  0  0
    0.3146   -1.6911    1.2038 H   0  0  0  0  0  0  0  0  0  0  0  0
   -0.3493   -2.6577   -0.9865 H   0  0  0  0  0  0  0  0  0  0  0  0
    0.2463   -1.1340   -1.8728 H   0  0  0  0  0  0  0  0  0  0  0  0
   -0.2083    3.5101   -1.8750 H   0  0  0  0  0  0  0  0  0  0  0  0
   -1.5304    4.0500   -0.7919 H   0  0  0  0  0  0  0  0  0  0  0  0
    0.1797    4.3297   -0.3282 H   0  0  0  0  0  0  0  0  0  0  0  0
   -0.1292    3.0042    1.9184 H   0  0  0  0  0  0  0  0  0  0  0  0
   -0.8921    1.3752    1.8597 H   0  0  0  0  0  0  0  0  0  0  0  0
   -1.8574    2.8268    1.4848 H   0  0  0  0  0  0  0  0  0  0  0  0
    2.4836   -0.4353   -1.9095 H   0  0  0  0  0  0  0  0  0  0  0  0
    4.8896   -1.0161   -2.1790 H   0  0  0  0  0  0  0  0  0  0  0  0
    6.4201   -1.0186   -0.1894 H   0  0  0  0  0  0  0  0  0  0  0  0
    5.5093   -0.4246    2.0738 H   0  0  0  0  0  0  0  0  0  0  0  0
    3.0951    0.1655    2.3350 H   0  0  0  0  0  0  0  0  0  0  0  0
  1  3  1  0  0  0  0
  1  2  1  0  0  0  0
  2  8  1  0  0  0  0
  3 16  1  6  0  0  0
  3  2  1  0  0  0  0
  3  4  1  0  0  0  0
  4 17  1  1  0  0  0
  5  4  1  0  0  0  0
  5 18  1  0  0  0  0
  6  5  1  0  0  0  0
  7 22  1  0  0  0  0
  7 23  1  0  0  0  0
  7  2  1  0  0  0  0
  8 26  1  0  0  0  0
  8 25  1  0  0  0  0
  8 24  1  0  0  0  0
  9  4  1  0  0  0  0
  9 14  1  0  0  0  0
 10  9  2  0  0  0  0
 11 10  1  0  0  0  0
 11 12  2  0  0  0  0
 12 13  1  0  0  0  0
 13 14  2  0  0  0  0
 13 30  1  0  0  0  0
 14 31  1  0  0  0  0
 15  1  1  0  0  0  0
 19  6  1  0  0  0  0
 20  6  1  0  0  0  0
 21  7  1  0  0  0  0
 27 10  1  0  0  0  0
 28 11  1  0  0  0  0
 29 12  1  0  0  0  0
M  END
