4,13
q = -1.0

 27 29  0  0  0  0  0  0  0  0999 V2000
    0.0024   -3.4348    4.4034 F   0  0  0  0  0  0  0  0  0  0  0  0
   -2.7039   -1.0091    0.2207 N   0  0  0  0  0  0  0  0  0  0  0  0
   -2.7152    0.3217   -1.5306 N   0  0  0  0  0  0  0  0  0  0  0  0
   -0.6955   -1.3549    1.4647 C   0  0  0  0  0  3  0  0  0  0  0  0
   -0.0139   -1.9738    2.5301 C   0  0  0  0  0  0  0  0  0  0  0  0
    1.0535   -1.7735    2.7107 H   0  0  0  0  0  0  0  0  0  0  0  0
   -0.6797   -2.8607    3.3874 C   0  0  0  0  0  0  0  0  0  0  0  0
   -2.0320   -3.1772    3.2211 C   0  0  0  0  0  0  0  0  0  0  0  0
   -2.5171   -3.8852    3.9071 H   0  0  0  0  0  0  0  0  0  0  0  0
   -2.7387   -2.5776    2.1661 C   0  0  0  0  0  0  0  0  0  0  0  0
   -3.7939   -2.8389    2.0265 H   0  0  0  0  0  0  0  0  0  0  0  0
   -2.0735   -1.6792    1.3167 C   0  0  0  0  0  0  0  0  0  0  0  0
   -1.8947   -0.1983   -0.5636 C   0  0  0  0  0  2  0  0  0  0  0  0
   -4.0258   -0.9879   -0.2362 C   0  0  0  0  0  0  0  0  0  0  0  0
   -5.2276   -1.5852    0.1833 C   0  0  0  0  0  0  0  0  0  0  0  0
   -5.2808   -2.2420    1.0580 H   0  0  0  0  0  0  0  0  0  0  0  0
   -6.3906   -1.3078   -0.5529 C   0  0  0  0  0  0  0  0  0  0  0  0
   -7.3392   -1.7665   -0.2369 H   0  0  0  0  0  0  0  0  0  0  0  0
   -6.3744   -0.4586   -1.6783 C   0  0  0  0  0  0  0  0  0  0  0  0
   -7.3075   -0.2663   -2.2280 H   0  0  0  0  0  0  0  0  0  0  0  0
   -5.1834    0.1492   -2.1031 C   0  0  0  0  0  0  0  0  0  0  0  0
   -5.1595    0.8195   -2.9737 H   0  0  0  0  0  0  0  0  0  0  0  0
   -4.0241   -0.1279   -1.3684 C   0  0  0  0  0  0  0  0  0  0  0  0
   -2.3045    1.2321   -2.5819 C   0  0  0  0  0  0  0  0  0  0  0  0
   -1.2099    1.3601   -2.5219 H   0  0  0  0  0  0  0  0  0  0  0  0
   -2.7964    2.2182   -2.4573 H   0  0  0  0  0  0  0  0  0  0  0  0
   -2.5767    0.8188   -3.5740 H   0  0  0  0  0  0  0  0  0  0  0  0
  2 12  1  0  0  0  0
  3 23  1  0  0  0  0
  3 13  1  0  0  0  0
  4  5  1  0  0  0  0
  5  6  1  0  0  0  0
  5  7  2  0  0  0  0
  7  1  1  0  0  0  0
  8  7  1  0  0  0  0
  8  9  1  0  0  0  0
 10  8  2  0  0  0  0
 11 10  1  0  0  0  0
 12  4  2  0  0  0  0
 12 10  1  0  0  0  0
 13  2  1  0  0  0  0
 14 15  1  0  0  0  0
 14  2  1  0  0  0  0
 15 16  1  0  0  0  0
 17 18  1  0  0  0  0
 17 15  2  0  0  0  0
 19 17  1  0  0  0  0
 20 19  1  0  0  0  0
 21 19  2  0  0  0  0
 21 23  1  0  0  0  0
 22 21  1  0  0  0  0
 23 14  2  0  0  0  0
 24 25  1  0  0  0  0
 24 26  1  0  0  0  0
 24  3  1  0  0  0  0
 27 24  1  0  0  0  0
M  END
