3,13
q = -1.0

 27 29  0  0  0  0  0  0  0  0999 V2000
    2.7059   -1.0089   -0.4873 N   0  0  0  0  0  0  0  0  0  0  0  0
    2.7088   -0.0070    1.4710 N   0  0  0  0  0  0  0  0  0  0  0  0
    0.7033   -1.1295   -1.7805 C   0  0  0  0  0  3  0  0  0  0  0  0
    0.0342   -1.5555   -2.9465 C   0  0  0  0  0  0  0  0  0  0  0  0
   -1.0332   -1.3109   -3.0675 H   0  0  0  0  0  0  0  0  0  0  0  0
    0.6883   -2.2819   -3.9585 C   0  0  0  0  0  0  0  0  0  0  0  0
    0.1341   -2.5963   -4.8571 H   0  0  0  0  0  0  0  0  0  0  0  0
    2.0437   -2.6149   -3.8206 C   0  0  0  0  0  0  0  0  0  0  0  0
    2.5608   -3.1926   -4.6014 H   0  0  0  0  0  0  0  0  0  0  0  0
    2.7510   -2.2142   -2.6751 C   0  0  0  0  0  0  0  0  0  0  0  0
    3.8049   -2.4971   -2.5723 H   0  0  0  0  0  0  0  0  0  0  0  0
    2.0789   -1.4766   -1.6865 C   0  0  0  0  0  0  0  0  0  0  0  0
    1.8921   -0.3508    0.4255 C   0  0  0  0  0  2  0  0  0  0  0  0
    4.0272   -1.0638   -0.0304 C   0  0  0  0  0  0  0  0  0  0  0  0
    5.2328   -1.5719   -0.5457 C   0  0  0  0  0  0  0  0  0  0  0  0
    5.2900   -2.0628   -1.5229 H   0  0  0  0  0  0  0  0  0  0  0  0
    6.3932   -1.4238    0.2309 C   0  0  0  0  0  0  0  0  0  0  0  0
    7.3445   -1.8152   -0.1589 H   0  0  0  0  0  0  0  0  0  0  0  0
    6.3711   -0.7870    1.4886 C   0  0  0  0  0  0  0  0  0  0  0  0
    7.3023   -0.6908    2.0661 H   0  0  0  0  0  0  0  0  0  0  0  0
    5.1764   -0.2687    2.0107 C   0  0  0  0  0  0  0  0  0  0  0  0
    5.1478    0.2377    2.9857 H   0  0  0  0  0  0  0  0  0  0  0  0
    4.0199   -0.4169    1.2354 C   0  0  0  0  0  0  0  0  0  0  0  0
    2.2946    0.7030    2.6657 C   0  0  0  0  0  0  0  0  0  0  0  0
    1.2001    0.8394    2.6275 H   0  0  0  0  0  0  0  0  0  0  0  0
    2.7862    1.6958    2.7183 H   0  0  0  0  0  0  0  0  0  0  0  0
    2.5655    0.1210    3.5697 H   0  0  0  0  0  0  0  0  0  0  0  0
  1 14  1  0  0  0  0
  1 13  1  0  0  0  0
  2 24  1  0  0  0  0
  3 12  1  0  0  0  0
  4  3  2  0  0  0  0
  5  4  1  0  0  0  0
  6  8  2  0  0  0  0
  6  4  1  0  0  0  0
  7  6  1  0  0  0  0
  8 10  1  0  0  0  0
  9  8  1  0  0  0  0
 10 11  1  0  0  0  0
 10 12  2  0  0  0  0
 12  1  1  0  0  0  0
 13  2  1  0  0  0  0
 14 23  1  0  0  0  0
 15 14  2  0  0  0  0
 15 17  1  0  0  0  0
 16 15  1  0  0  0  0
 17 19  2  0  0  0  0
 18 17  1  0  0  0  0
 19 21  1  0  0  0  0
 19 20  1  0  0  0  0
 21 22  1  0  0  0  0
 23  2  1  0  0  0  0
 23 21  2  0  0  0  0
 24 26  1  0  0  0  0
 24 27  1  0  0  0  0
 25 24  1  0  0  0  0
M  END
