2,4
q = 0.0, confidence = 0.996

 18 18  0  0  1  0  0  0  0  0999 V2000
   -0.9323    1.3903   -0.8295 C   0  0  2  0  0  3  0  0  0  0  0  0
   -2.1430    1.4229   -0.0630 C   0  0  0  0  0  3  0  0  0  0  0  0
   -3.1877    0.4925   -0.3167 C   0  0  0  0  0  3  0  0  0  0  0  0
   -2.9913   -0.5340   -1.2785 C   0  0  0  0  0  3  0  0  0  0  0  0
   -1.8066   -0.5626   -2.0812 C   0  0  0  0  0  0  0  0  0  0  0  0
   -0.7802    0.3753   -1.8353 C   0  0  0  0  0  0  0  0  0  0  0  0
    0.2509    2.2154   -0.4862 C   0  0  0  0  0  0  0  0  0  0  0  0
    1.0872    3.8978    0.9386 C   0  0  0  0  0  0  0  0  0  0  0  0
   -0.0254    3.1224    0.4848 O   0  0  0  0  0  0  0  0  0  0  0  0
    1.3571    2.0994   -1.0005 O   0  0  0  0  0  0  0  0  0  0  0  0
   -2.2378    2.1615    0.7433 H   0  0  0  0  0  0  0  0  0  0  0  0
   -4.0933    0.5023    0.3045 H   0  0  0  0  0  0  0  0  0  0  0  0
   -3.7566   -1.3118   -1.4095 H   0  0  0  0  0  0  0  0  0  0  0  0
   -1.6570   -1.3634   -2.8175 H   0  0  0  0  0  0  0  0  0  0  0  0
    0.1745    0.3254   -2.3762 H   0  0  0  0  0  0  0  0  0  0  0  0
    1.6113    4.3772    0.0880 H   0  0  0  0  0  0  0  0  0  0  0  0
    1.8134    3.2583    1.4820 H   0  0  0  0  0  0  0  0  0  0  0  0
    0.6723    4.6598    1.6219 H   0  0  0  0  0  0  0  0  0  0  0  0
  1  7  1  1  0  0  0
  1  2  1  0  0  0  0
  2 11  1  0  0  0  0
  3  2  1  0  0  0  0
  3 12  1  0  0  0  0
  4  3  1  0  0  0  0
  5  6  2  0  0  0  0
  5  4  1  0  0  0  0
  6  1  1  0  0  0  0
  7  9  1  0  0  0  0
  8 17  1  0  0  0  0
  8 18  1  0  0  0  0
  9  8  1  0  0  0  0
 10  7  2  0  0  0  0
 13  4  1  0  0  0  0
 14  5  1  0  0  0  0
 15  6  1  0  0  0  0
 16  8  1  0  0  0  0
M  END
