4,18
q = -1.0, confidence = 0.0

 22 23  0  0  0  0  0  0  0  0999 V2000
    3.6870   -0.2225   -0.0141 N   0  0  0  0  0  0  0  0  0  0  0  0
    0.4570    5.7410    0.2037 N   0  0  0  0  0  0  0  0  0  0  0  0
    3.6794   -2.3911    0.0098 N   0  0  0  0  0  0  0  0  0  0  0  0
    1.6620    1.0129    0.0605 C   0  0  0  0  0  3  0  0  0  0  0  0
    3.8363    2.2406   -0.0083 C   0  0  0  0  0  0  0  0  0  0  0  0
    4.9346    2.2139   -0.0564 H   0  0  0  0  0  0  0  0  0  0  0  0
    1.7611    3.4835    0.1127 C   0  0  0  0  0  0  0  0  0  0  0  0
    1.0308    2.2682    0.1289 C   0  0  0  0  0  0  0  0  0  0  0  0
   -0.0611    2.3484    0.1875 H   0  0  0  0  0  0  0  0  0  0  0  0
    5.0090   -1.9793   -0.0380 C   0  0  0  0  0  0  0  0  0  0  0  0
    5.8337   -2.6977   -0.0570 H   0  0  0  0  0  0  0  0  0  0  0  0
    3.0860    1.0575    0.0082 C   0  0  0  0  0  0  0  0  0  0  0  0
    1.0504    4.7277    0.1645 C   0  0  0  0  0  0  0  0  0  0  0  0
    3.1714    3.4704    0.0378 C   0  0  0  0  0  0  0  0  0  0  0  0
    3.7333    4.4141    0.0206 H   0  0  0  0  0  0  0  0  0  0  0  0
    5.0159   -0.6086   -0.0528 C   0  0  0  0  0  0  0  0  0  0  0  0
    5.8466    0.1007   -0.0867 H   0  0  0  0  0  0  0  0  0  0  0  0
    2.8441   -1.3125    0.0243 C   0  0  0  0  0  2  0  0  0  0  0  0
    3.2868   -3.7947    0.0438 C   0  0  0  0  0  0  0  0  0  0  0  0
    3.7086   -4.2776    0.9472 H   0  0  0  0  0  0  0  0  0  0  0  0
    3.6693   -4.3101   -0.8590 H   0  0  0  0  0  0  0  0  0  0  0  0
    2.1794   -3.8496    0.0677 H   0  0  0  0  0  0  0  0  0  0  0  0
  1 12  1  0  0  0  0
  1 18  1  0  0  0  0
  3 18  1  0  0  0  0
  3 19  1  0  0  0  0
  4  8  1  0  0  0  0
  5 12  1  0  0  0  0
  5 14  2  0  0  0  0
  6  5  1  0  0  0  0
  7  8  2  0  0  0  0
  7 13  1  0  0  0  0
  8  9  1  0  0  0  0
 10  3  1  0  0  0  0
 11 10  1  0  0  0  0
 12  4  2  0  0  0  0
 13  2  3  0  0  0  0
 14  7  1  0  0  0  0
 15 14  1  0  0  0  0
 16 10  2  0  0  0  0
 16  1  1  0  0  0  0
 17 16  1  0  0  0  0
 19 22  1  0  0  0  0
 19 20  1  0  0  0  0
 21 19  1  0  0  0  0
M  END
