3,18
q = -2.0, confidence = 0.834

 31 32  0  0  1  0  0  0  0  0999 V2000
    2.0878   -0.5412    0.2807 Si  0  0  1  0  0  0  0  0  0  0  0  0
    0.6273   -1.6117   -0.2494 C   0  0  2  0  0  3  0  0  0  0  0  0
   -0.0166   -1.5292   -1.5321 C   0  0  0  0  0  3  0  0  0  0  0  0
    0.4236   -1.1141   -2.4487 H   0  0  0  0  0  0  0  0  0  0  0  0
   -1.3290   -2.0814   -1.4277 C   0  0  0  0  0  0  0  0  0  0  0  0
   -2.0649   -2.1479   -2.2371 H   0  0  0  0  0  0  0  0  0  0  0  0
   -1.5326   -2.4715   -0.0811 C   0  0  0  0  0  0  0  0  0  0  0  0
   -2.4540   -2.8923    0.3379 H   0  0  0  0  0  0  0  0  0  0  0  0
   -0.3415   -2.1707    0.6486 C   0  0  0  0  0  3  0  0  0  0  0  0
   -0.2023   -2.3300    1.7260 H   0  0  0  0  0  0  0  0  0  0  0  0
    1.0618    1.0297    0.4813 C   0  0  2  0  0  3  0  0  0  0  0  0
    0.2318    1.3324    1.6103 C   0  0  0  0  0  3  0  0  0  0  0  0
    0.3192    0.8873    2.6102 H   0  0  0  0  0  0  0  0  0  0  0  0
   -0.7478    2.2978    1.2221 C   0  0  0  0  0  0  0  0  0  0  0  0
   -1.5333    2.7108    1.8656 H   0  0  0  0  0  0  0  0  0  0  0  0
   -0.5554    2.5859   -0.1515 C   0  0  0  0  0  0  0  0  0  0  0  0
   -1.1654    3.2629   -0.7603 H   0  0  0  0  0  0  0  0  0  0  0  0
    0.5354    1.7921   -0.6184 C   0  0  0  0  0  3  0  0  0  0  0  0
    0.9078    1.7739   -1.6516 H   0  0  0  0  0  0  0  0  0  0  0  0
    2.8593   -1.1091    1.8939 C   0  0  0  0  0  0  0  0  0  0  0  0
    3.6828   -0.4243    2.1796 H   0  0  0  0  0  0  0  0  0  0  0  0
    3.2775   -2.1306    1.7881 H   0  0  0  0  0  0  0  0  0  0  0  0
    2.1184   -1.1259    2.7178 H   0  0  0  0  0  0  0  0  0  0  0  0
    3.3745   -0.3392   -1.1023 C   0  0  0  0  0  0  0  0  0  0  0  0
    3.8951   -1.3124   -1.2290 H   0  0  0  0  0  0  0  0  0  0  0  0
    2.8322   -0.1293   -2.0495 H   0  0  0  0  0  0  0  0  0  0  0  0
    4.3355    0.7625   -0.7684 C   0  0  0  0  0  0  0  0  0  0  0  0
    3.9364    1.7899   -0.8557 H   0  0  0  0  0  0  0  0  0  0  0  0
    5.5953    0.5973   -0.3223 C   0  0  0  0  0  0  0  0  0  0  0  0
    6.0408   -0.4059   -0.2113 H   0  0  0  0  0  0  0  0  0  0  0  0
    6.2279    1.4590   -0.0606 H   0  0  0  0  0  0  0  0  0  0  0  0
  1 24  1  6  0  0  0
  1 20  1  0  0  0  0
  2  1  1  1  0  0  0
  2  9  1  0  0  0  0
  3  5  1  0  0  0  0
  3  2  1  0  0  0  0
  4  3  1  0  0  0  0
  5  7  2  0  0  0  0
  6  5  1  0  0  0  0
  7  8  1  0  0  0  0
  7  9  1  0  0  0  0
  9 10  1  0  0  0  0
 11  1  1  6  0  0  0
 11 12  1  0  0  0  0
 12 13  1  0  0  0  0
 14 12  1  0  0  0  0
 14 15  1  0  0  0  0
 16 14  2  0  0  0  0
 17 16  1  0  0  0  0
 18 16  1  0  0  0  0
 18 11  1  0  0  0  0
 19 18  1  0  0  0  0
 20 21  1  0  0  0  0
 20 23  1  0  0  0  0
 22 20  1  0  0  0  0
 24 27  1  0  0  0  0
 25 24  1  0  0  0  0
 26 24  1  0  0  0  0
 27 29  2  0  0  0  0
 28 27  1  0  0  0  0
 29 30  1  0  0  0  0
 29 31  1  0  0  0  0
M  END
