1,3
q = 0.0, confidence = 0.998

 49 51  0  0  1  0  0  0  0  0999 V2000
    0.1657    0.2484    0.1447 C   0  0  2  0  0  3  0  0  0  0  0  0
   -0.1477   -1.1326    0.2976 C   0  0  2  0  0  3  0  0  0  0  0  0
   -1.4728   -1.4817    0.7473 C   0  0  2  0  0  3  0  0  0  0  0  0
   -2.3735   -0.4329    1.1065 C   0  0  0  0  0  0  0  0  0  0  0  0
   -2.0241    0.9565    0.9683 C   0  0  0  0  0  0  0  0  0  0  0  0
   -0.7391    1.3144    0.4640 C   0  0  2  0  0  3  0  0  0  0  0  0
   -3.0445    2.0105    1.3528 C   0  0  0  0  0  0  0  0  0  0  0  0
   -2.4663    3.4290    1.4031 C   0  0  0  0  0  0  0  0  0  0  0  0
   -1.5460    3.6916    0.2100 C   0  0  0  0  0  0  0  0  0  0  0  0
   -0.3386    2.7551    0.2609 C   0  0  0  0  0  0  0  0  0  0  0  0
    0.8807   -2.1777    0.0223 C   0  0  0  0  0  0  0  0  0  0  0  0
    1.5648   -2.7708    1.1165 C   0  0  0  0  0  0  0  0  0  0  0  0
    2.5332   -3.7535    0.8381 C   0  0  0  0  0  0  0  0  0  0  0  0
    2.8332   -4.1354   -0.4770 C   0  0  0  0  0  0  0  0  0  0  0  0
    2.1651   -3.5297   -1.5505 C   0  0  0  0  0  0  0  0  0  0  0  0
    1.1926   -2.5535   -1.2971 C   0  0  0  0  0  0  0  0  0  0  0  0
    1.3117   -2.3230    2.5347 C   0  0  0  0  0  0  0  0  0  0  0  0
   -1.8981   -2.9214    0.8478 C   0  0  0  0  0  0  0  0  0  0  0  0
   -3.7149   -1.0714    2.9284 C   0  0  0  0  0  0  0  0  0  0  0  0
    3.4996    2.2110   -0.2476 C   0  0  0  0  0  0  0  0  0  0  0  0
    3.6237    1.9277   -1.5395 F   0  0  0  0  0  0  0  0  0  0  0  0
    4.7014    2.3955    0.3014 F   0  0  0  0  0  0  0  0  0  0  0  0
    2.7593    3.3101   -0.0869 F   0  0  0  0  0  0  0  0  0  0  0  0
    1.4094    0.5799   -0.4140 O   0  0  0  0  0  0  0  0  0  0  0  0
    3.6306   -0.3806    0.5023 O   0  0  0  0  0  1  0  0  0  0  0  0
    2.2010    1.1922    1.9640 O   0  0  0  0  0  1  0  0  0  0  0  0
   -3.6410   -0.7341    1.5442 O   0  0  0  0  0  0  0  0  0  0  0  0
    2.7043    0.7411    0.6563 S   0  0  0  0  0  0  0  0  0  0  0  0
   -3.8899    1.9639    0.6359 H   0  0  0  0  0  0  0  0  0  0  0  0
   -3.4828    1.7333    2.3329 H   0  0  0  0  0  0  0  0  0  0  0  0
   -3.2969    4.1624    1.4365 H   0  0  0  0  0  0  0  0  0  0  0  0
   -1.8863    3.5669    2.3423 H   0  0  0  0  0  0  0  0  0  0  0  0
   -1.1996    4.7446    0.2021 H   0  0  0  0  0  0  0  0  0  0  0  0
   -2.1032    3.5270   -0.7380 H   0  0  0  0  0  0  0  0  0  0  0  0
    0.2673    2.8367   -0.6617 H   0  0  0  0  0  0  0  0  0  0  0  0
    0.3336    3.0435    1.0993 H   0  0  0  0  0  0  0  0  0  0  0  0
    3.0728   -4.2177    1.6785 H   0  0  0  0  0  0  0  0  0  0  0  0
    3.5976   -4.9051   -0.6627 H   0  0  0  0  0  0  0  0  0  0  0  0
    2.3978   -3.8157   -2.5870 H   0  0  0  0  0  0  0  0  0  0  0  0
    0.6570   -2.0660   -2.1240 H   0  0  0  0  0  0  0  0  0  0  0  0
    0.2426   -2.4026    2.8187 H   0  0  0  0  0  0  0  0  0  0  0  0
    1.5935   -1.2584    2.6713 H   0  0  0  0  0  0  0  0  0  0  0  0
    1.9016   -2.9229    3.2533 H   0  0  0  0  0  0  0  0  0  0  0  0
   -1.5697   -3.3691    1.8092 H   0  0  0  0  0  0  0  0  0  0  0  0
   -1.4441   -3.5211    0.0382 H   0  0  0  0  0  0  0  0  0  0  0  0
   -2.9985   -2.9991    0.7816 H   0  0  0  0  0  0  0  0  0  0  0  0
   -3.1382   -1.9930    3.1625 H   0  0  0  0  0  0  0  0  0  0  0  0
   -4.7827   -1.2476    3.1563 H   0  0  0  0  0  0  0  0  0  0  0  0
   -3.3367   -0.2460    3.5724 H   0  0  0  0  0  0  0  0  0  0  0  0
  1 24  1  6  0  0  0
  1  2  1  0  0  0  0
  1  6  1  0  0  0  0
  2 11  1  1  0  0  0
  2  3  1  0  0  0  0
  3 18  1  1  0  0  0
  3  4  1  0  0  0  0
  4 27  1  0  0  0  0
  5  4  2  0  0  0  0
  5  7  1  0  0  0  0
  6  5  1  6  0  0  0
  7  8  1  0  0  0  0
  7 30  1  0  0  0  0
  8 31  1  0  0  0  0
  8 32  1  0  0  0  0
  9 10  1  0  0  0  0
  9  8  1  0  0  0  0
 10  6  1  0  0  0  0
 10 36  1  0  0  0  0
 11 12  1  0  0  0  0
 12 17  1  0  0  0  0
 13 12  2  0  0  0  0
 13 37  1  0  0  0  0
 14 13  1  0  0  0  0
 15 16  1  0  0  0  0
 15 14  2  0  0  0  0
 16 11  2  0  0  0  0
 17 42  1  0  0  0  0
 17 41  1  0  0  0  0
 17 43  1  0  0  0  0
 18 44  1  0  0  0  0
 19 48  1  0  0  0  0
 19 47  1  0  0  0  0
 19 49  1  0  0  0  0
 20 23  1  0  0  0  0
 20 22  1  0  0  0  0
 20 28  1  0  0  0  0
 21 20  1  0  0  0  0
 24 28  1  0  0  0  0
 25 28  1  0  0  0  0
 27 19  1  0  0  0  0
 28 26  1  0  0  0  0
 29  7  1  0  0  0  0
 33  9  1  0  0  0  0
 34  9  1  0  0  0  0
 35 10  1  0  0  0  0
 38 14  1  0  0  0  0
 39 15  1  0  0  0  0
 40 16  1  0  0  0  0
 45 18  1  0  0  0  0
 46 18  1  0  0  0  0
M  END
