17,20
q = -2.0, confidence = 0.828

 52 53  0  0  1  0  0  0  0  0999 V2000
    1.2305    2.6945    1.6862 O   0  0  0  0  0  0  0  0  0  0  0  0
    3.5936   -1.4978   -1.5625 O   0  0  0  0  0  0  0  0  0  0  0  0
   -0.5490   -2.4453   -1.2884 O   0  0  0  0  0  0  0  0  0  0  0  0
    3.8095    2.1704    0.4553 O   0  0  0  0  0  0  0  0  0  0  0  0
    4.3135    0.0044    0.8552 O   0  0  0  0  0  0  0  0  0  0  0  0
    2.2494    0.4275   -0.2134 C   0  0  2  0  0  0  0  0  0  0  0  0
    1.9441   -1.0208    0.0604 C   0  0  1  0  0  0  0  0  0  0  0  0
   -0.7381   -3.3279    0.7918 O   0  0  0  0  0  0  0  0  0  0  0  0
    1.5754   -1.4238    1.5264 C   0  0  0  0  0  0  0  0  0  0  0  0
    3.5050    0.9877    0.3723 C   0  0  0  0  0  0  0  0  0  0  0  0
    2.2840   -3.2220   -0.9132 O   0  0  0  0  0  0  0  0  0  0  0  0
    0.7806    3.7279   -0.2721 O   0  0  0  0  0  0  0  0  0  0  0  0
    1.0666    0.1459   -2.5745 C   0  0  0  0  0  0  0  0  0  0  0  0
    0.5126   -0.6999   -2.1345 H   0  0  0  0  0  0  0  0  0  0  0  0
    1.8326   -0.2514   -3.2714 H   0  0  0  0  0  0  0  0  0  0  0  0
    0.3451    0.7418   -3.1731 H   0  0  0  0  0  0  0  0  0  0  0  0
    0.9955    1.3211   -0.2421 C   0  0  2  0  0  3  0  0  0  0  0  0
   -0.2779   -2.4610    0.0587 C   0  0  0  0  0  0  0  0  0  0  0  0
    1.7077    1.0573   -1.5402 C   0  0  0  0  0  0  0  0  0  0  0  0
    0.4883   -1.2688    0.5008 C   0  0  2  0  0  3  0  0  0  0  0  0
    2.5926   -2.0413   -0.8173 C   0  0  0  0  0  0  0  0  0  0  0  0
    1.7154   -0.3907    2.6314 C   0  0  0  0  0  0  0  0  0  0  0  0
    1.4801    0.6364    2.3076 H   0  0  0  0  0  0  0  0  0  0  0  0
    2.7417   -0.4060    3.0515 H   0  0  0  0  0  0  0  0  0  0  0  0
    1.0140   -0.6552    3.4510 H   0  0  0  0  0  0  0  0  0  0  0  0
    1.0108    2.6896    0.3434 C   0  0  0  0  0  0  0  0  0  0  0  0
    2.5208    2.1554   -2.2116 C   0  0  0  0  0  0  0  0  0  0  0  0
    1.8586    2.7507   -2.8724 H   0  0  0  0  0  0  0  0  0  0  0  0
    3.3094    1.6943   -2.8426 H   0  0  0  0  0  0  0  0  0  0  0  0
    3.0005    2.8418   -1.4959 H   0  0  0  0  0  0  0  0  0  0  0  0
   -2.8322   -3.1492   -1.5623 C   0  0  0  0  0  0  0  0  0  0  0  0
    1.9718   -2.8089    2.0196 C   0  0  0  0  0  0  0  0  0  0  0  0
    3.0171   -2.7774    2.3924 H   0  0  0  0  0  0  0  0  0  0  0  0
    1.8988   -3.5858    1.2418 H   0  0  0  0  0  0  0  0  0  0  0  0
    1.3144   -3.1022    2.8625 H   0  0  0  0  0  0  0  0  0  0  0  0
    1.3580    3.9836    2.2859 C   0  0  0  0  0  0  0  0  0  0  0  0
    2.2562    4.5011    1.8916 H   0  0  0  0  0  0  0  0  0  0  0  0
    1.4656    3.8070    3.3715 H   0  0  0  0  0  0  0  0  0  0  0  0
    0.4682    4.6118    2.0796 H   0  0  0  0  0  0  0  0  0  0  0  0
   -1.4205   -3.4870   -1.7514 C   0  0  0  0  0  0  0  0  0  0  0  0
   -1.1846   -4.4325   -1.2196 H   0  0  0  0  0  0  0  0  0  0  0  0
   -1.1912   -3.6071   -2.8293 H   0  0  0  0  0  0  0  0  0  0  0  0
    5.5208    0.4589    1.4657 C   0  0  0  0  0  0  0  0  0  0  0  0
    6.1367    1.0387    0.7484 H   0  0  0  0  0  0  0  0  0  0  0  0
    6.0602   -0.4486    1.7920 H   0  0  0  0  0  0  0  0  0  0  0  0
    5.3040    1.1125    2.3358 H   0  0  0  0  0  0  0  0  0  0  0  0
    4.2413   -2.4016   -2.4574 C   0  0  0  0  0  0  0  0  0  0  0  0
    4.6953   -3.2508   -1.9072 H   0  0  0  0  0  0  0  0  0  0  0  0
    5.0222   -1.8150   -2.9741 H   0  0  0  0  0  0  0  0  0  0  0  0
    3.5211   -2.8168   -3.1924 H   0  0  0  0  0  0  0  0  0  0  0  0
   -4.0097   -2.8586   -1.4082 C   0  0  0  0  0  0  0  0  0  0  0  0
   -5.0504   -2.6072   -1.2644 H   0  0  0  0  0  0  0  0  0  0  0  0
  1 36  1  0  0  0  0
  2 21  1  0  0  0  0
  3 18  1  0  0  0  0
  5 43  1  0  0  0  0
  6  7  1  0  0  0  0
  6 10  1  1  0  0  0
  7 21  1  6  0  0  0
  7 20  1  0  0  0  0
  7  9  1  0  0  0  0
  9 32  1  0  0  0  0
  9 22  1  0  0  0  0
 10  4  2  0  0  0  0
 10  5  1  0  0  0  0
 11 21  2  0  0  0  0
 12 26  2  0  0  0  0
 13 14  1  0  0  0  0
 13 19  1  0  0  0  0
 15 13  1  0  0  0  0
 16 13  1  0  0  0  0
 17  6  1  0  0  0  0
 17 26  1  1  0  0  0
 18  8  2  0  0  0  0
 19 17  1  0  0  0  0
 19  6  1  0  0  0  0
 20 18  1  6  0  0  0
 20  9  1  0  0  0  0
 22 24  1  0  0  0  0
 22 25  1  0  0  0  0
 23 22  1  0  0  0  0
 26  1  1  0  0  0  0
 27 19  1  0  0  0  0
 27 30  1  0  0  0  0
 28 27  1  0  0  0  0
 29 27  1  0  0  0  0
 31 51  3  0  0  0  0
 32 33  1  0  0  0  0
 32 35  1  0  0  0  0
 34 32  1  0  0  0  0
 36 38  1  0  0  0  0
 37 36  1  0  0  0  0
 39 36  1  0  0  0  0
 40 31  1  0  0  0  0
 40  3  1  0  0  0  0
 40 41  1  0  0  0  0
 42 40  1  0  0  0  0
 43 45  1  0  0  0  0
 43 46  1  0  0  0  0
 44 43  1  0  0  0  0
 47 48  1  0  0  0  0
 47  2  1  0  0  0  0
 49 47  1  0  0  0  0
 50 47  1  0  0  0  0
 51 52  1  0  0  0  0
M  END
