8,10
q = -1.0, confidence = 0.016

 13 12  0  0  1  0  0  0  0  0999 V2000
    0.7147    2.6648   -1.0220 F   0  0  0  0  0  0  0  0  0  0  0  0
    0.4692    3.1961    1.0902 F   0  0  0  0  0  0  0  0  0  0  0  0
    2.4557    2.8375    0.2747 F   0  0  0  0  0  0  0  0  0  0  0  0
    2.4988   -1.4766    1.2823 F   0  0  0  0  0  0  0  0  0  0  0  0
    3.7658   -0.6045   -0.2613 F   0  0  0  0  0  0  0  0  0  0  0  0
    2.3764   -2.2079   -0.7790 F   0  0  0  0  0  0  0  0  0  0  0  0
    0.7443   -0.1310   -2.7359 O   0  0  0  0  0  0  0  0  0  0  0  0
    0.7071   -0.0660   -1.5388 C   0  0  0  0  0  3  0  0  0  0  0  0
    1.4742   -0.0673   -0.3263 C   0  0  1  0  0  3  0  0  0  0  0  0
    1.0773    0.9532    0.6213 C   0  0  0  0  0  3  0  0  0  0  0  0
    2.5307   -1.0988   -0.0220 C   0  0  0  0  0  0  0  0  0  0  0  0
    1.1721    2.4060    0.2313 C   0  0  0  0  0  0  0  0  0  0  0  0
    1.4799    0.8237    1.6397 H   0  0  0  0  0  0  0  0  0  0  0  0
  1 12  1  0  0  0  0
  5 11  1  0  0  0  0
  6 11  1  0  0  0  0
  7  8  2  0  0  0  0
  9  8  1  1  0  0  0
  9 11  1  0  0  0  0
  9 10  1  0  0  0  0
 10 13  1  0  0  0  0
 11  4  1  0  0  0  0
 12  3  1  0  0  0  0
 12 10  1  0  0  0  0
 12  2  1  0  0  0  0
M  END
