3,5
q = -2.0, confidence = 0.726

 30 31  0  0  1  0  0  0  0  0999 V2000
   -2.4048   -1.1033   -0.8616 C   0  0  2  0  0  0  0  0  0  0  0  0
   -3.2605   -0.8846   -1.5382 H   0  0  0  0  0  0  0  0  0  0  0  0
   -0.0123   -1.5628   -1.7001 C   0  0  0  0  0  3  0  0  0  0  0  0
    0.7610   -1.4058   -2.4675 H   0  0  0  0  0  0  0  0  0  0  0  0
   -1.5431    0.8488    0.5321 C   0  0  0  0  0  3  0  0  0  0  0  0
   -1.4767    1.1862    1.5928 H   0  0  0  0  0  0  0  0  0  0  0  0
   -1.1225   -0.6686   -1.5711 C   0  0  0  0  0  3  0  0  0  0  0  0
   -1.2128    0.1165   -2.3402 H   0  0  0  0  0  0  0  0  0  0  0  0
    0.1732   -2.5325   -0.6821 C   0  0  0  0  0  3  0  0  0  0  0  0
    1.1119   -3.1110   -0.6811 H   0  0  0  0  0  0  0  0  0  0  0  0
   -1.9637    2.0669   -0.3007 C   0  0  0  0  0  0  0  0  0  0  0  0
   -1.8950    1.8471   -1.3888 H   0  0  0  0  0  0  0  0  0  0  0  0
   -1.2678    2.9103   -0.1226 H   0  0  0  0  0  0  0  0  0  0  0  0
   -2.5972   -0.2926    0.4617 C   0  0  1  0  0  0  0  0  0  0  0  0
   -2.3831   -0.9879    1.2979 H   0  0  0  0  0  0  0  0  0  0  0  0
   -2.3738   -2.6346   -0.6579 C   0  0  0  0  0  0  0  0  0  0  0  0
   -3.2253   -2.9459   -0.0167 H   0  0  0  0  0  0  0  0  0  0  0  0
   -2.5363   -3.1073   -1.6502 H   0  0  0  0  0  0  0  0  0  0  0  0
   -1.0553   -3.1908   -0.0720 C   0  0  0  0  0  0  0  0  0  0  0  0
   -1.0479   -3.1396    1.0365 H   0  0  0  0  0  0  0  0  0  0  0  0
   -0.9970   -4.2779   -0.3037 H   0  0  0  0  0  0  0  0  0  0  0  0
   -3.3979    2.5342    0.0026 C   0  0  0  0  0  0  0  0  0  0  0  0
   -3.4578    2.8766    1.0609 H   0  0  0  0  0  0  0  0  0  0  0  0
   -3.6542    3.4137   -0.6270 H   0  0  0  0  0  0  0  0  0  0  0  0
   -4.4027    1.3996   -0.2130 C   0  0  0  0  0  0  0  0  0  0  0  0
   -4.3888    1.1002   -1.2859 H   0  0  0  0  0  0  0  0  0  0  0  0
   -5.4384    1.7417   -0.0026 H   0  0  0  0  0  0  0  0  0  0  0  0
   -4.0456    0.2003    0.6697 C   0  0  0  0  0  0  0  0  0  0  0  0
   -4.7541   -0.6410    0.5017 H   0  0  0  0  0  0  0  0  0  0  0  0
   -4.1679    0.4964    1.7350 H   0  0  0  0  0  0  0  0  0  0  0  0
  1  2  1  6  0  0  0
  1 16  1  0  0  0  0
  1 14  1  0  0  0  0
  3  7  1  0  0  0  0
  3  9  1  0  0  0  0
  4  3  1  0  0  0  0
  5  6  1  0  0  0  0
  7  1  1  0  0  0  0
  8  7  1  0  0  0  0
  9 10  1  0  0  0  0
  9 19  1  0  0  0  0
 11 13  1  0  0  0  0
 11 22  1  0  0  0  0
 11  5  1  0  0  0  0
 12 11  1  0  0  0  0
 14  5  1  0  0  0  0
 14 28  1  0  0  0  0
 14 15  1  1  0  0  0
 16 19  1  0  0  0  0
 16 17  1  0  0  0  0
 18 16  1  0  0  0  0
 19 20  1  0  0  0  0
 21 19  1  0  0  0  0
 22 23  1  0  0  0  0
 24 22  1  0  0  0  0
 25 27  1  0  0  0  0
 25 22  1  0  0  0  0
 25 28  1  0  0  0  0
 26 25  1  0  0  0  0
 28 30  1  0  0  0  0
 29 28  1  0  0  0  0
M  END
