4,6
q = 0.0, confidence = 0.998

 24 25  0  0  1  0  0  0  0  0999 V2000
   -1.6954    2.5849   -0.3598 O   0  0  0  0  0  0  0  0  0  0  0  0
   -1.4248   -2.3770   -0.6782 O   0  0  0  0  0  0  0  0  0  0  0  0
   -0.8953   -0.7218    1.0152 C   0  0  1  0  0  3  0  0  0  0  0  0
    0.2579   -1.3126    1.6147 C   0  0  0  0  0  3  0  0  0  0  0  0
    1.3057   -0.5196    2.1566 C   0  0  0  0  0  3  0  0  0  0  0  0
    1.2345    0.8937    2.0231 C   0  0  0  0  0  3  0  0  0  0  0  0
    0.1112    1.5096    1.4092 C   0  0  0  0  0  0  0  0  0  0  0  0
   -0.9443    0.7066    0.8851 C   0  0  0  0  0  0  0  0  0  0  0  0
   -2.1417    1.3858    0.2450 C   0  0  2  0  0  0  0  0  0  0  0  0
   -2.8922    0.4500   -0.7050 C   0  0  0  0  0  0  0  0  0  0  0  0
   -3.2266   -0.8541    0.0159 C   0  0  0  0  0  0  0  0  0  0  0  0
   -1.9589   -1.6309    0.4068 C   0  0  1  0  0  0  0  0  0  0  0  0
   -2.4581    2.9827   -0.8167 H   0  0  0  0  0  0  0  0  0  0  0  0
   -0.7658   -1.7917   -1.1107 H   0  0  0  0  0  0  0  0  0  0  0  0
    0.3286   -2.4100    1.6413 H   0  0  0  0  0  0  0  0  0  0  0  0
    2.1916   -0.9950    2.5975 H   0  0  0  0  0  0  0  0  0  0  0  0
    2.0714    1.5165    2.3704 H   0  0  0  0  0  0  0  0  0  0  0  0
    0.0733    2.5950    1.2552 H   0  0  0  0  0  0  0  0  0  0  0  0
   -2.8335    1.6168    1.1003 H   0  0  0  0  0  0  0  0  0  0  0  0
   -3.8164    0.9536   -1.0599 H   0  0  0  0  0  0  0  0  0  0  0  0
   -2.2669    0.2555   -1.6002 H   0  0  0  0  0  0  0  0  0  0  0  0
   -3.8177   -0.6341    0.9328 H   0  0  0  0  0  0  0  0  0  0  0  0
   -3.8441   -1.5200   -0.6177 H   0  0  0  0  0  0  0  0  0  0  0  0
   -2.2384   -2.3845    1.1770 H   0  0  0  0  0  0  0  0  0  0  0  0
  1  9  1  0  0  0  0
  2 12  1  0  0  0  0
  3  8  1  6  0  0  0
  3  4  1  0  0  0  0
  4 15  1  0  0  0  0
  4  5  1  0  0  0  0
  5 16  1  0  0  0  0
  6  5  1  0  0  0  0
  6 17  1  0  0  0  0
  7  6  1  0  0  0  0
  8  7  2  0  0  0  0
  9  8  1  0  0  0  0
  9 19  1  1  0  0  0
 10 11  1  0  0  0  0
 10  9  1  0  0  0  0
 11 12  1  0  0  0  0
 11 22  1  0  0  0  0
 12  3  1  0  0  0  0
 12 24  1  1  0  0  0
 13  1  1  0  0  0  0
 14  2  1  0  0  0  0
 18  7  1  0  0  0  0
 20 10  1  0  0  0  0
 21 10  1  0  0  0  0
 23 11  1  0  0  0  0
M  END
