1,3
q = 0.0, confidence = 0.536

 29 28  0  0  0  0  0  0  0  0999 V2000
   -1.2728    0.9586    0.0423 C   0  0  0  0  0  3  0  0  0  0  0  0
   -0.0000    1.5451    0.0159 C   0  0  0  0  0  3  0  0  0  0  0  0
    1.2728    0.9586    0.0423 C   0  0  0  0  0  2  0  0  0  0  0  0
   -2.6525    1.5348   -0.1270 C   0  0  0  0  0  0  0  0  0  0  0  0
   -2.7164    2.3538   -1.4331 C   0  0  0  0  0  0  0  0  0  0  0  0
   -2.9209    2.4585    1.0824 C   0  0  0  0  0  0  0  0  0  0  0  0
   -3.6871    0.3964   -0.1579 C   0  0  0  0  0  0  0  0  0  0  0  0
    2.6524    1.5349   -0.1271 C   0  0  0  0  0  0  0  0  0  0  0  0
    2.9210    2.4579    1.0828 C   0  0  0  0  0  0  0  0  0  0  0  0
    2.7160    2.3547   -1.4327 C   0  0  0  0  0  0  0  0  0  0  0  0
    3.6870    0.3966   -0.1588 C   0  0  0  0  0  0  0  0  0  0  0  0
   -3.7190    2.8125   -1.5600 H   0  0  0  0  0  0  0  0  0  0  0  0
   -1.9589    3.1628   -1.4242 H   0  0  0  0  0  0  0  0  0  0  0  0
   -2.5197    1.7113   -2.3159 H   0  0  0  0  0  0  0  0  0  0  0  0
   -3.9264    2.9209    0.9978 H   0  0  0  0  0  0  0  0  0  0  0  0
   -2.8763    1.8891    2.0322 H   0  0  0  0  0  0  0  0  0  0  0  0
   -2.1655    3.2680    1.1316 H   0  0  0  0  0  0  0  0  0  0  0  0
   -4.7172    0.8027   -0.2200 H   0  0  0  0  0  0  0  0  0  0  0  0
   -3.5272   -0.2624   -1.0354 H   0  0  0  0  0  0  0  0  0  0  0  0
   -3.6096   -0.2291    0.7538 H   0  0  0  0  0  0  0  0  0  0  0  0
    3.9265    2.9204    0.9983 H   0  0  0  0  0  0  0  0  0  0  0  0
    2.1656    3.2674    1.1327 H   0  0  0  0  0  0  0  0  0  0  0  0
    2.8767    1.8879    2.0322 H   0  0  0  0  0  0  0  0  0  0  0  0
    3.7186    2.8135   -1.5596 H   0  0  0  0  0  0  0  0  0  0  0  0
    2.5191    1.7126   -2.3158 H   0  0  0  0  0  0  0  0  0  0  0  0
    1.9584    3.1636   -1.4232 H   0  0  0  0  0  0  0  0  0  0  0  0
    4.7171    0.8030   -0.2208 H   0  0  0  0  0  0  0  0  0  0  0  0
    3.6098   -0.2295    0.7526 H   0  0  0  0  0  0  0  0  0  0  0  0
    3.5271   -0.2617   -1.0366 H   0  0  0  0  0  0  0  0  0  0  0  0
  2  1  2  0  0  0  0
  2  3  1  0  0  0  0
  4  1  1  0  0  0  0
  4  6  1  0  0  0  0
  5 13  1  0  0  0  0
  5  4  1  0  0  0  0
  6 17  1  0  0  0  0
  6 16  1  0  0  0  0
  7  4  1  0  0  0  0
  7 20  1  0  0  0  0
  8  3  1  0  0  0  0
  8  9  1  0  0  0  0
  9 22  1  0  0  0  0
  9 23  1  0  0  0  0
 10 26  1  0  0  0  0
 10  8  1  0  0  0  0
 11  8  1  0  0  0  0
 11 28  1  0  0  0  0
 12  5  1  0  0  0  0
 14  5  1  0  0  0  0
 15  6  1  0  0  0  0
 18  7  1  0  0  0  0
 19  7  1  0  0  0  0
 21  9  1  0  0  0  0
 24 10  1  0  0  0  0
 25 10  1  0  0  0  0
 27 11  1  0  0  0  0
 29 11  1  0  0  0  0
M  END
