1,2
q = -1.0

 38 39  0  0  1  0  0  0  0  0999 V2000
   -0.3482   -1.1010    0.6332 C   0  0  0  0  0  3  0  0  0  0  0  0
   -0.5590    0.5647   -1.6272 C   0  0  0  0  0  3  0  0  0  0  0  0
   -0.2421    1.3529   -0.4764 C   0  0  0  0  0  3  0  0  0  0  0  0
    0.8888    0.9961    0.4725 C   0  0  2  0  0  0  0  0  0  0  0  0
    2.2180    1.4941   -0.0933 C   0  0  0  0  0  0  0  0  0  0  0  0
    2.9218    2.5087    0.5806 C   0  0  0  0  0  0  0  0  0  0  0  0
    4.1451    2.9886    0.0854 C   0  0  0  0  0  0  0  0  0  0  0  0
    4.6772    2.4573   -1.0981 C   0  0  0  0  0  0  0  0  0  0  0  0
    3.9734    1.4550   -1.7874 C   0  0  0  0  0  0  0  0  0  0  0  0
    2.7518    0.9837   -1.2933 C   0  0  0  0  0  0  0  0  0  0  0  0
    1.9416   -1.0847    1.5229 C   0  0  2  0  0  0  0  0  0  0  0  0
    2.2349   -0.3221    2.8157 C   0  0  0  0  0  0  0  0  0  0  0  0
    3.1508   -1.4084    0.6550 C   0  0  0  0  0  0  0  0  0  0  0  0
    2.9631   -2.2577   -0.4565 C   0  0  0  0  0  0  0  0  0  0  0  0
    4.0259   -2.5615   -1.3161 C   0  0  0  0  0  0  0  0  0  0  0  0
    5.3029   -2.0252   -1.0742 C   0  0  0  0  0  0  0  0  0  0  0  0
    5.5041   -1.1982    0.0399 C   0  0  0  0  0  0  0  0  0  0  0  0
    4.4367   -0.8965    0.9011 C   0  0  0  0  0  0  0  0  0  0  0  0
   -0.4715   -2.2781    0.9860 O   0  0  0  0  0  0  0  0  0  0  0  0
    0.8591   -0.4372    0.7413 N   0  0  0  0  0  0  0  0  0  0  0  0
    0.0421   -0.3299   -1.8545 H   0  0  0  0  0  0  0  0  0  0  0  0
   -0.9804    1.0801   -2.5050 H   0  0  0  0  0  0  0  0  0  0  0  0
   -0.4030    2.4401   -0.5349 H   0  0  0  0  0  0  0  0  0  0  0  0
    0.7194    1.5556    1.4222 H   0  0  0  0  0  0  0  0  0  0  0  0
    2.5062    2.9238    1.5133 H   0  0  0  0  0  0  0  0  0  0  0  0
    4.6844    3.7787    0.6299 H   0  0  0  0  0  0  0  0  0  0  0  0
    5.6403    2.8232   -1.4853 H   0  0  0  0  0  0  0  0  0  0  0  0
    4.3865    1.0269   -2.7129 H   0  0  0  0  0  0  0  0  0  0  0  0
    2.2196    0.1870   -1.8294 H   0  0  0  0  0  0  0  0  0  0  0  0
    1.4793   -2.0570    1.7968 H   0  0  0  0  0  0  0  0  0  0  0  0
    1.2942   -0.1548    3.3764 H   0  0  0  0  0  0  0  0  0  0  0  0
    2.7122    0.6610    2.6363 H   0  0  0  0  0  0  0  0  0  0  0  0
    2.9162   -0.9133    3.4586 H   0  0  0  0  0  0  0  0  0  0  0  0
    1.9602   -2.6751   -0.6413 H   0  0  0  0  0  0  0  0  0  0  0  0
    3.8609   -3.2246   -2.1795 H   0  0  0  0  0  0  0  0  0  0  0  0
    6.1394   -2.2584   -1.7505 H   0  0  0  0  0  0  0  0  0  0  0  0
    6.4996   -0.7729    0.2389 H   0  0  0  0  0  0  0  0  0  0  0  0
    4.6101   -0.2289    1.7567 H   0  0  0  0  0  0  0  0  0  0  0  0
  1 20  1  0  0  0  0
  1 19  2  0  0  0  0
  2  3  1  0  0  0  0
  3  4  1  0  0  0  0
  4 20  1  0  0  0  0
  4 24  1  1  0  0  0
  5  4  1  0  0  0  0
  5  6  1  0  0  0  0
  6 25  1  0  0  0  0
  7  6  2  0  0  0  0
  7 26  1  0  0  0  0
  8  7  1  0  0  0  0
  9 10  1  0  0  0  0
  9  8  2  0  0  0  0
 10  5  2  0  0  0  0
 11 30  1  1  0  0  0
 11 12  1  0  0  0  0
 12 31  1  0  0  0  0
 12 33  1  0  0  0  0
 13 18  1  0  0  0  0
 13 11  1  0  0  0  0
 14 13  2  0  0  0  0
 15 16  2  0  0  0  0
 15 14  1  0  0  0  0
 16 17  1  0  0  0  0
 17 37  1  0  0  0  0
 17 18  2  0  0  0  0
 18 38  1  0  0  0  0
 20 11  1  0  0  0  0
 21  2  1  0  0  0  0
 22  2  1  0  0  0  0
 23  3  1  0  0  0  0
 27  8  1  0  0  0  0
 28  9  1  0  0  0  0
 29 10  1  0  0  0  0
 32 12  1  0  0  0  0
 34 14  1  0  0  0  0
 35 15  1  0  0  0  0
 36 16  1  0  0  0  0
M  END
