1,3
q = -1.0

 11 10  0  0  0  0  0  0  0  0999 V2000
   -0.9822   -1.5899   -1.2031 C   0  0  0  0  0  3  0  0  0  0  0  0
   -1.7110   -1.3405   -0.0004 C   0  0  0  0  0  3  0  0  0  0  0  0
   -0.9836   -1.5894    1.2033 C   0  0  0  0  0  3  0  0  0  0  0  0
   -3.1051   -0.7676   -0.0013 C   0  0  0  0  0  0  0  0  0  0  0  0
   -0.2767   -2.4369   -1.2249 H   0  0  0  0  0  0  0  0  0  0  0  0
   -1.4456   -1.3436   -2.1711 H   0  0  0  0  0  0  0  0  0  0  0  0
   -0.2780   -2.4363    1.2264 H   0  0  0  0  0  0  0  0  0  0  0  0
   -1.4482   -1.3428    2.1706 H   0  0  0  0  0  0  0  0  0  0  0  0
   -3.2978   -0.1500    0.8974 H   0  0  0  0  0  0  0  0  0  0  0  0
   -3.2969   -0.1508   -0.9007 H   0  0  0  0  0  0  0  0  0  0  0  0
   -3.8419   -1.6004   -0.0013 H   0  0  0  0  0  0  0  0  0  0  0  0
  1  2  1  0  0  0  0
  2  3  1  0  0  0  0
  3  7  1  0  0  0  0
  3  8  1  0  0  0  0
  4  2  1  0  0  0  0
  4  9  1  0  0  0  0
  5  1  1  0  0  0  0
  6  1  1  0  0  0  0
 10  4  1  0  0  0  0
 11  4  1  0  0  0  0
M  END
