30,33
q = -1.0, confidence = 0.072

 49 50  0  0  1  0  0  0  0  0999 V2000
    0.6409   -1.4126   -1.6540 H   0  0  0  0  0  0  0  0  0  0  0  0
   -0.2059   -1.3260   -1.0727 N   0  0  0  0  0  0  0  0  0  0  0  0
   -0.1958   -2.4636   -0.1124 C   0  0  0  0  0  0  0  0  0  0  0  0
   -0.3266   -3.4188   -0.6713 H   0  0  0  0  0  0  0  0  0  0  0  0
   -1.0784   -2.3525    0.5462 H   0  0  0  0  0  0  0  0  0  0  0  0
    1.0767   -2.5041    0.6965 C   0  0  0  0  0  0  0  0  0  0  0  0
    2.2429   -3.0855    0.1595 C   0  0  0  0  0  0  0  0  0  0  0  0
    2.2127   -3.5466   -0.8414 H   0  0  0  0  0  0  0  0  0  0  0  0
    3.4371   -3.1087    0.8968 C   0  0  0  0  0  0  0  0  0  0  0  0
    4.3355   -3.5790    0.4697 H   0  0  0  0  0  0  0  0  0  0  0  0
    3.4778   -2.5523    2.1858 C   0  0  0  0  0  0  0  0  0  0  0  0
    4.4082   -2.5849    2.7725 H   0  0  0  0  0  0  0  0  0  0  0  0
    2.3204   -1.9719    2.7324 C   0  0  0  0  0  0  0  0  0  0  0  0
    2.3426   -1.5475    3.7473 H   0  0  0  0  0  0  0  0  0  0  0  0
    1.1286   -1.9473    1.9903 C   0  0  0  0  0  0  0  0  0  0  0  0
    0.2207   -1.5038    2.4246 H   0  0  0  0  0  0  0  0  0  0  0  0
   -1.3812   -1.3574   -1.9811 C   0  0  0  0  0  0  0  0  0  0  0  0
   -1.3693   -2.2878   -2.5913 H   0  0  0  0  0  0  0  0  0  0  0  0
   -1.2699   -0.5021   -2.6806 H   0  0  0  0  0  0  0  0  0  0  0  0
   -2.6937   -1.2823   -1.2374 C   0  0  0  0  0  0  0  0  0  0  0  0
   -3.0049   -0.2031   -0.3717 C   0  0  0  0  0  0  0  0  0  0  0  0
   -4.2567   -0.1970    0.2806 C   0  0  0  0  0  0  0  0  0  0  0  0
   -4.5128    0.6516    0.9337 H   0  0  0  0  0  0  0  0  0  0  0  0
   -5.1813   -1.2343    0.1018 C   0  0  0  0  0  0  0  0  0  0  0  0
   -6.1502   -1.2008    0.6217 H   0  0  0  0  0  0  0  0  0  0  0  0
   -4.8646   -2.3078   -0.7421 C   0  0  0  0  0  0  0  0  0  0  0  0
   -5.5785   -3.1313   -0.8897 H   0  0  0  0  0  0  0  0  0  0  0  0
   -3.6275   -2.3250   -1.3990 C   0  0  0  0  0  0  0  0  0  0  0  0
   -3.3751   -3.1679   -2.0614 H   0  0  0  0  0  0  0  0  0  0  0  0
   -2.1301    1.0106   -0.1853 C   0  0  2  0  0  3  0  0  0  0  0  0
   -1.6185    1.3062    1.1114 C   0  0  1  0  0  3  0  0  0  0  0  0
   -0.9046    2.6084    1.3520 C   0  0  0  0  0  0  0  0  0  0  0  0
    0.2063    2.5551    0.5833 C   0  0  0  0  0  3  0  0  0  0  0  0
   -2.3933    2.0751   -1.2405 C   0  0  0  0  0  0  0  0  0  0  0  0
   -3.4820    2.3012   -1.2434 H   0  0  0  0  0  0  0  0  0  0  0  0
   -2.1535    1.7096   -2.2591 H   0  0  0  0  0  0  0  0  0  0  0  0
   -1.8292    3.0056   -1.0546 H   0  0  0  0  0  0  0  0  0  0  0  0
   -1.8845    0.4371    2.3156 C   0  0  0  0  0  0  0  0  0  0  0  0
   -2.7499    0.8460    2.8811 H   0  0  0  0  0  0  0  0  0  0  0  0
   -1.0186    0.4475    3.0060 H   0  0  0  0  0  0  0  0  0  0  0  0
   -2.1372   -0.6052    2.0482 H   0  0  0  0  0  0  0  0  0  0  0  0
   -1.3834    3.6351    2.3335 C   0  0  0  0  0  0  0  0  0  0  0  0
   -1.4431    3.2193    3.3620 H   0  0  0  0  0  0  0  0  0  0  0  0
   -2.4022    3.9943    2.0735 H   0  0  0  0  0  0  0  0  0  0  0  0
   -0.7088    4.5115    2.3655 H   0  0  0  0  0  0  0  0  0  0  0  0
    1.3511    3.4968    0.4318 C   0  0  0  0  0  0  0  0  0  0  0  0
    1.1670    4.4419    0.9845 H   0  0  0  0  0  0  0  0  0  0  0  0
    1.5360    3.7573   -0.6315 H   0  0  0  0  0  0  0  0  0  0  0  0
    2.2955    3.0604    0.8207 H   0  0  0  0  0  0  0  0  0  0  0  0
  1  2  1  0  0  0  0
  2  3  1  0  0  0  0
  3  5  1  0  0  0  0
  3  6  1  0  0  0  0
  4  3  1  0  0  0  0
  6 15  1  0  0  0  0
  7  6  2  0  0  0  0
  7  9  1  0  0  0  0
  8  7  1  0  0  0  0
  9 11  2  0  0  0  0
 10  9  1  0  0  0  0
 11 13  1  0  0  0  0
 11 12  1  0  0  0  0
 13 14  1  0  0  0  0
 15 16  1  0  0  0  0
 15 13  2  0  0  0  0
 17 20  1  0  0  0  0
 17  2  1  0  0  0  0
 18 17  1  0  0  0  0
 19 17  1  0  0  0  0
 20 21  1  0  0  0  0
 21 30  1  0  0  0  0
 21 22  2  0  0  0  0
 22 23  1  0  0  0  0
 24 22  1  0  0  0  0
 24 25  1  0  0  0  0
 26 24  2  0  0  0  0
 27 26  1  0  0  0  0
 28 20  2  0  0  0  0
 28 26  1  0  0  0  0
 29 28  1  0  0  0  0
 30 34  1  1  0  0  0
 30 31  1  0  0  0  0
 31 32  1  1  0  0  0
 31 38  1  0  0  0  0
 32 42  1  0  0  0  0
 33 32  2  0  0  0  0
 34 37  1  0  0  0  0
 35 34  1  0  0  0  0
 36 34  1  0  0  0  0
 38 39  1  0  0  0  0
 38 40  1  0  0  0  0
 41 38  1  0  0  0  0
 42 45  1  0  0  0  0
 42 43  1  0  0  0  0
 44 42  1  0  0  0  0
 46 33  1  0  0  0  0
 46 49  1  0  0  0  0
 46 47  1  0  0  0  0
 48 46  1  0  0  0  0
M  END
