4,7
q = -1.0, confidence = 0.082

 51 52  0  0  1  0  0  0  0  0999 V2000
   -1.2455   -0.3658    0.4058 N   0  0  0  0  0  0  0  0  0  0  0  0
   -1.3863   -1.3029    0.8186 H   0  0  0  0  0  0  0  0  0  0  0  0
    3.1965   -1.9843    1.3510 O   0  0  0  0  0  0  0  0  0  0  0  0
    2.8986   -1.1540    0.5195 C   0  0  0  0  0  3  0  0  0  0  0  0
    3.8991   -0.3395   -0.2293 C   0  0  0  0  0  0  0  0  0  0  0  0
    3.3819    0.7660   -0.8372 C   0  0  0  0  0  0  0  0  0  0  0  0
    1.9058    1.0160   -0.7439 C   0  0  1  0  0  3  0  0  0  0  0  0
    1.3187    1.4685    0.4922 C   0  0  1  0  0  3  0  0  0  0  0  0
    5.3369   -0.7523   -0.1217 C   0  0  0  0  0  0  0  0  0  0  0  0
    5.6562   -0.7683    0.9408 H   0  0  0  0  0  0  0  0  0  0  0  0
    6.0169   -0.0882   -0.6865 H   0  0  0  0  0  0  0  0  0  0  0  0
    5.4673   -1.7888   -0.4950 H   0  0  0  0  0  0  0  0  0  0  0  0
    4.1842    1.7981   -1.5774 C   0  0  0  0  0  0  0  0  0  0  0  0
    3.9593    2.8173   -1.1964 H   0  0  0  0  0  0  0  0  0  0  0  0
    3.9262    1.8046   -2.6577 H   0  0  0  0  0  0  0  0  0  0  0  0
    5.2729    1.6285   -1.4916 H   0  0  0  0  0  0  0  0  0  0  0  0
    1.2204    1.2817   -2.0716 C   0  0  0  0  0  0  0  0  0  0  0  0
    1.4878    0.4993   -2.8088 H   0  0  0  0  0  0  0  0  0  0  0  0
    1.5234    2.2655   -2.4924 H   0  0  0  0  0  0  0  0  0  0  0  0
    0.1213    1.3039   -1.9637 H   0  0  0  0  0  0  0  0  0  0  0  0
    2.1231    1.7314    1.7555 C   0  0  0  0  0  0  0  0  0  0  0  0
    1.5275    1.4746    2.6545 H   0  0  0  0  0  0  0  0  0  0  0  0
    2.3620    2.8152    1.8325 H   0  0  0  0  0  0  0  0  0  0  0  0
    3.0669    1.1595    1.7934 H   0  0  0  0  0  0  0  0  0  0  0  0
   -1.5460    0.6772    1.4004 C   0  0  0  0  0  0  0  0  0  0  0  0
   -0.9497    0.4347    2.3058 H   0  0  0  0  0  0  0  0  0  0  0  0
   -2.6191    0.6622    1.6961 H   0  0  0  0  0  0  0  0  0  0  0  0
    0.1044    2.3702    0.4154 C   0  0  0  0  0  0  0  0  0  0  0  0
   -1.1964    2.0535    0.8823 C   0  0  0  0  0  0  0  0  0  0  0  0
   -2.2051    3.0367    0.8278 C   0  0  0  0  0  0  0  0  0  0  0  0
   -3.2137    2.7731    1.1829 H   0  0  0  0  0  0  0  0  0  0  0  0
   -1.9543    4.3226    0.3320 C   0  0  0  0  0  0  0  0  0  0  0  0
   -2.7606    5.0706    0.3023 H   0  0  0  0  0  0  0  0  0  0  0  0
   -0.6694    4.6407   -0.1307 C   0  0  0  0  0  0  0  0  0  0  0  0
   -0.4504    5.6436   -0.5273 H   0  0  0  0  0  0  0  0  0  0  0  0
    0.3405    3.6715   -0.0825 C   0  0  0  0  0  0  0  0  0  0  0  0
    1.3538    3.9248   -0.4337 H   0  0  0  0  0  0  0  0  0  0  0  0
   -2.0415   -0.3075   -0.8412 C   0  0  0  0  0  0  0  0  0  0  0  0
   -1.6188   -1.0899   -1.5038 H   0  0  0  0  0  0  0  0  0  0  0  0
   -1.8725    0.6793   -1.3162 H   0  0  0  0  0  0  0  0  0  0  0  0
   -3.5203   -0.5416   -0.6189 C   0  0  0  0  0  0  0  0  0  0  0  0
   -4.4562    0.5053   -0.7200 C   0  0  0  0  0  0  0  0  0  0  0  0
   -4.1102    1.5116   -1.0059 H   0  0  0  0  0  0  0  0  0  0  0  0
   -5.8181    0.2748   -0.4663 C   0  0  0  0  0  0  0  0  0  0  0  0
   -6.5397    1.1017   -0.5519 H   0  0  0  0  0  0  0  0  0  0  0  0
   -6.2577   -1.0079   -0.1051 C   0  0  0  0  0  0  0  0  0  0  0  0
   -7.3246   -1.1903    0.0946 H   0  0  0  0  0  0  0  0  0  0  0  0
   -5.3318   -2.0604   -0.0047 C   0  0  0  0  0  0  0  0  0  0  0  0
   -5.6732   -3.0706    0.2682 H   0  0  0  0  0  0  0  0  0  0  0  0
   -3.9733   -1.8291   -0.2612 C   0  0  0  0  0  0  0  0  0  0  0  0
   -3.2462   -2.6558   -0.1927 H   0  0  0  0  0  0  0  0  0  0  0  0
  1  2  1  0  0  0  0
  1 25  1  0  0  0  0
  4  3  2  0  0  0  0
  5  9  1  0  0  0  0
  5  4  1  0  0  0  0
  6  5  2  0  0  0  0
  7  6  1  6  0  0  0
  7  8  1  0  0  0  0
  8 21  1  6  0  0  0
  9 10  1  0  0  0  0
 11  9  1  0  0  0  0
 12  9  1  0  0  0  0
 13 16  1  0  0  0  0
 13 14  1  0  0  0  0
 13  6  1  0  0  0  0
 15 13  1  0  0  0  0
 17 20  1  0  0  0  0
 17  7  1  0  0  0  0
 18 17  1  0  0  0  0
 19 17  1  0  0  0  0
 21 24  1  0  0  0  0
 21 23  1  0  0  0  0
 21 22  1  0  0  0  0
 25 27  1  0  0  0  0
 25 26  1  0  0  0  0
 28  8  1  0  0  0  0
 28 29  1  0  0  0  0
 29 25  1  0  0  0  0
 30 29  2  0  0  0  0
 30 31  1  0  0  0  0
 32 30  1  0  0  0  0
 33 32  1  0  0  0  0
 34 36  1  0  0  0  0
 34 32  2  0  0  0  0
 35 34  1  0  0  0  0
 36 28  2  0  0  0  0
 37 36  1  0  0  0  0
 38 41  1  0  0  0  0
 38  1  1  0  0  0  0
 39 38  1  0  0  0  0
 40 38  1  0  0  0  0
 41 50  1  0  0  0  0
 42 41  2  0  0  0  0
 42 44  1  0  0  0  0
 43 42  1  0  0  0  0
 44 46  2  0  0  0  0
 45 44  1  0  0  0  0
 46 48  1  0  0  0  0
 46 47  1  0  0  0  0
 48 49  1  0  0  0  0
 50 51  1  0  0  0  0
 50 48  2  0  0  0  0
M  END
