8,18
q = -1.0

 26 27  0  0  0  0  0  0  0  0999 V2000
   -2.8583    0.2963    0.0801 N   0  0  0  0  0  0  0  0  0  0  0  0
   -1.7443    2.0940    0.5121 N   0  0  0  0  0  0  0  0  0  0  0  0
   -1.2182   -1.5365   -1.7775 C   0  0  0  0  0  0  0  0  0  0  0  0
   -0.4432   -2.5120   -1.0917 C   0  0  0  0  0  0  0  0  0  0  0  0
   -0.8368   -3.2717   -0.4056 H   0  0  0  0  0  0  0  0  0  0  0  0
    0.9265   -2.3227   -1.4351 C   0  0  0  0  0  0  0  0  0  0  0  0
    1.7744   -2.9165   -1.0735 H   0  0  0  0  0  0  0  0  0  0  0  0
    1.0027   -1.2429   -2.3641 C   0  0  0  0  0  3  0  0  0  0  0  0
    1.9159   -0.8641   -2.8338 H   0  0  0  0  0  0  0  0  0  0  0  0
   -0.3136   -0.7491   -2.5627 C   0  0  0  0  0  0  0  0  0  0  0  0
   -0.6065    0.0847   -3.2141 H   0  0  0  0  0  0  0  0  0  0  0  0
   -2.7133   -1.4094   -1.7125 C   0  0  0  0  0  0  0  0  0  0  0  0
   -3.1758   -2.3718   -2.0160 H   0  0  0  0  0  0  0  0  0  0  0  0
   -3.0699   -0.6435   -2.4300 H   0  0  0  0  0  0  0  0  0  0  0  0
   -3.2224   -1.0676   -0.3095 C   0  0  0  0  0  0  0  0  0  0  0  0
   -4.3255   -1.1360   -0.2625 H   0  0  0  0  0  0  0  0  0  0  0  0
   -2.8111   -1.7745    0.4404 H   0  0  0  0  0  0  0  0  0  0  0  0
   -1.5811    0.7967    0.0936 C   0  0  0  0  0  2  0  0  0  0  0  0
   -3.7838    1.2478    0.4707 C   0  0  0  0  0  0  0  0  0  0  0  0
   -4.8569    1.0398    0.5257 H   0  0  0  0  0  0  0  0  0  0  0  0
   -3.0761    2.3893    0.7451 C   0  0  0  0  0  0  0  0  0  0  0  0
   -3.4098    3.3759    1.0811 H   0  0  0  0  0  0  0  0  0  0  0  0
   -0.6793    3.0663    0.7234 C   0  0  0  0  0  0  0  0  0  0  0  0
   -0.7010    3.4280    1.7696 H   0  0  0  0  0  0  0  0  0  0  0  0
   -0.8055    3.9280    0.0398 H   0  0  0  0  0  0  0  0  0  0  0  0
    0.2850    2.5689    0.5219 H   0  0  0  0  0  0  0  0  0  0  0  0
  1 18  1  0  0  0  0
  1 19  1  0  0  0  0
  2 23  1  0  0  0  0
  2 21  1  0  0  0  0
  3 12  1  0  0  0  0
  3  4  1  0  0  0  0
  4  5  1  0  0  0  0
  6  4  2  0  0  0  0
  6  7  1  0  0  0  0
  8  6  1  0  0  0  0
  9  8  1  0  0  0  0
 10  8  1  0  0  0  0
 10  3  2  0  0  0  0
 11 10  1  0  0  0  0
 12 15  1  0  0  0  0
 13 12  1  0  0  0  0
 14 12  1  0  0  0  0
 15 16  1  0  0  0  0
 15  1  1  0  0  0  0
 15 17  1  0  0  0  0
 18  2  1  0  0  0  0
 19 20  1  0  0  0  0
 19 21  2  0  0  0  0
 21 22  1  0  0  0  0
 23 24  1  0  0  0  0
 25 23  1  0  0  0  0
 26 23  1  0  0  0  0
M  END
