11,17
q = 0.0, confidence = 0.922

 42 44  0  0  0  0  0  0  0  0999 V2000
   -6.4871   -2.7486   -1.5532 Br  0  0  0  0  0  0  0  0  0  0  0  0
   -4.3183    3.2951    0.4719 Cl  0  0  0  0  0  0  0  0  0  0  0  0
   -1.3855    5.2058    0.0066 Cl  0  0  0  0  0  0  0  0  0  0  0  0
    3.8738    0.9786   -3.4777 Cl  0  0  0  0  0  0  0  0  0  0  0  0
    2.6662    4.0282   -2.1279 Cl  0  0  0  0  0  0  0  0  0  0  0  0
   -2.2903    1.4504    0.6137 N   0  0  0  0  0  0  0  0  0  0  0  0
   -0.4933    2.6490    0.3932 N   0  0  0  0  0  0  0  0  0  0  0  0
    1.6297    2.0815   -0.5065 N   0  0  0  0  0  0  0  0  0  0  0  0
    2.3725    0.2147   -1.3235 N   0  0  0  0  0  0  0  0  0  0  0  0
    3.3557   -3.8390   -1.1488 F   0  0  0  0  0  0  0  0  0  0  0  0
   -0.9247    1.3654    0.6192 C   0  0  0  0  0  2  0  0  0  0  0  0
   -2.6997    2.7743    0.4204 C   0  0  0  0  0  0  0  0  0  0  0  0
   -1.5627    3.5342    0.2655 C   0  0  0  0  0  0  0  0  0  0  0  0
    0.9139    2.9975    0.3539 C   0  0  0  0  0  0  0  0  0  0  0  0
    1.0208    4.0251   -0.0392 H   0  0  0  0  0  0  0  0  0  0  0  0
    1.3363    2.9461    1.3766 H   0  0  0  0  0  0  0  0  0  0  0  0
    1.5791    0.7200   -0.3293 C   0  0  0  0  0  2  0  0  0  0  0  0
    2.8806    1.2427   -2.1257 C   0  0  0  0  0  0  0  0  0  0  0  0
    2.4078    2.4286   -1.6126 C   0  0  0  0  0  0  0  0  0  0  0  0
    2.7035   -1.1927   -1.5256 C   0  0  0  0  0  0  0  0  0  0  0  0
    2.6572   -1.3936   -2.6161 H   0  0  0  0  0  0  0  0  0  0  0  0
    1.8816   -1.7814   -1.0737 H   0  0  0  0  0  0  0  0  0  0  0  0
    4.0529   -1.5870   -0.9666 C   0  0  0  0  0  0  0  0  0  0  0  0
    4.3213   -2.9588   -0.8039 C   0  0  0  0  0  0  0  0  0  0  0  0
    5.5276   -3.4365   -0.2855 C   0  0  0  0  0  0  0  0  0  0  0  0
    5.6727   -4.5210   -0.1802 H   0  0  0  0  0  0  0  0  0  0  0  0
    6.5185   -2.5122    0.0792 C   0  0  0  0  0  0  0  0  0  0  0  0
    7.4755   -2.8725    0.4839 H   0  0  0  0  0  0  0  0  0  0  0  0
    6.2883   -1.1368   -0.0797 C   0  0  0  0  0  0  0  0  0  0  0  0
    7.0653   -0.4111    0.2006 H   0  0  0  0  0  0  0  0  0  0  0  0
    5.0661   -0.6830   -0.5990 C   0  0  0  0  0  0  0  0  0  0  0  0
    4.8971    0.3985   -0.7077 H   0  0  0  0  0  0  0  0  0  0  0  0
   -3.2308    0.3230    0.7782 C   0  0  0  0  0  0  0  0  0  0  0  0
   -3.8598    0.5634    1.6634 H   0  0  0  0  0  0  0  0  0  0  0  0
   -2.6077   -0.5587    1.0082 H   0  0  0  0  0  0  0  0  0  0  0  0
   -4.1003    0.0577   -0.4199 C   0  0  0  0  0  0  0  0  0  0  0  0
   -4.7347    0.8852   -0.7786 H   0  0  0  0  0  0  0  0  0  0  0  0
   -4.1881   -1.1535   -1.0034 C   0  0  0  0  0  0  0  0  0  0  0  0
   -3.5588   -1.9834   -0.6393 H   0  0  0  0  0  0  0  0  0  0  0  0
   -5.0998   -1.4618   -2.1358 C   0  0  0  0  0  0  0  0  0  0  0  0
   -4.5745   -1.9667   -2.9682 H   0  0  0  0  0  0  0  0  0  0  0  0
   -5.6358   -0.5724   -2.5143 H   0  0  0  0  0  0  0  0  0  0  0  0
  3 13  1  0  0  0  0
  4 18  1  0  0  0  0
  5 19  1  0  0  0  0
  6 11  1  0  0  0  0
  6 33  1  0  0  0  0
  7 11  1  0  0  0  0
  8 17  1  0  0  0  0
  8 14  1  0  0  0  0
  9 17  1  0  0  0  0
 10 24  1  0  0  0  0
 12  2  1  0  0  0  0
 12  6  1  0  0  0  0
 13  7  1  0  0  0  0
 13 12  2  0  0  0  0
 14  7  1  0  0  0  0
 14 16  1  0  0  0  0
 15 14  1  0  0  0  0
 18 19  2  0  0  0  0
 18  9  1  0  0  0  0
 19  8  1  0  0  0  0
 20  9  1  0  0  0  0
 20 22  1  0  0  0  0
 20 23  1  0  0  0  0
 21 20  1  0  0  0  0
 23 24  2  0  0  0  0
 23 31  1  0  0  0  0
 24 25  1  0  0  0  0
 25 26  1  0  0  0  0
 25 27  2  0  0  0  0
 27 28  1  0  0  0  0
 29 27  1  0  0  0  0
 29 30  1  0  0  0  0
 31 29  2  0  0  0  0
 32 31  1  0  0  0  0
 33 35  1  0  0  0  0
 33 34  1  0  0  0  0
 36 33  1  0  0  0  0
 37 36  1  0  0  0  0
 38 39  1  0  0  0  0
 38 36  2  0  0  0  0
 40  1  1  0  0  0  0
 40 38  1  0  0  0  0
 41 40  1  0  0  0  0
 42 40  1  0  0  0  0
M  END
