32,48
q = -1.0

 55 56  0  0  1  0  0  0  0  0999 V2000
   -1.1588   -1.2192   -1.5086 N   0  0  0  0  0  0  0  0  0  0  0  0
   -1.4552   -0.4333   -2.1000 H   0  0  0  0  0  0  0  0  0  0  0  0
   -0.8386   -2.0236   -2.0657 H   0  0  0  0  0  0  0  0  0  0  0  0
   -2.1122   -1.5651   -0.5107 C   0  0  0  0  0  0  0  0  0  0  0  0
   -2.2764   -2.9071   -0.1203 C   0  0  0  0  0  0  0  0  0  0  0  0
   -1.6617   -3.6806   -0.6036 H   0  0  0  0  0  0  0  0  0  0  0  0
   -3.1856   -3.2362    0.8923 C   0  0  0  0  0  0  0  0  0  0  0  0
   -3.3012   -4.2880    1.1938 H   0  0  0  0  0  0  0  0  0  0  0  0
   -3.9445   -2.2326    1.5149 C   0  0  0  0  0  0  0  0  0  0  0  0
   -4.6643   -2.4879    2.3065 H   0  0  0  0  0  0  0  0  0  0  0  0
   -3.7715   -0.8965    1.1280 C   0  0  0  0  0  0  0  0  0  0  0  0
   -4.3469   -0.0976    1.6204 H   0  0  0  0  0  0  0  0  0  0  0  0
   -2.8441   -0.5358    0.1291 C   0  0  0  0  0  0  0  0  0  0  0  0
   -2.6829    0.8939   -0.2609 C   0  0  0  0  0  0  0  0  0  0  0  0
   -3.8312    1.5680   -0.7363 C   0  0  0  0  0  0  0  0  0  0  0  0
   -4.7622    0.9914   -0.8474 H   0  0  0  0  0  0  0  0  0  0  0  0
   -3.8080    2.9292   -1.0619 C   0  0  0  0  0  0  0  0  0  0  0  0
   -4.7188    3.4251   -1.4298 H   0  0  0  0  0  0  0  0  0  0  0  0
   -2.6175    3.6501   -0.8980 C   0  0  0  0  0  0  0  0  0  0  0  0
   -2.5803    4.7273   -1.1203 H   0  0  0  0  0  0  0  0  0  0  0  0
   -1.4699    2.9949   -0.4346 C   0  0  0  0  0  0  0  0  0  0  0  0
   -0.5537    3.5783   -0.2658 H   0  0  0  0  0  0  0  0  0  0  0  0
   -1.4562    1.6132   -0.1311 C   0  0  0  0  0  0  0  0  0  0  0  0
   -0.2070    1.0467    0.5012 C   0  0  2  0  0  3  0  0  0  0  0  0
   -0.3956    0.7738    1.9971 C   0  0  0  0  0  0  0  0  0  0  0  0
   -1.2002    0.0198    2.1233 H   0  0  0  0  0  0  0  0  0  0  0  0
    0.5260    0.3211    2.4054 H   0  0  0  0  0  0  0  0  0  0  0  0
   -0.7507    2.0412    2.7886 C   0  0  0  0  0  0  0  0  0  0  0  0
   -1.7052    2.4917    2.4497 H   0  0  0  0  0  0  0  0  0  0  0  0
    0.0405    2.8125    2.6830 H   0  0  0  0  0  0  0  0  0  0  0  0
   -0.8513    1.8071    3.8676 H   0  0  0  0  0  0  0  0  0  0  0  0
    1.0788    1.3091   -0.0730 C   0  0  1  0  0  3  0  0  0  0  0  0
    1.2946    2.0249   -1.3987 C   0  0  0  0  0  0  0  0  0  0  0  0
    1.6162    3.0683   -1.1695 H   0  0  0  0  0  0  0  0  0  0  0  0
    0.3322    2.1181   -1.9393 H   0  0  0  0  0  0  0  0  0  0  0  0
    2.3309    1.3652   -2.3151 C   0  0  0  0  0  0  0  0  0  0  0  0
    3.3148    1.2614   -1.8195 H   0  0  0  0  0  0  0  0  0  0  0  0
    2.4680    1.9588   -3.2410 H   0  0  0  0  0  0  0  0  0  0  0  0
    2.0063    0.3421   -2.5965 H   0  0  0  0  0  0  0  0  0  0  0  0
    2.3073    0.9584    0.7354 C   0  0  0  0  0  0  0  0  0  0  0  0
    3.2315    1.9575    1.3872 C   0  0  0  0  0  0  0  0  0  0  0  0
    2.6187    2.7878    1.8053 H   0  0  0  0  0  0  0  0  0  0  0  0
    3.7090    1.4613    2.2594 H   0  0  0  0  0  0  0  0  0  0  0  0
    4.3329    2.5436    0.4888 C   0  0  0  0  0  0  0  0  0  0  0  0
    4.9702    1.7396    0.0685 H   0  0  0  0  0  0  0  0  0  0  0  0
    4.9874    3.2312    1.0625 H   0  0  0  0  0  0  0  0  0  0  0  0
    3.9132    3.1162   -0.3624 H   0  0  0  0  0  0  0  0  0  0  0  0
    2.3326   -0.3921    0.7321 C   0  0  0  0  0  3  0  0  0  0  0  0
    3.3239   -1.3714    1.2739 C   0  0  0  0  0  0  0  0  0  0  0  0
    2.8019   -2.2941    1.5998 H   0  0  0  0  0  0  0  0  0  0  0  0
    3.7935   -0.9237    2.1812 H   0  0  0  0  0  0  0  0  0  0  0  0
    4.4132   -1.7447    0.2556 C   0  0  0  0  0  0  0  0  0  0  0  0
    3.9516   -2.2171   -0.6329 H   0  0  0  0  0  0  0  0  0  0  0  0
    5.1364   -2.4611    0.6958 H   0  0  0  0  0  0  0  0  0  0  0  0
    4.9740   -0.8469   -0.0761 H   0  0  0  0  0  0  0  0  0  0  0  0
  1  4  1  0  0  0  0
  2  1  1  0  0  0  0
  3  1  1  0  0  0  0
  4  5  2  0  0  0  0
  4 13  1  0  0  0  0
  5  7  1  0  0  0  0
  6  5  1  0  0  0  0
  7  8  1  0  0  0  0
  7  9  2  0  0  0  0
  9 10  1  0  0  0  0
 11  9  1  0  0  0  0
 11 12  1  0  0  0  0
 13 11  2  0  0  0  0
 14 23  1  0  0  0  0
 14 13  1  0  0  0  0
 15 14  2  0  0  0  0
 16 15  1  0  0  0  0
 17 19  2  0  0  0  0
 17 15  1  0  0  0  0
 18 17  1  0  0  0  0
 19 21  1  0  0  0  0
 20 19  1  0  0  0  0
 21 22  1  0  0  0  0
 21 23  2  0  0  0  0
 23 24  1  0  0  0  0
 24 25  1  1  0  0  0
 25 26  1  0  0  0  0
 25 27  1  0  0  0  0
 25 28  1  0  0  0  0
 28 31  1  0  0  0  0
 29 28  1  0  0  0  0
 30 28  1  0  0  0  0
 32 24  1  0  0  0  0
 32 40  1  1  0  0  0
 33 34  1  0  0  0  0
 33 32  1  0  0  0  0
 35 33  1  0  0  0  0
 36 37  1  0  0  0  0
 36 33  1  0  0  0  0
 38 36  1  0  0  0  0
 39 36  1  0  0  0  0
 40 41  1  0  0  0  0
 41 42  1  0  0  0  0
 41 43  1  0  0  0  0
 44 46  1  0  0  0  0
 44 41  1  0  0  0  0
 45 44  1  0  0  0  0
 47 44  1  0  0  0  0
 48 40  2  0  0  0  0
 48 49  1  0  0  0  0
 49 50  1  0  0  0  0
 49 51  1  0  0  0  0
 52 54  1  0  0  0  0
 52 49  1  0  0  0  0
 53 52  1  0  0  0  0
 55 52  1  0  0  0  0
M  END
