3,14
q = -1.0, confidence = 0.002

 25 25  0  0  1  0  0  0  0  0999 V2000
   -2.5544   -1.7428    1.3382 O   0  0  0  0  0  0  0  0  0  0  0  0
   -1.1559   -1.8974   -1.1369 C   0  0  1  0  0  3  0  0  0  0  0  0
   -0.4575   -1.8136    0.1359 C   0  0  0  0  0  3  0  0  0  0  0  0
    0.3341   -2.5839    0.2079 H   0  0  0  0  0  0  0  0  0  0  0  0
   -1.3400   -1.8421    1.3904 C   0  0  0  0  0  0  0  0  0  0  0  0
   -0.6006   -1.9913    2.7065 C   0  0  0  0  0  0  0  0  0  0  0  0
   -1.3135   -2.2822    3.4988 H   0  0  0  0  0  0  0  0  0  0  0  0
   -0.1572   -1.0072    2.9691 H   0  0  0  0  0  0  0  0  0  0  0  0
    0.2268   -2.7253    2.6478 H   0  0  0  0  0  0  0  0  0  0  0  0
   -0.9100   -3.0289   -2.0828 C   0  0  0  0  0  0  0  0  0  0  0  0
   -1.1901   -3.9882   -1.5992 H   0  0  0  0  0  0  0  0  0  0  0  0
    0.1708   -3.0981   -2.3211 H   0  0  0  0  0  0  0  0  0  0  0  0
   -1.4684   -2.9289   -3.0334 H   0  0  0  0  0  0  0  0  0  0  0  0
   -1.3598    0.7840    0.0412 C   0  0  0  0  0  3  0  0  0  0  0  0
   -2.3715    0.1841   -0.7520 C   0  0  0  0  0  0  0  0  0  0  0  0
   -3.6641    0.7289   -0.8583 C   0  0  0  0  0  0  0  0  0  0  0  0
   -4.4202    0.2316   -1.4860 H   0  0  0  0  0  0  0  0  0  0  0  0
   -3.9995    1.8676   -0.1177 C   0  0  0  0  0  0  0  0  0  0  0  0
   -5.0101    2.2937   -0.1921 H   0  0  0  0  0  0  0  0  0  0  0  0
   -3.0484    2.4298    0.7453 C   0  0  0  0  0  0  0  0  0  0  0  0
   -3.3076    3.3061    1.3582 H   0  0  0  0  0  0  0  0  0  0  0  0
   -1.7539    1.8817    0.8257 C   0  0  0  0  0  0  0  0  0  0  0  0
   -1.0379    2.3436    1.5218 H   0  0  0  0  0  0  0  0  0  0  0  0
   -2.0938   -1.0131   -1.4558 N   0  0  0  0  0  0  0  0  0  0  0  0
   -2.6578   -1.1977   -2.2923 H   0  0  0  0  0  0  0  0  0  0  0  0
  1  5  2  0  0  0  0
  2  3  1  1  0  0  0
  3  4  1  0  0  0  0
  3  5  1  0  0  0  0
  5  6  1  0  0  0  0
  6  8  1  0  0  0  0
  6  7  1  0  0  0  0
  9  6  1  0  0  0  0
 10 11  1  0  0  0  0
 10  2  1  0  0  0  0
 12 10  1  0  0  0  0
 13 10  1  0  0  0  0
 14 22  1  0  0  0  0
 15 14  2  0  0  0  0
 16 15  1  0  0  0  0
 16 18  2  0  0  0  0
 17 16  1  0  0  0  0
 18 20  1  0  0  0  0
 19 18  1  0  0  0  0
 20 22  2  0  0  0  0
 20 21  1  0  0  0  0
 22 23  1  0  0  0  0
 24  2  1  0  0  0  0
 24 15  1  0  0  0  0
 25 24  1  0  0  0  0
M  END
