22
q = -2.0, confidence = 0.728

 52 57  0  0  1  0  0  0  0  0999 V2000
   -1.5352   -1.3186    1.5524 C   0  0  0  0  0  3  0  0  0  0  0  0
   -2.7046   -0.6769    0.9847 C   0  0  0  0  0  0  0  0  0  0  0  0
   -3.8171   -1.1946    0.2596 C   0  0  0  0  0  0  0  0  0  0  0  0
   -3.9112   -2.2761    0.0854 H   0  0  0  0  0  0  0  0  0  0  0  0
   -4.8052   -0.3219   -0.1815 C   0  0  0  0  0  0  0  0  0  0  0  0
   -5.6706   -0.7201   -0.7327 H   0  0  0  0  0  0  0  0  0  0  0  0
   -4.7285    1.0762    0.0708 C   0  0  0  0  0  0  0  0  0  0  0  0
   -5.5255    1.7358   -0.3025 H   0  0  0  0  0  0  0  0  0  0  0  0
   -3.6663    1.6115    0.7895 C   0  0  0  0  0  0  0  0  0  0  0  0
   -3.6102    2.6913    0.9915 H   0  0  0  0  0  0  0  0  0  0  0  0
   -2.6459    0.7476    1.2549 C   0  0  0  0  0  0  0  0  0  0  0  0
   -1.4723    0.9882    2.0672 C   0  0  0  0  0  0  0  0  0  0  0  0
   -0.9597    2.1654    2.6626 C   0  0  0  0  0  0  0  0  0  0  0  0
   -1.4561    3.1324    2.4939 H   0  0  0  0  0  0  0  0  0  0  0  0
    0.1785    2.0774    3.4594 C   0  0  0  0  0  0  0  0  0  0  0  0
    0.5893    2.9829    3.9299 H   0  0  0  0  0  0  0  0  0  0  0  0
    0.8171    0.8235    3.6825 C   0  0  0  0  0  0  0  0  0  0  0  0
    1.7097    0.7850    4.3253 H   0  0  0  0  0  0  0  0  0  0  0  0
    0.3399   -0.3469    3.1046 C   0  0  0  0  0  0  0  0  0  0  0  0
    0.8459   -1.3055    3.2887 H   0  0  0  0  0  0  0  0  0  0  0  0
   -0.8227   -0.2920    2.2849 C   0  0  0  0  0  0  0  0  0  0  0  0
   -0.3180   -2.5561   -0.6715 C   0  0  2  0  0  3  0  0  0  0  0  0
   -0.7371   -2.0208   -1.9379 C   0  0  0  0  0  0  0  0  0  0  0  0
    0.3102   -1.1962   -2.4532 C   0  0  0  0  0  0  0  0  0  0  0  0
    0.2730   -0.6432   -3.3987 H   0  0  0  0  0  0  0  0  0  0  0  0
    1.4488   -1.3129   -1.5900 C   0  0  0  0  0  0  0  0  0  0  0  0
    2.7824   -0.8244   -1.6941 C   0  0  0  0  0  0  0  0  0  0  0  0
    3.0902   -0.2384   -2.5722 H   0  0  0  0  0  0  0  0  0  0  0  0
    3.6541   -1.0768   -0.6494 C   0  0  0  0  0  0  0  0  0  0  0  0
    5.0946   -0.6435   -0.4820 C   0  0  0  0  0  0  0  0  0  0  0  0
    5.2933    0.3700   -0.8852 H   0  0  0  0  0  0  0  0  0  0  0  0
    5.7669   -1.3446   -1.0276 H   0  0  0  0  0  0  0  0  0  0  0  0
    5.3156   -0.7536    1.0436 C   0  0  0  0  0  0  0  0  0  0  0  0
    6.3767   -0.9022    1.3243 H   0  0  0  0  0  0  0  0  0  0  0  0
    4.9691    0.1848    1.5263 H   0  0  0  0  0  0  0  0  0  0  0  0
    4.3970   -1.9167    1.4836 C   0  0  0  0  0  0  0  0  0  0  0  0
    4.9212   -2.8934    1.3705 H   0  0  0  0  0  0  0  0  0  0  0  0
    4.0742   -1.8483    2.5423 H   0  0  0  0  0  0  0  0  0  0  0  0
    3.2453   -1.8318    0.5051 C   0  0  0  0  0  0  0  0  0  0  0  0
    1.9711   -2.3627    0.6114 C   0  0  0  0  0  0  0  0  0  0  0  0
    1.6842   -2.9727    1.4805 H   0  0  0  0  0  0  0  0  0  0  0  0
    1.0449   -2.1249   -0.4515 C   0  0  0  0  0  0  0  0  0  0  0  0
   -1.2940   -2.8061    1.6388 C   0  0  0  0  0  0  0  0  0  0  0  0
   -2.1225   -3.3062    2.1885 H   0  0  0  0  0  0  0  0  0  0  0  0
   -0.3867   -2.9793    2.2509 H   0  0  0  0  0  0  0  0  0  0  0  0
   -1.1147   -3.4477    0.2455 C   0  0  0  0  0  0  0  0  0  0  0  0
   -0.6296   -4.4443    0.3388 H   0  0  0  0  0  0  0  0  0  0  0  0
   -2.1041   -3.6387   -0.2151 H   0  0  0  0  0  0  0  0  0  0  0  0
   -2.0315   -2.2824   -2.6506 C   0  0  0  0  0  0  0  0  0  0  0  0
   -2.3601   -1.3871   -3.2119 H   0  0  0  0  0  0  0  0  0  0  0  0
   -2.8482   -2.5627   -1.9609 H   0  0  0  0  0  0  0  0  0  0  0  0
   -1.9025   -3.1144   -3.3753 H   0  0  0  0  0  0  0  0  0  0  0  0
  1 43  1  0  0  0  0
  1 21  1  0  0  0  0
  2 11  1  0  0  0  0
  2  1  1  0  0  0  0
  3  2  2  0  0  0  0
  4  3  1  0  0  0  0
  5  7  2  0  0  0  0
  5  3  1  0  0  0  0
  6  5  1  0  0  0  0
  7  9  1  0  0  0  0
  8  7  1  0  0  0  0
  9 10  1  0  0  0  0
  9 11  2  0  0  0  0
 11 12  1  0  0  0  0
 12 21  2  0  0  0  0
 12 13  1  0  0  0  0
 13 15  2  0  0  0  0
 14 13  1  0  0  0  0
 15 17  1  0  0  0  0
 15 16  1  0  0  0  0
 17 18  1  0  0  0  0
 19 20  1  0  0  0  0
 19 17  2  0  0  0  0
 21 19  1  0  0  0  0
 22 42  1  0  0  0  0
 22 46  1  6  0  0  0
 23 22  1  0  0  0  0
 24 23  2  0  0  0  0
 24 26  1  0  0  0  0
 25 24  1  0  0  0  0
 26 42  1  0  0  0  0
 27 26  2  0  0  0  0
 27 29  1  0  0  0  0
 28 27  1  0  0  0  0
 29 30  1  0  0  0  0
 29 39  2  0  0  0  0
 30 33  1  0  0  0  0
 31 30  1  0  0  0  0
 32 30  1  0  0  0  0
 33 34  1  0  0  0  0
 33 36  1  0  0  0  0
 33 35  1  0  0  0  0
 36 38  1  0  0  0  0
 37 36  1  0  0  0  0
 39 40  1  0  0  0  0
 39 36  1  0  0  0  0
 40 41  1  0  0  0  0
 42 40  2  0  0  0  0
 43 44  1  0  0  0  0
 43 45  1  0  0  0  0
 46 47  1  0  0  0  0
 46 43  1  0  0  0  0
 48 46  1  0  0  0  0
 49 51  1  0  0  0  0
 49 23  1  0  0  0  0
 50 49  1  0  0  0  0
 52 49  1  0  0  0  0
M  END
