2,7
q = -1.0, confidence = 0.0

 16 15  0  0  0  0  0  0  0  0999 V2000
    0.4263    3.1115    0.9426 O   0  0  0  0  0  0  0  0  0  0  0  0
    0.9354    2.2663    0.0375 C   0  0  0  0  0  2  0  0  0  0  0  0
    1.7890    3.0083   -0.8967 C   0  0  0  0  0  0  0  0  0  0  0  0
    2.1253    4.0320   -0.6676 H   0  0  0  0  0  0  0  0  0  0  0  0
    1.9820    2.3671   -2.0786 C   0  0  0  0  0  0  0  0  0  0  0  0
    2.5492    2.8385   -2.9025 H   0  0  0  0  0  0  0  0  0  0  0  0
    1.3880    1.0057   -2.2124 C   0  0  0  0  0  3  0  0  0  0  0  0
    2.1926    0.3135   -2.5445 H   0  0  0  0  0  0  0  0  0  0  0  0
    0.6445    0.9934   -3.0466 H   0  0  0  0  0  0  0  0  0  0  0  0
   -0.6473    2.7635    1.8475 C   0  0  0  0  0  0  0  0  0  0  0  0
   -0.1951    2.6265    2.8511 H   0  0  0  0  0  0  0  0  0  0  0  0
   -1.0951    1.8057    1.5323 H   0  0  0  0  0  0  0  0  0  0  0  0
   -1.6590    3.8935    1.8487 C   0  0  0  0  0  0  0  0  0  0  0  0
   -2.4358    3.6930    2.6136 H   0  0  0  0  0  0  0  0  0  0  0  0
   -2.1637    3.9773    0.8660 H   0  0  0  0  0  0  0  0  0  0  0  0
   -1.1798    4.8640    2.0869 H   0  0  0  0  0  0  0  0  0  0  0  0
  1 10  1  0  0  0  0
  2  1  1  0  0  0  0
  3  4  1  0  0  0  0
  3  2  1  0  0  0  0
  5  3  2  0  0  0  0
  6  5  1  0  0  0  0
  7  5  1  0  0  0  0
  8  7  1  0  0  0  0
  9  7  1  0  0  0  0
 10 13  1  0  0  0  0
 10 11  1  0  0  0  0
 12 10  1  0  0  0  0
 13 16  1  0  0  0  0
 13 14  1  0  0  0  0
 15 13  1  0  0  0  0
M  END
