4,6
q = -1.0, confidence = 0.0

 32 32  0  0  0  0  0  0  0  0999 V2000
   -2.0692    3.2177   -0.2571 O   0  0  0  0  0  0  0  0  0  0  0  0
   -3.0998    1.5244    0.8709 O   0  0  0  0  0  0  0  0  0  0  0  0
    0.8172    2.7820    0.1753 O   0  0  0  0  0  0  0  0  0  0  0  0
   -0.8329   -0.2569    0.0178 C   0  0  0  0  0  2  0  0  0  0  0  0
   -0.9089    1.1421    0.0929 C   0  0  0  0  0  0  0  0  0  0  0  0
    0.4743    1.5239    0.1173 C   0  0  0  0  0  3  0  0  0  0  0  0
   -1.9233   -1.2028   -0.1487 C   0  0  0  0  0  0  0  0  0  0  0  0
   -1.8425   -2.4862    0.4489 C   0  0  0  0  0  0  0  0  0  0  0  0
   -0.9545   -2.7342    1.0480 H   0  0  0  0  0  0  0  0  0  0  0  0
   -2.8804   -3.4127    0.3021 C   0  0  0  0  0  0  0  0  0  0  0  0
   -2.8102   -4.3949    0.7931 H   0  0  0  0  0  0  0  0  0  0  0  0
   -3.9982   -3.0979   -0.4889 C   0  0  0  0  0  0  0  0  0  0  0  0
   -4.8044   -3.8350   -0.6232 H   0  0  0  0  0  0  0  0  0  0  0  0
   -4.0767   -1.8451   -1.1225 C   0  0  0  0  0  0  0  0  0  0  0  0
   -4.9406   -1.6032   -1.7605 H   0  0  0  0  0  0  0  0  0  0  0  0
   -3.0613   -0.9010   -0.9429 C   0  0  0  0  0  0  0  0  0  0  0  0
   -3.1230    0.0728   -1.4485 H   0  0  0  0  0  0  0  0  0  0  0  0
   -2.0647    2.0819    0.1870 C   0  0  0  0  0  0  0  0  0  0  0  0
   -4.2928    2.3280    0.9962 C   0  0  0  0  0  0  0  0  0  0  0  0
   -3.9968    3.3900    1.1153 H   0  0  0  0  0  0  0  0  0  0  0  0
   -4.7725    1.9738    1.9293 H   0  0  0  0  0  0  0  0  0  0  0  0
   -5.2099    2.1527   -0.2042 C   0  0  0  0  0  0  0  0  0  0  0  0
   -6.1439    2.7315   -0.0563 H   0  0  0  0  0  0  0  0  0  0  0  0
   -5.4812    1.0877   -0.3466 H   0  0  0  0  0  0  0  0  0  0  0  0
   -4.7211    2.5255   -1.1259 H   0  0  0  0  0  0  0  0  0  0  0  0
    2.2317    3.1176    0.1920 C   0  0  0  0  0  0  0  0  0  0  0  0
    2.7668    2.3317    0.7621 H   0  0  0  0  0  0  0  0  0  0  0  0
    2.2816    4.0726    0.7496 H   0  0  0  0  0  0  0  0  0  0  0  0
    2.7656    3.2586   -1.2196 C   0  0  0  0  0  0  0  0  0  0  0  0
    3.8304    3.5634   -1.1864 H   0  0  0  0  0  0  0  0  0  0  0  0
    2.1979    4.0231   -1.7854 H   0  0  0  0  0  0  0  0  0  0  0  0
    2.7026    2.2950   -1.7622 H   0  0  0  0  0  0  0  0  0  0  0  0
  1 18  2  0  0  0  0
  2 19  1  0  0  0  0
  3 26  1  0  0  0  0
  4  5  1  0  0  0  0
  5  6  2  0  0  0  0
  5 18  1  0  0  0  0
  6  3  1  0  0  0  0
  7  4  1  0  0  0  0
  7  8  1  0  0  0  0
  8  9  1  0  0  0  0
 10  8  2  0  0  0  0
 10 11  1  0  0  0  0
 12 10  1  0  0  0  0
 13 12  1  0  0  0  0
 14 16  1  0  0  0  0
 14 12  2  0  0  0  0
 15 14  1  0  0  0  0
 16  7  2  0  0  0  0
 17 16  1  0  0  0  0
 18  2  1  0  0  0  0
 19 20  1  0  0  0  0
 19 21  1  0  0  0  0
 22 23  1  0  0  0  0
 22 19  1  0  0  0  0
 24 22  1  0  0  0  0
 25 22  1  0  0  0  0
 26 28  1  0  0  0  0
 26 27  1  0  0  0  0
 29 30  1  0  0  0  0
 29 26  1  0  0  0  0
 31 29  1  0  0  0  0
 32 29  1  0  0  0  0
M  END
