5,10
q = -1.0

 55 57  0  0  0  0  0  0  0  0999 V2000
   -1.2389    3.0156    1.4253 O   0  0  0  0  0  0  0  0  0  0  0  0
   -1.0091    3.3206   -0.8201 O   0  0  0  0  0  0  0  0  0  0  0  0
    1.7734    3.4375    0.3189 O   0  0  0  0  0  0  0  0  0  0  0  0
    4.0516   -0.6836   -0.2932 O   0  0  0  0  0  0  0  0  0  0  0  0
   -0.0725    0.3367    0.0849 C   0  0  0  0  0  2  0  0  0  0  0  0
    0.3301    1.6502    0.1853 C   0  0  0  0  0  0  0  0  0  0  0  0
    1.6990    2.1033    0.1687 C   0  0  0  0  0  0  0  0  0  0  0  0
    2.8585    1.3247    0.0150 C   0  0  0  0  0  0  0  0  0  0  0  0
    3.8114    1.8690    0.0285 H   0  0  0  0  0  0  0  0  0  0  0  0
    2.8648   -0.0727   -0.1539 C   0  0  0  0  0  3  0  0  0  0  0  0
   -1.5403    0.0976    0.0315 C   0  0  0  0  0  0  0  0  0  0  0  0
   -2.2685   -0.3173    1.2156 C   0  0  0  0  0  0  0  0  0  0  0  0
   -1.6361   -0.3242    2.4868 C   0  0  0  0  0  0  0  0  0  0  0  0
   -0.6021    0.0387    2.5608 H   0  0  0  0  0  0  0  0  0  0  0  0
   -2.3132   -0.7447    3.6254 C   0  0  0  0  0  0  0  0  0  0  0  0
   -1.8046   -0.7446    4.6012 H   0  0  0  0  0  0  0  0  0  0  0  0
   -3.6593   -1.1610    3.5230 C   0  0  0  0  0  0  0  0  0  0  0  0
   -4.2026   -1.4972    4.4192 H   0  0  0  0  0  0  0  0  0  0  0  0
   -4.3086   -1.1310    2.2922 C   0  0  0  0  0  0  0  0  0  0  0  0
   -5.3625   -1.4381    2.2422 H   0  0  0  0  0  0  0  0  0  0  0  0
   -3.6457   -0.7072    1.1097 C   0  0  0  0  0  0  0  0  0  0  0  0
   -4.3191   -0.6381   -0.1825 C   0  0  0  0  0  0  0  0  0  0  0  0
   -5.6750   -1.0114   -0.3740 C   0  0  0  0  0  0  0  0  0  0  0  0
   -6.2608   -1.3916    0.4744 H   0  0  0  0  0  0  0  0  0  0  0  0
   -6.2891   -0.9075   -1.6198 C   0  0  0  0  0  0  0  0  0  0  0  0
   -7.3422   -1.2053   -1.7360 H   0  0  0  0  0  0  0  0  0  0  0  0
   -5.5645   -0.4231   -2.7332 C   0  0  0  0  0  0  0  0  0  0  0  0
   -6.0520   -0.3427   -3.7167 H   0  0  0  0  0  0  0  0  0  0  0  0
   -4.2329   -0.0550   -2.5795 C   0  0  0  0  0  0  0  0  0  0  0  0
   -3.6531    0.3165   -3.4390 H   0  0  0  0  0  0  0  0  0  0  0  0
   -3.5855   -0.1542   -1.3173 C   0  0  0  0  0  0  0  0  0  0  0  0
   -2.2047    0.2044   -1.1741 C   0  0  0  0  0  0  0  0  0  0  0  0
   -1.6576    0.5404   -2.0684 H   0  0  0  0  0  0  0  0  0  0  0  0
   -0.7133    2.7340    0.3659 C   0  0  0  0  0  0  0  0  0  0  0  0
   -2.0085    4.3651   -0.7775 C   0  0  0  0  0  0  0  0  0  0  0  0
   -2.7904    4.0793   -0.0453 H   0  0  0  0  0  0  0  0  0  0  0  0
   -2.4477    4.3749   -1.7940 H   0  0  0  0  0  0  0  0  0  0  0  0
   -1.3871    5.7051   -0.4179 C   0  0  0  0  0  0  0  0  0  0  0  0
   -0.9740    5.6770    0.6091 H   0  0  0  0  0  0  0  0  0  0  0  0
   -2.1525    6.5062   -0.4608 H   0  0  0  0  0  0  0  0  0  0  0  0
   -0.5722    5.9662   -1.1228 H   0  0  0  0  0  0  0  0  0  0  0  0
    3.0228    4.1408    0.3268 C   0  0  0  0  0  0  0  0  0  0  0  0
    3.5554    3.9537   -0.6322 H   0  0  0  0  0  0  0  0  0  0  0  0
    3.6590    3.7509    1.1524 H   0  0  0  0  0  0  0  0  0  0  0  0
    2.7134    5.6128    0.5129 C   0  0  0  0  0  0  0  0  0  0  0  0
    2.1793    5.7832    1.4679 H   0  0  0  0  0  0  0  0  0  0  0  0
    2.0761    5.9869   -0.3119 H   0  0  0  0  0  0  0  0  0  0  0  0
    3.6528    6.1992    0.5256 H   0  0  0  0  0  0  0  0  0  0  0  0
    5.3162    0.0182   -0.2763 C   0  0  0  0  0  0  0  0  0  0  0  0
    5.4211    0.5590    0.6901 H   0  0  0  0  0  0  0  0  0  0  0  0
    5.3266    0.7717   -1.0945 H   0  0  0  0  0  0  0  0  0  0  0  0
    6.4070   -1.0176   -0.4575 C   0  0  0  0  0  0  0  0  0  0  0  0
    6.3793   -1.7637    0.3604 H   0  0  0  0  0  0  0  0  0  0  0  0
    7.4017   -0.5300   -0.4546 H   0  0  0  0  0  0  0  0  0  0  0  0
    6.2819   -1.5552   -1.4176 H   0  0  0  0  0  0  0  0  0  0  0  0
  2 35  1  0  0  0  0
  2 34  1  0  0  0  0
  3 42  1  0  0  0  0
  4 49  1  0  0  0  0
  4 10  1  0  0  0  0
  5  6  1  0  0  0  0
  6 34  1  0  0  0  0
  7  6  2  0  0  0  0
  7  3  1  0  0  0  0
  8  9  1  0  0  0  0
  8  7  1  0  0  0  0
 10  8  2  0  0  0  0
 11  5  1  0  0  0  0
 11 12  1  0  0  0  0
 12 13  1  0  0  0  0
 13 14  1  0  0  0  0
 13 15  2  0  0  0  0
 15 16  1  0  0  0  0
 17 15  1  0  0  0  0
 17 18  1  0  0  0  0
 19 17  2  0  0  0  0
 20 19  1  0  0  0  0
 21 12  2  0  0  0  0
 21 19  1  0  0  0  0
 22 21  1  0  0  0  0
 23 22  1  0  0  0  0
 23 24  1  0  0  0  0
 25 23  2  0  0  0  0
 26 25  1  0  0  0  0
 27 29  2  0  0  0  0
 27 25  1  0  0  0  0
 28 27  1  0  0  0  0
 29 31  1  0  0  0  0
 30 29  1  0  0  0  0
 31 32  1  0  0  0  0
 31 22  2  0  0  0  0
 32 11  2  0  0  0  0
 33 32  1  0  0  0  0
 34  1  2  0  0  0  0
 35 38  1  0  0  0  0
 35 36  1  0  0  0  0
 37 35  1  0  0  0  0
 38 39  1  0  0  0  0
 40 38  1  0  0  0  0
 41 38  1  0  0  0  0
 42 45  1  0  0  0  0
 42 44  1  0  0  0  0
 43 42  1  0  0  0  0
 45 48  1  0  0  0  0
 45 46  1  0  0  0  0
 47 45  1  0  0  0  0
 49 50  1  0  0  0  0
 51 49  1  0  0  0  0
 52 54  1  0  0  0  0
 52 49  1  0  0  0  0
 52 53  1  0  0  0  0
 55 52  1  0  0  0  0
M  END
