4,6
q = -1.0

 39 39  0  0  0  0  0  0  0  0999 V2000
   -1.9668    3.0087    0.9000 O   0  0  0  0  0  0  0  0  0  0  0  0
   -2.8212    1.7154   -0.7553 O   0  0  0  0  0  0  0  0  0  0  0  0
    1.4107    2.4073    0.0402 N   0  0  0  0  0  0  0  0  0  0  0  0
   -0.8703   -0.3002    0.0913 C   0  0  0  0  0  2  0  0  0  0  0  0
   -0.7247    1.0867    0.0778 C   0  0  0  0  0  0  0  0  0  0  0  0
    0.7173    1.2790    0.0678 C   0  0  0  0  0  3  0  0  0  0  0  0
   -2.1143   -1.0505    0.2131 C   0  0  0  0  0  0  0  0  0  0  0  0
   -2.3108   -2.2279   -0.5484 C   0  0  0  0  0  0  0  0  0  0  0  0
   -1.5108   -2.5586   -1.2269 H   0  0  0  0  0  0  0  0  0  0  0  0
   -3.5092   -2.9465   -0.4608 C   0  0  0  0  0  0  0  0  0  0  0  0
   -3.6519   -3.8464   -1.0780 H   0  0  0  0  0  0  0  0  0  0  0  0
   -4.5175   -2.5341    0.4263 C   0  0  0  0  0  0  0  0  0  0  0  0
   -5.4507   -3.1115    0.5099 H   0  0  0  0  0  0  0  0  0  0  0  0
   -4.3203   -1.3921    1.2224 C   0  0  0  0  0  0  0  0  0  0  0  0
   -5.0961   -1.0778    1.9375 H   0  0  0  0  0  0  0  0  0  0  0  0
   -3.1388   -0.6507    1.1103 C   0  0  0  0  0  0  0  0  0  0  0  0
   -2.9845    0.2346    1.7461 H   0  0  0  0  0  0  0  0  0  0  0  0
   -1.8617    2.0586    0.1341 C   0  0  0  0  0  0  0  0  0  0  0  0
   -4.0817    2.4102   -0.6525 C   0  0  0  0  0  0  0  0  0  0  0  0
   -3.9461    3.4541   -1.0092 H   0  0  0  0  0  0  0  0  0  0  0  0
   -4.3669    2.4736    0.4189 H   0  0  0  0  0  0  0  0  0  0  0  0
   -5.0961    1.6442   -1.4768 C   0  0  0  0  0  0  0  0  0  0  0  0
   -6.0810    2.1503   -1.4343 H   0  0  0  0  0  0  0  0  0  0  0  0
   -5.2130    0.6121   -1.0904 H   0  0  0  0  0  0  0  0  0  0  0  0
   -4.7823    1.5833   -2.5376 H   0  0  0  0  0  0  0  0  0  0  0  0
    2.8850    2.3577    0.0250 C   0  0  0  0  0  0  0  0  0  0  0  0
    3.1930    1.4666    0.6010 H   0  0  0  0  0  0  0  0  0  0  0  0
    3.2555    3.2503    0.5695 H   0  0  0  0  0  0  0  0  0  0  0  0
    3.4547    2.3068   -1.3896 C   0  0  0  0  0  0  0  0  0  0  0  0
    4.5604    2.2518   -1.3517 H   0  0  0  0  0  0  0  0  0  0  0  0
    3.1755    3.2029   -1.9801 H   0  0  0  0  0  0  0  0  0  0  0  0
    3.0865    1.4090   -1.9232 H   0  0  0  0  0  0  0  0  0  0  0  0
    0.8483    3.7734   -0.0137 C   0  0  0  0  0  0  0  0  0  0  0  0
   -0.1495    3.7301   -0.4815 H   0  0  0  0  0  0  0  0  0  0  0  0
    1.5002    4.3587   -0.6954 H   0  0  0  0  0  0  0  0  0  0  0  0
    0.7623    4.4314    1.3606 C   0  0  0  0  0  0  0  0  0  0  0  0
    1.7515    4.4740    1.8598 H   0  0  0  0  0  0  0  0  0  0  0  0
    0.0467    3.8784    1.9967 H   0  0  0  0  0  0  0  0  0  0  0  0
    0.3897    5.4695    1.2553 H   0  0  0  0  0  0  0  0  0  0  0  0
  2 19  1  0  0  0  0
  2 18  1  0  0  0  0
  3  6  1  0  0  0  0
  4  7  1  0  0  0  0
  5  4  1  0  0  0  0
  5 18  1  0  0  0  0
  6  5  2  0  0  0  0
  7 16  1  0  0  0  0
  8 10  1  0  0  0  0
  8  7  2  0  0  0  0
  9  8  1  0  0  0  0
 10 12  2  0  0  0  0
 11 10  1  0  0  0  0
 12 13  1  0  0  0  0
 12 14  1  0  0  0  0
 14 15  1  0  0  0  0
 16 14  2  0  0  0  0
 16 17  1  0  0  0  0
 18  1  2  0  0  0  0
 19 21  1  0  0  0  0
 20 19  1  0  0  0  0
 22 23  1  0  0  0  0
 22 24  1  0  0  0  0
 22 19  1  0  0  0  0
 25 22  1  0  0  0  0
 26  3  1  0  0  0  0
 26 28  1  0  0  0  0
 26 27  1  0  0  0  0
 29 30  1  0  0  0  0
 29 26  1  0  0  0  0
 31 29  1  0  0  0  0
 32 29  1  0  0  0  0
 33  3  1  0  0  0  0
 33 36  1  0  0  0  0
 34 33  1  0  0  0  0
 35 33  1  0  0  0  0
 36 37  1  0  0  0  0
 36 38  1  0  0  0  0
 39 36  1  0  0  0  0
M  END
