7,47
q = 0.0, confidence = 0.984

 62 64  0  0  1  0  0  0  0  0999 V2000
   -2.3907   -1.5368   -1.2118 C   0  0  0  0  0  0  0  0  0  0  0  0
   -3.1123   -2.5566   -1.7818 O   0  0  0  0  0  0  0  0  0  0  0  0
   -3.3522   -3.7163   -0.9795 C   0  0  0  0  0  0  0  0  0  0  0  0
   -3.9887   -4.3883   -1.5858 H   0  0  0  0  0  0  0  0  0  0  0  0
   -3.8770   -3.4477   -0.0382 H   0  0  0  0  0  0  0  0  0  0  0  0
   -2.4098   -4.2406   -0.7139 H   0  0  0  0  0  0  0  0  0  0  0  0
   -3.0841   -0.3995   -0.7021 C   0  0  2  0  0  3  0  0  0  0  0  0
   -4.5943   -0.3810   -0.7676 C   0  0  0  0  0  0  0  0  0  0  0  0
   -4.9967    0.2451    0.0517 H   0  0  0  0  0  0  0  0  0  0  0  0
   -4.9730   -1.4039   -0.5836 H   0  0  0  0  0  0  0  0  0  0  0  0
   -5.0967    0.1121   -2.1314 C   0  0  0  0  0  0  0  0  0  0  0  0
   -6.2043    0.1280   -2.1635 H   0  0  0  0  0  0  0  0  0  0  0  0
   -4.7387   -0.5558   -2.9395 H   0  0  0  0  0  0  0  0  0  0  0  0
   -4.7354    1.1371   -2.3538 H   0  0  0  0  0  0  0  0  0  0  0  0
   -2.3276    0.7496   -0.2787 C   0  0  0  0  0  0  0  0  0  0  0  0
   -3.0057    2.0256    0.1829 C   0  0  0  0  0  0  0  0  0  0  0  0
   -4.0043    2.0972   -0.2897 H   0  0  0  0  0  0  0  0  0  0  0  0
   -2.4260    2.8816   -0.2087 H   0  0  0  0  0  0  0  0  0  0  0  0
   -3.1366    2.1808    1.7031 C   0  0  0  0  0  0  0  0  0  0  0  0
   -3.5938    3.1595    1.9546 H   0  0  0  0  0  0  0  0  0  0  0  0
   -2.1446    2.1266    2.1913 H   0  0  0  0  0  0  0  0  0  0  0  0
   -3.7650    1.3817    2.1410 H   0  0  0  0  0  0  0  0  0  0  0  0
   -0.8970    0.6824   -0.2581 C   0  0  0  0  0  0  0  0  0  0  0  0
   -0.2190    1.7940    0.1180 O   0  0  0  0  0  0  0  0  0  0  0  0
    0.4519    2.9944   -0.9475 Si  0  0  0  0  0  0  0  0  0  0  0  0
    1.9191    2.3046   -1.9042 C   0  0  0  0  0  0  0  0  0  0  0  0
    2.7851    2.0655   -1.2590 H   0  0  0  0  0  0  0  0  0  0  0  0
    2.2386    3.0497   -2.6620 H   0  0  0  0  0  0  0  0  0  0  0  0
    1.6367    1.3769   -2.4418 H   0  0  0  0  0  0  0  0  0  0  0  0
   -0.8508    3.5124   -2.2112 C   0  0  0  0  0  0  0  0  0  0  0  0
   -1.6636    4.1296   -1.7825 H   0  0  0  0  0  0  0  0  0  0  0  0
   -1.3096    2.6187   -2.6826 H   0  0  0  0  0  0  0  0  0  0  0  0
   -0.3653    4.0998   -3.0174 H   0  0  0  0  0  0  0  0  0  0  0  0
    0.9332    4.3763    0.2760 C   0  0  0  0  0  0  0  0  0  0  0  0
   -0.3337    4.9582    0.9315 C   0  0  0  0  0  0  0  0  0  0  0  0
   -1.0147    5.4218    0.1881 H   0  0  0  0  0  0  0  0  0  0  0  0
   -0.0586    5.7504    1.6621 H   0  0  0  0  0  0  0  0  0  0  0  0
   -0.9032    4.1819    1.4810 H   0  0  0  0  0  0  0  0  0  0  0  0
    1.6740    5.4772   -0.5087 C   0  0  0  0  0  0  0  0  0  0  0  0
    1.0469    5.9078   -1.3177 H   0  0  0  0  0  0  0  0  0  0  0  0
    2.6119    5.1029   -0.9686 H   0  0  0  0  0  0  0  0  0  0  0  0
    1.9514    6.3134    0.1702 H   0  0  0  0  0  0  0  0  0  0  0  0
    1.8524    3.7942    1.3677 C   0  0  0  0  0  0  0  0  0  0  0  0
    2.7691    3.3342    0.9436 H   0  0  0  0  0  0  0  0  0  0  0  0
    1.3286    3.0257    1.9717 H   0  0  0  0  0  0  0  0  0  0  0  0
    2.1794    4.5989    2.0624 H   0  0  0  0  0  0  0  0  0  0  0  0
   -0.1798   -0.5294   -0.6167 C   0  0  1  0  0  3  0  0  0  0  0  0
    1.2552   -0.7491   -0.3946 C   0  0  0  0  0  0  0  0  0  0  0  0
    2.0528    0.0615    0.4529 C   0  0  0  0  0  0  0  0  0  0  0  0
    1.5880    0.8846    1.0041 H   0  0  0  0  0  0  0  0  0  0  0  0
    3.4122   -0.1847    0.6372 C   0  0  0  0  0  0  0  0  0  0  0  0
    4.0014    0.4508    1.3132 H   0  0  0  0  0  0  0  0  0  0  0  0
    4.0266   -1.2592   -0.0385 C   0  0  0  0  0  0  0  0  0  0  0  0
    5.8907   -1.5650    0.1819 Br  0  0  0  0  0  0  0  0  0  0  0  0
    3.2710   -2.1089   -0.8418 C   0  0  0  0  0  0  0  0  0  0  0  0
    3.7385   -2.9749   -1.3318 H   0  0  0  0  0  0  0  0  0  0  0  0
    1.8815   -1.8839   -1.0088 C   0  0  0  0  0  0  0  0  0  0  0  0
    1.0853   -2.8306   -1.7510 C   0  0  0  0  0  0  0  0  0  0  0  0
    1.5981   -3.6708   -2.2437 H   0  0  0  0  0  0  0  0  0  0  0  0
   -0.2746   -2.7279   -1.8027 C   0  0  0  0  0  0  0  0  0  0  0  0
   -0.8847   -3.4649   -2.3412 H   0  0  0  0  0  0  0  0  0  0  0  0
   -0.9550   -1.5999   -1.2064 C   0  0  0  0  0  0  0  0  0  0  0  0
  1 62  2  0  0  0  0
  1  7  1  0  0  0  0
  2  1  1  0  0  0  0
  2  3  1  0  0  0  0
  3  6  1  0  0  0  0
  3  5  1  0  0  0  0
  4  3  1  0  0  0  0
  7  8  1  6  0  0  0
  7 15  1  0  0  0  0
  8 10  1  0  0  0  0
  8  9  1  0  0  0  0
 11  8  1  0  0  0  0
 12 11  1  0  0  0  0
 13 11  1  0  0  0  0
 14 11  1  0  0  0  0
 15 23  2  0  0  0  0
 15 16  1  0  0  0  0
 16 19  1  0  0  0  0
 17 16  1  0  0  0  0
 18 16  1  0  0  0  0
 19 20  1  0  0  0  0
 19 22  1  0  0  0  0
 19 21  1  0  0  0  0
 23 24  1  0  0  0  0
 25 24  1  0  0  0  0
 25 34  1  0  0  0  0
 26 27  1  0  0  0  0
 26 25  1  0  0  0  0
 28 26  1  0  0  0  0
 29 26  1  0  0  0  0
 30 31  1  0  0  0  0
 30 25  1  0  0  0  0
 32 30  1  0  0  0  0
 33 30  1  0  0  0  0
 34 35  1  0  0  0  0
 34 43  1  0  0  0  0
 35 38  1  0  0  0  0
 35 37  1  0  0  0  0
 36 35  1  0  0  0  0
 39 42  1  0  0  0  0
 39 34  1  0  0  0  0
 40 39  1  0  0  0  0
 41 39  1  0  0  0  0
 43 45  1  0  0  0  0
 43 46  1  0  0  0  0
 44 43  1  0  0  0  0
 47 62  1  1  0  0  0
 47 48  1  0  0  0  0
 47 23  1  0  0  0  0
 48 49  1  0  0  0  0
 49 51  2  0  0  0  0
 49 50  1  0  0  0  0
 51 52  1  0  0  0  0
 53 54  1  0  0  0  0
 53 51  1  0  0  0  0
 55 53  2  0  0  0  0
 56 55  1  0  0  0  0
 57 55  1  0  0  0  0
 57 48  2  0  0  0  0
 58 57  1  0  0  0  0
 59 58  1  0  0  0  0
 60 58  2  0  0  0  0
 60 62  1  0  0  0  0
 61 60  1  0  0  0  0
M  END
