1,3
q = -2.0, confidence = 0.606

 28 29  0  0  0  0  0  0  0  0999 V2000
   -1.5558   -1.1817   -0.3192 C   0  0  0  0  0  2  0  0  0  0  0  0
   -0.6844   -2.0348    0.4160 C   0  0  0  0  0  0  0  0  0  0  0  0
    0.6798   -1.6925   -0.0078 C   0  0  0  0  0  2  0  0  0  0  0  0
    1.7630   -2.2532    0.4118 N   0  0  0  0  0  2  0  0  0  0  0  0
   -2.9703   -1.0458   -0.1314 C   0  0  0  0  0  0  0  0  0  0  0  0
   -3.8409   -0.5370   -1.1424 C   0  0  0  0  0  0  0  0  0  0  0  0
   -5.2199   -0.4438   -0.9438 C   0  0  0  0  0  0  0  0  0  0  0  0
   -5.7990   -0.8492    0.2732 C   0  0  0  0  0  0  0  0  0  0  0  0
   -4.9657   -1.3531    1.2899 C   0  0  0  0  0  0  0  0  0  0  0  0
   -3.5861   -1.4449    1.0989 C   0  0  0  0  0  0  0  0  0  0  0  0
   -0.8573   -3.0231    1.3387 C   0  0  0  0  0  0  0  0  0  0  0  0
   -0.8332   -3.9263    2.0737 O   0  0  0  0  0  0  0  0  0  0  0  0
    3.0739   -1.9518    0.2087 C   0  0  0  0  0  0  0  0  0  0  0  0
    4.0622   -2.8878    0.6648 C   0  0  0  0  0  0  0  0  0  0  0  0
    5.4119   -2.6644    0.5301 C   0  0  0  0  0  0  0  0  0  0  0  0
    5.8977   -1.4261   -0.0819 C   0  0  0  0  0  0  0  0  0  0  0  0
    4.8908   -0.4577   -0.5265 C   0  0  0  0  0  0  0  0  0  0  0  0
    3.5527   -0.7342   -0.3842 C   0  0  0  0  0  0  0  0  0  0  0  0
    7.2098   -1.1443   -0.2368 C   0  0  0  0  0  1  0  0  0  0  0  0
   -3.4119   -0.2531   -2.1120 H   0  0  0  0  0  0  0  0  0  0  0  0
   -5.8586   -0.0586   -1.7540 H   0  0  0  0  0  0  0  0  0  0  0  0
   -6.8851   -0.7712    0.4288 H   0  0  0  0  0  0  0  0  0  0  0  0
   -5.3988   -1.6625    2.2539 H   0  0  0  0  0  0  0  0  0  0  0  0
   -2.9532   -1.7902    1.9306 H   0  0  0  0  0  0  0  0  0  0  0  0
    3.7002   -3.8158    1.1335 H   0  0  0  0  0  0  0  0  0  0  0  0
    6.1451   -3.4029    0.8810 H   0  0  0  0  0  0  0  0  0  0  0  0
    5.2209    0.4973   -0.9584 H   0  0  0  0  0  0  0  0  0  0  0  0
    2.8149    0.0121   -0.6992 H   0  0  0  0  0  0  0  0  0  0  0  0
  1  5  1  0  0  0  0
  1  2  1  0  0  0  0
  2 11  2  0  0  0  0
  3  4  1  0  0  0  0
  3  2  1  0  0  0  0
  5 10  1  0  0  0  0
  6  7  1  0  0  0  0
  6  5  2  0  0  0  0
  7  8  2  0  0  0  0
  8 22  1  0  0  0  0
  8  9  1  0  0  0  0
  9 23  1  0  0  0  0
 10  9  2  0  0  0  0
 10 24  1  0  0  0  0
 11 12  2  0  0  0  0
 13  4  1  0  0  0  0
 13 14  1  0  0  0  0
 14 25  1  0  0  0  0
 15 14  2  0  0  0  0
 15 26  1  0  0  0  0
 16 15  1  0  0  0  0
 17 18  1  0  0  0  0
 17 16  2  0  0  0  0
 18 13  2  0  0  0  0
 19 16  1  0  0  0  0
 20  6  1  0  0  0  0
 21  7  1  0  0  0  0
 27 17  1  0  0  0  0
 28 18  1  0  0  0  0
M  END
