2,3
q = -2, confidence = 1.0

 15 14  0  0  0  0  0  0  0  0999 V2000
    2.3734    0.0000    0.0002 Si  0  0  0  0  0  0  0  0  0  0  0  0
    1.1838   -0.0000    1.5066 C   0  0  0  0  0  3  0  0  0  0  0  0
    1.1848    0.0000   -1.5070 C   0  0  0  0  0  3  0  0  0  0  0  0
    3.4747   -1.5463    0.0003 C   0  0  0  0  0  0  0  0  0  0  0  0
    1.3445   -0.9003    2.1319 H   0  0  0  0  0  0  0  0  0  0  0  0
    1.3461   -0.9003   -2.1322 H   0  0  0  0  0  0  0  0  0  0  0  0
    4.1257   -1.5629   -0.8980 H   0  0  0  0  0  0  0  0  0  0  0  0
    4.1233   -1.5647    0.9004 H   0  0  0  0  0  0  0  0  0  0  0  0
    2.8727   -2.4769   -0.0016 H   0  0  0  0  0  0  0  0  0  0  0  0
    1.3445    0.9003    2.1319 H   0  0  0  0  0  0  0  0  0  0  0  0
    3.4747    1.5463    0.0004 C   0  0  0  0  0  0  0  0  0  0  0  0
    1.3461    0.9003   -2.1322 H   0  0  0  0  0  0  0  0  0  0  0  0
    4.1257    1.5629   -0.8980 H   0  0  0  0  0  0  0  0  0  0  0  0
    4.1233    1.5647    0.9004 H   0  0  0  0  0  0  0  0  0  0  0  0
    2.8727    2.4769   -0.0015 H   0  0  0  0  0  0  0  0  0  0  0  0
  1  4  1  0  0  0  0
  1 11  1  0  0  0  0
  1  2  1  0  0  0  0
  2  5  1  0  0  0  0
  2 10  1  0  0  0  0
  3  1  1  0  0  0  0
  4  8  1  0  0  0  0
  6  3  1  0  0  0  0
  7  4  1  0  0  0  0
  9  4  1  0  0  0  0
 11 14  1  0  0  0  0
 12  3  1  0  0  0  0
 13 11  1  0  0  0  0
 15 11  1  0  0  0  0
M  END
