8,11
q = -1.0, confidence = 0.0

 32 34  0  0  1  0  0  0  0  0999 V2000
   -1.6438   -0.5538   -0.8945 S   0  0  0  0  0  1  0  0  0  0  0  0
   -2.7755   -1.4591    0.1625 C   0  0  0  0  0  0  0  0  0  0  0  0
   -4.1701   -1.1810    0.2056 C   0  0  0  0  0  0  0  0  0  0  0  0
   -2.2469   -2.5397    0.9199 C   0  0  0  0  0  0  0  0  0  0  0  0
   -4.9809   -1.9868    1.0371 C   0  0  0  0  0  0  0  0  0  0  0  0
   -4.4529   -3.0356    1.8000 C   0  0  0  0  0  0  0  0  0  0  0  0
   -3.0797   -3.3168    1.7392 C   0  0  0  0  0  0  0  0  0  0  0  0
   -0.7936   -2.8161    0.7595 C   0  0  1  0  0  3  0  0  0  0  0  0
   -0.3238   -3.3784   -0.4956 C   0  0  0  0  0  0  0  0  0  0  0  0
    1.0444   -3.3668   -0.8152 C   0  0  0  0  0  0  0  0  0  0  0  0
    2.0010   -2.9268    0.1650 C   0  0  0  0  0  3  0  0  0  0  0  0
    1.5421   -2.5945    1.4766 C   0  0  0  0  0  0  0  0  0  0  0  0
    0.1592   -2.5400    1.7994 C   0  0  0  0  0  0  0  0  0  0  0  0
   -4.7969   -0.0801   -0.5724 C   0  0  0  0  0  0  0  0  0  0  0  0
   -4.2369    1.2161   -0.5962 C   0  0  0  0  0  0  0  0  0  0  0  0
   -4.8537    2.2551   -1.3053 C   0  0  0  0  0  0  0  0  0  0  0  0
   -6.0447    2.0181   -2.0098 C   0  0  0  0  0  0  0  0  0  0  0  0
   -6.6145    0.7349   -1.9948 C   0  0  0  0  0  0  0  0  0  0  0  0
   -5.9985   -0.3030   -1.2812 C   0  0  0  0  0  0  0  0  0  0  0  0
   -6.0544   -1.7525    1.1011 H   0  0  0  0  0  0  0  0  0  0  0  0
   -5.1126   -3.6346    2.4450 H   0  0  0  0  0  0  0  0  0  0  0  0
   -2.6499   -4.1494    2.3166 H   0  0  0  0  0  0  0  0  0  0  0  0
   -1.0667   -3.6330   -1.2649 H   0  0  0  0  0  0  0  0  0  0  0  0
    1.3868   -3.6899   -1.8079 H   0  0  0  0  0  0  0  0  0  0  0  0
    3.0692   -2.8807   -0.0800 H   0  0  0  0  0  0  0  0  0  0  0  0
    2.2808   -2.2614    2.2212 H   0  0  0  0  0  0  0  0  0  0  0  0
   -0.1836   -2.2270    2.7947 H   0  0  0  0  0  0  0  0  0  0  0  0
   -3.3106    1.4101   -0.0392 H   0  0  0  0  0  0  0  0  0  0  0  0
   -4.3983    3.2572   -1.3014 H   0  0  0  0  0  0  0  0  0  0  0  0
   -6.5281    2.8321   -2.5712 H   0  0  0  0  0  0  0  0  0  0  0  0
   -7.5442    0.5374   -2.5501 H   0  0  0  0  0  0  0  0  0  0  0  0
   -6.4400   -1.3113   -1.2885 H   0  0  0  0  0  0  0  0  0  0  0  0
  1  2  1  0  0  0  0
  2  3  2  0  0  0  0
  2  4  1  0  0  0  0
  3  5  1  0  0  0  0
  4  7  2  0  0  0  0
  5 20  1  0  0  0  0
  5  6  2  0  0  0  0
  6 21  1  0  0  0  0
  7  6  1  0  0  0  0
  7 22  1  0  0  0  0
  8  4  1  6  0  0  0
  8 13  1  0  0  0  0
  9  8  1  0  0  0  0
 10  9  2  0  0  0  0
 10 11  1  0  0  0  0
 11 12  1  0  0  0  0
 12 13  2  0  0  0  0
 12 26  1  0  0  0  0
 13 27  1  0  0  0  0
 14  3  1  0  0  0  0
 15 14  1  0  0  0  0
 15 28  1  0  0  0  0
 16 29  1  0  0  0  0
 16 15  2  0  0  0  0
 17 18  2  0  0  0  0
 17 16  1  0  0  0  0
 18 19  1  0  0  0  0
 19 14  2  0  0  0  0
 23  9  1  0  0  0  0
 24 10  1  0  0  0  0
 25 11  1  0  0  0  0
 30 17  1  0  0  0  0
 31 18  1  0  0  0  0
 32 19  1  0  0  0  0
M  END
