2,27
q = 0.0, confidence = 0.992

 53 56  0  0  0  0  0  0  0  0999 V2000
    1.5245   -3.0283   -0.9918 N   0  0  0  0  0  0  0  0  0  0  0  0
    1.9324   -1.8270   -0.4853 C   0  0  0  0  0  2  0  0  0  0  0  0
    3.2935   -1.9099   -0.4440 N   0  0  0  0  0  0  0  0  0  0  0  0
    3.7276   -3.1436   -0.9191 C   0  0  0  0  0  0  0  0  0  0  0  0
    4.7865   -3.4159   -0.9567 H   0  0  0  0  0  0  0  0  0  0  0  0
    2.6097   -3.8532   -1.2670 C   0  0  0  0  0  0  0  0  0  0  0  0
    2.4985   -4.8597   -1.6809 H   0  0  0  0  0  0  0  0  0  0  0  0
    4.1604   -0.8140   -0.0146 C   0  0  0  0  0  0  0  0  0  0  0  0
    5.2013   -1.0960   -0.2613 H   0  0  0  0  0  0  0  0  0  0  0  0
    4.0746   -0.6905    1.0857 H   0  0  0  0  0  0  0  0  0  0  0  0
    3.8291    0.5007   -0.7053 C   0  0  0  0  0  0  0  0  0  0  0  0
    4.6494    1.2231   -0.5241 H   0  0  0  0  0  0  0  0  0  0  0  0
    3.6949    0.3612   -1.8004 H   0  0  0  0  0  0  0  0  0  0  0  0
    2.6231    1.0519   -0.1351 O   0  0  0  0  0  0  0  0  0  0  0  0
    2.5490    2.4543   -0.0872 C   0  0  0  0  0  0  0  0  0  0  0  0
    2.5910    3.0618    1.1751 C   0  0  0  0  0  0  0  0  0  0  0  0
    2.6807    2.4301    2.0711 H   0  0  0  0  0  0  0  0  0  0  0  0
    2.5046    4.4611    1.2530 C   0  0  0  0  0  0  0  0  0  0  0  0
    2.5465    4.9534    2.2361 H   0  0  0  0  0  0  0  0  0  0  0  0
    2.3811    5.2294    0.0817 C   0  0  0  0  0  0  0  0  0  0  0  0
    2.3296    6.3265    0.1466 H   0  0  0  0  0  0  0  0  0  0  0  0
    2.3330    4.5976   -1.1730 C   0  0  0  0  0  0  0  0  0  0  0  0
    2.2340    5.1969   -2.0904 H   0  0  0  0  0  0  0  0  0  0  0  0
    2.4121    3.1983   -1.2669 C   0  0  0  0  0  0  0  0  0  0  0  0
    2.3513    2.6845   -2.2369 H   0  0  0  0  0  0  0  0  0  0  0  0
   -0.7816   -2.7886   -0.4018 N   0  0  0  0  0  0  0  0  0  0  0  0
   -0.7132   -1.5592    0.2112 C   0  0  0  0  0  2  0  0  0  0  0  0
   -1.8302   -1.5170    1.0050 N   0  0  0  0  0  0  0  0  0  0  0  0
   -2.5827   -2.6789    0.8663 C   0  0  0  0  0  0  0  0  0  0  0  0
   -3.5253   -2.8127    1.4023 H   0  0  0  0  0  0  0  0  0  0  0  0
   -1.9214   -3.4855   -0.0136 C   0  0  0  0  0  0  0  0  0  0  0  0
   -2.1618   -4.4801   -0.4002 H   0  0  0  0  0  0  0  0  0  0  0  0
   -2.2522   -0.4240    1.8784 C   0  0  0  0  0  0  0  0  0  0  0  0
   -1.3603    0.1680    2.1468 H   0  0  0  0  0  0  0  0  0  0  0  0
   -2.6446   -0.8715    2.8122 H   0  0  0  0  0  0  0  0  0  0  0  0
   -3.3261    0.4397    1.2339 C   0  0  0  0  0  0  0  0  0  0  0  0
   -3.5062    1.3341    1.8767 H   0  0  0  0  0  0  0  0  0  0  0  0
   -2.9814    0.7948    0.2359 H   0  0  0  0  0  0  0  0  0  0  0  0
   -4.4938   -0.3469    1.1128 O   0  0  0  0  0  0  0  0  0  0  0  0
   -5.5775    0.1774    0.4482 C   0  0  0  0  0  0  0  0  0  0  0  0
   -5.6244    1.4840   -0.0726 C   0  0  0  0  0  0  0  0  0  0  0  0
   -4.7734    2.1706    0.0318 H   0  0  0  0  0  0  0  0  0  0  0  0
   -6.7855    1.9199   -0.7352 C   0  0  0  0  0  0  0  0  0  0  0  0
   -6.8187    2.9424   -1.1408 H   0  0  0  0  0  0  0  0  0  0  0  0
   -7.8912    1.0724   -0.8795 C   0  0  0  0  0  0  0  0  0  0  0  0
   -8.7950    1.4226   -1.3983 H   0  0  0  0  0  0  0  0  0  0  0  0
   -7.8348   -0.2298   -0.3513 C   0  0  0  0  0  0  0  0  0  0  0  0
   -8.6975   -0.9050   -0.4547 H   0  0  0  0  0  0  0  0  0  0  0  0
   -6.6873   -0.6794    0.3095 C   0  0  0  0  0  0  0  0  0  0  0  0
   -6.6288   -1.6934    0.7311 H   0  0  0  0  0  0  0  0  0  0  0  0
    0.1516   -3.2539   -1.4087 C   0  0  0  0  0  0  0  0  0  0  0  0
   -0.0056   -4.3357   -1.5679 H   0  0  0  0  0  0  0  0  0  0  0  0
   -0.0252   -2.6973   -2.3561 H   0  0  0  0  0  0  0  0  0  0  0  0
  1  2  1  0  0  0  0
  2  3  1  0  0  0  0
  3  8  1  0  0  0  0
  4  3  1  0  0  0  0
  5  4  1  0  0  0  0
  6  1  1  0  0  0  0
  6  4  2  0  0  0  0
  7  6  1  0  0  0  0
  8 10  1  0  0  0  0
  9  8  1  0  0  0  0
 11 12  1  0  0  0  0
 11 14  1  0  0  0  0
 11  8  1  0  0  0  0
 13 11  1  0  0  0  0
 14 15  1  0  0  0  0
 15 16  1  0  0  0  0
 16 18  2  0  0  0  0
 16 17  1  0  0  0  0
 18 19  1  0  0  0  0
 20 21  1  0  0  0  0
 20 18  1  0  0  0  0
 22 20  2  0  0  0  0
 23 22  1  0  0  0  0
 24 22  1  0  0  0  0
 24 15  2  0  0  0  0
 25 24  1  0  0  0  0
 26 31  1  0  0  0  0
 26 27  1  0  0  0  0
 27 28  1  0  0  0  0
 28 33  1  0  0  0  0
 29 28  1  0  0  0  0
 29 30  1  0  0  0  0
 31 29  2  0  0  0  0
 32 31  1  0  0  0  0
 33 34  1  0  0  0  0
 33 35  1  0  0  0  0
 36 37  1  0  0  0  0
 36 33  1  0  0  0  0
 38 36  1  0  0  0  0
 39 36  1  0  0  0  0
 40 39  1  0  0  0  0
 41 42  1  0  0  0  0
 41 40  2  0  0  0  0
 43 41  1  0  0  0  0
 44 43  1  0  0  0  0
 45 43  2  0  0  0  0
 45 47  1  0  0  0  0
 46 45  1  0  0  0  0
 47 49  2  0  0  0  0
 48 47  1  0  0  0  0
 49 40  1  0  0  0  0
 49 50  1  0  0  0  0
 51  1  1  0  0  0  0
 51 26  1  0  0  0  0
 52 51  1  0  0  0  0
 53 51  1  0  0  0  0
M  END
