1,7
q = 0.0, confidence = 0.918

 18 19  0  0  0  0  0  0  0  0999 V2000
    0.6933   -2.3876   -0.1396 C   0  0  0  0  0  3  0  0  0  0  0  0
    1.4136   -2.9229    0.4998 H   0  0  0  0  0  0  0  0  0  0  0  0
    1.0996   -2.0460   -1.4985 C   0  0  0  0  0  0  0  0  0  0  0  0
    2.1484   -2.1703   -1.8054 H   0  0  0  0  0  0  0  0  0  0  0  0
    0.1849   -1.4657   -2.3643 C   0  0  0  0  0  0  0  0  0  0  0  0
    0.5079   -1.1125   -3.3570 H   0  0  0  0  0  0  0  0  0  0  0  0
   -1.1810   -1.2261   -1.9171 C   0  0  0  0  0  3  0  0  0  0  0  0
   -1.9084   -0.8651   -2.6612 H   0  0  0  0  0  0  0  0  0  0  0  0
   -1.6794   -2.1913   -0.9184 C   0  0  0  0  0  0  0  0  0  0  0  0
   -3.0387   -2.5543   -0.7953 C   0  0  0  0  0  0  0  0  0  0  0  0
   -3.7604   -2.1432   -1.5192 H   0  0  0  0  0  0  0  0  0  0  0  0
   -3.4931   -3.3830    0.2507 C   0  0  0  0  0  0  0  0  0  0  0  0
   -4.5671   -3.6124    0.3429 H   0  0  0  0  0  0  0  0  0  0  0  0
   -2.5729   -3.9077    1.1694 C   0  0  0  0  0  0  0  0  0  0  0  0
   -2.9150   -4.5505    1.9967 H   0  0  0  0  0  0  0  0  0  0  0  0
   -1.2015   -3.6176    1.0257 C   0  0  0  0  0  0  0  0  0  0  0  0
   -0.4723   -4.0475    1.7329 H   0  0  0  0  0  0  0  0  0  0  0  0
   -0.7253   -2.7634    0.0068 C   0  0  0  0  0  0  0  0  0  0  0  0
  1 18  1  0  0  0  0
  1  2  1  0  0  0  0
  3  1  1  0  0  0  0
  4  3  1  0  0  0  0
  5  7  1  0  0  0  0
  5  3  2  0  0  0  0
  6  5  1  0  0  0  0
  7  9  1  0  0  0  0
  8  7  1  0  0  0  0
  9 10  2  0  0  0  0
  9 18  1  0  0  0  0
 10 12  1  0  0  0  0
 11 10  1  0  0  0  0
 12 13  1  0  0  0  0
 12 14  2  0  0  0  0
 14 15  1  0  0  0  0
 16 14  1  0  0  0  0
 16 17  1  0  0  0  0
 18 16  2  0  0  0  0
M  END
