22,38
q = -1.0

 54 54  0  0  1  0  0  0  0  0999 V2000
   -1.0519   -1.0613   -1.6361 N   0  0  0  0  0  0  0  0  0  0  0  0
   -0.9892   -2.0927   -1.7067 H   0  0  0  0  0  0  0  0  0  0  0  0
   -0.9500   -0.6690   -2.5798 H   0  0  0  0  0  0  0  0  0  0  0  0
   -1.3558    1.4926    0.0811 C   0  0  0  0  0  0  0  0  0  0  0  0
   -2.3909    0.8017   -0.6027 C   0  0  0  0  0  0  0  0  0  0  0  0
   -3.5957    1.4806   -0.8909 C   0  0  0  0  0  0  0  0  0  0  0  0
   -4.3903    0.9360   -1.4248 H   0  0  0  0  0  0  0  0  0  0  0  0
   -3.8087    2.8103   -0.5179 C   0  0  0  0  0  0  0  0  0  0  0  0
   -4.7598    3.3070   -0.7607 H   0  0  0  0  0  0  0  0  0  0  0  0
   -2.7911    3.4999    0.1575 C   0  0  0  0  0  0  0  0  0  0  0  0
   -2.9270    4.5508    0.4542 H   0  0  0  0  0  0  0  0  0  0  0  0
   -1.5922    2.8410    0.4451 C   0  0  0  0  0  0  0  0  0  0  0  0
   -0.7886    3.3837    0.9673 H   0  0  0  0  0  0  0  0  0  0  0  0
   -0.0081    0.9566    0.5167 C   0  0  2  0  0  3  0  0  0  0  0  0
    0.0598    0.6937    2.0247 C   0  0  0  0  0  0  0  0  0  0  0  0
    1.1155    0.5273    2.3070 H   0  0  0  0  0  0  0  0  0  0  0  0
   -0.2675    1.6309    2.5325 H   0  0  0  0  0  0  0  0  0  0  0  0
   -0.8004   -0.4659    2.5245 C   0  0  0  0  0  0  0  0  0  0  0  0
   -0.7139   -0.5720    3.6247 H   0  0  0  0  0  0  0  0  0  0  0  0
   -0.4810   -1.4202    2.0588 H   0  0  0  0  0  0  0  0  0  0  0  0
   -1.8709   -0.3033    2.2877 H   0  0  0  0  0  0  0  0  0  0  0  0
    1.1498    1.3736   -0.2284 C   0  0  1  0  0  3  0  0  0  0  0  0
    1.0628    2.2557   -1.4599 C   0  0  0  0  0  0  0  0  0  0  0  0
    1.3280    3.2912   -1.1404 H   0  0  0  0  0  0  0  0  0  0  0  0
    0.0127    2.3139   -1.8094 H   0  0  0  0  0  0  0  0  0  0  0  0
    1.9812    1.8225   -2.6064 C   0  0  0  0  0  0  0  0  0  0  0  0
    1.8983    2.5158   -3.4670 H   0  0  0  0  0  0  0  0  0  0  0  0
    1.7200    0.8004   -2.9502 H   0  0  0  0  0  0  0  0  0  0  0  0
    3.0429    1.7874   -2.2915 H   0  0  0  0  0  0  0  0  0  0  0  0
    2.5154    1.0553    0.3220 C   0  0  0  0  0  0  0  0  0  0  0  0
    3.5170    2.1083    0.7166 C   0  0  0  0  0  0  0  0  0  0  0  0
    3.7902    2.7151   -0.1772 H   0  0  0  0  0  0  0  0  0  0  0  0
    4.4544    1.6124    1.0430 H   0  0  0  0  0  0  0  0  0  0  0  0
    2.9993    3.0467    1.8170 C   0  0  0  0  0  0  0  0  0  0  0  0
    3.7319    3.8462    2.0489 H   0  0  0  0  0  0  0  0  0  0  0  0
    2.7918    2.4903    2.7533 H   0  0  0  0  0  0  0  0  0  0  0  0
    2.0524    3.5399    1.5112 H   0  0  0  0  0  0  0  0  0  0  0  0
    2.5704   -0.2976    0.3323 C   0  0  0  0  0  3  0  0  0  0  0  0
    3.6135   -1.2712    0.7640 C   0  0  0  0  0  0  0  0  0  0  0  0
    4.5222   -0.7149    1.0911 H   0  0  0  0  0  0  0  0  0  0  0  0
    3.9035   -1.8888   -0.1129 H   0  0  0  0  0  0  0  0  0  0  0  0
    3.1258   -2.2045    1.8823 C   0  0  0  0  0  0  0  0  0  0  0  0
    3.9205   -2.9172    2.1821 H   0  0  0  0  0  0  0  0  0  0  0  0
    2.2515   -2.7879    1.5308 H   0  0  0  0  0  0  0  0  0  0  0  0
    2.8206   -1.6311    2.7820 H   0  0  0  0  0  0  0  0  0  0  0  0
   -2.3245   -0.6554   -1.0406 C   0  0  2  0  0  0  0  0  0  0  0  0
   -3.1533   -0.7881   -1.7773 H   0  0  0  0  0  0  0  0  0  0  0  0
   -2.6794   -1.6757    0.0543 C   0  0  0  0  0  0  0  0  0  0  0  0
   -3.7116   -1.2502    0.8061 O   0  0  0  0  0  0  0  0  0  0  0  0
   -2.1452   -2.7607    0.1643 O   0  0  0  0  0  0  0  0  0  0  0  0
   -4.1615   -2.1735    1.8103 C   0  0  0  0  0  0  0  0  0  0  0  0
   -5.0541   -1.7128    2.2681 H   0  0  0  0  0  0  0  0  0  0  0  0
   -3.3713   -2.3269    2.5724 H   0  0  0  0  0  0  0  0  0  0  0  0
   -4.4106   -3.1538    1.3582 H   0  0  0  0  0  0  0  0  0  0  0  0
  1 46  1  0  0  0  0
  2  1  1  0  0  0  0
  3  1  1  0  0  0  0
  4 12  1  0  0  0  0
  4 14  1  0  0  0  0
  5  4  2  0  0  0  0
  6  5  1  0  0  0  0
  6  8  2  0  0  0  0
  7  6  1  0  0  0  0
  8 10  1  0  0  0  0
  9  8  1  0  0  0  0
 10 12  2  0  0  0  0
 10 11  1  0  0  0  0
 12 13  1  0  0  0  0
 14 15  1  1  0  0  0
 15 16  1  0  0  0  0
 15 18  1  0  0  0  0
 15 17  1  0  0  0  0
 18 19  1  0  0  0  0
 20 18  1  0  0  0  0
 21 18  1  0  0  0  0
 22 30  1  1  0  0  0
 22 14  1  0  0  0  0
 23 24  1  0  0  0  0
 23 22  1  0  0  0  0
 25 23  1  0  0  0  0
 26 29  1  0  0  0  0
 26 23  1  0  0  0  0
 27 26  1  0  0  0  0
 28 26  1  0  0  0  0
 30 38  2  0  0  0  0
 30 31  1  0  0  0  0
 31 33  1  0  0  0  0
 31 34  1  0  0  0  0
 32 31  1  0  0  0  0
 34 35  1  0  0  0  0
 34 36  1  0  0  0  0
 37 34  1  0  0  0  0
 38 39  1  0  0  0  0
 39 40  1  0  0  0  0
 39 42  1  0  0  0  0
 41 39  1  0  0  0  0
 42 43  1  0  0  0  0
 42 45  1  0  0  0  0
 44 42  1  0  0  0  0
 46 47  1  6  0  0  0
 46  5  1  0  0  0  0
 46 48  1  0  0  0  0
 48 50  2  0  0  0  0
 48 49  1  0  0  0  0
 49 51  1  0  0  0  0
 51 52  1  0  0  0  0
 51 53  1  0  0  0  0
 54 51  1  0  0  0  0
M  END
