8,11
q = -1.0

 36 36  0  0  1  0  0  0  0  0999 V2000
    2.3861    0.0383   -0.1821 N   0  0  0  0  0  0  0  0  0  0  0  0
    1.6649    0.6177    2.1241 C   0  0  0  0  0  0  0  0  0  0  0  0
    2.1231   -0.2406    2.6545 H   0  0  0  0  0  0  0  0  0  0  0  0
    1.6597    1.4577    2.8491 H   0  0  0  0  0  0  0  0  0  0  0  0
    2.5125    1.0257    0.9112 C   0  0  0  0  0  0  0  0  0  0  0  0
    2.1514    1.9932    0.5101 H   0  0  0  0  0  0  0  0  0  0  0  0
    3.5853    1.1551    1.1982 H   0  0  0  0  0  0  0  0  0  0  0  0
    0.2581    0.2784    1.7088 C   0  0  1  0  0  3  0  0  0  0  0  0
   -0.7312    1.2491    1.3372 C   0  0  0  0  0  0  0  0  0  0  0  0
   -1.9079    0.5446    0.9310 C   0  0  0  0  0  0  0  0  0  0  0  0
   -1.6498   -0.8630    1.0585 C   0  0  1  0  0  3  0  0  0  0  0  0
   -0.3226   -1.0292    1.5738 C   0  0  2  0  0  3  0  0  0  0  0  0
   -0.6328    2.7341    1.4959 C   0  0  0  0  0  0  0  0  0  0  0  0
   -1.0834    3.2655    0.6364 H   0  0  0  0  0  0  0  0  0  0  0  0
    0.4139    3.0794    1.5818 H   0  0  0  0  0  0  0  0  0  0  0  0
   -1.1710    3.0486    2.4163 H   0  0  0  0  0  0  0  0  0  0  0  0
   -3.2026    1.1888    0.5507 C   0  0  0  0  0  0  0  0  0  0  0  0
   -3.0382    2.0840   -0.0793 H   0  0  0  0  0  0  0  0  0  0  0  0
   -3.7484    1.5097    1.4647 H   0  0  0  0  0  0  0  0  0  0  0  0
   -3.8511    0.4974   -0.0163 H   0  0  0  0  0  0  0  0  0  0  0  0
   -2.6115   -1.9714    0.7648 C   0  0  0  0  0  0  0  0  0  0  0  0
   -3.2694   -1.7068   -0.0846 H   0  0  0  0  0  0  0  0  0  0  0  0
   -3.2516   -2.1838    1.6485 H   0  0  0  0  0  0  0  0  0  0  0  0
   -2.0789   -2.9021    0.4933 H   0  0  0  0  0  0  0  0  0  0  0  0
    0.2470   -2.3469    2.0059 C   0  0  0  0  0  0  0  0  0  0  0  0
    1.1605   -2.2200    2.6177 H   0  0  0  0  0  0  0  0  0  0  0  0
    0.4924   -2.9922    1.1371 H   0  0  0  0  0  0  0  0  0  0  0  0
   -0.4925   -2.8901    2.6286 H   0  0  0  0  0  0  0  0  0  0  0  0
    3.0857    0.5012   -1.3941 C   0  0  0  0  0  0  0  0  0  0  0  0
    2.7005    1.4885   -1.7009 H   0  0  0  0  0  0  0  0  0  0  0  0
    2.8970   -0.2212   -2.2115 H   0  0  0  0  0  0  0  0  0  0  0  0
    4.1848    0.5655   -1.2153 H   0  0  0  0  0  0  0  0  0  0  0  0
    2.9986   -1.2412    0.2154 C   0  0  0  0  0  0  0  0  0  0  0  0
    2.9136   -1.9640   -0.6140 H   0  0  0  0  0  0  0  0  0  0  0  0
    2.4885   -1.6774    1.0877 H   0  0  0  0  0  0  0  0  0  0  0  0
    4.0748   -1.0885    0.4674 H   0  0  0  0  0  0  0  0  0  0  0  0
  1 33  1  0  0  0  0
  1  5  1  0  0  0  0
  2  3  1  0  0  0  0
  2  4  1  0  0  0  0
  5  7  1  0  0  0  0
  5  2  1  0  0  0  0
  6  5  1  0  0  0  0
  8  2  1  6  0  0  0
  9 13  1  0  0  0  0
  9  8  1  0  0  0  0
 10 11  1  0  0  0  0
 10  9  2  0  0  0  0
 11 21  1  1  0  0  0
 11 12  1  0  0  0  0
 12  8  1  0  0  0  0
 12 25  1  1  0  0  0
 13 15  1  0  0  0  0
 13 16  1  0  0  0  0
 14 13  1  0  0  0  0
 17 10  1  0  0  0  0
 17 19  1  0  0  0  0
 18 17  1  0  0  0  0
 20 17  1  0  0  0  0
 21 23  1  0  0  0  0
 22 21  1  0  0  0  0
 24 21  1  0  0  0  0
 25 26  1  0  0  0  0
 25 28  1  0  0  0  0
 27 25  1  0  0  0  0
 29 32  1  0  0  0  0
 29  1  1  0  0  0  0
 30 29  1  0  0  0  0
 31 29  1  0  0  0  0
 33 36  1  0  0  0  0
 33 35  1  0  0  0  0
 34 33  1  0  0  0  0
M  END
