4,10
q = 0.0, confidence = 1.0

 63 68  0  0  1  0  0  0  0  0999 V2000
    1.2222    1.4203    0.8271 P   0  0  0  0  0  0  0  0  0  0  0  0
   -2.2402    0.6184    0.3353 P   0  0  0  0  0  0  0  0  0  0  0  0
    1.1139    0.0037   -0.3700 C   0  0  2  0  0  3  0  0  0  0  0  0
    0.0089   -0.9090   -0.2585 C   0  0  1  0  0  3  0  0  0  0  0  0
   -0.1167   -2.0290   -1.1290 C   0  0  0  0  0  0  0  0  0  0  0  0
    0.8849   -2.2864   -2.1097 C   0  0  0  0  0  0  0  0  0  0  0  0
    0.8256   -3.1860   -2.7387 H   0  0  0  0  0  0  0  0  0  0  0  0
    1.9834   -1.3989   -2.2386 C   0  0  0  0  0  3  0  0  0  0  0  0
    2.7826   -1.6123   -2.9615 H   0  0  0  0  0  0  0  0  0  0  0  0
    2.1031   -0.2775   -1.3593 C   0  0  0  0  0  3  0  0  0  0  0  0
    2.9939    0.3648   -1.4166 H   0  0  0  0  0  0  0  0  0  0  0  0
   -1.1364   -0.8784    0.7242 C   0  0  2  0  0  0  0  0  0  0  0  0
   -0.7574   -0.6579    1.7438 H   0  0  0  0  0  0  0  0  0  0  0  0
   -1.7530   -2.2970    0.6027 C   0  0  0  0  0  0  0  0  0  0  0  0
   -1.3045   -2.9416    1.3865 H   0  0  0  0  0  0  0  0  0  0  0  0
   -2.8489   -2.3020    0.7571 H   0  0  0  0  0  0  0  0  0  0  0  0
   -1.3491   -2.8265   -0.7935 C   0  0  0  0  0  0  0  0  0  0  0  0
   -1.1613   -3.9184   -0.8009 H   0  0  0  0  0  0  0  0  0  0  0  0
   -2.1356   -2.6183   -1.5501 H   0  0  0  0  0  0  0  0  0  0  0  0
    0.6254    2.8192   -0.2307 C   0  0  0  0  0  0  0  0  0  0  0  0
    0.2159    3.9881    0.4444 C   0  0  0  0  0  0  0  0  0  0  0  0
    0.2644    4.0222    1.5446 H   0  0  0  0  0  0  0  0  0  0  0  0
   -0.2643    5.0948   -0.2701 C   0  0  0  0  0  0  0  0  0  0  0  0
   -0.5797    5.9999    0.2712 H   0  0  0  0  0  0  0  0  0  0  0  0
   -0.3586    5.0426   -1.6703 C   0  0  0  0  0  0  0  0  0  0  0  0
   -0.7482    5.9059   -2.2309 H   0  0  0  0  0  0  0  0  0  0  0  0
    0.0417    3.8824   -2.3513 C   0  0  0  0  0  0  0  0  0  0  0  0
   -0.0305    3.8342   -3.4489 H   0  0  0  0  0  0  0  0  0  0  0  0
    0.5357    2.7793   -1.6371 C   0  0  0  0  0  0  0  0  0  0  0  0
    0.8532    1.8778   -2.1821 H   0  0  0  0  0  0  0  0  0  0  0  0
    3.0531    1.6995    0.8169 C   0  0  0  0  0  0  0  0  0  0  0  0
    3.8193    0.9012    1.6941 C   0  0  0  0  0  0  0  0  0  0  0  0
    3.3148    0.1771    2.3523 H   0  0  0  0  0  0  0  0  0  0  0  0
    5.2156    1.0169    1.7234 C   0  0  0  0  0  0  0  0  0  0  0  0
    5.8017    0.3716    2.3946 H   0  0  0  0  0  0  0  0  0  0  0  0
    5.8619    1.9537    0.9002 C   0  0  0  0  0  0  0  0  0  0  0  0
    6.9581    2.0487    0.9277 H   0  0  0  0  0  0  0  0  0  0  0  0
    5.1053    2.7725    0.0476 C   0  0  0  0  0  0  0  0  0  0  0  0
    5.6064    3.5148   -0.5929 H   0  0  0  0  0  0  0  0  0  0  0  0
    3.7072    2.6453    0.0008 C   0  0  0  0  0  0  0  0  0  0  0  0
    3.1198    3.2840   -0.6761 H   0  0  0  0  0  0  0  0  0  0  0  0
   -3.5876    0.4293    1.5780 C   0  0  0  0  0  0  0  0  0  0  0  0
   -4.7703    1.1803    1.3788 C   0  0  0  0  0  0  0  0  0  0  0  0
   -4.8833    1.7840    0.4639 H   0  0  0  0  0  0  0  0  0  0  0  0
   -5.8014    1.1621    2.3269 C   0  0  0  0  0  0  0  0  0  0  0  0
   -6.7167    1.7468    2.1475 H   0  0  0  0  0  0  0  0  0  0  0  0
   -5.6649    0.4087    3.5052 C   0  0  0  0  0  0  0  0  0  0  0  0
   -6.4723    0.3975    4.2528 H   0  0  0  0  0  0  0  0  0  0  0  0
   -4.4895   -0.3245    3.7235 C   0  0  0  0  0  0  0  0  0  0  0  0
   -4.3697   -0.9146    4.6450 H   0  0  0  0  0  0  0  0  0  0  0  0
   -3.4595   -0.3174    2.7688 C   0  0  0  0  0  0  0  0  0  0  0  0
   -2.5501   -0.9033    2.9656 H   0  0  0  0  0  0  0  0  0  0  0  0
   -3.0403    0.0119   -1.2208 C   0  0  0  0  0  0  0  0  0  0  0  0
   -2.3578    0.2962   -2.4243 C   0  0  0  0  0  0  0  0  0  0  0  0
   -1.4504    0.9194   -2.3936 H   0  0  0  0  0  0  0  0  0  0  0  0
   -2.8258   -0.2084   -3.6467 C   0  0  0  0  0  0  0  0  0  0  0  0
   -2.2776    0.0124   -4.5755 H   0  0  0  0  0  0  0  0  0  0  0  0
   -3.9977   -0.9812   -3.6863 C   0  0  0  0  0  0  0  0  0  0  0  0
   -4.3700   -1.3722   -4.6454 H   0  0  0  0  0  0  0  0  0  0  0  0
   -4.7018   -1.2405   -2.4984 C   0  0  0  0  0  0  0  0  0  0  0  0
   -5.6271   -1.8366   -2.5255 H   0  0  0  0  0  0  0  0  0  0  0  0
   -4.2269   -0.7501   -1.2725 C   0  0  0  0  0  0  0  0  0  0  0  0
   -4.7802   -0.9643   -0.3456 H   0  0  0  0  0  0  0  0  0  0  0  0
  2 12  1  0  0  0  0
  2 42  1  0  0  0  0
  3  4  1  0  0  0  0
  3  1  1  1  0  0  0
  4  5  1  1  0  0  0
  4 12  1  0  0  0  0
  5 17  1  0  0  0  0
  6  5  2  0  0  0  0
  7  6  1  0  0  0  0
  8  6  1  0  0  0  0
  8 10  1  0  0  0  0
  9  8  1  0  0  0  0
 10  3  1  0  0  0  0
 11 10  1  0  0  0  0
 12 13  1  1  0  0  0
 14 12  1  0  0  0  0
 14 16  1  0  0  0  0
 14 15  1  0  0  0  0
 17 14  1  0  0  0  0
 18 17  1  0  0  0  0
 19 17  1  0  0  0  0
 20 21  1  0  0  0  0
 20  1  1  0  0  0  0
 21 22  1  0  0  0  0
 23 24  1  0  0  0  0
 23 21  2  0  0  0  0
 25 23  1  0  0  0  0
 26 25  1  0  0  0  0
 27 25  2  0  0  0  0
 27 29  1  0  0  0  0
 28 27  1  0  0  0  0
 29 20  2  0  0  0  0
 30 29  1  0  0  0  0
 31  1  1  0  0  0  0
 31 32  1  0  0  0  0
 32 34  2  0  0  0  0
 32 33  1  0  0  0  0
 34 35  1  0  0  0  0
 36 37  1  0  0  0  0
 36 34  1  0  0  0  0
 38 36  2  0  0  0  0
 39 38  1  0  0  0  0
 40 38  1  0  0  0  0
 40 31  2  0  0  0  0
 41 40  1  0  0  0  0
 42 51  1  0  0  0  0
 43 42  2  0  0  0  0
 43 45  1  0  0  0  0
 44 43  1  0  0  0  0
 45 47  2  0  0  0  0
 46 45  1  0  0  0  0
 47 49  1  0  0  0  0
 47 48  1  0  0  0  0
 49 50  1  0  0  0  0
 51 52  1  0  0  0  0
 51 49  2  0  0  0  0
 53  2  1  0  0  0  0
 54 55  1  0  0  0  0
 54 53  2  0  0  0  0
 56 54  1  0  0  0  0
 57 56  1  0  0  0  0
 58 56  2  0  0  0  0
 58 60  1  0  0  0  0
 59 58  1  0  0  0  0
 60 62  2  0  0  0  0
 61 60  1  0  0  0  0
 62 53  1  0  0  0  0
 62 63  1  0  0  0  0
M  END
