3,7
q = 0.0, confidence = 0.978

 22 23  0  0  0  0  0  0  0  0999 V2000
   -0.6395   -2.0957   -1.1577 C   0  0  0  0  0  3  0  0  0  0  0  0
   -0.7206   -2.9523   -0.4768 H   0  0  0  0  0  0  0  0  0  0  0  0
    0.5580   -1.9082   -1.9030 C   0  0  0  0  0  3  0  0  0  0  0  0
    1.3828   -2.6265   -1.7914 H   0  0  0  0  0  0  0  0  0  0  0  0
    0.7240   -0.7477   -2.7274 C   0  0  0  0  0  3  0  0  0  0  0  0
    1.6710   -0.5681   -3.2557 H   0  0  0  0  0  0  0  0  0  0  0  0
   -0.3037    0.2436   -2.7187 C   0  0  0  0  0  3  0  0  0  0  0  0
   -0.1591    1.1885   -3.2630 H   0  0  0  0  0  0  0  0  0  0  0  0
   -1.5581    0.0003   -2.0475 C   0  0  0  0  0  0  0  0  0  0  0  0
   -2.3616    0.7454   -2.1200 H   0  0  0  0  0  0  0  0  0  0  0  0
   -1.7701   -1.1905   -1.3041 C   0  0  0  0  0  0  0  0  0  0  0  0
   -3.0396   -1.4523   -0.6024 C   0  0  0  0  0  0  0  0  0  0  0  0
   -3.8573   -0.3968   -0.1367 C   0  0  0  0  0  0  0  0  0  0  0  0
   -3.5180    0.6452   -0.2290 H   0  0  0  0  0  0  0  0  0  0  0  0
   -5.0747   -0.6689    0.4949 C   0  0  0  0  0  0  0  0  0  0  0  0
   -5.6942    0.1603    0.8668 H   0  0  0  0  0  0  0  0  0  0  0  0
   -5.4972   -1.9977    0.6692 C   0  0  0  0  0  0  0  0  0  0  0  0
   -6.4550   -2.2098    1.1669 H   0  0  0  0  0  0  0  0  0  0  0  0
   -4.6927   -3.0540    0.2140 C   0  0  0  0  0  0  0  0  0  0  0  0
   -5.0223   -4.0953    0.3431 H   0  0  0  0  0  0  0  0  0  0  0  0
   -3.4678   -2.7855   -0.4090 C   0  0  0  0  0  0  0  0  0  0  0  0
   -2.8567   -3.6216   -0.7801 H   0  0  0  0  0  0  0  0  0  0  0  0
  1  2  1  0  0  0  0
  3  4  1  0  0  0  0
  3  1  1  0  0  0  0
  5  7  1  0  0  0  0
  5  3  1  0  0  0  0
  6  5  1  0  0  0  0
  7  9  1  0  0  0  0
  8  7  1  0  0  0  0
  9 11  2  0  0  0  0
 10  9  1  0  0  0  0
 11  1  1  0  0  0  0
 11 12  1  0  0  0  0
 12 21  2  0  0  0  0
 12 13  1  0  0  0  0
 13 15  2  0  0  0  0
 14 13  1  0  0  0  0
 15 17  1  0  0  0  0
 15 16  1  0  0  0  0
 17 18  1  0  0  0  0
 19 20  1  0  0  0  0
 19 17  2  0  0  0  0
 21 19  1  0  0  0  0
 22 21  1  0  0  0  0
M  END
