12,17
q = -2.0, confidence = 0.688

 38 37  0  0  1  0  0  0  0  0999 V2000
    0.2090   -3.5812   -0.9816 O   0  0  0  0  0  0  0  0  0  0  0  0
    1.4099   -2.9701    0.8461 O   0  0  0  0  0  0  0  0  0  0  0  0
    3.7029   -2.2281   -1.2059 O   0  0  0  0  0  0  0  0  0  0  0  0
    4.3912   -0.9921    0.5718 O   0  0  0  0  0  0  0  0  0  0  0  0
    3.3198    2.4290    1.2528 O   0  0  0  0  0  0  0  0  0  0  0  0
    4.2035    1.5377   -0.6421 O   0  0  0  0  0  0  0  0  0  0  0  0
    1.0076    3.2441   -0.9537 O   0  0  0  0  0  0  0  0  0  0  0  0
   -0.1308    3.3547    1.0050 O   0  0  0  0  0  0  0  0  0  0  0  0
    0.2063    0.4471   -2.3598 C   0  0  0  0  0  3  0  0  0  0  0  0
   -0.4655    0.6586   -3.2069 H   0  0  0  0  0  0  0  0  0  0  0  0
    0.9611    1.2212   -2.1471 H   0  0  0  0  0  0  0  0  0  0  0  0
    0.3685   -0.9082   -1.9958 C   0  0  0  0  0  3  0  0  0  0  0  0
   -0.1671   -1.6998   -2.5408 H   0  0  0  0  0  0  0  0  0  0  0  0
    1.0023   -1.3006   -0.7534 C   0  0  2  0  0  3  0  0  0  0  0  0
    2.2204   -0.5859   -0.2835 C   0  0  2  0  0  3  0  0  0  0  0  0
    2.1063    0.7169    0.0931 C   0  0  1  0  0  3  0  0  0  0  0  0
    0.7386    1.2460    0.3960 C   0  0  0  0  0  3  0  0  0  0  0  0
    0.5432    1.1283    1.4804 H   0  0  0  0  0  0  0  0  0  0  0  0
    0.8229   -2.7296   -0.3599 C   0  0  0  0  0  0  0  0  0  0  0  0
    1.2998   -4.3153    1.3190 C   0  0  0  0  0  0  0  0  0  0  0  0
    0.2360   -4.6038    1.4397 H   0  0  0  0  0  0  0  0  0  0  0  0
    1.8200   -4.3416    2.2931 H   0  0  0  0  0  0  0  0  0  0  0  0
    1.7748   -5.0201    0.6072 H   0  0  0  0  0  0  0  0  0  0  0  0
    3.4983   -1.3487   -0.3851 C   0  0  0  0  0  0  0  0  0  0  0  0
    5.6667   -1.6302    0.4778 C   0  0  0  0  0  0  0  0  0  0  0  0
    5.5567   -2.7331    0.4617 H   0  0  0  0  0  0  0  0  0  0  0  0
    6.2390   -1.3075    1.3659 H   0  0  0  0  0  0  0  0  0  0  0  0
    6.1911   -1.3223   -0.4504 H   0  0  0  0  0  0  0  0  0  0  0  0
    3.2621    1.6381    0.3266 C   0  0  0  0  0  0  0  0  0  0  0  0
    5.3437    2.3826   -0.4659 C   0  0  0  0  0  0  0  0  0  0  0  0
    5.0342    3.4400   -0.3455 H   0  0  0  0  0  0  0  0  0  0  0  0
    5.9624    2.2580   -1.3723 H   0  0  0  0  0  0  0  0  0  0  0  0
    5.9165    2.0837    0.4364 H   0  0  0  0  0  0  0  0  0  0  0  0
    0.5768    2.6930    0.0535 C   0  0  0  0  0  0  0  0  0  0  0  0
   -0.3094    4.7553    0.7838 C   0  0  0  0  0  0  0  0  0  0  0  0
    0.6623    5.2460    0.5763 H   0  0  0  0  0  0  0  0  0  0  0  0
   -0.7601    5.1564    1.7092 H   0  0  0  0  0  0  0  0  0  0  0  0
   -0.9884    4.9386   -0.0740 H   0  0  0  0  0  0  0  0  0  0  0  0
  1 19  2  0  0  0  0
  2 20  1  0  0  0  0
  3 24  2  0  0  0  0
  6 30  1  0  0  0  0
  6 29  1  0  0  0  0
  7 34  2  0  0  0  0
  9 11  1  0  0  0  0
  9 12  1  0  0  0  0
 10  9  1  0  0  0  0
 13 12  1  0  0  0  0
 14 12  1  6  0  0  0
 14 19  1  0  0  0  0
 14 15  1  0  0  0  0
 15 24  1  6  0  0  0
 15 16  1  0  0  0  0
 16 29  1  1  0  0  0
 16 17  1  0  0  0  0
 17 18  1  0  0  0  0
 19  2  1  0  0  0  0
 20 21  1  0  0  0  0
 20 22  1  0  0  0  0
 23 20  1  0  0  0  0
 24  4  1  0  0  0  0
 25  4  1  0  0  0  0
 25 27  1  0  0  0  0
 26 25  1  0  0  0  0
 28 25  1  0  0  0  0
 29  5  2  0  0  0  0
 30 31  1  0  0  0  0
 30 33  1  0  0  0  0
 32 30  1  0  0  0  0
 34 17  1  0  0  0  0
 34  8  1  0  0  0  0
 35  8  1  0  0  0  0
 35 37  1  0  0  0  0
 36 35  1  0  0  0  0
 38 35  1  0  0  0  0
M  END
