3,9
q = -1.0

 26 26  0  0  0  0  0  0  0  0999 V2000
    2.0525   -0.0811   -1.3293 N   0  0  0  0  0  0  0  0  0  0  0  0
    2.5098   -0.2095    0.7806 N   0  0  0  0  0  0  0  0  0  0  0  0
    1.4643   -0.1082   -0.0952 C   0  0  0  0  0  2  0  0  0  0  0  0
    3.4400   -0.1360   -1.2471 C   0  0  0  0  0  0  0  0  0  0  0  0
    3.7365   -0.2223    0.0996 C   0  0  0  0  0  0  0  0  0  0  0  0
    1.2192    0.1699   -2.5015 C   0  0  0  0  0  0  0  0  0  0  0  0
    1.6280   -0.4053   -3.3610 H   0  0  0  0  0  0  0  0  0  0  0  0
    1.3258    1.2488   -2.7528 H   0  0  0  0  0  0  0  0  0  0  0  0
   -0.2408   -0.1739   -2.1607 C   0  0  0  0  0  3  0  0  0  0  0  0
   -0.9033    0.5065   -2.7364 H   0  0  0  0  0  0  0  0  0  0  0  0
   -0.4877   -1.1923   -2.5345 H   0  0  0  0  0  0  0  0  0  0  0  0
    4.3242   -0.0925   -2.4454 C   0  0  0  0  0  0  0  0  0  0  0  0
    5.3879   -0.1450   -2.1467 H   0  0  0  0  0  0  0  0  0  0  0  0
    4.1831    0.8464   -3.0214 H   0  0  0  0  0  0  0  0  0  0  0  0
    4.1280   -0.9357   -3.1413 H   0  0  0  0  0  0  0  0  0  0  0  0
    5.0500   -0.3328    0.7952 C   0  0  0  0  0  0  0  0  0  0  0  0
    5.8738   -0.3372    0.0573 H   0  0  0  0  0  0  0  0  0  0  0  0
    5.1316   -1.2668    1.3911 H   0  0  0  0  0  0  0  0  0  0  0  0
    5.2275    0.5144    1.4899 H   0  0  0  0  0  0  0  0  0  0  0  0
    2.3729   -0.0680    2.2307 C   0  0  0  0  0  0  0  0  0  0  0  0
    3.1128   -0.7354    2.7188 H   0  0  0  0  0  0  0  0  0  0  0  0
    1.3500   -0.4063    2.4912 H   0  0  0  0  0  0  0  0  0  0  0  0
    2.5300    1.3839    2.6780 C   0  0  0  0  0  0  0  0  0  0  0  0
    3.5625    1.7621    2.5334 H   0  0  0  0  0  0  0  0  0  0  0  0
    2.2704    1.4767    3.7508 H   0  0  0  0  0  0  0  0  0  0  0  0
    1.8487    2.0256    2.0867 H   0  0  0  0  0  0  0  0  0  0  0  0
  1  4  1  0  0  0  0
  1  3  1  0  0  0  0
  2 20  1  0  0  0  0
  3  2  1  0  0  0  0
  4  5  2  0  0  0  0
  5  2  1  0  0  0  0
  5 16  1  0  0  0  0
  6  9  1  0  0  0  0
  6  1  1  0  0  0  0
  7  6  1  0  0  0  0
  8  6  1  0  0  0  0
 10  9  1  0  0  0  0
 11  9  1  0  0  0  0
 12 13  1  0  0  0  0
 12  4  1  0  0  0  0
 14 12  1  0  0  0  0
 15 12  1  0  0  0  0
 16 18  1  0  0  0  0
 16 19  1  0  0  0  0
 17 16  1  0  0  0  0
 20 22  1  0  0  0  0
 20 23  1  0  0  0  0
 20 21  1  0  0  0  0
 23 25  1  0  0  0  0
 24 23  1  0  0  0  0
 26 23  1  0  0  0  0
M  END
