4,6
q = 0.0, confidence = 0.996

 51 54  0  0  1  0  0  0  0  0999 V2000
   -0.5015   -2.7794   -1.6220 C   0  0  0  0  0  0  0  0  0  0  0  0
   -0.2524   -1.3929   -1.0733 C   0  0  1  0  0  3  0  0  0  0  0  0
    1.0972   -0.8977   -0.9590 C   0  0  2  0  0  3  0  0  0  0  0  0
    1.3378    0.5123   -0.8797 C   0  0  0  0  0  3  0  0  0  0  0  0
    0.2633    1.4531   -0.9506 C   0  0  1  0  0  3  0  0  0  0  0  0
   -1.0737    0.9516   -0.9029 C   0  0  0  0  0  3  0  0  0  0  0  0
   -1.3423   -0.4538   -0.9778 C   0  0  1  0  0  3  0  0  0  0  0  0
    2.1751   -1.7734   -0.9632 N   0  0  0  0  0  0  0  0  0  0  0  0
    2.1187   -3.0953   -0.2968 C   0  0  0  0  0  0  0  0  0  0  0  0
    3.5194   -3.2850    0.2971 C   0  0  0  0  0  0  0  0  0  0  0  0
    4.4046   -2.4899   -0.6696 C   0  0  0  0  0  0  0  0  0  0  0  0
    3.5464   -1.2502   -0.9218 C   0  0  0  0  0  0  0  0  0  0  0  0
    0.5109    2.8028   -0.9530 N   0  0  0  0  0  0  0  0  0  0  0  0
    1.8616    3.3456   -0.7983 C   0  0  0  0  0  0  0  0  0  0  0  0
    1.6343    4.8600   -0.7843 C   0  0  0  0  0  0  0  0  0  0  0  0
    0.2894    4.9823   -0.0558 C   0  0  0  0  0  0  0  0  0  0  0  0
   -0.5151    3.7910   -0.5960 C   0  0  0  0  0  0  0  0  0  0  0  0
   -2.6590   -0.8953   -1.0016 N   0  0  0  0  0  0  0  0  0  0  0  0
   -3.7603    0.0757   -0.9875 C   0  0  0  0  0  0  0  0  0  0  0  0
   -5.0026   -0.7824   -0.7484 C   0  0  0  0  0  0  0  0  0  0  0  0
   -4.4690   -1.8280    0.2376 C   0  0  0  0  0  0  0  0  0  0  0  0
   -3.0802   -2.1463   -0.3289 C   0  0  0  0  0  0  0  0  0  0  0  0
   -0.6532   -3.5779   -0.8702 H   0  0  0  0  0  0  0  0  0  0  0  0
   -1.3975   -2.7526   -2.2703 H   0  0  0  0  0  0  0  0  0  0  0  0
    0.3555   -3.0730   -2.2569 H   0  0  0  0  0  0  0  0  0  0  0  0
    2.3609    0.8785   -0.7780 H   0  0  0  0  0  0  0  0  0  0  0  0
   -1.9050    1.6569   -0.8468 H   0  0  0  0  0  0  0  0  0  0  0  0
    1.8915   -3.9031   -1.0251 H   0  0  0  0  0  0  0  0  0  0  0  0
    1.3234   -3.0997    0.4751 H   0  0  0  0  0  0  0  0  0  0  0  0
    3.7994   -4.3527    0.3846 H   0  0  0  0  0  0  0  0  0  0  0  0
    3.5558   -2.8325    1.3088 H   0  0  0  0  0  0  0  0  0  0  0  0
    4.5586   -3.0528   -1.6146 H   0  0  0  0  0  0  0  0  0  0  0  0
    5.4000   -2.2349   -0.2575 H   0  0  0  0  0  0  0  0  0  0  0  0
    3.6756   -0.5324   -0.0760 H   0  0  0  0  0  0  0  0  0  0  0  0
    3.7972   -0.7155   -1.8619 H   0  0  0  0  0  0  0  0  0  0  0  0
    2.5208    3.0145   -1.6281 H   0  0  0  0  0  0  0  0  0  0  0  0
    2.3200    3.0022    0.1599 H   0  0  0  0  0  0  0  0  0  0  0  0
    1.5525    5.2428   -1.8235 H   0  0  0  0  0  0  0  0  0  0  0  0
    2.4582    5.4053   -0.2852 H   0  0  0  0  0  0  0  0  0  0  0  0
   -0.2195    5.9516   -0.2201 H   0  0  0  0  0  0  0  0  0  0  0  0
    0.4408    4.8495    1.0347 H   0  0  0  0  0  0  0  0  0  0  0  0
   -1.2033    3.3819    0.1738 H   0  0  0  0  0  0  0  0  0  0  0  0
   -1.1259    4.0661   -1.4867 H   0  0  0  0  0  0  0  0  0  0  0  0
   -3.6437    0.8013   -0.1465 H   0  0  0  0  0  0  0  0  0  0  0  0
   -3.7922    0.6554   -1.9339 H   0  0  0  0  0  0  0  0  0  0  0  0
   -5.3278   -1.2645   -1.6947 H   0  0  0  0  0  0  0  0  0  0  0  0
   -5.8525   -0.1909   -0.3564 H   0  0  0  0  0  0  0  0  0  0  0  0
   -4.3630   -1.3819    1.2472 H   0  0  0  0  0  0  0  0  0  0  0  0
   -5.1067   -2.7293    0.3220 H   0  0  0  0  0  0  0  0  0  0  0  0
   -3.1374   -2.9905   -1.0491 H   0  0  0  0  0  0  0  0  0  0  0  0
   -2.3494   -2.4200    0.4585 H   0  0  0  0  0  0  0  0  0  0  0  0
  1 23  1  0  0  0  0
  2  1  1  6  0  0  0
  2  7  1  0  0  0  0
  2  3  1  0  0  0  0
  3  8  1  6  0  0  0
  3  4  1  0  0  0  0
  4 26  1  0  0  0  0
  5 13  1  1  0  0  0
  5  6  1  0  0  0  0
  5  4  1  0  0  0  0
  6 27  1  0  0  0  0
  7 18  1  6  0  0  0
  7  6  1  0  0  0  0
  8 12  1  0  0  0  0
  8  9  1  0  0  0  0
  9 10  1  0  0  0  0
  9 29  1  0  0  0  0
 10 30  1  0  0  0  0
 10 31  1  0  0  0  0
 11 33  1  0  0  0  0
 11 10  1  0  0  0  0
 12 11  1  0  0  0  0
 12 34  1  0  0  0  0
 13 14  1  0  0  0  0
 13 17  1  0  0  0  0
 14 15  1  0  0  0  0
 14 37  1  0  0  0  0
 15 39  1  0  0  0  0
 15 16  1  0  0  0  0
 16 41  1  0  0  0  0
 17 16  1  0  0  0  0
 17 42  1  0  0  0  0
 18 19  1  0  0  0  0
 18 22  1  0  0  0  0
 19 20  1  0  0  0  0
 19 44  1  0  0  0  0
 20 47  1  0  0  0  0
 20 21  1  0  0  0  0
 21 49  1  0  0  0  0
 21 48  1  0  0  0  0
 22 21  1  0  0  0  0
 22 51  1  0  0  0  0
 24  1  1  0  0  0  0
 25  1  1  0  0  0  0
 28  9  1  0  0  0  0
 32 11  1  0  0  0  0
 35 12  1  0  0  0  0
 36 14  1  0  0  0  0
 38 15  1  0  0  0  0
 40 16  1  0  0  0  0
 43 17  1  0  0  0  0
 45 19  1  0  0  0  0
 46 20  1  0  0  0  0
 50 22  1  0  0  0  0
M  END
