4,8
q = -1.0

 12 11  0  0  0  0  0  0  0  0999 V2000
    1.4902   -1.4397    0.7023 C   0  0  0  0  0  3  0  0  0  0  0  0
    2.1485   -0.8982    1.3908 H   0  0  0  0  0  0  0  0  0  0  0  0
    1.1751   -2.4316    1.0609 H   0  0  0  0  0  0  0  0  0  0  0  0
    1.5431   -1.2600   -0.7023 C   0  0  0  0  0  3  0  0  0  0  0  0
    1.3208   -2.1226   -1.3543 H   0  0  0  0  0  0  0  0  0  0  0  0
    1.6331    0.0010   -1.3716 C   0  0  0  0  0  3  0  0  0  0  0  0
    1.5854    0.0005   -2.4707 H   0  0  0  0  0  0  0  0  0  0  0  0
    1.5407    1.2624   -0.7034 C   0  0  0  0  0  3  0  0  0  0  0  0
    1.3168    2.1240   -1.3561 H   0  0  0  0  0  0  0  0  0  0  0  0
    1.4876    1.4430    0.7012 C   0  0  0  0  0  3  0  0  0  0  0  0
    1.1707    2.4346    1.0591 H   0  0  0  0  0  0  0  0  0  0  0  0
    2.1471    0.9033    1.3900 H   0  0  0  0  0  0  0  0  0  0  0  0
  1  3  1  0  0  0  0
  1  2  1  0  0  0  0
  4  1  1  0  0  0  0
  5  4  1  0  0  0  0
  6  8  1  0  0  0  0
  6  4  1  0  0  0  0
  7  6  1  0  0  0  0
  8 10  1  0  0  0  0
  9  8  1  0  0  0  0
 10 11  1  0  0  0  0
 10 12  1  0  0  0  0
M  END
