19,22
q = -1.0

 47 46  0  0  1  0  0  0  0  0999 V2000
   -2.3175   -1.0625    0.5926 S   0  0  0  0  0  0  0  0  0  0  0  0
   -3.6734    1.6079    1.6499 F   0  0  0  0  0  0  0  0  0  0  0  0
   -2.2565    2.9957    0.7521 F   0  0  0  0  0  0  0  0  0  0  0  0
   -3.6013    1.8267   -0.5192 F   0  0  0  0  0  0  0  0  0  0  0  0
   -0.8144    1.1303    3.4366 F   0  0  0  0  0  0  0  0  0  0  0  0
    1.1420    0.3269    2.8912 F   0  0  0  0  0  0  0  0  0  0  0  0
   -0.6161   -0.9694    2.9019 F   0  0  0  0  0  0  0  0  0  0  0  0
    3.9474   -0.2483    1.4974 F   0  0  0  0  0  0  0  0  0  0  0  0
    4.0428   -2.0813    0.3105 F   0  0  0  0  0  0  0  0  0  0  0  0
    2.9630   -2.0681    2.2017 F   0  0  0  0  0  0  0  0  0  0  0  0
    1.7139   -3.8589    0.3176 F   0  0  0  0  0  0  0  0  0  0  0  0
   -0.2496   -3.5930   -0.5974 F   0  0  0  0  0  0  0  0  0  0  0  0
   -0.0050   -3.3286    1.5560 F   0  0  0  0  0  0  0  0  0  0  0  0
    0.0357    3.5070   -0.7196 O   0  0  0  0  0  0  0  0  0  0  0  0
    1.3641    3.4201    1.1179 O   0  0  0  0  0  0  0  0  0  0  0  0
    2.7750    2.3222   -1.2450 O   0  0  0  0  0  0  0  0  0  0  0  0
    3.6885    0.2490   -1.3250 O   0  0  0  0  0  0  0  0  0  0  0  0
   -2.8179    1.7875    0.6048 C   0  0  0  0  0  0  0  0  0  0  0  0
   -1.7853    0.6969    0.5410 C   0  0  1  0  0  3  0  0  0  0  0  0
   -0.4453    0.6951    1.1651 C   0  0  2  0  0  3  0  0  0  0  0  0
   -0.1740    0.2735    2.5929 C   0  0  0  0  0  0  0  0  0  0  0  0
    0.5785    1.3695    0.3306 C   0  0  1  0  0  3  0  0  0  0  0  0
    0.6255    2.8713    0.1345 C   0  0  0  0  0  0  0  0  0  0  0  0
    1.5471    4.8383    1.0223 C   0  0  0  0  0  0  0  0  0  0  0  0
    1.7169    0.4946   -0.0698 C   0  0  1  0  0  3  0  0  0  0  0  0
    2.7487    1.1429   -0.9204 C   0  0  0  0  0  0  0  0  0  0  0  0
    4.8017    0.7948   -2.0410 C   0  0  0  0  0  0  0  0  0  0  0  0
    1.9547   -0.9035    0.4042 C   0  0  0  0  0  0  0  0  0  0  0  0
    3.2380   -1.3319    1.0989 C   0  0  0  0  0  0  0  0  0  0  0  0
    0.8534   -1.6449    0.1160 C   0  0  0  0  0  3  0  0  0  0  0  0
    0.5959   -3.0947    0.3673 C   0  0  0  0  0  0  0  0  0  0  0  0
   -3.8349   -1.2727   -0.4735 C   0  0  0  0  0  0  0  0  0  0  0  0
   -5.0863   -1.0494    0.3738 C   0  0  0  0  0  0  0  0  0  0  0  0
   -3.7537   -2.6930   -1.0363 C   0  0  0  0  0  0  0  0  0  0  0  0
    0.5703    5.3612    1.0013 H   0  0  0  0  0  0  0  0  0  0  0  0
    2.1034    5.0852    0.0956 H   0  0  0  0  0  0  0  0  0  0  0  0
    2.1287    5.1328    1.9135 H   0  0  0  0  0  0  0  0  0  0  0  0
    5.3278    1.5511   -1.4251 H   0  0  0  0  0  0  0  0  0  0  0  0
    4.4694    1.2795   -2.9813 H   0  0  0  0  0  0  0  0  0  0  0  0
    5.4687   -0.0584   -2.2560 H   0  0  0  0  0  0  0  0  0  0  0  0
   -3.7719   -0.5096   -1.2728 H   0  0  0  0  0  0  0  0  0  0  0  0
   -5.1462   -0.0190    0.7666 H   0  0  0  0  0  0  0  0  0  0  0  0
   -5.1159   -1.7535    1.2300 H   0  0  0  0  0  0  0  0  0  0  0  0
   -5.9851   -1.2349   -0.2500 H   0  0  0  0  0  0  0  0  0  0  0  0
   -4.6217   -2.8802   -1.7009 H   0  0  0  0  0  0  0  0  0  0  0  0
   -3.7883   -3.4427   -0.2197 H   0  0  0  0  0  0  0  0  0  0  0  0
   -2.8221   -2.8713   -1.6068 H   0  0  0  0  0  0  0  0  0  0  0  0
  4 18  1  0  0  0  0
  9 29  1  0  0  0  0
 11 31  1  0  0  0  0
 12 31  1  0  0  0  0
 14 23  2  0  0  0  0
 16 26  2  0  0  0  0
 17 26  1  0  0  0  0
 18  3  1  0  0  0  0
 18  2  1  0  0  0  0
 19  1  1  1  0  0  0
 19 18  1  0  0  0  0
 19 20  1  0  0  0  0
 20 21  1  1  0  0  0
 21  6  1  0  0  0  0
 21  7  1  0  0  0  0
 21  5  1  0  0  0  0
 22 23  1  1  0  0  0
 22 20  1  0  0  0  0
 23 15  1  0  0  0  0
 24 15  1  0  0  0  0
 24 37  1  0  0  0  0
 25 26  1  1  0  0  0
 25 22  1  0  0  0  0
 25 28  1  0  0  0  0
 27 38  1  0  0  0  0
 27 17  1  0  0  0  0
 28 29  1  0  0  0  0
 29  8  1  0  0  0  0
 29 10  1  0  0  0  0
 30 31  1  0  0  0  0
 30 28  2  0  0  0  0
 31 13  1  0  0  0  0
 32 33  1  0  0  0  0
 32  1  1  0  0  0  0
 33 42  1  0  0  0  0
 33 43  1  0  0  0  0
 34 32  1  0  0  0  0
 34 46  1  0  0  0  0
 35 24  1  0  0  0  0
 36 24  1  0  0  0  0
 39 27  1  0  0  0  0
 40 27  1  0  0  0  0
 41 32  1  0  0  0  0
 44 33  1  0  0  0  0
 45 34  1  0  0  0  0
 47 34  1  0  0  0  0
M  END
