5,13
q = 0.0, confidence = 0.996

 31 32  0  0  0  0  0  0  0  0999 V2000
    1.1373   -1.9747   -0.7190 N   0  0  0  0  0  0  0  0  0  0  0  0
    2.6653   -0.5652   -0.0856 N   0  0  0  0  0  0  0  0  0  0  0  0
   -1.1609   -1.6863   -1.2214 N   0  0  0  0  0  0  0  0  0  0  0  0
   -2.4341    0.0758   -1.1817 N   0  0  0  0  0  0  0  0  0  0  0  0
    1.2922   -0.7296   -0.1289 C   0  0  0  0  0  2  0  0  0  0  0  0
    3.3211   -1.6699   -0.6226 C   0  0  0  0  0  0  0  0  0  0  0  0
    4.4118   -1.7263   -0.6836 H   0  0  0  0  0  0  0  0  0  0  0  0
    2.3625   -2.5612   -1.0192 C   0  0  0  0  0  0  0  0  0  0  0  0
    2.4481   -3.5488   -1.4823 H   0  0  0  0  0  0  0  0  0  0  0  0
   -0.1556   -2.6197   -0.7648 C   0  0  0  0  0  0  0  0  0  0  0  0
   -0.4243   -2.9741    0.2568 H   0  0  0  0  0  0  0  0  0  0  0  0
   -0.1119   -3.4823   -1.4567 H   0  0  0  0  0  0  0  0  0  0  0  0
   -1.2404   -0.4133   -0.6812 C   0  0  0  0  0  2  0  0  0  0  0  0
   -2.2704   -1.9848   -2.0067 C   0  0  0  0  0  0  0  0  0  0  0  0
   -2.3864   -2.9392   -2.5292 H   0  0  0  0  0  0  0  0  0  0  0  0
   -3.0700   -0.8749   -1.9746 C   0  0  0  0  0  0  0  0  0  0  0  0
   -4.0247   -0.6711   -2.4686 H   0  0  0  0  0  0  0  0  0  0  0  0
    3.3532    0.6061    0.4529 C   0  0  0  0  0  0  0  0  0  0  0  0
    4.0891    0.2537    1.2069 H   0  0  0  0  0  0  0  0  0  0  0  0
    2.5891    1.2043    0.9860 H   0  0  0  0  0  0  0  0  0  0  0  0
    4.0216    1.4542   -0.6241 C   0  0  0  0  0  0  0  0  0  0  0  0
    4.7746    0.8747   -1.1965 H   0  0  0  0  0  0  0  0  0  0  0  0
    4.5374    2.3173   -0.1582 H   0  0  0  0  0  0  0  0  0  0  0  0
    3.2569    1.8448   -1.3238 H   0  0  0  0  0  0  0  0  0  0  0  0
   -3.0288    1.3512   -0.7845 C   0  0  0  0  0  0  0  0  0  0  0  0
   -3.7037    1.6708   -1.6042 H   0  0  0  0  0  0  0  0  0  0  0  0
   -2.2025    2.0888   -0.7285 H   0  0  0  0  0  0  0  0  0  0  0  0
   -3.7704    1.2564    0.5477 C   0  0  0  0  0  0  0  0  0  0  0  0
   -4.6089    0.5324    0.4947 H   0  0  0  0  0  0  0  0  0  0  0  0
   -4.1831    2.2463    0.8269 H   0  0  0  0  0  0  0  0  0  0  0  0
   -3.0829    0.9244    1.3528 H   0  0  0  0  0  0  0  0  0  0  0  0
  1  5  1  0  0  0  0
  2 18  1  0  0  0  0
  3 10  1  0  0  0  0
  3 13  1  0  0  0  0
  4 25  1  0  0  0  0
  4 13  1  0  0  0  0
  5  2  1  0  0  0  0
  6  2  1  0  0  0  0
  7  6  1  0  0  0  0
  8  1  1  0  0  0  0
  8  6  2  0  0  0  0
  9  8  1  0  0  0  0
 10  1  1  0  0  0  0
 10 11  1  0  0  0  0
 12 10  1  0  0  0  0
 14 16  2  0  0  0  0
 14  3  1  0  0  0  0
 15 14  1  0  0  0  0
 16  4  1  0  0  0  0
 17 16  1  0  0  0  0
 18 20  1  0  0  0  0
 18 19  1  0  0  0  0
 21 23  1  0  0  0  0
 21 18  1  0  0  0  0
 22 21  1  0  0  0  0
 24 21  1  0  0  0  0
 25 27  1  0  0  0  0
 25 28  1  0  0  0  0
 26 25  1  0  0  0  0
 28 30  1  0  0  0  0
 28 31  1  0  0  0  0
 29 28  1  0  0  0  0
M  END
