3,6
q = 0.0, confidence = 0.52

 20 19  0  0  0  0  0  0  0  0999 V2000
    0.2250   -2.4081   -0.8463 O   0  0  0  0  0  0  0  0  0  0  0  0
    0.2250    2.4077    0.8471 O   0  0  0  0  0  0  0  0  0  0  0  0
    0.3515   -1.2697   -0.4488 C   0  0  0  0  0  3  0  0  0  0  0  0
    1.6946   -0.6395   -0.2365 C   0  0  0  0  0  0  0  0  0  0  0  0
    1.6946    0.6394    0.2365 C   0  0  0  0  0  0  0  0  0  0  0  0
    0.3515    1.2695    0.4492 C   0  0  0  0  0  3  0  0  0  0  0  0
    2.9033   -1.4902   -0.5047 C   0  0  0  0  0  0  0  0  0  0  0  0
    3.2316   -2.4101    0.6848 C   0  0  0  0  0  0  0  0  0  0  0  0
    2.9033    1.4901    0.5046 C   0  0  0  0  0  0  0  0  0  0  0  0
    3.2311    2.4105   -0.6847 C   0  0  0  0  0  0  0  0  0  0  0  0
    3.7743   -0.8484   -0.7459 H   0  0  0  0  0  0  0  0  0  0  0  0
    2.6912   -2.1173   -1.3950 H   0  0  0  0  0  0  0  0  0  0  0  0
    4.1094   -3.0466    0.4562 H   0  0  0  0  0  0  0  0  0  0  0  0
    2.3767   -3.0769    0.9111 H   0  0  0  0  0  0  0  0  0  0  0  0
    3.4592   -1.8224    1.5969 H   0  0  0  0  0  0  0  0  0  0  0  0
    2.6914    2.1169    1.3951 H   0  0  0  0  0  0  0  0  0  0  0  0
    3.7745    0.8484    0.7453 H   0  0  0  0  0  0  0  0  0  0  0  0
    2.3760    3.0772   -0.9106 H   0  0  0  0  0  0  0  0  0  0  0  0
    4.1089    3.0469   -0.4563 H   0  0  0  0  0  0  0  0  0  0  0  0
    3.4585    1.8230   -1.5971 H   0  0  0  0  0  0  0  0  0  0  0  0
  1  3  2  0  0  0  0
  3  4  1  0  0  0  0
  4  5  2  0  0  0  0
  5  6  1  0  0  0  0
  5  9  1  0  0  0  0
  6  2  2  0  0  0  0
  7  4  1  0  0  0  0
  7  8  1  0  0  0  0
  8 14  1  0  0  0  0
  8 15  1  0  0  0  0
  9 17  1  0  0  0  0
  9 16  1  0  0  0  0
 10 19  1  0  0  0  0
 10  9  1  0  0  0  0
 11  7  1  0  0  0  0
 12  7  1  0  0  0  0
 13  8  1  0  0  0  0
 18 10  1  0  0  0  0
 20 10  1  0  0  0  0
M  END
