8,10
q = -2.0, confidence = 0.65

 48 49  0  0  1  0  0  0  0  0999 V2000
   -1.7178    0.3299   -1.0528 S   0  0  0  0  0  0  0  0  0  0  0  0
   -3.0852    0.8876   -0.8856 O   0  0  0  0  0  0  0  0  0  0  0  0
   -1.1622    0.2449   -2.4403 O   0  0  0  0  0  0  0  0  0  0  0  0
   -2.5662   -3.0206    0.9436 O   0  0  0  0  0  0  0  0  0  0  0  0
   -0.6386    1.2173    2.2681 O   0  0  0  0  0  0  0  0  0  0  0  0
   -0.1890   -2.1712    1.5595 N   0  0  0  0  0  0  0  0  0  0  0  0
   -1.0604   -2.7658    1.6075 H   0  0  0  0  0  0  0  0  0  0  0  0
   -0.3330   -1.2318    0.6210 C   0  0  0  0  0  2  0  0  0  0  0  0
   -1.5430   -1.1864   -0.1208 C   0  0  1  0  0  3  0  0  0  0  0  0
   -0.4895    1.3829   -0.1265 C   0  0  0  0  0  3  0  0  0  0  0  0
   -0.3301    2.2379   -0.8093 H   0  0  0  0  0  0  0  0  0  0  0  0
   -2.6308   -2.1398    0.0444 C   0  0  0  0  0  0  0  0  0  0  0  0
   -0.9569    1.8310    1.2478 C   0  0  0  0  0  0  0  0  0  0  0  0
   -3.8306   -2.1542   -0.8533 C   0  0  0  0  0  0  0  0  0  0  0  0
   -5.0375   -2.6528   -0.3180 C   0  0  0  0  0  0  0  0  0  0  0  0
   -5.0479   -2.9655    0.7363 H   0  0  0  0  0  0  0  0  0  0  0  0
   -6.1837   -2.7455   -1.1148 C   0  0  0  0  0  0  0  0  0  0  0  0
   -7.1247   -3.1194   -0.6828 H   0  0  0  0  0  0  0  0  0  0  0  0
   -6.1311   -2.3654   -2.4670 C   0  0  0  0  0  0  0  0  0  0  0  0
   -7.0305   -2.4424   -3.0974 H   0  0  0  0  0  0  0  0  0  0  0  0
   -4.9278   -1.8930   -3.0132 C   0  0  0  0  0  0  0  0  0  0  0  0
   -4.8776   -1.6061   -4.0746 H   0  0  0  0  0  0  0  0  0  0  0  0
   -3.7821   -1.7822   -2.2128 C   0  0  0  0  0  0  0  0  0  0  0  0
   -2.8452   -1.4165   -2.6581 H   0  0  0  0  0  0  0  0  0  0  0  0
   -1.7916    3.0706    1.3357 C   0  0  0  0  0  0  0  0  0  0  0  0
   -2.3883    3.6872    0.2140 C   0  0  0  0  0  0  0  0  0  0  0  0
   -2.2935    3.2391   -0.7835 H   0  0  0  0  0  0  0  0  0  0  0  0
   -3.1642    4.8427    0.3777 C   0  0  0  0  0  0  0  0  0  0  0  0
   -3.6378    5.3086   -0.4994 H   0  0  0  0  0  0  0  0  0  0  0  0
   -3.3445    5.3984    1.6540 C   0  0  0  0  0  0  0  0  0  0  0  0
   -3.9492    6.3102    1.7764 H   0  0  0  0  0  0  0  0  0  0  0  0
   -2.7588    4.7866    2.7769 C   0  0  0  0  0  0  0  0  0  0  0  0
   -2.9045    5.2180    3.7789 H   0  0  0  0  0  0  0  0  0  0  0  0
   -1.9946    3.6271    2.6189 C   0  0  0  0  0  0  0  0  0  0  0  0
   -1.5328    3.1189    3.4780 H   0  0  0  0  0  0  0  0  0  0  0  0
    0.6343   -2.2197    2.7892 C   0  0  0  0  0  0  0  0  0  0  0  0
   -0.3564   -1.9956    3.9539 C   0  0  0  0  0  0  0  0  0  0  0  0
   -0.7937   -0.9805    3.8820 H   0  0  0  0  0  0  0  0  0  0  0  0
    0.1599   -2.0962    4.9299 H   0  0  0  0  0  0  0  0  0  0  0  0
   -1.1817   -2.7352    3.9198 H   0  0  0  0  0  0  0  0  0  0  0  0
    1.7226   -1.1456    2.8564 C   0  0  0  0  0  0  0  0  0  0  0  0
    2.5370   -1.3392    2.1366 H   0  0  0  0  0  0  0  0  0  0  0  0
    2.1689   -1.1584    3.8700 H   0  0  0  0  0  0  0  0  0  0  0  0
    1.2923   -0.1404    2.6792 H   0  0  0  0  0  0  0  0  0  0  0  0
    1.2562   -3.6250    2.8763 C   0  0  0  0  0  0  0  0  0  0  0  0
    0.4727   -4.4084    2.8306 H   0  0  0  0  0  0  0  0  0  0  0  0
    1.8101   -3.7494    3.8283 H   0  0  0  0  0  0  0  0  0  0  0  0
    1.9618   -3.7939    2.0376 H   0  0  0  0  0  0  0  0  0  0  0  0
  1  2  2  0  0  0  0
  1 10  1  0  0  0  0
  1  9  1  0  0  0  0
  3  1  2  0  0  0  0
  6  7  1  0  0  0  0
  6 36  1  0  0  0  0
  8  6  1  0  0  0  0
  9 12  1  0  0  0  0
  9  8  1  1  0  0  0
 10 13  1  0  0  0  0
 11 10  1  0  0  0  0
 12  4  2  0  0  0  0
 13 25  1  0  0  0  0
 13  5  2  0  0  0  0
 14 15  1  0  0  0  0
 14 12  1  0  0  0  0
 15 16  1  0  0  0  0
 17 18  1  0  0  0  0
 17 15  2  0  0  0  0
 19 17  1  0  0  0  0
 20 19  1  0  0  0  0
 21 19  2  0  0  0  0
 21 23  1  0  0  0  0
 22 21  1  0  0  0  0
 23 14  2  0  0  0  0
 24 23  1  0  0  0  0
 25 34  1  0  0  0  0
 26 28  1  0  0  0  0
 26 25  2  0  0  0  0
 27 26  1  0  0  0  0
 28 30  2  0  0  0  0
 29 28  1  0  0  0  0
 30 31  1  0  0  0  0
 30 32  1  0  0  0  0
 32 33  1  0  0  0  0
 34 32  2  0  0  0  0
 34 35  1  0  0  0  0
 36 41  1  0  0  0  0
 36 45  1  0  0  0  0
 36 37  1  0  0  0  0
 37 39  1  0  0  0  0
 38 37  1  0  0  0  0
 40 37  1  0  0  0  0
 41 43  1  0  0  0  0
 42 41  1  0  0  0  0
 44 41  1  0  0  0  0
 45 47  1  0  0  0  0
 46 45  1  0  0  0  0
 48 45  1  0  0  0  0
M  END
