1,4
q = -2.0, confidence = 0.604

 45 44  0  0  0  0  0  0  0  0999 V2000
   -0.0626    1.0011    1.6497 C   0  0  0  0  0  2  0  0  0  0  0  0
   -0.1611    2.4466    1.4504 C   0  0  0  0  0  0  0  0  0  0  0  0
   -0.1682    2.8384    0.1292 C   0  0  0  0  0  0  0  0  0  0  0  0
   -0.0599    1.6165   -0.6471 C   0  0  0  0  0  3  0  0  0  0  0  0
    0.0694    0.7598   -1.6477 C   0  0  0  0  0  3  0  0  0  0  0  0
    0.1610    0.6220   -3.1448 C   0  0  0  0  0  0  0  0  0  0  0  0
    0.9555    1.8074   -3.7310 C   0  0  0  0  0  0  0  0  0  0  0  0
   -1.2873    0.6309   -3.6895 C   0  0  0  0  0  0  0  0  0  0  0  0
    0.8516   -0.6962   -3.5443 C   0  0  0  0  0  0  0  0  0  0  0  0
   -0.2383    4.2464   -0.4402 C   0  0  0  0  0  0  0  0  0  0  0  0
    1.1291    4.5993   -1.0717 C   0  0  0  0  0  0  0  0  0  0  0  0
   -0.5556    5.2669    0.6660 C   0  0  0  0  0  0  0  0  0  0  0  0
   -1.3436    4.3130   -1.5166 C   0  0  0  0  0  0  0  0  0  0  0  0
   -0.0464    0.4546    3.0938 C   0  0  0  0  0  0  0  0  0  0  0  0
    1.1796    1.0087    3.8584 C   0  0  0  0  0  0  0  0  0  0  0  0
   -1.3248    0.8925    3.8481 C   0  0  0  0  0  0  0  0  0  0  0  0
    0.0227   -1.0892    3.1017 C   0  0  0  0  0  0  0  0  0  0  0  0
   -0.2232    3.1659    2.2850 H   0  0  0  0  0  0  0  0  0  0  0  0
    0.4638    2.7732   -3.5067 H   0  0  0  0  0  0  0  0  0  0  0  0
    1.0266    1.7081   -4.8336 H   0  0  0  0  0  0  0  0  0  0  0  0
    1.9821    1.8366   -3.3165 H   0  0  0  0  0  0  0  0  0  0  0  0
   -1.2708    0.5253   -4.7940 H   0  0  0  0  0  0  0  0  0  0  0  0
   -1.8092    1.5733   -3.4330 H   0  0  0  0  0  0  0  0  0  0  0  0
   -1.8784   -0.2043   -3.2662 H   0  0  0  0  0  0  0  0  0  0  0  0
    0.2535   -1.5715   -3.2311 H   0  0  0  0  0  0  0  0  0  0  0  0
    1.8543   -0.7771   -3.0812 H   0  0  0  0  0  0  0  0  0  0  0  0
    0.9724   -0.7406   -4.6457 H   0  0  0  0  0  0  0  0  0  0  0  0
    1.9294    4.5869   -0.3050 H   0  0  0  0  0  0  0  0  0  0  0  0
    1.0990    5.6101   -1.5300 H   0  0  0  0  0  0  0  0  0  0  0  0
    1.4101    3.8723   -1.8568 H   0  0  0  0  0  0  0  0  0  0  0  0
   -1.5198    5.0368    1.1630 H   0  0  0  0  0  0  0  0  0  0  0  0
   -0.6278    6.2869    0.2366 H   0  0  0  0  0  0  0  0  0  0  0  0
    0.2363    5.2866    1.4417 H   0  0  0  0  0  0  0  0  0  0  0  0
   -2.3348    4.0707   -1.0847 H   0  0  0  0  0  0  0  0  0  0  0  0
   -1.1524    3.5910   -2.3349 H   0  0  0  0  0  0  0  0  0  0  0  0
   -1.3931    5.3282   -1.9617 H   0  0  0  0  0  0  0  0  0  0  0  0
    2.1270    0.6383    3.4216 H   0  0  0  0  0  0  0  0  0  0  0  0
    1.1551    0.6786    4.9185 H   0  0  0  0  0  0  0  0  0  0  0  0
    1.2059    2.1168    3.8497 H   0  0  0  0  0  0  0  0  0  0  0  0
   -2.2304    0.4363    3.4043 H   0  0  0  0  0  0  0  0  0  0  0  0
   -1.4538    1.9932    3.8433 H   0  0  0  0  0  0  0  0  0  0  0  0
   -1.2775    0.5631    4.9077 H   0  0  0  0  0  0  0  0  0  0  0  0
    0.9486   -1.4577    2.6190 H   0  0  0  0  0  0  0  0  0  0  0  0
   -0.8544   -1.5369    2.5939 H   0  0  0  0  0  0  0  0  0  0  0  0
    0.0240   -1.4760    4.1416 H   0  0  0  0  0  0  0  0  0  0  0  0
  1 14  1  0  0  0  0
  2  1  1  0  0  0  0
  2 18  1  0  0  0  0
  3  2  2  0  0  0  0
  4  3  1  0  0  0  0
  5  4  2  0  0  0  0
  6  5  1  0  0  0  0
  7 19  1  0  0  0  0
  7 21  1  0  0  0  0
  7  6  1  0  0  0  0
  8 23  1  0  0  0  0
  8 24  1  0  0  0  0
  8  6  1  0  0  0  0
  9 25  1  0  0  0  0
  9  6  1  0  0  0  0
  9 26  1  0  0  0  0
 10  3  1  0  0  0  0
 10 12  1  0  0  0  0
 11 10  1  0  0  0  0
 11 28  1  0  0  0  0
 12 31  1  0  0  0  0
 12 33  1  0  0  0  0
 13 34  1  0  0  0  0
 13 10  1  0  0  0  0
 14 17  1  0  0  0  0
 14 16  1  0  0  0  0
 14 15  1  0  0  0  0
 15 38  1  0  0  0  0
 16 42  1  0  0  0  0
 17 45  1  0  0  0  0
 20  7  1  0  0  0  0
 22  8  1  0  0  0  0
 27  9  1  0  0  0  0
 29 11  1  0  0  0  0
 30 11  1  0  0  0  0
 32 12  1  0  0  0  0
 35 13  1  0  0  0  0
 36 13  1  0  0  0  0
 37 15  1  0  0  0  0
 39 15  1  0  0  0  0
 40 16  1  0  0  0  0
 41 16  1  0  0  0  0
 43 17  1  0  0  0  0
 44 17  1  0  0  0  0
M  END
