2,4
q = 0.0, confidence = 1.0

 31 32  0  0  1  0  0  0  0  0999 V2000
    1.1842    1.4445    1.6017 C   0  0  0  0  0  0  0  0  0  0  0  0
    1.8041    0.3249    2.2035 C   0  0  0  0  0  3  0  0  0  0  0  0
    1.1923   -0.9636    2.1174 C   0  0  0  0  0  3  0  0  0  0  0  0
   -0.0117   -1.1097    1.3945 C   0  0  0  0  0  3  0  0  0  0  0  0
   -0.6573    0.0226    0.7912 C   0  0  2  0  0  3  0  0  0  0  0  0
   -0.0585    1.3152    0.8953 C   0  0  0  0  0  0  0  0  0  0  0  0
    1.6776    2.4263    1.6343 H   0  0  0  0  0  0  0  0  0  0  0  0
    2.7744    0.4417    2.7057 H   0  0  0  0  0  0  0  0  0  0  0  0
    1.6914   -1.8441    2.5441 H   0  0  0  0  0  0  0  0  0  0  0  0
   -0.4572   -2.1005    1.2416 H   0  0  0  0  0  0  0  0  0  0  0  0
   -1.9801   -0.1692    0.0467 C   0  0  0  0  0  0  0  0  0  0  0  0
   -2.1539    0.9209   -1.0428 C   0  0  1  0  0  0  0  0  0  0  0  0
   -3.1838    0.8125   -1.4417 H   0  0  0  0  0  0  0  0  0  0  0  0
   -2.0362    2.3058   -0.3948 C   0  0  0  0  0  0  0  0  0  0  0  0
   -2.2360    3.0790   -1.1624 H   0  0  0  0  0  0  0  0  0  0  0  0
   -2.8291    2.3814    0.3748 H   0  0  0  0  0  0  0  0  0  0  0  0
   -0.6580    2.5391    0.2334 C   0  0  0  0  0  0  0  0  0  0  0  0
    0.0580    2.8983   -0.5345 H   0  0  0  0  0  0  0  0  0  0  0  0
   -0.7124    3.3504    0.9895 H   0  0  0  0  0  0  0  0  0  0  0  0
   -2.9416   -1.8321   -1.4053 C   0  0  0  0  0  0  0  0  0  0  0  0
   -2.8913   -2.9315   -1.5175 H   0  0  0  0  0  0  0  0  0  0  0  0
   -2.7323   -1.3576   -2.3868 H   0  0  0  0  0  0  0  0  0  0  0  0
   -3.9586   -1.5506   -1.0551 H   0  0  0  0  0  0  0  0  0  0  0  0
   -3.1768   -0.8244    2.0450 C   0  0  0  0  0  0  0  0  0  0  0  0
   -4.1691   -0.6493    2.5024 H   0  0  0  0  0  0  0  0  0  0  0  0
   -2.3925   -0.5982    2.8027 H   0  0  0  0  0  0  0  0  0  0  0  0
   -3.0960   -1.8959    1.7591 H   0  0  0  0  0  0  0  0  0  0  0  0
   -1.9446   -1.4825   -0.4518 O   0  0  0  0  0  0  0  0  0  0  0  0
   -3.0964    0.0292    0.9153 O   0  0  0  0  0  0  0  0  0  0  0  0
   -1.2700    0.7173   -2.1226 O   0  0  0  0  0  0  0  0  0  0  0  0
   -0.3893    0.4866   -1.7484 H   0  0  0  0  0  0  0  0  0  0  0  0
  1  7  1  0  0  0  0
  1  2  1  0  0  0  0
  2  8  1  0  0  0  0
  3  2  1  0  0  0  0
  3  9  1  0  0  0  0
  4  3  1  0  0  0  0
  5  6  1  1  0  0  0
  5  4  1  0  0  0  0
  6  1  2  0  0  0  0
 10  4  1  0  0  0  0
 11  5  1  0  0  0  0
 11 29  1  0  0  0  0
 12 13  1  6  0  0  0
 12 14  1  0  0  0  0
 12 11  1  0  0  0  0
 14 17  1  0  0  0  0
 14 16  1  0  0  0  0
 15 14  1  0  0  0  0
 17  6  1  0  0  0  0
 17 19  1  0  0  0  0
 18 17  1  0  0  0  0
 20 23  1  0  0  0  0
 20 28  1  0  0  0  0
 21 20  1  0  0  0  0
 22 20  1  0  0  0  0
 24 25  1  0  0  0  0
 24 26  1  0  0  0  0
 27 24  1  0  0  0  0
 28 11  1  0  0  0  0
 29 24  1  0  0  0  0
 30 31  1  0  0  0  0
 30 12  1  0  0  0  0
M  END
