4,11
q = -1.0

 41 43  0  0  0  0  0  0  0  0999 V2000
   -1.4185   -4.0762    1.3596 Cl  0  0  0  0  0  0  0  0  0  0  0  0
   -2.2205    0.3257   -0.3106 P   0  0  0  0  0  4  0  0  0  0  0  0
   -2.4285   -0.6767    2.5696 O   0  0  0  0  0  0  0  0  0  0  0  0
   -1.2494   -0.9838    0.4894 C   0  0  0  0  0  3  0  0  0  0  0  0
   -1.1169   -1.8587   -0.1743 H   0  0  0  0  0  0  0  0  0  0  0  0
   -1.6882   -1.3558    1.8633 C   0  0  0  0  0  0  0  0  0  0  0  0
   -1.1220   -2.6600    2.4446 C   0  0  0  0  0  0  0  0  0  0  0  0
   -1.6278   -2.8577    3.4064 H   0  0  0  0  0  0  0  0  0  0  0  0
   -0.0273   -2.5797    2.6005 H   0  0  0  0  0  0  0  0  0  0  0  0
   -1.7940    1.7389    0.7061 C   0  0  0  0  0  0  0  0  0  0  0  0
   -0.4948    1.5727    1.2549 C   0  0  0  0  0  3  0  0  0  0  0  0
   -0.0921    2.5015    2.2357 C   0  0  0  0  0  0  0  0  0  0  0  0
    0.8723    2.3839    2.7542 H   0  0  0  0  0  0  0  0  0  0  0  0
   -0.9329    3.5720    2.5943 C   0  0  0  0  0  0  0  0  0  0  0  0
   -0.6035    4.2794    3.3712 H   0  0  0  0  0  0  0  0  0  0  0  0
   -2.1899    3.7434    1.9889 C   0  0  0  0  0  0  0  0  0  0  0  0
   -2.8317    4.5888    2.2768 H   0  0  0  0  0  0  0  0  0  0  0  0
   -2.6387    2.8097    1.0444 C   0  0  0  0  0  0  0  0  0  0  0  0
   -3.6414    2.8956    0.5977 H   0  0  0  0  0  0  0  0  0  0  0  0
   -1.5424    0.5062   -1.9883 C   0  0  0  0  0  0  0  0  0  0  0  0
   -1.1916    1.7846   -2.4641 C   0  0  0  0  0  0  0  0  0  0  0  0
   -1.3134    2.6639   -1.8135 H   0  0  0  0  0  0  0  0  0  0  0  0
   -0.6755    1.9257   -3.7607 C   0  0  0  0  0  0  0  0  0  0  0  0
   -0.4008    2.9241   -4.1324 H   0  0  0  0  0  0  0  0  0  0  0  0
   -0.5108    0.7983   -4.5810 C   0  0  0  0  0  0  0  0  0  0  0  0
   -0.1058    0.9126   -5.5976 H   0  0  0  0  0  0  0  0  0  0  0  0
   -0.8664   -0.4762   -4.1083 C   0  0  0  0  0  0  0  0  0  0  0  0
   -0.7430   -1.3589   -4.7532 H   0  0  0  0  0  0  0  0  0  0  0  0
   -1.3840   -0.6269   -2.8142 C   0  0  0  0  0  0  0  0  0  0  0  0
   -1.6687   -1.6277   -2.4541 H   0  0  0  0  0  0  0  0  0  0  0  0
   -4.0189    0.1111   -0.4533 C   0  0  0  0  0  0  0  0  0  0  0  0
   -4.6350    0.0041   -1.7192 C   0  0  0  0  0  0  0  0  0  0  0  0
   -4.0320    0.0464   -2.6378 H   0  0  0  0  0  0  0  0  0  0  0  0
   -6.8037   -0.1875   -0.6359 C   0  0  0  0  0  0  0  0  0  0  0  0
   -7.8954   -0.3048   -0.7074 H   0  0  0  0  0  0  0  0  0  0  0  0
   -6.0264   -0.1467   -1.8041 C   0  0  0  0  0  0  0  0  0  0  0  0
   -6.5055   -0.2284   -2.7909 H   0  0  0  0  0  0  0  0  0  0  0  0
   -6.1912   -0.0754    0.6234 C   0  0  0  0  0  0  0  0  0  0  0  0
   -6.8008   -0.1054    1.5387 H   0  0  0  0  0  0  0  0  0  0  0  0
   -4.8019    0.0743    0.7248 C   0  0  0  0  0  0  0  0  0  0  0  0
   -4.3136    0.1518    1.7070 H   0  0  0  0  0  0  0  0  0  0  0  0
  1  7  1  0  0  0  0
  2  4  1  0  0  0  0
  2 10  1  0  0  0  0
  4  6  1  0  0  0  0
  5  4  1  0  0  0  0
  6  7  1  0  0  0  0
  6  3  2  0  0  0  0
  7  9  1  0  0  0  0
  7  8  1  0  0  0  0
 10 18  2  0  0  0  0
 10 11  1  0  0  0  0
 11 12  2  0  0  0  0
 12 14  1  0  0  0  0
 12 13  1  0  0  0  0
 14 15  1  0  0  0  0
 16 17  1  0  0  0  0
 16 14  2  0  0  0  0
 18 16  1  0  0  0  0
 19 18  1  0  0  0  0
 20  2  1  0  0  0  0
 21 20  1  0  0  0  0
 21 22  1  0  0  0  0
 23 21  2  0  0  0  0
 24 23  1  0  0  0  0
 25 27  2  0  0  0  0
 25 23  1  0  0  0  0
 26 25  1  0  0  0  0
 27 29  1  0  0  0  0
 28 27  1  0  0  0  0
 29 30  1  0  0  0  0
 29 20  2  0  0  0  0
 31  2  1  0  0  0  0
 31 40  1  0  0  0  0
 32 31  2  0  0  0  0
 33 32  1  0  0  0  0
 34 38  1  0  0  0  0
 35 34  1  0  0  0  0
 36 32  1  0  0  0  0
 36 34  2  0  0  0  0
 37 36  1  0  0  0  0
 38 40  2  0  0  0  0
 38 39  1  0  0  0  0
 40 41  1  0  0  0  0
M  END
