9,12
q = 0.0, confidence = 0.814

 16 16  0  0  1  0  0  0  0  0999 V2000
    0.0820    0.9845    2.6033 F   0  0  0  0  0  0  0  0  0  0  0  0
   -1.2392    3.2117    1.4884 F   0  0  0  0  0  0  0  0  0  0  0  0
   -1.2453    3.2754   -1.3321 F   0  0  0  0  0  0  0  0  0  0  0  0
    0.0950    1.1044   -2.5463 F   0  0  0  0  0  0  0  0  0  0  0  0
   -2.1351    0.0020   -2.9192 F   0  0  0  0  0  0  0  0  0  0  0  0
   -4.0112   -0.5699   -1.2736 F   0  0  0  0  0  0  0  0  0  0  0  0
   -4.0115   -0.6344    1.2240 F   0  0  0  0  0  0  0  0  0  0  0  0
   -2.1343   -0.1793    2.8940 F   0  0  0  0  0  0  0  0  0  0  0  0
   -0.5737    0.8517    1.3677 C   0  0  2  0  0  0  0  0  0  0  0  0
   -0.8262    2.1779    0.7294 C   0  0  0  0  0  0  0  0  0  0  0  0
   -0.8285    2.2080   -0.6223 C   0  0  0  0  0  0  0  0  0  0  0  0
   -0.5721    0.9140   -1.3231 C   0  0  1  0  0  0  0  0  0  0  0  0
   -1.8858    0.2744   -1.6234 C   0  0  0  0  0  0  0  0  0  0  0  0
   -2.8810   -0.0564   -0.7338 C   0  0  0  0  0  0  0  0  0  0  0  0
   -2.8831   -0.0904    0.7130 C   0  0  0  0  0  0  0  0  0  0  0  0
   -1.8873    0.1904    1.6198 C   0  0  0  0  0  0  0  0  0  0  0  0
  3 11  1  0  0  0  0
  5 13  1  0  0  0  0
  6 14  1  0  0  0  0
  9 16  1  0  0  0  0
  9  1  1  1  0  0  0
 10  9  1  0  0  0  0
 10  2  1  0  0  0  0
 11 10  2  0  0  0  0
 12  4  1  6  0  0  0
 12 11  1  0  0  0  0
 13 12  1  0  0  0  0
 13 14  2  0  0  0  0
 14 15  1  0  0  0  0
 15  7  1  0  0  0  0
 15 16  2  0  0  0  0
 16  8  1  0  0  0  0
M  END
