3,11
q = 0.0, confidence = 1.0

 30 30  0  0  1  0  0  0  0  0999 V2000
    0.4259    2.4553    0.5846 O   0  0  0  0  0  0  0  0  0  0  0  0
   -0.0042    1.5631   -0.3403 C   0  0  0  0  0  0  0  0  0  0  0  0
    0.5021   -0.4883   -1.5852 C   0  0  0  0  0  3  0  0  0  0  0  0
    1.1910   -1.3320   -1.7395 H   0  0  0  0  0  0  0  0  0  0  0  0
    0.8923    0.4703   -0.6157 C   0  0  1  0  0  3  0  0  0  0  0  0
   -1.2532    1.6647   -1.0149 C   0  0  0  0  0  0  0  0  0  0  0  0
   -1.9579    2.4686   -0.7734 H   0  0  0  0  0  0  0  0  0  0  0  0
    2.8060   -0.9387    0.0551 N   0  0  0  0  0  0  0  0  0  0  0  0
    2.2819    0.4329    0.0222 C   0  0  1  0  0  0  0  0  0  0  0  0
    2.1815    0.8396    1.0594 H   0  0  0  0  0  0  0  0  0  0  0  0
   -1.6128    0.6785   -1.9842 C   0  0  0  0  0  3  0  0  0  0  0  0
   -2.5936    0.7433   -2.4757 H   0  0  0  0  0  0  0  0  0  0  0  0
   -0.5115    3.3720    1.1357 C   0  0  0  0  0  0  0  0  0  0  0  0
   -1.3841    2.8359    1.5659 H   0  0  0  0  0  0  0  0  0  0  0  0
   -0.8606    4.1078    0.3791 H   0  0  0  0  0  0  0  0  0  0  0  0
    0.0208    3.9094    1.9411 H   0  0  0  0  0  0  0  0  0  0  0  0
   -0.7302   -0.3850   -2.2944 C   0  0  0  0  0  3  0  0  0  0  0  0
   -1.0241   -1.1605   -3.0138 H   0  0  0  0  0  0  0  0  0  0  0  0
    3.1621    1.4206   -0.7619 C   0  0  0  0  0  0  0  0  0  0  0  0
    3.2953    1.0922   -1.8124 H   0  0  0  0  0  0  0  0  0  0  0  0
    4.1581    1.5436   -0.2952 H   0  0  0  0  0  0  0  0  0  0  0  0
    2.6729    2.4127   -0.7711 H   0  0  0  0  0  0  0  0  0  0  0  0
    2.2923   -1.6768    1.2004 C   0  0  0  0  0  0  0  0  0  0  0  0
    1.1985   -1.5410    1.2769 H   0  0  0  0  0  0  0  0  0  0  0  0
    2.7496   -1.3413    2.1685 H   0  0  0  0  0  0  0  0  0  0  0  0
    2.4920   -2.7609    1.0814 H   0  0  0  0  0  0  0  0  0  0  0  0
    4.2449   -1.0948   -0.0578 C   0  0  0  0  0  0  0  0  0  0  0  0
    4.4812   -2.1780   -0.0704 H   0  0  0  0  0  0  0  0  0  0  0  0
    4.8211   -0.6438    0.7947 H   0  0  0  0  0  0  0  0  0  0  0  0
    4.6318   -0.6651   -1.0007 H   0  0  0  0  0  0  0  0  0  0  0  0
  1 13  1  0  0  0  0
  2  1  1  0  0  0  0
  3  5  1  0  0  0  0
  4  3  1  0  0  0  0
  5  2  1  0  0  0  0
  5  9  1  6  0  0  0
  6  7  1  0  0  0  0
  6  2  2  0  0  0  0
  8 23  1  0  0  0  0
  9  8  1  0  0  0  0
  9 10  1  1  0  0  0
 11  6  1  0  0  0  0
 12 11  1  0  0  0  0
 13 14  1  0  0  0  0
 13 16  1  0  0  0  0
 15 13  1  0  0  0  0
 17 11  1  0  0  0  0
 17  3  1  0  0  0  0
 18 17  1  0  0  0  0
 19 21  1  0  0  0  0
 19  9  1  0  0  0  0
 20 19  1  0  0  0  0
 22 19  1  0  0  0  0
 23 24  1  0  0  0  0
 23 25  1  0  0  0  0
 26 23  1  0  0  0  0
 27  8  1  0  0  0  0
 27 29  1  0  0  0  0
 28 27  1  0  0  0  0
 30 27  1  0  0  0  0
M  END
