1,3
q = 0.0, confidence = 0.852

  8  7  0  0  0  0  0  0  0  0999 V2000
    1.2309   -2.9095   -0.7388 C   0  0  0  0  0  3  0  0  0  0  0  0
    0.0140   -3.7875   -0.6034 C   0  0  0  0  0  0  0  0  0  0  0  0
   -1.1335   -2.8901   -0.9878 C   0  0  0  0  0  3  0  0  0  0  0  0
   -0.0573   -4.8639   -0.0235 O   0  0  0  0  0  0  0  0  0  0  0  0
    1.5597   -2.7427   -1.7821 H   0  0  0  0  0  0  0  0  0  0  0  0
    2.0761   -3.1747   -0.0764 H   0  0  0  0  0  0  0  0  0  0  0  0
   -1.2284   -2.6981   -2.0742 H   0  0  0  0  0  0  0  0  0  0  0  0
   -2.0984   -3.1538   -0.5196 H   0  0  0  0  0  0  0  0  0  0  0  0
  1  2  1  0  0  0  0
  1  6  1  0  0  0  0
  2  4  2  0  0  0  0
  3  2  1  0  0  0  0
  3  8  1  0  0  0  0
  5  1  1  0  0  0  0
  7  3  1  0  0  0  0
M  END
