3,25
q = -1.0, confidence = 0.0

 39 42  0  0  0  0  0  0  0  0999 V2000
    1.7493   -1.6017    0.4254 N   0  0  0  0  0  0  0  0  0  0  0  0
    1.8689    0.6547   -0.2022 N   0  0  0  0  0  0  0  0  0  0  0  0
    1.0969   -0.4730    0.0157 C   0  0  0  0  0  2  0  0  0  0  0  0
    0.9792   -2.7990    0.7574 C   0  0  0  0  0  0  0  0  0  0  0  0
    1.4612   -3.6854    0.3013 H   0  0  0  0  0  0  0  0  0  0  0  0
   -0.0385   -2.6972    0.3490 H   0  0  0  0  0  0  0  0  0  0  0  0
    0.9321   -2.9323    1.8574 H   0  0  0  0  0  0  0  0  0  0  0  0
    3.1481   -1.6539    0.6198 C   0  0  0  0  0  0  0  0  0  0  0  0
    3.7876   -2.7428    1.2204 C   0  0  0  0  0  0  0  0  0  0  0  0
    3.2110   -3.5674    1.6549 H   0  0  0  0  0  0  0  0  0  0  0  0
    5.2036   -2.7928    1.2494 C   0  0  0  0  0  0  0  0  0  0  0  0
    5.6912   -3.6563    1.7267 H   0  0  0  0  0  0  0  0  0  0  0  0
    5.9750   -1.8015    0.6617 C   0  0  0  0  0  0  0  0  0  0  0  0
    7.0725   -1.8769    0.6478 H   0  0  0  0  0  0  0  0  0  0  0  0
    5.3541   -0.6706    0.0533 C   0  0  0  0  0  0  0  0  0  0  0  0
    6.0810    0.3598   -0.6091 C   0  0  0  0  0  0  0  0  0  0  0  0
    7.1789    0.3004   -0.6441 H   0  0  0  0  0  0  0  0  0  0  0  0
    5.4045    1.4036   -1.2261 C   0  0  0  0  0  0  0  0  0  0  0  0
    5.9673    2.1688   -1.7819 H   0  0  0  0  0  0  0  0  0  0  0  0
    3.9968    1.5244   -1.1456 C   0  0  0  0  0  0  0  0  0  0  0  0
    3.4891    2.3582   -1.6428 H   0  0  0  0  0  0  0  0  0  0  0  0
    3.2599    0.5737   -0.4318 C   0  0  0  0  0  0  0  0  0  0  0  0
    3.9206   -0.5770    0.0920 C   0  0  0  0  0  0  0  0  0  0  0  0
    1.1067    1.8684   -0.1433 C   0  0  0  0  0  0  0  0  0  0  0  0
   -0.3024    1.6707   -0.0891 C   0  0  0  0  0  3  0  0  0  0  0  0
   -1.1112    2.8226    0.1070 C   0  0  0  0  0  0  0  0  0  0  0  0
   -0.4987    4.0881    0.2147 C   0  0  0  0  0  0  0  0  0  0  0  0
   -1.1456    4.9695    0.3586 H   0  0  0  0  0  0  0  0  0  0  0  0
    0.8943    4.2681    0.1839 C   0  0  0  0  0  0  0  0  0  0  0  0
    1.7011    3.1317    0.0155 C   0  0  0  0  0  0  0  0  0  0  0  0
    2.7918    3.2412    0.0554 H   0  0  0  0  0  0  0  0  0  0  0  0
   -2.6128    2.7544    0.2348 C   0  0  0  0  0  0  0  0  0  0  0  0
   -3.0280    3.7463    0.4978 H   0  0  0  0  0  0  0  0  0  0  0  0
   -2.9165    2.0381    1.0224 H   0  0  0  0  0  0  0  0  0  0  0  0
   -3.0952    2.4273   -0.7080 H   0  0  0  0  0  0  0  0  0  0  0  0
    1.5090    5.6395    0.3171 C   0  0  0  0  0  0  0  0  0  0  0  0
    2.5425    5.5881    0.7140 H   0  0  0  0  0  0  0  0  0  0  0  0
    0.9148    6.2887    0.9911 H   0  0  0  0  0  0  0  0  0  0  0  0
    1.5620    6.1567   -0.6659 H   0  0  0  0  0  0  0  0  0  0  0  0
  1  8  1  0  0  0  0
  1  4  1  0  0  0  0
  2 24  1  0  0  0  0
  2  3  1  0  0  0  0
  3  1  1  0  0  0  0
  4  7  1  0  0  0  0
  5  4  1  0  0  0  0
  6  4  1  0  0  0  0
  8  9  1  0  0  0  0
  9 11  2  0  0  0  0
  9 10  1  0  0  0  0
 11 12  1  0  0  0  0
 13 11  1  0  0  0  0
 14 13  1  0  0  0  0
 15 23  1  0  0  0  0
 15 13  2  0  0  0  0
 16 15  1  0  0  0  0
 17 16  1  0  0  0  0
 18 20  1  0  0  0  0
 18 16  2  0  0  0  0
 19 18  1  0  0  0  0
 20 22  2  0  0  0  0
 21 20  1  0  0  0  0
 22  2  1  0  0  0  0
 22 23  1  0  0  0  0
 23  8  2  0  0  0  0
 24 25  2  0  0  0  0
 24 30  1  0  0  0  0
 25 26  1  0  0  0  0
 26 27  2  0  0  0  0
 26 32  1  0  0  0  0
 27 28  1  0  0  0  0
 29 27  1  0  0  0  0
 29 36  1  0  0  0  0
 30 31  1  0  0  0  0
 30 29  2  0  0  0  0
 32 33  1  0  0  0  0
 32 34  1  0  0  0  0
 35 32  1  0  0  0  0
 36 37  1  0  0  0  0
 36 38  1  0  0  0  0
 39 36  1  0  0  0  0
M  END
