1,10
q = 0.0, confidence = 0.892

 38 39  0  0  1  0  0  0  0  0999 V2000
    0.5331   -1.9012    1.0278 C   0  0  0  0  0  3  0  0  0  0  0  0
    0.2583   -0.9075    2.0648 C   0  0  0  0  0  3  0  0  0  0  0  0
    1.3494    0.0271    2.3064 C   0  0  0  0  0  0  0  0  0  0  0  0
    2.4947    0.0329    1.5590 C   0  0  0  0  0  0  0  0  0  0  0  0
    2.8237   -0.9919    0.5004 C   0  0  1  0  0  0  0  0  0  0  0  0
    1.9843   -2.2945    0.7240 C   0  0  0  0  0  0  0  0  0  0  0  0
    2.5706   -3.0538    1.9374 C   0  0  0  0  0  0  0  0  0  0  0  0
    2.0181   -3.2374   -0.4891 C   0  0  0  0  0  0  0  0  0  0  0  0
    2.7153   -0.4152   -0.9431 C   0  0  1  0  0  0  0  0  0  0  0  0
    1.2632   -0.0855   -1.3313 C   0  0  0  0  0  3  0  0  0  0  0  0
    0.7688    1.2803   -1.1419 C   0  0  0  0  0  3  0  0  0  0  0  0
    1.7100    2.3267   -0.7404 C   0  0  0  0  0  0  0  0  0  0  0  0
    3.0477    2.1050   -0.7239 C   0  0  0  0  0  0  0  0  0  0  0  0
    3.6579    0.8060   -1.2311 C   0  0  0  0  0  0  0  0  0  0  0  0
    3.8051    0.9394   -2.7687 C   0  0  0  0  0  0  0  0  0  0  0  0
    5.0650    0.6081   -0.6394 C   0  0  0  0  0  0  0  0  0  0  0  0
   -0.1700   -2.7597    1.0082 H   0  0  0  0  0  0  0  0  0  0  0  0
   -0.4802   -1.0716    2.8691 H   0  0  0  0  0  0  0  0  0  0  0  0
    1.2309    0.7802    3.1001 H   0  0  0  0  0  0  0  0  0  0  0  0
    3.2359    0.8262    1.7414 H   0  0  0  0  0  0  0  0  0  0  0  0
    3.8901   -1.2789    0.6391 H   0  0  0  0  0  0  0  0  0  0  0  0
    1.9411   -3.9330    2.1866 H   0  0  0  0  0  0  0  0  0  0  0  0
    2.6133   -2.4011    2.8309 H   0  0  0  0  0  0  0  0  0  0  0  0
    3.5977   -3.4205    1.7255 H   0  0  0  0  0  0  0  0  0  0  0  0
    3.0573   -3.4855   -0.7896 H   0  0  0  0  0  0  0  0  0  0  0  0
    1.5091   -4.1912   -0.2374 H   0  0  0  0  0  0  0  0  0  0  0  0
    1.4962   -2.8062   -1.3657 H   0  0  0  0  0  0  0  0  0  0  0  0
    3.0722   -1.2221   -1.6167 H   0  0  0  0  0  0  0  0  0  0  0  0
    0.9072   -0.6196   -2.2385 H   0  0  0  0  0  0  0  0  0  0  0  0
   -0.0475    1.6259   -1.8134 H   0  0  0  0  0  0  0  0  0  0  0  0
    1.3200    3.3230   -0.4672 H   0  0  0  0  0  0  0  0  0  0  0  0
    3.7411    2.9083   -0.4218 H   0  0  0  0  0  0  0  0  0  0  0  0
    4.3999    1.8375   -3.0322 H   0  0  0  0  0  0  0  0  0  0  0  0
    2.8120    1.0364   -3.2494 H   0  0  0  0  0  0  0  0  0  0  0  0
    4.3166    0.0500   -3.1953 H   0  0  0  0  0  0  0  0  0  0  0  0
    5.0675    0.6190    0.4680 H   0  0  0  0  0  0  0  0  0  0  0  0
    5.7377    1.4233   -0.9782 H   0  0  0  0  0  0  0  0  0  0  0  0
    5.5083   -0.3524   -0.9745 H   0  0  0  0  0  0  0  0  0  0  0  0
  1  2  1  0  0  0  0
  2  3  1  0  0  0  0
  2 18  1  0  0  0  0
  3 19  1  0  0  0  0
  4 20  1  0  0  0  0
  4  3  2  0  0  0  0
  5 21  1  1  0  0  0
  5  6  1  0  0  0  0
  5  4  1  0  0  0  0
  6  1  1  0  0  0  0
  6  7  1  0  0  0  0
  7 22  1  0  0  0  0
  7 23  1  0  0  0  0
  8 26  1  0  0  0  0
  8  6  1  0  0  0  0
  9 28  1  6  0  0  0
  9  5  1  0  0  0  0
 10 11  1  0  0  0  0
 10  9  1  0  0  0  0
 11 12  1  0  0  0  0
 12 13  2  0  0  0  0
 12 31  1  0  0  0  0
 13 32  1  0  0  0  0
 14  9  1  0  0  0  0
 14 13  1  0  0  0  0
 14 16  1  0  0  0  0
 15 14  1  0  0  0  0
 16 36  1  0  0  0  0
 17  1  1  0  0  0  0
 24  7  1  0  0  0  0
 25  8  1  0  0  0  0
 27  8  1  0  0  0  0
 29 10  1  0  0  0  0
 30 11  1  0  0  0  0
 33 15  1  0  0  0  0
 34 15  1  0  0  0  0
 35 15  1  0  0  0  0
 37 16  1  0  0  0  0
 38 16  1  0  0  0  0
M  END
