10,12
q = 0.0, confidence = 0.998

 57 60  0  0  1  0  0  0  0  0999 V2000
   -4.5801    1.2392   -0.3869 Si  0  0  0  0  0  0  0  0  0  0  0  0
    1.3209   -0.3790   -0.9282 O   0  0  0  0  0  0  0  0  0  0  0  0
    2.4155    1.6800    1.6146 O   0  0  0  0  0  0  0  0  0  0  0  0
    2.3194    2.1020   -0.6137 O   0  0  0  0  0  0  0  0  0  0  0  0
   -5.6211   -0.0287   -1.3216 C   0  0  0  0  0  0  0  0  0  0  0  0
   -5.0536    1.2906    1.4405 C   0  0  0  0  0  0  0  0  0  0  0  0
   -4.8217    2.9553   -1.1549 C   0  0  0  0  0  0  0  0  0  0  0  0
    0.0474    0.0233   -0.7427 C   0  0  0  0  0  0  0  0  0  0  0  0
   -0.8816   -0.3770   -1.7494 C   0  0  0  0  0  3  0  0  0  0  0  0
   -2.2457    0.0011   -1.6417 C   0  0  0  0  0  3  0  0  0  0  0  0
   -2.7405    0.7852   -0.5488 C   0  0  2  0  0  3  0  0  0  0  0  0
   -1.7932    1.1106    0.4724 C   0  0  0  0  0  3  0  0  0  0  0  0
   -0.4154    0.7526    0.3909 C   0  0  0  0  0  0  0  0  0  0  0  0
    2.2558   -0.2755    0.1445 C   0  0  1  0  0  0  0  0  0  0  0  0
    3.5198   -1.1281   -0.1431 C   0  0  2  0  0  0  0  0  0  0  0  0
    4.2282   -1.2231    1.2388 C   0  0  0  0  0  0  0  0  0  0  0  0
    4.8139    0.2004    1.4685 C   0  0  0  0  0  0  0  0  0  0  0  0
    4.3584    0.9642    0.2072 C   0  0  2  0  0  0  0  0  0  0  0  0
    2.8247    1.1782    0.3464 C   0  0  0  0  0  0  0  0  0  0  0  0
    4.4570   -0.1182   -0.9139 C   0  0  0  0  0  0  0  0  0  0  0  0
    3.9386    0.3137   -2.2953 C   0  0  0  0  0  0  0  0  0  0  0  0
    5.8883   -0.6419   -1.1211 C   0  0  0  0  0  0  0  0  0  0  0  0
    3.2317   -2.4707   -0.7946 C   0  0  0  0  0  0  0  0  0  0  0  0
    2.4400    3.0986    1.4862 C   0  0  0  0  0  0  0  0  0  0  0  0
    1.9339    3.3034    0.0527 C   0  0  0  0  0  0  0  0  0  0  0  0
   -6.6978    0.2155   -1.2103 H   0  0  0  0  0  0  0  0  0  0  0  0
   -5.4594   -1.0558   -0.9389 H   0  0  0  0  0  0  0  0  0  0  0  0
   -5.3955   -0.0268   -2.4078 H   0  0  0  0  0  0  0  0  0  0  0  0
   -6.1305    1.5371    1.5436 H   0  0  0  0  0  0  0  0  0  0  0  0
   -4.4850    2.0666    1.9931 H   0  0  0  0  0  0  0  0  0  0  0  0
   -4.8722    0.3169    1.9370 H   0  0  0  0  0  0  0  0  0  0  0  0
   -5.8826    3.2741   -1.0871 H   0  0  0  0  0  0  0  0  0  0  0  0
   -4.5329    2.9585   -2.2259 H   0  0  0  0  0  0  0  0  0  0  0  0
   -4.2042    3.7164   -0.6353 H   0  0  0  0  0  0  0  0  0  0  0  0
   -0.5210   -1.0000   -2.5778 H   0  0  0  0  0  0  0  0  0  0  0  0
   -2.9431   -0.3501   -2.4166 H   0  0  0  0  0  0  0  0  0  0  0  0
   -2.1300    1.6447    1.3735 H   0  0  0  0  0  0  0  0  0  0  0  0
    0.2774    1.0229    1.1982 H   0  0  0  0  0  0  0  0  0  0  0  0
    1.7600   -0.6088    1.0801 H   0  0  0  0  0  0  0  0  0  0  0  0
    3.5174   -1.5308    2.0315 H   0  0  0  0  0  0  0  0  0  0  0  0
    5.0181   -1.9987    1.2052 H   0  0  0  0  0  0  0  0  0  0  0  0
    4.4259    0.6775    2.3871 H   0  0  0  0  0  0  0  0  0  0  0  0
    5.9180    0.1884    1.5406 H   0  0  0  0  0  0  0  0  0  0  0  0
    4.8970    1.9114    0.0088 H   0  0  0  0  0  0  0  0  0  0  0  0
    4.5882    1.1129   -2.7079 H   0  0  0  0  0  0  0  0  0  0  0  0
    2.9047    0.6941   -2.2864 H   0  0  0  0  0  0  0  0  0  0  0  0
    3.9848   -0.5441   -2.9972 H   0  0  0  0  0  0  0  0  0  0  0  0
    6.5304    0.1640   -1.5320 H   0  0  0  0  0  0  0  0  0  0  0  0
    5.8905   -1.4684   -1.8603 H   0  0  0  0  0  0  0  0  0  0  0  0
    6.3724   -1.0182   -0.2011 H   0  0  0  0  0  0  0  0  0  0  0  0
    2.5675   -3.0856   -0.1555 H   0  0  0  0  0  0  0  0  0  0  0  0
    4.1730   -3.0337   -0.9553 H   0  0  0  0  0  0  0  0  0  0  0  0
    2.7275   -2.3456   -1.7721 H   0  0  0  0  0  0  0  0  0  0  0  0
    3.4737    3.4939    1.6194 H   0  0  0  0  0  0  0  0  0  0  0  0
    1.7854    3.5332    2.2659 H   0  0  0  0  0  0  0  0  0  0  0  0
    0.8266    3.4123    0.0154 H   0  0  0  0  0  0  0  0  0  0  0  0
    2.3955    4.1789   -0.4501 H   0  0  0  0  0  0  0  0  0  0  0  0
  1  6  1  0  0  0  0
  2  8  1  0  0  0  0
  2 14  1  0  0  0  0
  4 25  1  0  0  0  0
  4 19  1  0  0  0  0
  5 26  1  0  0  0  0
  5 27  1  0  0  0  0
  5  1  1  0  0  0  0
  6 29  1  0  0  0  0
  6 31  1  0  0  0  0
  6 30  1  0  0  0  0
  7 32  1  0  0  0  0
  7 34  1  0  0  0  0
  7  1  1  0  0  0  0
  8 13  2  0  0  0  0
  9 10  1  0  0  0  0
  9  8  1  0  0  0  0
 10 11  1  0  0  0  0
 11  1  1  1  0  0  0
 11 12  1  0  0  0  0
 12 37  1  0  0  0  0
 13 12  1  0  0  0  0
 13 38  1  0  0  0  0
 14 19  1  0  0  0  0
 14 39  1  1  0  0  0
 15 23  1  6  0  0  0
 15 14  1  0  0  0  0
 15 16  1  0  0  0  0
 16 17  1  0  0  0  0
 16 40  1  0  0  0  0
 17 43  1  0  0  0  0
 17 42  1  0  0  0  0
 18 44  1  6  0  0  0
 18 19  1  0  0  0  0
 18 17  1  0  0  0  0
 19  3  1  0  0  0  0
 20 15  1  0  0  0  0
 20 18  1  0  0  0  0
 21 46  1  0  0  0  0
 21 20  1  0  0  0  0
 22 20  1  0  0  0  0
 22 50  1  0  0  0  0
 23 51  1  0  0  0  0
 24  3  1  0  0  0  0
 24 54  1  0  0  0  0
 24 55  1  0  0  0  0
 25 24  1  0  0  0  0
 28  5  1  0  0  0  0
 33  7  1  0  0  0  0
 35  9  1  0  0  0  0
 36 10  1  0  0  0  0
 41 16  1  0  0  0  0
 45 21  1  0  0  0  0
 47 21  1  0  0  0  0
 48 22  1  0  0  0  0
 49 22  1  0  0  0  0
 52 23  1  0  0  0  0
 53 23  1  0  0  0  0
 56 25  1  0  0  0  0
 57 25  1  0  0  0  0
M  END
