8,10
q = 0.0, confidence = 0.996

 61 64  0  0  1  0  0  0  0  0999 V2000
    4.5248   -1.4123    0.9036 Si  0  0  0  0  0  0  0  0  0  0  0  0
   -1.3533   -0.5826   -0.7160 O   0  0  0  0  0  0  0  0  0  0  0  0
    5.2148    0.2260    1.5390 C   0  0  0  0  0  0  0  0  0  0  0  0
    5.4932   -2.0049   -0.6048 C   0  0  0  0  0  0  0  0  0  0  0  0
    4.5721   -2.7189    2.2740 C   0  0  0  0  0  0  0  0  0  0  0  0
   -0.0756   -0.7005   -0.2984 C   0  0  0  0  0  0  0  0  0  0  0  0
    0.8241   -1.3366   -1.2196 C   0  0  0  0  0  3  0  0  0  0  0  0
    2.1686   -1.5885   -0.8545 C   0  0  0  0  0  3  0  0  0  0  0  0
    2.6991   -1.1661    0.4144 C   0  0  2  0  0  3  0  0  0  0  0  0
    1.8115   -0.4603    1.2734 C   0  0  0  0  0  3  0  0  0  0  0  0
    0.4402   -0.2237    0.9342 C   0  0  0  0  0  0  0  0  0  0  0  0
   -2.4281   -0.2255    0.2115 C   0  0  1  0  0  0  0  0  0  0  0  0
   -2.2519    1.2440    0.5979 C   0  0  0  0  0  0  0  0  0  0  0  0
   -2.5491    1.7470    1.8812 C   0  0  0  0  0  0  0  0  0  0  0  0
   -2.3539    3.1032    2.1873 C   0  0  0  0  0  0  0  0  0  0  0  0
   -1.8535    3.9834    1.2165 C   0  0  0  0  0  0  0  0  0  0  0  0
   -1.5679    3.4982   -0.0683 C   0  0  0  0  0  0  0  0  0  0  0  0
   -1.7722    2.1462   -0.3739 C   0  0  0  0  0  0  0  0  0  0  0  0
   -3.7676   -0.5175   -0.5810 C   0  0  2  0  0  0  0  0  0  0  0  0
   -4.9119    0.0412    0.3100 C   0  0  0  0  0  0  0  0  0  0  0  0
   -4.9802   -0.9421    1.5123 C   0  0  0  0  0  0  0  0  0  0  0  0
   -3.8734   -1.9636    1.1728 C   0  0  2  0  0  0  0  0  0  0  0  0
   -2.5162   -1.2613    1.3796 C   0  0  0  0  0  0  0  0  0  0  0  0
   -3.9642   -2.0762   -0.3766 C   0  0  0  0  0  0  0  0  0  0  0  0
   -2.9067   -2.9997   -1.0061 C   0  0  0  0  0  0  0  0  0  0  0  0
   -5.3258   -2.5845   -0.8858 C   0  0  0  0  0  0  0  0  0  0  0  0
   -3.7933    0.0097   -2.0060 C   0  0  0  0  0  0  0  0  0  0  0  0
    6.2365    0.0845    1.9482 H   0  0  0  0  0  0  0  0  0  0  0  0
    4.5858    0.6556    2.3449 H   0  0  0  0  0  0  0  0  0  0  0  0
    5.2683    0.9679    0.7180 H   0  0  0  0  0  0  0  0  0  0  0  0
    6.5565   -2.1629   -0.3299 H   0  0  0  0  0  0  0  0  0  0  0  0
    5.4623   -1.2524   -1.4180 H   0  0  0  0  0  0  0  0  0  0  0  0
    5.1057   -2.9678   -0.9962 H   0  0  0  0  0  0  0  0  0  0  0  0
    5.6141   -2.9037    2.6079 H   0  0  0  0  0  0  0  0  0  0  0  0
    4.1495   -3.6827    1.9236 H   0  0  0  0  0  0  0  0  0  0  0  0
    3.9860   -2.3928    3.1576 H   0  0  0  0  0  0  0  0  0  0  0  0
    0.4357   -1.6310   -2.2038 H   0  0  0  0  0  0  0  0  0  0  0  0
    2.8263   -2.0779   -1.5868 H   0  0  0  0  0  0  0  0  0  0  0  0
    2.1806   -0.0499    2.2252 H   0  0  0  0  0  0  0  0  0  0  0  0
   -0.1971    0.3529    1.6139 H   0  0  0  0  0  0  0  0  0  0  0  0
   -2.9381    1.0799    2.6638 H   0  0  0  0  0  0  0  0  0  0  0  0
   -2.5888    3.4700    3.1981 H   0  0  0  0  0  0  0  0  0  0  0  0
   -1.6825    5.0421    1.4622 H   0  0  0  0  0  0  0  0  0  0  0  0
   -1.1655    4.1695   -0.8417 H   0  0  0  0  0  0  0  0  0  0  0  0
   -1.5327    1.7790   -1.3787 H   0  0  0  0  0  0  0  0  0  0  0  0
   -4.7222    1.0888    0.6083 H   0  0  0  0  0  0  0  0  0  0  0  0
   -5.8546    0.0488   -0.2705 H   0  0  0  0  0  0  0  0  0  0  0  0
   -5.9717   -1.4294    1.5919 H   0  0  0  0  0  0  0  0  0  0  0  0
   -4.7922   -0.4454    2.4855 H   0  0  0  0  0  0  0  0  0  0  0  0
   -3.9538   -2.9235    1.7214 H   0  0  0  0  0  0  0  0  0  0  0  0
   -1.6765   -1.9769    1.3014 H   0  0  0  0  0  0  0  0  0  0  0  0
   -2.4357   -0.7972    2.3797 H   0  0  0  0  0  0  0  0  0  0  0  0
   -3.1967   -4.0578   -0.8397 H   0  0  0  0  0  0  0  0  0  0  0  0
   -1.8869   -2.8663   -0.6092 H   0  0  0  0  0  0  0  0  0  0  0  0
   -2.8549   -2.8426   -2.1026 H   0  0  0  0  0  0  0  0  0  0  0  0
   -5.4979   -3.6200   -0.5274 H   0  0  0  0  0  0  0  0  0  0  0  0
   -5.3360   -2.6183   -1.9943 H   0  0  0  0  0  0  0  0  0  0  0  0
   -6.1894   -1.9741   -0.5656 H   0  0  0  0  0  0  0  0  0  0  0  0
   -3.7705    1.1176   -2.0230 H   0  0  0  0  0  0  0  0  0  0  0  0
   -4.7268   -0.3073   -2.5132 H   0  0  0  0  0  0  0  0  0  0  0  0
   -2.9319   -0.3575   -2.5955 H   0  0  0  0  0  0  0  0  0  0  0  0
  1  3  1  0  0  0  0
  1  5  1  0  0  0  0
  2  6  1  0  0  0  0
  3 28  1  0  0  0  0
  3 29  1  0  0  0  0
  4 31  1  0  0  0  0
  4  1  1  0  0  0  0
  5 34  1  0  0  0  0
  5 36  1  0  0  0  0
  6 11  2  0  0  0  0
  7  8  1  0  0  0  0
  7  6  1  0  0  0  0
  8  9  1  0  0  0  0
  9  1  1  6  0  0  0
  9 10  1  0  0  0  0
 10 39  1  0  0  0  0
 11 10  1  0  0  0  0
 11 40  1  0  0  0  0
 12  2  1  6  0  0  0
 12 13  1  0  0  0  0
 12 23  1  0  0  0  0
 13 14  1  0  0  0  0
 14 15  2  0  0  0  0
 14 41  1  0  0  0  0
 15 42  1  0  0  0  0
 16 43  1  0  0  0  0
 16 15  1  0  0  0  0
 17 16  2  0  0  0  0
 18 17  1  0  0  0  0
 18 13  2  0  0  0  0
 19 27  1  6  0  0  0
 19 24  1  0  0  0  0
 19 12  1  0  0  0  0
 19 20  1  0  0  0  0
 20 46  1  0  0  0  0
 20 21  1  0  0  0  0
 21 48  1  0  0  0  0
 21 49  1  0  0  0  0
 22 23  1  0  0  0  0
 22 21  1  0  0  0  0
 22 50  1  1  0  0  0
 23 52  1  0  0  0  0
 24 22  1  0  0  0  0
 25 53  1  0  0  0  0
 25 54  1  0  0  0  0
 25 24  1  0  0  0  0
 26 58  1  0  0  0  0
 26 56  1  0  0  0  0
 26 24  1  0  0  0  0
 30  3  1  0  0  0  0
 32  4  1  0  0  0  0
 33  4  1  0  0  0  0
 35  5  1  0  0  0  0
 37  7  1  0  0  0  0
 38  8  1  0  0  0  0
 44 17  1  0  0  0  0
 45 18  1  0  0  0  0
 47 20  1  0  0  0  0
 51 23  1  0  0  0  0
 55 25  1  0  0  0  0
 57 26  1  0  0  0  0
 59 27  1  0  0  0  0
 60 27  1  0  0  0  0
 61 27  1  0  0  0  0
M  END
