2,5
q = -2.0, confidence = 0.692

 49 50  0  0  0  0  0  0  0  0999 V2000
   -1.1148   -0.3414    1.8331 C   0  0  0  0  0  2  0  0  0  0  0  0
   -0.2697   -0.1348    0.9344 C   0  0  0  0  0  2  0  0  0  0  0  0
   -0.0058    0.3606   -1.7788 C   0  0  0  0  0  0  0  0  0  0  0  0
    0.8538    0.5212   -2.4591 H   0  0  0  0  0  0  0  0  0  0  0  0
   -1.2237    0.5397   -2.3234 C   0  0  0  0  0  3  0  0  0  0  0  0
   -1.5234    1.0928   -3.6499 C   0  0  0  0  0  0  0  0  0  0  0  0
   -0.9269    2.2432   -4.0556 C   0  0  0  0  0  0  0  0  0  0  0  0
   -1.1635    2.6970   -5.0314 H   0  0  0  0  0  0  0  0  0  0  0  0
   -0.1902    2.7562   -3.4180 H   0  0  0  0  0  0  0  0  0  0  0  0
   -2.5450    0.3931   -4.5141 C   0  0  0  0  0  0  0  0  0  0  0  0
   -2.7580    0.9660   -5.4368 H   0  0  0  0  0  0  0  0  0  0  0  0
   -3.4998    0.2392   -3.9688 H   0  0  0  0  0  0  0  0  0  0  0  0
   -2.1874   -0.6143   -4.8168 H   0  0  0  0  0  0  0  0  0  0  0  0
   -1.6470   -0.5015    3.6133 Si  0  0  0  0  0  0  0  0  0  0  0  0
   -0.3075   -1.5719    4.4020 C   0  0  0  0  0  0  0  0  0  0  0  0
    0.6956   -1.1820    4.1368 H   0  0  0  0  0  0  0  0  0  0  0  0
   -0.3711   -2.6147    4.0308 H   0  0  0  0  0  0  0  0  0  0  0  0
   -0.4058   -1.5897    5.5069 H   0  0  0  0  0  0  0  0  0  0  0  0
   -1.6579    1.2422    4.3360 C   0  0  0  0  0  0  0  0  0  0  0  0
   -1.7921    1.2033    5.4367 H   0  0  0  0  0  0  0  0  0  0  0  0
   -2.4764    1.8591    3.9141 H   0  0  0  0  0  0  0  0  0  0  0  0
   -0.6974    1.7499    4.1164 H   0  0  0  0  0  0  0  0  0  0  0  0
   -3.3461   -1.3119    3.7806 C   0  0  0  0  0  0  0  0  0  0  0  0
   -3.6522   -1.3113    4.8471 H   0  0  0  0  0  0  0  0  0  0  0  0
   -3.3365   -2.3663    3.4388 H   0  0  0  0  0  0  0  0  0  0  0  0
   -4.1257   -0.7725    3.2065 H   0  0  0  0  0  0  0  0  0  0  0  0
    0.7021    0.0392   -0.2879 B   0  0  0  0  0  0  0  0  0  0  0  0
    1.7089    1.3330   -0.0766 C   0  0  0  0  0  0  0  0  0  0  0  0
    3.0476    0.5781   -1.9072 F   0  0  0  0  0  0  0  0  0  0  0  0
    2.8179    1.4827   -0.9305 C   0  0  0  0  0  0  0  0  0  0  0  0
    4.7710    2.6284   -1.6822 F   0  0  0  0  0  0  0  0  0  0  0  0
    3.7360    2.5414   -0.8393 C   0  0  0  0  0  0  0  0  0  0  0  0
    4.4146    4.5361    0.2618 F   0  0  0  0  0  0  0  0  0  0  0  0
    3.5572    3.5169    0.1545 C   0  0  0  0  0  0  0  0  0  0  0  0
    2.2850    4.3352    1.9841 F   0  0  0  0  0  0  0  0  0  0  0  0
    2.4670    3.4124    1.0309 C   0  0  0  0  0  0  0  0  0  0  0  0
    0.5612    2.3089    1.7955 F   0  0  0  0  0  0  0  0  0  0  0  0
    1.5767    2.3324    0.9001 C   0  0  0  0  0  0  0  0  0  0  0  0
    1.5800   -1.3559   -0.2899 C   0  0  0  0  0  0  0  0  0  0  0  0
    2.3333   -0.8182    1.9104 F   0  0  0  0  0  0  0  0  0  0  0  0
    2.3392   -1.6613    0.8541 C   0  0  0  0  0  0  0  0  0  0  0  0
    3.8197   -3.0629    2.0966 F   0  0  0  0  0  0  0  0  0  0  0  0
    3.1175   -2.8219    0.9827 C   0  0  0  0  0  0  0  0  0  0  0  0
    3.8771   -4.8572    0.0184 F   0  0  0  0  0  0  0  0  0  0  0  0
    3.1467   -3.7422   -0.0784 C   0  0  0  0  0  0  0  0  0  0  0  0
    2.4104   -4.3644   -2.2469 F   0  0  0  0  0  0  0  0  0  0  0  0
    2.3976   -3.4855   -1.2369 C   0  0  0  0  0  0  0  0  0  0  0  0
    0.9235   -2.1456   -2.4568 F   0  0  0  0  0  0  0  0  0  0  0  0
    1.6331   -2.3074   -1.3192 C   0  0  0  0  0  0  0  0  0  0  0  0
  1 14  1  0  0  0  0
  2  1  1  0  0  0  0
  3 27  1  0  0  0  0
  4  3  1  0  0  0  0
  5  3  2  0  0  0  0
  6  5  1  0  0  0  0
  7  6  2  0  0  0  0
  7  9  1  0  0  0  0
  8  7  1  0  0  0  0
 10 12  1  0  0  0  0
 10  6  1  0  0  0  0
 11 10  1  0  0  0  0
 13 10  1  0  0  0  0
 14 23  1  0  0  0  0
 14 19  1  0  0  0  0
 14 15  1  0  0  0  0
 15 18  1  0  0  0  0
 16 15  1  0  0  0  0
 17 15  1  0  0  0  0
 19 20  1  0  0  0  0
 21 19  1  0  0  0  0
 22 19  1  0  0  0  0
 23 24  1  0  0  0  0
 25 23  1  0  0  0  0
 26 23  1  0  0  0  0
 27 28  1  0  0  0  0
 27  2  1  0  0  0  0
 28 38  1  0  0  0  0
 29 30  1  0  0  0  0
 30 32  1  0  0  0  0
 30 28  2  0  0  0  0
 31 32  1  0  0  0  0
 32 34  2  0  0  0  0
 34 33  1  0  0  0  0
 34 36  1  0  0  0  0
 36 35  1  0  0  0  0
 38 36  2  0  0  0  0
 38 37  1  0  0  0  0
 39 27  1  0  0  0  0
 39 41  1  0  0  0  0
 41 43  2  0  0  0  0
 41 40  1  0  0  0  0
 43 42  1  0  0  0  0
 45 44  1  0  0  0  0
 45 43  1  0  0  0  0
 46 47  1  0  0  0  0
 47 45  2  0  0  0  0
 48 49  1  0  0  0  0
 49 47  1  0  0  0  0
 49 39  2  0  0  0  0
M  END
