8,29
q = -1.0, confidence = 0.076

 51 54  0  0  1  0  0  0  0  0999 V2000
   -0.9995    0.4650    0.8399 C   0  0  0  0  0  3  0  0  0  0  0  0
   -2.5908    0.6485    2.7280 C   0  0  0  0  0  0  0  0  0  0  0  0
   -3.8118    1.0060    3.3179 C   0  0  0  0  0  0  0  0  0  0  0  0
   -4.8026    1.6431    2.5569 C   0  0  0  0  0  0  0  0  0  0  0  0
   -4.5513    1.9168    1.2007 C   0  0  0  0  0  0  0  0  0  0  0  0
   -3.3340    1.5536    0.6124 C   0  0  0  0  0  0  0  0  0  0  0  0
   -2.3203    0.9086    1.3624 C   0  0  0  0  0  0  0  0  0  0  0  0
   -0.1747    1.0147   -0.2231 C   0  0  1  0  0  3  0  0  0  0  0  0
   -0.0234    2.3384   -2.3629 C   0  0  0  0  0  0  0  0  0  0  0  0
   -0.2054    3.5019   -3.1204 C   0  0  0  0  0  0  0  0  0  0  0  0
   -0.8426    4.6193   -2.5536 C   0  0  0  0  0  0  0  0  0  0  0  0
   -1.2708    4.5627   -1.2196 C   0  0  0  0  0  0  0  0  0  0  0  0
   -1.0846    3.3949   -0.4621 C   0  0  0  0  0  0  0  0  0  0  0  0
   -0.4870    2.2512   -1.0311 C   0  0  0  0  0  0  0  0  0  0  0  0
    1.3163    0.9091    0.0015 C   0  0  0  0  0  0  0  0  0  0  0  0
    3.2393    2.5263    0.2001 C   0  0  0  0  0  0  0  0  0  0  0  0
    3.8664    3.6126    0.8214 C   0  0  0  0  0  0  0  0  0  0  0  0
    3.2663    4.2409    1.9255 C   0  0  0  0  0  0  0  0  0  0  0  0
    2.0266    3.7795    2.3949 C   0  0  0  0  0  0  0  0  0  0  0  0
    1.3918    2.6994    1.7666 C   0  0  0  0  0  0  0  0  0  0  0  0
    1.9942    2.0446    0.6672 C   0  0  0  0  0  0  0  0  0  0  0  0
    1.9339   -0.2113   -0.4803 C   0  0  0  0  0  0  0  0  0  0  0  0
    4.1695   -1.1257   -1.2313 C   0  0  0  0  0  0  0  0  0  0  0  0
    5.4760   -1.5421   -0.9338 C   0  0  0  0  0  0  0  0  0  0  0  0
    5.9616   -1.4794    0.3814 C   0  0  0  0  0  0  0  0  0  0  0  0
    5.1268   -1.0001    1.4058 C   0  0  0  0  0  0  0  0  0  0  0  0
    3.8235   -0.5815    1.1127 C   0  0  0  0  0  0  0  0  0  0  0  0
    3.3271   -0.6266   -0.2120 C   0  0  0  0  0  0  0  0  0  0  0  0
    1.0229   -1.0978   -1.2814 C   0  0  0  0  0  3  0  0  0  0  0  0
    1.4669   -1.8907   -2.1106 O   0  0  0  0  0  0  0  0  0  0  0  0
   -0.3934    0.0507    1.6633 H   0  0  0  0  0  0  0  0  0  0  0  0
   -1.8234    0.1354    3.3278 H   0  0  0  0  0  0  0  0  0  0  0  0
   -3.9878    0.7849    4.3821 H   0  0  0  0  0  0  0  0  0  0  0  0
   -5.7627    1.9267    3.0138 H   0  0  0  0  0  0  0  0  0  0  0  0
   -5.3160    2.4220    0.5905 H   0  0  0  0  0  0  0  0  0  0  0  0
   -3.1632    1.7775   -0.4472 H   0  0  0  0  0  0  0  0  0  0  0  0
    0.4896    1.4676   -2.7981 H   0  0  0  0  0  0  0  0  0  0  0  0
    0.1577    3.5404   -4.1589 H   0  0  0  0  0  0  0  0  0  0  0  0
   -0.9887    5.5353   -3.1459 H   0  0  0  0  0  0  0  0  0  0  0  0
   -1.7453    5.4403   -0.7540 H   0  0  0  0  0  0  0  0  0  0  0  0
   -1.3993    3.3766    0.5897 H   0  0  0  0  0  0  0  0  0  0  0  0
    3.7068    2.0425   -0.6693 H   0  0  0  0  0  0  0  0  0  0  0  0
    4.8317    3.9761    0.4371 H   0  0  0  0  0  0  0  0  0  0  0  0
    3.7611    5.0941    2.4141 H   0  0  0  0  0  0  0  0  0  0  0  0
    1.5456    4.2678    3.2563 H   0  0  0  0  0  0  0  0  0  0  0  0
    0.4205    2.3448    2.1410 H   0  0  0  0  0  0  0  0  0  0  0  0
    3.7842   -1.1891   -2.2571 H   0  0  0  0  0  0  0  0  0  0  0  0
    6.1218   -1.9210   -1.7410 H   0  0  0  0  0  0  0  0  0  0  0  0
    6.9872   -1.8075    0.6104 H   0  0  0  0  0  0  0  0  0  0  0  0
    5.4950   -0.9544    2.4425 H   0  0  0  0  0  0  0  0  0  0  0  0
    3.1639   -0.2166    1.9135 H   0  0  0  0  0  0  0  0  0  0  0  0
  1  7  1  0  0  0  0
  1 31  1  0  0  0  0
  2  3  1  0  0  0  0
  2 32  1  0  0  0  0
  3 33  1  0  0  0  0
  4 34  1  0  0  0  0
  4  3  2  0  0  0  0
  5  4  1  0  0  0  0
  6  5  2  0  0  0  0
  6  7  1  0  0  0  0
  7  2  2  0  0  0  0
  8 15  1  1  0  0  0
  8  1  1  0  0  0  0
  9 14  1  0  0  0  0
 10 11  1  0  0  0  0
 10  9  2  0  0  0  0
 11 12  2  0  0  0  0
 12 40  1  0  0  0  0
 12 13  1  0  0  0  0
 13 41  1  0  0  0  0
 14 13  2  0  0  0  0
 14  8  1  0  0  0  0
 15 21  1  0  0  0  0
 16 21  2  0  0  0  0
 16 17  1  0  0  0  0
 17 18  2  0  0  0  0
 18 19  1  0  0  0  0
 18 44  1  0  0  0  0
 19 45  1  0  0  0  0
 20 46  1  0  0  0  0
 20 19  2  0  0  0  0
 21 20  1  0  0  0  0
 22 28  1  0  0  0  0
 22 15  2  0  0  0  0
 23 24  2  0  0  0  0
 23 28  1  0  0  0  0
 24 25  1  0  0  0  0
 25 49  1  0  0  0  0
 25 26  2  0  0  0  0
 26 50  1  0  0  0  0
 27 26  1  0  0  0  0
 27 51  1  0  0  0  0
 28 27  2  0  0  0  0
 29 22  1  0  0  0  0
 30 29  2  0  0  0  0
 35  5  1  0  0  0  0
 36  6  1  0  0  0  0
 37  9  1  0  0  0  0
 38 10  1  0  0  0  0
 39 11  1  0  0  0  0
 42 16  1  0  0  0  0
 43 17  1  0  0  0  0
 47 23  1  0  0  0  0
 48 24  1  0  0  0  0
M  END
