4,19
q = -2.0, confidence = 0.93

 46 50  0  0  1  0  0  0  0  0999 V2000
   -1.0722    2.0658   -1.3956 Si  0  0  0  0  0  0  0  0  0  0  0  0
    1.0722    2.0658    1.3956 Si  0  0  0  0  0  0  0  0  0  0  0  0
   -1.5581    1.2383    0.2326 C   0  0  2  0  0  3  0  0  0  0  0  0
   -0.6577    1.2634    1.3843 C   0  0  1  0  0  3  0  0  0  0  0  0
   -0.9752    0.1480    2.2150 C   0  0  0  0  0  3  0  0  0  0  0  0
   -0.4505   -0.1419    3.1331 H   0  0  0  0  0  0  0  0  0  0  0  0
   -2.0994   -0.5523    1.6571 C   0  0  0  0  0  0  0  0  0  0  0  0
   -2.7895   -1.7293    2.0662 C   0  0  0  0  0  0  0  0  0  0  0  0
   -2.4682   -2.2709    2.9679 H   0  0  0  0  0  0  0  0  0  0  0  0
   -3.8667   -2.1625    1.3092 C   0  0  0  0  0  0  0  0  0  0  0  0
   -4.4144   -3.0693    1.6061 H   0  0  0  0  0  0  0  0  0  0  0  0
   -4.2891   -1.4440    0.1504 C   0  0  0  0  0  0  0  0  0  0  0  0
   -5.1605   -1.8093   -0.4137 H   0  0  0  0  0  0  0  0  0  0  0  0
   -3.6252   -0.3065   -0.2823 C   0  0  0  0  0  0  0  0  0  0  0  0
   -3.9579    0.2281   -1.1820 H   0  0  0  0  0  0  0  0  0  0  0  0
   -2.4949    0.1531    0.4515 C   0  0  0  0  0  0  0  0  0  0  0  0
    0.9752    0.1480   -2.2150 C   0  0  0  0  0  3  0  0  0  0  0  0
    0.4504   -0.1420   -3.1331 H   0  0  0  0  0  0  0  0  0  0  0  0
    0.6578    1.2634   -1.3843 C   0  0  2  0  0  3  0  0  0  0  0  0
    1.5581    1.2382   -0.2326 C   0  0  2  0  0  3  0  0  0  0  0  0
    2.4949    0.1530   -0.4515 C   0  0  0  0  0  0  0  0  0  0  0  0
    3.6251   -0.3067    0.2823 C   0  0  0  0  0  0  0  0  0  0  0  0
    3.9579    0.2280    1.1820 H   0  0  0  0  0  0  0  0  0  0  0  0
    4.2890   -1.4442   -0.1504 C   0  0  0  0  0  0  0  0  0  0  0  0
    5.1604   -1.8095    0.4137 H   0  0  0  0  0  0  0  0  0  0  0  0
    3.8666   -2.1626   -1.3092 C   0  0  0  0  0  0  0  0  0  0  0  0
    4.4142   -3.0695   -1.6060 H   0  0  0  0  0  0  0  0  0  0  0  0
    2.7894   -1.7295   -2.0662 C   0  0  0  0  0  0  0  0  0  0  0  0
    2.4681   -2.2710   -2.9678 H   0  0  0  0  0  0  0  0  0  0  0  0
    2.0994   -0.5524   -1.6571 C   0  0  0  0  0  0  0  0  0  0  0  0
   -2.0238    1.3909   -2.8770 C   0  0  0  0  0  0  0  0  0  0  0  0
   -3.0622    1.7793   -2.8908 H   0  0  0  0  0  0  0  0  0  0  0  0
   -2.0600    0.2837   -2.8727 H   0  0  0  0  0  0  0  0  0  0  0  0
   -1.5341    1.7222   -3.8161 H   0  0  0  0  0  0  0  0  0  0  0  0
   -1.1601    3.9499   -1.4131 C   0  0  0  0  0  0  0  0  0  0  0  0
   -0.4894    4.3696   -2.1904 H   0  0  0  0  0  0  0  0  0  0  0  0
   -0.8985    4.4014   -0.4392 H   0  0  0  0  0  0  0  0  0  0  0  0
   -2.1988    4.2542   -1.6568 H   0  0  0  0  0  0  0  0  0  0  0  0
    2.0239    1.3908    2.8770 C   0  0  0  0  0  0  0  0  0  0  0  0
    3.0623    1.7792    2.8908 H   0  0  0  0  0  0  0  0  0  0  0  0
    2.0601    0.2837    2.8727 H   0  0  0  0  0  0  0  0  0  0  0  0
    1.5341    1.7221    3.8161 H   0  0  0  0  0  0  0  0  0  0  0  0
    1.1603    3.9498    1.4132 C   0  0  0  0  0  0  0  0  0  0  0  0
    0.8962    4.4016    0.4401 H   0  0  0  0  0  0  0  0  0  0  0  0
    2.1998    4.2540    1.6542 H   0  0  0  0  0  0  0  0  0  0  0  0
    0.4918    4.3694    2.1923 H   0  0  0  0  0  0  0  0  0  0  0  0
  1 19  1  0  0  0  0
  1  3  1  0  0  0  0
  2 43  1  0  0  0  0
  2 39  1  0  0  0  0
  3 16  1  6  0  0  0
  3  4  1  0  0  0  0
  4  2  1  0  0  0  0
  4  5  1  6  0  0  0
  5  6  1  0  0  0  0
  7  8  1  0  0  0  0
  7  5  1  0  0  0  0
  8  9  1  0  0  0  0
 10 11  1  0  0  0  0
 10  8  2  0  0  0  0
 12 10  1  0  0  0  0
 13 12  1  0  0  0  0
 14 12  2  0  0  0  0
 14 16  1  0  0  0  0
 15 14  1  0  0  0  0
 16  7  2  0  0  0  0
 17 30  1  0  0  0  0
 18 17  1  0  0  0  0
 19 17  1  1  0  0  0
 19 20  1  0  0  0  0
 20 21  1  1  0  0  0
 20  2  1  0  0  0  0
 21 22  1  0  0  0  0
 22 23  1  0  0  0  0
 24 22  2  0  0  0  0
 24 25  1  0  0  0  0
 26 24  1  0  0  0  0
 27 26  1  0  0  0  0
 28 30  1  0  0  0  0
 28 26  2  0  0  0  0
 29 28  1  0  0  0  0
 30 21  2  0  0  0  0
 31 33  1  0  0  0  0
 31  1  1  0  0  0  0
 32 31  1  0  0  0  0
 34 31  1  0  0  0  0
 35  1  1  0  0  0  0
 35 37  1  0  0  0  0
 36 35  1  0  0  0  0
 38 35  1  0  0  0  0
 39 40  1  0  0  0  0
 39 42  1  0  0  0  0
 41 39  1  0  0  0  0
 43 45  1  0  0  0  0
 43 46  1  0  0  0  0
 44 43  1  0  0  0  0
M  END
