2,4
q = -1.0, confidence = 0.01

 18 17  0  0  1  0  0  0  0  0999 V2000
    1.9145   -1.3465    1.4963 C   0  0  0  0  0  3  0  0  0  0  0  0
    2.5655   -1.2356    0.2249 C   0  0  1  0  0  3  0  0  0  0  0  0
    2.8930    0.0281   -0.3502 C   0  0  0  0  0  3  0  0  0  0  0  0
    2.5385    1.3010    0.1891 C   0  0  1  0  0  3  0  0  0  0  0  0
    1.8882    1.4445    1.4592 C   0  0  0  0  0  3  0  0  0  0  0  0
    2.9827   -2.4706   -0.5454 C   0  0  0  0  0  0  0  0  0  0  0  0
    2.9286    2.5099   -0.6386 C   0  0  0  0  0  0  0  0  0  0  0  0
    1.5610   -2.3633    1.7444 H   0  0  0  0  0  0  0  0  0  0  0  0
    2.3009   -0.8178    2.3803 H   0  0  0  0  0  0  0  0  0  0  0  0
    3.3489    0.0191   -1.3552 H   0  0  0  0  0  0  0  0  0  0  0  0
    1.5188    2.4654    1.6647 H   0  0  0  0  0  0  0  0  0  0  0  0
    2.2773    0.9546    2.3650 H   0  0  0  0  0  0  0  0  0  0  0  0
    2.2930   -3.3225   -0.3910 H   0  0  0  0  0  0  0  0  0  0  0  0
    3.0846   -2.2858   -1.6333 H   0  0  0  0  0  0  0  0  0  0  0  0
    3.9751   -2.8027   -0.1701 H   0  0  0  0  0  0  0  0  0  0  0  0
    2.4445    3.4335   -0.2734 H   0  0  0  0  0  0  0  0  0  0  0  0
    4.0247    2.6670   -0.5405 H   0  0  0  0  0  0  0  0  0  0  0  0
    2.7123    2.3914   -1.7209 H   0  0  0  0  0  0  0  0  0  0  0  0
  1  8  1  0  0  0  0
  1  9  1  0  0  0  0
  2  3  1  1  0  0  0
  2  1  1  0  0  0  0
  4  3  1  1  0  0  0
  4  5  1  0  0  0  0
  5 11  1  0  0  0  0
  5 12  1  0  0  0  0
  6 13  1  0  0  0  0
  6 15  1  0  0  0  0
  6  2  1  0  0  0  0
  7 17  1  0  0  0  0
  7 16  1  0  0  0  0
  7  4  1  0  0  0  0
 10  3  1  0  0  0  0
 14  6  1  0  0  0  0
 18  7  1  0  0  0  0
M  END
