1,4
q = -1.0

 15 14  0  0  1  0  0  0  0  0999 V2000
    2.3598   -1.8976    0.4473 C   0  0  0  0  0  3  0  0  0  0  0  0
    3.1339   -2.3084    1.2582 O   0  0  0  0  0  0  0  0  0  0  0  0
    1.0684    0.2961   -2.2952 C   0  0  0  0  0  3  0  0  0  0  0  0
    0.1020   -0.7495   -2.0019 C   0  0  1  0  0  3  0  0  0  0  0  0
    0.7341   -1.9075   -1.4974 C   0  0  0  0  0  2  0  0  0  0  0  0
    1.6152   -2.3947   -0.7056 C   0  0  0  0  0  2  0  0  0  0  0  0
   -1.3652   -0.5599   -2.0941 C   0  0  0  0  0  0  0  0  0  0  0  0
   -2.0286   -1.7213   -1.8556 O   0  0  0  0  0  0  0  0  0  0  0  0
   -1.9190    0.5068   -2.3119 O   0  0  0  0  0  0  0  0  0  0  0  0
   -3.4558   -1.6205   -1.8533 C   0  0  0  0  0  0  0  0  0  0  0  0
    1.9587    0.0158   -2.8794 H   0  0  0  0  0  0  0  0  0  0  0  0
    0.6244    1.2726   -2.5550 H   0  0  0  0  0  0  0  0  0  0  0  0
   -3.8339   -2.6475   -1.7049 H   0  0  0  0  0  0  0  0  0  0  0  0
   -3.8261   -1.2043   -2.8115 H   0  0  0  0  0  0  0  0  0  0  0  0
   -3.8017   -0.9632   -1.0292 H   0  0  0  0  0  0  0  0  0  0  0  0
  1  2  2  0  0  0  0
  3  4  1  0  0  0  0
  4  5  1  1  0  0  0
  5  6  1  0  0  0  0
  6  1  1  0  0  0  0
  7  4  1  0  0  0  0
  7  8  1  0  0  0  0
  8 10  1  0  0  0  0
  9  7  2  0  0  0  0
 10 13  1  0  0  0  0
 10 15  1  0  0  0  0
 11  3  1  0  0  0  0
 12  3  1  0  0  0  0
 14 10  1  0  0  0  0
M  END
