15,39
q = 0.0, confidence = 0.992

 45 48  0  0  1  0  0  0  0  0999 V2000
   -0.0964   -1.7716    3.1482 C   0  0  0  0  0  0  0  0  0  0  0  0
    0.0916   -2.4509    4.0067 H   0  0  0  0  0  0  0  0  0  0  0  0
   -1.1732   -1.8575    2.8976 H   0  0  0  0  0  0  0  0  0  0  0  0
    0.2155   -0.3252    3.6127 C   0  0  0  0  0  0  0  0  0  0  0  0
   -0.3573   -0.1364    4.5449 H   0  0  0  0  0  0  0  0  0  0  0  0
    1.2881   -0.2632    3.8901 H   0  0  0  0  0  0  0  0  0  0  0  0
   -0.1046    0.7869    2.6330 C   0  0  1  0  0  3  0  0  0  0  0  0
   -1.4306    1.2421    2.4684 C   0  0  0  0  0  0  0  0  0  0  0  0
   -2.2519    0.7190    2.9812 H   0  0  0  0  0  0  0  0  0  0  0  0
   -1.7095    2.3589    1.6689 C   0  0  0  0  0  0  0  0  0  0  0  0
   -2.7507    2.6842    1.5333 H   0  0  0  0  0  0  0  0  0  0  0  0
   -0.6721    3.0640    1.0432 C   0  0  0  0  0  0  0  0  0  0  0  0
   -0.9042    3.9592    0.4462 H   0  0  0  0  0  0  0  0  0  0  0  0
    0.6658    2.6411    1.1693 C   0  0  0  0  0  0  0  0  0  0  0  0
    0.9285    1.4699    1.9322 C   0  0  0  0  0  3  0  0  0  0  0  0
    1.9752    1.1602    2.0916 H   0  0  0  0  0  0  0  0  0  0  0  0
    1.7947    3.4633    0.5804 C   0  0  0  0  0  0  0  0  0  0  0  0
    1.6009    4.5315    0.8138 H   0  0  0  0  0  0  0  0  0  0  0  0
    2.7417    3.2000    1.0953 H   0  0  0  0  0  0  0  0  0  0  0  0
    2.0099    3.3443   -0.9512 C   0  0  0  0  0  0  0  0  0  0  0  0
    1.0781    3.6300   -1.4802 H   0  0  0  0  0  0  0  0  0  0  0  0
    2.7856    4.0847   -1.2417 H   0  0  0  0  0  0  0  0  0  0  0  0
    2.4296    1.9580   -1.3735 C   0  0  0  0  0  0  0  0  0  0  0  0
    1.5569    1.1333   -2.1201 C   0  0  0  0  0  0  0  0  0  0  0  0
    0.6169    1.5484   -2.5161 H   0  0  0  0  0  0  0  0  0  0  0  0
    1.8643   -0.2242   -2.3465 C   0  0  0  0  0  0  0  0  0  0  0  0
    1.1423   -0.8469   -2.8979 H   0  0  0  0  0  0  0  0  0  0  0  0
    3.0375   -0.7980   -1.8101 C   0  0  0  0  0  0  0  0  0  0  0  0
    3.9549    0.0539   -1.1655 C   0  0  0  0  0  0  0  0  0  0  0  0
    4.8908   -0.3652   -0.7629 H   0  0  0  0  0  0  0  0  0  0  0  0
    3.6590    1.4086   -0.9561 C   0  0  0  0  0  0  0  0  0  0  0  0
    4.3800    2.0403   -0.4127 H   0  0  0  0  0  0  0  0  0  0  0  0
    3.1328   -2.3089   -1.6439 C   0  0  0  0  0  0  0  0  0  0  0  0
    2.6952   -2.8363   -2.5147 H   0  0  0  0  0  0  0  0  0  0  0  0
    4.1856   -2.6336   -1.5268 H   0  0  0  0  0  0  0  0  0  0  0  0
    2.3255   -2.5752   -0.3812 C   0  0  2  0  0  3  0  0  0  0  0  0
    0.9168   -2.6038   -0.4569 C   0  0  0  0  0  3  0  0  0  0  0  0
    0.4021   -2.7264   -1.4214 H   0  0  0  0  0  0  0  0  0  0  0  0
    0.1275   -2.3940    0.6956 C   0  0  0  0  0  3  0  0  0  0  0  0
   -0.9688   -2.4190    0.6009 H   0  0  0  0  0  0  0  0  0  0  0  0
    0.7333   -2.1904    1.9604 C   0  0  0  0  0  0  0  0  0  0  0  0
    2.1363   -2.3024    2.0438 C   0  0  0  0  0  0  0  0  0  0  0  0
    2.6327   -2.1945    3.0215 H   0  0  0  0  0  0  0  0  0  0  0  0
    2.9183   -2.4843    0.8930 C   0  0  0  0  0  3  0  0  0  0  0  0
    4.0166   -2.4889    0.9803 H   0  0  0  0  0  0  0  0  0  0  0  0
  1  4  1  0  0  0  0
  1  2  1  0  0  0  0
  3  1  1  0  0  0  0
  4  6  1  0  0  0  0
  4  5  1  0  0  0  0
  7 15  1  1  0  0  0
  7  4  1  0  0  0  0
  8  7  1  0  0  0  0
  8  9  1  0  0  0  0
 10  8  2  0  0  0  0
 11 10  1  0  0  0  0
 12 14  2  0  0  0  0
 12 10  1  0  0  0  0
 13 12  1  0  0  0  0
 14 15  1  0  0  0  0
 15 16  1  0  0  0  0
 17 18  1  0  0  0  0
 17 19  1  0  0  0  0
 17 14  1  0  0  0  0
 20 17  1  0  0  0  0
 21 20  1  0  0  0  0
 22 20  1  0  0  0  0
 23 31  1  0  0  0  0
 23 20  1  0  0  0  0
 24 23  2  0  0  0  0
 25 24  1  0  0  0  0
 26 24  1  0  0  0  0
 26 28  2  0  0  0  0
 27 26  1  0  0  0  0
 28 33  1  0  0  0  0
 28 29  1  0  0  0  0
 29 31  2  0  0  0  0
 29 30  1  0  0  0  0
 31 32  1  0  0  0  0
 33 35  1  0  0  0  0
 33 36  1  0  0  0  0
 34 33  1  0  0  0  0
 36 37  1  1  0  0  0
 36 44  1  0  0  0  0
 37 39  1  0  0  0  0
 38 37  1  0  0  0  0
 39 41  1  0  0  0  0
 40 39  1  0  0  0  0
 41 42  2  0  0  0  0
 41  1  1  0  0  0  0
 42 43  1  0  0  0  0
 44 45  1  0  0  0  0
 44 42  1  0  0  0  0
M  END
