2,4
q = -1.0

 52 55  0  0  0  0  0  0  0  0999 V2000
    1.0023    0.6276    0.1005 P   0  0  0  0  0  4  0  0  0  0  0  0
   -0.5637    1.1542    0.7959 C   0  0  0  0  0  3  0  0  0  0  0  0
   -0.5695    0.7982    1.8479 H   0  0  0  0  0  0  0  0  0  0  0  0
    0.5657   -1.0383   -0.4094 C   0  0  0  0  0  3  0  0  0  0  0  0
    0.7810   -1.1825   -1.4829 H   0  0  0  0  0  0  0  0  0  0  0  0
    1.5193    1.6990   -1.3110 C   0  0  0  0  0  0  0  0  0  0  0  0
    0.6416    1.7261   -1.9886 H   0  0  0  0  0  0  0  0  0  0  0  0
    1.6819    2.7015   -0.8664 H   0  0  0  0  0  0  0  0  0  0  0  0
    2.4193    0.7274    1.2582 C   0  0  0  0  0  0  0  0  0  0  0  0
    2.4306    1.7273    2.2510 C   0  0  0  0  0  0  0  0  0  0  0  0
    1.5778    2.4183    2.3446 H   0  0  0  0  0  0  0  0  0  0  0  0
    3.5320    1.8439    3.1124 C   0  0  0  0  0  0  0  0  0  0  0  0
    3.5423    2.6273    3.8855 H   0  0  0  0  0  0  0  0  0  0  0  0
    4.6179    0.9612    2.9876 C   0  0  0  0  0  0  0  0  0  0  0  0
    5.4789    1.0506    3.6675 H   0  0  0  0  0  0  0  0  0  0  0  0
    4.6055   -0.0367    1.9994 C   0  0  0  0  0  0  0  0  0  0  0  0
    5.4553   -0.7291    1.9022 H   0  0  0  0  0  0  0  0  0  0  0  0
    3.5097   -0.1571    1.1328 C   0  0  0  0  0  0  0  0  0  0  0  0
    3.4976   -0.9396    0.3600 H   0  0  0  0  0  0  0  0  0  0  0  0
    0.9797   -2.2001    0.4071 C   0  0  0  0  0  0  0  0  0  0  0  0
    1.3362   -3.4101   -0.2376 C   0  0  0  0  0  0  0  0  0  0  0  0
    1.3177   -3.4474   -1.3381 H   0  0  0  0  0  0  0  0  0  0  0  0
    1.7039   -4.5468    0.4954 C   0  0  0  0  0  0  0  0  0  0  0  0
    1.9722   -5.4729   -0.0363 H   0  0  0  0  0  0  0  0  0  0  0  0
    1.7331   -4.5085    1.8990 C   0  0  0  0  0  0  0  0  0  0  0  0
    2.0236   -5.3992    2.4760 H   0  0  0  0  0  0  0  0  0  0  0  0
    1.3920   -3.3142    2.5570 C   0  0  0  0  0  0  0  0  0  0  0  0
    1.4165   -3.2643    3.6567 H   0  0  0  0  0  0  0  0  0  0  0  0
    1.0197   -2.1803    1.8237 C   0  0  0  0  0  0  0  0  0  0  0  0
    0.7534   -1.2579    2.3608 H   0  0  0  0  0  0  0  0  0  0  0  0
   -1.0395    2.5651    0.7201 C   0  0  0  0  0  0  0  0  0  0  0  0
   -1.1651    3.3285    1.9066 C   0  0  0  0  0  0  0  0  0  0  0  0
   -0.8932    2.8671    2.8706 H   0  0  0  0  0  0  0  0  0  0  0  0
   -1.6369    4.6489    1.8789 C   0  0  0  0  0  0  0  0  0  0  0  0
   -1.7282    5.2159    2.8184 H   0  0  0  0  0  0  0  0  0  0  0  0
   -1.9948    5.2431    0.6586 C   0  0  0  0  0  0  0  0  0  0  0  0
   -2.3654    6.2791    0.6322 H   0  0  0  0  0  0  0  0  0  0  0  0
   -1.8887    4.4944   -0.5260 C   0  0  0  0  0  0  0  0  0  0  0  0
   -2.1857    4.9416   -1.4874 H   0  0  0  0  0  0  0  0  0  0  0  0
   -1.4270    3.1710   -0.4991 C   0  0  0  0  0  0  0  0  0  0  0  0
   -1.4021    2.5700   -1.4221 H   0  0  0  0  0  0  0  0  0  0  0  0
    2.7420    1.1627   -2.0054 C   0  0  0  0  0  0  0  0  0  0  0  0
    4.0390    1.5373   -1.5977 C   0  0  0  0  0  0  0  0  0  0  0  0
    4.1605    2.2592   -0.7753 H   0  0  0  0  0  0  0  0  0  0  0  0
    5.1695    0.9959   -2.2274 C   0  0  0  0  0  0  0  0  0  0  0  0
    6.1751    1.3006   -1.8994 H   0  0  0  0  0  0  0  0  0  0  0  0
    5.0189    0.0688   -3.2708 C   0  0  0  0  0  0  0  0  0  0  0  0
    5.9061   -0.3573   -3.7637 H   0  0  0  0  0  0  0  0  0  0  0  0
    3.7311   -0.3048   -3.6886 C   0  0  0  0  0  0  0  0  0  0  0  0
    3.6054   -1.0214   -4.5148 H   0  0  0  0  0  0  0  0  0  0  0  0
    2.5994    0.2376   -3.0627 C   0  0  0  0  0  0  0  0  0  0  0  0
    1.5849   -0.0373   -3.3937 H   0  0  0  0  0  0  0  0  0  0  0  0
  1  2  1  0  0  0  0
  1  9  1  0  0  0  0
  2  3  1  0  0  0  0
  4  1  1  0  0  0  0
  4 20  1  0  0  0  0
  5  4  1  0  0  0  0
  6  8  1  0  0  0  0
  6  1  1  0  0  0  0
  7  6  1  0  0  0  0
  9 10  1  0  0  0  0
 10 11  1  0  0  0  0
 10 12  2  0  0  0  0
 12 13  1  0  0  0  0
 14 12  1  0  0  0  0
 14 15  1  0  0  0  0
 16 14  2  0  0  0  0
 17 16  1  0  0  0  0
 18  9  2  0  0  0  0
 18 16  1  0  0  0  0
 19 18  1  0  0  0  0
 20 29  1  0  0  0  0
 21 20  2  0  0  0  0
 21 23  1  0  0  0  0
 22 21  1  0  0  0  0
 23 25  2  0  0  0  0
 24 23  1  0  0  0  0
 25 26  1  0  0  0  0
 25 27  1  0  0  0  0
 27 28  1  0  0  0  0
 29 30  1  0  0  0  0
 29 27  2  0  0  0  0
 31  2  1  0  0  0  0
 31 32  1  0  0  0  0
 32 33  1  0  0  0  0
 34 32  2  0  0  0  0
 34 35  1  0  0  0  0
 36 34  1  0  0  0  0
 37 36  1  0  0  0  0
 38 40  1  0  0  0  0
 38 36  2  0  0  0  0
 39 38  1  0  0  0  0
 40 31  2  0  0  0  0
 41 40  1  0  0  0  0
 42 43  1  0  0  0  0
 42  6  1  0  0  0  0
 43 44  1  0  0  0  0
 45 46  1  0  0  0  0
 45 43  2  0  0  0  0
 47 45  1  0  0  0  0
 48 47  1  0  0  0  0
 49 47  2  0  0  0  0
 49 51  1  0  0  0  0
 50 49  1  0  0  0  0
 51 42  2  0  0  0  0
 52 51  1  0  0  0  0
M  END
