1,23
q = 0.0, confidence = 0.984

 44 45  0  0  0  0  0  0  0  0999 V2000
    1.2744   -0.4884   -0.0279 C   0  0  0  0  0  2  0  0  0  0  0  0
    0.7003   -1.7308    0.0467 N   0  0  0  0  0  0  0  0  0  0  0  0
    1.1392   -2.5333   -0.4236 H   0  0  0  0  0  0  0  0  0  0  0  0
    2.5863   -0.3848   -0.1852 N   0  0  0  0  0  0  0  0  0  0  0  0
    2.8917    0.6181   -0.1805 H   0  0  0  0  0  0  0  0  0  0  0  0
    3.5719   -1.4587   -0.2520 C   0  0  0  0  0  0  0  0  0  0  0  0
    3.1512   -2.2787   -0.8872 H   0  0  0  0  0  0  0  0  0  0  0  0
    4.8439   -0.9491   -0.9425 C   0  0  0  0  0  0  0  0  0  0  0  0
    5.2288   -0.0823   -0.3597 H   0  0  0  0  0  0  0  0  0  0  0  0
    4.5901   -0.5649   -1.9518 H   0  0  0  0  0  0  0  0  0  0  0  0
    5.9179   -2.0408   -1.0178 C   0  0  0  0  0  0  0  0  0  0  0  0
    5.5651   -2.8550   -1.6904 H   0  0  0  0  0  0  0  0  0  0  0  0
    6.8367   -1.6312   -1.4853 H   0  0  0  0  0  0  0  0  0  0  0  0
    6.2291   -2.6265    0.3658 C   0  0  0  0  0  0  0  0  0  0  0  0
    6.6939   -1.8388    1.0000 H   0  0  0  0  0  0  0  0  0  0  0  0
    6.9774   -3.4414    0.2807 H   0  0  0  0  0  0  0  0  0  0  0  0
    4.9566   -3.1379    1.0539 C   0  0  0  0  0  0  0  0  0  0  0  0
    5.1867   -3.5214    2.0693 H   0  0  0  0  0  0  0  0  0  0  0  0
    4.5524   -4.0030    0.4802 H   0  0  0  0  0  0  0  0  0  0  0  0
    3.8874   -2.0418    1.1398 C   0  0  0  0  0  0  0  0  0  0  0  0
    2.9566   -2.4237    1.6081 H   0  0  0  0  0  0  0  0  0  0  0  0
    4.2446   -1.2087    1.7837 H   0  0  0  0  0  0  0  0  0  0  0  0
   -1.2744   -0.4884    0.0280 C   0  0  0  0  0  2  0  0  0  0  0  0
   -0.7004   -1.7308   -0.0466 N   0  0  0  0  0  0  0  0  0  0  0  0
   -1.1393   -2.5333    0.4237 H   0  0  0  0  0  0  0  0  0  0  0  0
   -2.5863   -0.3848    0.1852 N   0  0  0  0  0  0  0  0  0  0  0  0
   -2.8917    0.6181    0.1804 H   0  0  0  0  0  0  0  0  0  0  0  0
   -3.5719   -1.4587    0.2520 C   0  0  0  0  0  0  0  0  0  0  0  0
   -3.1512   -2.2786    0.8872 H   0  0  0  0  0  0  0  0  0  0  0  0
   -4.8440   -0.9490    0.9424 C   0  0  0  0  0  0  0  0  0  0  0  0
   -5.2288   -0.0823    0.3595 H   0  0  0  0  0  0  0  0  0  0  0  0
   -4.5901   -0.5648    1.9517 H   0  0  0  0  0  0  0  0  0  0  0  0
   -5.9179   -2.0407    1.0177 C   0  0  0  0  0  0  0  0  0  0  0  0
   -5.5651   -2.8549    1.6904 H   0  0  0  0  0  0  0  0  0  0  0  0
   -6.8368   -1.6312    1.4851 H   0  0  0  0  0  0  0  0  0  0  0  0
   -6.2291   -2.6265   -0.3659 C   0  0  0  0  0  0  0  0  0  0  0  0
   -6.6938   -1.8389   -1.0001 H   0  0  0  0  0  0  0  0  0  0  0  0
   -6.9774   -3.4414   -0.2807 H   0  0  0  0  0  0  0  0  0  0  0  0
   -4.9565   -3.1379   -1.0539 C   0  0  0  0  0  0  0  0  0  0  0  0
   -5.1867   -3.5215   -2.0692 H   0  0  0  0  0  0  0  0  0  0  0  0
   -4.5524   -4.0031   -0.4801 H   0  0  0  0  0  0  0  0  0  0  0  0
   -3.8874   -2.0419   -1.1398 C   0  0  0  0  0  0  0  0  0  0  0  0
   -2.9566   -2.4237   -1.6080 H   0  0  0  0  0  0  0  0  0  0  0  0
   -4.2445   -1.2088   -1.7837 H   0  0  0  0  0  0  0  0  0  0  0  0
  1  2  1  0  0  0  0
  3  2  1  0  0  0  0
  4  5  1  0  0  0  0
  4  1  1  0  0  0  0
  6  4  1  0  0  0  0
  6 20  1  0  0  0  0
  7  6  1  0  0  0  0
  8  9  1  0  0  0  0
  8  6  1  0  0  0  0
 10  8  1  0  0  0  0
 11  8  1  0  0  0  0
 11 14  1  0  0  0  0
 12 11  1  0  0  0  0
 13 11  1  0  0  0  0
 14 15  1  0  0  0  0
 14 17  1  0  0  0  0
 16 14  1  0  0  0  0
 17 20  1  0  0  0  0
 17 18  1  0  0  0  0
 19 17  1  0  0  0  0
 20 21  1  0  0  0  0
 20 22  1  0  0  0  0
 23 26  1  0  0  0  0
 24 23  1  0  0  0  0
 24  2  1  0  0  0  0
 24 25  1  0  0  0  0
 26 28  1  0  0  0  0
 27 26  1  0  0  0  0
 28 29  1  0  0  0  0
 28 30  1  0  0  0  0
 30 33  1  0  0  0  0
 30 32  1  0  0  0  0
 31 30  1  0  0  0  0
 33 35  1  0  0  0  0
 33 34  1  0  0  0  0
 36 38  1  0  0  0  0
 36 33  1  0  0  0  0
 37 36  1  0  0  0  0
 39 41  1  0  0  0  0
 39 36  1  0  0  0  0
 40 39  1  0  0  0  0
 42 39  1  0  0  0  0
 42 28  1  0  0  0  0
 43 42  1  0  0  0  0
 44 42  1  0  0  0  0
M  END
