18,19
q = -1.0

 29 28  0  0  0  0  0  0  0  0999 V2000
   -2.6167   -1.3675   -0.1849 N   0  0  0  0  0  0  0  0  0  0  0  0
   -3.0342   -0.4538   -0.0204 H   0  0  0  0  0  0  0  0  0  0  0  0
   -0.7251   -2.6708   -0.0309 N   0  0  0  0  0  0  0  0  0  0  0  0
    0.6456   -2.5955    0.0287 N   0  0  0  0  0  0  0  0  0  0  0  0
    1.1117   -3.5076    0.0529 H   0  0  0  0  0  0  0  0  0  0  0  0
    2.6399   -1.3968    0.1912 N   0  0  0  0  0  0  0  0  0  0  0  0
    3.0707   -0.4726    0.1867 H   0  0  0  0  0  0  0  0  0  0  0  0
   -3.7780   -3.1046    1.1579 C   0  0  0  0  0  0  0  0  0  0  0  0
   -2.8208   -3.4072    1.6238 H   0  0  0  0  0  0  0  0  0  0  0  0
   -4.4286   -3.9996    1.0932 H   0  0  0  0  0  0  0  0  0  0  0  0
   -4.2781   -2.3649    1.8175 H   0  0  0  0  0  0  0  0  0  0  0  0
   -4.8204   -2.0880   -0.9371 C   0  0  0  0  0  0  0  0  0  0  0  0
   -4.6175   -1.6966   -1.9538 H   0  0  0  0  0  0  0  0  0  0  0  0
   -5.3474   -1.3009   -0.3548 H   0  0  0  0  0  0  0  0  0  0  0  0
   -5.5159   -2.9444   -1.0295 H   0  0  0  0  0  0  0  0  0  0  0  0
   -3.5312   -2.5164   -0.2370 C   0  0  0  0  0  0  0  0  0  0  0  0
   -3.0110   -3.2825   -0.8497 H   0  0  0  0  0  0  0  0  0  0  0  0
   -1.2693   -1.4757   -0.0527 C   0  0  0  0  0  3  0  0  0  0  0  0
    1.2977   -1.4275    0.0898 C   0  0  0  0  0  2  0  0  0  0  0  0
    3.5533   -2.5505    0.2034 C   0  0  0  0  0  0  0  0  0  0  0  0
    3.0721   -3.3330    0.8347 H   0  0  0  0  0  0  0  0  0  0  0  0
    3.7753   -3.1092   -1.2091 C   0  0  0  0  0  0  0  0  0  0  0  0
    2.8197   -3.3761   -1.7022 H   0  0  0  0  0  0  0  0  0  0  0  0
    4.4070   -4.0184   -1.1720 H   0  0  0  0  0  0  0  0  0  0  0  0
    4.2870   -2.3602   -1.8469 H   0  0  0  0  0  0  0  0  0  0  0  0
    4.8574   -2.1367    0.8843 C   0  0  0  0  0  0  0  0  0  0  0  0
    4.6778   -1.7744    1.9157 H   0  0  0  0  0  0  0  0  0  0  0  0
    5.3629   -1.3329    0.3072 H   0  0  0  0  0  0  0  0  0  0  0  0
    5.5562   -2.9931    0.9365 H   0  0  0  0  0  0  0  0  0  0  0  0
  1 18  1  0  0  0  0
  1  2  1  0  0  0  0
  3  4  1  0  0  0  0
  4  5  1  0  0  0  0
  4 19  1  0  0  0  0
  6 20  1  0  0  0  0
  7  6  1  0  0  0  0
  8  9  1  0  0  0  0
  8 11  1  0  0  0  0
 10  8  1  0  0  0  0
 12 14  1  0  0  0  0
 12 16  1  0  0  0  0
 13 12  1  0  0  0  0
 15 12  1  0  0  0  0
 16  1  1  0  0  0  0
 16  8  1  0  0  0  0
 17 16  1  0  0  0  0
 18  3  2  0  0  0  0
 19  6  1  0  0  0  0
 20 21  1  0  0  0  0
 20 26  1  0  0  0  0
 22 24  1  0  0  0  0
 22 20  1  0  0  0  0
 23 22  1  0  0  0  0
 25 22  1  0  0  0  0
 26 29  1  0  0  0  0
 26 27  1  0  0  0  0
 28 26  1  0  0  0  0
M  END
