2,8
q = 0.0, confidence = 0.982

 18 18  0  0  0  0  0  0  0  0999 V2000
    2.8120   -1.6482    0.2371 C   0  0  0  0  0  0  0  0  0  0  0  0
    2.8114   -0.7190    1.3309 C   0  0  0  0  0  3  0  0  0  0  0  0
    3.5129    0.1290    1.3028 H   0  0  0  0  0  0  0  0  0  0  0  0
    1.9890   -0.8955    2.4883 C   0  0  0  0  0  0  0  0  0  0  0  0
    2.0807   -0.2034    3.3367 H   0  0  0  0  0  0  0  0  0  0  0  0
    1.0568   -1.9558    2.5239 C   0  0  0  0  0  0  0  0  0  0  0  0
    0.4036   -2.1048    3.3948 H   0  0  0  0  0  0  0  0  0  0  0  0
    0.9628   -2.8189    1.3899 C   0  0  0  0  0  3  0  0  0  0  0  0
    0.2133   -3.6238    1.3887 H   0  0  0  0  0  0  0  0  0  0  0  0
    1.8609   -2.7023    0.2848 C   0  0  0  0  0  0  0  0  0  0  0  0
    1.8095   -3.4258   -0.5412 H   0  0  0  0  0  0  0  0  0  0  0  0
    3.8223   -1.5456   -0.8767 C   0  0  0  0  0  0  0  0  0  0  0  0
    3.3773   -1.9516   -1.8083 H   0  0  0  0  0  0  0  0  0  0  0  0
    4.0421   -0.4753   -1.0731 H   0  0  0  0  0  0  0  0  0  0  0  0
    5.1250   -2.2899   -0.5443 C   0  0  0  0  0  0  0  0  0  0  0  0
    5.5997   -1.8828    0.3710 H   0  0  0  0  0  0  0  0  0  0  0  0
    5.8520   -2.1981   -1.3748 H   0  0  0  0  0  0  0  0  0  0  0  0
    4.9372   -3.3687   -0.3729 H   0  0  0  0  0  0  0  0  0  0  0  0
  1 10  2  0  0  0  0
  1  2  1  0  0  0  0
  2  4  1  0  0  0  0
  3  2  1  0  0  0  0
  4  6  2  0  0  0  0
  4  5  1  0  0  0  0
  6  7  1  0  0  0  0
  8  6  1  0  0  0  0
  9  8  1  0  0  0  0
 10  8  1  0  0  0  0
 11 10  1  0  0  0  0
 12 15  1  0  0  0  0
 12  1  1  0  0  0  0
 13 12  1  0  0  0  0
 14 12  1  0  0  0  0
 15 18  1  0  0  0  0
 15 16  1  0  0  0  0
 17 15  1  0  0  0  0
M  END
