4,21
q = -1.0

 61 64  0  0  0  0  0  0  0  0999 V2000
   -2.9293   -0.0704    0.1644 B   0  0  0  0  0  0  0  0  0  0  0  0
    2.0516   -2.9789    0.4430 N   0  0  0  0  0  0  0  0  0  0  0  0
    4.2248   -2.8965    0.3062 N   0  0  0  0  0  0  0  0  0  0  0  0
    3.1091   -2.1163    0.2087 C   0  0  0  0  0  2  0  0  0  0  0  0
    5.5874   -2.4178    0.1299 C   0  0  0  0  0  0  0  0  0  0  0  0
    5.5543   -1.3265   -0.0515 H   0  0  0  0  0  0  0  0  0  0  0  0
    6.0619   -2.9238   -0.7347 H   0  0  0  0  0  0  0  0  0  0  0  0
    6.1838   -2.6244    1.0409 H   0  0  0  0  0  0  0  0  0  0  0  0
    3.8719   -4.2153    0.5942 C   0  0  0  0  0  0  0  0  0  0  0  0
    4.6230   -5.0017    0.7127 H   0  0  0  0  0  0  0  0  0  0  0  0
    2.5026   -4.2660    0.6807 C   0  0  0  0  0  0  0  0  0  0  0  0
    1.8315   -5.1037    0.8883 H   0  0  0  0  0  0  0  0  0  0  0  0
    0.7664   -2.3882    0.3907 C   0  0  0  0  0  0  0  0  0  0  0  0
   -0.4458   -3.0534    0.6238 C   0  0  0  0  0  0  0  0  0  0  0  0
   -0.4689   -4.1255    0.8730 H   0  0  0  0  0  0  0  0  0  0  0  0
   -1.6335   -2.3116    0.5377 C   0  0  0  0  0  0  0  0  0  0  0  0
   -2.5979   -2.8098    0.7241 H   0  0  0  0  0  0  0  0  0  0  0  0
   -1.6200   -0.9260    0.2281 C   0  0  0  0  0  0  0  0  0  0  0  0
   -0.3644   -0.3010   -0.0008 C   0  0  0  0  0  0  0  0  0  0  0  0
   -0.3318    0.7729   -0.2381 H   0  0  0  0  0  0  0  0  0  0  0  0
    0.8421   -1.0044    0.0821 C   0  0  0  0  0  3  0  0  0  0  0  0
   -4.3221   -0.7771   -0.0667 C   0  0  0  0  0  0  0  0  0  0  0  0
   -4.5356   -1.6400   -1.1800 C   0  0  0  0  0  0  0  0  0  0  0  0
   -5.7919   -2.2498   -1.3647 C   0  0  0  0  0  0  0  0  0  0  0  0
   -5.9470   -2.8939   -2.2466 H   0  0  0  0  0  0  0  0  0  0  0  0
   -6.8530   -2.0588   -0.4658 C   0  0  0  0  0  0  0  0  0  0  0  0
   -6.6341   -1.2067    0.6331 C   0  0  0  0  0  0  0  0  0  0  0  0
   -7.4536   -1.0340    1.3509 H   0  0  0  0  0  0  0  0  0  0  0  0
   -5.4058   -0.5570    0.8375 C   0  0  0  0  0  0  0  0  0  0  0  0
   -5.2603    0.3643    2.0278 C   0  0  0  0  0  0  0  0  0  0  0  0
   -6.1684    0.3462    2.6611 H   0  0  0  0  0  0  0  0  0  0  0  0
   -5.0815    1.4110    1.7085 H   0  0  0  0  0  0  0  0  0  0  0  0
   -4.3983    0.0847    2.6674 H   0  0  0  0  0  0  0  0  0  0  0  0
   -8.1834   -2.7416   -0.6595 C   0  0  0  0  0  0  0  0  0  0  0  0
   -9.0247   -2.0222   -0.5812 H   0  0  0  0  0  0  0  0  0  0  0  0
   -8.3537   -3.5160    0.1188 H   0  0  0  0  0  0  0  0  0  0  0  0
   -8.2486   -3.2398   -1.6464 H   0  0  0  0  0  0  0  0  0  0  0  0
   -3.4621   -1.9082   -2.2147 C   0  0  0  0  0  0  0  0  0  0  0  0
   -2.8460   -2.7896   -1.9393 H   0  0  0  0  0  0  0  0  0  0  0  0
   -2.7544   -1.0652   -2.3283 H   0  0  0  0  0  0  0  0  0  0  0  0
   -3.9134   -2.1159   -3.2053 H   0  0  0  0  0  0  0  0  0  0  0  0
   -2.7871    1.4996    0.3107 C   0  0  0  0  0  0  0  0  0  0  0  0
   -3.2887    2.3692   -0.7052 C   0  0  0  0  0  0  0  0  0  0  0  0
   -3.0337    3.7503   -0.6358 C   0  0  0  0  0  0  0  0  0  0  0  0
   -3.4115    4.4015   -1.4417 H   0  0  0  0  0  0  0  0  0  0  0  0
   -2.3191    4.3258    0.4303 C   0  0  0  0  0  0  0  0  0  0  0  0
   -1.8739    3.4714    1.4524 C   0  0  0  0  0  0  0  0  0  0  0  0
   -1.3427    3.9010    2.3188 H   0  0  0  0  0  0  0  0  0  0  0  0
   -2.0843    2.0803    1.4068 C   0  0  0  0  0  0  0  0  0  0  0  0
   -1.5568    1.2563    2.5626 C   0  0  0  0  0  0  0  0  0  0  0  0
   -1.6999    1.7923    3.5227 H   0  0  0  0  0  0  0  0  0  0  0  0
   -0.4693    1.0630    2.4496 H   0  0  0  0  0  0  0  0  0  0  0  0
   -2.0450    0.2676    2.6440 H   0  0  0  0  0  0  0  0  0  0  0  0
   -2.0202    5.8034    0.4612 C   0  0  0  0  0  0  0  0  0  0  0  0
   -2.8004    6.3913   -0.0620 H   0  0  0  0  0  0  0  0  0  0  0  0
   -1.0543    6.0230   -0.0451 H   0  0  0  0  0  0  0  0  0  0  0  0
   -1.9356    6.1835    1.4987 H   0  0  0  0  0  0  0  0  0  0  0  0
   -4.0811    1.8428   -1.8809 C   0  0  0  0  0  0  0  0  0  0  0  0
   -4.3359    2.6581   -2.5853 H   0  0  0  0  0  0  0  0  0  0  0  0
   -5.0239    1.3613   -1.5526 H   0  0  0  0  0  0  0  0  0  0  0  0
   -3.5215    1.0724   -2.4495 H   0  0  0  0  0  0  0  0  0  0  0  0
  1 18  1  0  0  0  0
  1 42  1  0  0  0  0
  2 11  1  0  0  0  0
  3  9  1  0  0  0  0
  4  3  1  0  0  0  0
  4  2  1  0  0  0  0
  5  3  1  0  0  0  0
  5  8  1  0  0  0  0
  6  5  1  0  0  0  0
  7  5  1  0  0  0  0
  9 11  2  0  0  0  0
  9 10  1  0  0  0  0
 11 12  1  0  0  0  0
 13  2  1  0  0  0  0
 13 14  1  0  0  0  0
 14 15  1  0  0  0  0
 16 14  2  0  0  0  0
 16 17  1  0  0  0  0
 18 16  1  0  0  0  0
 19 21  1  0  0  0  0
 19 18  2  0  0  0  0
 20 19  1  0  0  0  0
 21 13  2  0  0  0  0
 22  1  1  0  0  0  0
 22 29  1  0  0  0  0
 23 22  2  0  0  0  0
 24 23  1  0  0  0  0
 24 26  2  0  0  0  0
 25 24  1  0  0  0  0
 26 27  1  0  0  0  0
 27 29  2  0  0  0  0
 27 28  1  0  0  0  0
 29 30  1  0  0  0  0
 30 31  1  0  0  0  0
 30 33  1  0  0  0  0
 32 30  1  0  0  0  0
 34 35  1  0  0  0  0
 34 26  1  0  0  0  0
 34 36  1  0  0  0  0
 37 34  1  0  0  0  0
 38 39  1  0  0  0  0
 38 23  1  0  0  0  0
 40 38  1  0  0  0  0
 41 38  1  0  0  0  0
 42 49  1  0  0  0  0
 43 44  1  0  0  0  0
 43 42  2  0  0  0  0
 44 46  2  0  0  0  0
 45 44  1  0  0  0  0
 46 54  1  0  0  0  0
 46 47  1  0  0  0  0
 47 48  1  0  0  0  0
 49 47  2  0  0  0  0
 49 50  1  0  0  0  0
 50 53  1  0  0  0  0
 50 51  1  0  0  0  0
 52 50  1  0  0  0  0
 54 57  1  0  0  0  0
 55 54  1  0  0  0  0
 56 54  1  0  0  0  0
 58 60  1  0  0  0  0
 58 43  1  0  0  0  0
 59 58  1  0  0  0  0
 61 58  1  0  0  0  0
M  END
