2,11
q = -1.0

 61 64  0  0  0  0  0  0  0  0999 V2000
   -3.2487    0.1720    0.0551 B   0  0  0  0  0  0  0  0  0  0  0  0
    2.6519   -1.7287   -0.5286 C   0  0  0  0  0  2  0  0  0  0  0  0
    4.6991   -3.1108   -0.9375 C   0  0  0  0  0  0  0  0  0  0  0  0
    4.9973   -3.9151   -0.2355 H   0  0  0  0  0  0  0  0  0  0  0  0
    5.2032   -2.1671   -0.6563 H   0  0  0  0  0  0  0  0  0  0  0  0
    4.9978   -3.4000   -1.9650 H   0  0  0  0  0  0  0  0  0  0  0  0
    2.3041   -3.8748   -1.1621 C   0  0  0  0  0  0  0  0  0  0  0  0
    2.5843   -4.8888   -1.4619 H   0  0  0  0  0  0  0  0  0  0  0  0
    1.0681   -3.3007   -0.9918 C   0  0  0  0  0  0  0  0  0  0  0  0
    0.0635   -3.7153   -1.1123 H   0  0  0  0  0  0  0  0  0  0  0  0
    1.1859    0.2583    0.0686 C   0  0  0  0  0  3  0  0  0  0  0  0
    0.4464   -0.9083   -0.2803 C   0  0  0  0  0  0  0  0  0  0  0  0
   -0.9438   -0.9608   -0.2845 C   0  0  0  0  0  0  0  0  0  0  0  0
   -1.4795   -1.8876   -0.5454 H   0  0  0  0  0  0  0  0  0  0  0  0
   -1.6898    0.2015    0.0467 C   0  0  0  0  0  0  0  0  0  0  0  0
   -0.9617    1.3727    0.3852 C   0  0  0  0  0  0  0  0  0  0  0  0
   -1.5273    2.2823    0.6461 H   0  0  0  0  0  0  0  0  0  0  0  0
    0.4408    1.4039    0.4113 C   0  0  0  0  0  0  0  0  0  0  0  0
    0.9784    2.3220    0.6926 H   0  0  0  0  0  0  0  0  0  0  0  0
   -4.0586    1.5158   -0.1323 C   0  0  0  0  0  0  0  0  0  0  0  0
   -5.0678    1.9007    0.8019 C   0  0  0  0  0  0  0  0  0  0  0  0
   -5.7753    3.1009    0.6186 C   0  0  0  0  0  0  0  0  0  0  0  0
   -6.5403    3.3860    1.3601 H   0  0  0  0  0  0  0  0  0  0  0  0
   -5.5458    3.9405   -0.4868 C   0  0  0  0  0  0  0  0  0  0  0  0
   -4.5705    3.5431   -1.4157 C   0  0  0  0  0  0  0  0  0  0  0  0
   -4.3887    4.1724   -2.3031 H   0  0  0  0  0  0  0  0  0  0  0  0
   -3.8186    2.3638   -1.2539 C   0  0  0  0  0  0  0  0  0  0  0  0
   -2.7959    2.0278   -2.3194 C   0  0  0  0  0  0  0  0  0  0  0  0
   -3.0416    2.5333   -3.2741 H   0  0  0  0  0  0  0  0  0  0  0  0
   -2.7242    0.9404   -2.5149 H   0  0  0  0  0  0  0  0  0  0  0  0
   -1.7770    2.3508   -2.0214 H   0  0  0  0  0  0  0  0  0  0  0  0
   -6.3124    5.2281   -0.6533 C   0  0  0  0  0  0  0  0  0  0  0  0
   -5.9246    6.0147    0.0296 H   0  0  0  0  0  0  0  0  0  0  0  0
   -7.3870    5.0972   -0.4122 H   0  0  0  0  0  0  0  0  0  0  0  0
   -6.2351    5.6204   -1.6862 H   0  0  0  0  0  0  0  0  0  0  0  0
   -5.3984    1.0455    2.0045 C   0  0  0  0  0  0  0  0  0  0  0  0
   -6.1192    1.5569    2.6715 H   0  0  0  0  0  0  0  0  0  0  0  0
   -4.4976    0.8051    2.6048 H   0  0  0  0  0  0  0  0  0  0  0  0
   -5.8386    0.0737    1.7020 H   0  0  0  0  0  0  0  0  0  0  0  0
   -3.9835   -1.2171    0.2461 C   0  0  0  0  0  0  0  0  0  0  0  0
   -3.6913   -2.0519    1.3639 C   0  0  0  0  0  0  0  0  0  0  0  0
   -4.3596   -3.2829    1.5158 C   0  0  0  0  0  0  0  0  0  0  0  0
   -4.1383   -3.9036    2.4004 H   0  0  0  0  0  0  0  0  0  0  0  0
   -5.3014   -3.7406    0.5811 C   0  0  0  0  0  0  0  0  0  0  0  0
   -5.5825   -2.9129   -0.5221 C   0  0  0  0  0  0  0  0  0  0  0  0
   -6.3220   -3.2464   -1.2695 H   0  0  0  0  0  0  0  0  0  0  0  0
   -4.9595   -1.6657   -0.6956 C   0  0  0  0  0  0  0  0  0  0  0  0
   -5.3429   -0.8272   -1.8942 C   0  0  0  0  0  0  0  0  0  0  0  0
   -6.0282   -1.3801   -2.5655 H   0  0  0  0  0  0  0  0  0  0  0  0
   -4.4589   -0.5239   -2.4911 H   0  0  0  0  0  0  0  0  0  0  0  0
   -5.8447    0.1124   -1.5863 H   0  0  0  0  0  0  0  0  0  0  0  0
   -6.0008   -5.0661    0.7487 C   0  0  0  0  0  0  0  0  0  0  0  0
   -5.6838   -5.5824    1.6757 H   0  0  0  0  0  0  0  0  0  0  0  0
   -5.7920   -5.7438   -0.1059 H   0  0  0  0  0  0  0  0  0  0  0  0
   -7.1030   -4.9391    0.7902 H   0  0  0  0  0  0  0  0  0  0  0  0
   -2.6987   -1.6521    2.4360 C   0  0  0  0  0  0  0  0  0  0  0  0
   -2.6530   -0.5572    2.5901 H   0  0  0  0  0  0  0  0  0  0  0  0
   -1.6664   -1.9649    2.1730 H   0  0  0  0  0  0  0  0  0  0  0  0
   -2.9526   -2.1266    3.4045 H   0  0  0  0  0  0  0  0  0  0  0  0
    3.2606   -2.9013   -0.8753 N   0  0  0  0  0  0  0  0  0  0  0  0
    1.3012   -1.9929   -0.6066 N   0  0  0  0  0  0  0  0  0  0  0  0
  1 40  1  0  0  0  0
  3 60  1  0  0  0  0
  3  5  1  0  0  0  0
  3  4  1  0  0  0  0
  6  3  1  0  0  0  0
  7  9  2  0  0  0  0
  7 60  1  0  0  0  0
  8  7  1  0  0  0  0
  9 61  1  0  0  0  0
 10  9  1  0  0  0  0
 11 18  1  0  0  0  0
 12 11  2  0  0  0  0
 13 12  1  0  0  0  0
 13 15  2  0  0  0  0
 14 13  1  0  0  0  0
 15  1  1  0  0  0  0
 15 16  1  0  0  0  0
 16 18  2  0  0  0  0
 16 17  1  0  0  0  0
 18 19  1  0  0  0  0
 20  1  1  0  0  0  0
 20 21  1  0  0  0  0
 21 36  1  0  0  0  0
 22 21  2  0  0  0  0
 22 23  1  0  0  0  0
 24 22  1  0  0  0  0
 25 27  1  0  0  0  0
 25 24  2  0  0  0  0
 26 25  1  0  0  0  0
 27 20  2  0  0  0  0
 28 31  1  0  0  0  0
 28 27  1  0  0  0  0
 29 28  1  0  0  0  0
 30 28  1  0  0  0  0
 32 24  1  0  0  0  0
 32 34  1  0  0  0  0
 32 33  1  0  0  0  0
 35 32  1  0  0  0  0
 36 38  1  0  0  0  0
 36 37  1  0  0  0  0
 39 36  1  0  0  0  0
 40 41  1  0  0  0  0
 41 42  2  0  0  0  0
 41 56  1  0  0  0  0
 42 43  1  0  0  0  0
 44 52  1  0  0  0  0
 44 42  1  0  0  0  0
 45 44  2  0  0  0  0
 46 45  1  0  0  0  0
 47 45  1  0  0  0  0
 47 40  2  0  0  0  0
 48 51  1  0  0  0  0
 48 47  1  0  0  0  0
 49 48  1  0  0  0  0
 50 48  1  0  0  0  0
 52 55  1  0  0  0  0
 52 53  1  0  0  0  0
 54 52  1  0  0  0  0
 56 57  1  0  0  0  0
 56 59  1  0  0  0  0
 58 56  1  0  0  0  0
 60  2  1  0  0  0  0
 61  2  1  0  0  0  0
 61 12  1  0  0  0  0
M  END
