2,16
q = 0.0, confidence = 0.684

 31 34  0  0  1  0  0  0  0  0999 V2000
   -2.6154   -0.0091   -0.2551 N   0  0  0  0  0  0  0  0  0  0  0  0
   -0.9197    1.7337   -0.3477 C   0  0  0  0  0  3  0  0  0  0  0  0
   -0.7705    2.6763    0.8742 C   0  0  1  0  0  0  0  0  0  0  0  0
   -1.4197    4.0408    0.5221 C   0  0  0  0  0  0  0  0  0  0  0  0
   -2.9452    3.7079    0.5076 C   0  0  0  0  0  0  0  0  0  0  0  0
   -2.9822    2.2083    0.8766 C   0  0  2  0  0  0  0  0  0  0  0  0
   -1.8021    2.0897    1.8600 C   0  0  0  0  0  0  0  0  0  0  0  0
   -2.4538    1.4205   -0.3535 C   0  0  2  0  0  0  0  0  0  0  0  0
   -3.7726   -0.7559   -0.3322 C   0  0  0  0  0  0  0  0  0  0  0  0
   -5.1158   -0.3620   -0.4691 C   0  0  0  0  0  0  0  0  0  0  0  0
   -6.0874   -1.3697   -0.5360 C   0  0  0  0  0  0  0  0  0  0  0  0
   -5.7285   -2.7391   -0.4687 C   0  0  0  0  0  0  0  0  0  0  0  0
   -4.3919   -3.1305   -0.3388 C   0  0  0  0  0  0  0  0  0  0  0  0
   -3.3839   -2.1408   -0.2702 C   0  0  0  0  0  0  0  0  0  0  0  0
   -1.9536   -2.1651   -0.1609 C   0  0  0  0  0  0  0  0  0  0  0  0
   -1.4902   -0.8398   -0.1507 C   0  0  0  0  0  3  0  0  0  0  0  0
   -0.6080    2.2239   -1.2965 H   0  0  0  0  0  0  0  0  0  0  0  0
    0.2637    2.7665    1.2612 H   0  0  0  0  0  0  0  0  0  0  0  0
   -1.0567    4.4347   -0.4496 H   0  0  0  0  0  0  0  0  0  0  0  0
   -1.1798    4.8014    1.2942 H   0  0  0  0  0  0  0  0  0  0  0  0
   -3.4966    4.3086    1.2582 H   0  0  0  0  0  0  0  0  0  0  0  0
   -3.4189    3.9022   -0.4767 H   0  0  0  0  0  0  0  0  0  0  0  0
   -3.9656    1.8487    1.2357 H   0  0  0  0  0  0  0  0  0  0  0  0
   -1.5756    1.0432    2.1450 H   0  0  0  0  0  0  0  0  0  0  0  0
   -1.9372    2.7017    2.7757 H   0  0  0  0  0  0  0  0  0  0  0  0
   -2.9571    1.7750   -1.2818 H   0  0  0  0  0  0  0  0  0  0  0  0
   -5.3960    0.7004   -0.5248 H   0  0  0  0  0  0  0  0  0  0  0  0
   -7.1472   -1.0922   -0.6434 H   0  0  0  0  0  0  0  0  0  0  0  0
   -6.5177   -3.5049   -0.5221 H   0  0  0  0  0  0  0  0  0  0  0  0
   -4.1241   -4.1980   -0.2940 H   0  0  0  0  0  0  0  0  0  0  0  0
   -1.3434   -3.0746   -0.1443 H   0  0  0  0  0  0  0  0  0  0  0  0
  1 16  1  0  0  0  0
  2  3  1  0  0  0  0
  3 18  1  1  0  0  0
  3  7  1  0  0  0  0
  4  3  1  0  0  0  0
  4 20  1  0  0  0  0
  5  4  1  0  0  0  0
  5  6  1  0  0  0  0
  5 21  1  0  0  0  0
  6 23  1  1  0  0  0
  6  7  1  0  0  0  0
  7 24  1  0  0  0  0
  7 25  1  0  0  0  0
  8 26  1  6  0  0  0
  8  2  1  0  0  0  0
  8  1  1  0  0  0  0
  8  6  1  0  0  0  0
  9 14  1  0  0  0  0
  9  1  1  0  0  0  0
 10  9  2  0  0  0  0
 11 10  1  0  0  0  0
 11 12  2  0  0  0  0
 12 13  1  0  0  0  0
 13 30  1  0  0  0  0
 13 14  2  0  0  0  0
 14 15  1  0  0  0  0
 15 16  2  0  0  0  0
 15 31  1  0  0  0  0
 17  2  1  0  0  0  0
 19  4  1  0  0  0  0
 22  5  1  0  0  0  0
 27 10  1  0  0  0  0
 28 11  1  0  0  0  0
 29 12  1  0  0  0  0
M  END
