11,14
q = -1.0

 40 41  0  0  1  0  0  0  0  0999 V2000
   -2.8844    1.3551    0.0033 N   0  0  0  0  0  0  0  0  0  0  0  0
   -1.4912   -0.6641   -0.2814 C   0  0  0  0  0  0  0  0  0  0  0  0
   -2.7719   -0.0478   -0.1127 C   0  0  0  0  0  0  0  0  0  0  0  0
   -3.9108   -0.8841   -0.0165 C   0  0  0  0  0  0  0  0  0  0  0  0
   -3.8042   -2.2774   -0.1177 C   0  0  0  0  0  0  0  0  0  0  0  0
   -2.5546   -2.8786   -0.3218 C   0  0  0  0  0  0  0  0  0  0  0  0
   -1.4146   -2.0663   -0.3918 C   0  0  0  0  0  0  0  0  0  0  0  0
   -4.0942    1.8904    0.5929 C   0  0  0  0  0  0  0  0  0  0  0  0
   -2.3793    2.1796   -1.0858 C   0  0  0  0  0  0  0  0  0  0  0  0
   -0.2497    0.1430   -0.2795 C   0  0  1  0  0  3  0  0  0  0  0  0
    0.6840    0.2998   -1.3572 C   0  0  2  0  0  3  0  0  0  0  0  0
    1.7206    1.2483   -0.9322 C   0  0  0  0  0  0  0  0  0  0  0  0
    1.4328    1.6610    0.4047 C   0  0  0  0  0  0  0  0  0  0  0  0
    0.2420    0.9413    0.8311 C   0  0  1  0  0  3  0  0  0  0  0  0
    0.5557   -0.2791   -2.7326 C   0  0  0  0  0  0  0  0  0  0  0  0
    2.8299    1.7490   -1.8051 C   0  0  0  0  0  0  0  0  0  0  0  0
    2.1814    2.6722    1.2163 C   0  0  0  0  0  0  0  0  0  0  0  0
   -0.4454    1.0898    2.1523 C   0  0  0  0  0  0  0  0  0  0  0  0
   -4.9040   -0.4350    0.1176 H   0  0  0  0  0  0  0  0  0  0  0  0
   -4.7126   -2.8950   -0.0420 H   0  0  0  0  0  0  0  0  0  0  0  0
   -2.4612   -3.9720   -0.3959 H   0  0  0  0  0  0  0  0  0  0  0  0
   -0.4113   -2.5115   -0.4791 H   0  0  0  0  0  0  0  0  0  0  0  0
   -4.9830    1.8594   -0.0883 H   0  0  0  0  0  0  0  0  0  0  0  0
   -4.3494    1.3393    1.5189 H   0  0  0  0  0  0  0  0  0  0  0  0
   -3.9243    2.9536    0.8606 H   0  0  0  0  0  0  0  0  0  0  0  0
   -1.4308    1.7748   -1.4785 H   0  0  0  0  0  0  0  0  0  0  0  0
   -2.1815    3.2087   -0.7199 H   0  0  0  0  0  0  0  0  0  0  0  0
   -3.1079    2.2493   -1.9322 H   0  0  0  0  0  0  0  0  0  0  0  0
    0.1700    0.4860   -3.4414 H   0  0  0  0  0  0  0  0  0  0  0  0
    1.5284   -0.6303   -3.1286 H   0  0  0  0  0  0  0  0  0  0  0  0
   -0.1483   -1.1320   -2.7423 H   0  0  0  0  0  0  0  0  0  0  0  0
    3.6870    2.1139   -1.2073 H   0  0  0  0  0  0  0  0  0  0  0  0
    3.2052    0.9590   -2.4838 H   0  0  0  0  0  0  0  0  0  0  0  0
    2.4818    2.5920   -2.4410 H   0  0  0  0  0  0  0  0  0  0  0  0
    3.2461    2.7285    0.9184 H   0  0  0  0  0  0  0  0  0  0  0  0
    2.1488    2.4309    2.2962 H   0  0  0  0  0  0  0  0  0  0  0  0
    1.7463    3.6886    1.0929 H   0  0  0  0  0  0  0  0  0  0  0  0
    0.2742    1.2466    2.9789 H   0  0  0  0  0  0  0  0  0  0  0  0
   -1.1371    1.9570    2.1216 H   0  0  0  0  0  0  0  0  0  0  0  0
   -1.0535    0.1944    2.3822 H   0  0  0  0  0  0  0  0  0  0  0  0
  1  8  1  0  0  0  0
  2  3  1  0  0  0  0
  3  4  2  0  0  0  0
  3  1  1  0  0  0  0
  4 19  1  0  0  0  0
  5 20  1  0  0  0  0
  5  4  1  0  0  0  0
  6  5  2  0  0  0  0
  7  6  1  0  0  0  0
  7  2  2  0  0  0  0
  8 25  1  0  0  0  0
  8 24  1  0  0  0  0
  9 27  1  0  0  0  0
  9  1  1  0  0  0  0
 10  2  1  6  0  0  0
 10 14  1  0  0  0  0
 11 15  1  6  0  0  0
 11 12  1  0  0  0  0
 11 10  1  0  0  0  0
 12 13  2  0  0  0  0
 13 14  1  0  0  0  0
 13 17  1  0  0  0  0
 14 18  1  6  0  0  0
 16 32  1  0  0  0  0
 16 12  1  0  0  0  0
 17 36  1  0  0  0  0
 18 40  1  0  0  0  0
 18 38  1  0  0  0  0
 21  6  1  0  0  0  0
 22  7  1  0  0  0  0
 23  8  1  0  0  0  0
 26  9  1  0  0  0  0
 28  9  1  0  0  0  0
 29 15  1  0  0  0  0
 30 15  1  0  0  0  0
 31 15  1  0  0  0  0
 33 16  1  0  0  0  0
 34 16  1  0  0  0  0
 35 17  1  0  0  0  0
 37 17  1  0  0  0  0
 39 18  1  0  0  0  0
M  END
