12,15
q = -1.0

 37 39  0  0  1  0  0  0  0  0999 V2000
   -2.5603    1.4405   -0.2382 N   0  0  0  0  0  0  0  0  0  0  0  0
   -1.2858   -0.6060   -0.1386 C   0  0  0  0  0  0  0  0  0  0  0  0
   -2.5518    0.0785   -0.1316 C   0  0  0  0  0  0  0  0  0  0  0  0
   -3.7273    2.0658   -0.2316 C   0  0  0  0  0  0  0  0  0  0  0  0
   -4.9841    1.4078   -0.1193 C   0  0  0  0  0  0  0  0  0  0  0  0
   -4.9987    0.0274   -0.0119 C   0  0  0  0  0  0  0  0  0  0  0  0
   -3.7691   -0.6908   -0.0181 C   0  0  0  0  0  0  0  0  0  0  0  0
   -3.7017   -2.1097    0.0755 C   0  0  0  0  0  0  0  0  0  0  0  0
   -2.4709   -2.7485    0.0642 C   0  0  0  0  0  0  0  0  0  0  0  0
   -1.2720   -1.9975   -0.0345 C   0  0  0  0  0  0  0  0  0  0  0  0
   -0.0376    0.1724   -0.2856 C   0  0  2  0  0  3  0  0  0  0  0  0
    0.4973    1.1304    0.6598 C   0  0  1  0  0  3  0  0  0  0  0  0
    1.6901    1.7394    0.0888 C   0  0  0  0  0  0  0  0  0  0  0  0
    1.9237    1.1144   -1.1724 C   0  0  0  0  0  0  0  0  0  0  0  0
    0.8592    0.1325   -1.4044 C   0  0  2  0  0  3  0  0  0  0  0  0
   -0.1520    1.5185    1.9502 C   0  0  0  0  0  0  0  0  0  0  0  0
    2.4827    2.8512    0.7025 C   0  0  0  0  0  0  0  0  0  0  0  0
    3.0080    1.4468   -2.1502 C   0  0  0  0  0  0  0  0  0  0  0  0
    0.6787   -0.6575   -2.6637 C   0  0  0  0  0  0  0  0  0  0  0  0
   -0.7389    0.6794    2.3700 H   0  0  0  0  0  0  0  0  0  0  0  0
   -0.8571    2.3555    1.7672 H   0  0  0  0  0  0  0  0  0  0  0  0
    0.5876    1.8398    2.7084 H   0  0  0  0  0  0  0  0  0  0  0  0
    2.0585    3.8422    0.4286 H   0  0  0  0  0  0  0  0  0  0  0  0
    3.5371    2.8352    0.3655 H   0  0  0  0  0  0  0  0  0  0  0  0
    2.4839    2.7888    1.8077 H   0  0  0  0  0  0  0  0  0  0  0  0
    2.6503    2.1886   -2.8972 H   0  0  0  0  0  0  0  0  0  0  0  0
    3.3441    0.5525   -2.7095 H   0  0  0  0  0  0  0  0  0  0  0  0
    3.8928    1.8808   -1.6462 H   0  0  0  0  0  0  0  0  0  0  0  0
    1.6350   -1.0794   -3.0293 H   0  0  0  0  0  0  0  0  0  0  0  0
    0.2737   -0.0081   -3.4694 H   0  0  0  0  0  0  0  0  0  0  0  0
   -0.0309   -1.4929   -2.5162 H   0  0  0  0  0  0  0  0  0  0  0  0
   -4.6372   -2.6845    0.1619 H   0  0  0  0  0  0  0  0  0  0  0  0
   -0.2942   -2.5024   -0.0064 H   0  0  0  0  0  0  0  0  0  0  0  0
   -2.4157   -3.8445    0.1458 H   0  0  0  0  0  0  0  0  0  0  0  0
   -3.6966    3.1678   -0.3195 H   0  0  0  0  0  0  0  0  0  0  0  0
   -5.9152    1.9936   -0.1189 H   0  0  0  0  0  0  0  0  0  0  0  0
   -5.9458   -0.5284    0.0768 H   0  0  0  0  0  0  0  0  0  0  0  0
  1  4  2  0  0  0  0
  1  3  1  0  0  0  0
  2  3  2  0  0  0  0
  2 10  1  0  0  0  0
  3  7  1  0  0  0  0
  4  5  1  0  0  0  0
  5 36  1  0  0  0  0
  5  6  2  0  0  0  0
  6 37  1  0  0  0  0
  7  6  1  0  0  0  0
  7  8  2  0  0  0  0
  8 32  1  0  0  0  0
  9  8  1  0  0  0  0
  9 34  1  0  0  0  0
 10 33  1  0  0  0  0
 10  9  2  0  0  0  0
 11  2  1  6  0  0  0
 11 12  1  0  0  0  0
 12 16  1  6  0  0  0
 13 12  1  0  0  0  0
 13 17  1  0  0  0  0
 14 13  2  0  0  0  0
 15 19  1  6  0  0  0
 15 14  1  0  0  0  0
 15 11  1  0  0  0  0
 16 20  1  0  0  0  0
 16 22  1  0  0  0  0
 17 25  1  0  0  0  0
 18 28  1  0  0  0  0
 18 14  1  0  0  0  0
 19 31  1  0  0  0  0
 21 16  1  0  0  0  0
 23 17  1  0  0  0  0
 24 17  1  0  0  0  0
 26 18  1  0  0  0  0
 27 18  1  0  0  0  0
 29 19  1  0  0  0  0
 30 19  1  0  0  0  0
 35  4  1  0  0  0  0
M  END
