3,31
q = -2.0, confidence = 0.852

 56 56  0  0  0  0  0  0  0  0999 V2000
    2.1386   -1.1793    0.0896 Si  0  0  0  0  0  0  0  0  0  0  0  0
   -0.5408   -2.8965   -0.6612 O   0  0  0  0  0  0  0  0  0  0  0  0
   -0.7659   -1.5634   -0.4610 C   0  0  0  0  0  3  0  0  0  0  0  0
    0.2891   -0.7483   -0.1453 C   0  0  0  0  0  0  0  0  0  0  0  0
   -1.5915   -3.6282   -1.2667 C   0  0  0  0  0  0  0  0  0  0  0  0
    2.8856   -2.3684   -1.2186 C   0  0  0  0  0  0  0  0  0  0  0  0
    2.3440   -1.8375    1.8887 C   0  0  0  0  0  0  0  0  0  0  0  0
    2.2980   -2.0996   -2.6114 C   0  0  0  0  0  0  0  0  0  0  0  0
    4.4216   -2.3312   -1.2325 C   0  0  0  0  0  0  0  0  0  0  0  0
    1.7158   -3.2315    2.0446 C   0  0  0  0  0  0  0  0  0  0  0  0
    3.7793   -1.7908    2.4297 C   0  0  0  0  0  0  0  0  0  0  0  0
   -2.5846   -3.3240   -0.8695 H   0  0  0  0  0  0  0  0  0  0  0  0
   -1.5987   -3.4864   -2.3716 H   0  0  0  0  0  0  0  0  0  0  0  0
   -1.4183   -4.7005   -1.0508 H   0  0  0  0  0  0  0  0  0  0  0  0
    2.5590   -1.0826   -2.9732 H   0  0  0  0  0  0  0  0  0  0  0  0
    2.6934   -2.8223   -3.3585 H   0  0  0  0  0  0  0  0  0  0  0  0
    1.1930   -2.1804   -2.6063 H   0  0  0  0  0  0  0  0  0  0  0  0
    4.7979   -1.3196   -1.4971 H   0  0  0  0  0  0  0  0  0  0  0  0
    4.8618   -2.5967   -0.2505 H   0  0  0  0  0  0  0  0  0  0  0  0
    4.8341   -3.0399   -1.9839 H   0  0  0  0  0  0  0  0  0  0  0  0
    0.6789   -3.2665    1.6535 H   0  0  0  0  0  0  0  0  0  0  0  0
    2.2985   -3.9984    1.4910 H   0  0  0  0  0  0  0  0  0  0  0  0
    1.6964   -3.5478    3.1109 H   0  0  0  0  0  0  0  0  0  0  0  0
    4.2344   -0.7846    2.3231 H   0  0  0  0  0  0  0  0  0  0  0  0
    3.8124   -2.0608    3.5081 H   0  0  0  0  0  0  0  0  0  0  0  0
    4.4385   -2.5096    1.8993 H   0  0  0  0  0  0  0  0  0  0  0  0
    2.5561   -3.3826   -0.8963 H   0  0  0  0  0  0  0  0  0  0  0  0
    1.7301   -1.1144    2.4744 H   0  0  0  0  0  0  0  0  0  0  0  0
    2.1385    1.1793   -0.0896 Si  0  0  0  0  0  0  0  0  0  0  0  0
    0.2891    0.7483    0.1454 C   0  0  0  0  0  0  0  0  0  0  0  0
   -0.7659    1.5635    0.4610 C   0  0  0  0  0  3  0  0  0  0  0  0
   -0.5408    2.8965    0.6613 O   0  0  0  0  0  0  0  0  0  0  0  0
   -1.5915    3.6282    1.2667 C   0  0  0  0  0  0  0  0  0  0  0  0
   -2.5847    3.3240    0.8694 H   0  0  0  0  0  0  0  0  0  0  0  0
   -1.5988    3.4864    2.3716 H   0  0  0  0  0  0  0  0  0  0  0  0
   -1.4184    4.7005    1.0508 H   0  0  0  0  0  0  0  0  0  0  0  0
    2.8856    2.3684    1.2186 C   0  0  0  0  0  0  0  0  0  0  0  0
    2.2981    2.0997    2.6114 C   0  0  0  0  0  0  0  0  0  0  0  0
    2.5591    1.0826    2.9731 H   0  0  0  0  0  0  0  0  0  0  0  0
    2.6935    2.8223    3.3585 H   0  0  0  0  0  0  0  0  0  0  0  0
    1.1931    2.1805    2.6064 H   0  0  0  0  0  0  0  0  0  0  0  0
    4.4217    2.3311    1.2324 C   0  0  0  0  0  0  0  0  0  0  0  0
    4.7979    1.3196    1.4970 H   0  0  0  0  0  0  0  0  0  0  0  0
    4.8618    2.5966    0.2503 H   0  0  0  0  0  0  0  0  0  0  0  0
    4.8342    3.0398    1.9838 H   0  0  0  0  0  0  0  0  0  0  0  0
    2.5562    3.3826    0.8963 H   0  0  0  0  0  0  0  0  0  0  0  0
    2.3439    1.8375   -1.8888 C   0  0  0  0  0  0  0  0  0  0  0  0
    1.7157    3.2315   -2.0446 C   0  0  0  0  0  0  0  0  0  0  0  0
    0.6788    3.2665   -1.6536 H   0  0  0  0  0  0  0  0  0  0  0  0
    2.2983    3.9984   -1.4911 H   0  0  0  0  0  0  0  0  0  0  0  0
    1.6963    3.5478   -3.1109 H   0  0  0  0  0  0  0  0  0  0  0  0
    3.7792    1.7908   -2.4297 C   0  0  0  0  0  0  0  0  0  0  0  0
    4.2344    0.7847   -2.3230 H   0  0  0  0  0  0  0  0  0  0  0  0
    3.8123    2.0608   -3.5081 H   0  0  0  0  0  0  0  0  0  0  0  0
    4.4384    2.5097   -1.8993 H   0  0  0  0  0  0  0  0  0  0  0  0
    1.7301    1.1143   -2.4744 H   0  0  0  0  0  0  0  0  0  0  0  0
  1  7  1  0  0  0  0
  2  3  1  0  0  0  0
  3  4  2  0  0  0  0
  4  1  1  0  0  0  0
  4 30  1  0  0  0  0
  5 14  1  0  0  0  0
  5 12  1  0  0  0  0
  5  2  1  0  0  0  0
  6 27  1  0  0  0  0
  6  1  1  0  0  0  0
  7 10  1  0  0  0  0
  7 11  1  0  0  0  0
  7 28  1  0  0  0  0
  8 17  1  0  0  0  0
  8  6  1  0  0  0  0
  9  6  1  0  0  0  0
  9 19  1  0  0  0  0
 10 23  1  0  0  0  0
 11 25  1  0  0  0  0
 13  5  1  0  0  0  0
 15  8  1  0  0  0  0
 16  8  1  0  0  0  0
 18  9  1  0  0  0  0
 20  9  1  0  0  0  0
 21 10  1  0  0  0  0
 22 10  1  0  0  0  0
 24 11  1  0  0  0  0
 26 11  1  0  0  0  0
 29  1  1  0  0  0  0
 29 30  1  0  0  0  0
 29 37  1  0  0  0  0
 30 31  2  0  0  0  0
 31 32  1  0  0  0  0
 32 33  1  0  0  0  0
 33 35  1  0  0  0  0
 34 33  1  0  0  0  0
 36 33  1  0  0  0  0
 37 42  1  0  0  0  0
 37 38  1  0  0  0  0
 38 39  1  0  0  0  0
 38 40  1  0  0  0  0
 41 38  1  0  0  0  0
 42 43  1  0  0  0  0
 42 45  1  0  0  0  0
 44 42  1  0  0  0  0
 46 37  1  0  0  0  0
 47 29  1  0  0  0  0
 48 47  1  0  0  0  0
 48 49  1  0  0  0  0
 48 50  1  0  0  0  0
 51 48  1  0  0  0  0
 52 53  1  0  0  0  0
 52 55  1  0  0  0  0
 52 47  1  0  0  0  0
 54 52  1  0  0  0  0
 56 47  1  0  0  0  0
M  END
