6,10
q = -1.0

 13 13  0  0  0  0  0  0  0  0999 V2000
   -2.6318    0.0322    2.7040 C   0  0  0  0  0  0  0  0  0  0  0  0
   -3.4969    0.0338    2.0139 H   0  0  0  0  0  0  0  0  0  0  0  0
   -3.0414    0.0404    3.7423 H   0  0  0  0  0  0  0  0  0  0  0  0
   -1.7363   -1.1558    2.4190 C   0  0  0  0  0  3  0  0  0  0  0  0
   -2.1702   -2.0905    2.0320 H   0  0  0  0  0  0  0  0  0  0  0  0
   -0.4347   -1.2023    2.9627 C   0  0  0  0  0  3  0  0  0  0  0  0
    0.1169   -2.1537    3.0127 H   0  0  0  0  0  0  0  0  0  0  0  0
    0.2497    0.0173    3.2787 C   0  0  0  0  0  3  0  0  0  0  0  0
    1.2717    0.0131    3.6796 H   0  0  0  0  0  0  0  0  0  0  0  0
   -0.4195    1.2417    2.9494 C   0  0  0  0  0  3  0  0  0  0  0  0
    0.1440    2.1866    2.9892 H   0  0  0  0  0  0  0  0  0  0  0  0
   -1.7215    1.2057    2.4061 C   0  0  0  0  0  3  0  0  0  0  0  0
   -2.1438    2.1415    2.0090 H   0  0  0  0  0  0  0  0  0  0  0  0
  1  3  1  0  0  0  0
  2  1  1  0  0  0  0
  4  1  1  0  0  0  0
  4  6  1  0  0  0  0
  5  4  1  0  0  0  0
  6  7  1  0  0  0  0
  6  8  1  0  0  0  0
  8  9  1  0  0  0  0
 10 11  1  0  0  0  0
 10  8  1  0  0  0  0
 12  1  1  0  0  0  0
 12 10  1  0  0  0  0
 13 12  1  0  0  0  0
M  END
