3,7
q = 0.0, confidence = 0.994

 25 25  0  0  1  0  0  0  0  0999 V2000
    2.9619   -0.0062   -1.3944 O   0  0  0  0  0  0  0  0  0  0  0  0
    1.2218    0.7781    0.0009 C   0  0  1  0  0  3  0  0  0  0  0  0
    0.5294    1.0093    1.2227 C   0  0  0  0  0  3  0  0  0  0  0  0
   -0.7956    1.5361    1.2401 C   0  0  0  0  0  3  0  0  0  0  0  0
   -1.4881    1.7931    0.0228 C   0  0  0  0  0  0  0  0  0  0  0  0
   -0.8001    1.5593   -1.2108 C   0  0  0  0  0  0  0  0  0  0  0  0
    0.5214    1.0454   -1.2155 C   0  0  0  0  0  3  0  0  0  0  0  0
    2.6643    0.2678   -0.0229 C   0  0  0  0  0  0  0  0  0  0  0  0
    3.5904    1.3913    0.4878 C   0  0  0  0  0  0  0  0  0  0  0  0
    2.8352   -1.0127    0.8075 C   0  0  0  0  0  0  0  0  0  0  0  0
   -2.8946    2.3269    0.0302 C   0  0  0  0  0  0  0  0  0  0  0  0
    1.0118    0.7637    2.1797 H   0  0  0  0  0  0  0  0  0  0  0  0
   -1.3130    1.6727    2.1996 H   0  0  0  0  0  0  0  0  0  0  0  0
   -1.3262    1.7151   -2.1628 H   0  0  0  0  0  0  0  0  0  0  0  0
    1.0246    0.8099   -2.1614 H   0  0  0  0  0  0  0  0  0  0  0  0
    3.3649    1.6657    1.5378 H   0  0  0  0  0  0  0  0  0  0  0  0
    3.4765    2.2926   -0.1451 H   0  0  0  0  0  0  0  0  0  0  0  0
    4.6491    1.0619    0.4418 H   0  0  0  0  0  0  0  0  0  0  0  0
    2.5443   -0.8725    1.8667 H   0  0  0  0  0  0  0  0  0  0  0  0
    2.2129   -1.8221    0.3828 H   0  0  0  0  0  0  0  0  0  0  0  0
    3.9001   -1.3284    0.7979 H   0  0  0  0  0  0  0  0  0  0  0  0
   -3.4354    2.0231    0.9465 H   0  0  0  0  0  0  0  0  0  0  0  0
   -3.4681    1.9628   -0.8433 H   0  0  0  0  0  0  0  0  0  0  0  0
   -2.8820    3.4366   -0.0092 H   0  0  0  0  0  0  0  0  0  0  0  0
    3.8246   -0.4577   -1.4132 H   0  0  0  0  0  0  0  0  0  0  0  0
  1  8  1  0  0  0  0
  2  8  1  1  0  0  0
  2  3  1  0  0  0  0
  3  4  1  0  0  0  0
  3 12  1  0  0  0  0
  4 13  1  0  0  0  0
  5 11  1  0  0  0  0
  5  4  1  0  0  0  0
  6  5  2  0  0  0  0
  7  6  1  0  0  0  0
  7  2  1  0  0  0  0
  8  9  1  0  0  0  0
  8 10  1  0  0  0  0
  9 16  1  0  0  0  0
 10 19  1  0  0  0  0
 11 22  1  0  0  0  0
 14  6  1  0  0  0  0
 15  7  1  0  0  0  0
 17  9  1  0  0  0  0
 18  9  1  0  0  0  0
 20 10  1  0  0  0  0
 21 10  1  0  0  0  0
 23 11  1  0  0  0  0
 24 11  1  0  0  0  0
 25  1  1  0  0  0  0
M  END
