4,6
q = -1.0

 21 20  0  0  1  0  0  0  0  0999 V2000
   -1.3893   -2.7947    1.9373 C   0  0  0  0  0  0  0  0  0  0  0  0
   -1.2267   -2.9395    3.0200 H   0  0  0  0  0  0  0  0  0  0  0  0
   -1.6808   -3.6796    1.3489 H   0  0  0  0  0  0  0  0  0  0  0  0
   -1.3360   -1.5639    1.4021 C   0  0  0  0  0  3  0  0  0  0  0  0
   -0.9283   -0.2461    1.7634 C   0  0  2  0  0  3  0  0  0  0  0  0
   -1.9248    0.7148    1.4300 C   0  0  0  0  0  3  0  0  0  0  0  0
   -2.5672    1.7632    1.8462 C   0  0  0  0  0  0  0  0  0  0  0  0
   -3.2823    2.8154    2.2152 C   0  0  0  0  0  0  0  0  0  0  0  0
    0.4219    0.1624    2.3037 C   0  0  0  0  0  0  0  0  0  0  0  0
    2.5061   -0.6818    3.3125 C   0  0  0  0  0  0  0  0  0  0  0  0
    2.6796   -1.4955    4.0475 H   0  0  0  0  0  0  0  0  0  0  0  0
    2.4470    0.2725    3.8749 H   0  0  0  0  0  0  0  0  0  0  0  0
    3.6578   -0.6069    2.3081 C   0  0  0  0  0  0  0  0  0  0  0  0
    4.6251   -0.4623    2.8310 H   0  0  0  0  0  0  0  0  0  0  0  0
    3.5078    0.2470    1.6189 H   0  0  0  0  0  0  0  0  0  0  0  0
    3.7284   -1.5329    1.7018 H   0  0  0  0  0  0  0  0  0  0  0  0
    0.7754    1.3403    2.4003 O   0  0  0  0  0  0  0  0  0  0  0  0
    1.2045   -0.8889    2.7036 N   0  0  0  0  0  0  0  0  0  0  0  0
    0.8540   -1.8348    2.5328 H   0  0  0  0  0  0  0  0  0  0  0  0
   -4.3236    2.7124    2.5672 H   0  0  0  0  0  0  0  0  0  0  0  0
   -2.8551    3.8338    2.2065 H   0  0  0  0  0  0  0  0  0  0  0  0
  1  2  1  0  0  0  0
  3  1  1  0  0  0  0
  4  1  2  0  0  0  0
  5  4  1  6  0  0  0
  5  9  1  0  0  0  0
  6  5  1  0  0  0  0
  6  7  2  0  0  0  0
  7  8  2  0  0  0  0
  8 20  1  0  0  0  0
  9 17  2  0  0  0  0
  9 18  1  0  0  0  0
 10 12  1  0  0  0  0
 10 11  1  0  0  0  0
 13 14  1  0  0  0  0
 13 10  1  0  0  0  0
 15 13  1  0  0  0  0
 16 13  1  0  0  0  0
 18 10  1  0  0  0  0
 19 18  1  0  0  0  0
 21  8  1  0  0  0  0
M  END
