2,5
q = -1.0, confidence = 0.092

 44 45  0  0  1  0  0  0  0  0999 V2000
    1.7701   -0.0088   -1.0969 P   0  0  0  0  0  0  0  0  0  0  0  0
    3.0905   -0.2376    1.5324 C   0  0  1  0  0  3  0  0  0  0  0  0
    2.6598    1.0396    2.0232 C   0  0  0  0  0  3  0  0  0  0  0  0
    3.1639    1.9082    1.5751 H   0  0  0  0  0  0  0  0  0  0  0  0
    1.5269    1.3257    2.8267 C   0  0  0  0  0  3  0  0  0  0  0  0
    1.2762    2.3953    2.9119 H   0  0  0  0  0  0  0  0  0  0  0  0
    0.5960    0.4320    3.4428 C   0  0  0  0  0  0  0  0  0  0  0  0
   -0.2661    0.9039    3.9384 H   0  0  0  0  0  0  0  0  0  0  0  0
    0.5855   -0.9833    3.3929 C   0  0  0  0  0  0  0  0  0  0  0  0
   -0.2893   -1.4724    3.8485 H   0  0  0  0  0  0  0  0  0  0  0  0
    1.4849   -1.8524    2.7013 C   0  0  0  0  0  0  0  0  0  0  0  0
    1.1951   -2.9152    2.6985 H   0  0  0  0  0  0  0  0  0  0  0  0
    2.6101   -1.5400    1.8968 C   0  0  0  0  0  0  0  0  0  0  0  0
    3.0789   -2.3838    1.3694 H   0  0  0  0  0  0  0  0  0  0  0  0
    4.0905   -0.2129    0.4113 C   0  0  0  0  0  0  0  0  0  0  0  0
    3.6054   -0.1338   -0.9154 C   0  0  0  0  0  0  0  0  0  0  0  0
    4.5187   -0.1795   -1.9884 C   0  0  0  0  0  0  0  0  0  0  0  0
    4.1614   -0.1537   -3.0279 H   0  0  0  0  0  0  0  0  0  0  0  0
    5.8961   -0.2741   -1.7388 C   0  0  0  0  0  0  0  0  0  0  0  0
    6.6023   -0.3090   -2.5817 H   0  0  0  0  0  0  0  0  0  0  0  0
    6.3724   -0.3293   -0.4193 C   0  0  0  0  0  0  0  0  0  0  0  0
    7.4528   -0.4026   -0.2258 H   0  0  0  0  0  0  0  0  0  0  0  0
    5.4713   -0.3059    0.6561 C   0  0  0  0  0  0  0  0  0  0  0  0
    5.8377   -0.3682    1.6919 H   0  0  0  0  0  0  0  0  0  0  0  0
    1.3728   -1.3332   -2.3621 C   0  0  0  0  0  0  0  0  0  0  0  0
    2.0702   -1.1419   -3.2065 H   0  0  0  0  0  0  0  0  0  0  0  0
    1.6871   -2.7154   -1.7810 C   0  0  0  0  0  0  0  0  0  0  0  0
    1.0454   -2.9402   -0.9061 H   0  0  0  0  0  0  0  0  0  0  0  0
    2.7449   -2.7935   -1.4598 H   0  0  0  0  0  0  0  0  0  0  0  0
    1.5089   -3.4988   -2.5455 H   0  0  0  0  0  0  0  0  0  0  0  0
   -0.0662   -1.2059   -2.8716 C   0  0  0  0  0  0  0  0  0  0  0  0
   -0.2859   -2.0238   -3.5884 H   0  0  0  0  0  0  0  0  0  0  0  0
   -0.2420   -0.2509   -3.4044 H   0  0  0  0  0  0  0  0  0  0  0  0
   -0.7987   -1.2764   -2.0448 H   0  0  0  0  0  0  0  0  0  0  0  0
    1.4513    1.6291   -1.9741 C   0  0  0  0  0  0  0  0  0  0  0  0
    0.3399    1.6605   -2.0115 H   0  0  0  0  0  0  0  0  0  0  0  0
    1.9399    2.7989   -1.1129 C   0  0  0  0  0  0  0  0  0  0  0  0
    3.0440    2.7797   -1.0045 H   0  0  0  0  0  0  0  0  0  0  0  0
    1.4915    2.7847   -0.1011 H   0  0  0  0  0  0  0  0  0  0  0  0
    1.6687    3.7600   -1.5950 H   0  0  0  0  0  0  0  0  0  0  0  0
    2.0008    1.7253   -3.4010 C   0  0  0  0  0  0  0  0  0  0  0  0
    1.6363    2.6616   -3.8714 H   0  0  0  0  0  0  0  0  0  0  0  0
    1.6835    0.8879   -4.0521 H   0  0  0  0  0  0  0  0  0  0  0  0
    3.1074    1.7730   -3.4060 H   0  0  0  0  0  0  0  0  0  0  0  0
  1 16  1  0  0  0  0
  2 15  1  6  0  0  0
  2 13  1  0  0  0  0
  2  3  1  0  0  0  0
  3  5  1  0  0  0  0
  4  3  1  0  0  0  0
  5  6  1  0  0  0  0
  5  7  1  0  0  0  0
  7  8  1  0  0  0  0
  9  7  2  0  0  0  0
  9 10  1  0  0  0  0
 11  9  1  0  0  0  0
 12 11  1  0  0  0  0
 13 11  2  0  0  0  0
 14 13  1  0  0  0  0
 15 23  1  0  0  0  0
 16 15  2  0  0  0  0
 17 19  2  0  0  0  0
 17 16  1  0  0  0  0
 18 17  1  0  0  0  0
 19 21  1  0  0  0  0
 20 19  1  0  0  0  0
 21 22  1  0  0  0  0
 21 23  2  0  0  0  0
 23 24  1  0  0  0  0
 25 27  1  0  0  0  0
 25  1  1  0  0  0  0
 26 25  1  0  0  0  0
 27 29  1  0  0  0  0
 27 28  1  0  0  0  0
 30 27  1  0  0  0  0
 31 25  1  0  0  0  0
 31 34  1  0  0  0  0
 32 31  1  0  0  0  0
 33 31  1  0  0  0  0
 35 37  1  0  0  0  0
 35  1  1  0  0  0  0
 36 35  1  0  0  0  0
 37 38  1  0  0  0  0
 37 39  1  0  0  0  0
 40 37  1  0  0  0  0
 41 35  1  0  0  0  0
 42 41  1  0  0  0  0
 43 41  1  0  0  0  0
 44 41  1  0  0  0  0
M  END
