1,5
q = -1.0

 30 32  0  0  1  0  0  0  0  0999 V2000
    0.7077    1.1001   -0.7577 C   0  0  1  0  0  3  0  0  0  0  0  0
   -0.7065    1.1013   -0.7578 C   0  0  2  0  0  3  0  0  0  0  0  0
    0.0006    1.0028   -2.1146 C   0  0  2  0  0  0  0  0  0  0  0  0
   -0.0004   -0.3164   -2.7923 C   0  0  0  0  0  0  0  0  0  0  0  0
   -0.0012   -1.3898   -1.9667 C   0  0  0  0  0  3  0  0  0  0  0  0
    1.8337    1.9182   -0.3125 C   0  0  0  0  0  0  0  0  0  0  0  0
    2.0010    2.3119    1.0386 C   0  0  0  0  0  0  0  0  0  0  0  0
    3.1032    3.0801    1.4311 C   0  0  0  0  0  0  0  0  0  0  0  0
    4.0712    3.4735    0.4893 C   0  0  0  0  0  0  0  0  0  0  0  0
    3.9203    3.0902   -0.8526 C   0  0  0  0  0  0  0  0  0  0  0  0
    2.8174    2.3197   -1.2487 C   0  0  0  0  0  0  0  0  0  0  0  0
   -1.8308    1.9214   -0.3125 C   0  0  0  0  0  0  0  0  0  0  0  0
   -2.8151    2.3229   -1.2481 C   0  0  0  0  0  0  0  0  0  0  0  0
   -3.9166    3.0953   -0.8518 C   0  0  0  0  0  0  0  0  0  0  0  0
   -4.0654    3.4809    0.4897 C   0  0  0  0  0  0  0  0  0  0  0  0
   -3.0968    3.0876    1.4309 C   0  0  0  0  0  0  0  0  0  0  0  0
   -1.9960    2.3173    1.0382 C   0  0  0  0  0  0  0  0  0  0  0  0
    0.0013    1.9195   -2.7401 H   0  0  0  0  0  0  0  0  0  0  0  0
   -0.0003   -0.3790   -3.8970 H   0  0  0  0  0  0  0  0  0  0  0  0
   -0.0019   -2.4233   -2.3623 H   0  0  0  0  0  0  0  0  0  0  0  0
    1.2569    2.0015    1.7857 H   0  0  0  0  0  0  0  0  0  0  0  0
    3.2099    3.3776    2.4859 H   0  0  0  0  0  0  0  0  0  0  0  0
    4.9384    4.0745    0.8023 H   0  0  0  0  0  0  0  0  0  0  0  0
    4.6708    3.3921   -1.5997 H   0  0  0  0  0  0  0  0  0  0  0  0
    2.7000    2.0140   -2.2995 H   0  0  0  0  0  0  0  0  0  0  0  0
   -2.6993    2.0155   -2.2986 H   0  0  0  0  0  0  0  0  0  0  0  0
   -4.6676    3.3972   -1.5985 H   0  0  0  0  0  0  0  0  0  0  0  0
   -4.9314    4.0834    0.8028 H   0  0  0  0  0  0  0  0  0  0  0  0
   -3.2018    3.3867    2.4854 H   0  0  0  0  0  0  0  0  0  0  0  0
   -1.2514    2.0071    1.7848 H   0  0  0  0  0  0  0  0  0  0  0  0
  1  6  1  6  0  0  0
  2  1  1  0  0  0  0
  2 12  1  6  0  0  0
  3 18  1  6  0  0  0
  3  2  1  0  0  0  0
  3  1  1  0  0  0  0
  4  3  1  0  0  0  0
  4  5  2  0  0  0  0
  6  7  1  0  0  0  0
  7  8  2  0  0  0  0
  7 21  1  0  0  0  0
  8 22  1  0  0  0  0
  9 23  1  0  0  0  0
  9  8  1  0  0  0  0
 10  9  2  0  0  0  0
 11 10  1  0  0  0  0
 11  6  2  0  0  0  0
 12 17  1  0  0  0  0
 13 14  1  0  0  0  0
 13 12  2  0  0  0  0
 14 15  2  0  0  0  0
 15 28  1  0  0  0  0
 15 16  1  0  0  0  0
 16 29  1  0  0  0  0
 17 16  2  0  0  0  0
 17 30  1  0  0  0  0
 19  4  1  0  0  0  0
 20  5  1  0  0  0  0
 24 10  1  0  0  0  0
 25 11  1  0  0  0  0
 26 13  1  0  0  0  0
 27 14  1  0  0  0  0
M  END
