15,27
q = -1.0

 30 33  0  0  0  0  0  0  0  0999 V2000
    0.7631    1.7090   -0.0000 N   0  0  0  0  0  0  0  0  0  0  0  0
    3.7594    1.0918    0.0001 O   0  0  0  0  0  0  0  0  0  0  0  0
    1.3698    0.4366   -0.0000 C   0  0  0  0  0  0  0  0  0  0  0  0
    0.9247   -1.9583   -0.0001 C   0  0  0  0  0  0  0  0  0  0  0  0
    0.1957   -2.7819   -0.0001 H   0  0  0  0  0  0  0  0  0  0  0  0
    0.1608    3.8263   -0.0002 C   0  0  0  0  0  0  0  0  0  0  0  0
    0.0888    4.9177   -0.0003 H   0  0  0  0  0  0  0  0  0  0  0  0
   -0.9745    3.0149   -0.0001 N   0  0  0  0  0  0  0  0  0  0  0  0
    3.2210   -1.1670    0.0000 C   0  0  0  0  0  0  0  0  0  0  0  0
    7.2865   -0.0128    0.0002 C   0  0  0  0  0  0  0  0  0  0  0  0
    8.3185    0.3687    0.0002 H   0  0  0  0  0  0  0  0  0  0  0  0
    1.2592    3.0017   -0.0002 C   0  0  0  0  0  0  0  0  0  0  0  0
    2.3318    3.2121   -0.0002 H   0  0  0  0  0  0  0  0  0  0  0  0
    2.7359    0.1659    0.0000 C   0  0  0  0  0  0  0  0  0  0  0  0
   -0.6170    1.6971   -0.0001 C   0  0  0  0  0  2  0  0  0  0  0  0
    2.3018   -2.2351   -0.0000 C   0  0  0  0  0  0  0  0  0  0  0  0
    2.6602   -3.2756   -0.0000 H   0  0  0  0  0  0  0  0  0  0  0  0
    5.7574   -1.9291    0.0001 C   0  0  0  0  0  0  0  0  0  0  0  0
    5.5880   -3.0162    0.0001 H   0  0  0  0  0  0  0  0  0  0  0  0
    6.2174    0.9001    0.0002 C   0  0  0  0  0  0  0  0  0  0  0  0
    6.3777    1.9873    0.0002 H   0  0  0  0  0  0  0  0  0  0  0  0
   -2.3430    3.5088    0.0001 C   0  0  0  0  0  0  0  0  0  0  0  0
   -3.0286    2.6407    0.0004 H   0  0  0  0  0  0  0  0  0  0  0  0
   -2.5250    4.1262   -0.9022 H   0  0  0  0  0  0  0  0  0  0  0  0
   -2.5246    4.1266    0.9022 H   0  0  0  0  0  0  0  0  0  0  0  0
    4.6693   -1.0362    0.0001 C   0  0  0  0  0  0  0  0  0  0  0  0
    0.4339   -0.6316   -0.0001 C   0  0  0  0  0  3  0  0  0  0  0  0
    7.0591   -1.4058    0.0002 C   0  0  0  0  0  0  0  0  0  0  0  0
    7.9194   -2.0917    0.0002 H   0  0  0  0  0  0  0  0  0  0  0  0
    4.9319    0.3599    0.0001 C   0  0  0  0  0  0  0  0  0  0  0  0
  2 30  1  0  0  0  0
  3  1  1  0  0  0  0
  3 14  1  0  0  0  0
  4 27  1  0  0  0  0
  4 16  2  0  0  0  0
  5  4  1  0  0  0  0
  6 12  2  0  0  0  0
  6  8  1  0  0  0  0
  7  6  1  0  0  0  0
  8 15  1  0  0  0  0
  8 22  1  0  0  0  0
  9 14  2  0  0  0  0
  9 26  1  0  0  0  0
 10 11  1  0  0  0  0
 12  1  1  0  0  0  0
 13 12  1  0  0  0  0
 14  2  1  0  0  0  0
 15  1  1  0  0  0  0
 16  9  1  0  0  0  0
 17 16  1  0  0  0  0
 18 28  1  0  0  0  0
 19 18  1  0  0  0  0
 20 10  1  0  0  0  0
 20 21  1  0  0  0  0
 22 23  1  0  0  0  0
 22 25  1  0  0  0  0
 24 22  1  0  0  0  0
 26 18  2  0  0  0  0
 26 30  1  0  0  0  0
 27  3  2  0  0  0  0
 28 29  1  0  0  0  0
 28 10  2  0  0  0  0
 30 20  2  0  0  0  0
M  END
