5,16
q = 0.0, confidence = 0.994

 40 41  0  0  0  0  0  0  0  0999 V2000
    2.7112    0.9471   -0.6596 N   0  0  0  0  0  0  0  0  0  0  0  0
    1.7289    2.0229    0.9432 N   0  0  0  0  0  0  0  0  0  0  0  0
   -1.3785    2.5351    0.5020 N   0  0  0  0  0  0  0  0  0  0  0  0
   -2.5977    1.1700   -0.6607 N   0  0  0  0  0  0  0  0  0  0  0  0
    1.5527    0.9704    0.0786 C   0  0  0  0  0  2  0  0  0  0  0  0
    2.9465    2.6574    0.7375 C   0  0  0  0  0  0  0  0  0  0  0  0
    3.2692    3.5221    1.3249 H   0  0  0  0  0  0  0  0  0  0  0  0
    3.5628    1.9750   -0.2734 C   0  0  0  0  0  0  0  0  0  0  0  0
    4.5379    2.1321   -0.7419 H   0  0  0  0  0  0  0  0  0  0  0  0
    0.7319    2.4440    1.9097 C   0  0  0  0  0  0  0  0  0  0  0  0
    0.3255    1.5494    2.4116 H   0  0  0  0  0  0  0  0  0  0  0  0
    1.2391    3.0685    2.6695 H   0  0  0  0  0  0  0  0  0  0  0  0
   -0.3807    3.2651    1.2910 C   0  0  0  0  0  0  0  0  0  0  0  0
    0.0601    4.0592    0.6513 H   0  0  0  0  0  0  0  0  0  0  0  0
   -0.9297    3.7732    2.1100 H   0  0  0  0  0  0  0  0  0  0  0  0
   -1.3887    1.2449    0.0041 C   0  0  0  0  0  2  0  0  0  0  0  0
   -3.2923    2.3655   -0.5872 C   0  0  0  0  0  0  0  0  0  0  0  0
   -4.2696    2.5061   -1.0560 H   0  0  0  0  0  0  0  0  0  0  0  0
   -2.5304    3.2262    0.1426 C   0  0  0  0  0  0  0  0  0  0  0  0
   -2.7029    4.2646    0.4403 H   0  0  0  0  0  0  0  0  0  0  0  0
    3.0840   -0.0137   -1.7267 C   0  0  0  0  0  0  0  0  0  0  0  0
    2.2704   -0.7608   -1.7220 H   0  0  0  0  0  0  0  0  0  0  0  0
    4.4193   -0.6886   -1.4067 C   0  0  0  0  0  0  0  0  0  0  0  0
    5.2752    0.0132   -1.4761 H   0  0  0  0  0  0  0  0  0  0  0  0
    4.6030   -1.4993   -2.1381 H   0  0  0  0  0  0  0  0  0  0  0  0
    4.4250   -1.1344   -0.3928 H   0  0  0  0  0  0  0  0  0  0  0  0
    3.0827    0.6802   -3.0890 C   0  0  0  0  0  0  0  0  0  0  0  0
    2.0852    1.1086   -3.3000 H   0  0  0  0  0  0  0  0  0  0  0  0
    3.3097   -0.0599   -3.8808 H   0  0  0  0  0  0  0  0  0  0  0  0
    3.8492    1.4805   -3.1442 H   0  0  0  0  0  0  0  0  0  0  0  0
   -3.1666    0.0235   -1.4112 C   0  0  0  0  0  0  0  0  0  0  0  0
   -2.4415   -0.7950   -1.2598 H   0  0  0  0  0  0  0  0  0  0  0  0
   -3.2433    0.3445   -2.9057 C   0  0  0  0  0  0  0  0  0  0  0  0
   -3.9711    1.1565   -3.1100 H   0  0  0  0  0  0  0  0  0  0  0  0
   -3.5829   -0.5542   -3.4567 H   0  0  0  0  0  0  0  0  0  0  0  0
   -2.2490    0.6302   -3.2932 H   0  0  0  0  0  0  0  0  0  0  0  0
   -4.5375   -0.3639   -0.8476 C   0  0  0  0  0  0  0  0  0  0  0  0
   -4.5223   -0.4766    0.2516 H   0  0  0  0  0  0  0  0  0  0  0  0
   -4.8591   -1.3260   -1.2926 H   0  0  0  0  0  0  0  0  0  0  0  0
   -5.3145    0.3844   -1.1043 H   0  0  0  0  0  0  0  0  0  0  0  0
  1  8  1  0  0  0  0
  1  5  1  0  0  0  0
  2 10  1  0  0  0  0
  3 13  1  0  0  0  0
  4 17  1  0  0  0  0
  4 16  1  0  0  0  0
  5  2  1  0  0  0  0
  6  2  1  0  0  0  0
  6  7  1  0  0  0  0
  8  6  2  0  0  0  0
  9  8  1  0  0  0  0
 10 11  1  0  0  0  0
 10 12  1  0  0  0  0
 13 10  1  0  0  0  0
 13 15  1  0  0  0  0
 14 13  1  0  0  0  0
 16  3  1  0  0  0  0
 17 19  2  0  0  0  0
 18 17  1  0  0  0  0
 19 20  1  0  0  0  0
 19  3  1  0  0  0  0
 21 22  1  0  0  0  0
 21 23  1  0  0  0  0
 21  1  1  0  0  0  0
 23 26  1  0  0  0  0
 24 23  1  0  0  0  0
 25 23  1  0  0  0  0
 27 21  1  0  0  0  0
 28 27  1  0  0  0  0
 29 27  1  0  0  0  0
 30 27  1  0  0  0  0
 31 32  1  0  0  0  0
 31 37  1  0  0  0  0
 31  4  1  0  0  0  0
 33 31  1  0  0  0  0
 34 33  1  0  0  0  0
 35 33  1  0  0  0  0
 36 33  1  0  0  0  0
 37 38  1  0  0  0  0
 39 37  1  0  0  0  0
 40 37  1  0  0  0  0
M  END
