7,9
q = 0.0, confidence = 0.998

 25 26  0  0  1  0  0  0  0  0999 V2000
   -2.4124    0.6977   -0.8947 O   0  0  0  0  0  0  0  0  0  0  0  0
   -3.1749   -1.2743    0.1245 O   0  0  0  0  0  0  0  0  0  0  0  0
   -2.0705   -0.6636   -0.4838 C   0  0  2  0  0  0  0  0  0  0  0  0
   -1.6349    1.6419   -0.2739 C   0  0  0  0  0  0  0  0  0  0  0  0
   -0.6770    0.9567    0.6111 C   0  0  0  0  0  0  0  0  0  0  0  0
    0.3422    1.4574    1.4702 C   0  0  0  0  0  3  0  0  0  0  0  0
    1.1012    0.5098    2.2138 C   0  0  0  0  0  3  0  0  0  0  0  0
    0.8501   -0.8937    2.1184 C   0  0  0  0  0  3  0  0  0  0  0  0
   -0.1361   -1.3752    1.2103 C   0  0  0  0  0  3  0  0  0  0  0  0
   -0.9152   -0.4378    0.4832 C   0  0  0  0  0  0  0  0  0  0  0  0
   -3.6873   -0.6328    1.2849 C   0  0  0  0  0  0  0  0  0  0  0  0
   -1.7473   -1.4784   -1.7245 C   0  0  0  0  0  0  0  0  0  0  0  0
   -1.7861    2.9678   -0.4737 C   0  0  0  0  0  0  0  0  0  0  0  0
    0.5612    2.5308    1.5343 H   0  0  0  0  0  0  0  0  0  0  0  0
    1.9191    0.8640    2.8569 H   0  0  0  0  0  0  0  0  0  0  0  0
    1.4767   -1.6008    2.6774 H   0  0  0  0  0  0  0  0  0  0  0  0
   -0.2946   -2.4554    1.0805 H   0  0  0  0  0  0  0  0  0  0  0  0
   -4.0031    0.4105    1.0687 H   0  0  0  0  0  0  0  0  0  0  0  0
   -2.9515   -0.6196    2.1208 H   0  0  0  0  0  0  0  0  0  0  0  0
   -4.5719   -1.2171    1.5999 H   0  0  0  0  0  0  0  0  0  0  0  0
   -2.6634   -1.5656   -2.3386 H   0  0  0  0  0  0  0  0  0  0  0  0
   -0.9510   -0.9812   -2.3054 H   0  0  0  0  0  0  0  0  0  0  0  0
   -1.4087   -2.4930   -1.4410 H   0  0  0  0  0  0  0  0  0  0  0  0
   -2.5539    3.3512   -1.1583 H   0  0  0  0  0  0  0  0  0  0  0  0
   -1.1246    3.6778    0.0380 H   0  0  0  0  0  0  0  0  0  0  0  0
  1  3  1  0  0  0  0
  1  4  1  0  0  0  0
  2 11  1  0  0  0  0
  3  2  1  1  0  0  0
  3 10  1  0  0  0  0
  4  5  1  0  0  0  0
  5  6  1  0  0  0  0
  6 14  1  0  0  0  0
  6  7  1  0  0  0  0
  7 15  1  0  0  0  0
  8  7  1  0  0  0  0
  8 16  1  0  0  0  0
  9  8  1  0  0  0  0
 10  5  2  0  0  0  0
 10  9  1  0  0  0  0
 11 20  1  0  0  0  0
 11 19  1  0  0  0  0
 12 23  1  0  0  0  0
 12  3  1  0  0  0  0
 13  4  2  0  0  0  0
 13 25  1  0  0  0  0
 17  9  1  0  0  0  0
 18 11  1  0  0  0  0
 21 12  1  0  0  0  0
 22 12  1  0  0  0  0
 24 13  1  0  0  0  0
M  END
