1,24
q = -1.0

 37 40  0  0  0  0  0  0  0  0999 V2000
   -1.6007   -0.0988   -0.7753 C   0  0  0  0  0  2  0  0  0  0  0  0
   -1.6648    1.2772   -0.8698 N   0  0  0  0  0  0  0  0  0  0  0  0
   -0.5322    2.1206   -1.0843 C   0  0  0  0  0  0  0  0  0  0  0  0
    0.2921    1.8907   -2.1982 C   0  0  0  0  0  0  0  0  0  0  0  0
    0.0731    1.0512   -2.8722 H   0  0  0  0  0  0  0  0  0  0  0  0
    1.3889    2.7358   -2.4215 C   0  0  0  0  0  0  0  0  0  0  0  0
    2.0280    2.5638   -3.2999 H   0  0  0  0  0  0  0  0  0  0  0  0
    1.6701    3.7870   -1.5340 C   0  0  0  0  0  0  0  0  0  0  0  0
    2.5344    4.4444   -1.7108 H   0  0  0  0  0  0  0  0  0  0  0  0
    0.8488    3.9944   -0.4131 C   0  0  0  0  0  0  0  0  0  0  0  0
    1.0686    4.8113    0.2899 H   0  0  0  0  0  0  0  0  0  0  0  0
   -0.2553    3.1638   -0.1831 C   0  0  0  0  0  0  0  0  0  0  0  0
   -0.9082    3.3179    0.6864 H   0  0  0  0  0  0  0  0  0  0  0  0
   -2.8967   -0.4382   -0.5201 N   0  0  0  0  0  0  0  0  0  0  0  0
   -3.2356   -1.8140   -0.4361 C   0  0  0  0  0  0  0  0  0  0  0  0
   -4.5485   -2.2487   -0.2206 C   0  0  0  0  0  0  0  0  0  0  0  0
   -5.3583   -1.5184   -0.0823 H   0  0  0  0  0  0  0  0  0  0  0  0
   -4.7752   -3.6336   -0.1954 C   0  0  0  0  0  0  0  0  0  0  0  0
   -5.7942   -4.0159   -0.0321 H   0  0  0  0  0  0  0  0  0  0  0  0
   -3.7051   -4.5275   -0.3774 C   0  0  0  0  0  0  0  0  0  0  0  0
   -3.8921   -5.6124   -0.3557 H   0  0  0  0  0  0  0  0  0  0  0  0
   -2.3946   -4.0497   -0.5693 C   0  0  0  0  0  0  0  0  0  0  0  0
   -1.5678   -4.7686   -0.6751 H   0  0  0  0  0  0  0  0  0  0  0  0
   -2.1185   -2.6692   -0.6038 C   0  0  0  0  0  3  0  0  0  0  0  0
   -3.7460    0.6081   -0.4147 N   0  0  0  0  0  0  0  0  0  0  0  0
   -2.9901    1.6719   -0.6422 C   0  0  0  0  0  0  0  0  0  0  0  0
   -3.5089    3.0445   -0.6468 C   0  0  0  0  0  0  0  0  0  0  0  0
   -3.0306    4.0319   -1.5372 C   0  0  0  0  0  0  0  0  0  0  0  0
   -2.2398    3.7875   -2.2600 H   0  0  0  0  0  0  0  0  0  0  0  0
   -3.5790    5.3207   -1.5143 C   0  0  0  0  0  0  0  0  0  0  0  0
   -3.2041    6.0817   -2.2150 H   0  0  0  0  0  0  0  0  0  0  0  0
   -4.6063    5.6396   -0.6115 C   0  0  0  0  0  0  0  0  0  0  0  0
   -5.0311    6.6546   -0.5959 H   0  0  0  0  0  0  0  0  0  0  0  0
   -5.0936    4.6578    0.2671 C   0  0  0  0  0  0  0  0  0  0  0  0
   -5.9020    4.9008    0.9730 H   0  0  0  0  0  0  0  0  0  0  0  0
   -4.5512    3.3674    0.2516 C   0  0  0  0  0  0  0  0  0  0  0  0
   -4.9195    2.5888    0.9351 H   0  0  0  0  0  0  0  0  0  0  0  0
  1 14  1  0  0  0  0
  2  1  1  0  0  0  0
  2 26  1  0  0  0  0
  3  2  1  0  0  0  0
  3 12  1  0  0  0  0
  4  3  2  0  0  0  0
  5  4  1  0  0  0  0
  6  4  1  0  0  0  0
  6  8  2  0  0  0  0
  7  6  1  0  0  0  0
  8 10  1  0  0  0  0
  9  8  1  0  0  0  0
 10 12  2  0  0  0  0
 10 11  1  0  0  0  0
 12 13  1  0  0  0  0
 14 15  1  0  0  0  0
 14 25  1  0  0  0  0
 15 16  1  0  0  0  0
 16 18  2  0  0  0  0
 16 17  1  0  0  0  0
 18 19  1  0  0  0  0
 20 21  1  0  0  0  0
 20 18  1  0  0  0  0
 22 20  2  0  0  0  0
 23 22  1  0  0  0  0
 24 22  1  0  0  0  0
 24 15  2  0  0  0  0
 26 25  2  0  0  0  0
 27 26  1  0  0  0  0
 27 36  1  0  0  0  0
 28 30  1  0  0  0  0
 28 27  2  0  0  0  0
 29 28  1  0  0  0  0
 30 32  2  0  0  0  0
 31 30  1  0  0  0  0
 32 33  1  0  0  0  0
 32 34  1  0  0  0  0
 34 35  1  0  0  0  0
 36 34  2  0  0  0  0
 36 37  1  0  0  0  0
M  END
