6,10
q = 0.0, confidence = 1.0

 28 28  0  0  0  0  0  0  0  0999 V2000
    1.7626   -1.2689    0.1832 N   0  0  0  0  0  0  0  0  0  0  0  0
    3.1201    0.7230   -0.2367 N   0  0  0  0  0  0  0  0  0  0  0  0
    0.5508   -1.1272   -0.4615 C   0  0  0  0  0  0  0  0  0  0  0  0
   -0.5760   -1.9572   -0.1310 C   0  0  0  0  0  0  0  0  0  0  0  0
   -0.5111   -2.6907    0.6799 H   0  0  0  0  0  0  0  0  0  0  0  0
   -1.7910   -1.8430   -0.8622 C   0  0  0  0  0  3  0  0  0  0  0  0
   -2.6345   -2.4933   -0.5904 H   0  0  0  0  0  0  0  0  0  0  0  0
   -1.9347   -0.9022   -1.9194 C   0  0  0  0  0  3  0  0  0  0  0  0
   -2.8854   -0.8059   -2.4590 H   0  0  0  0  0  0  0  0  0  0  0  0
   -0.8607   -0.0062   -2.1669 C   0  0  0  0  0  3  0  0  0  0  0  0
   -0.9792    0.7957   -2.9095 H   0  0  0  0  0  0  0  0  0  0  0  0
    0.3638   -0.1015   -1.4493 C   0  0  0  0  0  3  0  0  0  0  0  0
    1.1554    0.6450   -1.5861 H   0  0  0  0  0  0  0  0  0  0  0  0
    1.8575   -2.0854    1.3811 C   0  0  0  0  0  0  0  0  0  0  0  0
    1.0983   -1.7785    2.1301 H   0  0  0  0  0  0  0  0  0  0  0  0
    2.8541   -1.9407    1.8360 H   0  0  0  0  0  0  0  0  0  0  0  0
    1.7301   -3.1726    1.1745 H   0  0  0  0  0  0  0  0  0  0  0  0
    2.9667   -0.7120   -0.4088 C   0  0  0  0  0  0  0  0  0  0  0  0
    2.9678   -0.9135   -1.5032 H   0  0  0  0  0  0  0  0  0  0  0  0
    3.8301   -1.2844    0.0255 H   0  0  0  0  0  0  0  0  0  0  0  0
    3.2459    1.1252    1.1539 C   0  0  0  0  0  0  0  0  0  0  0  0
    2.3696    0.7838    1.7356 H   0  0  0  0  0  0  0  0  0  0  0  0
    3.2739    2.2307    1.2209 H   0  0  0  0  0  0  0  0  0  0  0  0
    4.1779    0.7269    1.6388 H   0  0  0  0  0  0  0  0  0  0  0  0
    4.1849    1.2479   -1.0716 C   0  0  0  0  0  0  0  0  0  0  0  0
    4.2133    2.3529   -0.9934 H   0  0  0  0  0  0  0  0  0  0  0  0
    4.0040    0.9845   -2.1346 H   0  0  0  0  0  0  0  0  0  0  0  0
    5.2029    0.8631   -0.7930 H   0  0  0  0  0  0  0  0  0  0  0  0
  1 14  1  0  0  0  0
  2 21  1  0  0  0  0
  3  4  2  0  0  0  0
  3  1  1  0  0  0  0
  4  5  1  0  0  0  0
  6  7  1  0  0  0  0
  6  4  1  0  0  0  0
  8  6  1  0  0  0  0
  9  8  1  0  0  0  0
 10  8  1  0  0  0  0
 10 12  1  0  0  0  0
 11 10  1  0  0  0  0
 12  3  1  0  0  0  0
 13 12  1  0  0  0  0
 14 16  1  0  0  0  0
 14 15  1  0  0  0  0
 17 14  1  0  0  0  0
 18  2  1  0  0  0  0
 18 20  1  0  0  0  0
 18  1  1  0  0  0  0
 19 18  1  0  0  0  0
 21 23  1  0  0  0  0
 21 24  1  0  0  0  0
 21 22  1  0  0  0  0
 25 26  1  0  0  0  0
 25 28  1  0  0  0  0
 25  2  1  0  0  0  0
 27 25  1  0  0  0  0
M  END
