2,4
q = -1.0

 19 19  0  0  0  0  0  0  0  0999 V2000
    0.5976   -1.7121   -2.1112 C   0  0  0  0  0  3  0  0  0  0  0  0
    0.2140   -0.4766   -2.7469 C   0  0  0  0  0  3  0  0  0  0  0  0
    0.9590    0.7387   -2.7633 C   0  0  0  0  0  3  0  0  0  0  0  0
    2.1381    1.0019   -1.9664 C   0  0  0  0  0  3  0  0  0  0  0  0
    2.9329    0.0642   -1.2465 C   0  0  0  0  0  3  0  0  0  0  0  0
    3.6746   -1.1356   -1.7983 C   0  0  0  0  0  0  0  0  0  0  0  0
    3.0313   -1.8762   -2.9612 C   0  0  0  0  0  0  0  0  0  0  0  0
    1.7513   -2.5901   -2.5525 C   0  0  0  0  0  0  0  0  0  0  0  0
   -0.3009   -2.3272   -1.9165 H   0  0  0  0  0  0  0  0  0  0  0  0
   -0.8288   -0.3638   -3.0955 H   0  0  0  0  0  0  0  0  0  0  0  0
    0.4684    1.6099   -3.2275 H   0  0  0  0  0  0  0  0  0  0  0  0
    2.3434    2.0769   -1.8109 H   0  0  0  0  0  0  0  0  0  0  0  0
    3.5589    0.5729   -0.4926 H   0  0  0  0  0  0  0  0  0  0  0  0
    4.6811   -0.7729   -2.1124 H   0  0  0  0  0  0  0  0  0  0  0  0
    3.8788   -1.8579   -0.9738 H   0  0  0  0  0  0  0  0  0  0  0  0
    2.8229   -1.1650   -3.7896 H   0  0  0  0  0  0  0  0  0  0  0  0
    3.7531   -2.6181   -3.3632 H   0  0  0  0  0  0  0  0  0  0  0  0
    1.9843   -3.3282   -1.7532 H   0  0  0  0  0  0  0  0  0  0  0  0
    1.3911   -3.2036   -3.4113 H   0  0  0  0  0  0  0  0  0  0  0  0
  1  9  1  0  0  0  0
  2  1  1  0  0  0  0
  3  2  1  0  0  0  0
  3  4  1  0  0  0  0
  4 12  1  0  0  0  0
  4  5  1  0  0  0  0
  5 13  1  0  0  0  0
  6  5  1  0  0  0  0
  6 15  1  0  0  0  0
  7  8  1  0  0  0  0
  7  6  1  0  0  0  0
  8  1  1  0  0  0  0
  8 18  1  0  0  0  0
 10  2  1  0  0  0  0
 11  3  1  0  0  0  0
 14  6  1  0  0  0  0
 16  7  1  0  0  0  0
 17  7  1  0  0  0  0
 19  8  1  0  0  0  0
M  END
