4,11
q = 0.0, confidence = 0.99

 24 25  0  0  1  0  0  0  0  0999 V2000
    3.3698   -2.1425   -0.4820 N   0  0  0  0  0  0  0  0  0  0  0  0
    3.8962   -2.1565    0.3936 H   0  0  0  0  0  0  0  0  0  0  0  0
    3.9154   -1.7541   -1.2535 H   0  0  0  0  0  0  0  0  0  0  0  0
   -0.0049   -1.3622    0.9214 C   0  0  0  0  0  3  0  0  0  0  0  0
   -0.5117   -1.3801    1.8964 H   0  0  0  0  0  0  0  0  0  0  0  0
    1.3598   -1.7523    0.8526 C   0  0  0  0  0  0  0  0  0  0  0  0
    1.8825   -2.0713    1.7646 H   0  0  0  0  0  0  0  0  0  0  0  0
    2.0665   -1.7067   -0.3906 C   0  0  0  0  0  0  0  0  0  0  0  0
    1.3848   -1.1782   -1.5313 C   0  0  0  0  0  3  0  0  0  0  0  0
    1.9224   -1.0624   -2.4822 H   0  0  0  0  0  0  0  0  0  0  0  0
    0.0211   -0.7876   -1.4415 C   0  0  0  0  0  3  0  0  0  0  0  0
   -0.4761   -0.3926   -2.3383 H   0  0  0  0  0  0  0  0  0  0  0  0
   -0.7276   -0.9163   -0.2293 C   0  0  2  0  0  3  0  0  0  0  0  0
   -2.1616   -0.5445   -0.1514 C   0  0  0  0  0  0  0  0  0  0  0  0
   -2.6811    0.5458   -0.8850 C   0  0  0  0  0  0  0  0  0  0  0  0
   -2.0043    1.1722   -1.4846 H   0  0  0  0  0  0  0  0  0  0  0  0
   -4.0418    0.8690   -0.8150 C   0  0  0  0  0  0  0  0  0  0  0  0
   -4.4248    1.7296   -1.3841 H   0  0  0  0  0  0  0  0  0  0  0  0
   -4.9107    0.1150   -0.0085 C   0  0  0  0  0  0  0  0  0  0  0  0
   -5.9785    0.3743    0.0487 H   0  0  0  0  0  0  0  0  0  0  0  0
   -4.4058   -0.9674    0.7275 C   0  0  0  0  0  0  0  0  0  0  0  0
   -5.0779   -1.5677    1.3594 H   0  0  0  0  0  0  0  0  0  0  0  0
   -3.0444   -1.2956    0.6550 C   0  0  0  0  0  0  0  0  0  0  0  0
   -2.6628   -2.1626    1.2154 H   0  0  0  0  0  0  0  0  0  0  0  0
  1  8  1  0  0  0  0
  1  2  1  0  0  0  0
  3  1  1  0  0  0  0
  4  5  1  0  0  0  0
  6  4  1  0  0  0  0
  6  7  1  0  0  0  0
  8  6  2  0  0  0  0
  9 11  1  0  0  0  0
  9  8  1  0  0  0  0
 10  9  1  0  0  0  0
 11 13  1  0  0  0  0
 12 11  1  0  0  0  0
 13 14  1  1  0  0  0
 13  4  1  0  0  0  0
 14 23  1  0  0  0  0
 15 17  1  0  0  0  0
 15 14  2  0  0  0  0
 16 15  1  0  0  0  0
 17 19  2  0  0  0  0
 18 17  1  0  0  0  0
 19 20  1  0  0  0  0
 19 21  1  0  0  0  0
 21 22  1  0  0  0  0
 23 21  2  0  0  0  0
 23 24  1  0  0  0  0
M  END
