7,11
q = 0.0, confidence = 0.996

 24 25  0  0  1  0  0  0  0  0999 V2000
   -0.6825   -1.3243    2.2106 N   0  0  0  0  0  0  0  0  0  0  0  0
   -1.5182   -0.7373    2.2480 H   0  0  0  0  0  0  0  0  0  0  0  0
   -0.1167   -1.3066    3.0594 H   0  0  0  0  0  0  0  0  0  0  0  0
   -0.0103   -1.3570    1.0152 C   0  0  0  0  0  0  0  0  0  0  0  0
    1.3333   -1.8533    0.9505 C   0  0  0  0  0  0  0  0  0  0  0  0
    1.8493   -2.1275    1.8809 H   0  0  0  0  0  0  0  0  0  0  0  0
    1.9989   -1.9913   -0.2952 C   0  0  0  0  0  3  0  0  0  0  0  0
    3.0316   -2.3669   -0.3124 H   0  0  0  0  0  0  0  0  0  0  0  0
    1.3502   -1.6330   -1.5098 C   0  0  0  0  0  3  0  0  0  0  0  0
    1.8738   -1.7127   -2.4710 H   0  0  0  0  0  0  0  0  0  0  0  0
    0.0579   -1.0528   -1.4375 C   0  0  0  0  0  3  0  0  0  0  0  0
   -0.4303   -0.6867   -2.3520 H   0  0  0  0  0  0  0  0  0  0  0  0
   -0.6376   -0.8913   -0.1969 C   0  0  1  0  0  3  0  0  0  0  0  0
   -2.0141   -0.3199   -0.1749 C   0  0  0  0  0  0  0  0  0  0  0  0
   -3.0553   -0.9885   -0.8534 C   0  0  0  0  0  0  0  0  0  0  0  0
   -2.8331   -1.9241   -1.3893 H   0  0  0  0  0  0  0  0  0  0  0  0
   -4.3609   -0.4759   -0.8420 C   0  0  0  0  0  0  0  0  0  0  0  0
   -5.1609   -1.0076   -1.3793 H   0  0  0  0  0  0  0  0  0  0  0  0
   -4.6473    0.7081   -0.1448 C   0  0  0  0  0  0  0  0  0  0  0  0
   -5.6715    1.1104   -0.1358 H   0  0  0  0  0  0  0  0  0  0  0  0
   -3.6187    1.3822    0.5328 C   0  0  0  0  0  0  0  0  0  0  0  0
   -3.8310    2.3217    1.0653 H   0  0  0  0  0  0  0  0  0  0  0  0
   -2.3100    0.8776    0.5139 C   0  0  0  0  0  0  0  0  0  0  0  0
   -1.4963    1.4284    1.0094 H   0  0  0  0  0  0  0  0  0  0  0  0
  1  2  1  0  0  0  0
  1  3  1  0  0  0  0
  4  1  1  0  0  0  0
  5  4  2  0  0  0  0
  5  6  1  0  0  0  0
  7  5  1  0  0  0  0
  8  7  1  0  0  0  0
  9 11  1  0  0  0  0
  9  7  1  0  0  0  0
 10  9  1  0  0  0  0
 11 13  1  0  0  0  0
 12 11  1  0  0  0  0
 13 14  1  6  0  0  0
 13  4  1  0  0  0  0
 14 23  1  0  0  0  0
 15 17  1  0  0  0  0
 15 14  2  0  0  0  0
 16 15  1  0  0  0  0
 17 19  2  0  0  0  0
 18 17  1  0  0  0  0
 19 20  1  0  0  0  0
 19 21  1  0  0  0  0
 21 22  1  0  0  0  0
 23 21  2  0  0  0  0
 23 24  1  0  0  0  0
M  END
