1,4
q = 0.0, confidence = 0.842

 10  9  0  0  0  0  0  0  0  0999 V2000
    1.6717    1.5035   -1.6544 C   0  0  0  0  0  3  0  0  0  0  0  0
    2.7695    1.5248   -0.7257 C   0  0  0  0  0  0  0  0  0  0  0  0
    2.6723    1.6322    0.6783 C   0  0  0  0  0  0  0  0  0  0  0  0
    1.4569    1.7410    1.4398 C   0  0  0  0  0  3  0  0  0  0  0  0
    0.8302    2.2001   -1.4950 H   0  0  0  0  0  0  0  0  0  0  0  0
    1.8878    1.3162   -2.7160 H   0  0  0  0  0  0  0  0  0  0  0  0
    3.7423    1.1619   -1.0974 H   0  0  0  0  0  0  0  0  0  0  0  0
    3.5803    1.3402    1.2320 H   0  0  0  0  0  0  0  0  0  0  0  0
    0.6543    2.3983    1.0559 H   0  0  0  0  0  0  0  0  0  0  0  0
    1.5187    1.7305    2.5373 H   0  0  0  0  0  0  0  0  0  0  0  0
  1  5  1  0  0  0  0
  1  2  1  0  0  0  0
  2  3  2  0  0  0  0
  3  8  1  0  0  0  0
  3  4  1  0  0  0  0
  4 10  1  0  0  0  0
  6  1  1  0  0  0  0
  7  2  1  0  0  0  0
  9  4  1  0  0  0  0
M  END
