2,5
q = -2.0, confidence = 0.548

 21 20  0  0  0  0  0  0  0  0999 V2000
   -2.8521    0.0001    0.3510 O   0  0  0  0  0  0  0  0  0  0  0  0
   -1.0971    1.4181   -0.5679 C   0  0  0  0  0  3  0  0  0  0  0  0
   -2.3423    1.2090   -0.0526 C   0  0  0  0  0  0  0  0  0  0  0  0
   -2.3423   -1.2090   -0.0526 C   0  0  0  0  0  0  0  0  0  0  0  0
   -1.0972   -1.4181   -0.5678 C   0  0  0  0  0  3  0  0  0  0  0  0
   -0.7686    2.8158   -1.0580 C   0  0  0  0  0  0  0  0  0  0  0  0
    0.2204    2.8556   -1.5527 H   0  0  0  0  0  0  0  0  0  0  0  0
   -0.7517    3.5683   -0.2354 H   0  0  0  0  0  0  0  0  0  0  0  0
   -1.5157    3.1744   -1.7995 H   0  0  0  0  0  0  0  0  0  0  0  0
   -3.3764    2.2855    0.1509 C   0  0  0  0  0  0  0  0  0  0  0  0
   -2.9311    3.2129    0.5629 H   0  0  0  0  0  0  0  0  0  0  0  0
   -4.1640    1.9278    0.8406 H   0  0  0  0  0  0  0  0  0  0  0  0
   -3.8663    2.5602   -0.8086 H   0  0  0  0  0  0  0  0  0  0  0  0
   -3.3765   -2.2853    0.1509 C   0  0  0  0  0  0  0  0  0  0  0  0
   -2.9313   -3.2127    0.5629 H   0  0  0  0  0  0  0  0  0  0  0  0
   -3.8664   -2.5600   -0.8087 H   0  0  0  0  0  0  0  0  0  0  0  0
   -4.1642   -1.9276    0.8405 H   0  0  0  0  0  0  0  0  0  0  0  0
   -0.7688   -2.8158   -1.0580 C   0  0  0  0  0  0  0  0  0  0  0  0
    0.2204   -2.8557   -1.5523 H   0  0  0  0  0  0  0  0  0  0  0  0
   -1.5156   -3.1741   -1.7998 H   0  0  0  0  0  0  0  0  0  0  0  0
   -0.7524   -3.5684   -0.2355 H   0  0  0  0  0  0  0  0  0  0  0  0
  2  3  2  0  0  0  0
  3 10  1  0  0  0  0
  3  1  1  0  0  0  0
  4 14  1  0  0  0  0
  4  1  1  0  0  0  0
  5  4  2  0  0  0  0
  6  2  1  0  0  0  0
  6  8  1  0  0  0  0
  7  6  1  0  0  0  0
  9  6  1  0  0  0  0
 10 11  1  0  0  0  0
 10 12  1  0  0  0  0
 13 10  1  0  0  0  0
 14 15  1  0  0  0  0
 14 17  1  0  0  0  0
 16 14  1  0  0  0  0
 18  5  1  0  0  0  0
 18 21  1  0  0  0  0
 19 18  1  0  0  0  0
 20 18  1  0  0  0  0
M  END
