5,6
q = -1.0, confidence = 0.0

 17 16  0  0  0  0  0  0  0  0999 V2000
    3.4414   -2.5962   -0.0121 C   0  0  0  0  0  0  0  0  0  0  0  0
    3.3096   -3.1799    0.9242 H   0  0  0  0  0  0  0  0  0  0  0  0
    4.5012   -2.2994   -0.1120 H   0  0  0  0  0  0  0  0  0  0  0  0
    3.1666   -3.2643   -0.8534 H   0  0  0  0  0  0  0  0  0  0  0  0
    1.2489   -1.4750    0.0060 C   0  0  0  0  0  3  0  0  0  0  0  0
   -1.3209   -1.3984    0.0016 C   0  0  0  0  0  2  0  0  0  0  0  0
   -3.5206   -2.5471   -0.0131 C   0  0  0  0  0  0  0  0  0  0  0  0
   -3.3389   -3.1715   -0.9155 H   0  0  0  0  0  0  0  0  0  0  0  0
   -4.5802   -2.2370   -0.0227 H   0  0  0  0  0  0  0  0  0  0  0  0
   -3.3559   -3.1746    0.8907 H   0  0  0  0  0  0  0  0  0  0  0  0
    2.6050   -1.4094   -0.0193 N   0  0  0  0  0  0  0  0  0  0  0  0
    3.0421   -0.4979    0.0751 H   0  0  0  0  0  0  0  0  0  0  0  0
    0.6922   -2.6681    0.0054 N   0  0  0  0  0  0  0  0  0  0  0  0
   -0.6792   -2.5729   -0.0011 N   0  0  0  0  0  0  0  0  0  0  0  0
   -1.1592   -3.4779   -0.0002 H   0  0  0  0  0  0  0  0  0  0  0  0
   -2.6693   -1.3703   -0.0046 N   0  0  0  0  0  0  0  0  0  0  0  0
   -3.1075   -0.4524    0.0060 H   0  0  0  0  0  0  0  0  0  0  0  0
  1  2  1  0  0  0  0
  3  1  1  0  0  0  0
  4  1  1  0  0  0  0
  7 16  1  0  0  0  0
  7 10  1  0  0  0  0
  8  7  1  0  0  0  0
  9  7  1  0  0  0  0
 11  1  1  0  0  0  0
 11  5  1  0  0  0  0
 11 12  1  0  0  0  0
 13  5  2  0  0  0  0
 14 15  1  0  0  0  0
 14  6  1  0  0  0  0
 14 13  1  0  0  0  0
 16  6  1  0  0  0  0
 16 17  1  0  0  0  0
M  END
