6,14
q = -2.0, confidence = 0.708

 24 25  0  0  0  0  0  0  0  0999 V2000
    1.5436    2.9046   -0.7012 O   0  0  0  0  0  0  0  0  0  0  0  0
   -0.1778    1.5630    0.2485 C   0  0  0  0  0  0  0  0  0  0  0  0
   -1.4384    1.9207   -0.3223 C   0  0  0  0  0  0  0  0  0  0  0  0
   -2.4690    1.5215    0.6045 C   0  0  0  0  0  0  0  0  0  0  0  0
   -1.8442    0.9504    1.7529 C   0  0  0  0  0  0  0  0  0  0  0  0
   -0.4206    0.9536    1.5292 C   0  0  0  0  0  3  0  0  0  0  0  0
    1.1950    1.7915   -0.3209 C   0  0  0  0  0  0  0  0  0  0  0  0
    2.0723    0.5896   -0.2756 C   0  0  0  0  0  0  0  0  0  0  0  0
    1.5168   -0.6866   -0.5861 C   0  0  0  0  0  0  0  0  0  0  0  0
    2.3317   -1.8207   -0.3782 C   0  0  0  0  0  0  0  0  0  0  0  0
    3.6559   -1.6906    0.0636 C   0  0  0  0  0  0  0  0  0  0  0  0
    4.2134   -0.4187    0.2885 C   0  0  0  0  0  0  0  0  0  0  0  0
    3.4202    0.7208    0.1075 C   0  0  0  0  0  0  0  0  0  0  0  0
    0.1722   -0.7920   -1.2119 C   0  0  0  0  0  3  0  0  0  0  0  0
   -1.5812    2.3969   -1.2991 H   0  0  0  0  0  0  0  0  0  0  0  0
   -3.5490    1.6359    0.4511 H   0  0  0  0  0  0  0  0  0  0  0  0
   -2.3564    0.5636    2.6420 H   0  0  0  0  0  0  0  0  0  0  0  0
    0.3534    0.5807    2.2103 H   0  0  0  0  0  0  0  0  0  0  0  0
    1.9208   -2.8188   -0.5979 H   0  0  0  0  0  0  0  0  0  0  0  0
    4.2685   -2.5925    0.2162 H   0  0  0  0  0  0  0  0  0  0  0  0
    5.2592   -0.3209    0.6161 H   0  0  0  0  0  0  0  0  0  0  0  0
    3.8161    1.7311    0.2925 H   0  0  0  0  0  0  0  0  0  0  0  0
    0.0781   -0.1013   -2.0720 H   0  0  0  0  0  0  0  0  0  0  0  0
   -0.0161   -1.8209   -1.5703 H   0  0  0  0  0  0  0  0  0  0  0  0
  1  7  2  0  0  0  0
  2  6  1  0  0  0  0
  3  2  2  0  0  0  0
  3  4  1  0  0  0  0
  4  5  2  0  0  0  0
  5 17  1  0  0  0  0
  6  5  1  0  0  0  0
  6 18  1  0  0  0  0
  7  8  1  0  0  0  0
  7  2  1  0  0  0  0
  8 13  1  0  0  0  0
  9 10  1  0  0  0  0
  9  8  2  0  0  0  0
 10 11  2  0  0  0  0
 11 20  1  0  0  0  0
 11 12  1  0  0  0  0
 12 21  1  0  0  0  0
 13 12  2  0  0  0  0
 13 22  1  0  0  0  0
 14  9  1  0  0  0  0
 15  3  1  0  0  0  0
 16  4  1  0  0  0  0
 19 10  1  0  0  0  0
 23 14  1  0  0  0  0
 24 14  1  0  0  0  0
M  END
