1,5
q = -1.0

 18 17  0  0  1  0  0  0  0  0999 V2000
   -1.0885   -1.4724    2.2126 C   0  0  0  0  0  3  0  0  0  0  0  0
   -1.8210   -0.2444    2.3482 C   0  0  0  0  0  0  0  0  0  0  0  0
   -1.1355    1.0141    2.3819 C   0  0  0  0  0  0  0  0  0  0  0  0
    0.2665    1.2681    2.1964 C   0  0  2  0  0  3  0  0  0  0  0  0
    1.2086    0.1898    2.0607 C   0  0  0  0  0  3  0  0  0  0  0  0
   -3.3247   -0.2316    2.4631 C   0  0  0  0  0  0  0  0  0  0  0  0
    0.7002    2.7133    2.1575 C   0  0  0  0  0  0  0  0  0  0  0  0
   -0.2394   -1.6764    2.8794 H   0  0  0  0  0  0  0  0  0  0  0  0
   -1.7146   -2.3642    2.0489 H   0  0  0  0  0  0  0  0  0  0  0  0
   -1.7828    1.9070    2.4022 H   0  0  0  0  0  0  0  0  0  0  0  0
    1.2067   -0.6305    2.7937 H   0  0  0  0  0  0  0  0  0  0  0  0
    2.2221    0.5026    1.7643 H   0  0  0  0  0  0  0  0  0  0  0  0
   -3.7878   -1.0976    1.9554 H   0  0  0  0  0  0  0  0  0  0  0  0
   -3.7823    0.6921    2.0635 H   0  0  0  0  0  0  0  0  0  0  0  0
   -3.5878   -0.3117    3.5394 H   0  0  0  0  0  0  0  0  0  0  0  0
    1.7052    2.8295    1.7183 H   0  0  0  0  0  0  0  0  0  0  0  0
    0.7515    3.0885    3.2018 H   0  0  0  0  0  0  0  0  0  0  0  0
   -0.0122    3.3587    1.6060 H   0  0  0  0  0  0  0  0  0  0  0  0
  1  2  1  0  0  0  0
  1  8  1  0  0  0  0
  2  3  2  0  0  0  0
  2  6  1  0  0  0  0
  3 10  1  0  0  0  0
  4  5  1  1  0  0  0
  4  3  1  0  0  0  0
  5 11  1  0  0  0  0
  6 15  1  0  0  0  0
  7  4  1  0  0  0  0
  7 17  1  0  0  0  0
  9  1  1  0  0  0  0
 12  5  1  0  0  0  0
 13  6  1  0  0  0  0
 14  6  1  0  0  0  0
 16  7  1  0  0  0  0
 18  7  1  0  0  0  0
M  END
