4,11
q = 0.0, confidence = 0.992

 19 19  0  0  0  0  0  0  0  0999 V2000
    4.8547   -1.4230    0.4256 O   0  0  0  0  0  0  0  0  0  0  0  0
    1.8189   -1.3244   -2.5150 C   0  0  0  0  0  3  0  0  0  0  0  0
    0.9946   -1.2872   -3.2403 H   0  0  0  0  0  0  0  0  0  0  0  0
    2.8487   -0.3255   -2.5137 C   0  0  0  0  0  3  0  0  0  0  0  0
    2.8068    0.4901   -3.2551 H   0  0  0  0  0  0  0  0  0  0  0  0
    3.9371   -0.3462   -1.5741 C   0  0  0  0  0  3  0  0  0  0  0  0
    4.7061    0.4354   -1.6073 H   0  0  0  0  0  0  0  0  0  0  0  0
    3.9431   -1.3459   -0.5503 C   0  0  0  0  0  0  0  0  0  0  0  0
    2.8520   -2.2806   -0.4623 C   0  0  0  0  0  0  0  0  0  0  0  0
    2.7801   -2.9383    0.4116 H   0  0  0  0  0  0  0  0  0  0  0  0
    1.8233   -2.2769   -1.4490 C   0  0  0  0  0  3  0  0  0  0  0  0
    0.9714   -2.9534   -1.2972 H   0  0  0  0  0  0  0  0  0  0  0  0
    5.7081   -0.2909    0.6833 C   0  0  0  0  0  0  0  0  0  0  0  0
    5.0760    0.6223    0.7072 H   0  0  0  0  0  0  0  0  0  0  0  0
    6.4565   -0.2028   -0.1372 H   0  0  0  0  0  0  0  0  0  0  0  0
    6.3720   -0.5180    2.0249 C   0  0  0  0  0  0  0  0  0  0  0  0
    7.0646    0.3167    2.2506 H   0  0  0  0  0  0  0  0  0  0  0  0
    6.9492   -1.4637    2.0307 H   0  0  0  0  0  0  0  0  0  0  0  0
    5.6035   -0.5644    2.8205 H   0  0  0  0  0  0  0  0  0  0  0  0
  1 13  1  0  0  0  0
  2  4  1  0  0  0  0
  2 11  1  0  0  0  0
  3  2  1  0  0  0  0
  4  6  1  0  0  0  0
  5  4  1  0  0  0  0
  6  8  1  0  0  0  0
  7  6  1  0  0  0  0
  8  9  2  0  0  0  0
  8  1  1  0  0  0  0
  9 10  1  0  0  0  0
 11 12  1  0  0  0  0
 11  9  1  0  0  0  0
 13 14  1  0  0  0  0
 13 16  1  0  0  0  0
 15 13  1  0  0  0  0
 16 18  1  0  0  0  0
 16 17  1  0  0  0  0
 16 19  1  0  0  0  0
M  END
