2,11
q = -1.0

 20 21  0  0  0  0  0  0  0  0999 V2000
    2.9135   -0.9256    0.7795 N   0  0  0  0  0  0  0  0  0  0  0  0
    1.6561   -0.5668    1.3022 C   0  0  0  0  0  2  0  0  0  0  0  0
    1.5207   -0.7200    2.7089 C   0  0  0  0  0  0  0  0  0  0  0  0
    0.5281   -0.5279    3.1371 H   0  0  0  0  0  0  0  0  0  0  0  0
    2.5837   -1.0892    3.5249 C   0  0  0  0  0  0  0  0  0  0  0  0
    2.4443   -1.1835    4.6127 H   0  0  0  0  0  0  0  0  0  0  0  0
    3.8505   -1.3376    2.9461 C   0  0  0  0  0  0  0  0  0  0  0  0
    4.7249   -1.6054    3.5540 H   0  0  0  0  0  0  0  0  0  0  0  0
    3.9758   -1.2621    1.5722 C   0  0  0  0  0  0  0  0  0  0  0  0
    4.9194   -1.4811    1.0576 H   0  0  0  0  0  0  0  0  0  0  0  0
    1.6950   -0.7028   -1.2559 C   0  0  0  0  0  3  0  0  0  0  0  0
    1.5830   -0.9910   -2.6357 C   0  0  0  0  0  0  0  0  0  0  0  0
    0.6201   -0.8208   -3.1395 H   0  0  0  0  0  0  0  0  0  0  0  0
    2.6662   -1.4935   -3.3714 C   0  0  0  0  0  0  0  0  0  0  0  0
    2.5483   -1.6977   -4.4472 H   0  0  0  0  0  0  0  0  0  0  0  0
    3.9039   -1.7388   -2.7476 C   0  0  0  0  0  0  0  0  0  0  0  0
    4.7565   -2.1207   -3.3280 H   0  0  0  0  0  0  0  0  0  0  0  0
    4.0423   -1.5195   -1.3708 C   0  0  0  0  0  0  0  0  0  0  0  0
    4.9996   -1.7561   -0.8838 H   0  0  0  0  0  0  0  0  0  0  0  0
    2.9413   -1.0281   -0.6494 C   0  0  0  0  0  0  0  0  0  0  0  0
  1  2  1  0  0  0  0
  1  9  1  0  0  0  0
  2  3  1  0  0  0  0
  3  4  1  0  0  0  0
  3  5  2  0  0  0  0
  5  6  1  0  0  0  0
  7  5  1  0  0  0  0
  7  8  1  0  0  0  0
  9  7  2  0  0  0  0
 10  9  1  0  0  0  0
 11 20  1  0  0  0  0
 12 11  2  0  0  0  0
 13 12  1  0  0  0  0
 14 16  2  0  0  0  0
 14 12  1  0  0  0  0
 15 14  1  0  0  0  0
 16 18  1  0  0  0  0
 17 16  1  0  0  0  0
 18 19  1  0  0  0  0
 18 20  2  0  0  0  0
 20  1  1  0  0  0  0
M  END
