2,14
q = -1.0

 17 17  0  0  0  0  0  0  0  0999 V2000
   -3.0567   -0.9838   -0.4190 N   0  0  0  0  0  0  0  0  0  0  0  0
   -1.9678   -0.8153    0.4646 C   0  0  0  0  0  2  0  0  0  0  0  0
   -2.1282   -1.3730    1.7523 C   0  0  0  0  0  0  0  0  0  0  0  0
   -1.2725   -1.3123    2.4382 H   0  0  0  0  0  0  0  0  0  0  0  0
   -3.3184   -1.9811    2.1498 C   0  0  0  0  0  0  0  0  0  0  0  0
   -3.4218   -2.3977    3.1633 H   0  0  0  0  0  0  0  0  0  0  0  0
   -4.3956   -2.0498    1.2459 C   0  0  0  0  0  0  0  0  0  0  0  0
   -5.3547   -2.5012    1.5344 H   0  0  0  0  0  0  0  0  0  0  0  0
   -4.2557   -1.5555   -0.0492 C   0  0  0  0  0  0  0  0  0  0  0  0
   -5.3565   -1.6404   -1.0628 C   0  0  0  0  0  0  0  0  0  0  0  0
   -6.2648   -2.0667   -0.5996 H   0  0  0  0  0  0  0  0  0  0  0  0
   -5.0739   -2.2842   -1.9226 H   0  0  0  0  0  0  0  0  0  0  0  0
   -5.6100   -0.6413   -1.4747 H   0  0  0  0  0  0  0  0  0  0  0  0
   -1.4825   -0.1517   -1.9412 C   0  0  0  0  0  3  0  0  0  0  0  0
   -1.1735    0.0903   -2.9736 H   0  0  0  0  0  0  0  0  0  0  0  0
   -2.7609   -0.5946   -1.7497 C   0  0  0  0  0  0  0  0  0  0  0  0
   -3.5423   -0.7304   -2.5054 H   0  0  0  0  0  0  0  0  0  0  0  0
  1  9  1  0  0  0  0
  1  2  1  0  0  0  0
  2  3  1  0  0  0  0
  3  5  2  0  0  0  0
  3  4  1  0  0  0  0
  5  6  1  0  0  0  0
  7  8  1  0  0  0  0
  7  5  1  0  0  0  0
  9  7  2  0  0  0  0
 10 11  1  0  0  0  0
 10  9  1  0  0  0  0
 12 10  1  0  0  0  0
 13 10  1  0  0  0  0
 14 16  2  0  0  0  0
 15 14  1  0  0  0  0
 16  1  1  0  0  0  0
 17 16  1  0  0  0  0
M  END
