9,11
q = -2.0, confidence = 0.8

 37 37  0  0  0  0  0  0  0  0999 V2000
    1.6570   -0.5668    1.7439 Si  0  0  0  0  0  0  0  0  0  0  0  0
    1.8416   -0.9169   -1.5171 Si  0  0  0  0  0  0  0  0  0  0  0  0
    3.1847    0.4455    2.2610 C   0  0  0  0  0  0  0  0  0  0  0  0
    2.2254   -2.3739    1.9838 C   0  0  0  0  0  0  0  0  0  0  0  0
    0.3191   -0.1556    3.0392 C   0  0  0  0  0  0  0  0  0  0  0  0
    3.7111   -0.5472   -1.6140 C   0  0  0  0  0  0  0  0  0  0  0  0
    1.7741   -2.8257   -1.6234 C   0  0  0  0  0  0  0  0  0  0  0  0
    1.0435   -0.2105   -3.0899 C   0  0  0  0  0  0  0  0  0  0  0  0
    1.0640   -0.1069    0.0010 C   0  0  0  0  0  3  0  0  0  0  0  0
    1.1580    1.4109   -0.1413 C   0  0  0  0  0  0  0  0  0  0  0  0
   -0.1892    1.8163   -0.1328 C   0  0  0  0  0  3  0  0  0  0  0  0
   -0.4797    3.1929   -0.1957 C   0  0  0  0  0  0  0  0  0  0  0  0
    0.5758    4.1273   -0.2919 C   0  0  0  0  0  0  0  0  0  0  0  0
    1.9109    3.6982   -0.3271 C   0  0  0  0  0  0  0  0  0  0  0  0
    2.2190    2.3235   -0.2463 C   0  0  0  0  0  0  0  0  0  0  0  0
    0.7737   -3.2569   -1.8226 H   0  0  0  0  0  0  0  0  0  0  0  0
    2.4247   -3.1355   -2.4681 H   0  0  0  0  0  0  0  0  0  0  0  0
    2.1748   -3.3074   -0.7093 H   0  0  0  0  0  0  0  0  0  0  0  0
    1.5776   -0.5435   -4.0041 H   0  0  0  0  0  0  0  0  0  0  0  0
   -0.0214   -0.5079   -3.1816 H   0  0  0  0  0  0  0  0  0  0  0  0
    1.0700    0.8977   -3.0507 H   0  0  0  0  0  0  0  0  0  0  0  0
    4.2410   -0.8975   -0.7040 H   0  0  0  0  0  0  0  0  0  0  0  0
    4.1601   -1.0656   -2.4873 H   0  0  0  0  0  0  0  0  0  0  0  0
    3.9076    0.5369   -1.7270 H   0  0  0  0  0  0  0  0  0  0  0  0
    3.1149   -2.5811    1.3532 H   0  0  0  0  0  0  0  0  0  0  0  0
    2.5387   -2.5062    3.0409 H   0  0  0  0  0  0  0  0  0  0  0  0
    1.4679   -3.1490    1.7629 H   0  0  0  0  0  0  0  0  0  0  0  0
    3.5245    0.1185    3.2663 H   0  0  0  0  0  0  0  0  0  0  0  0
    4.0274    0.3010    1.5543 H   0  0  0  0  0  0  0  0  0  0  0  0
    2.9614    1.5293    2.3057 H   0  0  0  0  0  0  0  0  0  0  0  0
    0.7058   -0.2884    4.0719 H   0  0  0  0  0  0  0  0  0  0  0  0
    0.0134    0.9037    2.9142 H   0  0  0  0  0  0  0  0  0  0  0  0
   -0.5924   -0.7795    2.9326 H   0  0  0  0  0  0  0  0  0  0  0  0
    3.2679    1.9917   -0.2505 H   0  0  0  0  0  0  0  0  0  0  0  0
    2.7227    4.4382   -0.4078 H   0  0  0  0  0  0  0  0  0  0  0  0
    0.3453    5.2039   -0.3404 H   0  0  0  0  0  0  0  0  0  0  0  0
   -1.5082    3.5949   -0.1657 H   0  0  0  0  0  0  0  0  0  0  0  0
  1  4  1  0  0  0  0
  1  3  1  0  0  0  0
  1  5  1  0  0  0  0
  2  9  1  0  0  0  0
  3 30  1  0  0  0  0
  3 28  1  0  0  0  0
  4 26  1  0  0  0  0
  5 31  1  0  0  0  0
  6  2  1  0  0  0  0
  6 22  1  0  0  0  0
  7  2  1  0  0  0  0
  7 18  1  0  0  0  0
  8 21  1  0  0  0  0
  8  2  1  0  0  0  0
  9  1  1  0  0  0  0
 10 11  1  0  0  0  0
 10  9  1  0  0  0  0
 12 37  1  0  0  0  0
 12 11  2  0  0  0  0
 13 12  1  0  0  0  0
 14 13  2  0  0  0  0
 14 15  1  0  0  0  0
 15 10  2  0  0  0  0
 16  7  1  0  0  0  0
 17  7  1  0  0  0  0
 19  8  1  0  0  0  0
 20  8  1  0  0  0  0
 23  6  1  0  0  0  0
 24  6  1  0  0  0  0
 25  4  1  0  0  0  0
 27  4  1  0  0  0  0
 29  3  1  0  0  0  0
 32  5  1  0  0  0  0
 33  5  1  0  0  0  0
 34 15  1  0  0  0  0
 35 14  1  0  0  0  0
 36 13  1  0  0  0  0
M  END
