2,5
q = -1.0

 15 15  0  0  0  0  0  0  0  0999 V2000
    0.1795   -0.0043   -2.1150 N   0  0  0  0  0  2  0  0  0  0  0  0
    0.7040   -1.1000   -1.4510 C   0  0  0  0  0  3  0  0  0  0  0  0
    1.5699   -0.7245   -0.3751 C   0  0  0  0  0  0  0  0  0  0  0  0
    1.5697    0.7234   -0.3781 C   0  0  0  0  0  0  0  0  0  0  0  0
    0.7037    1.0940   -1.4557 C   0  0  0  0  0  3  0  0  0  0  0  0
    2.3728   -1.6287    0.5065 C   0  0  0  0  0  0  0  0  0  0  0  0
    2.3722    1.6313    0.5001 C   0  0  0  0  0  0  0  0  0  0  0  0
    0.4641   -2.1210   -1.7782 H   0  0  0  0  0  0  0  0  0  0  0  0
    0.4634    2.1136   -1.7871 H   0  0  0  0  0  0  0  0  0  0  0  0
    2.3926   -1.2701    1.5542 H   0  0  0  0  0  0  0  0  0  0  0  0
    3.4240   -1.6845    0.1527 H   0  0  0  0  0  0  0  0  0  0  0  0
    1.9596   -2.6553    0.5056 H   0  0  0  0  0  0  0  0  0  0  0  0
    2.3923    1.2765    1.5491 H   0  0  0  0  0  0  0  0  0  0  0  0
    1.9583    2.6576    0.4956 H   0  0  0  0  0  0  0  0  0  0  0  0
    3.4234    1.6866    0.1461 H   0  0  0  0  0  0  0  0  0  0  0  0
  1  5  1  0  0  0  0
  1  2  1  0  0  0  0
  2  3  1  0  0  0  0
  3  6  1  0  0  0  0
  4  3  2  0  0  0  0
  4  7  1  0  0  0  0
  5  4  1  0  0  0  0
  6 10  1  0  0  0  0
  7 13  1  0  0  0  0
  8  2  1  0  0  0  0
  9  5  1  0  0  0  0
 11  6  1  0  0  0  0
 12  6  1  0  0  0  0
 14  7  1  0  0  0  0
 15  7  1  0  0  0  0
M  END
