2,5
q = -1.0, confidence = 0.082

 21 21  0  0  0  0  0  0  0  0999 V2000
   -1.8506    1.2190    1.0204 C   0  0  0  0  0  3  0  0  0  0  0  0
   -1.9500   -0.0584    1.6980 C   0  0  0  0  0  3  0  0  0  0  0  0
   -3.2706   -0.7462    2.0353 C   0  0  0  0  0  0  0  0  0  0  0  0
   -3.9427   -1.3621    0.7869 C   0  0  0  0  0  0  0  0  0  0  0  0
   -3.5128   -0.6783   -0.5207 C   0  0  0  0  0  3  0  0  0  0  0  0
   -4.2909    0.6032   -0.8352 C   0  0  0  0  0  0  0  0  0  0  0  0
   -4.3351    1.6463    0.2833 C   0  0  0  0  0  0  0  0  0  0  0  0
   -2.9689    2.1997    0.7060 C   0  0  0  0  0  0  0  0  0  0  0  0
   -0.9241    1.7712    1.2694 H   0  0  0  0  0  0  0  0  0  0  0  0
   -1.1249   -0.2854    2.3941 H   0  0  0  0  0  0  0  0  0  0  0  0
   -3.9480   -0.0252    2.5433 H   0  0  0  0  0  0  0  0  0  0  0  0
   -3.0730   -1.5441    2.7792 H   0  0  0  0  0  0  0  0  0  0  0  0
   -5.0542   -1.3537    0.8836 H   0  0  0  0  0  0  0  0  0  0  0  0
   -3.6485   -2.4303    0.7290 H   0  0  0  0  0  0  0  0  0  0  0  0
   -3.6753   -1.3792   -1.3637 H   0  0  0  0  0  0  0  0  0  0  0  0
   -5.3429    0.3118   -1.0663 H   0  0  0  0  0  0  0  0  0  0  0  0
   -3.8972    1.0646   -1.7669 H   0  0  0  0  0  0  0  0  0  0  0  0
   -4.8571    1.2151    1.1623 H   0  0  0  0  0  0  0  0  0  0  0  0
   -4.9694    2.4995   -0.0395 H   0  0  0  0  0  0  0  0  0  0  0  0
   -2.5981    2.8821   -0.0914 H   0  0  0  0  0  0  0  0  0  0  0  0
   -3.1166    2.8504    1.6002 H   0  0  0  0  0  0  0  0  0  0  0  0
  1  9  1  0  0  0  0
  1  2  1  0  0  0  0
  2  3  1  0  0  0  0
  2 10  1  0  0  0  0
  3 11  1  0  0  0  0
  3 12  1  0  0  0  0
  4 13  1  0  0  0  0
  4  3  1  0  0  0  0
  5  4  1  0  0  0  0
  6  5  1  0  0  0  0
  6  7  1  0  0  0  0
  7  8  1  0  0  0  0
  7 18  1  0  0  0  0
  8  1  1  0  0  0  0
  8 21  1  0  0  0  0
 14  4  1  0  0  0  0
 15  5  1  0  0  0  0
 16  6  1  0  0  0  0
 17  6  1  0  0  0  0
 19  7  1  0  0  0  0
 20  8  1  0  0  0  0
M  END
