12,16
q = 0.0, confidence = 0.996

 48 49  0  0  1  0  0  0  0  0999 V2000
    3.1622    0.1105   -2.0394 O   0  0  0  0  0  0  0  0  0  0  0  0
    3.3854   -1.7086   -0.0732 O   0  0  0  0  0  0  0  0  0  0  0  0
    2.3335   -1.2707    2.3591 O   0  0  0  0  0  0  0  0  0  0  0  0
   -1.0162    2.4989    0.7008 N   0  0  0  0  0  0  0  0  0  0  0  0
   -2.4825    1.1001   -0.1586 N   0  0  0  0  0  0  0  0  0  0  0  0
   -2.2115    3.3230    0.5602 C   0  0  0  0  0  0  0  0  0  0  0  0
   -2.0982    4.0350   -0.2935 H   0  0  0  0  0  0  0  0  0  0  0  0
   -2.4186    3.9179    1.4732 H   0  0  0  0  0  0  0  0  0  0  0  0
   -3.2810    2.2525    0.2852 C   0  0  0  0  0  0  0  0  0  0  0  0
   -3.8495    1.9911    1.2051 H   0  0  0  0  0  0  0  0  0  0  0  0
   -4.0114    2.5488   -0.4946 H   0  0  0  0  0  0  0  0  0  0  0  0
   -1.1810    1.2469    0.1412 C   0  0  0  0  0  2  0  0  0  0  0  0
    0.3195    3.0471    0.8429 C   0  0  0  0  0  0  0  0  0  0  0  0
    0.4387    3.5321    1.8362 H   0  0  0  0  0  0  0  0  0  0  0  0
    0.5072    3.8297    0.0703 H   0  0  0  0  0  0  0  0  0  0  0  0
    1.3002    1.8929    0.6682 C   0  0  2  0  0  3  0  0  0  0  0  0
    1.8966    1.6703   -0.6289 C   0  0  0  0  0  3  0  0  0  0  0  0
    1.7611    2.4115   -1.4264 H   0  0  0  0  0  0  0  0  0  0  0  0
    2.6138    0.4467   -0.8658 C   0  0  0  0  0  0  0  0  0  0  0  0
    2.7110   -0.5556    0.1596 C   0  0  0  0  0  0  0  0  0  0  0  0
    2.1722   -0.2815    1.4722 C   0  0  0  0  0  0  0  0  0  0  0  0
    1.4776    0.9436    1.7446 C   0  0  0  0  0  0  0  0  0  0  0  0
    1.0242    1.1358    2.7253 H   0  0  0  0  0  0  0  0  0  0  0  0
    2.8349    0.8822   -3.1961 C   0  0  0  0  0  0  0  0  0  0  0  0
    1.7360    0.8741   -3.3528 H   0  0  0  0  0  0  0  0  0  0  0  0
    3.3356    0.3798   -4.0433 H   0  0  0  0  0  0  0  0  0  0  0  0
    3.2214    1.9213   -3.1130 H   0  0  0  0  0  0  0  0  0  0  0  0
    2.5624   -2.7765   -0.5774 C   0  0  0  0  0  0  0  0  0  0  0  0
    1.7624   -3.0280    0.1495 H   0  0  0  0  0  0  0  0  0  0  0  0
    3.2349   -3.6412   -0.7295 H   0  0  0  0  0  0  0  0  0  0  0  0
    2.0866   -2.4828   -1.5364 H   0  0  0  0  0  0  0  0  0  0  0  0
    1.5655   -1.2412    3.5622 C   0  0  0  0  0  0  0  0  0  0  0  0
    1.8575   -0.3849    4.2086 H   0  0  0  0  0  0  0  0  0  0  0  0
    1.7960   -2.1845    4.0892 H   0  0  0  0  0  0  0  0  0  0  0  0
    0.4839   -1.2070    3.3152 H   0  0  0  0  0  0  0  0  0  0  0  0
   -3.1306   -0.1160   -0.6310 C   0  0  0  0  0  0  0  0  0  0  0  0
   -2.3228   -0.7821   -0.9898 H   0  0  0  0  0  0  0  0  0  0  0  0
   -3.7544    0.1577   -1.5099 H   0  0  0  0  0  0  0  0  0  0  0  0
   -3.9671   -0.8138    0.4483 C   0  0  0  0  0  0  0  0  0  0  0  0
   -3.3306   -0.8961    1.3534 H   0  0  0  0  0  0  0  0  0  0  0  0
   -4.8606   -0.2023    0.7121 H   0  0  0  0  0  0  0  0  0  0  0  0
   -4.4088   -2.2218    0.0292 C   0  0  0  0  0  0  0  0  0  0  0  0
   -3.4936   -2.8292   -0.1407 H   0  0  0  0  0  0  0  0  0  0  0  0
   -4.9336   -2.6943    0.8872 H   0  0  0  0  0  0  0  0  0  0  0  0
   -5.3107   -2.2717   -1.2066 C   0  0  0  0  0  0  0  0  0  0  0  0
   -6.2205   -1.6478   -1.0720 H   0  0  0  0  0  0  0  0  0  0  0  0
   -5.6468   -3.3068   -1.4184 H   0  0  0  0  0  0  0  0  0  0  0  0
   -4.7899   -1.9087   -2.1164 H   0  0  0  0  0  0  0  0  0  0  0  0
  1 19  1  0  0  0  0
  2 20  1  0  0  0  0
  3 32  1  0  0  0  0
  4 13  1  0  0  0  0
  5 12  1  0  0  0  0
  5  9  1  0  0  0  0
  6  4  1  0  0  0  0
  6  8  1  0  0  0  0
  7  6  1  0  0  0  0
  9  6  1  0  0  0  0
  9 10  1  0  0  0  0
 11  9  1  0  0  0  0
 12  4  1  0  0  0  0
 13 14  1  0  0  0  0
 15 13  1  0  0  0  0
 16 13  1  6  0  0  0
 16 22  1  0  0  0  0
 17 16  1  0  0  0  0
 18 17  1  0  0  0  0
 19 17  1  0  0  0  0
 19 20  2  0  0  0  0
 20 21  1  0  0  0  0
 21 22  2  0  0  0  0
 21  3  1  0  0  0  0
 22 23  1  0  0  0  0
 24 27  1  0  0  0  0
 24  1  1  0  0  0  0
 25 24  1  0  0  0  0
 26 24  1  0  0  0  0
 28  2  1  0  0  0  0
 28 29  1  0  0  0  0
 30 28  1  0  0  0  0
 31 28  1  0  0  0  0
 32 34  1  0  0  0  0
 32 33  1  0  0  0  0
 35 32  1  0  0  0  0
 36  5  1  0  0  0  0
 36 39  1  0  0  0  0
 37 36  1  0  0  0  0
 38 36  1  0  0  0  0
 39 41  1  0  0  0  0
 39 40  1  0  0  0  0
 42 39  1  0  0  0  0
 42 44  1  0  0  0  0
 43 42  1  0  0  0  0
 45 46  1  0  0  0  0
 45 42  1  0  0  0  0
 47 45  1  0  0  0  0
 48 45  1  0  0  0  0
M  END
