1,16
q = -1.0

 20 19  0  0  1  0  0  0  0  0999 V2000
    1.4163    0.4542   -0.3960 C   0  0  1  0  0  3  0  0  0  0  0  0
    1.9445    1.7011    0.3455 C   0  0  0  0  0  0  0  0  0  0  0  0
    1.9592    1.5183    1.6816 F   0  0  0  0  0  0  0  0  0  0  0  0
    3.2030    2.0094   -0.0466 F   0  0  0  0  0  0  0  0  0  0  0  0
    1.1931    2.7995    0.0920 F   0  0  0  0  0  0  0  0  0  0  0  0
    1.7632    0.6732   -1.7327 F   0  0  0  0  0  0  0  0  0  0  0  0
    2.0745   -0.9007    0.0091 C   0  0  1  0  0  0  0  0  0  0  0  0
    3.6266   -0.9873   -0.0684 C   0  0  0  0  0  0  0  0  0  0  0  0
    4.0148   -2.2774    0.1034 F   0  0  0  0  0  0  0  0  0  0  0  0
    4.2221   -0.2639    0.8945 F   0  0  0  0  0  0  0  0  0  0  0  0
    4.0891   -0.5824   -1.2667 F   0  0  0  0  0  0  0  0  0  0  0  0
    1.7926   -1.1709    1.3474 F   0  0  0  0  0  0  0  0  0  0  0  0
    1.4309   -1.9816   -0.8570 C   0  0  0  0  0  0  0  0  0  0  0  0
    1.9194   -1.9793   -1.8524 H   0  0  0  0  0  0  0  0  0  0  0  0
    1.6506   -2.9563   -0.3824 H   0  0  0  0  0  0  0  0  0  0  0  0
   -0.0647   -1.7474   -0.9906 C   0  0  0  0  0  3  0  0  0  0  0  0
   -0.7198   -2.5106   -0.5411 H   0  0  0  0  0  0  0  0  0  0  0  0
   -0.5810   -0.9587   -2.0397 C   0  0  0  0  0  3  0  0  0  0  0  0
    0.1052   -0.4784   -2.7522 H   0  0  0  0  0  0  0  0  0  0  0  0
   -1.6097   -1.1054   -2.4013 H   0  0  0  0  0  0  0  0  0  0  0  0
  1  6  1  6  0  0  0
  1  7  1  0  0  0  0
  1  2  1  0  0  0  0
  2  3  1  0  0  0  0
  4  2  1  0  0  0  0
  5  2  1  0  0  0  0
  7 12  1  1  0  0  0
  8  7  1  0  0  0  0
  8  9  1  0  0  0  0
  8 10  1  0  0  0  0
 11  8  1  0  0  0  0
 13 15  1  0  0  0  0
 13  7  1  0  0  0  0
 14 13  1  0  0  0  0
 16 13  1  0  0  0  0
 16 17  1  0  0  0  0
 18 16  1  0  0  0  0
 19 18  1  0  0  0  0
 20 18  1  0  0  0  0
M  END
