11,29
q = 0.0, confidence = 0.966

 35 36  0  0  0  0  0  0  0  0999 V2000
    0.5102    1.4695    0.5018 F   0  0  0  0  0  0  0  0  0  0  0  0
   -2.7725    1.6465    1.7802 F   0  0  0  0  0  0  0  0  0  0  0  0
    1.5708    3.8405    1.2779 F   0  0  0  0  0  0  0  0  0  0  0  0
   -6.6804   -0.9794    1.5784 F   0  0  0  0  0  0  0  0  0  0  0  0
   -3.1593    3.7499   -1.4881 F   0  0  0  0  0  0  0  0  0  0  0  0
   -4.0297   -0.5223   -2.2863 F   0  0  0  0  0  0  0  0  0  0  0  0
   -2.0929    6.1301   -0.7016 F   0  0  0  0  0  0  0  0  0  0  0  0
    0.2668    6.1918    0.6743 F   0  0  0  0  0  0  0  0  0  0  0  0
   -6.1707   -1.5676   -1.0501 F   0  0  0  0  0  0  0  0  0  0  0  0
   -4.9683    0.6439    2.9746 F   0  0  0  0  0  0  0  0  0  0  0  0
   -1.1700    0.2293   -1.8965 C   0  0  0  0  0  3  0  0  0  0  0  0
   -1.6307   -0.7444   -2.1552 H   0  0  0  0  0  0  0  0  0  0  0  0
   -1.3542    2.5330   -0.5441 C   0  0  0  0  0  0  0  0  0  0  0  0
   -0.1546    2.6310    0.1578 C   0  0  0  0  0  0  0  0  0  0  0  0
   -3.6126    0.9031    1.0299 C   0  0  0  0  0  0  0  0  0  0  0  0
   -0.2470    5.0233    0.2904 C   0  0  0  0  0  0  0  0  0  0  0  0
   -1.4635    4.9881   -0.4175 C   0  0  0  0  0  0  0  0  0  0  0  0
   -5.6114   -0.4606    0.9745 C   0  0  0  0  0  0  0  0  0  0  0  0
   -3.3074    0.6347   -0.3192 C   0  0  0  0  0  0  0  0  0  0  0  0
   -4.2208   -0.2004   -0.9948 C   0  0  0  0  0  0  0  0  0  0  0  0
   -5.3501   -0.7573   -0.3745 C   0  0  0  0  0  0  0  0  0  0  0  0
    0.4257    3.8257    0.5923 C   0  0  0  0  0  0  0  0  0  0  0  0
   -1.9965    3.7502   -0.8169 C   0  0  0  0  0  0  0  0  0  0  0  0
   -1.9482    1.1195   -0.9703 B   0  0  0  0  0  0  0  0  0  0  0  0
   -4.7356    0.3763    1.6868 C   0  0  0  0  0  0  0  0  0  0  0  0
    0.9958   -0.4155   -3.0125 C   0  0  0  0  0  0  0  0  0  0  0  0
    0.0758    0.5568   -2.5835 C   0  0  0  0  0  0  0  0  0  0  0  0
    0.3517    1.6176   -2.7040 H   0  0  0  0  0  0  0  0  0  0  0  0
    0.8030   -1.7984   -2.6111 C   0  0  0  0  0  3  0  0  0  0  0  0
    1.6136   -2.5065   -2.8460 H   0  0  0  0  0  0  0  0  0  0  0  0
   -0.2013   -2.2361   -2.7621 H   0  0  0  0  0  0  0  0  0  0  0  0
    2.2572   -0.0045   -3.7255 C   0  0  0  0  0  0  0  0  0  0  0  0
    2.4714    1.0745   -3.6049 H   0  0  0  0  0  0  0  0  0  0  0  0
    2.1446   -0.2164   -4.8102 H   0  0  0  0  0  0  0  0  0  0  0  0
    3.1301   -0.5836   -3.3664 H   0  0  0  0  0  0  0  0  0  0  0  0
  5 23  1  0  0  0  0
  6 20  1  0  0  0  0
  7 17  1  0  0  0  0
  9 21  1  0  0  0  0
 11 24  1  0  0  0  0
 12 11  1  0  0  0  0
 13 14  1  0  0  0  0
 14  1  1  0  0  0  0
 14 22  2  0  0  0  0
 15 25  1  0  0  0  0
 15  2  1  0  0  0  0
 16 22  1  0  0  0  0
 16  8  1  0  0  0  0
 17 16  2  0  0  0  0
 18  4  1  0  0  0  0
 18 25  2  0  0  0  0
 19 15  2  0  0  0  0
 20 21  2  0  0  0  0
 20 19  1  0  0  0  0
 21 18  1  0  0  0  0
 22  3  1  0  0  0  0
 23 13  2  0  0  0  0
 23 17  1  0  0  0  0
 24 13  1  0  0  0  0
 24 19  1  0  0  0  0
 25 10  1  0  0  0  0
 26 29  1  0  0  0  0
 26 27  2  0  0  0  0
 27 11  1  0  0  0  0
 28 27  1  0  0  0  0
 30 29  1  0  0  0  0
 31 29  1  0  0  0  0
 32 33  1  0  0  0  0
 32 35  1  0  0  0  0
 32 26  1  0  0  0  0
 34 32  1  0  0  0  0
M  END
