1,5
q = -2.0, confidence = 0.692

 17 16  0  0  0  0  0  0  0  0999 V2000
    0.4562   -1.9922   -0.8172 C   0  0  0  0  0  3  0  0  0  0  0  0
    0.5537   -3.1315   -0.0690 C   0  0  0  0  0  0  0  0  0  0  0  0
    0.3412   -3.1996    1.3793 C   0  0  0  0  0  0  0  0  0  0  0  0
    0.0966   -2.1793    2.2551 C   0  0  0  0  0  0  0  0  0  0  0  0
    0.0626   -0.7208    1.9040 C   0  0  0  0  0  3  0  0  0  0  0  0
    0.8814   -4.4607   -0.7242 C   0  0  0  0  0  0  0  0  0  0  0  0
   -0.1128   -2.5015    3.7172 C   0  0  0  0  0  0  0  0  0  0  0  0
    0.6337   -2.1358   -1.9019 H   0  0  0  0  0  0  0  0  0  0  0  0
    0.3779   -4.2188    1.8079 H   0  0  0  0  0  0  0  0  0  0  0  0
    0.9458   -0.2647    2.4177 H   0  0  0  0  0  0  0  0  0  0  0  0
   -0.7834   -0.2707    2.4726 H   0  0  0  0  0  0  0  0  0  0  0  0
    1.0079   -4.3557   -1.8200 H   0  0  0  0  0  0  0  0  0  0  0  0
    1.8182   -4.8980   -0.3119 H   0  0  0  0  0  0  0  0  0  0  0  0
    0.0839   -5.2156   -0.5428 H   0  0  0  0  0  0  0  0  0  0  0  0
   -1.1046   -2.1376    4.0680 H   0  0  0  0  0  0  0  0  0  0  0  0
   -0.0491   -3.5877    3.9323 H   0  0  0  0  0  0  0  0  0  0  0  0
    0.6391   -1.9770    4.3490 H   0  0  0  0  0  0  0  0  0  0  0  0
  1  2  2  0  0  0  0
  2  3  1  0  0  0  0
  3  9  1  0  0  0  0
  3  4  2  0  0  0  0
  4  7  1  0  0  0  0
  5  4  1  0  0  0  0
  5 10  1  0  0  0  0
  5 11  1  0  0  0  0
  6 14  1  0  0  0  0
  6 13  1  0  0  0  0
  6  2  1  0  0  0  0
  7 16  1  0  0  0  0
  7 15  1  0  0  0  0
  7 17  1  0  0  0  0
  8  1  1  0  0  0  0
 12  6  1  0  0  0  0
M  END
