1,4
q = -1.0

 12 11  0  0  0  0  0  0  0  0999 V2000
   -1.5906   -0.4734   -1.3016 C   0  0  0  0  0  3  0  0  0  0  0  0
   -1.6298   -1.5630   -1.5104 H   0  0  0  0  0  0  0  0  0  0  0  0
   -1.8649    0.1080   -2.2040 H   0  0  0  0  0  0  0  0  0  0  0  0
   -1.5906   -0.4739    1.3015 C   0  0  0  0  0  3  0  0  0  0  0  0
   -2.7560   -0.1689   -0.0000 S   0  0  0  0  0  0  0  0  0  0  0  0
   -1.6294   -1.5636    1.5094 H   0  0  0  0  0  0  0  0  0  0  0  0
   -1.8652    0.1068    2.2042 H   0  0  0  0  0  0  0  0  0  0  0  0
   -4.1303   -0.7574   -0.0001 O   0  0  0  0  0  1  0  0  0  0  0  0
   -2.9316    1.6399    0.0003 C   0  0  0  0  0  0  0  0  0  0  0  0
   -3.5169    1.8838    0.9059 H   0  0  0  0  0  0  0  0  0  0  0  0
   -3.5176    1.8840   -0.9048 H   0  0  0  0  0  0  0  0  0  0  0  0
   -1.9384    2.1220   -0.0001 H   0  0  0  0  0  0  0  0  0  0  0  0
  1  5  1  0  0  0  0
  2  1  1  0  0  0  0
  3  1  1  0  0  0  0
  4  6  1  0  0  0  0
  4  7  1  0  0  0  0
  5  9  1  0  0  0  0
  5  4  1  0  0  0  0
  8  5  1  0  0  0  0
  9 10  1  0  0  0  0
 11  9  1  0  0  0  0
 12  9  1  0  0  0  0
M  END
