2
q = -2.0, confidence = 0.862

 57 60  0  0  1  0  0  0  0  0999 V2000
   -1.4142    0.0958    2.5257 Si  0  0  0  0  0  0  0  0  0  0  0  0
   -0.9617    1.4551    1.2852 C   0  0  2  0  0  3  0  0  0  0  0  0
   -1.8175    1.9699    0.2344 C   0  0  0  0  0  0  0  0  0  0  0  0
   -1.0071    2.5438   -0.7877 C   0  0  0  0  0  0  0  0  0  0  0  0
   -1.3887    2.9895   -1.7134 H   0  0  0  0  0  0  0  0  0  0  0  0
    0.3608    2.4896   -0.3756 C   0  0  0  0  0  0  0  0  0  0  0  0
    1.5565    2.9699   -0.9986 C   0  0  0  0  0  0  0  0  0  0  0  0
    2.7495    2.7549   -0.3251 C   0  0  0  0  0  0  0  0  0  0  0  0
    3.6866    3.1100   -0.7841 H   0  0  0  0  0  0  0  0  0  0  0  0
    2.8243    2.0836    0.9383 C   0  0  0  0  0  0  0  0  0  0  0  0
    1.6630    1.6156    1.5405 C   0  0  0  0  0  0  0  0  0  0  0  0
    1.7193    1.1328    2.5236 H   0  0  0  0  0  0  0  0  0  0  0  0
    0.4010    1.8054    0.9025 C   0  0  0  0  0  0  0  0  0  0  0  0
   -3.3210    1.9628    0.1884 C   0  0  0  0  0  0  0  0  0  0  0  0
   -3.7326    2.6048    0.9945 H   0  0  0  0  0  0  0  0  0  0  0  0
   -3.7583    0.9550    0.3153 H   0  0  0  0  0  0  0  0  0  0  0  0
   -3.6783    2.3490   -0.7836 H   0  0  0  0  0  0  0  0  0  0  0  0
    1.4851    3.6238   -2.3463 C   0  0  0  0  0  0  0  0  0  0  0  0
    2.4732    4.0014   -2.6712 H   0  0  0  0  0  0  0  0  0  0  0  0
    0.7670    4.4705   -2.3543 H   0  0  0  0  0  0  0  0  0  0  0  0
    1.1318    2.8905   -3.1033 H   0  0  0  0  0  0  0  0  0  0  0  0
    4.1717    1.8852    1.5836 C   0  0  0  0  0  0  0  0  0  0  0  0
    4.0844    1.4117    2.5806 H   0  0  0  0  0  0  0  0  0  0  0  0
    4.7117    2.8474    1.7051 H   0  0  0  0  0  0  0  0  0  0  0  0
    4.8170    1.2340    0.9562 H   0  0  0  0  0  0  0  0  0  0  0  0
   -0.3482    0.0722    4.0868 C   0  0  0  0  0  0  0  0  0  0  0  0
   -0.5277    1.0059    4.6585 H   0  0  0  0  0  0  0  0  0  0  0  0
    0.7401   -0.0168    3.9221 H   0  0  0  0  0  0  0  0  0  0  0  0
   -0.6621   -0.7817    4.7222 H   0  0  0  0  0  0  0  0  0  0  0  0
   -1.0763   -1.3466    1.3373 C   0  0  1  0  0  3  0  0  0  0  0  0
   -1.9640   -1.8473    0.3085 C   0  0  0  0  0  0  0  0  0  0  0  0
   -1.1935   -2.4959   -0.7014 C   0  0  0  0  0  0  0  0  0  0  0  0
   -1.6040   -2.9514   -1.6099 H   0  0  0  0  0  0  0  0  0  0  0  0
    0.1751   -2.5166   -0.2912 C   0  0  0  0  0  0  0  0  0  0  0  0
    1.3345   -3.0979   -0.8972 C   0  0  0  0  0  0  0  0  0  0  0  0
    2.5422   -2.9343   -0.2362 C   0  0  0  0  0  0  0  0  0  0  0  0
    3.4518   -3.3686   -0.6823 H   0  0  0  0  0  0  0  0  0  0  0  0
    2.6669   -2.2153    0.9963 C   0  0  0  0  0  0  0  0  0  0  0  0
    1.5412   -1.6502    1.5823 C   0  0  0  0  0  0  0  0  0  0  0  0
    1.6366   -1.1305    2.5426 H   0  0  0  0  0  0  0  0  0  0  0  0
    0.2638   -1.7877    0.9604 C   0  0  0  0  0  0  0  0  0  0  0  0
   -3.4658   -1.8029    0.2805 C   0  0  0  0  0  0  0  0  0  0  0  0
   -3.8680   -2.7989    0.5628 H   0  0  0  0  0  0  0  0  0  0  0  0
   -3.8401   -1.5631   -0.7337 H   0  0  0  0  0  0  0  0  0  0  0  0
   -3.8854   -1.0747    0.9951 H   0  0  0  0  0  0  0  0  0  0  0  0
    1.2132   -3.7999   -2.2168 C   0  0  0  0  0  0  0  0  0  0  0  0
    2.1725   -4.2552   -2.5281 H   0  0  0  0  0  0  0  0  0  0  0  0
    0.9057   -3.0763   -3.0027 H   0  0  0  0  0  0  0  0  0  0  0  0
    0.4404   -4.5965   -2.1886 H   0  0  0  0  0  0  0  0  0  0  0  0
    4.0281   -2.0727    1.6271 C   0  0  0  0  0  0  0  0  0  0  0  0
    3.9770   -1.5483    2.6009 H   0  0  0  0  0  0  0  0  0  0  0  0
    4.7090   -1.4934    0.9676 H   0  0  0  0  0  0  0  0  0  0  0  0
    4.5074   -3.0603    1.7921 H   0  0  0  0  0  0  0  0  0  0  0  0
   -3.1860    0.2145    3.1750 C   0  0  0  0  0  0  0  0  0  0  0  0
   -3.2318    1.0464    3.9083 H   0  0  0  0  0  0  0  0  0  0  0  0
   -3.4499   -0.7211    3.7095 H   0  0  0  0  0  0  0  0  0  0  0  0
   -3.9575    0.4050    2.4088 H   0  0  0  0  0  0  0  0  0  0  0  0
  1 54  1  0  0  0  0
  1 26  1  0  0  0  0
  2  1  1  6  0  0  0
  3  2  1  0  0  0  0
  4  6  1  0  0  0  0
  4  3  2  0  0  0  0
  5  4  1  0  0  0  0
  6 13  1  0  0  0  0
  7  6  2  0  0  0  0
  7  8  1  0  0  0  0
  8 10  2  0  0  0  0
  9  8  1  0  0  0  0
 10 11  1  0  0  0  0
 10 22  1  0  0  0  0
 11 12  1  0  0  0  0
 13  2  1  0  0  0  0
 13 11  2  0  0  0  0
 14  3  1  0  0  0  0
 14 16  1  0  0  0  0
 14 15  1  0  0  0  0
 17 14  1  0  0  0  0
 18  7  1  0  0  0  0
 19 18  1  0  0  0  0
 20 18  1  0  0  0  0
 21 18  1  0  0  0  0
 22 24  1  0  0  0  0
 22 23  1  0  0  0  0
 25 22  1  0  0  0  0
 26 27  1  0  0  0  0
 26 29  1  0  0  0  0
 28 26  1  0  0  0  0
 30  1  1  6  0  0  0
 31 30  1  0  0  0  0
 32 34  1  0  0  0  0
 32 31  2  0  0  0  0
 33 32  1  0  0  0  0
 34 41  1  0  0  0  0
 35 34  2  0  0  0  0
 35 36  1  0  0  0  0
 36 38  2  0  0  0  0
 37 36  1  0  0  0  0
 38 39  1  0  0  0  0
 38 50  1  0  0  0  0
 39 40  1  0  0  0  0
 41 30  1  0  0  0  0
 41 39  2  0  0  0  0
 42 31  1  0  0  0  0
 42 43  1  0  0  0  0
 42 45  1  0  0  0  0
 44 42  1  0  0  0  0
 46 49  1  0  0  0  0
 46 35  1  0  0  0  0
 47 46  1  0  0  0  0
 48 46  1  0  0  0  0
 50 53  1  0  0  0  0
 50 51  1  0  0  0  0
 52 50  1  0  0  0  0
 54 56  1  0  0  0  0
 54 55  1  0  0  0  0
 57 54  1  0  0  0  0
M  END
