3,68
q = -1.0, confidence = 0.01

 68 73  0  0  0  0  0  0  0  0999 V2000
    1.4761    0.0992   -0.0488 P   0  0  0  0  0  4  0  0  0  0  0  0
   -1.5506   -0.0058   -0.1456 P   0  0  0  0  0  4  0  0  0  0  0  0
    0.0014   -0.6601   -0.3656 C   0  0  0  0  0  2  0  0  0  0  0  0
    2.6398    0.0380   -1.4731 C   0  0  0  0  0  0  0  0  0  0  0  0
    3.6616    0.9954   -1.6370 C   0  0  0  0  0  0  0  0  0  0  0  0
    3.7635    1.8227   -0.9179 H   0  0  0  0  0  0  0  0  0  0  0  0
    4.5394    0.9045   -2.7287 C   0  0  0  0  0  0  0  0  0  0  0  0
    5.3307    1.6587   -2.8579 H   0  0  0  0  0  0  0  0  0  0  0  0
    4.4047   -0.1419   -3.6550 C   0  0  0  0  0  0  0  0  0  0  0  0
    5.0936   -0.2112   -4.5107 H   0  0  0  0  0  0  0  0  0  0  0  0
    3.3880   -1.0973   -3.4910 C   0  0  0  0  0  0  0  0  0  0  0  0
    3.2802   -1.9207   -4.2133 H   0  0  0  0  0  0  0  0  0  0  0  0
    2.5041   -1.0073   -2.4064 C   0  0  0  0  0  0  0  0  0  0  0  0
    1.7026   -1.7485   -2.2646 H   0  0  0  0  0  0  0  0  0  0  0  0
    2.3822   -0.7040    1.3407 C   0  0  0  0  0  0  0  0  0  0  0  0
    1.6094   -1.3396    2.3306 C   0  0  0  0  0  0  0  0  0  0  0  0
    0.5139   -1.3616    2.2129 H   0  0  0  0  0  0  0  0  0  0  0  0
    2.2354   -1.9430    3.4306 C   0  0  0  0  0  0  0  0  0  0  0  0
    1.6269   -2.4397    4.2015 H   0  0  0  0  0  0  0  0  0  0  0  0
    3.6354   -1.9237    3.5397 C   0  0  0  0  0  0  0  0  0  0  0  0
    4.1279   -2.4075    4.3970 H   0  0  0  0  0  0  0  0  0  0  0  0
    4.4088   -1.2973    2.5486 C   0  0  0  0  0  0  0  0  0  0  0  0
    5.5067   -1.2925    2.6264 H   0  0  0  0  0  0  0  0  0  0  0  0
    3.7857   -0.6855    1.4503 C   0  0  0  0  0  0  0  0  0  0  0  0
    4.3954   -0.2068    0.6694 H   0  0  0  0  0  0  0  0  0  0  0  0
    1.4236    1.8809    0.4059 C   0  0  0  0  0  0  0  0  0  0  0  0
    1.0253    2.8173   -0.5736 C   0  0  0  0  0  0  0  0  0  0  0  0
    0.8373    2.4876   -1.6059 H   0  0  0  0  0  0  0  0  0  0  0  0
    0.8584    4.1659   -0.2320 C   0  0  0  0  0  0  0  0  0  0  0  0
    0.5407    4.8865   -1.0008 H   0  0  0  0  0  0  0  0  0  0  0  0
    1.0944    4.5937    1.0868 C   0  0  0  0  0  0  0  0  0  0  0  0
    0.9635    5.6535    1.3538 H   0  0  0  0  0  0  0  0  0  0  0  0
    1.5000    3.6676    2.0600 C   0  0  0  0  0  0  0  0  0  0  0  0
    1.6853    3.9973    3.0935 H   0  0  0  0  0  0  0  0  0  0  0  0
    1.6623    2.3141    1.7242 C   0  0  0  0  0  0  0  0  0  0  0  0
    1.9666    1.5881    2.4924 H   0  0  0  0  0  0  0  0  0  0  0  0
   -1.8917    0.7353    1.5057 C   0  0  0  0  0  0  0  0  0  0  0  0
   -2.2600   -0.1360    2.5545 C   0  0  0  0  0  0  0  0  0  0  0  0
   -2.4492   -1.1983    2.3339 H   0  0  0  0  0  0  0  0  0  0  0  0
   -2.3895    0.3488    3.8630 C   0  0  0  0  0  0  0  0  0  0  0  0
   -2.6817   -0.3372    4.6728 H   0  0  0  0  0  0  0  0  0  0  0  0
   -2.1548    1.7067    4.1393 C   0  0  0  0  0  0  0  0  0  0  0  0
   -2.2594    2.0869    5.1669 H   0  0  0  0  0  0  0  0  0  0  0  0
   -1.7867    2.5757    3.1008 C   0  0  0  0  0  0  0  0  0  0  0  0
   -1.5927    3.6389    3.3093 H   0  0  0  0  0  0  0  0  0  0  0  0
   -1.6518    2.0950    1.7891 C   0  0  0  0  0  0  0  0  0  0  0  0
   -1.3471    2.7830    0.9869 H   0  0  0  0  0  0  0  0  0  0  0  0
   -2.0409    1.2792   -1.3740 C   0  0  0  0  0  0  0  0  0  0  0  0
   -1.3697    1.2627   -2.6129 C   0  0  0  0  0  0  0  0  0  0  0  0
   -0.5685    0.5206   -2.7654 H   0  0  0  0  0  0  0  0  0  0  0  0
   -1.7117    2.1824   -3.6141 C   0  0  0  0  0  0  0  0  0  0  0  0
   -1.1828    2.1630   -4.5794 H   0  0  0  0  0  0  0  0  0  0  0  0
   -2.7256    3.1278   -3.3844 C   0  0  0  0  0  0  0  0  0  0  0  0
   -2.9903    3.8546   -4.1676 H   0  0  0  0  0  0  0  0  0  0  0  0
   -3.4036    3.1422   -2.1550 C   0  0  0  0  0  0  0  0  0  0  0  0
   -4.2003    3.8797   -1.9730 H   0  0  0  0  0  0  0  0  0  0  0  0
   -3.0681    2.2181   -1.1526 C   0  0  0  0  0  0  0  0  0  0  0  0
   -3.6012    2.2384   -0.1902 H   0  0  0  0  0  0  0  0  0  0  0  0
   -2.7382   -1.3911   -0.3290 C   0  0  0  0  0  0  0  0  0  0  0  0
   -4.1260   -1.1474   -0.2914 C   0  0  0  0  0  0  0  0  0  0  0  0
   -4.5224   -0.1253   -0.1785 H   0  0  0  0  0  0  0  0  0  0  0  0
   -5.0081   -2.2309   -0.4000 C   0  0  0  0  0  0  0  0  0  0  0  0
   -6.0957   -2.0624   -0.3733 H   0  0  0  0  0  0  0  0  0  0  0  0
   -4.4922   -3.5311   -0.5454 C   0  0  0  0  0  0  0  0  0  0  0  0
   -5.1840   -4.3850   -0.6314 H   0  0  0  0  0  0  0  0  0  0  0  0
   -3.1035   -3.7430   -0.5848 C   0  0  0  0  0  0  0  0  0  0  0  0
   -2.7324   -4.7755   -0.7027 H   0  0  0  0  0  0  0  0  0  0  0  0
   -2.1762   -2.6804   -0.4784 C   0  0  0  0  0  3  0  0  0  0  0  0
  1 26  1  0  0  0  0
  1 15  1  0  0  0  0
  2 37  1  0  0  0  0
  3  2  1  0  0  0  0
  3  1  1  0  0  0  0
  4  1  1  0  0  0  0
  5  4  1  0  0  0  0
  5  6  1  0  0  0  0
  7  5  2  0  0  0  0
  8  7  1  0  0  0  0
  9 11  2  0  0  0  0
  9  7  1  0  0  0  0
 10  9  1  0  0  0  0
 11 13  1  0  0  0  0
 12 11  1  0  0  0  0
 13 14  1  0  0  0  0
 13  4  2  0  0  0  0
 15 24  2  0  0  0  0
 15 16  1  0  0  0  0
 16 18  2  0  0  0  0
 17 16  1  0  0  0  0
 18 20  1  0  0  0  0
 18 19  1  0  0  0  0
 20 21  1  0  0  0  0
 22 23  1  0  0  0  0
 22 20  2  0  0  0  0
 24 22  1  0  0  0  0
 25 24  1  0  0  0  0
 26 35  1  0  0  0  0
 27 29  1  0  0  0  0
 27 26  2  0  0  0  0
 28 27  1  0  0  0  0
 29 31  2  0  0  0  0
 30 29  1  0  0  0  0
 31 32  1  0  0  0  0
 31 33  1  0  0  0  0
 33 34  1  0  0  0  0
 35 33  2  0  0  0  0
 35 36  1  0  0  0  0
 37 46  2  0  0  0  0
 37 38  1  0  0  0  0
 38 40  2  0  0  0  0
 39 38  1  0  0  0  0
 40 42  1  0  0  0  0
 40 41  1  0  0  0  0
 42 43  1  0  0  0  0
 44 45  1  0  0  0  0
 44 42  2  0  0  0  0
 46 44  1  0  0  0  0
 47 46  1  0  0  0  0
 48 57  1  0  0  0  0
 48  2  1  0  0  0  0
 49 48  2  0  0  0  0
 50 49  1  0  0  0  0
 51 53  2  0  0  0  0
 51 49  1  0  0  0  0
 52 51  1  0  0  0  0
 53 55  1  0  0  0  0
 54 53  1  0  0  0  0
 55 56  1  0  0  0  0
 55 57  2  0  0  0  0
 57 58  1  0  0  0  0
 59 60  1  0  0  0  0
 59  2  1  0  0  0  0
 60 61  1  0  0  0  0
 62 63  1  0  0  0  0
 62 60  2  0  0  0  0
 64 62  1  0  0  0  0
 65 64  1  0  0  0  0
 66 64  2  0  0  0  0
 66 68  1  0  0  0  0
 67 66  1  0  0  0  0
 68 59  2  0  0  0  0
M  END
