7,35
q = 0.0, confidence = 0.748

 35 37  0  0  1  0  0  0  0  0999 V2000
   -0.3518    1.7005    2.3267 O   0  0  0  0  0  0  0  0  0  0  0  0
    1.8847   -1.6169   -2.1344 O   0  0  0  0  0  0  0  0  0  0  0  0
    2.8887   -1.4520    0.0209 N   0  0  0  0  0  0  0  0  0  0  0  0
   -0.5868    0.7725    1.5454 C   0  0  0  0  0  0  0  0  0  0  0  0
    0.5123    0.0008    0.9019 C   0  0  0  0  0  3  0  0  0  0  0  0
    0.2825   -1.0578    0.6956 H   0  0  0  0  0  0  0  0  0  0  0  0
    1.8913    0.3644    1.2029 C   0  0  0  0  0  3  0  0  0  0  0  0
    2.0341    1.1388    1.9730 H   0  0  0  0  0  0  0  0  0  0  0  0
   -2.3384   -0.4815    0.1876 C   0  0  0  0  0  0  0  0  0  0  0  0
   -1.5570   -0.9323   -0.4417 H   0  0  0  0  0  0  0  0  0  0  0  0
   -2.0027    0.3939    1.2191 C   0  0  0  0  0  0  0  0  0  0  0  0
   -3.0418    0.9971    1.9914 C   0  0  0  0  0  0  0  0  0  0  0  0
   -2.7405    1.6977    2.7837 H   0  0  0  0  0  0  0  0  0  0  0  0
   -4.3688    0.7055    1.7395 C   0  0  0  0  0  0  0  0  0  0  0  0
   -5.1653    1.1683    2.3434 H   0  0  0  0  0  0  0  0  0  0  0  0
   -6.0956   -0.5089    0.3971 C   0  0  0  0  0  0  0  0  0  0  0  0
   -6.8904   -0.0515    1.0068 H   0  0  0  0  0  0  0  0  0  0  0  0
   -6.4140   -1.3748   -0.6397 C   0  0  0  0  0  0  0  0  0  0  0  0
   -7.4673   -1.6096   -0.8563 H   0  0  0  0  0  0  0  0  0  0  0  0
   -5.3873   -1.9597   -1.4301 C   0  0  0  0  0  0  0  0  0  0  0  0
   -5.6536   -2.6403   -2.2529 H   0  0  0  0  0  0  0  0  0  0  0  0
   -4.0563   -1.6722   -1.1686 C   0  0  0  0  0  0  0  0  0  0  0  0
   -3.2558   -2.1171   -1.7802 H   0  0  0  0  0  0  0  0  0  0  0  0
   -3.6956   -0.7910   -0.1063 C   0  0  0  0  0  0  0  0  0  0  0  0
   -4.7386   -0.1912    0.6913 C   0  0  0  0  0  0  0  0  0  0  0  0
    2.9000   -0.6831    1.1424 C   0  0  1  0  0  3  0  0  0  0  0  0
    3.8521   -0.9952    2.1390 C   0  0  0  0  0  0  0  0  0  0  0  0
    3.8830   -0.3864    3.0530 H   0  0  0  0  0  0  0  0  0  0  0  0
    4.7135   -2.0800    1.9552 C   0  0  0  0  0  0  0  0  0  0  0  0
    5.4592   -2.3221    2.7277 H   0  0  0  0  0  0  0  0  0  0  0  0
    4.6240   -2.8741    0.7921 C   0  0  0  0  0  0  0  0  0  0  0  0
    5.2895   -3.7324    0.6278 H   0  0  0  0  0  0  0  0  0  0  0  0
    3.6816   -2.5196   -0.1703 C   0  0  0  0  0  0  0  0  0  0  0  0
    3.5366   -3.0294   -1.1376 H   0  0  0  0  0  0  0  0  0  0  0  0
    1.9547   -0.8546   -1.2159 C   0  0  0  0  0  3  0  0  0  0  0  0
  2 35  2  0  0  0  0
  3 26  1  0  0  0  0
  4  1  2  0  0  0  0
  5  7  1  0  0  0  0
  5  4  1  0  0  0  0
  6  5  1  0  0  0  0
  7  8  1  0  0  0  0
  9 11  1  0  0  0  0
 10  9  1  0  0  0  0
 11  4  1  0  0  0  0
 11 12  2  0  0  0  0
 12 13  1  0  0  0  0
 14 12  1  0  0  0  0
 14 15  1  0  0  0  0
 16 25  1  0  0  0  0
 16 17  1  0  0  0  0
 18 16  2  0  0  0  0
 19 18  1  0  0  0  0
 20 22  2  0  0  0  0
 20 18  1  0  0  0  0
 21 20  1  0  0  0  0
 22 24  1  0  0  0  0
 23 22  1  0  0  0  0
 24  9  2  0  0  0  0
 24 25  1  0  0  0  0
 25 14  2  0  0  0  0
 26  7  1  1  0  0  0
 26 27  1  0  0  0  0
 27 28  1  0  0  0  0
 29 27  2  0  0  0  0
 29 30  1  0  0  0  0
 31 29  1  0  0  0  0
 32 31  1  0  0  0  0
 33  3  1  0  0  0  0
 33 31  2  0  0  0  0
 34 33  1  0  0  0  0
 35  3  1  0  0  0  0
M  END
