8,32
q = 0.0, confidence = 0.988

 32 33  0  0  0  0  0  0  0  0999 V2000
    1.2480    2.5861   -0.0242 N   0  0  0  0  0  0  0  0  0  0  0  0
    1.2484   -2.5856   -0.0238 N   0  0  0  0  0  0  0  0  0  0  0  0
    0.3387   -3.6108   -0.5518 C   0  0  0  0  0  0  0  0  0  0  0  0
   -0.6716   -3.2966   -0.2420 H   0  0  0  0  0  0  0  0  0  0  0  0
    0.5883   -4.5615   -0.0422 H   0  0  0  0  0  0  0  0  0  0  0  0
    3.1500   -1.7599    0.3810 N   0  0  0  0  0  0  0  0  0  0  0  0
    2.5367   -2.9092    0.1153 N   0  0  0  0  0  2  0  0  0  0  0  0
    0.9749   -1.2527    0.1688 C   0  0  0  0  0  3  0  0  0  0  0  0
    3.1497    1.7608    0.3809 N   0  0  0  0  0  0  0  0  0  0  0  0
    2.2668   -0.7173    0.4165 C   0  0  0  0  0  0  0  0  0  0  0  0
    2.5362    2.9099    0.1151 N   0  0  0  0  0  2  0  0  0  0  0  0
    4.5935   -1.7735    0.5699 C   0  0  0  0  0  0  0  0  0  0  0  0
    4.9182   -2.8282    0.5798 H   0  0  0  0  0  0  0  0  0  0  0  0
    4.8546   -1.2956    1.5325 H   0  0  0  0  0  0  0  0  0  0  0  0
    5.0922   -1.2456   -0.2656 H   0  0  0  0  0  0  0  0  0  0  0  0
    0.4418   -3.7182   -2.0699 C   0  0  0  0  0  0  0  0  0  0  0  0
   -0.2758   -4.4791   -2.4340 H   0  0  0  0  0  0  0  0  0  0  0  0
    1.4594   -4.0300   -2.3763 H   0  0  0  0  0  0  0  0  0  0  0  0
    0.2009   -2.7444   -2.5418 H   0  0  0  0  0  0  0  0  0  0  0  0
    0.3382    3.6111   -0.5524 C   0  0  0  0  0  0  0  0  0  0  0  0
    0.5886    4.5621   -0.0439 H   0  0  0  0  0  0  0  0  0  0  0  0
   -0.6720    3.2975   -0.2416 H   0  0  0  0  0  0  0  0  0  0  0  0
    2.2667    0.7180    0.4163 C   0  0  0  0  0  0  0  0  0  0  0  0
    4.5932    1.7746    0.5697 C   0  0  0  0  0  0  0  0  0  0  0  0
    4.9176    2.8294    0.5809 H   0  0  0  0  0  0  0  0  0  0  0  0
    5.0921    1.2478   -0.2664 H   0  0  0  0  0  0  0  0  0  0  0  0
    4.8545    1.2956    1.5318 H   0  0  0  0  0  0  0  0  0  0  0  0
    0.4403    3.7171   -2.0707 C   0  0  0  0  0  0  0  0  0  0  0  0
   -0.2773    4.4778   -2.4350 H   0  0  0  0  0  0  0  0  0  0  0  0
    0.1989    2.7429   -2.5416 H   0  0  0  0  0  0  0  0  0  0  0  0
    1.4578    4.0283   -2.3781 H   0  0  0  0  0  0  0  0  0  0  0  0
    0.9747    1.2531    0.1685 C   0  0  0  0  0  3  0  0  0  0  0  0
  1 11  1  0  0  0  0
  1 32  1  0  0  0  0
  2  7  1  0  0  0  0
  2  8  1  0  0  0  0
  3  4  1  0  0  0  0
  3  5  1  0  0  0  0
  3  2  1  0  0  0  0
  6 10  1  0  0  0  0
  6 12  1  0  0  0  0
  7  6  1  0  0  0  0
  8 10  2  0  0  0  0
  9 23  1  0  0  0  0
  9 24  1  0  0  0  0
 11  9  1  0  0  0  0
 12 13  1  0  0  0  0
 12 14  1  0  0  0  0
 15 12  1  0  0  0  0
 16  3  1  0  0  0  0
 17 16  1  0  0  0  0
 18 16  1  0  0  0  0
 19 16  1  0  0  0  0
 20 22  1  0  0  0  0
 20 21  1  0  0  0  0
 20  1  1  0  0  0  0
 23 10  1  0  0  0  0
 24 25  1  0  0  0  0
 24 27  1  0  0  0  0
 26 24  1  0  0  0  0
 28 20  1  0  0  0  0
 29 28  1  0  0  0  0
 30 28  1  0  0  0  0
 31 28  1  0  0  0  0
 32 23  2  0  0  0  0
M  END
