7,8
q = -2.0, confidence = 0.694

 64 65  0  0  0  0  0  0  0  0999 V2000
   -2.6296   -1.0086   -0.1447 C   0  0  0  0  0  0  0  0  0  0  0  0
   -5.0737   -2.4553   -0.3083 C   0  0  0  0  0  0  0  0  0  0  0  0
    3.3311   -1.4732    1.0647 C   0  0  0  0  0  0  0  0  0  0  0  0
   -4.2528   -2.2867   -1.4395 C   0  0  0  0  0  0  0  0  0  0  0  0
   -4.5653   -2.7236   -2.4027 H   0  0  0  0  0  0  0  0  0  0  0  0
   -3.0446   -1.5715   -1.3800 C   0  0  0  0  0  0  0  0  0  0  0  0
    1.1828   -0.4657    0.1081 C   0  0  0  0  0  3  0  0  0  0  0  0
   -1.3719    1.1382   -0.1979 C   0  0  0  0  0  3  0  0  0  0  0  0
    2.4406   -1.2428   -0.0240 C   0  0  0  0  0  0  0  0  0  0  0  0
    2.8256   -1.7435   -1.3123 C   0  0  0  0  0  0  0  0  0  0  0  0
   -1.3391   -0.2364   -0.0603 C   0  0  0  0  0  0  0  0  0  0  0  0
   -3.4619   -1.1300    0.9960 C   0  0  0  0  0  0  0  0  0  0  0  0
    2.9287   -1.1857    2.4907 C   0  0  0  0  0  0  0  0  0  0  0  0
    2.9211   -2.1243    3.0841 H   0  0  0  0  0  0  0  0  0  0  0  0
    1.9157   -0.7551    2.5409 H   0  0  0  0  0  0  0  0  0  0  0  0
    3.6359   -0.4986    3.0006 H   0  0  0  0  0  0  0  0  0  0  0  0
   -0.0726   -1.0430    0.0837 C   0  0  0  0  0  0  0  0  0  0  0  0
    4.0956   -2.3187   -1.4914 C   0  0  0  0  0  0  0  0  0  0  0  0
    4.3717   -2.6794   -2.4967 H   0  0  0  0  0  0  0  0  0  0  0  0
    4.5882   -2.0639    0.8393 C   0  0  0  0  0  0  0  0  0  0  0  0
    5.2548   -2.2272    1.7033 H   0  0  0  0  0  0  0  0  0  0  0  0
   -0.2127   -2.5578    0.1864 C   0  0  0  0  0  0  0  0  0  0  0  0
    0.7257   -3.0265   -0.1729 H   0  0  0  0  0  0  0  0  0  0  0  0
   -1.0328   -2.9247   -0.4647 H   0  0  0  0  0  0  0  0  0  0  0  0
    5.0120   -2.4688   -0.4359 C   0  0  0  0  0  0  0  0  0  0  0  0
   -2.8099    3.2904   -0.0153 C   0  0  0  0  0  0  0  0  0  0  0  0
   -2.8796    3.2549    1.0933 H   0  0  0  0  0  0  0  0  0  0  0  0
   -1.8960    3.8846   -0.2376 H   0  0  0  0  0  0  0  0  0  0  0  0
   -4.6631   -1.8585    0.8958 C   0  0  0  0  0  0  0  0  0  0  0  0
   -5.3009   -1.9576    1.7898 H   0  0  0  0  0  0  0  0  0  0  0  0
   -0.4731   -3.0598    1.6179 C   0  0  0  0  0  0  0  0  0  0  0  0
    0.3331   -2.6797    2.2816 H   0  0  0  0  0  0  0  0  0  0  0  0
   -1.4205   -2.6234    1.9956 H   0  0  0  0  0  0  0  0  0  0  0  0
   -3.1021   -0.4398    2.2900 C   0  0  0  0  0  0  0  0  0  0  0  0
   -2.0267   -0.5469    2.5339 H   0  0  0  0  0  0  0  0  0  0  0  0
   -3.6983   -0.8312    3.1370 H   0  0  0  0  0  0  0  0  0  0  0  0
   -3.2972    0.6522    2.2190 H   0  0  0  0  0  0  0  0  0  0  0  0
    1.8689   -1.7511   -2.4818 C   0  0  0  0  0  0  0  0  0  0  0  0
    2.4031   -1.6617   -3.4485 H   0  0  0  0  0  0  0  0  0  0  0  0
    1.1124   -0.9513   -2.4083 H   0  0  0  0  0  0  0  0  0  0  0  0
    1.3037   -2.7085   -2.5124 H   0  0  0  0  0  0  0  0  0  0  0  0
   -2.2043   -1.3809   -2.6187 C   0  0  0  0  0  0  0  0  0  0  0  0
   -2.6653   -1.8650   -3.5009 H   0  0  0  0  0  0  0  0  0  0  0  0
   -1.1839   -1.7973   -2.4904 H   0  0  0  0  0  0  0  0  0  0  0  0
   -2.0704   -0.3024   -2.8445 H   0  0  0  0  0  0  0  0  0  0  0  0
    6.3873   -3.0430   -0.6668 C   0  0  0  0  0  0  0  0  0  0  0  0
    6.7992   -3.5009    0.2545 H   0  0  0  0  0  0  0  0  0  0  0  0
    7.1046   -2.2565   -0.9885 H   0  0  0  0  0  0  0  0  0  0  0  0
    6.3802   -3.8160   -1.4615 H   0  0  0  0  0  0  0  0  0  0  0  0
   -2.6400    1.8676   -0.5651 C   0  0  0  0  0  0  0  0  0  0  0  0
   -3.5439    1.2691   -0.3100 H   0  0  0  0  0  0  0  0  0  0  0  0
   -2.6630    1.9373   -1.6815 H   0  0  0  0  0  0  0  0  0  0  0  0
   -4.0409    4.0009   -0.5780 C   0  0  0  0  0  0  0  0  0  0  0  0
   -4.1574    5.0215   -0.1610 H   0  0  0  0  0  0  0  0  0  0  0  0
   -4.9691    3.4368   -0.3493 H   0  0  0  0  0  0  0  0  0  0  0  0
   -3.9812    4.0937   -1.6831 H   0  0  0  0  0  0  0  0  0  0  0  0
   -0.5459   -4.5844    1.7001 C   0  0  0  0  0  0  0  0  0  0  0  0
   -0.7256   -4.9317    2.7378 H   0  0  0  0  0  0  0  0  0  0  0  0
    0.3970   -5.0520    1.3466 H   0  0  0  0  0  0  0  0  0  0  0  0
   -1.3686   -4.9788    1.0677 H   0  0  0  0  0  0  0  0  0  0  0  0
   -6.3443   -3.2646   -0.3885 C   0  0  0  0  0  0  0  0  0  0  0  0
   -6.8905   -3.0744   -1.3346 H   0  0  0  0  0  0  0  0  0  0  0  0
   -7.0270   -3.0395    0.4542 H   0  0  0  0  0  0  0  0  0  0  0  0
   -6.1283   -4.3545   -0.3558 H   0  0  0  0  0  0  0  0  0  0  0  0
  1 11  1  0  0  0  0
  1 12  1  0  0  0  0
  2 29  1  0  0  0  0
  3 13  1  0  0  0  0
  4  6  1  0  0  0  0
  4  2  2  0  0  0  0
  5  4  1  0  0  0  0
  6  1  2  0  0  0  0
  8 11  2  0  0  0  0
  9  7  1  0  0  0  0
  9  3  2  0  0  0  0
 10  9  1  0  0  0  0
 11 17  1  0  0  0  0
 12 34  1  0  0  0  0
 13 15  1  0  0  0  0
 13 16  1  0  0  0  0
 13 14  1  0  0  0  0
 17  7  2  0  0  0  0
 17 22  1  0  0  0  0
 18 10  2  0  0  0  0
 18 25  1  0  0  0  0
 19 18  1  0  0  0  0
 20  3  1  0  0  0  0
 20 21  1  0  0  0  0
 22 31  1  0  0  0  0
 23 22  1  0  0  0  0
 24 22  1  0  0  0  0
 25 20  2  0  0  0  0
 26 27  1  0  0  0  0
 28 26  1  0  0  0  0
 29 12  2  0  0  0  0
 29 30  1  0  0  0  0
 31 57  1  0  0  0  0
 31 33  1  0  0  0  0
 31 32  1  0  0  0  0
 34 35  1  0  0  0  0
 34 36  1  0  0  0  0
 37 34  1  0  0  0  0
 38 40  1  0  0  0  0
 38 10  1  0  0  0  0
 39 38  1  0  0  0  0
 41 38  1  0  0  0  0
 42 44  1  0  0  0  0
 42  6  1  0  0  0  0
 43 42  1  0  0  0  0
 45 42  1  0  0  0  0
 46 25  1  0  0  0  0
 46 47  1  0  0  0  0
 48 46  1  0  0  0  0
 49 46  1  0  0  0  0
 50 51  1  0  0  0  0
 50  8  1  0  0  0  0
 50 26  1  0  0  0  0
 52 50  1  0  0  0  0
 53 55  1  0  0  0  0
 53 54  1  0  0  0  0
 53 26  1  0  0  0  0
 56 53  1  0  0  0  0
 57 58  1  0  0  0  0
 59 57  1  0  0  0  0
 60 57  1  0  0  0  0
 61 64  1  0  0  0  0
 61  2  1  0  0  0  0
 61 63  1  0  0  0  0
 62 61  1  0  0  0  0
M  END
