1,5
q = -1.0

 18 18  0  0  0  0  0  0  0  0999 V2000
    0.4037    0.2051   -2.2837 C   0  0  0  0  0  3  0  0  0  0  0  0
   -0.1462   -1.0734   -2.0033 C   0  0  0  0  0  3  0  0  0  0  0  0
   -1.6333   -1.3718   -2.1001 C   0  0  0  0  0  0  0  0  0  0  0  0
   -2.3391   -0.8709   -0.8658 C   0  0  0  0  0  0  0  0  0  0  0  0
   -1.5063   -0.3118    0.1446 C   0  0  0  0  0  3  0  0  0  0  0  0
   -2.1591    0.0889    1.3373 C   0  0  0  0  0  0  0  0  0  0  0  0
   -3.5485   -0.0239    1.5155 C   0  0  0  0  0  0  0  0  0  0  0  0
   -4.3478   -0.5523    0.4891 C   0  0  0  0  0  0  0  0  0  0  0  0
   -3.7320   -0.9820   -0.6964 C   0  0  0  0  0  0  0  0  0  0  0  0
    1.4260    0.2850   -2.6919 H   0  0  0  0  0  0  0  0  0  0  0  0
   -0.2734    0.9747   -2.6938 H   0  0  0  0  0  0  0  0  0  0  0  0
    0.5031   -1.9385   -2.2013 H   0  0  0  0  0  0  0  0  0  0  0  0
   -1.7895   -2.4688   -2.1970 H   0  0  0  0  0  0  0  0  0  0  0  0
   -2.0724   -0.9299   -3.0255 H   0  0  0  0  0  0  0  0  0  0  0  0
   -1.5689    0.5175    2.1624 H   0  0  0  0  0  0  0  0  0  0  0  0
   -4.0080    0.3073    2.4610 H   0  0  0  0  0  0  0  0  0  0  0  0
   -5.4383   -0.6374    0.6145 H   0  0  0  0  0  0  0  0  0  0  0  0
   -4.3432   -1.4156   -1.5060 H   0  0  0  0  0  0  0  0  0  0  0  0
  1  2  1  0  0  0  0
  3  2  1  0  0  0  0
  3  4  1  0  0  0  0
  4  9  2  0  0  0  0
  4  5  1  0  0  0  0
  5  6  2  0  0  0  0
  6  7  1  0  0  0  0
  6 15  1  0  0  0  0
  7 16  1  0  0  0  0
  8 17  1  0  0  0  0
  8  7  2  0  0  0  0
  9  8  1  0  0  0  0
 10  1  1  0  0  0  0
 11  1  1  0  0  0  0
 12  2  1  0  0  0  0
 13  3  1  0  0  0  0
 14  3  1  0  0  0  0
 18  9  1  0  0  0  0
M  END
