6,15
q = -1.0, confidence = 0.0

 25 26  0  0  1  0  0  0  0  0999 V2000
   -0.1576    2.3707   -1.1571 O   0  0  0  0  0  0  0  0  0  0  0  0
    5.9285   -1.5228   -0.1077 O   0  0  0  0  0  0  0  0  0  0  0  0
    6.8347   -1.6458    0.2484 H   0  0  0  0  0  0  0  0  0  0  0  0
    6.1295    0.2624    1.2675 O   0  0  0  0  0  0  0  0  0  0  0  0
   -0.9847    0.1648   -1.3266 C   0  0  2  0  0  3  0  0  0  0  0  0
   -1.0346   -1.2528   -1.0366 C   0  0  0  0  0  3  0  0  0  0  0  0
   -0.2133   -1.8579   -0.6375 H   0  0  0  0  0  0  0  0  0  0  0  0
    3.3605   -0.8220   -0.8785 C   0  0  0  0  0  0  0  0  0  0  0  0
    3.8339   -1.7124   -1.3146 H   0  0  0  0  0  0  0  0  0  0  0  0
    2.2002    1.4961    0.2099 C   0  0  0  0  0  0  0  0  0  0  0  0
    1.7320    2.4107    0.6019 H   0  0  0  0  0  0  0  0  0  0  0  0
    0.0887    1.1684   -1.0749 C   0  0  0  0  0  0  0  0  0  0  0  0
    5.4663   -0.3869    0.4774 C   0  0  0  0  0  0  0  0  0  0  0  0
    1.4608    0.6960   -0.6883 C   0  0  0  0  0  0  0  0  0  0  0  0
   -2.2991    0.5468   -1.7855 C   0  0  0  0  0  3  0  0  0  0  0  0
   -2.5730    1.5699   -2.0673 H   0  0  0  0  0  0  0  0  0  0  0  0
    3.4915    1.1245    0.5862 C   0  0  0  0  0  0  0  0  0  0  0  0
    4.0782    1.7217    1.2995 H   0  0  0  0  0  0  0  0  0  0  0  0
   -2.3449   -1.7263   -1.3372 C   0  0  0  0  0  0  0  0  0  0  0  0
   -2.6975   -2.7581   -1.2225 H   0  0  0  0  0  0  0  0  0  0  0  0
    4.0792   -0.0382    0.0455 C   0  0  0  0  0  0  0  0  0  0  0  0
   -3.1278   -0.6092   -1.8035 C   0  0  0  0  0  0  0  0  0  0  0  0
   -4.1807   -0.6443   -2.1070 H   0  0  0  0  0  0  0  0  0  0  0  0
    2.0559   -0.4605   -1.2357 C   0  0  0  0  0  0  0  0  0  0  0  0
    1.5109   -1.0619   -1.9778 H   0  0  0  0  0  0  0  0  0  0  0  0
  1 12  2  0  0  0  0
  2  3  1  0  0  0  0
  2 13  1  0  0  0  0
  5 12  1  1  0  0  0
  5  6  1  0  0  0  0
  6  7  1  0  0  0  0
  8 21  1  0  0  0  0
  9  8  1  0  0  0  0
 10 17  1  0  0  0  0
 10 11  1  0  0  0  0
 12 14  1  0  0  0  0
 13  4  2  0  0  0  0
 14 10  2  0  0  0  0
 15  5  1  0  0  0  0
 16 15  1  0  0  0  0
 17 18  1  0  0  0  0
 19 20  1  0  0  0  0
 19  6  1  0  0  0  0
 21 13  1  0  0  0  0
 21 17  2  0  0  0  0
 22 15  1  0  0  0  0
 22 19  2  0  0  0  0
 23 22  1  0  0  0  0
 24  8  2  0  0  0  0
 24 14  1  0  0  0  0
 25 24  1  0  0  0  0
M  END
