9,11
q = -1.0

 33 32  0  0  1  0  0  0  0  0999 V2000
    0.5079    3.2900   -1.7729 O   0  0  0  0  0  0  0  0  0  0  0  0
    0.1461    3.4158    0.4663 O   0  0  0  0  0  0  0  0  0  0  0  0
    4.4182    1.3260    1.1061 O   0  0  0  0  0  0  0  0  0  0  0  0
    3.1526    3.1592    0.6320 O   0  0  0  0  0  0  0  0  0  0  0  0
    4.0669   -0.7853   -1.5452 O   0  0  0  0  0  0  0  0  0  0  0  0
    4.1408   -1.7681    0.4928 O   0  0  0  0  0  0  0  0  0  0  0  0
    1.9132   -3.4451   -0.1221 O   0  0  0  0  0  0  0  0  0  0  0  0
    0.5400   -3.2624    1.6741 O   0  0  0  0  0  0  0  0  0  0  0  0
    1.0518    1.4199   -0.3826 C   0  0  0  0  0  3  0  0  0  0  0  0
    2.2214    1.0389    0.2107 C   0  0  0  0  0  0  0  0  0  0  0  0
    2.2529   -0.4498    0.0583 C   0  0  2  0  0  3  0  0  0  0  0  0
    1.2616   -1.2524    0.7267 C   0  0  0  0  0  3  0  0  0  0  0  0
    0.5712    2.7845   -0.6614 C   0  0  0  0  0  0  0  0  0  0  0  0
   -0.3499    4.7457    0.2822 C   0  0  0  0  0  0  0  0  0  0  0  0
    3.3707    1.8133    0.7005 C   0  0  0  0  0  0  0  0  0  0  0  0
    4.2437    3.9707    1.0639 C   0  0  0  0  0  0  0  0  0  0  0  0
    3.5522   -1.0219   -0.4649 C   0  0  0  0  0  0  0  0  0  0  0  0
    5.4365   -2.2687    0.1599 C   0  0  0  0  0  0  0  0  0  0  0  0
    1.3164   -2.7326    0.6724 C   0  0  0  0  0  0  0  0  0  0  0  0
    0.4902   -4.6892    1.7103 C   0  0  0  0  0  0  0  0  0  0  0  0
    0.7844   -0.8545    1.6321 H   0  0  0  0  0  0  0  0  0  0  0  0
   -0.7291    5.0691    1.2680 H   0  0  0  0  0  0  0  0  0  0  0  0
   -1.1644    4.7608   -0.4687 H   0  0  0  0  0  0  0  0  0  0  0  0
    0.4624    5.4190   -0.0591 H   0  0  0  0  0  0  0  0  0  0  0  0
    3.9145    5.0190    0.9459 H   0  0  0  0  0  0  0  0  0  0  0  0
    5.1491    3.7811    0.4513 H   0  0  0  0  0  0  0  0  0  0  0  0
    4.5010    3.7649    2.1235 H   0  0  0  0  0  0  0  0  0  0  0  0
    5.7728   -2.8532    1.0348 H   0  0  0  0  0  0  0  0  0  0  0  0
    6.1349   -1.4308   -0.0381 H   0  0  0  0  0  0  0  0  0  0  0  0
    5.3895   -2.9127   -0.7415 H   0  0  0  0  0  0  0  0  0  0  0  0
   -0.1289   -4.9530    2.5867 H   0  0  0  0  0  0  0  0  0  0  0  0
    1.5066   -5.1207    1.8086 H   0  0  0  0  0  0  0  0  0  0  0  0
    0.0367   -5.0975    0.7823 H   0  0  0  0  0  0  0  0  0  0  0  0
  1 13  2  0  0  0  0
  4 15  1  0  0  0  0
  4 16  1  0  0  0  0
  5 17  2  0  0  0  0
  7 19  2  0  0  0  0
  8 20  1  0  0  0  0
  9 10  2  0  0  0  0
 10 15  1  0  0  0  0
 11 17  1  1  0  0  0
 11 10  1  0  0  0  0
 11 12  1  0  0  0  0
 12 21  1  0  0  0  0
 13  9  1  0  0  0  0
 13  2  1  0  0  0  0
 14  2  1  0  0  0  0
 14 22  1  0  0  0  0
 15  3  2  0  0  0  0
 16 27  1  0  0  0  0
 17  6  1  0  0  0  0
 18  6  1  0  0  0  0
 18 28  1  0  0  0  0
 19 12  1  0  0  0  0
 19  8  1  0  0  0  0
 20 32  1  0  0  0  0
 20 31  1  0  0  0  0
 23 14  1  0  0  0  0
 24 14  1  0  0  0  0
 25 16  1  0  0  0  0
 26 16  1  0  0  0  0
 29 18  1  0  0  0  0
 30 18  1  0  0  0  0
 33 20  1  0  0  0  0
M  END
