11,13
q = 0.0, confidence = 1.0

 44 46  0  0  1  0  0  0  0  0999 V2000
    0.7869    1.7310   -0.5605 C   0  0  0  0  0  0  0  0  0  0  0  0
    2.1491    2.3212   -0.1926 C   0  0  0  0  0  0  0  0  0  0  0  0
    2.7198    1.6722    1.0672 C   0  0  0  0  0  0  0  0  0  0  0  0
    2.7966    0.1298    1.0091 C   0  0  2  0  0  0  0  0  0  0  0  0
    1.3913   -0.4263    0.5961 C   0  0  2  0  0  0  0  0  0  0  0  0
    1.2520   -1.9532    0.5937 C   0  0  0  0  0  0  0  0  0  0  0  0
   -0.2233   -2.3468    0.6272 C   0  0  0  0  0  0  0  0  0  0  0  0
   -1.0778   -1.5657   -0.3478 C   0  0  0  0  0  0  0  0  0  0  0  0
   -0.5991   -0.3575   -0.9655 C   0  0  1  0  0  3  0  0  0  0  0  0
    0.8184    0.1896   -0.7229 C   0  0  1  0  0  0  0  0  0  0  0  0
   -1.4732    0.3092   -1.8800 C   0  0  0  0  0  3  0  0  0  0  0  0
   -2.7633   -0.1921   -2.2107 C   0  0  0  0  0  3  0  0  0  0  0  0
   -3.2332   -1.3566   -1.5545 C   0  0  0  0  0  3  0  0  0  0  0  0
   -2.3863   -2.0475   -0.6449 C   0  0  0  0  0  0  0  0  0  0  0  0
    3.1685   -0.3837    2.4213 C   0  0  0  0  0  0  0  0  0  0  0  0
    3.9034   -0.4030    0.0888 C   0  0  0  0  0  0  0  0  0  0  0  0
    1.6443   -0.1857   -1.9783 C   0  0  0  0  0  0  0  0  0  0  0  0
    5.7859    0.1207   -1.2318 C   0  0  0  0  0  0  0  0  0  0  0  0
    4.0972   -1.5822   -0.1485 O   0  0  0  0  0  0  0  0  0  0  0  0
    4.7089    0.5759   -0.4029 O   0  0  0  0  0  0  0  0  0  0  0  0
    0.0488    1.9738    0.2323 H   0  0  0  0  0  0  0  0  0  0  0  0
    0.4183    2.2126   -1.4892 H   0  0  0  0  0  0  0  0  0  0  0  0
    2.8672    2.2049   -1.0297 H   0  0  0  0  0  0  0  0  0  0  0  0
    2.0412    3.4139   -0.0321 H   0  0  0  0  0  0  0  0  0  0  0  0
    2.0637    1.9258    1.9287 H   0  0  0  0  0  0  0  0  0  0  0  0
    3.7222    2.0830    1.2992 H   0  0  0  0  0  0  0  0  0  0  0  0
    0.7246   -0.0476    1.4039 H   0  0  0  0  0  0  0  0  0  0  0  0
    1.7609   -2.3951    1.4702 H   0  0  0  0  0  0  0  0  0  0  0  0
    1.7607   -2.3846   -0.2900 H   0  0  0  0  0  0  0  0  0  0  0  0
   -0.3434   -3.4280    0.4079 H   0  0  0  0  0  0  0  0  0  0  0  0
   -0.6278   -2.1972    1.6504 H   0  0  0  0  0  0  0  0  0  0  0  0
   -1.1448    1.2496   -2.3423 H   0  0  0  0  0  0  0  0  0  0  0  0
   -3.4137    0.3664   -2.8966 H   0  0  0  0  0  0  0  0  0  0  0  0
   -4.2538   -1.7211   -1.7377 H   0  0  0  0  0  0  0  0  0  0  0  0
   -2.7527   -2.9450   -0.1273 H   0  0  0  0  0  0  0  0  0  0  0  0
    2.3458   -0.1646    3.1319 H   0  0  0  0  0  0  0  0  0  0  0  0
    3.3657   -1.4717    2.4263 H   0  0  0  0  0  0  0  0  0  0  0  0
    4.0818    0.1285    2.7854 H   0  0  0  0  0  0  0  0  0  0  0  0
    2.6540    0.2649   -1.9571 H   0  0  0  0  0  0  0  0  0  0  0  0
    1.7611   -1.2802   -2.0874 H   0  0  0  0  0  0  0  0  0  0  0  0
    1.1382    0.1910   -2.8895 H   0  0  0  0  0  0  0  0  0  0  0  0
    6.3561    1.0228   -1.5160 H   0  0  0  0  0  0  0  0  0  0  0  0
    6.4312   -0.5939   -0.6830 H   0  0  0  0  0  0  0  0  0  0  0  0
    5.3950   -0.3914   -2.1346 H   0  0  0  0  0  0  0  0  0  0  0  0
  1  2  1  0  0  0  0
  1 21  1  0  0  0  0
  2 24  1  0  0  0  0
  2  3  1  0  0  0  0
  3 26  1  0  0  0  0
  3 25  1  0  0  0  0
  4 16  1  6  0  0  0
  4  3  1  0  0  0  0
  4 15  1  0  0  0  0
  5  4  1  0  0  0  0
  5 27  1  1  0  0  0
  6  5  1  0  0  0  0
  6  7  1  0  0  0  0
  6 28  1  0  0  0  0
  7 31  1  0  0  0  0
  8  7  1  0  0  0  0
  9 11  1  6  0  0  0
  9 10  1  0  0  0  0
  9  8  1  0  0  0  0
 10 17  1  6  0  0  0
 10  1  1  0  0  0  0
 10  5  1  0  0  0  0
 12 11  1  0  0  0  0
 12 13  1  0  0  0  0
 13 14  1  0  0  0  0
 14  8  2  0  0  0  0
 14 35  1  0  0  0  0
 15 37  1  0  0  0  0
 15 38  1  0  0  0  0
 15 36  1  0  0  0  0
 17 39  1  0  0  0  0
 18 43  1  0  0  0  0
 18 20  1  0  0  0  0
 19 16  2  0  0  0  0
 20 16  1  0  0  0  0
 22  1  1  0  0  0  0
 23  2  1  0  0  0  0
 29  6  1  0  0  0  0
 30  7  1  0  0  0  0
 32 11  1  0  0  0  0
 33 12  1  0  0  0  0
 34 13  1  0  0  0  0
 40 17  1  0  0  0  0
 41 17  1  0  0  0  0
 42 18  1  0  0  0  0
 44 18  1  0  0  0  0
M  END
