6,20
q = -1.0, confidence = 0.028

 26 26  0  0  0  0  0  0  0  0999 V2000
   -5.6975    0.4617   -0.2127 O   0  0  0  0  0  0  0  0  0  0  0  0
   -6.5754   -0.5793   -0.5780 C   0  0  0  0  0  0  0  0  0  0  0  0
   -7.5965   -0.1543   -0.5531 H   0  0  0  0  0  0  0  0  0  0  0  0
   -6.5253   -1.4383    0.1305 H   0  0  0  0  0  0  0  0  0  0  0  0
   -6.3688   -0.9609   -1.6046 H   0  0  0  0  0  0  0  0  0  0  0  0
   -1.5657   -0.1737   -0.0054 C   0  0  0  0  0  3  0  0  0  0  0  0
   -0.2886   -2.5503   -0.1730 C   0  0  0  0  0  3  0  0  0  0  0  0
    0.4607   -3.1327   -0.7387 H   0  0  0  0  0  0  0  0  0  0  0  0
   -3.7908   -1.0641   -0.4574 C   0  0  0  0  0  0  0  0  0  0  0  0
   -4.4318   -1.9077   -0.7506 H   0  0  0  0  0  0  0  0  0  0  0  0
   -4.1597    2.4572    0.4391 O   0  0  0  0  0  0  0  0  0  0  0  0
   -1.7006   -2.5409   -0.7444 C   0  0  0  0  0  0  0  0  0  0  0  0
   -2.2600   -3.4353   -0.3864 H   0  0  0  0  0  0  0  0  0  0  0  0
   -1.6412   -2.6403   -1.8509 H   0  0  0  0  0  0  0  0  0  0  0  0
   -2.3959   -1.2505   -0.3770 C   0  0  0  0  0  0  0  0  0  0  0  0
   -3.3683    3.5701    0.7980 C   0  0  0  0  0  0  0  0  0  0  0  0
   -4.0658    4.4150    0.9511 H   0  0  0  0  0  0  0  0  0  0  0  0
   -2.6405    3.8398   -0.0008 H   0  0  0  0  0  0  0  0  0  0  0  0
   -2.8010    3.3925    1.7402 H   0  0  0  0  0  0  0  0  0  0  0  0
   -0.0433   -2.2860    1.2021 C   0  0  0  0  0  3  0  0  0  0  0  0
    0.8717   -2.6628    1.6904 H   0  0  0  0  0  0  0  0  0  0  0  0
   -0.8891   -2.0984    1.8853 H   0  0  0  0  0  0  0  0  0  0  0  0
   -2.1315    1.0882    0.2738 C   0  0  0  0  0  0  0  0  0  0  0  0
   -1.4654    1.9224    0.5322 H   0  0  0  0  0  0  0  0  0  0  0  0
   -4.3632    0.1855   -0.1714 C   0  0  0  0  0  0  0  0  0  0  0  0
   -3.5190    1.2800    0.1930 C   0  0  0  0  0  0  0  0  0  0  0  0
  1 25  1  0  0  0  0
  2  3  1  0  0  0  0
  2  1  1  0  0  0  0
  2  4  1  0  0  0  0
  5  2  1  0  0  0  0
  6 23  1  0  0  0  0
  7 20  1  0  0  0  0
  8  7  1  0  0  0  0
  9 15  1  0  0  0  0
  9 25  2  0  0  0  0
 10  9  1  0  0  0  0
 11 16  1  0  0  0  0
 12 13  1  0  0  0  0
 12 15  1  0  0  0  0
 12  7  1  0  0  0  0
 14 12  1  0  0  0  0
 15  6  2  0  0  0  0
 16 17  1  0  0  0  0
 16 19  1  0  0  0  0
 18 16  1  0  0  0  0
 20 21  1  0  0  0  0
 20 22  1  0  0  0  0
 23 24  1  0  0  0  0
 25 26  1  0  0  0  0
 26 23  2  0  0  0  0
 26 11  1  0  0  0  0
M  END
