2,5
q = -1.0

 35 36  0  0  1  0  0  0  0  0999 V2000
   -0.5003    1.4383    0.8589 C   0  0  0  0  0  3  0  0  0  0  0  0
   -1.1279    0.2023    0.5052 C   0  0  0  0  0  3  0  0  0  0  0  0
   -2.3312   -0.0756   -0.4043 C   0  0  1  0  0  0  0  0  0  0  0  0
   -1.8124   -1.2882   -1.1828 C   0  0  0  0  0  0  0  0  0  0  0  0
   -0.3915   -1.3365   -1.3029 C   0  0  0  0  0  3  0  0  0  0  0  0
    0.1484   -2.4302   -2.0161 C   0  0  0  0  0  0  0  0  0  0  0  0
   -0.6803   -3.4163   -2.5860 C   0  0  0  0  0  0  0  0  0  0  0  0
   -2.0749   -3.3372   -2.4630 C   0  0  0  0  0  0  0  0  0  0  0  0
   -2.6402   -2.2631   -1.7542 C   0  0  0  0  0  0  0  0  0  0  0  0
   -3.5849   -0.3730    0.4301 C   0  0  0  0  0  0  0  0  0  0  0  0
   -4.7393    0.4192    0.3024 C   0  0  0  0  0  0  0  0  0  0  0  0
   -5.8751    0.1670    1.0893 C   0  0  0  0  0  0  0  0  0  0  0  0
   -5.8753   -0.8876    2.0138 C   0  0  0  0  0  0  0  0  0  0  0  0
   -4.7325   -1.6959    2.1378 C   0  0  0  0  0  0  0  0  0  0  0  0
   -3.6006   -1.4418    1.3517 C   0  0  0  0  0  0  0  0  0  0  0  0
   -1.4598    4.9808    0.3119 C   0  0  0  0  0  0  0  0  0  0  0  0
   -0.6002    3.8282    0.7727 C   0  0  0  0  0  0  0  0  0  0  0  0
   -2.5788    0.9798   -1.3386 O   0  0  0  0  0  0  0  0  0  0  0  0
    0.4749    3.9232    1.3330 O   0  0  0  0  0  0  0  0  0  0  0  0
   -1.1843    2.6369    0.4627 O   0  0  0  0  0  0  0  0  0  0  0  0
   -0.0477    1.5801    1.8522 H   0  0  0  0  0  0  0  0  0  0  0  0
   -1.0641   -0.5845    1.2679 H   0  0  0  0  0  0  0  0  0  0  0  0
    1.2370   -2.5308   -2.1383 H   0  0  0  0  0  0  0  0  0  0  0  0
   -0.2226   -4.2584   -3.1297 H   0  0  0  0  0  0  0  0  0  0  0  0
   -2.7195   -4.1106   -2.9075 H   0  0  0  0  0  0  0  0  0  0  0  0
   -3.7320   -2.1861   -1.6314 H   0  0  0  0  0  0  0  0  0  0  0  0
   -4.7378    1.2291   -0.4405 H   0  0  0  0  0  0  0  0  0  0  0  0
   -6.7700    0.7981    0.9730 H   0  0  0  0  0  0  0  0  0  0  0  0
   -6.7653   -1.0872    2.6299 H   0  0  0  0  0  0  0  0  0  0  0  0
   -4.7257   -2.5364    2.8490 H   0  0  0  0  0  0  0  0  0  0  0  0
   -2.7206   -2.0971    1.4379 H   0  0  0  0  0  0  0  0  0  0  0  0
   -2.5251    4.8030    0.5533 H   0  0  0  0  0  0  0  0  0  0  0  0
   -1.3823    5.0854   -0.7902 H   0  0  0  0  0  0  0  0  0  0  0  0
   -1.1055    5.9146    0.7815 H   0  0  0  0  0  0  0  0  0  0  0  0
   -2.3929    1.8105   -0.8547 H   0  0  0  0  0  0  0  0  0  0  0  0
  1 21  1  0  0  0  0
  2  1  1  0  0  0  0
  2 22  1  0  0  0  0
  3 18  1  6  0  0  0
  3 10  1  0  0  0  0
  3  2  1  0  0  0  0
  4  3  1  0  0  0  0
  5  4  1  0  0  0  0
  6  5  2  0  0  0  0
  7  8  2  0  0  0  0
  7  6  1  0  0  0  0
  8  9  1  0  0  0  0
  9 26  1  0  0  0  0
  9  4  2  0  0  0  0
 10 15  1  0  0  0  0
 11 10  2  0  0  0  0
 11 12  1  0  0  0  0
 12 13  2  0  0  0  0
 13 14  1  0  0  0  0
 13 29  1  0  0  0  0
 14 30  1  0  0  0  0
 15 31  1  0  0  0  0
 15 14  2  0  0  0  0
 16 32  1  0  0  0  0
 16 17  1  0  0  0  0
 16 34  1  0  0  0  0
 17 19  2  0  0  0  0
 18 35  1  0  0  0  0
 20 17  1  0  0  0  0
 20  1  1  0  0  0  0
 23  6  1  0  0  0  0
 24  7  1  0  0  0  0
 25  8  1  0  0  0  0
 27 11  1  0  0  0  0
 28 12  1  0  0  0  0
 33 16  1  0  0  0  0
M  END
