3,5
q = -1.0, confidence = 0.0

 46 46  0  0  1  0  0  0  0  0999 V2000
    1.9439   -1.1713    0.9279 C   0  0  0  0  0  0  0  0  0  0  0  0
    2.6418   -0.8872   -0.2786 C   0  0  0  0  0  0  0  0  0  0  0  0
    2.7018    0.5896   -0.4361 C   0  0  1  0  0  3  0  0  0  0  0  0
    2.0577    1.1896    0.7012 C   0  0  1  0  0  3  0  0  0  0  0  0
    1.5281    0.1002    1.4759 C   0  0  0  0  0  3  0  0  0  0  0  0
    0.9568    0.2105    2.4056 H   0  0  0  0  0  0  0  0  0  0  0  0
    1.7862   -2.4963    1.6449 C   0  0  0  0  0  0  0  0  0  0  0  0
    2.1288   -3.2958    0.9576 H   0  0  0  0  0  0  0  0  0  0  0  0
    0.3370   -2.8144    2.0319 C   0  0  0  0  0  0  0  0  0  0  0  0
   -0.0840   -2.0471    2.7129 H   0  0  0  0  0  0  0  0  0  0  0  0
    0.2697   -3.7935    2.5499 H   0  0  0  0  0  0  0  0  0  0  0  0
   -0.3155   -2.8476    1.1383 H   0  0  0  0  0  0  0  0  0  0  0  0
    2.7051   -2.5289    2.8818 C   0  0  0  0  0  0  0  0  0  0  0  0
    3.7598   -2.3285    2.6061 H   0  0  0  0  0  0  0  0  0  0  0  0
    2.6597   -3.5151    3.3892 H   0  0  0  0  0  0  0  0  0  0  0  0
    2.4007   -1.7556    3.6174 H   0  0  0  0  0  0  0  0  0  0  0  0
    3.3201   -1.8824   -1.2033 C   0  0  0  0  0  0  0  0  0  0  0  0
    3.6961   -1.3039   -2.0734 H   0  0  0  0  0  0  0  0  0  0  0  0
    2.3798   -2.9552   -1.7796 C   0  0  0  0  0  0  0  0  0  0  0  0
    1.9561   -3.6043   -0.9874 H   0  0  0  0  0  0  0  0  0  0  0  0
    2.9259   -3.6115   -2.4887 H   0  0  0  0  0  0  0  0  0  0  0  0
    1.5344   -2.4881   -2.3178 H   0  0  0  0  0  0  0  0  0  0  0  0
    4.5533   -2.5206   -0.5325 C   0  0  0  0  0  0  0  0  0  0  0  0
    5.2359   -1.7506   -0.1205 H   0  0  0  0  0  0  0  0  0  0  0  0
    5.1257   -3.1343   -1.2587 H   0  0  0  0  0  0  0  0  0  0  0  0
    4.2599   -3.1835    0.3064 H   0  0  0  0  0  0  0  0  0  0  0  0
    3.4808    1.2430   -1.5612 C   0  0  0  0  0  0  0  0  0  0  0  0
    3.3686    0.5647   -2.4356 H   0  0  0  0  0  0  0  0  0  0  0  0
    2.9751    2.6146   -2.0288 C   0  0  0  0  0  0  0  0  0  0  0  0
    1.8774    2.6099   -2.1790 H   0  0  0  0  0  0  0  0  0  0  0  0
    3.4502    2.8850   -2.9938 H   0  0  0  0  0  0  0  0  0  0  0  0
    3.2259    3.4199   -1.3104 H   0  0  0  0  0  0  0  0  0  0  0  0
    4.9875    1.2927   -1.2408 C   0  0  0  0  0  0  0  0  0  0  0  0
    5.1898    1.9627   -0.3807 H   0  0  0  0  0  0  0  0  0  0  0  0
    5.5632    1.6745   -2.1094 H   0  0  0  0  0  0  0  0  0  0  0  0
    5.3837    0.2917   -0.9813 H   0  0  0  0  0  0  0  0  0  0  0  0
    2.0072    2.6481    1.1158 C   0  0  0  0  0  0  0  0  0  0  0  0
    1.9225    3.2674    0.2014 H   0  0  0  0  0  0  0  0  0  0  0  0
    0.7952    2.9879    1.9916 C   0  0  0  0  0  0  0  0  0  0  0  0
   -0.1532    2.7524    1.4712 H   0  0  0  0  0  0  0  0  0  0  0  0
    0.7854    4.0688    2.2384 H   0  0  0  0  0  0  0  0  0  0  0  0
    0.8175    2.4341    2.9533 H   0  0  0  0  0  0  0  0  0  0  0  0
    3.3105    3.0476    1.8346 C   0  0  0  0  0  0  0  0  0  0  0  0
    3.4436    2.4470    2.7585 H   0  0  0  0  0  0  0  0  0  0  0  0
    3.2996    4.1202    2.1207 H   0  0  0  0  0  0  0  0  0  0  0  0
    4.1984    2.8727    1.1961 H   0  0  0  0  0  0  0  0  0  0  0  0
  1  5  1  0  0  0  0
  1  7  1  0  0  0  0
  2  1  2  0  0  0  0
  3 27  1  1  0  0  0
  3  2  1  0  0  0  0
  3  4  1  0  0  0  0
  4 37  1  1  0  0  0
  4  5  1  0  0  0  0
  5  6  1  0  0  0  0
  7  9  1  0  0  0  0
  7 13  1  0  0  0  0
  8  7  1  0  0  0  0
  9 11  1  0  0  0  0
  9 10  1  0  0  0  0
 12  9  1  0  0  0  0
 13 15  1  0  0  0  0
 13 16  1  0  0  0  0
 14 13  1  0  0  0  0
 17 23  1  0  0  0  0
 17  2  1  0  0  0  0
 18 17  1  0  0  0  0
 19 17  1  0  0  0  0
 19 20  1  0  0  0  0
 21 19  1  0  0  0  0
 22 19  1  0  0  0  0
 23 24  1  0  0  0  0
 23 26  1  0  0  0  0
 25 23  1  0  0  0  0
 27 33  1  0  0  0  0
 28 27  1  0  0  0  0
 29 27  1  0  0  0  0
 29 32  1  0  0  0  0
 30 29  1  0  0  0  0
 31 29  1  0  0  0  0
 33 36  1  0  0  0  0
 33 34  1  0  0  0  0
 35 33  1  0  0  0  0
 37 43  1  0  0  0  0
 37 39  1  0  0  0  0
 38 37  1  0  0  0  0
 39 41  1  0  0  0  0
 39 42  1  0  0  0  0
 40 39  1  0  0  0  0
 43 45  1  0  0  0  0
 43 44  1  0  0  0  0
 46 43  1  0  0  0  0
M  END
