19,21
q = 0.0, confidence = 0.998

 45 48  0  0  1  0  0  0  0  0999 V2000
   -2.6628    0.1014    0.3443 C   0  0  1  0  0  0  0  0  0  0  0  0
   -2.7416    0.4739    1.8377 C   0  0  0  0  0  0  0  0  0  0  0  0
   -3.7850    0.8004   -0.4795 C   0  0  0  0  0  0  0  0  0  0  0  0
   -5.1944    0.5396   -0.0057 C   0  0  0  0  0  0  0  0  0  0  0  0
   -5.7698   -0.6774    0.0895 C   0  0  0  0  0  0  0  0  0  0  0  0
   -5.0838   -1.9848   -0.2262 C   0  0  0  0  0  0  0  0  0  0  0  0
   -3.7778   -2.2199    0.5518 C   0  0  0  0  0  0  0  0  0  0  0  0
   -1.2849    0.4630   -0.2060 C   0  0  0  0  0  0  0  0  0  0  0  0
   -0.6193   -0.6620   -0.5996 C   0  0  0  0  0  0  0  0  0  0  0  0
   -1.5207   -1.8474   -0.3738 C   0  0  0  0  0  0  0  0  0  0  0  0
   -0.8020    1.8638   -0.1960 C   0  0  0  0  0  0  0  0  0  0  0  0
   -1.0843    2.7336   -1.2735 C   0  0  0  0  0  0  0  0  0  0  0  0
   -0.5933    4.0480   -1.2733 C   0  0  0  0  0  0  0  0  0  0  0  0
    0.1854    4.5097   -0.2002 C   0  0  0  0  0  0  0  0  0  0  0  0
    0.4645    3.6546    0.8771 C   0  0  0  0  0  0  0  0  0  0  0  0
   -0.0299    2.3424    0.8848 C   0  0  0  0  0  0  0  0  0  0  0  0
    0.7634   -0.8085   -1.0954 C   0  0  0  0  0  0  0  0  0  0  0  0
    1.5130    0.2932   -1.6100 C   0  0  0  0  0  3  0  0  0  0  0  0
    2.8763    0.1284   -2.0005 C   0  0  0  0  0  3  0  0  0  0  0  0
    3.5133   -1.1288   -1.8903 C   0  0  0  0  0  3  0  0  0  0  0  0
    2.7692   -2.2399   -1.3841 C   0  0  0  0  0  3  0  0  0  0  0  0
    1.4181   -2.0923   -1.0030 C   0  0  0  0  0  0  0  0  0  0  0  0
   -2.6915   -1.3476    0.1585 N   0  0  0  0  0  0  0  0  0  0  0  0
   -1.2951   -3.0385   -0.5970 O   0  0  0  0  0  0  0  0  0  0  0  0
   -5.7980    1.4213    0.2673 H   0  0  0  0  0  0  0  0  0  0  0  0
   -6.8187   -0.7268    0.4282 H   0  0  0  0  0  0  0  0  0  0  0  0
   -1.9311   -0.0304    2.3992 H   0  0  0  0  0  0  0  0  0  0  0  0
   -2.6360    1.5683    1.9681 H   0  0  0  0  0  0  0  0  0  0  0  0
   -3.7213    0.1710    2.2562 H   0  0  0  0  0  0  0  0  0  0  0  0
   -3.5834    1.8892   -0.4697 H   0  0  0  0  0  0  0  0  0  0  0  0
   -3.6695    0.4608   -1.5333 H   0  0  0  0  0  0  0  0  0  0  0  0
   -5.7689   -2.8293   -0.0109 H   0  0  0  0  0  0  0  0  0  0  0  0
   -4.8504   -2.0435   -1.3140 H   0  0  0  0  0  0  0  0  0  0  0  0
   -3.9699   -2.1222    1.6435 H   0  0  0  0  0  0  0  0  0  0  0  0
   -3.4004   -3.2456    0.3641 H   0  0  0  0  0  0  0  0  0  0  0  0
   -1.6740    2.3646   -2.1261 H   0  0  0  0  0  0  0  0  0  0  0  0
   -0.8151    4.7127   -2.1221 H   0  0  0  0  0  0  0  0  0  0  0  0
    0.5791    5.5372   -0.2059 H   0  0  0  0  0  0  0  0  0  0  0  0
    1.0875    4.0025    1.7140 H   0  0  0  0  0  0  0  0  0  0  0  0
    0.1993    1.6700    1.7227 H   0  0  0  0  0  0  0  0  0  0  0  0
    1.0557    1.2874   -1.6680 H   0  0  0  0  0  0  0  0  0  0  0  0
    3.4439    1.0041   -2.3449 H   0  0  0  0  0  0  0  0  0  0  0  0
    4.5757   -1.2393   -2.1456 H   0  0  0  0  0  0  0  0  0  0  0  0
    3.2621   -3.2133   -1.2518 H   0  0  0  0  0  0  0  0  0  0  0  0
    0.8457   -2.9387   -0.6044 H   0  0  0  0  0  0  0  0  0  0  0  0
  1  2  1  1  0  0  0
  2 28  1  0  0  0  0
  2 29  1  0  0  0  0
  2 27  1  0  0  0  0
  3 30  1  0  0  0  0
  3  4  1  0  0  0  0
  3  1  1  0  0  0  0
  4  5  2  0  0  0  0
  4 25  1  0  0  0  0
  5 26  1  0  0  0  0
  6 32  1  0  0  0  0
  6  5  1  0  0  0  0
  6  7  1  0  0  0  0
  7 34  1  0  0  0  0
  8 11  1  0  0  0  0
  8  1  1  0  0  0  0
  9 10  1  0  0  0  0
  9  8  2  0  0  0  0
 10 23  1  0  0  0  0
 11 16  1  0  0  0  0
 12 13  1  0  0  0  0
 12 11  2  0  0  0  0
 13 14  2  0  0  0  0
 14 15  1  0  0  0  0
 15 16  2  0  0  0  0
 15 39  1  0  0  0  0
 16 40  1  0  0  0  0
 17 22  2  0  0  0  0
 17  9  1  0  0  0  0
 18 17  1  0  0  0  0
 19 20  1  0  0  0  0
 19 18  1  0  0  0  0
 20 21  1  0  0  0  0
 21 44  1  0  0  0  0
 21 22  1  0  0  0  0
 22 45  1  0  0  0  0
 23  1  1  0  0  0  0
 23  7  1  0  0  0  0
 24 10  2  0  0  0  0
 31  3  1  0  0  0  0
 33  6  1  0  0  0  0
 35  7  1  0  0  0  0
 36 12  1  0  0  0  0
 37 13  1  0  0  0  0
 38 14  1  0  0  0  0
 41 18  1  0  0  0  0
 42 19  1  0  0  0  0
 43 20  1  0  0  0  0
M  END
