3,14
q = -2.0, confidence = 0.532

 26 27  0  0  1  0  0  0  0  0999 V2000
    0.3869    0.6349   -3.0005 C   0  0  2  0  0  3  0  0  0  0  0  0
    1.5117    0.6727   -1.9955 C   0  0  0  0  0  0  0  0  0  0  0  0
    0.7483    1.1389   -0.7787 C   0  0  0  0  0  2  0  0  0  0  0  0
    0.4542    2.4966   -0.7291 C   0  0  0  0  0  3  0  0  0  0  0  0
    0.5347    3.4207   -1.8285 C   0  0  0  0  0  0  0  0  0  0  0  0
    0.3501    3.1084   -3.1728 C   0  0  0  0  0  0  0  0  0  0  0  0
    0.0000    1.7971   -3.6323 C   0  0  0  0  0  3  0  0  0  0  0  0
    2.2843    1.4148   -2.2951 H   0  0  0  0  0  0  0  0  0  0  0  0
    1.9623   -0.3280   -1.8637 H   0  0  0  0  0  0  0  0  0  0  0  0
    0.0531    2.9214    0.2105 H   0  0  0  0  0  0  0  0  0  0  0  0
    0.5734    4.4944   -1.5704 H   0  0  0  0  0  0  0  0  0  0  0  0
    0.2555    3.9503   -3.8797 H   0  0  0  0  0  0  0  0  0  0  0  0
   -0.7175    1.7226   -4.4684 H   0  0  0  0  0  0  0  0  0  0  0  0
   -0.7483   -1.1389   -0.7787 C   0  0  0  0  0  2  0  0  0  0  0  0
   -0.3869   -0.6349   -3.0005 C   0  0  2  0  0  3  0  0  0  0  0  0
   -1.5117   -0.6727   -1.9955 C   0  0  0  0  0  0  0  0  0  0  0  0
   -0.4542   -2.4966   -0.7291 C   0  0  0  0  0  3  0  0  0  0  0  0
   -0.0000   -1.7971   -3.6323 C   0  0  0  0  0  3  0  0  0  0  0  0
   -2.2843   -1.4148   -2.2951 H   0  0  0  0  0  0  0  0  0  0  0  0
   -1.9623    0.3280   -1.8637 H   0  0  0  0  0  0  0  0  0  0  0  0
   -0.5347   -3.4207   -1.8285 C   0  0  0  0  0  0  0  0  0  0  0  0
   -0.0531   -2.9214    0.2105 H   0  0  0  0  0  0  0  0  0  0  0  0
   -0.3501   -3.1084   -3.1728 C   0  0  0  0  0  0  0  0  0  0  0  0
    0.7175   -1.7226   -4.4684 H   0  0  0  0  0  0  0  0  0  0  0  0
   -0.5734   -4.4944   -1.5704 H   0  0  0  0  0  0  0  0  0  0  0  0
   -0.2555   -3.9503   -3.8797 H   0  0  0  0  0  0  0  0  0  0  0  0
  1  7  1  1  0  0  0
  1  2  1  0  0  0  0
  2  9  1  0  0  0  0
  2  3  1  0  0  0  0
  3  4  1  0  0  0  0
  4 10  1  0  0  0  0
  5 11  1  0  0  0  0
  5  4  1  0  0  0  0
  6  5  2  0  0  0  0
  7  6  1  0  0  0  0
  8  2  1  0  0  0  0
 12  6  1  0  0  0  0
 13  7  1  0  0  0  0
 14 17  1  0  0  0  0
 15 18  1  1  0  0  0
 15  1  1  0  0  0  0
 15 16  1  0  0  0  0
 16 20  1  0  0  0  0
 16 14  1  0  0  0  0
 17 22  1  0  0  0  0
 18 23  1  0  0  0  0
 19 16  1  0  0  0  0
 21 25  1  0  0  0  0
 21 17  1  0  0  0  0
 23 21  2  0  0  0  0
 24 18  1  0  0  0  0
 26 23  1  0  0  0  0
M  END
