2,5
q = -1.0, confidence = 0.002

 15 15  0  0  0  0  0  0  0  0999 V2000
   -2.5329    0.5185   -1.3128 P   0  0  0  0  0  2  0  0  0  0  0  0
   -2.2885    1.1105    0.3796 C   0  0  0  0  0  3  0  0  0  0  0  0
   -1.1402    1.9485    0.5600 C   0  0  0  0  0  0  0  0  0  0  0  0
   -0.3988    2.0821   -0.6687 C   0  0  0  0  0  0  0  0  0  0  0  0
   -0.9540    1.2878   -1.7186 C   0  0  0  0  0  3  0  0  0  0  0  0
   -0.8013    2.6767    1.8301 C   0  0  0  0  0  0  0  0  0  0  0  0
    0.7676    3.0056   -0.8384 C   0  0  0  0  0  0  0  0  0  0  0  0
   -2.9972    0.9115    1.1967 H   0  0  0  0  0  0  0  0  0  0  0  0
   -0.4979    1.2446   -2.7181 H   0  0  0  0  0  0  0  0  0  0  0  0
   -1.3235    2.2301    2.6969 H   0  0  0  0  0  0  0  0  0  0  0  0
    0.2870    2.6551    2.0341 H   0  0  0  0  0  0  0  0  0  0  0  0
   -1.1083    3.7417    1.7590 H   0  0  0  0  0  0  0  0  0  0  0  0
    1.3686    2.7405   -1.7268 H   0  0  0  0  0  0  0  0  0  0  0  0
    0.3854    4.0415   -0.9686 H   0  0  0  0  0  0  0  0  0  0  0  0
    1.4363    2.9966    0.0428 H   0  0  0  0  0  0  0  0  0  0  0  0
  1  2  1  0  0  0  0
  2  3  1  0  0  0  0
  2  8  1  0  0  0  0
  3  6  1  0  0  0  0
  4  3  2  0  0  0  0
  5  1  1  0  0  0  0
  5  4  1  0  0  0  0
  6 11  1  0  0  0  0
  6 10  1  0  0  0  0
  7  4  1  0  0  0  0
  7 15  1  0  0  0  0
  9  5  1  0  0  0  0
 12  6  1  0  0  0  0
 13  7  1  0  0  0  0
 14  7  1  0  0  0  0
M  END
