5,6
q = 0.0, confidence = 0.876

 16 16  0  0  0  0  0  0  0  0999 V2000
    6.1428   -0.3356    0.7327 F   0  0  0  0  0  0  0  0  0  0  0  0
   -2.6825    1.0470   -2.1029 O   0  0  0  0  0  0  0  0  0  0  0  0
   -0.5463    1.3662   -2.6665 O   0  0  0  0  0  0  0  0  0  0  0  0
    0.7792    1.1671   -2.2660 N   0  0  0  0  0  0  0  0  0  0  0  0
    0.8909    0.5679   -1.1194 C   0  0  0  0  0  3  0  0  0  0  0  0
   -1.5220    0.8811   -1.7797 C   0  0  0  0  0  3  0  0  0  0  0  0
    2.2728    0.3331   -0.6379 C   0  0  0  0  0  0  0  0  0  0  0  0
    3.3582    0.2404   -1.5433 C   0  0  0  0  0  0  0  0  0  0  0  0
    4.6611    0.0159   -1.0868 C   0  0  0  0  0  0  0  0  0  0  0  0
    4.8899   -0.1130    0.2907 C   0  0  0  0  0  0  0  0  0  0  0  0
    3.8427   -0.0217    1.2151 C   0  0  0  0  0  0  0  0  0  0  0  0
    2.5422    0.1972    0.7407 C   0  0  0  0  0  0  0  0  0  0  0  0
    3.1534    0.3475   -2.6180 H   0  0  0  0  0  0  0  0  0  0  0  0
    5.5093   -0.0669   -1.7818 H   0  0  0  0  0  0  0  0  0  0  0  0
    4.0582   -0.1267    2.2882 H   0  0  0  0  0  0  0  0  0  0  0  0
    1.6986    0.2526    1.4424 H   0  0  0  0  0  0  0  0  0  0  0  0
  2  6  2  0  0  0  0
  3  4  1  0  0  0  0
  3  6  1  0  0  0  0
  4  5  2  0  0  0  0
  5  7  1  0  0  0  0
  7 12  1  0  0  0  0
  8  9  1  0  0  0  0
  8  7  2  0  0  0  0
  9 10  2  0  0  0  0
 10  1  1  0  0  0  0
 10 11  1  0  0  0  0
 11 15  1  0  0  0  0
 12 11  2  0  0  0  0
 12 16  1  0  0  0  0
 13  8  1  0  0  0  0
 14  9  1  0  0  0  0
M  END
