3,5
q = 0.0, confidence = 0.998

 33 34  0  0  1  0  0  0  0  0999 V2000
    2.6085   -0.3618    0.5062 N   0  0  0  0  0  0  0  0  0  0  0  0
    0.3369    0.1264   -1.2001 C   0  0  2  0  0  3  0  0  0  0  0  0
   -0.8249    0.4019   -1.9979 C   0  0  0  0  0  3  0  0  0  0  0  0
   -1.9130   -0.4988   -2.0415 C   0  0  0  0  0  3  0  0  0  0  0  0
   -1.8700   -1.6886   -1.2493 C   0  0  0  0  0  3  0  0  0  0  0  0
   -0.7346   -1.9652   -0.4536 C   0  0  0  0  0  0  0  0  0  0  0  0
    0.3873   -1.0671   -0.4332 C   0  0  0  0  0  0  0  0  0  0  0  0
    1.6057   -1.4341    0.3925 C   0  0  1  0  0  0  0  0  0  0  0  0
    2.1230    1.0077    0.2893 C   0  0  2  0  0  0  0  0  0  0  0  0
    1.4831    1.1027   -1.1152 C   0  0  1  0  0  0  0  0  0  0  0  0
    2.2582   -2.6908   -0.2198 C   0  0  0  0  0  0  0  0  0  0  0  0
    3.3881   -0.5314    1.7220 C   0  0  0  0  0  0  0  0  0  0  0  0
    3.2356    2.0455    0.4587 C   0  0  0  0  0  0  0  0  0  0  0  0
    2.4802    0.8777   -2.2642 C   0  0  0  0  0  0  0  0  0  0  0  0
   -0.8769    1.3516   -2.5501 H   0  0  0  0  0  0  0  0  0  0  0  0
   -2.8116   -0.2541   -2.6237 H   0  0  0  0  0  0  0  0  0  0  0  0
   -2.7358   -2.3644   -1.2228 H   0  0  0  0  0  0  0  0  0  0  0  0
   -0.7247   -2.8566    0.1891 H   0  0  0  0  0  0  0  0  0  0  0  0
    1.2208   -1.7053    1.4095 H   0  0  0  0  0  0  0  0  0  0  0  0
    1.3119    1.2639    1.0212 H   0  0  0  0  0  0  0  0  0  0  0  0
    1.0538    2.1233   -1.2064 H   0  0  0  0  0  0  0  0  0  0  0  0
    1.5662   -3.5561   -0.2099 H   0  0  0  0  0  0  0  0  0  0  0  0
    2.5617   -2.4915   -1.2662 H   0  0  0  0  0  0  0  0  0  0  0  0
    3.1623   -2.9786    0.3507 H   0  0  0  0  0  0  0  0  0  0  0  0
    3.7228   -1.5832    1.8116 H   0  0  0  0  0  0  0  0  0  0  0  0
    4.3012    0.0921    1.7033 H   0  0  0  0  0  0  0  0  0  0  0  0
    2.8111   -0.2827    2.6518 H   0  0  0  0  0  0  0  0  0  0  0  0
    3.5270    2.1737    1.5183 H   0  0  0  0  0  0  0  0  0  0  0  0
    2.8792    3.0309    0.0987 H   0  0  0  0  0  0  0  0  0  0  0  0
    4.1401    1.7691   -0.1198 H   0  0  0  0  0  0  0  0  0  0  0  0
    1.9589    0.8514   -3.2418 H   0  0  0  0  0  0  0  0  0  0  0  0
    3.2337    1.6885   -2.3057 H   0  0  0  0  0  0  0  0  0  0  0  0
    3.0159   -0.0813   -2.1239 H   0  0  0  0  0  0  0  0  0  0  0  0
  1 12  1  0  0  0  0
  2  3  1  1  0  0  0
  2 10  1  0  0  0  0
  2  7  1  0  0  0  0
  4  3  1  0  0  0  0
  4  5  1  0  0  0  0
  5 17  1  0  0  0  0
  5  6  1  0  0  0  0
  6  7  2  0  0  0  0
  6 18  1  0  0  0  0
  7  8  1  0  0  0  0
  8  1  1  0  0  0  0
  8 19  1  1  0  0  0
  9 13  1  0  0  0  0
  9  1  1  0  0  0  0
  9 20  1  1  0  0  0
 10 21  1  6  0  0  0
 10  9  1  0  0  0  0
 11 22  1  0  0  0  0
 11 24  1  0  0  0  0
 11  8  1  0  0  0  0
 12 25  1  0  0  0  0
 12 27  1  0  0  0  0
 13 28  1  0  0  0  0
 14 33  1  0  0  0  0
 14 10  1  0  0  0  0
 15  3  1  0  0  0  0
 16  4  1  0  0  0  0
 23 11  1  0  0  0  0
 26 12  1  0  0  0  0
 29 13  1  0  0  0  0
 30 13  1  0  0  0  0
 31 14  1  0  0  0  0
 32 14  1  0  0  0  0
M  END
