1,11
q = 0.0, confidence = 0.98

 23 23  0  0  0  0  0  0  0  0999 V2000
    1.1779    1.0299    0.1381 C   0  0  0  0  0  2  0  0  0  0  0  0
    3.2840    1.7381    0.5965 C   0  0  0  0  0  0  0  0  0  0  0  0
    4.3212    1.6329    0.9269 H   0  0  0  0  0  0  0  0  0  0  0  0
    2.6080    2.8016    0.0565 C   0  0  0  0  0  0  0  0  0  0  0  0
    2.9312    3.8240   -0.1591 H   0  0  0  0  0  0  0  0  0  0  0  0
    0.1709    3.0825   -0.7104 C   0  0  0  0  0  0  0  0  0  0  0  0
    0.5012    3.7584   -1.5295 H   0  0  0  0  0  0  0  0  0  0  0  0
   -0.2298    3.7158    0.1105 H   0  0  0  0  0  0  0  0  0  0  0  0
   -0.8791    2.0857   -1.1738 C   0  0  0  0  0  3  0  0  0  0  0  0
   -1.9051    2.4846   -1.1186 H   0  0  0  0  0  0  0  0  0  0  0  0
   -0.5640    1.0834   -2.1567 C   0  0  0  0  0  3  0  0  0  0  0  0
    0.4448    1.0446   -2.5995 H   0  0  0  0  0  0  0  0  0  0  0  0
   -1.3595    0.7111   -2.8234 H   0  0  0  0  0  0  0  0  0  0  0  0
    2.7565   -0.6519    1.1803 C   0  0  0  0  0  0  0  0  0  0  0  0
    1.8911   -1.3122    0.9630 H   0  0  0  0  0  0  0  0  0  0  0  0
    2.9032   -0.5658    2.2774 H   0  0  0  0  0  0  0  0  0  0  0  0
    3.9783   -1.2060    0.5073 C   0  0  0  0  0  0  0  0  0  0  0  0
    3.8609   -1.3877   -0.5757 H   0  0  0  0  0  0  0  0  0  0  0  0
    5.1223   -1.5068    1.1445 C   0  0  0  0  0  0  0  0  0  0  0  0
    5.2375   -1.3416    2.2295 H   0  0  0  0  0  0  0  0  0  0  0  0
    5.9787   -1.9486    0.6121 H   0  0  0  0  0  0  0  0  0  0  0  0
    1.3281    2.3455   -0.2143 N   0  0  0  0  0  0  0  0  0  0  0  0
    2.3936    0.6682    0.6471 N   0  0  0  0  0  0  0  0  0  0  0  0
  1 23  1  0  0  0  0
  2 23  1  0  0  0  0
  2  3  1  0  0  0  0
  4  2  2  0  0  0  0
  5  4  1  0  0  0  0
  6 22  1  0  0  0  0
  6  8  1  0  0  0  0
  7  6  1  0  0  0  0
  9 10  1  0  0  0  0
  9  6  1  0  0  0  0
 11  9  1  0  0  0  0
 12 11  1  0  0  0  0
 13 11  1  0  0  0  0
 14 16  1  0  0  0  0
 15 14  1  0  0  0  0
 17 19  2  0  0  0  0
 17 14  1  0  0  0  0
 18 17  1  0  0  0  0
 19 20  1  0  0  0  0
 21 19  1  0  0  0  0
 22  4  1  0  0  0  0
 22  1  1  0  0  0  0
 23 14  1  0  0  0  0
M  END
