2,4
q = 0.0, confidence = 0.972

 30 32  0  0  1  0  0  0  0  0999 V2000
    0.2239   -1.3063    0.8579 C   0  0  2  0  0  3  0  0  0  0  0  0
    1.3612   -0.9876    1.6683 C   0  0  0  0  0  3  0  0  0  0  0  0
    2.6843   -1.0546    1.1683 C   0  0  0  0  0  3  0  0  0  0  0  0
    2.8821   -1.3994   -0.1983 C   0  0  0  0  0  3  0  0  0  0  0  0
    1.7728   -1.7261   -1.0148 C   0  0  0  0  0  0  0  0  0  0  0  0
    0.4283   -1.6767   -0.5123 C   0  0  0  0  0  0  0  0  0  0  0  0
   -0.6499   -2.0770   -1.5114 C   0  0  0  0  0  0  0  0  0  0  0  0
   -2.1288   -2.0413   -1.0918 C   0  0  0  0  0  0  0  0  0  0  0  0
   -2.5640   -0.6994   -0.5607 C   0  0  0  0  0  0  0  0  0  0  0  0
   -3.3877    0.1626   -1.3043 C   0  0  0  0  0  0  0  0  0  0  0  0
   -3.7183    1.4376   -0.8215 C   0  0  0  0  0  0  0  0  0  0  0  0
   -3.2180    1.8650    0.4165 C   0  0  0  0  0  0  0  0  0  0  0  0
   -2.3977    1.0133    1.1714 C   0  0  0  0  0  0  0  0  0  0  0  0
   -2.0722   -0.2658    0.6915 C   0  0  0  0  0  0  0  0  0  0  0  0
   -1.1650   -1.1923    1.4897 C   0  0  2  0  0  0  0  0  0  0  0  0
   -1.0041   -0.7804    2.8345 O   0  0  0  0  0  0  0  0  0  0  0  0
    1.1722   -0.6610    2.6980 H   0  0  0  0  0  0  0  0  0  0  0  0
    3.5325   -0.7707    1.8047 H   0  0  0  0  0  0  0  0  0  0  0  0
    3.8929   -1.3930   -0.6300 H   0  0  0  0  0  0  0  0  0  0  0  0
    1.9302   -1.9710   -2.0745 H   0  0  0  0  0  0  0  0  0  0  0  0
   -0.4038   -3.1099   -1.8415 H   0  0  0  0  0  0  0  0  0  0  0  0
   -0.5217   -1.4366   -2.4088 H   0  0  0  0  0  0  0  0  0  0  0  0
   -2.3197   -2.8347   -0.3368 H   0  0  0  0  0  0  0  0  0  0  0  0
   -2.7386   -2.3107   -1.9771 H   0  0  0  0  0  0  0  0  0  0  0  0
   -3.7659   -0.1702   -2.2839 H   0  0  0  0  0  0  0  0  0  0  0  0
   -4.3588    2.1024   -1.4203 H   0  0  0  0  0  0  0  0  0  0  0  0
   -3.4560    2.8705    0.7946 H   0  0  0  0  0  0  0  0  0  0  0  0
   -1.9749    1.3509    2.1285 H   0  0  0  0  0  0  0  0  0  0  0  0
   -1.6079   -2.2197    1.4661 H   0  0  0  0  0  0  0  0  0  0  0  0
   -1.8988   -0.6636    3.2025 H   0  0  0  0  0  0  0  0  0  0  0  0
  1  6  1  6  0  0  0
  1 15  1  0  0  0  0
  1  2  1  0  0  0  0
  2 17  1  0  0  0  0
  3  2  1  0  0  0  0
  3 18  1  0  0  0  0
  4  3  1  0  0  0  0
  5  6  2  0  0  0  0
  5  4  1  0  0  0  0
  7  8  1  0  0  0  0
  7  6  1  0  0  0  0
  8  9  1  0  0  0  0
  8 23  1  0  0  0  0
  9 14  1  0  0  0  0
 10 11  1  0  0  0  0
 10  9  2  0  0  0  0
 11 12  2  0  0  0  0
 12 27  1  0  0  0  0
 12 13  1  0  0  0  0
 13 28  1  0  0  0  0
 14 13  2  0  0  0  0
 14 15  1  0  0  0  0
 15 29  1  1  0  0  0
 15 16  1  0  0  0  0
 16 30  1  0  0  0  0
 19  4  1  0  0  0  0
 20  5  1  0  0  0  0
 21  7  1  0  0  0  0
 22  7  1  0  0  0  0
 24  8  1  0  0  0  0
 25 10  1  0  0  0  0
 26 11  1  0  0  0  0
M  END
