10,13
q = 0.0, confidence = 0.976

 37 41  0  0  1  0  0  0  0  0999 V2000
    0.8086    2.4616    0.1888 O   0  0  0  0  0  0  0  0  0  0  0  0
    1.8643    1.6260   -1.6246 O   0  0  0  0  0  0  0  0  0  0  0  0
    1.0888    0.1251    1.5778 O   0  0  0  0  0  0  0  0  0  0  0  0
    3.0065    0.0750    0.3497 O   0  0  0  0  0  0  0  0  0  0  0  0
    0.9705   -2.3306    0.3127 O   0  0  0  0  0  0  0  0  0  0  0  0
    1.8906   -1.5198   -1.6156 O   0  0  0  0  0  0  0  0  0  0  0  0
    0.9965    1.2900   -0.5537 C   0  0  0  0  0  0  0  0  0  0  0  0
    1.5885    0.0765    0.2675 C   0  0  0  0  0  0  0  0  0  0  0  0
    1.0558   -1.1857   -0.5213 C   0  0  0  0  0  0  0  0  0  0  0  0
   -0.2668   -0.6934   -1.0660 C   0  0  1  0  0  3  0  0  0  0  0  0
   -1.3870   -1.4566   -1.5073 C   0  0  0  0  0  3  0  0  0  0  0  0
   -1.3834   -2.5518   -1.4276 H   0  0  0  0  0  0  0  0  0  0  0  0
   -2.5211   -0.7590   -1.9939 C   0  0  0  0  0  3  0  0  0  0  0  0
   -3.4163   -1.3191   -2.2978 H   0  0  0  0  0  0  0  0  0  0  0  0
   -2.5451    0.6766   -2.0278 C   0  0  0  0  0  3  0  0  0  0  0  0
   -3.4579    1.1932   -2.3548 H   0  0  0  0  0  0  0  0  0  0  0  0
   -1.4376    1.4278   -1.5623 C   0  0  0  0  0  0  0  0  0  0  0  0
   -1.4646    2.5246   -1.5227 H   0  0  0  0  0  0  0  0  0  0  0  0
   -0.2910    0.7215   -1.0945 C   0  0  0  0  0  0  0  0  0  0  0  0
    2.0590    3.1429    0.1642 C   0  0  0  0  0  0  0  0  0  0  0  0
    2.6772    2.8673    1.0481 H   0  0  0  0  0  0  0  0  0  0  0  0
    1.8577    4.2317    0.2027 H   0  0  0  0  0  0  0  0  0  0  0  0
    2.7143    2.6746   -1.1616 C   0  0  0  0  0  0  0  0  0  0  0  0
    3.7477    2.3019   -0.9996 H   0  0  0  0  0  0  0  0  0  0  0  0
    2.7324    3.4713   -1.9349 H   0  0  0  0  0  0  0  0  0  0  0  0
    3.3740    0.0077    1.7310 C   0  0  0  0  0  0  0  0  0  0  0  0
    4.2190   -0.7015    1.8474 H   0  0  0  0  0  0  0  0  0  0  0  0
    3.6981    1.0120    2.0901 H   0  0  0  0  0  0  0  0  0  0  0  0
    2.0857   -0.4510    2.4168 C   0  0  0  0  0  0  0  0  0  0  0  0
    1.9937   -1.5586    2.4305 H   0  0  0  0  0  0  0  0  0  0  0  0
    1.9508   -0.0503    3.4397 H   0  0  0  0  0  0  0  0  0  0  0  0
    2.7364   -2.5729   -1.1642 C   0  0  0  0  0  0  0  0  0  0  0  0
    3.6129   -2.1663   -0.6129 H   0  0  0  0  0  0  0  0  0  0  0  0
    3.0820   -3.1460   -2.0464 H   0  0  0  0  0  0  0  0  0  0  0  0
    1.8018   -3.3537   -0.2398 C   0  0  0  0  0  0  0  0  0  0  0  0
    1.1851   -4.0900   -0.8039 H   0  0  0  0  0  0  0  0  0  0  0  0
    2.3232   -3.8800    0.5856 H   0  0  0  0  0  0  0  0  0  0  0  0
  2 23  1  0  0  0  0
  2  7  1  0  0  0  0
  3 29  1  0  0  0  0
  4 26  1  0  0  0  0
  6 32  1  0  0  0  0
  6  9  1  0  0  0  0
  7  1  1  0  0  0  0
  7  8  1  0  0  0  0
  8  4  1  0  0  0  0
  8  3  1  0  0  0  0
  9  8  1  0  0  0  0
  9  5  1  0  0  0  0
 10 11  1  1  0  0  0
 10  9  1  0  0  0  0
 11 12  1  0  0  0  0
 13 11  1  0  0  0  0
 14 13  1  0  0  0  0
 15 13  1  0  0  0  0
 15 17  1  0  0  0  0
 16 15  1  0  0  0  0
 17 18  1  0  0  0  0
 17 19  2  0  0  0  0
 19 10  1  0  0  0  0
 19  7  1  0  0  0  0
 20  1  1  0  0  0  0
 20 22  1  0  0  0  0
 20 21  1  0  0  0  0
 23 24  1  0  0  0  0
 23 20  1  0  0  0  0
 25 23  1  0  0  0  0
 26 27  1  0  0  0  0
 26 28  1  0  0  0  0
 26 29  1  0  0  0  0
 29 30  1  0  0  0  0
 29 31  1  0  0  0  0
 32 33  1  0  0  0  0
 32 35  1  0  0  0  0
 34 32  1  0  0  0  0
 35  5  1  0  0  0  0
 35 37  1  0  0  0  0
 36 35  1  0  0  0  0
M  END
