13,21
q = -2.0, confidence = 0.65

 42 44  0  0  0  0  0  0  0  0999 V2000
   -1.2163    0.7162    0.5652 P   0  0  2  0  0  0  0  0  0  0  0  0
   -2.8360    0.1489   -0.1096 C   0  0  0  0  0  0  0  0  0  0  0  0
   -4.0272    0.7753    0.3176 C   0  0  0  0  0  0  0  0  0  0  0  0
   -5.2740    0.3114   -0.1259 C   0  0  0  0  0  0  0  0  0  0  0  0
   -5.3446   -0.7896   -0.9951 C   0  0  0  0  0  0  0  0  0  0  0  0
   -4.1651   -1.4183   -1.4210 C   0  0  0  0  0  0  0  0  0  0  0  0
   -2.9145   -0.9519   -0.9855 C   0  0  0  0  0  0  0  0  0  0  0  0
   -1.4477    0.2738    2.3605 C   0  0  0  0  0  0  0  0  0  0  0  0
   -1.1868   -1.2398    2.4198 C   0  0  0  0  0  0  0  0  0  0  0  0
    0.0994   -1.6318    1.7289 C   0  0  0  0  0  0  0  0  0  0  0  0
    0.2264   -2.4654    0.5661 C   0  0  0  0  0  0  0  0  0  0  0  0
    1.6044   -2.7044    0.3324 C   0  0  0  0  0  0  0  0  0  0  0  0
    2.3511   -1.9764    1.3042 C   0  0  0  0  0  3  0  0  0  0  0  0
    1.4191   -1.3191    2.1655 C   0  0  0  0  0  0  0  0  0  0  0  0
   -1.2393    2.5813    0.4751 C   0  0  0  0  0  0  0  0  0  0  0  0
   -0.0531    3.0481   -0.3824 C   0  0  0  0  0  0  0  0  0  0  0  0
    1.2333    2.3624   -0.0056 C   0  0  0  0  0  0  0  0  0  0  0  0
    2.3023    2.0399   -0.8888 C   0  0  0  0  0  0  0  0  0  0  0  0
    3.3284    1.3876   -0.1434 C   0  0  0  0  0  0  0  0  0  0  0  0
    2.8919    1.2738    1.2010 C   0  0  0  0  0  0  0  0  0  0  0  0
    1.5928    1.8603    1.2908 C   0  0  0  0  0  3  0  0  0  0  0  0
   -3.9878    1.6341    1.0069 H   0  0  0  0  0  0  0  0  0  0  0  0
   -6.1948    0.8119    0.2102 H   0  0  0  0  0  0  0  0  0  0  0  0
   -6.3227   -1.1544   -1.3437 H   0  0  0  0  0  0  0  0  0  0  0  0
   -4.2135   -2.2757   -2.1091 H   0  0  0  0  0  0  0  0  0  0  0  0
   -1.9884   -1.4122   -1.3570 H   0  0  0  0  0  0  0  0  0  0  0  0
   -0.6859    0.8264    2.9485 H   0  0  0  0  0  0  0  0  0  0  0  0
   -2.4484    0.5519    2.7502 H   0  0  0  0  0  0  0  0  0  0  0  0
   -1.1576   -1.5825    3.4762 H   0  0  0  0  0  0  0  0  0  0  0  0
   -2.0306   -1.7767    1.9394 H   0  0  0  0  0  0  0  0  0  0  0  0
   -0.6092   -2.8740   -0.0153 H   0  0  0  0  0  0  0  0  0  0  0  0
    2.0270   -3.2876   -0.4913 H   0  0  0  0  0  0  0  0  0  0  0  0
    3.4444   -1.9488    1.3816 H   0  0  0  0  0  0  0  0  0  0  0  0
    1.6687   -0.7157    3.0472 H   0  0  0  0  0  0  0  0  0  0  0  0
   -2.2032    2.9388    0.0641 H   0  0  0  0  0  0  0  0  0  0  0  0
   -1.1612    2.9666    1.5129 H   0  0  0  0  0  0  0  0  0  0  0  0
   -0.2600    2.8343   -1.4507 H   0  0  0  0  0  0  0  0  0  0  0  0
    0.0656    4.1503   -0.2892 H   0  0  0  0  0  0  0  0  0  0  0  0
    2.3085    2.2150   -1.9707 H   0  0  0  0  0  0  0  0  0  0  0  0
    4.2653    0.9991   -0.5543 H   0  0  0  0  0  0  0  0  0  0  0  0
    3.4582    0.8270    2.0262 H   0  0  0  0  0  0  0  0  0  0  0  0
    1.0088    1.9695    2.2120 H   0  0  0  0  0  0  0  0  0  0  0  0
  1 15  1  1  0  0  0
  1  8  1  0  0  0  0
  2  3  1  0  0  0  0
  2  1  1  0  0  0  0
  3 22  1  0  0  0  0
  4 23  1  0  0  0  0
  4  3  2  0  0  0  0
  5  4  1  0  0  0  0
  6  5  2  0  0  0  0
  6  7  1  0  0  0  0
  7  2  2  0  0  0  0
  8  9  1  0  0  0  0
  8 28  1  0  0  0  0
  8 27  1  0  0  0  0
  9 29  1  0  0  0  0
 10 14  2  0  0  0  0
 10  9  1  0  0  0  0
 11 10  1  0  0  0  0
 12 11  2  0  0  0  0
 12 13  1  0  0  0  0
 13 33  1  0  0  0  0
 13 14  1  0  0  0  0
 14 34  1  0  0  0  0
 15 36  1  0  0  0  0
 16 38  1  0  0  0  0
 16 17  1  0  0  0  0
 16 15  1  0  0  0  0
 17 21  1  0  0  0  0
 18 19  1  0  0  0  0
 18 17  2  0  0  0  0
 19 20  2  0  0  0  0
 20 21  1  0  0  0  0
 20 41  1  0  0  0  0
 21 42  1  0  0  0  0
 24  5  1  0  0  0  0
 25  6  1  0  0  0  0
 26  7  1  0  0  0  0
 30  9  1  0  0  0  0
 31 11  1  0  0  0  0
 32 12  1  0  0  0  0
 35 15  1  0  0  0  0
 37 16  1  0  0  0  0
 39 18  1  0  0  0  0
 40 19  1  0  0  0  0
M  END
