1,5
q = -1.0, confidence = 0.01

 34 35  0  0  1  0  0  0  0  0999 V2000
   -1.8746    0.2961    0.0053 C   0  0  2  0  0  3  0  0  0  0  0  0
   -2.1793    0.8117    1.4322 C   0  0  0  0  0  0  0  0  0  0  0  0
   -1.3386    2.0334    1.8501 C   0  0  0  0  0  0  0  0  0  0  0  0
   -0.0031    2.0547    1.1189 C   0  0  0  0  0  3  0  0  0  0  0  0
    0.1768    2.4980   -0.2291 C   0  0  0  0  0  3  0  0  0  0  0  0
   -0.8367    3.1108   -1.1696 C   0  0  0  0  0  0  0  0  0  0  0  0
   -2.2974    2.6658   -1.0476 C   0  0  0  0  0  0  0  0  0  0  0  0
   -2.5174    1.1514   -1.1009 C   0  0  0  0  0  0  0  0  0  0  0  0
   -2.3671   -1.1751   -0.1359 C   0  0  0  0  0  0  0  0  0  0  0  0
   -3.8494   -1.3877    0.0990 C   0  0  0  0  0  0  0  0  0  0  0  0
   -4.3595   -1.6437    1.3899 C   0  0  0  0  0  0  0  0  0  0  0  0
   -5.7340   -1.8202    1.6087 C   0  0  0  0  0  0  0  0  0  0  0  0
   -6.6347   -1.7508    0.5341 C   0  0  0  0  0  0  0  0  0  0  0  0
   -6.1446   -1.5157   -0.7600 C   0  0  0  0  0  0  0  0  0  0  0  0
   -4.7687   -1.3397   -0.9716 C   0  0  0  0  0  0  0  0  0  0  0  0
   -3.2677    1.0151    1.5488 H   0  0  0  0  0  0  0  0  0  0  0  0
   -1.9496   -0.0146    2.1360 H   0  0  0  0  0  0  0  0  0  0  0  0
   -1.1497    1.9995    2.9412 H   0  0  0  0  0  0  0  0  0  0  0  0
   -1.8772    2.9860    1.6685 H   0  0  0  0  0  0  0  0  0  0  0  0
    0.8917    2.1039    1.7662 H   0  0  0  0  0  0  0  0  0  0  0  0
    1.2070    2.8172   -0.4821 H   0  0  0  0  0  0  0  0  0  0  0  0
   -0.4819    2.9057   -2.2040 H   0  0  0  0  0  0  0  0  0  0  0  0
   -0.7744    4.2185   -1.0537 H   0  0  0  0  0  0  0  0  0  0  0  0
   -2.8637    3.1332   -1.8808 H   0  0  0  0  0  0  0  0  0  0  0  0
   -2.7537    3.0787   -0.1259 H   0  0  0  0  0  0  0  0  0  0  0  0
   -2.1814    0.7602   -2.0871 H   0  0  0  0  0  0  0  0  0  0  0  0
   -3.6174    0.9800   -1.0655 H   0  0  0  0  0  0  0  0  0  0  0  0
   -1.7939   -1.8065    0.5720 H   0  0  0  0  0  0  0  0  0  0  0  0
   -2.1021   -1.5376   -1.1477 H   0  0  0  0  0  0  0  0  0  0  0  0
   -3.6608   -1.7173    2.2378 H   0  0  0  0  0  0  0  0  0  0  0  0
   -6.1041   -2.0216    2.6260 H   0  0  0  0  0  0  0  0  0  0  0  0
   -7.7132   -1.8920    0.7029 H   0  0  0  0  0  0  0  0  0  0  0  0
   -6.8385   -1.4768   -1.6141 H   0  0  0  0  0  0  0  0  0  0  0  0
   -4.3911   -1.1746   -1.9931 H   0  0  0  0  0  0  0  0  0  0  0  0
  1  9  1  1  0  0  0
  1  2  1  0  0  0  0
  2 16  1  0  0  0  0
  2  3  1  0  0  0  0
  2 17  1  0  0  0  0
  3 18  1  0  0  0  0
  4 20  1  0  0  0  0
  4  3  1  0  0  0  0
  5  4  1  0  0  0  0
  6 23  1  0  0  0  0
  6  7  1  0  0  0  0
  6  5  1  0  0  0  0
  7 25  1  0  0  0  0
  8 27  1  0  0  0  0
  8  7  1  0  0  0  0
  8  1  1  0  0  0  0
  9 10  1  0  0  0  0
  9 28  1  0  0  0  0
 10 11  1  0  0  0  0
 11 12  2  0  0  0  0
 11 30  1  0  0  0  0
 12 31  1  0  0  0  0
 13 32  1  0  0  0  0
 13 12  1  0  0  0  0
 14 13  2  0  0  0  0
 15 14  1  0  0  0  0
 15 10  2  0  0  0  0
 19  3  1  0  0  0  0
 21  5  1  0  0  0  0
 22  6  1  0  0  0  0
 24  7  1  0  0  0  0
 26  8  1  0  0  0  0
 29  9  1  0  0  0  0
 33 14  1  0  0  0  0
 34 15  1  0  0  0  0
M  END
