15,20
q = -1.0, confidence = 0.138

 31 30  0  0  1  0  0  0  0  0999 V2000
    2.2850   -1.2245    0.5744 S   0  0  0  0  0  0  0  0  0  0  0  0
   -3.4014    1.0950    1.2483 F   0  0  0  0  0  0  0  0  0  0  0  0
   -2.1367    2.6868    2.0545 F   0  0  0  0  0  0  0  0  0  0  0  0
   -2.9093    2.8120    0.0171 F   0  0  0  0  0  0  0  0  0  0  0  0
   -1.1108    3.2568   -2.1766 F   0  0  0  0  0  0  0  0  0  0  0  0
    1.0044    3.3211   -1.6249 F   0  0  0  0  0  0  0  0  0  0  0  0
   -0.5128    4.0954   -0.2573 F   0  0  0  0  0  0  0  0  0  0  0  0
    2.4012    0.7171   -2.3957 F   0  0  0  0  0  0  0  0  0  0  0  0
    1.0461   -0.9837   -2.4647 F   0  0  0  0  0  0  0  0  0  0  0  0
    0.3257    0.9867   -3.0140 F   0  0  0  0  0  0  0  0  0  0  0  0
    3.3667    2.0663    0.3876 F   0  0  0  0  0  0  0  0  0  0  0  0
    2.9695    1.0925    2.2966 F   0  0  0  0  0  0  0  0  0  0  0  0
    1.5611    2.5601    1.5026 F   0  0  0  0  0  0  0  0  0  0  0  0
   -2.3829    1.9559    0.9282 C   0  0  0  0  0  0  0  0  0  0  0  0
   -1.1698    1.2305    0.4301 C   0  0  0  0  0  3  0  0  0  0  0  0
   -0.3104    1.7360   -0.4959 C   0  0  0  0  0  0  0  0  0  0  0  0
   -0.2451    3.0990   -1.1364 C   0  0  0  0  0  0  0  0  0  0  0  0
    0.7209    0.6591   -0.6972 C   0  0  1  0  0  3  0  0  0  0  0  0
    1.1212    0.3523   -2.1203 C   0  0  0  0  0  0  0  0  0  0  0  0
    1.6410    0.4378    0.4285 C   0  0  2  0  0  3  0  0  0  0  0  0
    2.3739    1.5383    1.1554 C   0  0  0  0  0  0  0  0  0  0  0  0
    3.4255   -1.7659   -0.8298 C   0  0  0  0  0  0  0  0  0  0  0  0
    3.6745   -3.2490   -0.5672 C   0  0  0  0  0  0  0  0  0  0  0  0
    4.6793   -0.9028   -0.7753 C   0  0  0  0  0  0  0  0  0  0  0  0
    2.8954   -1.6355   -1.7858 H   0  0  0  0  0  0  0  0  0  0  0  0
    4.3782   -3.6452   -1.3280 H   0  0  0  0  0  0  0  0  0  0  0  0
    2.7397   -3.8414   -0.6297 H   0  0  0  0  0  0  0  0  0  0  0  0
    4.1305   -3.4165    0.4310 H   0  0  0  0  0  0  0  0  0  0  0  0
    4.4385    0.1664   -0.9224 H   0  0  0  0  0  0  0  0  0  0  0  0
    5.2045   -1.0140    0.1955 H   0  0  0  0  0  0  0  0  0  0  0  0
    5.3765   -1.2124   -1.5824 H   0  0  0  0  0  0  0  0  0  0  0  0
  4 14  1  0  0  0  0
  5 17  1  0  0  0  0
  6 17  1  0  0  0  0
  8 19  1  0  0  0  0
  9 19  1  0  0  0  0
 10 19  1  0  0  0  0
 11 21  1  0  0  0  0
 14  2  1  0  0  0  0
 14  3  1  0  0  0  0
 15 14  1  0  0  0  0
 16 15  2  0  0  0  0
 17 16  1  0  0  0  0
 17  7  1  0  0  0  0
 18 16  1  6  0  0  0
 18 20  1  0  0  0  0
 19 18  1  0  0  0  0
 20  1  1  6  0  0  0
 20 21  1  0  0  0  0
 21 13  1  0  0  0  0
 21 12  1  0  0  0  0
 22 24  1  0  0  0  0
 22 23  1  0  0  0  0
 22  1  1  0  0  0  0
 23 28  1  0  0  0  0
 24 30  1  0  0  0  0
 25 22  1  0  0  0  0
 26 23  1  0  0  0  0
 27 23  1  0  0  0  0
 29 24  1  0  0  0  0
 31 24  1  0  0  0  0
M  END
