2,18
q = -2.0, confidence = 0.85

 42 45  0  0  0  0  0  0  0  0999 V2000
   -1.3114    1.1097   -0.9786 C   0  0  0  0  0  0  0  0  0  0  0  0
   -0.2778    0.6818   -1.8957 C   0  0  0  0  0  3  0  0  0  0  0  0
   -0.6606   -0.5897   -2.4150 C   0  0  0  0  0  0  0  0  0  0  0  0
   -1.8259   -1.0369   -1.7445 C   0  0  0  0  0  0  0  0  0  0  0  0
   -2.2651    0.0209   -0.8652 C   0  0  0  0  0  0  0  0  0  0  0  0
   -3.4196    0.1323   -0.0230 C   0  0  0  0  0  0  0  0  0  0  0  0
   -3.5836    1.3403    0.6502 C   0  0  0  0  0  0  0  0  0  0  0  0
   -2.6759    2.4260    0.5020 C   0  0  0  0  0  0  0  0  0  0  0  0
   -1.5396    2.3505   -0.2992 C   0  0  0  0  0  0  0  0  0  0  0  0
   -0.6117    3.5232   -0.4732 C   0  0  0  0  0  0  0  0  0  0  0  0
    0.6121    3.5227    0.4774 C   0  0  0  0  0  0  0  0  0  0  0  0
    1.5403    2.3507    0.3008 C   0  0  0  0  0  0  0  0  0  0  0  0
    2.6747    2.4269   -0.5031 C   0  0  0  0  0  0  0  0  0  0  0  0
    3.5814    1.3411   -0.6554 C   0  0  0  0  0  0  0  0  0  0  0  0
    3.4188    0.1322    0.0167 C   0  0  0  0  0  0  0  0  0  0  0  0
    2.2668    0.0203    0.8623 C   0  0  0  0  0  0  0  0  0  0  0  0
    1.3136    1.1093    0.9794 C   0  0  0  0  0  0  0  0  0  0  0  0
    0.2823    0.6805    1.8986 C   0  0  0  0  0  3  0  0  0  0  0  0
    0.6665   -0.5913    2.4160 C   0  0  0  0  0  0  0  0  0  0  0  0
    1.8300   -1.0380    1.7422 C   0  0  0  0  0  0  0  0  0  0  0  0
   -4.4147   -0.9876    0.0554 C   0  0  0  0  0  0  0  0  0  0  0  0
    4.4131   -0.9880   -0.0663 C   0  0  0  0  0  0  0  0  0  0  0  0
    0.5962    1.2680   -2.2045 H   0  0  0  0  0  0  0  0  0  0  0  0
   -0.0870   -1.1725   -3.1441 H   0  0  0  0  0  0  0  0  0  0  0  0
   -2.3217   -2.0032   -1.8862 H   0  0  0  0  0  0  0  0  0  0  0  0
   -4.4700    1.4743    1.2898 H   0  0  0  0  0  0  0  0  0  0  0  0
   -2.8971    3.3733    1.0197 H   0  0  0  0  0  0  0  0  0  0  0  0
   -1.1789    4.4610   -0.3008 H   0  0  0  0  0  0  0  0  0  0  0  0
   -0.2454    3.5586   -1.5208 H   0  0  0  0  0  0  0  0  0  0  0  0
    1.1788    4.4611    0.3065 H   0  0  0  0  0  0  0  0  0  0  0  0
    0.2460    3.5561    1.5252 H   0  0  0  0  0  0  0  0  0  0  0  0
    2.8946    3.3748   -1.0204 H   0  0  0  0  0  0  0  0  0  0  0  0
    4.4661    1.4756   -1.2973 H   0  0  0  0  0  0  0  0  0  0  0  0
   -0.5909    1.2666    2.2101 H   0  0  0  0  0  0  0  0  0  0  0  0
    0.0947   -1.1746    3.1462 H   0  0  0  0  0  0  0  0  0  0  0  0
    2.3262   -2.0044    1.8819 H   0  0  0  0  0  0  0  0  0  0  0  0
   -3.9271   -1.9141    0.4223 H   0  0  0  0  0  0  0  0  0  0  0  0
   -4.8329   -1.2170   -0.9480 H   0  0  0  0  0  0  0  0  0  0  0  0
   -5.2547   -0.7382    0.7311 H   0  0  0  0  0  0  0  0  0  0  0  0
    3.9239   -1.9139   -0.4328 H   0  0  0  0  0  0  0  0  0  0  0  0
    4.8344   -1.2190    0.9354 H   0  0  0  0  0  0  0  0  0  0  0  0
    5.2511   -0.7382   -0.7444 H   0  0  0  0  0  0  0  0  0  0  0  0
  1  5  2  0  0  0  0
  1  9  1  0  0  0  0
  2  1  1  0  0  0  0
  3  2  1  0  0  0  0
  3  4  2  0  0  0  0
  4  5  1  0  0  0  0
  5  6  1  0  0  0  0
  6 21  1  0  0  0  0
  6  7  2  0  0  0  0
  7 26  1  0  0  0  0
  8  7  1  0  0  0  0
  8 27  1  0  0  0  0
  9  8  2  0  0  0  0
 10 28  1  0  0  0  0
 10  9  1  0  0  0  0
 10 11  1  0  0  0  0
 11 31  1  0  0  0  0
 12 11  1  0  0  0  0
 12 17  1  0  0  0  0
 13 12  2  0  0  0  0
 14 13  1  0  0  0  0
 14 15  2  0  0  0  0
 15 16  1  0  0  0  0
 16 17  2  0  0  0  0
 16 20  1  0  0  0  0
 17 18  1  0  0  0  0
 18 34  1  0  0  0  0
 18 19  1  0  0  0  0
 19 35  1  0  0  0  0
 20 36  1  0  0  0  0
 20 19  2  0  0  0  0
 21 37  1  0  0  0  0
 21 39  1  0  0  0  0
 22 15  1  0  0  0  0
 22 41  1  0  0  0  0
 23  2  1  0  0  0  0
 24  3  1  0  0  0  0
 25  4  1  0  0  0  0
 29 10  1  0  0  0  0
 30 11  1  0  0  0  0
 32 13  1  0  0  0  0
 33 14  1  0  0  0  0
 38 21  1  0  0  0  0
 40 22  1  0  0  0  0
 42 22  1  0  0  0  0
M  END
