5,29
q = -2.0, confidence = 0.51

 54 57  0  0  1  0  0  0  0  0999 V2000
    0.2487    2.7633    0.0549 N   0  0  0  0  0  0  0  0  0  0  0  0
   -1.4547    2.6642    0.5007 Si  0  0  0  0  0  0  0  0  0  0  0  0
    0.9867    1.7342   -0.1878 C   0  0  0  0  0  0  0  0  0  0  0  0
    0.5037    0.3100   -0.0119 C   0  0  1  0  0  3  0  0  0  0  0  0
   -0.9463    0.0092   -0.1507 C   0  0  0  0  0  3  0  0  0  0  0  0
   -1.9727    0.9071    0.0055 C   0  0  0  0  0  0  0  0  0  0  0  0
    2.3666    1.9707   -0.7287 C   0  0  0  0  0  0  0  0  0  0  0  0
    3.0560    3.1349   -0.3287 C   0  0  0  0  0  0  0  0  0  0  0  0
    2.5517    3.8151    0.3734 H   0  0  0  0  0  0  0  0  0  0  0  0
    4.3406    3.4052   -0.8138 C   0  0  0  0  0  0  0  0  0  0  0  0
    4.8751    4.3070   -0.4776 H   0  0  0  0  0  0  0  0  0  0  0  0
    4.9475    2.5291   -1.7306 C   0  0  0  0  0  0  0  0  0  0  0  0
    5.9580    2.7405   -2.1126 H   0  0  0  0  0  0  0  0  0  0  0  0
    4.2548    1.3880   -2.1637 C   0  0  0  0  0  0  0  0  0  0  0  0
    4.7152    0.7070   -2.8957 H   0  0  0  0  0  0  0  0  0  0  0  0
    2.9755    1.1091   -1.6631 C   0  0  0  0  0  0  0  0  0  0  0  0
    2.4366    0.2154   -2.0038 H   0  0  0  0  0  0  0  0  0  0  0  0
   -3.3961    0.5121   -0.0650 C   0  0  0  0  0  0  0  0  0  0  0  0
   -3.8095   -0.7525   -0.5535 C   0  0  0  0  0  0  0  0  0  0  0  0
   -3.0340   -1.4488   -0.8973 H   0  0  0  0  0  0  0  0  0  0  0  0
   -5.1579   -1.1218   -0.5972 C   0  0  0  0  0  0  0  0  0  0  0  0
   -5.4399   -2.1127   -0.9874 H   0  0  0  0  0  0  0  0  0  0  0  0
   -6.1521   -0.2343   -0.1497 C   0  0  0  0  0  0  0  0  0  0  0  0
   -7.2138   -0.5214   -0.1844 H   0  0  0  0  0  0  0  0  0  0  0  0
   -5.7706    1.0240    0.3418 C   0  0  0  0  0  0  0  0  0  0  0  0
   -6.5344    1.7310    0.7005 H   0  0  0  0  0  0  0  0  0  0  0  0
   -4.4182    1.3886    0.3816 C   0  0  0  0  0  0  0  0  0  0  0  0
   -4.1475    2.3785    0.7776 H   0  0  0  0  0  0  0  0  0  0  0  0
    1.3238   -0.7851    0.2274 C   0  0  0  0  0  2  0  0  0  0  0  0
    2.6786   -0.8539    0.7317 C   0  0  0  0  0  0  0  0  0  0  0  0
    3.1906    0.1290    1.6227 C   0  0  0  0  0  0  0  0  0  0  0  0
    2.5440    0.9672    1.9196 H   0  0  0  0  0  0  0  0  0  0  0  0
    4.4905    0.0364    2.1297 C   0  0  0  0  0  0  0  0  0  0  0  0
    4.8634    0.8139    2.8137 H   0  0  0  0  0  0  0  0  0  0  0  0
    5.3188   -1.0404    1.7697 C   0  0  0  0  0  0  0  0  0  0  0  0
    6.3432   -1.1086    2.1661 H   0  0  0  0  0  0  0  0  0  0  0  0
    4.8212   -2.0412    0.9175 C   0  0  0  0  0  0  0  0  0  0  0  0
    5.4555   -2.8993    0.6467 H   0  0  0  0  0  0  0  0  0  0  0  0
    3.5152   -1.9591    0.4222 C   0  0  0  0  0  0  0  0  0  0  0  0
    3.1201   -2.7569   -0.2241 H   0  0  0  0  0  0  0  0  0  0  0  0
   -0.8892    1.8298    3.1964 C   0  0  0  0  0  0  0  0  0  0  0  0
   -1.3680    0.8447    3.0210 H   0  0  0  0  0  0  0  0  0  0  0  0
   -0.9265    2.0297    4.2873 H   0  0  0  0  0  0  0  0  0  0  0  0
    0.1797    1.7237    2.9150 H   0  0  0  0  0  0  0  0  0  0  0  0
   -1.5747    2.9318    2.3797 C   0  0  0  0  0  0  0  0  0  0  0  0
   -1.1174    3.9236    2.5918 H   0  0  0  0  0  0  0  0  0  0  0  0
   -2.6461    3.0215    2.6630 H   0  0  0  0  0  0  0  0  0  0  0  0
   -2.3074    4.0623   -0.4555 C   0  0  0  0  0  0  0  0  0  0  0  0
   -3.3148    4.2658   -0.0336 H   0  0  0  0  0  0  0  0  0  0  0  0
   -1.7001    4.9722   -0.2530 H   0  0  0  0  0  0  0  0  0  0  0  0
   -2.3876    3.7917   -1.9635 C   0  0  0  0  0  0  0  0  0  0  0  0
   -1.3791    3.6026   -2.3860 H   0  0  0  0  0  0  0  0  0  0  0  0
   -2.8273    4.6454   -2.5200 H   0  0  0  0  0  0  0  0  0  0  0  0
   -3.0073    2.8967   -2.1793 H   0  0  0  0  0  0  0  0  0  0  0  0
  1  2  1  0  0  0  0
  2 45  1  0  0  0  0
  3  4  1  0  0  0  0
  3  1  2  0  0  0  0
  4 29  1  6  0  0  0
  5  4  1  0  0  0  0
  5  6  2  0  0  0  0
  6  2  1  0  0  0  0
  7  8  1  0  0  0  0
  7  3  1  0  0  0  0
  8  9  1  0  0  0  0
 10 11  1  0  0  0  0
 10  8  2  0  0  0  0
 12 10  1  0  0  0  0
 13 12  1  0  0  0  0
 14 12  2  0  0  0  0
 14 16  1  0  0  0  0
 15 14  1  0  0  0  0
 16  7  2  0  0  0  0
 17 16  1  0  0  0  0
 18  6  1  0  0  0  0
 18 27  1  0  0  0  0
 19 18  2  0  0  0  0
 20 19  1  0  0  0  0
 21 19  1  0  0  0  0
 21 23  2  0  0  0  0
 22 21  1  0  0  0  0
 23 25  1  0  0  0  0
 24 23  1  0  0  0  0
 25 27  2  0  0  0  0
 25 26  1  0  0  0  0
 27 28  1  0  0  0  0
 29 30  1  0  0  0  0
 30 31  1  0  0  0  0
 31 32  1  0  0  0  0
 31 33  2  0  0  0  0
 33 34  1  0  0  0  0
 35 33  1  0  0  0  0
 35 36  1  0  0  0  0
 37 35  2  0  0  0  0
 38 37  1  0  0  0  0
 39 30  2  0  0  0  0
 39 37  1  0  0  0  0
 40 39  1  0  0  0  0
 41 43  1  0  0  0  0
 42 41  1  0  0  0  0
 44 41  1  0  0  0  0
 45 46  1  0  0  0  0
 45 47  1  0  0  0  0
 45 41  1  0  0  0  0
 48 50  1  0  0  0  0
 48 49  1  0  0  0  0
 48  2  1  0  0  0  0
 51 48  1  0  0  0  0
 52 51  1  0  0  0  0
 53 51  1  0  0  0  0
 54 51  1  0  0  0  0
M  END
