3,5
q = -2.0, confidence = 0.51

 48 51  0  0  1  0  0  0  0  0999 V2000
   -0.4856    2.8735    0.0213 N   0  0  0  0  0  0  0  0  0  0  0  0
    1.2101    2.9276    0.5084 Si  0  0  0  0  0  0  0  0  0  0  0  0
   -1.1655   -0.7568    0.2694 C   0  0  0  0  0  3  0  0  0  0  0  0
   -0.4822    0.4085   -0.0474 C   0  0  0  0  0  0  0  0  0  0  0  0
    0.9866    0.2626   -0.2039 C   0  0  0  0  0  2  0  0  0  0  0  0
    1.9083    1.2649   -0.0574 C   0  0  2  0  0  3  0  0  0  0  0  0
   -1.1130    1.7769   -0.2386 C   0  0  0  0  0  0  0  0  0  0  0  0
    1.2436    3.1234    2.3930 C   0  0  0  0  0  0  0  0  0  0  0  0
    0.6347    4.0027    2.6883 H   0  0  0  0  0  0  0  0  0  0  0  0
    2.2712    3.2715    2.7829 H   0  0  0  0  0  0  0  0  0  0  0  0
    0.8126    2.2287    2.8867 H   0  0  0  0  0  0  0  0  0  0  0  0
    2.0228    4.4113   -0.3196 C   0  0  0  0  0  0  0  0  0  0  0  0
    1.9381    4.3310   -1.4218 H   0  0  0  0  0  0  0  0  0  0  0  0
    3.0990    4.4774   -0.0624 H   0  0  0  0  0  0  0  0  0  0  0  0
    1.5263    5.3509   -0.0028 H   0  0  0  0  0  0  0  0  0  0  0  0
   -2.5328   -0.9295    0.7223 C   0  0  0  0  0  0  0  0  0  0  0  0
   -3.3072   -2.0507    0.3272 C   0  0  0  0  0  0  0  0  0  0  0  0
   -2.8631   -2.7913   -0.3523 H   0  0  0  0  0  0  0  0  0  0  0  0
   -4.6254   -2.2111    0.7682 C   0  0  0  0  0  0  0  0  0  0  0  0
   -5.2123   -3.0782    0.4279 H   0  0  0  0  0  0  0  0  0  0  0  0
   -5.1976   -1.2772    1.6486 C   0  0  0  0  0  0  0  0  0  0  0  0
   -6.2318   -1.4080    2.0012 H   0  0  0  0  0  0  0  0  0  0  0  0
   -4.4324   -0.1836    2.0869 C   0  0  0  0  0  0  0  0  0  0  0  0
   -4.8652    0.5467    2.7878 H   0  0  0  0  0  0  0  0  0  0  0  0
   -3.1207   -0.0104    1.6327 C   0  0  0  0  0  0  0  0  0  0  0  0
   -2.5248    0.8454    1.9825 H   0  0  0  0  0  0  0  0  0  0  0  0
    3.3559    1.0408   -0.2380 C   0  0  0  0  0  0  0  0  0  0  0  0
    4.3082    1.6877    0.5887 C   0  0  0  0  0  0  0  0  0  0  0  0
    3.9603    2.3726    1.3775 H   0  0  0  0  0  0  0  0  0  0  0  0
    5.6812    1.4442    0.4456 C   0  0  0  0  0  0  0  0  0  0  0  0
    6.3966    1.9485    1.1134 H   0  0  0  0  0  0  0  0  0  0  0  0
    6.1452    0.5605   -0.5428 C   0  0  0  0  0  0  0  0  0  0  0  0
    7.2235    0.3746   -0.6600 H   0  0  0  0  0  0  0  0  0  0  0  0
    5.2186   -0.0714   -1.3897 C   0  0  0  0  0  0  0  0  0  0  0  0
    5.5722   -0.7478   -2.1839 H   0  0  0  0  0  0  0  0  0  0  0  0
    3.8469    0.1669   -1.2383 C   0  0  0  0  0  0  0  0  0  0  0  0
    3.1216   -0.3044   -1.9137 H   0  0  0  0  0  0  0  0  0  0  0  0
   -2.5099    1.8709   -0.7741 C   0  0  0  0  0  0  0  0  0  0  0  0
   -3.0317    0.9443   -1.6979 C   0  0  0  0  0  0  0  0  0  0  0  0
   -2.4015    0.1118   -2.0375 H   0  0  0  0  0  0  0  0  0  0  0  0
   -4.3366    1.0829   -2.1901 C   0  0  0  0  0  0  0  0  0  0  0  0
   -4.7290    0.3512   -2.9126 H   0  0  0  0  0  0  0  0  0  0  0  0
   -5.1414    2.1490   -1.7594 C   0  0  0  0  0  0  0  0  0  0  0  0
   -6.1715    2.2501   -2.1343 H   0  0  0  0  0  0  0  0  0  0  0  0
   -4.6231    3.0909   -0.8537 C   0  0  0  0  0  0  0  0  0  0  0  0
   -5.2467    3.9346   -0.5197 H   0  0  0  0  0  0  0  0  0  0  0  0
   -3.3144    2.9594   -0.3758 C   0  0  0  0  0  0  0  0  0  0  0  0
   -2.8800    3.6922    0.3201 H   0  0  0  0  0  0  0  0  0  0  0  0
  1  2  1  0  0  0  0
  2  8  1  0  0  0  0
  3 16  1  0  0  0  0
  4  3  2  0  0  0  0
  5  6  1  0  0  0  0
  5  4  1  0  0  0  0
  6 27  1  1  0  0  0
  6  2  1  0  0  0  0
  7  4  1  0  0  0  0
  7  1  2  0  0  0  0
  8  9  1  0  0  0  0
  8 10  1  0  0  0  0
  8 11  1  0  0  0  0
 12 14  1  0  0  0  0
 12 15  1  0  0  0  0
 12  2  1  0  0  0  0
 13 12  1  0  0  0  0
 16 25  1  0  0  0  0
 17 16  2  0  0  0  0
 17 19  1  0  0  0  0
 18 17  1  0  0  0  0
 19 21  2  0  0  0  0
 20 19  1  0  0  0  0
 21 22  1  0  0  0  0
 21 23  1  0  0  0  0
 23 24  1  0  0  0  0
 25 26  1  0  0  0  0
 25 23  2  0  0  0  0
 27 28  1  0  0  0  0
 28 29  1  0  0  0  0
 30 28  2  0  0  0  0
 30 31  1  0  0  0  0
 32 30  1  0  0  0  0
 33 32  1  0  0  0  0
 34 36  1  0  0  0  0
 34 32  2  0  0  0  0
 35 34  1  0  0  0  0
 36 27  2  0  0  0  0
 37 36  1  0  0  0  0
 38 47  1  0  0  0  0
 38  7  1  0  0  0  0
 39 38  2  0  0  0  0
 40 39  1  0  0  0  0
 41 43  2  0  0  0  0
 41 39  1  0  0  0  0
 42 41  1  0  0  0  0
 43 45  1  0  0  0  0
 44 43  1  0  0  0  0
 45 46  1  0  0  0  0
 45 47  2  0  0  0  0
 47 48  1  0  0  0  0
M  END
