6,11
q = -1

 33 35  0  0  0  0  0  0  0  0999 V2000
   -1.2549    3.9663   -0.2587 C   0  0  0  0  0  0  0  0  0  0  0  0
   -0.6730    4.8139    0.1348 H   0  0  0  0  0  0  0  0  0  0  0  0
   -2.4243    4.2062   -0.9918 C   0  0  0  0  0  0  0  0  0  0  0  0
   -2.7661    5.2376   -1.1649 H   0  0  0  0  0  0  0  0  0  0  0  0
    1.5420    2.7209    1.0502 N   0  0  0  0  0  0  0  0  0  0  0  0
   -1.5798    1.5075   -0.5291 C   0  0  0  0  0  3  0  0  0  0  0  0
   -0.8317    2.6390   -0.0434 C   0  0  0  0  0  0  0  0  0  0  0  0
    0.3858    2.1697    0.5777 C   0  0  0  0  0  0  0  0  0  0  0  0
    2.4585    1.8007    1.3672 N   0  0  0  0  0  2  0  0  0  0  0  0
    1.8538    0.6397    1.0722 N   0  0  0  0  0  0  0  0  0  0  0  0
    0.5698    0.7699    0.6049 C   0  0  0  0  0  3  0  0  0  0  0  0
   -2.7190    1.7972   -1.3066 C   0  0  0  0  0  0  0  0  0  0  0  0
   -3.2838    0.9738   -1.7681 H   0  0  0  0  0  0  0  0  0  0  0  0
   -3.1407    3.1202   -1.5267 C   0  0  0  0  0  0  0  0  0  0  0  0
   -4.0403    3.3081   -2.1343 H   0  0  0  0  0  0  0  0  0  0  0  0
    3.8486   -0.5711    0.2396 C   0  0  0  0  0  0  0  0  0  0  0  0
    1.8818    4.1232    1.2034 C   0  0  0  0  0  0  0  0  0  0  0  0
    1.1805    4.6127    1.9066 H   0  0  0  0  0  0  0  0  0  0  0  0
    1.8246    4.6308    0.2208 H   0  0  0  0  0  0  0  0  0  0  0  0
    2.9119    4.1807    1.5952 H   0  0  0  0  0  0  0  0  0  0  0  0
    2.6349   -0.5976    1.1424 C   0  0  0  0  0  0  0  0  0  0  0  0
    1.9234   -1.3834    0.8272 H   0  0  0  0  0  0  0  0  0  0  0  0
    2.9265   -0.7768    2.1962 H   0  0  0  0  0  0  0  0  0  0  0  0
    3.6818   -0.5803   -1.1601 C   0  0  0  0  0  0  0  0  0  0  0  0
    2.6644   -0.6048   -1.5916 H   0  0  0  0  0  0  0  0  0  0  0  0
    6.1005   -0.5141   -1.4481 C   0  0  0  0  0  0  0  0  0  0  0  0
    6.9805   -0.4932   -2.1092 H   0  0  0  0  0  0  0  0  0  0  0  0
    5.1441   -0.5315    0.7852 C   0  0  0  0  0  0  0  0  0  0  0  0
    5.2732   -0.5176    1.8792 H   0  0  0  0  0  0  0  0  0  0  0  0
    6.2683   -0.5065   -0.0549 C   0  0  0  0  0  0  0  0  0  0  0  0
    7.2785   -0.4778    0.3812 H   0  0  0  0  0  0  0  0  0  0  0  0
    4.8070   -0.5494   -1.9960 C   0  0  0  0  0  0  0  0  0  0  0  0
    4.6701   -0.5567   -3.0882 H   0  0  0  0  0  0  0  0  0  0  0  0
  1  7  1  0  0  0  0
  1  2  1  0  0  0  0
  3  1  2  0  0  0  0
  4  3  1  0  0  0  0
  5 17  1  0  0  0  0
  5  9  1  0  0  0  0
  6  7  2  0  0  0  0
  7  8  1  0  0  0  0
  8 11  2  0  0  0  0
  8  5  1  0  0  0  0
 10 21  1  0  0  0  0
 10  9  1  0  0  0  0
 11 10  1  0  0  0  0
 12  6  1  0  0  0  0
 13 12  1  0  0  0  0
 14 12  2  0  0  0  0
 14  3  1  0  0  0  0
 15 14  1  0  0  0  0
 16 28  1  0  0  0  0
 16 21  1  0  0  0  0
 17 20  1  0  0  0  0
 17 18  1  0  0  0  0
 19 17  1  0  0  0  0
 21 23  1  0  0  0  0
 22 21  1  0  0  0  0
 24 16  2  0  0  0  0
 25 24  1  0  0  0  0
 26 30  1  0  0  0  0
 27 26  1  0  0  0  0
 28 29  1  0  0  0  0
 30 31  1  0  0  0  0
 30 28  2  0  0  0  0
 32 26  2  0  0  0  0
 32 24  1  0  0  0  0
 33 32  1  0  0  0  0
M  END
