17,18
q = -1.0

 26 27  0  0  0  0  0  0  0  0999 V2000
    0.8610   -3.4052    0.0679 C   0  0  0  0  0  0  0  0  0  0  0  0
   -0.1822   -3.1582    0.3320 H   0  0  0  0  0  0  0  0  0  0  0  0
    1.2279   -4.1911    0.7574 H   0  0  0  0  0  0  0  0  0  0  0  0
    0.6387    2.8807   -0.7276 C   0  0  0  0  0  0  0  0  0  0  0  0
   -0.3658    3.1439   -1.0897 H   0  0  0  0  0  0  0  0  0  0  0  0
    3.3906   -1.0436    0.5014 N   0  0  0  0  0  0  0  0  0  0  0  0
    3.2687    2.2510    0.0668 C   0  0  0  0  0  0  0  0  0  0  0  0
    4.2996    2.0006    0.3610 H   0  0  0  0  0  0  0  0  0  0  0  0
    2.9595   -2.3097    0.4999 N   0  0  0  0  0  2  0  0  0  0  0  0
    1.6322   -2.1922    0.3363 N   0  0  0  0  0  0  0  0  0  0  0  0
    4.8132   -0.7906    0.6295 C   0  0  0  0  0  0  0  0  0  0  0  0
    5.3254   -1.7652    0.7066 H   0  0  0  0  0  0  0  0  0  0  0  0
    5.0159   -0.1849    1.5340 H   0  0  0  0  0  0  0  0  0  0  0  0
    5.1770   -0.2437   -0.2621 H   0  0  0  0  0  0  0  0  0  0  0  0
    1.6493    3.8576   -0.7544 C   0  0  0  0  0  0  0  0  0  0  0  0
    1.4122    4.8724   -1.1120 H   0  0  0  0  0  0  0  0  0  0  0  0
    1.1838   -0.8983    0.2519 C   0  0  0  0  0  3  0  0  0  0  0  0
    0.8910    1.5714   -0.2697 C   0  0  0  0  0  3  0  0  0  0  0  0
    2.2548    1.2717    0.0862 C   0  0  0  0  0  0  0  0  0  0  0  0
    0.9637   -3.8233   -1.3964 C   0  0  0  0  0  0  0  0  0  0  0  0
    0.3491   -4.7286   -1.5722 H   0  0  0  0  0  0  0  0  0  0  0  0
    2.0131   -4.0556   -1.6651 H   0  0  0  0  0  0  0  0  0  0  0  0
    0.5942   -3.0034   -2.0464 H   0  0  0  0  0  0  0  0  0  0  0  0
    2.9595    3.5550   -0.3412 C   0  0  0  0  0  0  0  0  0  0  0  0
    3.7413    4.3289   -0.3584 H   0  0  0  0  0  0  0  0  0  0  0  0
    2.3742   -0.1447    0.3467 C   0  0  0  0  0  0  0  0  0  0  0  0
  1  2  1  0  0  0  0
  1 10  1  0  0  0  0
  1  3  1  0  0  0  0
  4 18  1  0  0  0  0
  5  4  1  0  0  0  0
  6 11  1  0  0  0  0
  7 19  1  0  0  0  0
  7  8  1  0  0  0  0
  9  6  1  0  0  0  0
 10  9  1  0  0  0  0
 11 12  1  0  0  0  0
 11 13  1  0  0  0  0
 14 11  1  0  0  0  0
 15  4  2  0  0  0  0
 15 24  1  0  0  0  0
 16 15  1  0  0  0  0
 17 10  1  0  0  0  0
 17 26  2  0  0  0  0
 18 19  2  0  0  0  0
 19 26  1  0  0  0  0
 20  1  1  0  0  0  0
 21 20  1  0  0  0  0
 22 20  1  0  0  0  0
 23 20  1  0  0  0  0
 24  7  2  0  0  0  0
 25 24  1  0  0  0  0
 26  6  1  0  0  0  0
M  END
