1,4
q = -2.0, confidence = 0.532

 18 17  0  0  1  0  0  0  0  0999 V2000
    1.2627    1.5790    1.2730 C   0  0  0  0  0  3  0  0  0  0  0  0
    1.4405    2.8709    0.4627 C   0  0  2  0  0  0  0  0  0  0  0  0
    2.1610    2.5033   -0.8452 C   0  0  1  0  0  0  0  0  0  0  0  0
    1.3872    1.3176   -1.4277 C   0  0  0  0  0  3  0  0  0  0  0  0
    2.1185    3.9752    1.2805 C   0  0  0  0  0  0  0  0  0  0  0  0
    2.2850    3.6633   -1.8403 C   0  0  0  0  0  0  0  0  0  0  0  0
    2.1792    1.3935    1.8776 H   0  0  0  0  0  0  0  0  0  0  0  0
    0.4244    1.6693    1.9985 H   0  0  0  0  0  0  0  0  0  0  0  0
    0.4324    3.2390    0.1640 H   0  0  0  0  0  0  0  0  0  0  0  0
    3.1893    2.1609   -0.5775 H   0  0  0  0  0  0  0  0  0  0  0  0
    0.4133    1.6902   -1.8111 H   0  0  0  0  0  0  0  0  0  0  0  0
    1.9195    0.8506   -2.2839 H   0  0  0  0  0  0  0  0  0  0  0  0
    2.1682    4.9384    0.7308 H   0  0  0  0  0  0  0  0  0  0  0  0
    3.1578    3.6851    1.5485 H   0  0  0  0  0  0  0  0  0  0  0  0
    1.5722    4.1620    2.2288 H   0  0  0  0  0  0  0  0  0  0  0  0
    2.7569    3.3292   -2.7878 H   0  0  0  0  0  0  0  0  0  0  0  0
    2.8958    4.4996   -1.4404 H   0  0  0  0  0  0  0  0  0  0  0  0
    1.2806    4.0676   -2.0918 H   0  0  0  0  0  0  0  0  0  0  0  0
  1  7  1  0  0  0  0
  1  8  1  0  0  0  0
  2  9  1  6  0  0  0
  2  1  1  0  0  0  0
  2  5  1  0  0  0  0
  3 10  1  1  0  0  0
  3  2  1  0  0  0  0
  4  3  1  0  0  0  0
  5 14  1  0  0  0  0
  5 15  1  0  0  0  0
  6 17  1  0  0  0  0
  6  3  1  0  0  0  0
 11  4  1  0  0  0  0
 12  4  1  0  0  0  0
 13  5  1  0  0  0  0
 16  6  1  0  0  0  0
 18  6  1  0  0  0  0
M  END
