14,18
q = -1.0

 32 33  0  0  1  0  0  0  0  0999 V2000
    0.6233    0.8889    1.6390 C   0  0  0  0  0  0  0  0  0  0  0  0
    1.0445    1.9487   -0.4360 C   0  0  1  0  0  3  0  0  0  0  0  0
    2.7450   -0.7183   -1.0144 C   0  0  0  0  0  0  0  0  0  0  0  0
    1.9483   -0.5973   -1.7672 H   0  0  0  0  0  0  0  0  0  0  0  0
   -0.3803    1.9174    1.4419 C   0  0  0  0  0  0  0  0  0  0  0  0
   -1.5178    2.2436    2.3570 C   0  0  0  0  0  0  0  0  0  0  0  0
   -2.4842    2.0822    1.8368 H   0  0  0  0  0  0  0  0  0  0  0  0
   -1.4645    3.3019    2.6849 H   0  0  0  0  0  0  0  0  0  0  0  0
   -1.5148    1.6009    3.2564 H   0  0  0  0  0  0  0  0  0  0  0  0
    1.6618    2.3667   -1.7324 C   0  0  0  0  0  0  0  0  0  0  0  0
    0.9989    2.0953   -2.5807 H   0  0  0  0  0  0  0  0  0  0  0  0
    2.6394    1.8744   -1.8890 H   0  0  0  0  0  0  0  0  0  0  0  0
    1.8136    3.4650   -1.7442 H   0  0  0  0  0  0  0  0  0  0  0  0
    1.5010    0.8979    0.4517 C   0  0  1  0  0  3  0  0  0  0  0  0
    3.6614   -0.1714    1.1715 C   0  0  0  0  0  0  0  0  0  0  0  0
    3.6087    0.3921    2.1149 H   0  0  0  0  0  0  0  0  0  0  0  0
    2.6485   -0.0027    0.2029 C   0  0  0  0  0  0  0  0  0  0  0  0
   -0.1453    2.5589    0.1536 C   0  0  1  0  0  3  0  0  0  0  0  0
   -0.9192    3.6998   -0.4272 C   0  0  0  0  0  0  0  0  0  0  0  0
   -0.9498    3.6329   -1.5313 H   0  0  0  0  0  0  0  0  0  0  0  0
   -0.4637    4.6761   -0.1523 H   0  0  0  0  0  0  0  0  0  0  0  0
   -1.9639    3.6956   -0.0631 H   0  0  0  0  0  0  0  0  0  0  0  0
    4.8258   -1.7431   -0.2764 C   0  0  0  0  0  0  0  0  0  0  0  0
    5.6711   -2.4232   -0.4607 H   0  0  0  0  0  0  0  0  0  0  0  0
    4.7393   -1.0376    0.9338 C   0  0  0  0  0  0  0  0  0  0  0  0
    5.5206   -1.1586    1.6996 H   0  0  0  0  0  0  0  0  0  0  0  0
    3.8275   -1.5761   -1.2511 C   0  0  0  0  0  0  0  0  0  0  0  0
    3.8885   -2.1258   -2.2029 H   0  0  0  0  0  0  0  0  0  0  0  0
    0.8061    0.0630    2.8733 C   0  0  0  0  0  0  0  0  0  0  0  0
   -0.1659   -0.1902    3.3388 H   0  0  0  0  0  0  0  0  0  0  0  0
    1.4040    0.6168    3.6293 H   0  0  0  0  0  0  0  0  0  0  0  0
    1.3438   -0.8780    2.6547 H   0  0  0  0  0  0  0  0  0  0  0  0
  1 29  1  0  0  0  0
  2 10  1  1  0  0  0
  2 18  1  0  0  0  0
  2 14  1  0  0  0  0
  3 17  1  0  0  0  0
  4  3  1  0  0  0  0
  5  1  2  0  0  0  0
  5  6  1  0  0  0  0
  6  8  1  0  0  0  0
  6  9  1  0  0  0  0
  7  6  1  0  0  0  0
 11 10  1  0  0  0  0
 12 10  1  0  0  0  0
 13 10  1  0  0  0  0
 14 17  1  1  0  0  0
 14  1  1  0  0  0  0
 15 16  1  0  0  0  0
 17 15  2  0  0  0  0
 18 19  1  1  0  0  0
 18  5  1  0  0  0  0
 19 21  1  0  0  0  0
 19 22  1  0  0  0  0
 20 19  1  0  0  0  0
 23 25  2  0  0  0  0
 24 23  1  0  0  0  0
 25 15  1  0  0  0  0
 25 26  1  0  0  0  0
 27  3  2  0  0  0  0
 27 23  1  0  0  0  0
 28 27  1  0  0  0  0
 29 30  1  0  0  0  0
 29 31  1  0  0  0  0
 32 29  1  0  0  0  0
M  END
