11,16
q = -1.0, confidence = 0.04

 54 60  0  0  0  0  0  0  0  0999 V2000
   -3.1384   -1.0488   -2.7575 N   0  0  0  0  0  0  0  0  0  0  0  0
   -1.1523   -1.5622   -2.0551 N   0  0  0  0  0  0  0  0  0  0  0  0
   -4.4739   -0.4760   -2.8425 C   0  0  0  0  0  0  0  0  0  0  0  0
   -4.4396    0.5495   -2.4234 H   0  0  0  0  0  0  0  0  0  0  0  0
   -5.2027   -1.0924   -2.2787 H   0  0  0  0  0  0  0  0  0  0  0  0
   -4.7801   -0.4340   -3.9041 H   0  0  0  0  0  0  0  0  0  0  0  0
   -2.5811   -1.9003   -3.7043 C   0  0  0  0  0  0  0  0  0  0  0  0
   -3.1159   -2.1895   -4.6134 H   0  0  0  0  0  0  0  0  0  0  0  0
   -1.3237   -2.2215   -3.2619 C   0  0  0  0  0  0  0  0  0  0  0  0
   -0.5438   -2.8473   -3.7052 H   0  0  0  0  0  0  0  0  0  0  0  0
   -2.2620   -0.8330   -1.7216 C   0  0  0  0  0  2  0  0  0  0  0  0
    0.0307   -1.6157   -1.1966 C   0  0  0  0  0  0  0  0  0  0  0  0
    0.8372   -2.1252   -1.7567 H   0  0  0  0  0  0  0  0  0  0  0  0
   -0.2143   -2.2477   -0.3156 H   0  0  0  0  0  0  0  0  0  0  0  0
    0.4691   -0.2432   -0.7433 C   0  0  0  0  0  0  0  0  0  0  0  0
   -0.5054    0.6989   -0.2868 C   0  0  0  0  0  3  0  0  0  0  0  0
   -0.0321    1.9691    0.0605 C   0  0  0  0  0  0  0  0  0  0  0  0
   -0.7536    2.7638    0.3084 H   0  0  0  0  0  0  0  0  0  0  0  0
    1.3506    2.2995    0.0643 C   0  0  0  0  0  0  0  0  0  0  0  0
    1.7883    3.6371    0.3433 C   0  0  0  0  0  0  0  0  0  0  0  0
    1.0324    4.3921    0.6100 H   0  0  0  0  0  0  0  0  0  0  0  0
    3.1100    3.9853    0.2000 C   0  0  0  0  0  0  0  0  0  0  0  0
    3.4315    5.0315    0.3224 H   0  0  0  0  0  0  0  0  0  0  0  0
    4.1081    3.0041   -0.1201 C   0  0  0  0  0  0  0  0  0  0  0  0
    5.4496    3.4081   -0.4051 C   0  0  0  0  0  0  0  0  0  0  0  0
    5.7004    4.4785   -0.3442 H   0  0  0  0  0  0  0  0  0  0  0  0
    6.3788    2.4906   -0.8431 C   0  0  0  0  0  0  0  0  0  0  0  0
    7.3753    2.8120   -1.1830 H   0  0  0  0  0  0  0  0  0  0  0  0
    6.0797    1.0927   -0.8296 C   0  0  0  0  0  0  0  0  0  0  0  0
    7.0283    0.1424   -1.3218 C   0  0  0  0  0  0  0  0  0  0  0  0
    7.9713    0.5172   -1.7492 H   0  0  0  0  0  0  0  0  0  0  0  0
    6.7458   -1.2052   -1.3097 C   0  0  0  0  0  0  0  0  0  0  0  0
    7.4345   -1.9324   -1.7668 H   0  0  0  0  0  0  0  0  0  0  0  0
    5.5958   -1.6924   -0.6130 C   0  0  0  0  0  0  0  0  0  0  0  0
    5.3614   -3.1047   -0.5018 C   0  0  0  0  0  0  0  0  0  0  0  0
    6.0249   -3.7852   -1.0581 H   0  0  0  0  0  0  0  0  0  0  0  0
    4.3421   -3.6008    0.2743 C   0  0  0  0  0  0  0  0  0  0  0  0
    4.1520   -4.6838    0.3319 H   0  0  0  0  0  0  0  0  0  0  0  0
    3.5734   -2.7193    1.1052 C   0  0  0  0  0  0  0  0  0  0  0  0
    2.6515   -3.2356    2.0589 C   0  0  0  0  0  0  0  0  0  0  0  0
    2.4799   -4.3233    2.0861 H   0  0  0  0  0  0  0  0  0  0  0  0
    2.0202   -2.3994    2.9714 C   0  0  0  0  0  0  0  0  0  0  0  0
    1.3276   -2.8144    3.7195 H   0  0  0  0  0  0  0  0  0  0  0  0
    2.3152   -1.0144    2.9646 C   0  0  0  0  0  0  0  0  0  0  0  0
    1.8764   -0.3550    3.7279 H   0  0  0  0  0  0  0  0  0  0  0  0
    3.1698   -0.4800    2.0072 C   0  0  0  0  0  0  0  0  0  0  0  0
    3.3897    0.5947    2.0227 H   0  0  0  0  0  0  0  0  0  0  0  0
    3.7927   -1.2991    1.0248 C   0  0  0  0  0  0  0  0  0  0  0  0
    4.6973   -0.7697    0.0109 C   0  0  0  0  0  0  0  0  0  0  0  0
    4.8102    0.6395   -0.3283 C   0  0  0  0  0  0  0  0  0  0  0  0
    3.7447    1.6217   -0.2118 C   0  0  0  0  0  0  0  0  0  0  0  0
    2.3272    1.3005   -0.2774 C   0  0  0  0  0  0  0  0  0  0  0  0
    1.8286    0.0568   -0.7431 C   0  0  0  0  0  0  0  0  0  0  0  0
    2.5350   -0.6919   -1.1264 H   0  0  0  0  0  0  0  0  0  0  0  0
  1 11  1  0  0  0  0
  2 11  1  0  0  0  0
  2 12  1  0  0  0  0
  3  1  1  0  0  0  0
  3  4  1  0  0  0  0
  3  5  1  0  0  0  0
  6  3  1  0  0  0  0
  7  9  2  0  0  0  0
  7  1  1  0  0  0  0
  8  7  1  0  0  0  0
  9  2  1  0  0  0  0
 10  9  1  0  0  0  0
 12 15  1  0  0  0  0
 12 14  1  0  0  0  0
 13 12  1  0  0  0  0
 15 53  2  0  0  0  0
 15 16  1  0  0  0  0
 16 17  2  0  0  0  0
 17 19  1  0  0  0  0
 17 18  1  0  0  0  0
 19 20  1  0  0  0  0
 20 21  1  0  0  0  0
 22 23  1  0  0  0  0
 22 20  2  0  0  0  0
 24 22  1  0  0  0  0
 25 26  1  0  0  0  0
 25 24  2  0  0  0  0
 27 29  2  0  0  0  0
 27 25  1  0  0  0  0
 28 27  1  0  0  0  0
 29 50  1  0  0  0  0
 30 32  2  0  0  0  0
 30 29  1  0  0  0  0
 31 30  1  0  0  0  0
 32 34  1  0  0  0  0
 33 32  1  0  0  0  0
 34 35  2  0  0  0  0
 34 49  1  0  0  0  0
 35 37  1  0  0  0  0
 36 35  1  0  0  0  0
 37 38  1  0  0  0  0
 37 39  2  0  0  0  0
 39 40  1  0  0  0  0
 40 41  1  0  0  0  0
 40 42  2  0  0  0  0
 42 43  1  0  0  0  0
 44 42  1  0  0  0  0
 44 45  1  0  0  0  0
 46 47  1  0  0  0  0
 46 44  2  0  0  0  0
 48 39  1  0  0  0  0
 48 46  1  0  0  0  0
 49 48  2  0  0  0  0
 50 51  2  0  0  0  0
 50 49  1  0  0  0  0
 51 24  1  0  0  0  0
 52 51  1  0  0  0  0
 52 19  2  0  0  0  0
 53 52  1  0  0  0  0
 54 53  1  0  0  0  0
M  END
