1,11
q = -2.0, confidence = 0.78

 39 42  0  0  1  0  0  0  0  0999 V2000
    4.4317   -1.3814   -1.1841 C   0  0  2  0  0  3  0  0  0  0  0  0
    4.2382   -0.6122   -2.3839 C   0  0  0  0  0  0  0  0  0  0  0  0
    3.0407   -1.0076   -3.0360 C   0  0  0  0  0  0  0  0  0  0  0  0
    2.4543   -2.0726   -2.2797 C   0  0  0  0  0  0  0  0  0  0  0  0
    1.2821   -2.8612   -2.4808 C   0  0  0  0  0  0  0  0  0  0  0  0
    0.9923   -3.8639   -1.5713 C   0  0  0  0  0  0  0  0  0  0  0  0
    1.8450   -4.1198   -0.4528 C   0  0  0  0  0  0  0  0  0  0  0  0
    2.9798   -3.3625   -0.2168 C   0  0  0  0  0  0  0  0  0  0  0  0
    3.3119   -2.3077   -1.1226 C   0  0  0  0  0  0  0  0  0  0  0  0
    4.2346    0.3747    0.9579 C   0  0  2  0  0  3  0  0  0  0  0  0
    3.0663   -0.1178    1.6409 C   0  0  0  0  0  3  0  0  0  0  0  0
    2.0489    0.8771    1.6591 C   0  0  0  0  0  3  0  0  0  0  0  0
    2.5828    2.0555    1.0477 C   0  0  0  0  0  0  0  0  0  0  0  0
    2.0483    3.3671    0.8908 C   0  0  0  0  0  0  0  0  0  0  0  0
    2.8322    4.3275    0.2682 C   0  0  0  0  0  0  0  0  0  0  0  0
    4.1435    4.0228   -0.2154 C   0  0  0  0  0  0  0  0  0  0  0  0
    4.6911    2.7570   -0.0747 C   0  0  0  0  0  0  0  0  0  0  0  0
    3.9272    1.7405    0.5780 C   0  0  0  0  0  0  0  0  0  0  0  0
    5.9660   -2.1548    1.4766 C   0  0  0  0  0  0  0  0  0  0  0  0
    7.0710    0.0522   -0.4107 C   0  0  0  0  0  0  0  0  0  0  0  0
    5.5277   -0.8024    0.2451 Si  0  0  0  0  0  0  0  0  0  0  0  0
    4.9048    0.1869   -2.7336 H   0  0  0  0  0  0  0  0  0  0  0  0
    2.6626   -0.6103   -3.9839 H   0  0  0  0  0  0  0  0  0  0  0  0
    0.6312   -2.6768   -3.3476 H   0  0  0  0  0  0  0  0  0  0  0  0
    0.0829   -4.4678   -1.7033 H   0  0  0  0  0  0  0  0  0  0  0  0
    1.5853   -4.9338    0.2396 H   0  0  0  0  0  0  0  0  0  0  0  0
    3.6266   -3.5775    0.6441 H   0  0  0  0  0  0  0  0  0  0  0  0
    2.9574   -1.1267    2.0579 H   0  0  0  0  0  0  0  0  0  0  0  0
    1.0580    0.7986    2.1190 H   0  0  0  0  0  0  0  0  0  0  0  0
    1.0515    3.6098    1.2853 H   0  0  0  0  0  0  0  0  0  0  0  0
    2.4442    5.3504    0.1507 H   0  0  0  0  0  0  0  0  0  0  0  0
    4.7308    4.8180   -0.6982 H   0  0  0  0  0  0  0  0  0  0  0  0
    5.7110    2.5458   -0.4248 H   0  0  0  0  0  0  0  0  0  0  0  0
    5.0772   -2.5391    2.0136 H   0  0  0  0  0  0  0  0  0  0  0  0
    6.6669   -1.7531    2.2366 H   0  0  0  0  0  0  0  0  0  0  0  0
    6.4604   -3.0076    0.9686 H   0  0  0  0  0  0  0  0  0  0  0  0
    7.7863   -0.7064   -0.7889 H   0  0  0  0  0  0  0  0  0  0  0  0
    7.5740    0.6255    0.3943 H   0  0  0  0  0  0  0  0  0  0  0  0
    6.8495    0.7487   -1.2427 H   0  0  0  0  0  0  0  0  0  0  0  0
  1  9  1  0  0  0  0
  1 21  1  1  0  0  0
  2  1  1  0  0  0  0
  3  2  2  0  0  0  0
  3  4  1  0  0  0  0
  4  9  1  0  0  0  0
  5  4  2  0  0  0  0
  5  6  1  0  0  0  0
  6  7  2  0  0  0  0
  7  8  1  0  0  0  0
  7 26  1  0  0  0  0
  8 27  1  0  0  0  0
  9  8  2  0  0  0  0
 10 21  1  6  0  0  0
 10 11  1  0  0  0  0
 11 12  1  0  0  0  0
 11 28  1  0  0  0  0
 12 29  1  0  0  0  0
 13 12  1  0  0  0  0
 14 13  1  0  0  0  0
 14 30  1  0  0  0  0
 15 14  2  0  0  0  0
 16 17  2  0  0  0  0
 16 15  1  0  0  0  0
 17 18  1  0  0  0  0
 18 10  1  0  0  0  0
 18 13  2  0  0  0  0
 19 34  1  0  0  0  0
 19 35  1  0  0  0  0
 20 21  1  0  0  0  0
 20 38  1  0  0  0  0
 21 19  1  0  0  0  0
 22  2  1  0  0  0  0
 23  3  1  0  0  0  0
 24  5  1  0  0  0  0
 25  6  1  0  0  0  0
 31 15  1  0  0  0  0
 32 16  1  0  0  0  0
 33 17  1  0  0  0  0
 36 19  1  0  0  0  0
 37 20  1  0  0  0  0
 39 20  1  0  0  0  0
M  END
