1,31
q = -2.0, confidence = 0.934

 72 75  0  0  1  0  0  0  0  0999 V2000
   -1.4324   -1.6615   -0.6422 C   0  0  2  0  0  3  0  0  0  0  0  0
    2.1118    0.6567    1.3458 C   0  0  0  0  0  0  0  0  0  0  0  0
    2.4274    0.9508   -0.0349 C   0  0  1  0  0  3  0  0  0  0  0  0
    1.7861   -1.3303    0.1183 C   0  0  2  0  0  3  0  0  0  0  0  0
    1.7122   -0.7377    1.4473 C   0  0  0  0  0  0  0  0  0  0  0  0
   -1.6332   -1.5201    0.7892 C   0  0  0  0  0  0  0  0  0  0  0  0
   -2.1176   -0.5496   -1.2314 C   0  0  0  0  0  0  0  0  0  0  0  0
   -2.1892   -0.3794   -2.3130 H   0  0  0  0  0  0  0  0  0  0  0  0
    1.4194   -1.2861    2.7303 C   0  0  0  0  0  0  0  0  0  0  0  0
    1.1738   -2.3493    2.8318 H   0  0  0  0  0  0  0  0  0  0  0  0
   -2.3279   -0.2696    1.0352 C   0  0  0  0  0  0  0  0  0  0  0  0
   -2.6123    0.3576   -0.2457 C   0  0  0  0  0  0  0  0  0  0  0  0
    2.1541    1.4718    2.5144 C   0  0  0  0  0  0  0  0  0  0  0  0
    2.4310    2.5320    2.4343 H   0  0  0  0  0  0  0  0  0  0  0  0
    1.8468    0.9069    3.7412 C   0  0  0  0  0  0  0  0  0  0  0  0
    1.8841    1.5244    4.6512 H   0  0  0  0  0  0  0  0  0  0  0  0
   -1.3670   -2.4086    1.8691 C   0  0  0  0  0  0  0  0  0  0  0  0
   -0.9014   -3.3854    1.6734 H   0  0  0  0  0  0  0  0  0  0  0  0
    1.4903   -0.4698    3.8490 C   0  0  0  0  0  0  0  0  0  0  0  0
    1.2767   -0.8928    4.8422 H   0  0  0  0  0  0  0  0  0  0  0  0
   -2.6350    0.1042    2.3770 C   0  0  0  0  0  0  0  0  0  0  0  0
   -3.1173    1.0672    2.5832 H   0  0  0  0  0  0  0  0  0  0  0  0
   -1.7407   -2.0423    3.1533 C   0  0  0  0  0  0  0  0  0  0  0  0
   -1.5595   -2.7311    3.9925 H   0  0  0  0  0  0  0  0  0  0  0  0
   -2.3474   -0.7791    3.4079 C   0  0  0  0  0  0  0  0  0  0  0  0
   -2.6056   -0.5069    4.4423 H   0  0  0  0  0  0  0  0  0  0  0  0
    1.5698   -3.1152   -0.4951 Si  0  0  0  0  0  0  0  0  0  0  0  0
   -0.5652   -3.1013   -1.5071 Si  0  0  0  0  0  0  0  0  0  0  0  0
    3.2169    2.5140   -0.7668 Si  0  0  0  0  0  0  0  0  0  0  0  0
   -3.7005    1.8632   -0.6545 Si  0  0  0  0  0  0  0  0  0  0  0  0
    2.2774   -0.2878   -0.7316 C   0  0  0  0  0  3  0  0  0  0  0  0
    2.4715   -0.4096   -1.8048 H   0  0  0  0  0  0  0  0  0  0  0  0
    2.9095   -3.4234   -1.8059 C   0  0  0  0  0  0  0  0  0  0  0  0
    3.9230   -3.2865   -1.3753 H   0  0  0  0  0  0  0  0  0  0  0  0
    2.8361   -4.4590   -2.1973 H   0  0  0  0  0  0  0  0  0  0  0  0
    2.8038   -2.7325   -2.6662 H   0  0  0  0  0  0  0  0  0  0  0  0
    1.8202   -4.3797    0.9002 C   0  0  0  0  0  0  0  0  0  0  0  0
    2.7955   -4.2120    1.4021 H   0  0  0  0  0  0  0  0  0  0  0  0
    1.0283   -4.3503    1.6735 H   0  0  0  0  0  0  0  0  0  0  0  0
    1.8281   -5.4020    0.4694 H   0  0  0  0  0  0  0  0  0  0  0  0
   -1.5710   -4.6985   -1.3075 C   0  0  0  0  0  0  0  0  0  0  0  0
   -2.5726   -4.5859   -1.7720 H   0  0  0  0  0  0  0  0  0  0  0  0
   -1.0568   -5.5513   -1.7965 H   0  0  0  0  0  0  0  0  0  0  0  0
   -1.7186   -4.9542   -0.2391 H   0  0  0  0  0  0  0  0  0  0  0  0
   -0.3907   -2.6552   -3.3410 C   0  0  0  0  0  0  0  0  0  0  0  0
   -1.3883   -2.5709   -3.8204 H   0  0  0  0  0  0  0  0  0  0  0  0
    0.1282   -1.6828   -3.4638 H   0  0  0  0  0  0  0  0  0  0  0  0
    0.1847   -3.4313   -3.8849 H   0  0  0  0  0  0  0  0  0  0  0  0
    2.0769    4.0165   -0.7301 C   0  0  0  0  0  0  0  0  0  0  0  0
    1.1822    3.8353   -1.3580 H   0  0  0  0  0  0  0  0  0  0  0  0
    1.7256    4.2429    0.2955 H   0  0  0  0  0  0  0  0  0  0  0  0
    2.6134    4.9044   -1.1246 H   0  0  0  0  0  0  0  0  0  0  0  0
    4.7767    2.8705    0.2530 C   0  0  0  0  0  0  0  0  0  0  0  0
    5.3214    3.7417   -0.1667 H   0  0  0  0  0  0  0  0  0  0  0  0
    4.5374    3.0998    1.3110 H   0  0  0  0  0  0  0  0  0  0  0  0
    5.4632    1.9994    0.2437 H   0  0  0  0  0  0  0  0  0  0  0  0
    3.7117    2.1158   -2.5473 C   0  0  0  0  0  0  0  0  0  0  0  0
    2.8163    1.8704   -3.1528 H   0  0  0  0  0  0  0  0  0  0  0  0
    4.2126    2.9902   -3.0113 H   0  0  0  0  0  0  0  0  0  0  0  0
    4.4145    1.2587   -2.5932 H   0  0  0  0  0  0  0  0  0  0  0  0
   -2.8329    3.0602   -1.8263 C   0  0  0  0  0  0  0  0  0  0  0  0
   -1.9493    3.5116   -1.3336 H   0  0  0  0  0  0  0  0  0  0  0  0
   -2.4843    2.5566   -2.7490 H   0  0  0  0  0  0  0  0  0  0  0  0
   -3.5336    3.8718   -2.1129 H   0  0  0  0  0  0  0  0  0  0  0  0
   -4.2449    2.7896    0.9010 C   0  0  0  0  0  0  0  0  0  0  0  0
   -3.3676    3.1656    1.4639 H   0  0  0  0  0  0  0  0  0  0  0  0
   -4.8607    3.6634    0.6025 H   0  0  0  0  0  0  0  0  0  0  0  0
   -4.8626    2.1591    1.5718 H   0  0  0  0  0  0  0  0  0  0  0  0
   -5.2321    1.1490   -1.5180 C   0  0  0  0  0  0  0  0  0  0  0  0
   -4.9505    0.6065   -2.4440 H   0  0  0  0  0  0  0  0  0  0  0  0
   -5.7677    0.4366   -0.8576 H   0  0  0  0  0  0  0  0  0  0  0  0
   -5.9399    1.9562   -1.7998 H   0  0  0  0  0  0  0  0  0  0  0  0
  1 28  1  6  0  0  0
  1  6  1  0  0  0  0
  2  5  2  0  0  0  0
  2 13  1  0  0  0  0
  3 29  1  1  0  0  0
  3  2  1  0  0  0  0
  4 27  1  1  0  0  0
  4  5  1  0  0  0  0
  5  9  1  0  0  0  0
  6 11  2  0  0  0  0
  6 17  1  0  0  0  0
  7  1  1  0  0  0  0
  7 12  2  0  0  0  0
  8  7  1  0  0  0  0
  9 10  1  0  0  0  0
  9 19  2  0  0  0  0
 11 21  1  0  0  0  0
 12 11  1  0  0  0  0
 13 15  2  0  0  0  0
 14 13  1  0  0  0  0
 15 19  1  0  0  0  0
 15 16  1  0  0  0  0
 17 23  2  0  0  0  0
 18 17  1  0  0  0  0
 19 20  1  0  0  0  0
 21 22  1  0  0  0  0
 21 25  2  0  0  0  0
 23 25  1  0  0  0  0
 23 24  1  0  0  0  0
 25 26  1  0  0  0  0
 27 37  1  0  0  0  0
 28 41  1  0  0  0  0
 28 27  1  0  0  0  0
 29 49  1  0  0  0  0
 29 53  1  0  0  0  0
 30 12  1  0  0  0  0
 30 65  1  0  0  0  0
 31  3  1  0  0  0  0
 31  4  1  0  0  0  0
 32 31  1  0  0  0  0
 33 34  1  0  0  0  0
 33 27  1  0  0  0  0
 35 33  1  0  0  0  0
 36 33  1  0  0  0  0
 37 38  1  0  0  0  0
 37 39  1  0  0  0  0
 40 37  1  0  0  0  0
 41 44  1  0  0  0  0
 42 41  1  0  0  0  0
 43 41  1  0  0  0  0
 45 28  1  0  0  0  0
 46 45  1  0  0  0  0
 47 45  1  0  0  0  0
 48 45  1  0  0  0  0
 49 51  1  0  0  0  0
 50 49  1  0  0  0  0
 52 49  1  0  0  0  0
 53 55  1  0  0  0  0
 54 53  1  0  0  0  0
 56 53  1  0  0  0  0
 57 29  1  0  0  0  0
 58 57  1  0  0  0  0
 59 57  1  0  0  0  0
 60 57  1  0  0  0  0
 61 62  1  0  0  0  0
 61 30  1  0  0  0  0
 63 61  1  0  0  0  0
 64 61  1  0  0  0  0
 65 66  1  0  0  0  0
 65 68  1  0  0  0  0
 67 65  1  0  0  0  0
 69 71  1  0  0  0  0
 69 30  1  0  0  0  0
 70 69  1  0  0  0  0
 72 69  1  0  0  0  0
M  END
