1,6
q = -1.0

 30 32  0  0  0  0  0  0  0  0999 V2000
    1.2508    3.0591   -0.2163 C   0  0  0  0  0  3  0  0  0  0  0  0
   -0.9290    3.8536   -0.5272 N   0  0  0  0  0  0  0  0  0  0  0  0
    0.8942    5.5237   -0.2000 C   0  0  0  0  0  0  0  0  0  0  0  0
    0.1967    6.3696   -0.2816 H   0  0  0  0  0  0  0  0  0  0  0  0
   -2.5424    2.4756   -0.8371 N   0  0  0  0  0  0  0  0  0  0  0  0
   -1.1901    2.5150   -0.6118 C   0  0  0  0  0  2  0  0  0  0  0  0
   -2.9989    3.7838   -0.8625 C   0  0  0  0  0  0  0  0  0  0  0  0
   -4.0495    4.0525   -1.0208 H   0  0  0  0  0  0  0  0  0  0  0  0
    2.2717    5.7062    0.0127 C   0  0  0  0  0  0  0  0  0  0  0  0
    2.6787    6.7243    0.1034 H   0  0  0  0  0  0  0  0  0  0  0  0
   -3.6927    1.4047    1.5819 C   0  0  0  0  0  0  0  0  0  0  0  0
   -3.0685    2.3096    1.6233 H   0  0  0  0  0  0  0  0  0  0  0  0
    3.1246    4.5928    0.1061 C   0  0  0  0  0  0  0  0  0  0  0  0
    4.2028    4.7473    0.2687 H   0  0  0  0  0  0  0  0  0  0  0  0
   -3.3324    1.2573   -0.9550 C   0  0  0  0  0  0  0  0  0  0  0  0
   -2.6579    0.4753   -1.3578 H   0  0  0  0  0  0  0  0  0  0  0  0
   -4.1374    1.4413   -1.6958 H   0  0  0  0  0  0  0  0  0  0  0  0
   -3.9177    0.7591    0.3538 C   0  0  0  0  0  0  0  0  0  0  0  0
    0.4255    4.2129   -0.3088 C   0  0  0  0  0  0  0  0  0  0  0  0
   -2.0205    4.6465   -0.6798 N   0  0  0  0  0  0  0  0  0  0  0  0
    2.6229    3.2810   -0.0075 C   0  0  0  0  0  0  0  0  0  0  0  0
    3.3014    2.4164    0.0593 H   0  0  0  0  0  0  0  0  0  0  0  0
   -4.2478    0.8912    2.7660 C   0  0  0  0  0  0  0  0  0  0  0  0
   -4.0599    1.4057    3.7205 H   0  0  0  0  0  0  0  0  0  0  0  0
   -5.0280   -0.2734    2.7345 C   0  0  0  0  0  0  0  0  0  0  0  0
   -5.4593   -0.6763    3.6632 H   0  0  0  0  0  0  0  0  0  0  0  0
   -4.6924   -0.4176    0.3306 C   0  0  0  0  0  0  0  0  0  0  0  0
   -4.8475   -0.9508   -0.6207 H   0  0  0  0  0  0  0  0  0  0  0  0
   -5.2451   -0.9293    1.5113 C   0  0  0  0  0  0  0  0  0  0  0  0
   -5.8386   -1.8552    1.4762 H   0  0  0  0  0  0  0  0  0  0  0  0
  1 21  1  0  0  0  0
  2 19  1  0  0  0  0
  3  9  2  0  0  0  0
  4  3  1  0  0  0  0
  5  6  1  0  0  0  0
  6  2  1  0  0  0  0
  7  5  1  0  0  0  0
  7 20  2  0  0  0  0
  8  7  1  0  0  0  0
  9 10  1  0  0  0  0
  9 13  1  0  0  0  0
 11 12  1  0  0  0  0
 11 23  1  0  0  0  0
 13 14  1  0  0  0  0
 15  5  1  0  0  0  0
 15 18  1  0  0  0  0
 16 15  1  0  0  0  0
 17 15  1  0  0  0  0
 18 11  2  0  0  0  0
 19  1  2  0  0  0  0
 19  3  1  0  0  0  0
 20  2  1  0  0  0  0
 21 22  1  0  0  0  0
 21 13  2  0  0  0  0
 23 24  1  0  0  0  0
 25 23  2  0  0  0  0
 25 26  1  0  0  0  0
 27 18  1  0  0  0  0
 27 29  2  0  0  0  0
 28 27  1  0  0  0  0
 29 25  1  0  0  0  0
 30 29  1  0  0  0  0
M  END
