2,26
q = 0.0, confidence = 0.988

 38 40  0  0  0  0  0  0  0  0999 V2000
    0.1523    2.1397    1.8333 N   0  0  0  0  0  0  0  0  0  0  0  0
    0.0176    1.4408    0.6630 C   0  0  0  0  0  2  0  0  0  0  0  0
   -1.1504    1.9089    0.1223 N   0  0  0  0  0  0  0  0  0  0  0  0
   -0.9101    3.0192    2.0194 C   0  0  0  0  0  0  0  0  0  0  0  0
   -0.9831    3.6758    2.8916 H   0  0  0  0  0  0  0  0  0  0  0  0
   -1.1635   -1.8726    0.3841 N   0  0  0  0  0  0  0  0  0  0  0  0
   -1.7348    2.8714    0.9383 C   0  0  0  0  0  0  0  0  0  0  0  0
   -2.6756    3.3676    0.6851 H   0  0  0  0  0  0  0  0  0  0  0  0
    0.1810   -1.9206    2.0780 N   0  0  0  0  0  0  0  0  0  0  0  0
   -1.7059    1.4594   -1.1606 C   0  0  0  0  0  0  0  0  0  0  0  0
   -0.8932    0.8829   -1.6435 H   0  0  0  0  0  0  0  0  0  0  0  0
   -1.8951    2.3588   -1.7802 H   0  0  0  0  0  0  0  0  0  0  0  0
   -2.9848    0.6569   -1.0255 C   0  0  0  0  0  0  0  0  0  0  0  0
   -4.2120    1.3504   -1.0207 C   0  0  0  0  0  0  0  0  0  0  0  0
   -4.2104    2.4446   -1.1490 H   0  0  0  0  0  0  0  0  0  0  0  0
   -5.4336    0.6787   -0.8822 C   0  0  0  0  0  0  0  0  0  0  0  0
   -6.3767    1.2447   -0.8822 H   0  0  0  0  0  0  0  0  0  0  0  0
   -5.4445   -0.7187   -0.7710 C   0  0  0  0  0  0  0  0  0  0  0  0
   -6.3962   -1.2628   -0.6824 H   0  0  0  0  0  0  0  0  0  0  0  0
   -4.2337   -1.4227   -0.8022 C   0  0  0  0  0  0  0  0  0  0  0  0
   -4.2496   -2.5235   -0.7589 H   0  0  0  0  0  0  0  0  0  0  0  0
   -2.9960   -0.7577   -0.9153 C   0  0  0  0  0  0  0  0  0  0  0  0
   -1.7305   -1.5912   -0.9413 C   0  0  0  0  0  0  0  0  0  0  0  0
   -1.9384   -2.5639   -1.4305 H   0  0  0  0  0  0  0  0  0  0  0  0
   -0.9182   -1.0985   -1.5083 H   0  0  0  0  0  0  0  0  0  0  0  0
    0.0233   -1.3611    0.8382 C   0  0  0  0  0  2  0  0  0  0  0  0
   -1.7380   -2.7235    1.3220 C   0  0  0  0  0  0  0  0  0  0  0  0
   -2.6892   -3.2348    1.1507 H   0  0  0  0  0  0  0  0  0  0  0  0
   -0.8878   -2.7544    2.3932 C   0  0  0  0  0  0  0  0  0  0  0  0
   -0.9463   -3.3023    3.3385 H   0  0  0  0  0  0  0  0  0  0  0  0
    1.2579    1.9901    2.7660 C   0  0  0  0  0  0  0  0  0  0  0  0
    1.7736    2.9588    2.9164 H   0  0  0  0  0  0  0  0  0  0  0  0
    1.9682    1.2602    2.3371 H   0  0  0  0  0  0  0  0  0  0  0  0
    0.8955    1.6199    3.7457 H   0  0  0  0  0  0  0  0  0  0  0  0
    1.3177   -1.6831    2.9535 C   0  0  0  0  0  0  0  0  0  0  0  0
    1.7821   -2.6431    3.2517 H   0  0  0  0  0  0  0  0  0  0  0  0
    1.0058   -1.1355    3.8652 H   0  0  0  0  0  0  0  0  0  0  0  0
    2.0539   -1.0772    2.3934 H   0  0  0  0  0  0  0  0  0  0  0  0
  1  4  1  0  0  0  0
  1 31  1  0  0  0  0
  2  1  1  0  0  0  0
  3  2  1  0  0  0  0
  3  7  1  0  0  0  0
  4  5  1  0  0  0  0
  6 26  1  0  0  0  0
  6 27  1  0  0  0  0
  7  4  2  0  0  0  0
  8  7  1  0  0  0  0
  9 29  1  0  0  0  0
  9 35  1  0  0  0  0
 10 13  1  0  0  0  0
 10  3  1  0  0  0  0
 11 10  1  0  0  0  0
 12 10  1  0  0  0  0
 13 14  2  0  0  0  0
 13 22  1  0  0  0  0
 14 16  1  0  0  0  0
 15 14  1  0  0  0  0
 16 17  1  0  0  0  0
 16 18  2  0  0  0  0
 18 19  1  0  0  0  0
 20 18  1  0  0  0  0
 20 21  1  0  0  0  0
 22 20  2  0  0  0  0
 23 22  1  0  0  0  0
 23  6  1  0  0  0  0
 24 23  1  0  0  0  0
 25 23  1  0  0  0  0
 26  9  1  0  0  0  0
 27 29  2  0  0  0  0
 28 27  1  0  0  0  0
 29 30  1  0  0  0  0
 31 32  1  0  0  0  0
 31 34  1  0  0  0  0
 33 31  1  0  0  0  0
 35 36  1  0  0  0  0
 35 37  1  0  0  0  0
 38 35  1  0  0  0  0
M  END
