2,6
q = -2.0, confidence = 0.74

 18 17  0  0  0  0  0  0  0  0999 V2000
    0.5029    2.6321    0.8567 C   0  0  0  0  0  0  0  0  0  0  0  0
    0.7009    1.7521   -0.2409 C   0  0  0  0  0  3  0  0  0  0  0  0
    0.8312    2.2457   -1.5025 C   0  0  0  0  0  0  0  0  0  0  0  0
    0.8932    1.2785   -2.6384 C   0  0  0  0  0  0  0  0  0  0  0  0
    0.9420   -0.1650   -2.1551 C   0  0  0  0  0  3  0  0  0  0  0  0
    2.0862   -0.7450   -1.5265 C   0  0  0  0  0  3  0  0  0  0  0  0
    2.8753   -0.0772   -0.5564 C   0  0  0  0  0  3  0  0  0  0  0  0
    3.9801   -0.7894    0.1763 C   0  0  0  0  0  0  0  0  0  0  0  0
    0.2720    3.2844    1.8127 N   0  0  0  0  0  0  0  0  0  0  0  0
    3.7828   -1.8772    0.2619 H   0  0  0  0  0  0  0  0  0  0  0  0
    4.1156   -0.3857    1.1994 H   0  0  0  0  0  0  0  0  0  0  0  0
    4.9499   -0.6585   -0.3522 H   0  0  0  0  0  0  0  0  0  0  0  0
    0.8382    3.3312   -1.7143 H   0  0  0  0  0  0  0  0  0  0  0  0
    1.7638    1.4914   -3.3046 H   0  0  0  0  0  0  0  0  0  0  0  0
    0.0057    1.4276   -3.2971 H   0  0  0  0  0  0  0  0  0  0  0  0
    0.3566   -0.8719   -2.7658 H   0  0  0  0  0  0  0  0  0  0  0  0
    2.2606   -1.8271   -1.6668 H   0  0  0  0  0  0  0  0  0  0  0  0
    2.9722    1.0172   -0.6225 H   0  0  0  0  0  0  0  0  0  0  0  0
  1  9  3  0  0  0  0
  2  1  1  0  0  0  0
  3  2  2  0  0  0  0
  4  5  1  0  0  0  0
  4  3  1  0  0  0  0
  5  6  1  0  0  0  0
  6  7  1  0  0  0  0
  7  8  1  0  0  0  0
  8 10  1  0  0  0  0
  8 11  1  0  0  0  0
 12  8  1  0  0  0  0
 13  3  1  0  0  0  0
 14  4  1  0  0  0  0
 15  4  1  0  0  0  0
 16  5  1  0  0  0  0
 17  6  1  0  0  0  0
 18  7  1  0  0  0  0
M  END
