15,38
q = 0.0, confidence = 0.996

 46 48  0  0  0  0  0  0  0  0999 V2000
   -1.4146   -1.9657    0.1732 N   0  0  0  0  0  0  0  0  0  0  0  0
    0.2851   -2.1640    1.4987 N   0  0  0  0  0  0  0  0  0  0  0  0
   -5.7761   -0.7021    0.2729 C   0  0  0  0  0  0  0  0  0  0  0  0
   -6.6747   -1.2602    0.5754 H   0  0  0  0  0  0  0  0  0  0  0  0
   -4.6280   -1.3895   -0.1397 C   0  0  0  0  0  0  0  0  0  0  0  0
   -4.6424   -2.4905   -0.1740 H   0  0  0  0  0  0  0  0  0  0  0  0
   -3.4567   -0.7101   -0.5342 C   0  0  0  0  0  0  0  0  0  0  0  0
   -2.2557   -1.5405   -0.9485 C   0  0  0  0  0  0  0  0  0  0  0  0
   -2.5989   -2.4555   -1.4708 H   0  0  0  0  0  0  0  0  0  0  0  0
   -1.5784   -1.0051   -1.6400 H   0  0  0  0  0  0  0  0  0  0  0  0
   -1.7125   -3.0037    1.0510 C   0  0  0  0  0  0  0  0  0  0  0  0
   -2.6520   -3.5609    1.0061 H   0  0  0  0  0  0  0  0  0  0  0  0
   -0.6336   -3.1334    1.8838 C   0  0  0  0  0  0  0  0  0  0  0  0
   -0.4289   -3.8395    2.6936 H   0  0  0  0  0  0  0  0  0  0  0  0
   -0.1790   -1.4446    0.4353 C   0  0  0  0  0  2  0  0  0  0  0  0
    1.6383   -2.0346    2.0479 C   0  0  0  0  0  0  0  0  0  0  0  0
    1.5723   -1.8434    3.1395 H   0  0  0  0  0  0  0  0  0  0  0  0
    2.0655   -1.1388    1.5490 H   0  0  0  0  0  0  0  0  0  0  0  0
    2.4813   -3.2412    1.7450 C   0  0  0  0  0  0  0  0  0  0  0  0
    2.6062   -3.4461    0.6661 H   0  0  0  0  0  0  0  0  0  0  0  0
    3.0615   -4.0040    2.6860 C   0  0  0  0  0  0  0  0  0  0  0  0
    2.9402   -3.7879    3.7618 H   0  0  0  0  0  0  0  0  0  0  0  0
    3.6944   -4.8638    2.4173 H   0  0  0  0  0  0  0  0  0  0  0  0
   -1.4154    1.9653    0.1731 N   0  0  0  0  0  0  0  0  0  0  0  0
    0.2841    2.1640    1.4989 N   0  0  0  0  0  0  0  0  0  0  0  0
   -5.7764    0.7000    0.2728 C   0  0  0  0  0  0  0  0  0  0  0  0
   -6.6752    1.2579    0.5752 H   0  0  0  0  0  0  0  0  0  0  0  0
   -4.6286    1.3879   -0.1399 C   0  0  0  0  0  0  0  0  0  0  0  0
   -4.6435    2.4889   -0.1744 H   0  0  0  0  0  0  0  0  0  0  0  0
   -3.4570    0.7089   -0.5342 C   0  0  0  0  0  0  0  0  0  0  0  0
   -2.2563    1.5398   -0.9487 C   0  0  0  0  0  0  0  0  0  0  0  0
   -2.5998    2.4547   -1.4710 H   0  0  0  0  0  0  0  0  0  0  0  0
   -1.5788    1.0046   -1.6401 H   0  0  0  0  0  0  0  0  0  0  0  0
   -1.7138    3.0031    1.0510 C   0  0  0  0  0  0  0  0  0  0  0  0
   -2.6535    3.5600    1.0060 H   0  0  0  0  0  0  0  0  0  0  0  0
   -0.6351    3.1331    1.8840 C   0  0  0  0  0  0  0  0  0  0  0  0
   -0.4308    3.8390    2.6939 H   0  0  0  0  0  0  0  0  0  0  0  0
   -0.1796    1.4447    0.4352 C   0  0  0  0  0  2  0  0  0  0  0  0
    1.6371    2.0349    2.0484 C   0  0  0  0  0  0  0  0  0  0  0  0
    1.5708    1.8440    3.1401 H   0  0  0  0  0  0  0  0  0  0  0  0
    2.0646    1.1391    1.5499 H   0  0  0  0  0  0  0  0  0  0  0  0
    2.4799    3.2416    1.7456 C   0  0  0  0  0  0  0  0  0  0  0  0
    2.6051    3.4465    0.6667 H   0  0  0  0  0  0  0  0  0  0  0  0
    3.0597    4.0047    2.6867 C   0  0  0  0  0  0  0  0  0  0  0  0
    2.9382    3.7887    3.7624 H   0  0  0  0  0  0  0  0  0  0  0  0
    3.6925    4.8645    2.4180 H   0  0  0  0  0  0  0  0  0  0  0  0
  1 15  1  0  0  0  0
  1 11  1  0  0  0  0
  2 13  1  0  0  0  0
  2 16  1  0  0  0  0
  3  4  1  0  0  0  0
  5  3  2  0  0  0  0
  6  5  1  0  0  0  0
  7  5  1  0  0  0  0
  8  7  1  0  0  0  0
  8  1  1  0  0  0  0
  9  8  1  0  0  0  0
 10  8  1  0  0  0  0
 11 13  2  0  0  0  0
 12 11  1  0  0  0  0
 13 14  1  0  0  0  0
 15  2  1  0  0  0  0
 16 17  1  0  0  0  0
 18 16  1  0  0  0  0
 19 16  1  0  0  0  0
 19 21  2  0  0  0  0
 20 19  1  0  0  0  0
 21 22  1  0  0  0  0
 23 21  1  0  0  0  0
 24 38  1  0  0  0  0
 24 34  1  0  0  0  0
 25 36  1  0  0  0  0
 25 39  1  0  0  0  0
 26  3  1  0  0  0  0
 26 27  1  0  0  0  0
 28 26  2  0  0  0  0
 29 28  1  0  0  0  0
 30  7  2  0  0  0  0
 30 28  1  0  0  0  0
 31 30  1  0  0  0  0
 31 24  1  0  0  0  0
 32 31  1  0  0  0  0
 33 31  1  0  0  0  0
 34 36  2  0  0  0  0
 35 34  1  0  0  0  0
 36 37  1  0  0  0  0
 38 25  1  0  0  0  0
 39 40  1  0  0  0  0
 41 39  1  0  0  0  0
 42 39  1  0  0  0  0
 42 44  2  0  0  0  0
 43 42  1  0  0  0  0
 44 45  1  0  0  0  0
 46 44  1  0  0  0  0
M  END
