6,9
q = -2.0, confidence = 0.646

 44 44  0  0  1  0  0  0  0  0999 V2000
   -4.3046   -0.4490    0.4057 O   0  0  0  0  0  0  0  0  0  0  0  0
   -3.3049    1.3873    1.2906 O   0  0  0  0  0  0  0  0  0  0  0  0
    1.0916    2.6220   -0.1489 O   0  0  0  0  0  0  0  0  0  0  0  0
    5.5407   -0.6977   -0.0948 O   0  0  0  0  0  0  0  0  0  0  0  0
   -3.3481    0.3133    0.4495 C   0  0  0  0  0  0  0  0  0  0  0  0
   -2.1032    0.2147   -0.3539 C   0  0  0  0  0  3  0  0  0  0  0  0
   -2.1927   -0.6962   -1.5826 C   0  0  2  0  0  0  0  0  0  0  0  0
   -1.0262   -1.6559   -1.4309 C   0  0  0  0  0  3  0  0  0  0  0  0
    0.3236   -1.2430   -1.3319 C   0  0  0  0  0  3  0  0  0  0  0  0
    0.6881    0.0767   -0.9404 C   0  0  0  0  0  3  0  0  0  0  0  0
   -2.3423    0.0259   -2.9122 C   0  0  0  0  0  0  0  0  0  0  0  0
   -1.4683   -0.1082   -3.9298 C   0  0  0  0  0  0  0  0  0  0  0  0
   -3.5646    0.9025   -3.0014 C   0  0  0  0  0  0  0  0  0  0  0  0
   -4.4299    1.5246    2.1616 C   0  0  0  0  0  0  0  0  0  0  0  0
    2.0449    0.5031   -0.5746 C   0  0  0  0  0  0  0  0  0  0  0  0
    2.2193    1.8510   -0.1538 C   0  0  0  0  0  0  0  0  0  0  0  0
    3.4899    2.3017    0.2517 C   0  0  0  0  0  0  0  0  0  0  0  0
    4.5826    1.4279    0.2533 C   0  0  0  0  0  0  0  0  0  0  0  0
    4.4249    0.0857   -0.1477 C   0  0  0  0  0  0  0  0  0  0  0  0
    3.1593   -0.3625   -0.5642 C   0  0  0  0  0  0  0  0  0  0  0  0
    5.3986   -2.0730   -0.3883 C   0  0  0  0  0  0  0  0  0  0  0  0
    1.1524    3.9121    0.4269 C   0  0  0  0  0  0  0  0  0  0  0  0
   -1.6859    1.2226   -0.5234 H   0  0  0  0  0  0  0  0  0  0  0  0
   -3.1216   -1.2893   -1.4245 H   0  0  0  0  0  0  0  0  0  0  0  0
   -1.2013   -2.7234   -1.6397 H   0  0  0  0  0  0  0  0  0  0  0  0
    1.0939   -2.0306   -1.3873 H   0  0  0  0  0  0  0  0  0  0  0  0
    0.0321    0.9021   -1.2411 H   0  0  0  0  0  0  0  0  0  0  0  0
   -1.6231    0.4199   -4.8838 H   0  0  0  0  0  0  0  0  0  0  0  0
   -0.5741   -0.7441   -3.8466 H   0  0  0  0  0  0  0  0  0  0  0  0
   -3.5351    1.7063   -2.2344 H   0  0  0  0  0  0  0  0  0  0  0  0
   -3.6583    1.3798   -3.9955 H   0  0  0  0  0  0  0  0  0  0  0  0
   -4.4875    0.3195   -2.7958 H   0  0  0  0  0  0  0  0  0  0  0  0
   -4.2311    2.4163    2.7830 H   0  0  0  0  0  0  0  0  0  0  0  0
   -4.5478    0.6270    2.8027 H   0  0  0  0  0  0  0  0  0  0  0  0
   -5.3679    1.6572    1.5846 H   0  0  0  0  0  0  0  0  0  0  0  0
    3.6361    3.3391    0.5801 H   0  0  0  0  0  0  0  0  0  0  0  0
    5.5775    1.7660    0.5761 H   0  0  0  0  0  0  0  0  0  0  0  0
    3.0237   -1.4037   -0.8822 H   0  0  0  0  0  0  0  0  0  0  0  0
    6.3919   -2.5332   -0.2323 H   0  0  0  0  0  0  0  0  0  0  0  0
    4.6599   -2.5656    0.2844 H   0  0  0  0  0  0  0  0  0  0  0  0
    5.0868   -2.2455   -1.4442 H   0  0  0  0  0  0  0  0  0  0  0  0
    1.4773    3.8682    1.4902 H   0  0  0  0  0  0  0  0  0  0  0  0
    0.1266    4.3221    0.3816 H   0  0  0  0  0  0  0  0  0  0  0  0
    1.8369    4.5876   -0.1338 H   0  0  0  0  0  0  0  0  0  0  0  0
  1  5  2  0  0  0  0
  2 14  1  0  0  0  0
  3 22  1  0  0  0  0
  5  2  1  0  0  0  0
  6  5  1  0  0  0  0
  7  8  1  0  0  0  0
  7 24  1  1  0  0  0
  7  6  1  0  0  0  0
  8  9  1  0  0  0  0
  9 10  1  0  0  0  0
 10 15  1  0  0  0  0
 11  7  1  0  0  0  0
 12 29  1  0  0  0  0
 12 11  2  0  0  0  0
 13 11  1  0  0  0  0
 13 32  1  0  0  0  0
 13 30  1  0  0  0  0
 14 33  1  0  0  0  0
 14 34  1  0  0  0  0
 15 20  2  0  0  0  0
 15 16  1  0  0  0  0
 16  3  1  0  0  0  0
 16 17  2  0  0  0  0
 17 18  1  0  0  0  0
 17 36  1  0  0  0  0
 18 37  1  0  0  0  0
 19  4  1  0  0  0  0
 19 18  2  0  0  0  0
 20 19  1  0  0  0  0
 21 39  1  0  0  0  0
 21  4  1  0  0  0  0
 21 40  1  0  0  0  0
 22 42  1  0  0  0  0
 23  6  1  0  0  0  0
 25  8  1  0  0  0  0
 26  9  1  0  0  0  0
 27 10  1  0  0  0  0
 28 12  1  0  0  0  0
 31 13  1  0  0  0  0
 35 14  1  0  0  0  0
 38 20  1  0  0  0  0
 41 21  1  0  0  0  0
 43 22  1  0  0  0  0
 44 22  1  0  0  0  0
M  END
