16,20
q = 0.0, confidence = 0.996

 66 70  0  0  1  0  0  0  0  0999 V2000
    1.7736   -0.1172   -0.3398 P   0  0  0  0  0  0  0  0  0  0  0  0
   -2.2604   -0.1515   -0.8767 P   0  0  0  0  0  0  0  0  0  0  0  0
    0.9071   -0.7567   -1.8712 C   0  0  0  0  0  0  0  0  0  0  0  0
    0.0327   -0.0890   -2.0512 H   0  0  0  0  0  0  0  0  0  0  0  0
    1.5977   -0.6731   -2.7344 H   0  0  0  0  0  0  0  0  0  0  0  0
    0.4124   -2.1673   -1.7055 C   0  0  0  0  0  0  0  0  0  0  0  0
    0.6923   -3.0992   -2.8516 C   0  0  0  0  0  0  0  0  0  0  0  0
    0.2913   -4.1152   -2.6712 H   0  0  0  0  0  0  0  0  0  0  0  0
    1.7878   -3.1771   -3.0244 H   0  0  0  0  0  0  0  0  0  0  0  0
    0.2505   -2.7109   -3.7947 H   0  0  0  0  0  0  0  0  0  0  0  0
   -0.2509   -2.5912   -0.5991 C   0  0  0  0  0  0  0  0  0  0  0  0
   -0.5571   -3.6511   -0.5578 H   0  0  0  0  0  0  0  0  0  0  0  0
   -0.5182   -1.8160    0.6386 C   0  0  0  0  0  0  0  0  0  0  0  0
    0.0727   -2.2784    1.8567 C   0  0  0  0  0  0  0  0  0  0  0  0
    0.7423   -3.1488    1.8218 H   0  0  0  0  0  0  0  0  0  0  0  0
   -0.1129   -1.5666    3.0765 C   0  0  0  0  0  3  0  0  0  0  0  0
    0.4286   -1.8853    3.9786 H   0  0  0  0  0  0  0  0  0  0  0  0
   -0.9730   -0.4390    3.1273 C   0  0  0  0  0  3  0  0  0  0  0  0
   -1.1003    0.1281    4.0589 H   0  0  0  0  0  0  0  0  0  0  0  0
   -1.5858    0.0099    1.9262 C   0  0  0  0  0  3  0  0  0  0  0  0
   -2.2049    0.9183    1.9420 H   0  0  0  0  0  0  0  0  0  0  0  0
   -1.4009   -0.6695    0.6769 C   0  0  2  0  0  3  0  0  0  0  0  0
    3.3231   -1.1362   -0.4291 C   0  0  0  0  0  0  0  0  0  0  0  0
    4.2655   -0.9297   -1.4586 C   0  0  0  0  0  0  0  0  0  0  0  0
    4.1206   -0.1079   -2.1776 H   0  0  0  0  0  0  0  0  0  0  0  0
    5.3944   -1.7549   -1.5606 C   0  0  0  0  0  0  0  0  0  0  0  0
    6.1273   -1.5824   -2.3637 H   0  0  0  0  0  0  0  0  0  0  0  0
    5.5935   -2.7947   -0.6362 C   0  0  0  0  0  0  0  0  0  0  0  0
    6.4823   -3.4393   -0.7150 H   0  0  0  0  0  0  0  0  0  0  0  0
    4.6617   -3.0021    0.3917 C   0  0  0  0  0  0  0  0  0  0  0  0
    4.8173   -3.8092    1.1238 H   0  0  0  0  0  0  0  0  0  0  0  0
    3.5323   -2.1747    0.4955 C   0  0  0  0  0  0  0  0  0  0  0  0
    2.8021   -2.3184    1.3052 H   0  0  0  0  0  0  0  0  0  0  0  0
    2.3927    1.5309   -0.8894 C   0  0  0  0  0  0  0  0  0  0  0  0
    3.3889    2.1529   -0.1055 C   0  0  0  0  0  0  0  0  0  0  0  0
    3.8185    1.6194    0.7568 H   0  0  0  0  0  0  0  0  0  0  0  0
    3.8250    3.4480   -0.4109 C   0  0  0  0  0  0  0  0  0  0  0  0
    4.6013    3.9209    0.2094 H   0  0  0  0  0  0  0  0  0  0  0  0
    3.2685    4.1450   -1.4970 C   0  0  0  0  0  0  0  0  0  0  0  0
    3.6078    5.1653   -1.7315 H   0  0  0  0  0  0  0  0  0  0  0  0
    2.2765    3.5356   -2.2783 C   0  0  0  0  0  0  0  0  0  0  0  0
    1.8350    4.0737   -3.1311 H   0  0  0  0  0  0  0  0  0  0  0  0
    1.8409    2.2335   -1.9788 C   0  0  0  0  0  0  0  0  0  0  0  0
    1.0631    1.7730   -2.6049 H   0  0  0  0  0  0  0  0  0  0  0  0
   -3.8533   -1.0800   -0.7359 C   0  0  0  0  0  0  0  0  0  0  0  0
   -4.1895   -1.9052    0.3564 C   0  0  0  0  0  0  0  0  0  0  0  0
   -3.4980   -1.9932    1.2077 H   0  0  0  0  0  0  0  0  0  0  0  0
   -5.4035   -2.6112    0.3659 C   0  0  0  0  0  0  0  0  0  0  0  0
   -5.6529   -3.2531    1.2251 H   0  0  0  0  0  0  0  0  0  0  0  0
   -6.2990   -2.4962   -0.7083 C   0  0  0  0  0  0  0  0  0  0  0  0
   -7.2511   -3.0483   -0.6968 H   0  0  0  0  0  0  0  0  0  0  0  0
   -5.9717   -1.6766   -1.8019 C   0  0  0  0  0  0  0  0  0  0  0  0
   -6.6666   -1.5843   -2.6507 H   0  0  0  0  0  0  0  0  0  0  0  0
   -4.7534   -0.9839   -1.8206 C   0  0  0  0  0  0  0  0  0  0  0  0
   -4.4934   -0.3543   -2.6872 H   0  0  0  0  0  0  0  0  0  0  0  0
   -2.7759    1.5669   -0.4287 C   0  0  0  0  0  0  0  0  0  0  0  0
   -1.8082    2.5803   -0.5986 C   0  0  0  0  0  0  0  0  0  0  0  0
   -0.8073    2.3241   -0.9786 H   0  0  0  0  0  0  0  0  0  0  0  0
   -2.0972    3.9080   -0.2579 C   0  0  0  0  0  0  0  0  0  0  0  0
   -1.3179    4.6768   -0.3681 H   0  0  0  0  0  0  0  0  0  0  0  0
   -3.3713    4.2470    0.2258 C   0  0  0  0  0  0  0  0  0  0  0  0
   -3.6034    5.2908    0.4869 H   0  0  0  0  0  0  0  0  0  0  0  0
   -4.3485    3.2497    0.3757 C   0  0  0  0  0  0  0  0  0  0  0  0
   -5.3491    3.5108    0.7537 H   0  0  0  0  0  0  0  0  0  0  0  0
   -4.0531    1.9141    0.0582 C   0  0  0  0  0  0  0  0  0  0  0  0
   -4.8176    1.1341    0.1930 H   0  0  0  0  0  0  0  0  0  0  0  0
  2 45  1  0  0  0  0
  2 56  1  0  0  0  0
  3  6  1  0  0  0  0
  3  1  1  0  0  0  0
  4  3  1  0  0  0  0
  5  3  1  0  0  0  0
  6 11  2  0  0  0  0
  7  8  1  0  0  0  0
  7  6  1  0  0  0  0
  9  7  1  0  0  0  0
 10  7  1  0  0  0  0
 11 12  1  0  0  0  0
 11 13  1  0  0  0  0
 13 22  1  0  0  0  0
 13 14  2  0  0  0  0
 14 16  1  0  0  0  0
 15 14  1  0  0  0  0
 16 18  1  0  0  0  0
 16 17  1  0  0  0  0
 18 19  1  0  0  0  0
 20 21  1  0  0  0  0
 20 18  1  0  0  0  0
 22  2  1  1  0  0  0
 22 20  1  0  0  0  0
 23  1  1  0  0  0  0
 23 32  1  0  0  0  0
 24 23  2  0  0  0  0
 25 24  1  0  0  0  0
 26 24  1  0  0  0  0
 26 28  2  0  0  0  0
 27 26  1  0  0  0  0
 28 30  1  0  0  0  0
 29 28  1  0  0  0  0
 30 32  2  0  0  0  0
 30 31  1  0  0  0  0
 32 33  1  0  0  0  0
 34  1  1  0  0  0  0
 34 35  1  0  0  0  0
 35 36  1  0  0  0  0
 37 35  2  0  0  0  0
 37 38  1  0  0  0  0
 39 37  1  0  0  0  0
 40 39  1  0  0  0  0
 41 43  1  0  0  0  0
 41 39  2  0  0  0  0
 42 41  1  0  0  0  0
 43 34  2  0  0  0  0
 44 43  1  0  0  0  0
 45 46  1  0  0  0  0
 46 48  2  0  0  0  0
 46 47  1  0  0  0  0
 48 49  1  0  0  0  0
 50 51  1  0  0  0  0
 50 48  1  0  0  0  0
 52 50  2  0  0  0  0
 53 52  1  0  0  0  0
 54 52  1  0  0  0  0
 54 45  2  0  0  0  0
 55 54  1  0  0  0  0
 56 65  1  0  0  0  0
 57 56  2  0  0  0  0
 57 59  1  0  0  0  0
 58 57  1  0  0  0  0
 59 61  2  0  0  0  0
 60 59  1  0  0  0  0
 61 63  1  0  0  0  0
 61 62  1  0  0  0  0
 63 64  1  0  0  0  0
 65 66  1  0  0  0  0
 65 63  2  0  0  0  0
M  END
