5,15
q = -1.0

 30 31  0  0  0  0  0  0  0  0999 V2000
    2.6456    3.6201   -0.0882 N   0  0  0  0  0  0  0  0  0  0  0  0
    0.4837    3.7655   -0.0002 N   0  0  0  0  0  0  0  0  0  0  0  0
   -4.5940    0.0526   -0.2442 O   0  0  0  0  0  0  0  0  0  0  0  0
   -5.7315    2.0106   -0.0460 O   0  0  0  0  0  0  0  0  0  0  0  0
    1.5115    2.8617   -0.0843 C   0  0  0  0  0  2  0  0  0  0  0  0
    2.3242    4.9735   -0.0126 C   0  0  0  0  0  0  0  0  0  0  0  0
    3.0907    5.7541   -0.0037 H   0  0  0  0  0  0  0  0  0  0  0  0
    0.9560    5.0648    0.0437 C   0  0  0  0  0  0  0  0  0  0  0  0
    0.3039    5.9392    0.1138 H   0  0  0  0  0  0  0  0  0  0  0  0
    4.0082    3.1116   -0.1719 C   0  0  0  0  0  0  0  0  0  0  0  0
    4.1844    2.3541    0.6132 H   0  0  0  0  0  0  0  0  0  0  0  0
    4.7123    3.9493   -0.0247 H   0  0  0  0  0  0  0  0  0  0  0  0
    4.1965    2.6552   -1.1624 H   0  0  0  0  0  0  0  0  0  0  0  0
   -0.8356    3.2381    0.0283 C   0  0  0  0  0  0  0  0  0  0  0  0
   -0.8741    1.8182   -0.0064 C   0  0  0  0  0  3  0  0  0  0  0  0
   -2.1524    1.2422   -0.0333 C   0  0  0  0  0  0  0  0  0  0  0  0
   -2.2925    0.1563   -0.0693 H   0  0  0  0  0  0  0  0  0  0  0  0
   -3.3243    2.0284   -0.0171 C   0  0  0  0  0  0  0  0  0  0  0  0
   -3.2378    3.4299    0.0472 C   0  0  0  0  0  0  0  0  0  0  0  0
   -4.1660    4.0185    0.0675 H   0  0  0  0  0  0  0  0  0  0  0  0
   -1.9797    4.0453    0.0667 C   0  0  0  0  0  0  0  0  0  0  0  0
   -1.9012    5.1416    0.1006 H   0  0  0  0  0  0  0  0  0  0  0  0
   -4.6792    1.3981   -0.0928 C   0  0  0  0  0  0  0  0  0  0  0  0
   -5.8429   -0.6560   -0.3870 C   0  0  0  0  0  0  0  0  0  0  0  0
   -6.4440   -0.1627   -1.1795 H   0  0  0  0  0  0  0  0  0  0  0  0
   -6.4203   -0.5590    0.5571 H   0  0  0  0  0  0  0  0  0  0  0  0
   -5.5207   -2.0983   -0.7200 C   0  0  0  0  0  0  0  0  0  0  0  0
   -6.4562   -2.6705   -0.8759 H   0  0  0  0  0  0  0  0  0  0  0  0
   -4.9550   -2.5803    0.1019 H   0  0  0  0  0  0  0  0  0  0  0  0
   -4.9117   -2.1655   -1.6440 H   0  0  0  0  0  0  0  0  0  0  0  0
  1  5  1  0  0  0  0
  1  6  1  0  0  0  0
  2 14  1  0  0  0  0
  2  8  1  0  0  0  0
  3 23  1  0  0  0  0
  5  2  1  0  0  0  0
  6  7  1  0  0  0  0
  6  8  2  0  0  0  0
  8  9  1  0  0  0  0
 10  1  1  0  0  0  0
 10 12  1  0  0  0  0
 10 11  1  0  0  0  0
 13 10  1  0  0  0  0
 14 21  1  0  0  0  0
 15 14  2  0  0  0  0
 16 18  2  0  0  0  0
 16 15  1  0  0  0  0
 17 16  1  0  0  0  0
 18 19  1  0  0  0  0
 19 21  2  0  0  0  0
 19 20  1  0  0  0  0
 21 22  1  0  0  0  0
 23  4  2  0  0  0  0
 23 18  1  0  0  0  0
 24  3  1  0  0  0  0
 24 26  1  0  0  0  0
 25 24  1  0  0  0  0
 27 24  1  0  0  0  0
 27 29  1  0  0  0  0
 28 27  1  0  0  0  0
 30 27  1  0  0  0  0
M  END
