8,9
q = -1.0

 34 34  0  0  1  0  0  0  0  0999 V2000
   -1.5958   -0.6361    1.4128 C   0  0  0  0  0  0  0  0  0  0  0  0
   -2.3782   -0.4709    0.2133 C   0  0  0  0  0  0  0  0  0  0  0  0
   -0.9193   -2.2689   -0.0807 C   0  0  1  0  0  3  0  0  0  0  0  0
   -2.3876   -1.7806   -2.1203 C   0  0  0  0  0  0  0  0  0  0  0  0
   -1.6308   -2.3963   -2.6401 H   0  0  0  0  0  0  0  0  0  0  0  0
   -2.5296   -0.8665   -2.7201 H   0  0  0  0  0  0  0  0  0  0  0  0
   -3.3409   -2.3496   -2.1114 H   0  0  0  0  0  0  0  0  0  0  0  0
   -1.9206   -1.4741   -0.7273 C   0  0  1  0  0  3  0  0  0  0  0  0
   -0.6853   -1.7359    1.2171 C   0  0  2  0  0  3  0  0  0  0  0  0
   -1.8825   -0.1106    2.7906 C   0  0  0  0  0  0  0  0  0  0  0  0
   -2.3464    0.8877    2.8088 H   0  0  0  0  0  0  0  0  0  0  0  0
   -0.9703   -0.0688    3.4120 H   0  0  0  0  0  0  0  0  0  0  0  0
   -2.5790   -0.8069    3.3064 H   0  0  0  0  0  0  0  0  0  0  0  0
   -3.6500    0.4031    0.1251 C   0  0  0  0  0  0  0  0  0  0  0  0
    0.0594   -2.4831    2.2844 C   0  0  0  0  0  0  0  0  0  0  0  0
   -0.4711   -3.4358    2.5012 H   0  0  0  0  0  0  0  0  0  0  0  0
    0.1257   -1.9273    3.2344 H   0  0  0  0  0  0  0  0  0  0  0  0
    1.0858   -2.7542    1.9732 H   0  0  0  0  0  0  0  0  0  0  0  0
   -4.6802   -0.2073    1.1116 C   0  0  0  0  0  0  0  0  0  0  0  0
   -5.6440    0.3365    1.0290 H   0  0  0  0  0  0  0  0  0  0  0  0
   -4.3553   -0.1488    2.1665 H   0  0  0  0  0  0  0  0  0  0  0  0
   -4.8703   -1.2729    0.8707 H   0  0  0  0  0  0  0  0  0  0  0  0
   -4.3213    0.3994   -1.2635 C   0  0  0  0  0  0  0  0  0  0  0  0
   -3.6475    0.8027   -2.0401 H   0  0  0  0  0  0  0  0  0  0  0  0
   -5.2216    1.0455   -1.2196 H   0  0  0  0  0  0  0  0  0  0  0  0
   -4.6576   -0.6104   -1.5622 H   0  0  0  0  0  0  0  0  0  0  0  0
   -0.3545   -3.5635   -0.5714 C   0  0  0  0  0  0  0  0  0  0  0  0
    0.6439   -3.7655   -0.1400 H   0  0  0  0  0  0  0  0  0  0  0  0
   -0.2519   -3.5874   -1.6709 H   0  0  0  0  0  0  0  0  0  0  0  0
   -1.0279   -4.3953   -0.2669 H   0  0  0  0  0  0  0  0  0  0  0  0
   -3.3946    1.8825    0.4879 C   0  0  0  0  0  0  0  0  0  0  0  0
   -2.6684    2.3278   -0.2180 H   0  0  0  0  0  0  0  0  0  0  0  0
   -3.0139    2.0171    1.5170 H   0  0  0  0  0  0  0  0  0  0  0  0
   -4.3448    2.4505    0.4184 H   0  0  0  0  0  0  0  0  0  0  0  0
  1 10  1  0  0  0  0
  2  1  2  0  0  0  0
  3 27  1  1  0  0  0
  3  9  1  0  0  0  0
  4  7  1  0  0  0  0
  5  4  1  0  0  0  0
  6  4  1  0  0  0  0
  8  4  1  1  0  0  0
  8  3  1  0  0  0  0
  8  2  1  0  0  0  0
  9  1  1  0  0  0  0
  9 15  1  1  0  0  0
 10 11  1  0  0  0  0
 10 13  1  0  0  0  0
 10 12  1  0  0  0  0
 14  2  1  0  0  0  0
 14 31  1  0  0  0  0
 14 19  1  0  0  0  0
 15 16  1  0  0  0  0
 15 17  1  0  0  0  0
 18 15  1  0  0  0  0
 19 21  1  0  0  0  0
 20 19  1  0  0  0  0
 22 19  1  0  0  0  0
 23 25  1  0  0  0  0
 23 14  1  0  0  0  0
 24 23  1  0  0  0  0
 26 23  1  0  0  0  0
 27 30  1  0  0  0  0
 27 28  1  0  0  0  0
 29 27  1  0  0  0  0
 31 33  1  0  0  0  0
 32 31  1  0  0  0  0
 34 31  1  0  0  0  0
M  END
