2,8
q = -1.0

 22 22  0  0  1  0  0  0  0  0999 V2000
    2.1683   -0.0407    1.4390 C   0  0  2  0  0  3  0  0  0  0  0  0
    0.8790   -0.0234    2.0546 C   0  0  0  0  0  3  0  0  0  0  0  0
    0.5205    0.7488    2.7479 H   0  0  0  0  0  0  0  0  0  0  0  0
    3.4378   -1.6968   -0.1298 C   0  0  0  0  0  0  0  0  0  0  0  0
    3.1394   -2.3384   -0.9800 H   0  0  0  0  0  0  0  0  0  0  0  0
    3.9968   -0.8344   -0.5417 H   0  0  0  0  0  0  0  0  0  0  0  0
    4.1388   -2.2790    0.5071 H   0  0  0  0  0  0  0  0  0  0  0  0
    2.2484   -1.2487    0.6671 C   0  0  1  0  0  3  0  0  0  0  0  0
    1.0177   -1.9776    0.8457 C   0  0  0  0  0  0  0  0  0  0  0  0
    0.1697   -1.2203    1.7210 C   0  0  0  0  0  0  0  0  0  0  0  0
    3.2718    0.9527    1.6513 C   0  0  0  0  0  0  0  0  0  0  0  0
    4.0200    0.5470    2.3654 H   0  0  0  0  0  0  0  0  0  0  0  0
    3.7965    1.1985    0.7080 H   0  0  0  0  0  0  0  0  0  0  0  0
    2.8856    1.9004    2.0735 H   0  0  0  0  0  0  0  0  0  0  0  0
    0.7105   -3.3412    0.3040 C   0  0  0  0  0  0  0  0  0  0  0  0
    1.0815   -4.1270    0.9971 H   0  0  0  0  0  0  0  0  0  0  0  0
   -0.3795   -3.4914    0.1828 H   0  0  0  0  0  0  0  0  0  0  0  0
    1.1823   -3.5052   -0.6831 H   0  0  0  0  0  0  0  0  0  0  0  0
   -1.1154   -1.6874    2.3350 C   0  0  0  0  0  0  0  0  0  0  0  0
   -1.7270   -0.8401    2.6988 H   0  0  0  0  0  0  0  0  0  0  0  0
   -1.7381   -2.2571    1.6196 H   0  0  0  0  0  0  0  0  0  0  0  0
   -0.9015   -2.3472    3.2035 H   0  0  0  0  0  0  0  0  0  0  0  0
  1 11  1  1  0  0  0
  1  2  1  0  0  0  0
  2  3  1  0  0  0  0
  4  7  1  0  0  0  0
  5  4  1  0  0  0  0
  6  4  1  0  0  0  0
  8  4  1  1  0  0  0
  8  9  1  0  0  0  0
  8  1  1  0  0  0  0
  9 10  2  0  0  0  0
 10  2  1  0  0  0  0
 10 19  1  0  0  0  0
 11 14  1  0  0  0  0
 11 12  1  0  0  0  0
 13 11  1  0  0  0  0
 15  9  1  0  0  0  0
 15 16  1  0  0  0  0
 17 15  1  0  0  0  0
 18 15  1  0  0  0  0
 19 20  1  0  0  0  0
 19 22  1  0  0  0  0
 21 19  1  0  0  0  0
M  END
