1,3
q = -1.0

  9  8  0  0  0  0  0  0  0  0999 V2000
    1.2340   -2.7693   -1.6392 C   0  0  0  0  0  3  0  0  0  0  0  0
   -0.0126   -3.3738   -1.2570 C   0  0  0  0  0  3  0  0  0  0  0  0
   -1.2122   -2.7069   -1.6628 C   0  0  0  0  0  3  0  0  0  0  0  0
   -0.1097   -4.3093   -0.2921 O   0  0  0  0  0  0  0  0  0  0  0  0
    0.7874   -4.5711   -0.0038 H   0  0  0  0  0  0  0  0  0  0  0  0
    1.3402   -2.4112   -2.6769 H   0  0  0  0  0  0  0  0  0  0  0  0
    2.1705   -3.1367   -1.1862 H   0  0  0  0  0  0  0  0  0  0  0  0
   -2.1648   -3.0434   -1.2265 H   0  0  0  0  0  0  0  0  0  0  0  0
   -1.2717   -2.3196   -2.6924 H   0  0  0  0  0  0  0  0  0  0  0  0
  1  2  1  0  0  0  0
  1  7  1  0  0  0  0
  2  4  1  0  0  0  0
  3  2  1  0  0  0  0
  3  8  1  0  0  0  0
  4  5  1  0  0  0  0
  6  1  1  0  0  0  0
  9  3  1  0  0  0  0
M  END
