5,9
q = 0.0, confidence = 1.0

 31 31  0  0  1  0  0  0  0  0999 V2000
    3.3811   -1.3909    0.9521 O   0  0  0  0  0  0  0  0  0  0  0  0
    3.1906    0.0059   -0.9287 O   0  0  0  0  0  0  0  0  0  0  0  0
   -2.9646   -1.6156   -0.2710 N   0  0  0  0  0  0  0  0  0  0  0  0
    1.1942   -0.6755    0.1379 C   0  0  1  0  0  3  0  0  0  0  0  0
    0.3703   -0.8856    1.2787 C   0  0  0  0  0  3  0  0  0  0  0  0
   -1.0152   -1.1786    1.1558 C   0  0  0  0  0  0  0  0  0  0  0  0
   -1.6314   -1.2991   -0.1383 C   0  0  0  0  0  0  0  0  0  0  0  0
   -0.8150   -0.9926   -1.2835 C   0  0  0  0  0  3  0  0  0  0  0  0
    0.5683   -0.7043   -1.1389 C   0  0  0  0  0  3  0  0  0  0  0  0
    2.6648   -0.3403    0.3236 C   0  0  0  0  0  0  0  0  0  0  0  0
    3.3545   -2.6266    0.2507 C   0  0  0  0  0  0  0  0  0  0  0  0
    4.4503    0.6538   -0.8566 C   0  0  0  0  0  0  0  0  0  0  0  0
   -3.8160   -1.6136    0.9087 C   0  0  0  0  0  0  0  0  0  0  0  0
   -3.6140   -1.4362   -1.5606 C   0  0  0  0  0  0  0  0  0  0  0  0
    0.8118   -0.8041    2.2825 H   0  0  0  0  0  0  0  0  0  0  0  0
   -1.6086   -1.2896    2.0687 H   0  0  0  0  0  0  0  0  0  0  0  0
   -1.2533   -0.9554   -2.2858 H   0  0  0  0  0  0  0  0  0  0  0  0
    1.1738   -0.4623   -2.0218 H   0  0  0  0  0  0  0  0  0  0  0  0
    2.7675    0.5056    1.0423 H   0  0  0  0  0  0  0  0  0  0  0  0
    4.0173   -3.3208    0.8012 H   0  0  0  0  0  0  0  0  0  0  0  0
    3.7265   -2.5180   -0.7916 H   0  0  0  0  0  0  0  0  0  0  0  0
    2.3301   -3.0633    0.2124 H   0  0  0  0  0  0  0  0  0  0  0  0
    4.7851    0.8355   -1.8951 H   0  0  0  0  0  0  0  0  0  0  0  0
    5.2032    0.0271   -0.3306 H   0  0  0  0  0  0  0  0  0  0  0  0
    4.3701    1.6316   -0.3276 H   0  0  0  0  0  0  0  0  0  0  0  0
   -4.8223   -1.9719    0.6256 H   0  0  0  0  0  0  0  0  0  0  0  0
   -3.9194   -0.5988    1.3568 H   0  0  0  0  0  0  0  0  0  0  0  0
   -3.4253   -2.3036    1.6829 H   0  0  0  0  0  0  0  0  0  0  0  0
   -4.6443   -1.8316   -1.5010 H   0  0  0  0  0  0  0  0  0  0  0  0
   -3.0878   -2.0042   -2.3532 H   0  0  0  0  0  0  0  0  0  0  0  0
   -3.6673   -0.3660   -1.8655 H   0  0  0  0  0  0  0  0  0  0  0  0
  2 12  1  0  0  0  0
  2 10  1  0  0  0  0
  3  7  1  0  0  0  0
  3 13  1  0  0  0  0
  4 10  1  1  0  0  0
  4  5  1  0  0  0  0
  5 15  1  0  0  0  0
  6  5  1  0  0  0  0
  6 16  1  0  0  0  0
  7  6  2  0  0  0  0
  8  9  1  0  0  0  0
  8  7  1  0  0  0  0
  9  4  1  0  0  0  0
 10  1  1  0  0  0  0
 10 19  1  0  0  0  0
 11 20  1  0  0  0  0
 11  1  1  0  0  0  0
 12 24  1  0  0  0  0
 12 25  1  0  0  0  0
 13 27  1  0  0  0  0
 13 28  1  0  0  0  0
 14 29  1  0  0  0  0
 14  3  1  0  0  0  0
 17  8  1  0  0  0  0
 18  9  1  0  0  0  0
 21 11  1  0  0  0  0
 22 11  1  0  0  0  0
 23 12  1  0  0  0  0
 26 13  1  0  0  0  0
 30 14  1  0  0  0  0
 31 14  1  0  0  0  0
M  END
