6,8
q = 0.0, confidence = 0.996

 23 23  0  0  1  0  0  0  0  0999 V2000
    3.2629   -2.0437    0.3984 Cl  0  0  0  0  0  0  0  0  0  0  0  0
   -2.9836    0.3130    0.8893 O   0  0  0  0  0  0  0  0  0  0  0  0
   -3.3106   -1.1009   -0.9607 O   0  0  0  0  0  0  0  0  0  0  0  0
    1.6225   -1.4964    0.1975 C   0  0  0  0  0  0  0  0  0  0  0  0
    1.0726   -1.4132   -1.1113 C   0  0  0  0  0  3  0  0  0  0  0  0
   -0.2680   -0.9560   -1.2588 C   0  0  0  0  0  3  0  0  0  0  0  0
   -1.0686   -0.6285   -0.1263 C   0  0  1  0  0  3  0  0  0  0  0  0
   -0.4819   -0.7088    1.1703 C   0  0  0  0  0  3  0  0  0  0  0  0
    0.8554   -1.1586    1.3488 C   0  0  0  0  0  0  0  0  0  0  0  0
   -2.4884   -0.1263   -0.3448 C   0  0  0  0  0  0  0  0  0  0  0  0
   -4.1633    1.0958    0.7838 C   0  0  0  0  0  0  0  0  0  0  0  0
   -3.4507   -2.3109   -0.2261 C   0  0  0  0  0  0  0  0  0  0  0  0
    1.6947   -1.6498   -1.9832 H   0  0  0  0  0  0  0  0  0  0  0  0
   -0.6945   -0.8467   -2.2666 H   0  0  0  0  0  0  0  0  0  0  0  0
   -1.0804   -0.3881    2.0329 H   0  0  0  0  0  0  0  0  0  0  0  0
    1.3151   -1.2008    2.3439 H   0  0  0  0  0  0  0  0  0  0  0  0
   -2.4774    0.7069   -1.0857 H   0  0  0  0  0  0  0  0  0  0  0  0
   -4.4821    1.3463    1.8126 H   0  0  0  0  0  0  0  0  0  0  0  0
   -4.9772    0.5404    0.2694 H   0  0  0  0  0  0  0  0  0  0  0  0
   -3.9692    2.0406    0.2255 H   0  0  0  0  0  0  0  0  0  0  0  0
   -4.1842   -2.9323   -0.7733 H   0  0  0  0  0  0  0  0  0  0  0  0
   -3.8257   -2.1268    0.8042 H   0  0  0  0  0  0  0  0  0  0  0  0
   -2.4898   -2.8702   -0.1553 H   0  0  0  0  0  0  0  0  0  0  0  0
  3 10  1  0  0  0  0
  3 12  1  0  0  0  0
  4  1  1  0  0  0  0
  4  9  2  0  0  0  0
  5  4  1  0  0  0  0
  6  5  1  0  0  0  0
  6  7  1  0  0  0  0
  7 10  1  6  0  0  0
  7  8  1  0  0  0  0
  8  9  1  0  0  0  0
  8 15  1  0  0  0  0
  9 16  1  0  0  0  0
 10  2  1  0  0  0  0
 11  2  1  0  0  0  0
 11 18  1  0  0  0  0
 12 23  1  0  0  0  0
 12 22  1  0  0  0  0
 13  5  1  0  0  0  0
 14  6  1  0  0  0  0
 17 10  1  0  0  0  0
 19 11  1  0  0  0  0
 20 11  1  0  0  0  0
 21 12  1  0  0  0  0
M  END
