8,10
q = 0.0, confidence = 0.998

 32 32  0  0  1  0  0  0  0  0999 V2000
   -3.7292   -0.6786    1.5422 F   0  0  0  0  0  0  0  0  0  0  0  0
   -3.4425   -2.7064    0.7945 F   0  0  0  0  0  0  0  0  0  0  0  0
   -4.0114   -1.1160   -0.5850 F   0  0  0  0  0  0  0  0  0  0  0  0
    2.9354    0.4950    0.5660 O   0  0  0  0  0  0  0  0  0  0  0  0
    3.1504   -1.3086   -0.9269 O   0  0  0  0  0  0  0  0  0  0  0  0
    0.9530   -0.5157   -0.2368 C   0  0  0  0  0  0  0  0  0  0  0  0
    0.1141   -0.9277   -1.3117 C   0  0  0  0  0  3  0  0  0  0  0  0
   -1.2611   -1.1894   -1.0723 C   0  0  0  0  0  3  0  0  0  0  0  0
   -1.7943   -1.1093    0.2471 C   0  0  1  0  0  3  0  0  0  0  0  0
   -0.9345   -0.7312    1.3245 C   0  0  0  0  0  3  0  0  0  0  0  0
    0.4376   -0.4615    1.0931 C   0  0  0  0  0  0  0  0  0  0  0  0
    2.4066   -0.1701   -0.5435 C   0  0  0  0  0  0  0  0  0  0  0  0
    4.1178    1.2510    0.2845 C   0  0  0  0  0  0  0  0  0  0  0  0
    4.6166    1.8590    1.5796 C   0  0  0  0  0  0  0  0  0  0  0  0
    3.2295   -2.3506    0.0527 C   0  0  0  0  0  0  0  0  0  0  0  0
    4.2314   -3.3787   -0.4364 C   0  0  0  0  0  0  0  0  0  0  0  0
   -3.2532   -1.3940    0.4987 C   0  0  0  0  0  0  0  0  0  0  0  0
    0.5143   -0.9611   -2.3339 H   0  0  0  0  0  0  0  0  0  0  0  0
   -1.9323   -1.4237   -1.9097 H   0  0  0  0  0  0  0  0  0  0  0  0
   -1.3567   -0.6140    2.3320 H   0  0  0  0  0  0  0  0  0  0  0  0
    1.0914   -0.1105    1.9004 H   0  0  0  0  0  0  0  0  0  0  0  0
    2.4400    0.4806   -1.4476 H   0  0  0  0  0  0  0  0  0  0  0  0
    4.8850    0.5872   -0.1741 H   0  0  0  0  0  0  0  0  0  0  0  0
    3.8685    2.0452   -0.4580 H   0  0  0  0  0  0  0  0  0  0  0  0
    5.5241    2.4669    1.3952 H   0  0  0  0  0  0  0  0  0  0  0  0
    4.8698    1.0701    2.3158 H   0  0  0  0  0  0  0  0  0  0  0  0
    3.8424    2.5151    2.0246 H   0  0  0  0  0  0  0  0  0  0  0  0
    3.5399   -1.9239    1.0329 H   0  0  0  0  0  0  0  0  0  0  0  0
    2.2265   -2.8172    0.1980 H   0  0  0  0  0  0  0  0  0  0  0  0
    4.3115   -4.2153    0.2856 H   0  0  0  0  0  0  0  0  0  0  0  0
    5.2345   -2.9236   -0.5578 H   0  0  0  0  0  0  0  0  0  0  0  0
    3.9217   -3.7921   -1.4169 H   0  0  0  0  0  0  0  0  0  0  0  0
  3 17  1  0  0  0  0
  5 12  1  0  0  0  0
  5 15  1  0  0  0  0
  6 11  2  0  0  0  0
  7  8  1  0  0  0  0
  7  6  1  0  0  0  0
  8  9  1  0  0  0  0
  9 17  1  6  0  0  0
  9 10  1  0  0  0  0
 10 20  1  0  0  0  0
 11 10  1  0  0  0  0
 11 21  1  0  0  0  0
 12  6  1  0  0  0  0
 12  4  1  0  0  0  0
 13  4  1  0  0  0  0
 13 14  1  0  0  0  0
 14 27  1  0  0  0  0
 14 26  1  0  0  0  0
 15 29  1  0  0  0  0
 15 28  1  0  0  0  0
 16 15  1  0  0  0  0
 16 30  1  0  0  0  0
 17  2  1  0  0  0  0
 17  1  1  0  0  0  0
 18  7  1  0  0  0  0
 19  8  1  0  0  0  0
 22 12  1  0  0  0  0
 23 13  1  0  0  0  0
 24 13  1  0  0  0  0
 25 14  1  0  0  0  0
 31 16  1  0  0  0  0
 32 16  1  0  0  0  0
M  END
