5,9
q = 0.0, confidence = 0.998

 29 29  0  0  1  0  0  0  0  0999 V2000
    3.5453   -2.0780   -0.8402 Cl  0  0  0  0  0  0  0  0  0  0  0  0
   -2.9691   -1.1129    0.8921 O   0  0  0  0  0  0  0  0  0  0  0  0
   -2.4987    0.7231   -0.5007 O   0  0  0  0  0  0  0  0  0  0  0  0
   -0.6846   -0.6197    0.1745 C   0  0  2  0  0  3  0  0  0  0  0  0
    0.1646   -1.1444    1.1877 C   0  0  0  0  0  3  0  0  0  0  0  0
    1.4760   -1.6173    0.8854 C   0  0  0  0  0  3  0  0  0  0  0  0
    1.9433   -1.5185   -0.4514 C   0  0  0  0  0  0  0  0  0  0  0  0
    1.1215   -0.9847   -1.4883 C   0  0  0  0  0  0  0  0  0  0  0  0
   -0.1809   -0.5268   -1.1592 C   0  0  0  0  0  3  0  0  0  0  0  0
   -2.0589   -0.0855    0.5525 C   0  0  0  0  0  0  0  0  0  0  0  0
   -3.2218   -2.0712   -0.1399 C   0  0  0  0  0  0  0  0  0  0  0  0
   -4.3379   -2.9844    0.3301 C   0  0  0  0  0  0  0  0  0  0  0  0
   -3.5569    1.6224   -0.1659 C   0  0  0  0  0  0  0  0  0  0  0  0
   -3.7854    2.5447   -1.3471 C   0  0  0  0  0  0  0  0  0  0  0  0
   -0.1917   -1.1707    2.2280 H   0  0  0  0  0  0  0  0  0  0  0  0
    2.1385   -2.0031    1.6700 H   0  0  0  0  0  0  0  0  0  0  0  0
    1.5199   -0.8891   -2.5060 H   0  0  0  0  0  0  0  0  0  0  0  0
   -0.8119   -0.0538   -1.9230 H   0  0  0  0  0  0  0  0  0  0  0  0
   -1.9729    0.5074    1.4930 H   0  0  0  0  0  0  0  0  0  0  0  0
   -3.5032   -1.5481   -1.0819 H   0  0  0  0  0  0  0  0  0  0  0  0
   -2.2967   -2.6579   -0.3536 H   0  0  0  0  0  0  0  0  0  0  0  0
   -4.5578   -3.7545   -0.4356 H   0  0  0  0  0  0  0  0  0  0  0  0
   -5.2639   -2.4065    0.5215 H   0  0  0  0  0  0  0  0  0  0  0  0
   -4.0542   -3.4974    1.2706 H   0  0  0  0  0  0  0  0  0  0  0  0
   -3.2676    2.2045    0.7417 H   0  0  0  0  0  0  0  0  0  0  0  0
   -4.4752    1.0474    0.0932 H   0  0  0  0  0  0  0  0  0  0  0  0
   -4.5916    3.2702   -1.1217 H   0  0  0  0  0  0  0  0  0  0  0  0
   -4.0796    1.9675   -2.2464 H   0  0  0  0  0  0  0  0  0  0  0  0
   -2.8582    3.1051   -1.5798 H   0  0  0  0  0  0  0  0  0  0  0  0
  1  7  1  0  0  0  0
  3 13  1  0  0  0  0
  3 10  1  0  0  0  0
  4 10  1  1  0  0  0
  4  5  1  0  0  0  0
  5 15  1  0  0  0  0
  6  5  1  0  0  0  0
  6 16  1  0  0  0  0
  7  6  1  0  0  0  0
  8  9  1  0  0  0  0
  8  7  2  0  0  0  0
  9  4  1  0  0  0  0
 10  2  1  0  0  0  0
 10 19  1  0  0  0  0
 11 12  1  0  0  0  0
 11  2  1  0  0  0  0
 12 23  1  0  0  0  0
 12 24  1  0  0  0  0
 13 26  1  0  0  0  0
 13 25  1  0  0  0  0
 14 27  1  0  0  0  0
 14 13  1  0  0  0  0
 17  8  1  0  0  0  0
 18  9  1  0  0  0  0
 20 11  1  0  0  0  0
 21 11  1  0  0  0  0
 22 12  1  0  0  0  0
 28 14  1  0  0  0  0
 29 14  1  0  0  0  0
M  END
