1,17
q = 0.0, confidence = 0.508

 27 28  0  0  1  0  0  0  0  0999 V2000
   -1.3266   -1.1467   -0.0001 C   0  0  1  0  0  3  0  0  0  0  0  0
   -0.5963   -1.5904   -1.1480 C   0  0  0  0  0  3  0  0  0  0  0  0
    0.5315   -2.3464   -0.7050 C   0  0  0  0  0  0  0  0  0  0  0  0
    0.5315   -2.3465    0.7047 C   0  0  0  0  0  0  0  0  0  0  0  0
   -0.5963   -1.5905    1.1478 C   0  0  0  0  0  3  0  0  0  0  0  0
   -2.3415   -0.0000   -0.0000 C   0  0  0  0  0  0  0  0  0  0  0  0
   -3.2248   -0.0000    1.2539 C   0  0  0  0  0  0  0  0  0  0  0  0
   -3.2249    0.0000   -1.2539 C   0  0  0  0  0  0  0  0  0  0  0  0
   -0.8320   -1.3670   -2.1944 H   0  0  0  0  0  0  0  0  0  0  0  0
    1.2986   -2.7829   -1.3531 H   0  0  0  0  0  0  0  0  0  0  0  0
    1.2986   -2.7830    1.3528 H   0  0  0  0  0  0  0  0  0  0  0  0
   -0.8320   -1.3671    2.1942 H   0  0  0  0  0  0  0  0  0  0  0  0
   -2.6353   -0.0000    2.1900 H   0  0  0  0  0  0  0  0  0  0  0  0
   -3.8725   -0.8989    1.2660 H   0  0  0  0  0  0  0  0  0  0  0  0
   -2.6354    0.0000   -2.1900 H   0  0  0  0  0  0  0  0  0  0  0  0
   -3.8726   -0.8989   -1.2659 H   0  0  0  0  0  0  0  0  0  0  0  0
   -1.3266    1.1467   -0.0000 C   0  0  2  0  0  3  0  0  0  0  0  0
   -0.5963    1.5904   -1.1479 C   0  0  0  0  0  3  0  0  0  0  0  0
    0.5315    2.3465   -0.7049 C   0  0  0  0  0  0  0  0  0  0  0  0
    0.5315    2.3465    0.7048 C   0  0  0  0  0  0  0  0  0  0  0  0
   -0.5963    1.5904    1.1478 C   0  0  0  0  0  3  0  0  0  0  0  0
   -3.8725    0.8989    1.2660 H   0  0  0  0  0  0  0  0  0  0  0  0
   -3.8726    0.8989   -1.2659 H   0  0  0  0  0  0  0  0  0  0  0  0
   -0.8320    1.3670   -2.1943 H   0  0  0  0  0  0  0  0  0  0  0  0
    1.2986    2.7829   -1.3530 H   0  0  0  0  0  0  0  0  0  0  0  0
    1.2986    2.7830    1.3528 H   0  0  0  0  0  0  0  0  0  0  0  0
   -0.8320    1.3671    2.1942 H   0  0  0  0  0  0  0  0  0  0  0  0
  1  6  1  1  0  0  0
  1  5  1  0  0  0  0
  2  3  1  0  0  0  0
  2  1  1  0  0  0  0
  3  4  2  0  0  0  0
  4  5  1  0  0  0  0
  4 11  1  0  0  0  0
  5 12  1  0  0  0  0
  6  7  1  0  0  0  0
  7 14  1  0  0  0  0
  7 22  1  0  0  0  0
  7 13  1  0  0  0  0
  8  6  1  0  0  0  0
  9  2  1  0  0  0  0
 10  3  1  0  0  0  0
 15  8  1  0  0  0  0
 16  8  1  0  0  0  0
 17  6  1  1  0  0  0
 17 21  1  0  0  0  0
 18 19  1  0  0  0  0
 18 17  1  0  0  0  0
 19 20  2  0  0  0  0
 20 21  1  0  0  0  0
 20 26  1  0  0  0  0
 21 27  1  0  0  0  0
 23  8  1  0  0  0  0
 24 18  1  0  0  0  0
 25 19  1  0  0  0  0
M  END
