6,9
q = -2.0, confidence = 0.754

 26 26  0  0  1  0  0  0  0  0999 V2000
   -3.5843   -0.0405    1.6575 Cl  0  0  0  0  0  0  0  0  0  0  0  0
   -4.7734   -0.7685   -0.9469 Cl  0  0  0  0  0  0  0  0  0  0  0  0
    0.3224    2.5251    1.0584 O   0  0  0  0  0  0  0  0  0  0  0  0
    1.6280    2.7156   -0.7882 O   0  0  0  0  0  0  0  0  0  0  0  0
    0.7377    2.0590    0.0060 C   0  0  0  0  0  0  0  0  0  0  0  0
    0.3788    0.7357   -0.5724 C   0  0  0  0  0  3  0  0  0  0  0  0
   -0.8464    0.0820    0.0552 C   0  0  2  0  0  0  0  0  0  0  0  0
   -0.4037   -1.3258    0.4137 C   0  0  0  0  0  3  0  0  0  0  0  0
    0.1573   -2.2304   -0.5135 C   0  0  0  0  0  3  0  0  0  0  0  0
    0.7950   -1.8184   -1.7212 C   0  0  0  0  0  3  0  0  0  0  0  0
   -2.1204    0.1478   -0.7688 C   0  0  1  0  0  0  0  0  0  0  0  0
   -3.4753    0.1100   -0.1112 C   0  0  0  0  0  0  0  0  0  0  0  0
   -2.9921    1.3993   -0.7081 C   0  0  0  0  0  0  0  0  0  0  0  0
    2.0881    3.9726   -0.2841 C   0  0  0  0  0  0  0  0  0  0  0  0
    0.3856    0.8004   -1.6744 H   0  0  0  0  0  0  0  0  0  0  0  0
   -1.0278    0.6195    1.0082 H   0  0  0  0  0  0  0  0  0  0  0  0
   -0.7407   -1.7394    1.3777 H   0  0  0  0  0  0  0  0  0  0  0  0
    0.3034   -3.2692   -0.1694 H   0  0  0  0  0  0  0  0  0  0  0  0
    0.3731   -1.0202   -2.3470 H   0  0  0  0  0  0  0  0  0  0  0  0
    1.3704   -2.5773   -2.2733 H   0  0  0  0  0  0  0  0  0  0  0  0
   -2.0826   -0.3778   -1.7381 H   0  0  0  0  0  0  0  0  0  0  0  0
   -2.6770    2.1859   -0.0039 H   0  0  0  0  0  0  0  0  0  0  0  0
   -3.4907    1.7501   -1.6241 H   0  0  0  0  0  0  0  0  0  0  0  0
    1.2461    4.6831   -0.1575 H   0  0  0  0  0  0  0  0  0  0  0  0
    2.8081    4.3569   -1.0285 H   0  0  0  0  0  0  0  0  0  0  0  0
    2.5815    3.8474    0.7015 H   0  0  0  0  0  0  0  0  0  0  0  0
  2 12  1  0  0  0  0
  4 14  1  0  0  0  0
  4  5  1  0  0  0  0
  5  3  2  0  0  0  0
  6  5  1  0  0  0  0
  6  7  1  0  0  0  0
  7  8  1  0  0  0  0
  7 16  1  1  0  0  0
  8 17  1  0  0  0  0
  9 18  1  0  0  0  0
  9  8  1  0  0  0  0
 10  9  1  0  0  0  0
 11 21  1  6  0  0  0
 11 13  1  0  0  0  0
 11 12  1  0  0  0  0
 11  7  1  0  0  0  0
 12  1  1  0  0  0  0
 13 12  1  0  0  0  0
 13 22  1  0  0  0  0
 14 24  1  0  0  0  0
 14 26  1  0  0  0  0
 15  6  1  0  0  0  0
 19 10  1  0  0  0  0
 20 10  1  0  0  0  0
 23 13  1  0  0  0  0
 25 14  1  0  0  0  0
M  END
