3,22
q = -1.0

 32 32  0  0  1  0  0  0  0  0999 V2000
    2.8522    1.3216   -0.6544 Si  0  0  0  0  0  0  0  0  0  0  0  0
    2.2942    0.2291    0.7910 C   0  0  2  0  0  3  0  0  0  0  0  0
    2.1586   -1.2189    0.6261 C   0  0  1  0  0  3  0  0  0  0  0  0
    1.2339   -1.6842    1.6491 C   0  0  0  0  0  0  0  0  0  0  0  0
    0.7616   -0.5563    2.3726 C   0  0  0  0  0  0  0  0  0  0  0  0
    1.3738    0.6192    1.8281 C   0  0  1  0  0  3  0  0  0  0  0  0
    2.0683   -1.8183   -0.6912 C   0  0  0  0  0  3  0  0  0  0  0  0
    1.8252   -2.8925   -0.7469 H   0  0  0  0  0  0  0  0  0  0  0  0
    2.7358   -1.4801   -1.4976 H   0  0  0  0  0  0  0  0  0  0  0  0
    0.9741   -3.1214    1.9843 C   0  0  0  0  0  0  0  0  0  0  0  0
    1.1742   -3.7880    1.1252 H   0  0  0  0  0  0  0  0  0  0  0  0
   -0.0623   -3.3054    2.3285 H   0  0  0  0  0  0  0  0  0  0  0  0
    1.6493   -3.4458    2.8061 H   0  0  0  0  0  0  0  0  0  0  0  0
   -0.0669   -0.5895    3.6200 C   0  0  0  0  0  0  0  0  0  0  0  0
   -0.6086   -1.5457    3.7419 H   0  0  0  0  0  0  0  0  0  0  0  0
   -0.8088    0.2327    3.6562 H   0  0  0  0  0  0  0  0  0  0  0  0
    0.5841   -0.4641    4.5134 H   0  0  0  0  0  0  0  0  0  0  0  0
    1.2081    1.9781    2.4455 C   0  0  0  0  0  0  0  0  0  0  0  0
    1.4835    2.7933    1.7550 H   0  0  0  0  0  0  0  0  0  0  0  0
    1.8595    2.0797    3.3420 H   0  0  0  0  0  0  0  0  0  0  0  0
    0.1680    2.1531    2.7853 H   0  0  0  0  0  0  0  0  0  0  0  0
    1.2769    1.0573   -1.6076 C   0  0  0  0  0  3  0  0  0  0  0  0
    1.3210    0.6866   -2.6494 H   0  0  0  0  0  0  0  0  0  0  0  0
    0.6401    1.9669   -1.5790 H   0  0  0  0  0  0  0  0  0  0  0  0
    4.4709    0.7029   -1.4217 C   0  0  0  0  0  0  0  0  0  0  0  0
    4.7050    1.2936   -2.3319 H   0  0  0  0  0  0  0  0  0  0  0  0
    4.4439   -0.3667   -1.7046 H   0  0  0  0  0  0  0  0  0  0  0  0
    5.3059    0.8395   -0.7031 H   0  0  0  0  0  0  0  0  0  0  0  0
    3.1531    3.1353   -0.1726 C   0  0  0  0  0  0  0  0  0  0  0  0
    3.6502    3.6481   -1.0227 H   0  0  0  0  0  0  0  0  0  0  0  0
    3.8140    3.2315    0.7135 H   0  0  0  0  0  0  0  0  0  0  0  0
    2.2106    3.6816    0.0315 H   0  0  0  0  0  0  0  0  0  0  0  0
  1 29  1  0  0  0  0
  2  1  1  6  0  0  0
  2  6  1  0  0  0  0
  3  7  1  6  0  0  0
  3  2  1  0  0  0  0
  3  4  1  0  0  0  0
  4 10  1  0  0  0  0
  4  5  2  0  0  0  0
  5 14  1  0  0  0  0
  6  5  1  0  0  0  0
  6 18  1  1  0  0  0
  8  7  1  0  0  0  0
  9  7  1  0  0  0  0
 10 12  1  0  0  0  0
 10 13  1  0  0  0  0
 11 10  1  0  0  0  0
 14 16  1  0  0  0  0
 14 15  1  0  0  0  0
 14 17  1  0  0  0  0
 18 21  1  0  0  0  0
 18 20  1  0  0  0  0
 19 18  1  0  0  0  0
 22 24  1  0  0  0  0
 22  1  1  0  0  0  0
 23 22  1  0  0  0  0
 25 28  1  0  0  0  0
 25  1  1  0  0  0  0
 26 25  1  0  0  0  0
 27 25  1  0  0  0  0
 29 32  1  0  0  0  0
 29 31  1  0  0  0  0
 30 29  1  0  0  0  0
M  END
