6,24
q = -1.0

 48 51  0  0  0  0  0  0  0  0999 V2000
   -0.0473   -3.2741   -1.4423 N   0  0  0  0  0  0  0  0  0  0  0  0
    1.7359   -2.0701   -1.4369 N   0  0  0  0  0  0  0  0  0  0  0  0
   -1.9727   -2.5284    0.9808 C   0  0  0  0  0  0  0  0  0  0  0  0
   -3.0400   -1.6077    0.7649 C   0  0  0  0  0  0  0  0  0  0  0  0
   -3.8129   -1.7074   -0.0104 H   0  0  0  0  0  0  0  0  0  0  0  0
   -2.9469   -0.5283    1.6854 C   0  0  0  0  0  3  0  0  0  0  0  0
   -3.6494    0.3105    1.7713 H   0  0  0  0  0  0  0  0  0  0  0  0
   -1.8366   -0.7993    2.5592 C   0  0  0  0  0  0  0  0  0  0  0  0
   -1.2919   -0.1045    3.6736 C   0  0  0  0  0  0  0  0  0  0  0  0
   -1.7572    0.8317    4.0170 H   0  0  0  0  0  0  0  0  0  0  0  0
   -0.1714   -0.6195    4.3167 C   0  0  0  0  0  0  0  0  0  0  0  0
    0.2520   -0.0898    5.1832 H   0  0  0  0  0  0  0  0  0  0  0  0
    0.4467   -1.8205    3.8637 C   0  0  0  0  0  0  0  0  0  0  0  0
    1.3364   -2.1982    4.3907 H   0  0  0  0  0  0  0  0  0  0  0  0
   -0.0563   -2.5242    2.7728 C   0  0  0  0  0  0  0  0  0  0  0  0
    0.4260   -3.4573    2.4408 H   0  0  0  0  0  0  0  0  0  0  0  0
   -1.2178   -2.0394    2.1075 C   0  0  0  0  0  0  0  0  0  0  0  0
   -1.7862   -3.8406    0.2677 C   0  0  0  0  0  0  0  0  0  0  0  0
   -2.7269   -4.4313    0.3220 H   0  0  0  0  0  0  0  0  0  0  0  0
   -1.0119   -4.4499    0.7780 H   0  0  0  0  0  0  0  0  0  0  0  0
   -1.4208   -3.7333   -1.2221 C   0  0  0  0  0  0  0  0  0  0  0  0
   -1.5144   -4.7185   -1.7196 H   0  0  0  0  0  0  0  0  0  0  0  0
   -2.1111   -3.0351   -1.7391 H   0  0  0  0  0  0  0  0  0  0  0  0
    0.4167   -2.0446   -1.0655 C   0  0  0  0  0  2  0  0  0  0  0  0
    2.0868   -3.2810   -2.0211 C   0  0  0  0  0  0  0  0  0  0  0  0
    3.0983   -3.4812   -2.3862 H   0  0  0  0  0  0  0  0  0  0  0  0
    0.9494   -4.0481   -2.0208 C   0  0  0  0  0  0  0  0  0  0  0  0
    0.7690   -5.0630   -2.3884 H   0  0  0  0  0  0  0  0  0  0  0  0
    2.6366   -0.9570   -1.2762 C   0  0  0  0  0  0  0  0  0  0  0  0
    2.6302    0.0612   -2.2566 C   0  0  0  0  0  0  0  0  0  0  0  0
    3.4771    1.1632   -2.0516 C   0  0  0  0  0  0  0  0  0  0  0  0
    3.4781    1.9733   -2.7982 H   0  0  0  0  0  0  0  0  0  0  0  0
    4.3157    1.2613   -0.9242 C   0  0  0  0  0  0  0  0  0  0  0  0
    4.3018    0.2130    0.0128 C   0  0  0  0  0  0  0  0  0  0  0  0
    4.9422    0.2792    0.9062 H   0  0  0  0  0  0  0  0  0  0  0  0
    3.4626   -0.9065   -0.1334 C   0  0  0  0  0  0  0  0  0  0  0  0
    1.7243   -0.0155   -3.4579 C   0  0  0  0  0  0  0  0  0  0  0  0
    0.6668    0.1704   -3.1739 H   0  0  0  0  0  0  0  0  0  0  0  0
    1.7573   -1.0142   -3.9384 H   0  0  0  0  0  0  0  0  0  0  0  0
    2.0046    0.7430   -4.2124 H   0  0  0  0  0  0  0  0  0  0  0  0
    5.1691    2.4850   -0.7139 C   0  0  0  0  0  0  0  0  0  0  0  0
    4.5400    3.3465   -0.4037 H   0  0  0  0  0  0  0  0  0  0  0  0
    5.6914    2.7839   -1.6449 H   0  0  0  0  0  0  0  0  0  0  0  0
    5.9273    2.3266    0.0767 H   0  0  0  0  0  0  0  0  0  0  0  0
    3.3784   -1.9614    0.9370 C   0  0  0  0  0  0  0  0  0  0  0  0
    2.4350   -1.8474    1.5148 H   0  0  0  0  0  0  0  0  0  0  0  0
    4.2194   -1.8716    1.6496 H   0  0  0  0  0  0  0  0  0  0  0  0
    3.3808   -2.9889    0.5213 H   0  0  0  0  0  0  0  0  0  0  0  0
  1 21  1  0  0  0  0
  1 24  1  0  0  0  0
  2 29  1  0  0  0  0
  2 24  1  0  0  0  0
  3 17  1  0  0  0  0
  4  3  2  0  0  0  0
  4  6  1  0  0  0  0
  5  4  1  0  0  0  0
  6  7  1  0  0  0  0
  6  8  1  0  0  0  0
  8  9  1  0  0  0  0
  9 10  1  0  0  0  0
  9 11  2  0  0  0  0
 11 12  1  0  0  0  0
 13 11  1  0  0  0  0
 13 14  1  0  0  0  0
 15 13  2  0  0  0  0
 16 15  1  0  0  0  0
 17  8  2  0  0  0  0
 17 15  1  0  0  0  0
 18 19  1  0  0  0  0
 18 20  1  0  0  0  0
 18  3  1  0  0  0  0
 21 18  1  0  0  0  0
 22 21  1  0  0  0  0
 23 21  1  0  0  0  0
 25 27  2  0  0  0  0
 25  2  1  0  0  0  0
 26 25  1  0  0  0  0
 27  1  1  0  0  0  0
 28 27  1  0  0  0  0
 29 36  1  0  0  0  0
 30 31  1  0  0  0  0
 30 29  2  0  0  0  0
 31 33  2  0  0  0  0
 32 31  1  0  0  0  0
 33 41  1  0  0  0  0
 33 34  1  0  0  0  0
 34 35  1  0  0  0  0
 36 34  2  0  0  0  0
 36 45  1  0  0  0  0
 37 38  1  0  0  0  0
 37 30  1  0  0  0  0
 39 37  1  0  0  0  0
 40 37  1  0  0  0  0
 41 42  1  0  0  0  0
 41 44  1  0  0  0  0
 43 41  1  0  0  0  0
 45 46  1  0  0  0  0
 45 47  1  0  0  0  0
 48 45  1  0  0  0  0
M  END
