2,4
q = 0.0, confidence = 0.992

 43 45  0  0  1  0  0  0  0  0999 V2000
    0.6385    0.0374    0.5490 P   0  0  0  0  0  0  0  0  0  0  0  0
   -2.1374    1.5489    0.1701 C   0  0  0  0  0  3  0  0  0  0  0  0
   -2.5181    0.6012    1.1957 C   0  0  1  0  0  3  0  0  0  0  0  0
   -3.2330   -0.5630    0.7706 C   0  0  0  0  0  3  0  0  0  0  0  0
   -3.6437   -0.7577   -0.5995 C   0  0  0  0  0  0  0  0  0  0  0  0
   -3.2419    0.1755   -1.5779 C   0  0  0  0  0  0  0  0  0  0  0  0
   -2.4785    1.3364   -1.1993 C   0  0  0  0  0  3  0  0  0  0  0  0
   -2.0912    0.7650    2.6354 C   0  0  0  0  0  0  0  0  0  0  0  0
   -0.6127    1.1251    2.8765 C   0  0  0  0  0  0  0  0  0  0  0  0
    0.4096    0.0864    2.3871 C   0  0  0  0  0  0  0  0  0  0  0  0
    1.3005    1.7046    0.1112 C   0  0  0  0  0  0  0  0  0  0  0  0
    1.0380    2.2288   -1.1725 C   0  0  0  0  0  0  0  0  0  0  0  0
    1.5378    3.4897   -1.5330 C   0  0  0  0  0  0  0  0  0  0  0  0
    2.2934    4.2408   -0.6186 C   0  0  0  0  0  0  0  0  0  0  0  0
    2.5640    3.7197    0.6567 C   0  0  0  0  0  0  0  0  0  0  0  0
    2.0763    2.4548    1.0190 C   0  0  0  0  0  0  0  0  0  0  0  0
    2.0798   -1.0617    0.2797 C   0  0  0  0  0  0  0  0  0  0  0  0
    2.9321   -0.8227   -0.8174 C   0  0  0  0  0  0  0  0  0  0  0  0
    4.0298   -1.6626   -1.0501 C   0  0  0  0  0  0  0  0  0  0  0  0
    4.2858   -2.7448   -0.1940 C   0  0  0  0  0  0  0  0  0  0  0  0
    3.4343   -2.9900    0.8943 C   0  0  0  0  0  0  0  0  0  0  0  0
    2.3301   -2.1584    1.1291 C   0  0  0  0  0  0  0  0  0  0  0  0
   -1.5106    2.4164    0.4281 H   0  0  0  0  0  0  0  0  0  0  0  0
   -3.4194   -1.3649    1.4997 H   0  0  0  0  0  0  0  0  0  0  0  0
   -4.1361   -1.6949   -0.8924 H   0  0  0  0  0  0  0  0  0  0  0  0
   -3.4146   -0.0343   -2.6431 H   0  0  0  0  0  0  0  0  0  0  0  0
   -2.1063    2.0271   -1.9683 H   0  0  0  0  0  0  0  0  0  0  0  0
   -2.3247   -0.1775    3.1723 H   0  0  0  0  0  0  0  0  0  0  0  0
   -2.7235    1.5526    3.1020 H   0  0  0  0  0  0  0  0  0  0  0  0
   -0.4789    1.2451    3.9718 H   0  0  0  0  0  0  0  0  0  0  0  0
   -0.3772    2.1213    2.4438 H   0  0  0  0  0  0  0  0  0  0  0  0
    0.0763   -0.9396    2.6497 H   0  0  0  0  0  0  0  0  0  0  0  0
    1.3971    0.2465    2.8657 H   0  0  0  0  0  0  0  0  0  0  0  0
    0.4676    1.6147   -1.8902 H   0  0  0  0  0  0  0  0  0  0  0  0
    1.3364    3.8862   -2.5400 H   0  0  0  0  0  0  0  0  0  0  0  0
    2.6785    5.2324   -0.9015 H   0  0  0  0  0  0  0  0  0  0  0  0
    3.1631    4.2996    1.3752 H   0  0  0  0  0  0  0  0  0  0  0  0
    2.3112    2.0538    2.0163 H   0  0  0  0  0  0  0  0  0  0  0  0
    2.7312    0.0167   -1.4969 H   0  0  0  0  0  0  0  0  0  0  0  0
    4.6870   -1.4704   -1.9115 H   0  0  0  0  0  0  0  0  0  0  0  0
    5.1484   -3.4031   -0.3787 H   0  0  0  0  0  0  0  0  0  0  0  0
    3.6220   -3.8440    1.5626 H   0  0  0  0  0  0  0  0  0  0  0  0
    1.6519   -2.3832    1.9628 H   0  0  0  0  0  0  0  0  0  0  0  0
  1 10  1  0  0  0  0
  2 23  1  0  0  0  0
  2  3  1  0  0  0  0
  3  8  1  6  0  0  0
  4  3  1  0  0  0  0
  4 24  1  0  0  0  0
  5  4  1  0  0  0  0
  6  7  1  0  0  0  0
  6  5  2  0  0  0  0
  7  2  1  0  0  0  0
  8  9  1  0  0  0  0
  8 29  1  0  0  0  0
  8 28  1  0  0  0  0
  9 30  1  0  0  0  0
 10 32  1  0  0  0  0
 10 33  1  0  0  0  0
 10  9  1  0  0  0  0
 11  1  1  0  0  0  0
 11 16  1  0  0  0  0
 12 11  2  0  0  0  0
 13 12  1  0  0  0  0
 13 14  2  0  0  0  0
 14 15  1  0  0  0  0
 15 16  2  0  0  0  0
 15 37  1  0  0  0  0
 16 38  1  0  0  0  0
 17  1  1  0  0  0  0
 17 22  1  0  0  0  0
 18 17  2  0  0  0  0
 19 18  1  0  0  0  0
 19 20  2  0  0  0  0
 20 21  1  0  0  0  0
 21 22  2  0  0  0  0
 21 42  1  0  0  0  0
 22 43  1  0  0  0  0
 25  5  1  0  0  0  0
 26  6  1  0  0  0  0
 27  7  1  0  0  0  0
 31  9  1  0  0  0  0
 34 12  1  0  0  0  0
 35 13  1  0  0  0  0
 36 14  1  0  0  0  0
 39 18  1  0  0  0  0
 40 19  1  0  0  0  0
 41 20  1  0  0  0  0
M  END
