1,3
q = -2.0, confidence = 0.8

 33 36  0  0  1  0  0  0  0  0999 V2000
    0.1565    1.5064    0.0514 C   0  0  0  0  0  3  0  0  0  0  0  0
   -0.7931    1.0311   -1.0980 C   0  0  1  0  0  0  0  0  0  0  0  0
   -0.9195   -0.5587   -1.3111 C   0  0  0  0  0  3  0  0  0  0  0  0
   -2.3618   -0.8586   -1.3215 C   0  0  0  0  0  0  0  0  0  0  0  0
   -3.0788   -2.0337   -1.5482 C   0  0  0  0  0  0  0  0  0  0  0  0
   -4.4987   -2.0069   -1.4119 C   0  0  0  0  0  0  0  0  0  0  0  0
   -5.2030   -0.8525   -1.0671 C   0  0  0  0  0  0  0  0  0  0  0  0
   -5.0438    1.6453   -0.4978 C   0  0  0  0  0  0  0  0  0  0  0  0
   -4.2012    2.7430   -0.3123 C   0  0  0  0  0  0  0  0  0  0  0  0
   -2.7878    2.6592   -0.4751 C   0  0  0  0  0  0  0  0  0  0  0  0
   -2.2374    1.4379   -0.8466 C   0  0  0  0  0  0  0  0  0  0  0  0
   -3.0894    0.3233   -1.0095 C   0  0  0  0  0  0  0  0  0  0  0  0
   -4.5014    0.3749   -0.8552 C   0  0  0  0  0  0  0  0  0  0  0  0
    1.1320    2.5949   -0.2010 C   0  0  0  0  0  0  0  0  0  0  0  0
    1.4767    3.0976   -1.4789 C   0  0  0  0  0  0  0  0  0  0  0  0
    2.4365    4.1112   -1.6356 C   0  0  0  0  0  0  0  0  0  0  0  0
    3.0795    4.6662   -0.5195 C   0  0  0  0  0  0  0  0  0  0  0  0
    2.7301    4.2031    0.7622 C   0  0  0  0  0  0  0  0  0  0  0  0
    1.7743    3.1940    0.9158 C   0  0  0  0  0  0  0  0  0  0  0  0
   -0.4575    1.7632    0.9313 H   0  0  0  0  0  0  0  0  0  0  0  0
   -0.4326    1.4665   -2.0529 H   0  0  0  0  0  0  0  0  0  0  0  0
   -0.4084   -0.9213   -2.2216 H   0  0  0  0  0  0  0  0  0  0  0  0
   -2.5705   -2.9731   -1.8146 H   0  0  0  0  0  0  0  0  0  0  0  0
   -5.0592   -2.9397   -1.5819 H   0  0  0  0  0  0  0  0  0  0  0  0
   -6.2992   -0.8805   -0.9682 H   0  0  0  0  0  0  0  0  0  0  0  0
   -6.1312    1.7551   -0.3616 H   0  0  0  0  0  0  0  0  0  0  0  0
   -4.6421    3.7120   -0.0303 H   0  0  0  0  0  0  0  0  0  0  0  0
   -2.1562    3.5452   -0.3090 H   0  0  0  0  0  0  0  0  0  0  0  0
    0.9780    2.7030   -2.3766 H   0  0  0  0  0  0  0  0  0  0  0  0
    2.6767    4.4750   -2.6470 H   0  0  0  0  0  0  0  0  0  0  0  0
    3.8318    5.4593   -0.6432 H   0  0  0  0  0  0  0  0  0  0  0  0
    3.2092    4.6377    1.6536 H   0  0  0  0  0  0  0  0  0  0  0  0
    1.5096    2.8406    1.9252 H   0  0  0  0  0  0  0  0  0  0  0  0
  1 20  1  0  0  0  0
  2 21  1  6  0  0  0
  2 11  1  0  0  0  0
  2  1  1  0  0  0  0
  3  2  1  0  0  0  0
  4  3  1  0  0  0  0
  4 12  1  0  0  0  0
  5  6  1  0  0  0  0
  5  4  2  0  0  0  0
  6  7  2  0  0  0  0
  7 25  1  0  0  0  0
  7 13  1  0  0  0  0
  8 26  1  0  0  0  0
  8  9  1  0  0  0  0
  9 27  1  0  0  0  0
 10  9  2  0  0  0  0
 10 28  1  0  0  0  0
 11 10  1  0  0  0  0
 12 13  1  0  0  0  0
 12 11  2  0  0  0  0
 13  8  2  0  0  0  0
 14  1  1  0  0  0  0
 14 19  1  0  0  0  0
 15 14  2  0  0  0  0
 16 15  1  0  0  0  0
 16 17  2  0  0  0  0
 17 18  1  0  0  0  0
 18 19  2  0  0  0  0
 18 32  1  0  0  0  0
 19 33  1  0  0  0  0
 22  3  1  0  0  0  0
 23  5  1  0  0  0  0
 24  6  1  0  0  0  0
 29 15  1  0  0  0  0
 30 16  1  0  0  0  0
 31 17  1  0  0  0  0
M  END
