4,6
q = -1.0, confidence = 0.0

 21 22  0  0  0  0  0  0  0  0999 V2000
    5.3851    0.9168    0.0005 Cl  0  0  0  0  0  0  0  0  0  0  0  0
    1.6940   -2.9946   -0.0005 Cl  0  0  0  0  0  0  0  0  0  0  0  0
    0.3207    1.9768   -0.0001 N   0  0  0  0  0  0  0  0  0  0  0  0
    0.9078   -0.3393   -0.0002 C   0  0  0  0  0  3  0  0  0  0  0  0
    1.3648    1.0134   -0.0001 C   0  0  0  0  0  0  0  0  0  0  0  0
   -0.9792    1.5118    0.0001 C   0  0  0  0  0  2  0  0  0  0  0  0
   -1.7387    2.6547   -0.0003 N   0  0  0  0  0  0  0  0  0  0  0  0
    0.3732    3.3606   -0.0008 C   0  0  0  0  0  0  0  0  0  0  0  0
    1.3082    3.9258   -0.0011 H   0  0  0  0  0  0  0  0  0  0  0  0
    1.9760   -1.2690   -0.0002 C   0  0  0  0  0  0  0  0  0  0  0  0
    3.3424   -0.9059   -0.0000 C   0  0  0  0  0  0  0  0  0  0  0  0
    4.1157   -1.6847    0.0000 H   0  0  0  0  0  0  0  0  0  0  0  0
    2.7018    1.4365    0.0002 C   0  0  0  0  0  0  0  0  0  0  0  0
    2.9875    2.4967    0.0003 H   0  0  0  0  0  0  0  0  0  0  0  0
   -3.1919    2.7288   -0.0001 C   0  0  0  0  0  0  0  0  0  0  0  0
   -3.6167    1.7059   -0.0003 H   0  0  0  0  0  0  0  0  0  0  0  0
   -3.5416    3.2700   -0.9027 H   0  0  0  0  0  0  0  0  0  0  0  0
   -3.5414    3.2696    0.9027 H   0  0  0  0  0  0  0  0  0  0  0  0
    3.6911    0.4460    0.0002 C   0  0  0  0  0  0  0  0  0  0  0  0
   -0.9291    3.7882   -0.0008 C   0  0  0  0  0  0  0  0  0  0  0  0
   -1.3493    4.7983   -0.0012 H   0  0  0  0  0  0  0  0  0  0  0  0
  2 10  1  0  0  0  0
  3  5  1  0  0  0  0
  3  6  1  0  0  0  0
  4  5  1  0  0  0  0
  5 13  2  0  0  0  0
  7 15  1  0  0  0  0
  7  6  1  0  0  0  0
  8  3  1  0  0  0  0
  9  8  1  0  0  0  0
 10  4  2  0  0  0  0
 10 11  1  0  0  0  0
 11 12  1  0  0  0  0
 11 19  2  0  0  0  0
 13 19  1  0  0  0  0
 13 14  1  0  0  0  0
 15 18  1  0  0  0  0
 16 15  1  0  0  0  0
 17 15  1  0  0  0  0
 19  1  1  0  0  0  0
 20  8  2  0  0  0  0
 20  7  1  0  0  0  0
 21 20  1  0  0  0  0
M  END
