29,31
q = 0.0, confidence = 0.998

 60 64  0  0  1  0  0  0  0  0999 V2000
   -0.0823    0.8141   -2.2092 N   0  0  0  0  0  0  0  0  0  0  0  0
    0.6920   -1.2592   -2.8995 O   0  0  0  0  0  0  0  0  0  0  0  0
   -0.1555    1.5224   -0.9885 C   0  0  0  0  0  0  0  0  0  0  0  0
   -0.3902    1.3247   -3.5289 C   0  0  0  0  0  0  0  0  0  0  0  0
    2.1322   -1.0734   -0.2916 C   0  0  0  0  0  0  0  0  0  0  0  0
    3.1649   -0.0539   -0.7998 C   0  0  0  0  0  0  0  0  0  0  0  0
    0.2933    0.7580    0.0574 C   0  0  0  0  0  0  0  0  0  0  0  0
    0.6586   -0.6271   -0.4897 C   0  0  1  0  0  0  0  0  0  0  0  0
    0.4289   -0.4494   -2.0138 C   0  0  0  0  0  0  0  0  0  0  0  0
   -0.6514    2.9138   -0.9628 C   0  0  0  0  0  0  0  0  0  0  0  0
    0.1530    3.9419   -0.4253 C   0  0  0  0  0  0  0  0  0  0  0  0
   -0.3237    5.2580   -0.3689 C   0  0  0  0  0  0  0  0  0  0  0  0
   -1.6078    5.5645   -0.8478 C   0  0  0  0  0  0  0  0  0  0  0  0
   -2.4146    4.5472   -1.3826 C   0  0  0  0  0  0  0  0  0  0  0  0
   -1.9428    3.2285   -1.4428 C   0  0  0  0  0  0  0  0  0  0  0  0
    4.5795   -0.4804   -0.4865 C   0  0  0  0  0  0  0  0  0  0  0  0
    5.2257   -1.4564   -1.2732 C   0  0  0  0  0  0  0  0  0  0  0  0
    6.5197   -1.8943   -0.9566 C   0  0  0  0  0  0  0  0  0  0  0  0
    7.1919   -1.3632    0.1563 C   0  0  0  0  0  0  0  0  0  0  0  0
    6.5613   -0.3902    0.9469 C   0  0  0  0  0  0  0  0  0  0  0  0
    5.2661    0.0453    0.6265 C   0  0  0  0  0  0  0  0  0  0  0  0
    0.3255    1.1980    1.4650 C   0  0  0  0  0  0  0  0  0  0  0  0
    1.4477    0.9714    2.3013 C   0  0  0  0  0  0  0  0  0  0  0  0
    1.4489    1.3923    3.6389 C   0  0  0  0  0  0  0  0  0  0  0  0
    0.3331    2.0519    4.1774 C   0  0  0  0  0  0  0  0  0  0  0  0
   -0.7867    2.2854    3.3622 C   0  0  0  0  0  0  0  0  0  0  0  0
   -0.7918    1.8643    2.0274 C   0  0  0  0  0  0  0  0  0  0  0  0
   -0.2535   -1.7441    0.0490 C   0  0  2  0  0  3  0  0  0  0  0  0
   -0.6317   -1.7861    1.4198 C   0  0  0  0  0  3  0  0  0  0  0  0
   -1.4395   -2.8481    1.9338 C   0  0  0  0  0  3  0  0  0  0  0  0
   -1.8960   -3.8716    1.0739 C   0  0  0  0  0  3  0  0  0  0  0  0
   -1.5162   -3.8530   -0.3040 C   0  0  0  0  0  0  0  0  0  0  0  0
   -0.7095   -2.8061   -0.8057 C   0  0  0  0  0  0  0  0  0  0  0  0
    0.0791    0.6368   -4.2574 H   0  0  0  0  0  0  0  0  0  0  0  0
   -1.4842    1.3376   -3.7067 H   0  0  0  0  0  0  0  0  0  0  0  0
    0.0121    2.3480   -3.6554 H   0  0  0  0  0  0  0  0  0  0  0  0
    2.2591   -2.0302   -0.8400 H   0  0  0  0  0  0  0  0  0  0  0  0
    2.3036   -1.3004    0.7800 H   0  0  0  0  0  0  0  0  0  0  0  0
    3.0419    0.0633   -1.8968 H   0  0  0  0  0  0  0  0  0  0  0  0
    2.9600    0.9386   -0.3471 H   0  0  0  0  0  0  0  0  0  0  0  0
    1.1563    3.6949   -0.0481 H   0  0  0  0  0  0  0  0  0  0  0  0
    0.3128    6.0512    0.0516 H   0  0  0  0  0  0  0  0  0  0  0  0
   -1.9818    6.5985   -0.8017 H   0  0  0  0  0  0  0  0  0  0  0  0
   -3.4260    4.7798   -1.7490 H   0  0  0  0  0  0  0  0  0  0  0  0
   -2.5862    2.4254   -1.8315 H   0  0  0  0  0  0  0  0  0  0  0  0
    4.7035   -1.8733   -2.1496 H   0  0  0  0  0  0  0  0  0  0  0  0
    7.0096   -2.6535   -1.5856 H   0  0  0  0  0  0  0  0  0  0  0  0
    8.2085   -1.7045    0.4040 H   0  0  0  0  0  0  0  0  0  0  0  0
    7.0828    0.0368    1.8173 H   0  0  0  0  0  0  0  0  0  0  0  0
    4.7788    0.8168    1.2449 H   0  0  0  0  0  0  0  0  0  0  0  0
    2.3380    0.4693    1.9005 H   0  0  0  0  0  0  0  0  0  0  0  0
    2.3354    1.2052    4.2642 H   0  0  0  0  0  0  0  0  0  0  0  0
    0.3340    2.3775    5.2285 H   0  0  0  0  0  0  0  0  0  0  0  0
   -1.6764    2.7863    3.7728 H   0  0  0  0  0  0  0  0  0  0  0  0
   -1.6862    2.0236    1.4107 H   0  0  0  0  0  0  0  0  0  0  0  0
   -0.3321   -0.9741    2.0928 H   0  0  0  0  0  0  0  0  0  0  0  0
   -1.7524   -2.8272    2.9865 H   0  0  0  0  0  0  0  0  0  0  0  0
   -2.5649   -4.6565    1.4528 H   0  0  0  0  0  0  0  0  0  0  0  0
   -1.8932   -4.6239   -0.9899 H   0  0  0  0  0  0  0  0  0  0  0  0
   -0.4458   -2.7772   -1.8715 H   0  0  0  0  0  0  0  0  0  0  0  0
  1  9  1  0  0  0  0
  1  3  1  0  0  0  0
  2  9  2  0  0  0  0
  3 10  1  0  0  0  0
  3  7  2  0  0  0  0
  4  1  1  0  0  0  0
  5 38  1  0  0  0  0
  6 16  1  0  0  0  0
  6 40  1  0  0  0  0
  6  5  1  0  0  0  0
  7 22  1  0  0  0  0
  8  5  1  1  0  0  0
  8 28  1  0  0  0  0
  8  7  1  0  0  0  0
  9  8  1  0  0  0  0
 10 11  1  0  0  0  0
 11 12  2  0  0  0  0
 11 41  1  0  0  0  0
 12 42  1  0  0  0  0
 13 43  1  0  0  0  0
 13 12  1  0  0  0  0
 14 13  2  0  0  0  0
 15 14  1  0  0  0  0
 15 10  2  0  0  0  0
 16 21  1  0  0  0  0
 17 18  1  0  0  0  0
 17 16  2  0  0  0  0
 18 19  2  0  0  0  0
 19 48  1  0  0  0  0
 19 20  1  0  0  0  0
 20 49  1  0  0  0  0
 21 20  2  0  0  0  0
 21 50  1  0  0  0  0
 22 27  2  0  0  0  0
 22 23  1  0  0  0  0
 23 24  2  0  0  0  0
 24 25  1  0  0  0  0
 24 52  1  0  0  0  0
 25 53  1  0  0  0  0
 26 54  1  0  0  0  0
 26 25  2  0  0  0  0
 27 26  1  0  0  0  0
 28 33  1  1  0  0  0
 28 29  1  0  0  0  0
 29 30  1  0  0  0  0
 29 56  1  0  0  0  0
 30 57  1  0  0  0  0
 31 58  1  0  0  0  0
 31 30  1  0  0  0  0
 32 31  1  0  0  0  0
 33 32  2  0  0  0  0
 34  4  1  0  0  0  0
 35  4  1  0  0  0  0
 36  4  1  0  0  0  0
 37  5  1  0  0  0  0
 39  6  1  0  0  0  0
 44 14  1  0  0  0  0
 45 15  1  0  0  0  0
 46 17  1  0  0  0  0
 47 18  1  0  0  0  0
 51 23  1  0  0  0  0
 55 27  1  0  0  0  0
 59 32  1  0  0  0  0
 60 33  1  0  0  0  0
M  END
