2,4
q = -1.0, confidence = 0.004

 10  9  0  0  0  0  0  0  0  0999 V2000
   -0.0247   -4.5161   -0.0826 N   0  0  0  0  0  0  0  0  0  0  0  0
   -1.1862   -2.8325   -1.4318 C   0  0  0  0  0  3  0  0  0  0  0  0
    0.0038   -3.5381   -1.0145 C   0  0  0  0  0  3  0  0  0  0  0  0
    1.2285   -2.8732   -1.4074 C   0  0  0  0  0  3  0  0  0  0  0  0
   -0.9101   -4.8515    0.2946 H   0  0  0  0  0  0  0  0  0  0  0  0
    0.8365   -4.8617    0.3389 H   0  0  0  0  0  0  0  0  0  0  0  0
   -1.2421   -2.5246   -2.4894 H   0  0  0  0  0  0  0  0  0  0  0  0
   -2.1575   -3.1263   -0.9999 H   0  0  0  0  0  0  0  0  0  0  0  0
    1.3174   -2.5887   -2.4703 H   0  0  0  0  0  0  0  0  0  0  0  0
    2.1793   -3.1960   -0.9514 H   0  0  0  0  0  0  0  0  0  0  0  0
  1  5  1  0  0  0  0
  1  6  1  0  0  0  0
  2  3  1  0  0  0  0
  2  8  1  0  0  0  0
  3  1  1  0  0  0  0
  4  3  1  0  0  0  0
  4 10  1  0  0  0  0
  7  2  1  0  0  0  0
  9  4  1  0  0  0  0
M  END
