2,4
q = -1.0, confidence = 0.002

 22 21  0  0  0  0  0  0  0  0999 V2000
   -3.7341    0.9805   -0.5440 N   0  0  0  0  0  0  0  0  0  0  0  0
   -2.8688   -0.9250   -1.8781 C   0  0  0  0  0  3  0  0  0  0  0  0
   -2.8702    0.4557   -1.4690 C   0  0  0  0  0  3  0  0  0  0  0  0
   -1.6661    1.1309   -1.9189 C   0  0  0  0  0  3  0  0  0  0  0  0
   -3.5147    2.3182    0.0015 C   0  0  0  0  0  0  0  0  0  0  0  0
   -2.4975    2.4080    1.1450 C   0  0  0  0  0  0  0  0  0  0  0  0
   -4.7305    0.1255    0.1018 C   0  0  0  0  0  0  0  0  0  0  0  0
   -4.2085   -0.7383    1.2563 C   0  0  0  0  0  0  0  0  0  0  0  0
   -3.5511   -1.6646   -1.4394 H   0  0  0  0  0  0  0  0  0  0  0  0
   -2.5358   -1.1440   -2.9053 H   0  0  0  0  0  0  0  0  0  0  0  0
   -1.3988    2.1259   -1.5344 H   0  0  0  0  0  0  0  0  0  0  0  0
   -1.3746    0.9615   -2.9699 H   0  0  0  0  0  0  0  0  0  0  0  0
   -3.1987    2.9788   -0.8324 H   0  0  0  0  0  0  0  0  0  0  0  0
   -4.5019    2.6973    0.3397 H   0  0  0  0  0  0  0  0  0  0  0  0
   -1.5174    1.9915    0.8419 H   0  0  0  0  0  0  0  0  0  0  0  0
   -2.8363    1.8537    2.0416 H   0  0  0  0  0  0  0  0  0  0  0  0
   -2.3399    3.4661    1.4367 H   0  0  0  0  0  0  0  0  0  0  0  0
   -5.5454    0.7903    0.4575 H   0  0  0  0  0  0  0  0  0  0  0  0
   -5.1791   -0.5228   -0.6796 H   0  0  0  0  0  0  0  0  0  0  0  0
   -3.8507   -0.1160    2.1001 H   0  0  0  0  0  0  0  0  0  0  0  0
   -5.0213   -1.3879    1.6400 H   0  0  0  0  0  0  0  0  0  0  0  0
   -3.3705   -1.3918    0.9369 H   0  0  0  0  0  0  0  0  0  0  0  0
  1  5  1  0  0  0  0
  1  7  1  0  0  0  0
  2  3  1  0  0  0  0
  2  9  1  0  0  0  0
  3  1  1  0  0  0  0
  4 11  1  0  0  0  0
  4  3  1  0  0  0  0
  5 14  1  0  0  0  0
  5  6  1  0  0  0  0
  6 17  1  0  0  0  0
  6 16  1  0  0  0  0
  7 18  1  0  0  0  0
  7  8  1  0  0  0  0
  8 21  1  0  0  0  0
  8 20  1  0  0  0  0
 10  2  1  0  0  0  0
 12  4  1  0  0  0  0
 13  5  1  0  0  0  0
 15  6  1  0  0  0  0
 19  7  1  0  0  0  0
 22  8  1  0  0  0  0
M  END
