5,6
q = -2.0, confidence = 0.628

 28 29  0  0  1  0  0  0  0  0999 V2000
   -4.3408    1.4825   -0.1697 C   0  0  0  0  0  0  0  0  0  0  0  0
   -4.6749    0.9606   -1.0988 H   0  0  0  0  0  0  0  0  0  0  0  0
   -5.2170    2.0985    0.1306 H   0  0  0  0  0  0  0  0  0  0  0  0
    0.0578   -2.3574   -0.9655 C   0  0  0  0  0  3  0  0  0  0  0  0
   -0.2895   -1.2955   -1.8454 C   0  0  0  0  0  3  0  0  0  0  0  0
   -1.4965    0.9175    0.7310 C   0  0  0  0  0  3  0  0  0  0  0  0
   -1.2561    1.2077    1.7811 H   0  0  0  0  0  0  0  0  0  0  0  0
   -2.6119   -0.1636    0.7150 C   0  0  1  0  0  0  0  0  0  0  0  0
   -2.4209   -0.8713    1.5466 H   0  0  0  0  0  0  0  0  0  0  0  0
   -3.1708    2.3760   -0.4750 C   0  0  0  0  0  0  0  0  0  0  0  0
   -1.3729   -0.4507   -1.4803 C   0  0  0  0  0  3  0  0  0  0  0  0
   -1.9127    2.1323   -0.0333 C   0  0  0  0  0  0  0  0  0  0  0  0
   -4.0034    0.4656    0.9293 C   0  0  0  0  0  0  0  0  0  0  0  0
   -4.7825   -0.3254    0.9802 H   0  0  0  0  0  0  0  0  0  0  0  0
   -4.0095    0.9781    1.9151 H   0  0  0  0  0  0  0  0  0  0  0  0
   -2.4570   -2.5060   -0.5174 C   0  0  0  0  0  0  0  0  0  0  0  0
   -2.8373   -2.9125   -1.4785 H   0  0  0  0  0  0  0  0  0  0  0  0
   -3.1619   -2.8558    0.2655 H   0  0  0  0  0  0  0  0  0  0  0  0
   -2.5324   -0.9633   -0.6332 C   0  0  1  0  0  0  0  0  0  0  0  0
   -3.4672   -0.7544   -1.1991 H   0  0  0  0  0  0  0  0  0  0  0  0
   -1.0590   -3.1255   -0.2711 C   0  0  0  0  0  0  0  0  0  0  0  0
   -0.8570   -3.2574    0.8105 H   0  0  0  0  0  0  0  0  0  0  0  0
   -1.0595   -4.1578   -0.6882 H   0  0  0  0  0  0  0  0  0  0  0  0
   -1.1477    2.8919   -0.2544 H   0  0  0  0  0  0  0  0  0  0  0  0
   -3.3661    3.2897   -1.0630 H   0  0  0  0  0  0  0  0  0  0  0  0
    0.3829   -1.0196   -2.6730 H   0  0  0  0  0  0  0  0  0  0  0  0
    0.9897   -2.9104   -1.1741 H   0  0  0  0  0  0  0  0  0  0  0  0
   -1.5653    0.4367   -2.1033 H   0  0  0  0  0  0  0  0  0  0  0  0
  1  3  1  0  0  0  0
  1 13  1  0  0  0  0
  2  1  1  0  0  0  0
  4 21  1  0  0  0  0
  5 11  1  0  0  0  0
  5  4  1  0  0  0  0
  6  7  1  0  0  0  0
  8  6  1  0  0  0  0
  8 13  1  0  0  0  0
  8  9  1  1  0  0  0
 10  1  1  0  0  0  0
 10 12  2  0  0  0  0
 11 19  1  0  0  0  0
 12  6  1  0  0  0  0
 13 14  1  0  0  0  0
 13 15  1  0  0  0  0
 16 21  1  0  0  0  0
 16 18  1  0  0  0  0
 17 16  1  0  0  0  0
 19 20  1  6  0  0  0
 19 16  1  0  0  0  0
 19  8  1  0  0  0  0
 21 22  1  0  0  0  0
 23 21  1  0  0  0  0
 24 12  1  0  0  0  0
 25 10  1  0  0  0  0
 26  5  1  0  0  0  0
 27  4  1  0  0  0  0
 28 11  1  0  0  0  0
M  END
