3,5
q = -1.0

 27 27  0  0  0  0  0  0  0  0999 V2000
    2.0277    0.1595   -1.1067 C   0  0  0  0  0  0  0  0  0  0  0  0
    1.4660   -1.1189   -1.5275 C   0  0  0  0  0  0  0  0  0  0  0  0
    0.3584   -0.8344   -2.3992 C   0  0  0  0  0  3  0  0  0  0  0  0
    0.2088    0.5893   -2.5301 C   0  0  0  0  0  3  0  0  0  0  0  0
    1.2538    1.1933   -1.7272 C   0  0  0  0  0  3  0  0  0  0  0  0
    3.1846    0.3671   -0.1784 C   0  0  0  0  0  0  0  0  0  0  0  0
    3.0574   -0.3590    1.1695 C   0  0  0  0  0  0  0  0  0  0  0  0
    1.8603    0.0547    2.0261 C   0  0  0  0  0  0  0  0  0  0  0  0
    0.5236   -0.5166    1.6660 N   0  0  0  0  0  0  0  0  0  0  0  0
    0.5489   -1.9936    1.8058 C   0  0  0  0  0  0  0  0  0  0  0  0
   -0.4622    0.0105    2.6388 C   0  0  0  0  0  0  0  0  0  0  0  0
    1.8616   -2.1147   -1.2930 H   0  0  0  0  0  0  0  0  0  0  0  0
   -0.2883   -1.5860   -2.8710 H   0  0  0  0  0  0  0  0  0  0  0  0
   -0.5227    1.1129   -3.1561 H   0  0  0  0  0  0  0  0  0  0  0  0
    1.4252    2.2696   -1.5960 H   0  0  0  0  0  0  0  0  0  0  0  0
    3.3083    1.4554   -0.0007 H   0  0  0  0  0  0  0  0  0  0  0  0
    4.1149    0.0276   -0.6829 H   0  0  0  0  0  0  0  0  0  0  0  0
    3.9654   -0.1380    1.7670 H   0  0  0  0  0  0  0  0  0  0  0  0
    3.0730   -1.4592    1.0249 H   0  0  0  0  0  0  0  0  0  0  0  0
    2.0630   -0.2356    3.0830 H   0  0  0  0  0  0  0  0  0  0  0  0
    1.7503    1.1585    2.0085 H   0  0  0  0  0  0  0  0  0  0  0  0
    0.8702   -2.2804    2.8326 H   0  0  0  0  0  0  0  0  0  0  0  0
    1.2381   -2.4411    1.0708 H   0  0  0  0  0  0  0  0  0  0  0  0
   -0.4618   -2.3960    1.6206 H   0  0  0  0  0  0  0  0  0  0  0  0
   -0.4534    1.1140    2.6206 H   0  0  0  0  0  0  0  0  0  0  0  0
   -0.2136   -0.3325    3.6675 H   0  0  0  0  0  0  0  0  0  0  0  0
   -1.4738   -0.3451    2.3725 H   0  0  0  0  0  0  0  0  0  0  0  0
  1  6  1  0  0  0  0
  2 12  1  0  0  0  0
  2  1  2  0  0  0  0
  3  2  1  0  0  0  0
  4  3  1  0  0  0  0
  4  5  1  0  0  0  0
  5 15  1  0  0  0  0
  5  1  1  0  0  0  0
  6 16  1  0  0  0  0
  6  7  1  0  0  0  0
  7 18  1  0  0  0  0
  7  8  1  0  0  0  0
  8 20  1  0  0  0  0
  9 10  1  0  0  0  0
  9  8  1  0  0  0  0
  9 11  1  0  0  0  0
 10 22  1  0  0  0  0
 11 26  1  0  0  0  0
 13  3  1  0  0  0  0
 14  4  1  0  0  0  0
 17  6  1  0  0  0  0
 19  7  1  0  0  0  0
 21  8  1  0  0  0  0
 23 10  1  0  0  0  0
 24 10  1  0  0  0  0
 25 11  1  0  0  0  0
 27 11  1  0  0  0  0
M  END
