2,4
q = 0.0, confidence = 0.544

 48 52  0  0  1  0  0  0  0  0999 V2000
    0.2712    0.8195   -0.7301 C   0  0  1  0  0  3  0  0  0  0  0  0
   -1.1392    0.5498   -0.4502 C   0  0  2  0  0  3  0  0  0  0  0  0
   -0.8907   -0.9045   -0.5541 C   0  0  2  0  0  3  0  0  0  0  0  0
    0.5346   -0.6698   -0.7691 C   0  0  1  0  0  3  0  0  0  0  0  0
    0.8802    2.0538   -1.2422 C   0  0  0  0  0  0  0  0  0  0  0  0
    0.5704    3.3012   -0.6502 C   0  0  0  0  0  0  0  0  0  0  0  0
   -0.0755    3.3272    0.2378 H   0  0  0  0  0  0  0  0  0  0  0  0
    1.0901    4.4911   -1.1745 C   0  0  0  0  0  0  0  0  0  0  0  0
    0.8373    5.4511   -0.7001 H   0  0  0  0  0  0  0  0  0  0  0  0
    1.9333    4.4618   -2.2980 C   0  0  0  0  0  0  0  0  0  0  0  0
    2.3446    5.3968   -2.7061 H   0  0  0  0  0  0  0  0  0  0  0  0
    2.2450    3.2319   -2.8971 C   0  0  0  0  0  0  0  0  0  0  0  0
    2.8980    3.1986   -3.7819 H   0  0  0  0  0  0  0  0  0  0  0  0
    1.7229    2.0385   -2.3780 C   0  0  0  0  0  0  0  0  0  0  0  0
    1.9670    1.0836   -2.8619 H   0  0  0  0  0  0  0  0  0  0  0  0
   -2.3452    1.3891   -0.5681 C   0  0  0  0  0  0  0  0  0  0  0  0
   -2.6470    2.4423    0.3206 C   0  0  0  0  0  0  0  0  0  0  0  0
   -1.9893    2.6200    1.1828 H   0  0  0  0  0  0  0  0  0  0  0  0
   -3.7789    3.2445    0.1188 C   0  0  0  0  0  0  0  0  0  0  0  0
   -4.0033    4.0592    0.8233 H   0  0  0  0  0  0  0  0  0  0  0  0
   -4.6256    3.0070   -0.9751 C   0  0  0  0  0  0  0  0  0  0  0  0
   -5.5148    3.6353   -1.1318 H   0  0  0  0  0  0  0  0  0  0  0  0
   -4.3337    1.9633   -1.8679 C   0  0  0  0  0  0  0  0  0  0  0  0
   -4.9902    1.7743   -2.7303 H   0  0  0  0  0  0  0  0  0  0  0  0
   -3.2040    1.1587   -1.6684 C   0  0  0  0  0  0  0  0  0  0  0  0
   -2.9758    0.3462   -2.3742 H   0  0  0  0  0  0  0  0  0  0  0  0
   -1.7611   -2.0786   -0.6319 C   0  0  0  0  0  0  0  0  0  0  0  0
   -1.2449   -3.3423   -1.0077 C   0  0  0  0  0  0  0  0  0  0  0  0
   -0.1774   -3.4492   -1.2397 H   0  0  0  0  0  0  0  0  0  0  0  0
   -2.0892   -4.4562   -1.0910 C   0  0  0  0  0  0  0  0  0  0  0  0
   -1.6740   -5.4308   -1.3880 H   0  0  0  0  0  0  0  0  0  0  0  0
   -3.4586   -4.3332   -0.8041 C   0  0  0  0  0  0  0  0  0  0  0  0
   -4.1186   -5.2108   -0.8718 H   0  0  0  0  0  0  0  0  0  0  0  0
   -3.9838   -3.0830   -0.4371 C   0  0  0  0  0  0  0  0  0  0  0  0
   -5.0570   -2.9773   -0.2195 H   0  0  0  0  0  0  0  0  0  0  0  0
   -3.1459   -1.9646   -0.3524 C   0  0  0  0  0  0  0  0  0  0  0  0
   -3.5704   -0.9888   -0.0786 H   0  0  0  0  0  0  0  0  0  0  0  0
    1.5772   -1.5917   -1.2692 C   0  0  0  0  0  0  0  0  0  0  0  0
    2.1573   -2.5569   -0.4156 C   0  0  0  0  0  0  0  0  0  0  0  0
    1.8433   -2.5747    0.6398 H   0  0  0  0  0  0  0  0  0  0  0  0
    3.1048   -3.4679   -0.9017 C   0  0  0  0  0  0  0  0  0  0  0  0
    3.5476   -4.2123   -0.2230 H   0  0  0  0  0  0  0  0  0  0  0  0
    3.4914   -3.4282   -2.2520 C   0  0  0  0  0  0  0  0  0  0  0  0
    4.2419   -4.1363   -2.6335 H   0  0  0  0  0  0  0  0  0  0  0  0
    2.9071   -2.4876   -3.1142 C   0  0  0  0  0  0  0  0  0  0  0  0
    3.1906   -2.4630   -4.1770 H   0  0  0  0  0  0  0  0  0  0  0  0
    1.9507   -1.5821   -2.6303 C   0  0  0  0  0  0  0  0  0  0  0  0
    1.4696   -0.8753   -3.3224 H   0  0  0  0  0  0  0  0  0  0  0  0
  1  5  1  6  0  0  0
  1  2  1  0  0  0  0
  2 16  1  6  0  0  0
  3 27  1  6  0  0  0
  3  2  1  0  0  0  0
  4 38  1  6  0  0  0
  4  1  1  0  0  0  0
  4  3  1  0  0  0  0
  5  6  1  0  0  0  0
  6  7  1  0  0  0  0
  8  9  1  0  0  0  0
  8  6  2  0  0  0  0
 10  8  1  0  0  0  0
 11 10  1  0  0  0  0
 12 14  1  0  0  0  0
 12 10  2  0  0  0  0
 13 12  1  0  0  0  0
 14  5  2  0  0  0  0
 15 14  1  0  0  0  0
 16 17  1  0  0  0  0
 17 18  1  0  0  0  0
 19 17  2  0  0  0  0
 19 20  1  0  0  0  0
 21 19  1  0  0  0  0
 22 21  1  0  0  0  0
 23 25  1  0  0  0  0
 23 21  2  0  0  0  0
 24 23  1  0  0  0  0
 25 16  2  0  0  0  0
 26 25  1  0  0  0  0
 27 36  1  0  0  0  0
 28 27  2  0  0  0  0
 29 28  1  0  0  0  0
 30 28  1  0  0  0  0
 30 32  2  0  0  0  0
 31 30  1  0  0  0  0
 32 34  1  0  0  0  0
 33 32  1  0  0  0  0
 34 36  2  0  0  0  0
 34 35  1  0  0  0  0
 36 37  1  0  0  0  0
 38 39  1  0  0  0  0
 39 40  1  0  0  0  0
 41 39  2  0  0  0  0
 41 42  1  0  0  0  0
 43 41  1  0  0  0  0
 44 43  1  0  0  0  0
 45 47  1  0  0  0  0
 45 43  2  0  0  0  0
 46 45  1  0  0  0  0
 47 38  2  0  0  0  0
 48 47  1  0  0  0  0
M  END
