4,18
q = 0, confidence = 1.0

 44 44  0  0  1  0  0  0  0  0999 V2000
   -2.2906   -0.1514    0.4896 P   0  0  2  0  0  4  0  0  0  0  0  0
   -2.3652   -1.3298    1.3110 H   0  0  0  0  0  0  0  0  0  0  0  0
   -0.7309    1.4782   -0.8326 P   0  0  0  0  0  2  0  0  0  0  0  0
   -1.1112    1.1112    0.9484 C   0  0  1  0  0  3  0  0  0  0  0  0
   -1.2558    2.1621    2.0588 C   0  0  0  0  0  0  0  0  0  0  0  0
   -1.8948    1.5425    3.3197 C   0  0  0  0  0  0  0  0  0  0  0  0
   -2.0255    2.3212    4.0985 H   0  0  0  0  0  0  0  0  0  0  0  0
   -1.2716    0.7369    3.7469 H   0  0  0  0  0  0  0  0  0  0  0  0
   -2.9024    1.1262    3.1079 H   0  0  0  0  0  0  0  0  0  0  0  0
    0.1148    2.7611    2.4234 C   0  0  0  0  0  0  0  0  0  0  0  0
   -0.0106    3.5772    3.1642 H   0  0  0  0  0  0  0  0  0  0  0  0
    0.6152    3.1836    1.5307 H   0  0  0  0  0  0  0  0  0  0  0  0
    0.7911    1.9969    2.8490 H   0  0  0  0  0  0  0  0  0  0  0  0
   -2.1684    3.3064    1.5540 C   0  0  0  0  0  0  0  0  0  0  0  0
   -2.3054    4.0721    2.3455 H   0  0  0  0  0  0  0  0  0  0  0  0
   -3.1727    2.9355    1.2666 H   0  0  0  0  0  0  0  0  0  0  0  0
   -1.7263    3.8031    0.6668 H   0  0  0  0  0  0  0  0  0  0  0  0
   -1.3530   -0.2602   -1.0326 C   0  0  2  0  0  3  0  0  0  0  0  0
   -1.7790   -0.8852   -2.3657 C   0  0  0  0  0  0  0  0  0  0  0  0
   -0.5791   -0.9578   -3.3262 C   0  0  0  0  0  0  0  0  0  0  0  0
   -0.9007   -1.3571   -4.3097 H   0  0  0  0  0  0  0  0  0  0  0  0
    0.2203   -1.6046   -2.9182 H   0  0  0  0  0  0  0  0  0  0  0  0
   -0.1375    0.0447   -3.4945 H   0  0  0  0  0  0  0  0  0  0  0  0
   -2.8690    0.0040   -3.0131 C   0  0  0  0  0  0  0  0  0  0  0  0
   -3.1832   -0.4162   -3.9908 H   0  0  0  0  0  0  0  0  0  0  0  0
   -2.4906    1.0322   -3.1835 H   0  0  0  0  0  0  0  0  0  0  0  0
   -3.7731    0.0768   -2.3760 H   0  0  0  0  0  0  0  0  0  0  0  0
   -2.3504   -2.3024   -2.1605 C   0  0  0  0  0  0  0  0  0  0  0  0
   -2.7596   -2.6877   -3.1167 H   0  0  0  0  0  0  0  0  0  0  0  0
   -3.1791   -2.3093   -1.4219 H   0  0  0  0  0  0  0  0  0  0  0  0
   -1.5802   -3.0113   -1.8095 H   0  0  0  0  0  0  0  0  0  0  0  0
   -4.0781    0.3624    0.4356 C   0  0  0  0  0  0  0  0  0  0  0  0
   -4.2857    0.7872    1.4422 H   0  0  0  0  0  0  0  0  0  0  0  0
   -4.1506    1.2019   -0.2867 H   0  0  0  0  0  0  0  0  0  0  0  0
   -5.0746   -0.7585    0.1251 C   0  0  0  0  0  0  0  0  0  0  0  0
   -4.8878   -1.6231    0.8011 H   0  0  0  0  0  0  0  0  0  0  0  0
   -4.9076   -1.1401   -0.9049 H   0  0  0  0  0  0  0  0  0  0  0  0
   -6.5363   -0.3142    0.2635 C   0  0  0  0  0  0  0  0  0  0  0  0
   -6.7049    0.0630    1.2965 H   0  0  0  0  0  0  0  0  0  0  0  0
   -6.7142    0.5555   -0.4069 H   0  0  0  0  0  0  0  0  0  0  0  0
   -7.5332   -1.4285   -0.0541 C   0  0  0  0  0  0  0  0  0  0  0  0
   -7.4083   -1.7974   -1.0934 H   0  0  0  0  0  0  0  0  0  0  0  0
   -8.5801   -1.0815    0.0537 H   0  0  0  0  0  0  0  0  0  0  0  0
   -7.3969   -2.2972    0.6231 H   0  0  0  0  0  0  0  0  0  0  0  0
  1  4  1  0  0  0  0
  1  2  1  1  0  0  0
  3  4  1  0  0  0  0
  4  5  1  6  0  0  0
  5 10  1  0  0  0  0
  5  6  1  0  0  0  0
  6  8  1  0  0  0  0
  6  7  1  0  0  0  0
  9  6  1  0  0  0  0
 10 13  1  0  0  0  0
 10 11  1  0  0  0  0
 12 10  1  0  0  0  0
 14  5  1  0  0  0  0
 14 15  1  0  0  0  0
 16 14  1  0  0  0  0
 17 14  1  0  0  0  0
 18 19  1  6  0  0  0
 18  3  1  0  0  0  0
 18  1  1  0  0  0  0
 19 28  1  0  0  0  0
 20 22  1  0  0  0  0
 20 19  1  0  0  0  0
 21 20  1  0  0  0  0
 23 20  1  0  0  0  0
 24 27  1  0  0  0  0
 24 19  1  0  0  0  0
 25 24  1  0  0  0  0
 26 24  1  0  0  0  0
 28 31  1  0  0  0  0
 28 30  1  0  0  0  0
 29 28  1  0  0  0  0
 32  1  1  0  0  0  0
 32 33  1  0  0  0  0
 34 32  1  0  0  0  0
 35 38  1  0  0  0  0
 35 32  1  0  0  0  0
 35 36  1  0  0  0  0
 37 35  1  0  0  0  0
 38 39  1  0  0  0  0
 40 38  1  0  0  0  0
 41 43  1  0  0  0  0
 41 38  1  0  0  0  0
 41 44  1  0  0  0  0
 42 41  1  0  0  0  0
M  END
