7,17
q = 0.0, confidence = 0.994

 23 24  0  0  0  0  0  0  0  0999 V2000
   -1.2775    2.6278   -0.3408 N   0  0  0  0  0  0  0  0  0  0  0  0
   -2.5013    3.2244   -0.2172 N   0  0  0  0  0  0  0  0  0  0  0  0
   -2.5151    1.1903    0.6382 N   0  0  0  0  0  0  0  0  0  0  0  0
   -2.5156   -1.1884    0.6394 N   0  0  0  0  0  0  0  0  0  0  0  0
   -2.5026   -3.2234   -0.2139 N   0  0  0  0  0  0  0  0  0  0  0  0
   -1.2786   -2.6275   -0.3382 N   0  0  0  0  0  0  0  0  0  0  0  0
   -1.2261    1.3688    0.1723 C   0  0  0  0  0  2  0  0  0  0  0  0
   -0.2172    3.3699   -1.0037 C   0  0  0  0  0  0  0  0  0  0  0  0
   -0.5718    3.6904   -2.0002 H   0  0  0  0  0  0  0  0  0  0  0  0
    0.6517    2.7019   -1.1247 H   0  0  0  0  0  0  0  0  0  0  0  0
    0.0422    4.2610   -0.4008 H   0  0  0  0  0  0  0  0  0  0  0  0
   -3.2475    2.3311    0.3787 C   0  0  0  0  0  0  0  0  0  0  0  0
   -4.3042    2.4656    0.6410 H   0  0  0  0  0  0  0  0  0  0  0  0
   -2.9242    0.0013    1.3600 C   0  0  0  0  0  0  0  0  0  0  0  0
   -4.0235    0.0016    1.4778 H   0  0  0  0  0  0  0  0  0  0  0  0
   -2.4475    0.0017    2.3628 H   0  0  0  0  0  0  0  0  0  0  0  0
   -1.2267   -1.3680    0.1736 C   0  0  0  0  0  2  0  0  0  0  0  0
   -3.2486   -2.3292    0.3809 C   0  0  0  0  0  0  0  0  0  0  0  0
   -4.3052   -2.4630    0.6433 H   0  0  0  0  0  0  0  0  0  0  0  0
   -0.2188   -3.3706   -1.0008 C   0  0  0  0  0  0  0  0  0  0  0  0
    0.0378   -4.2632   -0.3989 H   0  0  0  0  0  0  0  0  0  0  0  0
    0.6515   -2.7041   -1.1193 H   0  0  0  0  0  0  0  0  0  0  0  0
   -0.5724   -3.6887   -1.9984 H   0  0  0  0  0  0  0  0  0  0  0  0
  1  2  1  0  0  0  0
  1  7  1  0  0  0  0
  2 12  2  0  0  0  0
  3 14  1  0  0  0  0
  4 14  1  0  0  0  0
  5 18  2  0  0  0  0
  6  5  1  0  0  0  0
  6 17  1  0  0  0  0
  7  3  1  0  0  0  0
  8 11  1  0  0  0  0
  8  1  1  0  0  0  0
  9  8  1  0  0  0  0
 10  8  1  0  0  0  0
 12  3  1  0  0  0  0
 12 13  1  0  0  0  0
 14 15  1  0  0  0  0
 14 16  1  0  0  0  0
 17  4  1  0  0  0  0
 18  4  1  0  0  0  0
 18 19  1  0  0  0  0
 20 21  1  0  0  0  0
 20  6  1  0  0  0  0
 22 20  1  0  0  0  0
 23 20  1  0  0  0  0
M  END
