2,27
q = -1.0

 51 52  0  0  1  0  0  0  0  0999 V2000
    0.0000    2.4941    0.0000 P   0  0  0  0  0  4  0  0  0  0  0  0
   -1.3937    1.3499    0.0580 C   0  0  2  0  0  3  0  0  0  0  0  0
   -1.7393    0.6063    1.2611 C   0  0  0  0  0  0  0  0  0  0  0  0
   -2.4985   -0.5359    0.8439 C   0  0  0  0  0  0  0  0  0  0  0  0
   -2.5890   -0.5303   -0.5821 C   0  0  0  0  0  0  0  0  0  0  0  0
   -1.9076    0.6236   -1.0858 C   0  0  0  0  0  0  0  0  0  0  0  0
   -1.5630    0.9836    2.7058 C   0  0  0  0  0  0  0  0  0  0  0  0
   -3.1710   -1.5079    1.7605 C   0  0  0  0  0  0  0  0  0  0  0  0
   -3.3672   -1.4795   -1.4345 C   0  0  0  0  0  0  0  0  0  0  0  0
   -1.9736    1.0009   -2.5379 C   0  0  0  0  0  0  0  0  0  0  0  0
   -0.0060    3.6316   -1.4171 C   0  0  0  0  0  0  0  0  0  0  0  0
   -2.1969    1.8578    2.9634 H   0  0  0  0  0  0  0  0  0  0  0  0
   -0.5226    1.2164    2.9906 H   0  0  0  0  0  0  0  0  0  0  0  0
   -1.8782    0.1463    3.3532 H   0  0  0  0  0  0  0  0  0  0  0  0
   -4.0863   -1.0567    2.1980 H   0  0  0  0  0  0  0  0  0  0  0  0
   -2.5076   -1.8149    2.5917 H   0  0  0  0  0  0  0  0  0  0  0  0
   -3.4732   -2.4257    1.2239 H   0  0  0  0  0  0  0  0  0  0  0  0
   -3.6271   -2.4042   -0.8879 H   0  0  0  0  0  0  0  0  0  0  0  0
   -2.7984   -1.7719   -2.3382 H   0  0  0  0  0  0  0  0  0  0  0  0
   -4.3159   -1.0073   -1.7682 H   0  0  0  0  0  0  0  0  0  0  0  0
   -1.5180    0.2244   -3.1848 H   0  0  0  0  0  0  0  0  0  0  0  0
   -1.5071    1.9724   -2.7667 H   0  0  0  0  0  0  0  0  0  0  0  0
   -3.0381    1.0801   -2.8417 H   0  0  0  0  0  0  0  0  0  0  0  0
   -0.9651    4.1850   -1.4218 H   0  0  0  0  0  0  0  0  0  0  0  0
    0.1363    3.1145   -2.3779 H   0  0  0  0  0  0  0  0  0  0  0  0
    0.8313    4.3416   -1.2663 H   0  0  0  0  0  0  0  0  0  0  0  0
    1.3937    1.3498   -0.0580 C   0  0  2  0  0  3  0  0  0  0  0  0
    1.7393    0.6063   -1.2611 C   0  0  2  0  0  3  0  0  0  0  0  0
    1.9076    0.6235    1.0858 C   0  0  1  0  0  3  0  0  0  0  0  0
    2.4985   -0.5359   -0.8439 C   0  0  0  0  0  0  0  0  0  0  0  0
    1.5630    0.9836   -2.7058 C   0  0  0  0  0  0  0  0  0  0  0  0
    2.1969    1.8578   -2.9634 H   0  0  0  0  0  0  0  0  0  0  0  0
    0.5226    1.2165   -2.9906 H   0  0  0  0  0  0  0  0  0  0  0  0
    1.8782    0.1463   -3.3532 H   0  0  0  0  0  0  0  0  0  0  0  0
    2.5890   -0.5304    0.5821 C   0  0  0  0  0  0  0  0  0  0  0  0
    1.9736    1.0008    2.5379 C   0  0  0  0  0  0  0  0  0  0  0  0
    1.5181    0.2243    3.1848 H   0  0  0  0  0  0  0  0  0  0  0  0
    1.5071    1.9723    2.7668 H   0  0  0  0  0  0  0  0  0  0  0  0
    3.0382    1.0800    2.8417 H   0  0  0  0  0  0  0  0  0  0  0  0
    3.3672   -1.4796    1.4345 C   0  0  0  0  0  0  0  0  0  0  0  0
    3.6272   -2.4042    0.8878 H   0  0  0  0  0  0  0  0  0  0  0  0
    2.7983   -1.7721    2.3381 H   0  0  0  0  0  0  0  0  0  0  0  0
    4.3158   -1.0073    1.7683 H   0  0  0  0  0  0  0  0  0  0  0  0
    3.1710   -1.5079   -1.7606 C   0  0  0  0  0  0  0  0  0  0  0  0
    4.0862   -1.0567   -2.1981 H   0  0  0  0  0  0  0  0  0  0  0  0
    2.5075   -1.8150   -2.5917 H   0  0  0  0  0  0  0  0  0  0  0  0
    3.4732   -2.4257   -1.2239 H   0  0  0  0  0  0  0  0  0  0  0  0
    0.0061    3.6316    1.4171 C   0  0  0  0  0  0  0  0  0  0  0  0
    0.9652    4.1850    1.4218 H   0  0  0  0  0  0  0  0  0  0  0  0
   -0.1362    3.1145    2.3780 H   0  0  0  0  0  0  0  0  0  0  0  0
   -0.8311    4.3417    1.2664 H   0  0  0  0  0  0  0  0  0  0  0  0
  1 48  1  0  0  0  0
  2  1  1  6  0  0  0
  2  3  1  0  0  0  0
  3  7  1  0  0  0  0
  4  3  2  0  0  0  0
  4  8  1  0  0  0  0
  5  4  1  0  0  0  0
  6  5  2  0  0  0  0
  6  2  1  0  0  0  0
  7 12  1  0  0  0  0
  7 13  1  0  0  0  0
  7 14  1  0  0  0  0
  8 15  1  0  0  0  0
  8 16  1  0  0  0  0
  9 18  1  0  0  0  0
  9  5  1  0  0  0  0
 10  6  1  0  0  0  0
 11 26  1  0  0  0  0
 11  1  1  0  0  0  0
 17  8  1  0  0  0  0
 19  9  1  0  0  0  0
 20  9  1  0  0  0  0
 21 10  1  0  0  0  0
 22 10  1  0  0  0  0
 23 10  1  0  0  0  0
 24 11  1  0  0  0  0
 25 11  1  0  0  0  0
 27  1  1  1  0  0  0
 27 29  1  0  0  0  0
 28 31  1  6  0  0  0
 28 30  1  0  0  0  0
 28 27  1  0  0  0  0
 29 36  1  6  0  0  0
 30 35  2  0  0  0  0
 32 31  1  0  0  0  0
 33 31  1  0  0  0  0
 34 31  1  0  0  0  0
 35 29  1  0  0  0  0
 35 40  1  0  0  0  0
 36 38  1  0  0  0  0
 36 39  1  0  0  0  0
 36 37  1  0  0  0  0
 40 43  1  0  0  0  0
 40 42  1  0  0  0  0
 41 40  1  0  0  0  0
 44 47  1  0  0  0  0
 44 30  1  0  0  0  0
 45 44  1  0  0  0  0
 46 44  1  0  0  0  0
 48 49  1  0  0  0  0
 48 50  1  0  0  0  0
 51 48  1  0  0  0  0
M  END
