3,6
q = -1.0

 28 29  0  0  0  0  0  0  0  0999 V2000
   -0.7044   -2.3499    0.3136 C   0  0  0  0  0  0  0  0  0  0  0  0
   -0.7682   -1.5030    1.4888 C   0  0  0  0  0  0  0  0  0  0  0  0
   -1.7742   -0.5003    1.2344 C   0  0  0  0  0  3  0  0  0  0  0  0
   -2.1003    0.2637    1.9477 H   0  0  0  0  0  0  0  0  0  0  0  0
   -2.4250   -0.8147   -0.0026 C   0  0  0  0  0  3  0  0  0  0  0  0
   -1.6996   -1.8761   -0.6175 C   0  0  0  0  0  3  0  0  0  0  0  0
   -1.9085   -2.3174   -1.5977 H   0  0  0  0  0  0  0  0  0  0  0  0
    0.0498   -1.7963    2.6185 C   0  0  0  0  0  0  0  0  0  0  0  0
   -0.0294   -1.1881    3.5314 H   0  0  0  0  0  0  0  0  0  0  0  0
    0.9161   -2.8792    2.5577 C   0  0  0  0  0  0  0  0  0  0  0  0
    1.5354   -3.1312    3.4318 H   0  0  0  0  0  0  0  0  0  0  0  0
    1.0195   -3.6772    1.3792 C   0  0  0  0  0  0  0  0  0  0  0  0
    1.7306   -4.5166    1.3620 H   0  0  0  0  0  0  0  0  0  0  0  0
    0.2324   -3.4233    0.2648 C   0  0  0  0  0  0  0  0  0  0  0  0
    0.3080   -4.0443   -0.6387 H   0  0  0  0  0  0  0  0  0  0  0  0
   -3.7788   -0.2596   -0.4332 C   0  0  0  0  0  0  0  0  0  0  0  0
   -4.0480   -0.5022   -1.9284 C   0  0  0  0  0  0  0  0  0  0  0  0
   -5.0453   -0.1015   -2.2002 H   0  0  0  0  0  0  0  0  0  0  0  0
   -4.0517   -1.5849   -2.1672 H   0  0  0  0  0  0  0  0  0  0  0  0
   -3.2872   -0.0051   -2.5589 H   0  0  0  0  0  0  0  0  0  0  0  0
   -3.9259    1.2366   -0.0951 C   0  0  0  0  0  0  0  0  0  0  0  0
   -3.7786    1.4287    0.9868 H   0  0  0  0  0  0  0  0  0  0  0  0
   -4.9474    1.5804   -0.3554 H   0  0  0  0  0  0  0  0  0  0  0  0
   -3.1960    1.8487   -0.6571 H   0  0  0  0  0  0  0  0  0  0  0  0
   -4.8211   -1.0587    0.3937 C   0  0  0  0  0  0  0  0  0  0  0  0
   -4.6828   -0.8967    1.4815 H   0  0  0  0  0  0  0  0  0  0  0  0
   -4.7390   -2.1465    0.1962 H   0  0  0  0  0  0  0  0  0  0  0  0
   -5.8469   -0.7338    0.1225 H   0  0  0  0  0  0  0  0  0  0  0  0
  1  2  1  0  0  0  0
  2  8  2  0  0  0  0
  3  2  1  0  0  0  0
  3  4  1  0  0  0  0
  5  3  1  0  0  0  0
  6  5  1  0  0  0  0
  6  1  1  0  0  0  0
  7  6  1  0  0  0  0
  8  9  1  0  0  0  0
 10  8  1  0  0  0  0
 10 11  1  0  0  0  0
 12 10  2  0  0  0  0
 13 12  1  0  0  0  0
 14  1  2  0  0  0  0
 14 12  1  0  0  0  0
 15 14  1  0  0  0  0
 16 21  1  0  0  0  0
 16  5  1  0  0  0  0
 16 25  1  0  0  0  0
 17 16  1  0  0  0  0
 18 17  1  0  0  0  0
 19 17  1  0  0  0  0
 20 17  1  0  0  0  0
 21 22  1  0  0  0  0
 23 21  1  0  0  0  0
 24 21  1  0  0  0  0
 25 26  1  0  0  0  0
 27 25  1  0  0  0  0
 28 25  1  0  0  0  0
M  END
