1,2
q = 0.0, confidence = 1.0

 44 46  0  0  0  0  0  0  0  0999 V2000
   -1.8938   -1.0002   -0.1554 C   0  0  0  0  0  2  0  0  0  0  0  0
    1.9623   -0.9365   -0.1841 C   0  0  0  0  0  2  0  0  0  0  0  0
   -4.1120   -0.5833   -0.4745 C   0  0  0  0  0  0  0  0  0  0  0  0
   -4.9925   -0.0227   -0.8038 H   0  0  0  0  0  0  0  0  0  0  0  0
   -4.0064   -1.7928    0.1646 C   0  0  0  0  0  0  0  0  0  0  0  0
   -4.7775   -2.4894    0.5081 H   0  0  0  0  0  0  0  0  0  0  0  0
    4.1696   -0.4072   -0.3901 C   0  0  0  0  0  0  0  0  0  0  0  0
    5.0353    0.2138   -0.6409 H   0  0  0  0  0  0  0  0  0  0  0  0
    4.0958   -1.6839    0.1065 C   0  0  0  0  0  0  0  0  0  0  0  0
    4.8848   -2.3881    0.3883 H   0  0  0  0  0  0  0  0  0  0  0  0
   -2.4762    1.1487   -1.3319 C   0  0  0  0  0  0  0  0  0  0  0  0
   -3.3640    1.8046   -1.2591 H   0  0  0  0  0  0  0  0  0  0  0  0
   -2.3021    0.9392   -2.4071 H   0  0  0  0  0  0  0  0  0  0  0  0
   -1.2555    1.7688   -0.7050 C   0  0  0  0  0  0  0  0  0  0  0  0
    0.0048    1.4789   -1.2606 C   0  0  0  0  0  0  0  0  0  0  0  0
    0.0572    0.9612   -2.2335 H   0  0  0  0  0  0  0  0  0  0  0  0
    1.2008    1.8425   -0.6120 C   0  0  0  0  0  0  0  0  0  0  0  0
    1.1423    2.5536    0.6104 C   0  0  0  0  0  0  0  0  0  0  0  0
   -0.1270    2.8809    1.1256 C   0  0  0  0  0  0  0  0  0  0  0  0
   -0.1795    3.4463    2.0695 H   0  0  0  0  0  0  0  0  0  0  0  0
   -1.3316    2.4863    0.5133 C   0  0  0  0  0  0  0  0  0  0  0  0
   -2.6567    2.7911    1.1616 C   0  0  0  0  0  0  0  0  0  0  0  0
   -3.3201    3.3723    0.4874 H   0  0  0  0  0  0  0  0  0  0  0  0
   -2.5260    3.3799    2.0883 H   0  0  0  0  0  0  0  0  0  0  0  0
   -3.2013    1.8610    1.4283 H   0  0  0  0  0  0  0  0  0  0  0  0
    2.3937    2.9297    1.3601 C   0  0  0  0  0  0  0  0  0  0  0  0
    2.1565    3.4808    2.2889 H   0  0  0  0  0  0  0  0  0  0  0  0
    3.0596    3.5759    0.7504 H   0  0  0  0  0  0  0  0  0  0  0  0
    2.9830    2.0324    1.6427 H   0  0  0  0  0  0  0  0  0  0  0  0
    2.5011    1.3243   -1.1656 C   0  0  0  0  0  0  0  0  0  0  0  0
    2.4285    1.1837   -2.2636 H   0  0  0  0  0  0  0  0  0  0  0  0
    3.3408    2.0181   -0.9741 H   0  0  0  0  0  0  0  0  0  0  0  0
   -2.1018   -3.2057    0.9925 C   0  0  0  0  0  0  0  0  0  0  0  0
   -1.0355   -3.0095    1.2059 H   0  0  0  0  0  0  0  0  0  0  0  0
   -2.1904   -4.0914    0.3324 H   0  0  0  0  0  0  0  0  0  0  0  0
   -2.6310   -3.4057    1.9437 H   0  0  0  0  0  0  0  0  0  0  0  0
    2.2266   -3.2432    0.7273 C   0  0  0  0  0  0  0  0  0  0  0  0
    2.7680   -4.0925    0.2689 H   0  0  0  0  0  0  0  0  0  0  0  0
    1.1580   -3.3034    0.4519 H   0  0  0  0  0  0  0  0  0  0  0  0
    2.3277   -3.2979    1.8296 H   0  0  0  0  0  0  0  0  0  0  0  0
   -2.8190   -0.1203   -0.6547 N   0  0  0  0  0  0  0  0  0  0  0  0
   -2.6519   -2.0216    0.3490 N   0  0  0  0  0  0  0  0  0  0  0  0
    2.8644    0.0264   -0.5564 N   0  0  0  0  0  0  0  0  0  0  0  0
    2.7474   -1.9831    0.2180 N   0  0  0  0  0  0  0  0  0  0  0  0
  1 42  1  0  0  0  0
  2 44  1  0  0  0  0
  3  5  2  0  0  0  0
  4  3  1  0  0  0  0
  5 42  1  0  0  0  0
  5  6  1  0  0  0  0
  7  9  2  0  0  0  0
  8  7  1  0  0  0  0
  9 44  1  0  0  0  0
  9 10  1  0  0  0  0
 11 12  1  0  0  0  0
 11 14  1  0  0  0  0
 11 41  1  0  0  0  0
 13 11  1  0  0  0  0
 14 21  1  0  0  0  0
 15 14  2  0  0  0  0
 15 17  1  0  0  0  0
 16 15  1  0  0  0  0
 17 18  2  0  0  0  0
 18 19  1  0  0  0  0
 18 26  1  0  0  0  0
 19 20  1  0  0  0  0
 21 19  2  0  0  0  0
 21 22  1  0  0  0  0
 22 25  1  0  0  0  0
 22 24  1  0  0  0  0
 23 22  1  0  0  0  0
 26 29  1  0  0  0  0
 26 27  1  0  0  0  0
 28 26  1  0  0  0  0
 30 32  1  0  0  0  0
 30 17  1  0  0  0  0
 30 43  1  0  0  0  0
 31 30  1  0  0  0  0
 33 34  1  0  0  0  0
 33 36  1  0  0  0  0
 35 33  1  0  0  0  0
 37 40  1  0  0  0  0
 38 37  1  0  0  0  0
 39 37  1  0  0  0  0
 41  3  1  0  0  0  0
 41  1  1  0  0  0  0
 42 33  1  0  0  0  0
 43  7  1  0  0  0  0
 43  2  1  0  0  0  0
 44 37  1  0  0  0  0
M  END
