1,3
q = -2.0, confidence = 0.532

 41 44  0  0  1  0  0  0  0  0999 V2000
   -1.0911    0.8259   -0.0125 C   0  0  2  0  0  3  0  0  0  0  0  0
    0.4416    0.7570   -0.0137 C   0  0  0  0  0  0  0  0  0  0  0  0
    1.0605   -0.4636   -0.0348 C   0  0  0  0  0  3  0  0  0  0  0  0
   -1.7418    1.9982   -0.7529 C   0  0  2  0  0  0  0  0  0  0  0  0
   -1.0256    2.7242   -1.1761 H   0  0  0  0  0  0  0  0  0  0  0  0
   -1.7611    1.9506    0.7589 C   0  0  1  0  0  0  0  0  0  0  0  0
   -1.0816    2.6629    1.2623 H   0  0  0  0  0  0  0  0  0  0  0  0
   -3.0874    1.7630    1.4808 C   0  0  0  0  0  0  0  0  0  0  0  0
   -3.4314    2.7648    1.8234 H   0  0  0  0  0  0  0  0  0  0  0  0
   -2.9489    1.1640    2.4059 H   0  0  0  0  0  0  0  0  0  0  0  0
   -4.1820    1.1625    0.5908 C   0  0  0  0  0  0  0  0  0  0  0  0
   -3.9329    0.1071    0.3422 H   0  0  0  0  0  0  0  0  0  0  0  0
   -5.1461    1.1428    1.1407 H   0  0  0  0  0  0  0  0  0  0  0  0
   -4.3105    1.9675   -0.7052 C   0  0  0  0  0  0  0  0  0  0  0  0
   -4.5039    3.0316   -0.4425 H   0  0  0  0  0  0  0  0  0  0  0  0
   -5.1870    1.6289   -1.2966 H   0  0  0  0  0  0  0  0  0  0  0  0
   -3.0362    1.8680   -1.5590 C   0  0  0  0  0  0  0  0  0  0  0  0
   -3.0458    0.9069   -2.1101 H   0  0  0  0  0  0  0  0  0  0  0  0
   -3.0524    2.6568   -2.3394 H   0  0  0  0  0  0  0  0  0  0  0  0
    1.1792    2.0607    0.0201 C   0  0  0  0  0  0  0  0  0  0  0  0
    1.5332    2.7198   -1.1764 C   0  0  0  0  0  0  0  0  0  0  0  0
    1.2696    2.2571   -2.1399 H   0  0  0  0  0  0  0  0  0  0  0  0
    2.2399    3.9315   -1.1421 C   0  0  0  0  0  0  0  0  0  0  0  0
    2.5173    4.4288   -2.0843 H   0  0  0  0  0  0  0  0  0  0  0  0
    2.5979    4.5058    0.0884 C   0  0  0  0  0  0  0  0  0  0  0  0
    3.1539    5.4551    0.1149 H   0  0  0  0  0  0  0  0  0  0  0  0
    2.2443    3.8611    1.2846 C   0  0  0  0  0  0  0  0  0  0  0  0
    2.5251    4.3030    2.2531 H   0  0  0  0  0  0  0  0  0  0  0  0
    1.5378    2.6492    1.2513 C   0  0  0  0  0  0  0  0  0  0  0  0
    1.2776    2.1320    2.1876 H   0  0  0  0  0  0  0  0  0  0  0  0
    2.4667   -0.8581   -0.0527 C   0  0  0  0  0  0  0  0  0  0  0  0
    2.7673   -2.2471   -0.0517 C   0  0  0  0  0  0  0  0  0  0  0  0
    1.9280   -2.9576   -0.0360 H   0  0  0  0  0  0  0  0  0  0  0  0
    4.0853   -2.7197   -0.0698 C   0  0  0  0  0  0  0  0  0  0  0  0
    4.2772   -3.8040   -0.0683 H   0  0  0  0  0  0  0  0  0  0  0  0
    5.1570   -1.8137   -0.0901 C   0  0  0  0  0  0  0  0  0  0  0  0
    6.1955   -2.1782   -0.1045 H   0  0  0  0  0  0  0  0  0  0  0  0
    4.8873   -0.4347   -0.0919 C   0  0  0  0  0  0  0  0  0  0  0  0
    5.7185    0.2874   -0.1079 H   0  0  0  0  0  0  0  0  0  0  0  0
    3.5699    0.0393   -0.0736 C   0  0  0  0  0  0  0  0  0  0  0  0
    3.3927    1.1213   -0.0758 H   0  0  0  0  0  0  0  0  0  0  0  0
  1  2  1  1  0  0  0
  1  6  1  0  0  0  0
  2 20  1  0  0  0  0
  3  2  2  0  0  0  0
  4  5  1  6  0  0  0
  4  1  1  0  0  0  0
  4  6  1  0  0  0  0
  6  7  1  1  0  0  0
  6  8  1  0  0  0  0
  8  9  1  0  0  0  0
  8 10  1  0  0  0  0
 11 13  1  0  0  0  0
 11  8  1  0  0  0  0
 12 11  1  0  0  0  0
 14 15  1  0  0  0  0
 14 11  1  0  0  0  0
 16 14  1  0  0  0  0
 17  4  1  0  0  0  0
 17 14  1  0  0  0  0
 18 17  1  0  0  0  0
 19 17  1  0  0  0  0
 20 29  1  0  0  0  0
 21 23  1  0  0  0  0
 21 20  2  0  0  0  0
 22 21  1  0  0  0  0
 23 25  2  0  0  0  0
 24 23  1  0  0  0  0
 25 26  1  0  0  0  0
 25 27  1  0  0  0  0
 27 28  1  0  0  0  0
 29 27  2  0  0  0  0
 29 30  1  0  0  0  0
 31 32  1  0  0  0  0
 31  3  1  0  0  0  0
 32 33  1  0  0  0  0
 34 35  1  0  0  0  0
 34 32  2  0  0  0  0
 36 34  1  0  0  0  0
 37 36  1  0  0  0  0
 38 36  2  0  0  0  0
 38 40  1  0  0  0  0
 39 38  1  0  0  0  0
 40 31  2  0  0  0  0
 41 40  1  0  0  0  0
M  END
