4,10
q = -2.0, confidence = 0.744

 25 25  0  0  0  0  0  0  0  0999 V2000
   -3.2669    0.2630   -0.8330 O   0  0  0  0  0  0  0  0  0  0  0  0
   -3.5685    2.3212    0.0697 O   0  0  0  0  0  0  0  0  0  0  0  0
    3.5093    2.4195    0.1687 O   0  0  0  0  0  0  0  0  0  0  0  0
    1.3205    1.4449    0.0068 C   0  0  0  0  0  2  0  0  0  0  0  0
    3.3094    0.3392   -0.7083 O   0  0  0  0  0  0  0  0  0  0  0  0
   -0.0562    4.8719    0.2043 O   0  0  0  0  0  0  0  0  0  0  0  0
    2.7830    1.4773   -0.1431 C   0  0  0  0  0  0  0  0  0  0  0  0
   -2.8018    1.4062   -0.2259 C   0  0  0  0  0  0  0  0  0  0  0  0
    0.6921    2.6535    0.2078 C   0  0  0  0  0  0  0  0  0  0  0  0
   -1.3465    1.4134   -0.0165 C   0  0  0  0  0  2  0  0  0  0  0  0
   -0.7526    2.6371    0.1931 C   0  0  0  0  0  0  0  0  0  0  0  0
   -1.2272    4.0567    0.3264 C   0  0  0  0  0  0  0  0  0  0  0  0
   -1.9718    4.3427   -0.4478 H   0  0  0  0  0  0  0  0  0  0  0  0
   -1.7337    4.2084    1.3126 H   0  0  0  0  0  0  0  0  0  0  0  0
    1.1298    4.0835    0.3576 C   0  0  0  0  0  0  0  0  0  0  0  0
    1.6051    4.2440    1.3579 H   0  0  0  0  0  0  0  0  0  0  0  0
    1.8886    4.3892   -0.3948 H   0  0  0  0  0  0  0  0  0  0  0  0
   -4.6718    0.2394   -1.0700 C   0  0  0  0  0  0  0  0  0  0  0  0
   -5.2407    0.3164   -0.1197 H   0  0  0  0  0  0  0  0  0  0  0  0
   -4.8852   -0.7263   -1.5650 H   0  0  0  0  0  0  0  0  0  0  0  0
   -4.9867    1.0830   -1.7184 H   0  0  0  0  0  0  0  0  0  0  0  0
    4.7232    0.3558   -0.8837 C   0  0  0  0  0  0  0  0  0  0  0  0
    5.0391    1.1904   -1.5433 H   0  0  0  0  0  0  0  0  0  0  0  0
    4.9888   -0.6161   -1.3401 H   0  0  0  0  0  0  0  0  0  0  0  0
    5.2474    0.4791    0.0871 H   0  0  0  0  0  0  0  0  0  0  0  0
  1  8  1  0  0  0  0
  4  9  1  0  0  0  0
  5  7  1  0  0  0  0
  6 12  1  0  0  0  0
  6 15  1  0  0  0  0
  7  4  1  0  0  0  0
  7  3  2  0  0  0  0
  8 10  1  0  0  0  0
  8  2  2  0  0  0  0
  9 15  1  0  0  0  0
 10 11  1  0  0  0  0
 11  9  2  0  0  0  0
 11 12  1  0  0  0  0
 12 14  1  0  0  0  0
 13 12  1  0  0  0  0
 15 16  1  0  0  0  0
 17 15  1  0  0  0  0
 18  1  1  0  0  0  0
 18 19  1  0  0  0  0
 20 18  1  0  0  0  0
 21 18  1  0  0  0  0
 22  5  1  0  0  0  0
 22 25  1  0  0  0  0
 23 22  1  0  0  0  0
 24 22  1  0  0  0  0
M  END
