5,11
q = 0.0, confidence = 0.992

 25 25  0  0  1  0  0  0  0  0999 V2000
   -3.9823   -2.4698    0.4701 O   0  0  0  0  0  0  0  0  0  0  0  0
   -3.0022   -2.5880    0.4460 H   0  0  0  0  0  0  0  0  0  0  0  0
   -2.9436    0.0861    1.5405 C   0  0  0  0  0  0  0  0  0  0  0  0
   -3.6034   -0.7887    1.6575 H   0  0  0  0  0  0  0  0  0  0  0  0
   -1.7859    0.2160    2.3935 C   0  0  0  0  0  3  0  0  0  0  0  0
   -1.6326   -0.5170    3.1987 H   0  0  0  0  0  0  0  0  0  0  0  0
   -0.8336    1.2526    2.1792 C   0  0  0  0  0  0  0  0  0  0  0  0
    0.0517    1.3437    2.8256 H   0  0  0  0  0  0  0  0  0  0  0  0
   -1.0020    2.1276    1.0508 C   0  0  0  0  0  0  0  0  0  0  0  0
   -0.2416    2.8861    0.8198 H   0  0  0  0  0  0  0  0  0  0  0  0
   -2.0849    1.9174    0.1556 C   0  0  0  0  0  3  0  0  0  0  0  0
   -2.1264    2.5004   -0.7760 H   0  0  0  0  0  0  0  0  0  0  0  0
   -3.1113    0.9187    0.4105 C   0  0  0  0  0  0  0  0  0  0  0  0
   -4.2273    0.7760   -0.6045 C   0  0  1  0  0  0  0  0  0  0  0  0
   -3.7108    0.7757   -1.5921 H   0  0  0  0  0  0  0  0  0  0  0  0
   -5.0793   -0.5059   -0.5385 C   0  0  0  0  0  0  0  0  0  0  0  0
   -5.8521   -0.3929   -1.3291 H   0  0  0  0  0  0  0  0  0  0  0  0
   -5.6447   -0.5538    0.4192 H   0  0  0  0  0  0  0  0  0  0  0  0
   -4.3801   -1.8616   -0.7509 C   0  0  0  0  0  0  0  0  0  0  0  0
   -5.1052   -2.5391   -1.2598 H   0  0  0  0  0  0  0  0  0  0  0  0
   -3.5155   -1.7322   -1.4402 H   0  0  0  0  0  0  0  0  0  0  0  0
   -5.1324    2.0220   -0.5294 C   0  0  0  0  0  0  0  0  0  0  0  0
   -4.5566    2.9642   -0.6273 H   0  0  0  0  0  0  0  0  0  0  0  0
   -5.6749    2.0570    0.4381 H   0  0  0  0  0  0  0  0  0  0  0  0
   -5.8869    2.0010   -1.3411 H   0  0  0  0  0  0  0  0  0  0  0  0
  2  1  1  0  0  0  0
  3  4  1  0  0  0  0
  3  5  1  0  0  0  0
  5  6  1  0  0  0  0
  7  5  1  0  0  0  0
  7  8  1  0  0  0  0
  9  7  2  0  0  0  0
 10  9  1  0  0  0  0
 11 13  1  0  0  0  0
 11  9  1  0  0  0  0
 12 11  1  0  0  0  0
 13  3  2  0  0  0  0
 14 15  1  6  0  0  0
 14 16  1  0  0  0  0
 14 22  1  0  0  0  0
 14 13  1  0  0  0  0
 16 18  1  0  0  0  0
 17 16  1  0  0  0  0
 19 16  1  0  0  0  0
 19  1  1  0  0  0  0
 20 19  1  0  0  0  0
 21 19  1  0  0  0  0
 22 24  1  0  0  0  0
 23 22  1  0  0  0  0
 25 22  1  0  0  0  0
M  END
