1,33
q = 0.0, confidence = 0.98

 70 72  0  0  1  0  0  0  0  0999 V2000
    1.4014    0.6111   -0.4792 C   0  0  1  0  0  3  0  0  0  0  0  0
    1.0353    1.8685   -0.1559 O   0  0  0  0  0  0  0  0  0  0  0  0
    0.3248    3.2199   -0.9498 Si  0  0  0  0  0  0  0  0  0  0  0  0
    1.6970    4.2397   -1.7450 C   0  0  0  0  0  0  0  0  0  0  0  0
    2.4856    4.5111   -1.0157 H   0  0  0  0  0  0  0  0  0  0  0  0
    1.2799    5.1789   -2.1633 H   0  0  0  0  0  0  0  0  0  0  0  0
    2.1706    3.6865   -2.5815 H   0  0  0  0  0  0  0  0  0  0  0  0
   -0.8627    2.6508   -2.2988 C   0  0  0  0  0  0  0  0  0  0  0  0
   -1.7998    2.2118   -1.9065 H   0  0  0  0  0  0  0  0  0  0  0  0
   -0.3790    1.8881   -2.9433 H   0  0  0  0  0  0  0  0  0  0  0  0
   -1.1295    3.5132   -2.9441 H   0  0  0  0  0  0  0  0  0  0  0  0
   -0.5157    4.1606    0.4845 C   0  0  0  0  0  0  0  0  0  0  0  0
    0.5499    4.5419    1.5315 C   0  0  0  0  0  0  0  0  0  0  0  0
    1.0298    3.6416    1.9654 H   0  0  0  0  0  0  0  0  0  0  0  0
    0.0799    5.1059    2.3671 H   0  0  0  0  0  0  0  0  0  0  0  0
    1.3447    5.1883    1.1052 H   0  0  0  0  0  0  0  0  0  0  0  0
   -1.5824    3.2735    1.1545 C   0  0  0  0  0  0  0  0  0  0  0  0
   -2.3683    2.9481    0.4403 H   0  0  0  0  0  0  0  0  0  0  0  0
   -2.0939    3.8379    1.9650 H   0  0  0  0  0  0  0  0  0  0  0  0
   -1.1300    2.3736    1.6172 H   0  0  0  0  0  0  0  0  0  0  0  0
   -1.1766    5.4292   -0.0904 C   0  0  0  0  0  0  0  0  0  0  0  0
   -1.9534    5.1903   -0.8469 H   0  0  0  0  0  0  0  0  0  0  0  0
   -0.4385    6.1090   -0.5648 H   0  0  0  0  0  0  0  0  0  0  0  0
   -1.6749    6.0039    0.7211 H   0  0  0  0  0  0  0  0  0  0  0  0
    2.7855    0.3069   -0.6532 C   0  0  1  0  0  3  0  0  0  0  0  0
    3.7958    1.4327   -0.5566 C   0  0  0  0  0  0  0  0  0  0  0  0
    3.3927    2.2888   -1.1322 H   0  0  0  0  0  0  0  0  0  0  0  0
    4.7252    1.1317   -1.0770 H   0  0  0  0  0  0  0  0  0  0  0  0
    4.1268    1.9017    0.8658 C   0  0  0  0  0  0  0  0  0  0  0  0
    4.8289    2.7600    0.8386 H   0  0  0  0  0  0  0  0  0  0  0  0
    4.5944    1.0919    1.4583 H   0  0  0  0  0  0  0  0  0  0  0  0
    3.2110    2.2197    1.3995 H   0  0  0  0  0  0  0  0  0  0  0  0
    3.1792   -1.0621   -0.8874 C   0  0  2  0  0  3  0  0  0  0  0  0
    4.6312   -1.4472   -1.0646 C   0  0  0  0  0  0  0  0  0  0  0  0
    4.7762   -2.4761   -0.6850 H   0  0  0  0  0  0  0  0  0  0  0  0
    5.2706   -0.7981   -0.4361 H   0  0  0  0  0  0  0  0  0  0  0  0
    5.0630   -1.3815   -2.5358 C   0  0  0  0  0  0  0  0  0  0  0  0
    6.1287   -1.6638   -2.6487 H   0  0  0  0  0  0  0  0  0  0  0  0
    4.9351   -0.3623   -2.9545 H   0  0  0  0  0  0  0  0  0  0  0  0
    4.4561   -2.0775   -3.1479 H   0  0  0  0  0  0  0  0  0  0  0  0
    2.1855   -2.0710   -1.0657 C   0  0  2  0  0  3  0  0  0  0  0  0
    2.5750   -3.3351   -1.4353 O   0  0  0  0  0  0  0  0  0  0  0  0
    2.6452   -4.3283   -0.4100 C   0  0  0  0  0  0  0  0  0  0  0  0
    3.3262   -4.0096    0.4077 H   0  0  0  0  0  0  0  0  0  0  0  0
    3.0379   -5.2450   -0.8896 H   0  0  0  0  0  0  0  0  0  0  0  0
    1.6490   -4.5418    0.0320 H   0  0  0  0  0  0  0  0  0  0  0  0
    0.7858   -1.7570   -0.9676 C   0  0  0  0  0  0  0  0  0  0  0  0
   -0.2426   -2.7405   -1.1806 C   0  0  0  0  0  0  0  0  0  0  0  0
    0.0621   -3.7397   -1.5196 H   0  0  0  0  0  0  0  0  0  0  0  0
   -1.5690   -2.4304   -1.0013 C   0  0  0  0  0  0  0  0  0  0  0  0
   -2.3272   -3.2044   -1.1883 H   0  0  0  0  0  0  0  0  0  0  0  0
   -1.9857   -1.1229   -0.5624 C   0  0  0  0  0  0  0  0  0  0  0  0
   -3.3774   -0.7765   -0.3038 C   0  0  0  0  0  0  0  0  0  0  0  0
   -3.5328    0.2617    0.0364 H   0  0  0  0  0  0  0  0  0  0  0  0
   -4.4630   -1.5886   -0.4406 C   0  0  0  0  0  0  0  0  0  0  0  0
   -4.3075   -2.6273   -0.7785 H   0  0  0  0  0  0  0  0  0  0  0  0
   -5.8594   -1.2364   -0.1862 C   0  0  0  0  0  0  0  0  0  0  0  0
   -6.2704    0.0421    0.2701 C   0  0  0  0  0  0  0  0  0  0  0  0
   -5.5197    0.8251    0.4539 H   0  0  0  0  0  0  0  0  0  0  0  0
   -7.6207    0.3255    0.4955 C   0  0  0  0  0  0  0  0  0  0  0  0
   -7.9145    1.3250    0.8511 H   0  0  0  0  0  0  0  0  0  0  0  0
   -8.6028   -0.6569    0.2731 C   0  0  0  0  0  0  0  0  0  0  0  0
   -9.6645   -0.4296    0.4524 H   0  0  0  0  0  0  0  0  0  0  0  0
   -8.2163   -1.9288   -0.1771 C   0  0  0  0  0  0  0  0  0  0  0  0
   -8.9750   -2.7065   -0.3534 H   0  0  0  0  0  0  0  0  0  0  0  0
   -6.8636   -2.2127   -0.4026 C   0  0  0  0  0  0  0  0  0  0  0  0
   -6.5649   -3.2127   -0.7551 H   0  0  0  0  0  0  0  0  0  0  0  0
   -1.0002   -0.1525   -0.3826 C   0  0  0  0  0  0  0  0  0  0  0  0
   -1.2852    0.8477   -0.0358 H   0  0  0  0  0  0  0  0  0  0  0  0
    0.3797   -0.4115   -0.6258 C   0  0  0  0  0  0  0  0  0  0  0  0
  1  2  1  1  0  0  0
  3  2  1  0  0  0  0
  3 12  1  0  0  0  0
  4  5  1  0  0  0  0
  4  3  1  0  0  0  0
  6  4  1  0  0  0  0
  7  4  1  0  0  0  0
  8  9  1  0  0  0  0
  8  3  1  0  0  0  0
 10  8  1  0  0  0  0
 11  8  1  0  0  0  0
 12 17  1  0  0  0  0
 12 13  1  0  0  0  0
 13 14  1  0  0  0  0
 13 15  1  0  0  0  0
 16 13  1  0  0  0  0
 17 20  1  0  0  0  0
 17 19  1  0  0  0  0
 18 17  1  0  0  0  0
 21 12  1  0  0  0  0
 21 24  1  0  0  0  0
 22 21  1  0  0  0  0
 23 21  1  0  0  0  0
 25 26  1  1  0  0  0
 25  1  1  0  0  0  0
 26 29  1  0  0  0  0
 27 26  1  0  0  0  0
 28 26  1  0  0  0  0
 29 32  1  0  0  0  0
 29 31  1  0  0  0  0
 30 29  1  0  0  0  0
 33 34  1  6  0  0  0
 33 25  1  0  0  0  0
 34 35  1  0  0  0  0
 34 36  1  0  0  0  0
 37 34  1  0  0  0  0
 38 37  1  0  0  0  0
 39 37  1  0  0  0  0
 40 37  1  0  0  0  0
 41 42  1  6  0  0  0
 41 47  1  0  0  0  0
 41 33  1  0  0  0  0
 42 43  1  0  0  0  0
 43 46  1  0  0  0  0
 43 44  1  0  0  0  0
 45 43  1  0  0  0  0
 47 70  1  0  0  0  0
 48 50  1  0  0  0  0
 48 47  2  0  0  0  0
 49 48  1  0  0  0  0
 50 52  2  0  0  0  0
 51 50  1  0  0  0  0
 52 68  1  0  0  0  0
 52 53  1  0  0  0  0
 53 54  1  0  0  0  0
 55 53  2  0  0  0  0
 55 57  1  0  0  0  0
 56 55  1  0  0  0  0
 57 58  1  0  0  0  0
 58 59  1  0  0  0  0
 58 60  2  0  0  0  0
 60 61  1  0  0  0  0
 62 63  1  0  0  0  0
 62 60  1  0  0  0  0
 64 62  2  0  0  0  0
 65 64  1  0  0  0  0
 66 57  2  0  0  0  0
 66 64  1  0  0  0  0
 67 66  1  0  0  0  0
 68 69  1  0  0  0  0
 70  1  1  0  0  0  0
 70 68  2  0  0  0  0
M  END
