2,4
q = -1.0, confidence = 0.0

 56 57  0  0  1  0  0  0  0  0999 V2000
   -0.6135   -0.7821    0.4712 C   0  0  0  0  0  0  0  0  0  0  0  0
   -1.4801   -0.3552    1.5766 C   0  0  1  0  0  3  0  0  0  0  0  0
   -2.7408   -1.0553    1.4711 C   0  0  1  0  0  3  0  0  0  0  0  0
   -2.7080   -1.7944    0.2385 C   0  0  1  0  0  3  0  0  0  0  0  0
   -1.3768   -1.6548   -0.3591 C   0  0  0  0  0  0  0  0  0  0  0  0
    0.8030   -0.4030    0.2774 C   0  0  0  0  0  0  0  0  0  0  0  0
    1.7815   -1.4063    0.1680 C   0  0  0  0  0  0  0  0  0  0  0  0
    1.4647   -2.4576    0.2381 H   0  0  0  0  0  0  0  0  0  0  0  0
    3.1450   -1.0901   -0.0153 C   0  0  0  0  0  0  0  0  0  0  0  0
    3.5020    0.2673   -0.0670 C   0  0  0  0  0  0  0  0  0  0  0  0
    4.5569    0.5374   -0.2086 H   0  0  0  0  0  0  0  0  0  0  0  0
    2.5491    1.3065    0.0460 C   0  0  0  0  0  0  0  0  0  0  0  0
    1.2034    0.9504    0.2089 C   0  0  0  0  0  0  0  0  0  0  0  0
    0.4230    1.7202    0.2485 H   0  0  0  0  0  0  0  0  0  0  0  0
    4.1735   -2.2282   -0.1502 C   0  0  0  0  0  0  0  0  0  0  0  0
    4.1497   -3.0909    1.1320 C   0  0  0  0  0  0  0  0  0  0  0  0
    4.4131   -2.4838    2.0216 H   0  0  0  0  0  0  0  0  0  0  0  0
    4.8796   -3.9232    1.0533 H   0  0  0  0  0  0  0  0  0  0  0  0
    3.1505   -3.5351    1.3111 H   0  0  0  0  0  0  0  0  0  0  0  0
    5.6040   -1.7002   -0.3526 C   0  0  0  0  0  0  0  0  0  0  0  0
    5.6920   -1.0898   -1.2739 H   0  0  0  0  0  0  0  0  0  0  0  0
    6.3084   -2.5510   -0.4476 H   0  0  0  0  0  0  0  0  0  0  0  0
    5.9409   -1.0827    0.5043 H   0  0  0  0  0  0  0  0  0  0  0  0
    3.8003   -3.1030   -1.3688 C   0  0  0  0  0  0  0  0  0  0  0  0
    2.7893   -3.5447   -1.2643 H   0  0  0  0  0  0  0  0  0  0  0  0
    4.5228   -3.9375   -1.4842 H   0  0  0  0  0  0  0  0  0  0  0  0
    3.8116   -2.5051   -2.3026 H   0  0  0  0  0  0  0  0  0  0  0  0
    3.0051    2.7743   -0.0400 C   0  0  0  0  0  0  0  0  0  0  0  0
    4.0435    3.0501    1.0710 C   0  0  0  0  0  0  0  0  0  0  0  0
    4.3900    4.1032    1.0238 H   0  0  0  0  0  0  0  0  0  0  0  0
    4.9349    2.3988    0.9751 H   0  0  0  0  0  0  0  0  0  0  0  0
    3.6047    2.8765    2.0744 H   0  0  0  0  0  0  0  0  0  0  0  0
    3.6487    3.0232   -1.4230 C   0  0  0  0  0  0  0  0  0  0  0  0
    3.9932    4.0748   -1.5073 H   0  0  0  0  0  0  0  0  0  0  0  0
    2.9203    2.8326   -2.2368 H   0  0  0  0  0  0  0  0  0  0  0  0
    4.5250    2.3662   -1.5930 H   0  0  0  0  0  0  0  0  0  0  0  0
    1.8340    3.7568    0.1368 C   0  0  0  0  0  0  0  0  0  0  0  0
    1.3378    3.6351    1.1208 H   0  0  0  0  0  0  0  0  0  0  0  0
    1.0623    3.6349   -0.6493 H   0  0  0  0  0  0  0  0  0  0  0  0
    2.2069    4.7992    0.0782 H   0  0  0  0  0  0  0  0  0  0  0  0
   -1.0394    0.4537    2.7604 C   0  0  0  0  0  0  0  0  0  0  0  0
   -1.8713    1.0494    3.1826 H   0  0  0  0  0  0  0  0  0  0  0  0
   -0.2146    1.1426    2.5015 H   0  0  0  0  0  0  0  0  0  0  0  0
   -0.6671   -0.2186    3.5631 H   0  0  0  0  0  0  0  0  0  0  0  0
   -3.8405   -1.0552    2.4873 C   0  0  0  0  0  0  0  0  0  0  0  0
   -3.6896   -1.8589    3.2420 H   0  0  0  0  0  0  0  0  0  0  0  0
   -4.8294   -1.2230    2.0188 H   0  0  0  0  0  0  0  0  0  0  0  0
   -3.8892   -0.0945    3.0349 H   0  0  0  0  0  0  0  0  0  0  0  0
   -3.7823   -2.7104   -0.2672 C   0  0  0  0  0  0  0  0  0  0  0  0
   -3.6335   -3.7405    0.1237 H   0  0  0  0  0  0  0  0  0  0  0  0
   -3.7807   -2.7753   -1.3721 H   0  0  0  0  0  0  0  0  0  0  0  0
   -4.7882   -2.3749    0.0499 H   0  0  0  0  0  0  0  0  0  0  0  0
   -0.9017   -2.3530   -1.5973 C   0  0  0  0  0  0  0  0  0  0  0  0
   -0.0330   -1.8304   -2.0402 H   0  0  0  0  0  0  0  0  0  0  0  0
   -1.6978   -2.4143   -2.3642 H   0  0  0  0  0  0  0  0  0  0  0  0
   -0.5873   -3.3952   -1.3700 H   0  0  0  0  0  0  0  0  0  0  0  0
  1  2  1  0  0  0  0
  2 41  1  1  0  0  0
  3  2  1  0  0  0  0
  3 45  1  1  0  0  0
  4 49  1  1  0  0  0
  4  3  1  0  0  0  0
  5  4  1  0  0  0  0
  5  1  2  0  0  0  0
  6  1  1  0  0  0  0
  7  8  1  0  0  0  0
  7  6  2  0  0  0  0
  9  7  1  0  0  0  0
 10  9  2  0  0  0  0
 10 12  1  0  0  0  0
 11 10  1  0  0  0  0
 12 13  2  0  0  0  0
 13 14  1  0  0  0  0
 13  6  1  0  0  0  0
 15  9  1  0  0  0  0
 15 16  1  0  0  0  0
 16 19  1  0  0  0  0
 16 17  1  0  0  0  0
 18 16  1  0  0  0  0
 20 15  1  0  0  0  0
 20 23  1  0  0  0  0
 21 20  1  0  0  0  0
 22 20  1  0  0  0  0
 24 25  1  0  0  0  0
 24 15  1  0  0  0  0
 26 24  1  0  0  0  0
 27 24  1  0  0  0  0
 28 12  1  0  0  0  0
 28 37  1  0  0  0  0
 28 29  1  0  0  0  0
 29 32  1  0  0  0  0
 30 29  1  0  0  0  0
 31 29  1  0  0  0  0
 33 28  1  0  0  0  0
 34 33  1  0  0  0  0
 35 33  1  0  0  0  0
 36 33  1  0  0  0  0
 37 38  1  0  0  0  0
 39 37  1  0  0  0  0
 40 37  1  0  0  0  0
 41 42  1  0  0  0  0
 41 44  1  0  0  0  0
 43 41  1  0  0  0  0
 45 48  1  0  0  0  0
 45 46  1  0  0  0  0
 47 45  1  0  0  0  0
 49 52  1  0  0  0  0
 49 50  1  0  0  0  0
 51 49  1  0  0  0  0
 53 56  1  0  0  0  0
 53  5  1  0  0  0  0
 54 53  1  0  0  0  0
 55 53  1  0  0  0  0
M  END
