1,11
q = -2.0, confidence = 0.626

 36 36  0  0  1  0  0  0  0  0999 V2000
   -0.7901    1.3631    1.2599 C   0  0  0  0  0  3  0  0  0  0  0  0
   -2.1403    1.5390    0.8402 C   0  0  0  0  0  0  0  0  0  0  0  0
   -3.0191    2.3694    1.5553 C   0  0  0  0  0  0  0  0  0  0  0  0
   -4.0595    2.4852    1.2274 H   0  0  0  0  0  0  0  0  0  0  0  0
   -2.5521    3.0548    2.6892 C   0  0  0  0  0  0  0  0  0  0  0  0
   -3.2382    3.7059    3.2520 H   0  0  0  0  0  0  0  0  0  0  0  0
   -1.2142    2.9184    3.0960 C   0  0  0  0  0  0  0  0  0  0  0  0
   -0.8494    3.4697    3.9773 H   0  0  0  0  0  0  0  0  0  0  0  0
   -0.3396    2.0810    2.3838 C   0  0  0  0  0  0  0  0  0  0  0  0
    0.7106    1.9850    2.7027 H   0  0  0  0  0  0  0  0  0  0  0  0
   -1.1185   -1.2087    0.2007 C   0  0  0  0  0  3  0  0  0  0  0  0
   -2.3972   -0.7747   -0.0816 C   0  0  0  0  0  0  0  0  0  0  0  0
   -2.4612    0.7242   -0.4030 C   0  0  1  0  0  0  0  0  0  0  0  0
   -0.8196   -2.6556    0.4185 C   0  0  0  0  0  0  0  0  0  0  0  0
   -0.3089   -3.3723   -0.4272 O   0  0  0  0  0  0  0  0  0  0  0  0
   -1.1193   -3.0724    1.6698 O   0  0  0  0  0  0  0  0  0  0  0  0
   -0.9450   -4.4735    1.8990 C   0  0  0  0  0  0  0  0  0  0  0  0
   -1.6796   -5.0472    1.2981 H   0  0  0  0  0  0  0  0  0  0  0  0
   -1.1244   -4.6335    2.9776 H   0  0  0  0  0  0  0  0  0  0  0  0
    0.0766   -4.8002    1.6194 H   0  0  0  0  0  0  0  0  0  0  0  0
   -3.5595   -1.6717   -0.0787 C   0  0  0  0  0  0  0  0  0  0  0  0
   -3.5252   -2.8920    0.0039 O   0  0  0  0  0  0  0  0  0  0  0  0
   -4.7411   -0.9827   -0.1801 O   0  0  0  0  0  0  0  0  0  0  0  0
   -5.9158   -1.7933   -0.2178 C   0  0  0  0  0  0  0  0  0  0  0  0
   -5.9089   -2.4639   -1.1014 H   0  0  0  0  0  0  0  0  0  0  0  0
   -6.7707   -1.0946   -0.2713 H   0  0  0  0  0  0  0  0  0  0  0  0
   -5.9908   -2.4240    0.6908 H   0  0  0  0  0  0  0  0  0  0  0  0
   -3.6038    1.0834   -1.3627 C   0  0  0  0  0  0  0  0  0  0  0  0
   -3.5333    0.7482   -2.5352 O   0  0  0  0  0  0  0  0  0  0  0  0
   -4.6097    1.7902   -0.8416 O   0  0  0  0  0  0  0  0  0  0  0  0
   -5.7029    2.0472   -1.7348 C   0  0  0  0  0  0  0  0  0  0  0  0
   -5.3557    2.5912   -2.6350 H   0  0  0  0  0  0  0  0  0  0  0  0
   -6.4254    2.6556   -1.1635 H   0  0  0  0  0  0  0  0  0  0  0  0
   -6.1646    1.0921   -2.0561 H   0  0  0  0  0  0  0  0  0  0  0  0
   -1.2438    0.9658   -1.2688 O   0  0  0  0  0  0  0  0  0  0  0  0
   -1.4119    0.4312   -2.0832 H   0  0  0  0  0  0  0  0  0  0  0  0
  1  9  1  0  0  0  0
  2  1  2  0  0  0  0
  2  3  1  0  0  0  0
  3  5  2  0  0  0  0
  4  3  1  0  0  0  0
  5  7  1  0  0  0  0
  5  6  1  0  0  0  0
  7  8  1  0  0  0  0
  9 10  1  0  0  0  0
  9  7  2  0  0  0  0
 11 14  1  0  0  0  0
 12 21  1  0  0  0  0
 12 11  2  0  0  0  0
 13 28  1  6  0  0  0
 13 12  1  0  0  0  0
 13  2  1  0  0  0  0
 14 16  1  0  0  0  0
 15 14  2  0  0  0  0
 16 17  1  0  0  0  0
 17 19  1  0  0  0  0
 18 17  1  0  0  0  0
 20 17  1  0  0  0  0
 21 22  2  0  0  0  0
 23 21  1  0  0  0  0
 24 23  1  0  0  0  0
 24 27  1  0  0  0  0
 25 24  1  0  0  0  0
 26 24  1  0  0  0  0
 28 30  1  0  0  0  0
 29 28  2  0  0  0  0
 31 33  1  0  0  0  0
 31 30  1  0  0  0  0
 32 31  1  0  0  0  0
 34 31  1  0  0  0  0
 35 13  1  0  0  0  0
 36 35  1  0  0  0  0
M  END
