8,12
q = 0.0, confidence = 0.998

 21 22  0  0  0  0  0  0  0  0999 V2000
    2.8763   -1.1050    0.3343 C   0  0  0  0  0  0  0  0  0  0  0  0
    2.1561   -1.8145   -0.1216 H   0  0  0  0  0  0  0  0  0  0  0  0
    3.7443   -1.6935    0.6918 H   0  0  0  0  0  0  0  0  0  0  0  0
    2.1993   -0.3725    1.4962 C   0  0  0  0  0  0  0  0  0  0  0  0
    2.9535    0.2356    2.0469 H   0  0  0  0  0  0  0  0  0  0  0  0
    1.7806   -1.0945    2.2254 H   0  0  0  0  0  0  0  0  0  0  0  0
    1.0993    0.5311    0.9942 C   0  0  0  0  0  0  0  0  0  0  0  0
   -0.0228    0.8818    1.8045 C   0  0  0  0  0  3  0  0  0  0  0  0
   -0.0860    0.4580    2.8176 H   0  0  0  0  0  0  0  0  0  0  0  0
   -1.0527    1.7402    1.3378 C   0  0  0  0  0  3  0  0  0  0  0  0
   -1.9153    1.9769    1.9736 H   0  0  0  0  0  0  0  0  0  0  0  0
   -1.0048    2.1775   -0.0157 C   0  0  0  0  0  3  0  0  0  0  0  0
   -1.8326    2.7682   -0.4325 H   0  0  0  0  0  0  0  0  0  0  0  0
    0.0911    1.8369   -0.8508 C   0  0  0  0  0  3  0  0  0  0  0  0
    0.1056    2.1653   -1.8994 H   0  0  0  0  0  0  0  0  0  0  0  0
    1.1933    1.0751   -0.3338 C   0  0  0  0  0  0  0  0  0  0  0  0
    2.2807    0.8073   -1.1174 N   0  0  0  0  0  0  0  0  0  0  0  0
    2.2024    1.0481   -2.1042 H   0  0  0  0  0  0  0  0  0  0  0  0
    3.3491   -0.1062   -0.7243 C   0  0  0  0  0  0  0  0  0  0  0  0
    4.2204    0.4700   -0.3325 H   0  0  0  0  0  0  0  0  0  0  0  0
    3.7015   -0.6423   -1.6285 H   0  0  0  0  0  0  0  0  0  0  0  0
  1  3  1  0  0  0  0
  1  4  1  0  0  0  0
  2  1  1  0  0  0  0
  4  5  1  0  0  0  0
  4  6  1  0  0  0  0
  7  4  1  0  0  0  0
  7  8  1  0  0  0  0
  8  9  1  0  0  0  0
 10  8  1  0  0  0  0
 10 11  1  0  0  0  0
 12 10  1  0  0  0  0
 13 12  1  0  0  0  0
 14 16  1  0  0  0  0
 14 12  1  0  0  0  0
 15 14  1  0  0  0  0
 16  7  2  0  0  0  0
 17 19  1  0  0  0  0
 17 16  1  0  0  0  0
 18 17  1  0  0  0  0
 19 20  1  0  0  0  0
 19  1  1  0  0  0  0
 21 19  1  0  0  0  0
M  END
