5,27
q = 0.0, confidence = 0.986

 56 57  0  0  1  0  0  0  0  0999 V2000
    3.4670    0.6826    0.0108 O   0  0  0  0  0  0  0  0  0  0  0  0
   -0.5999    0.6203   -0.8505 O   0  0  0  0  0  0  0  0  0  0  0  0
    3.4195   -0.6326   -0.2849 C   0  0  0  0  0  3  0  0  0  0  0  0
    4.1771   -1.2560    0.2104 H   0  0  0  0  0  0  0  0  0  0  0  0
    2.5368   -0.9648   -1.2890 C   0  0  0  0  0  3  0  0  0  0  0  0
    2.5866   -1.8451   -1.9370 H   0  0  0  0  0  0  0  0  0  0  0  0
    1.6559    0.2809   -1.5309 C   0  0  1  0  0  0  0  0  0  0  0  0
    2.6449    1.3750   -0.9856 C   0  0  1  0  0  0  0  0  0  0  0  0
    3.3262    1.5742   -1.8480 H   0  0  0  0  0  0  0  0  0  0  0  0
    2.2143    2.7373   -0.4032 C   0  0  0  0  0  0  0  0  0  0  0  0
    3.4871    3.6059   -0.3008 C   0  0  0  0  0  0  0  0  0  0  0  0
    3.9265    3.7978   -1.3017 H   0  0  0  0  0  0  0  0  0  0  0  0
    4.2551    3.1110    0.3252 H   0  0  0  0  0  0  0  0  0  0  0  0
    3.2468    4.5857    0.1589 H   0  0  0  0  0  0  0  0  0  0  0  0
    1.2161    3.4193   -1.3551 C   0  0  0  0  0  0  0  0  0  0  0  0
    1.6332    3.5229   -2.3781 H   0  0  0  0  0  0  0  0  0  0  0  0
    0.9860    4.4389   -0.9852 H   0  0  0  0  0  0  0  0  0  0  0  0
    0.2646    2.8585   -1.4214 H   0  0  0  0  0  0  0  0  0  0  0  0
    1.6142    2.5839    1.0033 C   0  0  0  0  0  0  0  0  0  0  0  0
    2.3614    2.1815    1.7115 H   0  0  0  0  0  0  0  0  0  0  0  0
    0.7474    1.9015    1.0142 H   0  0  0  0  0  0  0  0  0  0  0  0
    1.2730    3.5696    1.3790 H   0  0  0  0  0  0  0  0  0  0  0  0
    1.2478    0.4938   -2.9911 C   0  0  0  0  0  0  0  0  0  0  0  0
    2.1438    0.6599   -3.6225 H   0  0  0  0  0  0  0  0  0  0  0  0
    0.5650    1.3546   -3.1050 H   0  0  0  0  0  0  0  0  0  0  0  0
    0.7220   -0.4057   -3.3695 H   0  0  0  0  0  0  0  0  0  0  0  0
    0.4843   -0.0925   -0.6275 C   0  0  0  0  0  2  0  0  0  0  0  0
   -1.8715    0.2350   -0.2191 C   0  0  1  0  0  0  0  0  0  0  0  0
   -1.6135   -0.2299    0.7513 H   0  0  0  0  0  0  0  0  0  0  0  0
   -2.7333    1.4829   -0.0021 C   0  0  1  0  0  0  0  0  0  0  0  0
   -2.9182    1.9203   -1.0110 H   0  0  0  0  0  0  0  0  0  0  0  0
   -4.0941    1.0277    0.5656 C   0  0  0  0  0  0  0  0  0  0  0  0
   -3.9381    0.5921    1.5764 H   0  0  0  0  0  0  0  0  0  0  0  0
   -4.7469    1.9127    0.7064 H   0  0  0  0  0  0  0  0  0  0  0  0
   -4.7932   -0.0096   -0.3178 C   0  0  0  0  0  0  0  0  0  0  0  0
   -5.0503    0.4473   -1.3008 H   0  0  0  0  0  0  0  0  0  0  0  0
   -5.7545   -0.3187    0.1444 H   0  0  0  0  0  0  0  0  0  0  0  0
   -3.9057   -1.2385   -0.5604 C   0  0  2  0  0  0  0  0  0  0  0  0
   -3.7042   -1.7152    0.4262 H   0  0  0  0  0  0  0  0  0  0  0  0
   -2.5528   -0.7841   -1.1276 C   0  0  0  0  0  0  0  0  0  0  0  0
   -1.8867   -1.6554   -1.2724 H   0  0  0  0  0  0  0  0  0  0  0  0
   -2.7034   -0.3194   -2.1281 H   0  0  0  0  0  0  0  0  0  0  0  0
   -1.7487    2.1541    2.2920 C   0  0  0  0  0  0  0  0  0  0  0  0
   -1.1691    1.2108    2.3533 H   0  0  0  0  0  0  0  0  0  0  0  0
   -2.6822    2.0125    2.8741 H   0  0  0  0  0  0  0  0  0  0  0  0
   -1.1533    2.9314    2.8115 H   0  0  0  0  0  0  0  0  0  0  0  0
   -2.0397    2.5789    0.8464 C   0  0  0  0  0  0  0  0  0  0  0  0
   -1.0640    2.7660    0.3526 H   0  0  0  0  0  0  0  0  0  0  0  0
   -2.8128    3.9031    0.8053 C   0  0  0  0  0  0  0  0  0  0  0  0
   -2.2367    4.7096    1.3028 H   0  0  0  0  0  0  0  0  0  0  0  0
   -3.7888    3.8307    1.3286 H   0  0  0  0  0  0  0  0  0  0  0  0
   -3.0127    4.2253   -0.2376 H   0  0  0  0  0  0  0  0  0  0  0  0
   -4.5691   -2.2757   -1.4678 C   0  0  0  0  0  0  0  0  0  0  0  0
   -3.9176   -3.1616   -1.6104 H   0  0  0  0  0  0  0  0  0  0  0  0
   -4.7807   -1.8480   -2.4710 H   0  0  0  0  0  0  0  0  0  0  0  0
   -5.5314   -2.6254   -1.0421 H   0  0  0  0  0  0  0  0  0  0  0  0
  2 27  1  0  0  0  0
  2 28  1  0  0  0  0
  3  1  1  0  0  0  0
  3  4  1  0  0  0  0
  5  3  1  0  0  0  0
  6  5  1  0  0  0  0
  7  5  1  0  0  0  0
  7  8  1  0  0  0  0
  7 27  1  1  0  0  0
  8  9  1  6  0  0  0
  8 10  1  0  0  0  0
  8  1  1  0  0  0  0
 10 11  1  0  0  0  0
 10 19  1  0  0  0  0
 11 14  1  0  0  0  0
 11 13  1  0  0  0  0
 12 11  1  0  0  0  0
 15 17  1  0  0  0  0
 15 10  1  0  0  0  0
 16 15  1  0  0  0  0
 18 15  1  0  0  0  0
 19 21  1  0  0  0  0
 19 22  1  0  0  0  0
 19 20  1  0  0  0  0
 23  7  1  0  0  0  0
 24 23  1  0  0  0  0
 25 23  1  0  0  0  0
 26 23  1  0  0  0  0
 28 30  1  0  0  0  0
 28 29  1  1  0  0  0
 30 31  1  6  0  0  0
 30 32  1  0  0  0  0
 30 47  1  0  0  0  0
 32 34  1  0  0  0  0
 32 33  1  0  0  0  0
 35 37  1  0  0  0  0
 35 32  1  0  0  0  0
 36 35  1  0  0  0  0
 38 35  1  0  0  0  0
 38 39  1  1  0  0  0
 40 38  1  0  0  0  0
 40 28  1  0  0  0  0
 41 40  1  0  0  0  0
 42 40  1  0  0  0  0
 43 44  1  0  0  0  0
 43 46  1  0  0  0  0
 43 45  1  0  0  0  0
 47 43  1  0  0  0  0
 48 47  1  0  0  0  0
 49 47  1  0  0  0  0
 49 50  1  0  0  0  0
 49 51  1  0  0  0  0
 52 49  1  0  0  0  0
 53 56  1  0  0  0  0
 53 38  1  0  0  0  0
 54 53  1  0  0  0  0
 55 53  1  0  0  0  0
M  END
