3,16
q = -1.0, confidence = 0.0

 24 25  0  0  0  0  0  0  0  0999 V2000
    3.8102    1.7737   -0.9764 N   0  0  0  0  0  0  0  0  0  0  0  0
    4.9689   -0.0405   -0.7365 N   0  0  0  0  0  0  0  0  0  0  0  0
    1.9261    1.4760    1.2649 C   0  0  0  0  0  3  0  0  0  0  0  0
    1.5880    1.4909    2.6356 C   0  0  0  0  0  0  0  0  0  0  0  0
    1.3265    0.5490    3.1423 H   0  0  0  0  0  0  0  0  0  0  0  0
    1.5431    2.6913    3.3645 C   0  0  0  0  0  0  0  0  0  0  0  0
    1.2658    2.6715    4.4301 H   0  0  0  0  0  0  0  0  0  0  0  0
    1.8367    3.9122    2.7373 C   0  0  0  0  0  0  0  0  0  0  0  0
    1.7927    4.8558    3.3017 H   0  0  0  0  0  0  0  0  0  0  0  0
    2.2029    3.9156    1.3821 C   0  0  0  0  0  0  0  0  0  0  0  0
    2.4530    4.8663    0.8826 H   0  0  0  0  0  0  0  0  0  0  0  0
    2.2556    2.7138    0.6534 C   0  0  0  0  0  0  0  0  0  0  0  0
    2.6958    2.7147   -0.7963 C   0  0  0  0  0  0  0  0  0  0  0  0
    1.8664    2.3976   -1.4622 H   0  0  0  0  0  0  0  0  0  0  0  0
    3.0412    3.7149   -1.1182 H   0  0  0  0  0  0  0  0  0  0  0  0
    3.7160    0.4753   -0.5666 C   0  0  0  0  0  2  0  0  0  0  0  0
    5.0932    2.0741   -1.3990 C   0  0  0  0  0  0  0  0  0  0  0  0
    5.3731    3.0608   -1.7791 H   0  0  0  0  0  0  0  0  0  0  0  0
    5.8270    0.9241   -1.2494 C   0  0  0  0  0  0  0  0  0  0  0  0
    6.8776    0.7106   -1.4665 H   0  0  0  0  0  0  0  0  0  0  0  0
    5.3881   -1.3759   -0.3330 C   0  0  0  0  0  0  0  0  0  0  0  0
    4.5223   -2.0608   -0.4287 H   0  0  0  0  0  0  0  0  0  0  0  0
    5.7498   -1.3654    0.7148 H   0  0  0  0  0  0  0  0  0  0  0  0
    6.1993   -1.7206   -1.0007 H   0  0  0  0  0  0  0  0  0  0  0  0
  1 13  1  0  0  0  0
  1 16  1  0  0  0  0
  2 16  1  0  0  0  0
  2 21  1  0  0  0  0
  3  4  1  0  0  0  0
  4  5  1  0  0  0  0
  4  6  2  0  0  0  0
  6  7  1  0  0  0  0
  8  9  1  0  0  0  0
  8  6  1  0  0  0  0
 10  8  2  0  0  0  0
 11 10  1  0  0  0  0
 12  3  2  0  0  0  0
 12 10  1  0  0  0  0
 13 12  1  0  0  0  0
 14 13  1  0  0  0  0
 15 13  1  0  0  0  0
 17 19  2  0  0  0  0
 17  1  1  0  0  0  0
 18 17  1  0  0  0  0
 19  2  1  0  0  0  0
 20 19  1  0  0  0  0
 21 23  1  0  0  0  0
 22 21  1  0  0  0  0
 24 21  1  0  0  0  0
M  END
