5,14
q = -1.0, confidence = 0.0

 18 17  0  0  0  0  0  0  0  0999 V2000
   -3.1122    0.6878    0.3902 O   0  0  0  0  0  0  0  0  0  0  0  0
   -2.3571   -0.9130   -1.0459 O   0  0  0  0  0  0  0  0  0  0  0  0
    1.2230    1.1446   -1.7530 C   0  0  0  0  0  3  0  0  0  0  0  0
    1.7650    0.8450   -2.6631 H   0  0  0  0  0  0  0  0  0  0  0  0
   -0.1459    0.7580   -1.6405 C   0  0  0  0  0  3  0  0  0  0  0  0
   -0.5387    0.0758   -2.4162 H   0  0  0  0  0  0  0  0  0  0  0  0
   -0.9740    0.9739   -0.5065 C   0  0  0  0  0  3  0  0  0  0  0  0
   -1.0177    1.9269    0.0343 H   0  0  0  0  0  0  0  0  0  0  0  0
   -2.2201    0.1331   -0.4340 C   0  0  0  0  0  0  0  0  0  0  0  0
   -4.3641   -0.0205    0.5445 C   0  0  0  0  0  0  0  0  0  0  0  0
   -4.8992   -0.0595   -0.4239 H   0  0  0  0  0  0  0  0  0  0  0  0
   -4.9424    0.5517    1.2887 H   0  0  0  0  0  0  0  0  0  0  0  0
   -4.1769   -1.0542    0.8945 H   0  0  0  0  0  0  0  0  0  0  0  0
    1.9868    1.6886   -0.6706 C   0  0  0  0  0  3  0  0  0  0  0  0
    3.0830    1.6547   -0.8001 H   0  0  0  0  0  0  0  0  0  0  0  0
    1.4648    2.0365    0.5979 C   0  0  0  0  0  3  0  0  0  0  0  0
    0.5233    2.5844    0.7191 H   0  0  0  0  0  0  0  0  0  0  0  0
    2.1900    2.1838    1.4136 H   0  0  0  0  0  0  0  0  0  0  0  0
  1 10  1  0  0  0  0
  2  9  2  0  0  0  0
  3  5  1  0  0  0  0
  3 14  1  0  0  0  0
  4  3  1  0  0  0  0
  5  7  1  0  0  0  0
  6  5  1  0  0  0  0
  7  9  1  0  0  0  0
  7  8  1  0  0  0  0
  9  1  1  0  0  0  0
 10 13  1  0  0  0  0
 10 12  1  0  0  0  0
 11 10  1  0  0  0  0
 14 16  1  0  0  0  0
 15 14  1  0  0  0  0
 16 17  1  0  0  0  0
 16 18  1  0  0  0  0
M  END
