6,10
q = 0.0, confidence = 1.0

 25 25  0  0  1  0  0  0  0  0999 V2000
   -1.0655    3.1779    0.0883 O   0  0  0  0  0  0  0  0  0  0  0  0
   -3.3057   -0.2892   -0.1577 N   0  0  0  0  0  0  0  0  0  0  0  0
   -0.9151   -0.4967    0.3627 C   0  0  0  0  0  0  0  0  0  0  0  0
   -0.1876   -1.4920    1.0754 C   0  0  0  0  0  0  0  0  0  0  0  0
   -0.4055   -2.5524    0.8864 H   0  0  0  0  0  0  0  0  0  0  0  0
    0.8776   -1.1263    1.9449 C   0  0  0  0  0  3  0  0  0  0  0  0
    1.4791   -1.9115    2.4245 H   0  0  0  0  0  0  0  0  0  0  0  0
    1.1685    0.2435    2.1981 C   0  0  0  0  0  3  0  0  0  0  0  0
    2.0009    0.5226    2.8577 H   0  0  0  0  0  0  0  0  0  0  0  0
    0.4382    1.2368    1.5004 C   0  0  0  0  0  3  0  0  0  0  0  0
    0.6712    2.3066    1.6073 H   0  0  0  0  0  0  0  0  0  0  0  0
   -0.6107    0.8929    0.5911 C   0  0  1  0  0  3  0  0  0  0  0  0
   -1.2433    2.0007   -0.1827 C   0  0  0  0  0  0  0  0  0  0  0  0
   -1.8898    1.6857   -1.0439 H   0  0  0  0  0  0  0  0  0  0  0  0
   -2.0450   -0.8892   -0.5695 C   0  0  0  0  0  0  0  0  0  0  0  0
   -1.8218   -0.5425   -1.5994 H   0  0  0  0  0  0  0  0  0  0  0  0
   -2.0923   -2.0100   -0.6242 H   0  0  0  0  0  0  0  0  0  0  0  0
   -4.3275   -0.3963   -1.1829 C   0  0  0  0  0  0  0  0  0  0  0  0
   -4.6294   -1.4549   -1.4023 H   0  0  0  0  0  0  0  0  0  0  0  0
   -3.9656    0.0553   -2.1293 H   0  0  0  0  0  0  0  0  0  0  0  0
   -5.2359    0.1543   -0.8663 H   0  0  0  0  0  0  0  0  0  0  0  0
   -3.7634   -0.7521    1.1401 C   0  0  0  0  0  0  0  0  0  0  0  0
   -4.6718   -0.1920    1.4390 H   0  0  0  0  0  0  0  0  0  0  0  0
   -2.9864   -0.5720    1.9097 H   0  0  0  0  0  0  0  0  0  0  0  0
   -4.0138   -1.8469    1.1548 H   0  0  0  0  0  0  0  0  0  0  0  0
  2 22  1  0  0  0  0
  3 12  1  0  0  0  0
  3  4  2  0  0  0  0
  4  6  1  0  0  0  0
  5  4  1  0  0  0  0
  6  8  1  0  0  0  0
  6  7  1  0  0  0  0
  8  9  1  0  0  0  0
 10 11  1  0  0  0  0
 10  8  1  0  0  0  0
 12 13  1  6  0  0  0
 12 10  1  0  0  0  0
 13  1  2  0  0  0  0
 14 13  1  0  0  0  0
 15  2  1  0  0  0  0
 15  3  1  0  0  0  0
 16 15  1  0  0  0  0
 17 15  1  0  0  0  0
 18 21  1  0  0  0  0
 18  2  1  0  0  0  0
 19 18  1  0  0  0  0
 20 18  1  0  0  0  0
 22 25  1  0  0  0  0
 22 23  1  0  0  0  0
 22 24  1  0  0  0  0
M  END
