5,9
q = 0.0, confidence = 0.994

 23 23  0  0  0  0  0  0  0  0999 V2000
   -3.3616    0.2022   -0.2475 N   0  0  0  0  0  0  0  0  0  0  0  0
   -1.0452   -0.4471    0.2833 C   0  0  0  0  0  0  0  0  0  0  0  0
   -0.7002   -0.6968   -1.0817 C   0  0  0  0  0  0  0  0  0  0  0  0
   -1.2824   -0.2002   -1.8688 H   0  0  0  0  0  0  0  0  0  0  0  0
    0.3954   -1.5435   -1.3943 C   0  0  0  0  0  3  0  0  0  0  0  0
    0.6855   -1.6887   -2.4448 H   0  0  0  0  0  0  0  0  0  0  0  0
    1.1378   -2.1896   -0.3622 C   0  0  0  0  0  3  0  0  0  0  0  0
    2.0010   -2.8215   -0.6086 H   0  0  0  0  0  0  0  0  0  0  0  0
    0.8048   -1.9210    0.9920 C   0  0  0  0  0  3  0  0  0  0  0  0
    1.4085   -2.3589    1.7995 H   0  0  0  0  0  0  0  0  0  0  0  0
   -0.2986   -1.0778    1.3177 C   0  0  0  0  0  3  0  0  0  0  0  0
   -0.5439   -0.8702    2.3685 H   0  0  0  0  0  0  0  0  0  0  0  0
   -2.2118    0.4742    0.5988 C   0  0  0  0  0  0  0  0  0  0  0  0
   -2.4491    0.3944    1.6945 H   0  0  0  0  0  0  0  0  0  0  0  0
   -1.9035    1.5254    0.4263 H   0  0  0  0  0  0  0  0  0  0  0  0
   -3.9682   -1.0880    0.0295 C   0  0  0  0  0  0  0  0  0  0  0  0
   -3.2130   -1.8947   -0.0598 H   0  0  0  0  0  0  0  0  0  0  0  0
   -4.7731   -1.2943   -0.7044 H   0  0  0  0  0  0  0  0  0  0  0  0
   -4.4165   -1.1515    1.0577 H   0  0  0  0  0  0  0  0  0  0  0  0
   -4.3301    1.2834   -0.2346 C   0  0  0  0  0  0  0  0  0  0  0  0
   -5.1367    1.0746   -0.9664 H   0  0  0  0  0  0  0  0  0  0  0  0
   -3.8419    2.2356   -0.5246 H   0  0  0  0  0  0  0  0  0  0  0  0
   -4.8142    1.4376    0.7669 H   0  0  0  0  0  0  0  0  0  0  0  0
  1 20  1  0  0  0  0
  1 16  1  0  0  0  0
  1 13  1  0  0  0  0
  2 13  1  0  0  0  0
  2 11  1  0  0  0  0
  3  2  2  0  0  0  0
  4  3  1  0  0  0  0
  5  3  1  0  0  0  0
  5  7  1  0  0  0  0
  6  5  1  0  0  0  0
  7  9  1  0  0  0  0
  8  7  1  0  0  0  0
  9 11  1  0  0  0  0
  9 10  1  0  0  0  0
 11 12  1  0  0  0  0
 13 14  1  0  0  0  0
 15 13  1  0  0  0  0
 16 19  1  0  0  0  0
 17 16  1  0  0  0  0
 18 16  1  0  0  0  0
 20 23  1  0  0  0  0
 21 20  1  0  0  0  0
 22 20  1  0  0  0  0
M  END
