2,15
q = -2.0, confidence = 0.678

 45 48  0  0  1  0  0  0  0  0999 V2000
   -0.5059    2.7095    0.0625 Si  0  0  0  0  0  0  0  0  0  0  0  0
    0.6108    0.5889    0.0417 C   0  0  0  0  0  3  0  0  0  0  0  0
    1.1830    1.8628    0.0187 C   0  0  2  0  0  3  0  0  0  0  0  0
   -0.8681    0.8404    0.0728 C   0  0  0  0  0  0  0  0  0  0  0  0
   -2.0447    0.1234    0.0489 C   0  0  0  0  0  0  0  0  0  0  0  0
   -2.2686   -1.3419    0.0325 C   0  0  0  0  0  0  0  0  0  0  0  0
   -3.6109   -1.8166    0.0716 C   0  0  0  0  0  3  0  0  0  0  0  0
   -4.4348   -1.0899    0.1195 H   0  0  0  0  0  0  0  0  0  0  0  0
   -3.9109   -3.1818    0.0562 C   0  0  0  0  0  0  0  0  0  0  0  0
   -4.9605   -3.5122    0.0878 H   0  0  0  0  0  0  0  0  0  0  0  0
   -2.8693   -4.1210    0.0026 C   0  0  0  0  0  0  0  0  0  0  0  0
   -3.0889   -5.2003   -0.0132 H   0  0  0  0  0  0  0  0  0  0  0  0
   -1.5412   -3.6647   -0.0246 C   0  0  0  0  0  0  0  0  0  0  0  0
   -0.7370   -4.4229   -0.0583 H   0  0  0  0  0  0  0  0  0  0  0  0
   -1.1994   -2.2954   -0.0069 C   0  0  0  0  0  3  0  0  0  0  0  0
   -0.9039    3.7063    1.6214 C   0  0  0  0  0  0  0  0  0  0  0  0
   -1.9764    3.9851    1.6512 H   0  0  0  0  0  0  0  0  0  0  0  0
   -0.3043    4.6405    1.6413 H   0  0  0  0  0  0  0  0  0  0  0  0
   -0.6633    3.1251    2.5337 H   0  0  0  0  0  0  0  0  0  0  0  0
   -1.0773    3.6627   -1.4667 C   0  0  0  0  0  0  0  0  0  0  0  0
   -2.1783    3.7989   -1.4351 H   0  0  0  0  0  0  0  0  0  0  0  0
   -0.8224    3.1107   -2.3930 H   0  0  0  0  0  0  0  0  0  0  0  0
   -0.6062    4.6664   -1.5163 H   0  0  0  0  0  0  0  0  0  0  0  0
    2.5769    2.2731   -0.0179 C   0  0  0  0  0  0  0  0  0  0  0  0
    3.6634    1.3572    0.0060 C   0  0  0  0  0  0  0  0  0  0  0  0
    3.4483    0.2812    0.0557 H   0  0  0  0  0  0  0  0  0  0  0  0
    4.9895    1.8017   -0.0306 C   0  0  0  0  0  0  0  0  0  0  0  0
    5.8116    1.0692   -0.0100 H   0  0  0  0  0  0  0  0  0  0  0  0
    5.2773    3.1766   -0.0920 C   0  0  0  0  0  0  0  0  0  0  0  0
    6.3209    3.5246   -0.1204 H   0  0  0  0  0  0  0  0  0  0  0  0
    4.2198    4.1020   -0.1157 C   0  0  0  0  0  0  0  0  0  0  0  0
    4.4334    5.1809   -0.1634 H   0  0  0  0  0  0  0  0  0  0  0  0
    2.8938    3.6565   -0.0785 C   0  0  0  0  0  0  0  0  0  0  0  0
    2.0680    4.3855   -0.0984 H   0  0  0  0  0  0  0  0  0  0  0  0
   -3.2645    1.0054    0.0129 C   0  0  0  0  0  0  0  0  0  0  0  0
   -3.7213    1.6574    1.1764 C   0  0  0  0  0  0  0  0  0  0  0  0
   -3.2056    1.4668    2.1299 H   0  0  0  0  0  0  0  0  0  0  0  0
   -4.8091    2.5439    1.1241 C   0  0  0  0  0  0  0  0  0  0  0  0
   -5.1491    3.0467    2.0427 H   0  0  0  0  0  0  0  0  0  0  0  0
   -5.4600    2.7898   -0.0948 C   0  0  0  0  0  0  0  0  0  0  0  0
   -6.3101    3.4876   -0.1381 H   0  0  0  0  0  0  0  0  0  0  0  0
   -5.0214    2.1372   -1.2593 C   0  0  0  0  0  0  0  0  0  0  0  0
   -5.5258    2.3251   -2.2197 H   0  0  0  0  0  0  0  0  0  0  0  0
   -3.9365    1.2499   -1.2043 C   0  0  0  0  0  0  0  0  0  0  0  0
   -3.5883    0.7420   -2.1169 H   0  0  0  0  0  0  0  0  0  0  0  0
  1  4  1  0  0  0  0
  1 16  1  0  0  0  0
  2  4  2  0  0  0  0
  3 24  1  1  0  0  0
  3  2  1  0  0  0  0
  3  1  1  0  0  0  0
  5  4  1  0  0  0  0
  6  5  2  0  0  0  0
  6  7  1  0  0  0  0
  7  8  1  0  0  0  0
  9  7  1  0  0  0  0
  9 10  1  0  0  0  0
 11  9  2  0  0  0  0
 12 11  1  0  0  0  0
 13 15  2  0  0  0  0
 13 11  1  0  0  0  0
 14 13  1  0  0  0  0
 15  6  1  0  0  0  0
 16 18  1  0  0  0  0
 16 17  1  0  0  0  0
 16 19  1  0  0  0  0
 20 21  1  0  0  0  0
 20  1  1  0  0  0  0
 22 20  1  0  0  0  0
 23 20  1  0  0  0  0
 24 25  1  0  0  0  0
 25 26  1  0  0  0  0
 27 28  1  0  0  0  0
 27 25  2  0  0  0  0
 29 27  1  0  0  0  0
 30 29  1  0  0  0  0
 31 29  2  0  0  0  0
 31 33  1  0  0  0  0
 32 31  1  0  0  0  0
 33 24  2  0  0  0  0
 34 33  1  0  0  0  0
 35  5  1  0  0  0  0
 35 36  1  0  0  0  0
 36 37  1  0  0  0  0
 38 36  2  0  0  0  0
 38 39  1  0  0  0  0
 40 38  1  0  0  0  0
 41 40  1  0  0  0  0
 42 44  1  0  0  0  0
 42 40  2  0  0  0  0
 43 42  1  0  0  0  0
 44 35  2  0  0  0  0
 45 44  1  0  0  0  0
M  END
