2,20
q = -2.0, confidence = 0.818

 36 39  0  0  1  0  0  0  0  0999 V2000
   -2.9895    0.1631    1.0880 C   0  0  2  0  0  3  0  0  0  0  0  0
   -1.9831    0.0573    2.0954 C   0  0  0  0  0  3  0  0  0  0  0  0
   -1.7180    0.8482    2.8092 H   0  0  0  0  0  0  0  0  0  0  0  0
   -1.3157   -1.1943    1.9763 C   0  0  0  0  0  3  0  0  0  0  0  0
   -0.4743   -1.5382    2.5889 H   0  0  0  0  0  0  0  0  0  0  0  0
   -1.9618   -1.9367    0.9361 C   0  0  0  0  0  0  0  0  0  0  0  0
   -1.7187   -3.2272    0.3920 C   0  0  0  0  0  0  0  0  0  0  0  0
   -0.9229   -3.8591    0.8117 H   0  0  0  0  0  0  0  0  0  0  0  0
   -2.4912   -3.6590   -0.6742 C   0  0  0  0  0  0  0  0  0  0  0  0
   -2.3193   -4.6576   -1.1035 H   0  0  0  0  0  0  0  0  0  0  0  0
   -3.5149   -2.8330   -1.2322 C   0  0  0  0  0  0  0  0  0  0  0  0
   -4.1159   -3.2176   -2.0701 H   0  0  0  0  0  0  0  0  0  0  0  0
   -3.7673   -1.5643   -0.7317 C   0  0  0  0  0  0  0  0  0  0  0  0
   -4.5739   -0.9461   -1.1554 H   0  0  0  0  0  0  0  0  0  0  0  0
   -2.9881   -1.0881    0.3631 C   0  0  0  0  0  0  0  0  0  0  0  0
   -3.8764    1.3533    0.8254 C   0  0  0  0  0  0  0  0  0  0  0  0
   -4.5535    1.1186   -0.0207 H   0  0  0  0  0  0  0  0  0  0  0  0
   -4.5359    1.5562    1.6956 H   0  0  0  0  0  0  0  0  0  0  0  0
   -1.9385    2.2105   -0.4802 C   0  0  2  0  0  3  0  0  0  0  0  0
   -2.0709    1.2809   -1.5636 C   0  0  0  0  0  3  0  0  0  0  0  0
   -2.9922    0.7664   -1.8591 H   0  0  0  0  0  0  0  0  0  0  0  0
   -0.8064    1.0877   -2.1788 C   0  0  0  0  0  3  0  0  0  0  0  0
   -0.5890    0.4101   -3.0108 H   0  0  0  0  0  0  0  0  0  0  0  0
    0.1330    1.9633   -1.5423 C   0  0  0  0  0  0  0  0  0  0  0  0
    1.5299    2.1614   -1.7235 C   0  0  0  0  0  0  0  0  0  0  0  0
    2.0735    1.6039   -2.5002 H   0  0  0  0  0  0  0  0  0  0  0  0
    2.1838    3.0480   -0.8835 C   0  0  0  0  0  0  0  0  0  0  0  0
    3.2663    3.2087   -0.9990 H   0  0  0  0  0  0  0  0  0  0  0  0
    1.4822    3.7634    0.1365 C   0  0  0  0  0  0  0  0  0  0  0  0
    2.0426    4.4647    0.7735 H   0  0  0  0  0  0  0  0  0  0  0  0
    0.1208    3.5965    0.3351 C   0  0  0  0  0  0  0  0  0  0  0  0
   -0.4074    4.1508    1.1252 H   0  0  0  0  0  0  0  0  0  0  0  0
   -0.5778    2.6786   -0.4949 C   0  0  0  0  0  0  0  0  0  0  0  0
   -3.0269    2.5940    0.4859 C   0  0  0  0  0  0  0  0  0  0  0  0
   -3.6661    3.4104    0.0822 H   0  0  0  0  0  0  0  0  0  0  0  0
   -2.5643    2.9972    1.4110 H   0  0  0  0  0  0  0  0  0  0  0  0
  1 16  1  6  0  0  0
  1  2  1  0  0  0  0
  2  3  1  0  0  0  0
  4  2  1  0  0  0  0
  4  5  1  0  0  0  0
  6  4  1  0  0  0  0
  7  8  1  0  0  0  0
  7  6  1  0  0  0  0
  9  7  2  0  0  0  0
 10  9  1  0  0  0  0
 11 13  2  0  0  0  0
 11  9  1  0  0  0  0
 12 11  1  0  0  0  0
 13 15  1  0  0  0  0
 14 13  1  0  0  0  0
 15  6  2  0  0  0  0
 15  1  1  0  0  0  0
 16 18  1  0  0  0  0
 17 16  1  0  0  0  0
 19 34  1  1  0  0  0
 20 19  1  0  0  0  0
 21 20  1  0  0  0  0
 22 20  1  0  0  0  0
 22 24  1  0  0  0  0
 23 22  1  0  0  0  0
 24 33  1  0  0  0  0
 25 24  2  0  0  0  0
 25 27  1  0  0  0  0
 26 25  1  0  0  0  0
 27 29  2  0  0  0  0
 28 27  1  0  0  0  0
 29 31  1  0  0  0  0
 29 30  1  0  0  0  0
 31 32  1  0  0  0  0
 33 19  1  0  0  0  0
 33 31  2  0  0  0  0
 34 16  1  0  0  0  0
 34 36  1  0  0  0  0
 35 34  1  0  0  0  0
M  END
