6,11
q = -2.0, confidence = 0.584

 24 23  0  0  1  0  0  0  0  0999 V2000
   -1.5903    0.5245    0.3179 N   0  0  0  0  0  0  0  0  0  0  0  0
   -0.3016    2.3979    0.2784 O   0  0  0  0  0  0  0  0  0  0  0  0
   -2.8046    1.3158    0.5490 C   0  0  0  0  0  0  0  0  0  0  0  0
    0.3340   -0.2384   -2.0136 C   0  0  0  0  0  3  0  0  0  0  0  0
   -3.4101    1.8762   -0.7366 C   0  0  0  0  0  0  0  0  0  0  0  0
    0.2774   -1.4501   -1.2822 C   0  0  0  0  0  3  0  0  0  0  0  0
   -0.3114   -1.5462    0.0205 C   0  0  0  0  0  3  0  0  0  0  0  0
   -1.6373   -0.9247    0.4403 C   0  0  2  0  0  0  0  0  0  0  0  0
   -2.7517   -1.5387   -0.3797 C   0  0  0  0  0  0  0  0  0  0  0  0
   -3.7232   -2.3155    0.1280 C   0  0  0  0  0  0  0  0  0  0  0  0
   -0.3803    1.1782    0.2355 C   0  0  0  0  0  3  0  0  0  0  0  0
    0.9906   -0.2039   -2.8969 H   0  0  0  0  0  0  0  0  0  0  0  0
   -0.5004    0.4752   -2.0201 H   0  0  0  0  0  0  0  0  0  0  0  0
   -1.8136   -1.1999    1.5087 H   0  0  0  0  0  0  0  0  0  0  0  0
   -2.5293    2.1504    1.2259 H   0  0  0  0  0  0  0  0  0  0  0  0
   -0.1195   -2.4987    0.5403 H   0  0  0  0  0  0  0  0  0  0  0  0
   -2.7026   -1.3369   -1.4644 H   0  0  0  0  0  0  0  0  0  0  0  0
    0.9005   -2.2947   -1.6218 H   0  0  0  0  0  0  0  0  0  0  0  0
   -4.4939   -2.7700   -0.5131 H   0  0  0  0  0  0  0  0  0  0  0  0
   -3.7115    1.0661   -1.4304 H   0  0  0  0  0  0  0  0  0  0  0  0
   -3.7784   -2.5272    1.2092 H   0  0  0  0  0  0  0  0  0  0  0  0
   -3.5323    0.6671    1.0781 H   0  0  0  0  0  0  0  0  0  0  0  0
   -2.6747    2.5283   -1.2476 H   0  0  0  0  0  0  0  0  0  0  0  0
   -4.3083    2.4861   -0.5109 H   0  0  0  0  0  0  0  0  0  0  0  0
  1  8  1  0  0  0  0
  1  3  1  0  0  0  0
  3 22  1  0  0  0  0
  3 15  1  0  0  0  0
  4  6  1  0  0  0  0
  5 24  1  0  0  0  0
  5  3  1  0  0  0  0
  6  7  1  0  0  0  0
  7  8  1  0  0  0  0
  7 16  1  0  0  0  0
  8 14  1  1  0  0  0
  9 10  2  0  0  0  0
  9  8  1  0  0  0  0
 10 21  1  0  0  0  0
 11  2  2  0  0  0  0
 11  1  1  0  0  0  0
 12  4  1  0  0  0  0
 13  4  1  0  0  0  0
 17  9  1  0  0  0  0
 18  6  1  0  0  0  0
 19 10  1  0  0  0  0
 20  5  1  0  0  0  0
 23  5  1  0  0  0  0
M  END
