5,9
q = 0.0, confidence = 1.0

 15 15  0  0  1  0  0  0  0  0999 V2000
   -3.5609    0.6982   -0.0002 F   0  0  0  0  0  0  0  0  0  0  0  0
   -2.5534   -0.8958    1.0951 F   0  0  0  0  0  0  0  0  0  0  0  0
   -2.5530   -0.8961   -1.0948 F   0  0  0  0  0  0  0  0  0  0  0  0
   -1.2012    0.7100    0.0002 C   0  0  2  0  0  3  0  0  0  0  0  0
   -0.5860    1.0849   -1.2323 C   0  0  0  0  0  3  0  0  0  0  0  0
    0.6059    1.8583   -1.2378 C   0  0  0  0  0  0  0  0  0  0  0  0
    1.2165    2.2058    0.0002 C   0  0  0  0  0  0  0  0  0  0  0  0
    0.6057    1.8584    1.2381 C   0  0  0  0  0  3  0  0  0  0  0  0
   -0.5861    1.0849    1.2327 C   0  0  0  0  0  3  0  0  0  0  0  0
   -2.4684   -0.1082    0.0001 C   0  0  0  0  0  0  0  0  0  0  0  0
   -1.0278    0.7431   -2.1783 H   0  0  0  0  0  0  0  0  0  0  0  0
    1.0952    2.1081   -2.1881 H   0  0  0  0  0  0  0  0  0  0  0  0
    2.1795    2.7359    0.0002 H   0  0  0  0  0  0  0  0  0  0  0  0
    1.0950    2.1085    2.1884 H   0  0  0  0  0  0  0  0  0  0  0  0
   -1.0279    0.7432    2.1786 H   0  0  0  0  0  0  0  0  0  0  0  0
  1 10  1  0  0  0  0
  3 10  1  0  0  0  0
  4 10  1  1  0  0  0
  4  9  1  0  0  0  0
  5  4  1  0  0  0  0
  6  5  1  0  0  0  0
  6  7  2  0  0  0  0
  7 13  1  0  0  0  0
  7  8  1  0  0  0  0
  8 14  1  0  0  0  0
  9  8  1  0  0  0  0
  9 15  1  0  0  0  0
 10  2  1  0  0  0  0
 11  5  1  0  0  0  0
 12  6  1  0  0  0  0
M  END
