4,7
q = -1.0

 28 29  0  0  0  0  0  0  0  0999 V2000
    3.9935   -0.2921   -0.5614 Si  0  0  0  0  0  0  0  0  0  0  0  0
    0.5331   -2.4112    0.4180 C   0  0  0  0  0  0  0  0  0  0  0  0
    0.6668   -1.5630    1.5876 C   0  0  0  0  0  0  0  0  0  0  0  0
    1.7257   -0.6232    1.3087 C   0  0  0  0  0  3  0  0  0  0  0  0
    2.1006    0.1347    2.0067 H   0  0  0  0  0  0  0  0  0  0  0  0
    2.3206   -0.9561    0.0464 C   0  0  0  0  0  3  0  0  0  0  0  0
    1.5359   -1.9979   -0.5324 C   0  0  0  0  0  3  0  0  0  0  0  0
    1.6959   -2.4497   -1.5188 H   0  0  0  0  0  0  0  0  0  0  0  0
   -0.1536   -1.7983    2.7300 C   0  0  0  0  0  0  0  0  0  0  0  0
   -0.0265   -1.1896    3.6372 H   0  0  0  0  0  0  0  0  0  0  0  0
   -1.0861   -2.8247    2.6867 C   0  0  0  0  0  0  0  0  0  0  0  0
   -1.7101   -3.0318    3.5694 H   0  0  0  0  0  0  0  0  0  0  0  0
   -1.2538   -3.6237    1.5150 C   0  0  0  0  0  0  0  0  0  0  0  0
   -2.0175   -4.4158    1.5132 H   0  0  0  0  0  0  0  0  0  0  0  0
   -0.4677   -3.4266    0.3894 C   0  0  0  0  0  0  0  0  0  0  0  0
   -0.5942   -4.0465   -0.5092 H   0  0  0  0  0  0  0  0  0  0  0  0
    4.2090   -0.6193   -2.4056 C   0  0  0  0  0  0  0  0  0  0  0  0
    5.2147   -0.2909   -2.7398 H   0  0  0  0  0  0  0  0  0  0  0  0
    3.4449   -0.0772   -2.9954 H   0  0  0  0  0  0  0  0  0  0  0  0
    4.1200   -1.7030   -2.6262 H   0  0  0  0  0  0  0  0  0  0  0  0
    5.2736   -1.3050    0.4071 C   0  0  0  0  0  0  0  0  0  0  0  0
    5.1665   -2.3887    0.1967 H   0  0  0  0  0  0  0  0  0  0  0  0
    5.1561   -1.1579    1.5002 H   0  0  0  0  0  0  0  0  0  0  0  0
    6.3049   -1.0023    0.1297 H   0  0  0  0  0  0  0  0  0  0  0  0
    4.1883    1.5293   -0.1003 C   0  0  0  0  0  0  0  0  0  0  0  0
    5.2167    1.8752   -0.3322 H   0  0  0  0  0  0  0  0  0  0  0  0
    4.0172    1.6849    0.9849 H   0  0  0  0  0  0  0  0  0  0  0  0
    3.4669    2.1590   -0.6557 H   0  0  0  0  0  0  0  0  0  0  0  0
  1 25  1  0  0  0  0
  1  6  1  0  0  0  0
  1 21  1  0  0  0  0
  2  3  1  0  0  0  0
  3  9  2  0  0  0  0
  4  3  1  0  0  0  0
  4  5  1  0  0  0  0
  6  4  1  0  0  0  0
  7  6  1  0  0  0  0
  7  2  1  0  0  0  0
  8  7  1  0  0  0  0
  9 10  1  0  0  0  0
 11  9  1  0  0  0  0
 11 12  1  0  0  0  0
 13 11  2  0  0  0  0
 14 13  1  0  0  0  0
 15  2  2  0  0  0  0
 15 13  1  0  0  0  0
 16 15  1  0  0  0  0
 17  1  1  0  0  0  0
 18 17  1  0  0  0  0
 19 17  1  0  0  0  0
 20 17  1  0  0  0  0
 21 23  1  0  0  0  0
 22 21  1  0  0  0  0
 24 21  1  0  0  0  0
 25 27  1  0  0  0  0
 26 25  1  0  0  0  0
 28 25  1  0  0  0  0
M  END
