3,38
q = -2.0, confidence = 0.592

 82 86  0  0  1  0  0  0  0  0999 V2000
    1.1910   -1.7154   -1.7316 C   0  0  2  0  0  0  0  0  0  0  0  0
    0.6639   -2.5929   -2.1641 H   0  0  0  0  0  0  0  0  0  0  0  0
    1.5064   -2.0217   -0.2738 C   0  0  2  0  0  3  0  0  0  0  0  0
    0.7316   -2.8786    0.5786 C   0  0  1  0  0  3  0  0  0  0  0  0
   -0.1858   -4.0004    0.1824 C   0  0  0  0  0  0  0  0  0  0  0  0
    0.1891   -4.9560    0.6043 H   0  0  0  0  0  0  0  0  0  0  0  0
   -0.2381   -4.1229   -0.9153 H   0  0  0  0  0  0  0  0  0  0  0  0
   -1.2141   -3.8447    0.5649 H   0  0  0  0  0  0  0  0  0  0  0  0
    1.0507   -2.5298    1.9345 C   0  0  0  0  0  0  0  0  0  0  0  0
    0.6208   -3.0201    2.8158 H   0  0  0  0  0  0  0  0  0  0  0  0
    2.0391   -1.5072    1.9477 C   0  0  0  0  0  0  0  0  0  0  0  0
    3.5881    0.2646    2.8776 C   0  0  0  0  0  0  0  0  0  0  0  0
    2.8748    1.0738    2.6301 H   0  0  0  0  0  0  0  0  0  0  0  0
    4.3094    0.1607    2.0415 H   0  0  0  0  0  0  0  0  0  0  0  0
    4.1654    0.5709    3.7731 H   0  0  0  0  0  0  0  0  0  0  0  0
    1.9733   -0.9230    4.4117 C   0  0  0  0  0  0  0  0  0  0  0  0
    1.2124   -0.1308    4.2777 H   0  0  0  0  0  0  0  0  0  0  0  0
    2.6015   -0.6630    5.2878 H   0  0  0  0  0  0  0  0  0  0  0  0
    1.4508   -1.8714    4.6494 H   0  0  0  0  0  0  0  0  0  0  0  0
    3.9080   -2.1712    3.3959 C   0  0  0  0  0  0  0  0  0  0  0  0
    3.4230   -3.1409    3.6275 H   0  0  0  0  0  0  0  0  0  0  0  0
    4.5633   -1.8995    4.2495 H   0  0  0  0  0  0  0  0  0  0  0  0
    4.5479   -2.3145    2.5015 H   0  0  0  0  0  0  0  0  0  0  0  0
    2.8547   -1.0602    3.1560 C   0  0  0  0  0  0  0  0  0  0  0  0
    2.2822   -1.1621    0.5790 C   0  0  0  0  0  3  0  0  0  0  0  0
    2.9779   -0.3909    0.2330 H   0  0  0  0  0  0  0  0  0  0  0  0
    2.3819   -1.4134   -2.6266 C   0  0  0  0  0  0  0  0  0  0  0  0
    3.6574   -1.9385   -2.3445 C   0  0  0  0  0  0  0  0  0  0  0  0
    3.8018   -2.5490   -1.4403 H   0  0  0  0  0  0  0  0  0  0  0  0
    4.7407   -1.6841   -3.2002 C   0  0  0  0  0  0  0  0  0  0  0  0
    5.7321   -2.0996   -2.9630 H   0  0  0  0  0  0  0  0  0  0  0  0
    4.5631   -0.9007   -4.3509 C   0  0  0  0  0  0  0  0  0  0  0  0
    5.4136   -0.6959   -5.0188 H   0  0  0  0  0  0  0  0  0  0  0  0
    3.2930   -0.3768   -4.6422 C   0  0  0  0  0  0  0  0  0  0  0  0
    3.1434    0.2405   -5.5411 H   0  0  0  0  0  0  0  0  0  0  0  0
    2.2123   -0.6311   -3.7859 C   0  0  0  0  0  0  0  0  0  0  0  0
    1.2203   -0.2076   -4.0073 H   0  0  0  0  0  0  0  0  0  0  0  0
    0.1757   -0.5902   -1.5828 C   0  0  0  0  0  3  0  0  0  0  0  0
    0.4550    0.7940   -1.2586 C   0  0  0  0  0  0  0  0  0  0  0  0
    1.6593    1.5577   -1.2133 C   0  0  0  0  0  0  0  0  0  0  0  0
    2.6119    1.1116   -1.5298 H   0  0  0  0  0  0  0  0  0  0  0  0
    1.6039    2.8831   -0.8078 C   0  0  0  0  0  0  0  0  0  0  0  0
    2.5428    3.4563   -0.7858 H   0  0  0  0  0  0  0  0  0  0  0  0
    0.3899    3.5327   -0.4144 C   0  0  0  0  0  0  0  0  0  0  0  0
   -0.9409    5.5129    0.4790 C   0  0  0  0  0  0  0  0  0  0  0  0
   -1.6492    5.5041   -0.3741 H   0  0  0  0  0  0  0  0  0  0  0  0
   -0.8581    6.5603    0.8324 H   0  0  0  0  0  0  0  0  0  0  0  0
   -1.3799    4.9152    1.3028 H   0  0  0  0  0  0  0  0  0  0  0  0
    0.4471    4.9873    0.0767 C   0  0  0  0  0  0  0  0  0  0  0  0
    1.0089    5.8893   -1.0455 C   0  0  0  0  0  0  0  0  0  0  0  0
    0.3559    5.8610   -1.9413 H   0  0  0  0  0  0  0  0  0  0  0  0
    2.0252    5.5771   -1.3583 H   0  0  0  0  0  0  0  0  0  0  0  0
    1.0738    6.9414   -0.6989 H   0  0  0  0  0  0  0  0  0  0  0  0
    1.3708    5.0574    1.3155 C   0  0  0  0  0  0  0  0  0  0  0  0
    2.4057    4.7410    1.0765 H   0  0  0  0  0  0  0  0  0  0  0  0
    0.9962    4.3946    2.1204 H   0  0  0  0  0  0  0  0  0  0  0  0
    1.4179    6.0964    1.7025 H   0  0  0  0  0  0  0  0  0  0  0  0
   -0.7962    2.8017   -0.4710 C   0  0  0  0  0  0  0  0  0  0  0  0
   -1.7520    3.2533   -0.1757 H   0  0  0  0  0  0  0  0  0  0  0  0
   -0.7826    1.4451   -0.8718 C   0  0  0  0  0  0  0  0  0  0  0  0
   -1.8451    0.4668   -0.9793 C   0  0  0  0  0  0  0  0  0  0  0  0
   -3.2310    0.5468   -0.7022 C   0  0  0  0  0  0  0  0  0  0  0  0
   -3.6380    1.4911   -0.3179 H   0  0  0  0  0  0  0  0  0  0  0  0
   -4.0526   -0.5639   -0.8920 C   0  0  0  0  0  0  0  0  0  0  0  0
   -5.5494   -0.5589   -0.5454 C   0  0  0  0  0  0  0  0  0  0  0  0
   -6.3764   -0.8809   -1.8107 C   0  0  0  0  0  0  0  0  0  0  0  0
   -6.2091   -0.1187   -2.5986 H   0  0  0  0  0  0  0  0  0  0  0  0
   -7.4594   -0.8962   -1.5697 H   0  0  0  0  0  0  0  0  0  0  0  0
   -6.1158   -1.8701   -2.2367 H   0  0  0  0  0  0  0  0  0  0  0  0
   -5.8096   -1.6328    0.5371 C   0  0  0  0  0  0  0  0  0  0  0  0
   -5.2055   -1.4293    1.4433 H   0  0  0  0  0  0  0  0  0  0  0  0
   -5.5440   -2.6482    0.1815 H   0  0  0  0  0  0  0  0  0  0  0  0
   -6.8829   -1.6439    0.8192 H   0  0  0  0  0  0  0  0  0  0  0  0
   -6.0084    0.8024    0.0036 C   0  0  0  0  0  0  0  0  0  0  0  0
   -5.4674    1.0725    0.9325 H   0  0  0  0  0  0  0  0  0  0  0  0
   -7.0894    0.7641    0.2459 H   0  0  0  0  0  0  0  0  0  0  0  0
   -5.8610    1.6164   -0.7348 H   0  0  0  0  0  0  0  0  0  0  0  0
   -3.4641   -1.7602   -1.4168 C   0  0  0  0  0  0  0  0  0  0  0  0
   -4.1107   -2.6310   -1.6019 H   0  0  0  0  0  0  0  0  0  0  0  0
   -2.1112   -1.8789   -1.6940 C   0  0  0  0  0  0  0  0  0  0  0  0
   -1.7107   -2.8177   -2.1010 H   0  0  0  0  0  0  0  0  0  0  0  0
   -1.2548   -0.7665   -1.4608 C   0  0  0  0  0  0  0  0  0  0  0  0
  1  2  1  6  0  0  0
  1 38  1  0  0  0  0
  3  1  1  6  0  0  0
  3  4  1  0  0  0  0
  3 25  1  0  0  0  0
  4  5  1  6  0  0  0
  4  9  1  0  0  0  0
  5  8  1  0  0  0  0
  5  6  1  0  0  0  0
  7  5  1  0  0  0  0
  9 11  2  0  0  0  0
  9 10  1  0  0  0  0
 11 24  1  0  0  0  0
 12 24  1  0  0  0  0
 12 15  1  0  0  0  0
 13 12  1  0  0  0  0
 14 12  1  0  0  0  0
 16 19  1  0  0  0  0
 16 18  1  0  0  0  0
 17 16  1  0  0  0  0
 20 21  1  0  0  0  0
 20 22  1  0  0  0  0
 23 20  1  0  0  0  0
 24 20  1  0  0  0  0
 24 16  1  0  0  0  0
 25 11  1  0  0  0  0
 26 25  1  0  0  0  0
 27 28  1  0  0  0  0
 27  1  1  0  0  0  0
 28 29  1  0  0  0  0
 30 31  1  0  0  0  0
 30 28  2  0  0  0  0
 32 30  1  0  0  0  0
 33 32  1  0  0  0  0
 34 32  2  0  0  0  0
 34 36  1  0  0  0  0
 35 34  1  0  0  0  0
 36 27  2  0  0  0  0
 37 36  1  0  0  0  0
 38 82  1  0  0  0  0
 38 39  1  0  0  0  0
 39 40  2  0  0  0  0
 39 60  1  0  0  0  0
 40 42  1  0  0  0  0
 41 40  1  0  0  0  0
 42 43  1  0  0  0  0
 42 44  2  0  0  0  0
 44 49  1  0  0  0  0
 45 47  1  0  0  0  0
 45 48  1  0  0  0  0
 46 45  1  0  0  0  0
 49 45  1  0  0  0  0
 49 54  1  0  0  0  0
 50 53  1  0  0  0  0
 50 49  1  0  0  0  0
 51 50  1  0  0  0  0
 52 50  1  0  0  0  0
 54 57  1  0  0  0  0
 54 56  1  0  0  0  0
 55 54  1  0  0  0  0
 58 44  1  0  0  0  0
 58 59  1  0  0  0  0
 60 58  2  0  0  0  0
 61 60  1  0  0  0  0
 61 62  1  0  0  0  0
 62 63  1  0  0  0  0
 64 62  2  0  0  0  0
 64 65  1  0  0  0  0
 65 74  1  0  0  0  0
 65 70  1  0  0  0  0
 66 68  1  0  0  0  0
 66 65  1  0  0  0  0
 67 66  1  0  0  0  0
 69 66  1  0  0  0  0
 70 73  1  0  0  0  0
 70 71  1  0  0  0  0
 72 70  1  0  0  0  0
 74 76  1  0  0  0  0
 74 75  1  0  0  0  0
 77 74  1  0  0  0  0
 78 64  1  0  0  0  0
 79 78  1  0  0  0  0
 80 82  1  0  0  0  0
 80 78  2  0  0  0  0
 81 80  1  0  0  0  0
 82 61  2  0  0  0  0
M  END
