1,5
q = -1.0

 46 46  0  0  1  0  0  0  0  0999 V2000
   -1.2342    0.5598    1.1471 C   0  0  1  0  0  3  0  0  0  0  0  0
   -0.2967    1.5293    0.6028 C   0  0  0  0  0  0  0  0  0  0  0  0
   -0.5726    2.5246    0.2443 H   0  0  0  0  0  0  0  0  0  0  0  0
    1.0238    0.9595    0.5186 C   0  0  0  0  0  0  0  0  0  0  0  0
    0.9078   -0.4399    1.0681 C   0  0  2  0  0  3  0  0  0  0  0  0
   -0.4651   -0.6056    1.5008 C   0  0  0  0  0  3  0  0  0  0  0  0
   -0.8852   -1.5240    1.9167 H   0  0  0  0  0  0  0  0  0  0  0  0
   -2.7180    0.7760    1.3754 C   0  0  0  0  0  0  0  0  0  0  0  0
   -3.3074    1.6499    0.2514 C   0  0  0  0  0  0  0  0  0  0  0  0
   -4.3963    1.7818    0.4095 H   0  0  0  0  0  0  0  0  0  0  0  0
   -3.1518    1.1775   -0.7393 H   0  0  0  0  0  0  0  0  0  0  0  0
   -2.8509    2.6594    0.2269 H   0  0  0  0  0  0  0  0  0  0  0  0
   -2.8590    1.4987    2.7359 C   0  0  0  0  0  0  0  0  0  0  0  0
   -3.9303    1.6816    2.9567 H   0  0  0  0  0  0  0  0  0  0  0  0
   -2.3382    2.4775    2.7300 H   0  0  0  0  0  0  0  0  0  0  0  0
   -2.4374    0.8896    3.5608 H   0  0  0  0  0  0  0  0  0  0  0  0
   -3.4571   -0.5741    1.4147 C   0  0  0  0  0  0  0  0  0  0  0  0
   -4.5462   -0.4042    1.5278 H   0  0  0  0  0  0  0  0  0  0  0  0
   -3.1300   -1.1975    2.2711 H   0  0  0  0  0  0  0  0  0  0  0  0
   -3.2843   -1.1486    0.4822 H   0  0  0  0  0  0  0  0  0  0  0  0
    2.2025    1.8276    0.0530 C   0  0  0  0  0  0  0  0  0  0  0  0
    1.6805    3.0038   -0.8061 C   0  0  0  0  0  0  0  0  0  0  0  0
    1.0525    3.7062   -0.2234 H   0  0  0  0  0  0  0  0  0  0  0  0
    1.1003    2.6355   -1.6759 H   0  0  0  0  0  0  0  0  0  0  0  0
    2.5446    3.5856   -1.1832 H   0  0  0  0  0  0  0  0  0  0  0  0
    3.2410    1.0864   -0.8069 C   0  0  0  0  0  0  0  0  0  0  0  0
    3.7816    0.3014   -0.2498 H   0  0  0  0  0  0  0  0  0  0  0  0
    3.9984    1.8121   -1.1643 H   0  0  0  0  0  0  0  0  0  0  0  0
    2.7578    0.6306   -1.6936 H   0  0  0  0  0  0  0  0  0  0  0  0
    2.8669    2.4163    1.3218 C   0  0  0  0  0  0  0  0  0  0  0  0
    2.1352    3.0023    1.9138 H   0  0  0  0  0  0  0  0  0  0  0  0
    3.6924    3.0969    1.0293 H   0  0  0  0  0  0  0  0  0  0  0  0
    3.2863    1.6331    1.9800 H   0  0  0  0  0  0  0  0  0  0  0  0
    1.9325   -1.5768    1.2531 C   0  0  0  0  0  0  0  0  0  0  0  0
    3.1142   -1.0837    2.1165 C   0  0  0  0  0  0  0  0  0  0  0  0
    3.7354   -0.3332    1.5956 H   0  0  0  0  0  0  0  0  0  0  0  0
    3.7707   -1.9413    2.3662 H   0  0  0  0  0  0  0  0  0  0  0  0
    2.7608   -0.6392    3.0692 H   0  0  0  0  0  0  0  0  0  0  0  0
    2.4271   -2.1427   -0.0977 C   0  0  0  0  0  0  0  0  0  0  0  0
    2.8592   -1.3728   -0.7569 H   0  0  0  0  0  0  0  0  0  0  0  0
    1.5886   -2.6168   -0.6434 H   0  0  0  0  0  0  0  0  0  0  0  0
    3.2058   -2.9099    0.0910 H   0  0  0  0  0  0  0  0  0  0  0  0
    1.2714   -2.7553    2.0031 C   0  0  0  0  0  0  0  0  0  0  0  0
    2.0179   -3.5635    2.1334 H   0  0  0  0  0  0  0  0  0  0  0  0
    0.4247   -3.1770    1.4266 H   0  0  0  0  0  0  0  0  0  0  0  0
    0.9145   -2.4630    3.0112 H   0  0  0  0  0  0  0  0  0  0  0  0
  1  8  1  1  0  0  0
  1  6  1  0  0  0  0
  2  1  1  0  0  0  0
  3  2  1  0  0  0  0
  4  2  2  0  0  0  0
  4  5  1  0  0  0  0
  5 34  1  1  0  0  0
  5  6  1  0  0  0  0
  6  7  1  0  0  0  0
  8 17  1  0  0  0  0
  8 13  1  0  0  0  0
  9 10  1  0  0  0  0
  9  8  1  0  0  0  0
 11  9  1  0  0  0  0
 12  9  1  0  0  0  0
 13 14  1  0  0  0  0
 13 16  1  0  0  0  0
 15 13  1  0  0  0  0
 17 18  1  0  0  0  0
 17 19  1  0  0  0  0
 20 17  1  0  0  0  0
 21  4  1  0  0  0  0
 21 30  1  0  0  0  0
 22 23  1  0  0  0  0
 22 21  1  0  0  0  0
 24 22  1  0  0  0  0
 25 22  1  0  0  0  0
 26 27  1  0  0  0  0
 26 21  1  0  0  0  0
 28 26  1  0  0  0  0
 29 26  1  0  0  0  0
 30 31  1  0  0  0  0
 30 33  1  0  0  0  0
 32 30  1  0  0  0  0
 34 43  1  0  0  0  0
 34 35  1  0  0  0  0
 35 37  1  0  0  0  0
 35 38  1  0  0  0  0
 36 35  1  0  0  0  0
 39 42  1  0  0  0  0
 39 34  1  0  0  0  0
 40 39  1  0  0  0  0
 41 39  1  0  0  0  0
 43 44  1  0  0  0  0
 43 46  1  0  0  0  0
 45 43  1  0  0  0  0
M  END
