5,11
q = 0.0, confidence = 0.998

 40 41  0  0  1  0  0  0  0  0999 V2000
    3.3942   -2.1117    0.2492 O   0  0  0  0  0  0  0  0  0  0  0  0
    1.0122   -3.0671   -1.2595 O   0  0  0  0  0  0  0  0  0  0  0  0
    2.5594   -1.2080    0.7812 C   0  0  0  0  0  0  0  0  0  0  0  0
    2.9587   -0.1537    1.6623 C   0  0  0  0  0  0  0  0  0  0  0  0
    1.9866    0.7584    2.1697 C   0  0  0  0  0  3  0  0  0  0  0  0
    0.6006    0.6260    1.8672 C   0  0  0  0  0  0  0  0  0  0  0  0
    0.2127   -0.3944    0.9672 C   0  0  0  0  0  0  0  0  0  0  0  0
   -1.1870   -0.7780    0.5127 C   0  0  2  0  0  0  0  0  0  0  0  0
   -0.9297   -1.6472   -0.7365 C   0  0  0  0  0  0  0  0  0  0  0  0
    0.5211   -2.1511   -0.6269 C   0  0  0  0  0  0  0  0  0  0  0  0
    1.1797   -1.2892    0.4034 C   0  0  1  0  0  3  0  0  0  0  0  0
   -2.1978    0.3622    0.3607 C   0  0  0  0  0  0  0  0  0  0  0  0
   -3.6122   -0.1237    0.0304 C   0  0  0  0  0  0  0  0  0  0  0  0
   -4.6274    1.0185   -0.0821 C   0  0  0  0  0  0  0  0  0  0  0  0
   -6.0428    0.5833   -0.4830 C   0  0  0  0  0  0  0  0  0  0  0  0
   -6.7652   -0.2965    0.5443 C   0  0  0  0  0  0  0  0  0  0  0  0
    4.7970   -1.9448    0.4247 C   0  0  0  0  0  0  0  0  0  0  0  0
   -8.1938   -0.6540    0.1324 C   0  0  0  0  0  0  0  0  0  0  0  0
    4.0147   -0.0051    1.9152 H   0  0  0  0  0  0  0  0  0  0  0  0
    2.3246    1.5832    2.8131 H   0  0  0  0  0  0  0  0  0  0  0  0
   -0.1271    1.3446    2.2654 H   0  0  0  0  0  0  0  0  0  0  0  0
   -1.5640   -1.4516    1.3192 H   0  0  0  0  0  0  0  0  0  0  0  0
   -1.0043   -1.0349   -1.6621 H   0  0  0  0  0  0  0  0  0  0  0  0
   -1.6207   -2.5027   -0.8555 H   0  0  0  0  0  0  0  0  0  0  0  0
   -2.2322    0.9486    1.3053 H   0  0  0  0  0  0  0  0  0  0  0  0
   -1.8539    1.0632   -0.4270 H   0  0  0  0  0  0  0  0  0  0  0  0
   -3.9384   -0.8518    0.8060 H   0  0  0  0  0  0  0  0  0  0  0  0
   -3.5970   -0.6899   -0.9275 H   0  0  0  0  0  0  0  0  0  0  0  0
   -4.6712    1.5658    0.8872 H   0  0  0  0  0  0  0  0  0  0  0  0
   -4.2503    1.7552   -0.8248 H   0  0  0  0  0  0  0  0  0  0  0  0
   -6.6584    1.4907   -0.6698 H   0  0  0  0  0  0  0  0  0  0  0  0
   -5.9993    0.0464   -1.4581 H   0  0  0  0  0  0  0  0  0  0  0  0
   -6.7775    0.2294    1.5256 H   0  0  0  0  0  0  0  0  0  0  0  0
   -6.1873   -1.2314    0.7130 H   0  0  0  0  0  0  0  0  0  0  0  0
    5.2718   -2.7730   -0.1308 H   0  0  0  0  0  0  0  0  0  0  0  0
    5.0861   -2.0110    1.4958 H   0  0  0  0  0  0  0  0  0  0  0  0
    5.1407   -0.9776    0.0008 H   0  0  0  0  0  0  0  0  0  0  0  0
   -8.6957   -1.2878    0.8911 H   0  0  0  0  0  0  0  0  0  0  0  0
   -8.2082   -1.2091   -0.8289 H   0  0  0  0  0  0  0  0  0  0  0  0
   -8.8135    0.2568   -0.0061 H   0  0  0  0  0  0  0  0  0  0  0  0
  1 17  1  0  0  0  0
  1  3  1  0  0  0  0
  2 10  2  0  0  0  0
  3  4  2  0  0  0  0
  4 19  1  0  0  0  0
  4  5  1  0  0  0  0
  5 20  1  0  0  0  0
  6  5  1  0  0  0  0
  6 21  1  0  0  0  0
  7  6  2  0  0  0  0
  8  7  1  0  0  0  0
  8 22  1  1  0  0  0
  9 10  1  0  0  0  0
  9  8  1  0  0  0  0
 11 10  1  6  0  0  0
 11  3  1  0  0  0  0
 11  7  1  0  0  0  0
 12  8  1  0  0  0  0
 12 25  1  0  0  0  0
 13 12  1  0  0  0  0
 13 27  1  0  0  0  0
 14 13  1  0  0  0  0
 14 29  1  0  0  0  0
 15 14  1  0  0  0  0
 15 16  1  0  0  0  0
 16 34  1  0  0  0  0
 16 33  1  0  0  0  0
 17 36  1  0  0  0  0
 18 16  1  0  0  0  0
 18 38  1  0  0  0  0
 23  9  1  0  0  0  0
 24  9  1  0  0  0  0
 26 12  1  0  0  0  0
 28 13  1  0  0  0  0
 30 14  1  0  0  0  0
 31 15  1  0  0  0  0
 32 15  1  0  0  0  0
 35 17  1  0  0  0  0
 37 17  1  0  0  0  0
 39 18  1  0  0  0  0
 40 18  1  0  0  0  0
M  END
