5,14
q = -2.0, confidence = 0.666

 26 26  0  0  0  0  0  0  0  0999 V2000
   -0.1327    4.3857    1.8322 O   0  0  0  0  0  0  0  0  0  0  0  0
   -0.6838    4.2055   -0.3576 O   0  0  0  0  0  0  0  0  0  0  0  0
   -2.7747    1.9927   -0.8458 O   0  0  0  0  0  0  0  0  0  0  0  0
   -1.1465    1.9969   -2.4270 O   0  0  0  0  0  0  0  0  0  0  0  0
    1.1727    0.1727    1.3970 C   0  0  0  0  0  3  0  0  0  0  0  0
    1.0085    1.5752    1.6360 C   0  0  0  0  0  0  0  0  0  0  0  0
    1.7354    2.2192    2.6633 C   0  0  0  0  0  0  0  0  0  0  0  0
    2.6320    1.4878    3.4570 C   0  0  0  0  0  0  0  0  0  0  0  0
    2.8064    0.1133    3.2334 C   0  0  0  0  0  0  0  0  0  0  0  0
    2.0814   -0.5303    2.2125 C   0  0  0  0  0  0  0  0  0  0  0  0
    0.0665    2.2430    0.7196 C   0  0  0  0  0  0  0  0  0  0  0  0
   -0.2411    3.6929    0.8306 C   0  0  0  0  0  0  0  0  0  0  0  0
   -1.1416    5.5568   -0.3083 C   0  0  0  0  0  0  0  0  0  0  0  0
   -0.5282    1.4360   -0.2193 C   0  0  0  0  0  3  0  0  0  0  0  0
   -1.5900    1.8715   -1.1431 C   0  0  0  0  0  0  0  0  0  0  0  0
   -2.1617    2.2804   -3.3965 C   0  0  0  0  0  0  0  0  0  0  0  0
    1.5741    3.2914    2.8399 H   0  0  0  0  0  0  0  0  0  0  0  0
    3.1927    1.9958    4.2568 H   0  0  0  0  0  0  0  0  0  0  0  0
    3.5118   -0.4645    3.8519 H   0  0  0  0  0  0  0  0  0  0  0  0
    2.2475   -1.6070    2.0494 H   0  0  0  0  0  0  0  0  0  0  0  0
   -0.3482    6.2312    0.0724 H   0  0  0  0  0  0  0  0  0  0  0  0
   -2.0240    5.6517    0.3574 H   0  0  0  0  0  0  0  0  0  0  0  0
   -1.4157    5.8263   -1.3443 H   0  0  0  0  0  0  0  0  0  0  0  0
   -2.7144    3.2046   -3.1334 H   0  0  0  0  0  0  0  0  0  0  0  0
   -2.8856    1.4428   -3.4611 H   0  0  0  0  0  0  0  0  0  0  0  0
   -1.6379    2.4060   -4.3613 H   0  0  0  0  0  0  0  0  0  0  0  0
  2 13  1  0  0  0  0
  2 12  1  0  0  0  0
  4 15  1  0  0  0  0
  5  6  2  0  0  0  0
  5 10  1  0  0  0  0
  6  7  1  0  0  0  0
  7 17  1  0  0  0  0
  7  8  2  0  0  0  0
  8 18  1  0  0  0  0
  9  8  1  0  0  0  0
  9 19  1  0  0  0  0
 10  9  2  0  0  0  0
 11 12  1  0  0  0  0
 11  6  1  0  0  0  0
 12  1  2  0  0  0  0
 13 21  1  0  0  0  0
 13 22  1  0  0  0  0
 14 11  2  0  0  0  0
 15  3  2  0  0  0  0
 15 14  1  0  0  0  0
 16 24  1  0  0  0  0
 16  4  1  0  0  0  0
 20 10  1  0  0  0  0
 23 13  1  0  0  0  0
 25 16  1  0  0  0  0
 26 16  1  0  0  0  0
M  END
