2,5
q = 0.0, confidence = 0.99

 48 48  0  0  1  0  0  0  0  0999 V2000
    1.1600   -0.8328    1.0639 C   0  0  0  0  0  0  0  0  0  0  0  0
   -0.1844   -1.3541    1.0110 C   0  0  2  0  0  3  0  0  0  0  0  0
   -1.2967   -0.4303    1.1414 C   0  0  0  0  0  0  0  0  0  0  0  0
   -1.0856    0.9808    1.0033 C   0  0  0  0  0  0  0  0  0  0  0  0
    0.2616    1.4922    0.8332 C   0  0  2  0  0  3  0  0  0  0  0  0
    1.3797    0.5864    0.9924 C   0  0  0  0  0  0  0  0  0  0  0  0
    2.3371   -1.7785    1.2441 C   0  0  0  0  0  0  0  0  0  0  0  0
   -0.4109   -2.8525    0.9421 C   0  0  0  0  0  0  0  0  0  0  0  0
   -2.6829   -0.9530    1.4211 C   0  0  0  0  0  0  0  0  0  0  0  0
   -2.2643    1.9367    1.1031 C   0  0  0  0  0  0  0  0  0  0  0  0
    0.4633    2.9861    0.6389 C   0  0  0  0  0  0  0  0  0  0  0  0
    2.7909    1.1252    1.1151 C   0  0  0  0  0  0  0  0  0  0  0  0
    3.0562   -2.2580   -0.0253 C   0  0  0  0  0  0  0  0  0  0  0  0
   -0.6088   -3.5606    2.2909 C   0  0  0  0  0  0  0  0  0  0  0  0
   -3.0183   -0.8930    2.9265 C   0  0  0  0  0  0  0  0  0  0  0  0
   -3.0193    2.2191   -0.2040 C   0  0  0  0  0  0  0  0  0  0  0  0
    0.6181    3.7924    1.9384 C   0  0  0  0  0  0  0  0  0  0  0  0
    3.2252    1.2723    2.5866 C   0  0  0  0  0  0  0  0  0  0  0  0
    1.9884   -2.6589    1.8157 H   0  0  0  0  0  0  0  0  0  0  0  0
    3.0701   -1.2784    1.9036 H   0  0  0  0  0  0  0  0  0  0  0  0
    0.4499   -3.3051    0.4149 H   0  0  0  0  0  0  0  0  0  0  0  0
   -1.2798   -3.0356    0.2775 H   0  0  0  0  0  0  0  0  0  0  0  0
   -2.7716   -1.9934    1.0625 H   0  0  0  0  0  0  0  0  0  0  0  0
   -3.4266   -0.3737    0.8430 H   0  0  0  0  0  0  0  0  0  0  0  0
   -1.9181    2.8900    1.5433 H   0  0  0  0  0  0  0  0  0  0  0  0
   -2.9706    1.5203    1.8444 H   0  0  0  0  0  0  0  0  0  0  0  0
   -0.3973    3.3756    0.0628 H   0  0  0  0  0  0  0  0  0  0  0  0
    1.3444    3.1574   -0.0095 H   0  0  0  0  0  0  0  0  0  0  0  0
    2.8664    2.1081    0.6155 H   0  0  0  0  0  0  0  0  0  0  0  0
    3.4986    0.4613    0.5837 H   0  0  0  0  0  0  0  0  0  0  0  0
    3.9604   -2.8339    0.2511 H   0  0  0  0  0  0  0  0  0  0  0  0
    2.4177   -2.9223   -0.6372 H   0  0  0  0  0  0  0  0  0  0  0  0
    3.3796   -1.4139   -0.6662 H   0  0  0  0  0  0  0  0  0  0  0  0
   -0.6547   -4.6557    2.1352 H   0  0  0  0  0  0  0  0  0  0  0  0
    0.2232   -3.3555    2.9942 H   0  0  0  0  0  0  0  0  0  0  0  0
   -1.5482   -3.2589    2.7898 H   0  0  0  0  0  0  0  0  0  0  0  0
   -4.0256   -1.3192    3.0976 H   0  0  0  0  0  0  0  0  0  0  0  0
   -2.2956   -1.4715    3.5327 H   0  0  0  0  0  0  0  0  0  0  0  0
   -3.0198    0.1428    3.3188 H   0  0  0  0  0  0  0  0  0  0  0  0
   -3.9497    2.7797    0.0098 H   0  0  0  0  0  0  0  0  0  0  0  0
   -2.4182    2.8361   -0.8989 H   0  0  0  0  0  0  0  0  0  0  0  0
   -3.2921    1.2848   -0.7334 H   0  0  0  0  0  0  0  0  0  0  0  0
    0.6307    4.8754    1.7095 H   0  0  0  0  0  0  0  0  0  0  0  0
   -0.2149    3.6072    2.6453 H   0  0  0  0  0  0  0  0  0  0  0  0
    1.5605    3.5536    2.4650 H   0  0  0  0  0  0  0  0  0  0  0  0
    4.2439    1.7031    2.6341 H   0  0  0  0  0  0  0  0  0  0  0  0
    2.5472    1.9393    3.1514 H   0  0  0  0  0  0  0  0  0  0  0  0
    3.2464    0.3017    3.1195 H   0  0  0  0  0  0  0  0  0  0  0  0
  1  7  1  0  0  0  0
  2  8  1  1  0  0  0
  2  1  1  0  0  0  0
  2  3  1  0  0  0  0
  3  9  1  0  0  0  0
  4 10  1  0  0  0  0
  4  3  2  0  0  0  0
  5 11  1  1  0  0  0
  5  6  1  0  0  0  0
  5  4  1  0  0  0  0
  6  1  2  0  0  0  0
  6 12  1  0  0  0  0
  7 19  1  0  0  0  0
  7 20  1  0  0  0  0
  8 14  1  0  0  0  0
  9 15  1  0  0  0  0
 10 25  1  0  0  0  0
 10 26  1  0  0  0  0
 11 17  1  0  0  0  0
 12 18  1  0  0  0  0
 13 31  1  0  0  0  0
 13  7  1  0  0  0  0
 14 36  1  0  0  0  0
 14 35  1  0  0  0  0
 15 37  1  0  0  0  0
 15 39  1  0  0  0  0
 15 38  1  0  0  0  0
 16 40  1  0  0  0  0
 16 10  1  0  0  0  0
 17 45  1  0  0  0  0
 17 44  1  0  0  0  0
 18 46  1  0  0  0  0
 18 48  1  0  0  0  0
 18 47  1  0  0  0  0
 21  8  1  0  0  0  0
 22  8  1  0  0  0  0
 23  9  1  0  0  0  0
 24  9  1  0  0  0  0
 27 11  1  0  0  0  0
 28 11  1  0  0  0  0
 29 12  1  0  0  0  0
 30 12  1  0  0  0  0
 32 13  1  0  0  0  0
 33 13  1  0  0  0  0
 34 14  1  0  0  0  0
 41 16  1  0  0  0  0
 42 16  1  0  0  0  0
 43 17  1  0  0  0  0
M  END
