2,4
q = -1.0

 46 48  0  0  0  0  0  0  0  0999 V2000
   -7.5921   -1.4424    0.1674 Cl  0  0  0  0  0  0  0  0  0  0  0  0
    1.3320    0.2264    0.0207 C   0  0  0  0  0  2  0  0  0  0  0  0
    0.3440    1.1488    0.0904 N   0  0  0  0  0  0  0  0  0  0  0  0
   -0.8704    0.4020    0.0481 C   0  0  0  0  0  3  0  0  0  0  0  0
   -2.0760    1.0234    0.1056 C   0  0  0  0  0  0  0  0  0  0  0  0
   -3.4026    0.4025    0.1373 C   0  0  0  0  0  0  0  0  0  0  0  0
   -4.5130    1.0904   -0.4108 C   0  0  0  0  0  0  0  0  0  0  0  0
   -5.7965    0.5338   -0.4081 C   0  0  0  0  0  0  0  0  0  0  0  0
   -5.9940   -0.7350    0.1615 C   0  0  0  0  0  0  0  0  0  0  0  0
   -4.9204   -1.4309    0.7409 C   0  0  0  0  0  0  0  0  0  0  0  0
   -3.6448   -0.8574    0.7337 C   0  0  0  0  0  0  0  0  0  0  0  0
    0.5004    2.5756    0.1138 C   0  0  0  0  0  0  0  0  0  0  0  0
    0.9435    3.2228    1.2802 C   0  0  0  0  0  0  0  0  0  0  0  0
    1.1093    4.6152    1.2818 C   0  0  0  0  0  0  0  0  0  0  0  0
    0.8241    5.3871    0.1372 C   0  0  0  0  0  0  0  0  0  0  0  0
    0.3766    4.7169   -1.0227 C   0  0  0  0  0  0  0  0  0  0  0  0
    0.2179    3.3266   -1.0427 C   0  0  0  0  0  0  0  0  0  0  0  0
    0.9652    6.8875    0.1524 C   0  0  0  0  0  0  0  0  0  0  0  0
    2.6072    0.6396    0.0030 N   0  0  0  0  0  0  0  0  0  0  0  0
    3.7678   -0.1722    0.0674 C   0  0  0  0  0  0  0  0  0  0  0  0
    3.8306   -1.2867    0.9234 C   0  0  0  0  0  0  0  0  0  0  0  0
    4.9897   -2.0683    0.9625 C   0  0  0  0  0  0  0  0  0  0  0  0
    6.1209   -1.7519    0.1817 C   0  0  0  0  0  0  0  0  0  0  0  0
    6.0511   -0.6100   -0.6418 C   0  0  0  0  0  0  0  0  0  0  0  0
    4.8902    0.1703   -0.7083 C   0  0  0  0  0  0  0  0  0  0  0  0
    7.3527   -2.6197    0.2175 C   0  0  0  0  0  0  0  0  0  0  0  0
   -2.0801    2.1310    0.1123 H   0  0  0  0  0  0  0  0  0  0  0  0
   -4.3586    2.0828   -0.8631 H   0  0  0  0  0  0  0  0  0  0  0  0
   -6.6484    1.0729   -0.8460 H   0  0  0  0  0  0  0  0  0  0  0  0
   -5.0922   -2.4124    1.2043 H   0  0  0  0  0  0  0  0  0  0  0  0
   -2.8177   -1.3822    1.2285 H   0  0  0  0  0  0  0  0  0  0  0  0
    1.1489    2.6289    2.1832 H   0  0  0  0  0  0  0  0  0  0  0  0
    1.4595    5.1162    2.1978 H   0  0  0  0  0  0  0  0  0  0  0  0
    0.1536    5.2988   -1.9308 H   0  0  0  0  0  0  0  0  0  0  0  0
   -0.1249    2.8052   -1.9489 H   0  0  0  0  0  0  0  0  0  0  0  0
   -0.0260    7.3755    0.2699 H   0  0  0  0  0  0  0  0  0  0  0  0
    1.3993    7.2653   -0.7949 H   0  0  0  0  0  0  0  0  0  0  0  0
    1.6038    7.2312    0.9887 H   0  0  0  0  0  0  0  0  0  0  0  0
    2.7725    1.6541   -0.0668 H   0  0  0  0  0  0  0  0  0  0  0  0
    2.9715   -1.5283    1.5631 H   0  0  0  0  0  0  0  0  0  0  0  0
    5.0197   -2.9441    1.6292 H   0  0  0  0  0  0  0  0  0  0  0  0
    6.9219   -0.3317   -1.2558 H   0  0  0  0  0  0  0  0  0  0  0  0
    4.8462    1.0447   -1.3760 H   0  0  0  0  0  0  0  0  0  0  0  0
    7.2028   -3.5454   -0.3786 H   0  0  0  0  0  0  0  0  0  0  0  0
    7.5960   -2.9392    1.2508 H   0  0  0  0  0  0  0  0  0  0  0  0
    8.2353   -2.0969   -0.1991 H   0  0  0  0  0  0  0  0  0  0  0  0
  2  3  1  0  0  0  0
  3 12  1  0  0  0  0
  4  3  1  0  0  0  0
  4  5  2  0  0  0  0
  5 27  1  0  0  0  0
  5  6  1  0  0  0  0
  6 11  1  0  0  0  0
  7  8  1  0  0  0  0
  7  6  2  0  0  0  0
  8  9  2  0  0  0  0
  9  1  1  0  0  0  0
  9 10  1  0  0  0  0
 10 30  1  0  0  0  0
 11 10  2  0  0  0  0
 11 31  1  0  0  0  0
 12 13  1  0  0  0  0
 13 14  2  0  0  0  0
 13 32  1  0  0  0  0
 14 33  1  0  0  0  0
 15 18  1  0  0  0  0
 15 14  1  0  0  0  0
 16 15  2  0  0  0  0
 17 16  1  0  0  0  0
 17 12  2  0  0  0  0
 18 36  1  0  0  0  0
 18 38  1  0  0  0  0
 19  2  1  0  0  0  0
 19 20  1  0  0  0  0
 20 21  1  0  0  0  0
 21 22  2  0  0  0  0
 21 40  1  0  0  0  0
 22 41  1  0  0  0  0
 23 26  1  0  0  0  0
 23 22  1  0  0  0  0
 24 23  2  0  0  0  0
 25 24  1  0  0  0  0
 25 20  2  0  0  0  0
 26 45  1  0  0  0  0
 28  7  1  0  0  0  0
 29  8  1  0  0  0  0
 34 16  1  0  0  0  0
 35 17  1  0  0  0  0
 37 18  1  0  0  0  0
 39 19  1  0  0  0  0
 42 24  1  0  0  0  0
 43 25  1  0  0  0  0
 44 26  1  0  0  0  0
 46 26  1  0  0  0  0
M  END
