2,5
q = -1.0

 69 72  0  0  0  0  0  0  0  0999 V2000
    6.7691    3.0662   -0.3911 O   0  0  0  0  0  0  0  0  0  0  0  0
   -1.7398    0.1325   -0.1625 C   0  0  0  0  0  2  0  0  0  0  0  0
   -1.0241    1.2795    0.0659 N   0  0  0  0  0  0  0  0  0  0  0  0
    0.3977    1.1916    0.0832 C   0  0  0  0  0  0  0  0  0  0  0  0
    0.8261   -0.2350    0.1792 C   0  0  0  0  0  3  0  0  0  0  0  0
    1.9559   -0.4764    0.7231 N   0  0  0  0  0  0  0  0  0  0  0  0
    2.5454   -1.7148    0.9258 C   0  0  0  0  0  0  0  0  0  0  0  0
    2.0830   -2.6024    1.9246 C   0  0  0  0  0  0  0  0  0  0  0  0
    2.7078   -3.8421    2.1119 C   0  0  0  0  0  0  0  0  0  0  0  0
    3.8035   -4.2444    1.3247 C   0  0  0  0  0  0  0  0  0  0  0  0
    4.2790   -3.3341    0.3557 C   0  0  0  0  0  0  0  0  0  0  0  0
    3.6793   -2.0872    0.1649 C   0  0  0  0  0  0  0  0  0  0  0  0
    4.4377   -5.6023    1.4909 C   0  0  0  0  0  0  0  0  0  0  0  0
    1.1640    2.3221    0.0255 C   0  0  0  0  0  0  0  0  0  0  0  0
    2.6191    2.4503   -0.0967 C   0  0  0  0  0  0  0  0  0  0  0  0
    3.2800    3.5287    0.5418 C   0  0  0  0  0  0  0  0  0  0  0  0
    4.6595    3.7089    0.4341 C   0  0  0  0  0  0  0  0  0  0  0  0
    5.4305    2.8211   -0.3453 C   0  0  0  0  0  0  0  0  0  0  0  0
    4.7855    1.7675   -1.0302 C   0  0  0  0  0  0  0  0  0  0  0  0
    3.4035    1.5948   -0.9017 C   0  0  0  0  0  0  0  0  0  0  0  0
   -1.6646    2.5393    0.3196 C   0  0  0  0  0  0  0  0  0  0  0  0
   -1.8272    2.9957    1.6405 C   0  0  0  0  0  0  0  0  0  0  0  0
   -2.4685    4.2169    1.8789 C   0  0  0  0  0  0  0  0  0  0  0  0
   -2.9593    5.0069    0.8161 C   0  0  0  0  0  0  0  0  0  0  0  0
   -2.7892    4.5297   -0.4995 C   0  0  0  0  0  0  0  0  0  0  0  0
   -2.1459    3.3098   -0.7529 C   0  0  0  0  0  0  0  0  0  0  0  0
   -3.6236    6.3324    1.0870 C   0  0  0  0  0  0  0  0  0  0  0  0
   -3.0648    0.2615   -0.0026 N   0  0  0  0  0  0  0  0  0  0  0  0
   -4.0890   -0.7742   -0.0524 C   0  0  0  0  0  0  0  0  0  0  0  0
   -4.9412   -0.7356    1.2263 C   0  0  0  0  0  0  0  0  0  0  0  0
   -6.0287   -1.8173    1.1948 C   0  0  0  0  0  0  0  0  0  0  0  0
   -6.8977   -1.7106   -0.0653 C   0  0  0  0  0  0  0  0  0  0  0  0
   -6.0423   -1.7389   -1.3385 C   0  0  0  0  0  0  0  0  0  0  0  0
   -4.9588   -0.6541   -1.3134 C   0  0  0  0  0  0  0  0  0  0  0  0
    7.5855    2.1938   -1.1478 C   0  0  0  0  0  0  0  0  0  0  0  0
    1.2339   -2.3054    2.5549 H   0  0  0  0  0  0  0  0  0  0  0  0
    2.3252   -4.5213    2.8909 H   0  0  0  0  0  0  0  0  0  0  0  0
    5.1447   -3.6137   -0.2666 H   0  0  0  0  0  0  0  0  0  0  0  0
    4.0654   -1.3858   -0.5883 H   0  0  0  0  0  0  0  0  0  0  0  0
    5.5442   -5.5485    1.4357 H   0  0  0  0  0  0  0  0  0  0  0  0
    4.1087   -6.2992    0.6895 H   0  0  0  0  0  0  0  0  0  0  0  0
    4.1658   -6.0645    2.4602 H   0  0  0  0  0  0  0  0  0  0  0  0
    0.6199    3.2820    0.0506 H   0  0  0  0  0  0  0  0  0  0  0  0
    2.6919    4.2308    1.1538 H   0  0  0  0  0  0  0  0  0  0  0  0
    5.1728    4.5357    0.9458 H   0  0  0  0  0  0  0  0  0  0  0  0
    5.3523    1.0817   -1.6742 H   0  0  0  0  0  0  0  0  0  0  0  0
    2.9124    0.7856   -1.4589 H   0  0  0  0  0  0  0  0  0  0  0  0
   -1.4426    2.3846    2.4702 H   0  0  0  0  0  0  0  0  0  0  0  0
   -2.5939    4.5672    2.9155 H   0  0  0  0  0  0  0  0  0  0  0  0
   -3.1640    5.1284   -1.3443 H   0  0  0  0  0  0  0  0  0  0  0  0
   -2.0082    2.9429   -1.7808 H   0  0  0  0  0  0  0  0  0  0  0  0
   -4.3208    6.2697    1.9464 H   0  0  0  0  0  0  0  0  0  0  0  0
   -4.1889    6.6954    0.2073 H   0  0  0  0  0  0  0  0  0  0  0  0
   -2.8692    7.1075    1.3406 H   0  0  0  0  0  0  0  0  0  0  0  0
   -3.4199    1.1947    0.2501 H   0  0  0  0  0  0  0  0  0  0  0  0
   -3.5615   -1.7451   -0.0771 H   0  0  0  0  0  0  0  0  0  0  0  0
   -4.2798   -0.8619    2.1084 H   0  0  0  0  0  0  0  0  0  0  0  0
   -5.4167    0.2690    1.3157 H   0  0  0  0  0  0  0  0  0  0  0  0
   -6.6535   -1.7523    2.1096 H   0  0  0  0  0  0  0  0  0  0  0  0
   -5.5414   -2.8173    1.2210 H   0  0  0  0  0  0  0  0  0  0  0  0
   -7.6478   -2.5282   -0.0850 H   0  0  0  0  0  0  0  0  0  0  0  0
   -7.4740   -0.7582   -0.0320 H   0  0  0  0  0  0  0  0  0  0  0  0
   -5.5471   -2.7302   -1.4351 H   0  0  0  0  0  0  0  0  0  0  0  0
   -6.6780   -1.6198   -2.2401 H   0  0  0  0  0  0  0  0  0  0  0  0
   -5.4296    0.3558   -1.3267 H   0  0  0  0  0  0  0  0  0  0  0  0
   -4.3106   -0.7217   -2.2104 H   0  0  0  0  0  0  0  0  0  0  0  0
    8.6239    2.5562   -1.0319 H   0  0  0  0  0  0  0  0  0  0  0  0
    7.3187    2.2057   -2.2289 H   0  0  0  0  0  0  0  0  0  0  0  0
    7.5253    1.1448   -0.7797 H   0  0  0  0  0  0  0  0  0  0  0  0
  1 18  1  0  0  0  0
  2 28  1  0  0  0  0
  2  3  1  0  0  0  0
  3  4  1  0  0  0  0
  3 21  1  0  0  0  0
  4  5  1  0  0  0  0
  5  6  2  0  0  0  0
  6  7  1  0  0  0  0
  7  8  1  0  0  0  0
  8  9  2  0  0  0  0
  8 36  1  0  0  0  0
  9 37  1  0  0  0  0
 10 13  1  0  0  0  0
 10  9  1  0  0  0  0
 11 10  2  0  0  0  0
 12 11  1  0  0  0  0
 12  7  2  0  0  0  0
 13 42  1  0  0  0  0
 14 43  1  0  0  0  0
 14  4  2  0  0  0  0
 15 14  1  0  0  0  0
 15 16  1  0  0  0  0
 16 44  1  0  0  0  0
 17 16  2  0  0  0  0
 17 45  1  0  0  0  0
 18 17  1  0  0  0  0
 19 20  1  0  0  0  0
 19 18  2  0  0  0  0
 20 15  2  0  0  0  0
 21 22  1  0  0  0  0
 22 23  2  0  0  0  0
 22 48  1  0  0  0  0
 23 49  1  0  0  0  0
 24 27  1  0  0  0  0
 24 23  1  0  0  0  0
 25 24  2  0  0  0  0
 26 25  1  0  0  0  0
 26 21  2  0  0  0  0
 27 54  1  0  0  0  0
 27 52  1  0  0  0  0
 28 55  1  0  0  0  0
 29 28  1  0  0  0  0
 29 30  1  0  0  0  0
 30 58  1  0  0  0  0
 30 57  1  0  0  0  0
 31 60  1  0  0  0  0
 31 30  1  0  0  0  0
 31 59  1  0  0  0  0
 32 62  1  0  0  0  0
 32 31  1  0  0  0  0
 33 34  1  0  0  0  0
 33 32  1  0  0  0  0
 34 29  1  0  0  0  0
 35 67  1  0  0  0  0
 35 69  1  0  0  0  0
 35  1  1  0  0  0  0
 38 11  1  0  0  0  0
 39 12  1  0  0  0  0
 40 13  1  0  0  0  0
 41 13  1  0  0  0  0
 46 19  1  0  0  0  0
 47 20  1  0  0  0  0
 50 25  1  0  0  0  0
 51 26  1  0  0  0  0
 53 27  1  0  0  0  0
 56 29  1  0  0  0  0
 61 32  1  0  0  0  0
 63 33  1  0  0  0  0
 64 33  1  0  0  0  0
 65 34  1  0  0  0  0
 66 34  1  0  0  0  0
 68 35  1  0  0  0  0
M  END
