2,5
q = 0.0, confidence = 0.984

 63 66  0  0  0  0  0  0  0  0999 V2000
    7.5869   -1.4968   -0.6144 Cl  0  0  0  0  0  0  0  0  0  0  0  0
   -0.2052    1.0713    0.0705 C   0  0  0  0  0  2  0  0  0  0  0  0
    0.9129    0.2726    0.1843 N   0  0  0  0  0  0  0  0  0  0  0  0
    0.6844   -1.1273    0.1046 C   0  0  0  0  0  0  0  0  0  0  0  0
   -0.7648   -1.4262    0.1314 C   0  0  0  0  0  2  0  0  0  0  0  0
   -1.1140   -2.6305    0.5558 N   0  0  0  0  0  0  0  0  0  0  0  0
   -2.4248   -3.2246    0.5387 C   0  0  0  0  0  0  0  0  0  0  0  0
   -3.3464   -2.9469    1.5601 C   0  0  0  0  0  0  0  0  0  0  0  0
   -4.6150   -3.5389    1.5165 C   0  0  0  0  0  0  0  0  0  0  0  0
   -4.9805   -4.4182    0.4760 C   0  0  0  0  0  0  0  0  0  0  0  0
   -4.0202   -4.7062   -0.5178 C   0  0  0  0  0  0  0  0  0  0  0  0
   -2.7494   -4.1218   -0.4916 C   0  0  0  0  0  0  0  0  0  0  0  0
   -6.3602   -5.0154    0.4109 C   0  0  0  0  0  0  0  0  0  0  0  0
    1.6362   -2.1069   -0.0495 C   0  0  0  0  0  0  0  0  0  0  0  0
    3.0771   -2.0120   -0.2853 C   0  0  0  0  0  0  0  0  0  0  0  0
    3.9538   -2.8349    0.4636 C   0  0  0  0  0  0  0  0  0  0  0  0
    5.3403   -2.6918    0.3615 C   0  0  0  0  0  0  0  0  0  0  0  0
    5.8683   -1.7401   -0.5294 C   0  0  0  0  0  0  0  0  0  0  0  0
    5.0206   -0.9819   -1.3557 C   0  0  0  0  0  0  0  0  0  0  0  0
    3.6368   -1.1211   -1.2307 C   0  0  0  0  0  0  0  0  0  0  0  0
    2.2124    0.7992    0.5199 C   0  0  0  0  0  0  0  0  0  0  0  0
    2.8766    0.3602    1.6776 C   0  0  0  0  0  0  0  0  0  0  0  0
    4.1820    0.7921    1.9330 C   0  0  0  0  0  0  0  0  0  0  0  0
    4.8476    1.6851    1.0646 C   0  0  0  0  0  0  0  0  0  0  0  0
    4.1382    2.1655   -0.0557 C   0  0  0  0  0  0  0  0  0  0  0  0
    2.8414    1.7201   -0.3403 C   0  0  0  0  0  0  0  0  0  0  0  0
    6.2834    2.0652    1.3018 C   0  0  0  0  0  0  0  0  0  0  0  0
   -0.0184    2.3637    0.3470 N   0  0  0  0  0  0  0  0  0  0  0  0
   -0.9946    3.4115    0.2768 C   0  0  0  0  0  0  0  0  0  0  0  0
   -1.9212    3.5952    1.3165 C   0  0  0  0  0  0  0  0  0  0  0  0
   -2.8618    4.6287    1.2273 C   0  0  0  0  0  0  0  0  0  0  0  0
   -2.8889    5.5030    0.1206 C   0  0  0  0  0  0  0  0  0  0  0  0
   -1.9224    5.3214   -0.8921 C   0  0  0  0  0  0  0  0  0  0  0  0
   -0.9800    4.2900   -0.8195 C   0  0  0  0  0  0  0  0  0  0  0  0
   -3.9302    6.5838    0.0087 C   0  0  0  0  0  0  0  0  0  0  0  0
   -0.3674   -3.2517    0.9032 H   0  0  0  0  0  0  0  0  0  0  0  0
   -3.0731   -2.2722    2.3830 H   0  0  0  0  0  0  0  0  0  0  0  0
   -5.3392   -3.3141    2.3144 H   0  0  0  0  0  0  0  0  0  0  0  0
   -4.2769   -5.3980   -1.3346 H   0  0  0  0  0  0  0  0  0  0  0  0
   -2.0155   -4.3408   -1.2814 H   0  0  0  0  0  0  0  0  0  0  0  0
   -6.3413   -6.0442    0.0016 H   0  0  0  0  0  0  0  0  0  0  0  0
   -7.0111   -4.4119   -0.2574 H   0  0  0  0  0  0  0  0  0  0  0  0
   -6.8442   -5.0420    1.4058 H   0  0  0  0  0  0  0  0  0  0  0  0
    1.2639   -3.1429    0.0282 H   0  0  0  0  0  0  0  0  0  0  0  0
    3.5404   -3.5663    1.1752 H   0  0  0  0  0  0  0  0  0  0  0  0
    6.0182   -3.3024    0.9738 H   0  0  0  0  0  0  0  0  0  0  0  0
    5.4521   -0.2805   -2.0829 H   0  0  0  0  0  0  0  0  0  0  0  0
    2.9734   -0.5401   -1.8856 H   0  0  0  0  0  0  0  0  0  0  0  0
    2.3812   -0.3487    2.3563 H   0  0  0  0  0  0  0  0  0  0  0  0
    4.7050    0.4189    2.8267 H   0  0  0  0  0  0  0  0  0  0  0  0
    4.6259    2.8742   -0.7425 H   0  0  0  0  0  0  0  0  0  0  0  0
    2.3326    2.0518   -1.2583 H   0  0  0  0  0  0  0  0  0  0  0  0
    6.5134    2.1503    2.3817 H   0  0  0  0  0  0  0  0  0  0  0  0
    6.5453    3.0210    0.8094 H   0  0  0  0  0  0  0  0  0  0  0  0
    6.9541    1.2820    0.8860 H   0  0  0  0  0  0  0  0  0  0  0  0
    0.9365    2.6547    0.6130 H   0  0  0  0  0  0  0  0  0  0  0  0
   -1.9024    2.9308    2.1916 H   0  0  0  0  0  0  0  0  0  0  0  0
   -3.5910    4.7635    2.0408 H   0  0  0  0  0  0  0  0  0  0  0  0
   -1.9142    5.9988   -1.7596 H   0  0  0  0  0  0  0  0  0  0  0  0
   -0.2421    4.1483   -1.6232 H   0  0  0  0  0  0  0  0  0  0  0  0
   -3.5306    7.4865   -0.4930 H   0  0  0  0  0  0  0  0  0  0  0  0
   -4.3246    6.8788    0.9999 H   0  0  0  0  0  0  0  0  0  0  0  0
   -4.7916    6.2296   -0.5971 H   0  0  0  0  0  0  0  0  0  0  0  0
  1 18  1  0  0  0  0
  2  3  1  0  0  0  0
  2 28  1  0  0  0  0
  3 21  1  0  0  0  0
  4  5  1  0  0  0  0
  4  3  1  0  0  0  0
  5  6  1  0  0  0  0
  6 36  1  0  0  0  0
  7  6  1  0  0  0  0
  7  8  1  0  0  0  0
  8 37  1  0  0  0  0
  9  8  2  0  0  0  0
  9 38  1  0  0  0  0
 10  9  1  0  0  0  0
 11 12  1  0  0  0  0
 11 10  2  0  0  0  0
 12  7  2  0  0  0  0
 13 10  1  0  0  0  0
 13 43  1  0  0  0  0
 14 44  1  0  0  0  0
 14  4  2  0  0  0  0
 15 14  1  0  0  0  0
 15 16  1  0  0  0  0
 16 45  1  0  0  0  0
 17 16  2  0  0  0  0
 17 46  1  0  0  0  0
 18 17  1  0  0  0  0
 19 20  1  0  0  0  0
 19 18  2  0  0  0  0
 20 15  2  0  0  0  0
 21 22  1  0  0  0  0
 22 23  2  0  0  0  0
 22 49  1  0  0  0  0
 23 50  1  0  0  0  0
 24 27  1  0  0  0  0
 24 23  1  0  0  0  0
 25 24  2  0  0  0  0
 26 25  1  0  0  0  0
 26 21  2  0  0  0  0
 27 53  1  0  0  0  0
 28 56  1  0  0  0  0
 29 28  1  0  0  0  0
 29 30  1  0  0  0  0
 30 57  1  0  0  0  0
 31 30  2  0  0  0  0
 31 58  1  0  0  0  0
 32 31  1  0  0  0  0
 33 34  1  0  0  0  0
 33 32  2  0  0  0  0
 34 29  2  0  0  0  0
 35 32  1  0  0  0  0
 35 62  1  0  0  0  0
 39 11  1  0  0  0  0
 40 12  1  0  0  0  0
 41 13  1  0  0  0  0
 42 13  1  0  0  0  0
 47 19  1  0  0  0  0
 48 20  1  0  0  0  0
 51 25  1  0  0  0  0
 52 26  1  0  0  0  0
 54 27  1  0  0  0  0
 55 27  1  0  0  0  0
 59 33  1  0  0  0  0
 60 34  1  0  0  0  0
 61 35  1  0  0  0  0
 63 35  1  0  0  0  0
M  END
