3,6
q = -1.0

 56 56  0  0  1  0  0  0  0  0999 V2000
    2.0428   -1.7744   -0.2367 N   0  0  0  0  0  0  0  0  0  0  0  0
   -2.4991   -1.7292   -1.3582 O   0  0  0  0  0  0  0  0  0  0  0  0
   -2.0679   -0.9577   -0.5294 C   0  0  0  0  0  3  0  0  0  0  0  0
   -2.8117    0.1685    0.0851 C   0  0  0  0  0  0  0  0  0  0  0  0
   -2.0078    1.0802    0.7065 C   0  0  0  0  0  0  0  0  0  0  0  0
   -0.5274    0.8247    0.7327 C   0  0  1  0  0  3  0  0  0  0  0  0
    0.2685    0.9707   -0.4772 C   0  0  2  0  0  3  0  0  0  0  0  0
    1.7121    1.3944   -0.2954 C   0  0  0  0  0  0  0  0  0  0  0  0
    1.9143    2.7246    0.1394 C   0  0  0  0  0  0  0  0  0  0  0  0
    3.1922    3.2583    0.3425 C   0  0  0  0  0  0  0  0  0  0  0  0
    4.3184    2.4568    0.1084 C   0  0  0  0  0  0  0  0  0  0  0  0
    4.1385    1.1416   -0.3351 C   0  0  0  0  0  0  0  0  0  0  0  0
    2.8558    0.5951   -0.5536 C   0  0  0  0  0  0  0  0  0  0  0  0
    2.7686   -0.8141   -1.0908 C   0  0  0  0  0  0  0  0  0  0  0  0
   -4.2898    0.2702   -0.1880 C   0  0  0  0  0  0  0  0  0  0  0  0
   -4.6007    0.8985   -1.5559 C   0  0  0  0  0  0  0  0  0  0  0  0
   -2.5144    2.3631    1.3180 C   0  0  0  0  0  0  0  0  0  0  0  0
   -2.1547    3.6125    0.4974 C   0  0  0  0  0  0  0  0  0  0  0  0
    0.1148    0.9342    2.1120 C   0  0  0  0  0  0  0  0  0  0  0  0
   -0.5501    0.0695    3.1862 C   0  0  0  0  0  0  0  0  0  0  0  0
   -0.3307    1.4781   -1.7905 C   0  0  0  0  0  0  0  0  0  0  0  0
    0.2348    0.8155   -3.0480 C   0  0  0  0  0  0  0  0  0  0  0  0
    2.6574   -1.9220    1.0910 C   0  0  0  0  0  0  0  0  0  0  0  0
    1.9886   -3.0824   -0.9173 C   0  0  0  0  0  0  0  0  0  0  0  0
    1.0307    3.3539    0.3276 H   0  0  0  0  0  0  0  0  0  0  0  0
    3.3058    4.2976    0.6861 H   0  0  0  0  0  0  0  0  0  0  0  0
    5.3322    2.8528    0.2693 H   0  0  0  0  0  0  0  0  0  0  0  0
    5.0180    0.5066   -0.5266 H   0  0  0  0  0  0  0  0  0  0  0  0
    3.8058   -1.1879   -1.2725 H   0  0  0  0  0  0  0  0  0  0  0  0
    2.2530   -0.8134   -2.0721 H   0  0  0  0  0  0  0  0  0  0  0  0
   -4.7808    0.8525    0.6188 H   0  0  0  0  0  0  0  0  0  0  0  0
   -4.7187   -0.7524   -0.1514 H   0  0  0  0  0  0  0  0  0  0  0  0
   -5.6928    0.9252   -1.7446 H   0  0  0  0  0  0  0  0  0  0  0  0
   -4.1296    0.3113   -2.3689 H   0  0  0  0  0  0  0  0  0  0  0  0
   -4.2178    1.9379   -1.6176 H   0  0  0  0  0  0  0  0  0  0  0  0
   -3.6139    2.3057    1.4416 H   0  0  0  0  0  0  0  0  0  0  0  0
   -2.0927    2.4698    2.3401 H   0  0  0  0  0  0  0  0  0  0  0  0
   -2.5439    4.5280    0.9855 H   0  0  0  0  0  0  0  0  0  0  0  0
   -2.5822    3.5601   -0.5235 H   0  0  0  0  0  0  0  0  0  0  0  0
   -1.0575    3.7273    0.3915 H   0  0  0  0  0  0  0  0  0  0  0  0
    1.1890    0.6785    2.0266 H   0  0  0  0  0  0  0  0  0  0  0  0
    0.1043    2.0070    2.4182 H   0  0  0  0  0  0  0  0  0  0  0  0
   -0.0329    0.1883    4.1590 H   0  0  0  0  0  0  0  0  0  0  0  0
   -0.5241   -1.0008    2.8947 H   0  0  0  0  0  0  0  0  0  0  0  0
   -1.6150    0.3412    3.3356 H   0  0  0  0  0  0  0  0  0  0  0  0
   -0.1427    2.5753   -1.8464 H   0  0  0  0  0  0  0  0  0  0  0  0
   -1.4300    1.3539   -1.7729 H   0  0  0  0  0  0  0  0  0  0  0  0
   -0.2316    1.2382   -3.9600 H   0  0  0  0  0  0  0  0  0  0  0  0
    0.0349   -0.2760   -3.0383 H   0  0  0  0  0  0  0  0  0  0  0  0
    1.3299    0.9694   -3.1349 H   0  0  0  0  0  0  0  0  0  0  0  0
    2.0134   -2.5872    1.6976 H   0  0  0  0  0  0  0  0  0  0  0  0
    2.7257   -0.9346    1.5850 H   0  0  0  0  0  0  0  0  0  0  0  0
    3.6848   -2.3529    1.0156 H   0  0  0  0  0  0  0  0  0  0  0  0
    1.3863   -3.7797   -0.3059 H   0  0  0  0  0  0  0  0  0  0  0  0
    3.0160   -3.4891   -1.0756 H   0  0  0  0  0  0  0  0  0  0  0  0
    1.4939   -2.9672   -1.9016 H   0  0  0  0  0  0  0  0  0  0  0  0
  1 23  1  0  0  0  0
  2  3  2  0  0  0  0
  3  4  1  0  0  0  0
  4  5  2  0  0  0  0
  5 17  1  0  0  0  0
  6  5  1  1  0  0  0
  6 19  1  0  0  0  0
  7 21  1  6  0  0  0
  7  8  1  0  0  0  0
  7  6  1  0  0  0  0
  8  9  1  0  0  0  0
  9 25  1  0  0  0  0
  9 10  2  0  0  0  0
 10 26  1  0  0  0  0
 11 27  1  0  0  0  0
 11 10  1  0  0  0  0
 12 11  2  0  0  0  0
 13 12  1  0  0  0  0
 13  8  2  0  0  0  0
 14 13  1  0  0  0  0
 14  1  1  0  0  0  0
 15 32  1  0  0  0  0
 15  4  1  0  0  0  0
 15 31  1  0  0  0  0
 16 15  1  0  0  0  0
 17 36  1  0  0  0  0
 17 37  1  0  0  0  0
 18 38  1  0  0  0  0
 18 17  1  0  0  0  0
 19 42  1  0  0  0  0
 19 20  1  0  0  0  0
 20 45  1  0  0  0  0
 20 43  1  0  0  0  0
 21 47  1  0  0  0  0
 22 49  1  0  0  0  0
 22 21  1  0  0  0  0
 23 52  1  0  0  0  0
 23 51  1  0  0  0  0
 24 54  1  0  0  0  0
 24  1  1  0  0  0  0
 28 12  1  0  0  0  0
 29 14  1  0  0  0  0
 30 14  1  0  0  0  0
 33 16  1  0  0  0  0
 34 16  1  0  0  0  0
 35 16  1  0  0  0  0
 39 18  1  0  0  0  0
 40 18  1  0  0  0  0
 41 19  1  0  0  0  0
 44 20  1  0  0  0  0
 46 21  1  0  0  0  0
 48 22  1  0  0  0  0
 50 22  1  0  0  0  0
 53 23  1  0  0  0  0
 55 24  1  0  0  0  0
 56 24  1  0  0  0  0
M  END
