8,10
q = -1.0

 42 42  0  0  1  0  0  0  0  0999 V2000
   -1.6916    0.0375   -0.2394 P   0  0  0  0  0  0  0  0  0  0  0  0
   -1.6077    0.8403   -1.9250 C   0  0  0  0  0  0  0  0  0  0  0  0
   -2.5005    0.6141   -2.5470 H   0  0  0  0  0  0  0  0  0  0  0  0
   -1.6089    1.9343   -1.7410 H   0  0  0  0  0  0  0  0  0  0  0  0
   -0.2822    0.3946   -2.5765 C   0  0  0  0  0  0  0  0  0  0  0  0
    0.0232    1.1184   -3.3628 H   0  0  0  0  0  0  0  0  0  0  0  0
   -0.4287   -0.5749   -3.0939 H   0  0  0  0  0  0  0  0  0  0  0  0
    0.8154    0.2377   -1.5417 C   0  0  2  0  0  3  0  0  0  0  0  0
    1.4068   -1.0263   -1.1284 C   0  0  2  0  0  3  0  0  0  0  0  0
    2.2450   -0.7344   -0.0013 C   0  0  2  0  0  3  0  0  0  0  0  0
    2.2194    0.7098    0.2377 C   0  0  0  0  0  0  0  0  0  0  0  0
    1.3654    1.3190   -0.7376 C   0  0  0  0  0  0  0  0  0  0  0  0
    1.2206   -2.3625   -1.7801 C   0  0  0  0  0  0  0  0  0  0  0  0
    1.9676   -2.5370   -2.5871 H   0  0  0  0  0  0  0  0  0  0  0  0
    0.2168   -2.4647   -2.2384 H   0  0  0  0  0  0  0  0  0  0  0  0
    1.3281   -3.1870   -1.0485 H   0  0  0  0  0  0  0  0  0  0  0  0
    3.0814   -1.7183    0.7587 C   0  0  0  0  0  0  0  0  0  0  0  0
    4.1120   -1.7770    0.3440 H   0  0  0  0  0  0  0  0  0  0  0  0
    2.6481   -2.7366    0.7201 H   0  0  0  0  0  0  0  0  0  0  0  0
    3.1708   -1.4370    1.8259 H   0  0  0  0  0  0  0  0  0  0  0  0
    3.0293    1.4292    1.2725 C   0  0  0  0  0  0  0  0  0  0  0  0
    4.0468    1.6713    0.8934 H   0  0  0  0  0  0  0  0  0  0  0  0
    3.1555    0.8188    2.1877 H   0  0  0  0  0  0  0  0  0  0  0  0
    2.5503    2.3817    1.5726 H   0  0  0  0  0  0  0  0  0  0  0  0
    1.1702    2.7898   -0.9522 C   0  0  0  0  0  0  0  0  0  0  0  0
    1.9774    3.2187   -1.5879 H   0  0  0  0  0  0  0  0  0  0  0  0
    1.1763    3.3478    0.0051 H   0  0  0  0  0  0  0  0  0  0  0  0
    0.2107    3.0146   -1.4570 H   0  0  0  0  0  0  0  0  0  0  0  0
   -2.9174    1.0508    0.7204 C   0  0  0  0  0  0  0  0  0  0  0  0
   -3.8490    1.1412    0.1200 H   0  0  0  0  0  0  0  0  0  0  0  0
   -3.1670    0.4461    1.6183 H   0  0  0  0  0  0  0  0  0  0  0  0
   -2.3655    2.4142    1.1347 C   0  0  0  0  0  0  0  0  0  0  0  0
   -3.0829    2.9562    1.7833 H   0  0  0  0  0  0  0  0  0  0  0  0
   -2.1583    3.0591    0.2561 H   0  0  0  0  0  0  0  0  0  0  0  0
   -1.4112    2.2926    1.6856 H   0  0  0  0  0  0  0  0  0  0  0  0
   -2.6395   -1.5356   -0.5577 C   0  0  0  0  0  0  0  0  0  0  0  0
   -3.6819   -1.2684   -0.8401 H   0  0  0  0  0  0  0  0  0  0  0  0
   -2.1676   -1.9919   -1.4539 H   0  0  0  0  0  0  0  0  0  0  0  0
   -2.5947   -2.5081    0.6201 C   0  0  0  0  0  0  0  0  0  0  0  0
   -3.1366   -3.4471    0.3875 H   0  0  0  0  0  0  0  0  0  0  0  0
   -3.0514   -2.0752    1.5335 H   0  0  0  0  0  0  0  0  0  0  0  0
   -1.5437   -2.7583    0.8688 H   0  0  0  0  0  0  0  0  0  0  0  0
  1 29  1  0  0  0  0
  2  4  1  0  0  0  0
  2  1  1  0  0  0  0
  3  2  1  0  0  0  0
  5  2  1  0  0  0  0
  6  5  1  0  0  0  0
  7  5  1  0  0  0  0
  8  5  1  1  0  0  0
  8  9  1  0  0  0  0
  8 12  1  0  0  0  0
  9 13  1  6  0  0  0
  9 10  1  0  0  0  0
 10 11  1  0  0  0  0
 10 17  1  6  0  0  0
 11 21  1  0  0  0  0
 12 11  2  0  0  0  0
 13 16  1  0  0  0  0
 14 13  1  0  0  0  0
 15 13  1  0  0  0  0
 17 20  1  0  0  0  0
 18 17  1  0  0  0  0
 19 17  1  0  0  0  0
 21 24  1  0  0  0  0
 21 23  1  0  0  0  0
 22 21  1  0  0  0  0
 25 12  1  0  0  0  0
 25 27  1  0  0  0  0
 26 25  1  0  0  0  0
 28 25  1  0  0  0  0
 29 32  1  0  0  0  0
 29 31  1  0  0  0  0
 30 29  1  0  0  0  0
 32 35  1  0  0  0  0
 32 33  1  0  0  0  0
 34 32  1  0  0  0  0
 36  1  1  0  0  0  0
 36 39  1  0  0  0  0
 37 36  1  0  0  0  0
 38 36  1  0  0  0  0
 39 42  1  0  0  0  0
 39 41  1  0  0  0  0
 40 39  1  0  0  0  0
M  END
