5,18
q = -1.0

 37 37  0  0  1  0  0  0  0  0999 V2000
    4.7157    0.0248    0.7380 O   0  0  0  0  0  0  0  0  0  0  0  0
   -1.4918   -3.0645    0.5458 O   0  0  0  0  0  0  0  0  0  0  0  0
   -0.3098   -3.9806   -1.1566 O   0  0  0  0  0  0  0  0  0  0  0  0
    4.6644   -1.0713   -1.2512 O   0  0  0  0  0  0  0  0  0  0  0  0
    2.1137   -0.9219    1.5108 C   0  0  2  0  0  3  0  0  0  0  0  0
    2.6445   -0.1013    2.6403 C   0  0  0  0  0  0  0  0  0  0  0  0
    2.9347    0.9014    2.2734 H   0  0  0  0  0  0  0  0  0  0  0  0
    3.5517   -0.5763    3.0634 H   0  0  0  0  0  0  0  0  0  0  0  0
    1.8888    0.0114    3.4387 H   0  0  0  0  0  0  0  0  0  0  0  0
    0.8388   -1.5896    1.4993 C   0  0  2  0  0  3  0  0  0  0  0  0
    2.8161   -1.2744    0.2715 C   0  0  0  0  0  0  0  0  0  0  0  0
    4.1443   -0.7860   -0.1841 C   0  0  0  0  0  0  0  0  0  0  0  0
   -0.3756   -3.2053   -0.2155 C   0  0  0  0  0  0  0  0  0  0  0  0
   -0.0674   -1.6996    2.6815 C   0  0  0  0  0  0  0  0  0  0  0  0
    0.0307   -0.8294    3.3538 H   0  0  0  0  0  0  0  0  0  0  0  0
    0.2126   -2.6091    3.2560 H   0  0  0  0  0  0  0  0  0  0  0  0
   -1.1214   -1.8055    2.3872 H   0  0  0  0  0  0  0  0  0  0  0  0
    0.7277   -2.3112    0.2292 C   0  0  2  0  0  3  0  0  0  0  0  0
    1.9838   -2.1680   -0.4953 C   0  0  0  0  0  0  0  0  0  0  0  0
   -2.6144   -3.9057    0.1999 C   0  0  0  0  0  0  0  0  0  0  0  0
   -2.4245   -4.9201    0.6133 H   0  0  0  0  0  0  0  0  0  0  0  0
   -2.6595   -4.0035   -0.9027 H   0  0  0  0  0  0  0  0  0  0  0  0
    2.3297   -2.7975   -1.7986 C   0  0  0  0  0  0  0  0  0  0  0  0
    1.8350   -3.7793   -1.8925 H   0  0  0  0  0  0  0  0  0  0  0  0
    3.4246   -2.8518   -1.9176 H   0  0  0  0  0  0  0  0  0  0  0  0
    1.9481   -2.1490   -2.6195 H   0  0  0  0  0  0  0  0  0  0  0  0
    5.9292    0.6973    0.3298 C   0  0  0  0  0  0  0  0  0  0  0  0
    6.4299    0.9599    1.2822 H   0  0  0  0  0  0  0  0  0  0  0  0
    6.5625   -0.0201   -0.2306 H   0  0  0  0  0  0  0  0  0  0  0  0
   -3.8719   -3.2841    0.7707 C   0  0  0  0  0  0  0  0  0  0  0  0
   -4.0773   -2.3056    0.2938 H   0  0  0  0  0  0  0  0  0  0  0  0
   -3.7909   -3.1394    1.8667 H   0  0  0  0  0  0  0  0  0  0  0  0
   -4.7379   -3.9469    0.5746 H   0  0  0  0  0  0  0  0  0  0  0  0
    5.6202    1.9293   -0.5055 C   0  0  0  0  0  0  0  0  0  0  0  0
    6.5579    2.4774   -0.7290 H   0  0  0  0  0  0  0  0  0  0  0  0
    4.9255    2.6048    0.0300 H   0  0  0  0  0  0  0  0  0  0  0  0
    5.1466    1.6421   -1.4637 H   0  0  0  0  0  0  0  0  0  0  0  0
  3 13  2  0  0  0  0
  4 12  2  0  0  0  0
  5  6  1  1  0  0  0
  6  8  1  0  0  0  0
  6  9  1  0  0  0  0
  7  6  1  0  0  0  0
 10  5  1  0  0  0  0
 10 14  1  1  0  0  0
 11  5  1  0  0  0  0
 12 11  1  0  0  0  0
 12  1  1  0  0  0  0
 13  2  1  0  0  0  0
 14 16  1  0  0  0  0
 14 15  1  0  0  0  0
 17 14  1  0  0  0  0
 18 13  1  1  0  0  0
 18 10  1  0  0  0  0
 19 18  1  0  0  0  0
 19 11  2  0  0  0  0
 20  2  1  0  0  0  0
 20 21  1  0  0  0  0
 20 30  1  0  0  0  0
 22 20  1  0  0  0  0
 23 19  1  0  0  0  0
 24 23  1  0  0  0  0
 25 23  1  0  0  0  0
 26 23  1  0  0  0  0
 27  1  1  0  0  0  0
 27 28  1  0  0  0  0
 29 27  1  0  0  0  0
 30 32  1  0  0  0  0
 31 30  1  0  0  0  0
 33 30  1  0  0  0  0
 34 36  1  0  0  0  0
 34 27  1  0  0  0  0
 35 34  1  0  0  0  0
 37 34  1  0  0  0  0
M  END
