5,15
q = -2.0, confidence = 0.934

 48 49  0  0  0  0  0  0  0  0999 V2000
    1.3706    2.1116    0.1326 C   0  0  0  0  0  0  0  0  0  0  0  0
    2.0896    1.1617   -0.6514 C   0  0  0  0  0  0  0  0  0  0  0  0
    2.5215    0.0824    0.1924 C   0  0  0  0  0  0  0  0  0  0  0  0
    1.9652    0.3268    1.4734 C   0  0  0  0  0  0  0  0  0  0  0  0
    1.2449    1.5589    1.4428 C   0  0  0  0  0  3  0  0  0  0  0  0
    0.7799    3.4197   -0.3159 C   0  0  0  0  0  0  0  0  0  0  0  0
    3.5685   -0.9781   -0.1245 C   0  0  0  0  0  0  0  0  0  0  0  0
    3.7692   -1.1443   -1.6414 C   0  0  0  0  0  0  0  0  0  0  0  0
    3.2214   -2.3316    0.5256 C   0  0  0  0  0  0  0  0  0  0  0  0
    4.8912   -0.4523    0.4914 C   0  0  0  0  0  0  0  0  0  0  0  0
   -1.3025    2.1129   -0.3306 C   0  0  0  0  0  0  0  0  0  0  0  0
   -2.1468    1.2637    0.4360 C   0  0  0  0  0  0  0  0  0  0  0  0
   -2.5018    0.1133   -0.3451 C   0  0  0  0  0  0  0  0  0  0  0  0
   -1.8190    0.2430   -1.5851 C   0  0  0  0  0  0  0  0  0  0  0  0
   -1.0657    1.4484   -1.5801 C   0  0  0  0  0  3  0  0  0  0  0  0
   -0.7078    3.4350    0.0668 C   0  0  0  0  0  0  0  0  0  0  0  0
   -3.5482   -0.9484   -0.0250 C   0  0  0  0  0  0  0  0  0  0  0  0
   -4.0607   -0.8046    1.4187 C   0  0  0  0  0  0  0  0  0  0  0  0
   -2.9989   -2.3720   -0.2482 C   0  0  0  0  0  0  0  0  0  0  0  0
   -4.7292   -0.7053   -0.9980 C   0  0  0  0  0  0  0  0  0  0  0  0
    2.3131    1.2661   -1.7198 H   0  0  0  0  0  0  0  0  0  0  0  0
    2.0526   -0.3294    2.3445 H   0  0  0  0  0  0  0  0  0  0  0  0
    0.7095    2.0038    2.2903 H   0  0  0  0  0  0  0  0  0  0  0  0
    1.3257    4.2719    0.1422 H   0  0  0  0  0  0  0  0  0  0  0  0
    0.9009    3.5249   -1.4128 H   0  0  0  0  0  0  0  0  0  0  0  0
    4.5370   -1.9200   -1.8365 H   0  0  0  0  0  0  0  0  0  0  0  0
    4.1271   -0.2026   -2.1062 H   0  0  0  0  0  0  0  0  0  0  0  0
    2.8289   -1.4493   -2.1372 H   0  0  0  0  0  0  0  0  0  0  0  0
    3.1291   -2.2415    1.6265 H   0  0  0  0  0  0  0  0  0  0  0  0
    4.0264   -3.0659    0.3190 H   0  0  0  0  0  0  0  0  0  0  0  0
    2.2672   -2.7268    0.1306 H   0  0  0  0  0  0  0  0  0  0  0  0
    4.8071   -0.3402    1.5911 H   0  0  0  0  0  0  0  0  0  0  0  0
    5.7168   -1.1630    0.2786 H   0  0  0  0  0  0  0  0  0  0  0  0
    5.1675    0.5345    0.0674 H   0  0  0  0  0  0  0  0  0  0  0  0
   -2.4679    1.4600    1.4651 H   0  0  0  0  0  0  0  0  0  0  0  0
   -1.8399   -0.4829   -2.4039 H   0  0  0  0  0  0  0  0  0  0  0  0
   -0.4454    1.8159   -2.4062 H   0  0  0  0  0  0  0  0  0  0  0  0
   -1.2450    4.2743   -0.4256 H   0  0  0  0  0  0  0  0  0  0  0  0
   -0.8281    3.5835    1.1591 H   0  0  0  0  0  0  0  0  0  0  0  0
   -4.8252   -1.5804    1.6257 H   0  0  0  0  0  0  0  0  0  0  0  0
   -4.5366    0.1842    1.5828 H   0  0  0  0  0  0  0  0  0  0  0  0
   -3.2351   -0.9258    2.1454 H   0  0  0  0  0  0  0  0  0  0  0  0
   -2.6153   -2.5066   -1.2788 H   0  0  0  0  0  0  0  0  0  0  0  0
   -2.1677   -2.5868    0.4492 H   0  0  0  0  0  0  0  0  0  0  0  0
   -3.8063   -3.1150   -0.0844 H   0  0  0  0  0  0  0  0  0  0  0  0
   -4.4188   -0.8375   -2.0540 H   0  0  0  0  0  0  0  0  0  0  0  0
   -5.1371    0.3201   -0.8869 H   0  0  0  0  0  0  0  0  0  0  0  0
   -5.5466   -1.4264   -0.7897 H   0  0  0  0  0  0  0  0  0  0  0  0
  1  5  1  0  0  0  0
  2  1  2  0  0  0  0
  2  3  1  0  0  0  0
  3  4  2  0  0  0  0
  4 22  1  0  0  0  0
  5  4  1  0  0  0  0
  5 23  1  0  0  0  0
  6 16  1  0  0  0  0
  6  1  1  0  0  0  0
  6 24  1  0  0  0  0
  7  3  1  0  0  0  0
  7 10  1  0  0  0  0
  7  9  1  0  0  0  0
  8  7  1  0  0  0  0
  9 29  1  0  0  0  0
 10 32  1  0  0  0  0
 11 16  1  0  0  0  0
 11 12  2  0  0  0  0
 12 35  1  0  0  0  0
 13 17  1  0  0  0  0
 13 12  1  0  0  0  0
 14 15  1  0  0  0  0
 14 13  2  0  0  0  0
 15 11  1  0  0  0  0
 16 39  1  0  0  0  0
 17 18  1  0  0  0  0
 18 41  1  0  0  0  0
 18 40  1  0  0  0  0
 18 42  1  0  0  0  0
 19 45  1  0  0  0  0
 19 17  1  0  0  0  0
 19 44  1  0  0  0  0
 20 47  1  0  0  0  0
 20 48  1  0  0  0  0
 20 17  1  0  0  0  0
 21  2  1  0  0  0  0
 25  6  1  0  0  0  0
 26  8  1  0  0  0  0
 27  8  1  0  0  0  0
 28  8  1  0  0  0  0
 30  9  1  0  0  0  0
 31  9  1  0  0  0  0
 33 10  1  0  0  0  0
 34 10  1  0  0  0  0
 36 14  1  0  0  0  0
 37 15  1  0  0  0  0
 38 16  1  0  0  0  0
 43 19  1  0  0  0  0
 46 20  1  0  0  0  0
M  END
