5,9
q = 0.0, confidence = 0.988

 23 23  0  0  1  0  0  0  0  0999 V2000
   -1.7872    2.7150   -0.3861 O   0  0  0  0  0  0  0  0  0  0  0  0
   -0.5958    2.1938   -0.1324 C   0  0  0  0  0  0  0  0  0  0  0  0
    0.1526    1.7371   -1.2740 C   0  0  0  0  0  3  0  0  0  0  0  0
   -0.3146    1.8079   -2.2654 H   0  0  0  0  0  0  0  0  0  0  0  0
    1.4713    1.2213   -1.1094 C   0  0  0  0  0  3  0  0  0  0  0  0
    2.0071    0.8755   -2.0072 H   0  0  0  0  0  0  0  0  0  0  0  0
    3.4712    0.6015    0.3720 C   0  0  0  0  0  0  0  0  0  0  0  0
    3.7303    0.3165    1.4075 H   0  0  0  0  0  0  0  0  0  0  0  0
    1.2589    1.3896    1.3034 C   0  0  0  0  0  3  0  0  0  0  0  0
    1.6473    1.2015    2.3183 H   0  0  0  0  0  0  0  0  0  0  0  0
   -0.0721    1.9189    1.1717 C   0  0  0  0  0  0  0  0  0  0  0  0
   -0.6629    2.1293    2.0717 H   0  0  0  0  0  0  0  0  0  0  0  0
   -2.6989    2.9721    0.6917 C   0  0  0  0  0  0  0  0  0  0  0  0
   -3.6030    3.3975    0.2233 H   0  0  0  0  0  0  0  0  0  0  0  0
   -2.2718    3.7047    1.4069 H   0  0  0  0  0  0  0  0  0  0  0  0
   -2.9601    2.0231    1.2038 H   0  0  0  0  0  0  0  0  0  0  0  0
    2.1098    1.1076    0.1800 C   0  0  2  0  0  3  0  0  0  0  0  0
    4.4257    0.5031   -0.5860 C   0  0  0  0  0  0  0  0  0  0  0  0
    4.1888    0.8386   -1.6126 H   0  0  0  0  0  0  0  0  0  0  0  0
    5.8166    0.0103   -0.3630 C   0  0  0  0  0  0  0  0  0  0  0  0
    6.5569    0.8002   -0.6142 H   0  0  0  0  0  0  0  0  0  0  0  0
    6.0518   -0.8434   -1.0346 H   0  0  0  0  0  0  0  0  0  0  0  0
    5.9889   -0.3072    0.6836 H   0  0  0  0  0  0  0  0  0  0  0  0
  1  2  1  0  0  0  0
  1 13  1  0  0  0  0
  2 11  2  0  0  0  0
  3  5  1  0  0  0  0
  3  2  1  0  0  0  0
  4  3  1  0  0  0  0
  5 17  1  0  0  0  0
  6  5  1  0  0  0  0
  7  8  1  0  0  0  0
  9 10  1  0  0  0  0
 11  9  1  0  0  0  0
 11 12  1  0  0  0  0
 13 16  1  0  0  0  0
 13 15  1  0  0  0  0
 14 13  1  0  0  0  0
 17  7  1  1  0  0  0
 17  9  1  0  0  0  0
 18 20  1  0  0  0  0
 18  7  2  0  0  0  0
 19 18  1  0  0  0  0
 20 23  1  0  0  0  0
 21 20  1  0  0  0  0
 22 20  1  0  0  0  0
M  END
