2,5
q = -1.0

 21 22  0  0  0  0  0  0  0  0999 V2000
    4.9209    1.5413    1.9443 F   0  0  0  0  0  0  0  0  0  0  0  0
    0.6538   -1.9711   -0.9530 C   0  0  0  0  0  2  0  0  0  0  0  0
    1.9914   -2.2784   -0.7972 N   0  0  0  0  0  0  0  0  0  0  0  0
    4.8284   -2.5904   -0.3478 F   0  0  0  0  0  0  0  0  0  0  0  0
    2.0993   -0.1863    0.3660 C   0  0  0  0  0  3  0  0  0  0  0  0
    0.1426   -3.0425   -1.6329 N   0  0  0  0  0  0  0  0  0  0  0  0
    1.1289   -3.9926   -1.8878 C   0  0  0  0  0  0  0  0  0  0  0  0
    0.9185   -4.9249   -2.4203 H   0  0  0  0  0  0  0  0  0  0  0  0
   -1.2577   -3.2022   -1.9923 C   0  0  0  0  0  0  0  0  0  0  0  0
   -1.7824   -3.8444   -1.2562 H   0  0  0  0  0  0  0  0  0  0  0  0
   -1.3362   -3.6616   -2.9961 H   0  0  0  0  0  0  0  0  0  0  0  0
   -1.7399   -2.2090   -1.9961 H   0  0  0  0  0  0  0  0  0  0  0  0
    2.7983   -1.3311   -0.1065 C   0  0  0  0  0  0  0  0  0  0  0  0
    4.2230    0.6025    1.2723 C   0  0  0  0  0  0  0  0  0  0  0  0
    4.9108   -0.5258    0.8069 C   0  0  0  0  0  0  0  0  0  0  0  0
    5.9873   -0.6554    0.9756 H   0  0  0  0  0  0  0  0  0  0  0  0
    2.8487    0.7823    1.0623 C   0  0  0  0  0  0  0  0  0  0  0  0
    2.3719    1.6926    1.4554 H   0  0  0  0  0  0  0  0  0  0  0  0
    4.1750   -1.4907    0.1123 C   0  0  0  0  0  0  0  0  0  0  0  0
    2.3006   -3.5097   -1.3627 C   0  0  0  0  0  0  0  0  0  0  0  0
    3.3093   -3.9254   -1.3479 H   0  0  0  0  0  0  0  0  0  0  0  0
  2  3  1  0  0  0  0
  3 13  1  0  0  0  0
  4 19  1  0  0  0  0
  5 17  1  0  0  0  0
  6  2  1  0  0  0  0
  7  6  1  0  0  0  0
  7 20  2  0  0  0  0
  8  7  1  0  0  0  0
  9  6  1  0  0  0  0
  9 10  1  0  0  0  0
 11  9  1  0  0  0  0
 12  9  1  0  0  0  0
 13 19  1  0  0  0  0
 13  5  2  0  0  0  0
 14  1  1  0  0  0  0
 15 16  1  0  0  0  0
 15 14  1  0  0  0  0
 17 14  2  0  0  0  0
 17 18  1  0  0  0  0
 19 15  2  0  0  0  0
 20 21  1  0  0  0  0
 20  3  1  0  0  0  0
M  END
