1,2
q = -1.0

 21 22  0  0  0  0  0  0  0  0999 V2000
    0.1849   -2.1638   -0.9247 C   0  0  0  0  0  2  0  0  0  0  0  0
    1.9843   -1.0854    0.6847 C   0  0  0  0  0  3  0  0  0  0  0  0
    1.2687   -2.9562   -0.6099 N   0  0  0  0  0  0  0  0  0  0  0  0
    2.2707   -2.4047    0.2452 C   0  0  0  0  0  0  0  0  0  0  0  0
   -0.5826   -2.9549   -1.7378 N   0  0  0  0  0  0  0  0  0  0  0  0
    2.9502   -0.5076    1.5363 C   0  0  0  0  0  0  0  0  0  0  0  0
    2.7874    0.5155    1.9120 H   0  0  0  0  0  0  0  0  0  0  0  0
    4.3491   -2.5066    1.4631 C   0  0  0  0  0  0  0  0  0  0  0  0
    5.2578   -3.0495    1.7637 H   0  0  0  0  0  0  0  0  0  0  0  0
    3.4189   -3.1225    0.6104 C   0  0  0  0  0  0  0  0  0  0  0  0
    3.5996   -4.1444    0.2426 H   0  0  0  0  0  0  0  0  0  0  0  0
    1.1775   -4.2039   -1.2061 C   0  0  0  0  0  0  0  0  0  0  0  0
    1.9371   -4.9808   -1.0874 H   0  0  0  0  0  0  0  0  0  0  0  0
    0.0043   -4.2057   -1.9181 C   0  0  0  0  0  0  0  0  0  0  0  0
   -0.4561   -4.9842   -2.5338 H   0  0  0  0  0  0  0  0  0  0  0  0
   -1.8680   -2.5672   -2.2965 C   0  0  0  0  0  0  0  0  0  0  0  0
   -2.7007   -3.0055   -1.7101 H   0  0  0  0  0  0  0  0  0  0  0  0
   -1.9419   -2.9122   -3.3458 H   0  0  0  0  0  0  0  0  0  0  0  0
   -1.9525   -1.4669   -2.2575 H   0  0  0  0  0  0  0  0  0  0  0  0
    4.1123   -1.2013    1.9239 C   0  0  0  0  0  0  0  0  0  0  0  0
    4.8430   -0.7173    2.5912 H   0  0  0  0  0  0  0  0  0  0  0  0
  1  3  1  0  0  0  0
  2  6  1  0  0  0  0
  3  4  1  0  0  0  0
  4 10  1  0  0  0  0
  4  2  2  0  0  0  0
  5  1  1  0  0  0  0
  6  7  1  0  0  0  0
  6 20  2  0  0  0  0
  8  9  1  0  0  0  0
  8 20  1  0  0  0  0
 10  8  2  0  0  0  0
 11 10  1  0  0  0  0
 12 13  1  0  0  0  0
 12  3  1  0  0  0  0
 14  5  1  0  0  0  0
 14 12  2  0  0  0  0
 15 14  1  0  0  0  0
 16 19  1  0  0  0  0
 16  5  1  0  0  0  0
 16 17  1  0  0  0  0
 18 16  1  0  0  0  0
 20 21  1  0  0  0  0
M  END
