4,8
q = -2.0, confidence = 0.896

 36 37  0  0  0  0  0  0  0  0999 V2000
   -1.5481   -1.3867    0.5105 C   0  0  0  0  0  0  0  0  0  0  0  0
   -0.9440   -2.1929   -0.5455 C   0  0  0  0  0  0  0  0  0  0  0  0
   -1.3603   -2.3906   -1.5373 H   0  0  0  0  0  0  0  0  0  0  0  0
    0.2613   -2.7766   -0.0317 C   0  0  0  0  0  3  0  0  0  0  0  0
    0.9241   -3.4541   -0.5841 H   0  0  0  0  0  0  0  0  0  0  0  0
    0.4210   -2.3830    1.3391 C   0  0  0  0  0  3  0  0  0  0  0  0
    1.2069   -2.7153    2.0267 H   0  0  0  0  0  0  0  0  0  0  0  0
   -0.6960   -1.5278    1.6618 C   0  0  0  0  0  3  0  0  0  0  0  0
   -0.8762   -1.0734    2.6417 H   0  0  0  0  0  0  0  0  0  0  0  0
   -0.4872    0.9679   -1.2918 C   0  0  0  0  0  3  0  0  0  0  0  0
   -0.4690    0.3616   -2.2163 H   0  0  0  0  0  0  0  0  0  0  0  0
   -1.8261    1.3137   -0.7549 C   0  0  0  0  0  0  0  0  0  0  0  0
   -1.8250    2.6664   -0.4479 C   0  0  0  0  0  0  0  0  0  0  0  0
   -2.6584    3.2328   -0.0102 H   0  0  0  0  0  0  0  0  0  0  0  0
   -0.5493    3.2473   -0.8200 C   0  0  0  0  0  0  0  0  0  0  0  0
   -0.2709    4.3039   -0.6932 H   0  0  0  0  0  0  0  0  0  0  0  0
    0.2381    2.2491   -1.3527 C   0  0  0  0  0  0  0  0  0  0  0  0
    1.2395    2.3843   -1.7827 H   0  0  0  0  0  0  0  0  0  0  0  0
   -2.9027   -0.6807    0.4853 C   0  0  0  0  0  0  0  0  0  0  0  0
   -3.0290    0.3733   -0.7168 C   0  0  0  0  0  0  0  0  0  0  0  0
   -3.9684   -1.7990    0.3901 C   0  0  0  0  0  0  0  0  0  0  0  0
   -3.9042   -2.4542    1.2825 H   0  0  0  0  0  0  0  0  0  0  0  0
   -3.8216   -2.4416   -0.4988 H   0  0  0  0  0  0  0  0  0  0  0  0
   -4.9954   -1.3834    0.3519 H   0  0  0  0  0  0  0  0  0  0  0  0
   -3.1025    0.0561    1.8239 C   0  0  0  0  0  0  0  0  0  0  0  0
   -2.9745   -0.6362    2.6785 H   0  0  0  0  0  0  0  0  0  0  0  0
   -4.1241    0.4704    1.9029 H   0  0  0  0  0  0  0  0  0  0  0  0
   -2.3796    0.8899    1.9255 H   0  0  0  0  0  0  0  0  0  0  0  0
   -3.1448   -0.3151   -2.0993 C   0  0  0  0  0  0  0  0  0  0  0  0
   -2.2556   -0.9144   -2.3591 H   0  0  0  0  0  0  0  0  0  0  0  0
   -3.2441    0.4646   -2.8805 H   0  0  0  0  0  0  0  0  0  0  0  0
   -4.0379   -0.9685   -2.1615 H   0  0  0  0  0  0  0  0  0  0  0  0
   -4.3272    1.1982   -0.5612 C   0  0  0  0  0  0  0  0  0  0  0  0
   -4.4460    1.8672   -1.4355 H   0  0  0  0  0  0  0  0  0  0  0  0
   -4.3306    1.8368    0.3405 H   0  0  0  0  0  0  0  0  0  0  0  0
   -5.2197    0.5424   -0.5168 H   0  0  0  0  0  0  0  0  0  0  0  0
  1  8  1  0  0  0  0
  2  4  1  0  0  0  0
  2  1  2  0  0  0  0
  3  2  1  0  0  0  0
  4  6  1  0  0  0  0
  5  4  1  0  0  0  0
  6  8  1  0  0  0  0
  6  7  1  0  0  0  0
  8  9  1  0  0  0  0
 10 12  1  0  0  0  0
 11 10  1  0  0  0  0
 12 20  1  0  0  0  0
 12 13  2  0  0  0  0
 13 14  1  0  0  0  0
 15 16  1  0  0  0  0
 15 13  1  0  0  0  0
 17 10  1  0  0  0  0
 17 15  2  0  0  0  0
 18 17  1  0  0  0  0
 19  1  1  0  0  0  0
 19 25  1  0  0  0  0
 20 33  1  0  0  0  0
 20 19  1  0  0  0  0
 21 19  1  0  0  0  0
 21 22  1  0  0  0  0
 23 21  1  0  0  0  0
 24 21  1  0  0  0  0
 25 27  1  0  0  0  0
 25 28  1  0  0  0  0
 25 26  1  0  0  0  0
 29 20  1  0  0  0  0
 30 29  1  0  0  0  0
 31 29  1  0  0  0  0
 32 29  1  0  0  0  0
 33 36  1  0  0  0  0
 33 35  1  0  0  0  0
 34 33  1  0  0  0  0
M  END
