6,10
q = 0.0, confidence = 0.996

 57 58  0  0  1  0  0  0  0  0999 V2000
   -3.3021   -0.6905   -0.6006 Si  0  0  0  0  0  0  0  0  0  0  0  0
    3.4239    0.2895   -0.5328 Si  0  0  0  0  0  0  0  0  0  0  0  0
   -0.9907   -2.6603   -0.9395 O   0  0  0  0  0  0  0  0  0  0  0  0
    1.7443   -2.2568   -0.9963 O   0  0  0  0  0  0  0  0  0  0  0  0
   -0.8487    1.0285   -0.6074 C   0  0  2  0  0  3  0  0  0  0  0  0
   -1.3988   -0.3036   -0.6067 C   0  0  2  0  0  3  0  0  0  0  0  0
   -0.4886   -1.3986   -0.7651 C   0  0  0  0  0  0  0  0  0  0  0  0
    0.9226   -1.1717   -0.8173 C   0  0  0  0  0  0  0  0  0  0  0  0
    1.5001    0.1256   -0.6426 C   0  0  2  0  0  3  0  0  0  0  0  0
    0.5745    1.2333   -0.5636 C   0  0  1  0  0  3  0  0  0  0  0  0
    1.1301    2.6442   -0.5223 C   0  0  0  0  0  0  0  0  0  0  0  0
    0.1273    3.7295   -0.1421 C   0  0  0  0  0  0  0  0  0  0  0  0
   -1.1635    3.5695   -0.9430 C   0  0  1  0  0  0  0  0  0  0  0  0
   -1.7930    2.2190   -0.5872 C   0  0  0  0  0  0  0  0  0  0  0  0
   -2.1538    4.7118   -0.7135 C   0  0  0  0  0  0  0  0  0  0  0  0
   -0.6413   -3.6538    0.0330 C   0  0  0  0  0  0  0  0  0  0  0  0
    1.7422   -2.7662   -2.3316 C   0  0  0  0  0  0  0  0  0  0  0  0
   -3.7342   -2.3826    0.1230 C   0  0  0  0  0  0  0  0  0  0  0  0
   -3.8161   -0.6309   -2.4233 C   0  0  0  0  0  0  0  0  0  0  0  0
   -4.3229    0.5420    0.4187 C   0  0  0  0  0  0  0  0  0  0  0  0
    4.2768   -1.3228   -0.0352 C   0  0  0  0  0  0  0  0  0  0  0  0
    3.9980    1.5700    0.7494 C   0  0  0  0  0  0  0  0  0  0  0  0
    4.0255    0.8162   -2.2536 C   0  0  0  0  0  0  0  0  0  0  0  0
    1.9942    2.6729    0.1615 H   0  0  0  0  0  0  0  0  0  0  0  0
    1.5372    2.8572   -1.5367 H   0  0  0  0  0  0  0  0  0  0  0  0
   -0.1019    3.6700    0.9445 H   0  0  0  0  0  0  0  0  0  0  0  0
    0.5794    4.7282   -0.3148 H   0  0  0  0  0  0  0  0  0  0  0  0
   -0.8907    3.5517   -2.0243 H   0  0  0  0  0  0  0  0  0  0  0  0
   -2.6305    2.0133   -1.2844 H   0  0  0  0  0  0  0  0  0  0  0  0
   -2.2491    2.2984    0.4214 H   0  0  0  0  0  0  0  0  0  0  0  0
   -3.0893    4.5634   -1.2912 H   0  0  0  0  0  0  0  0  0  0  0  0
   -1.7210    5.6876   -1.0133 H   0  0  0  0  0  0  0  0  0  0  0  0
   -2.4309    4.7818    0.3596 H   0  0  0  0  0  0  0  0  0  0  0  0
   -4.8386   -2.4327    0.2246 H   0  0  0  0  0  0  0  0  0  0  0  0
   -3.3041   -2.5143    1.1352 H   0  0  0  0  0  0  0  0  0  0  0  0
   -3.4033   -3.2154   -0.5231 H   0  0  0  0  0  0  0  0  0  0  0  0
   -4.9003   -0.8427   -2.5284 H   0  0  0  0  0  0  0  0  0  0  0  0
   -3.2585   -1.3933   -3.0044 H   0  0  0  0  0  0  0  0  0  0  0  0
   -3.6167    0.3599   -2.8800 H   0  0  0  0  0  0  0  0  0  0  0  0
   -5.3326    0.0981    0.5448 H   0  0  0  0  0  0  0  0  0  0  0  0
   -4.4502    1.5358   -0.0482 H   0  0  0  0  0  0  0  0  0  0  0  0
   -3.8968    0.6745    1.4330 H   0  0  0  0  0  0  0  0  0  0  0  0
    5.3372   -1.0867    0.1952 H   0  0  0  0  0  0  0  0  0  0  0  0
    4.2547   -2.0868   -0.8335 H   0  0  0  0  0  0  0  0  0  0  0  0
    3.8172   -1.7641    0.8708 H   0  0  0  0  0  0  0  0  0  0  0  0
    5.0454    1.3198    1.0187 H   0  0  0  0  0  0  0  0  0  0  0  0
    3.3985    1.5346    1.6806 H   0  0  0  0  0  0  0  0  0  0  0  0
    3.9982    2.6112    0.3722 H   0  0  0  0  0  0  0  0  0  0  0  0
    5.1296    0.9291   -2.2594 H   0  0  0  0  0  0  0  0  0  0  0  0
    3.5842    1.7845   -2.5662 H   0  0  0  0  0  0  0  0  0  0  0  0
    3.7588    0.0591   -3.0196 H   0  0  0  0  0  0  0  0  0  0  0  0
   -1.2179   -4.5598   -0.2307 H   0  0  0  0  0  0  0  0  0  0  0  0
   -0.9286   -3.3065    1.0474 H   0  0  0  0  0  0  0  0  0  0  0  0
    2.4393   -3.6249   -2.3406 H   0  0  0  0  0  0  0  0  0  0  0  0
    0.4446   -3.8740    0.0250 H   0  0  0  0  0  0  0  0  0  0  0  0
    0.7295   -3.1061   -2.6353 H   0  0  0  0  0  0  0  0  0  0  0  0
    2.1037   -1.9979   -3.0505 H   0  0  0  0  0  0  0  0  0  0  0  0
  1 18  1  0  0  0  0
  1 20  1  0  0  0  0
  2 21  1  0  0  0  0
  2 22  1  0  0  0  0
  3  7  1  0  0  0  0
  3 16  1  0  0  0  0
  4  8  1  0  0  0  0
  5  6  1  0  0  0  0
  5 14  1  1  0  0  0
  5 10  1  0  0  0  0
  6  1  1  6  0  0  0
  7  6  1  0  0  0  0
  8  7  2  0  0  0  0
  8  9  1  0  0  0  0
  9 10  1  0  0  0  0
  9  2  1  6  0  0  0
 10 11  1  6  0  0  0
 11 12  1  0  0  0  0
 11 24  1  0  0  0  0
 12 26  1  0  0  0  0
 13 28  1  6  0  0  0
 13 15  1  0  0  0  0
 13 14  1  0  0  0  0
 13 12  1  0  0  0  0
 14 30  1  0  0  0  0
 15 33  1  0  0  0  0
 16 53  1  0  0  0  0
 17  4  1  0  0  0  0
 18 34  1  0  0  0  0
 18 35  1  0  0  0  0
 19  1  1  0  0  0  0
 20 40  1  0  0  0  0
 20 42  1  0  0  0  0
 21 43  1  0  0  0  0
 21 45  1  0  0  0  0
 22 46  1  0  0  0  0
 22 47  1  0  0  0  0
 23  2  1  0  0  0  0
 25 11  1  0  0  0  0
 27 12  1  0  0  0  0
 29 14  1  0  0  0  0
 31 15  1  0  0  0  0
 32 15  1  0  0  0  0
 36 18  1  0  0  0  0
 37 19  1  0  0  0  0
 38 19  1  0  0  0  0
 39 19  1  0  0  0  0
 41 20  1  0  0  0  0
 44 21  1  0  0  0  0
 48 22  1  0  0  0  0
 49 23  1  0  0  0  0
 50 23  1  0  0  0  0
 51 23  1  0  0  0  0
 52 16  1  0  0  0  0
 54 17  1  0  0  0  0
 55 16  1  0  0  0  0
 56 17  1  0  0  0  0
 57 17  1  0  0  0  0
M  END
