11
q = -2.0, confidence = 0.83

 58 63  0  0  1  0  0  0  0  0999 V2000
    0.1089   -2.9498    1.3419 C   0  0  0  0  0  0  0  0  0  0  0  0
   -0.4049   -2.8343    2.3081 H   0  0  0  0  0  0  0  0  0  0  0  0
   -0.2488   -3.9738    0.4732 C   0  0  0  0  0  0  0  0  0  0  0  0
   -1.0669   -4.6556    0.7507 H   0  0  0  0  0  0  0  0  0  0  0  0
    0.4223   -4.1653   -0.7677 C   0  0  0  0  0  0  0  0  0  0  0  0
    0.1076   -4.9858   -1.4288 H   0  0  0  0  0  0  0  0  0  0  0  0
    1.4624   -3.3285   -1.1512 C   0  0  0  0  0  0  0  0  0  0  0  0
    1.9734   -3.4694   -2.1146 H   0  0  0  0  0  0  0  0  0  0  0  0
    1.8469   -2.2702   -0.2914 C   0  0  0  0  0  0  0  0  0  0  0  0
    1.1793   -2.0770    0.9842 C   0  0  0  0  0  0  0  0  0  0  0  0
    1.7529   -0.9279    1.6504 C   0  0  0  0  0  3  0  0  0  0  0  0
    2.8453   -0.4697    0.8197 C   0  0  0  0  0  0  0  0  0  0  0  0
    2.8840   -1.2639   -0.3953 C   0  0  0  0  0  0  0  0  0  0  0  0
    3.8549   -1.0019   -1.3925 C   0  0  0  0  0  0  0  0  0  0  0  0
    3.8746   -1.5997   -2.3155 H   0  0  0  0  0  0  0  0  0  0  0  0
    4.7688    0.0245   -1.1876 C   0  0  0  0  0  0  0  0  0  0  0  0
    5.5248    0.2446   -1.9555 H   0  0  0  0  0  0  0  0  0  0  0  0
    4.7440    0.7991    0.0064 C   0  0  0  0  0  0  0  0  0  0  0  0
    5.4889    1.5979    0.1404 H   0  0  0  0  0  0  0  0  0  0  0  0
    3.8007    0.5719    1.0003 C   0  0  0  0  0  0  0  0  0  0  0  0
    3.8015    1.1743    1.9201 H   0  0  0  0  0  0  0  0  0  0  0  0
    1.4310   -0.4307    3.0382 C   0  0  0  0  0  0  0  0  0  0  0  0
    2.3148   -0.5282    3.7058 H   0  0  0  0  0  0  0  0  0  0  0  0
    0.6479   -1.0802    3.4796 H   0  0  0  0  0  0  0  0  0  0  0  0
    0.9329    1.0281    3.0070 C   0  0  0  0  0  0  0  0  0  0  0  0
    0.4903    1.3150    3.9866 H   0  0  0  0  0  0  0  0  0  0  0  0
    1.7843    1.7191    2.8429 H   0  0  0  0  0  0  0  0  0  0  0  0
   -0.0600    1.1973    1.8886 C   0  0  1  0  0  3  0  0  0  0  0  0
   -1.1395    0.3016    1.5918 C   0  0  0  0  0  0  0  0  0  0  0  0
   -1.3724   -0.6088    2.1564 H   0  0  0  0  0  0  0  0  0  0  0  0
   -1.8594    0.7420    0.4459 C   0  0  0  0  0  0  0  0  0  0  0  0
   -1.2388    1.9764    0.0231 C   0  0  0  0  0  0  0  0  0  0  0  0
   -0.1510    2.2793    0.9420 C   0  0  0  0  0  0  0  0  0  0  0  0
    0.5877    3.4893    0.7911 C   0  0  0  0  0  0  0  0  0  0  0  0
    1.4056    3.7313    1.4859 H   0  0  0  0  0  0  0  0  0  0  0  0
    0.2558    4.3467   -0.2439 C   0  0  0  0  0  0  0  0  0  0  0  0
    0.8135    5.2867   -0.3703 H   0  0  0  0  0  0  0  0  0  0  0  0
   -0.7914    4.0348   -1.1661 C   0  0  0  0  0  0  0  0  0  0  0  0
   -1.0067    4.7372   -1.9850 H   0  0  0  0  0  0  0  0  0  0  0  0
   -1.5323    2.8710   -1.0483 C   0  0  0  0  0  0  0  0  0  0  0  0
   -2.3345    2.6333   -1.7617 H   0  0  0  0  0  0  0  0  0  0  0  0
   -3.1351    0.1651   -0.1056 C   0  0  0  0  0  0  0  0  0  0  0  0
   -3.0423    0.1533   -1.2152 H   0  0  0  0  0  0  0  0  0  0  0  0
   -3.3996   -1.2815    0.3446 C   0  0  0  0  0  0  0  0  0  0  0  0
   -3.4910   -1.3049    1.4548 H   0  0  0  0  0  0  0  0  0  0  0  0
   -2.5343   -1.9198    0.0738 H   0  0  0  0  0  0  0  0  0  0  0  0
   -4.6907   -1.8312   -0.2724 C   0  0  0  0  0  0  0  0  0  0  0  0
   -4.5624   -1.8902   -1.3763 H   0  0  0  0  0  0  0  0  0  0  0  0
   -4.8694   -2.8702    0.0760 H   0  0  0  0  0  0  0  0  0  0  0  0
   -5.8962   -0.9405    0.0551 C   0  0  0  0  0  0  0  0  0  0  0  0
   -6.8130   -1.3282   -0.4368 H   0  0  0  0  0  0  0  0  0  0  0  0
   -6.0894   -0.9791    1.1513 H   0  0  0  0  0  0  0  0  0  0  0  0
   -5.6426    0.5156   -0.3564 C   0  0  0  0  0  0  0  0  0  0  0  0
   -6.5006    1.1577   -0.0655 H   0  0  0  0  0  0  0  0  0  0  0  0
   -5.5706    0.5736   -1.4659 H   0  0  0  0  0  0  0  0  0  0  0  0
   -4.3454    1.0603    0.2547 C   0  0  0  0  0  0  0  0  0  0  0  0
   -4.4384    1.1012    1.3634 H   0  0  0  0  0  0  0  0  0  0  0  0
   -4.1642    2.1025   -0.0802 H   0  0  0  0  0  0  0  0  0  0  0  0
  1  2  1  0  0  0  0
  3  4  1  0  0  0  0
  3  1  2  0  0  0  0
  5  3  1  0  0  0  0
  6  5  1  0  0  0  0
  7  5  2  0  0  0  0
  7  9  1  0  0  0  0
  8  7  1  0  0  0  0
  9 10  2  0  0  0  0
 10  1  1  0  0  0  0
 10 11  1  0  0  0  0
 11 22  1  0  0  0  0
 12 20  1  0  0  0  0
 12 11  1  0  0  0  0
 13  9  1  0  0  0  0
 13 12  2  0  0  0  0
 14 16  2  0  0  0  0
 14 13  1  0  0  0  0
 15 14  1  0  0  0  0
 16 18  1  0  0  0  0
 17 16  1  0  0  0  0
 18 19  1  0  0  0  0
 18 20  2  0  0  0  0
 20 21  1  0  0  0  0
 22 24  1  0  0  0  0
 22 23  1  0  0  0  0
 25 22  1  0  0  0  0
 25 26  1  0  0  0  0
 27 25  1  0  0  0  0
 28 25  1  1  0  0  0
 29 28  1  0  0  0  0
 29 30  1  0  0  0  0
 31 29  2  0  0  0  0
 32 31  1  0  0  0  0
 32 33  1  0  0  0  0
 33 28  1  0  0  0  0
 34 33  2  0  0  0  0
 34 35  1  0  0  0  0
 36 34  1  0  0  0  0
 37 36  1  0  0  0  0
 38 40  1  0  0  0  0
 38 36  2  0  0  0  0
 39 38  1  0  0  0  0
 40 32  2  0  0  0  0
 41 40  1  0  0  0  0
 42 56  1  0  0  0  0
 42 44  1  0  0  0  0
 42 31  1  0  0  0  0
 43 42  1  0  0  0  0
 44 45  1  0  0  0  0
 46 44  1  0  0  0  0
 47 50  1  0  0  0  0
 47 49  1  0  0  0  0
 47 44  1  0  0  0  0
 48 47  1  0  0  0  0
 50 52  1  0  0  0  0
 51 50  1  0  0  0  0
 53 54  1  0  0  0  0
 53 50  1  0  0  0  0
 53 56  1  0  0  0  0
 55 53  1  0  0  0  0
 56 57  1  0  0  0  0
 58 56  1  0  0  0  0
M  END
