5,15
q = 0.0, confidence = 0.894

 31 33  0  0  0  0  0  0  0  0999 V2000
    0.5239    2.2522   -0.5884 N   0  0  0  0  0  0  0  0  0  0  0  0
   -1.5498    2.8597   -0.3478 N   0  0  0  0  0  0  0  0  0  0  0  0
    4.4726   -1.5024    0.2144 N   0  0  0  0  0  0  0  0  0  0  0  0
    5.1935    0.5386   -0.2254 N   0  0  0  0  0  0  0  0  0  0  0  0
   -0.7564    1.7543   -0.4207 C   0  0  0  0  0  2  0  0  0  0  0  0
   -0.7859    4.0209   -0.4852 C   0  0  0  0  0  0  0  0  0  0  0  0
   -1.2378    5.0172   -0.4614 H   0  0  0  0  0  0  0  0  0  0  0  0
    0.5216    3.6429   -0.6318 C   0  0  0  0  0  0  0  0  0  0  0  0
    1.4242    4.2468   -0.7557 H   0  0  0  0  0  0  0  0  0  0  0  0
   -2.9644    2.8443   -0.0089 C   0  0  0  0  0  0  0  0  0  0  0  0
   -3.5857    3.1534   -0.8717 H   0  0  0  0  0  0  0  0  0  0  0  0
   -3.1482    3.5275    0.8418 H   0  0  0  0  0  0  0  0  0  0  0  0
   -3.2260    1.8176    0.3014 H   0  0  0  0  0  0  0  0  0  0  0  0
    1.5550    1.3056   -0.4774 C   0  0  0  0  0  0  0  0  0  0  0  0
    1.0384   -0.0221   -0.2387 C   0  0  0  0  0  3  0  0  0  0  0  0
    1.9658   -1.0423    0.0262 C   0  0  0  0  0  0  0  0  0  0  0  0
    1.6315   -2.0546    0.2873 H   0  0  0  0  0  0  0  0  0  0  0  0
    3.3325   -0.7217   -0.0102 C   0  0  0  0  0  0  0  0  0  0  0  0
    3.7994    0.5877   -0.2883 C   0  0  0  0  0  0  0  0  0  0  0  0
    2.9100    1.6483   -0.5220 C   0  0  0  0  0  0  0  0  0  0  0  0
    3.2572    2.6752   -0.6977 H   0  0  0  0  0  0  0  0  0  0  0  0
    5.5650   -0.7229    0.0792 C   0  0  0  0  0  3  0  0  0  0  0  0
    6.5998   -1.0604    0.2004 H   0  0  0  0  0  0  0  0  0  0  0  0
    4.4597   -2.9175    0.5562 C   0  0  0  0  0  0  0  0  0  0  0  0
    5.4960   -3.2820    0.6685 H   0  0  0  0  0  0  0  0  0  0  0  0
    3.9553   -3.4923   -0.2448 H   0  0  0  0  0  0  0  0  0  0  0  0
    3.9138   -3.0685    1.5080 H   0  0  0  0  0  0  0  0  0  0  0  0
    6.0865    1.6686   -0.4376 C   0  0  0  0  0  0  0  0  0  0  0  0
    7.1346    1.3375   -0.3319 H   0  0  0  0  0  0  0  0  0  0  0  0
    5.8791    2.4589    0.3103 H   0  0  0  0  0  0  0  0  0  0  0  0
    5.9375    2.0814   -1.4544 H   0  0  0  0  0  0  0  0  0  0  0  0
  1 14  1  0  0  0  0
  1  5  1  0  0  0  0
  2 10  1  0  0  0  0
  3 24  1  0  0  0  0
  4 22  1  0  0  0  0
  5  2  1  0  0  0  0
  6  7  1  0  0  0  0
  6  2  1  0  0  0  0
  8  1  1  0  0  0  0
  8  6  2  0  0  0  0
  9  8  1  0  0  0  0
 10 13  1  0  0  0  0
 10 12  1  0  0  0  0
 11 10  1  0  0  0  0
 14 15  1  0  0  0  0
 15 16  2  0  0  0  0
 16 17  1  0  0  0  0
 18 16  1  0  0  0  0
 18  3  1  0  0  0  0
 19  4  1  0  0  0  0
 19 18  2  0  0  0  0
 20 14  2  0  0  0  0
 20 19  1  0  0  0  0
 21 20  1  0  0  0  0
 22 23  1  0  0  0  0
 22  3  1  0  0  0  0
 24 25  1  0  0  0  0
 24 27  1  0  0  0  0
 26 24  1  0  0  0  0
 28 29  1  0  0  0  0
 28  4  1  0  0  0  0
 28 30  1  0  0  0  0
 31 28  1  0  0  0  0
M  END
