5,8
q = -1.0

 43 43  0  0  1  0  0  0  0  0999 V2000
    1.0111    0.2070   -2.3068 S   0  0  0  0  0  1  0  0  0  0  0  0
    0.7218    2.0370    0.3403 S   0  0  0  0  0  0  0  0  0  0  0  0
   -0.3377   -0.8423    1.8829 C   0  0  0  0  0  0  0  0  0  0  0  0
   -1.4378   -1.3296    1.1019 C   0  0  0  0  0  0  0  0  0  0  0  0
   -1.1989   -2.0077   -0.1647 C   0  0  2  0  0  3  0  0  0  0  0  0
    0.1497   -2.2996   -0.5655 C   0  0  0  0  0  0  0  0  0  0  0  0
    1.2734   -1.8801    0.2633 C   0  0  0  0  0  0  0  0  0  0  0  0
    1.0297   -1.1056    1.4490 C   0  0  1  0  0  3  0  0  0  0  0  0
   -0.6498   -0.0572    3.1355 C   0  0  0  0  0  0  0  0  0  0  0  0
   -2.8498   -1.1273    1.5940 C   0  0  0  0  0  0  0  0  0  0  0  0
   -2.3890   -2.3455   -1.0250 C   0  0  0  0  0  0  0  0  0  0  0  0
    0.4640   -3.0412   -1.8411 C   0  0  0  0  0  0  0  0  0  0  0  0
    2.6639   -2.1618   -0.2409 C   0  0  0  0  0  0  0  0  0  0  0  0
    2.2134   -0.5630    2.2299 C   0  0  0  0  0  0  0  0  0  0  0  0
    1.1555    2.0285   -2.3844 C   0  0  0  0  0  0  0  0  0  0  0  0
    1.7642    2.5677   -1.1058 C   0  0  0  0  0  0  0  0  0  0  0  0
    2.0570    1.9436    1.6145 C   0  0  0  0  0  0  0  0  0  0  0  0
    2.9014    0.6712    1.6158 C   0  0  0  0  0  0  0  0  0  0  0  0
   -1.5015    0.6289    2.9723 H   0  0  0  0  0  0  0  0  0  0  0  0
   -0.9255   -0.7359    3.9720 H   0  0  0  0  0  0  0  0  0  0  0  0
    0.2012    0.5548    3.4794 H   0  0  0  0  0  0  0  0  0  0  0  0
   -2.9112   -1.2800    2.6887 H   0  0  0  0  0  0  0  0  0  0  0  0
   -3.2234   -0.1049    1.3708 H   0  0  0  0  0  0  0  0  0  0  0  0
   -3.5473   -1.8394    1.1200 H   0  0  0  0  0  0  0  0  0  0  0  0
   -2.9510   -3.2115   -0.6152 H   0  0  0  0  0  0  0  0  0  0  0  0
   -3.0688   -1.4726   -1.0839 H   0  0  0  0  0  0  0  0  0  0  0  0
   -2.0984   -2.5861   -2.0609 H   0  0  0  0  0  0  0  0  0  0  0  0
    1.1652   -2.4702   -2.4812 H   0  0  0  0  0  0  0  0  0  0  0  0
    0.9452   -4.0121   -1.6009 H   0  0  0  0  0  0  0  0  0  0  0  0
   -0.4345   -3.2525   -2.4422 H   0  0  0  0  0  0  0  0  0  0  0  0
    2.7803   -3.2271   -0.5214 H   0  0  0  0  0  0  0  0  0  0  0  0
    2.8598   -1.5501   -1.1521 H   0  0  0  0  0  0  0  0  0  0  0  0
    3.4457   -1.9283    0.5023 H   0  0  0  0  0  0  0  0  0  0  0  0
    2.9680   -1.3696    2.3268 H   0  0  0  0  0  0  0  0  0  0  0  0
    1.9084   -0.3264    3.2673 H   0  0  0  0  0  0  0  0  0  0  0  0
    0.1540    2.4746   -2.5581 H   0  0  0  0  0  0  0  0  0  0  0  0
    1.8109    2.2795   -3.2446 H   0  0  0  0  0  0  0  0  0  0  0  0
    2.7797    2.1493   -0.9515 H   0  0  0  0  0  0  0  0  0  0  0  0
    1.8012    3.6769   -1.0700 H   0  0  0  0  0  0  0  0  0  0  0  0
    1.5456    2.0982    2.5864 H   0  0  0  0  0  0  0  0  0  0  0  0
    2.6825    2.8415    1.4370 H   0  0  0  0  0  0  0  0  0  0  0  0
    3.2260    0.4467    0.5776 H   0  0  0  0  0  0  0  0  0  0  0  0
    3.8254    0.8789    2.1979 H   0  0  0  0  0  0  0  0  0  0  0  0
  2 17  1  0  0  0  0
  3  9  1  0  0  0  0
  4 10  1  0  0  0  0
  4  3  2  0  0  0  0
  5 11  1  6  0  0  0
  5  4  1  0  0  0  0
  6  5  1  0  0  0  0
  6  7  2  0  0  0  0
  7  8  1  0  0  0  0
  8  3  1  0  0  0  0
  8 14  1  6  0  0  0
  9 21  1  0  0  0  0
  9 20  1  0  0  0  0
 10 22  1  0  0  0  0
 11 25  1  0  0  0  0
 12 29  1  0  0  0  0
 12  6  1  0  0  0  0
 13  7  1  0  0  0  0
 13 33  1  0  0  0  0
 14 34  1  0  0  0  0
 14 35  1  0  0  0  0
 15  1  1  0  0  0  0
 15 16  1  0  0  0  0
 16 39  1  0  0  0  0
 16 38  1  0  0  0  0
 16  2  1  0  0  0  0
 17 18  1  0  0  0  0
 17 40  1  0  0  0  0
 18 43  1  0  0  0  0
 18 14  1  0  0  0  0
 19  9  1  0  0  0  0
 23 10  1  0  0  0  0
 24 10  1  0  0  0  0
 26 11  1  0  0  0  0
 27 11  1  0  0  0  0
 28 12  1  0  0  0  0
 30 12  1  0  0  0  0
 31 13  1  0  0  0  0
 32 13  1  0  0  0  0
 36 15  1  0  0  0  0
 37 15  1  0  0  0  0
 41 17  1  0  0  0  0
 42 18  1  0  0  0  0
M  END
