8,12
q = 0.0, confidence = 0.998

 36 38  0  0  1  0  0  0  0  0999 V2000
   -4.8794    0.6071    1.1175 O   0  0  0  0  0  0  0  0  0  0  0  0
   -4.3647   -1.1863   -0.2007 O   0  0  0  0  0  0  0  0  0  0  0  0
   -0.8442   -0.8224   -0.0112 N   0  0  0  0  0  0  0  0  0  0  0  0
   -3.4301    0.8291   -0.6645 N   0  0  0  0  0  0  0  0  0  0  0  0
    0.2483   -0.3879    0.7106 C   0  0  0  0  0  0  0  0  0  0  0  0
    1.1122   -1.1278    1.5661 C   0  0  0  0  0  0  0  0  0  0  0  0
    0.9991   -2.2098    1.7031 H   0  0  0  0  0  0  0  0  0  0  0  0
    2.1616   -0.4247    2.2316 C   0  0  0  0  0  3  0  0  0  0  0  0
    2.8406   -0.9851    2.8896 H   0  0  0  0  0  0  0  0  0  0  0  0
    2.3677    0.9717    2.0441 C   0  0  0  0  0  3  0  0  0  0  0  0
    3.2031    1.4787    2.5436 H   0  0  0  0  0  0  0  0  0  0  0  0
    1.5544    1.6743    1.1059 C   0  0  0  0  0  3  0  0  0  0  0  0
    1.7520    2.7340    0.8893 H   0  0  0  0  0  0  0  0  0  0  0  0
    0.5090    0.9953    0.4358 C   0  0  2  0  0  3  0  0  0  0  0  0
   -0.5921    1.4920   -0.4692 C   0  0  2  0  0  0  0  0  0  0  0  0
   -0.2304    2.1743   -1.2636 H   0  0  0  0  0  0  0  0  0  0  0  0
   -1.6831    2.1862    0.3871 C   0  0  0  0  0  0  0  0  0  0  0  0
   -1.7834    1.6506    1.3541 H   0  0  0  0  0  0  0  0  0  0  0  0
   -1.3616    3.2210    0.6251 H   0  0  0  0  0  0  0  0  0  0  0  0
   -3.0555    2.1878   -0.2931 C   0  0  0  0  0  0  0  0  0  0  0  0
   -3.8336    2.5822    0.3855 H   0  0  0  0  0  0  0  0  0  0  0  0
   -3.0425    2.8115   -1.2146 H   0  0  0  0  0  0  0  0  0  0  0  0
   -2.5240    0.2044   -1.6108 C   0  0  0  0  0  0  0  0  0  0  0  0
   -2.5214    0.8013   -2.5497 H   0  0  0  0  0  0  0  0  0  0  0  0
   -2.8950   -0.8019   -1.8710 H   0  0  0  0  0  0  0  0  0  0  0  0
   -1.0835    0.1558   -1.0941 C   0  0  2  0  0  0  0  0  0  0  0  0
   -0.4195   -0.1009   -1.9546 H   0  0  0  0  0  0  0  0  0  0  0  0
   -1.0879   -2.2305   -0.2488 C   0  0  0  0  0  0  0  0  0  0  0  0
   -2.1402   -2.3746   -0.5586 H   0  0  0  0  0  0  0  0  0  0  0  0
   -0.9471   -2.7959    0.6921 H   0  0  0  0  0  0  0  0  0  0  0  0
   -0.4092   -2.6530   -1.0252 H   0  0  0  0  0  0  0  0  0  0  0  0
   -4.2687    0.1290    0.1731 C   0  0  0  0  0  0  0  0  0  0  0  0
   -5.2654   -1.9596    0.5951 C   0  0  0  0  0  0  0  0  0  0  0  0
   -5.2176   -2.9889    0.1956 H   0  0  0  0  0  0  0  0  0  0  0  0
   -6.3002   -1.5686    0.5207 H   0  0  0  0  0  0  0  0  0  0  0  0
   -4.9675   -1.9461    1.6630 H   0  0  0  0  0  0  0  0  0  0  0  0
  2 32  1  0  0  0  0
  2 33  1  0  0  0  0
  3  5  1  0  0  0  0
  4 20  1  0  0  0  0
  4 32  1  0  0  0  0
  5  6  2  0  0  0  0
  6  7  1  0  0  0  0
  6  8  1  0  0  0  0
  8  9  1  0  0  0  0
 10  8  1  0  0  0  0
 10 11  1  0  0  0  0
 12 10  1  0  0  0  0
 13 12  1  0  0  0  0
 14  5  1  1  0  0  0
 14 12  1  0  0  0  0
 15 16  1  6  0  0  0
 15 17  1  0  0  0  0
 15 14  1  0  0  0  0
 17 19  1  0  0  0  0
 17 18  1  0  0  0  0
 20 21  1  0  0  0  0
 20 17  1  0  0  0  0
 22 20  1  0  0  0  0
 23 26  1  0  0  0  0
 23  4  1  0  0  0  0
 24 23  1  0  0  0  0
 25 23  1  0  0  0  0
 26 27  1  6  0  0  0
 26 15  1  0  0  0  0
 26  3  1  0  0  0  0
 28  3  1  0  0  0  0
 28 30  1  0  0  0  0
 29 28  1  0  0  0  0
 31 28  1  0  0  0  0
 32  1  2  0  0  0  0
 33 36  1  0  0  0  0
 34 33  1  0  0  0  0
 35 33  1  0  0  0  0
M  END
