2,25
q = -2.0, confidence = 0.872

 57 61  0  0  1  0  0  0  0  0999 V2000
   -0.7257    1.3948    1.7636 C   0  0  0  0  0  0  0  0  0  0  0  0
    0.6100    1.8117    2.0317 C   0  0  0  0  0  3  0  0  0  0  0  0
    1.1172    2.4461    0.8591 C   0  0  0  0  0  0  0  0  0  0  0  0
    2.4095    3.1796    0.6634 C   0  0  0  0  0  0  0  0  0  0  0  0
    2.6858    3.4072   -0.8275 C   0  0  0  0  0  0  0  0  0  0  0  0
    1.4529    3.9898   -1.5321 C   0  0  0  0  0  0  0  0  0  0  0  0
    0.2540    3.0221   -1.4994 C   0  0  0  0  0  0  0  0  0  0  0  0
    0.1147    2.3603   -0.1522 C   0  0  0  0  0  0  0  0  0  0  0  0
   -1.0470    1.7154    0.4150 C   0  0  0  0  0  0  0  0  0  0  0  0
   -2.4214    1.6991   -0.1969 C   0  0  0  0  0  0  0  0  0  0  0  0
   -3.3851    0.5606    0.1677 C   0  0  1  0  0  0  0  0  0  0  0  0
   -4.8467    0.9723   -0.1085 C   0  0  0  0  0  0  0  0  0  0  0  0
   -5.6653   -0.3370   -0.1296 C   0  0  0  0  0  0  0  0  0  0  0  0
   -4.6193   -1.4666   -0.2977 C   0  0  0  0  0  0  0  0  0  0  0  0
   -3.2688   -0.7790   -0.6056 C   0  0  2  0  0  0  0  0  0  0  0  0
   -2.1029   -1.7166   -0.2795 C   0  0  0  0  0  0  0  0  0  0  0  0
   -0.7387   -1.3609   -0.7969 C   0  0  1  0  0  3  0  0  0  0  0  0
    0.4257   -2.1947   -0.6401 C   0  0  0  0  0  0  0  0  0  0  0  0
    0.5231   -3.5392    0.0104 C   0  0  0  0  0  0  0  0  0  0  0  0
    1.9920   -3.9257    0.2334 C   0  0  0  0  0  0  0  0  0  0  0  0
    2.8275   -3.7088   -1.0362 C   0  0  0  0  0  0  0  0  0  0  0  0
    2.8664   -2.2248   -1.4427 C   0  0  0  0  0  0  0  0  0  0  0  0
    1.5175   -1.5867   -1.3150 C   0  0  0  0  0  0  0  0  0  0  0  0
    1.0545   -0.3441   -1.8514 C   0  0  0  0  0  3  0  0  0  0  0  0
   -0.3445   -0.2484   -1.5960 C   0  0  0  0  0  3  0  0  0  0  0  0
   -1.3820    0.8794    2.4719 H   0  0  0  0  0  0  0  0  0  0  0  0
    1.1559    1.6581    2.9692 H   0  0  0  0  0  0  0  0  0  0  0  0
    3.2378    2.6249    1.1476 H   0  0  0  0  0  0  0  0  0  0  0  0
    2.3258    4.1597    1.1865 H   0  0  0  0  0  0  0  0  0  0  0  0
    2.9639    2.4327   -1.2862 H   0  0  0  0  0  0  0  0  0  0  0  0
    3.5573    4.0806   -0.9559 H   0  0  0  0  0  0  0  0  0  0  0  0
    1.6872    4.2532   -2.5837 H   0  0  0  0  0  0  0  0  0  0  0  0
    1.1711    4.9405   -1.0278 H   0  0  0  0  0  0  0  0  0  0  0  0
    0.3700    2.2650   -2.3047 H   0  0  0  0  0  0  0  0  0  0  0  0
   -0.6832    3.5665   -1.7446 H   0  0  0  0  0  0  0  0  0  0  0  0
   -2.3605    1.7818   -1.3034 H   0  0  0  0  0  0  0  0  0  0  0  0
   -2.8980    2.6547    0.1238 H   0  0  0  0  0  0  0  0  0  0  0  0
   -3.2824    0.3293    1.2526 H   0  0  0  0  0  0  0  0  0  0  0  0
   -4.8867    1.4673   -1.1036 H   0  0  0  0  0  0  0  0  0  0  0  0
   -5.2180    1.7142    0.6274 H   0  0  0  0  0  0  0  0  0  0  0  0
   -6.4097   -0.3333   -0.9505 H   0  0  0  0  0  0  0  0  0  0  0  0
   -6.2388   -0.4678    0.8097 H   0  0  0  0  0  0  0  0  0  0  0  0
   -4.8906   -2.2041   -1.0797 H   0  0  0  0  0  0  0  0  0  0  0  0
   -4.5138   -2.0383    0.6491 H   0  0  0  0  0  0  0  0  0  0  0  0
   -3.2403   -0.5297   -1.6922 H   0  0  0  0  0  0  0  0  0  0  0  0
   -2.3509   -2.7240   -0.6856 H   0  0  0  0  0  0  0  0  0  0  0  0
   -2.0400   -1.8598    0.8224 H   0  0  0  0  0  0  0  0  0  0  0  0
    0.0216   -4.2849   -0.6502 H   0  0  0  0  0  0  0  0  0  0  0  0
   -0.0333   -3.5370    0.9698 H   0  0  0  0  0  0  0  0  0  0  0  0
    2.0601   -4.9808    0.5681 H   0  0  0  0  0  0  0  0  0  0  0  0
    2.3959   -3.2958    1.0554 H   0  0  0  0  0  0  0  0  0  0  0  0
    2.3938   -4.3146   -1.8634 H   0  0  0  0  0  0  0  0  0  0  0  0
    3.8625   -4.0787   -0.8880 H   0  0  0  0  0  0  0  0  0  0  0  0
    3.2368   -2.1038   -2.4826 H   0  0  0  0  0  0  0  0  0  0  0  0
    3.5772   -1.6649   -0.7940 H   0  0  0  0  0  0  0  0  0  0  0  0
    1.6593    0.3665   -2.4288 H   0  0  0  0  0  0  0  0  0  0  0  0
   -1.0063    0.5347   -1.9721 H   0  0  0  0  0  0  0  0  0  0  0  0
  1  2  1  0  0  0  0
  1 26  1  0  0  0  0
  2 27  1  0  0  0  0
  3  2  1  0  0  0  0
  4  3  1  0  0  0  0
  4 28  1  0  0  0  0
  4 29  1  0  0  0  0
  5  4  1  0  0  0  0
  6  7  1  0  0  0  0
  6 33  1  0  0  0  0
  6  5  1  0  0  0  0
  7  8  1  0  0  0  0
  8  9  1  0  0  0  0
  8  3  2  0  0  0  0
  9  1  2  0  0  0  0
 10 37  1  0  0  0  0
 10 11  1  0  0  0  0
 10  9  1  0  0  0  0
 11 38  1  1  0  0  0
 12 11  1  0  0  0  0
 12 40  1  0  0  0  0
 13 12  1  0  0  0  0
 13 42  1  0  0  0  0
 14 13  1  0  0  0  0
 14 44  1  0  0  0  0
 15 45  1  6  0  0  0
 15 14  1  0  0  0  0
 15 16  1  0  0  0  0
 15 11  1  0  0  0  0
 16 47  1  0  0  0  0
 17 18  1  0  0  0  0
 17 16  1  6  0  0  0
 18 19  1  0  0  0  0
 19 20  1  0  0  0  0
 19 49  1  0  0  0  0
 20 50  1  0  0  0  0
 20 51  1  0  0  0  0
 21 53  1  0  0  0  0
 21 20  1  0  0  0  0
 22 23  1  0  0  0  0
 22 21  1  0  0  0  0
 22 55  1  0  0  0  0
 23 18  2  0  0  0  0
 24 25  1  0  0  0  0
 24 23  1  0  0  0  0
 25 17  1  0  0  0  0
 30  5  1  0  0  0  0
 31  5  1  0  0  0  0
 32  6  1  0  0  0  0
 34  7  1  0  0  0  0
 35  7  1  0  0  0  0
 36 10  1  0  0  0  0
 39 12  1  0  0  0  0
 41 13  1  0  0  0  0
 43 14  1  0  0  0  0
 46 16  1  0  0  0  0
 48 19  1  0  0  0  0
 52 21  1  0  0  0  0
 54 22  1  0  0  0  0
 56 24  1  0  0  0  0
 57 25  1  0  0  0  0
M  END
