14,16
q = 0.0, confidence = 0.99

 44 47  0  0  1  0  0  0  0  0999 V2000
    1.5042    2.6249   -1.4913 O   0  0  0  0  0  0  0  0  0  0  0  0
    2.2261    1.9742    0.6295 N   0  0  0  0  0  0  0  0  0  0  0  0
    1.9506    0.8817    1.4689 C   0  0  0  0  0  0  0  0  0  0  0  0
    1.0171    0.0505    0.9535 C   0  0  0  0  0  0  0  0  0  0  0  0
    0.6084    0.5490   -0.4112 C   0  0  1  0  0  0  0  0  0  0  0  0
    1.4699    1.8676   -0.5328 C   0  0  0  0  0  0  0  0  0  0  0  0
    1.0793   -0.3839   -1.5705 C   0  0  0  0  0  0  0  0  0  0  0  0
    0.6892   -1.0660    1.9037 C   0  0  0  0  0  0  0  0  0  0  0  0
    1.8651   -0.9615    2.9250 C   0  0  0  0  0  0  0  0  0  0  0  0
    2.4415    0.4860    2.8262 C   0  0  0  0  0  0  0  0  0  0  0  0
    3.2501    2.9757    0.8167 C   0  0  0  0  0  0  0  0  0  0  0  0
   -0.8574    0.9527   -0.5100 C   0  0  0  0  0  0  0  0  0  0  0  0
   -1.5039    1.5065    0.6298 C   0  0  0  0  0  3  0  0  0  0  0  0
   -2.8652    1.9340    0.5673 C   0  0  0  0  0  3  0  0  0  0  0  0
   -3.5951    1.8162   -0.6377 C   0  0  0  0  0  3  0  0  0  0  0  0
   -2.9538    1.2623   -1.7894 C   0  0  0  0  0  3  0  0  0  0  0  0
   -1.6019    0.8501   -1.7314 C   0  0  0  0  0  0  0  0  0  0  0  0
    2.4870   -0.8916   -1.3560 C   0  0  0  0  0  0  0  0  0  0  0  0
    3.6038   -0.0908   -1.6725 C   0  0  0  0  0  0  0  0  0  0  0  0
    4.9054   -0.5359   -1.3940 C   0  0  0  0  0  0  0  0  0  0  0  0
    5.1113   -1.7926   -0.8027 C   0  0  0  0  0  0  0  0  0  0  0  0
    4.0073   -2.6077   -0.5048 C   0  0  0  0  0  0  0  0  0  0  0  0
    2.7071   -2.1592   -0.7810 C   0  0  0  0  0  0  0  0  0  0  0  0
    0.3807   -1.2380   -1.6487 H   0  0  0  0  0  0  0  0  0  0  0  0
    1.0257    0.2014   -2.5116 H   0  0  0  0  0  0  0  0  0  0  0  0
    3.1769    3.6817   -0.0325 H   0  0  0  0  0  0  0  0  0  0  0  0
    3.1052    3.5297    1.7668 H   0  0  0  0  0  0  0  0  0  0  0  0
    4.2628    2.5187    0.8189 H   0  0  0  0  0  0  0  0  0  0  0  0
   -0.9523    1.5602    1.5785 H   0  0  0  0  0  0  0  0  0  0  0  0
   -3.3582    2.3112    1.4741 H   0  0  0  0  0  0  0  0  0  0  0  0
   -4.6556    2.0987   -0.6759 H   0  0  0  0  0  0  0  0  0  0  0  0
   -3.5235    1.1230   -2.7186 H   0  0  0  0  0  0  0  0  0  0  0  0
   -1.1427    0.3985   -2.6184 H   0  0  0  0  0  0  0  0  0  0  0  0
    3.4462    0.8912   -2.1448 H   0  0  0  0  0  0  0  0  0  0  0  0
    5.7666    0.1006   -1.6498 H   0  0  0  0  0  0  0  0  0  0  0  0
    6.1322   -2.1425   -0.5865 H   0  0  0  0  0  0  0  0  0  0  0  0
    4.1594   -3.6019   -0.0572 H   0  0  0  0  0  0  0  0  0  0  0  0
    1.8417   -2.8007   -0.5513 H   0  0  0  0  0  0  0  0  0  0  0  0
    0.6400   -2.0644    1.4250 H   0  0  0  0  0  0  0  0  0  0  0  0
   -0.3032   -0.9155    2.3871 H   0  0  0  0  0  0  0  0  0  0  0  0
    2.6591   -1.6721    2.6181 H   0  0  0  0  0  0  0  0  0  0  0  0
    1.5627   -1.2264    3.9567 H   0  0  0  0  0  0  0  0  0  0  0  0
    2.0358    1.1623    3.6139 H   0  0  0  0  0  0  0  0  0  0  0  0
    3.5467    0.5114    2.9272 H   0  0  0  0  0  0  0  0  0  0  0  0
  1  6  2  0  0  0  0
  2 11  1  0  0  0  0
  2  3  1  0  0  0  0
  3 10  1  0  0  0  0
  4  3  2  0  0  0  0
  4  8  1  0  0  0  0
  5  7  1  6  0  0  0
  5  4  1  0  0  0  0
  6  5  1  0  0  0  0
  6  2  1  0  0  0  0
  7 18  1  0  0  0  0
  8 40  1  0  0  0  0
  8  9  1  0  0  0  0
  9 42  1  0  0  0  0
 10  9  1  0  0  0  0
 10 44  1  0  0  0  0
 10 43  1  0  0  0  0
 11 28  1  0  0  0  0
 11 27  1  0  0  0  0
 12  5  1  0  0  0  0
 12 13  1  0  0  0  0
 13 29  1  0  0  0  0
 14 13  1  0  0  0  0
 14 30  1  0  0  0  0
 15 14  1  0  0  0  0
 16 17  1  0  0  0  0
 16 15  1  0  0  0  0
 17 12  2  0  0  0  0
 18 23  1  0  0  0  0
 19 20  1  0  0  0  0
 19 18  2  0  0  0  0
 20 21  2  0  0  0  0
 21 36  1  0  0  0  0
 21 22  1  0  0  0  0
 22 37  1  0  0  0  0
 23 38  1  0  0  0  0
 23 22  2  0  0  0  0
 24  7  1  0  0  0  0
 25  7  1  0  0  0  0
 26 11  1  0  0  0  0
 31 15  1  0  0  0  0
 32 16  1  0  0  0  0
 33 17  1  0  0  0  0
 34 19  1  0  0  0  0
 35 20  1  0  0  0  0
 39  8  1  0  0  0  0
 41  9  1  0  0  0  0
M  END
