1
q = -2.0, confidence = 0.674

 42 44  0  0  1  0  0  0  0  0999 V2000
    0.8294    1.8628   -0.1361 C   0  0  2  0  0  3  0  0  0  0  0  0
    0.5111    1.7512   -1.5303 C   0  0  0  0  0  0  0  0  0  0  0  0
    1.3902    0.8241   -2.1556 C   0  0  0  0  0  0  0  0  0  0  0  0
    3.4283   -0.5240   -1.2323 C   0  0  0  0  0  0  0  0  0  0  0  0
    4.1581   -0.7676   -0.0815 C   0  0  0  0  0  0  0  0  0  0  0  0
    3.8297   -0.1289    1.1539 C   0  0  0  0  0  0  0  0  0  0  0  0
    2.7600    0.7447    1.2555 C   0  0  0  0  0  0  0  0  0  0  0  0
    1.9749    1.0146    0.0941 C   0  0  0  0  0  0  0  0  0  0  0  0
    2.3228    0.3721   -1.1692 C   0  0  0  0  0  0  0  0  0  0  0  0
   -0.0997    2.4055    0.9438 C   0  0  2  0  0  0  0  0  0  0  0  0
   -1.1241    1.2721    1.0584 C   0  0  1  0  0  3  0  0  0  0  0  0
   -2.1568    0.9284    0.1104 C   0  0  1  0  0  3  0  0  0  0  0  0
   -2.5853   -0.4203    0.3899 C   0  0  0  0  0  0  0  0  0  0  0  0
   -1.8050   -0.9250    1.4684 C   0  0  0  0  0  0  0  0  0  0  0  0
   -0.8951    0.1106    1.8810 C   0  0  2  0  0  3  0  0  0  0  0  0
   -2.8460    1.7780   -0.9231 C   0  0  0  0  0  0  0  0  0  0  0  0
   -3.7336   -1.0986   -0.2880 C   0  0  0  0  0  0  0  0  0  0  0  0
   -1.9421   -2.2502    2.1502 C   0  0  0  0  0  0  0  0  0  0  0  0
    0.0145   -0.0255    3.0693 C   0  0  0  0  0  0  0  0  0  0  0  0
   -0.6238    3.8246    0.7089 C   0  0  0  0  0  0  0  0  0  0  0  0
   -3.8840    2.0042   -0.5965 H   0  0  0  0  0  0  0  0  0  0  0  0
   -2.3444    2.7443   -1.0968 H   0  0  0  0  0  0  0  0  0  0  0  0
   -2.9186    1.2475   -1.8937 H   0  0  0  0  0  0  0  0  0  0  0  0
   -3.6141   -1.0887   -1.3904 H   0  0  0  0  0  0  0  0  0  0  0  0
   -4.6882   -0.5851   -0.0446 H   0  0  0  0  0  0  0  0  0  0  0  0
   -3.8268   -2.1547    0.0269 H   0  0  0  0  0  0  0  0  0  0  0  0
   -0.9549   -2.7387    2.2740 H   0  0  0  0  0  0  0  0  0  0  0  0
   -2.3905   -2.1282    3.1598 H   0  0  0  0  0  0  0  0  0  0  0  0
   -2.5870   -2.9413    1.5757 H   0  0  0  0  0  0  0  0  0  0  0  0
    0.5394    0.9183    3.3052 H   0  0  0  0  0  0  0  0  0  0  0  0
    0.7768   -0.8168    2.9224 H   0  0  0  0  0  0  0  0  0  0  0  0
   -0.5807   -0.3038    3.9644 H   0  0  0  0  0  0  0  0  0  0  0  0
    0.2047    4.5539    0.8059 H   0  0  0  0  0  0  0  0  0  0  0  0
   -1.0566    3.9595   -0.2997 H   0  0  0  0  0  0  0  0  0  0  0  0
   -1.4056    4.0834    1.4503 H   0  0  0  0  0  0  0  0  0  0  0  0
   -0.3199    2.2571   -2.0370 H   0  0  0  0  0  0  0  0  0  0  0  0
    1.3686    0.5282   -3.2100 H   0  0  0  0  0  0  0  0  0  0  0  0
    3.6865   -1.0100   -2.1845 H   0  0  0  0  0  0  0  0  0  0  0  0
    5.0133   -1.4589   -0.1137 H   0  0  0  0  0  0  0  0  0  0  0  0
    4.4478   -0.3341    2.0409 H   0  0  0  0  0  0  0  0  0  0  0  0
    2.5353    1.2442    2.2079 H   0  0  0  0  0  0  0  0  0  0  0  0
    0.4688    2.4187    1.8953 H   0  0  0  0  0  0  0  0  0  0  0  0
  1  8  1  0  0  0  0
  1 10  1  1  0  0  0
  2  1  1  0  0  0  0
  3  2  2  0  0  0  0
  3  9  1  0  0  0  0
  4  9  2  0  0  0  0
  4  5  1  0  0  0  0
  5  6  2  0  0  0  0
  6  7  1  0  0  0  0
  6 40  1  0  0  0  0
  7 41  1  0  0  0  0
  8  7  2  0  0  0  0
  9  8  1  0  0  0  0
 10 42  1  1  0  0  0
 11 10  1  6  0  0  0
 11 15  1  0  0  0  0
 12 16  1  1  0  0  0
 12 13  1  0  0  0  0
 12 11  1  0  0  0  0
 13 14  2  0  0  0  0
 14 15  1  0  0  0  0
 14 18  1  0  0  0  0
 15 19  1  1  0  0  0
 16 21  1  0  0  0  0
 17 25  1  0  0  0  0
 17 26  1  0  0  0  0
 17 13  1  0  0  0  0
 18 27  1  0  0  0  0
 18 28  1  0  0  0  0
 19 30  1  0  0  0  0
 19 32  1  0  0  0  0
 20 33  1  0  0  0  0
 20 10  1  0  0  0  0
 20 35  1  0  0  0  0
 22 16  1  0  0  0  0
 23 16  1  0  0  0  0
 24 17  1  0  0  0  0
 29 18  1  0  0  0  0
 31 19  1  0  0  0  0
 34 20  1  0  0  0  0
 36  2  1  0  0  0  0
 37  3  1  0  0  0  0
 38  4  1  0  0  0  0
 39  5  1  0  0  0  0
M  END
