3,4
q = -2.0, confidence = 0.528

  5  6  0  0  1  0  0  0  0  0999 V2000
    4.3455   -1.5857   -0.0090 C   0  0  0  0  0  0  0  0  0  0  0  0
    3.6371   -0.4694    0.3321 C   0  0  2  0  0  0  0  0  0  0  0  0
    2.3887    0.0588    0.4304 C   0  0  0  0  0  0  0  0  0  0  0  0
    1.7301   -1.4045   -0.2322 C   0  0  0  0  0  0  0  0  0  0  0  0
    2.9990   -1.8392   -0.2418 C   0  0  1  0  0  0  0  0  0  0  0  0
  2  1  1  1  0  0  0
  2  3  1  0  0  0  0
  4  3  1  0  0  0  0
  5  4  1  6  0  0  0
  5  1  1  0  0  0  0
  5  2  1  0  0  0  0
M  END
