10,14
q = 0.0, confidence = 0.998

 33 33  0  0  1  0  0  0  0  0999 V2000
   -1.8964    0.3940   -0.3863 P   0  0  0  0  0  0  0  0  0  0  0  0
   -2.1482    1.0714   -1.7060 O   0  0  0  0  0  0  0  0  0  0  0  0
   -0.5975   -1.3629    1.7373 O   0  0  0  0  0  0  0  0  0  0  0  0
   -3.0824   -0.5679    0.1882 O   0  0  0  0  0  0  0  0  0  0  0  0
   -1.7191    1.3303    0.9249 O   0  0  0  0  0  0  0  0  0  0  0  0
   -0.4094   -0.6525   -0.5032 C   0  0  2  0  0  3  0  0  0  0  0  0
    0.1177   -1.4082    0.5996 C   0  0  0  0  0  0  0  0  0  0  0  0
    1.3465   -2.1182    0.4512 C   0  0  0  0  0  0  0  0  0  0  0  0
    1.8025   -2.6344    1.3037 H   0  0  0  0  0  0  0  0  0  0  0  0
    2.0133   -2.1158   -0.8093 C   0  0  0  0  0  3  0  0  0  0  0  0
    2.9750   -2.6400   -0.9028 H   0  0  0  0  0  0  0  0  0  0  0  0
    1.4585   -1.4483   -1.9345 C   0  0  0  0  0  3  0  0  0  0  0  0
    1.9909   -1.4359   -2.8943 H   0  0  0  0  0  0  0  0  0  0  0  0
    0.2735   -0.6865   -1.7591 C   0  0  0  0  0  3  0  0  0  0  0  0
   -0.1465   -0.0811   -2.5757 H   0  0  0  0  0  0  0  0  0  0  0  0
   -0.0192   -1.8483    2.9429 C   0  0  0  0  0  0  0  0  0  0  0  0
    0.1649   -2.9434    2.8972 H   0  0  0  0  0  0  0  0  0  0  0  0
   -0.7565   -1.6378    3.7379 H   0  0  0  0  0  0  0  0  0  0  0  0
    0.9281   -1.3164    3.1726 H   0  0  0  0  0  0  0  0  0  0  0  0
   -3.7493   -1.4644   -0.7246 C   0  0  0  0  0  0  0  0  0  0  0  0
   -4.8111   -1.4768   -0.4039 H   0  0  0  0  0  0  0  0  0  0  0  0
   -3.7152   -1.0403   -1.7516 H   0  0  0  0  0  0  0  0  0  0  0  0
   -3.1532   -2.8626   -0.6733 C   0  0  0  0  0  0  0  0  0  0  0  0
   -2.1140   -2.8769   -1.0586 H   0  0  0  0  0  0  0  0  0  0  0  0
   -3.7561   -3.5584   -1.2914 H   0  0  0  0  0  0  0  0  0  0  0  0
   -3.1403   -3.2415    0.3679 H   0  0  0  0  0  0  0  0  0  0  0  0
   -1.3226    2.7150    0.7416 C   0  0  0  0  0  0  0  0  0  0  0  0
   -0.6256    2.7988   -0.1185 H   0  0  0  0  0  0  0  0  0  0  0  0
   -0.7586    2.9700    1.6601 H   0  0  0  0  0  0  0  0  0  0  0  0
   -2.5345    3.6061    0.5429 C   0  0  0  0  0  0  0  0  0  0  0  0
   -3.0524    3.3379   -0.3987 H   0  0  0  0  0  0  0  0  0  0  0  0
   -2.2203    4.6679    0.4801 H   0  0  0  0  0  0  0  0  0  0  0  0
   -3.2450    3.5005    1.3867 H   0  0  0  0  0  0  0  0  0  0  0  0
  1  4  1  0  0  0  0
  1  5  1  0  0  0  0
  2  1  2  0  0  0  0
  3 16  1  0  0  0  0
  6  1  1  1  0  0  0
  6  7  1  0  0  0  0
  7  3  1  0  0  0  0
  8  7  2  0  0  0  0
  8  9  1  0  0  0  0
 10  8  1  0  0  0  0
 11 10  1  0  0  0  0
 12 14  1  0  0  0  0
 12 10  1  0  0  0  0
 13 12  1  0  0  0  0
 14  6  1  0  0  0  0
 15 14  1  0  0  0  0
 16 19  1  0  0  0  0
 16 18  1  0  0  0  0
 17 16  1  0  0  0  0
 20 23  1  0  0  0  0
 20 21  1  0  0  0  0
 20  4  1  0  0  0  0
 22 20  1  0  0  0  0
 23 26  1  0  0  0  0
 24 23  1  0  0  0  0
 25 23  1  0  0  0  0
 27  5  1  0  0  0  0
 27 29  1  0  0  0  0
 28 27  1  0  0  0  0
 30 27  1  0  0  0  0
 30 33  1  0  0  0  0
 31 30  1  0  0  0  0
 32 30  1  0  0  0  0
M  END
