24
q = -2.0, confidence = 0.584

 49 53  0  0  1  0  0  0  0  0999 V2000
   -0.4691    0.0465    1.0744 C   0  0  0  0  0  3  0  0  0  0  0  0
    0.7482   -0.2585    1.8006 C   0  0  0  0  0  0  0  0  0  0  0  0
    1.1608   -1.4087    2.5315 C   0  0  0  0  0  0  0  0  0  0  0  0
    0.4745   -2.2541    2.6732 H   0  0  0  0  0  0  0  0  0  0  0  0
    2.4287   -1.4335    3.0989 C   0  0  0  0  0  0  0  0  0  0  0  0
    2.7448   -2.3176    3.6731 H   0  0  0  0  0  0  0  0  0  0  0  0
    3.3271   -0.3392    2.9627 C   0  0  0  0  0  0  0  0  0  0  0  0
    4.3269   -0.4022    3.4164 H   0  0  0  0  0  0  0  0  0  0  0  0
    2.9462    0.8110    2.2819 C   0  0  0  0  0  0  0  0  0  0  0  0
    3.6321    1.6659    2.1898 H   0  0  0  0  0  0  0  0  0  0  0  0
    1.6583    0.8679    1.6981 C   0  0  0  0  0  0  0  0  0  0  0  0
    0.9708    1.9175    0.9782 C   0  0  0  0  0  0  0  0  0  0  0  0
    1.3700    3.2306    0.6340 C   0  0  0  0  0  0  0  0  0  0  0  0
    2.3799    3.5833    0.8898 H   0  0  0  0  0  0  0  0  0  0  0  0
    0.4724    4.0562   -0.0319 C   0  0  0  0  0  0  0  0  0  0  0  0
    0.7695    5.0774   -0.3118 H   0  0  0  0  0  0  0  0  0  0  0  0
   -0.8396    3.6010   -0.3358 C   0  0  0  0  0  0  0  0  0  0  0  0
   -1.5439    4.2874   -0.8297 H   0  0  0  0  0  0  0  0  0  0  0  0
   -1.2603    2.3160   -0.0154 C   0  0  0  0  0  0  0  0  0  0  0  0
   -2.2885    2.0010   -0.2256 H   0  0  0  0  0  0  0  0  0  0  0  0
   -0.3561    1.4269    0.6360 C   0  0  0  0  0  0  0  0  0  0  0  0
   -1.4959   -1.0037    0.6553 C   0  0  2  0  0  0  0  0  0  0  0  0
   -1.3690   -1.8630    1.3488 H   0  0  0  0  0  0  0  0  0  0  0  0
   -0.9597   -1.4576   -0.7058 C   0  0  2  0  0  3  0  0  0  0  0  0
    0.0967   -2.4353   -0.8269 C   0  0  2  0  0  3  0  0  0  0  0  0
    0.7014   -2.2617   -2.1120 C   0  0  0  0  0  0  0  0  0  0  0  0
    1.5457   -2.8460   -2.4960 H   0  0  0  0  0  0  0  0  0  0  0  0
    0.0300   -1.2187   -2.7872 C   0  0  0  0  0  0  0  0  0  0  0  0
    0.2576   -0.8459   -3.7927 H   0  0  0  0  0  0  0  0  0  0  0  0
   -1.0065   -0.7069   -1.9415 C   0  0  1  0  0  3  0  0  0  0  0  0
    0.4711   -3.5352    0.1267 C   0  0  0  0  0  0  0  0  0  0  0  0
    0.3767   -4.5138   -0.3879 H   0  0  0  0  0  0  0  0  0  0  0  0
   -0.1922   -3.5659    1.0105 H   0  0  0  0  0  0  0  0  0  0  0  0
    1.5176   -3.4431    0.4785 H   0  0  0  0  0  0  0  0  0  0  0  0
   -1.9948    0.3261   -2.4101 C   0  0  0  0  0  0  0  0  0  0  0  0
   -2.7477    0.5689   -1.6433 H   0  0  0  0  0  0  0  0  0  0  0  0
   -2.5411   -0.0723   -3.2910 H   0  0  0  0  0  0  0  0  0  0  0  0
   -1.4884    1.2593   -2.7254 H   0  0  0  0  0  0  0  0  0  0  0  0
   -2.9634   -0.6213    0.7333 C   0  0  0  0  0  0  0  0  0  0  0  0
   -3.4116    0.3372    1.6620 C   0  0  0  0  0  0  0  0  0  0  0  0
   -2.6770    0.8550    2.2975 H   0  0  0  0  0  0  0  0  0  0  0  0
   -4.7775    0.6394    1.7744 C   0  0  0  0  0  0  0  0  0  0  0  0
   -5.1101    1.3957    2.5017 H   0  0  0  0  0  0  0  0  0  0  0  0
   -5.7155   -0.0156    0.9613 C   0  0  0  0  0  0  0  0  0  0  0  0
   -6.7860    0.2251    1.0455 H   0  0  0  0  0  0  0  0  0  0  0  0
   -5.2781   -0.9798    0.0386 C   0  0  0  0  0  0  0  0  0  0  0  0
   -6.0059   -1.5004   -0.6025 H   0  0  0  0  0  0  0  0  0  0  0  0
   -3.9129   -1.2798   -0.0728 C   0  0  0  0  0  0  0  0  0  0  0  0
   -3.5696   -2.0299   -0.8026 H   0  0  0  0  0  0  0  0  0  0  0  0
  1  2  1  0  0  0  0
  2  3  1  0  0  0  0
  3  4  1  0  0  0  0
  3  5  2  0  0  0  0
  5  6  1  0  0  0  0
  7  5  1  0  0  0  0
  7  8  1  0  0  0  0
  9  7  2  0  0  0  0
 10  9  1  0  0  0  0
 11  2  2  0  0  0  0
 11  9  1  0  0  0  0
 12 11  1  0  0  0  0
 13 14  1  0  0  0  0
 13 12  2  0  0  0  0
 15 13  1  0  0  0  0
 16 15  1  0  0  0  0
 17 15  2  0  0  0  0
 17 19  1  0  0  0  0
 18 17  1  0  0  0  0
 19 21  2  0  0  0  0
 20 19  1  0  0  0  0
 21 12  1  0  0  0  0
 21  1  1  0  0  0  0
 22 39  1  0  0  0  0
 22  1  1  0  0  0  0
 22 23  1  1  0  0  0
 24 22  1  1  0  0  0
 25 24  1  0  0  0  0
 25 31  1  6  0  0  0
 26 25  1  0  0  0  0
 27 26  1  0  0  0  0
 28 26  2  0  0  0  0
 28 30  1  0  0  0  0
 29 28  1  0  0  0  0
 30 35  1  6  0  0  0
 30 24  1  0  0  0  0
 31 34  1  0  0  0  0
 31 33  1  0  0  0  0
 32 31  1  0  0  0  0
 35 36  1  0  0  0  0
 37 35  1  0  0  0  0
 38 35  1  0  0  0  0
 39 40  1  0  0  0  0
 40 42  2  0  0  0  0
 40 41  1  0  0  0  0
 42 43  1  0  0  0  0
 44 45  1  0  0  0  0
 44 42  1  0  0  0  0
 46 44  2  0  0  0  0
 47 46  1  0  0  0  0
 48 46  1  0  0  0  0
 48 39  2  0  0  0  0
 49 48  1  0  0  0  0
M  END
