2,4
q = -1.0

 30 30  0  0  1  0  0  0  0  0999 V2000
    0.3148   -0.9118   -0.8509 C   0  0  0  0  0  0  0  0  0  0  0  0
    1.1724    0.2272   -0.6149 C   0  0  2  0  0  3  0  0  0  0  0  0
    0.3106    1.3647   -0.3347 C   0  0  2  0  0  3  0  0  0  0  0  0
   -1.0600    0.9143   -0.3796 C   0  0  2  0  0  3  0  0  0  0  0  0
   -1.0622   -0.5054   -0.6943 C   0  0  0  0  0  0  0  0  0  0  0  0
    0.8587   -2.5186   -1.3756 S   0  0  0  0  0  0  0  0  0  0  0  0
    2.9149    0.3575   -0.8641 S   0  0  0  0  0  0  0  0  0  0  0  0
    0.8400    3.0206   -0.0094 S   0  0  0  0  0  0  0  0  0  0  0  0
   -2.4843    1.9297   -0.1168 S   0  0  0  0  0  0  0  0  0  0  0  0
   -2.5217   -1.4267   -1.0589 S   0  0  0  0  0  0  0  0  0  0  0  0
    1.0886   -2.1229   -3.1448 C   0  0  0  0  0  0  0  0  0  0  0  0
    3.5829   -0.9122    0.2605 C   0  0  0  0  0  0  0  0  0  0  0  0
    1.3331    3.5037   -1.7011 C   0  0  0  0  0  0  0  0  0  0  0  0
   -3.0773    2.0503   -1.8409 C   0  0  0  0  0  0  0  0  0  0  0  0
   -2.3841   -2.8688    0.0463 C   0  0  0  0  0  0  0  0  0  0  0  0
    1.4661   -3.0461   -3.6244 H   0  0  0  0  0  0  0  0  0  0  0  0
    1.8376   -1.3152   -3.2560 H   0  0  0  0  0  0  0  0  0  0  0  0
    0.1224   -1.8373   -3.6027 H   0  0  0  0  0  0  0  0  0  0  0  0
    4.6766   -0.9151    0.0893 H   0  0  0  0  0  0  0  0  0  0  0  0
    3.1640   -1.9077    0.0221 H   0  0  0  0  0  0  0  0  0  0  0  0
    3.3710   -0.6361    1.3112 H   0  0  0  0  0  0  0  0  0  0  0  0
    1.6788    4.5528   -1.6284 H   0  0  0  0  0  0  0  0  0  0  0  0
    0.4728    3.4546   -2.3969 H   0  0  0  0  0  0  0  0  0  0  0  0
    2.1678    2.8756   -2.0702 H   0  0  0  0  0  0  0  0  0  0  0  0
   -3.9794    2.6911   -1.8066 H   0  0  0  0  0  0  0  0  0  0  0  0
   -3.3587    1.0553   -2.2386 H   0  0  0  0  0  0  0  0  0  0  0  0
   -2.3194    2.5289   -2.4913 H   0  0  0  0  0  0  0  0  0  0  0  0
   -3.2731   -3.4927   -0.1688 H   0  0  0  0  0  0  0  0  0  0  0  0
   -2.4071   -2.5419    1.1036 H   0  0  0  0  0  0  0  0  0  0  0  0
   -1.4656   -3.4464   -0.1683 H   0  0  0  0  0  0  0  0  0  0  0  0
  1  5  2  0  0  0  0
  1  2  1  0  0  0  0
  2  7  1  6  0  0  0
  2  3  1  0  0  0  0
  3  8  1  6  0  0  0
  4  3  1  0  0  0  0
  4  9  1  6  0  0  0
  5  4  1  0  0  0  0
  6  1  1  0  0  0  0
  7 12  1  0  0  0  0
 10  5  1  0  0  0  0
 10 15  1  0  0  0  0
 11  6  1  0  0  0  0
 12 21  1  0  0  0  0
 13 22  1  0  0  0  0
 13  8  1  0  0  0  0
 14 25  1  0  0  0  0
 14  9  1  0  0  0  0
 15 29  1  0  0  0  0
 16 11  1  0  0  0  0
 17 11  1  0  0  0  0
 18 11  1  0  0  0  0
 19 12  1  0  0  0  0
 20 12  1  0  0  0  0
 23 13  1  0  0  0  0
 24 13  1  0  0  0  0
 26 14  1  0  0  0  0
 27 14  1  0  0  0  0
 28 15  1  0  0  0  0
 30 15  1  0  0  0  0
M  END
