19,32
q = 0.0, confidence = 0.974

 54 54  0  0  1  0  0  0  0  0999 V2000
    3.5993    0.5690   -0.7131 Si  0  0  0  0  0  0  0  0  0  0  0  0
    1.2440    2.0770    0.8315 O   0  0  0  0  0  0  0  0  0  0  0  0
   -1.8017    1.0187    2.2776 C   0  0  0  0  0  0  0  0  0  0  0  0
   -2.3847    1.6819    2.9456 H   0  0  0  0  0  0  0  0  0  0  0  0
   -0.8245    0.8407    2.7604 H   0  0  0  0  0  0  0  0  0  0  0  0
   -2.3191    0.0469    2.1902 H   0  0  0  0  0  0  0  0  0  0  0  0
   -1.5550    1.6682    0.9115 C   0  0  1  0  0  0  0  0  0  0  0  0
   -0.9975    2.6131    1.1274 H   0  0  0  0  0  0  0  0  0  0  0  0
   -0.6519    0.8104    0.0218 C   0  0  1  0  0  3  0  0  0  0  0  0
   -1.1728   -0.2614   -0.7896 C   0  0  0  0  0  0  0  0  0  0  0  0
    1.6959    0.3756   -0.8234 C   0  0  2  0  0  3  0  0  0  0  0  0
   -2.7746    1.9983    0.1503 N   0  0  0  0  0  0  0  0  0  0  0  0
   -0.2543   -0.9315   -1.6632 C   0  0  0  0  0  0  0  0  0  0  0  0
   -0.6057   -1.7603   -2.2898 H   0  0  0  0  0  0  0  0  0  0  0  0
   -3.8402    2.5920    0.9410 C   0  0  0  0  0  0  0  0  0  0  0  0
   -4.1874    1.9030    1.7331 H   0  0  0  0  0  0  0  0  0  0  0  0
   -4.7052    2.8031    0.2804 H   0  0  0  0  0  0  0  0  0  0  0  0
   -3.5430    3.5579    1.4293 H   0  0  0  0  0  0  0  0  0  0  0  0
    0.7581    1.0903   -0.0044 C   0  0  2  0  0  3  0  0  0  0  0  0
    4.3610   -0.9279   -1.5842 C   0  0  0  0  0  0  0  0  0  0  0  0
    4.1180   -0.9588   -2.6663 H   0  0  0  0  0  0  0  0  0  0  0  0
    4.0445   -1.8851   -1.1245 H   0  0  0  0  0  0  0  0  0  0  0  0
    5.4657   -0.8633   -1.4991 H   0  0  0  0  0  0  0  0  0  0  0  0
    4.1962    0.6422    1.0724 C   0  0  0  0  0  0  0  0  0  0  0  0
    4.0697   -0.3385    1.5714 H   0  0  0  0  0  0  0  0  0  0  0  0
    3.6268    1.3915    1.6551 H   0  0  0  0  0  0  0  0  0  0  0  0
    5.2728    0.9099    1.0992 H   0  0  0  0  0  0  0  0  0  0  0  0
    1.3471    3.3598    0.2150 C   0  0  0  0  0  0  0  0  0  0  0  0
    1.8644    3.3019   -0.7652 H   0  0  0  0  0  0  0  0  0  0  0  0
    1.9340    3.9989    0.9011 H   0  0  0  0  0  0  0  0  0  0  0  0
    0.3448    3.8189    0.0591 H   0  0  0  0  0  0  0  0  0  0  0  0
    1.1332   -0.6412   -1.6568 C   0  0  0  0  0  3  0  0  0  0  0  0
    1.7958   -1.2539   -2.2851 H   0  0  0  0  0  0  0  0  0  0  0  0
   -2.4507    2.8577   -0.9795 C   0  0  0  0  0  0  0  0  0  0  0  0
   -1.6907    2.3786   -1.6270 H   0  0  0  0  0  0  0  0  0  0  0  0
   -2.0495    3.8559   -0.6574 H   0  0  0  0  0  0  0  0  0  0  0  0
   -3.3540    3.0393   -1.5941 H   0  0  0  0  0  0  0  0  0  0  0  0
    4.1707    2.1210   -1.6477 C   0  0  0  0  0  0  0  0  0  0  0  0
    5.2659    2.0582   -1.8182 H   0  0  0  0  0  0  0  0  0  0  0  0
    3.9795    3.0548   -1.0830 H   0  0  0  0  0  0  0  0  0  0  0  0
    3.6811    2.2075   -2.6393 H   0  0  0  0  0  0  0  0  0  0  0  0
   -3.0096   -0.8585   -0.9717 Si  0  0  0  0  0  0  0  0  0  0  0  0
   -3.8984    0.1413   -2.3170 C   0  0  0  0  0  0  0  0  0  0  0  0
   -4.6724   -0.4988   -2.7890 H   0  0  0  0  0  0  0  0  0  0  0  0
   -3.2008    0.4671   -3.1147 H   0  0  0  0  0  0  0  0  0  0  0  0
   -4.3960    1.0379   -1.9030 H   0  0  0  0  0  0  0  0  0  0  0  0
   -2.8770   -2.6355   -1.6483 C   0  0  0  0  0  0  0  0  0  0  0  0
   -3.8977   -3.0712   -1.6723 H   0  0  0  0  0  0  0  0  0  0  0  0
   -2.2539   -3.2850   -1.0014 H   0  0  0  0  0  0  0  0  0  0  0  0
   -2.4820   -2.6876   -2.6834 H   0  0  0  0  0  0  0  0  0  0  0  0
   -4.0873   -1.0309    0.5702 C   0  0  0  0  0  0  0  0  0  0  0  0
   -4.3625   -0.0666    1.0305 H   0  0  0  0  0  0  0  0  0  0  0  0
   -3.6069   -1.6789    1.3288 H   0  0  0  0  0  0  0  0  0  0  0  0
   -5.0231   -1.5355    0.2491 H   0  0  0  0  0  0  0  0  0  0  0  0
  1 24  1  0  0  0  0
  3  5  1  0  0  0  0
  3  4  1  0  0  0  0
  6  3  1  0  0  0  0
  7  8  1  1  0  0  0
  7  3  1  0  0  0  0
  9  7  1  6  0  0  0
 10  9  1  0  0  0  0
 11  1  1  1  0  0  0
 11 19  1  0  0  0  0
 12  7  1  0  0  0  0
 12 15  1  0  0  0  0
 13 32  1  0  0  0  0
 13 10  2  0  0  0  0
 14 13  1  0  0  0  0
 15 18  1  0  0  0  0
 15 16  1  0  0  0  0
 17 15  1  0  0  0  0
 19  9  1  0  0  0  0
 19  2  1  1  0  0  0
 20 23  1  0  0  0  0
 20 22  1  0  0  0  0
 20  1  1  0  0  0  0
 21 20  1  0  0  0  0
 24 27  1  0  0  0  0
 24 25  1  0  0  0  0
 24 26  1  0  0  0  0
 28  2  1  0  0  0  0
 28 30  1  0  0  0  0
 29 28  1  0  0  0  0
 31 28  1  0  0  0  0
 32 11  1  0  0  0  0
 33 32  1  0  0  0  0
 34 36  1  0  0  0  0
 34 12  1  0  0  0  0
 35 34  1  0  0  0  0
 37 34  1  0  0  0  0
 38 40  1  0  0  0  0
 38  1  1  0  0  0  0
 39 38  1  0  0  0  0
 41 38  1  0  0  0  0
 42 10  1  0  0  0  0
 42 51  1  0  0  0  0
 43 46  1  0  0  0  0
 43 42  1  0  0  0  0
 44 43  1  0  0  0  0
 45 43  1  0  0  0  0
 47 49  1  0  0  0  0
 47 42  1  0  0  0  0
 48 47  1  0  0  0  0
 50 47  1  0  0  0  0
 51 52  1  0  0  0  0
 51 53  1  0  0  0  0
 54 51  1  0  0  0  0
M  END
