9,12
q = 0.0, confidence = 0.998

 33 35  0  0  0  0  0  0  0  0999 V2000
   -1.1794   -0.4946    0.6453 O   0  0  0  0  0  0  0  0  0  0  0  0
   -1.5035    0.7363    0.1873 C   0  0  0  0  0  0  0  0  0  0  0  0
   -0.5319    1.7646    0.0251 C   0  0  0  0  0  0  0  0  0  0  0  0
   -0.9316    3.0240   -0.4709 C   0  0  0  0  0  0  0  0  0  0  0  0
   -2.2722    3.2844   -0.7666 C   0  0  0  0  0  0  0  0  0  0  0  0
   -3.2240    2.2694   -0.5909 C   0  0  0  0  0  0  0  0  0  0  0  0
   -2.8679    0.9855   -0.1347 C   0  0  0  0  0  0  0  0  0  0  0  0
    0.8947    1.5499    0.3699 C   0  0  0  0  0  0  0  0  0  0  0  0
    1.2958    1.0223    1.6395 C   0  0  0  0  0  3  0  0  0  0  0  0
    2.6828    0.8782    1.9719 C   0  0  0  0  0  0  0  0  0  0  0  0
    3.6847    1.2394    1.0383 C   0  0  0  0  0  0  0  0  0  0  0  0
    3.3000    1.7682   -0.2409 C   0  0  0  0  0  3  0  0  0  0  0  0
    1.9317    1.9241   -0.5663 C   0  0  0  0  0  0  0  0  0  0  0  0
   -3.9037   -0.0732   -0.0020 C   0  0  0  0  0  0  0  0  0  0  0  0
   -5.1538    0.2307    0.5817 C   0  0  0  0  0  0  0  0  0  0  0  0
   -6.1620   -0.7394    0.6731 C   0  0  0  0  0  0  0  0  0  0  0  0
   -5.9400   -2.0337    0.1785 C   0  0  0  0  0  0  0  0  0  0  0  0
   -4.7022   -2.3483   -0.4059 C   0  0  0  0  0  0  0  0  0  0  0  0
   -3.6919   -1.3819   -0.4932 C   0  0  0  0  0  0  0  0  0  0  0  0
   -0.2005   -0.6381    0.5585 H   0  0  0  0  0  0  0  0  0  0  0  0
   -0.1729    3.8121   -0.5931 H   0  0  0  0  0  0  0  0  0  0  0  0
   -2.5769    4.2731   -1.1388 H   0  0  0  0  0  0  0  0  0  0  0  0
   -4.2777    2.4566   -0.8468 H   0  0  0  0  0  0  0  0  0  0  0  0
    0.5273    0.7397    2.3720 H   0  0  0  0  0  0  0  0  0  0  0  0
    2.9642    0.4631    2.9495 H   0  0  0  0  0  0  0  0  0  0  0  0
    4.7465    1.1051    1.2845 H   0  0  0  0  0  0  0  0  0  0  0  0
    4.0702    2.0336   -0.9781 H   0  0  0  0  0  0  0  0  0  0  0  0
    1.6395    2.3010   -1.5557 H   0  0  0  0  0  0  0  0  0  0  0  0
   -5.3267    1.2396    0.9870 H   0  0  0  0  0  0  0  0  0  0  0  0
   -7.1254   -0.4832    1.1399 H   0  0  0  0  0  0  0  0  0  0  0  0
   -6.7293   -2.7974    0.2501 H   0  0  0  0  0  0  0  0  0  0  0  0
   -4.5209   -3.3593   -0.8017 H   0  0  0  0  0  0  0  0  0  0  0  0
   -2.7280   -1.6345   -0.9556 H   0  0  0  0  0  0  0  0  0  0  0  0
  2  1  1  0  0  0  0
  3  2  1  0  0  0  0
  3  8  1  0  0  0  0
  4  3  2  0  0  0  0
  5  6  2  0  0  0  0
  5  4  1  0  0  0  0
  6  7  1  0  0  0  0
  7 14  1  0  0  0  0
  7  2  2  0  0  0  0
  8  9  1  0  0  0  0
  9 10  1  0  0  0  0
  9 24  1  0  0  0  0
 10 25  1  0  0  0  0
 11 26  1  0  0  0  0
 11 10  2  0  0  0  0
 12 11  1  0  0  0  0
 13 12  1  0  0  0  0
 13  8  2  0  0  0  0
 14 15  1  0  0  0  0
 15 16  2  0  0  0  0
 15 29  1  0  0  0  0
 16 30  1  0  0  0  0
 17 31  1  0  0  0  0
 17 16  1  0  0  0  0
 18 17  2  0  0  0  0
 19 18  1  0  0  0  0
 19 14  2  0  0  0  0
 20  1  1  0  0  0  0
 21  4  1  0  0  0  0
 22  5  1  0  0  0  0
 23  6  1  0  0  0  0
 27 12  1  0  0  0  0
 28 13  1  0  0  0  0
 32 18  1  0  0  0  0
 33 19  1  0  0  0  0
M  END
