1,4
q = 0.0, confidence = 0.738

 27 27  0  0  0  0  0  0  0  0999 V2000
    2.0496   -0.4418   -0.7497 C   0  0  0  0  0  3  0  0  0  0  0  0
    2.4291   -1.8985   -0.7903 C   0  0  0  0  0  0  0  0  0  0  0  0
    1.3898   -2.7706   -0.9691 C   0  0  0  0  0  0  0  0  0  0  0  0
    0.0249   -2.2517   -1.0537 C   0  0  0  0  0  2  0  0  0  0  0  0
   -0.9893   -3.0360   -1.5659 C   0  0  0  0  0  3  0  0  0  0  0  0
   -0.8301   -4.5035   -1.9060 C   0  0  0  0  0  0  0  0  0  0  0  0
   -2.3526   -2.5168   -1.9270 C   0  0  0  0  0  0  0  0  0  0  0  0
    3.8437   -2.3039   -0.7199 C   0  0  0  0  0  0  0  0  0  0  0  0
    4.8796   -1.3642   -0.9561 C   0  0  0  0  0  0  0  0  0  0  0  0
    6.2299   -1.7352   -0.8936 C   0  0  0  0  0  0  0  0  0  0  0  0
    6.5910   -3.0559   -0.5854 C   0  0  0  0  0  0  0  0  0  0  0  0
    5.5796   -4.0012   -0.3365 C   0  0  0  0  0  0  0  0  0  0  0  0
    4.2323   -3.6310   -0.3980 C   0  0  0  0  0  0  0  0  0  0  0  0
    2.2403    0.0476   -1.7343 H   0  0  0  0  0  0  0  0  0  0  0  0
    2.6629    0.1166   -0.0078 H   0  0  0  0  0  0  0  0  0  0  0  0
    1.5956   -3.8369   -1.1629 H   0  0  0  0  0  0  0  0  0  0  0  0
    0.0746   -4.9722   -1.4785 H   0  0  0  0  0  0  0  0  0  0  0  0
   -1.7111   -5.0769   -1.5419 H   0  0  0  0  0  0  0  0  0  0  0  0
   -0.8003   -4.6604   -3.0082 H   0  0  0  0  0  0  0  0  0  0  0  0
   -2.4342   -1.4254   -1.7980 H   0  0  0  0  0  0  0  0  0  0  0  0
   -2.5762   -2.7369   -2.9952 H   0  0  0  0  0  0  0  0  0  0  0  0
   -3.1613   -3.0097   -1.3403 H   0  0  0  0  0  0  0  0  0  0  0  0
    4.6136   -0.3274   -1.2087 H   0  0  0  0  0  0  0  0  0  0  0  0
    7.0101   -0.9830   -1.0902 H   0  0  0  0  0  0  0  0  0  0  0  0
    7.6512   -3.3470   -0.5317 H   0  0  0  0  0  0  0  0  0  0  0  0
    5.8474   -5.0383   -0.0801 H   0  0  0  0  0  0  0  0  0  0  0  0
    3.4554   -4.3762   -0.1705 H   0  0  0  0  0  0  0  0  0  0  0  0
  1 15  1  0  0  0  0
  2  1  1  0  0  0  0
  2  8  1  0  0  0  0
  3  2  2  0  0  0  0
  4  3  1  0  0  0  0
  5  4  1  0  0  0  0
  6  5  1  0  0  0  0
  6 18  1  0  0  0  0
  6 17  1  0  0  0  0
  7 20  1  0  0  0  0
  7  5  1  0  0  0  0
  7 22  1  0  0  0  0
  8 13  1  0  0  0  0
  9 10  1  0  0  0  0
  9  8  2  0  0  0  0
 10 11  2  0  0  0  0
 11 25  1  0  0  0  0
 11 12  1  0  0  0  0
 12 26  1  0  0  0  0
 13 12  2  0  0  0  0
 13 27  1  0  0  0  0
 14  1  1  0  0  0  0
 16  3  1  0  0  0  0
 19  6  1  0  0  0  0
 21  7  1  0  0  0  0
 23  9  1  0  0  0  0
 24 10  1  0  0  0  0
M  END
