3,16
q = -1.0

 27 28  0  0  0  0  0  0  0  0999 V2000
    0.0734    2.8548   -0.0519 N   0  0  0  0  0  0  0  0  0  0  0  0
    1.8695    2.1581   -1.0467 N   0  0  0  0  0  0  0  0  0  0  0  0
    0.7813    1.7140   -0.3273 C   0  0  0  0  0  2  0  0  0  0  0  0
    0.6887    3.9766   -0.5841 C   0  0  0  0  0  0  0  0  0  0  0  0
    0.2706    4.9816   -0.4759 H   0  0  0  0  0  0  0  0  0  0  0  0
    1.8232    3.5371   -1.2135 C   0  0  0  0  0  0  0  0  0  0  0  0
    2.5895    4.0808   -1.7735 H   0  0  0  0  0  0  0  0  0  0  0  0
    2.9395    1.3239   -1.5659 C   0  0  0  0  0  0  0  0  0  0  0  0
    3.9052    1.6057   -1.0995 H   0  0  0  0  0  0  0  0  0  0  0  0
    3.0110    1.4307   -2.6652 H   0  0  0  0  0  0  0  0  0  0  0  0
    2.6955    0.2710   -1.3384 H   0  0  0  0  0  0  0  0  0  0  0  0
   -1.1260    2.8541    0.7859 C   0  0  0  0  0  0  0  0  0  0  0  0
   -1.5856    3.8582    0.7117 H   0  0  0  0  0  0  0  0  0  0  0  0
   -0.7958    2.7166    1.8398 H   0  0  0  0  0  0  0  0  0  0  0  0
   -2.1103    1.7802    0.3926 C   0  0  0  0  0  0  0  0  0  0  0  0
   -1.6572    0.4660    0.1108 C   0  0  0  0  0  3  0  0  0  0  0  0
   -2.6384   -0.4947   -0.2194 C   0  0  0  0  0  0  0  0  0  0  0  0
   -2.3124   -1.5140   -0.4830 H   0  0  0  0  0  0  0  0  0  0  0  0
   -4.0179   -0.2057   -0.2467 C   0  0  0  0  0  0  0  0  0  0  0  0
   -4.4336    1.1063    0.0489 C   0  0  0  0  0  0  0  0  0  0  0  0
   -5.5046    1.3624    0.0262 H   0  0  0  0  0  0  0  0  0  0  0  0
   -3.4828    2.0886    0.3552 C   0  0  0  0  0  0  0  0  0  0  0  0
   -3.8140    3.1177    0.5752 H   0  0  0  0  0  0  0  0  0  0  0  0
   -5.0097   -1.2811   -0.6181 C   0  0  0  0  0  0  0  0  0  0  0  0
   -4.8885   -1.5854   -1.6794 H   0  0  0  0  0  0  0  0  0  0  0  0
   -6.0553   -0.9417   -0.4818 H   0  0  0  0  0  0  0  0  0  0  0  0
   -4.8646   -2.1966   -0.0074 H   0  0  0  0  0  0  0  0  0  0  0  0
  1 12  1  0  0  0  0
  2  3  1  0  0  0  0
  3  1  1  0  0  0  0
  4  5  1  0  0  0  0
  4  1  1  0  0  0  0
  6  2  1  0  0  0  0
  6  4  2  0  0  0  0
  7  6  1  0  0  0  0
  8 11  1  0  0  0  0
  8  9  1  0  0  0  0
  8  2  1  0  0  0  0
 10  8  1  0  0  0  0
 12 14  1  0  0  0  0
 13 12  1  0  0  0  0
 15 12  1  0  0  0  0
 16 15  2  0  0  0  0
 17 16  1  0  0  0  0
 18 17  1  0  0  0  0
 19 17  2  0  0  0  0
 19 20  1  0  0  0  0
 20 22  2  0  0  0  0
 21 20  1  0  0  0  0
 22 15  1  0  0  0  0
 22 23  1  0  0  0  0
 24 26  1  0  0  0  0
 24 19  1  0  0  0  0
 24 27  1  0  0  0  0
 25 24  1  0  0  0  0
M  END
