4,6
q = -1.0

 37 40  0  0  0  0  0  0  0  0999 V2000
    2.1346    1.9357   -0.0300 N   0  0  0  0  0  0  0  0  0  0  0  0
    1.6659   -0.2330   -0.0855 N   0  0  0  0  0  0  0  0  0  0  0  0
    0.7806    1.7334   -0.1093 N   0  0  0  0  0  0  0  0  0  0  0  0
    0.2492   -2.1048   -0.2440 C   0  0  0  0  0  3  0  0  0  0  0  0
    1.5961   -1.6517   -0.2478 C   0  0  0  0  0  0  0  0  0  0  0  0
    0.4361    0.4132   -0.1037 C   0  0  0  0  0  2  0  0  0  0  0  0
   -0.0748    2.8710   -0.2175 C   0  0  0  0  0  0  0  0  0  0  0  0
    2.6841   -2.5068   -0.4692 C   0  0  0  0  0  0  0  0  0  0  0  0
    3.7113   -2.1249   -0.5227 H   0  0  0  0  0  0  0  0  0  0  0  0
    2.6664    0.7244   -0.0044 C   0  0  0  0  0  0  0  0  0  0  0  0
   -0.6079    5.1417    0.4297 C   0  0  0  0  0  0  0  0  0  0  0  0
   -0.3915    6.0359    1.0332 H   0  0  0  0  0  0  0  0  0  0  0  0
    0.0295   -3.4834   -0.4172 C   0  0  0  0  0  0  0  0  0  0  0  0
   -1.0046   -3.8595   -0.4054 H   0  0  0  0  0  0  0  0  0  0  0  0
    0.2100    4.0109    0.5527 C   0  0  0  0  0  0  0  0  0  0  0  0
    1.0736    3.9964    1.2315 H   0  0  0  0  0  0  0  0  0  0  0  0
    2.4280   -3.8770   -0.6451 C   0  0  0  0  0  0  0  0  0  0  0  0
    3.2691   -4.5648   -0.8182 H   0  0  0  0  0  0  0  0  0  0  0  0
   -1.1516    2.8551   -1.1172 C   0  0  0  0  0  0  0  0  0  0  0  0
   -1.3448    1.9565   -1.7178 H   0  0  0  0  0  0  0  0  0  0  0  0
   -1.9630    3.9917   -1.2284 C   0  0  0  0  0  0  0  0  0  0  0  0
   -2.8059    3.9855   -1.9359 H   0  0  0  0  0  0  0  0  0  0  0  0
    1.1104   -4.3620   -0.6076 C   0  0  0  0  0  0  0  0  0  0  0  0
    0.9209   -5.4385   -0.7419 H   0  0  0  0  0  0  0  0  0  0  0  0
    4.1130    0.5070    0.1587 C   0  0  0  0  0  0  0  0  0  0  0  0
   -1.6977    5.1342   -0.4565 C   0  0  0  0  0  0  0  0  0  0  0  0
   -2.3371    6.0247   -0.5512 H   0  0  0  0  0  0  0  0  0  0  0  0
    5.0154    1.3136   -0.5667 C   0  0  0  0  0  0  0  0  0  0  0  0
    4.6165    2.0524   -1.2765 H   0  0  0  0  0  0  0  0  0  0  0  0
    6.3962    1.1676   -0.3800 C   0  0  0  0  0  0  0  0  0  0  0  0
    7.0936    1.7947   -0.9555 H   0  0  0  0  0  0  0  0  0  0  0  0
    6.8888    0.2232    0.5350 C   0  0  0  0  0  0  0  0  0  0  0  0
    7.9738    0.1076    0.6781 H   0  0  0  0  0  0  0  0  0  0  0  0
    4.6121   -0.4283    1.0915 C   0  0  0  0  0  0  0  0  0  0  0  0
    3.9131   -1.0364    1.6840 H   0  0  0  0  0  0  0  0  0  0  0  0
    5.9942   -0.5691    1.2730 C   0  0  0  0  0  0  0  0  0  0  0  0
    6.3751   -1.2985    2.0035 H   0  0  0  0  0  0  0  0  0  0  0  0
  1 10  2  0  0  0  0
  2 10  1  0  0  0  0
  3  6  1  0  0  0  0
  3  1  1  0  0  0  0
  5  4  1  0  0  0  0
  5  2  1  0  0  0  0
  6  2  1  0  0  0  0
  7  3  1  0  0  0  0
  7 15  1  0  0  0  0
  8  5  2  0  0  0  0
  9  8  1  0  0  0  0
 10 25  1  0  0  0  0
 11 15  2  0  0  0  0
 11 12  1  0  0  0  0
 13 14  1  0  0  0  0
 13  4  2  0  0  0  0
 15 16  1  0  0  0  0
 17 23  2  0  0  0  0
 17  8  1  0  0  0  0
 18 17  1  0  0  0  0
 19  7  2  0  0  0  0
 20 19  1  0  0  0  0
 21 19  1  0  0  0  0
 21 26  2  0  0  0  0
 22 21  1  0  0  0  0
 23 13  1  0  0  0  0
 24 23  1  0  0  0  0
 25 34  1  0  0  0  0
 26 11  1  0  0  0  0
 27 26  1  0  0  0  0
 28 30  1  0  0  0  0
 28 25  2  0  0  0  0
 29 28  1  0  0  0  0
 30 32  2  0  0  0  0
 31 30  1  0  0  0  0
 32 33  1  0  0  0  0
 32 36  1  0  0  0  0
 34 36  2  0  0  0  0
 34 35  1  0  0  0  0
 36 37  1  0  0  0  0
M  END
