3,15
q = -1.0, confidence = 0.024

 40 44  0  0  0  0  0  0  0  0999 V2000
    1.1422   -1.2478    0.0191 N   0  0  0  0  0  0  0  0  0  0  0  0
    1.0841    0.9637    0.0223 N   0  0  0  0  0  0  0  0  0  0  0  0
    0.2889   -0.1549    0.0302 C   0  0  0  0  0  2  0  0  0  0  0  0
    2.4383    0.5963   -0.0097 C   0  0  0  0  0  0  0  0  0  0  0  0
    3.5839    1.3705   -0.0201 C   0  0  0  0  0  0  0  0  0  0  0  0
    4.8439    0.7054   -0.0491 C   0  0  0  0  0  0  0  0  0  0  0  0
    6.0709    1.4342   -0.0657 C   0  0  0  0  0  0  0  0  0  0  0  0
    7.2922    0.7799   -0.0957 C   0  0  0  0  0  0  0  0  0  0  0  0
    7.3424   -0.6411   -0.1106 C   0  0  0  0  0  0  0  0  0  0  0  0
    6.1714   -1.3819   -0.0945 C   0  0  0  0  0  0  0  0  0  0  0  0
    4.8937   -0.7450   -0.0628 C   0  0  0  0  0  0  0  0  0  0  0  0
    3.6905   -1.5099   -0.0422 C   0  0  0  0  0  0  0  0  0  0  0  0
    2.4758   -0.8382   -0.0136 C   0  0  0  0  0  0  0  0  0  0  0  0
    0.4894   -2.5097    0.0481 C   0  0  0  0  0  0  0  0  0  0  0  0
   -0.9260   -2.3710    0.0683 C   0  0  0  0  0  3  0  0  0  0  0  0
   -1.6953   -3.5454    0.1066 C   0  0  0  0  0  0  0  0  0  0  0  0
   -1.0734   -4.8081    0.1252 C   0  0  0  0  0  0  0  0  0  0  0  0
    0.3256   -4.9148    0.1046 C   0  0  0  0  0  0  0  0  0  0  0  0
    1.1243   -3.7581    0.0654 C   0  0  0  0  0  0  0  0  0  0  0  0
    0.6284    2.3174    0.1166 C   0  0  0  0  0  0  0  0  0  0  0  0
    0.0889    2.7815    1.3259 C   0  0  0  0  0  0  0  0  0  0  0  0
   -0.3414    4.1113    1.4205 C   0  0  0  0  0  0  0  0  0  0  0  0
   -0.2297    4.9699    0.3148 C   0  0  0  0  0  0  0  0  0  0  0  0
    0.3127    4.4971   -0.8908 C   0  0  0  0  0  0  0  0  0  0  0  0
    0.7430    3.1662   -0.9948 C   0  0  0  0  0  0  0  0  0  0  0  0
    3.5292    2.4684   -0.0083 H   0  0  0  0  0  0  0  0  0  0  0  0
    6.0278    2.5344   -0.0541 H   0  0  0  0  0  0  0  0  0  0  0  0
    8.2274    1.3597   -0.1081 H   0  0  0  0  0  0  0  0  0  0  0  0
    8.3163   -1.1527   -0.1346 H   0  0  0  0  0  0  0  0  0  0  0  0
    6.2091   -2.4824   -0.1053 H   0  0  0  0  0  0  0  0  0  0  0  0
    3.7546   -2.6042   -0.0498 H   0  0  0  0  0  0  0  0  0  0  0  0
   -2.7924   -3.4602    0.1190 H   0  0  0  0  0  0  0  0  0  0  0  0
   -1.6904   -5.7196    0.1558 H   0  0  0  0  0  0  0  0  0  0  0  0
    0.8079   -5.9036    0.1192 H   0  0  0  0  0  0  0  0  0  0  0  0
    2.2174   -3.8490    0.0518 H   0  0  0  0  0  0  0  0  0  0  0  0
   -0.0001    2.0899    2.1755 H   0  0  0  0  0  0  0  0  0  0  0  0
   -0.7686    4.4791    2.3655 H   0  0  0  0  0  0  0  0  0  0  0  0
   -0.5686    6.0139    0.3926 H   0  0  0  0  0  0  0  0  0  0  0  0
    0.3961    5.1663   -1.7602 H   0  0  0  0  0  0  0  0  0  0  0  0
    1.1570    2.7740   -1.9350 H   0  0  0  0  0  0  0  0  0  0  0  0
  1  3  1  0  0  0  0
  1 14  1  0  0  0  0
  2  3  1  0  0  0  0
  2 20  1  0  0  0  0
  4  2  1  0  0  0  0
  5  4  2  0  0  0  0
  5 26  1  0  0  0  0
  6  5  1  0  0  0  0
  7 27  1  0  0  0  0
  7  6  2  0  0  0  0
  8  7  1  0  0  0  0
  9  8  2  0  0  0  0
  9 10  1  0  0  0  0
 10 11  2  0  0  0  0
 11  6  1  0  0  0  0
 11 12  1  0  0  0  0
 12 13  2  0  0  0  0
 13  4  1  0  0  0  0
 13  1  1  0  0  0  0
 14 19  2  0  0  0  0
 14 15  1  0  0  0  0
 15 16  2  0  0  0  0
 16 32  1  0  0  0  0
 16 17  1  0  0  0  0
 17 33  1  0  0  0  0
 18 34  1  0  0  0  0
 18 17  2  0  0  0  0
 19 18  1  0  0  0  0
 20 21  1  0  0  0  0
 21 22  2  0  0  0  0
 21 36  1  0  0  0  0
 22 37  1  0  0  0  0
 23 38  1  0  0  0  0
 23 22  1  0  0  0  0
 24 23  2  0  0  0  0
 25 24  1  0  0  0  0
 25 20  2  0  0  0  0
 28  8  1  0  0  0  0
 29  9  1  0  0  0  0
 30 10  1  0  0  0  0
 31 12  1  0  0  0  0
 35 19  1  0  0  0  0
 39 24  1  0  0  0  0
 40 25  1  0  0  0  0
M  END
