3,11
q = -1.0

 33 36  0  0  0  0  0  0  0  0999 V2000
    1.2975    1.3686    0.0001 N   0  0  0  0  0  0  0  0  0  0  0  0
   -0.3985    2.7822   -0.0001 N   0  0  0  0  0  0  0  0  0  0  0  0
   -0.0906    1.4500   -0.0001 C   0  0  0  0  0  2  0  0  0  0  0  0
    0.7690    3.5473    0.0000 C   0  0  0  0  0  0  0  0  0  0  0  0
    0.9510    4.9348    0.0000 C   0  0  0  0  0  0  0  0  0  0  0  0
    2.2725    5.4092    0.0002 C   0  0  0  0  0  0  0  0  0  0  0  0
    3.3648    4.5177    0.0003 C   0  0  0  0  0  0  0  0  0  0  0  0
    3.1829    3.1250    0.0003 C   0  0  0  0  0  0  0  0  0  0  0  0
    1.8649    2.6420    0.0001 C   0  0  0  0  0  0  0  0  0  0  0  0
    1.8236    0.0534    0.0000 C   0  0  0  0  0  0  0  0  0  0  0  0
    0.7748   -0.9331   -0.0002 C   0  0  0  0  0  3  0  0  0  0  0  0
    1.1431   -2.2706   -0.0002 C   0  0  0  0  0  0  0  0  0  0  0  0
    2.5155   -2.6682   -0.0001 C   0  0  0  0  0  0  0  0  0  0  0  0
    2.9060   -4.0390   -0.0001 C   0  0  0  0  0  0  0  0  0  0  0  0
    4.2458   -4.4032   -0.0000 C   0  0  0  0  0  0  0  0  0  0  0  0
    5.2578   -3.4068    0.0002 C   0  0  0  0  0  0  0  0  0  0  0  0
    4.9119   -2.0621    0.0003 C   0  0  0  0  0  0  0  0  0  0  0  0
    3.5461   -1.6571    0.0001 C   0  0  0  0  0  0  0  0  0  0  0  0
    3.1668   -0.2815    0.0002 C   0  0  0  0  0  0  0  0  0  0  0  0
   -1.7361    3.3469   -0.0005 C   0  0  0  0  0  0  0  0  0  0  0  0
    0.0943    5.6230   -0.0001 H   0  0  0  0  0  0  0  0  0  0  0  0
    2.4573    6.4934    0.0002 H   0  0  0  0  0  0  0  0  0  0  0  0
    4.3887    4.9194    0.0005 H   0  0  0  0  0  0  0  0  0  0  0  0
    4.0484    2.4529    0.0004 H   0  0  0  0  0  0  0  0  0  0  0  0
    0.3602   -3.0446   -0.0004 H   0  0  0  0  0  0  0  0  0  0  0  0
    2.1180   -4.8084   -0.0003 H   0  0  0  0  0  0  0  0  0  0  0  0
    4.5277   -5.4673   -0.0001 H   0  0  0  0  0  0  0  0  0  0  0  0
    6.3178   -3.7032    0.0003 H   0  0  0  0  0  0  0  0  0  0  0  0
    5.6942   -1.2862    0.0004 H   0  0  0  0  0  0  0  0  0  0  0  0
    3.9578    0.4789    0.0004 H   0  0  0  0  0  0  0  0  0  0  0  0
   -2.4709    2.5204    0.0003 H   0  0  0  0  0  0  0  0  0  0  0  0
   -1.8805    3.9757   -0.9025 H   0  0  0  0  0  0  0  0  0  0  0  0
   -1.8803    3.9774    0.9003 H   0  0  0  0  0  0  0  0  0  0  0  0
  1  9  1  0  0  0  0
  2  4  1  0  0  0  0
  3  2  1  0  0  0  0
  3  1  1  0  0  0  0
  4  9  1  0  0  0  0
  5  4  2  0  0  0  0
  5  6  1  0  0  0  0
  6 22  1  0  0  0  0
  6  7  2  0  0  0  0
  7 23  1  0  0  0  0
  8  7  1  0  0  0  0
  8 24  1  0  0  0  0
  9  8  2  0  0  0  0
 10  1  1  0  0  0  0
 10 19  1  0  0  0  0
 11 10  2  0  0  0  0
 12 11  1  0  0  0  0
 12 13  2  0  0  0  0
 13 18  1  0  0  0  0
 14 13  1  0  0  0  0
 14 15  2  0  0  0  0
 15 16  1  0  0  0  0
 16 17  2  0  0  0  0
 16 28  1  0  0  0  0
 17 29  1  0  0  0  0
 18 19  2  0  0  0  0
 18 17  1  0  0  0  0
 19 30  1  0  0  0  0
 20  2  1  0  0  0  0
 20 31  1  0  0  0  0
 20 33  1  0  0  0  0
 21  5  1  0  0  0  0
 25 12  1  0  0  0  0
 26 14  1  0  0  0  0
 27 15  1  0  0  0  0
 32 20  1  0  0  0  0
M  END
