3,17
q = -1.0

 42 47  0  0  0  0  0  0  0  0999 V2000
    0.9672   -1.2494    0.0295 N   0  0  0  0  0  0  0  0  0  0  0  0
    0.9353    0.9667    0.0466 N   0  0  0  0  0  0  0  0  0  0  0  0
    0.1168   -0.1446    0.0558 C   0  0  0  0  0  2  0  0  0  0  0  0
    2.2618    0.5621   -0.0146 C   0  0  0  0  0  0  0  0  0  0  0  0
    3.6117    1.1049   -0.0250 C   0  0  0  0  0  0  0  0  0  0  0  0
    4.2160    2.3586   -0.0082 C   0  0  0  0  0  0  0  0  0  0  0  0
    5.6418    2.4312   -0.0320 C   0  0  0  0  0  0  0  0  0  0  0  0
    6.4470    1.2955   -0.0757 C   0  0  0  0  0  0  0  0  0  0  0  0
    5.8538   -0.0084   -0.0939 C   0  0  0  0  0  0  0  0  0  0  0  0
    6.5432   -1.2621   -0.1370 C   0  0  0  0  0  0  0  0  0  0  0  0
    5.8206   -2.4515   -0.1495 C   0  0  0  0  0  0  0  0  0  0  0  0
    4.3931   -2.4834   -0.1167 C   0  0  0  0  0  0  0  0  0  0  0  0
    3.6856   -1.2855   -0.0686 C   0  0  0  0  0  0  0  0  0  0  0  0
    4.4474   -0.0632   -0.0637 C   0  0  0  0  0  0  0  0  0  0  0  0
    2.2887   -0.8340   -0.0275 C   0  0  0  0  0  0  0  0  0  0  0  0
    0.3025   -2.5025    0.0728 C   0  0  0  0  0  0  0  0  0  0  0  0
   -1.1119   -2.3562    0.0962 C   0  0  0  0  0  3  0  0  0  0  0  0
   -1.8802   -3.5325    0.1497 C   0  0  0  0  0  0  0  0  0  0  0  0
   -1.2587   -4.7945    0.1823 C   0  0  0  0  0  0  0  0  0  0  0  0
    0.1414   -4.9052    0.1634 C   0  0  0  0  0  0  0  0  0  0  0  0
    0.9375   -3.7490    0.1086 C   0  0  0  0  0  0  0  0  0  0  0  0
    0.5093    2.3285    0.1512 C   0  0  0  0  0  0  0  0  0  0  0  0
   -0.2012    2.7492    1.2857 C   0  0  0  0  0  0  0  0  0  0  0  0
   -0.5824    4.0924    1.3958 C   0  0  0  0  0  0  0  0  0  0  0  0
   -0.2559    5.0076    0.3817 C   0  0  0  0  0  0  0  0  0  0  0  0
    0.4541    4.5765   -0.7504 C   0  0  0  0  0  0  0  0  0  0  0  0
    0.8384    3.2328   -0.8707 C   0  0  0  0  0  0  0  0  0  0  0  0
    3.6191    3.2817    0.0231 H   0  0  0  0  0  0  0  0  0  0  0  0
    6.1154    3.4245   -0.0165 H   0  0  0  0  0  0  0  0  0  0  0  0
    7.5433    1.3937   -0.0953 H   0  0  0  0  0  0  0  0  0  0  0  0
    7.6436   -1.2801   -0.1611 H   0  0  0  0  0  0  0  0  0  0  0  0
    6.3611   -3.4093   -0.1862 H   0  0  0  0  0  0  0  0  0  0  0  0
    3.8862   -3.4578   -0.1360 H   0  0  0  0  0  0  0  0  0  0  0  0
   -2.9773   -3.4477    0.1627 H   0  0  0  0  0  0  0  0  0  0  0  0
   -1.8767   -5.7050    0.2247 H   0  0  0  0  0  0  0  0  0  0  0  0
    0.6219   -5.8945    0.1930 H   0  0  0  0  0  0  0  0  0  0  0  0
    2.0316   -3.8267    0.1035 H   0  0  0  0  0  0  0  0  0  0  0  0
   -0.4540    2.0165    2.0644 H   0  0  0  0  0  0  0  0  0  0  0  0
   -1.1387    4.4271    2.2842 H   0  0  0  0  0  0  0  0  0  0  0  0
   -0.5567    6.0621    0.4735 H   0  0  0  0  0  0  0  0  0  0  0  0
    0.7057    5.2884   -1.5507 H   0  0  0  0  0  0  0  0  0  0  0  0
    1.3839    2.8749   -1.7561 H   0  0  0  0  0  0  0  0  0  0  0  0
  1  3  1  0  0  0  0
  1 16  1  0  0  0  0
  2  3  1  0  0  0  0
  2 22  1  0  0  0  0
  4  2  1  0  0  0  0
  5  4  1  0  0  0  0
  5  6  1  0  0  0  0
  6 28  1  0  0  0  0
  7 29  1  0  0  0  0
  7  6  2  0  0  0  0
  8  7  1  0  0  0  0
  9  8  2  0  0  0  0
  9 14  1  0  0  0  0
 10  9  1  0  0  0  0
 11 10  2  0  0  0  0
 11 12  1  0  0  0  0
 12 13  2  0  0  0  0
 13 14  1  0  0  0  0
 13 15  1  0  0  0  0
 14  5  2  0  0  0  0
 15  4  2  0  0  0  0
 15  1  1  0  0  0  0
 16 17  2  0  0  0  0
 16 21  1  0  0  0  0
 17 18  1  0  0  0  0
 18 34  1  0  0  0  0
 18 19  2  0  0  0  0
 19 35  1  0  0  0  0
 20 19  1  0  0  0  0
 20 36  1  0  0  0  0
 21 20  2  0  0  0  0
 22 23  1  0  0  0  0
 23 24  2  0  0  0  0
 23 38  1  0  0  0  0
 24 39  1  0  0  0  0
 25 40  1  0  0  0  0
 25 24  1  0  0  0  0
 26 25  2  0  0  0  0
 27 26  1  0  0  0  0
 27 22  2  0  0  0  0
 30  8  1  0  0  0  0
 31 10  1  0  0  0  0
 32 11  1  0  0  0  0
 33 12  1  0  0  0  0
 37 21  1  0  0  0  0
 41 26  1  0  0  0  0
 42 27  1  0  0  0  0
M  END
