11,14
q = 0.0, confidence = 1.0

 58 61  0  0  1  0  0  0  0  0999 V2000
   -2.7662   -0.9189   -1.9958 S   0  0  0  0  0  0  0  0  0  0  0  0
   -4.5701   -1.8100    0.2800 S   0  0  0  0  0  0  0  0  0  0  0  0
    0.4164    2.8639   -0.8525 O   0  0  0  0  0  0  0  0  0  0  0  0
    0.2435    4.0833    1.1407 O   0  0  0  0  0  0  0  0  0  0  0  0
    3.6002    1.7217   -0.5119 O   0  0  0  0  0  0  0  0  0  0  0  0
    3.6724    0.1398   -2.1342 O   0  0  0  0  0  0  0  0  0  0  0  0
    0.1304    2.8160    0.5335 C   0  0  0  0  0  0  0  0  0  0  0  0
    1.1908    1.8080    1.1348 C   0  0  0  0  0  0  0  0  0  0  0  0
    1.0668    0.4710    0.4637 C   0  0  2  0  0  3  0  0  0  0  0  0
    1.8201    0.0773   -0.6931 C   0  0  2  0  0  3  0  0  0  0  0  0
    1.4134   -1.0988   -1.4120 C   0  0  0  0  0  3  0  0  0  0  0  0
    0.2381   -1.8053   -1.0640 C   0  0  0  0  0  0  0  0  0  0  0  0
   -0.4909   -1.4369    0.1014 C   0  0  0  0  0  0  0  0  0  0  0  0
   -0.0138   -0.3560    0.8892 C   0  0  0  0  0  3  0  0  0  0  0  0
   -1.8687   -1.9718    0.3882 C   0  0  0  0  0  0  0  0  0  0  0  0
   -2.9744   -0.9776   -0.1533 C   0  0  0  0  0  0  0  0  0  0  0  0
   -2.8155    0.4052    0.4948 C   0  0  0  0  0  0  0  0  0  0  0  0
   -3.4357    0.7186    1.7210 C   0  0  0  0  0  0  0  0  0  0  0  0
   -3.0253    1.8414    2.4588 C   0  0  0  0  0  0  0  0  0  0  0  0
   -1.9237    2.6049    2.0426 C   0  0  0  0  0  0  0  0  0  0  0  0
   -1.2830    2.2982    0.8298 C   0  0  0  0  0  0  0  0  0  0  0  0
   -1.8045    1.2704    0.0208 C   0  0  0  0  0  0  0  0  0  0  0  0
    3.0981    0.7583   -1.0718 C   0  0  0  0  0  0  0  0  0  0  0  0
    5.0116    0.5599   -2.4775 C   0  0  0  0  0  0  0  0  0  0  0  0
    6.0396   -0.1271   -1.5927 C   0  0  0  0  0  0  0  0  0  0  0  0
   -0.3792    3.7749   -1.5989 C   0  0  0  0  0  0  0  0  0  0  0  0
    1.5298    4.6928    1.0944 C   0  0  0  0  0  0  0  0  0  0  0  0
   -4.2201    0.1073   -2.4201 C   0  0  0  0  0  0  0  0  0  0  0  0
   -5.5595   -0.5149   -2.0274 C   0  0  0  0  0  0  0  0  0  0  0  0
   -5.7459   -0.6563   -0.5174 C   0  0  0  0  0  0  0  0  0  0  0  0
    0.9803    1.7246    2.2181 H   0  0  0  0  0  0  0  0  0  0  0  0
    2.1975    2.2283    0.9752 H   0  0  0  0  0  0  0  0  0  0  0  0
    2.0171   -1.4195   -2.2686 H   0  0  0  0  0  0  0  0  0  0  0  0
   -0.0838   -2.6696   -1.6602 H   0  0  0  0  0  0  0  0  0  0  0  0
   -0.5271   -0.1087    1.8256 H   0  0  0  0  0  0  0  0  0  0  0  0
   -2.0316   -2.0790    1.4798 H   0  0  0  0  0  0  0  0  0  0  0  0
   -2.0332   -2.9595   -0.0865 H   0  0  0  0  0  0  0  0  0  0  0  0
   -4.2166    0.0464    2.1082 H   0  0  0  0  0  0  0  0  0  0  0  0
   -3.5355    2.0855    3.4031 H   0  0  0  0  0  0  0  0  0  0  0  0
   -1.5273    3.4201    2.6641 H   0  0  0  0  0  0  0  0  0  0  0  0
   -1.3284    1.0488   -0.9447 H   0  0  0  0  0  0  0  0  0  0  0  0
    5.0742    1.6632   -2.3869 H   0  0  0  0  0  0  0  0  0  0  0  0
    5.1264    0.2728   -3.5407 H   0  0  0  0  0  0  0  0  0  0  0  0
    7.0638    0.1228   -1.9355 H   0  0  0  0  0  0  0  0  0  0  0  0
    5.9368    0.2091   -0.5426 H   0  0  0  0  0  0  0  0  0  0  0  0
    5.9147   -1.2276   -1.6220 H   0  0  0  0  0  0  0  0  0  0  0  0
   -0.0450    3.6956   -2.6503 H   0  0  0  0  0  0  0  0  0  0  0  0
   -1.4622    3.5255   -1.5397 H   0  0  0  0  0  0  0  0  0  0  0  0
   -0.2466    4.8206   -1.2476 H   0  0  0  0  0  0  0  0  0  0  0  0
    1.3694    5.7843    1.1887 H   0  0  0  0  0  0  0  0  0  0  0  0
    2.1783    4.3575    1.9335 H   0  0  0  0  0  0  0  0  0  0  0  0
    2.0482    4.4805    0.1356 H   0  0  0  0  0  0  0  0  0  0  0  0
   -4.1479    0.2365   -3.5185 H   0  0  0  0  0  0  0  0  0  0  0  0
   -4.0923    1.1103   -1.9578 H   0  0  0  0  0  0  0  0  0  0  0  0
   -5.6663   -1.5073   -2.5133 H   0  0  0  0  0  0  0  0  0  0  0  0
   -6.3742    0.1351   -2.4181 H   0  0  0  0  0  0  0  0  0  0  0  0
   -5.6742    0.3319   -0.0135 H   0  0  0  0  0  0  0  0  0  0  0  0
   -6.7419   -1.0795   -0.2775 H   0  0  0  0  0  0  0  0  0  0  0  0
  1 16  1  0  0  0  0
  3  7  1  0  0  0  0
  6 23  1  0  0  0  0
  7 21  1  0  0  0  0
  7  8  1  0  0  0  0
  7  4  1  0  0  0  0
  8 31  1  0  0  0  0
  9 14  1  6  0  0  0
  9  8  1  0  0  0  0
 10 23  1  1  0  0  0
 10  9  1  0  0  0  0
 11 12  1  0  0  0  0
 11 10  1  0  0  0  0
 12 13  2  0  0  0  0
 13 15  1  0  0  0  0
 13 14  1  0  0  0  0
 14 35  1  0  0  0  0
 15 36  1  0  0  0  0
 16  2  1  0  0  0  0
 16 15  1  0  0  0  0
 16 17  1  0  0  0  0
 17 18  1  0  0  0  0
 18 38  1  0  0  0  0
 18 19  2  0  0  0  0
 19 39  1  0  0  0  0
 20 19  1  0  0  0  0
 20 40  1  0  0  0  0
 21 20  2  0  0  0  0
 22 17  2  0  0  0  0
 22 21  1  0  0  0  0
 23  5  2  0  0  0  0
 24 42  1  0  0  0  0
 24  6  1  0  0  0  0
 24 25  1  0  0  0  0
 25 45  1  0  0  0  0
 26 48  1  0  0  0  0
 26 49  1  0  0  0  0
 26  3  1  0  0  0  0
 27  4  1  0  0  0  0
 27 50  1  0  0  0  0
 27 51  1  0  0  0  0
 28 29  1  0  0  0  0
 28  1  1  0  0  0  0
 28 54  1  0  0  0  0
 29 30  1  0  0  0  0
 30 58  1  0  0  0  0
 30 57  1  0  0  0  0
 30  2  1  0  0  0  0
 32  8  1  0  0  0  0
 33 11  1  0  0  0  0
 34 12  1  0  0  0  0
 37 15  1  0  0  0  0
 41 22  1  0  0  0  0
 43 24  1  0  0  0  0
 44 25  1  0  0  0  0
 46 25  1  0  0  0  0
 47 26  1  0  0  0  0
 52 27  1  0  0  0  0
 53 28  1  0  0  0  0
 55 29  1  0  0  0  0
 56 29  1  0  0  0  0
M  END
