3,11
q = 0.0, confidence = 0.978

 14 14  0  0  0  0  0  0  0  0999 V2000
   -1.9862   -0.0182   -0.0000 C   0  0  0  0  0  0  0  0  0  0  0  0
   -1.4778   -0.5468    1.2299 C   0  0  0  0  0  0  0  0  0  0  0  0
   -0.5547   -1.6292    1.2202 C   0  0  0  0  0  3  0  0  0  0  0  0
   -0.1161   -2.2110   -0.0008 C   0  0  0  0  0  3  0  0  0  0  0  0
   -2.9278    0.9870    0.0003 N   0  0  0  0  0  0  0  0  0  0  0  0
   -2.9701    1.5555    0.8483 H   0  0  0  0  0  0  0  0  0  0  0  0
   -1.7935   -0.1028    2.1838 H   0  0  0  0  0  0  0  0  0  0  0  0
   -0.1671   -2.0077    2.1766 H   0  0  0  0  0  0  0  0  0  0  0  0
    0.6161   -3.0284   -0.0011 H   0  0  0  0  0  0  0  0  0  0  0  0
   -1.4778   -0.5459   -1.2303 C   0  0  0  0  0  3  0  0  0  0  0  0
   -0.5547   -1.6283   -1.2214 C   0  0  0  0  0  3  0  0  0  0  0  0
   -2.9702    1.5561   -0.8472 H   0  0  0  0  0  0  0  0  0  0  0  0
   -1.7935   -0.1013   -2.1840 H   0  0  0  0  0  0  0  0  0  0  0  0
   -0.1671   -2.0062   -2.1781 H   0  0  0  0  0  0  0  0  0  0  0  0
  1  5  1  0  0  0  0
  1  2  2  0  0  0  0
  2  7  1  0  0  0  0
  3  2  1  0  0  0  0
  3  8  1  0  0  0  0
  4  3  1  0  0  0  0
  5  6  1  0  0  0  0
  9  4  1  0  0  0  0
 10 11  1  0  0  0  0
 10  1  1  0  0  0  0
 11  4  1  0  0  0  0
 12  5  1  0  0  0  0
 13 10  1  0  0  0  0
 14 11  1  0  0  0  0
M  END
