6,9
q = 0.0, confidence = 0.998

 55 56  0  0  1  0  0  0  0  0999 V2000
    0.4886    2.0689   -0.6359 O   0  0  0  0  0  0  0  0  0  0  0  0
   -0.2491    3.9530    0.3883 O   0  0  0  0  0  0  0  0  0  0  0  0
    0.9905   -1.3720   -1.3601 O   0  0  0  0  0  0  0  0  0  0  0  0
    2.0113   -0.5451    0.4984 O   0  0  0  0  0  0  0  0  0  0  0  0
   -2.1528    0.9274   -0.3889 C   0  0  0  0  0  0  0  0  0  0  0  0
   -3.2540    1.1320   -1.2642 C   0  0  0  0  0  3  0  0  0  0  0  0
   -3.7583    0.0771   -2.0843 C   0  0  0  0  0  0  0  0  0  0  0  0
   -3.1458   -1.1939   -2.0363 C   0  0  0  0  0  0  0  0  0  0  0  0
   -2.0328   -1.4095   -1.1697 C   0  0  0  0  0  3  0  0  0  0  0  0
   -1.5258   -0.3736   -0.3416 C   0  0  0  0  0  0  0  0  0  0  0  0
   -1.6822    2.0744    0.4701 C   0  0  0  0  0  0  0  0  0  0  0  0
   -0.3657    2.6676   -0.0080 C   0  0  0  0  0  0  0  0  0  0  0  0
    0.9901    4.5969    0.0542 C   0  0  0  0  0  0  0  0  0  0  0  0
   -0.3484   -0.6781    0.5484 C   0  0  0  0  0  0  0  0  0  0  0  0
    0.9392   -0.8904   -0.2441 C   0  0  0  0  0  0  0  0  0  0  0  0
    3.3217   -0.8161   -0.0754 C   0  0  2  0  0  0  0  0  0  0  0  0
    3.7361   -2.2400    0.2955 C   0  0  0  0  0  0  0  0  0  0  0  0
    5.1539   -2.5768   -0.1917 C   0  0  1  0  0  0  0  0  0  0  0  0
    6.1414   -1.5200    0.3261 C   0  0  0  0  0  0  0  0  0  0  0  0
    5.7125   -0.1001   -0.0574 C   0  0  0  0  0  0  0  0  0  0  0  0
    4.2979    0.2437    0.4472 C   0  0  1  0  0  0  0  0  0  0  0  0
    3.8390    1.6923    0.1345 C   0  0  0  0  0  0  0  0  0  0  0  0
    3.7851    2.0184   -1.3635 C   0  0  0  0  0  0  0  0  0  0  0  0
    4.6798    2.7249    0.8962 C   0  0  0  0  0  0  0  0  0  0  0  0
    5.5621   -3.9976    0.2023 C   0  0  0  0  0  0  0  0  0  0  0  0
   -3.7560    2.1098   -1.2690 H   0  0  0  0  0  0  0  0  0  0  0  0
   -4.6449    0.2457   -2.7104 H   0  0  0  0  0  0  0  0  0  0  0  0
   -3.5498   -2.0277   -2.6262 H   0  0  0  0  0  0  0  0  0  0  0  0
   -1.5722   -2.4042   -1.1135 H   0  0  0  0  0  0  0  0  0  0  0  0
   -2.4472    2.8723    0.5157 H   0  0  0  0  0  0  0  0  0  0  0  0
   -1.5308    1.7500    1.5223 H   0  0  0  0  0  0  0  0  0  0  0  0
    0.8849    5.6470    0.3786 H   0  0  0  0  0  0  0  0  0  0  0  0
    1.1803    4.5419   -1.0359 H   0  0  0  0  0  0  0  0  0  0  0  0
    1.8366    4.1143    0.5830 H   0  0  0  0  0  0  0  0  0  0  0  0
   -0.5388   -1.6303    1.0884 H   0  0  0  0  0  0  0  0  0  0  0  0
   -0.1803    0.0870    1.3247 H   0  0  0  0  0  0  0  0  0  0  0  0
    3.2221   -0.7426   -1.1784 H   0  0  0  0  0  0  0  0  0  0  0  0
    3.0018   -2.9530   -0.1332 H   0  0  0  0  0  0  0  0  0  0  0  0
    3.6905   -2.3434    1.4028 H   0  0  0  0  0  0  0  0  0  0  0  0
    5.1495   -2.5119   -1.3050 H   0  0  0  0  0  0  0  0  0  0  0  0
    6.2051   -1.6033    1.4352 H   0  0  0  0  0  0  0  0  0  0  0  0
    7.1606   -1.7314   -0.0615 H   0  0  0  0  0  0  0  0  0  0  0  0
    5.7419   -0.0001   -1.1646 H   0  0  0  0  0  0  0  0  0  0  0  0
    6.4392    0.6377    0.3395 H   0  0  0  0  0  0  0  0  0  0  0  0
    4.3058    0.1423    1.5578 H   0  0  0  0  0  0  0  0  0  0  0  0
    2.7975    1.7607    0.5132 H   0  0  0  0  0  0  0  0  0  0  0  0
    3.1150    1.3306   -1.9158 H   0  0  0  0  0  0  0  0  0  0  0  0
    4.7901    1.9817   -1.8331 H   0  0  0  0  0  0  0  0  0  0  0  0
    3.3862    3.0408   -1.5195 H   0  0  0  0  0  0  0  0  0  0  0  0
    4.2608    3.7455    0.7753 H   0  0  0  0  0  0  0  0  0  0  0  0
    5.7258    2.7635    0.5266 H   0  0  0  0  0  0  0  0  0  0  0  0
    4.7156    2.5023    1.9829 H   0  0  0  0  0  0  0  0  0  0  0  0
    6.5738   -4.2472   -0.1775 H   0  0  0  0  0  0  0  0  0  0  0  0
    4.8530   -4.7500   -0.1989 H   0  0  0  0  0  0  0  0  0  0  0  0
    5.5813   -4.1106    1.3071 H   0  0  0  0  0  0  0  0  0  0  0  0
  1 12  2  0  0  0  0
  3 15  2  0  0  0  0
  5 10  2  0  0  0  0
  5 11  1  0  0  0  0
  6  5  1  0  0  0  0
  7  8  2  0  0  0  0
  7  6  1  0  0  0  0
  8  9  1  0  0  0  0
  9 29  1  0  0  0  0
  9 10  1  0  0  0  0
 10 14  1  0  0  0  0
 11 30  1  0  0  0  0
 11 31  1  0  0  0  0
 12  2  1  0  0  0  0
 12 11  1  0  0  0  0
 13 32  1  0  0  0  0
 13  2  1  0  0  0  0
 13 34  1  0  0  0  0
 14 35  1  0  0  0  0
 14 36  1  0  0  0  0
 15  4  1  0  0  0  0
 15 14  1  0  0  0  0
 16 37  1  6  0  0  0
 16 17  1  0  0  0  0
 16 21  1  0  0  0  0
 16  4  1  0  0  0  0
 17 39  1  0  0  0  0
 18 40  1  6  0  0  0
 18 25  1  0  0  0  0
 18 17  1  0  0  0  0
 18 19  1  0  0  0  0
 19 41  1  0  0  0  0
 20 19  1  0  0  0  0
 20 44  1  0  0  0  0
 20 21  1  0  0  0  0
 21 45  1  1  0  0  0
 22 21  1  0  0  0  0
 22 46  1  0  0  0  0
 22 24  1  0  0  0  0
 23 22  1  0  0  0  0
 24 52  1  0  0  0  0
 25 55  1  0  0  0  0
 26  6  1  0  0  0  0
 27  7  1  0  0  0  0
 28  8  1  0  0  0  0
 33 13  1  0  0  0  0
 38 17  1  0  0  0  0
 42 19  1  0  0  0  0
 43 20  1  0  0  0  0
 47 23  1  0  0  0  0
 48 23  1  0  0  0  0
 49 23  1  0  0  0  0
 50 24  1  0  0  0  0
 51 24  1  0  0  0  0
 53 25  1  0  0  0  0
 54 25  1  0  0  0  0
M  END
