2,5
q = 0.0, confidence = 0.532

 37 38  0  0  0  0  0  0  0  0999 V2000
    0.1045   -2.3209    2.6052 Si  0  0  0  0  0  0  0  0  0  0  0  0
    1.4464   -1.4749    0.2589 C   0  0  0  0  0  2  0  0  0  0  0  0
    1.5347   -2.2399    1.3842 C   0  0  0  0  0  3  0  0  0  0  0  0
   -1.3980   -2.2332    1.4771 C   0  0  0  0  0  3  0  0  0  0  0  0
   -1.4030   -1.4687    0.3467 C   0  0  0  0  0  2  0  0  0  0  0  0
    2.3657   -1.6882   -0.8874 C   0  0  0  0  0  0  0  0  0  0  0  0
    3.7361   -2.0006   -0.7045 C   0  0  0  0  0  0  0  0  0  0  0  0
    4.5959   -2.1763   -1.7981 C   0  0  0  0  0  0  0  0  0  0  0  0
    4.1067   -2.0649   -3.1104 C   0  0  0  0  0  0  0  0  0  0  0  0
    2.7456   -1.7815   -3.3136 C   0  0  0  0  0  0  0  0  0  0  0  0
    1.8932   -1.5879   -2.2184 C   0  0  0  0  0  0  0  0  0  0  0  0
   -2.3970   -1.6883   -0.7356 C   0  0  0  0  0  0  0  0  0  0  0  0
   -3.6627   -2.2812   -0.4984 C   0  0  0  0  0  0  0  0  0  0  0  0
   -4.5940   -2.4491   -1.5299 C   0  0  0  0  0  0  0  0  0  0  0  0
   -4.2893   -2.0374   -2.8400 C   0  0  0  0  0  0  0  0  0  0  0  0
   -3.0372   -1.4590   -3.1012 C   0  0  0  0  0  0  0  0  0  0  0  0
   -2.1123   -1.2859   -2.0619 C   0  0  0  0  0  0  0  0  0  0  0  0
    0.1239   -4.0134    3.4647 C   0  0  0  0  0  0  0  0  0  0  0  0
    0.1438   -0.9921    3.9641 C   0  0  0  0  0  0  0  0  0  0  0  0
    2.3156   -3.0287    1.4311 H   0  0  0  0  0  0  0  0  0  0  0  0
   -2.1717   -3.0210    1.5965 H   0  0  0  0  0  0  0  0  0  0  0  0
    4.1284   -2.0926    0.3205 H   0  0  0  0  0  0  0  0  0  0  0  0
    5.6601   -2.4004   -1.6245 H   0  0  0  0  0  0  0  0  0  0  0  0
    4.7819   -2.2010   -3.9689 H   0  0  0  0  0  0  0  0  0  0  0  0
    2.3447   -1.7054   -4.3364 H   0  0  0  0  0  0  0  0  0  0  0  0
    0.8295   -1.3572   -2.3731 H   0  0  0  0  0  0  0  0  0  0  0  0
   -3.9266   -2.5861    0.5257 H   0  0  0  0  0  0  0  0  0  0  0  0
   -5.5753   -2.8983   -1.3099 H   0  0  0  0  0  0  0  0  0  0  0  0
   -5.0243   -2.1667   -3.6491 H   0  0  0  0  0  0  0  0  0  0  0  0
   -2.7800   -1.1345   -4.1217 H   0  0  0  0  0  0  0  0  0  0  0  0
   -1.1362   -0.8115   -2.2494 H   0  0  0  0  0  0  0  0  0  0  0  0
    1.0397   -4.1401    4.0788 H   0  0  0  0  0  0  0  0  0  0  0  0
   -0.7512   -4.1321    4.1368 H   0  0  0  0  0  0  0  0  0  0  0  0
    0.0963   -4.8341    2.7191 H   0  0  0  0  0  0  0  0  0  0  0  0
    1.0239   -1.1247    4.6270 H   0  0  0  0  0  0  0  0  0  0  0  0
    0.1994    0.0177    3.5137 H   0  0  0  0  0  0  0  0  0  0  0  0
   -0.7709   -1.0438    4.5902 H   0  0  0  0  0  0  0  0  0  0  0  0
  1 18  1  0  0  0  0
  1 19  1  0  0  0  0
  2  3  1  0  0  0  0
  3 20  1  0  0  0  0
  3  1  1  0  0  0  0
  4 21  1  0  0  0  0
  4  1  1  0  0  0  0
  5  4  1  0  0  0  0
  6  7  1  0  0  0  0
  6  2  1  0  0  0  0
  7 22  1  0  0  0  0
  8 23  1  0  0  0  0
  8  7  2  0  0  0  0
  9  8  1  0  0  0  0
 10  9  2  0  0  0  0
 10 11  1  0  0  0  0
 11  6  2  0  0  0  0
 12 13  1  0  0  0  0
 12  5  1  0  0  0  0
 13 27  1  0  0  0  0
 14 28  1  0  0  0  0
 14 13  2  0  0  0  0
 15 14  1  0  0  0  0
 16 15  2  0  0  0  0
 16 17  1  0  0  0  0
 17 12  2  0  0  0  0
 18 32  1  0  0  0  0
 18 33  1  0  0  0  0
 19 37  1  0  0  0  0
 19 35  1  0  0  0  0
 24  9  1  0  0  0  0
 25 10  1  0  0  0  0
 26 11  1  0  0  0  0
 29 15  1  0  0  0  0
 30 16  1  0  0  0  0
 31 17  1  0  0  0  0
 34 18  1  0  0  0  0
 36 19  1  0  0  0  0
M  END
