2,3
q = -1.0

 29 30  0  0  0  0  0  0  0  0999 V2000
    1.8630    0.0001   -0.1014 P   0  0  0  0  0  4  0  0  0  0  0  0
    0.6508   -0.0001    1.2096 C   0  0  0  0  0  3  0  0  0  0  0  0
    0.8494    0.0001   -1.5589 C   0  0  0  0  0  3  0  0  0  0  0  0
    2.9716   -1.4523    0.0007 C   0  0  0  0  0  0  0  0  0  0  0  0
    3.4576   -2.0513   -1.1763 C   0  0  0  0  0  0  0  0  0  0  0  0
    4.3414   -3.1371   -1.0950 C   0  0  0  0  0  0  0  0  0  0  0  0
    4.7421   -3.6274    0.1581 C   0  0  0  0  0  0  0  0  0  0  0  0
    4.2582   -3.0300    1.3334 C   0  0  0  0  0  0  0  0  0  0  0  0
    3.3741   -1.9446    1.2570 C   0  0  0  0  0  0  0  0  0  0  0  0
    2.9720    1.4521    0.0013 C   0  0  0  0  0  0  0  0  0  0  0  0
    3.3778    1.9407    1.2579 C   0  0  0  0  0  0  0  0  0  0  0  0
    4.2620    3.0260    1.3351 C   0  0  0  0  0  0  0  0  0  0  0  0
    4.7426    3.6269    0.1603 C   0  0  0  0  0  0  0  0  0  0  0  0
    4.3385    3.1403   -1.0931 C   0  0  0  0  0  0  0  0  0  0  0  0
    3.4546    2.0547   -1.1753 C   0  0  0  0  0  0  0  0  0  0  0  0
    0.7046   -0.9119    1.8293 H   0  0  0  0  0  0  0  0  0  0  0  0
    0.7044    0.9118    1.8292 H   0  0  0  0  0  0  0  0  0  0  0  0
    0.9436    0.9148   -2.1675 H   0  0  0  0  0  0  0  0  0  0  0  0
    0.9441   -0.9144   -2.1677 H   0  0  0  0  0  0  0  0  0  0  0  0
    3.1345   -1.6723   -2.1577 H   0  0  0  0  0  0  0  0  0  0  0  0
    4.7144   -3.6077   -2.0173 H   0  0  0  0  0  0  0  0  0  0  0  0
    5.4313   -4.4832    0.2195 H   0  0  0  0  0  0  0  0  0  0  0  0
    4.5673   -3.4157    2.3167 H   0  0  0  0  0  0  0  0  0  0  0  0
    2.9883   -1.4811    2.1782 H   0  0  0  0  0  0  0  0  0  0  0  0
    2.9946    1.4744    2.1788 H   0  0  0  0  0  0  0  0  0  0  0  0
    4.5738    3.4088    2.3187 H   0  0  0  0  0  0  0  0  0  0  0  0
    5.4319    4.4826    0.2224 H   0  0  0  0  0  0  0  0  0  0  0  0
    4.7089    3.6137   -2.0150 H   0  0  0  0  0  0  0  0  0  0  0  0
    3.1288    1.6785   -2.1569 H   0  0  0  0  0  0  0  0  0  0  0  0
  1  4  1  0  0  0  0
  1 10  1  0  0  0  0
  1  2  1  0  0  0  0
  2 17  1  0  0  0  0
  2 16  1  0  0  0  0
  3  1  1  0  0  0  0
  4  9  1  0  0  0  0
  5  6  1  0  0  0  0
  5  4  2  0  0  0  0
  6  7  2  0  0  0  0
  7 22  1  0  0  0  0
  7  8  1  0  0  0  0
  8 23  1  0  0  0  0
  9  8  2  0  0  0  0
  9 24  1  0  0  0  0
 10 11  1  0  0  0  0
 11 12  2  0  0  0  0
 11 25  1  0  0  0  0
 12 26  1  0  0  0  0
 13 27  1  0  0  0  0
 13 12  1  0  0  0  0
 14 13  2  0  0  0  0
 15 14  1  0  0  0  0
 15 10  2  0  0  0  0
 18  3  1  0  0  0  0
 19  3  1  0  0  0  0
 20  5  1  0  0  0  0
 21  6  1  0  0  0  0
 28 14  1  0  0  0  0
 29 15  1  0  0  0  0
M  END
