2,3
q = -2.0, confidence = 0.624

 28 29  0  0  0  0  0  0  0  0999 V2000
    1.6967   -0.0239   -0.1402 P   0  0  0  0  0  4  0  0  0  0  0  0
    0.8370   -0.0905   -1.7007 C   0  0  0  0  0  3  0  0  0  0  0  0
    0.3519   -0.0904    0.9362 C   0  0  0  0  0  2  0  0  0  0  0  0
    2.6963    1.5231    0.0212 C   0  0  0  0  0  0  0  0  0  0  0  0
    2.0323    2.6797    0.4756 C   0  0  0  0  0  0  0  0  0  0  0  0
    2.7209    3.8985    0.5669 C   0  0  0  0  0  0  0  0  0  0  0  0
    4.0777    3.9687    0.2116 C   0  0  0  0  0  0  0  0  0  0  0  0
    4.7450    2.8159   -0.2341 C   0  0  0  0  0  0  0  0  0  0  0  0
    4.0587    1.5957   -0.3300 C   0  0  0  0  0  0  0  0  0  0  0  0
    2.9421   -1.3687    0.0407 C   0  0  0  0  0  0  0  0  0  0  0  0
    3.1707   -1.9361    1.3092 C   0  0  0  0  0  0  0  0  0  0  0  0
    4.1150   -2.9612    1.4631 C   0  0  0  0  0  0  0  0  0  0  0  0
    4.8319   -3.4312    0.3497 C   0  0  0  0  0  0  0  0  0  0  0  0
    4.6002   -2.8761   -0.9188 C   0  0  0  0  0  0  0  0  0  0  0  0
    3.6564   -1.8484   -1.0748 C   0  0  0  0  0  0  0  0  0  0  0  0
    1.0641    0.7883   -2.3317 H   0  0  0  0  0  0  0  0  0  0  0  0
    1.0614   -1.0243   -2.2494 H   0  0  0  0  0  0  0  0  0  0  0  0
    0.4780   -0.0593    2.0280 H   0  0  0  0  0  0  0  0  0  0  0  0
    0.9694    2.6035    0.7574 H   0  0  0  0  0  0  0  0  0  0  0  0
    2.1957    4.7989    0.9210 H   0  0  0  0  0  0  0  0  0  0  0  0
    4.6193    4.9240    0.2871 H   0  0  0  0  0  0  0  0  0  0  0  0
    5.8109    2.8658   -0.5051 H   0  0  0  0  0  0  0  0  0  0  0  0
    4.5894    0.6934   -0.6703 H   0  0  0  0  0  0  0  0  0  0  0  0
    2.5931   -1.5781    2.1760 H   0  0  0  0  0  0  0  0  0  0  0  0
    4.2895   -3.4016    2.4568 H   0  0  0  0  0  0  0  0  0  0  0  0
    5.5689   -4.2397    0.4707 H   0  0  0  0  0  0  0  0  0  0  0  0
    5.1537   -3.2493   -1.7941 H   0  0  0  0  0  0  0  0  0  0  0  0
    3.4664   -1.4184   -2.0709 H   0  0  0  0  0  0  0  0  0  0  0  0
  1  4  1  0  0  0  0
  1 10  1  0  0  0  0
  1  3  1  0  0  0  0
  2  1  1  0  0  0  0
  3 18  1  0  0  0  0
  4  5  1  0  0  0  0
  5  6  2  0  0  0  0
  5 19  1  0  0  0  0
  6 20  1  0  0  0  0
  7 21  1  0  0  0  0
  7  6  1  0  0  0  0
  8  7  2  0  0  0  0
  9  8  1  0  0  0  0
  9  4  2  0  0  0  0
 10 11  1  0  0  0  0
 11 12  2  0  0  0  0
 11 24  1  0  0  0  0
 12 25  1  0  0  0  0
 13 26  1  0  0  0  0
 13 12  1  0  0  0  0
 14 13  2  0  0  0  0
 15 14  1  0  0  0  0
 15 10  2  0  0  0  0
 16  2  1  0  0  0  0
 17  2  1  0  0  0  0
 22  8  1  0  0  0  0
 23  9  1  0  0  0  0
 27 14  1  0  0  0  0
 28 15  1  0  0  0  0
M  END
