6,12
q = -2.0, confidence = 0.638

 49 49  0  0  1  0  0  0  0  0999 V2000
    2.8432   -1.0662    0.0653 N   0  0  0  0  0  0  0  0  0  0  0  0
    1.3455    0.2004   -1.4858 C   0  0  1  0  0  3  0  0  0  0  0  0
    0.7232    1.5236   -1.3671 C   0  0  0  0  0  0  0  0  0  0  0  0
    0.4066    2.2417   -2.3216 O   0  0  0  0  0  0  0  0  0  0  0  0
    0.2430    1.7746    0.0583 C   0  0  2  0  0  3  0  0  0  0  0  0
   -1.1386    1.4860    0.2852 C   0  0  0  0  0  3  0  0  0  0  0  0
   -1.8690    0.6496   -0.6024 C   0  0  0  0  0  3  0  0  0  0  0  0
   -3.2165    0.1293   -0.2967 C   0  0  0  0  0  0  0  0  0  0  0  0
   -4.0853   -0.2105   -1.3580 C   0  0  0  0  0  0  0  0  0  0  0  0
   -5.3752   -0.6995   -1.1097 C   0  0  0  0  0  0  0  0  0  0  0  0
   -5.8258   -0.8619    0.2094 C   0  0  0  0  0  0  0  0  0  0  0  0
    1.7122   -0.4648   -0.2737 C   0  0  0  0  0  2  0  0  0  0  0  0
   -4.9698   -0.5374    1.2761 C   0  0  0  0  0  0  0  0  0  0  0  0
   -3.6796   -0.0547    1.0275 C   0  0  0  0  0  0  0  0  0  0  0  0
    4.0993   -0.8506   -0.6738 C   0  0  0  0  0  0  0  0  0  0  0  0
    4.5008   -2.0292   -1.5588 C   0  0  0  0  0  0  0  0  0  0  0  0
    2.9145   -1.9173    1.2644 C   0  0  0  0  0  0  0  0  0  0  0  0
    3.3529   -1.1622    2.5173 C   0  0  0  0  0  0  0  0  0  0  0  0
    1.5493   -0.3710   -2.8656 C   0  0  0  0  0  0  0  0  0  0  0  0
    1.0003    2.7114    0.9801 C   0  0  0  0  0  0  0  0  0  0  0  0
    0.6736    4.1616    0.5694 C   0  0  0  0  0  0  0  0  0  0  0  0
    2.5137    2.4688    0.9760 C   0  0  0  0  0  0  0  0  0  0  0  0
   -1.5826    1.7793    1.2528 H   0  0  0  0  0  0  0  0  0  0  0  0
   -1.6339    0.7238   -1.6771 H   0  0  0  0  0  0  0  0  0  0  0  0
   -3.7359   -0.0814   -2.3945 H   0  0  0  0  0  0  0  0  0  0  0  0
   -6.0337   -0.9555   -1.9538 H   0  0  0  0  0  0  0  0  0  0  0  0
   -6.8373   -1.2477    0.4075 H   0  0  0  0  0  0  0  0  0  0  0  0
   -5.3086   -0.6737    2.3146 H   0  0  0  0  0  0  0  0  0  0  0  0
   -3.0106    0.1610    1.8744 H   0  0  0  0  0  0  0  0  0  0  0  0
    3.9691    0.0706   -1.2736 H   0  0  0  0  0  0  0  0  0  0  0  0
    4.8952   -0.6381    0.0719 H   0  0  0  0  0  0  0  0  0  0  0  0
    5.4582   -1.8080   -2.0713 H   0  0  0  0  0  0  0  0  0  0  0  0
    3.7336   -2.2275   -2.3317 H   0  0  0  0  0  0  0  0  0  0  0  0
    4.6457   -2.9575   -0.9704 H   0  0  0  0  0  0  0  0  0  0  0  0
    1.9132   -2.3642    1.4090 H   0  0  0  0  0  0  0  0  0  0  0  0
    3.6143   -2.7495    1.0430 H   0  0  0  0  0  0  0  0  0  0  0  0
    3.4398   -1.8639    3.3703 H   0  0  0  0  0  0  0  0  0  0  0  0
    2.6102   -0.3892    2.7914 H   0  0  0  0  0  0  0  0  0  0  0  0
    4.3382   -0.6720    2.3816 H   0  0  0  0  0  0  0  0  0  0  0  0
    0.8188    0.1031   -3.5517 H   0  0  0  0  0  0  0  0  0  0  0  0
    2.5581   -0.1376   -3.2701 H   0  0  0  0  0  0  0  0  0  0  0  0
    1.4162   -1.4708   -2.8849 H   0  0  0  0  0  0  0  0  0  0  0  0
    0.6220    2.5430    2.0137 H   0  0  0  0  0  0  0  0  0  0  0  0
   -0.4124    4.3653    0.6518 H   0  0  0  0  0  0  0  0  0  0  0  0
    0.9629    4.3386   -0.4863 H   0  0  0  0  0  0  0  0  0  0  0  0
    1.2146    4.8870    1.2113 H   0  0  0  0  0  0  0  0  0  0  0  0
    2.7616    1.4513    1.3327 H   0  0  0  0  0  0  0  0  0  0  0  0
    3.0280    3.1983    1.6334 H   0  0  0  0  0  0  0  0  0  0  0  0
    2.9330    2.5858   -0.0454 H   0  0  0  0  0  0  0  0  0  0  0  0
  1 17  1  0  0  0  0
  2  3  1  0  0  0  0
  2 12  1  1  0  0  0
  4  3  2  0  0  0  0
  5  3  1  6  0  0  0
  5  6  1  0  0  0  0
  5 20  1  0  0  0  0
  6 23  1  0  0  0  0
  7  8  1  0  0  0  0
  7  6  1  0  0  0  0
  8 14  1  0  0  0  0
  9 10  1  0  0  0  0
  9  8  2  0  0  0  0
 10 11  2  0  0  0  0
 11 27  1  0  0  0  0
 11 13  1  0  0  0  0
 12  1  1  0  0  0  0
 13 28  1  0  0  0  0
 14 13  2  0  0  0  0
 14 29  1  0  0  0  0
 15  1  1  0  0  0  0
 15 31  1  0  0  0  0
 16 34  1  0  0  0  0
 16 15  1  0  0  0  0
 17 35  1  0  0  0  0
 17 18  1  0  0  0  0
 18 38  1  0  0  0  0
 18 37  1  0  0  0  0
 19  2  1  0  0  0  0
 20 43  1  0  0  0  0
 21 44  1  0  0  0  0
 21 20  1  0  0  0  0
 21 46  1  0  0  0  0
 22 20  1  0  0  0  0
 22 47  1  0  0  0  0
 22 48  1  0  0  0  0
 24  7  1  0  0  0  0
 25  9  1  0  0  0  0
 26 10  1  0  0  0  0
 30 15  1  0  0  0  0
 32 16  1  0  0  0  0
 33 16  1  0  0  0  0
 36 17  1  0  0  0  0
 39 18  1  0  0  0  0
 40 19  1  0  0  0  0
 41 19  1  0  0  0  0
 42 19  1  0  0  0  0
 45 21  1  0  0  0  0
 49 22  1  0  0  0  0
M  END
