1,3
q = -1.0, confidence = 0.01

 28 29  0  0  0  0  0  0  0  0999 V2000
   -0.5728    1.1523    1.6655 C   0  0  0  0  0  3  0  0  0  0  0  0
   -1.2115   -0.0000    2.2273 C   0  0  0  0  0  3  0  0  0  0  0  0
   -0.5728   -1.1523    1.6654 C   0  0  0  0  0  3  0  0  0  0  0  0
    0.6350   -0.7208    0.9499 C   0  0  0  0  0  0  0  0  0  0  0  0
    1.6582   -1.4537    0.3010 C   0  0  0  0  0  0  0  0  0  0  0  0
    2.6980   -0.7171   -0.3052 C   0  0  0  0  0  0  0  0  0  0  0  0
    2.6979    0.7172   -0.3053 C   0  0  0  0  0  0  0  0  0  0  0  0
    1.6582    1.4537    0.3010 C   0  0  0  0  0  0  0  0  0  0  0  0
    0.6350    0.7208    0.9499 C   0  0  0  0  0  0  0  0  0  0  0  0
    1.6097   -2.9616    0.2745 C   0  0  0  0  0  0  0  0  0  0  0  0
    3.8377   -1.4305   -0.9916 C   0  0  0  0  0  0  0  0  0  0  0  0
    3.8375    1.4306   -0.9918 C   0  0  0  0  0  0  0  0  0  0  0  0
    1.6096    2.9616    0.2746 C   0  0  0  0  0  0  0  0  0  0  0  0
   -0.8409    2.1910    1.8920 H   0  0  0  0  0  0  0  0  0  0  0  0
   -2.0688   -0.0001    2.9101 H   0  0  0  0  0  0  0  0  0  0  0  0
   -0.8408   -2.1911    1.8919 H   0  0  0  0  0  0  0  0  0  0  0  0
    2.5011   -3.4169    0.7542 H   0  0  0  0  0  0  0  0  0  0  0  0
    1.5674   -3.3522   -0.7638 H   0  0  0  0  0  0  0  0  0  0  0  0
    0.7199   -3.3495    0.8035 H   0  0  0  0  0  0  0  0  0  0  0  0
    4.8192   -1.1423   -0.5595 H   0  0  0  0  0  0  0  0  0  0  0  0
    3.8895   -1.1683   -2.0700 H   0  0  0  0  0  0  0  0  0  0  0  0
    3.7554   -2.5290   -0.9231 H   0  0  0  0  0  0  0  0  0  0  0  0
    3.8900    1.1674   -2.0699 H   0  0  0  0  0  0  0  0  0  0  0  0
    3.7546    2.5291   -0.9243 H   0  0  0  0  0  0  0  0  0  0  0  0
    4.8191    1.1434   -0.5590 H   0  0  0  0  0  0  0  0  0  0  0  0
    1.5663    3.3522   -0.7636 H   0  0  0  0  0  0  0  0  0  0  0  0
    2.5016    3.4169    0.7534 H   0  0  0  0  0  0  0  0  0  0  0  0
    0.7204    3.3495    0.8045 H   0  0  0  0  0  0  0  0  0  0  0  0
  1 14  1  0  0  0  0
  1  2  1  0  0  0  0
  2 15  1  0  0  0  0
  3 16  1  0  0  0  0
  3  2  1  0  0  0  0
  4  9  1  0  0  0  0
  4  3  1  0  0  0  0
  5  4  2  0  0  0  0
  6  5  1  0  0  0  0
  7  6  2  0  0  0  0
  7  8  1  0  0  0  0
  8  9  2  0  0  0  0
  9  1  1  0  0  0  0
 10  5  1  0  0  0  0
 10 17  1  0  0  0  0
 10 19  1  0  0  0  0
 11 22  1  0  0  0  0
 11 20  1  0  0  0  0
 11  6  1  0  0  0  0
 12 24  1  0  0  0  0
 12 25  1  0  0  0  0
 12  7  1  0  0  0  0
 13  8  1  0  0  0  0
 13 27  1  0  0  0  0
 13 28  1  0  0  0  0
 18 10  1  0  0  0  0
 21 11  1  0  0  0  0
 23 12  1  0  0  0  0
 26 13  1  0  0  0  0
M  END
