10
q = -1.0

 34 36  0  0  1  0  0  0  0  0999 V2000
   -1.3864    1.8809    1.0765 C   0  0  0  0  0  0  0  0  0  0  0  0
   -1.8819    0.9441    2.0335 C   0  0  0  0  0  0  0  0  0  0  0  0
   -0.8207    0.0601    2.4054 C   0  0  0  0  0  0  0  0  0  0  0  0
    0.3384    0.4402    1.6678 C   0  0  0  0  0  0  0  0  0  0  0  0
   -0.0106    1.5608    0.8237 C   0  0  1  0  0  3  0  0  0  0  0  0
    0.9182    2.2378   -0.1792 C   0  0  0  0  0  0  0  0  0  0  0  0
    0.1450    3.2715   -1.0158 C   0  0  0  0  0  0  0  0  0  0  0  0
    2.0567    2.9549    0.5689 C   0  0  0  0  0  0  0  0  0  0  0  0
    1.4018    1.1067   -1.1430 C   0  0  2  0  0  0  0  0  0  0  0  0
    0.1972    0.2443   -1.6108 C   0  0  0  0  0  3  0  0  0  0  0  0
    0.4614   -1.1328   -1.2973 C   0  0  0  0  0  3  0  0  0  0  0  0
    1.7915   -1.2267   -0.6632 C   0  0  0  0  0  0  0  0  0  0  0  0
    2.3681    0.0674   -0.5878 C   0  0  0  0  0  0  0  0  0  0  0  0
    3.6687    0.2198   -0.0901 C   0  0  0  0  0  0  0  0  0  0  0  0
    4.3710   -0.9133    0.3661 C   0  0  0  0  0  0  0  0  0  0  0  0
    3.7810   -2.1882    0.3177 C   0  0  0  0  0  0  0  0  0  0  0  0
    2.4880   -2.3561   -0.2072 C   0  0  0  0  0  0  0  0  0  0  0  0
   -1.9617    2.6905    0.6163 H   0  0  0  0  0  0  0  0  0  0  0  0
   -2.9036    0.9178    2.4274 H   0  0  0  0  0  0  0  0  0  0  0  0
   -0.8857   -0.7613    3.1287 H   0  0  0  0  0  0  0  0  0  0  0  0
    1.3206   -0.0398    1.7303 H   0  0  0  0  0  0  0  0  0  0  0  0
   -0.2538    4.0852   -0.3778 H   0  0  0  0  0  0  0  0  0  0  0  0
   -0.7044    2.8071   -1.5543 H   0  0  0  0  0  0  0  0  0  0  0  0
    0.8176    3.7333   -1.7659 H   0  0  0  0  0  0  0  0  0  0  0  0
    2.5958    2.2736    1.2530 H   0  0  0  0  0  0  0  0  0  0  0  0
    1.6447    3.7848    1.1779 H   0  0  0  0  0  0  0  0  0  0  0  0
    2.7884    3.3882   -0.1436 H   0  0  0  0  0  0  0  0  0  0  0  0
    1.8712    1.5931   -2.0288 H   0  0  0  0  0  0  0  0  0  0  0  0
   -0.2942    0.5266   -2.5526 H   0  0  0  0  0  0  0  0  0  0  0  0
    0.0886   -1.9578   -1.9196 H   0  0  0  0  0  0  0  0  0  0  0  0
    4.1551    1.2056   -0.0698 H   0  0  0  0  0  0  0  0  0  0  0  0
    5.3949   -0.7987    0.7530 H   0  0  0  0  0  0  0  0  0  0  0  0
    4.3425   -3.0635    0.6783 H   0  0  0  0  0  0  0  0  0  0  0  0
    2.0264   -3.3535   -0.2631 H   0  0  0  0  0  0  0  0  0  0  0  0
  1  2  2  0  0  0  0
  2  3  1  0  0  0  0
  2 19  1  0  0  0  0
  3 20  1  0  0  0  0
  4 21  1  0  0  0  0
  4  3  2  0  0  0  0
  5  6  1  6  0  0  0
  5  1  1  0  0  0  0
  5  4  1  0  0  0  0
  6  8  1  0  0  0  0
  7 22  1  0  0  0  0
  7  6  1  0  0  0  0
  8 26  1  0  0  0  0
  8 25  1  0  0  0  0
  9 28  1  6  0  0  0
  9 13  1  0  0  0  0
  9  6  1  0  0  0  0
 10 11  1  0  0  0  0
 10  9  1  0  0  0  0
 11 12  1  0  0  0  0
 12 13  2  0  0  0  0
 12 17  1  0  0  0  0
 13 14  1  0  0  0  0
 14 31  1  0  0  0  0
 14 15  2  0  0  0  0
 15 32  1  0  0  0  0
 16 15  1  0  0  0  0
 16 33  1  0  0  0  0
 17 16  2  0  0  0  0
 18  1  1  0  0  0  0
 23  7  1  0  0  0  0
 24  7  1  0  0  0  0
 27  8  1  0  0  0  0
 29 10  1  0  0  0  0
 30 11  1  0  0  0  0
 34 17  1  0  0  0  0
M  END
