5,8
q = 0.0, confidence = 0.998

 40 41  0  0  1  0  0  0  0  0999 V2000
   -0.5702   -2.8214    0.3540 O   0  0  0  0  0  0  0  0  0  0  0  0
    2.1237   -2.6704   -0.0912 N   0  0  0  0  0  0  0  0  0  0  0  0
    1.4070   -0.3772    0.4112 C   0  0  0  0  0  0  0  0  0  0  0  0
   -0.0300   -0.4958    0.5785 C   0  0  0  0  0  0  0  0  0  0  0  0
   -0.6786    0.3502    1.5155 C   0  0  0  0  0  3  0  0  0  0  0  0
    0.0432    1.3053    2.2934 C   0  0  0  0  0  0  0  0  0  0  0  0
    1.4404    1.4186    2.1288 C   0  0  0  0  0  0  0  0  0  0  0  0
    2.1170    0.5686    1.2015 C   0  0  0  0  0  3  0  0  0  0  0  0
    2.1390   -1.2684   -0.5921 C   0  0  1  0  0  0  0  0  0  0  0  0
    3.5199   -0.7473   -1.0075 C   0  0  0  0  0  0  0  0  0  0  0  0
    2.3863   -3.6573   -1.1332 C   0  0  0  0  0  0  0  0  0  0  0  0
    2.9222   -2.8972    1.1092 C   0  0  0  0  0  0  0  0  0  0  0  0
   -0.8256   -1.5521   -0.2072 C   0  0  2  0  0  0  0  0  0  0  0  0
   -2.3148   -1.2676   -0.2113 C   0  0  0  0  0  0  0  0  0  0  0  0
   -3.1739   -1.9683    0.6538 C   0  0  0  0  0  0  0  0  0  0  0  0
   -4.5442   -1.6642    0.6877 C   0  0  0  0  0  0  0  0  0  0  0  0
   -5.0652   -0.6560   -0.1385 C   0  0  0  0  0  0  0  0  0  0  0  0
   -4.2116    0.0391   -1.0114 C   0  0  0  0  0  0  0  0  0  0  0  0
   -2.8447   -0.2697   -1.0520 C   0  0  0  0  0  0  0  0  0  0  0  0
    0.4290   -2.9180    0.3005 H   0  0  0  0  0  0  0  0  0  0  0  0
   -1.7726    0.2964    1.5993 H   0  0  0  0  0  0  0  0  0  0  0  0
   -0.4949    1.9831    2.9699 H   0  0  0  0  0  0  0  0  0  0  0  0
    2.0050    2.1842    2.6787 H   0  0  0  0  0  0  0  0  0  0  0  0
    3.1965    0.6977    1.0555 H   0  0  0  0  0  0  0  0  0  0  0  0
    1.5158   -1.2884   -1.5097 H   0  0  0  0  0  0  0  0  0  0  0  0
    3.4337    0.2867   -1.3932 H   0  0  0  0  0  0  0  0  0  0  0  0
    3.9431   -1.3733   -1.8164 H   0  0  0  0  0  0  0  0  0  0  0  0
    4.2472   -0.7442   -0.1719 H   0  0  0  0  0  0  0  0  0  0  0  0
    2.1856   -4.6726   -0.7363 H   0  0  0  0  0  0  0  0  0  0  0  0
    1.7050   -3.4857   -1.9903 H   0  0  0  0  0  0  0  0  0  0  0  0
    3.4378   -3.6414   -1.5103 H   0  0  0  0  0  0  0  0  0  0  0  0
    2.6963   -3.9047    1.5125 H   0  0  0  0  0  0  0  0  0  0  0  0
    2.6567   -2.1537    1.8858 H   0  0  0  0  0  0  0  0  0  0  0  0
    4.0233   -2.8432    0.9290 H   0  0  0  0  0  0  0  0  0  0  0  0
   -0.4849   -1.4987   -1.2715 H   0  0  0  0  0  0  0  0  0  0  0  0
   -2.7456   -2.7566    1.2887 H   0  0  0  0  0  0  0  0  0  0  0  0
   -5.2107   -2.2199    1.3654 H   0  0  0  0  0  0  0  0  0  0  0  0
   -6.1389   -0.4153   -0.1083 H   0  0  0  0  0  0  0  0  0  0  0  0
   -4.6123    0.8265   -1.6675 H   0  0  0  0  0  0  0  0  0  0  0  0
   -2.1791    0.2711   -1.7417 H   0  0  0  0  0  0  0  0  0  0  0  0
  2 12  1  0  0  0  0
  3  4  2  0  0  0  0
  3  8  1  0  0  0  0
  4  5  1  0  0  0  0
  5 21  1  0  0  0  0
  5  6  1  0  0  0  0
  6 22  1  0  0  0  0
  7  6  2  0  0  0  0
  7 23  1  0  0  0  0
  8  7  1  0  0  0  0
  9 25  1  6  0  0  0
  9  2  1  0  0  0  0
  9  3  1  0  0  0  0
 10  9  1  0  0  0  0
 10 28  1  0  0  0  0
 11 29  1  0  0  0  0
 11  2  1  0  0  0  0
 12 32  1  0  0  0  0
 12 33  1  0  0  0  0
 13 35  1  6  0  0  0
 13  1  1  0  0  0  0
 13  4  1  0  0  0  0
 14 13  1  0  0  0  0
 14 15  1  0  0  0  0
 15 16  2  0  0  0  0
 15 36  1  0  0  0  0
 16 37  1  0  0  0  0
 17 38  1  0  0  0  0
 17 16  1  0  0  0  0
 18 17  2  0  0  0  0
 19 18  1  0  0  0  0
 19 14  2  0  0  0  0
 20  1  1  0  0  0  0
 24  8  1  0  0  0  0
 26 10  1  0  0  0  0
 27 10  1  0  0  0  0
 30 11  1  0  0  0  0
 31 11  1  0  0  0  0
 34 12  1  0  0  0  0
 39 18  1  0  0  0  0
 40 19  1  0  0  0  0
M  END
