1,7
q = 0.0, confidence = 0.544

 17 17  0  0  0  0  0  0  0  0999 V2000
    0.9586   -0.6896    0.0002 C   0  0  0  0  0  3  0  0  0  0  0  0
    1.5815   -1.9433    0.0002 C   0  0  0  0  0  0  0  0  0  0  0  0
    2.9864   -2.0474    0.0003 C   0  0  0  0  0  0  0  0  0  0  0  0
    3.7712   -0.8868    0.0003 C   0  0  0  0  0  0  0  0  0  0  0  0
    3.1679    0.3807    0.0001 C   0  0  0  0  0  0  0  0  0  0  0  0
    1.7627    0.4763   -0.0000 C   0  0  0  0  0  0  0  0  0  0  0  0
   -0.3034    1.6851    0.0001 C   0  0  0  0  0  3  0  0  0  0  0  0
    1.7909    2.9751    0.0001 C   0  0  0  0  0  0  0  0  0  0  0  0
    1.0830    1.7038   -0.0003 N   0  0  0  0  0  0  0  0  0  0  0  0
   -0.9951    2.6853    0.0005 O   0  0  0  0  0  0  0  0  0  0  0  0
    0.9804   -2.8651    0.0004 H   0  0  0  0  0  0  0  0  0  0  0  0
    3.4604   -3.0403    0.0003 H   0  0  0  0  0  0  0  0  0  0  0  0
    4.8691   -0.9614    0.0003 H   0  0  0  0  0  0  0  0  0  0  0  0
    3.7913    1.2854    0.0001 H   0  0  0  0  0  0  0  0  0  0  0  0
    2.4316    3.0706   -0.9009 H   0  0  0  0  0  0  0  0  0  0  0  0
    1.0326    3.7779   -0.0012 H   0  0  0  0  0  0  0  0  0  0  0  0
    2.4293    3.0714    0.9026 H   0  0  0  0  0  0  0  0  0  0  0  0
  1  2  1  0  0  0  0
  2  3  2  0  0  0  0
  2 11  1  0  0  0  0
  3 12  1  0  0  0  0
  4  3  1  0  0  0  0
  4 13  1  0  0  0  0
  5 14  1  0  0  0  0
  5  4  2  0  0  0  0
  6  5  1  0  0  0  0
  6  1  2  0  0  0  0
  7 10  2  0  0  0  0
  8 17  1  0  0  0  0
  9  6  1  0  0  0  0
  9  8  1  0  0  0  0
  9  7  1  0  0  0  0
 15  8  1  0  0  0  0
 16  8  1  0  0  0  0
M  END
