3,5
q = -1.0

 28 28  0  0  1  0  0  0  0  0999 V2000
   -0.3769    2.4299    0.6456 C   0  0  0  0  0  0  0  0  0  0  0  0
   -0.1094    2.5306   -0.7529 C   0  0  0  0  0  0  0  0  0  0  0  0
   -1.3278    2.2462   -1.4620 C   0  0  1  0  0  3  0  0  0  0  0  0
   -2.3606    2.0212   -0.4914 C   0  0  1  0  0  3  0  0  0  0  0  0
   -1.7639    2.0913    0.8142 C   0  0  2  0  0  3  0  0  0  0  0  0
    0.5621    2.8194    1.7525 C   0  0  0  0  0  0  0  0  0  0  0  0
    0.5999    4.3399    1.9694 C   0  0  0  0  0  0  0  0  0  0  0  0
    1.1619    3.0166   -1.3780 C   0  0  0  0  0  0  0  0  0  0  0  0
   -1.4913    2.3194   -2.9519 C   0  0  0  0  0  0  0  0  0  0  0  0
   -0.6284    1.8527   -3.4674 H   0  0  0  0  0  0  0  0  0  0  0  0
   -1.5623    3.3733   -3.2995 H   0  0  0  0  0  0  0  0  0  0  0  0
   -2.4073    1.7991   -3.2949 H   0  0  0  0  0  0  0  0  0  0  0  0
   -3.8328    2.0463   -0.7770 C   0  0  0  0  0  0  0  0  0  0  0  0
   -2.4837    2.0547    2.1322 C   0  0  0  0  0  0  0  0  0  0  0  0
    1.5837    2.4454    1.5335 H   0  0  0  0  0  0  0  0  0  0  0  0
    0.2552    2.3176    2.6906 H   0  0  0  0  0  0  0  0  0  0  0  0
    1.2872    4.6116    2.7965 H   0  0  0  0  0  0  0  0  0  0  0  0
    0.9434    4.8666    1.0562 H   0  0  0  0  0  0  0  0  0  0  0  0
   -0.4058    4.7357    2.2190 H   0  0  0  0  0  0  0  0  0  0  0  0
    1.0676    4.0898   -1.6535 H   0  0  0  0  0  0  0  0  0  0  0  0
    2.0217    2.9224   -0.6884 H   0  0  0  0  0  0  0  0  0  0  0  0
    1.4071    2.4480   -2.2953 H   0  0  0  0  0  0  0  0  0  0  0  0
   -4.2108    3.0854   -0.6569 H   0  0  0  0  0  0  0  0  0  0  0  0
   -4.0679    1.7364   -1.8110 H   0  0  0  0  0  0  0  0  0  0  0  0
   -4.4224    1.4126   -0.0880 H   0  0  0  0  0  0  0  0  0  0  0  0
   -2.5633    3.0737    2.5699 H   0  0  0  0  0  0  0  0  0  0  0  0
   -3.5114    1.6610    2.0325 H   0  0  0  0  0  0  0  0  0  0  0  0
   -1.9560    1.4251    2.8771 H   0  0  0  0  0  0  0  0  0  0  0  0
  1  5  1  0  0  0  0
  1  6  1  0  0  0  0
  2  1  2  0  0  0  0
  3  9  1  6  0  0  0
  3  2  1  0  0  0  0
  3  4  1  0  0  0  0
  4 13  1  1  0  0  0
  4  5  1  0  0  0  0
  5 14  1  1  0  0  0
  6  7  1  0  0  0  0
  6 16  1  0  0  0  0
  7 19  1  0  0  0  0
  7 17  1  0  0  0  0
  8  2  1  0  0  0  0
  8 21  1  0  0  0  0
 10  9  1  0  0  0  0
 11  9  1  0  0  0  0
 12  9  1  0  0  0  0
 13 23  1  0  0  0  0
 13 25  1  0  0  0  0
 14 26  1  0  0  0  0
 14 28  1  0  0  0  0
 15  6  1  0  0  0  0
 18  7  1  0  0  0  0
 20  8  1  0  0  0  0
 22  8  1  0  0  0  0
 24 13  1  0  0  0  0
 27 14  1  0  0  0  0
M  END
