3,13
q = -1.0

 32 32  0  0  1  0  0  0  0  0999 V2000
    1.9140   -1.4125   -0.2302 N   0  0  0  0  0  0  0  0  0  0  0  0
    2.2409    0.6907    0.2077 N   0  0  0  0  0  0  0  0  0  0  0  0
    1.2555   -0.2379   -0.0140 C   0  0  0  0  0  2  0  0  0  0  0  0
    3.5091    0.0867    0.1212 C   0  0  0  0  0  0  0  0  0  0  0  0
    3.2927   -1.2518   -0.1518 C   0  0  0  0  0  0  0  0  0  0  0  0
    1.0968   -2.5998   -0.5066 C   0  0  1  0  0  0  0  0  0  0  0  0
    1.9330    2.1295    0.2999 C   0  0  0  0  0  0  0  0  0  0  0  0
    4.2530   -2.3732   -0.3552 C   0  0  0  0  0  0  0  0  0  0  0  0
    4.8089    0.7912    0.3248 C   0  0  0  0  0  0  0  0  0  0  0  0
    0.9330   -3.4398    0.7636 C   0  0  0  0  0  0  0  0  0  0  0  0
    2.2799    2.8651   -0.9981 C   0  0  0  0  0  0  0  0  0  0  0  0
    2.5217    2.7852    1.5523 C   0  0  0  0  0  0  0  0  0  0  0  0
   -0.2337   -2.0600   -1.0662 C   0  0  0  0  0  3  0  0  0  0  0  0
    4.1393   -3.1678    0.4123 H   0  0  0  0  0  0  0  0  0  0  0  0
    4.1120   -2.8546   -1.3459 H   0  0  0  0  0  0  0  0  0  0  0  0
    5.2958   -2.0082   -0.3062 H   0  0  0  0  0  0  0  0  0  0  0  0
    4.9545    1.1211    1.3749 H   0  0  0  0  0  0  0  0  0  0  0  0
    5.6435    0.1093    0.0753 H   0  0  0  0  0  0  0  0  0  0  0  0
    4.9111    1.6876   -0.3195 H   0  0  0  0  0  0  0  0  0  0  0  0
    1.6397   -3.1990   -1.2713 H   0  0  0  0  0  0  0  0  0  0  0  0
    0.3973   -2.8489    1.5314 H   0  0  0  0  0  0  0  0  0  0  0  0
    0.3389   -4.3493    0.5443 H   0  0  0  0  0  0  0  0  0  0  0  0
    1.9086   -3.7598    1.1825 H   0  0  0  0  0  0  0  0  0  0  0  0
    0.8279    2.1281    0.3854 H   0  0  0  0  0  0  0  0  0  0  0  0
    2.3322    2.1742    2.4563 H   0  0  0  0  0  0  0  0  0  0  0  0
    3.6124    2.9581    1.4691 H   0  0  0  0  0  0  0  0  0  0  0  0
    2.0470    3.7752    1.7043 H   0  0  0  0  0  0  0  0  0  0  0  0
    3.3717    2.8843   -1.1917 H   0  0  0  0  0  0  0  0  0  0  0  0
    1.7581    2.3796   -1.8464 H   0  0  0  0  0  0  0  0  0  0  0  0
    1.9330    3.9161   -0.9302 H   0  0  0  0  0  0  0  0  0  0  0  0
   -1.0435   -2.7937   -0.8751 H   0  0  0  0  0  0  0  0  0  0  0  0
   -0.1485   -1.9138   -2.1623 H   0  0  0  0  0  0  0  0  0  0  0  0
  1  5  1  0  0  0  0
  1  3  1  0  0  0  0
  2  7  1  0  0  0  0
  3  2  1  0  0  0  0
  4  2  1  0  0  0  0
  4  9  1  0  0  0  0
  5  4  2  0  0  0  0
  6 20  1  6  0  0  0
  6  1  1  0  0  0  0
  6 10  1  0  0  0  0
  7 24  1  0  0  0  0
  7 12  1  0  0  0  0
  8 16  1  0  0  0  0
  8  5  1  0  0  0  0
  8 14  1  0  0  0  0
  9 17  1  0  0  0  0
 10 23  1  0  0  0  0
 10 21  1  0  0  0  0
 11 30  1  0  0  0  0
 11  7  1  0  0  0  0
 12 27  1  0  0  0  0
 12 25  1  0  0  0  0
 13 31  1  0  0  0  0
 13  6  1  0  0  0  0
 15  8  1  0  0  0  0
 18  9  1  0  0  0  0
 19  9  1  0  0  0  0
 22 10  1  0  0  0  0
 26 12  1  0  0  0  0
 28 11  1  0  0  0  0
 29 11  1  0  0  0  0
 32 13  1  0  0  0  0
M  END
