4,11
q = -1.0

 36 38  0  0  0  0  0  0  0  0999 V2000
   -0.0445    3.2423    0.2673 N   0  0  0  0  0  0  0  0  0  0  0  0
    1.2672    3.0135    0.3903 N   0  0  0  0  0  2  0  0  0  0  0  0
    1.3709    1.6867    0.1793 N   0  0  0  0  0  0  0  0  0  0  0  0
   -2.2361    0.3436   -0.4776 C   0  0  0  0  0  3  0  0  0  0  0  0
   -3.5300   -0.1498   -0.7435 C   0  0  0  0  0  0  0  0  0  0  0  0
   -4.6616    0.6849   -0.7078 C   0  0  0  0  0  0  0  0  0  0  0  0
   -4.5387    2.0568   -0.4259 C   0  0  0  0  0  0  0  0  0  0  0  0
   -3.2695    2.5982   -0.1869 C   0  0  0  0  0  0  0  0  0  0  0  0
   -2.1394    1.7556   -0.2128 C   0  0  0  0  0  0  0  0  0  0  0  0
   -0.7548    2.1070   -0.0040 C   0  0  0  0  0  0  0  0  0  0  0  0
    0.1777    1.0496   -0.0731 C   0  0  0  0  0  3  0  0  0  0  0  0
   -0.5293    4.6021    0.4160 C   0  0  0  0  0  0  0  0  0  0  0  0
    2.6493    1.0486    0.3281 C   0  0  0  0  0  0  0  0  0  0  0  0
    3.0825    0.7428    1.6366 C   0  0  0  0  0  0  0  0  0  0  0  0
    4.2812    0.0168    1.7689 C   0  0  0  0  0  0  0  0  0  0  0  0
    5.0085   -0.3741    0.6353 C   0  0  0  0  0  0  0  0  0  0  0  0
    4.5629   -0.0294   -0.6484 C   0  0  0  0  0  0  0  0  0  0  0  0
    3.3695    0.6971   -0.8341 C   0  0  0  0  0  0  0  0  0  0  0  0
    2.2875    1.1869    2.8368 C   0  0  0  0  0  0  0  0  0  0  0  0
    2.8740    1.0807   -2.1977 C   0  0  0  0  0  0  0  0  0  0  0  0
   -3.6664   -1.2095   -1.0068 H   0  0  0  0  0  0  0  0  0  0  0  0
   -5.6565    0.2582   -0.9131 H   0  0  0  0  0  0  0  0  0  0  0  0
   -5.4288    2.7032   -0.4047 H   0  0  0  0  0  0  0  0  0  0  0  0
   -3.1657    3.6755    0.0140 H   0  0  0  0  0  0  0  0  0  0  0  0
   -1.0342    4.9262   -0.5146 H   0  0  0  0  0  0  0  0  0  0  0  0
   -1.2474    4.6587    1.2571 H   0  0  0  0  0  0  0  0  0  0  0  0
    0.3396    5.2518    0.6183 H   0  0  0  0  0  0  0  0  0  0  0  0
    4.6410   -0.2448    2.7757 H   0  0  0  0  0  0  0  0  0  0  0  0
    5.9401   -0.9478    0.7551 H   0  0  0  0  0  0  0  0  0  0  0  0
    5.1476   -0.3232   -1.5337 H   0  0  0  0  0  0  0  0  0  0  0  0
    1.2121    0.9347    2.7319 H   0  0  0  0  0  0  0  0  0  0  0  0
    2.6685    0.7192    3.7640 H   0  0  0  0  0  0  0  0  0  0  0  0
    2.3385    2.2888    2.9573 H   0  0  0  0  0  0  0  0  0  0  0  0
    2.6866    2.1725   -2.2563 H   0  0  0  0  0  0  0  0  0  0  0  0
    3.6105    0.8108   -2.9776 H   0  0  0  0  0  0  0  0  0  0  0  0
    1.9030    0.5883   -2.4386 H   0  0  0  0  0  0  0  0  0  0  0  0
  1  2  1  0  0  0  0
  1 12  1  0  0  0  0
  3 13  1  0  0  0  0
  3  2  1  0  0  0  0
  4  9  1  0  0  0  0
  5  6  1  0  0  0  0
  5  4  2  0  0  0  0
  6  7  2  0  0  0  0
  7 23  1  0  0  0  0
  7  8  1  0  0  0  0
  8 24  1  0  0  0  0
  9  8  2  0  0  0  0
  9 10  1  0  0  0  0
 10  1  1  0  0  0  0
 11 10  2  0  0  0  0
 11  3  1  0  0  0  0
 12 27  1  0  0  0  0
 12 26  1  0  0  0  0
 13 14  1  0  0  0  0
 14 15  2  0  0  0  0
 14 19  1  0  0  0  0
 15 28  1  0  0  0  0
 16 29  1  0  0  0  0
 16 15  1  0  0  0  0
 17 16  2  0  0  0  0
 18 17  1  0  0  0  0
 18 13  2  0  0  0  0
 19 33  1  0  0  0  0
 19 32  1  0  0  0  0
 20 18  1  0  0  0  0
 21  5  1  0  0  0  0
 22  6  1  0  0  0  0
 25 12  1  0  0  0  0
 30 17  1  0  0  0  0
 31 19  1  0  0  0  0
 34 20  1  0  0  0  0
 35 20  1  0  0  0  0
 36 20  1  0  0  0  0
M  END
