32,36
q = 0.0, confidence = 1.0

 47 50  0  0  1  0  0  0  0  0999 V2000
   -3.5792   -0.2279   -0.2408 C   0  0  0  0  0  0  0  0  0  0  0  0
   -2.8404   -0.5520   -1.0097 H   0  0  0  0  0  0  0  0  0  0  0  0
   -4.9734   -0.2940   -0.8821 C   0  0  0  0  0  0  0  0  0  0  0  0
   -5.7089    0.0984   -0.1488 H   0  0  0  0  0  0  0  0  0  0  0  0
   -5.0198    0.3938   -1.7513 H   0  0  0  0  0  0  0  0  0  0  0  0
   -5.3352   -1.7254   -1.2951 C   0  0  0  0  0  0  0  0  0  0  0  0
   -6.3562   -1.7475   -1.7302 H   0  0  0  0  0  0  0  0  0  0  0  0
   -4.6468   -2.0619   -2.1041 H   0  0  0  0  0  0  0  0  0  0  0  0
   -5.2345   -2.6991   -0.1139 C   0  0  0  0  0  0  0  0  0  0  0  0
   -5.4627   -3.7349   -0.4416 H   0  0  0  0  0  0  0  0  0  0  0  0
   -6.0062   -2.4322    0.6427 H   0  0  0  0  0  0  0  0  0  0  0  0
   -3.8502   -2.6375    0.5427 C   0  0  0  0  0  0  0  0  0  0  0  0
   -3.0821   -3.0164   -0.1694 H   0  0  0  0  0  0  0  0  0  0  0  0
   -3.8037   -3.3069    1.4268 H   0  0  0  0  0  0  0  0  0  0  0  0
   -3.4824   -1.2073    0.9544 C   0  0  0  0  0  0  0  0  0  0  0  0
   -4.1792   -0.8495    1.7441 H   0  0  0  0  0  0  0  0  0  0  0  0
   -2.4675   -1.1931    1.4028 H   0  0  0  0  0  0  0  0  0  0  0  0
   -3.2561    1.2009    0.2097 C   0  0  0  0  0  0  0  0  0  0  0  0
   -1.5816    2.8385    0.9152 C   0  0  0  0  0  0  0  0  0  0  0  0
   -1.5147    2.8589    2.0278 H   0  0  0  0  0  0  0  0  0  0  0  0
   -2.4031    3.5321    0.6476 H   0  0  0  0  0  0  0  0  0  0  0  0
   -0.2659    3.4139    0.4020 C   0  0  0  0  0  0  0  0  0  0  0  0
    1.7737    3.1631   -0.9174 C   0  0  0  0  0  0  0  0  0  0  0  0
    1.8590    4.1830   -0.4986 H   0  0  0  0  0  0  0  0  0  0  0  0
    1.7539    3.2374   -2.0284 H   0  0  0  0  0  0  0  0  0  0  0  0
    2.9228    2.2626   -0.4648 C   0  0  0  0  0  0  0  0  0  0  0  0
    3.0023    2.2988    0.6411 H   0  0  0  0  0  0  0  0  0  0  0  0
    3.8877    2.6270   -0.8716 H   0  0  0  0  0  0  0  0  0  0  0  0
    2.6825    0.8474   -0.9412 C   0  0  0  0  0  0  0  0  0  0  0  0
    3.7704   -0.0277   -1.2280 C   0  0  0  0  0  0  0  0  0  0  0  0
    4.7955    0.3049   -1.0145 H   0  0  0  0  0  0  0  0  0  0  0  0
    3.5343   -1.3359   -1.7355 C   0  0  0  0  0  3  0  0  0  0  0  0
    4.3815   -2.0140   -1.9096 H   0  0  0  0  0  0  0  0  0  0  0  0
    2.2109   -1.7685   -2.0129 C   0  0  0  0  0  3  0  0  0  0  0  0
    2.0199   -2.7818   -2.3892 H   0  0  0  0  0  0  0  0  0  0  0  0
    1.1262   -0.9079   -1.6892 C   0  0  0  0  0  3  0  0  0  0  0  0
    0.0972   -1.2641   -1.8483 H   0  0  0  0  0  0  0  0  0  0  0  0
    1.3374    0.4065   -1.1712 C   0  0  1  0  0  3  0  0  0  0  0  0
    0.1305    1.2851   -0.8725 C   0  0  1  0  0  0  0  0  0  0  0  0
   -0.4605    1.3539   -1.8201 H   0  0  0  0  0  0  0  0  0  0  0  0
   -0.7854    0.6571    0.1919 C   0  0  0  0  0  0  0  0  0  0  0  0
   -1.1123   -0.3427   -0.1314 H   0  0  0  0  0  0  0  0  0  0  0  0
   -0.1924    0.5225    1.1236 H   0  0  0  0  0  0  0  0  0  0  0  0
   -1.9213    1.5150    0.4231 N   0  0  0  0  0  0  0  0  0  0  0  0
    0.5118    2.6246   -0.4324 N   0  0  0  0  0  0  0  0  0  0  0  0
   -4.1372    2.0340    0.4194 O   0  0  0  0  0  0  0  0  0  0  0  0
    0.0810    4.5394    0.7498 O   0  0  0  0  0  0  0  0  0  0  0  0
  1 18  1  0  0  0  0
  1 15  1  0  0  0  0
  2  1  1  0  0  0  0
  3  1  1  0  0  0  0
  3  4  1  0  0  0  0
  5  3  1  0  0  0  0
  6  3  1  0  0  0  0
  6  9  1  0  0  0  0
  7  6  1  0  0  0  0
  8  6  1  0  0  0  0
  9 12  1  0  0  0  0
  9 11  1  0  0  0  0
 10  9  1  0  0  0  0
 12 15  1  0  0  0  0
 12 14  1  0  0  0  0
 13 12  1  0  0  0  0
 15 17  1  0  0  0  0
 15 16  1  0  0  0  0
 18 46  2  0  0  0  0
 18 44  1  0  0  0  0
 19 20  1  0  0  0  0
 21 19  1  0  0  0  0
 22 47  2  0  0  0  0
 22 19  1  0  0  0  0
 23 24  1  0  0  0  0
 23 26  1  0  0  0  0
 23 45  1  0  0  0  0
 25 23  1  0  0  0  0
 26 27  1  0  0  0  0
 28 26  1  0  0  0  0
 29 26  1  0  0  0  0
 30 31  1  0  0  0  0
 30 29  2  0  0  0  0
 32 30  1  0  0  0  0
 33 32  1  0  0  0  0
 34 32  1  0  0  0  0
 34 36  1  0  0  0  0
 35 34  1  0  0  0  0
 37 36  1  0  0  0  0
 38 36  1  1  0  0  0
 38 29  1  0  0  0  0
 38 39  1  0  0  0  0
 39 40  1  6  0  0  0
 39 45  1  0  0  0  0
 39 41  1  0  0  0  0
 41 44  1  0  0  0  0
 41 43  1  0  0  0  0
 42 41  1  0  0  0  0
 44 19  1  0  0  0  0
 45 22  1  0  0  0  0
M  END
