2,5
q = -1.0, confidence = 0.0

 35 36  0  0  1  0  0  0  0  0999 V2000
   -0.5061    0.2587    1.6042 C   0  0  1  0  0  3  0  0  0  0  0  0
    0.2276    1.5048    1.4305 C   0  0  1  0  0  3  0  0  0  0  0  0
   -0.0852    2.0097    0.0987 C   0  0  0  0  0  0  0  0  0  0  0  0
   -0.9716    1.0762   -0.5541 C   0  0  0  0  0  0  0  0  0  0  0  0
   -1.2234   -0.0234    0.3830 C   0  0  2  0  0  3  0  0  0  0  0  0
   -0.4389   -0.6100    2.8200 C   0  0  0  0  0  0  0  0  0  0  0  0
   -1.1817   -1.4283    2.7751 H   0  0  0  0  0  0  0  0  0  0  0  0
   -0.6268   -0.0184    3.7386 H   0  0  0  0  0  0  0  0  0  0  0  0
    0.5661   -1.0747    2.9027 H   0  0  0  0  0  0  0  0  0  0  0  0
    1.0646    2.1898    2.4633 C   0  0  0  0  0  0  0  0  0  0  0  0
    1.5493    1.4569    3.1366 H   0  0  0  0  0  0  0  0  0  0  0  0
    0.4512    2.8714    3.0932 H   0  0  0  0  0  0  0  0  0  0  0  0
    1.8620    2.7972    1.9935 H   0  0  0  0  0  0  0  0  0  0  0  0
    0.4937    3.2546   -0.4926 C   0  0  0  0  0  0  0  0  0  0  0  0
    1.5983    3.1730   -0.5549 H   0  0  0  0  0  0  0  0  0  0  0  0
    0.2430    4.1383    0.1293 H   0  0  0  0  0  0  0  0  0  0  0  0
    0.1155    3.4305   -1.5164 H   0  0  0  0  0  0  0  0  0  0  0  0
   -1.5544    1.1699   -1.9258 C   0  0  0  0  0  0  0  0  0  0  0  0
   -1.0995    1.9948   -2.5052 H   0  0  0  0  0  0  0  0  0  0  0  0
   -2.6508    1.3330   -1.8723 H   0  0  0  0  0  0  0  0  0  0  0  0
   -1.3651    0.2267   -2.4777 H   0  0  0  0  0  0  0  0  0  0  0  0
   -2.1052   -1.2010    0.0851 C   0  0  0  0  0  0  0  0  0  0  0  0
   -1.9655   -1.9694    0.8742 H   0  0  0  0  0  0  0  0  0  0  0  0
   -1.7517   -1.6687   -0.8573 H   0  0  0  0  0  0  0  0  0  0  0  0
   -3.5711   -0.8222   -0.0211 C   0  0  0  0  0  0  0  0  0  0  0  0
   -4.3382   -1.2229   -1.1319 C   0  0  0  0  0  0  0  0  0  0  0  0
   -3.8593   -1.8130   -1.9292 H   0  0  0  0  0  0  0  0  0  0  0  0
   -5.6945   -0.8754   -1.2324 C   0  0  0  0  0  0  0  0  0  0  0  0
   -6.2776   -1.1978   -2.1088 H   0  0  0  0  0  0  0  0  0  0  0  0
   -6.3041   -0.1149   -0.2227 C   0  0  0  0  0  0  0  0  0  0  0  0
   -7.3667    0.1609   -0.3016 H   0  0  0  0  0  0  0  0  0  0  0  0
   -5.5481    0.2951    0.8877 C   0  0  0  0  0  0  0  0  0  0  0  0
   -6.0175    0.8937    1.6835 H   0  0  0  0  0  0  0  0  0  0  0  0
   -4.1936   -0.0550    0.9850 C   0  0  0  0  0  0  0  0  0  0  0  0
   -3.6038    0.2756    1.8551 H   0  0  0  0  0  0  0  0  0  0  0  0
  1  6  1  6  0  0  0
  2  1  1  0  0  0  0
  2 10  1  1  0  0  0
  3  2  1  0  0  0  0
  4  3  2  0  0  0  0
  4  5  1  0  0  0  0
  5 22  1  1  0  0  0
  5  1  1  0  0  0  0
  6  9  1  0  0  0  0
  6  8  1  0  0  0  0
  7  6  1  0  0  0  0
 10 12  1  0  0  0  0
 10 11  1  0  0  0  0
 13 10  1  0  0  0  0
 14  3  1  0  0  0  0
 14 16  1  0  0  0  0
 15 14  1  0  0  0  0
 17 14  1  0  0  0  0
 18 20  1  0  0  0  0
 18  4  1  0  0  0  0
 19 18  1  0  0  0  0
 21 18  1  0  0  0  0
 22 23  1  0  0  0  0
 24 22  1  0  0  0  0
 25 22  1  0  0  0  0
 25 34  1  0  0  0  0
 26 25  2  0  0  0  0
 27 26  1  0  0  0  0
 28 26  1  0  0  0  0
 28 30  2  0  0  0  0
 29 28  1  0  0  0  0
 30 32  1  0  0  0  0
 31 30  1  0  0  0  0
 32 34  2  0  0  0  0
 32 33  1  0  0  0  0
 34 35  1  0  0  0  0
M  END
