3,5
q = -1.0

 38 39  0  0  1  0  0  0  0  0999 V2000
    0.0010    0.7185    1.6200 C   0  0  0  0  0  0  0  0  0  0  0  0
    1.1446    1.5999    1.5338 C   0  0  0  0  0  0  0  0  0  0  0  0
    1.0669    2.2941    0.2450 C   0  0  2  0  0  3  0  0  0  0  0  0
   -0.1172    1.8452   -0.4441 C   0  0  2  0  0  3  0  0  0  0  0  0
   -0.7623    0.8290    0.3884 C   0  0  2  0  0  3  0  0  0  0  0  0
   -0.3172   -0.2352    2.7268 C   0  0  0  0  0  0  0  0  0  0  0  0
   -0.3510   -1.2729    2.3371 H   0  0  0  0  0  0  0  0  0  0  0  0
   -1.3047   -0.0010    3.1751 H   0  0  0  0  0  0  0  0  0  0  0  0
    0.4438   -0.2005    3.5282 H   0  0  0  0  0  0  0  0  0  0  0  0
    2.2057    1.8235    2.5629 C   0  0  0  0  0  0  0  0  0  0  0  0
    2.2702    0.9764    3.2718 H   0  0  0  0  0  0  0  0  0  0  0  0
    2.0062    2.7454    3.1516 H   0  0  0  0  0  0  0  0  0  0  0  0
    3.1982    1.9397    2.0856 H   0  0  0  0  0  0  0  0  0  0  0  0
    2.0924    3.2622   -0.2502 C   0  0  0  0  0  0  0  0  0  0  0  0
    3.0864    2.7710   -0.2979 H   0  0  0  0  0  0  0  0  0  0  0  0
    2.1703    4.1395    0.4251 H   0  0  0  0  0  0  0  0  0  0  0  0
    1.8511    3.6247   -1.2665 H   0  0  0  0  0  0  0  0  0  0  0  0
   -0.6059    2.2801   -1.7872 C   0  0  0  0  0  0  0  0  0  0  0  0
    0.0822    3.0089   -2.2540 H   0  0  0  0  0  0  0  0  0  0  0  0
   -1.6077    2.7504   -1.7042 H   0  0  0  0  0  0  0  0  0  0  0  0
   -0.6735    1.4022   -2.4633 H   0  0  0  0  0  0  0  0  0  0  0  0
   -2.0399    0.1171    0.0682 C   0  0  0  0  0  0  0  0  0  0  0  0
   -2.0520   -0.8713    0.5703 H   0  0  0  0  0  0  0  0  0  0  0  0
   -2.0760   -0.0966   -1.0191 H   0  0  0  0  0  0  0  0  0  0  0  0
   -3.2926    0.9220    0.4913 C   0  0  0  0  0  0  0  0  0  0  0  0
   -3.2427    1.1303    1.5808 H   0  0  0  0  0  0  0  0  0  0  0  0
   -3.2768    1.9092   -0.0172 H   0  0  0  0  0  0  0  0  0  0  0  0
   -4.5767    0.1972    0.1648 C   0  0  0  0  0  0  0  0  0  0  0  0
   -5.1201    0.2506   -1.1352 C   0  0  0  0  0  0  0  0  0  0  0  0
   -4.6216    0.8636   -1.9036 H   0  0  0  0  0  0  0  0  0  0  0  0
   -6.2833   -0.4622   -1.4597 C   0  0  0  0  0  0  0  0  0  0  0  0
   -6.6939   -0.4048   -2.4794 H   0  0  0  0  0  0  0  0  0  0  0  0
   -6.9244   -1.2454   -0.4863 C   0  0  0  0  0  0  0  0  0  0  0  0
   -7.8385   -1.8039   -0.7389 H   0  0  0  0  0  0  0  0  0  0  0  0
   -6.3934   -1.3093    0.8113 C   0  0  0  0  0  0  0  0  0  0  0  0
   -6.8906   -1.9186    1.5816 H   0  0  0  0  0  0  0  0  0  0  0  0
   -5.2288   -0.5947    1.1308 C   0  0  0  0  0  0  0  0  0  0  0  0
   -4.8167   -0.6469    2.1518 H   0  0  0  0  0  0  0  0  0  0  0  0
  1  6  1  0  0  0  0
  2  1  2  0  0  0  0
  2 10  1  0  0  0  0
  3 14  1  6  0  0  0
  3  2  1  0  0  0  0
  4 18  1  6  0  0  0
  4  3  1  0  0  0  0
  4  5  1  0  0  0  0
  5 22  1  1  0  0  0
  5  1  1  0  0  0  0
  6  8  1  0  0  0  0
  6  9  1  0  0  0  0
  7  6  1  0  0  0  0
 10 12  1  0  0  0  0
 10 11  1  0  0  0  0
 13 10  1  0  0  0  0
 14 16  1  0  0  0  0
 15 14  1  0  0  0  0
 17 14  1  0  0  0  0
 18 20  1  0  0  0  0
 19 18  1  0  0  0  0
 21 18  1  0  0  0  0
 22 25  1  0  0  0  0
 22 23  1  0  0  0  0
 24 22  1  0  0  0  0
 25 26  1  0  0  0  0
 27 25  1  0  0  0  0
 28 25  1  0  0  0  0
 28 37  1  0  0  0  0
 29 28  2  0  0  0  0
 30 29  1  0  0  0  0
 31 29  1  0  0  0  0
 31 33  2  0  0  0  0
 32 31  1  0  0  0  0
 33 35  1  0  0  0  0
 34 33  1  0  0  0  0
 35 37  2  0  0  0  0
 35 36  1  0  0  0  0
 37 38  1  0  0  0  0
M  END
