2,3
q = -1.0

 12 12  0  0  1  0  0  0  0  0999 V2000
    0.2597    1.1496    2.2057 O   0  0  0  0  0  0  0  0  0  0  0  0
    1.0581    0.5724    1.5133 C   0  0  0  0  0  3  0  0  0  0  0  0
    3.0666   -0.6875    0.9919 C   0  0  0  0  0  3  0  0  0  0  0  0
    2.6555    0.3599    2.0038 C   0  0  1  0  0  0  0  0  0  0  0  0
    3.3238    1.5938    1.5651 C   0  0  0  0  0  0  0  0  0  0  0  0
    3.8962    1.3812    0.3252 C   0  0  0  0  0  0  0  0  0  0  0  0
    3.7335   -0.0050   -0.0411 C   0  0  0  0  0  3  0  0  0  0  0  0
    3.0589   -1.7727    1.1659 H   0  0  0  0  0  0  0  0  0  0  0  0
    2.6154    0.1093    3.0787 H   0  0  0  0  0  0  0  0  0  0  0  0
    3.2155    2.5592    2.0777 H   0  0  0  0  0  0  0  0  0  0  0  0
    4.3691    2.1428   -0.3091 H   0  0  0  0  0  0  0  0  0  0  0  0
    4.0910   -0.4726   -0.9687 H   0  0  0  0  0  0  0  0  0  0  0  0
  2  4  1  0  0  0  0
  2  1  2  0  0  0  0
  3  8  1  0  0  0  0
  3  4  1  0  0  0  0
  4  9  1  1  0  0  0
  5  4  1  0  0  0  0
  5 10  1  0  0  0  0
  6  5  2  0  0  0  0
  7  6  1  0  0  0  0
  7  3  1  0  0  0  0
 11  6  1  0  0  0  0
 12  7  1  0  0  0  0
M  END
