17
q = -2.0, confidence = 0.714

 48 53  0  0  0  0  0  0  0  0999 V2000
    2.9420    1.3983    0.9778 C   0  0  0  0  0  0  0  0  0  0  0  0
    2.7259    2.0529    1.8343 H   0  0  0  0  0  0  0  0  0  0  0  0
    3.8576    1.7825    0.0087 C   0  0  0  0  0  0  0  0  0  0  0  0
    4.3664    2.7539    0.1009 H   0  0  0  0  0  0  0  0  0  0  0  0
    4.1526    0.9508   -1.1102 C   0  0  0  0  0  0  0  0  0  0  0  0
    4.8770    1.2981   -1.8615 H   0  0  0  0  0  0  0  0  0  0  0  0
    3.5412   -0.2863   -1.2606 C   0  0  0  0  0  0  0  0  0  0  0  0
    3.7681   -0.9282   -2.1243 H   0  0  0  0  0  0  0  0  0  0  0  0
    1.8252   -3.1317   -0.8946 C   0  0  0  0  0  0  0  0  0  0  0  0
    2.4192   -3.2101   -1.8166 H   0  0  0  0  0  0  0  0  0  0  0  0
    1.0244   -4.1839   -0.4707 C   0  0  0  0  0  0  0  0  0  0  0  0
    0.9844   -5.1125   -1.0586 H   0  0  0  0  0  0  0  0  0  0  0  0
    0.2510   -4.0795    0.7200 C   0  0  0  0  0  0  0  0  0  0  0  0
   -0.3659   -4.9349    1.0342 H   0  0  0  0  0  0  0  0  0  0  0  0
    0.2635   -2.9269    1.4951 C   0  0  0  0  0  0  0  0  0  0  0  0
   -0.3189   -2.8749    2.4259 H   0  0  0  0  0  0  0  0  0  0  0  0
    1.2916   -0.5170    1.6690 C   0  0  0  0  0  3  0  0  0  0  0  0
    2.2930    0.1358    0.8533 C   0  0  0  0  0  0  0  0  0  0  0  0
    2.6045   -0.7099   -0.2846 C   0  0  0  0  0  0  0  0  0  0  0  0
    1.8561   -1.9405   -0.1288 C   0  0  0  0  0  0  0  0  0  0  0  0
    1.0762   -1.8269    1.0901 C   0  0  0  0  0  0  0  0  0  0  0  0
   -2.9419   -1.3984    0.9778 C   0  0  0  0  0  0  0  0  0  0  0  0
   -2.7259   -2.0529    1.8343 H   0  0  0  0  0  0  0  0  0  0  0  0
   -3.8575   -1.7826    0.0087 C   0  0  0  0  0  0  0  0  0  0  0  0
   -4.3662   -2.7540    0.1009 H   0  0  0  0  0  0  0  0  0  0  0  0
   -4.1525   -0.9510   -1.1102 C   0  0  0  0  0  0  0  0  0  0  0  0
   -4.8769   -1.2983   -1.8615 H   0  0  0  0  0  0  0  0  0  0  0  0
   -3.5412    0.2862   -1.2606 C   0  0  0  0  0  0  0  0  0  0  0  0
   -3.7680    0.9280   -2.1244 H   0  0  0  0  0  0  0  0  0  0  0  0
   -1.8253    3.1316   -0.8946 C   0  0  0  0  0  0  0  0  0  0  0  0
   -2.4193    3.2100   -1.8167 H   0  0  0  0  0  0  0  0  0  0  0  0
   -1.0245    4.1839   -0.4708 C   0  0  0  0  0  0  0  0  0  0  0  0
   -0.9846    5.1125   -1.0586 H   0  0  0  0  0  0  0  0  0  0  0  0
   -0.2512    4.0796    0.7200 C   0  0  0  0  0  0  0  0  0  0  0  0
    0.3657    4.9350    1.0341 H   0  0  0  0  0  0  0  0  0  0  0  0
   -0.2636    2.9269    1.4951 C   0  0  0  0  0  0  0  0  0  0  0  0
    0.3188    2.8750    2.4259 H   0  0  0  0  0  0  0  0  0  0  0  0
   -1.2916    0.5170    1.6690 C   0  0  0  0  0  3  0  0  0  0  0  0
   -2.2930   -0.1359    0.8533 C   0  0  0  0  0  0  0  0  0  0  0  0
   -2.6045    0.7098   -0.2846 C   0  0  0  0  0  0  0  0  0  0  0  0
   -1.8562    1.9404   -0.1288 C   0  0  0  0  0  0  0  0  0  0  0  0
   -1.0763    1.8269    1.0901 C   0  0  0  0  0  0  0  0  0  0  0  0
   -0.7700    0.0335    2.9978 C   0  0  0  0  0  0  0  0  0  0  0  0
   -1.1356    0.6814    3.8252 H   0  0  0  0  0  0  0  0  0  0  0  0
   -1.1918   -0.9715    3.1972 H   0  0  0  0  0  0  0  0  0  0  0  0
    0.7700   -0.0334    2.9978 C   0  0  0  0  0  0  0  0  0  0  0  0
    1.1918    0.9716    3.1971 H   0  0  0  0  0  0  0  0  0  0  0  0
    1.1356   -0.6813    3.8252 H   0  0  0  0  0  0  0  0  0  0  0  0
  1  2  1  0  0  0  0
  3  4  1  0  0  0  0
  3  1  2  0  0  0  0
  5  3  1  0  0  0  0
  6  5  1  0  0  0  0
  7  5  2  0  0  0  0
  7 19  1  0  0  0  0
  8  7  1  0  0  0  0
  9 11  2  0  0  0  0
  9 20  1  0  0  0  0
 10  9  1  0  0  0  0
 11 13  1  0  0  0  0
 12 11  1  0  0  0  0
 13 14  1  0  0  0  0
 13 15  2  0  0  0  0
 15 16  1  0  0  0  0
 17 46  1  0  0  0  0
 18  1  1  0  0  0  0
 18 17  1  0  0  0  0
 19 20  1  0  0  0  0
 19 18  2  0  0  0  0
 20 21  2  0  0  0  0
 21 15  1  0  0  0  0
 21 17  1  0  0  0  0
 22 23  1  0  0  0  0
 24 25  1  0  0  0  0
 24 22  2  0  0  0  0
 26 24  1  0  0  0  0
 27 26  1  0  0  0  0
 28 26  2  0  0  0  0
 28 40  1  0  0  0  0
 29 28  1  0  0  0  0
 30 32  2  0  0  0  0
 30 41  1  0  0  0  0
 31 30  1  0  0  0  0
 32 34  1  0  0  0  0
 33 32  1  0  0  0  0
 34 35  1  0  0  0  0
 34 36  2  0  0  0  0
 36 37  1  0  0  0  0
 38 43  1  0  0  0  0
 39 22  1  0  0  0  0
 39 38  1  0  0  0  0
 40 41  1  0  0  0  0
 40 39  2  0  0  0  0
 41 42  2  0  0  0  0
 42 36  1  0  0  0  0
 42 38  1  0  0  0  0
 43 45  1  0  0  0  0
 43 44  1  0  0  0  0
 46 43  1  0  0  0  0
 46 47  1  0  0  0  0
 46 48  1  0  0  0  0
M  END
