5,7
q = -1.0

 43 43  0  0  1  0  0  0  0  0999 V2000
    5.7352    1.2429    1.2850 Cl  0  0  0  0  0  0  0  0  0  0  0  0
    5.5895   -0.2488   -0.2017 Si  0  0  0  0  0  0  0  0  0  0  0  0
   -1.9388   -0.9791   -1.0010 C   0  0  0  0  0  0  0  0  0  0  0  0
   -3.1122   -1.4737   -0.3558 C   0  0  0  0  0  0  0  0  0  0  0  0
   -3.0498   -1.1032    1.0654 C   0  0  2  0  0  3  0  0  0  0  0  0
   -1.8356   -0.3850    1.2927 C   0  0  2  0  0  3  0  0  0  0  0  0
   -1.1750   -0.2537    0.0042 C   0  0  1  0  0  3  0  0  0  0  0  0
   -1.5377   -1.1904   -2.4282 C   0  0  0  0  0  0  0  0  0  0  0  0
   -4.1890   -2.3079   -0.9788 C   0  0  0  0  0  0  0  0  0  0  0  0
   -4.0537   -1.5059    2.1015 C   0  0  0  0  0  0  0  0  0  0  0  0
   -1.3140    0.1112    2.6058 C   0  0  0  0  0  0  0  0  0  0  0  0
    0.1708    0.3734   -0.2182 C   0  0  0  0  0  0  0  0  0  0  0  0
    1.3194   -0.6320   -0.0304 C   0  0  0  0  0  0  0  0  0  0  0  0
    2.7030   -0.0064   -0.2293 C   0  0  0  0  0  0  0  0  0  0  0  0
    3.8603   -0.9982   -0.0515 C   0  0  0  0  0  0  0  0  0  0  0  0
    5.8501    0.5910   -1.8654 C   0  0  0  0  0  0  0  0  0  0  0  0
    6.9194   -1.5330    0.1434 C   0  0  0  0  0  0  0  0  0  0  0  0
   -0.9209   -2.1092   -2.5429 H   0  0  0  0  0  0  0  0  0  0  0  0
   -2.4197   -1.2996   -3.0885 H   0  0  0  0  0  0  0  0  0  0  0  0
   -0.9387   -0.3419   -2.8117 H   0  0  0  0  0  0  0  0  0  0  0  0
   -3.9941   -3.3902   -0.8153 H   0  0  0  0  0  0  0  0  0  0  0  0
   -5.1841   -2.0845   -0.5480 H   0  0  0  0  0  0  0  0  0  0  0  0
   -4.2523   -2.1412   -2.0712 H   0  0  0  0  0  0  0  0  0  0  0  0
   -3.8485   -2.5345    2.4700 H   0  0  0  0  0  0  0  0  0  0  0  0
   -4.0311   -0.8272    2.9755 H   0  0  0  0  0  0  0  0  0  0  0  0
   -5.0855   -1.5002    1.6998 H   0  0  0  0  0  0  0  0  0  0  0  0
   -0.6704   -0.6504    3.0993 H   0  0  0  0  0  0  0  0  0  0  0  0
   -0.7036    1.0263    2.4814 H   0  0  0  0  0  0  0  0  0  0  0  0
   -2.1364    0.3533    3.3065 H   0  0  0  0  0  0  0  0  0  0  0  0
    0.3097    1.2259    0.4790 H   0  0  0  0  0  0  0  0  0  0  0  0
    0.2219    0.8070   -1.2391 H   0  0  0  0  0  0  0  0  0  0  0  0
    1.2567   -1.0763    0.9875 H   0  0  0  0  0  0  0  0  0  0  0  0
    1.1857   -1.4806   -0.7374 H   0  0  0  0  0  0  0  0  0  0  0  0
    2.7505    0.4523   -1.2423 H   0  0  0  0  0  0  0  0  0  0  0  0
    2.8305    0.8366    0.4850 H   0  0  0  0  0  0  0  0  0  0  0  0
    3.7958   -1.4882    0.9457 H   0  0  0  0  0  0  0  0  0  0  0  0
    3.7863   -1.8223   -0.7981 H   0  0  0  0  0  0  0  0  0  0  0  0
    5.7629   -0.1473   -2.6898 H   0  0  0  0  0  0  0  0  0  0  0  0
    5.0984    1.3880   -2.0323 H   0  0  0  0  0  0  0  0  0  0  0  0
    6.8560    1.0533   -1.9199 H   0  0  0  0  0  0  0  0  0  0  0  0
    6.8813   -2.3434   -0.6143 H   0  0  0  0  0  0  0  0  0  0  0  0
    7.9288   -1.0763    0.1098 H   0  0  0  0  0  0  0  0  0  0  0  0
    6.7809   -1.9879    1.1446 H   0  0  0  0  0  0  0  0  0  0  0  0
  2 15  1  0  0  0  0
  2 17  1  0  0  0  0
  2  1  1  0  0  0  0
  3  4  2  0  0  0  0
  3  7  1  0  0  0  0
  4  5  1  0  0  0  0
  5  6  1  0  0  0  0
  5 10  1  1  0  0  0
  6 11  1  1  0  0  0
  7 12  1  1  0  0  0
  7  6  1  0  0  0  0
  8  3  1  0  0  0  0
  9 21  1  0  0  0  0
  9 22  1  0  0  0  0
  9  4  1  0  0  0  0
 10 24  1  0  0  0  0
 10 25  1  0  0  0  0
 11 27  1  0  0  0  0
 11 29  1  0  0  0  0
 12 13  1  0  0  0  0
 12 30  1  0  0  0  0
 13 32  1  0  0  0  0
 14 15  1  0  0  0  0
 14 13  1  0  0  0  0
 14 35  1  0  0  0  0
 15 36  1  0  0  0  0
 16  2  1  0  0  0  0
 17 43  1  0  0  0  0
 18  8  1  0  0  0  0
 19  8  1  0  0  0  0
 20  8  1  0  0  0  0
 23  9  1  0  0  0  0
 26 10  1  0  0  0  0
 28 11  1  0  0  0  0
 31 12  1  0  0  0  0
 33 13  1  0  0  0  0
 34 14  1  0  0  0  0
 37 15  1  0  0  0  0
 38 16  1  0  0  0  0
 39 16  1  0  0  0  0
 40 16  1  0  0  0  0
 41 17  1  0  0  0  0
 42 17  1  0  0  0  0
M  END
