3,5
q = -1.0

 38 41  0  0  1  0  0  0  0  0999 V2000
    0.7829    0.6946   -0.8278 C   0  0  0  0  0  0  0  0  0  0  0  0
    0.8014   -0.7344   -0.8191 C   0  0  0  0  0  0  0  0  0  0  0  0
   -0.5977   -1.0402   -0.9633 C   0  0  0  0  0  2  0  0  0  0  0  0
   -1.5964   -0.0562   -0.9961 C   0  0  2  0  0  3  0  0  0  0  0  0
   -0.6275    0.9523   -0.9808 C   0  0  0  0  0  2  0  0  0  0  0  0
    1.7731    1.7721   -0.7067 C   0  0  0  0  0  0  0  0  0  0  0  0
    1.3962    3.0748   -1.1027 C   0  0  0  0  0  0  0  0  0  0  0  0
    0.3876    3.2334   -1.5169 H   0  0  0  0  0  0  0  0  0  0  0  0
    2.2892    4.1449   -0.9767 C   0  0  0  0  0  0  0  0  0  0  0  0
    1.9823    5.1543   -1.2894 H   0  0  0  0  0  0  0  0  0  0  0  0
    3.5771    3.9263   -0.4607 C   0  0  0  0  0  0  0  0  0  0  0  0
    4.2833    4.7651   -0.3660 H   0  0  0  0  0  0  0  0  0  0  0  0
    3.9594    2.6346   -0.0610 C   0  0  0  0  0  0  0  0  0  0  0  0
    4.9618    2.4620    0.3589 H   0  0  0  0  0  0  0  0  0  0  0  0
    3.0664    1.5627   -0.1779 C   0  0  0  0  0  0  0  0  0  0  0  0
    3.3555    0.5649    0.1779 H   0  0  0  0  0  0  0  0  0  0  0  0
    1.8475   -1.7687   -0.7769 C   0  0  0  0  0  0  0  0  0  0  0  0
    3.0859   -1.5850   -1.4262 C   0  0  0  0  0  0  0  0  0  0  0  0
    3.2858   -0.6464   -1.9633 H   0  0  0  0  0  0  0  0  0  0  0  0
    4.0480   -2.6050   -1.4093 C   0  0  0  0  0  0  0  0  0  0  0  0
    5.0094   -2.4555   -1.9237 H   0  0  0  0  0  0  0  0  0  0  0  0
    3.7848   -3.8143   -0.7467 C   0  0  0  0  0  0  0  0  0  0  0  0
    4.5438   -4.6110   -0.7305 H   0  0  0  0  0  0  0  0  0  0  0  0
    2.5495   -4.0050   -0.1043 C   0  0  0  0  0  0  0  0  0  0  0  0
    2.3402   -4.9486    0.4216 H   0  0  0  0  0  0  0  0  0  0  0  0
    1.5853   -2.9906   -0.1198 C   0  0  0  0  0  0  0  0  0  0  0  0
    0.6245   -3.1229    0.4026 H   0  0  0  0  0  0  0  0  0  0  0  0
   -3.0512   -0.0714   -1.0289 C   0  0  0  0  0  0  0  0  0  0  0  0
   -3.7446   -1.2985   -1.0853 C   0  0  0  0  0  0  0  0  0  0  0  0
   -3.1695   -2.2361   -1.1009 H   0  0  0  0  0  0  0  0  0  0  0  0
   -5.1433   -1.3068   -1.1078 C   0  0  0  0  0  0  0  0  0  0  0  0
   -5.6838   -2.2641   -1.1524 H   0  0  0  0  0  0  0  0  0  0  0  0
   -5.8569   -0.0963   -1.0680 C   0  0  0  0  0  0  0  0  0  0  0  0
   -6.9573   -0.1063   -1.0819 H   0  0  0  0  0  0  0  0  0  0  0  0
   -5.1669    1.1265   -1.0029 C   0  0  0  0  0  0  0  0  0  0  0  0
   -5.7254    2.0736   -0.9628 H   0  0  0  0  0  0  0  0  0  0  0  0
   -3.7680    1.1427   -0.9821 C   0  0  0  0  0  0  0  0  0  0  0  0
   -3.2112    2.0888   -0.9094 H   0  0  0  0  0  0  0  0  0  0  0  0
  1  2  2  0  0  0  0
  1  6  1  0  0  0  0
  2 17  1  0  0  0  0
  3  2  1  0  0  0  0
  4 28  1  1  0  0  0
  4  5  1  0  0  0  0
  4  3  1  0  0  0  0
  5  1  1  0  0  0  0
  6 15  1  0  0  0  0
  7  9  1  0  0  0  0
  7  6  2  0  0  0  0
  8  7  1  0  0  0  0
  9 11  2  0  0  0  0
 10  9  1  0  0  0  0
 11 12  1  0  0  0  0
 11 13  1  0  0  0  0
 13 14  1  0  0  0  0
 15 13  2  0  0  0  0
 15 16  1  0  0  0  0
 17 26  1  0  0  0  0
 18 20  1  0  0  0  0
 18 17  2  0  0  0  0
 19 18  1  0  0  0  0
 20 22  2  0  0  0  0
 21 20  1  0  0  0  0
 22 23  1  0  0  0  0
 22 24  1  0  0  0  0
 24 25  1  0  0  0  0
 26 24  2  0  0  0  0
 26 27  1  0  0  0  0
 28 37  1  0  0  0  0
 29 28  2  0  0  0  0
 30 29  1  0  0  0  0
 31 29  1  0  0  0  0
 31 33  2  0  0  0  0
 32 31  1  0  0  0  0
 33 35  1  0  0  0  0
 34 33  1  0  0  0  0
 35 37  2  0  0  0  0
 35 36  1  0  0  0  0
 37 38  1  0  0  0  0
M  END
