1,4
q = -2.0, confidence = 0.748

 34 36  0  0  0  0  0  0  0  0999 V2000
   -0.0270    2.3148   -0.5348 C   0  0  0  0  0  3  0  0  0  0  0  0
    1.3357    2.0370   -0.1768 C   0  0  0  0  0  0  0  0  0  0  0  0
    1.7940    0.6142   -0.0784 C   0  0  0  0  0  0  0  0  0  0  0  0
    0.8929   -0.4196   -0.2421 C   0  0  0  0  0  3  0  0  0  0  0  0
   -0.4614    3.6473   -0.6053 C   0  0  0  0  0  0  0  0  0  0  0  0
   -1.5062    3.8682   -0.8853 H   0  0  0  0  0  0  0  0  0  0  0  0
    0.4077    4.7174   -0.3168 C   0  0  0  0  0  0  0  0  0  0  0  0
    0.0501    5.7574   -0.3754 H   0  0  0  0  0  0  0  0  0  0  0  0
    1.7334    4.4448    0.0515 C   0  0  0  0  0  0  0  0  0  0  0  0
    2.4210    5.2712    0.2893 H   0  0  0  0  0  0  0  0  0  0  0  0
    2.1945    3.1200    0.1236 C   0  0  0  0  0  0  0  0  0  0  0  0
    3.2340    2.9251    0.4262 H   0  0  0  0  0  0  0  0  0  0  0  0
    3.2284    0.3450    0.2476 C   0  0  0  0  0  0  0  0  0  0  0  0
    4.2646    0.7686   -0.6147 C   0  0  0  0  0  0  0  0  0  0  0  0
    4.0094    1.3324   -1.5252 H   0  0  0  0  0  0  0  0  0  0  0  0
    5.6033    0.4613   -0.3303 C   0  0  0  0  0  0  0  0  0  0  0  0
    6.3972    0.7899   -1.0186 H   0  0  0  0  0  0  0  0  0  0  0  0
    5.9307   -0.2652    0.8261 C   0  0  0  0  0  0  0  0  0  0  0  0
    6.9814   -0.5046    1.0499 H   0  0  0  0  0  0  0  0  0  0  0  0
    4.9100   -0.6835    1.6947 C   0  0  0  0  0  0  0  0  0  0  0  0
    5.1583   -1.2517    2.6043 H   0  0  0  0  0  0  0  0  0  0  0  0
    3.5715   -0.3837    1.4064 C   0  0  0  0  0  0  0  0  0  0  0  0
    2.7688   -0.7197    2.0797 H   0  0  0  0  0  0  0  0  0  0  0  0
    1.1905   -1.8554   -0.2141 C   0  0  0  0  0  0  0  0  0  0  0  0
    2.2829   -2.4311   -0.9112 C   0  0  0  0  0  0  0  0  0  0  0  0
    2.9728   -1.7747   -1.4612 H   0  0  0  0  0  0  0  0  0  0  0  0
    2.4869   -3.8173   -0.9117 C   0  0  0  0  0  0  0  0  0  0  0  0
    3.3382   -4.2400   -1.4676 H   0  0  0  0  0  0  0  0  0  0  0  0
    1.6180   -4.6675   -0.2070 C   0  0  0  0  0  0  0  0  0  0  0  0
    1.7846   -5.7554   -0.2069 H   0  0  0  0  0  0  0  0  0  0  0  0
    0.5299   -4.1160    0.4900 C   0  0  0  0  0  0  0  0  0  0  0  0
   -0.1616   -4.7711    1.0428 H   0  0  0  0  0  0  0  0  0  0  0  0
    0.3119   -2.7322    0.4740 C   0  0  0  0  0  0  0  0  0  0  0  0
   -0.5531   -2.2956    0.9980 H   0  0  0  0  0  0  0  0  0  0  0  0
  1  2  1  0  0  0  0
  2  3  1  0  0  0  0
  2 11  2  0  0  0  0
  3 13  1  0  0  0  0
  4 24  1  0  0  0  0
  4  3  2  0  0  0  0
  5  1  2  0  0  0  0
  5  7  1  0  0  0  0
  6  5  1  0  0  0  0
  7  9  2  0  0  0  0
  8  7  1  0  0  0  0
  9 11  1  0  0  0  0
  9 10  1  0  0  0  0
 11 12  1  0  0  0  0
 13 22  1  0  0  0  0
 14 16  1  0  0  0  0
 14 13  2  0  0  0  0
 15 14  1  0  0  0  0
 16 18  2  0  0  0  0
 17 16  1  0  0  0  0
 18 19  1  0  0  0  0
 18 20  1  0  0  0  0
 20 21  1  0  0  0  0
 22 20  2  0  0  0  0
 22 23  1  0  0  0  0
 24 33  1  0  0  0  0
 25 24  2  0  0  0  0
 26 25  1  0  0  0  0
 27 25  1  0  0  0  0
 27 29  2  0  0  0  0
 28 27  1  0  0  0  0
 29 30  1  0  0  0  0
 29 31  1  0  0  0  0
 31 32  1  0  0  0  0
 33 31  2  0  0  0  0
 33 34  1  0  0  0  0
M  END
