1,7
q = 0.0, confidence = 0.852

 13 12  0  0  0  0  0  0  0  0999 V2000
   -0.6101   -1.6044    2.1517 C   0  0  0  0  0  3  0  0  0  0  0  0
   -1.6159   -1.3796    2.5581 H   0  0  0  0  0  0  0  0  0  0  0  0
   -0.4334   -2.6886    2.0560 H   0  0  0  0  0  0  0  0  0  0  0  0
    0.5038   -0.8017    2.6446 C   0  0  0  0  0  0  0  0  0  0  0  0
    0.3669    0.5932    2.7144 C   0  0  0  0  0  0  0  0  0  0  0  0
    1.2765    1.1806    2.9258 H   0  0  0  0  0  0  0  0  0  0  0  0
   -0.8501    1.2724    2.3119 C   0  0  0  0  0  3  0  0  0  0  0  0
   -0.8429    2.3727    2.3324 H   0  0  0  0  0  0  0  0  0  0  0  0
   -1.8103    0.8525    2.6728 H   0  0  0  0  0  0  0  0  0  0  0  0
    1.8275   -1.4488    2.9654 C   0  0  0  0  0  0  0  0  0  0  0  0
    2.6695   -0.7322    2.8865 H   0  0  0  0  0  0  0  0  0  0  0  0
    2.0349   -2.3001    2.2882 H   0  0  0  0  0  0  0  0  0  0  0  0
    1.8163   -1.8560    4.0000 H   0  0  0  0  0  0  0  0  0  0  0  0
  1  2  1  0  0  0  0
  1  4  1  0  0  0  0
  3  1  1  0  0  0  0
  4  5  2  0  0  0  0
  4 10  1  0  0  0  0
  5  6  1  0  0  0  0
  7  8  1  0  0  0  0
  7  9  1  0  0  0  0
  7  5  1  0  0  0  0
 10 13  1  0  0  0  0
 11 10  1  0  0  0  0
 12 10  1  0  0  0  0
M  END
