4,6
q = 0.0, confidence = 0.98

 22 22  0  0  1  0  0  0  0  0999 V2000
   -1.0266    1.7671   -0.7615 N   0  0  0  0  0  0  0  0  0  0  0  0
   -2.5143    1.7635   -0.5337 C   0  0  0  0  0  0  0  0  0  0  0  0
   -3.1171    0.4149   -0.9506 C   0  0  0  0  0  0  0  0  0  0  0  0
   -2.2864   -0.7063   -0.3669 C   0  0  2  0  0  3  0  0  0  0  0  0
   -1.5835   -1.8092   -1.1939 C   0  0  0  0  0  0  0  0  0  0  0  0
   -0.5417   -2.3428   -0.1751 C   0  0  0  0  0  3  0  0  0  0  0  0
   -1.0430   -2.0036    1.1259 C   0  0  0  0  0  0  0  0  0  0  0  0
   -2.1158   -1.0424    1.0193 C   0  0  0  0  0  0  0  0  0  0  0  0
   -0.4096    3.0418   -0.3191 C   0  0  0  0  0  0  0  0  0  0  0  0
   -1.1391   -1.4067   -2.1426 H   0  0  0  0  0  0  0  0  0  0  0  0
   -0.8962    1.7126   -1.7858 H   0  0  0  0  0  0  0  0  0  0  0  0
   -2.6611    1.9339    0.5512 H   0  0  0  0  0  0  0  0  0  0  0  0
   -2.9870    2.6126   -1.0743 H   0  0  0  0  0  0  0  0  0  0  0  0
   -3.1309    0.3280   -2.0574 H   0  0  0  0  0  0  0  0  0  0  0  0
   -4.1775    0.3710   -0.6254 H   0  0  0  0  0  0  0  0  0  0  0  0
   -2.2874   -2.6068   -1.5302 H   0  0  0  0  0  0  0  0  0  0  0  0
    0.1290   -3.1845   -0.3933 H   0  0  0  0  0  0  0  0  0  0  0  0
   -0.6436   -2.3842    2.0755 H   0  0  0  0  0  0  0  0  0  0  0  0
   -2.6357   -0.5775    1.8667 H   0  0  0  0  0  0  0  0  0  0  0  0
   -0.8623    3.9151   -0.8344 H   0  0  0  0  0  0  0  0  0  0  0  0
   -0.5497    3.1517    0.7715 H   0  0  0  0  0  0  0  0  0  0  0  0
    0.6770    3.0188   -0.5225 H   0  0  0  0  0  0  0  0  0  0  0  0
  1  2  1  0  0  0  0
  1  9  1  0  0  0  0
  2 12  1  0  0  0  0
  3 15  1  0  0  0  0
  3  2  1  0  0  0  0
  4  3  1  6  0  0  0
  4  8  1  0  0  0  0
  5  4  1  0  0  0  0
  5  6  1  0  0  0  0
  6  7  1  0  0  0  0
  7 18  1  0  0  0  0
  8  7  2  0  0  0  0
  8 19  1  0  0  0  0
  9 21  1  0  0  0  0
 10  5  1  0  0  0  0
 11  1  1  0  0  0  0
 13  2  1  0  0  0  0
 14  3  1  0  0  0  0
 16  5  1  0  0  0  0
 17  6  1  0  0  0  0
 20  9  1  0  0  0  0
 22  9  1  0  0  0  0
M  END
