9,19
q = 0.0, confidence = 0.996

 32 32  0  0  1  0  0  0  0  0999 V2000
   -3.4453   -0.7446    1.9212 O   0  0  0  0  0  0  0  0  0  0  0  0
   -4.4114   -0.8194    1.8150 H   0  0  0  0  0  0  0  0  0  0  0  0
    3.5306   -0.7343    1.9148 O   0  0  0  0  0  0  0  0  0  0  0  0
    3.1505   -0.2780    2.6884 H   0  0  0  0  0  0  0  0  0  0  0  0
   -0.7579    0.8876    1.2294 C   0  0  0  0  0  0  0  0  0  0  0  0
   -2.9107   -0.3396    0.6627 C   0  0  0  0  0  0  0  0  0  0  0  0
   -3.2739    0.6673    0.3574 H   0  0  0  0  0  0  0  0  0  0  0  0
   -3.2006   -1.0337   -0.1555 H   0  0  0  0  0  0  0  0  0  0  0  0
   -1.4047   -0.3022    0.7796 C   0  0  2  0  0  3  0  0  0  0  0  0
    1.6538   -2.6245    0.1744 C   0  0  0  0  0  0  0  0  0  0  0  0
    1.0801   -3.5649    0.1241 H   0  0  0  0  0  0  0  0  0  0  0  0
    2.4382   -2.7280    0.9492 H   0  0  0  0  0  0  0  0  0  0  0  0
    2.1646   -2.5018   -0.8016 H   0  0  0  0  0  0  0  0  0  0  0  0
   -0.6379   -1.4970    0.4939 C   0  0  0  0  0  0  0  0  0  0  0  0
    2.9594   -0.1379    0.7551 C   0  0  0  0  0  0  0  0  0  0  0  0
    3.3331   -0.7205   -0.1064 H   0  0  0  0  0  0  0  0  0  0  0  0
    3.3194    0.9015    0.5935 H   0  0  0  0  0  0  0  0  0  0  0  0
    0.6826    0.9652    1.2145 C   0  0  0  0  0  0  0  0  0  0  0  0
    1.4439   -0.1725    0.7914 C   0  0  2  0  0  3  0  0  0  0  0  0
   -1.5625    2.0732    1.7104 C   0  0  0  0  0  0  0  0  0  0  0  0
   -2.5926    1.7762    1.9723 H   0  0  0  0  0  0  0  0  0  0  0  0
   -1.6012    2.8890    0.9600 H   0  0  0  0  0  0  0  0  0  0  0  0
   -1.1076    2.4967    2.6267 H   0  0  0  0  0  0  0  0  0  0  0  0
    1.3271    2.2623    1.6424 C   0  0  0  0  0  0  0  0  0  0  0  0
    0.8975    3.1267    1.1005 H   0  0  0  0  0  0  0  0  0  0  0  0
    2.4167    2.2757    1.4720 H   0  0  0  0  0  0  0  0  0  0  0  0
    1.1548    2.4389    2.7253 H   0  0  0  0  0  0  0  0  0  0  0  0
    0.7839   -1.4318    0.4947 C   0  0  0  0  0  0  0  0  0  0  0  0
   -1.3975   -2.7682    0.1916 C   0  0  0  0  0  0  0  0  0  0  0  0
   -1.8079   -2.7705   -0.8385 H   0  0  0  0  0  0  0  0  0  0  0  0
   -2.2450   -2.8668    0.8973 H   0  0  0  0  0  0  0  0  0  0  0  0
   -0.7649   -3.6664    0.2951 H   0  0  0  0  0  0  0  0  0  0  0  0
  2  1  1  0  0  0  0
  3  4  1  0  0  0  0
  5 20  1  0  0  0  0
  6  1  1  0  0  0  0
  7  6  1  0  0  0  0
  8  6  1  0  0  0  0
  9  6  1  1  0  0  0
  9  5  1  0  0  0  0
 10 28  1  0  0  0  0
 10 12  1  0  0  0  0
 11 10  1  0  0  0  0
 13 10  1  0  0  0  0
 14 28  2  0  0  0  0
 14  9  1  0  0  0  0
 15  3  1  0  0  0  0
 16 15  1  0  0  0  0
 17 15  1  0  0  0  0
 18  5  2  0  0  0  0
 18 24  1  0  0  0  0
 19 15  1  1  0  0  0
 19 18  1  0  0  0  0
 20 21  1  0  0  0  0
 20 23  1  0  0  0  0
 22 20  1  0  0  0  0
 24 27  1  0  0  0  0
 25 24  1  0  0  0  0
 26 24  1  0  0  0  0
 28 19  1  0  0  0  0
 29 32  1  0  0  0  0
 29 14  1  0  0  0  0
 29 31  1  0  0  0  0
 30 29  1  0  0  0  0
M  END
