6,10
q = 0.0, confidence = 0.998

 52 56  0  0  0  0  0  0  0  0999 V2000
    4.3082    0.2405   -1.1787 N   0  0  0  0  0  0  0  0  0  0  0  0
    3.9339   -1.8254   -0.6568 N   0  0  0  0  0  0  0  0  0  0  0  0
    1.8356   -2.8969   -0.3271 N   0  0  0  0  0  0  0  0  0  0  0  0
   -0.1138   -1.9714   -0.5176 N   0  0  0  0  0  0  0  0  0  0  0  0
    4.1786    1.6895   -1.3031 C   0  0  0  0  0  0  0  0  0  0  0  0
    3.5220   -0.5408   -0.3846 C   0  0  0  0  0  2  0  0  0  0  0  0
    4.9539   -1.8463   -1.6010 C   0  0  0  0  0  0  0  0  0  0  0  0
    5.1909   -0.5358   -1.9230 C   0  0  0  0  0  0  0  0  0  0  0  0
    3.2621   -2.9653   -0.0504 C   0  0  0  0  0  0  0  0  0  0  0  0
    1.1404   -1.7616   -0.0077 C   0  0  0  0  0  2  0  0  0  0  0  0
   -0.1941   -3.2276   -1.1217 C   0  0  0  0  0  0  0  0  0  0  0  0
    1.0400   -3.8107   -1.0123 C   0  0  0  0  0  0  0  0  0  0  0  0
   -1.1702   -1.0034   -0.4964 C   0  0  0  0  0  0  0  0  0  0  0  0
   -0.8407    0.3484   -0.6387 C   0  0  0  0  0  0  0  0  0  0  0  0
   -1.8368    1.3366   -0.5459 C   0  0  0  0  0  0  0  0  0  0  0  0
   -3.1770    0.9245   -0.3980 C   0  0  0  0  0  0  0  0  0  0  0  0
   -3.5264   -0.4395   -0.3014 C   0  0  0  0  0  0  0  0  0  0  0  0
   -2.4999   -1.4090   -0.3317 C   0  0  0  0  0  0  0  0  0  0  0  0
   -4.9430   -0.8498   -0.1258 C   0  0  0  0  0  0  0  0  0  0  0  0
   -5.9824   -0.1618   -0.7923 C   0  0  0  0  0  0  0  0  0  0  0  0
   -7.3202   -0.5466   -0.6309 C   0  0  0  0  0  0  0  0  0  0  0  0
   -7.6496   -1.6281    0.2017 C   0  0  0  0  0  0  0  0  0  0  0  0
   -6.6284   -2.3193    0.8728 C   0  0  0  0  0  0  0  0  0  0  0  0
   -5.2905   -1.9344    0.7113 C   0  0  0  0  0  0  0  0  0  0  0  0
   -1.4376    2.7652   -0.5437 C   0  0  0  0  0  0  0  0  0  0  0  0
   -0.2385    3.1510    0.1015 C   0  0  0  0  0  0  0  0  0  0  0  0
    0.1570    4.4948    0.1198 C   0  0  0  0  0  0  0  0  0  0  0  0
   -0.6341    5.4759   -0.4999 C   0  0  0  0  0  0  0  0  0  0  0  0
   -1.8305    5.1042   -1.1358 C   0  0  0  0  0  0  0  0  0  0  0  0
   -2.2305    3.7606   -1.1557 C   0  0  0  0  0  0  0  0  0  0  0  0
    3.5211    1.9411   -2.1594 H   0  0  0  0  0  0  0  0  0  0  0  0
    3.7441    2.0709   -0.3546 H   0  0  0  0  0  0  0  0  0  0  0  0
    5.1797    2.1313   -1.4623 H   0  0  0  0  0  0  0  0  0  0  0  0
    5.4353   -2.7687   -1.9391 H   0  0  0  0  0  0  0  0  0  0  0  0
    5.9152   -0.0913   -2.6120 H   0  0  0  0  0  0  0  0  0  0  0  0
    3.6765   -3.9020   -0.4647 H   0  0  0  0  0  0  0  0  0  0  0  0
    3.4163   -2.9334    1.0469 H   0  0  0  0  0  0  0  0  0  0  0  0
   -1.1106   -3.5811   -1.6013 H   0  0  0  0  0  0  0  0  0  0  0  0
    1.4052   -4.7852   -1.3499 H   0  0  0  0  0  0  0  0  0  0  0  0
    0.2088    0.6362   -0.7894 H   0  0  0  0  0  0  0  0  0  0  0  0
   -3.9623    1.6862   -0.2852 H   0  0  0  0  0  0  0  0  0  0  0  0
   -2.7476   -2.4733   -0.2135 H   0  0  0  0  0  0  0  0  0  0  0  0
   -5.7312    0.6721   -1.4651 H   0  0  0  0  0  0  0  0  0  0  0  0
   -8.1124   -0.0011   -1.1661 H   0  0  0  0  0  0  0  0  0  0  0  0
   -8.7003   -1.9293    0.3299 H   0  0  0  0  0  0  0  0  0  0  0  0
   -6.8767   -3.1591    1.5397 H   0  0  0  0  0  0  0  0  0  0  0  0
   -4.5015   -2.4599    1.2704 H   0  0  0  0  0  0  0  0  0  0  0  0
    0.3753    2.4037    0.6294 H   0  0  0  0  0  0  0  0  0  0  0  0
    1.0893    4.7651    0.6388 H   0  0  0  0  0  0  0  0  0  0  0  0
   -0.3231    6.5319   -0.4836 H   0  0  0  0  0  0  0  0  0  0  0  0
   -2.4548    5.8669   -1.6263 H   0  0  0  0  0  0  0  0  0  0  0  0
   -3.1586    3.4734   -1.6741 H   0  0  0  0  0  0  0  0  0  0  0  0
  1  6  1  0  0  0  0
  2  6  1  0  0  0  0
  2  9  1  0  0  0  0
  3  9  1  0  0  0  0
  3 10  1  0  0  0  0
  4 13  1  0  0  0  0
  4 10  1  0  0  0  0
  5  1  1  0  0  0  0
  5 32  1  0  0  0  0
  7  2  1  0  0  0  0
  8  7  2  0  0  0  0
  8  1  1  0  0  0  0
  9 37  1  0  0  0  0
 11 12  2  0  0  0  0
 11  4  1  0  0  0  0
 12  3  1  0  0  0  0
 13 18  1  0  0  0  0
 14 15  1  0  0  0  0
 14 13  2  0  0  0  0
 15 25  1  0  0  0  0
 15 16  2  0  0  0  0
 16 17  1  0  0  0  0
 16 41  1  0  0  0  0
 17 19  1  0  0  0  0
 18 17  2  0  0  0  0
 18 42  1  0  0  0  0
 19 24  1  0  0  0  0
 20 21  1  0  0  0  0
 20 19  2  0  0  0  0
 21 22  2  0  0  0  0
 22 45  1  0  0  0  0
 22 23  1  0  0  0  0
 23 46  1  0  0  0  0
 24 23  2  0  0  0  0
 24 47  1  0  0  0  0
 25 26  1  0  0  0  0
 26 27  2  0  0  0  0
 26 48  1  0  0  0  0
 27 49  1  0  0  0  0
 28 50  1  0  0  0  0
 28 27  1  0  0  0  0
 29 28  2  0  0  0  0
 30 29  1  0  0  0  0
 30 25  2  0  0  0  0
 31  5  1  0  0  0  0
 33  5  1  0  0  0  0
 34  7  1  0  0  0  0
 35  8  1  0  0  0  0
 36  9  1  0  0  0  0
 38 11  1  0  0  0  0
 39 12  1  0  0  0  0
 40 14  1  0  0  0  0
 43 20  1  0  0  0  0
 44 21  1  0  0  0  0
 51 29  1  0  0  0  0
 52 30  1  0  0  0  0
M  END
