4,11
q = -1.0, confidence = 0.0

 29 32  0  0  0  0  0  0  0  0999 V2000
    4.5449    1.6923   -0.0367 O   0  0  0  0  0  0  0  0  0  0  0  0
    1.6633   -4.1272   -0.0504 N   0  0  0  0  0  0  0  0  0  0  0  0
   -0.5429   -3.7538   -0.0784 N   0  0  0  0  0  0  0  0  0  0  0  0
    0.0403   -2.5125   -0.0359 C   0  0  0  0  0  2  0  0  0  0  0  0
    0.4744   -4.6925   -0.0831 C   0  0  0  0  0  0  0  0  0  0  0  0
    0.2987   -5.7739   -0.1134 H   0  0  0  0  0  0  0  0  0  0  0  0
    4.3830   -0.6128   -0.0122 C   0  0  0  0  0  0  0  0  0  0  0  0
    5.7894   -0.2559   -0.0124 C   0  0  0  0  0  0  0  0  0  0  0  0
    2.2811    0.7280   -0.0329 C   0  0  0  0  0  0  0  0  0  0  0  0
    1.7807    1.7057   -0.0547 H   0  0  0  0  0  0  0  0  0  0  0  0
    1.5430   -0.4669   -0.0197 C   0  0  0  0  0  3  0  0  0  0  0  0
    5.8152    1.1650   -0.0278 C   0  0  0  0  0  0  0  0  0  0  0  0
    8.2057   -0.2316   -0.0067 C   0  0  0  0  0  0  0  0  0  0  0  0
    9.1671   -0.7666    0.0015 H   0  0  0  0  0  0  0  0  0  0  0  0
    8.2005    1.1807   -0.0220 C   0  0  0  0  0  0  0  0  0  0  0  0
    9.1565    1.7256   -0.0257 H   0  0  0  0  0  0  0  0  0  0  0  0
    3.6556   -1.8190   -0.0065 C   0  0  0  0  0  0  0  0  0  0  0  0
    4.1378   -2.8064   -0.0020 H   0  0  0  0  0  0  0  0  0  0  0  0
    3.6767    0.6214   -0.0269 C   0  0  0  0  0  0  0  0  0  0  0  0
    1.3765   -2.8027   -0.0216 N   0  0  0  0  0  0  0  0  0  0  0  0
    7.0079   -0.9607   -0.0017 C   0  0  0  0  0  0  0  0  0  0  0  0
    7.0186   -2.0609    0.0103 H   0  0  0  0  0  0  0  0  0  0  0  0
    6.9978    1.9067   -0.0329 C   0  0  0  0  0  0  0  0  0  0  0  0
    6.9772    3.0053   -0.0452 H   0  0  0  0  0  0  0  0  0  0  0  0
   -1.9746   -4.0158   -0.1129 C   0  0  0  0  0  0  0  0  0  0  0  0
   -2.3004   -4.5029    0.8276 H   0  0  0  0  0  0  0  0  0  0  0  0
   -2.2199   -4.6735   -0.9690 H   0  0  0  0  0  0  0  0  0  0  0  0
   -2.4968   -3.0467   -0.2222 H   0  0  0  0  0  0  0  0  0  0  0  0
    2.2666   -1.7014   -0.0113 C   0  0  0  0  0  0  0  0  0  0  0  0
  1 12  1  0  0  0  0
  1 19  1  0  0  0  0
  2 20  1  0  0  0  0
  3  4  1  0  0  0  0
  4 20  1  0  0  0  0
  5  3  1  0  0  0  0
  5  2  2  0  0  0  0
  6  5  1  0  0  0  0
  7 17  2  0  0  0  0
  8  7  1  0  0  0  0
  8 21  1  0  0  0  0
  9 19  2  0  0  0  0
  9 11  1  0  0  0  0
 10  9  1  0  0  0  0
 11 29  2  0  0  0  0
 12  8  2  0  0  0  0
 13 21  2  0  0  0  0
 13 14  1  0  0  0  0
 15 13  1  0  0  0  0
 16 15  1  0  0  0  0
 17 18  1  0  0  0  0
 19  7  1  0  0  0  0
 20 29  1  0  0  0  0
 21 22  1  0  0  0  0
 23 12  1  0  0  0  0
 23 15  2  0  0  0  0
 24 23  1  0  0  0  0
 25  3  1  0  0  0  0
 25 26  1  0  0  0  0
 27 25  1  0  0  0  0
 28 25  1  0  0  0  0
 29 17  1  0  0  0  0
M  END
