2,5
q = -1.0

 29 32  0  0  0  0  0  0  0  0999 V2000
   -4.9575   -1.2238   -0.0376 O   0  0  0  0  0  0  0  0  0  0  0  0
   -1.5297    0.2940    0.0303 C   0  0  0  0  0  3  0  0  0  0  0  0
   -2.5826   -3.2189   -0.1370 N   0  0  0  0  0  0  0  0  0  0  0  0
   -2.5288   -0.7166   -0.0123 C   0  0  0  0  0  0  0  0  0  0  0  0
   -0.6001   -2.0699   -0.0461 C   0  0  0  0  0  2  0  0  0  0  0  0
   -5.7298    0.9558    0.0550 C   0  0  0  0  0  0  0  0  0  0  0  0
   -1.9383    1.6450    0.0958 C   0  0  0  0  0  0  0  0  0  0  0  0
   -1.1644    2.4245    0.1456 H   0  0  0  0  0  0  0  0  0  0  0  0
   -3.2970    2.0006    0.1090 C   0  0  0  0  0  0  0  0  0  0  0  0
   -3.5942    3.0590    0.1614 H   0  0  0  0  0  0  0  0  0  0  0  0
   -6.7578    1.9163    0.0952 C   0  0  0  0  0  0  0  0  0  0  0  0
   -6.5202    2.9895    0.1417 H   0  0  0  0  0  0  0  0  0  0  0  0
   -8.0896    1.4765    0.0747 C   0  0  0  0  0  0  0  0  0  0  0  0
   -8.9053    2.2142    0.1056 H   0  0  0  0  0  0  0  0  0  0  0  0
   -1.9692   -2.0111   -0.0588 N   0  0  0  0  0  0  0  0  0  0  0  0
    0.9657   -4.0345   -0.1480 C   0  0  0  0  0  0  0  0  0  0  0  0
    1.7207   -3.2304   -0.2316 H   0  0  0  0  0  0  0  0  0  0  0  0
    1.0472   -4.7185   -1.0146 H   0  0  0  0  0  0  0  0  0  0  0  0
    1.1404   -4.6053    0.7857 H   0  0  0  0  0  0  0  0  0  0  0  0
   -0.3518   -3.4156   -0.1241 N   0  0  0  0  0  0  0  0  0  0  0  0
   -7.3957   -0.8771   -0.0258 C   0  0  0  0  0  0  0  0  0  0  0  0
   -7.6220   -1.9513   -0.0722 H   0  0  0  0  0  0  0  0  0  0  0  0
   -1.5746   -4.0643   -0.1741 C   0  0  0  0  0  0  0  0  0  0  0  0
   -1.6780   -5.1534   -0.2393 H   0  0  0  0  0  0  0  0  0  0  0  0
   -4.2766    0.9905    0.0585 C   0  0  0  0  0  0  0  0  0  0  0  0
   -3.8806   -0.3735   -0.0001 C   0  0  0  0  0  0  0  0  0  0  0  0
   -6.0779   -0.4197   -0.0045 C   0  0  0  0  0  0  0  0  0  0  0  0
   -8.4038    0.1011    0.0152 C   0  0  0  0  0  0  0  0  0  0  0  0
   -9.4581   -0.2137    0.0005 H   0  0  0  0  0  0  0  0  0  0  0  0
  1 27  1  0  0  0  0
  1 26  1  0  0  0  0
  2  7  1  0  0  0  0
  3 15  1  0  0  0  0
  4 26  1  0  0  0  0
  4  2  2  0  0  0  0
  6 25  1  0  0  0  0
  6 11  1  0  0  0  0
  7  9  2  0  0  0  0
  7  8  1  0  0  0  0
  9 10  1  0  0  0  0
 11 12  1  0  0  0  0
 13 11  2  0  0  0  0
 13 14  1  0  0  0  0
 15  5  1  0  0  0  0
 15  4  1  0  0  0  0
 16 20  1  0  0  0  0
 16 19  1  0  0  0  0
 17 16  1  0  0  0  0
 18 16  1  0  0  0  0
 20  5  1  0  0  0  0
 21 27  1  0  0  0  0
 21 28  2  0  0  0  0
 22 21  1  0  0  0  0
 23  3  2  0  0  0  0
 23 20  1  0  0  0  0
 24 23  1  0  0  0  0
 25  9  1  0  0  0  0
 26 25  2  0  0  0  0
 27  6  2  0  0  0  0
 28 13  1  0  0  0  0
 29 28  1  0  0  0  0
M  END
