3,6
q = -1.0, confidence = 0.0

 42 45  0  0  1  0  0  0  0  0999 V2000
   -1.2442    0.7181   -0.9004 N   0  0  0  0  0  0  0  0  0  0  0  0
   -0.9499   -0.1535    0.2152 C   0  0  1  0  0  3  0  0  0  0  0  0
    0.3310    0.0305    0.8155 C   0  0  0  0  0  3  0  0  0  0  0  0
    0.5463   -0.3257    1.8331 H   0  0  0  0  0  0  0  0  0  0  0  0
    1.4193    0.5646    0.0369 C   0  0  2  0  0  3  0  0  0  0  0  0
    1.1538    0.7286   -1.3677 C   0  0  0  0  0  3  0  0  0  0  0  0
    1.9797    0.9437   -2.0618 H   0  0  0  0  0  0  0  0  0  0  0  0
   -0.1691    0.4812   -1.8260 C   0  0  0  0  0  3  0  0  0  0  0  0
   -0.3999    0.4749   -2.9026 H   0  0  0  0  0  0  0  0  0  0  0  0
   -1.6922    2.0388   -0.6688 C   0  0  0  0  0  0  0  0  0  0  0  0
   -1.5840    3.0126   -1.6882 C   0  0  0  0  0  0  0  0  0  0  0  0
   -1.1127    2.7534   -2.6468 H   0  0  0  0  0  0  0  0  0  0  0  0
   -2.0744    4.3085   -1.4837 C   0  0  0  0  0  0  0  0  0  0  0  0
   -1.9798    5.0510   -2.2910 H   0  0  0  0  0  0  0  0  0  0  0  0
   -2.6751    4.6660   -0.2660 C   0  0  0  0  0  0  0  0  0  0  0  0
   -3.0573    5.6854   -0.1096 H   0  0  0  0  0  0  0  0  0  0  0  0
   -2.7735    3.7032    0.7506 C   0  0  0  0  0  0  0  0  0  0  0  0
   -3.2338    3.9657    1.7156 H   0  0  0  0  0  0  0  0  0  0  0  0
   -2.2869    2.4028    0.5613 C   0  0  0  0  0  0  0  0  0  0  0  0
   -2.3720    1.6646    1.3703 H   0  0  0  0  0  0  0  0  0  0  0  0
   -2.0660   -0.8912    0.8480 C   0  0  0  0  0  0  0  0  0  0  0  0
   -3.3439   -0.8636    0.2465 C   0  0  0  0  0  0  0  0  0  0  0  0
   -3.4742   -0.2923   -0.6834 H   0  0  0  0  0  0  0  0  0  0  0  0
   -4.4190   -1.5547    0.8194 C   0  0  0  0  0  0  0  0  0  0  0  0
   -5.4061   -1.5212    0.3339 H   0  0  0  0  0  0  0  0  0  0  0  0
   -4.2412   -2.2862    2.0036 C   0  0  0  0  0  0  0  0  0  0  0  0
   -5.0856   -2.8293    2.4539 H   0  0  0  0  0  0  0  0  0  0  0  0
   -2.9726   -2.3255    2.6074 C   0  0  0  0  0  0  0  0  0  0  0  0
   -2.8186   -2.9034    3.5312 H   0  0  0  0  0  0  0  0  0  0  0  0
   -1.8947   -1.6401    2.0356 C   0  0  0  0  0  0  0  0  0  0  0  0
   -0.9067   -1.7084    2.5135 H   0  0  0  0  0  0  0  0  0  0  0  0
    2.7389    0.8529    0.6473 C   0  0  0  0  0  0  0  0  0  0  0  0
    3.9464    0.6014   -0.0410 C   0  0  0  0  0  0  0  0  0  0  0  0
    3.9223    0.1352   -1.0374 H   0  0  0  0  0  0  0  0  0  0  0  0
    5.1791    0.8989    0.5523 C   0  0  0  0  0  0  0  0  0  0  0  0
    6.1105    0.6855    0.0065 H   0  0  0  0  0  0  0  0  0  0  0  0
    5.2302    1.4509    1.8437 C   0  0  0  0  0  0  0  0  0  0  0  0
    6.2005    1.6810    2.3087 H   0  0  0  0  0  0  0  0  0  0  0  0
    4.0373    1.7042    2.5368 C   0  0  0  0  0  0  0  0  0  0  0  0
    4.0663    2.1426    3.5457 H   0  0  0  0  0  0  0  0  0  0  0  0
    2.8013    1.4093    1.9431 C   0  0  0  0  0  0  0  0  0  0  0  0
    1.8673    1.6371    2.4788 H   0  0  0  0  0  0  0  0  0  0  0  0
  1 10  1  0  0  0  0
  1  2  1  0  0  0  0
  2  3  1  0  0  0  0
  2 21  1  1  0  0  0
  3  4  1  0  0  0  0
  5 32  1  6  0  0  0
  5  3  1  0  0  0  0
  6  5  1  0  0  0  0
  7  6  1  0  0  0  0
  8  6  1  0  0  0  0
  8  1  1  0  0  0  0
  9  8  1  0  0  0  0
 10 19  1  0  0  0  0
 11 13  1  0  0  0  0
 11 10  2  0  0  0  0
 12 11  1  0  0  0  0
 13 15  2  0  0  0  0
 14 13  1  0  0  0  0
 15 16  1  0  0  0  0
 15 17  1  0  0  0  0
 17 18  1  0  0  0  0
 19 17  2  0  0  0  0
 19 20  1  0  0  0  0
 21 30  1  0  0  0  0
 22 24  1  0  0  0  0
 22 21  2  0  0  0  0
 23 22  1  0  0  0  0
 24 26  2  0  0  0  0
 25 24  1  0  0  0  0
 26 27  1  0  0  0  0
 26 28  1  0  0  0  0
 28 29  1  0  0  0  0
 30 31  1  0  0  0  0
 30 28  2  0  0  0  0
 32 41  1  0  0  0  0
 33 35  1  0  0  0  0
 33 32  2  0  0  0  0
 34 33  1  0  0  0  0
 35 37  2  0  0  0  0
 36 35  1  0  0  0  0
 37 38  1  0  0  0  0
 37 39  1  0  0  0  0
 39 40  1  0  0  0  0
 41 42  1  0  0  0  0
 41 39  2  0  0  0  0
M  END
