13,15
q = 0.0, confidence = 1.0

 59 64  0  0  1  0  0  0  0  0999 V2000
    0.8496    1.1495   -0.9260 P   0  0  0  0  0  0  0  0  0  0  0  0
   -2.2908    0.9877   -0.1149 N   0  0  2  0  0  0  0  0  0  0  0  0
   -2.9351   -1.2607   -0.1671 N   0  0  1  0  0  0  0  0  0  0  0  0
   -2.5378    1.4749    1.2494 C   0  0  0  0  0  0  0  0  0  0  0  0
   -3.4835    2.6498    0.9894 C   0  0  0  0  0  0  0  0  0  0  0  0
   -4.3952    2.1379   -0.1539 C   0  0  0  0  0  0  0  0  0  0  0  0
   -3.6087    0.9663   -0.7803 C   0  0  2  0  0  0  0  0  0  0  0  0
   -4.1501   -0.4669   -0.4911 C   0  0  1  0  0  0  0  0  0  0  0  0
   -4.8308   -1.2238   -1.6416 C   0  0  0  0  0  0  0  0  0  0  0  0
   -4.3652   -2.6713   -1.4224 C   0  0  0  0  0  0  0  0  0  0  0  0
   -2.9073   -2.4827   -0.9820 C   0  0  0  0  0  0  0  0  0  0  0  0
   -1.7783   -0.3622   -0.2778 C   0  0  2  0  0  0  0  0  0  0  0  0
   -0.6542   -0.6478    0.6986 C   0  0  1  0  0  3  0  0  0  0  0  0
    0.6219    0.0112    0.5350 C   0  0  1  0  0  3  0  0  0  0  0  0
    1.6649   -0.2938    1.4546 C   0  0  0  0  0  3  0  0  0  0  0  0
    1.4593   -1.2111    2.5324 C   0  0  0  0  0  0  0  0  0  0  0  0
    0.2040   -1.8446    2.6818 C   0  0  0  0  0  0  0  0  0  0  0  0
   -0.8557   -1.5494    1.7714 C   0  0  0  0  0  3  0  0  0  0  0  0
    0.4325    2.7813   -0.1556 C   0  0  0  0  0  0  0  0  0  0  0  0
    0.6076    3.0855    1.2105 C   0  0  0  0  0  0  0  0  0  0  0  0
    0.2453    4.3462    1.7121 C   0  0  0  0  0  0  0  0  0  0  0  0
   -0.2891    5.3201    0.8536 C   0  0  0  0  0  0  0  0  0  0  0  0
   -0.4621    5.0281   -0.5096 C   0  0  0  0  0  0  0  0  0  0  0  0
   -0.1107    3.7650   -1.0078 C   0  0  0  0  0  0  0  0  0  0  0  0
    2.6995    1.1958   -0.9829 C   0  0  0  0  0  0  0  0  0  0  0  0
    3.4950    2.2302   -0.4493 C   0  0  0  0  0  0  0  0  0  0  0  0
    4.8956    2.1630   -0.5362 C   0  0  0  0  0  0  0  0  0  0  0  0
    5.5154    1.0602   -1.1438 C   0  0  0  0  0  0  0  0  0  0  0  0
    4.7291    0.0313   -1.6890 C   0  0  0  0  0  0  0  0  0  0  0  0
    3.3314    0.1076   -1.6263 C   0  0  0  0  0  0  0  0  0  0  0  0
   -3.0239    0.7064    1.9017 H   0  0  0  0  0  0  0  0  0  0  0  0
   -1.5909    1.7818    1.7344 H   0  0  0  0  0  0  0  0  0  0  0  0
   -4.0449    2.9541    1.8940 H   0  0  0  0  0  0  0  0  0  0  0  0
   -2.8876    3.5198    0.6482 H   0  0  0  0  0  0  0  0  0  0  0  0
   -5.3689    1.7760    0.2348 H   0  0  0  0  0  0  0  0  0  0  0  0
   -4.6158    2.9317   -0.8927 H   0  0  0  0  0  0  0  0  0  0  0  0
   -3.4651    1.0787   -1.8777 H   0  0  0  0  0  0  0  0  0  0  0  0
   -4.8283   -0.4326    0.3944 H   0  0  0  0  0  0  0  0  0  0  0  0
   -5.9324   -1.1060   -1.6512 H   0  0  0  0  0  0  0  0  0  0  0  0
   -4.4438   -0.8478   -2.6141 H   0  0  0  0  0  0  0  0  0  0  0  0
   -4.9532   -3.1460   -0.6088 H   0  0  0  0  0  0  0  0  0  0  0  0
   -4.4602   -3.3111   -2.3220 H   0  0  0  0  0  0  0  0  0  0  0  0
   -2.5099   -3.3501   -0.4132 H   0  0  0  0  0  0  0  0  0  0  0  0
   -2.2447   -2.3535   -1.8736 H   0  0  0  0  0  0  0  0  0  0  0  0
   -1.3407   -0.4307   -1.3087 H   0  0  0  0  0  0  0  0  0  0  0  0
    2.6579    0.1531    1.3035 H   0  0  0  0  0  0  0  0  0  0  0  0
    2.2932   -1.4653    3.2009 H   0  0  0  0  0  0  0  0  0  0  0  0
    0.0548   -2.5929    3.4726 H   0  0  0  0  0  0  0  0  0  0  0  0
   -1.8353   -2.0439    1.8350 H   0  0  0  0  0  0  0  0  0  0  0  0
    1.0278    2.3296    1.8914 H   0  0  0  0  0  0  0  0  0  0  0  0
    0.3817    4.5685    2.7816 H   0  0  0  0  0  0  0  0  0  0  0  0
   -0.5736    6.3075    1.2479 H   0  0  0  0  0  0  0  0  0  0  0  0
   -0.8834    5.7864   -1.1874 H   0  0  0  0  0  0  0  0  0  0  0  0
   -0.2682    3.5265   -2.0714 H   0  0  0  0  0  0  0  0  0  0  0  0
    3.0179    3.0924    0.0401 H   0  0  0  0  0  0  0  0  0  0  0  0
    5.5064    2.9781   -0.1181 H   0  0  0  0  0  0  0  0  0  0  0  0
    6.6132    1.0047   -1.1996 H   0  0  0  0  0  0  0  0  0  0  0  0
    5.2054   -0.8364   -2.1695 H   0  0  0  0  0  0  0  0  0  0  0  0
    2.7191   -0.6895   -2.0748 H   0  0  0  0  0  0  0  0  0  0  0  0
  1 19  1  0  0  0  0
  2  4  1  1  0  0  0
  3 11  1  6  0  0  0
  4 32  1  0  0  0  0
  4 31  1  0  0  0  0
  5  4  1  0  0  0  0
  5 33  1  0  0  0  0
  6 35  1  0  0  0  0
  6  5  1  0  0  0  0
  7 37  1  6  0  0  0
  7  8  1  0  0  0  0
  7  6  1  0  0  0  0
  7  2  1  0  0  0  0
  8  3  1  0  0  0  0
  8 38  1  1  0  0  0
  9 10  1  0  0  0  0
  9  8  1  0  0  0  0
 10 11  1  0  0  0  0
 10 41  1  0  0  0  0
 11 43  1  0  0  0  0
 12 45  1  6  0  0  0
 12  3  1  0  0  0  0
 12  2  1  0  0  0  0
 12 13  1  0  0  0  0
 13 18  1  1  0  0  0
 14  1  1  6  0  0  0
 14 13  1  0  0  0  0
 14 15  1  0  0  0  0
 15 16  1  0  0  0  0
 16 17  2  0  0  0  0
 16 47  1  0  0  0  0
 17 48  1  0  0  0  0
 18 49  1  0  0  0  0
 18 17  1  0  0  0  0
 19 20  1  0  0  0  0
 20 21  2  0  0  0  0
 20 50  1  0  0  0  0
 21 51  1  0  0  0  0
 22 52  1  0  0  0  0
 22 21  1  0  0  0  0
 23 22  2  0  0  0  0
 24 23  1  0  0  0  0
 24 19  2  0  0  0  0
 25  1  1  0  0  0  0
 25 26  1  0  0  0  0
 26 55  1  0  0  0  0
 27 26  2  0  0  0  0
 27 56  1  0  0  0  0
 28 27  1  0  0  0  0
 29 30  1  0  0  0  0
 29 28  2  0  0  0  0
 30 25  2  0  0  0  0
 34  5  1  0  0  0  0
 36  6  1  0  0  0  0
 39  9  1  0  0  0  0
 40  9  1  0  0  0  0
 42 10  1  0  0  0  0
 44 11  1  0  0  0  0
 46 15  1  0  0  0  0
 53 23  1  0  0  0  0
 54 24  1  0  0  0  0
 57 28  1  0  0  0  0
 58 29  1  0  0  0  0
 59 30  1  0  0  0  0
M  END
