1,12
q = -2.0, confidence = 0.726

 20 19  0  0  1  0  0  0  0  0999 V2000
   -1.1195    0.1493    1.3342 C   0  0  0  0  0  3  0  0  0  0  0  0
   -1.0602    0.4785    2.4934 O   0  0  0  0  0  0  0  0  0  0  0  0
   -2.0915   -0.7382    0.9441 O   0  0  0  0  0  0  0  0  0  0  0  0
   -2.7918   -2.3430   -0.6853 C   0  0  0  0  0  0  0  0  0  0  0  0
   -3.0361   -2.5040   -1.7535 H   0  0  0  0  0  0  0  0  0  0  0  0
   -3.7025   -2.5314   -0.0845 H   0  0  0  0  0  0  0  0  0  0  0  0
   -2.0123   -3.0728   -0.3896 H   0  0  0  0  0  0  0  0  0  0  0  0
   -2.2956   -0.9161   -0.4629 C   0  0  2  0  0  0  0  0  0  0  0  0
   -3.0939   -0.2032   -0.7722 H   0  0  0  0  0  0  0  0  0  0  0  0
   -1.0583   -0.5921   -1.2780 C   0  0  0  0  0  3  0  0  0  0  0  0
   -1.2990   -0.3028   -2.3151 H   0  0  0  0  0  0  0  0  0  0  0  0
    0.2357   -1.1713   -1.0994 C   0  0  0  0  0  3  0  0  0  0  0  0
    0.9010   -1.2408   -1.9781 H   0  0  0  0  0  0  0  0  0  0  0  0
    0.8128   -1.3873    0.1800 C   0  0  0  0  0  3  0  0  0  0  0  0
    0.1766   -1.7475    1.0045 H   0  0  0  0  0  0  0  0  0  0  0  0
    2.2729   -1.7627    0.2976 C   0  0  0  0  0  0  0  0  0  0  0  0
    2.8527   -1.2691   -0.5106 H   0  0  0  0  0  0  0  0  0  0  0  0
    2.6811   -1.3849    1.2650 H   0  0  0  0  0  0  0  0  0  0  0  0
    2.4736   -3.1600    0.1391 O   0  0  0  0  0  0  0  0  0  0  0  0
    2.0819   -3.6004    0.9160 H   0  0  0  0  0  0  0  0  0  0  0  0
  1  2  2  0  0  0  0
  3  1  1  0  0  0  0
  4  8  1  0  0  0  0
  4  7  1  0  0  0  0
  4  6  1  0  0  0  0
  5  4  1  0  0  0  0
  8  9  1  6  0  0  0
  8  3  1  0  0  0  0
 10 12  1  0  0  0  0
 10  8  1  0  0  0  0
 11 10  1  0  0  0  0
 12 14  1  0  0  0  0
 13 12  1  0  0  0  0
 14 16  1  0  0  0  0
 14 15  1  0  0  0  0
 16 18  1  0  0  0  0
 17 16  1  0  0  0  0
 19 16  1  0  0  0  0
 19 20  1  0  0  0  0
M  END
