6,14
q = -1.0

 55 58  0  0  0  0  0  0  0  0999 V2000
    0.5293    0.8126    0.3118 P   0  0  1  0  0  4  0  0  0  0  0  0
    3.1239   -0.1674   -0.6294 P   0  0  0  0  0  4  0  0  0  0  0  0
    2.1623    0.7535    0.2858 N   0  0  0  0  0  2  0  0  0  0  0  0
    3.0782    0.0240   -2.3119 N   0  0  0  0  0  0  0  0  0  0  0  0
    2.3212   -0.5114   -2.7517 H   0  0  0  0  0  0  0  0  0  0  0  0
   -0.4192   -0.1348   -0.9061 C   0  0  0  0  0  3  0  0  0  0  0  0
    0.0323   -1.1499   -0.9596 H   0  0  0  0  0  0  0  0  0  0  0  0
   -0.3772    0.3502   -1.9034 H   0  0  0  0  0  0  0  0  0  0  0  0
    3.3173    1.3387   -2.9071 C   0  0  0  0  0  0  0  0  0  0  0  0
    3.5005    1.2260   -3.9934 H   0  0  0  0  0  0  0  0  0  0  0  0
    4.2287    1.7815   -2.4593 H   0  0  0  0  0  0  0  0  0  0  0  0
    2.4781    2.0542   -2.7578 H   0  0  0  0  0  0  0  0  0  0  0  0
   -0.1429    0.1176    1.8374 C   0  0  0  0  0  0  0  0  0  0  0  0
   -1.4105   -0.5082    1.6942 C   0  0  0  0  0  3  0  0  0  0  0  0
   -1.9407   -1.1310    2.8467 C   0  0  0  0  0  0  0  0  0  0  0  0
   -2.9125   -1.6468    2.8093 H   0  0  0  0  0  0  0  0  0  0  0  0
   -1.2434   -1.1217    4.0655 C   0  0  0  0  0  0  0  0  0  0  0  0
   -1.6794   -1.6249    4.9423 H   0  0  0  0  0  0  0  0  0  0  0  0
    0.0018   -0.4777    4.1790 C   0  0  0  0  0  0  0  0  0  0  0  0
    0.5356   -0.4695    5.1408 H   0  0  0  0  0  0  0  0  0  0  0  0
    0.5583    0.1482    3.0568 C   0  0  0  0  0  0  0  0  0  0  0  0
    1.5393    0.6461    3.1122 H   0  0  0  0  0  0  0  0  0  0  0  0
    0.0705    2.5713    0.1604 C   0  0  0  0  0  0  0  0  0  0  0  0
   -1.2712    2.9832    0.2908 C   0  0  0  0  0  0  0  0  0  0  0  0
   -2.0517    2.2354    0.5078 H   0  0  0  0  0  0  0  0  0  0  0  0
   -1.6036    4.3365    0.1449 C   0  0  0  0  0  0  0  0  0  0  0  0
   -2.6510    4.6579    0.2493 H   0  0  0  0  0  0  0  0  0  0  0  0
   -0.6004    5.2831   -0.1250 C   0  0  0  0  0  0  0  0  0  0  0  0
   -0.8633    6.3457   -0.2368 H   0  0  0  0  0  0  0  0  0  0  0  0
    0.7373    4.8749   -0.2432 C   0  0  0  0  0  0  0  0  0  0  0  0
    1.5244    5.6168   -0.4453 H   0  0  0  0  0  0  0  0  0  0  0  0
    1.0773    3.5208   -0.0986 C   0  0  0  0  0  0  0  0  0  0  0  0
    2.1219    3.1840   -0.1753 H   0  0  0  0  0  0  0  0  0  0  0  0
    2.8177   -1.9522   -0.4447 C   0  0  0  0  0  0  0  0  0  0  0  0
    3.2092   -2.8823   -1.4322 C   0  0  0  0  0  0  0  0  0  0  0  0
    3.7027   -2.5359   -2.3523 H   0  0  0  0  0  0  0  0  0  0  0  0
    2.9630   -4.2491   -1.2376 C   0  0  0  0  0  0  0  0  0  0  0  0
    3.2648   -4.9727   -2.0095 H   0  0  0  0  0  0  0  0  0  0  0  0
    2.3382   -4.6937   -0.0608 C   0  0  0  0  0  0  0  0  0  0  0  0
    2.1495   -5.7675    0.0880 H   0  0  0  0  0  0  0  0  0  0  0  0
    1.9588   -3.7707    0.9272 C   0  0  0  0  0  0  0  0  0  0  0  0
    1.4719   -4.1154    1.8516 H   0  0  0  0  0  0  0  0  0  0  0  0
    2.1993   -2.4023    0.7408 C   0  0  0  0  0  0  0  0  0  0  0  0
    1.8988   -1.6800    1.5136 H   0  0  0  0  0  0  0  0  0  0  0  0
    4.8183    0.2570   -0.1602 C   0  0  0  0  0  0  0  0  0  0  0  0
    5.0492    1.0796    0.9595 C   0  0  0  0  0  0  0  0  0  0  0  0
    4.1882    1.4771    1.5167 H   0  0  0  0  0  0  0  0  0  0  0  0
    6.3659    1.3813    1.3365 C   0  0  0  0  0  0  0  0  0  0  0  0
    6.5506    2.0251    2.2093 H   0  0  0  0  0  0  0  0  0  0  0  0
    7.4450    0.8646    0.6016 C   0  0  0  0  0  0  0  0  0  0  0  0
    8.4768    1.1026    0.9007 H   0  0  0  0  0  0  0  0  0  0  0  0
    7.2126    0.0451   -0.5162 C   0  0  0  0  0  0  0  0  0  0  0  0
    8.0597   -0.3558   -1.0923 H   0  0  0  0  0  0  0  0  0  0  0  0
    5.9008   -0.2626   -0.9005 C   0  0  0  0  0  0  0  0  0  0  0  0
    5.7158   -0.8988   -1.7790 H   0  0  0  0  0  0  0  0  0  0  0  0
  1  6  1  6  0  0  0
  1 13  1  0  0  0  0
  2 34  1  0  0  0  0
  2 45  1  0  0  0  0
  2  3  1  0  0  0  0
  3  1  1  0  0  0  0
  4  2  1  0  0  0  0
  5  4  1  0  0  0  0
  7  6  1  0  0  0  0
  8  6  1  0  0  0  0
  9 12  1  0  0  0  0
  9 11  1  0  0  0  0
  9  4  1  0  0  0  0
 10  9  1  0  0  0  0
 13 21  1  0  0  0  0
 14 13  2  0  0  0  0
 14 15  1  0  0  0  0
 15 17  2  0  0  0  0
 16 15  1  0  0  0  0
 17 19  1  0  0  0  0
 17 18  1  0  0  0  0
 19 20  1  0  0  0  0
 21 22  1  0  0  0  0
 21 19  2  0  0  0  0
 23 24  1  0  0  0  0
 23  1  1  0  0  0  0
 24 25  1  0  0  0  0
 26 27  1  0  0  0  0
 26 24  2  0  0  0  0
 28 26  1  0  0  0  0
 29 28  1  0  0  0  0
 30 28  2  0  0  0  0
 30 32  1  0  0  0  0
 31 30  1  0  0  0  0
 32 23  2  0  0  0  0
 33 32  1  0  0  0  0
 34 43  1  0  0  0  0
 35 37  1  0  0  0  0
 35 34  2  0  0  0  0
 36 35  1  0  0  0  0
 37 39  2  0  0  0  0
 38 37  1  0  0  0  0
 39 40  1  0  0  0  0
 39 41  1  0  0  0  0
 41 42  1  0  0  0  0
 43 41  2  0  0  0  0
 43 44  1  0  0  0  0
 45 46  1  0  0  0  0
 46 48  2  0  0  0  0
 46 47  1  0  0  0  0
 48 49  1  0  0  0  0
 50 51  1  0  0  0  0
 50 48  1  0  0  0  0
 52 50  2  0  0  0  0
 53 52  1  0  0  0  0
 54 52  1  0  0  0  0
 54 45  2  0  0  0  0
 55 54  1  0  0  0  0
M  END
