21,52
q = 0.0, confidence = 0.994

 66 73  0  0  0  0  0  0  0  0999 V2000
    0.5649    1.5800   -1.1575 N   0  0  0  0  0  0  0  0  0  0  0  0
   -0.5232    2.7168    0.3676 N   0  0  0  0  0  0  0  0  0  0  0  0
    0.5647   -1.5800    1.1577 N   0  0  0  0  0  0  0  0  0  0  0  0
   -0.5239   -2.7168   -0.3671 N   0  0  0  0  0  0  0  0  0  0  0  0
    2.1376   -0.2125   -0.7207 C   0  0  0  0  0  0  0  0  0  0  0  0
    2.9164   -1.3224   -1.1874 C   0  0  0  0  0  0  0  0  0  0  0  0
    3.8620   -1.9855   -0.3515 C   0  0  0  0  0  0  0  0  0  0  0  0
    4.0101   -1.6158    0.6729 H   0  0  0  0  0  0  0  0  0  0  0  0
    4.5819   -3.0745   -0.8162 C   0  0  0  0  0  0  0  0  0  0  0  0
    5.3013   -3.5778   -0.1534 H   0  0  0  0  0  0  0  0  0  0  0  0
    4.3915   -3.5505   -2.1409 C   0  0  0  0  0  0  0  0  0  0  0  0
    4.9622   -4.4221   -2.4950 H   0  0  0  0  0  0  0  0  0  0  0  0
    3.4977   -2.9144   -2.9878 C   0  0  0  0  0  0  0  0  0  0  0  0
    3.3559   -3.2690   -4.0205 H   0  0  0  0  0  0  0  0  0  0  0  0
    2.7463   -1.7856   -2.5458 C   0  0  0  0  0  0  0  0  0  0  0  0
    1.8370   -1.1077   -3.4076 C   0  0  0  0  0  0  0  0  0  0  0  0
    1.7082   -1.4721   -4.4382 H   0  0  0  0  0  0  0  0  0  0  0  0
    1.1273   -0.0045   -2.9631 C   0  0  0  0  0  0  0  0  0  0  0  0
    0.4214    0.5315   -3.6128 H   0  0  0  0  0  0  0  0  0  0  0  0
    1.2829    0.4335   -1.6257 C   0  0  0  0  0  0  0  0  0  0  0  0
   -0.4714    1.4955   -0.2518 C   0  0  0  0  0  2  0  0  0  0  0  0
    0.4100    3.5945   -0.1817 C   0  0  0  0  0  0  0  0  0  0  0  0
    0.7161    4.9348    0.0908 C   0  0  0  0  0  0  0  0  0  0  0  0
    0.1748    5.5025    0.8600 H   0  0  0  0  0  0  0  0  0  0  0  0
    1.7365    5.5238   -0.6730 C   0  0  0  0  0  0  0  0  0  0  0  0
    1.9999    6.5766   -0.4937 H   0  0  0  0  0  0  0  0  0  0  0  0
    2.4218    4.8013   -1.6744 C   0  0  0  0  0  0  0  0  0  0  0  0
    3.2067    5.3033   -2.2590 H   0  0  0  0  0  0  0  0  0  0  0  0
    2.1201    3.4569   -1.9418 C   0  0  0  0  0  0  0  0  0  0  0  0
    2.6519    2.8843   -2.7146 H   0  0  0  0  0  0  0  0  0  0  0  0
    1.1093    2.8707   -1.1730 C   0  0  0  0  0  0  0  0  0  0  0  0
   -1.4175    3.0771    1.4546 C   0  0  0  0  0  0  0  0  0  0  0  0
   -1.9527    2.1692    1.7843 H   0  0  0  0  0  0  0  0  0  0  0  0
   -2.1673    3.8164    1.1127 H   0  0  0  0  0  0  0  0  0  0  0  0
   -0.8184    3.4903    2.2914 H   0  0  0  0  0  0  0  0  0  0  0  0
    2.1378    0.2120    0.7205 C   0  0  0  0  0  0  0  0  0  0  0  0
    2.9171    1.3217    1.1870 C   0  0  0  0  0  0  0  0  0  0  0  0
    3.8628    1.9844    0.3509 C   0  0  0  0  0  0  0  0  0  0  0  0
    4.0105    1.6147   -0.6735 H   0  0  0  0  0  0  0  0  0  0  0  0
    4.5832    3.0732    0.8155 C   0  0  0  0  0  0  0  0  0  0  0  0
    5.3026    3.5762    0.1525 H   0  0  0  0  0  0  0  0  0  0  0  0
    4.3931    3.5493    2.1402 C   0  0  0  0  0  0  0  0  0  0  0  0
    4.9642    4.4207    2.4942 H   0  0  0  0  0  0  0  0  0  0  0  0
    3.4993    2.9135    2.9873 C   0  0  0  0  0  0  0  0  0  0  0  0
    3.3578    3.2682    4.0200 H   0  0  0  0  0  0  0  0  0  0  0  0
    2.7474    1.7850    2.5454 C   0  0  0  0  0  0  0  0  0  0  0  0
    1.8380    1.1074    3.4074 C   0  0  0  0  0  0  0  0  0  0  0  0
    1.7095    1.4719    4.4380 H   0  0  0  0  0  0  0  0  0  0  0  0
    1.1279    0.0044    2.9631 C   0  0  0  0  0  0  0  0  0  0  0  0
    0.4220   -0.5313    3.6130 H   0  0  0  0  0  0  0  0  0  0  0  0
    1.2831   -0.4337    1.6257 C   0  0  0  0  0  0  0  0  0  0  0  0
   -0.4717   -1.4953    0.2521 C   0  0  0  0  0  2  0  0  0  0  0  0
    0.4093   -3.5945    0.1821 C   0  0  0  0  0  0  0  0  0  0  0  0
    0.7151   -4.9350   -0.0904 C   0  0  0  0  0  0  0  0  0  0  0  0
    0.1736   -5.5026   -0.8595 H   0  0  0  0  0  0  0  0  0  0  0  0
    1.7355   -5.5241    0.6732 C   0  0  0  0  0  0  0  0  0  0  0  0
    1.9987   -6.5769    0.4940 H   0  0  0  0  0  0  0  0  0  0  0  0
    2.4211   -4.8016    1.6746 C   0  0  0  0  0  0  0  0  0  0  0  0
    3.2060   -5.3038    2.2591 H   0  0  0  0  0  0  0  0  0  0  0  0
    2.1197   -3.4572    1.9419 C   0  0  0  0  0  0  0  0  0  0  0  0
    2.6517   -2.8846    2.7145 H   0  0  0  0  0  0  0  0  0  0  0  0
    1.1089   -2.8708    1.1732 C   0  0  0  0  0  0  0  0  0  0  0  0
   -1.4180   -3.0769   -1.4543 C   0  0  0  0  0  0  0  0  0  0  0  0
   -1.9543   -2.1692   -1.7829 H   0  0  0  0  0  0  0  0  0  0  0  0
   -2.1670   -3.8173   -1.1128 H   0  0  0  0  0  0  0  0  0  0  0  0
   -0.8188   -3.4887   -2.2916 H   0  0  0  0  0  0  0  0  0  0  0  0
  1 21  1  0  0  0  0
  2 32  1  0  0  0  0
  3 62  1  0  0  0  0
  3 51  1  0  0  0  0
  4 53  1  0  0  0  0
  4 52  1  0  0  0  0
  5 36  1  0  0  0  0
  6  5  1  0  0  0  0
  6  7  1  0  0  0  0
  7  8  1  0  0  0  0
  9  7  2  0  0  0  0
  9 10  1  0  0  0  0
 11  9  1  0  0  0  0
 12 11  1  0  0  0  0
 13 15  1  0  0  0  0
 13 11  2  0  0  0  0
 14 13  1  0  0  0  0
 15  6  2  0  0  0  0
 16 18  2  0  0  0  0
 16 15  1  0  0  0  0
 17 16  1  0  0  0  0
 18 20  1  0  0  0  0
 19 18  1  0  0  0  0
 20  1  1  0  0  0  0
 20  5  2  0  0  0  0
 21  2  1  0  0  0  0
 22 23  1  0  0  0  0
 22  2  1  0  0  0  0
 23 24  1  0  0  0  0
 25 26  1  0  0  0  0
 25 23  2  0  0  0  0
 27 25  1  0  0  0  0
 28 27  1  0  0  0  0
 29 27  2  0  0  0  0
 29 31  1  0  0  0  0
 30 29  1  0  0  0  0
 31  1  1  0  0  0  0
 31 22  2  0  0  0  0
 32 33  1  0  0  0  0
 32 35  1  0  0  0  0
 34 32  1  0  0  0  0
 36 37  2  0  0  0  0
 36 51  1  0  0  0  0
 37 46  1  0  0  0  0
 38 40  2  0  0  0  0
 38 37  1  0  0  0  0
 39 38  1  0  0  0  0
 40 42  1  0  0  0  0
 41 40  1  0  0  0  0
 42 43  1  0  0  0  0
 42 44  2  0  0  0  0
 44 45  1  0  0  0  0
 46 44  1  0  0  0  0
 46 47  2  0  0  0  0
 47 48  1  0  0  0  0
 49 47  1  0  0  0  0
 49 50  1  0  0  0  0
 51 49  2  0  0  0  0
 52  3  1  0  0  0  0
 53 62  1  0  0  0  0
 54 53  2  0  0  0  0
 54 56  1  0  0  0  0
 55 54  1  0  0  0  0
 56 58  2  0  0  0  0
 57 56  1  0  0  0  0
 58 60  1  0  0  0  0
 58 59  1  0  0  0  0
 60 61  1  0  0  0  0
 62 60  2  0  0  0  0
 63 65  1  0  0  0  0
 63  4  1  0  0  0  0
 64 63  1  0  0  0  0
 66 63  1  0  0  0  0
M  END
