11,15
q = 0.0, confidence = 0.968

 53 54  0  0  1  0  0  0  0  0999 V2000
   -0.0514   -0.8946   -0.1144 O   0  0  0  0  0  0  0  0  0  0  0  0
    0.1180    2.7578   -0.2135 O   0  0  0  0  0  0  0  0  0  0  0  0
    2.8638    1.9727    0.2077 O   0  0  0  0  0  0  0  0  0  0  0  0
    3.4724   -0.5904   -1.0202 O   0  0  0  0  0  0  0  0  0  0  0  0
    1.8927   -2.9746    0.7268 O   0  0  0  0  0  0  0  0  0  0  0  0
   -0.1950    3.3053    1.9805 O   0  0  0  0  0  0  0  0  0  0  0  0
    3.5423    2.9098   -1.7603 O   0  0  0  0  0  0  0  0  0  0  0  0
    4.6759   -0.7100    0.9137 O   0  0  0  0  0  0  0  0  0  0  0  0
    3.8566   -3.7879   -0.0974 O   0  0  0  0  0  0  0  0  0  0  0  0
   -1.8614    0.5949    0.2587 C   0  0  2  0  0  3  0  0  0  0  0  0
   -2.2011   -0.1408    1.4404 C   0  0  0  0  0  3  0  0  0  0  0  0
   -3.4737    0.0051    2.0405 C   0  0  0  0  0  0  0  0  0  0  0  0
   -4.4387    0.8781    1.4487 C   0  0  0  0  0  0  0  0  0  0  0  0
   -4.1118    1.6294    0.2933 C   0  0  0  0  0  3  0  0  0  0  0  0
   -2.8276    1.4666   -0.3116 C   0  0  0  0  0  3  0  0  0  0  0  0
   -0.5102    0.4171   -0.3849 C   0  0  1  0  0  0  0  0  0  0  0  0
    0.5246    1.4335    0.1486 C   0  0  1  0  0  0  0  0  0  0  0  0
    1.8956    1.1606   -0.4642 C   0  0  2  0  0  0  0  0  0  0  0  0
    2.2755   -0.3098   -0.2860 C   0  0  1  0  0  0  0  0  0  0  0  0
    1.1518   -1.2238   -0.8004 C   0  0  1  0  0  0  0  0  0  0  0  0
    1.4281   -2.7081   -0.6056 C   0  0  0  0  0  0  0  0  0  0  0  0
   -0.2212    3.6121    0.8084 C   0  0  0  0  0  0  0  0  0  0  0  0
   -0.6411    4.9448    0.2436 C   0  0  0  0  0  0  0  0  0  0  0  0
    3.6540    2.7906   -0.5585 C   0  0  0  0  0  0  0  0  0  0  0  0
    4.6640    3.4809    0.3219 C   0  0  0  0  0  0  0  0  0  0  0  0
    4.6176   -0.8130   -0.2961 C   0  0  0  0  0  0  0  0  0  0  0  0
    5.7345   -1.2483   -1.2016 C   0  0  0  0  0  0  0  0  0  0  0  0
    3.1545   -3.4880    0.8511 C   0  0  0  0  0  0  0  0  0  0  0  0
    3.5615   -3.5691    2.2963 C   0  0  0  0  0  0  0  0  0  0  0  0
   -1.4712   -0.8585    1.8382 H   0  0  0  0  0  0  0  0  0  0  0  0
   -3.7412   -0.6000    2.9169 H   0  0  0  0  0  0  0  0  0  0  0  0
   -5.4488    0.9459    1.8764 H   0  0  0  0  0  0  0  0  0  0  0  0
   -4.8650    2.2727   -0.1806 H   0  0  0  0  0  0  0  0  0  0  0  0
   -2.5919    1.9933   -1.2474 H   0  0  0  0  0  0  0  0  0  0  0  0
   -0.6126    0.5751   -1.4865 H   0  0  0  0  0  0  0  0  0  0  0  0
    0.5788    1.3614    1.2543 H   0  0  0  0  0  0  0  0  0  0  0  0
    1.8961    1.4283   -1.5426 H   0  0  0  0  0  0  0  0  0  0  0  0
    2.4528   -0.5118    0.7896 H   0  0  0  0  0  0  0  0  0  0  0  0
    1.0164   -1.0526   -1.8974 H   0  0  0  0  0  0  0  0  0  0  0  0
    2.1900   -3.0554   -1.3302 H   0  0  0  0  0  0  0  0  0  0  0  0
    0.4781   -3.2600   -0.7509 H   0  0  0  0  0  0  0  0  0  0  0  0
   -0.7146    5.6861    1.0577 H   0  0  0  0  0  0  0  0  0  0  0  0
    0.0702    5.2818   -0.5344 H   0  0  0  0  0  0  0  0  0  0  0  0
   -1.6326    4.8391   -0.2423 H   0  0  0  0  0  0  0  0  0  0  0  0
    4.1503    4.0248    1.1387 H   0  0  0  0  0  0  0  0  0  0  0  0
    5.3095    2.7185    0.8026 H   0  0  0  0  0  0  0  0  0  0  0  0
    5.2745    4.1750   -0.2803 H   0  0  0  0  0  0  0  0  0  0  0  0
    6.7073   -1.0143   -0.7347 H   0  0  0  0  0  0  0  0  0  0  0  0
    5.6463   -2.3500   -1.3058 H   0  0  0  0  0  0  0  0  0  0  0  0
    5.6489   -0.7921   -2.2045 H   0  0  0  0  0  0  0  0  0  0  0  0
    4.2548   -4.4170    2.4406 H   0  0  0  0  0  0  0  0  0  0  0  0
    2.6877   -3.6464    2.9676 H   0  0  0  0  0  0  0  0  0  0  0  0
    4.1088   -2.6310    2.5267 H   0  0  0  0  0  0  0  0  0  0  0  0
  2 17  1  0  0  0  0
  2 22  1  0  0  0  0
  4 26  1  0  0  0  0
  4 19  1  0  0  0  0
  5 28  1  0  0  0  0
  7 24  2  0  0  0  0
  9 28  2  0  0  0  0
 10 15  1  6  0  0  0
 10 11  1  0  0  0  0
 11 30  1  0  0  0  0
 11 12  1  0  0  0  0
 12 31  1  0  0  0  0
 13 32  1  0  0  0  0
 13 12  2  0  0  0  0
 14 13  1  0  0  0  0
 15 14  1  0  0  0  0
 16 35  1  6  0  0  0
 16  1  1  0  0  0  0
 16 17  1  0  0  0  0
 16 10  1  0  0  0  0
 17 36  1  1  0  0  0
 18 37  1  6  0  0  0
 18 19  1  0  0  0  0
 18 17  1  0  0  0  0
 18  3  1  0  0  0  0
 19 38  1  1  0  0  0
 20 39  1  6  0  0  0
 20 21  1  0  0  0  0
 20 19  1  0  0  0  0
 20  1  1  0  0  0  0
 21  5  1  0  0  0  0
 22  6  2  0  0  0  0
 23 22  1  0  0  0  0
 23 42  1  0  0  0  0
 24  3  1  0  0  0  0
 24 25  1  0  0  0  0
 25 46  1  0  0  0  0
 25 45  1  0  0  0  0
 26  8  2  0  0  0  0
 27 48  1  0  0  0  0
 27 26  1  0  0  0  0
 28 29  1  0  0  0  0
 29 51  1  0  0  0  0
 29 53  1  0  0  0  0
 29 52  1  0  0  0  0
 33 14  1  0  0  0  0
 34 15  1  0  0  0  0
 40 21  1  0  0  0  0
 41 21  1  0  0  0  0
 43 23  1  0  0  0  0
 44 23  1  0  0  0  0
 47 25  1  0  0  0  0
 49 27  1  0  0  0  0
 50 27  1  0  0  0  0
M  END
