1,5
q = -1

 19 19  0  0  0  0  0  0  0  0999 V2000
   -1.5321   -1.8710    0.3290 C   0  0  0  0  0  3  0  0  0  0  0  0
   -2.4106   -2.4294   -0.7487 C   0  0  0  0  0  0  0  0  0  0  0  0
   -3.4310   -1.8096   -1.3815 C   0  0  0  0  0  0  0  0  0  0  0  0
   -3.8541   -0.3689   -1.2647 C   0  0  0  0  0  0  0  0  0  0  0  0
   -3.1377    0.5567   -0.3006 C   0  0  0  0  0  3  0  0  0  0  0  0
   -2.9568    0.3410    1.0958 C   0  0  0  0  0  3  0  0  0  0  0  0
   -3.3554   -0.9562    1.7923 C   0  0  0  0  0  0  0  0  0  0  0  0
   -2.1956   -1.9584    1.7228 C   0  0  0  0  0  0  0  0  0  0  0  0
   -0.5804   -2.4393    0.3470 H   0  0  0  0  0  0  0  0  0  0  0  0
   -2.2300   -3.4872   -1.0180 H   0  0  0  0  0  0  0  0  0  0  0  0
   -4.0175   -2.3933   -2.1129 H   0  0  0  0  0  0  0  0  0  0  0  0
   -3.7964    0.0835   -2.2802 H   0  0  0  0  0  0  0  0  0  0  0  0
   -4.9441   -0.3364   -1.0158 H   0  0  0  0  0  0  0  0  0  0  0  0
   -3.1840    1.6120   -0.6272 H   0  0  0  0  0  0  0  0  0  0  0  0
   -2.8794    1.2367    1.7376 H   0  0  0  0  0  0  0  0  0  0  0  0
   -4.2487   -1.3837    1.2875 H   0  0  0  0  0  0  0  0  0  0  0  0
   -3.6476   -0.7528    2.8419 H   0  0  0  0  0  0  0  0  0  0  0  0
   -2.5437   -2.9936    1.9411 H   0  0  0  0  0  0  0  0  0  0  0  0
   -1.4364   -1.7067    2.4935 H   0  0  0  0  0  0  0  0  0  0  0  0
  1  9  1  0  0  0  0
  1  8  1  0  0  0  0
  2  1  1  0  0  0  0
  3  4  1  0  0  0  0
  3  2  2  0  0  0  0
  4 13  1  0  0  0  0
  4  5  1  0  0  0  0
  5  6  1  0  0  0  0
  6 15  1  0  0  0  0
  6  7  1  0  0  0  0
  7 17  1  0  0  0  0
  8  7  1  0  0  0  0
  8 18  1  0  0  0  0
  8 19  1  0  0  0  0
 10  2  1  0  0  0  0
 11  3  1  0  0  0  0
 12  4  1  0  0  0  0
 14  5  1  0  0  0  0
 16  7  1  0  0  0  0
M  END
