5,38
q = 0.0, confidence = 0.998

 46 47  0  0  0  0  0  0  0  0999 V2000
    2.8484   -1.6993    0.1207 N   0  0  0  0  0  0  0  0  0  0  0  0
    2.9065    0.3889   -0.4775 N   0  0  0  0  0  0  0  0  0  0  0  0
   -2.8463   -1.7025   -0.1212 N   0  0  0  0  0  0  0  0  0  0  0  0
   -2.9068    0.3853    0.4781 N   0  0  0  0  0  0  0  0  0  0  0  0
    2.0631   -0.6193   -0.1380 C   0  0  0  0  0  2  0  0  0  0  0  0
    4.1850   -1.3674   -0.0438 C   0  0  0  0  0  0  0  0  0  0  0  0
    4.9899   -2.0927    0.1075 H   0  0  0  0  0  0  0  0  0  0  0  0
    4.2212   -0.0485   -0.4178 C   0  0  0  0  0  0  0  0  0  0  0  0
    5.0641    0.6067   -0.6564 H   0  0  0  0  0  0  0  0  0  0  0  0
    2.3520   -3.0150    0.5111 C   0  0  0  0  0  0  0  0  0  0  0  0
    1.8514   -2.9519    1.4972 H   0  0  0  0  0  0  0  0  0  0  0  0
    3.2030   -3.7151    0.5744 H   0  0  0  0  0  0  0  0  0  0  0  0
    1.6356   -3.3873   -0.2461 H   0  0  0  0  0  0  0  0  0  0  0  0
    2.5033    1.7503   -0.8433 C   0  0  0  0  0  0  0  0  0  0  0  0
    1.5441    1.6636   -1.3900 H   0  0  0  0  0  0  0  0  0  0  0  0
    3.2511    2.1243   -1.5707 H   0  0  0  0  0  0  0  0  0  0  0  0
    2.3901    2.6993    0.3518 C   0  0  0  0  0  0  0  0  0  0  0  0
    3.3695    2.7424    0.8727 H   0  0  0  0  0  0  0  0  0  0  0  0
    1.6692    2.2771    1.0857 H   0  0  0  0  0  0  0  0  0  0  0  0
    1.9669    4.1096   -0.0884 C   0  0  0  0  0  0  0  0  0  0  0  0
    2.1262    4.8106    0.7578 H   0  0  0  0  0  0  0  0  0  0  0  0
    2.6532    4.4527   -0.8925 H   0  0  0  0  0  0  0  0  0  0  0  0
    0.5113    4.2243   -0.5684 C   0  0  0  0  0  0  0  0  0  0  0  0
    0.3917    5.1619   -1.1512 H   0  0  0  0  0  0  0  0  0  0  0  0
    0.2830    3.4077   -1.2897 H   0  0  0  0  0  0  0  0  0  0  0  0
   -0.5169    4.2240    0.5701 C   0  0  0  0  0  0  0  0  0  0  0  0
   -0.3984    5.1621    1.1523 H   0  0  0  0  0  0  0  0  0  0  0  0
   -0.2876    3.4081    1.2918 H   0  0  0  0  0  0  0  0  0  0  0  0
   -1.9724    4.1074    0.0902 C   0  0  0  0  0  0  0  0  0  0  0  0
   -2.6590    4.4495    0.8945 H   0  0  0  0  0  0  0  0  0  0  0  0
   -2.1327    4.8084   -0.7559 H   0  0  0  0  0  0  0  0  0  0  0  0
   -2.3939    2.6967   -0.3503 C   0  0  0  0  0  0  0  0  0  0  0  0
   -3.3736    2.7387   -0.8706 H   0  0  0  0  0  0  0  0  0  0  0  0
   -1.6728    2.2758   -1.0848 H   0  0  0  0  0  0  0  0  0  0  0  0
   -2.5051    1.7470    0.8444 C   0  0  0  0  0  0  0  0  0  0  0  0
   -1.5454    1.6612    1.3904 H   0  0  0  0  0  0  0  0  0  0  0  0
   -3.2528    2.1197    1.5724 H   0  0  0  0  0  0  0  0  0  0  0  0
   -2.0623   -0.6216    0.1376 C   0  0  0  0  0  2  0  0  0  0  0  0
   -4.1832   -1.3724    0.0441 C   0  0  0  0  0  0  0  0  0  0  0  0
   -4.9873   -2.0986   -0.1072 H   0  0  0  0  0  0  0  0  0  0  0  0
   -4.2209   -0.0536    0.4188 C   0  0  0  0  0  0  0  0  0  0  0  0
   -5.0646    0.6004    0.6581 H   0  0  0  0  0  0  0  0  0  0  0  0
   -2.3484   -3.0174   -0.5123 C   0  0  0  0  0  0  0  0  0  0  0  0
   -1.8474   -2.9531   -1.4981 H   0  0  0  0  0  0  0  0  0  0  0  0
   -3.1988   -3.7183   -0.5767 H   0  0  0  0  0  0  0  0  0  0  0  0
   -1.6321   -3.3896    0.2450 H   0  0  0  0  0  0  0  0  0  0  0  0
  1 10  1  0  0  0  0
  2  8  1  0  0  0  0
  2  5  1  0  0  0  0
  3 39  1  0  0  0  0
  3 38  1  0  0  0  0
  4 35  1  0  0  0  0
  5  1  1  0  0  0  0
  6  7  1  0  0  0  0
  6  1  1  0  0  0  0
  8  6  2  0  0  0  0
  9  8  1  0  0  0  0
 10 12  1  0  0  0  0
 10 11  1  0  0  0  0
 13 10  1  0  0  0  0
 14  2  1  0  0  0  0
 14 17  1  0  0  0  0
 15 14  1  0  0  0  0
 16 14  1  0  0  0  0
 17 18  1  0  0  0  0
 17 19  1  0  0  0  0
 20 17  1  0  0  0  0
 20 21  1  0  0  0  0
 22 20  1  0  0  0  0
 23 20  1  0  0  0  0
 23 26  1  0  0  0  0
 24 23  1  0  0  0  0
 25 23  1  0  0  0  0
 26 27  1  0  0  0  0
 26 28  1  0  0  0  0
 29 26  1  0  0  0  0
 29 30  1  0  0  0  0
 31 29  1  0  0  0  0
 32 29  1  0  0  0  0
 32 35  1  0  0  0  0
 33 32  1  0  0  0  0
 34 32  1  0  0  0  0
 35 36  1  0  0  0  0
 35 37  1  0  0  0  0
 38  4  1  0  0  0  0
 39 41  2  0  0  0  0
 40 39  1  0  0  0  0
 41  4  1  0  0  0  0
 41 42  1  0  0  0  0
 43  3  1  0  0  0  0
 43 46  1  0  0  0  0
 44 43  1  0  0  0  0
 45 43  1  0  0  0  0
M  END
