32
q = -2.0, confidence = 0.872

 44 47  0  0  1  0  0  0  0  0999 V2000
   -2.3337   -0.6133    2.0652 S   0  0  0  0  0  0  0  0  0  0  0  0
   -1.0601   -2.6162    0.3164 C   0  0  1  0  0  3  0  0  0  0  0  0
   -1.0029   -1.5772    1.3558 C   0  0  1  0  0  3  0  0  0  0  0  0
    0.3900   -1.3760    1.7053 C   0  0  0  0  0  3  0  0  0  0  0  0
    0.7236   -0.7125    2.5099 H   0  0  0  0  0  0  0  0  0  0  0  0
    1.2184   -2.3067    0.9414 C   0  0  0  0  0  0  0  0  0  0  0  0
    0.3218   -2.9792    0.0615 C   0  0  0  0  0  0  0  0  0  0  0  0
    0.6183   -3.6668   -0.7402 H   0  0  0  0  0  0  0  0  0  0  0  0
   -2.2259   -3.2883   -0.2774 C   0  0  0  0  0  0  0  0  0  0  0  0
   -3.4690   -2.6390   -0.4624 C   0  0  0  0  0  0  0  0  0  0  0  0
   -3.5697   -1.5774   -0.2084 H   0  0  0  0  0  0  0  0  0  0  0  0
   -4.5573   -3.3274   -1.0136 C   0  0  0  0  0  0  0  0  0  0  0  0
   -5.5115   -2.7974   -1.1562 H   0  0  0  0  0  0  0  0  0  0  0  0
   -4.4344   -4.6729   -1.3941 C   0  0  0  0  0  0  0  0  0  0  0  0
   -5.2924   -5.2091   -1.8271 H   0  0  0  0  0  0  0  0  0  0  0  0
   -3.2048   -5.3282   -1.2203 C   0  0  0  0  0  0  0  0  0  0  0  0
   -3.0943   -6.3839   -1.5114 H   0  0  0  0  0  0  0  0  0  0  0  0
   -2.1149   -4.6447   -0.6671 C   0  0  0  0  0  0  0  0  0  0  0  0
   -1.1648   -5.1776   -0.5123 H   0  0  0  0  0  0  0  0  0  0  0  0
    2.6803   -2.4180    1.0056 C   0  0  0  0  0  0  0  0  0  0  0  0
    3.4313   -1.5796    1.8645 C   0  0  0  0  0  0  0  0  0  0  0  0
    2.9166   -0.8551    2.5109 H   0  0  0  0  0  0  0  0  0  0  0  0
    4.8299   -1.6343    1.8815 C   0  0  0  0  0  0  0  0  0  0  0  0
    5.3886   -0.9623    2.5508 H   0  0  0  0  0  0  0  0  0  0  0  0
    5.5173   -2.5299    1.0467 C   0  0  0  0  0  0  0  0  0  0  0  0
    6.6168   -2.5692    1.0575 H   0  0  0  0  0  0  0  0  0  0  0  0
    4.7847   -3.3795    0.2003 C   0  0  0  0  0  0  0  0  0  0  0  0
    5.3095   -4.0935   -0.4528 H   0  0  0  0  0  0  0  0  0  0  0  0
    3.3857   -3.3281    0.1815 C   0  0  0  0  0  0  0  0  0  0  0  0
    2.8310   -3.9988   -0.4907 H   0  0  0  0  0  0  0  0  0  0  0  0
   -2.6215    0.4632    0.6438 C   0  0  0  0  0  0  0  0  0  0  0  0
   -1.7048    0.4815   -0.3714 C   0  0  0  0  0  3  0  0  0  0  0  0
   -1.9357    1.0769   -1.2714 H   0  0  0  0  0  0  0  0  0  0  0  0
   -3.8689    1.2510    0.6662 C   0  0  0  0  0  0  0  0  0  0  0  0
   -3.9138    2.5206    0.0372 C   0  0  0  0  0  0  0  0  0  0  0  0
   -3.0004    2.9241   -0.4251 H   0  0  0  0  0  0  0  0  0  0  0  0
   -5.0960    3.2691    0.0235 C   0  0  0  0  0  0  0  0  0  0  0  0
   -5.1074    4.2532   -0.4703 H   0  0  0  0  0  0  0  0  0  0  0  0
   -6.2558    2.7821    0.6514 C   0  0  0  0  0  0  0  0  0  0  0  0
   -7.1813    3.3776    0.6472 H   0  0  0  0  0  0  0  0  0  0  0  0
   -6.2192    1.5347    1.2938 C   0  0  0  0  0  0  0  0  0  0  0  0
   -7.1202    1.1435    1.7908 H   0  0  0  0  0  0  0  0  0  0  0  0
   -5.0403    0.7759    1.3032 C   0  0  0  0  0  0  0  0  0  0  0  0
   -5.0217   -0.2089    1.7950 H   0  0  0  0  0  0  0  0  0  0  0  0
  2  9  1  1  0  0  0
  2  3  1  0  0  0  0
  3  4  1  0  0  0  0
  3  1  1  6  0  0  0
  4  5  1  0  0  0  0
  6 20  1  0  0  0  0
  6  4  1  0  0  0  0
  7  2  1  0  0  0  0
  7  6  2  0  0  0  0
  8  7  1  0  0  0  0
 10  9  1  0  0  0  0
 10 11  1  0  0  0  0
 12 10  2  0  0  0  0
 13 12  1  0  0  0  0
 14 16  2  0  0  0  0
 14 12  1  0  0  0  0
 15 14  1  0  0  0  0
 16 18  1  0  0  0  0
 17 16  1  0  0  0  0
 18 19  1  0  0  0  0
 18  9  2  0  0  0  0
 20 21  1  0  0  0  0
 21 23  2  0  0  0  0
 21 22  1  0  0  0  0
 23 24  1  0  0  0  0
 25 26  1  0  0  0  0
 25 23  1  0  0  0  0
 27 25  2  0  0  0  0
 28 27  1  0  0  0  0
 29 27  1  0  0  0  0
 29 20  2  0  0  0  0
 30 29  1  0  0  0  0
 31 34  1  0  0  0  0
 31  1  1  0  0  0  0
 32 31  2  0  0  0  0
 33 32  1  0  0  0  0
 34 43  1  0  0  0  0
 35 34  2  0  0  0  0
 36 35  1  0  0  0  0
 37 35  1  0  0  0  0
 37 39  2  0  0  0  0
 38 37  1  0  0  0  0
 39 41  1  0  0  0  0
 40 39  1  0  0  0  0
 41 43  2  0  0  0  0
 41 42  1  0  0  0  0
 43 44  1  0  0  0  0
M  END
