5,13
q = -1.0

 33 35  0  0  0  0  0  0  0  0999 V2000
   -4.7979   -1.1247   -0.7136 O   0  0  0  0  0  0  0  0  0  0  0  0
   -5.5787    0.9592   -0.2764 O   0  0  0  0  0  0  0  0  0  0  0  0
    0.6772    2.0094    0.2496 N   0  0  0  0  0  0  0  0  0  0  0  0
    2.8044    1.6262    0.0867 N   0  0  0  0  0  0  0  0  0  0  0  0
    1.5836    0.9961    0.0239 C   0  0  0  0  0  2  0  0  0  0  0  0
    4.0501    1.0748   -0.1489 C   0  0  0  0  0  0  0  0  0  0  0  0
    5.1697    1.8581   -0.0431 C   0  0  0  0  0  0  0  0  0  0  0  0
    5.0570    3.2498    0.2993 C   0  0  0  0  0  0  0  0  0  0  0  0
    3.8174    3.8193    0.4997 C   0  0  0  0  0  0  0  0  0  0  0  0
    2.6473    3.0151    0.3807 C   0  0  0  0  0  0  0  0  0  0  0  0
    1.2813    3.2330    0.4784 C   0  0  0  0  0  0  0  0  0  0  0  0
   -0.6719    1.6225    0.1273 C   0  0  0  0  0  0  0  0  0  0  0  0
   -0.8002    0.2515   -0.2279 C   0  0  0  0  0  3  0  0  0  0  0  0
   -2.1146   -0.2038   -0.4262 C   0  0  0  0  0  0  0  0  0  0  0  0
   -3.2306    0.6401   -0.2327 C   0  0  0  0  0  0  0  0  0  0  0  0
   -4.5830    0.0457   -0.4369 C   0  0  0  0  0  0  0  0  0  0  0  0
   -6.9165    0.4605   -0.4573 C   0  0  0  0  0  0  0  0  0  0  0  0
   -7.8769    1.6125   -0.2426 C   0  0  0  0  0  0  0  0  0  0  0  0
   -3.0511    1.9902    0.1405 C   0  0  0  0  0  0  0  0  0  0  0  0
   -1.7570    2.4913    0.3147 C   0  0  0  0  0  0  0  0  0  0  0  0
    4.0322    0.0168   -0.4387 H   0  0  0  0  0  0  0  0  0  0  0  0
    6.1526    1.4098   -0.2401 H   0  0  0  0  0  0  0  0  0  0  0  0
    5.9659    3.8622    0.3848 H   0  0  0  0  0  0  0  0  0  0  0  0
    3.7028    4.8853    0.7409 H   0  0  0  0  0  0  0  0  0  0  0  0
    0.7244    4.1503    0.6801 H   0  0  0  0  0  0  0  0  0  0  0  0
   -2.3201   -1.2335   -0.7516 H   0  0  0  0  0  0  0  0  0  0  0  0
   -7.0920   -0.3725    0.2570 H   0  0  0  0  0  0  0  0  0  0  0  0
   -7.0045    0.0238   -1.4752 H   0  0  0  0  0  0  0  0  0  0  0  0
   -7.7769    2.0290    0.7796 H   0  0  0  0  0  0  0  0  0  0  0  0
   -8.9215    1.2674   -0.3751 H   0  0  0  0  0  0  0  0  0  0  0  0
   -7.6872    2.4284   -0.9681 H   0  0  0  0  0  0  0  0  0  0  0  0
   -3.9279    2.6352    0.2833 H   0  0  0  0  0  0  0  0  0  0  0  0
   -1.6003    3.5453    0.5890 H   0  0  0  0  0  0  0  0  0  0  0  0
  1 16  2  0  0  0  0
  3 11  1  0  0  0  0
  4 10  1  0  0  0  0
  5  4  1  0  0  0  0
  5  3  1  0  0  0  0
  6  7  2  0  0  0  0
  6  4  1  0  0  0  0
  7  8  1  0  0  0  0
  8 23  1  0  0  0  0
  8  9  2  0  0  0  0
  9 24  1  0  0  0  0
 10 11  2  0  0  0  0
 10  9  1  0  0  0  0
 11 25  1  0  0  0  0
 12  3  1  0  0  0  0
 12 20  1  0  0  0  0
 13 12  2  0  0  0  0
 14 15  2  0  0  0  0
 14 13  1  0  0  0  0
 15 19  1  0  0  0  0
 16  2  1  0  0  0  0
 16 15  1  0  0  0  0
 17  2  1  0  0  0  0
 17 18  1  0  0  0  0
 17 27  1  0  0  0  0
 18 29  1  0  0  0  0
 19 32  1  0  0  0  0
 19 20  2  0  0  0  0
 20 33  1  0  0  0  0
 21  6  1  0  0  0  0
 22  7  1  0  0  0  0
 26 14  1  0  0  0  0
 28 17  1  0  0  0  0
 30 18  1  0  0  0  0
 31 18  1  0  0  0  0
M  END
