3,11
q = -1.0

 24 26  0  0  0  0  0  0  0  0999 V2000
   -1.3100    1.6250    0.0563 N   0  0  0  0  0  0  0  0  0  0  0  0
   -2.3635   -0.2414   -0.2720 N   0  0  0  0  0  0  0  0  0  0  0  0
   -1.0981    0.2871   -0.1803 C   0  0  0  0  0  2  0  0  0  0  0  0
   -2.7159   -1.5369   -0.6044 C   0  0  0  0  0  0  0  0  0  0  0  0
   -4.0405   -1.8872   -0.6535 C   0  0  0  0  0  0  0  0  0  0  0  0
   -5.0633   -0.9163   -0.3770 C   0  0  0  0  0  0  0  0  0  0  0  0
   -4.7239    0.3899   -0.0911 C   0  0  0  0  0  0  0  0  0  0  0  0
   -3.3512    0.7669   -0.0524 C   0  0  0  0  0  0  0  0  0  0  0  0
   -2.6507    1.9474    0.1522 C   0  0  0  0  0  0  0  0  0  0  0  0
   -0.1351    2.4101    0.0606 C   0  0  0  0  0  0  0  0  0  0  0  0
    1.0233    1.6300   -0.1994 C   0  0  0  0  0  3  0  0  0  0  0  0
    2.2373    2.3441   -0.2723 C   0  0  0  0  0  0  0  0  0  0  0  0
    2.2837    3.7338   -0.0631 C   0  0  0  0  0  0  0  0  0  0  0  0
    1.1122    4.4616    0.2133 C   0  0  0  0  0  0  0  0  0  0  0  0
   -0.1205    3.7959    0.2699 C   0  0  0  0  0  0  0  0  0  0  0  0
   -1.8718   -2.1948   -0.8445 H   0  0  0  0  0  0  0  0  0  0  0  0
   -4.3077   -2.9167   -0.9270 H   0  0  0  0  0  0  0  0  0  0  0  0
   -6.1202   -1.2165   -0.4144 H   0  0  0  0  0  0  0  0  0  0  0  0
   -5.4876    1.1575    0.0970 H   0  0  0  0  0  0  0  0  0  0  0  0
   -3.0130    2.9597    0.3432 H   0  0  0  0  0  0  0  0  0  0  0  0
    3.1697    1.8080   -0.5067 H   0  0  0  0  0  0  0  0  0  0  0  0
    3.2494    4.2598   -0.1227 H   0  0  0  0  0  0  0  0  0  0  0  0
    1.1566    5.5490    0.3732 H   0  0  0  0  0  0  0  0  0  0  0  0
   -1.0499    4.3521    0.4653 H   0  0  0  0  0  0  0  0  0  0  0  0
  1 10  1  0  0  0  0
  1  9  1  0  0  0  0
  2  3  1  0  0  0  0
  2  8  1  0  0  0  0
  3  1  1  0  0  0  0
  4  2  1  0  0  0  0
  5  4  2  0  0  0  0
  5  6  1  0  0  0  0
  6  7  2  0  0  0  0
  7  8  1  0  0  0  0
  7 19  1  0  0  0  0
  8  9  2  0  0  0  0
  9 20  1  0  0  0  0
 10 15  1  0  0  0  0
 11 10  2  0  0  0  0
 12 11  1  0  0  0  0
 12 13  2  0  0  0  0
 13 14  1  0  0  0  0
 14 15  2  0  0  0  0
 14 23  1  0  0  0  0
 15 24  1  0  0  0  0
 16  4  1  0  0  0  0
 17  5  1  0  0  0  0
 18  6  1  0  0  0  0
 21 12  1  0  0  0  0
 22 13  1  0  0  0  0
M  END
