1,11
q = -2.0, confidence = 0.776

 26 26  0  0  1  0  0  0  0  0999 V2000
    1.5728   -0.8814    1.3395 C   0  0  0  0  0  3  0  0  0  0  0  0
    0.8001   -0.4788    2.0256 H   0  0  0  0  0  0  0  0  0  0  0  0
    1.6243   -1.9692    1.5337 H   0  0  0  0  0  0  0  0  0  0  0  0
    2.8989   -0.1784    1.5650 C   0  0  2  0  0  0  0  0  0  0  0  0
    3.3109   -0.3539    2.5880 H   0  0  0  0  0  0  0  0  0  0  0  0
    2.5757    1.3055    1.3628 C   0  0  0  0  0  0  0  0  0  0  0  0
    3.4539    1.9692    1.5373 H   0  0  0  0  0  0  0  0  0  0  0  0
    1.8072    1.6159    2.1006 H   0  0  0  0  0  0  0  0  0  0  0  0
    2.0581    1.4910   -0.0441 C   0  0  0  0  0  3  0  0  0  0  0  0
    1.5459    2.4424   -0.2649 H   0  0  0  0  0  0  0  0  0  0  0  0
    2.7364    0.8637   -1.1292 C   0  0  2  0  0  3  0  0  0  0  0  0
    3.2617   -0.4385   -0.8491 C   0  0  0  0  0  3  0  0  0  0  0  0
    3.6996   -0.9880   -1.7022 H   0  0  0  0  0  0  0  0  0  0  0  0
    3.9079   -0.7049    0.5107 C   0  0  0  0  0  0  0  0  0  0  0  0
    2.9321    1.5475   -2.4599 C   0  0  0  0  0  0  0  0  0  0  0  0
    3.8787    2.1279   -2.4134 H   0  0  0  0  0  0  0  0  0  0  0  0
    2.1153    2.2587   -2.6915 H   0  0  0  0  0  0  0  0  0  0  0  0
    3.0225    0.8274   -3.2963 H   0  0  0  0  0  0  0  0  0  0  0  0
    4.1835   -2.2055    0.6997 C   0  0  0  0  0  0  0  0  0  0  0  0
    4.9338   -2.5549   -0.0396 H   0  0  0  0  0  0  0  0  0  0  0  0
    3.2765   -2.8222    0.5618 H   0  0  0  0  0  0  0  0  0  0  0  0
    4.5903   -2.4059    1.7125 H   0  0  0  0  0  0  0  0  0  0  0  0
    5.2584    0.0419    0.5770 C   0  0  0  0  0  0  0  0  0  0  0  0
    5.9479   -0.3244   -0.2113 H   0  0  0  0  0  0  0  0  0  0  0  0
    5.7520   -0.1230    1.5576 H   0  0  0  0  0  0  0  0  0  0  0  0
    5.1369    1.1332    0.4312 H   0  0  0  0  0  0  0  0  0  0  0  0
  1  3  1  0  0  0  0
  1  4  1  0  0  0  0
  1  2  1  0  0  0  0
  4  5  1  1  0  0  0
  6  7  1  0  0  0  0
  6  4  1  0  0  0  0
  6  8  1  0  0  0  0
  9  6  1  0  0  0  0
 10  9  1  0  0  0  0
 11 15  1  1  0  0  0
 11 12  1  0  0  0  0
 11  9  1  0  0  0  0
 12 14  1  0  0  0  0
 13 12  1  0  0  0  0
 14 23  1  0  0  0  0
 14 19  1  0  0  0  0
 14  4  1  0  0  0  0
 15 16  1  0  0  0  0
 17 15  1  0  0  0  0
 18 15  1  0  0  0  0
 19 22  1  0  0  0  0
 20 19  1  0  0  0  0
 21 19  1  0  0  0  0
 23 25  1  0  0  0  0
 24 23  1  0  0  0  0
 26 23  1  0  0  0  0
M  END
