7,10
q = 0.0, confidence = 0.998

 25 27  0  0  1  0  0  0  0  0999 V2000
    1.9341    2.1154   -1.1374 O   0  0  0  0  0  0  0  0  0  0  0  0
    3.1596    0.1798    1.1014 O   0  0  0  0  0  0  0  0  0  0  0  0
    2.4443   -1.0954   -0.6343 O   0  0  0  0  0  0  0  0  0  0  0  0
   -1.5742    2.7494    0.4453 O   0  0  0  0  0  0  0  0  0  0  0  0
    1.4882    1.2725   -0.3903 C   0  0  0  0  0  0  0  0  0  0  0  0
    2.0753   -0.0705    0.2429 C   0  0  0  0  0  0  0  0  0  0  0  0
    0.7398   -0.1565    0.9865 C   0  0  1  0  0  3  0  0  0  0  0  0
    0.0178   -0.9536    1.8963 C   0  0  0  0  0  3  0  0  0  0  0  0
    0.3853   -1.9168    2.2710 H   0  0  0  0  0  0  0  0  0  0  0  0
   -1.2874   -0.4698    2.2213 C   0  0  0  0  0  3  0  0  0  0  0  0
   -1.9417   -1.0763    2.8640 H   0  0  0  0  0  0  0  0  0  0  0  0
   -1.7943    0.7711    1.7248 C   0  0  0  0  0  0  0  0  0  0  0  0
   -2.8115    1.0968    1.9785 H   0  0  0  0  0  0  0  0  0  0  0  0
   -1.0283    1.5959    0.8419 C   0  0  0  0  0  0  0  0  0  0  0  0
    0.2608    1.0972    0.4626 C   0  0  2  0  0  3  0  0  0  0  0  0
   -0.9827    3.4297   -0.6731 C   0  0  0  0  0  0  0  0  0  0  0  0
   -1.4261    4.4411   -0.6825 H   0  0  0  0  0  0  0  0  0  0  0  0
   -1.2418    2.9028   -1.6139 H   0  0  0  0  0  0  0  0  0  0  0  0
    0.1207    3.4925   -0.5891 H   0  0  0  0  0  0  0  0  0  0  0  0
    4.3120   -0.0784    0.2934 C   0  0  0  0  0  0  0  0  0  0  0  0
    5.1726   -0.2710    0.9617 H   0  0  0  0  0  0  0  0  0  0  0  0
    4.5310    0.7957   -0.3606 H   0  0  0  0  0  0  0  0  0  0  0  0
    3.8594   -1.2916   -0.5258 C   0  0  0  0  0  0  0  0  0  0  0  0
    4.3055   -1.3296   -1.5400 H   0  0  0  0  0  0  0  0  0  0  0  0
    4.0662   -2.2509   -0.0013 H   0  0  0  0  0  0  0  0  0  0  0  0
  1  5  2  0  0  0  0
  3 23  1  0  0  0  0
  3  6  1  0  0  0  0
  4 14  1  0  0  0  0
  5  6  1  0  0  0  0
  6  7  1  0  0  0  0
  6  2  1  0  0  0  0
  7  8  1  1  0  0  0
  8 10  1  0  0  0  0
  8  9  1  0  0  0  0
 10 11  1  0  0  0  0
 12 13  1  0  0  0  0
 12 10  1  0  0  0  0
 14 12  2  0  0  0  0
 15  5  1  6  0  0  0
 15 14  1  0  0  0  0
 15  7  1  0  0  0  0
 16 19  1  0  0  0  0
 16  4  1  0  0  0  0
 17 16  1  0  0  0  0
 18 16  1  0  0  0  0
 20 21  1  0  0  0  0
 20  2  1  0  0  0  0
 22 20  1  0  0  0  0
 23 25  1  0  0  0  0
 23 20  1  0  0  0  0
 24 23  1  0  0  0  0
M  END
