8,11
q = -2.0, confidence = 0.868

 37 38  0  0  0  0  0  0  0  0999 V2000
   -1.0359    1.9431   -0.1260 N   0  0  0  0  0  0  0  0  0  0  0  0
   -2.7324    0.5832    0.0304 N   0  0  0  0  0  0  0  0  0  0  0  0
    1.3909    1.8285   -0.1358 N   0  0  0  0  0  0  0  0  0  0  0  0
    2.7936    0.2002    0.1157 N   0  0  0  0  0  0  0  0  0  0  0  0
   -3.6881   -0.6696    0.0613 B   0  0  0  0  0  0  0  0  0  0  0  0
    3.2161   -1.2897    0.1401 B   0  0  0  0  0  0  0  0  0  0  0  0
    0.2075    2.5203   -0.5907 C   0  0  0  0  0  0  0  0  0  0  0  0
   -1.3831    0.5991   -0.1097 C   0  0  0  0  0  2  0  0  0  0  0  0
   -3.2366    1.8792    0.1091 C   0  0  0  0  0  0  0  0  0  0  0  0
   -2.1738    2.7519    0.0040 C   0  0  0  0  0  0  0  0  0  0  0  0
    1.4849    0.4687   -0.0604 C   0  0  0  0  0  2  0  0  0  0  0  0
    3.5422    1.3663    0.1534 C   0  0  0  0  0  0  0  0  0  0  0  0
    2.6556    2.4199   -0.0149 C   0  0  0  0  0  0  0  0  0  0  0  0
   -4.6880    2.1570    0.2866 C   0  0  0  0  0  0  0  0  0  0  0  0
   -2.1384    4.2431    0.0161 C   0  0  0  0  0  0  0  0  0  0  0  0
    5.0191    1.3489    0.3456 C   0  0  0  0  0  0  0  0  0  0  0  0
    2.8830    3.8922   -0.0686 C   0  0  0  0  0  0  0  0  0  0  0  0
   -4.4947   -0.5455   -0.8720 H   0  0  0  0  0  0  0  0  0  0  0  0
   -4.2842   -0.6855    1.1495 H   0  0  0  0  0  0  0  0  0  0  0  0
   -3.0163   -1.6853   -0.0803 H   0  0  0  0  0  0  0  0  0  0  0  0
    2.0990   -1.9062    0.0520 H   0  0  0  0  0  0  0  0  0  0  0  0
    3.8645   -1.5936   -0.8630 H   0  0  0  0  0  0  0  0  0  0  0  0
    3.7535   -1.6240    1.1952 H   0  0  0  0  0  0  0  0  0  0  0  0
    0.2104    2.5455   -1.7064 H   0  0  0  0  0  0  0  0  0  0  0  0
    0.2569    3.5675   -0.2400 H   0  0  0  0  0  0  0  0  0  0  0  0
   -5.0717    1.6787    1.2106 H   0  0  0  0  0  0  0  0  0  0  0  0
   -5.2750    1.7226   -0.5478 H   0  0  0  0  0  0  0  0  0  0  0  0
   -4.8850    3.2447    0.3369 H   0  0  0  0  0  0  0  0  0  0  0  0
   -1.7909    4.6795   -0.9459 H   0  0  0  0  0  0  0  0  0  0  0  0
   -1.4880    4.6485    0.8215 H   0  0  0  0  0  0  0  0  0  0  0  0
   -3.1571    4.6337    0.1969 H   0  0  0  0  0  0  0  0  0  0  0  0
    5.4419    2.3708    0.3268 H   0  0  0  0  0  0  0  0  0  0  0  0
    5.2904    0.8766    1.3123 H   0  0  0  0  0  0  0  0  0  0  0  0
    5.5126    0.7519   -0.4490 H   0  0  0  0  0  0  0  0  0  0  0  0
    2.5967    4.3340   -1.0474 H   0  0  0  0  0  0  0  0  0  0  0  0
    2.3191    4.4357    0.7199 H   0  0  0  0  0  0  0  0  0  0  0  0
    3.9556    4.1122    0.0871 H   0  0  0  0  0  0  0  0  0  0  0  0
  1  8  1  0  0  0  0
  1 10  1  0  0  0  0
  2  5  1  0  0  0  0
  2  9  1  0  0  0  0
  3 11  1  0  0  0  0
  3 13  1  0  0  0  0
  4  6  1  0  0  0  0
  4 12  1  0  0  0  0
  5 19  1  0  0  0  0
  6 23  1  0  0  0  0
  7 25  1  0  0  0  0
  7  3  1  0  0  0  0
  7  1  1  0  0  0  0
  8  2  1  0  0  0  0
  9 14  1  0  0  0  0
 10 15  1  0  0  0  0
 10  9  2  0  0  0  0
 11  4  1  0  0  0  0
 12 16  1  0  0  0  0
 13 12  2  0  0  0  0
 14 28  1  0  0  0  0
 14 26  1  0  0  0  0
 15 31  1  0  0  0  0
 15 30  1  0  0  0  0
 16 33  1  0  0  0  0
 17 13  1  0  0  0  0
 17 37  1  0  0  0  0
 17 36  1  0  0  0  0
 18  5  1  0  0  0  0
 20  5  1  0  0  0  0
 21  6  1  0  0  0  0
 22  6  1  0  0  0  0
 24  7  1  0  0  0  0
 27 14  1  0  0  0  0
 29 15  1  0  0  0  0
 32 16  1  0  0  0  0
 34 16  1  0  0  0  0
 35 17  1  0  0  0  0
M  END
