1,4
q = 0.0, confidence = 0.886

 18 17  0  0  1  0  0  0  0  0999 V2000
    0.9050    1.3420    0.5846 C   0  0  0  0  0  3  0  0  0  0  0  0
    1.4522    1.9469    1.4653 O   0  0  0  0  0  0  0  0  0  0  0  0
    0.7282    1.4001   -0.8643 C   0  0  2  0  0  3  0  0  0  0  0  0
   -0.5545    0.9719   -1.3016 C   0  0  0  0  0  3  0  0  0  0  0  0
   -1.6317    0.7842   -0.3676 C   0  0  0  0  0  3  0  0  0  0  0  0
   -2.8521    0.0304   -0.8531 C   0  0  0  0  0  0  0  0  0  0  0  0
   -1.9648    1.8166    0.6937 C   0  0  0  0  0  0  0  0  0  0  0  0
    1.8814    1.6966   -1.7845 C   0  0  0  0  0  0  0  0  0  0  0  0
   -0.6785    0.6868   -2.3614 H   0  0  0  0  0  0  0  0  0  0  0  0
   -2.6190   -0.6903   -1.6593 H   0  0  0  0  0  0  0  0  0  0  0  0
   -3.6135    0.7470   -1.2345 H   0  0  0  0  0  0  0  0  0  0  0  0
   -3.3294   -0.5289   -0.0237 H   0  0  0  0  0  0  0  0  0  0  0  0
   -2.7405    2.5045    0.2887 H   0  0  0  0  0  0  0  0  0  0  0  0
   -1.1006    2.4306    1.0043 H   0  0  0  0  0  0  0  0  0  0  0  0
   -2.3918    1.3451    1.6010 H   0  0  0  0  0  0  0  0  0  0  0  0
    1.8918    2.7777   -2.0395 H   0  0  0  0  0  0  0  0  0  0  0  0
    1.8060    1.1181   -2.7272 H   0  0  0  0  0  0  0  0  0  0  0  0
    2.8504    1.4622   -1.3047 H   0  0  0  0  0  0  0  0  0  0  0  0
  1  2  2  0  0  0  0
  3  1  1  1  0  0  0
  4  3  1  0  0  0  0
  4  5  1  0  0  0  0
  5  7  1  0  0  0  0
  6  5  1  0  0  0  0
  6 12  1  0  0  0  0
  7 14  1  0  0  0  0
  7 15  1  0  0  0  0
  8 18  1  0  0  0  0
  8  3  1  0  0  0  0
  9  4  1  0  0  0  0
 10  6  1  0  0  0  0
 11  6  1  0  0  0  0
 13  7  1  0  0  0  0
 16  8  1  0  0  0  0
 17  8  1  0  0  0  0
M  END
