4,16
q = 0.0, confidence = 0.9

 17 17  0  0  0  0  0  0  0  0999 V2000
   -2.1630   -0.2510    0.0000 S   0  0  0  0  0  0  0  0  0  0  0  0
   -3.2883    0.7139    0.0001 O   0  0  0  0  0  0  0  0  0  0  0  0
   -2.4607   -1.7009    0.0000 O   0  0  0  0  0  0  0  0  0  0  0  0
   -0.8820    0.2002    1.2082 C   0  0  0  0  0  3  0  0  0  0  0  0
   -1.0327   -0.0279    2.2732 H   0  0  0  0  0  0  0  0  0  0  0  0
   -0.2182    1.3848    0.7233 C   0  0  0  0  0  0  0  0  0  0  0  0
    0.3131    2.4879    1.5868 C   0  0  0  0  0  0  0  0  0  0  0  0
    1.1722    3.0069    1.1215 H   0  0  0  0  0  0  0  0  0  0  0  0
    0.6294    2.1074    2.5765 H   0  0  0  0  0  0  0  0  0  0  0  0
   -0.4882    3.2380    1.7568 H   0  0  0  0  0  0  0  0  0  0  0  0
   -0.2183    1.3848   -0.7232 C   0  0  0  0  0  0  0  0  0  0  0  0
    0.3129    2.4880   -1.5867 C   0  0  0  0  0  0  0  0  0  0  0  0
    1.1721    3.0070   -1.1214 H   0  0  0  0  0  0  0  0  0  0  0  0
    0.6292    2.1076   -2.5764 H   0  0  0  0  0  0  0  0  0  0  0  0
   -0.4884    3.2381   -1.7566 H   0  0  0  0  0  0  0  0  0  0  0  0
   -0.8820    0.2002   -1.2082 C   0  0  0  0  0  3  0  0  0  0  0  0
   -1.0328   -0.0278   -2.2731 H   0  0  0  0  0  0  0  0  0  0  0  0
  1  2  2  0  0  0  0
  1  4  1  0  0  0  0
  3  1  2  0  0  0  0
  4  5  1  0  0  0  0
  6  4  1  0  0  0  0
  6  7  1  0  0  0  0
  7 10  1  0  0  0  0
  7  9  1  0  0  0  0
  8  7  1  0  0  0  0
 11  6  2  0  0  0  0
 12 13  1  0  0  0  0
 12 11  1  0  0  0  0
 14 12  1  0  0  0  0
 15 12  1  0  0  0  0
 16 11  1  0  0  0  0
 16  1  1  0  0  0  0
 17 16  1  0  0  0  0
M  END
