3,6
q = -1.0, confidence = 0.002

 25 26  0  0  1  0  0  0  0  0999 V2000
   -3.1551    1.7563   -0.7394 S   0  0  0  0  0  0  0  0  0  0  0  0
   -0.8706    2.3581    1.0623 C   0  0  1  0  0  3  0  0  0  0  0  0
   -0.4179    1.6201    2.2202 C   0  0  2  0  0  3  0  0  0  0  0  0
   -1.2292    0.4487    2.4033 C   0  0  0  0  0  0  0  0  0  0  0  0
   -2.2279    0.4714    1.3744 C   0  0  0  0  0  0  0  0  0  0  0  0
   -1.9785    1.6233    0.5570 C   0  0  1  0  0  3  0  0  0  0  0  0
   -3.3934   -0.2577    0.9394 C   0  0  0  0  0  0  0  0  0  0  0  0
   -3.8065   -1.1398    1.4500 H   0  0  0  0  0  0  0  0  0  0  0  0
   -3.9983    0.2960   -0.1687 C   0  0  0  0  0  0  0  0  0  0  0  0
   -0.4158    3.7078    0.5990 C   0  0  0  0  0  0  0  0  0  0  0  0
   -0.3590    3.7693   -0.5066 H   0  0  0  0  0  0  0  0  0  0  0  0
    0.5836    3.9626    0.9965 H   0  0  0  0  0  0  0  0  0  0  0  0
   -1.1198    4.4990    0.9381 H   0  0  0  0  0  0  0  0  0  0  0  0
    0.6942    2.0468    3.1343 C   0  0  0  0  0  0  0  0  0  0  0  0
    1.4180    2.7093    2.6227 H   0  0  0  0  0  0  0  0  0  0  0  0
    1.2609    1.1775    3.5232 H   0  0  0  0  0  0  0  0  0  0  0  0
    0.3010    2.6032    4.0130 H   0  0  0  0  0  0  0  0  0  0  0  0
   -1.1352   -0.5483    3.5201 C   0  0  0  0  0  0  0  0  0  0  0  0
   -0.1141   -0.5918    3.9463 H   0  0  0  0  0  0  0  0  0  0  0  0
   -1.3935   -1.5729    3.1818 H   0  0  0  0  0  0  0  0  0  0  0  0
   -1.8274   -0.2946    4.3531 H   0  0  0  0  0  0  0  0  0  0  0  0
   -5.2374   -0.1540   -0.8778 C   0  0  0  0  0  0  0  0  0  0  0  0
   -5.6066   -1.0999   -0.4355 H   0  0  0  0  0  0  0  0  0  0  0  0
   -5.0646   -0.3287   -1.9616 H   0  0  0  0  0  0  0  0  0  0  0  0
   -6.0540    0.5957   -0.8033 H   0  0  0  0  0  0  0  0  0  0  0  0
  1  9  1  0  0  0  0
  2 10  1  1  0  0  0
  2  3  1  0  0  0  0
  3  4  1  0  0  0  0
  3 14  1  1  0  0  0
  4 18  1  0  0  0  0
  5  4  2  0  0  0  0
  6  1  1  1  0  0  0
  6  2  1  0  0  0  0
  6  5  1  0  0  0  0
  7  5  1  0  0  0  0
  7  8  1  0  0  0  0
  9  7  2  0  0  0  0
 10 13  1  0  0  0  0
 10 12  1  0  0  0  0
 11 10  1  0  0  0  0
 14 16  1  0  0  0  0
 14 17  1  0  0  0  0
 15 14  1  0  0  0  0
 18 19  1  0  0  0  0
 18 21  1  0  0  0  0
 20 18  1  0  0  0  0
 22 25  1  0  0  0  0
 22 23  1  0  0  0  0
 22  9  1  0  0  0  0
 24 22  1  0  0  0  0
M  END
