3,6
q = -2.0, confidence = 0.768

 25 24  0  0  0  0  0  0  0  0999 V2000
   -1.9804    0.2600    1.0108 O   0  0  0  0  0  0  0  0  0  0  0  0
    0.6524    1.7957   -0.3906 C   0  0  0  0  0  3  0  0  0  0  0  0
    0.0028    1.0179   -1.3982 C   0  0  0  0  0  3  0  0  0  0  0  0
   -1.0351    0.0393   -1.2391 C   0  0  0  0  0  3  0  0  0  0  0  0
   -2.2993    0.1105   -0.3900 C   0  0  0  0  0  0  0  0  0  0  0  0
   -0.7046   -0.0440    1.4191 C   0  0  0  0  0  3  0  0  0  0  0  0
   -0.0184    2.6137    0.6933 C   0  0  0  0  0  0  0  0  0  0  0  0
    2.0046    2.3728   -0.7726 C   0  0  0  0  0  0  0  0  0  0  0  0
   -3.1159   -1.1807   -0.5328 C   0  0  0  0  0  0  0  0  0  0  0  0
   -3.1530    1.3258   -0.7856 C   0  0  0  0  0  0  0  0  0  0  0  0
    0.5304    0.9779   -2.3676 H   0  0  0  0  0  0  0  0  0  0  0  0
   -1.2003   -0.5540   -2.1548 H   0  0  0  0  0  0  0  0  0  0  0  0
   -0.0082    3.6780    0.3691 H   0  0  0  0  0  0  0  0  0  0  0  0
   -1.0609    2.3286    0.8985 H   0  0  0  0  0  0  0  0  0  0  0  0
    0.5445    2.5599    1.6454 H   0  0  0  0  0  0  0  0  0  0  0  0
    1.8799    3.4043   -1.1702 H   0  0  0  0  0  0  0  0  0  0  0  0
    2.6645    2.4532    0.1144 H   0  0  0  0  0  0  0  0  0  0  0  0
    2.5285    1.7668   -1.5363 H   0  0  0  0  0  0  0  0  0  0  0  0
   -2.5140   -2.0662   -0.2551 H   0  0  0  0  0  0  0  0  0  0  0  0
   -3.9957   -1.1378    0.1376 H   0  0  0  0  0  0  0  0  0  0  0  0
   -3.4725   -1.3101   -1.5740 H   0  0  0  0  0  0  0  0  0  0  0  0
   -2.5820    2.2664   -0.6712 H   0  0  0  0  0  0  0  0  0  0  0  0
   -4.0583    1.3791   -0.1494 H   0  0  0  0  0  0  0  0  0  0  0  0
   -3.4715    1.2410   -1.8430 H   0  0  0  0  0  0  0  0  0  0  0  0
   -0.4581   -0.0142    2.6018 O   0  0  0  0  0  0  0  0  0  0  0  0
  1  6  1  0  0  0  0
  2  7  1  0  0  0  0
  3  4  1  0  0  0  0
  3  2  1  0  0  0  0
  4  5  1  0  0  0  0
  5  1  1  0  0  0  0
  6 25  2  0  0  0  0
  7 14  1  0  0  0  0
  7 15  1  0  0  0  0
  8  2  1  0  0  0  0
  8 17  1  0  0  0  0
  9  5  1  0  0  0  0
  9 19  1  0  0  0  0
  9 20  1  0  0  0  0
 10 22  1  0  0  0  0
 10  5  1  0  0  0  0
 10 23  1  0  0  0  0
 11  3  1  0  0  0  0
 12  4  1  0  0  0  0
 13  7  1  0  0  0  0
 16  8  1  0  0  0  0
 18  8  1  0  0  0  0
 21  9  1  0  0  0  0
 24 10  1  0  0  0  0
M  END
