20,36
q = -2.0, confidence = 0.944

 49 52  0  0  1  0  0  0  0  0999 V2000
   -4.6886    0.2169    0.1049 C   0  0  0  0  0  0  0  0  0  0  0  0
   -5.1002    0.9625   -0.6054 H   0  0  0  0  0  0  0  0  0  0  0  0
   -4.5899    0.7064    1.0942 H   0  0  0  0  0  0  0  0  0  0  0  0
   -5.4214   -0.6093    0.2070 H   0  0  0  0  0  0  0  0  0  0  0  0
   -3.2096   -1.2863   -2.1825 C   0  0  0  0  0  0  0  0  0  0  0  0
   -3.6887   -0.6120   -2.9218 H   0  0  0  0  0  0  0  0  0  0  0  0
   -3.8382   -2.1953   -2.0928 H   0  0  0  0  0  0  0  0  0  0  0  0
   -2.2189   -1.5863   -2.5794 H   0  0  0  0  0  0  0  0  0  0  0  0
   -1.4536   -3.3864    2.5612 C   0  0  0  0  0  0  0  0  0  0  0  0
   -0.5795   -4.0107    2.8379 H   0  0  0  0  0  0  0  0  0  0  0  0
   -2.3480   -4.0407    2.5154 H   0  0  0  0  0  0  0  0  0  0  0  0
   -1.6113   -2.6411    3.3664 H   0  0  0  0  0  0  0  0  0  0  0  0
   -0.9654   -3.7856   -0.4733 C   0  0  0  0  0  0  0  0  0  0  0  0
   -0.2432   -4.5780   -0.1873 H   0  0  0  0  0  0  0  0  0  0  0  0
   -0.6068   -3.3071   -1.4056 H   0  0  0  0  0  0  0  0  0  0  0  0
   -1.9389   -4.2770   -0.6761 H   0  0  0  0  0  0  0  0  0  0  0  0
   -3.0393   -0.4446   -0.5089 Si  0  0  0  0  0  0  0  0  0  0  0  0
   -2.5097   -1.5436    0.6555 O   0  0  0  0  0  0  0  0  0  0  0  0
   -1.7990    0.9657   -0.6850 C   0  0  1  0  0  3  0  0  0  0  0  0
   -1.2101    1.3922   -1.9265 C   0  0  0  0  0  3  0  0  0  0  0  0
   -1.3381    0.8780   -2.8859 H   0  0  0  0  0  0  0  0  0  0  0  0
   -0.3593    2.5026   -1.7188 C   0  0  0  0  0  3  0  0  0  0  0  0
    0.2557    3.0029   -2.4747 H   0  0  0  0  0  0  0  0  0  0  0  0
   -0.4664    2.8799   -0.3310 C   0  0  0  0  0  0  0  0  0  0  0  0
    0.1443    3.9184    0.4314 C   0  0  0  0  0  0  0  0  0  0  0  0
    0.8818    4.5834   -0.0400 H   0  0  0  0  0  0  0  0  0  0  0  0
   -0.2308    4.0804    1.7575 C   0  0  0  0  0  0  0  0  0  0  0  0
    0.2148    4.8897    2.3553 H   0  0  0  0  0  0  0  0  0  0  0  0
   -1.2049    3.2275    2.3586 C   0  0  0  0  0  0  0  0  0  0  0  0
   -1.5046    3.4095    3.4017 H   0  0  0  0  0  0  0  0  0  0  0  0
   -1.7761    2.1767    1.6549 C   0  0  0  0  0  0  0  0  0  0  0  0
   -2.5241    1.5230    2.1283 H   0  0  0  0  0  0  0  0  0  0  0  0
   -1.3963    1.9603    0.2973 C   0  0  0  0  0  0  0  0  0  0  0  0
   -1.1630   -2.5307    0.9125 Si  0  0  0  0  0  0  0  0  0  0  0  0
    0.3198   -1.3778    1.0729 C   0  0  1  0  0  3  0  0  0  0  0  0
    0.2580   -0.1746    1.8475 C   0  0  0  0  0  3  0  0  0  0  0  0
   -0.6472    0.2109    2.3261 H   0  0  0  0  0  0  0  0  0  0  0  0
    1.5210    0.4740    1.8664 C   0  0  0  0  0  3  0  0  0  0  0  0
    1.7548    1.4260    2.3598 H   0  0  0  0  0  0  0  0  0  0  0  0
    2.4639   -0.4088    1.2223 C   0  0  0  0  0  0  0  0  0  0  0  0
    3.8699   -0.3222    1.0235 C   0  0  0  0  0  0  0  0  0  0  0  0
    4.4262    0.5522    1.3895 H   0  0  0  0  0  0  0  0  0  0  0  0
    4.5130   -1.3601    0.3676 C   0  0  0  0  0  0  0  0  0  0  0  0
    5.6018   -1.3165    0.2150 H   0  0  0  0  0  0  0  0  0  0  0  0
    3.7875   -2.4844   -0.1263 C   0  0  0  0  0  0  0  0  0  0  0  0
    4.3329   -3.2840   -0.6499 H   0  0  0  0  0  0  0  0  0  0  0  0
    2.4137   -2.5850    0.0321 C   0  0  0  0  0  0  0  0  0  0  0  0
    1.8637   -3.4481   -0.3656 H   0  0  0  0  0  0  0  0  0  0  0  0
    1.7226   -1.5502    0.7253 C   0  0  0  0  0  0  0  0  0  0  0  0
  1  4  1  0  0  0  0
  1  3  1  0  0  0  0
  2  1  1  0  0  0  0
  5  7  1  0  0  0  0
  5 17  1  0  0  0  0
  6  5  1  0  0  0  0
  8  5  1  0  0  0  0
  9 10  1  0  0  0  0
  9 12  1  0  0  0  0
 11  9  1  0  0  0  0
 13 14  1  0  0  0  0
 13 34  1  0  0  0  0
 15 13  1  0  0  0  0
 16 13  1  0  0  0  0
 17  1  1  0  0  0  0
 17 18  1  0  0  0  0
 18 34  1  0  0  0  0
 19 17  1  6  0  0  0
 19 33  1  0  0  0  0
 20 22  1  0  0  0  0
 20 19  1  0  0  0  0
 21 20  1  0  0  0  0
 22 24  1  0  0  0  0
 23 22  1  0  0  0  0
 24 33  2  0  0  0  0
 24 25  1  0  0  0  0
 25 27  2  0  0  0  0
 26 25  1  0  0  0  0
 27 28  1  0  0  0  0
 27 29  1  0  0  0  0
 29 30  1  0  0  0  0
 31 32  1  0  0  0  0
 31 29  2  0  0  0  0
 33 31  1  0  0  0  0
 34  9  1  0  0  0  0
 35 34  1  1  0  0  0
 35 36  1  0  0  0  0
 36 38  1  0  0  0  0
 36 37  1  0  0  0  0
 38 39  1  0  0  0  0
 40 38  1  0  0  0  0
 41 40  1  0  0  0  0
 41 42  1  0  0  0  0
 43 41  2  0  0  0  0
 44 43  1  0  0  0  0
 45 47  2  0  0  0  0
 45 43  1  0  0  0  0
 46 45  1  0  0  0  0
 47 49  1  0  0  0  0
 48 47  1  0  0  0  0
 49 35  1  0  0  0  0
 49 40  2  0  0  0  0
M  END
