3,7
q = -1.0

 44 45  0  0  1  0  0  0  0  0999 V2000
   -2.1841   -0.6063    0.0974 P   0  0  0  0  0  0  0  0  0  0  0  0
    0.3014   -2.4675   -1.4661 N   0  0  0  0  0  0  0  0  0  0  0  0
    1.5725   -0.3554   -1.6414 C   0  0  0  0  0  3  0  0  0  0  0  0
    2.4389   -0.7411   -2.1855 H   0  0  0  0  0  0  0  0  0  0  0  0
    0.4310   -1.1252   -1.2030 C   0  0  0  0  0  0  0  0  0  0  0  0
   -0.4633   -0.2240   -0.4670 C   0  0  0  0  0  0  0  0  0  0  0  0
    0.0642    1.1283   -0.6687 C   0  0  2  0  0  3  0  0  0  0  0  0
   -0.4414    2.4217   -0.3185 C   0  0  0  0  0  0  0  0  0  0  0  0
   -1.3929    2.5186    0.2200 H   0  0  0  0  0  0  0  0  0  0  0  0
    0.2692    3.5508   -0.6912 C   0  0  0  0  0  0  0  0  0  0  0  0
   -0.1243    4.5449   -0.4314 H   0  0  0  0  0  0  0  0  0  0  0  0
    1.5032    3.4572   -1.4020 C   0  0  0  0  0  0  0  0  0  0  0  0
    2.0400    4.3788   -1.6718 H   0  0  0  0  0  0  0  0  0  0  0  0
    2.0301    2.2257   -1.7525 C   0  0  0  0  0  0  0  0  0  0  0  0
    2.9774    2.1458   -2.3059 H   0  0  0  0  0  0  0  0  0  0  0  0
    1.3074    1.0444   -1.4066 C   0  0  1  0  0  3  0  0  0  0  0  0
   -2.2265    0.2431    1.7946 C   0  0  0  0  0  0  0  0  0  0  0  0
   -1.5177    1.0945    1.7763 H   0  0  0  0  0  0  0  0  0  0  0  0
   -1.7290   -0.7801    2.8241 C   0  0  0  0  0  0  0  0  0  0  0  0
   -1.5893   -0.2988    3.8143 H   0  0  0  0  0  0  0  0  0  0  0  0
   -0.7574   -1.2228    2.5304 H   0  0  0  0  0  0  0  0  0  0  0  0
   -2.4577   -1.6093    2.9381 H   0  0  0  0  0  0  0  0  0  0  0  0
   -3.6124    0.7729    2.1703 C   0  0  0  0  0  0  0  0  0  0  0  0
   -3.5842    1.1996    3.1947 H   0  0  0  0  0  0  0  0  0  0  0  0
   -4.3724   -0.0367    2.1748 H   0  0  0  0  0  0  0  0  0  0  0  0
   -3.9651    1.5723    1.4886 H   0  0  0  0  0  0  0  0  0  0  0  0
   -3.1954    0.4981   -1.0766 C   0  0  0  0  0  0  0  0  0  0  0  0
   -3.1296    1.5583   -0.7490 H   0  0  0  0  0  0  0  0  0  0  0  0
   -4.6615    0.0430   -1.0234 C   0  0  0  0  0  0  0  0  0  0  0  0
   -5.2855    0.6719   -1.6932 H   0  0  0  0  0  0  0  0  0  0  0  0
   -5.0943    0.1051   -0.0069 H   0  0  0  0  0  0  0  0  0  0  0  0
   -4.7553   -1.0100   -1.3610 H   0  0  0  0  0  0  0  0  0  0  0  0
   -2.6524    0.3839   -2.5064 C   0  0  0  0  0  0  0  0  0  0  0  0
   -3.3435    0.8827   -3.2179 H   0  0  0  0  0  0  0  0  0  0  0  0
   -2.5648   -0.6792   -2.8171 H   0  0  0  0  0  0  0  0  0  0  0  0
   -1.6562    0.8515   -2.6194 H   0  0  0  0  0  0  0  0  0  0  0  0
   -0.4808   -3.3588   -0.6177 C   0  0  0  0  0  0  0  0  0  0  0  0
   -1.3685   -2.8313   -0.2215 H   0  0  0  0  0  0  0  0  0  0  0  0
    0.1210   -3.7428    0.2370 H   0  0  0  0  0  0  0  0  0  0  0  0
   -0.8298   -4.2211   -1.2204 H   0  0  0  0  0  0  0  0  0  0  0  0
    1.4003   -3.1208   -2.1587 C   0  0  0  0  0  0  0  0  0  0  0  0
    1.6638   -2.5770   -3.0866 H   0  0  0  0  0  0  0  0  0  0  0  0
    1.0860   -4.1426   -2.4422 H   0  0  0  0  0  0  0  0  0  0  0  0
    2.3153   -3.2029   -1.5243 H   0  0  0  0  0  0  0  0  0  0  0  0
  1 17  1  0  0  0  0
  2  5  1  0  0  0  0
  2 37  1  0  0  0  0
  3 16  1  0  0  0  0
  3  5  1  0  0  0  0
  4  3  1  0  0  0  0
  5  6  2  0  0  0  0
  6  1  1  0  0  0  0
  7  6  1  6  0  0  0
  7  8  1  0  0  0  0
  8  9  1  0  0  0  0
 10 11  1  0  0  0  0
 10  8  2  0  0  0  0
 12 10  1  0  0  0  0
 13 12  1  0  0  0  0
 14 12  2  0  0  0  0
 15 14  1  0  0  0  0
 16 14  1  1  0  0  0
 16  7  1  0  0  0  0
 17 23  1  0  0  0  0
 17 19  1  0  0  0  0
 18 17  1  0  0  0  0
 19 22  1  0  0  0  0
 19 20  1  0  0  0  0
 21 19  1  0  0  0  0
 23 25  1  0  0  0  0
 23 24  1  0  0  0  0
 26 23  1  0  0  0  0
 27 29  1  0  0  0  0
 27 28  1  0  0  0  0
 27  1  1  0  0  0  0
 29 31  1  0  0  0  0
 30 29  1  0  0  0  0
 32 29  1  0  0  0  0
 33 27  1  0  0  0  0
 34 33  1  0  0  0  0
 35 33  1  0  0  0  0
 36 33  1  0  0  0  0
 37 38  1  0  0  0  0
 37 39  1  0  0  0  0
 40 37  1  0  0  0  0
 41 44  1  0  0  0  0
 41  2  1  0  0  0  0
 42 41  1  0  0  0  0
 43 41  1  0  0  0  0
M  END
