8,11
q = -1.0, confidence = 0.0

 23 24  0  0  1  0  0  0  0  0999 V2000
    1.1390   -0.7373    1.6014 O   0  0  0  0  0  0  0  0  0  0  0  0
    1.4028   -0.4756   -0.6739 O   0  0  0  0  0  0  0  0  0  0  0  0
    3.7463   -2.0267   -0.3641 O   0  0  0  0  0  0  0  0  0  0  0  0
    1.9305    2.2000    0.0017 O   0  0  0  0  0  0  0  0  0  0  0  0
    2.6388    0.0188   -0.3739 N   0  0  0  0  0  0  0  0  0  0  0  0
    0.6699   -0.8118    0.4907 C   0  0  0  0  0  0  0  0  0  0  0  0
   -0.6738   -1.2433    0.1059 C   0  0  2  0  0  3  0  0  0  0  0  0
   -1.2600   -1.2929   -1.2090 C   0  0  0  0  0  3  0  0  0  0  0  0
   -2.6291   -1.7383   -1.0857 C   0  0  0  0  0  0  0  0  0  0  0  0
   -2.9122   -1.8996    0.2958 C   0  0  0  0  0  0  0  0  0  0  0  0
   -1.7190   -1.5625    1.0381 C   0  0  0  0  0  3  0  0  0  0  0  0
    2.8122    1.3702   -0.0227 C   0  0  0  0  0  0  0  0  0  0  0  0
    4.2964    1.5125    0.2995 C   0  0  0  0  0  0  0  0  0  0  0  0
    4.9018    0.1023    0.1722 C   0  0  0  0  0  0  0  0  0  0  0  0
    3.7526   -0.8257   -0.2127 C   0  0  0  0  0  0  0  0  0  0  0  0
   -0.7349   -1.0623   -2.1427 H   0  0  0  0  0  0  0  0  0  0  0  0
   -3.3265   -1.8960   -1.9164 H   0  0  0  0  0  0  0  0  0  0  0  0
   -3.8707   -2.2033    0.7323 H   0  0  0  0  0  0  0  0  0  0  0  0
   -1.6015   -1.5692    2.1281 H   0  0  0  0  0  0  0  0  0  0  0  0
    4.3834    1.9398    1.3180 H   0  0  0  0  0  0  0  0  0  0  0  0
    4.7403    2.2528   -0.3956 H   0  0  0  0  0  0  0  0  0  0  0  0
    5.3425   -0.2760    1.1156 H   0  0  0  0  0  0  0  0  0  0  0  0
    5.6915    0.0254   -0.6016 H   0  0  0  0  0  0  0  0  0  0  0  0
  2  5  1  0  0  0  0
  2  6  1  0  0  0  0
  3 15  2  0  0  0  0
  5 15  1  0  0  0  0
  5 12  1  0  0  0  0
  6  1  2  0  0  0  0
  7  6  1  1  0  0  0
  7 11  1  0  0  0  0
  8  9  1  0  0  0  0
  8  7  1  0  0  0  0
  9 10  2  0  0  0  0
 10 18  1  0  0  0  0
 10 11  1  0  0  0  0
 11 19  1  0  0  0  0
 12  4  2  0  0  0  0
 12 13  1  0  0  0  0
 13 20  1  0  0  0  0
 14 13  1  0  0  0  0
 14 22  1  0  0  0  0
 15 14  1  0  0  0  0
 16  8  1  0  0  0  0
 17  9  1  0  0  0  0
 21 13  1  0  0  0  0
 23 14  1  0  0  0  0
M  END
