4,8
q = -1.0

 30 31  0  0  1  0  0  0  0  0999 V2000
    2.4975    2.2369   -0.1057 O   0  0  0  0  0  0  0  0  0  0  0  0
   -0.0964    1.1144   -0.0480 C   0  0  0  0  0  3  0  0  0  0  0  0
   -0.0112    2.1112    0.4031 H   0  0  0  0  0  0  0  0  0  0  0  0
   -0.6618    1.0100   -1.3366 C   0  0  0  0  0  3  0  0  0  0  0  0
   -1.0034    1.9100   -1.8704 H   0  0  0  0  0  0  0  0  0  0  0  0
   -0.9479   -0.2815   -1.8901 C   0  0  0  0  0  3  0  0  0  0  0  0
   -1.4081   -0.3920   -2.8805 H   0  0  0  0  0  0  0  0  0  0  0  0
   -0.7109   -1.4133   -1.0454 C   0  0  0  0  0  3  0  0  0  0  0  0
   -1.0896   -2.4009   -1.3514 H   0  0  0  0  0  0  0  0  0  0  0  0
   -0.1486   -1.2207    0.2387 C   0  0  0  0  0  3  0  0  0  0  0  0
   -0.1262   -2.0783    0.9274 H   0  0  0  0  0  0  0  0  0  0  0  0
    0.7541   -0.0224    0.4922 C   0  0  0  0  0  0  0  0  0  0  0  0
    0.8547    0.1068    1.5911 H   0  0  0  0  0  0  0  0  0  0  0  0
    2.1855   -0.1435   -0.0963 C   0  0  2  0  0  0  0  0  0  0  0  0
    2.1014   -0.0978   -1.2063 H   0  0  0  0  0  0  0  0  0  0  0  0
    2.8344   -1.4853    0.2893 C   0  0  0  0  0  0  0  0  0  0  0  0
    2.8595   -1.5671    1.4006 H   0  0  0  0  0  0  0  0  0  0  0  0
    2.1955   -2.3192   -0.0667 H   0  0  0  0  0  0  0  0  0  0  0  0
    4.2556   -1.6372   -0.2637 C   0  0  0  0  0  0  0  0  0  0  0  0
    4.6912   -2.6054    0.0603 H   0  0  0  0  0  0  0  0  0  0  0  0
    4.2129   -1.6679   -1.3753 H   0  0  0  0  0  0  0  0  0  0  0  0
    5.1488   -0.4717    0.1740 C   0  0  0  0  0  0  0  0  0  0  0  0
    6.1626   -0.5619   -0.2683 H   0  0  0  0  0  0  0  0  0  0  0  0
    5.2854   -0.5084    1.2781 H   0  0  0  0  0  0  0  0  0  0  0  0
    4.5140    0.8664   -0.2162 C   0  0  0  0  0  0  0  0  0  0  0  0
    5.1375    1.7160    0.1418 H   0  0  0  0  0  0  0  0  0  0  0  0
    4.4563    0.9576   -1.3231 H   0  0  0  0  0  0  0  0  0  0  0  0
    3.0904    1.0189    0.3362 C   0  0  1  0  0  0  0  0  0  0  0  0
    3.1443    0.9945    1.4573 H   0  0  0  0  0  0  0  0  0  0  0  0
    3.0928    2.9604    0.1629 H   0  0  0  0  0  0  0  0  0  0  0  0
  1 30  1  0  0  0  0
  1 28  1  0  0  0  0
  2  3  1  0  0  0  0
  2 12  1  0  0  0  0
  4  2  1  0  0  0  0
  5  4  1  0  0  0  0
  6  4  1  0  0  0  0
  6  8  1  0  0  0  0
  7  6  1  0  0  0  0
  8 10  1  0  0  0  0
  9  8  1  0  0  0  0
 10 12  1  0  0  0  0
 10 11  1  0  0  0  0
 12 13  1  0  0  0  0
 14 15  1  6  0  0  0
 14 16  1  0  0  0  0
 14 28  1  0  0  0  0
 14 12  1  0  0  0  0
 16 17  1  0  0  0  0
 18 16  1  0  0  0  0
 19 20  1  0  0  0  0
 19 22  1  0  0  0  0
 19 16  1  0  0  0  0
 21 19  1  0  0  0  0
 22 24  1  0  0  0  0
 23 22  1  0  0  0  0
 25 26  1  0  0  0  0
 25 22  1  0  0  0  0
 25 28  1  0  0  0  0
 27 25  1  0  0  0  0
 28 29  1  1  0  0  0
M  END
