4,8
q = 0.0, confidence = 0.948

 24 26  0  0  0  0  0  0  0  0999 V2000
    1.3340   -0.7595   -1.5744 C   0  0  0  0  0  0  0  0  0  0  0  0
    0.1602   -1.4691   -2.0324 C   0  0  0  0  0  3  0  0  0  0  0  0
    0.1602   -2.5683   -2.0196 H   0  0  0  0  0  0  0  0  0  0  0  0
   -0.9427   -0.7653   -2.5924 C   0  0  0  0  0  3  0  0  0  0  0  0
   -1.7827   -1.3343   -3.0194 H   0  0  0  0  0  0  0  0  0  0  0  0
   -0.9524    0.6692   -2.6424 C   0  0  0  0  0  3  0  0  0  0  0  0
   -1.7985    1.2110   -3.0871 H   0  0  0  0  0  0  0  0  0  0  0  0
    0.1192    1.3871   -2.0394 C   0  0  0  0  0  3  0  0  0  0  0  0
    0.1153    2.4881   -2.0553 H   0  0  0  0  0  0  0  0  0  0  0  0
    1.3233    0.7078   -1.5884 C   0  0  0  0  0  0  0  0  0  0  0  0
    2.4314    1.3973   -1.0524 C   0  0  0  0  0  0  0  0  0  0  0  0
    2.4276    2.4981   -1.0718 H   0  0  0  0  0  0  0  0  0  0  0  0
    3.5586    0.7355   -0.5232 C   0  0  0  0  0  0  0  0  0  0  0  0
    4.6717    1.4409    0.0317 C   0  0  0  0  0  0  0  0  0  0  0  0
    4.6396    2.5421    0.0463 H   0  0  0  0  0  0  0  0  0  0  0  0
    5.7661    0.7634    0.5421 C   0  0  0  0  0  0  0  0  0  0  0  0
    6.6140    1.3214    0.9673 H   0  0  0  0  0  0  0  0  0  0  0  0
    5.8002   -0.6635    0.5155 C   0  0  0  0  0  0  0  0  0  0  0  0
    6.6764   -1.1931    0.9202 H   0  0  0  0  0  0  0  0  0  0  0  0
    4.7433   -1.3819   -0.0153 C   0  0  0  0  0  0  0  0  0  0  0  0
    4.7705   -2.4831   -0.0342 H   0  0  0  0  0  0  0  0  0  0  0  0
    3.5891   -0.7185   -0.5463 C   0  0  0  0  0  0  0  0  0  0  0  0
    2.4901   -1.4167   -1.0794 C   0  0  0  0  0  0  0  0  0  0  0  0
    2.5354   -2.5161   -1.1328 H   0  0  0  0  0  0  0  0  0  0  0  0
  1 23  1  0  0  0  0
  2  3  1  0  0  0  0
  2  1  1  0  0  0  0
  4  2  1  0  0  0  0
  5  4  1  0  0  0  0
  6  4  1  0  0  0  0
  6  8  1  0  0  0  0
  7  6  1  0  0  0  0
  8 10  1  0  0  0  0
  9  8  1  0  0  0  0
 10  1  2  0  0  0  0
 10 11  1  0  0  0  0
 11 13  2  0  0  0  0
 12 11  1  0  0  0  0
 13 14  1  0  0  0  0
 14 15  1  0  0  0  0
 14 16  2  0  0  0  0
 16 17  1  0  0  0  0
 18 16  1  0  0  0  0
 18 19  1  0  0  0  0
 20 18  2  0  0  0  0
 21 20  1  0  0  0  0
 22 13  1  0  0  0  0
 22 20  1  0  0  0  0
 23 22  2  0  0  0  0
 24 23  1  0  0  0  0
M  END
