2,6
q = 0.0, confidence = 0.998

 41 43  0  0  1  0  0  0  0  0999 V2000
   -0.1235   -0.5794   -0.1405 C   0  0  2  0  0  3  0  0  0  0  0  0
   -0.5087   -1.8001    0.5091 C   0  0  0  0  0  3  0  0  0  0  0  0
   -0.1172   -2.0200    1.5128 H   0  0  0  0  0  0  0  0  0  0  0  0
   -1.3914   -2.7093   -0.1174 C   0  0  0  0  0  3  0  0  0  0  0  0
   -1.6994   -3.6241    0.4069 H   0  0  0  0  0  0  0  0  0  0  0  0
   -1.9422   -2.3990   -1.4013 C   0  0  0  0  0  3  0  0  0  0  0  0
   -2.6723   -3.0763   -1.8650 H   0  0  0  0  0  0  0  0  0  0  0  0
   -1.5866   -1.1888   -2.0422 C   0  0  0  0  0  0  0  0  0  0  0  0
   -2.0421   -0.9209   -3.0054 H   0  0  0  0  0  0  0  0  0  0  0  0
   -0.6750   -0.2848   -1.4111 C   0  0  0  0  0  0  0  0  0  0  0  0
   -0.4043    0.6708   -1.8821 H   0  0  0  0  0  0  0  0  0  0  0  0
    0.9373    0.3059    0.5139 C   0  0  1  0  0  0  0  0  0  0  0  0
    0.7202    0.3224    1.6145 H   0  0  0  0  0  0  0  0  0  0  0  0
    2.1705    2.4273    0.2364 C   0  0  0  0  0  0  0  0  0  0  0  0
    3.0551    1.8695   -0.1269 H   0  0  0  0  0  0  0  0  0  0  0  0
    2.3108    2.6031    1.3359 H   0  0  0  0  0  0  0  0  0  0  0  0
    2.0988    3.7758   -0.4779 C   0  0  0  0  0  0  0  0  0  0  0  0
    2.9968    4.3815   -0.2422 H   0  0  0  0  0  0  0  0  0  0  0  0
    2.0758    3.5928   -1.5822 H   0  0  0  0  0  0  0  0  0  0  0  0
   -0.2206    3.8040   -0.3129 C   0  0  0  0  0  0  0  0  0  0  0  0
   -0.3673    3.6388   -1.4103 H   0  0  0  0  0  0  0  0  0  0  0  0
   -1.0607    4.4237    0.0586 H   0  0  0  0  0  0  0  0  0  0  0  0
   -0.2091    2.4545    0.3964 C   0  0  0  0  0  0  0  0  0  0  0  0
   -0.1887    2.6182    1.5056 H   0  0  0  0  0  0  0  0  0  0  0  0
   -1.1398    1.9044    0.1652 H   0  0  0  0  0  0  0  0  0  0  0  0
    2.2746   -0.4052    0.3312 C   0  0  0  0  0  0  0  0  0  0  0  0
    2.7822   -0.6606   -0.9595 C   0  0  0  0  0  0  0  0  0  0  0  0
    2.2101   -0.3285   -1.8393 H   0  0  0  0  0  0  0  0  0  0  0  0
    4.0042   -1.3187   -1.1276 C   0  0  0  0  0  0  0  0  0  0  0  0
    4.3855   -1.5030   -2.1448 H   0  0  0  0  0  0  0  0  0  0  0  0
    4.7585   -1.7580   -0.0163 C   0  0  0  0  0  0  0  0  0  0  0  0
    4.2416   -1.5062    1.2680 C   0  0  0  0  0  0  0  0  0  0  0  0
    4.8092   -1.8354    2.1527 H   0  0  0  0  0  0  0  0  0  0  0  0
    3.0184   -0.8384    1.4401 C   0  0  0  0  0  0  0  0  0  0  0  0
    2.6394   -0.6423    2.4557 H   0  0  0  0  0  0  0  0  0  0  0  0
    6.0695   -2.4762   -0.2127 C   0  0  0  0  0  0  0  0  0  0  0  0
    6.7782   -1.8658   -0.8102 H   0  0  0  0  0  0  0  0  0  0  0  0
    5.9267   -3.4296   -0.7636 H   0  0  0  0  0  0  0  0  0  0  0  0
    6.5553   -2.7136    0.7531 H   0  0  0  0  0  0  0  0  0  0  0  0
    0.9499    1.6641   -0.0342 N   0  0  0  0  0  0  0  0  0  0  0  0
    0.9719    4.5346   -0.0793 O   0  0  0  0  0  0  0  0  0  0  0  0
  1  2  1  0  0  0  0
  1 12  1  6  0  0  0
  2  3  1  0  0  0  0
  4  5  1  0  0  0  0
  4  2  1  0  0  0  0
  6  4  1  0  0  0  0
  7  6  1  0  0  0  0
  8 10  2  0  0  0  0
  8  6  1  0  0  0  0
  9  8  1  0  0  0  0
 10  1  1  0  0  0  0
 11 10  1  0  0  0  0
 12 13  1  1  0  0  0
 14 16  1  0  0  0  0
 15 14  1  0  0  0  0
 17 18  1  0  0  0  0
 17 41  1  0  0  0  0
 17 14  1  0  0  0  0
 19 17  1  0  0  0  0
 20 41  1  0  0  0  0
 20 22  1  0  0  0  0
 20 23  1  0  0  0  0
 21 20  1  0  0  0  0
 23 24  1  0  0  0  0
 25 23  1  0  0  0  0
 26 12  1  0  0  0  0
 26 34  1  0  0  0  0
 27 26  2  0  0  0  0
 28 27  1  0  0  0  0
 29 27  1  0  0  0  0
 29 31  2  0  0  0  0
 30 29  1  0  0  0  0
 31 32  1  0  0  0  0
 32 34  2  0  0  0  0
 32 33  1  0  0  0  0
 34 35  1  0  0  0  0
 36 31  1  0  0  0  0
 36 39  1  0  0  0  0
 37 36  1  0  0  0  0
 38 36  1  0  0  0  0
 40 14  1  0  0  0  0
 40 23  1  0  0  0  0
 40 12  1  0  0  0  0
M  END
