1,14
q = -1.0

 45 48  0  0  0  0  0  0  0  0999 V2000
    0.5666    0.7077    1.1043 C   0  0  0  0  0  3  0  0  0  0  0  0
   -0.7530    0.8361    1.5620 C   0  0  0  0  0  0  0  0  0  0  0  0
    1.1832    1.7616    1.7441 N   0  0  0  0  0  0  0  0  0  0  0  0
    0.3968    2.4773    2.5499 N   0  0  0  0  0  2  0  0  0  0  0  0
   -0.7822    1.8877    2.4373 N   0  0  0  0  0  0  0  0  0  0  0  0
   -1.9566    2.4281    3.1020 C   0  0  0  0  0  0  0  0  0  0  0  0
   -1.6297    2.9799    4.0002 H   0  0  0  0  0  0  0  0  0  0  0  0
   -2.6081    1.5677    3.3575 H   0  0  0  0  0  0  0  0  0  0  0  0
   -2.4809    3.1049    2.3991 H   0  0  0  0  0  0  0  0  0  0  0  0
    2.5920    2.0996    1.5447 C   0  0  0  0  0  0  0  0  0  0  0  0
    3.1903    1.3239    2.0697 H   0  0  0  0  0  0  0  0  0  0  0  0
    2.7683    3.0733    2.0368 H   0  0  0  0  0  0  0  0  0  0  0  0
    2.9192    2.1327    0.0652 C   0  0  0  0  0  0  0  0  0  0  0  0
    2.4837    1.0773   -0.7836 C   0  0  0  0  0  3  0  0  0  0  0  0
    2.8210    1.1801   -2.1547 C   0  0  0  0  0  0  0  0  0  0  0  0
    2.4586    0.4047   -2.8476 H   0  0  0  0  0  0  0  0  0  0  0  0
    3.5814    2.2486   -2.6545 C   0  0  0  0  0  0  0  0  0  0  0  0
    3.8285    2.2874   -3.7275 H   0  0  0  0  0  0  0  0  0  0  0  0
    4.0139    3.2730   -1.7970 C   0  0  0  0  0  0  0  0  0  0  0  0
    4.6050    4.1173   -2.1829 H   0  0  0  0  0  0  0  0  0  0  0  0
    3.6687    3.2139   -0.4396 C   0  0  0  0  0  0  0  0  0  0  0  0
    3.9883    4.0188    0.2436 H   0  0  0  0  0  0  0  0  0  0  0  0
   -2.0810   -0.3224    1.2811 S   0  0  1  0  0  0  0  0  0  0  0  0
   -2.7376   -0.5008    2.6615 O   0  0  0  0  0  0  0  0  0  0  0  0
   -3.2139    0.5902    0.1541 C   0  0  0  0  0  0  0  0  0  0  0  0
   -2.8883    1.7689   -0.5359 C   0  0  0  0  0  0  0  0  0  0  0  0
   -3.6868    2.1805   -1.6431 C   0  0  0  0  0  0  0  0  0  0  0  0
   -3.4127    3.0936   -2.1883 H   0  0  0  0  0  0  0  0  0  0  0  0
   -4.7936    1.4493   -2.0267 C   0  0  0  0  0  0  0  0  0  0  0  0
   -5.3968    1.7762   -2.8879 H   0  0  0  0  0  0  0  0  0  0  0  0
   -5.1806    0.2725   -1.3258 C   0  0  0  0  0  0  0  0  0  0  0  0
   -6.3235   -0.4825   -1.7156 C   0  0  0  0  0  0  0  0  0  0  0  0
   -6.9195   -0.1252   -2.5701 H   0  0  0  0  0  0  0  0  0  0  0  0
   -6.6780   -1.6410   -1.0421 C   0  0  0  0  0  0  0  0  0  0  0  0
   -7.5617   -2.2177   -1.3538 H   0  0  0  0  0  0  0  0  0  0  0  0
   -5.8985   -2.0752    0.0606 C   0  0  0  0  0  0  0  0  0  0  0  0
   -6.1874   -2.9853    0.6081 H   0  0  0  0  0  0  0  0  0  0  0  0
   -4.7845   -1.3582    0.4757 C   0  0  0  0  0  0  0  0  0  0  0  0
   -4.2293   -1.6819    1.3678 H   0  0  0  0  0  0  0  0  0  0  0  0
   -4.3801   -0.1692   -0.2080 C   0  0  0  0  0  0  0  0  0  0  0  0
   -1.8421    2.5226   -0.1162 O   0  0  0  0  0  0  0  0  0  0  0  0
   -1.0668    3.2442   -1.0763 C   0  0  0  0  0  0  0  0  0  0  0  0
   -0.7834    2.5779   -1.9164 H   0  0  0  0  0  0  0  0  0  0  0  0
   -0.1455    3.5547   -0.5491 H   0  0  0  0  0  0  0  0  0  0  0  0
   -1.5996    4.1502   -1.4379 H   0  0  0  0  0  0  0  0  0  0  0  0
  1  2  2  0  0  0  0
  1  3  1  0  0  0  0
  2  5  1  0  0  0  0
  3  4  1  0  0  0  0
  5  4  1  0  0  0  0
  5  6  1  0  0  0  0
  6  8  1  0  0  0  0
  6  7  1  0  0  0  0
  9  6  1  0  0  0  0
 10  3  1  0  0  0  0
 10 12  1  0  0  0  0
 10 11  1  0  0  0  0
 13 10  1  0  0  0  0
 14 13  2  0  0  0  0
 15 14  1  0  0  0  0
 16 15  1  0  0  0  0
 17 15  2  0  0  0  0
 17 19  1  0  0  0  0
 18 17  1  0  0  0  0
 19 21  2  0  0  0  0
 20 19  1  0  0  0  0
 21 13  1  0  0  0  0
 21 22  1  0  0  0  0
 23  2  1  0  0  0  0
 23 24  2  1  0  0  0
 25 23  1  0  0  0  0
 26 41  1  0  0  0  0
 26 25  2  0  0  0  0
 27 26  1  0  0  0  0
 28 27  1  0  0  0  0
 29 27  2  0  0  0  0
 29 31  1  0  0  0  0
 30 29  1  0  0  0  0
 31 40  1  0  0  0  0
 32 31  2  0  0  0  0
 32 34  1  0  0  0  0
 33 32  1  0  0  0  0
 34 36  2  0  0  0  0
 35 34  1  0  0  0  0
 36 38  1  0  0  0  0
 36 37  1  0  0  0  0
 38 39  1  0  0  0  0
 40 25  1  0  0  0  0
 40 38  2  0  0  0  0
 42 44  1  0  0  0  0
 42 41  1  0  0  0  0
 43 42  1  0  0  0  0
 45 42  1  0  0  0  0
M  END
