1,34
q = -1.0

 48 50  0  0  0  0  0  0  0  0999 V2000
   -0.0425    0.4667    0.4201 C   0  0  0  0  0  3  0  0  0  0  0  0
   -1.1747    0.2220    1.2189 C   0  0  0  0  0  0  0  0  0  0  0  0
   -1.5195    1.4102    1.8170 N   0  0  0  0  0  0  0  0  0  0  0  0
   -0.7427    2.4044    1.4444 N   0  0  0  0  0  2  0  0  0  0  0  0
    0.1248    1.8372    0.5957 N   0  0  0  0  0  0  0  0  0  0  0  0
   -2.5733    1.6340    2.7994 C   0  0  0  0  0  0  0  0  0  0  0  0
   -2.2689    2.4802    3.4392 H   0  0  0  0  0  0  0  0  0  0  0  0
   -2.6804    0.7009    3.3860 H   0  0  0  0  0  0  0  0  0  0  0  0
   -3.5262    1.8643    2.2853 H   0  0  0  0  0  0  0  0  0  0  0  0
   -2.0775   -1.3293    1.4802 S   0  0  1  0  0  0  0  0  0  0  0  0
   -2.2438   -1.5423    2.9789 O   0  0  0  0  0  0  0  0  0  0  0  0
   -3.7164   -0.6423    0.9406 C   0  0  0  0  0  0  0  0  0  0  0  0
   -3.8913    0.0007   -0.2943 C   0  0  0  0  0  0  0  0  0  0  0  0
   -3.0283    0.2036   -0.9459 H   0  0  0  0  0  0  0  0  0  0  0  0
   -5.1739    0.4069   -0.6885 C   0  0  0  0  0  0  0  0  0  0  0  0
   -5.3282    0.9250   -1.6457 H   0  0  0  0  0  0  0  0  0  0  0  0
   -6.2680    0.1467    0.1571 C   0  0  0  0  0  0  0  0  0  0  0  0
   -6.0956   -0.5110    1.3864 C   0  0  0  0  0  0  0  0  0  0  0  0
   -6.9627   -0.7067    2.0333 H   0  0  0  0  0  0  0  0  0  0  0  0
   -4.8080   -0.9110    1.7753 C   0  0  0  0  0  0  0  0  0  0  0  0
   -4.6250   -1.4181    2.7362 H   0  0  0  0  0  0  0  0  0  0  0  0
   -8.0077    0.6980   -0.3754 Br  0  0  0  0  0  0  0  0  0  0  0  0
    0.9911    2.7013   -0.1520 C   0  0  0  0  0  0  0  0  0  0  0  0
    0.3776    3.7724   -0.8266 C   0  0  0  0  0  0  0  0  0  0  0  0
   -0.7128    3.8898   -0.7525 H   0  0  0  0  0  0  0  0  0  0  0  0
    1.1542    4.6711   -1.5642 C   0  0  0  0  0  0  0  0  0  0  0  0
    0.6758    5.5106   -2.0894 H   0  0  0  0  0  0  0  0  0  0  0  0
    2.5452    4.4866   -1.6197 C   0  0  0  0  0  0  0  0  0  0  0  0
    3.1731    5.1839   -2.1941 H   0  0  0  0  0  0  0  0  0  0  0  0
    3.1399    3.4181   -0.9412 C   0  0  0  0  0  0  0  0  0  0  0  0
    4.2313    3.2947   -0.9780 H   0  0  0  0  0  0  0  0  0  0  0  0
    2.3856    2.4839   -0.1908 C   0  0  0  0  0  0  0  0  0  0  0  0
    3.0834    1.3843    0.5240 C   0  0  0  0  0  0  0  0  0  0  0  0
    2.6808    0.0700    0.4954 C   0  0  0  0  0  3  0  0  0  0  0  0
    4.2825    1.8547    1.2868 C   0  0  0  0  0  0  0  0  0  0  0  0
    4.4619    3.0043    1.6631 O   0  0  0  0  0  0  0  0  0  0  0  0
    5.1865    0.8656    1.5126 O   0  0  0  0  0  0  0  0  0  0  0  0
    6.2780    1.2069    2.3660 C   0  0  0  0  0  0  0  0  0  0  0  0
    6.8277    2.0869    1.9753 H   0  0  0  0  0  0  0  0  0  0  0  0
    6.9336    0.3180    2.3921 H   0  0  0  0  0  0  0  0  0  0  0  0
    5.9192    1.4495    3.3875 H   0  0  0  0  0  0  0  0  0  0  0  0
    3.4486   -0.9823    1.2391 C   0  0  0  0  0  0  0  0  0  0  0  0
    4.1416   -1.8433    0.7159 O   0  0  0  0  0  0  0  0  0  0  0  0
    3.2131   -0.9130    2.5682 O   0  0  0  0  0  0  0  0  0  0  0  0
    3.7186   -2.0134    3.3294 C   0  0  0  0  0  0  0  0  0  0  0  0
    3.2364   -2.9545    2.9960 H   0  0  0  0  0  0  0  0  0  0  0  0
    3.4591   -1.8026    4.3823 H   0  0  0  0  0  0  0  0  0  0  0  0
    4.8171   -2.1095    3.2098 H   0  0  0  0  0  0  0  0  0  0  0  0
  1  5  1  0  0  0  0
  1  2  2  0  0  0  0
  2 10  1  0  0  0  0
  2  3  1  0  0  0  0
  3  6  1  0  0  0  0
  4  3  1  0  0  0  0
  5  4  1  0  0  0  0
  6  8  1  0  0  0  0
  6  7  1  0  0  0  0
  9  6  1  0  0  0  0
 10 11  2  1  0  0  0
 12 10  1  0  0  0  0
 12 20  1  0  0  0  0
 13 12  2  0  0  0  0
 14 13  1  0  0  0  0
 15 13  1  0  0  0  0
 15 17  2  0  0  0  0
 16 15  1  0  0  0  0
 17 18  1  0  0  0  0
 18 20  2  0  0  0  0
 18 19  1  0  0  0  0
 20 21  1  0  0  0  0
 22 17  1  0  0  0  0
 23  5  1  0  0  0  0
 24 25  1  0  0  0  0
 24 23  2  0  0  0  0
 26 24  1  0  0  0  0
 27 26  1  0  0  0  0
 28 26  2  0  0  0  0
 28 30  1  0  0  0  0
 29 28  1  0  0  0  0
 30 32  2  0  0  0  0
 31 30  1  0  0  0  0
 32 23  1  0  0  0  0
 32 33  1  0  0  0  0
 33 35  1  0  0  0  0
 34 33  2  0  0  0  0
 34 42  1  0  0  0  0
 35 37  1  0  0  0  0
 35 36  2  0  0  0  0
 37 38  1  0  0  0  0
 38 40  1  0  0  0  0
 38 41  1  0  0  0  0
 39 38  1  0  0  0  0
 42 44  1  0  0  0  0
 43 42  2  0  0  0  0
 44 45  1  0  0  0  0
 45 47  1  0  0  0  0
 46 45  1  0  0  0  0
 48 45  1  0  0  0  0
M  END
