1,10
q = -2.0, confidence = 0.694

 34 35  0  0  0  0  0  0  0  0999 V2000
   -1.1956    0.3508    1.0374 C   0  0  0  0  0  3  0  0  0  0  0  0
   -1.1442    1.5527    0.1584 C   0  0  0  0  0  0  0  0  0  0  0  0
   -2.1780    2.3227   -0.3121 C   0  0  0  0  0  0  0  0  0  0  0  0
   -3.6057    2.2329    0.0110 C   0  0  0  0  0  0  0  0  0  0  0  0
   -4.5598    2.6357   -0.9589 C   0  0  0  0  0  0  0  0  0  0  0  0
   -5.9350    2.5496   -0.7108 C   0  0  0  0  0  0  0  0  0  0  0  0
   -6.4014    2.0690    0.5243 C   0  0  0  0  0  0  0  0  0  0  0  0
   -5.4735    1.6935    1.5100 C   0  0  0  0  0  0  0  0  0  0  0  0
   -4.0974    1.7784    1.2624 C   0  0  0  0  0  0  0  0  0  0  0  0
    0.8865    0.5848   -0.8632 C   0  0  0  0  0  3  0  0  0  0  0  0
    0.2446    1.8121   -0.2997 C   0  0  0  0  0  0  0  0  0  0  0  0
    0.8391    3.0241   -0.0615 C   0  0  0  0  0  0  0  0  0  0  0  0
    2.2114    3.4364   -0.3764 C   0  0  0  0  0  0  0  0  0  0  0  0
    2.8570    4.3806    0.4633 C   0  0  0  0  0  0  0  0  0  0  0  0
    4.1777    4.7830    0.2308 C   0  0  0  0  0  0  0  0  0  0  0  0
    4.8933    4.2640   -0.8613 C   0  0  0  0  0  0  0  0  0  0  0  0
    4.2623    3.3540   -1.7254 C   0  0  0  0  0  0  0  0  0  0  0  0
    2.9411    2.9492   -1.4919 C   0  0  0  0  0  0  0  0  0  0  0  0
   -2.2028   -0.0655    1.2041 H   0  0  0  0  0  0  0  0  0  0  0  0
   -0.7908    0.6079    2.0312 H   0  0  0  0  0  0  0  0  0  0  0  0
   -1.9176    3.0772   -1.0754 H   0  0  0  0  0  0  0  0  0  0  0  0
   -4.2004    3.0127   -1.9299 H   0  0  0  0  0  0  0  0  0  0  0  0
   -6.6511    2.8616   -1.4869 H   0  0  0  0  0  0  0  0  0  0  0  0
   -7.4818    1.9999    0.7224 H   0  0  0  0  0  0  0  0  0  0  0  0
   -5.8267    1.3388    2.4908 H   0  0  0  0  0  0  0  0  0  0  0  0
   -3.3842    1.5110    2.0539 H   0  0  0  0  0  0  0  0  0  0  0  0
    1.9928    0.6568   -0.8498 H   0  0  0  0  0  0  0  0  0  0  0  0
    0.5805    0.4532   -1.9240 H   0  0  0  0  0  0  0  0  0  0  0  0
    0.2435    3.7608    0.5055 H   0  0  0  0  0  0  0  0  0  0  0  0
    2.3021    4.7912    1.3219 H   0  0  0  0  0  0  0  0  0  0  0  0
    4.6540    5.5105    0.9062 H   0  0  0  0  0  0  0  0  0  0  0  0
    5.9310    4.5800   -1.0474 H   0  0  0  0  0  0  0  0  0  0  0  0
    4.8023    2.9655   -2.6031 H   0  0  0  0  0  0  0  0  0  0  0  0
    2.4464    2.2724   -2.2018 H   0  0  0  0  0  0  0  0  0  0  0  0
  1 19  1  0  0  0  0
  1 20  1  0  0  0  0
  2  1  1  0  0  0  0
  3  4  1  0  0  0  0
  3  2  2  0  0  0  0
  4  9  1  0  0  0  0
  5  6  1  0  0  0  0
  5  4  2  0  0  0  0
  6  7  2  0  0  0  0
  7 24  1  0  0  0  0
  7  8  1  0  0  0  0
  8 25  1  0  0  0  0
  9  8  2  0  0  0  0
  9 26  1  0  0  0  0
 10 27  1  0  0  0  0
 10 11  1  0  0  0  0
 11 12  2  0  0  0  0
 11  2  1  0  0  0  0
 12 29  1  0  0  0  0
 13 12  1  0  0  0  0
 13 14  1  0  0  0  0
 14 30  1  0  0  0  0
 15 14  2  0  0  0  0
 15 31  1  0  0  0  0
 16 15  1  0  0  0  0
 17 18  1  0  0  0  0
 17 16  2  0  0  0  0
 18 13  2  0  0  0  0
 21  3  1  0  0  0  0
 22  5  1  0  0  0  0
 23  6  1  0  0  0  0
 28 10  1  0  0  0  0
 32 16  1  0  0  0  0
 33 17  1  0  0  0  0
 34 18  1  0  0  0  0
M  END
