2,22
q = -1.0, confidence = 0.018

 42 44  0  0  0  0  0  0  0  0999 V2000
    0.6988   -0.2881   -1.4640 S   0  0  0  0  0  0  0  0  0  0  0  0
   -0.0372   -0.9610    1.2855 C   0  0  0  0  0  3  0  0  0  0  0  0
   -0.5269   -1.5263    2.4825 C   0  0  0  0  0  0  0  0  0  0  0  0
    0.3318   -1.9778    3.4972 C   0  0  0  0  0  0  0  0  0  0  0  0
    1.7199   -1.9063    3.3177 C   0  0  0  0  0  0  0  0  0  0  0  0
    2.2322   -1.3526    2.1375 C   0  0  0  0  0  0  0  0  0  0  0  0
    1.3755   -0.8550    1.1335 C   0  0  0  0  0  0  0  0  0  0  0  0
    1.9584   -0.0924   -0.0472 C   0  0  0  0  0  0  0  0  0  0  0  0
    1.9344    1.4307    0.1756 C   0  0  0  0  0  0  0  0  0  0  0  0
    1.6276    1.9878    1.4306 C   0  0  0  0  0  0  0  0  0  0  0  0
    1.7199    3.3759    1.6318 C   0  0  0  0  0  0  0  0  0  0  0  0
    2.1031    4.2217    0.5798 C   0  0  0  0  0  0  0  0  0  0  0  0
    2.4034    3.6723   -0.6786 C   0  0  0  0  0  0  0  0  0  0  0  0
    2.3273    2.2878   -0.8764 C   0  0  0  0  0  0  0  0  0  0  0  0
    3.3638   -0.5216   -0.4809 C   0  0  0  0  0  0  0  0  0  0  0  0
    4.4666    0.0489    0.1951 C   0  0  0  0  0  0  0  0  0  0  0  0
    5.7778   -0.3428   -0.1060 C   0  0  0  0  0  0  0  0  0  0  0  0
    6.0193   -1.2985   -1.1049 C   0  0  0  0  0  0  0  0  0  0  0  0
    4.9363   -1.8551   -1.7986 C   0  0  0  0  0  0  0  0  0  0  0  0
    3.6220   -1.4733   -1.4861 C   0  0  0  0  0  0  0  0  0  0  0  0
    0.4056   -2.1075   -1.7261 C   0  0  0  0  0  0  0  0  0  0  0  0
   -1.0942   -2.1449   -1.5221 C   0  0  0  0  0  3  0  0  0  0  0  0
   -1.6538   -2.5831   -0.2944 C   0  0  0  0  0  3  0  0  0  0  0  0
   -1.6112   -1.6509    2.6181 H   0  0  0  0  0  0  0  0  0  0  0  0
   -0.0897   -2.4113    4.4169 H   0  0  0  0  0  0  0  0  0  0  0  0
    2.4057   -2.2836    4.0903 H   0  0  0  0  0  0  0  0  0  0  0  0
    3.3205   -1.2890    1.9954 H   0  0  0  0  0  0  0  0  0  0  0  0
    1.3384    1.3300    2.2615 H   0  0  0  0  0  0  0  0  0  0  0  0
    1.4986    3.7964    2.6246 H   0  0  0  0  0  0  0  0  0  0  0  0
    2.1795    5.3072    0.7417 H   0  0  0  0  0  0  0  0  0  0  0  0
    2.7152    4.3259   -1.5069 H   0  0  0  0  0  0  0  0  0  0  0  0
    2.6013    1.8599   -1.8532 H   0  0  0  0  0  0  0  0  0  0  0  0
    4.2953    0.8170    0.9633 H   0  0  0  0  0  0  0  0  0  0  0  0
    6.6180    0.1134    0.4384 H   0  0  0  0  0  0  0  0  0  0  0  0
    7.0487   -1.5998   -1.3487 H   0  0  0  0  0  0  0  0  0  0  0  0
    5.1101   -2.5931   -2.5957 H   0  0  0  0  0  0  0  0  0  0  0  0
    2.8041   -1.9251   -2.0607 H   0  0  0  0  0  0  0  0  0  0  0  0
    0.7579   -2.4175   -2.7283 H   0  0  0  0  0  0  0  0  0  0  0  0
    0.9520   -2.6597   -0.9373 H   0  0  0  0  0  0  0  0  0  0  0  0
   -1.7225   -2.0541   -2.4244 H   0  0  0  0  0  0  0  0  0  0  0  0
   -1.0288   -3.1059    0.4442 H   0  0  0  0  0  0  0  0  0  0  0  0
   -2.7292   -2.8123   -0.2485 H   0  0  0  0  0  0  0  0  0  0  0  0
  1  8  1  0  0  0  0
  2  3  1  0  0  0  0
  3 24  1  0  0  0  0
  3  4  2  0  0  0  0
  4 25  1  0  0  0  0
  5  4  1  0  0  0  0
  5 26  1  0  0  0  0
  6  5  2  0  0  0  0
  7  2  2  0  0  0  0
  7  6  1  0  0  0  0
  8  9  1  0  0  0  0
  8  7  1  0  0  0  0
  9 10  1  0  0  0  0
 10 11  2  0  0  0  0
 10 28  1  0  0  0  0
 11 29  1  0  0  0  0
 12 30  1  0  0  0  0
 12 11  1  0  0  0  0
 13 12  2  0  0  0  0
 14 13  1  0  0  0  0
 14  9  2  0  0  0  0
 15  8  1  0  0  0  0
 15 16  1  0  0  0  0
 16 33  1  0  0  0  0
 17 16  2  0  0  0  0
 17 34  1  0  0  0  0
 18 17  1  0  0  0  0
 19 20  1  0  0  0  0
 19 18  2  0  0  0  0
 20 15  2  0  0  0  0
 21 22  1  0  0  0  0
 21  1  1  0  0  0  0
 21 39  1  0  0  0  0
 22 23  1  0  0  0  0
 23 42  1  0  0  0  0
 23 41  1  0  0  0  0
 27  6  1  0  0  0  0
 31 13  1  0  0  0  0
 32 14  1  0  0  0  0
 35 18  1  0  0  0  0
 36 19  1  0  0  0  0
 37 20  1  0  0  0  0
 38 21  1  0  0  0  0
 40 22  1  0  0  0  0
M  END
