11,14
q = -1.0, confidence = 0.002

 31 33  0  0  1  0  0  0  0  0999 V2000
   -1.0099   -0.8979    0.3790 N   0  0  0  0  0  0  0  0  0  0  0  0
   -1.3606   -2.1065    0.8054 C   0  0  0  0  0  0  0  0  0  0  0  0
   -2.7133   -2.5087    0.9410 C   0  0  0  0  0  0  0  0  0  0  0  0
   -3.7233   -1.6196    0.6080 C   0  0  0  0  0  0  0  0  0  0  0  0
   -3.3834   -0.3122    0.1611 C   0  0  0  0  0  0  0  0  0  0  0  0
   -4.3366    0.6766   -0.2187 C   0  0  0  0  0  0  0  0  0  0  0  0
   -3.9144    1.9247   -0.6533 C   0  0  0  0  0  0  0  0  0  0  0  0
   -2.5316    2.2489   -0.7033 C   0  0  0  0  0  0  0  0  0  0  0  0
   -1.5696    1.3157   -0.3308 C   0  0  0  0  0  0  0  0  0  0  0  0
   -1.9882    0.0140    0.0809 C   0  0  0  0  0  0  0  0  0  0  0  0
   -0.1152    1.5681   -0.2968 C   0  0  1  0  0  3  0  0  0  0  0  0
    0.6786    1.6056    0.9059 C   0  0  0  0  0  0  0  0  0  0  0  0
    2.0520    1.6817    0.5085 C   0  0  0  0  0  0  0  0  0  0  0  0
    2.0887    1.7099   -0.9227 C   0  0  0  0  0  3  0  0  0  0  0  0
    0.7611    1.6525   -1.4198 C   0  0  0  0  0  3  0  0  0  0  0  0
    0.1619    1.6086    2.3096 C   0  0  0  0  0  0  0  0  0  0  0  0
   -0.9380    1.4921    2.3335 H   0  0  0  0  0  0  0  0  0  0  0  0
    0.4155    2.5649    2.8127 H   0  0  0  0  0  0  0  0  0  0  0  0
    0.6098    0.7811    2.8959 H   0  0  0  0  0  0  0  0  0  0  0  0
    3.2408    1.7143    1.4161 C   0  0  0  0  0  0  0  0  0  0  0  0
    3.0438    1.1616    2.3539 H   0  0  0  0  0  0  0  0  0  0  0  0
    3.5075    2.7606    1.6784 H   0  0  0  0  0  0  0  0  0  0  0  0
    4.1142    1.2461    0.9231 H   0  0  0  0  0  0  0  0  0  0  0  0
   -0.5313   -2.7879    1.0531 H   0  0  0  0  0  0  0  0  0  0  0  0
   -2.9381   -3.5244    1.2958 H   0  0  0  0  0  0  0  0  0  0  0  0
   -4.7832   -1.9079    0.6844 H   0  0  0  0  0  0  0  0  0  0  0  0
   -5.4083    0.4307   -0.1677 H   0  0  0  0  0  0  0  0  0  0  0  0
   -4.6552    2.6810   -0.9526 H   0  0  0  0  0  0  0  0  0  0  0  0
   -2.2132    3.2514   -1.0255 H   0  0  0  0  0  0  0  0  0  0  0  0
    2.9996    1.7226   -1.5301 H   0  0  0  0  0  0  0  0  0  0  0  0
    0.4574    1.5935   -2.4700 H   0  0  0  0  0  0  0  0  0  0  0  0
  1  2  1  0  0  0  0
  2  3  2  0  0  0  0
  2 24  1  0  0  0  0
  3 25  1  0  0  0  0
  4 26  1  0  0  0  0
  4  3  1  0  0  0  0
  5  4  2  0  0  0  0
  6 27  1  0  0  0  0
  6  5  1  0  0  0  0
  7  6  2  0  0  0  0
  8  7  1  0  0  0  0
  8  9  2  0  0  0  0
  9 10  1  0  0  0  0
 10  5  1  0  0  0  0
 10  1  2  0  0  0  0
 11  9  1  6  0  0  0
 11 12  1  0  0  0  0
 12 16  1  0  0  0  0
 13 12  2  0  0  0  0
 13 20  1  0  0  0  0
 14 13  1  0  0  0  0
 15 14  1  0  0  0  0
 15 11  1  0  0  0  0
 16 17  1  0  0  0  0
 16 18  1  0  0  0  0
 16 19  1  0  0  0  0
 20 22  1  0  0  0  0
 20 21  1  0  0  0  0
 23 20  1  0  0  0  0
 28  7  1  0  0  0  0
 29  8  1  0  0  0  0
 30 14  1  0  0  0  0
 31 15  1  0  0  0  0
M  END
