2,6
q = -1.0

 17 16  0  0  1  0  0  0  0  0999 V2000
    2.6553    1.3569    0.1754 O   0  0  0  0  0  0  0  0  0  0  0  0
    0.2754   -0.5373   -2.3161 C   0  0  0  0  0  3  0  0  0  0  0  0
    0.7067   -1.6851   -1.4761 C   0  0  2  0  0  3  0  0  0  0  0  0
    2.1772   -1.8067   -1.3135 C   0  0  0  0  0  0  0  0  0  0  0  0
    2.8971   -0.7970   -0.7554 C   0  0  0  0  0  0  0  0  0  0  0  0
    2.0752    0.3432   -0.2439 C   0  0  0  0  0  3  0  0  0  0  0  0
   -0.0066   -3.0178   -1.6254 C   0  0  0  0  0  0  0  0  0  0  0  0
    4.3930   -0.6968   -0.6968 C   0  0  0  0  0  0  0  0  0  0  0  0
    1.0604    0.0251   -2.8534 H   0  0  0  0  0  0  0  0  0  0  0  0
   -0.6296   -0.6798   -2.9345 H   0  0  0  0  0  0  0  0  0  0  0  0
    2.6831   -2.7042   -1.7201 H   0  0  0  0  0  0  0  0  0  0  0  0
    0.4608   -3.6298   -2.4318 H   0  0  0  0  0  0  0  0  0  0  0  0
    0.0343   -3.6232   -0.6958 H   0  0  0  0  0  0  0  0  0  0  0  0
   -1.0705   -2.8893   -1.9027 H   0  0  0  0  0  0  0  0  0  0  0  0
    4.8847   -1.6121   -1.0804 H   0  0  0  0  0  0  0  0  0  0  0  0
    4.7517    0.1709   -1.2897 H   0  0  0  0  0  0  0  0  0  0  0  0
    4.7402   -0.5087    0.3413 H   0  0  0  0  0  0  0  0  0  0  0  0
  3  2  1  6  0  0  0
  3  4  1  0  0  0  0
  4  5  2  0  0  0  0
  5  8  1  0  0  0  0
  5  6  1  0  0  0  0
  6  1  2  0  0  0  0
  7  3  1  0  0  0  0
  7 13  1  0  0  0  0
  8 17  1  0  0  0  0
  9  2  1  0  0  0  0
 10  2  1  0  0  0  0
 11  4  1  0  0  0  0
 12  7  1  0  0  0  0
 14  7  1  0  0  0  0
 15  8  1  0  0  0  0
 16  8  1  0  0  0  0
M  END
