11,14
q = -1.0, confidence = 0.0

 26 28  0  0  0  0  0  0  0  0999 V2000
    1.8674   -1.8507   -1.7475 C   0  0  0  0  0  0  0  0  0  0  0  0
    1.9925   -1.4151   -2.7495 H   0  0  0  0  0  0  0  0  0  0  0  0
    2.9328   -2.4618   -1.1037 C   0  0  0  0  0  0  0  0  0  0  0  0
    3.9173   -2.4900   -1.5926 H   0  0  0  0  0  0  0  0  0  0  0  0
    2.7841   -3.0345    0.1937 C   0  0  0  0  0  0  0  0  0  0  0  0
    3.6589   -3.4957    0.6758 H   0  0  0  0  0  0  0  0  0  0  0  0
    1.5668   -3.0143    0.8565 C   0  0  0  0  0  0  0  0  0  0  0  0
    1.4554   -3.4501    1.8591 H   0  0  0  0  0  0  0  0  0  0  0  0
    0.4432   -2.4228    0.2093 C   0  0  0  0  0  0  0  0  0  0  0  0
    0.5982   -1.8202   -1.1009 C   0  0  0  0  0  0  0  0  0  0  0  0
   -0.6931   -1.3132   -1.4963 C   0  0  0  0  0  3  0  0  0  0  0  0
   -0.9272   -0.8776   -2.4738 H   0  0  0  0  0  0  0  0  0  0  0  0
   -1.6532   -1.7016   -0.5043 C   0  0  0  0  0  3  0  0  0  0  0  0
   -0.9359   -2.2792    0.5917 C   0  0  0  0  0  3  0  0  0  0  0  0
   -1.3696   -2.6233    1.5369 H   0  0  0  0  0  0  0  0  0  0  0  0
   -3.1130   -1.5209   -0.6007 C   0  0  0  0  0  0  0  0  0  0  0  0
   -3.6841   -0.7054   -1.6030 C   0  0  0  0  0  0  0  0  0  0  0  0
   -3.0324   -0.1699   -2.3078 H   0  0  0  0  0  0  0  0  0  0  0  0
   -5.0710   -0.5424   -1.6940 C   0  0  0  0  0  0  0  0  0  0  0  0
   -5.4937    0.1042   -2.4779 H   0  0  0  0  0  0  0  0  0  0  0  0
   -5.9203   -1.1939   -0.7848 C   0  0  0  0  0  0  0  0  0  0  0  0
   -7.0109   -1.0649   -0.8546 H   0  0  0  0  0  0  0  0  0  0  0  0
   -5.3668   -2.0100    0.2141 C   0  0  0  0  0  0  0  0  0  0  0  0
   -6.0228   -2.5265    0.9310 H   0  0  0  0  0  0  0  0  0  0  0  0
   -3.9788   -2.1716    0.3050 C   0  0  0  0  0  0  0  0  0  0  0  0
   -3.5593   -2.8175    1.0890 H   0  0  0  0  0  0  0  0  0  0  0  0
  1  3  2  0  0  0  0
  1 10  1  0  0  0  0
  2  1  1  0  0  0  0
  3  5  1  0  0  0  0
  4  3  1  0  0  0  0
  5  6  1  0  0  0  0
  5  7  2  0  0  0  0
  7  8  1  0  0  0  0
  9 14  1  0  0  0  0
  9  7  1  0  0  0  0
 10  9  2  0  0  0  0
 11 10  1  0  0  0  0
 11 13  1  0  0  0  0
 12 11  1  0  0  0  0
 13 14  1  0  0  0  0
 14 15  1  0  0  0  0
 16 13  1  0  0  0  0
 16 25  1  0  0  0  0
 17 16  2  0  0  0  0
 18 17  1  0  0  0  0
 19 17  1  0  0  0  0
 19 21  2  0  0  0  0
 20 19  1  0  0  0  0
 21 23  1  0  0  0  0
 22 21  1  0  0  0  0
 23 25  2  0  0  0  0
 23 24  1  0  0  0  0
 25 26  1  0  0  0  0
M  END
