3,5
q = -1.0, confidence = 0.002

 19 19  0  0  1  0  0  0  0  0999 V2000
   -1.6719   -0.6917   -1.8560 C   0  0  0  0  0  0  0  0  0  0  0  0
   -1.2025   -1.9009   -1.2412 C   0  0  0  0  0  0  0  0  0  0  0  0
   -2.3585   -2.6826   -0.9020 C   0  0  0  0  0  3  0  0  0  0  0  0
   -3.5350   -1.9893   -1.2988 C   0  0  1  0  0  3  0  0  0  0  0  0
   -3.1019   -0.7391   -1.8496 C   0  0  0  0  0  3  0  0  0  0  0  0
   -0.8367    0.3860   -2.4739 C   0  0  0  0  0  0  0  0  0  0  0  0
    0.2206   -2.3223   -1.0385 C   0  0  0  0  0  0  0  0  0  0  0  0
   -4.9433   -2.4871   -1.2149 C   0  0  0  0  0  0  0  0  0  0  0  0
   -2.3323   -3.6506   -0.3861 H   0  0  0  0  0  0  0  0  0  0  0  0
   -3.7643    0.0555   -2.2186 H   0  0  0  0  0  0  0  0  0  0  0  0
   -0.6632    0.1542   -3.5465 H   0  0  0  0  0  0  0  0  0  0  0  0
   -1.3329    1.3738   -2.4217 H   0  0  0  0  0  0  0  0  0  0  0  0
    0.1566    0.4776   -1.9978 H   0  0  0  0  0  0  0  0  0  0  0  0
    0.9086   -1.4638   -0.9230 H   0  0  0  0  0  0  0  0  0  0  0  0
    0.3213   -2.9560   -0.1374 H   0  0  0  0  0  0  0  0  0  0  0  0
    0.5769   -2.9084   -1.9123 H   0  0  0  0  0  0  0  0  0  0  0  0
   -5.0642   -3.2256   -0.3998 H   0  0  0  0  0  0  0  0  0  0  0  0
   -5.6522   -1.6577   -1.0318 H   0  0  0  0  0  0  0  0  0  0  0  0
   -5.2246   -2.9810   -2.1693 H   0  0  0  0  0  0  0  0  0  0  0  0
  1  5  1  0  0  0  0
  1  2  2  0  0  0  0
  2  7  1  0  0  0  0
  2  3  1  0  0  0  0
  3  9  1  0  0  0  0
  4  8  1  6  0  0  0
  4  3  1  0  0  0  0
  5  4  1  0  0  0  0
  6 12  1  0  0  0  0
  6 13  1  0  0  0  0
  6  1  1  0  0  0  0
  7 14  1  0  0  0  0
  7 15  1  0  0  0  0
  8 18  1  0  0  0  0
  8 17  1  0  0  0  0
 10  5  1  0  0  0  0
 11  6  1  0  0  0  0
 16  7  1  0  0  0  0
 19  8  1  0  0  0  0
M  END
