5,8
q = -1.0

 12 12  0  0  1  0  0  0  0  0999 V2000
   -2.8286    1.1218   -1.2859 O   0  0  0  0  0  0  0  0  0  0  0  0
   -2.8282   -1.0773   -1.3260 O   0  0  0  0  0  0  0  0  0  0  0  0
   -2.4832    0.0142   -0.8649 N   0  0  0  0  0  0  0  0  0  0  0  0
   -1.6071   -0.0066    0.2882 C   0  0  2  0  0  3  0  0  0  0  0  0
   -1.0805    1.1423    0.9615 C   0  0  0  0  0  3  0  0  0  0  0  0
   -0.3336    0.6717    2.1055 C   0  0  0  0  0  0  0  0  0  0  0  0
   -0.3325   -0.7498    2.0790 C   0  0  0  0  0  0  0  0  0  0  0  0
   -1.0794   -1.1788    0.9186 C   0  0  0  0  0  3  0  0  0  0  0  0
   -1.3014    2.1802    0.6892 H   0  0  0  0  0  0  0  0  0  0  0  0
    0.1574    1.3066    2.8523 H   0  0  0  0  0  0  0  0  0  0  0  0
    0.1594   -1.4112    2.8016 H   0  0  0  0  0  0  0  0  0  0  0  0
   -1.2988   -2.2062    0.6082 H   0  0  0  0  0  0  0  0  0  0  0  0
  1  3  2  0  0  0  0
  2  3  2  0  0  0  0
  4  3  1  6  0  0  0
  4  8  1  0  0  0  0
  4  5  1  0  0  0  0
  5  6  1  0  0  0  0
  6 10  1  0  0  0  0
  7  6  2  0  0  0  0
  7 11  1  0  0  0  0
  8  7  1  0  0  0  0
  9  5  1  0  0  0  0
 12  8  1  0  0  0  0
M  END
