23
q = -2.0, confidence = 0.584

 39 41  0  0  1  0  0  0  0  0999 V2000
    1.8506    2.3034   -0.0006 S   0  0  0  0  0  3  0  0  0  0  0  0
    0.2285    0.2671    1.2571 C   0  0  2  0  0  3  0  0  0  0  0  0
   -0.2540   -0.9923    1.7459 C   0  0  0  0  0  3  0  0  0  0  0  0
   -1.4629   -0.7847    2.4819 C   0  0  0  0  0  0  0  0  0  0  0  0
   -1.7583    0.5991    2.4483 C   0  0  0  0  0  0  0  0  0  0  0  0
   -0.7380    1.2441    1.6806 C   0  0  0  0  0  3  0  0  0  0  0  0
    2.9883    2.3988    1.4057 C   0  0  0  0  0  0  0  0  0  0  0  0
    2.5271   -0.5765    0.0001 C   0  0  0  0  0  0  0  0  0  0  0  0
    3.1350   -0.9981    1.2074 C   0  0  0  0  0  0  0  0  0  0  0  0
    4.2964   -1.7874    1.2135 C   0  0  0  0  0  0  0  0  0  0  0  0
    4.8837   -2.1817    0.0004 C   0  0  0  0  0  0  0  0  0  0  0  0
    1.2383    0.3707   -0.0001 B   0  0  2  0  0  0  0  0  0  0  0  0
    0.2158   -1.9656    1.5520 H   0  0  0  0  0  0  0  0  0  0  0  0
   -2.0734   -1.5659    2.9497 H   0  0  0  0  0  0  0  0  0  0  0  0
   -2.6373    1.0849    2.8873 H   0  0  0  0  0  0  0  0  0  0  0  0
   -0.7212    2.3148    1.4338 H   0  0  0  0  0  0  0  0  0  0  0  0
    2.3684    2.2531    2.3102 H   0  0  0  0  0  0  0  0  0  0  0  0
    3.4589    3.3990    1.4256 H   0  0  0  0  0  0  0  0  0  0  0  0
    3.7425    1.5914    1.3363 H   0  0  0  0  0  0  0  0  0  0  0  0
    2.6717   -0.7128    2.1661 H   0  0  0  0  0  0  0  0  0  0  0  0
    4.7420   -2.1045    2.1694 H   0  0  0  0  0  0  0  0  0  0  0  0
    5.7914   -2.8046    0.0006 H   0  0  0  0  0  0  0  0  0  0  0  0
    0.2285    0.2665   -1.2573 C   0  0  1  0  0  3  0  0  0  0  0  0
   -0.2540   -0.9931   -1.7455 C   0  0  0  0  0  3  0  0  0  0  0  0
   -1.4629   -0.7858   -2.4817 C   0  0  0  0  0  0  0  0  0  0  0  0
    0.2158   -1.9663   -1.5512 H   0  0  0  0  0  0  0  0  0  0  0  0
   -1.7583    0.5980   -2.4486 C   0  0  0  0  0  0  0  0  0  0  0  0
    2.9897    2.3976   -1.4058 C   0  0  0  0  0  0  0  0  0  0  0  0
    2.3707    2.2511   -2.3108 H   0  0  0  0  0  0  0  0  0  0  0  0
    3.4603    3.3978   -1.4260 H   0  0  0  0  0  0  0  0  0  0  0  0
    3.7439    1.5902   -1.3350 H   0  0  0  0  0  0  0  0  0  0  0  0
    3.1352   -0.9983   -1.2070 C   0  0  0  0  0  0  0  0  0  0  0  0
    4.2966   -1.7876   -1.2128 C   0  0  0  0  0  0  0  0  0  0  0  0
    4.7424   -2.1049   -2.1686 H   0  0  0  0  0  0  0  0  0  0  0  0
    2.6721   -0.7132   -2.1659 H   0  0  0  0  0  0  0  0  0  0  0  0
   -0.7380    1.2433   -1.6812 C   0  0  0  0  0  3  0  0  0  0  0  0
   -2.6373    1.0836   -2.8878 H   0  0  0  0  0  0  0  0  0  0  0  0
   -0.7212    2.3141   -1.4349 H   0  0  0  0  0  0  0  0  0  0  0  0
   -2.0734   -1.5672   -2.9491 H   0  0  0  0  0  0  0  0  0  0  0  0
  1  7  1  0  0  0  0
  2 12  1  6  0  0  0
  2  6  1  0  0  0  0
  2  3  1  0  0  0  0
  3  4  1  0  0  0  0
  4 14  1  0  0  0  0
  5  4  2  0  0  0  0
  5 15  1  0  0  0  0
  6  5  1  0  0  0  0
  7 18  1  0  0  0  0
  7 17  1  0  0  0  0
  8  9  1  0  0  0  0
  9 10  2  0  0  0  0
  9 20  1  0  0  0  0
 10 21  1  0  0  0  0
 11 22  1  0  0  0  0
 11 10  1  0  0  0  0
 12  1  1  6  0  0  0
 12  8  1  0  0  0  0
 13  3  1  0  0  0  0
 16  6  1  0  0  0  0
 19  7  1  0  0  0  0
 23 12  1  1  0  0  0
 24 26  1  0  0  0  0
 24 23  1  0  0  0  0
 25 27  2  0  0  0  0
 25 24  1  0  0  0  0
 27 36  1  0  0  0  0
 28 31  1  0  0  0  0
 28  1  1  0  0  0  0
 29 28  1  0  0  0  0
 30 28  1  0  0  0  0
 32  8  2  0  0  0  0
 33 32  1  0  0  0  0
 33 11  2  0  0  0  0
 34 33  1  0  0  0  0
 35 32  1  0  0  0  0
 36 38  1  0  0  0  0
 36 23  1  0  0  0  0
 37 27  1  0  0  0  0
 39 25  1  0  0  0  0
M  END
