16,24
q = -2.0, confidence = 0.788

 44 47  0  0  1  0  0  0  0  0999 V2000
   -2.3504    1.4750   -0.3469 C   0  0  0  0  0  0  0  0  0  0  0  0
   -3.4741    1.1879   -1.1483 C   0  0  0  0  0  0  0  0  0  0  0  0
   -4.6693    1.9045   -0.9978 C   0  0  0  0  0  0  0  0  0  0  0  0
   -4.7610    2.9263   -0.0399 C   0  0  0  0  0  0  0  0  0  0  0  0
   -3.6474    3.2258    0.7599 C   0  0  0  0  0  0  0  0  0  0  0  0
   -2.4522    2.5061    0.6072 C   0  0  0  0  0  0  0  0  0  0  0  0
   -1.1024    0.6169   -0.4880 C   0  0  2  0  0  0  0  0  0  0  0  0
   -1.1013   -0.6166    0.4838 C   0  0  1  0  0  0  0  0  0  0  0  0
   -2.3495   -1.4747    0.3452 C   0  0  0  0  0  0  0  0  0  0  0  0
   -3.4715   -1.1887    1.1494 C   0  0  0  0  0  0  0  0  0  0  0  0
   -4.6667   -1.9058    1.0009 C   0  0  0  0  0  0  0  0  0  0  0  0
   -4.7601   -2.9268    0.0423 C   0  0  0  0  0  0  0  0  0  0  0  0
   -3.6481   -3.2252   -0.7602 C   0  0  0  0  0  0  0  0  0  0  0  0
   -2.4529   -2.5050   -0.6096 C   0  0  0  0  0  0  0  0  0  0  0  0
    0.1983   -1.3643    0.2960 C   0  0  0  0  0  0  0  0  0  0  0  0
    0.8002   -1.7441   -0.9512 C   0  0  0  0  0  3  0  0  0  0  0  0
    2.0161   -2.4394   -0.6703 C   0  0  0  0  0  0  0  0  0  0  0  0
    2.2000   -2.4517    0.7342 C   0  0  0  0  0  0  0  0  0  0  0  0
    1.0867   -1.7816    1.3302 C   0  0  0  0  0  0  0  0  0  0  0  0
    0.1981    1.3642   -0.3046 C   0  0  0  0  0  0  0  0  0  0  0  0
    1.0875    1.7724   -1.3418 C   0  0  0  0  0  0  0  0  0  0  0  0
    2.2009    2.4466   -0.7507 C   0  0  0  0  0  0  0  0  0  0  0  0
    2.0173    2.4440    0.6537 C   0  0  0  0  0  0  0  0  0  0  0  0
    0.8006    1.7517    0.9396 C   0  0  0  0  0  3  0  0  0  0  0  0
   -3.4118    0.3777   -1.8916 H   0  0  0  0  0  0  0  0  0  0  0  0
   -5.5350    1.6614   -1.6324 H   0  0  0  0  0  0  0  0  0  0  0  0
   -5.6974    3.4920    0.0797 H   0  0  0  0  0  0  0  0  0  0  0  0
   -3.7058    4.0316    1.5075 H   0  0  0  0  0  0  0  0  0  0  0  0
   -1.5840    2.7609    1.2322 H   0  0  0  0  0  0  0  0  0  0  0  0
   -1.1099    0.2074   -1.5195 H   0  0  0  0  0  0  0  0  0  0  0  0
   -1.1060   -0.2074    1.5154 H   0  0  0  0  0  0  0  0  0  0  0  0
   -3.4079   -0.3791    1.8931 H   0  0  0  0  0  0  0  0  0  0  0  0
   -5.5312   -1.6636    1.6376 H   0  0  0  0  0  0  0  0  0  0  0  0
   -5.6965   -3.4928   -0.0756 H   0  0  0  0  0  0  0  0  0  0  0  0
   -3.7078   -4.0303   -1.5084 H   0  0  0  0  0  0  0  0  0  0  0  0
   -1.5859   -2.7588   -1.2368 H   0  0  0  0  0  0  0  0  0  0  0  0
    0.3983   -1.5500   -1.9537 H   0  0  0  0  0  0  0  0  0  0  0  0
    2.7114   -2.8385   -1.4168 H   0  0  0  0  0  0  0  0  0  0  0  0
    3.0637   -2.8606    1.2706 H   0  0  0  0  0  0  0  0  0  0  0  0
    0.9374   -1.6107    2.4037 H   0  0  0  0  0  0  0  0  0  0  0  0
    0.9377    1.5944   -2.4142 H   0  0  0  0  0  0  0  0  0  0  0  0
    3.0647    2.8512   -1.2901 H   0  0  0  0  0  0  0  0  0  0  0  0
    2.7130    2.8476    1.3975 H   0  0  0  0  0  0  0  0  0  0  0  0
    0.3993    1.5641    1.9436 H   0  0  0  0  0  0  0  0  0  0  0  0
  1  6  1  0  0  0  0
  2  3  1  0  0  0  0
  2  1  2  0  0  0  0
  3  4  2  0  0  0  0
  4 27  1  0  0  0  0
  4  5  1  0  0  0  0
  5 28  1  0  0  0  0
  6  5  2  0  0  0  0
  6 29  1  0  0  0  0
  7 30  1  6  0  0  0
  7  1  1  0  0  0  0
  7 20  1  0  0  0  0
  7  8  1  0  0  0  0
  8 31  1  1  0  0  0
  9  8  1  0  0  0  0
  9 10  1  0  0  0  0
 10 32  1  0  0  0  0
 11 10  2  0  0  0  0
 11 33  1  0  0  0  0
 12 11  1  0  0  0  0
 13 14  1  0  0  0  0
 13 12  2  0  0  0  0
 14  9  2  0  0  0  0
 15  8  1  0  0  0  0
 15 19  2  0  0  0  0
 16 17  1  0  0  0  0
 16 15  1  0  0  0  0
 17 18  2  0  0  0  0
 18 39  1  0  0  0  0
 18 19  1  0  0  0  0
 19 40  1  0  0  0  0
 20 24  1  0  0  0  0
 21 22  1  0  0  0  0
 21 20  2  0  0  0  0
 22 23  2  0  0  0  0
 23 24  1  0  0  0  0
 23 43  1  0  0  0  0
 24 44  1  0  0  0  0
 25  2  1  0  0  0  0
 26  3  1  0  0  0  0
 34 12  1  0  0  0  0
 35 13  1  0  0  0  0
 36 14  1  0  0  0  0
 37 16  1  0  0  0  0
 38 17  1  0  0  0  0
 41 21  1  0  0  0  0
 42 22  1  0  0  0  0
M  END
