3,35
q = -2.0, confidence = 0.892

 51 55  0  0  1  0  0  0  0  0999 V2000
    1.7677    1.1003    0.3708 C   0  0  1  0  0  3  0  0  0  0  0  0
    0.7174    1.6857   -0.4040 C   0  0  1  0  0  3  0  0  0  0  0  0
    0.9650    1.3396   -1.7802 C   0  0  0  0  0  3  0  0  0  0  0  0
    0.3936    1.6869   -2.6458 H   0  0  0  0  0  0  0  0  0  0  0  0
    2.1151    0.5102   -1.8314 C   0  0  0  0  0  0  0  0  0  0  0  0
    2.5393    0.0500   -2.7305 H   0  0  0  0  0  0  0  0  0  0  0  0
    2.6095    0.3496   -0.5055 C   0  0  0  0  0  0  0  0  0  0  0  0
    3.8074   -0.4067   -0.0138 C   0  0  0  0  0  0  0  0  0  0  0  0
    4.5818   -0.4550   -0.8062 H   0  0  0  0  0  0  0  0  0  0  0  0
    3.5111   -1.4574    0.1983 H   0  0  0  0  0  0  0  0  0  0  0  0
    4.3515    0.2573    1.2633 C   0  0  0  0  0  0  0  0  0  0  0  0
    5.1767   -0.3536    1.6832 H   0  0  0  0  0  0  0  0  0  0  0  0
    4.7911    1.2464    1.0035 H   0  0  0  0  0  0  0  0  0  0  0  0
    3.2480    0.4344    2.3161 C   0  0  0  0  0  0  0  0  0  0  0  0
    3.6683    0.8707    3.2453 H   0  0  0  0  0  0  0  0  0  0  0  0
    2.8488   -0.5654    2.5799 H   0  0  0  0  0  0  0  0  0  0  0  0
    2.0796    1.3121    1.8241 C   0  0  0  0  0  0  0  0  0  0  0  0
    1.1788    1.1337    2.4479 H   0  0  0  0  0  0  0  0  0  0  0  0
    2.3329    2.3902    1.9458 H   0  0  0  0  0  0  0  0  0  0  0  0
   -0.4996    2.4004    0.1112 C   0  0  1  0  0  0  0  0  0  0  0  0
   -0.6949    2.0313    1.1437 H   0  0  0  0  0  0  0  0  0  0  0  0
   -0.5789    3.9373    0.1340 C   0  0  0  0  0  0  0  0  0  0  0  0
   -0.1361    4.3379   -0.8014 H   0  0  0  0  0  0  0  0  0  0  0  0
   -0.0180    4.3852    0.9777 H   0  0  0  0  0  0  0  0  0  0  0  0
   -2.1094    4.2310    0.1946 C   0  0  0  0  0  0  0  0  0  0  0  0
   -2.4114    4.5977    1.1956 H   0  0  0  0  0  0  0  0  0  0  0  0
   -2.3831    5.0297   -0.5230 H   0  0  0  0  0  0  0  0  0  0  0  0
   -2.8362    2.8932   -0.1448 C   0  0  0  0  0  0  0  0  0  0  0  0
   -3.2309    2.4232    0.7777 H   0  0  0  0  0  0  0  0  0  0  0  0
   -3.6945    3.0280   -0.8315 H   0  0  0  0  0  0  0  0  0  0  0  0
   -1.7229    2.0216   -0.7489 C   0  0  2  0  0  0  0  0  0  0  0  0
   -1.5292    2.4185   -1.7703 H   0  0  0  0  0  0  0  0  0  0  0  0
   -2.0490   -0.4599    0.1280 C   0  0  0  0  0  0  0  0  0  0  0  0
   -1.8273    0.5252   -0.8854 C   0  0  0  0  0  0  0  0  0  0  0  0
   -1.5227   -0.1829   -2.0991 C   0  0  0  0  0  3  0  0  0  0  0  0
   -1.3366    0.2804   -3.0745 H   0  0  0  0  0  0  0  0  0  0  0  0
   -1.5756   -1.5792   -1.8396 C   0  0  0  0  0  0  0  0  0  0  0  0
   -1.3850   -2.3786   -2.5628 H   0  0  0  0  0  0  0  0  0  0  0  0
   -1.8876   -1.7586   -0.4670 C   0  0  0  0  0  0  0  0  0  0  0  0
   -2.1449   -3.0511    0.2543 C   0  0  0  0  0  0  0  0  0  0  0  0
   -1.2707   -3.7248    0.1349 H   0  0  0  0  0  0  0  0  0  0  0  0
   -2.9936   -3.5544   -0.2613 H   0  0  0  0  0  0  0  0  0  0  0  0
   -2.4784   -2.8475    1.7453 C   0  0  0  0  0  0  0  0  0  0  0  0
   -3.0395   -3.7271    2.1217 H   0  0  0  0  0  0  0  0  0  0  0  0
   -1.5329   -2.7965    2.3209 H   0  0  0  0  0  0  0  0  0  0  0  0
   -3.2758   -1.5611    1.9996 C   0  0  0  0  0  0  0  0  0  0  0  0
   -3.5289   -1.4783    3.0765 H   0  0  0  0  0  0  0  0  0  0  0  0
   -4.2427   -1.5993    1.4494 H   0  0  0  0  0  0  0  0  0  0  0  0
   -2.4924   -0.3104    1.5578 C   0  0  0  0  0  0  0  0  0  0  0  0
   -1.6042   -0.1871    2.2147 H   0  0  0  0  0  0  0  0  0  0  0  0
   -3.1121    0.6008    1.6755 H   0  0  0  0  0  0  0  0  0  0  0  0
  1  7  1  6  0  0  0
  1 17  1  0  0  0  0
  2  3  1  1  0  0  0
  2 20  1  0  0  0  0
  2  1  1  0  0  0  0
  4  3  1  0  0  0  0
  5  3  1  0  0  0  0
  5  7  2  0  0  0  0
  6  5  1  0  0  0  0
  7  8  1  0  0  0  0
  8 10  1  0  0  0  0
  8 11  1  0  0  0  0
  9  8  1  0  0  0  0
 11 12  1  0  0  0  0
 11 14  1  0  0  0  0
 13 11  1  0  0  0  0
 14 16  1  0  0  0  0
 14 15  1  0  0  0  0
 17 19  1  0  0  0  0
 17 14  1  0  0  0  0
 17 18  1  0  0  0  0
 20 22  1  0  0  0  0
 20 21  1  1  0  0  0
 22 25  1  0  0  0  0
 22 24  1  0  0  0  0
 23 22  1  0  0  0  0
 25 26  1  0  0  0  0
 27 25  1  0  0  0  0
 28 25  1  0  0  0  0
 28 29  1  0  0  0  0
 30 28  1  0  0  0  0
 31 32  1  6  0  0  0
 31 28  1  0  0  0  0
 31 20  1  0  0  0  0
 33 49  1  0  0  0  0
 34 31  1  0  0  0  0
 34 33  2  0  0  0  0
 35 37  1  0  0  0  0
 35 34  1  0  0  0  0
 36 35  1  0  0  0  0
 37 39  2  0  0  0  0
 38 37  1  0  0  0  0
 39 33  1  0  0  0  0
 39 40  1  0  0  0  0
 40 43  1  0  0  0  0
 41 40  1  0  0  0  0
 42 40  1  0  0  0  0
 43 46  1  0  0  0  0
 43 44  1  0  0  0  0
 43 45  1  0  0  0  0
 46 47  1  0  0  0  0
 48 46  1  0  0  0  0
 49 51  1  0  0  0  0
 49 46  1  0  0  0  0
 49 50  1  0  0  0  0
M  END
