4,14
q = -1.0

 33 34  0  0  0  0  0  0  0  0999 V2000
    4.4415    3.5587    0.0002 Si  0  0  0  0  0  0  0  0  0  0  0  0
    1.6856   -3.9690   -0.0002 N   0  0  0  0  0  0  0  0  0  0  0  0
    3.2110   -2.4151   -0.0001 N   0  0  0  0  0  0  0  0  0  0  0  0
    1.8445   -2.6119   -0.0001 C   0  0  0  0  0  2  0  0  0  0  0  0
    2.9279   -4.6021   -0.0002 C   0  0  0  0  0  0  0  0  0  0  0  0
    3.0211   -5.6920   -0.0002 H   0  0  0  0  0  0  0  0  0  0  0  0
    3.8890   -3.6210   -0.0001 C   0  0  0  0  0  0  0  0  0  0  0  0
    4.9800   -3.6912   -0.0000 H   0  0  0  0  0  0  0  0  0  0  0  0
    0.4037   -4.6564   -0.0004 C   0  0  0  0  0  0  0  0  0  0  0  0
   -0.3997   -3.8957   -0.0001 H   0  0  0  0  0  0  0  0  0  0  0  0
    0.3120   -5.2938    0.9018 H   0  0  0  0  0  0  0  0  0  0  0  0
    0.3119   -5.2931   -0.9030 H   0  0  0  0  0  0  0  0  0  0  0  0
    3.6288   -1.0606    0.0000 C   0  0  0  0  0  0  0  0  0  0  0  0
    2.5234   -0.1684    0.0000 C   0  0  0  0  0  3  0  0  0  0  0  0
    2.8151    1.2047    0.0001 C   0  0  0  0  0  0  0  0  0  0  0  0
    1.9679    1.9106    0.0001 H   0  0  0  0  0  0  0  0  0  0  0  0
    4.1488    1.6877    0.0002 C   0  0  0  0  0  0  0  0  0  0  0  0
    5.2082    0.7536    0.0002 C   0  0  0  0  0  0  0  0  0  0  0  0
    6.2529    1.1018    0.0003 H   0  0  0  0  0  0  0  0  0  0  0  0
    4.9584   -0.6303    0.0001 C   0  0  0  0  0  0  0  0  0  0  0  0
    5.7919   -1.3498    0.0001 H   0  0  0  0  0  0  0  0  0  0  0  0
    3.6356    4.3082    1.5431 C   0  0  0  0  0  0  0  0  0  0  0  0
    3.7415    5.4129    1.5577 H   0  0  0  0  0  0  0  0  0  0  0  0
    4.0972    3.9038    2.4670 H   0  0  0  0  0  0  0  0  0  0  0  0
    2.5531    4.0679    1.5763 H   0  0  0  0  0  0  0  0  0  0  0  0
    3.6374    4.3078   -1.5439 C   0  0  0  0  0  0  0  0  0  0  0  0
    3.7434    5.4124   -1.5587 H   0  0  0  0  0  0  0  0  0  0  0  0
    2.5550    4.0674   -1.5783 H   0  0  0  0  0  0  0  0  0  0  0  0
    4.1001    3.9031   -2.4671 H   0  0  0  0  0  0  0  0  0  0  0  0
    6.2994    3.9281    0.0012 C   0  0  0  0  0  0  0  0  0  0  0  0
    6.4775    5.0232    0.0014 H   0  0  0  0  0  0  0  0  0  0  0  0
    6.7971    3.5063   -0.8960 H   0  0  0  0  0  0  0  0  0  0  0  0
    6.7961    3.5062    0.8991 H   0  0  0  0  0  0  0  0  0  0  0  0
  1 17  1  0  0  0  0
  1 30  1  0  0  0  0
  1 22  1  0  0  0  0
  2  5  1  0  0  0  0
  2  4  1  0  0  0  0
  3 13  1  0  0  0  0
  4  3  1  0  0  0  0
  5  7  2  0  0  0  0
  6  5  1  0  0  0  0
  7  3  1  0  0  0  0
  7  8  1  0  0  0  0
  9  2  1  0  0  0  0
  9 10  1  0  0  0  0
  9 11  1  0  0  0  0
 12  9  1  0  0  0  0
 13 14  2  0  0  0  0
 13 20  1  0  0  0  0
 14 15  1  0  0  0  0
 15 17  2  0  0  0  0
 16 15  1  0  0  0  0
 17 18  1  0  0  0  0
 18 19  1  0  0  0  0
 20 21  1  0  0  0  0
 20 18  2  0  0  0  0
 22 23  1  0  0  0  0
 22 25  1  0  0  0  0
 22 24  1  0  0  0  0
 26  1  1  0  0  0  0
 27 26  1  0  0  0  0
 28 26  1  0  0  0  0
 29 26  1  0  0  0  0
 30 31  1  0  0  0  0
 30 33  1  0  0  0  0
 32 30  1  0  0  0  0
M  END
