4,12
q = -1.0

 24 26  0  0  0  0  0  0  0  0999 V2000
   -5.6384   -0.2273   -0.0004 Br  0  0  0  0  0  0  0  0  0  0  0  0
   -0.4427    2.9196    0.0001 N   0  0  0  0  0  0  0  0  0  0  0  0
    1.7312    2.8662    0.0002 N   0  0  0  0  0  0  0  0  0  0  0  0
    0.6278    2.0523    0.0001 C   0  0  0  0  0  2  0  0  0  0  0  0
    3.0610    2.4757    0.0003 C   0  0  0  0  0  0  0  0  0  0  0  0
    4.0352    3.4406    0.0003 C   0  0  0  0  0  0  0  0  0  0  0  0
    3.6887    4.8352    0.0003 C   0  0  0  0  0  0  0  0  0  0  0  0
    2.3657    5.2279    0.0003 C   0  0  0  0  0  0  0  0  0  0  0  0
    1.3420    4.2385    0.0002 C   0  0  0  0  0  0  0  0  0  0  0  0
   -0.0483    4.2431    0.0001 C   0  0  0  0  0  0  0  0  0  0  0  0
   -1.7110    2.2883   -0.0000 C   0  0  0  0  0  0  0  0  0  0  0  0
   -1.5988    0.8693   -0.0001 C   0  0  0  0  0  3  0  0  0  0  0  0
   -2.7926    0.1269   -0.0002 C   0  0  0  0  0  0  0  0  0  0  0  0
   -4.0278    0.7982   -0.0002 C   0  0  0  0  0  0  0  0  0  0  0  0
   -4.1196    2.2011   -0.0002 C   0  0  0  0  0  0  0  0  0  0  0  0
   -2.9380    2.9594   -0.0001 C   0  0  0  0  0  0  0  0  0  0  0  0
    3.2161    1.3858    0.0003 H   0  0  0  0  0  0  0  0  0  0  0  0
    5.0880    3.1273    0.0004 H   0  0  0  0  0  0  0  0  0  0  0  0
    4.4866    5.5914    0.0003 H   0  0  0  0  0  0  0  0  0  0  0  0
    2.0770    6.2882    0.0003 H   0  0  0  0  0  0  0  0  0  0  0  0
   -0.7511    5.0792    0.0001 H   0  0  0  0  0  0  0  0  0  0  0  0
   -2.7517   -0.9713   -0.0002 H   0  0  0  0  0  0  0  0  0  0  0  0
   -5.1011    2.6936   -0.0002 H   0  0  0  0  0  0  0  0  0  0  0  0
   -2.9910    4.0584   -0.0000 H   0  0  0  0  0  0  0  0  0  0  0  0
  1 14  1  0  0  0  0
  2  4  1  0  0  0  0
  2 10  1  0  0  0  0
  3  9  1  0  0  0  0
  3  5  1  0  0  0  0
  4  3  1  0  0  0  0
  5 17  1  0  0  0  0
  5  6  2  0  0  0  0
  6 18  1  0  0  0  0
  7  6  1  0  0  0  0
  7 19  1  0  0  0  0
  8 20  1  0  0  0  0
  8  7  2  0  0  0  0
  9  8  1  0  0  0  0
 10  9  2  0  0  0  0
 11  2  1  0  0  0  0
 12 11  2  0  0  0  0
 13 12  1  0  0  0  0
 14 13  2  0  0  0  0
 14 15  1  0  0  0  0
 15 16  2  0  0  0  0
 16 11  1  0  0  0  0
 16 24  1  0  0  0  0
 21 10  1  0  0  0  0
 22 13  1  0  0  0  0
 23 15  1  0  0  0  0
M  END
