2,15
q = -1.0, confidence = 0.016

 30 32  0  0  1  0  0  0  0  0999 V2000
    4.6959    0.7055    0.5279 O   0  0  0  0  0  0  0  0  0  0  0  0
    0.9415   -2.5036    0.7560 C   0  0  0  0  0  3  0  0  0  0  0  0
   -0.0879   -2.5767    1.1400 H   0  0  0  0  0  0  0  0  0  0  0  0
    1.2989   -2.6290   -0.5803 C   0  0  0  0  0  3  0  0  0  0  0  0
    0.5723   -2.7399   -1.4007 H   0  0  0  0  0  0  0  0  0  0  0  0
    2.7573   -2.9986   -0.7391 C   0  0  0  0  0  0  0  0  0  0  0  0
    3.2822   -2.3901   -1.5048 H   0  0  0  0  0  0  0  0  0  0  0  0
    2.8111   -4.0466   -1.1081 H   0  0  0  0  0  0  0  0  0  0  0  0
    3.3664   -2.8747    0.6846 C   0  0  2  0  0  0  0  0  0  0  0  0
    3.8648   -3.8211    0.9717 H   0  0  0  0  0  0  0  0  0  0  0  0
    2.1570   -2.5709    1.6523 C   0  0  1  0  0  0  0  0  0  0  0  0
    2.0400   -3.3410    2.4433 H   0  0  0  0  0  0  0  0  0  0  0  0
    2.5582   -1.2041    2.2496 C   0  0  2  0  0  0  0  0  0  0  0  0
    1.9688   -0.9052    3.1373 H   0  0  0  0  0  0  0  0  0  0  0  0
    2.4979   -0.1695    1.0826 C   0  0  0  0  0  3  0  0  0  0  0  0
    2.5108    0.8586    1.4952 H   0  0  0  0  0  0  0  0  0  0  0  0
    3.8207   -0.4122    0.3113 C   0  0  2  0  0  0  0  0  0  0  0  0
    3.6794   -0.5262   -0.7878 H   0  0  0  0  0  0  0  0  0  0  0  0
    4.3520   -1.7053    0.9657 C   0  0  1  0  0  0  0  0  0  0  0  0
    5.3990   -1.9447    0.6943 H   0  0  0  0  0  0  0  0  0  0  0  0
    4.0770   -1.3960    2.4528 C   0  0  0  0  0  0  0  0  0  0  0  0
    4.5961   -0.4776    2.7898 H   0  0  0  0  0  0  0  0  0  0  0  0
    4.3292   -2.2355    3.1332 H   0  0  0  0  0  0  0  0  0  0  0  0
    5.8476    0.7129   -0.2984 C   0  0  0  0  0  0  0  0  0  0  0  0
    5.5469    0.7069   -1.3772 H   0  0  0  0  0  0  0  0  0  0  0  0
    6.4580   -0.2086   -0.1393 H   0  0  0  0  0  0  0  0  0  0  0  0
    6.6757    1.9438    0.0251 C   0  0  0  0  0  0  0  0  0  0  0  0
    6.0977    2.8715   -0.1605 H   0  0  0  0  0  0  0  0  0  0  0  0
    7.5916    1.9744   -0.5977 H   0  0  0  0  0  0  0  0  0  0  0  0
    6.9767    1.9399    1.0914 H   0  0  0  0  0  0  0  0  0  0  0  0
  2  3  1  0  0  0  0
  2 11  1  0  0  0  0
  4  2  1  0  0  0  0
  5  4  1  0  0  0  0
  6  4  1  0  0  0  0
  6  9  1  0  0  0  0
  7  6  1  0  0  0  0
  8  6  1  0  0  0  0
  9 19  1  0  0  0  0
  9 10  1  1  0  0  0
  9 11  1  0  0  0  0
 11 13  1  0  0  0  0
 11 12  1  1  0  0  0
 13 21  1  0  0  0  0
 13 14  1  1  0  0  0
 15 16  1  0  0  0  0
 15 13  1  0  0  0  0
 17 18  1  6  0  0  0
 17  1  1  0  0  0  0
 17 19  1  0  0  0  0
 17 15  1  0  0  0  0
 19 20  1  6  0  0  0
 19 21  1  0  0  0  0
 21 22  1  0  0  0  0
 21 23  1  0  0  0  0
 24 26  1  0  0  0  0
 24 27  1  0  0  0  0
 24  1  1  0  0  0  0
 25 24  1  0  0  0  0
 27 30  1  0  0  0  0
 28 27  1  0  0  0  0
 29 27  1  0  0  0  0
M  END
