2,10
q = -1.0

 20 21  0  0  1  0  0  0  0  0999 V2000
    1.7064    3.8498   -0.8263 O   0  0  0  0  0  0  0  0  0  0  0  0
    2.5030    0.7066    1.3465 C   0  0  0  0  0  3  0  0  0  0  0  0
    2.7791   -0.2142    1.8888 H   0  0  0  0  0  0  0  0  0  0  0  0
    3.5937    1.2699    0.4059 C   0  0  0  0  0  0  0  0  0  0  0  0
    4.6187    0.9621    0.7127 H   0  0  0  0  0  0  0  0  0  0  0  0
    3.4753    0.9808   -0.6544 H   0  0  0  0  0  0  0  0  0  0  0  0
    3.4130    2.8029    0.6072 C   0  0  1  0  0  0  0  0  0  0  0  0
    4.1465    3.4386    0.0781 H   0  0  0  0  0  0  0  0  0  0  0  0
    1.9647    3.1429    0.2681 C   0  0  1  0  0  3  0  0  0  0  0  0
    1.1304    2.6511    1.2743 C   0  0  0  0  0  3  0  0  0  0  0  0
    0.0952    2.9502    1.4910 H   0  0  0  0  0  0  0  0  0  0  0  0
    2.1176    1.9399    2.2349 C   0  0  2  0  0  0  0  0  0  0  0  0
    1.7111    1.7019    3.2336 H   0  0  0  0  0  0  0  0  0  0  0  0
    3.3480    2.8689    2.1538 C   0  0  0  0  0  0  0  0  0  0  0  0
    3.1335    3.8855    2.5441 H   0  0  0  0  0  0  0  0  0  0  0  0
    4.2614    2.4648    2.6373 H   0  0  0  0  0  0  0  0  0  0  0  0
    0.3190    4.0809   -1.1179 C   0  0  0  0  0  0  0  0  0  0  0  0
   -0.2228    3.1133   -1.1798 H   0  0  0  0  0  0  0  0  0  0  0  0
    0.2863    4.6123   -2.0853 H   0  0  0  0  0  0  0  0  0  0  0  0
   -0.1448    4.7098   -0.3292 H   0  0  0  0  0  0  0  0  0  0  0  0
  2  3  1  0  0  0  0
  2 12  1  0  0  0  0
  4  7  1  0  0  0  0
  4  5  1  0  0  0  0
  4  2  1  0  0  0  0
  6  4  1  0  0  0  0
  7  8  1  6  0  0  0
  7 14  1  0  0  0  0
  9  1  1  1  0  0  0
  9  7  1  0  0  0  0
  9 10  1  0  0  0  0
 10 11  1  0  0  0  0
 10 12  1  0  0  0  0
 12 13  1  1  0  0  0
 14 12  1  0  0  0  0
 14 15  1  0  0  0  0
 14 16  1  0  0  0  0
 17  1  1  0  0  0  0
 17 20  1  0  0  0  0
 18 17  1  0  0  0  0
 19 17  1  0  0  0  0
M  END
