2,16
q = 0.0, confidence = 0.978

 28 30  0  0  0  0  0  0  0  0999 V2000
    0.7397   -0.6927   -1.4215 C   0  0  0  0  0  3  0  0  0  0  0  0
    0.0157    0.5386   -1.4115 C   0  0  0  0  0  3  0  0  0  0  0  0
    2.0412   -0.8581   -0.7067 C   0  0  0  0  0  0  0  0  0  0  0  0
    0.5105    1.7617   -0.7063 C   0  0  0  0  0  0  0  0  0  0  0  0
    3.2511   -1.0306   -1.4020 C   0  0  0  0  0  0  0  0  0  0  0  0
    4.4559   -1.1999   -0.7017 C   0  0  0  0  0  0  0  0  0  0  0  0
    0.9352    2.9064   -1.4026 C   0  0  0  0  0  0  0  0  0  0  0  0
    1.3548    4.0497   -0.7014 C   0  0  0  0  0  0  0  0  0  0  0  0
    0.5960   -1.3424   -2.3018 H   0  0  0  0  0  0  0  0  0  0  0  0
   -0.6132    0.7330   -2.2977 H   0  0  0  0  0  0  0  0  0  0  0  0
    3.2447   -1.0441   -2.5032 H   0  0  0  0  0  0  0  0  0  0  0  0
    5.3964   -1.3444   -1.2547 H   0  0  0  0  0  0  0  0  0  0  0  0
    0.9216    2.9062   -2.5040 H   0  0  0  0  0  0  0  0  0  0  0  0
    1.6716    4.9470   -1.2544 H   0  0  0  0  0  0  0  0  0  0  0  0
    0.7397   -0.6927    1.4215 C   0  0  0  0  0  3  0  0  0  0  0  0
    0.0157    0.5386    1.4115 C   0  0  0  0  0  3  0  0  0  0  0  0
    2.0412   -0.8581    0.7067 C   0  0  0  0  0  0  0  0  0  0  0  0
    0.5105    1.7617    0.7063 C   0  0  0  0  0  0  0  0  0  0  0  0
    3.2511   -1.0306    1.4021 C   0  0  0  0  0  0  0  0  0  0  0  0
    4.4559   -1.1999    0.7017 C   0  0  0  0  0  0  0  0  0  0  0  0
    0.9352    2.9064    1.4026 C   0  0  0  0  0  0  0  0  0  0  0  0
    1.3548    4.0497    0.7014 C   0  0  0  0  0  0  0  0  0  0  0  0
    0.5960   -1.3423    2.3018 H   0  0  0  0  0  0  0  0  0  0  0  0
   -0.6132    0.7330    2.2977 H   0  0  0  0  0  0  0  0  0  0  0  0
    3.2447   -1.0440    2.5033 H   0  0  0  0  0  0  0  0  0  0  0  0
    5.3964   -1.3444    1.2547 H   0  0  0  0  0  0  0  0  0  0  0  0
    0.9216    2.9062    2.5040 H   0  0  0  0  0  0  0  0  0  0  0  0
    1.6716    4.9471    1.2544 H   0  0  0  0  0  0  0  0  0  0  0  0
  1  2  1  0  0  0  0
  1  3  1  0  0  0  0
  2  4  1  0  0  0  0
  3 17  1  0  0  0  0
  4 18  1  0  0  0  0
  5  3  2  0  0  0  0
  5  6  1  0  0  0  0
  6 20  2  0  0  0  0
  7  4  2  0  0  0  0
  7  8  1  0  0  0  0
  8 22  2  0  0  0  0
  9  1  1  0  0  0  0
 10  2  1  0  0  0  0
 11  5  1  0  0  0  0
 12  6  1  0  0  0  0
 13  7  1  0  0  0  0
 14  8  1  0  0  0  0
 15 23  1  0  0  0  0
 16 15  1  0  0  0  0
 16 24  1  0  0  0  0
 17 19  2  0  0  0  0
 17 15  1  0  0  0  0
 18 21  2  0  0  0  0
 18 16  1  0  0  0  0
 19 25  1  0  0  0  0
 20 26  1  0  0  0  0
 20 19  1  0  0  0  0
 21 27  1  0  0  0  0
 22 28  1  0  0  0  0
 22 21  1  0  0  0  0
M  END
