1,24
q = 0.0, confidence = 0.996

 31 32  0  0  0  0  0  0  0  0999 V2000
   -1.4056   -0.0913    0.0731 C   0  0  0  0  0  2  0  0  0  0  0  0
    4.0421   -2.1445    2.0915 Cl  0  0  0  0  0  0  0  0  0  0  0  0
   -2.1284    0.4219    2.3968 C   0  0  0  0  0  0  0  0  0  0  0  0
   -2.0810    1.4871    2.0927 H   0  0  0  0  0  0  0  0  0  0  0  0
   -1.2465    0.1670    3.0176 H   0  0  0  0  0  0  0  0  0  0  0  0
   -3.0505    0.2252    2.9721 H   0  0  0  0  0  0  0  0  0  0  0  0
   -3.4035   -3.1850   -1.2293 Cl  0  0  0  0  0  0  0  0  0  0  0  0
   -4.0421   -2.1446    2.0915 Cl  0  0  0  0  0  0  0  0  0  0  0  0
    3.4035   -3.1851   -1.2292 Cl  0  0  0  0  0  0  0  0  0  0  0  0
   -1.7584   -1.0224   -0.8656 N   0  0  0  0  0  0  0  0  0  0  0  0
    2.7177   -1.8938   -0.3482 C   0  0  0  0  0  0  0  0  0  0  0  0
    2.9650   -1.4872    0.9439 C   0  0  0  0  0  0  0  0  0  0  0  0
   -1.3060   -0.9989   -2.2559 C   0  0  0  0  0  0  0  0  0  0  0  0
   -1.2182    0.0702   -2.5365 H   0  0  0  0  0  0  0  0  0  0  0  0
   -2.1243   -1.4422   -2.8551 H   0  0  0  0  0  0  0  0  0  0  0  0
   -0.0001   -1.7491   -2.5520 C   0  0  0  0  0  0  0  0  0  0  0  0
   -0.0002   -2.7438   -2.0587 H   0  0  0  0  0  0  0  0  0  0  0  0
   -0.0001   -1.9517   -3.6435 H   0  0  0  0  0  0  0  0  0  0  0  0
   -2.9650   -1.4873    0.9439 C   0  0  0  0  0  0  0  0  0  0  0  0
   -2.7177   -1.8937   -0.3482 C   0  0  0  0  0  0  0  0  0  0  0  0
    2.1498   -0.3811    1.1814 N   0  0  0  0  0  0  0  0  0  0  0  0
    1.7583   -1.0225   -0.8656 N   0  0  0  0  0  0  0  0  0  0  0  0
   -2.1498   -0.3812    1.1815 N   0  0  0  0  0  0  0  0  0  0  0  0
    1.4055   -0.0914    0.0731 C   0  0  0  0  0  2  0  0  0  0  0  0
    1.3060   -0.9991   -2.2559 C   0  0  0  0  0  0  0  0  0  0  0  0
    2.1242   -1.4426   -2.8550 H   0  0  0  0  0  0  0  0  0  0  0  0
    1.2184    0.0699   -2.5367 H   0  0  0  0  0  0  0  0  0  0  0  0
    2.1285    0.4221    2.3967 C   0  0  0  0  0  0  0  0  0  0  0  0
    2.0799    1.4872    2.0925 H   0  0  0  0  0  0  0  0  0  0  0  0
    3.0514    0.2264    2.9712 H   0  0  0  0  0  0  0  0  0  0  0  0
    1.2475    0.1662    3.0183 H   0  0  0  0  0  0  0  0  0  0  0  0
  1 23  1  0  0  0  0
  3  6  1  0  0  0  0
  3  5  1  0  0  0  0
  4  3  1  0  0  0  0
  7 20  1  0  0  0  0
  9 11  1  0  0  0  0
 10 20  1  0  0  0  0
 10  1  1  0  0  0  0
 11 12  2  0  0  0  0
 12 21  1  0  0  0  0
 12  2  1  0  0  0  0
 13 10  1  0  0  0  0
 14 13  1  0  0  0  0
 15 13  1  0  0  0  0
 16 25  1  0  0  0  0
 16 13  1  0  0  0  0
 16 17  1  0  0  0  0
 18 16  1  0  0  0  0
 19 23  1  0  0  0  0
 19  8  1  0  0  0  0
 20 19  2  0  0  0  0
 21 28  1  0  0  0  0
 22 11  1  0  0  0  0
 22 24  1  0  0  0  0
 23  3  1  0  0  0  0
 24 21  1  0  0  0  0
 25 22  1  0  0  0  0
 26 25  1  0  0  0  0
 27 25  1  0  0  0  0
 28 30  1  0  0  0  0
 28 31  1  0  0  0  0
 29 28  1  0  0  0  0
M  END
