8,15
q = 0.0, confidence = 0.996

 25 26  0  0  0  0  0  0  0  0999 V2000
   -2.2803    3.7575   -1.0804 Cl  0  0  0  0  0  0  0  0  0  0  0  0
    2.2840    3.7553   -1.0803 Cl  0  0  0  0  0  0  0  0  0  0  0  0
   -4.4285    2.2013    1.2784 Cl  0  0  0  0  0  0  0  0  0  0  0  0
    4.4303    2.1974    1.2789 Cl  0  0  0  0  0  0  0  0  0  0  0  0
    2.1806    2.2119   -0.3619 C   0  0  0  0  0  0  0  0  0  0  0  0
    2.4933    0.3251    0.7950 N   0  0  0  0  0  0  0  0  0  0  0  0
   -1.1858    1.2819   -0.6572 N   0  0  0  0  0  0  0  0  0  0  0  0
    1.3647    0.1178    0.0559 C   0  0  0  0  0  2  0  0  0  0  0  0
   -2.4931    0.3275    0.7948 N   0  0  0  0  0  0  0  0  0  0  0  0
    1.1872    1.2808   -0.6572 N   0  0  0  0  0  0  0  0  0  0  0  0
   -3.0468   -0.6102    1.7652 C   0  0  0  0  0  0  0  0  0  0  0  0
   -2.6837   -1.6212    1.4908 H   0  0  0  0  0  0  0  0  0  0  0  0
   -4.1501   -0.5836    1.7067 H   0  0  0  0  0  0  0  0  0  0  0  0
   -2.7245   -0.3334    2.7888 H   0  0  0  0  0  0  0  0  0  0  0  0
   -1.3645    0.1191    0.0560 C   0  0  0  0  0  2  0  0  0  0  0  0
    3.0114    1.5994    0.5492 C   0  0  0  0  0  0  0  0  0  0  0  0
   -3.0100    1.6022    0.5489 C   0  0  0  0  0  0  0  0  0  0  0  0
    3.0457   -0.6132    1.7656 C   0  0  0  0  0  0  0  0  0  0  0  0
    2.7193   -0.3390    2.7886 H   0  0  0  0  0  0  0  0  0  0  0  0
    4.1491   -0.5841    1.7108 H   0  0  0  0  0  0  0  0  0  0  0  0
    2.6852   -1.6244    1.4883 H   0  0  0  0  0  0  0  0  0  0  0  0
   -2.1785    2.2139   -0.3621 C   0  0  0  0  0  0  0  0  0  0  0  0
    0.0008    1.4804   -1.4724 C   0  0  0  0  0  0  0  0  0  0  0  0
    0.0013    2.5086   -1.8772 H   0  0  0  0  0  0  0  0  0  0  0  0
    0.0004    0.7385   -2.2946 H   0  0  0  0  0  0  0  0  0  0  0  0
  1 22  1  0  0  0  0
  2  5  1  0  0  0  0
  5 16  2  0  0  0  0
  6 18  1  0  0  0  0
  7 22  1  0  0  0  0
  7 15  1  0  0  0  0
  8  6  1  0  0  0  0
  9 11  1  0  0  0  0
 10  5  1  0  0  0  0
 10  8  1  0  0  0  0
 11 14  1  0  0  0  0
 12 11  1  0  0  0  0
 13 11  1  0  0  0  0
 15  9  1  0  0  0  0
 16  6  1  0  0  0  0
 16  4  1  0  0  0  0
 17  9  1  0  0  0  0
 17  3  1  0  0  0  0
 18 19  1  0  0  0  0
 20 18  1  0  0  0  0
 21 18  1  0  0  0  0
 22 17  2  0  0  0  0
 23 10  1  0  0  0  0
 23  7  1  0  0  0  0
 24 23  1  0  0  0  0
 25 23  1  0  0  0  0
M  END
