7,11
q = -2.0, confidence = 0.652

 21 20  0  0  1  0  0  0  0  0999 V2000
    2.8613    1.2190   -1.1531 O   0  0  0  0  0  0  0  0  0  0  0  0
   -2.1259    0.9895    0.9661 O   0  0  0  0  0  0  0  0  0  0  0  0
   -1.0421   -0.1094    2.5665 O   0  0  0  0  0  0  0  0  0  0  0  0
    2.9219    1.9913    1.1264 C   0  0  0  0  0  0  0  0  0  0  0  0
    2.2408    1.5050   -0.1343 C   0  0  0  0  0  0  0  0  0  0  0  0
    0.7459    1.3721   -0.0642 C   0  0  0  0  0  3  0  0  0  0  0  0
    0.0545    1.0521   -1.2664 C   0  0  0  0  0  3  0  0  0  0  0  0
   -1.2773    0.5499   -1.2942 C   0  0  0  0  0  3  0  0  0  0  0  0
   -2.4332    1.0198   -0.4326 C   0  0  2  0  0  0  0  0  0  0  0  0
   -2.8857    2.4362   -0.7799 C   0  0  0  0  0  0  0  0  0  0  0  0
   -1.1794    0.0898    1.3840 C   0  0  0  0  0  3  0  0  0  0  0  0
    2.6664    1.3263    1.9779 H   0  0  0  0  0  0  0  0  0  0  0  0
    2.5550    3.0038    1.3965 H   0  0  0  0  0  0  0  0  0  0  0  0
    4.0164    2.0155    0.9815 H   0  0  0  0  0  0  0  0  0  0  0  0
    0.2429    1.8619    0.7812 H   0  0  0  0  0  0  0  0  0  0  0  0
    0.6819    0.9857   -2.1720 H   0  0  0  0  0  0  0  0  0  0  0  0
   -1.6085    0.1684   -2.2754 H   0  0  0  0  0  0  0  0  0  0  0  0
   -3.2814    0.3173   -0.5998 H   0  0  0  0  0  0  0  0  0  0  0  0
   -3.2029    2.4908   -1.8396 H   0  0  0  0  0  0  0  0  0  0  0  0
   -2.0570    3.1545   -0.6227 H   0  0  0  0  0  0  0  0  0  0  0  0
   -3.7402    2.7330   -0.1415 H   0  0  0  0  0  0  0  0  0  0  0  0
  1  5  2  0  0  0  0
  2 11  1  0  0  0  0
  4 13  1  0  0  0  0
  4 12  1  0  0  0  0
  5  6  1  0  0  0  0
  5  4  1  0  0  0  0
  6 15  1  0  0  0  0
  7  6  1  0  0  0  0
  8  7  1  0  0  0  0
  8  9  1  0  0  0  0
  9 18  1  6  0  0  0
  9  2  1  0  0  0  0
 10 20  1  0  0  0  0
 10  9  1  0  0  0  0
 10 21  1  0  0  0  0
 11  3  2  0  0  0  0
 14  4  1  0  0  0  0
 16  7  1  0  0  0  0
 17  8  1  0  0  0  0
 19 10  1  0  0  0  0
M  END
