5,9
q = 0.0, confidence = 1.0

 26 28  0  0  0  0  0  0  0  0999 V2000
    1.4438    1.2655    0.5536 N   0  0  0  0  0  0  0  0  0  0  0  0
    0.2532    0.7319    1.0510 C   0  0  0  0  0  0  0  0  0  0  0  0
   -0.9334    1.4094    1.4489 C   0  0  0  0  0  3  0  0  0  0  0  0
   -1.0353    2.4983    1.3745 H   0  0  0  0  0  0  0  0  0  0  0  0
   -2.0093    0.6106    1.9345 C   0  0  0  0  0  3  0  0  0  0  0  0
   -2.9395    1.1064    2.2452 H   0  0  0  0  0  0  0  0  0  0  0  0
   -1.9267   -0.8132    1.9884 C   0  0  0  0  0  3  0  0  0  0  0  0
   -2.7930   -1.3969    2.3257 H   0  0  0  0  0  0  0  0  0  0  0  0
   -0.7809   -1.4753    1.4662 C   0  0  0  0  0  3  0  0  0  0  0  0
   -0.7461   -2.5726    1.4224 H   0  0  0  0  0  0  0  0  0  0  0  0
    0.3400   -0.7040    1.0379 C   0  0  0  0  0  0  0  0  0  0  0  0
    1.6455   -1.0352    0.4963 C   0  0  0  0  0  0  0  0  0  0  0  0
    2.3044   -2.2543    0.2714 C   0  0  0  0  0  0  0  0  0  0  0  0
    1.8001   -3.2077    0.4875 H   0  0  0  0  0  0  0  0  0  0  0  0
    3.6117   -2.2318   -0.2328 C   0  0  0  0  0  0  0  0  0  0  0  0
    4.1407   -3.1770   -0.4230 H   0  0  0  0  0  0  0  0  0  0  0  0
    4.2575   -1.0059   -0.4933 C   0  0  0  0  0  0  0  0  0  0  0  0
    5.2892   -1.0075   -0.8755 H   0  0  0  0  0  0  0  0  0  0  0  0
    3.6164    0.2243   -0.2775 C   0  0  0  0  0  0  0  0  0  0  0  0
    4.1395    1.1686   -0.4716 H   0  0  0  0  0  0  0  0  0  0  0  0
    2.3015    0.1998    0.2109 C   0  0  0  0  0  0  0  0  0  0  0  0
    1.6394    2.6429    0.3683 C   0  0  0  0  0  0  0  0  0  0  0  0
    1.1065    3.2558    1.1133 H   0  0  0  0  0  0  0  0  0  0  0  0
    2.3847    3.2254   -0.5901 C   0  0  0  0  0  0  0  0  0  0  0  0
    2.8814    2.6554   -1.3861 H   0  0  0  0  0  0  0  0  0  0  0  0
    2.4799    4.3194   -0.6026 H   0  0  0  0  0  0  0  0  0  0  0  0
  1  2  1  0  0  0  0
  2  3  1  0  0  0  0
  3  5  1  0  0  0  0
  4  3  1  0  0  0  0
  5  7  1  0  0  0  0
  5  6  1  0  0  0  0
  7  8  1  0  0  0  0
  9  7  1  0  0  0  0
 10  9  1  0  0  0  0
 11  2  2  0  0  0  0
 11  9  1  0  0  0  0
 12 11  1  0  0  0  0
 13 14  1  0  0  0  0
 13 12  1  0  0  0  0
 15 13  2  0  0  0  0
 16 15  1  0  0  0  0
 17 19  2  0  0  0  0
 17 15  1  0  0  0  0
 18 17  1  0  0  0  0
 19 21  1  0  0  0  0
 20 19  1  0  0  0  0
 21 12  2  0  0  0  0
 21  1  1  0  0  0  0
 22  1  1  0  0  0  0
 22 23  1  0  0  0  0
 24 22  2  0  0  0  0
 25 24  1  0  0  0  0
 26 24  1  0  0  0  0
M  END
