3,18
q = -1.0, confidence = 0.022

 21 22  0  0  0  0  0  0  0  0999 V2000
    5.6603    0.4628    0.1450 O   0  0  0  0  0  0  0  0  0  0  0  0
    4.7803   -1.6543    0.4602 O   0  0  0  0  0  0  0  0  0  0  0  0
   -0.4876    1.6059    1.3097 C   0  0  0  0  0  3  0  0  0  0  0  0
    0.3653    1.5276    2.0052 H   0  0  0  0  0  0  0  0  0  0  0  0
   -1.4761    1.6991    1.7911 H   0  0  0  0  0  0  0  0  0  0  0  0
   -0.2886    2.1118   -0.0054 C   0  0  0  0  0  3  0  0  0  0  0  0
   -1.1446    2.5835   -0.5199 H   0  0  0  0  0  0  0  0  0  0  0  0
    1.0890    2.5020   -0.5162 C   0  0  0  0  0  0  0  0  0  0  0  0
    1.0264    2.6820   -1.6124 H   0  0  0  0  0  0  0  0  0  0  0  0
    1.4021    3.4702   -0.0633 H   0  0  0  0  0  0  0  0  0  0  0  0
    2.0794    1.3980   -0.2258 C   0  0  0  0  0  0  0  0  0  0  0  0
    3.4777    1.6225   -0.1958 C   0  0  0  0  0  0  0  0  0  0  0  0
    3.9079    2.6244   -0.3388 H   0  0  0  0  0  0  0  0  0  0  0  0
    4.2896    0.5163    0.0256 C   0  0  0  0  0  0  0  0  0  0  0  0
    3.7530   -0.7678    0.2173 C   0  0  0  0  0  0  0  0  0  0  0  0
    2.3839   -1.0115    0.1981 C   0  0  0  0  0  0  0  0  0  0  0  0
    1.9788   -2.0229    0.3341 H   0  0  0  0  0  0  0  0  0  0  0  0
    1.5376    0.1016   -0.0354 C   0  0  0  0  0  3  0  0  0  0  0  0
    5.9742   -0.9328    0.1575 C   0  0  0  0  0  0  0  0  0  0  0  0
    6.3532   -1.2388   -0.8514 H   0  0  0  0  0  0  0  0  0  0  0  0
    6.7409   -1.1351    0.9348 H   0  0  0  0  0  0  0  0  0  0  0  0
  1 19  1  0  0  0  0
  3  5  1  0  0  0  0
  3  4  1  0  0  0  0
  6  3  1  0  0  0  0
  7  6  1  0  0  0  0
  8 11  1  0  0  0  0
  8 10  1  0  0  0  0
  8  6  1  0  0  0  0
  9  8  1  0  0  0  0
 11 12  2  0  0  0  0
 11 18  1  0  0  0  0
 12 14  1  0  0  0  0
 13 12  1  0  0  0  0
 14  1  1  0  0  0  0
 14 15  2  0  0  0  0
 15  2  1  0  0  0  0
 16 15  1  0  0  0  0
 16 17  1  0  0  0  0
 18 16  2  0  0  0  0
 19  2  1  0  0  0  0
 19 21  1  0  0  0  0
 20 19  1  0  0  0  0
M  END
