5,9
q = 0.0, confidence = 0.98

 23 25  0  0  0  0  0  0  0  0999 V2000
   -2.4006   -1.3986   -1.0627 N   0  0  0  0  0  0  0  0  0  0  0  0
   -1.3194   -0.7424   -1.5629 C   0  0  0  0  0  0  0  0  0  0  0  0
   -0.1755   -1.4971   -2.0123 C   0  0  0  0  0  3  0  0  0  0  0  0
   -0.2241   -2.5925   -1.9601 H   0  0  0  0  0  0  0  0  0  0  0  0
    0.9565   -0.8373   -2.5643 C   0  0  0  0  0  3  0  0  0  0  0  0
    1.7894   -1.4431   -2.9535 H   0  0  0  0  0  0  0  0  0  0  0  0
    1.0159    0.5931   -2.6611 C   0  0  0  0  0  3  0  0  0  0  0  0
    1.8891    1.0911   -3.1042 H   0  0  0  0  0  0  0  0  0  0  0  0
   -0.0472    1.3652   -2.1126 C   0  0  0  0  0  3  0  0  0  0  0  0
   -0.0130    2.4649   -2.1675 H   0  0  0  0  0  0  0  0  0  0  0  0
   -1.2667    0.7279   -1.6493 C   0  0  0  0  0  0  0  0  0  0  0  0
   -2.3550    1.4362   -1.1097 C   0  0  0  0  0  0  0  0  0  0  0  0
   -2.3549    2.5374   -1.1442 H   0  0  0  0  0  0  0  0  0  0  0  0
   -3.4684    0.7624   -0.5631 C   0  0  0  0  0  0  0  0  0  0  0  0
   -4.5925    1.4386   -0.0024 C   0  0  0  0  0  0  0  0  0  0  0  0
   -4.5966    2.5407   -0.0002 H   0  0  0  0  0  0  0  0  0  0  0  0
   -5.6558    0.7273    0.5322 C   0  0  0  0  0  0  0  0  0  0  0  0
   -6.5178    1.2581    0.9633 H   0  0  0  0  0  0  0  0  0  0  0  0
   -5.6340   -0.6982    0.5205 C   0  0  0  0  0  0  0  0  0  0  0  0
   -6.4847   -1.2547    0.9436 H   0  0  0  0  0  0  0  0  0  0  0  0
   -4.5598   -1.3890   -0.0165 C   0  0  0  0  0  0  0  0  0  0  0  0
   -4.5283   -2.4884   -0.0326 H   0  0  0  0  0  0  0  0  0  0  0  0
   -3.4374   -0.6920   -0.5724 C   0  0  0  0  0  0  0  0  0  0  0  0
  1 23  1  0  0  0  0
  2  1  2  0  0  0  0
  3  4  1  0  0  0  0
  3  2  1  0  0  0  0
  5  3  1  0  0  0  0
  6  5  1  0  0  0  0
  7  5  1  0  0  0  0
  7  9  1  0  0  0  0
  8  7  1  0  0  0  0
  9 11  1  0  0  0  0
 10  9  1  0  0  0  0
 11  2  1  0  0  0  0
 11 12  2  0  0  0  0
 12 14  1  0  0  0  0
 13 12  1  0  0  0  0
 14 15  1  0  0  0  0
 15 16  1  0  0  0  0
 15 17  2  0  0  0  0
 17 18  1  0  0  0  0
 19 17  1  0  0  0  0
 19 20  1  0  0  0  0
 21 19  2  0  0  0  0
 22 21  1  0  0  0  0
 23 14  2  0  0  0  0
 23 21  1  0  0  0  0
M  END
