4,14
q = -1.0

 32 34  0  0  1  0  0  0  0  0999 V2000
   -1.8952    1.8503    0.4117 N   0  0  0  0  0  0  0  0  0  0  0  0
   -3.0848    0.1062   -0.0452 N   0  0  0  0  0  0  0  0  0  0  0  0
    0.8082    1.6336   -0.9755 C   0  0  1  0  0  3  0  0  0  0  0  0
    0.5631    0.7594   -2.0977 C   0  0  0  0  0  3  0  0  0  0  0  0
    1.5183   -0.3164   -2.0506 C   0  0  0  0  0  3  0  0  0  0  0  0
    2.4403   -0.0476   -0.9747 C   0  0  0  0  0  0  0  0  0  0  0  0
    3.5894   -0.7422   -0.5007 C   0  0  0  0  0  0  0  0  0  0  0  0
    4.2616   -0.2535    0.6118 C   0  0  0  0  0  0  0  0  0  0  0  0
    3.8271    0.9320    1.2766 C   0  0  0  0  0  0  0  0  0  0  0  0
    2.7171    1.6402    0.8297 C   0  0  0  0  0  0  0  0  0  0  0  0
    2.0021    1.1609   -0.3031 C   0  0  0  0  0  0  0  0  0  0  0  0
    0.0841    2.9049   -0.6320 C   0  0  0  0  0  0  0  0  0  0  0  0
   -0.7749    2.7544    0.6299 C   0  0  0  0  0  0  0  0  0  0  0  0
   -1.7664    0.5154    0.0619 C   0  0  0  0  0  2  0  0  0  0  0  0
   -3.2212    2.2497    0.4905 C   0  0  0  0  0  0  0  0  0  0  0  0
   -3.9724    1.1431    0.2087 C   0  0  0  0  0  0  0  0  0  0  0  0
   -3.5437   -1.2144   -0.4452 C   0  0  0  0  0  0  0  0  0  0  0  0
   -0.1950    0.9175   -2.8739 H   0  0  0  0  0  0  0  0  0  0  0  0
    1.6092   -1.1276   -2.7818 H   0  0  0  0  0  0  0  0  0  0  0  0
    3.9215   -1.6609   -1.0065 H   0  0  0  0  0  0  0  0  0  0  0  0
    5.1481   -0.7846    0.9903 H   0  0  0  0  0  0  0  0  0  0  0  0
    4.3876    1.2925    2.1524 H   0  0  0  0  0  0  0  0  0  0  0  0
    2.3955    2.5583    1.3450 H   0  0  0  0  0  0  0  0  0  0  0  0
   -0.5638    3.2201   -1.4752 H   0  0  0  0  0  0  0  0  0  0  0  0
    0.8155    3.7248   -0.4628 H   0  0  0  0  0  0  0  0  0  0  0  0
   -0.1571    2.3549    1.4600 H   0  0  0  0  0  0  0  0  0  0  0  0
   -1.1948    3.7292    0.9479 H   0  0  0  0  0  0  0  0  0  0  0  0
   -3.5151    3.2705    0.7508 H   0  0  0  0  0  0  0  0  0  0  0  0
   -5.0568    1.0055    0.1695 H   0  0  0  0  0  0  0  0  0  0  0  0
   -3.4020   -1.3744   -1.5304 H   0  0  0  0  0  0  0  0  0  0  0  0
   -4.6172   -1.3042   -0.1959 H   0  0  0  0  0  0  0  0  0  0  0  0
   -2.9775   -1.9912    0.0923 H   0  0  0  0  0  0  0  0  0  0  0  0
  1 15  1  0  0  0  0
  1 13  1  0  0  0  0
  2 14  1  0  0  0  0
  2 16  1  0  0  0  0
  3 12  1  6  0  0  0
  3 11  1  0  0  0  0
  4  5  1  0  0  0  0
  4  3  1  0  0  0  0
  5  6  1  0  0  0  0
  6  7  2  0  0  0  0
  6 11  1  0  0  0  0
  7  8  1  0  0  0  0
  8 21  1  0  0  0  0
  8  9  2  0  0  0  0
  9 22  1  0  0  0  0
 10  9  1  0  0  0  0
 10 23  1  0  0  0  0
 11 10  2  0  0  0  0
 12 25  1  0  0  0  0
 12 13  1  0  0  0  0
 13 27  1  0  0  0  0
 13 26  1  0  0  0  0
 14  1  1  0  0  0  0
 15 28  1  0  0  0  0
 16 15  2  0  0  0  0
 17 31  1  0  0  0  0
 17  2  1  0  0  0  0
 17 32  1  0  0  0  0
 18  4  1  0  0  0  0
 19  5  1  0  0  0  0
 20  7  1  0  0  0  0
 24 12  1  0  0  0  0
 29 16  1  0  0  0  0
 30 17  1  0  0  0  0
M  END
