3,5
q = -1.0, confidence = 0.046

 60 63  0  0  1  0  0  0  0  0999 V2000
   -2.2708    0.0477   -0.8424 P   0  0  0  0  0  0  0  0  0  0  0  0
    1.1487   -0.3421   -1.3162 C   0  0  2  0  0  3  0  0  0  0  0  0
    0.3732   -0.5597   -0.1355 C   0  0  2  0  0  3  0  0  0  0  0  0
    0.9366   -0.1872    1.1473 C   0  0  1  0  0  3  0  0  0  0  0  0
    2.3026    0.2962    1.1699 C   0  0  1  0  0  3  0  0  0  0  0  0
    2.9979    0.4758   -0.0663 C   0  0  1  0  0  3  0  0  0  0  0  0
    2.1575    0.8045   -1.2871 C   0  0  2  0  0  0  0  0  0  0  0  0
    2.8022    0.6891   -2.1844 H   0  0  0  0  0  0  0  0  0  0  0  0
    0.6932   -0.8606   -2.6577 C   0  0  0  0  0  0  0  0  0  0  0  0
    0.3355   -1.9069   -2.6056 H   0  0  0  0  0  0  0  0  0  0  0  0
    1.5282   -0.8341   -3.3850 H   0  0  0  0  0  0  0  0  0  0  0  0
   -0.1399   -0.2469   -3.0652 H   0  0  0  0  0  0  0  0  0  0  0  0
    4.4646    0.8191   -0.1263 C   0  0  0  0  0  0  0  0  0  0  0  0
    4.6244    1.9188   -0.0625 H   0  0  0  0  0  0  0  0  0  0  0  0
    4.8920    0.4883   -1.0937 H   0  0  0  0  0  0  0  0  0  0  0  0
    5.0529    0.3355    0.6760 H   0  0  0  0  0  0  0  0  0  0  0  0
   -0.9875   -1.2018   -0.2432 C   0  0  0  0  0  0  0  0  0  0  0  0
   -1.3112   -1.6732    0.7035 H   0  0  0  0  0  0  0  0  0  0  0  0
   -0.9721   -1.9954   -1.0146 H   0  0  0  0  0  0  0  0  0  0  0  0
    2.9468    0.6135    2.4992 C   0  0  0  0  0  0  0  0  0  0  0  0
    4.0291    0.8033    2.3985 H   0  0  0  0  0  0  0  0  0  0  0  0
    2.8112   -0.1852    3.2517 H   0  0  0  0  0  0  0  0  0  0  0  0
    2.4814    1.5340    2.9126 H   0  0  0  0  0  0  0  0  0  0  0  0
    0.1645   -0.2805    2.4366 C   0  0  0  0  0  0  0  0  0  0  0  0
   -0.1667    0.7304    2.7570 H   0  0  0  0  0  0  0  0  0  0  0  0
    0.7761   -0.7081    3.2521 H   0  0  0  0  0  0  0  0  0  0  0  0
   -0.7441   -0.8977    2.3427 H   0  0  0  0  0  0  0  0  0  0  0  0
    1.5554    2.2085   -1.3346 C   0  0  0  0  0  0  0  0  0  0  0  0
    0.7914    2.6088   -2.4521 C   0  0  0  0  0  0  0  0  0  0  0  0
    0.6498    1.9114   -3.2911 H   0  0  0  0  0  0  0  0  0  0  0  0
    0.2053    3.8812   -2.5093 C   0  0  0  0  0  0  0  0  0  0  0  0
   -0.3969    4.1654   -3.3857 H   0  0  0  0  0  0  0  0  0  0  0  0
    0.3891    4.7923   -1.4558 C   0  0  0  0  0  0  0  0  0  0  0  0
   -0.0672    5.7926   -1.5009 H   0  0  0  0  0  0  0  0  0  0  0  0
    1.1631    4.4149   -0.3485 C   0  0  0  0  0  0  0  0  0  0  0  0
    1.3232    5.1224    0.4800 H   0  0  0  0  0  0  0  0  0  0  0  0
    1.7319    3.1324   -0.2867 C   0  0  0  0  0  0  0  0  0  0  0  0
    2.3206    2.8459    0.5964 H   0  0  0  0  0  0  0  0  0  0  0  0
   -2.3911    1.1219    0.6627 C   0  0  0  0  0  0  0  0  0  0  0  0
   -1.6368    2.3134    0.6563 C   0  0  0  0  0  0  0  0  0  0  0  0
   -1.0598    2.5895   -0.2389 H   0  0  0  0  0  0  0  0  0  0  0  0
   -1.6122    3.1440    1.7878 C   0  0  0  0  0  0  0  0  0  0  0  0
   -1.0096    4.0648    1.7682 H   0  0  0  0  0  0  0  0  0  0  0  0
   -2.3595    2.8049    2.9267 C   0  0  0  0  0  0  0  0  0  0  0  0
   -2.3478    3.4598    3.8115 H   0  0  0  0  0  0  0  0  0  0  0  0
   -3.1334    1.6311    2.9305 C   0  0  0  0  0  0  0  0  0  0  0  0
   -3.7266    1.3651    3.8190 H   0  0  0  0  0  0  0  0  0  0  0  0
   -3.1479    0.7920    1.8069 C   0  0  0  0  0  0  0  0  0  0  0  0
   -3.7492   -0.1303    1.8171 H   0  0  0  0  0  0  0  0  0  0  0  0
   -3.8175   -0.9515   -0.6957 C   0  0  0  0  0  0  0  0  0  0  0  0
   -5.0413   -0.2640   -0.8704 C   0  0  0  0  0  0  0  0  0  0  0  0
   -5.0321    0.8255   -1.0369 H   0  0  0  0  0  0  0  0  0  0  0  0
   -6.2623   -0.9482   -0.8250 C   0  0  0  0  0  0  0  0  0  0  0  0
   -7.2041   -0.3930   -0.9542 H   0  0  0  0  0  0  0  0  0  0  0  0
   -6.2851   -2.3392   -0.6239 C   0  0  0  0  0  0  0  0  0  0  0  0
   -7.2435   -2.8792   -0.5951 H   0  0  0  0  0  0  0  0  0  0  0  0
   -5.0780   -3.0342   -0.4640 C   0  0  0  0  0  0  0  0  0  0  0  0
   -5.0846   -4.1238   -0.3071 H   0  0  0  0  0  0  0  0  0  0  0  0
   -3.8523   -2.3474   -0.4955 C   0  0  0  0  0  0  0  0  0  0  0  0
   -2.9226   -2.9186   -0.3583 H   0  0  0  0  0  0  0  0  0  0  0  0
  1 50  1  0  0  0  0
  1 17  1  0  0  0  0
  1 39  1  0  0  0  0
  2  9  1  6  0  0  0
  2  7  1  0  0  0  0
  2  3  1  0  0  0  0
  3 17  1  1  0  0  0
  3  4  1  0  0  0  0
  4  5  1  0  0  0  0
  4 24  1  6  0  0  0
  5 20  1  6  0  0  0
  6 13  1  1  0  0  0
  6  5  1  0  0  0  0
  7  8  1  6  0  0  0
  7  6  1  0  0  0  0
  9 10  1  0  0  0  0
 11  9  1  0  0  0  0
 12  9  1  0  0  0  0
 13 14  1  0  0  0  0
 13 16  1  0  0  0  0
 15 13  1  0  0  0  0
 17 18  1  0  0  0  0
 19 17  1  0  0  0  0
 20 23  1  0  0  0  0
 20 22  1  0  0  0  0
 21 20  1  0  0  0  0
 24 25  1  0  0  0  0
 24 26  1  0  0  0  0
 27 24  1  0  0  0  0
 28  7  1  0  0  0  0
 28 37  1  0  0  0  0
 29 28  2  0  0  0  0
 30 29  1  0  0  0  0
 31 29  1  0  0  0  0
 31 33  2  0  0  0  0
 32 31  1  0  0  0  0
 33 35  1  0  0  0  0
 34 33  1  0  0  0  0
 35 37  2  0  0  0  0
 35 36  1  0  0  0  0
 37 38  1  0  0  0  0
 39 48  1  0  0  0  0
 40 39  2  0  0  0  0
 40 42  1  0  0  0  0
 41 40  1  0  0  0  0
 42 44  2  0  0  0  0
 43 42  1  0  0  0  0
 44 46  1  0  0  0  0
 44 45  1  0  0  0  0
 46 47  1  0  0  0  0
 48 49  1  0  0  0  0
 48 46  2  0  0  0  0
 50 59  1  0  0  0  0
 51 53  1  0  0  0  0
 51 50  2  0  0  0  0
 52 51  1  0  0  0  0
 53 55  2  0  0  0  0
 54 53  1  0  0  0  0
 55 56  1  0  0  0  0
 55 57  1  0  0  0  0
 57 58  1  0  0  0  0
 59 57  2  0  0  0  0
 59 60  1  0  0  0  0
M  END
