3,9
q = -1.0, confidence = 0.026

 55 57  0  0  0  0  0  0  0  0999 V2000
    1.3116   -1.5389   -0.1821 N   0  0  0  0  0  0  0  0  0  0  0  0
   -0.8510   -1.7662    0.0727 N   0  0  0  0  0  0  0  0  0  0  0  0
    0.1228   -0.8284   -0.1781 C   0  0  0  0  0  2  0  0  0  0  0  0
    1.0691   -2.8907    0.0567 C   0  0  0  0  0  0  0  0  0  0  0  0
    1.8478   -3.6494    0.1128 H   0  0  0  0  0  0  0  0  0  0  0  0
   -0.2847   -3.0310    0.2070 C   0  0  0  0  0  0  0  0  0  0  0  0
   -0.8912   -3.9201    0.3964 H   0  0  0  0  0  0  0  0  0  0  0  0
    2.4878   -0.7558   -0.4309 C   0  0  0  0  0  0  0  0  0  0  0  0
    2.1492    0.6164   -0.6259 C   0  0  0  0  0  3  0  0  0  0  0  0
    3.1966    1.5034   -0.9429 C   0  0  0  0  0  0  0  0  0  0  0  0
    2.9788    2.5653   -1.1346 H   0  0  0  0  0  0  0  0  0  0  0  0
    4.5226    1.0522   -1.0195 C   0  0  0  0  0  0  0  0  0  0  0  0
    5.3336    1.7574   -1.2566 H   0  0  0  0  0  0  0  0  0  0  0  0
    4.8196   -0.2957   -0.7892 C   0  0  0  0  0  0  0  0  0  0  0  0
    5.8646   -0.6267   -0.8469 H   0  0  0  0  0  0  0  0  0  0  0  0
    3.8186   -1.2452   -0.4929 C   0  0  0  0  0  0  0  0  0  0  0  0
    4.2100   -2.6921   -0.2023 C   0  0  0  0  0  0  0  0  0  0  0  0
    3.4697   -3.3463   -0.7099 H   0  0  0  0  0  0  0  0  0  0  0  0
    4.1606   -2.9595    1.3166 C   0  0  0  0  0  0  0  0  0  0  0  0
    4.9428   -2.3620    1.8269 H   0  0  0  0  0  0  0  0  0  0  0  0
    4.3497   -4.0291    1.5403 H   0  0  0  0  0  0  0  0  0  0  0  0
    3.1893   -2.6778    1.7706 H   0  0  0  0  0  0  0  0  0  0  0  0
    5.5751   -3.1049   -0.7692 C   0  0  0  0  0  0  0  0  0  0  0  0
    6.4118   -2.5952   -0.2507 H   0  0  0  0  0  0  0  0  0  0  0  0
    5.6569   -2.8878   -1.8525 H   0  0  0  0  0  0  0  0  0  0  0  0
    5.7252   -4.1934   -0.6275 H   0  0  0  0  0  0  0  0  0  0  0  0
   -2.2613   -1.4872    0.1590 C   0  0  0  0  0  0  0  0  0  0  0  0
   -2.8580   -1.3567    1.4385 C   0  0  0  0  0  0  0  0  0  0  0  0
   -2.0820   -1.6186    2.7250 C   0  0  0  0  0  0  0  0  0  0  0  0
   -1.0047   -1.4587    2.5044 H   0  0  0  0  0  0  0  0  0  0  0  0
   -2.4722   -0.6836    3.8811 C   0  0  0  0  0  0  0  0  0  0  0  0
   -2.4514    0.3861    3.5920 H   0  0  0  0  0  0  0  0  0  0  0  0
   -1.7765   -0.8216    4.7324 H   0  0  0  0  0  0  0  0  0  0  0  0
   -3.4904   -0.9023    4.2609 H   0  0  0  0  0  0  0  0  0  0  0  0
   -2.2569   -3.0871    3.1640 C   0  0  0  0  0  0  0  0  0  0  0  0
   -3.3212   -3.3002    3.3916 H   0  0  0  0  0  0  0  0  0  0  0  0
   -1.6641   -3.2939    4.0776 H   0  0  0  0  0  0  0  0  0  0  0  0
   -1.9349   -3.8006    2.3818 H   0  0  0  0  0  0  0  0  0  0  0  0
   -4.2269   -1.0264    1.4799 C   0  0  0  0  0  0  0  0  0  0  0  0
   -4.7246   -0.9103    2.4531 H   0  0  0  0  0  0  0  0  0  0  0  0
   -4.9649   -0.8423    0.3039 C   0  0  0  0  0  0  0  0  0  0  0  0
   -6.0315   -0.5792    0.3626 H   0  0  0  0  0  0  0  0  0  0  0  0
   -4.3559   -1.0132   -0.9463 C   0  0  0  0  0  0  0  0  0  0  0  0
   -4.9562   -0.8976   -1.8605 H   0  0  0  0  0  0  0  0  0  0  0  0
   -2.9926   -1.3474   -1.0463 C   0  0  0  0  0  0  0  0  0  0  0  0
   -2.3579   -1.6394   -2.3998 C   0  0  0  0  0  0  0  0  0  0  0  0
   -1.2601   -1.5420   -2.2755 H   0  0  0  0  0  0  0  0  0  0  0  0
   -2.7932   -0.6624   -3.5014 C   0  0  0  0  0  0  0  0  0  0  0  0
   -3.8619   -0.7846   -3.7695 H   0  0  0  0  0  0  0  0  0  0  0  0
   -2.2157   -0.8394   -4.4318 H   0  0  0  0  0  0  0  0  0  0  0  0
   -2.6633    0.3949   -3.1900 H   0  0  0  0  0  0  0  0  0  0  0  0
   -2.6404   -3.0975   -2.8110 C   0  0  0  0  0  0  0  0  0  0  0  0
   -2.2673   -3.8114   -2.0506 H   0  0  0  0  0  0  0  0  0  0  0  0
   -2.1511   -3.3382   -3.7765 H   0  0  0  0  0  0  0  0  0  0  0  0
   -3.7299   -3.2689   -2.9270 H   0  0  0  0  0  0  0  0  0  0  0  0
  1  3  1  0  0  0  0
  1  4  1  0  0  0  0
  2 27  1  0  0  0  0
  2  6  1  0  0  0  0
  3  2  1  0  0  0  0
  4  5  1  0  0  0  0
  4  6  2  0  0  0  0
  6  7  1  0  0  0  0
  8  1  1  0  0  0  0
  9  8  2  0  0  0  0
 10  9  1  0  0  0  0
 11 10  1  0  0  0  0
 12 10  2  0  0  0  0
 12 14  1  0  0  0  0
 13 12  1  0  0  0  0
 14 16  2  0  0  0  0
 15 14  1  0  0  0  0
 16  8  1  0  0  0  0
 16 17  1  0  0  0  0
 17 19  1  0  0  0  0
 18 17  1  0  0  0  0
 19 21  1  0  0  0  0
 19 22  1  0  0  0  0
 19 20  1  0  0  0  0
 23 26  1  0  0  0  0
 23 24  1  0  0  0  0
 23 17  1  0  0  0  0
 25 23  1  0  0  0  0
 27 28  1  0  0  0  0
 28 39  2  0  0  0  0
 28 29  1  0  0  0  0
 29 35  1  0  0  0  0
 29 31  1  0  0  0  0
 30 29  1  0  0  0  0
 31 34  1  0  0  0  0
 31 33  1  0  0  0  0
 32 31  1  0  0  0  0
 35 36  1  0  0  0  0
 35 37  1  0  0  0  0
 38 35  1  0  0  0  0
 39 40  1  0  0  0  0
 41 42  1  0  0  0  0
 41 39  1  0  0  0  0
 43 41  2  0  0  0  0
 44 43  1  0  0  0  0
 45 43  1  0  0  0  0
 45 27  2  0  0  0  0
 46 47  1  0  0  0  0
 46 45  1  0  0  0  0
 48 51  1  0  0  0  0
 48 46  1  0  0  0  0
 49 48  1  0  0  0  0
 50 48  1  0  0  0  0
 52 46  1  0  0  0  0
 52 53  1  0  0  0  0
 54 52  1  0  0  0  0
 55 52  1  0  0  0  0
M  END
