9
q = 0.0, confidence = 1.0

 36 37  0  0  1  0  0  0  0  0999 V2000
   -2.5363    0.1084   -0.0796 C   0  0  1  0  0  0  0  0  0  0  0  0
   -3.1720    1.2077    0.7936 C   0  0  0  0  0  0  0  0  0  0  0  0
   -2.1942    2.3556    1.0471 C   0  0  0  0  0  0  0  0  0  0  0  0
   -0.9964    1.8589    1.8581 C   0  0  0  0  0  0  0  0  0  0  0  0
   -0.3831    0.6049    1.2775 C   0  0  1  0  0  3  0  0  0  0  0  0
    0.9527    0.2354    1.6558 C   0  0  0  0  0  0  0  0  0  0  0  0
    1.5588   -0.9428    1.1487 C   0  0  0  0  0  0  0  0  0  0  0  0
    0.8624   -1.7642    0.1925 C   0  0  2  0  0  3  0  0  0  0  0  0
   -0.4584   -1.3836   -0.1576 C   0  0  0  0  0  3  0  0  0  0  0  0
   -1.1159   -0.2320    0.3863 C   0  0  2  0  0  3  0  0  0  0  0  0
   -3.4004   -1.1425   -0.1737 C   0  0  0  0  0  0  0  0  0  0  0  0
   -3.8917   -1.5435   -1.3647 C   0  0  0  0  0  0  0  0  0  0  0  0
   -3.6594   -1.9026    1.1013 C   0  0  0  0  0  0  0  0  0  0  0  0
    1.5263   -2.9827   -0.3829 C   0  0  0  0  0  0  0  0  0  0  0  0
    3.6789   -0.4298    2.1088 C   0  0  0  0  0  0  0  0  0  0  0  0
    2.8082   -1.3540    1.4703 O   0  0  0  0  0  0  0  0  0  0  0  0
   -2.4476    0.5143   -1.1090 H   0  0  0  0  0  0  0  0  0  0  0  0
   -4.0955    1.5657    0.2957 H   0  0  0  0  0  0  0  0  0  0  0  0
   -3.4850    0.7805    1.7714 H   0  0  0  0  0  0  0  0  0  0  0  0
   -2.6965    3.1834    1.5873 H   0  0  0  0  0  0  0  0  0  0  0  0
   -1.8387    2.7728    0.0808 H   0  0  0  0  0  0  0  0  0  0  0  0
   -0.2182    2.6445    1.9409 H   0  0  0  0  0  0  0  0  0  0  0  0
   -1.3203    1.6283    2.8988 H   0  0  0  0  0  0  0  0  0  0  0  0
    1.5066    0.8997    2.3304 H   0  0  0  0  0  0  0  0  0  0  0  0
   -1.0035   -1.9898   -0.8961 H   0  0  0  0  0  0  0  0  0  0  0  0
   -3.6785   -0.9814   -2.2881 H   0  0  0  0  0  0  0  0  0  0  0  0
   -4.5212   -2.4434   -1.4531 H   0  0  0  0  0  0  0  0  0  0  0  0
   -4.2188   -2.8383    0.9114 H   0  0  0  0  0  0  0  0  0  0  0  0
   -4.2454   -1.2975    1.8251 H   0  0  0  0  0  0  0  0  0  0  0  0
   -2.7070   -2.1627    1.6111 H   0  0  0  0  0  0  0  0  0  0  0  0
    0.9990   -3.3197   -1.2948 H   0  0  0  0  0  0  0  0  0  0  0  0
    1.5225   -3.8155    0.3520 H   0  0  0  0  0  0  0  0  0  0  0  0
    2.5831   -2.7766   -0.6363 H   0  0  0  0  0  0  0  0  0  0  0  0
    3.7581    0.5095    1.5199 H   0  0  0  0  0  0  0  0  0  0  0  0
    4.6689   -0.9185    2.1559 H   0  0  0  0  0  0  0  0  0  0  0  0
    3.3437   -0.1929    3.1422 H   0  0  0  0  0  0  0  0  0  0  0  0
  1 17  1  6  0  0  0
  1 10  1  0  0  0  0
  1  2  1  0  0  0  0
  2  3  1  0  0  0  0
  2 19  1  0  0  0  0
  3 20  1  0  0  0  0
  3  4  1  0  0  0  0
  4 22  1  0  0  0  0
  4 23  1  0  0  0  0
  5  6  1  1  0  0  0
  5  4  1  0  0  0  0
  6 24  1  0  0  0  0
  7 16  1  0  0  0  0
  7  6  2  0  0  0  0
  8 14  1  1  0  0  0
  8  7  1  0  0  0  0
  9  8  1  0  0  0  0
 10  9  1  6  0  0  0
 10  5  1  0  0  0  0
 11  1  1  0  0  0  0
 11 13  1  0  0  0  0
 12 11  2  0  0  0  0
 13 30  1  0  0  0  0
 13 29  1  0  0  0  0
 14 32  1  0  0  0  0
 15 35  1  0  0  0  0
 15 36  1  0  0  0  0
 16 15  1  0  0  0  0
 18  2  1  0  0  0  0
 21  3  1  0  0  0  0
 25  9  1  0  0  0  0
 26 12  1  0  0  0  0
 27 12  1  0  0  0  0
 28 13  1  0  0  0  0
 31 14  1  0  0  0  0
 33 14  1  0  0  0  0
 34 15  1  0  0  0  0
M  END
