3,14
q = -1.0

 20 20  0  0  1  0  0  0  0  0999 V2000
   -1.3429    2.7623   -0.6877 N   0  0  0  0  0  0  0  0  0  0  0  0
   -1.2779    2.0663    1.3629 N   0  0  0  0  0  0  0  0  0  0  0  0
   -0.9899    1.6606    0.0709 C   0  0  0  0  0  2  0  0  0  0  0  0
   -1.8263    3.7973    0.1113 C   0  0  0  0  0  0  0  0  0  0  0  0
   -2.1594    4.7515   -0.3083 H   0  0  0  0  0  0  0  0  0  0  0  0
   -1.7826    3.3558    1.4099 C   0  0  0  0  0  0  0  0  0  0  0  0
   -2.0745    3.8540    2.3384 H   0  0  0  0  0  0  0  0  0  0  0  0
   -1.1842    2.8590   -2.1276 C   0  0  0  0  0  0  0  0  0  0  0  0
   -0.8762    1.8633   -2.5085 H   0  0  0  0  0  0  0  0  0  0  0  0
   -0.4172    3.6184   -2.3893 H   0  0  0  0  0  0  0  0  0  0  0  0
   -2.1443    3.1468   -2.6022 H   0  0  0  0  0  0  0  0  0  0  0  0
   -0.9310    1.1369    2.4473 C   0  0  1  0  0  0  0  0  0  0  0  0
   -1.8103    0.4681    2.5968 H   0  0  0  0  0  0  0  0  0  0  0  0
    0.2384    0.2823    1.9176 C   0  0  0  0  0  3  0  0  0  0  0  0
    0.3115   -0.5987    2.5895 H   0  0  0  0  0  0  0  0  0  0  0  0
    1.1772    0.8530    2.1073 H   0  0  0  0  0  0  0  0  0  0  0  0
   -0.6516    1.8797    3.7538 C   0  0  0  0  0  0  0  0  0  0  0  0
    0.1805    2.6038    3.6284 H   0  0  0  0  0  0  0  0  0  0  0  0
   -0.3470    1.1473    4.5272 H   0  0  0  0  0  0  0  0  0  0  0  0
   -1.5357    2.4266    4.1449 H   0  0  0  0  0  0  0  0  0  0  0  0
  1  3  1  0  0  0  0
  1  4  1  0  0  0  0
  2  6  1  0  0  0  0
  2 12  1  0  0  0  0
  3  2  1  0  0  0  0
  4  6  2  0  0  0  0
  5  4  1  0  0  0  0
  6  7  1  0  0  0  0
  8  1  1  0  0  0  0
  9  8  1  0  0  0  0
 10  8  1  0  0  0  0
 11  8  1  0  0  0  0
 12 13  1  1  0  0  0
 12 17  1  0  0  0  0
 14 16  1  0  0  0  0
 14 12  1  0  0  0  0
 14 15  1  0  0  0  0
 17 20  1  0  0  0  0
 17 19  1  0  0  0  0
 18 17  1  0  0  0  0
M  END
