8,11
q = 0.0, confidence = 0.946

 63 63  0  0  1  0  0  0  0  0999 V2000
   -2.2818   -1.3884   -0.0652 Si  0  0  0  0  0  0  0  0  0  0  0  0
   -0.7457   -0.7163    0.3752 O   0  0  0  0  0  0  0  0  0  0  0  0
    4.2558   -0.6727   -2.0747 O   0  0  0  0  0  0  0  0  0  0  0  0
   -3.6306    6.2094   -0.4567 N   0  0  0  0  0  0  0  0  0  0  0  0
    0.8123    0.2946   -1.1618 C   0  0  2  0  0  3  0  0  0  0  0  0
    0.4702   -0.7279   -0.2102 C   0  0  0  0  0  0  0  0  0  0  0  0
    1.4419   -1.7098    0.1937 C   0  0  0  0  0  0  0  0  0  0  0  0
    2.7370   -1.6801   -0.4116 C   0  0  0  0  0  3  0  0  0  0  0  0
    3.4779   -2.4205   -0.0824 H   0  0  0  0  0  0  0  0  0  0  0  0
    3.0724   -0.7262   -1.4157 C   0  0  1  0  0  3  0  0  0  0  0  0
    2.1275    0.2933   -1.7143 C   0  0  0  0  0  3  0  0  0  0  0  0
    2.4277    1.0799   -2.4210 H   0  0  0  0  0  0  0  0  0  0  0  0
   -0.1869    1.3566   -1.5624 C   0  0  0  0  0  0  0  0  0  0  0  0
   -1.1869    0.8855   -1.6589 H   0  0  0  0  0  0  0  0  0  0  0  0
    0.0760    1.7248   -2.5759 H   0  0  0  0  0  0  0  0  0  0  0  0
   -0.2992    2.5462   -0.5977 C   0  0  0  0  0  0  0  0  0  0  0  0
    0.6617    3.1013   -0.5825 H   0  0  0  0  0  0  0  0  0  0  0  0
   -0.4376    2.1600    0.4317 H   0  0  0  0  0  0  0  0  0  0  0  0
   -1.4515    3.4860   -0.9509 C   0  0  0  0  0  0  0  0  0  0  0  0
   -2.4042    2.9157   -0.9924 H   0  0  0  0  0  0  0  0  0  0  0  0
   -1.3066    3.9204   -1.9630 H   0  0  0  0  0  0  0  0  0  0  0  0
   -1.5983    4.6228    0.0782 C   0  0  0  0  0  0  0  0  0  0  0  0
   -0.6665    5.2270    0.1245 H   0  0  0  0  0  0  0  0  0  0  0  0
   -1.7401    4.1964    1.0952 H   0  0  0  0  0  0  0  0  0  0  0  0
   -2.7205    5.5155   -0.2069 C   0  0  0  0  0  0  0  0  0  0  0  0
    1.1131   -2.7429    1.2345 C   0  0  0  0  0  0  0  0  0  0  0  0
    0.6346   -3.6362    0.7774 H   0  0  0  0  0  0  0  0  0  0  0  0
    2.0309   -3.0796    1.7525 H   0  0  0  0  0  0  0  0  0  0  0  0
    0.4154   -2.3365    1.9887 H   0  0  0  0  0  0  0  0  0  0  0  0
    5.3596   -1.3745   -1.5202 C   0  0  0  0  0  0  0  0  0  0  0  0
    6.2390   -1.1038   -2.1325 H   0  0  0  0  0  0  0  0  0  0  0  0
    5.5367   -1.0695   -0.4656 H   0  0  0  0  0  0  0  0  0  0  0  0
    5.2186   -2.4771   -1.5668 H   0  0  0  0  0  0  0  0  0  0  0  0
   -2.1059   -1.9941   -1.8713 C   0  0  0  0  0  0  0  0  0  0  0  0
   -1.5334   -1.1766   -2.3677 H   0  0  0  0  0  0  0  0  0  0  0  0
   -1.2588   -3.2742   -1.9731 C   0  0  0  0  0  0  0  0  0  0  0  0
   -1.0961   -3.5562   -3.0354 H   0  0  0  0  0  0  0  0  0  0  0  0
   -0.2582   -3.1535   -1.5111 H   0  0  0  0  0  0  0  0  0  0  0  0
   -1.7555   -4.1362   -1.4810 H   0  0  0  0  0  0  0  0  0  0  0  0
   -3.4418   -2.1343   -2.6205 C   0  0  0  0  0  0  0  0  0  0  0  0
   -3.2696   -2.4475   -3.6726 H   0  0  0  0  0  0  0  0  0  0  0  0
   -4.0998   -2.9002   -2.1599 H   0  0  0  0  0  0  0  0  0  0  0  0
   -4.0084   -1.1821   -2.6504 H   0  0  0  0  0  0  0  0  0  0  0  0
   -3.4862    0.0833    0.1119 C   0  0  0  0  0  0  0  0  0  0  0  0
   -3.3160    0.6702   -0.8223 H   0  0  0  0  0  0  0  0  0  0  0  0
   -3.1510    0.9941    1.3072 C   0  0  0  0  0  0  0  0  0  0  0  0
   -3.7270    1.9428    1.2518 H   0  0  0  0  0  0  0  0  0  0  0  0
   -3.4190    0.5083    2.2670 H   0  0  0  0  0  0  0  0  0  0  0  0
   -2.0740    1.2415    1.3635 H   0  0  0  0  0  0  0  0  0  0  0  0
   -4.9690   -0.3289    0.1399 C   0  0  0  0  0  0  0  0  0  0  0  0
   -5.6248    0.5669    0.1041 H   0  0  0  0  0  0  0  0  0  0  0  0
   -5.2565   -0.9832   -0.7068 H   0  0  0  0  0  0  0  0  0  0  0  0
   -5.2158   -0.8690    1.0772 H   0  0  0  0  0  0  0  0  0  0  0  0
   -2.5725   -2.8135    1.1656 C   0  0  0  0  0  0  0  0  0  0  0  0
   -1.6671   -3.4476    1.0315 H   0  0  0  0  0  0  0  0  0  0  0  0
   -2.5868   -2.3213    2.6226 C   0  0  0  0  0  0  0  0  0  0  0  0
   -2.5530   -3.1752    3.3326 H   0  0  0  0  0  0  0  0  0  0  0  0
   -1.7291   -1.6562    2.8509 H   0  0  0  0  0  0  0  0  0  0  0  0
   -3.5130   -1.7522    2.8458 H   0  0  0  0  0  0  0  0  0  0  0  0
   -3.7972   -3.6862    0.8426 C   0  0  0  0  0  0  0  0  0  0  0  0
   -3.8693   -4.5384    1.5522 H   0  0  0  0  0  0  0  0  0  0  0  0
   -4.7453   -3.1175    0.9238 H   0  0  0  0  0  0  0  0  0  0  0  0
   -3.7545   -4.1143   -0.1793 H   0  0  0  0  0  0  0  0  0  0  0  0
  1 44  1  0  0  0  0
  1  2  1  0  0  0  0
  1 54  1  0  0  0  0
  3 30  1  0  0  0  0
  4 25  3  0  0  0  0
  5 13  1  1  0  0  0
  5  6  1  0  0  0  0
  6  7  2  0  0  0  0
  6  2  1  0  0  0  0
  7 26  1  0  0  0  0
  8  9  1  0  0  0  0
  8  7  1  0  0  0  0
 10  3  1  1  0  0  0
 10  8  1  0  0  0  0
 11 10  1  0  0  0  0
 11  5  1  0  0  0  0
 12 11  1  0  0  0  0
 13 16  1  0  0  0  0
 14 13  1  0  0  0  0
 15 13  1  0  0  0  0
 16 17  1  0  0  0  0
 16 18  1  0  0  0  0
 19 16  1  0  0  0  0
 19 22  1  0  0  0  0
 20 19  1  0  0  0  0
 21 19  1  0  0  0  0
 22 23  1  0  0  0  0
 22 24  1  0  0  0  0
 25 22  1  0  0  0  0
 26 28  1  0  0  0  0
 26 29  1  0  0  0  0
 27 26  1  0  0  0  0
 30 32  1  0  0  0  0
 31 30  1  0  0  0  0
 33 30  1  0  0  0  0
 34  1  1  0  0  0  0
 35 34  1  0  0  0  0
 36 34  1  0  0  0  0
 36 38  1  0  0  0  0
 36 39  1  0  0  0  0
 37 36  1  0  0  0  0
 40 42  1  0  0  0  0
 40 34  1  0  0  0  0
 41 40  1  0  0  0  0
 43 40  1  0  0  0  0
 44 50  1  0  0  0  0
 44 46  1  0  0  0  0
 45 44  1  0  0  0  0
 46 49  1  0  0  0  0
 46 48  1  0  0  0  0
 47 46  1  0  0  0  0
 50 53  1  0  0  0  0
 51 50  1  0  0  0  0
 52 50  1  0  0  0  0
 54 56  1  0  0  0  0
 55 54  1  0  0  0  0
 56 59  1  0  0  0  0
 56 58  1  0  0  0  0
 56 57  1  0  0  0  0
 60 62  1  0  0  0  0
 60 54  1  0  0  0  0
 60 61  1  0  0  0  0
 63 60  1  0  0  0  0
M  END
