2,5
q = 0.0, confidence = 0.918

 16 15  0  0  0  0  0  0  0  0999 V2000
   -1.3377   -2.1422    1.0629 C   0  0  0  0  0  3  0  0  0  0  0  0
   -0.8994   -2.1169    2.4044 C   0  0  0  0  0  3  0  0  0  0  0  0
    0.2555   -2.9420    2.9701 C   0  0  0  0  0  0  0  0  0  0  0  0
    1.3778   -1.9573    3.4050 C   0  0  0  0  0  0  0  0  0  0  0  0
    0.8807   -0.5352    3.1545 C   0  0  0  0  0  3  0  0  0  0  0  0
    1.4872    0.3712    2.2579 C   0  0  0  0  0  3  0  0  0  0  0  0
    0.6320   -3.6372    2.1909 H   0  0  0  0  0  0  0  0  0  0  0  0
   -0.0932   -3.5824    3.8105 H   0  0  0  0  0  0  0  0  0  0  0  0
    1.6770   -2.0973    4.4681 H   0  0  0  0  0  0  0  0  0  0  0  0
    2.2946   -2.1305    2.8028 H   0  0  0  0  0  0  0  0  0  0  0  0
    2.4344    0.1059    1.7571 H   0  0  0  0  0  0  0  0  0  0  0  0
    1.3139    1.4558    2.3725 H   0  0  0  0  0  0  0  0  0  0  0  0
    0.2037   -0.1257    3.9280 H   0  0  0  0  0  0  0  0  0  0  0  0
   -1.5991   -1.7081    3.1573 H   0  0  0  0  0  0  0  0  0  0  0  0
   -2.3556   -1.7969    0.8181 H   0  0  0  0  0  0  0  0  0  0  0  0
   -0.9087   -2.8660    0.3459 H   0  0  0  0  0  0  0  0  0  0  0  0
  1  2  1  0  0  0  0
  2  3  1  0  0  0  0
  2 14  1  0  0  0  0
  3  4  1  0  0  0  0
  3  8  1  0  0  0  0
  4  9  1  0  0  0  0
  5  4  1  0  0  0  0
  5 13  1  0  0  0  0
  6 12  1  0  0  0  0
  6  5  1  0  0  0  0
  7  3  1  0  0  0  0
 10  4  1  0  0  0  0
 11  6  1  0  0  0  0
 15  1  1  0  0  0  0
 16  1  1  0  0  0  0
M  END
