17,23
q = -1.0

 24 26  0  0  1  0  0  0  0  0999 V2000
    1.6545   -0.6177   -0.7533 N   0  0  0  0  0  0  0  0  0  0  0  0
    0.8841    0.4674   -0.7453 C   0  0  0  0  0  0  0  0  0  0  0  0
    1.3959    1.7378   -0.3061 C   0  0  0  0  0  0  0  0  0  0  0  0
    0.7402    2.6269   -0.2971 H   0  0  0  0  0  0  0  0  0  0  0  0
    2.6356    1.9046    0.1083 N   0  0  0  0  0  0  0  0  0  0  0  0
    3.4426    0.8006    0.1120 C   0  0  0  0  0  0  0  0  0  0  0  0
    4.7908    0.9103    0.5512 C   0  0  0  0  0  0  0  0  0  0  0  0
    5.1433    1.8996    0.8776 H   0  0  0  0  0  0  0  0  0  0  0  0
    5.6110   -0.2093    0.5595 C   0  0  0  0  0  0  0  0  0  0  0  0
    6.6538   -0.1245    0.9006 H   0  0  0  0  0  0  0  0  0  0  0  0
    5.1154   -1.4727    0.1312 C   0  0  0  0  0  0  0  0  0  0  0  0
    5.7823   -2.3481    0.1475 H   0  0  0  0  0  0  0  0  0  0  0  0
    3.8054   -1.6108   -0.3037 C   0  0  0  0  0  0  0  0  0  0  0  0
    3.3973   -2.5755   -0.6387 H   0  0  0  0  0  0  0  0  0  0  0  0
    2.9390   -0.4799   -0.3243 C   0  0  0  0  0  0  0  0  0  0  0  0
   -0.5061    0.3137   -1.2000 C   0  0  2  0  0  3  0  0  0  0  0  0
   -1.5233    1.3292   -1.3522 C   0  0  0  0  0  3  0  0  0  0  0  0
   -1.4020    2.4018   -1.1625 H   0  0  0  0  0  0  0  0  0  0  0  0
   -2.7199    0.7036   -1.8118 C   0  0  0  0  0  0  0  0  0  0  0  0
   -3.6672    1.2117   -2.0263 H   0  0  0  0  0  0  0  0  0  0  0  0
   -2.4643   -0.7082   -1.9396 C   0  0  0  0  0  0  0  0  0  0  0  0
   -3.1850   -1.4669   -2.2655 H   0  0  0  0  0  0  0  0  0  0  0  0
   -1.1124   -0.9443   -1.5566 C   0  0  0  0  0  3  0  0  0  0  0  0
   -0.5820   -1.9025   -1.5325 H   0  0  0  0  0  0  0  0  0  0  0  0
  1  2  2  0  0  0  0
  1 15  1  0  0  0  0
  2  3  1  0  0  0  0
  3  4  1  0  0  0  0
  3  5  2  0  0  0  0
  5  6  1  0  0  0  0
  6  7  1  0  0  0  0
  7  9  2  0  0  0  0
  7  8  1  0  0  0  0
  9 10  1  0  0  0  0
 11 12  1  0  0  0  0
 11  9  1  0  0  0  0
 13 11  2  0  0  0  0
 14 13  1  0  0  0  0
 15 13  1  0  0  0  0
 15  6  2  0  0  0  0
 16  2  1  1  0  0  0
 17 16  1  0  0  0  0
 17 18  1  0  0  0  0
 19 17  1  0  0  0  0
 20 19  1  0  0  0  0
 21 19  2  0  0  0  0
 21 23  1  0  0  0  0
 22 21  1  0  0  0  0
 23 24  1  0  0  0  0
 23 16  1  0  0  0  0
M  END
