2,14
q = -1.0

 23 24  0  0  0  0  0  0  0  0999 V2000
    2.8945   -0.6589   -0.6907 N   0  0  0  0  0  0  0  0  0  0  0  0
    1.6267   -0.3522   -1.2429 C   0  0  0  0  0  2  0  0  0  0  0  0
    1.5434   -0.3676   -2.6567 C   0  0  0  0  0  0  0  0  0  0  0  0
    0.5460   -0.2522   -3.1009 H   0  0  0  0  0  0  0  0  0  0  0  0
    2.6764   -0.4842   -3.4518 C   0  0  0  0  0  0  0  0  0  0  0  0
    2.5958   -0.4818   -4.5496 H   0  0  0  0  0  0  0  0  0  0  0  0
    3.9416   -0.5328   -2.8342 C   0  0  0  0  0  0  0  0  0  0  0  0
    4.8647   -0.4924   -3.4287 H   0  0  0  0  0  0  0  0  0  0  0  0
    4.0528   -0.6089   -1.4481 C   0  0  0  0  0  0  0  0  0  0  0  0
    5.4112   -0.5442   -0.8069 C   0  0  0  0  0  0  0  0  0  0  0  0
    5.8515   -1.5444   -0.6162 H   0  0  0  0  0  0  0  0  0  0  0  0
    5.3834    0.0004    0.1561 H   0  0  0  0  0  0  0  0  0  0  0  0
    6.0982   -0.0147   -1.4934 H   0  0  0  0  0  0  0  0  0  0  0  0
    1.5148   -0.8217    1.2550 C   0  0  0  0  0  3  0  0  0  0  0  0
    2.8052   -1.0540    0.6915 C   0  0  0  0  0  0  0  0  0  0  0  0
    3.7881   -1.7990    1.3734 C   0  0  0  0  0  0  0  0  0  0  0  0
    4.7499   -2.0499    0.9169 H   0  0  0  0  0  0  0  0  0  0  0  0
    3.5127   -2.2920    2.6559 C   0  0  0  0  0  0  0  0  0  0  0  0
    4.2815   -2.8716    3.1879 H   0  0  0  0  0  0  0  0  0  0  0  0
    2.2530   -2.0707    3.2391 C   0  0  0  0  0  0  0  0  0  0  0  0
    2.0321   -2.4746    4.2396 H   0  0  0  0  0  0  0  0  0  0  0  0
    1.2693   -1.3603    2.5384 C   0  0  0  0  0  0  0  0  0  0  0  0
    0.2699   -1.2374    2.9817 H   0  0  0  0  0  0  0  0  0  0  0  0
  1 15  1  0  0  0  0
  2  1  1  0  0  0  0
  3  2  1  0  0  0  0
  4  3  1  0  0  0  0
  5  7  1  0  0  0  0
  5  3  2  0  0  0  0
  6  5  1  0  0  0  0
  7  9  2  0  0  0  0
  8  7  1  0  0  0  0
  9 10  1  0  0  0  0
  9  1  1  0  0  0  0
 10 11  1  0  0  0  0
 10 12  1  0  0  0  0
 13 10  1  0  0  0  0
 14 22  1  0  0  0  0
 15 14  2  0  0  0  0
 15 16  1  0  0  0  0
 16 18  2  0  0  0  0
 17 16  1  0  0  0  0
 18 19  1  0  0  0  0
 18 20  1  0  0  0  0
 20 21  1  0  0  0  0
 22 23  1  0  0  0  0
 22 20  2  0  0  0  0
M  END
