2,5
q = -1.0

 25 25  0  0  0  0  0  0  0  0999 V2000
   -1.0863    2.3119   -1.0220 N   0  0  0  0  0  0  0  0  0  0  0  0
   -0.9055    1.4612    0.0408 C   0  0  0  0  0  2  0  0  0  0  0  0
    2.0254    1.2642   -2.3599 O   0  0  0  0  0  0  0  0  0  0  0  0
   -1.9712    1.7147    0.8650 N   0  0  0  0  0  0  0  0  0  0  0  0
    1.0172    1.2967   -1.6679 C   0  0  0  0  0  3  0  0  0  0  0  0
   -2.7970    2.6919    0.3120 C   0  0  0  0  0  0  0  0  0  0  0  0
   -3.7075    3.0305    0.8145 H   0  0  0  0  0  0  0  0  0  0  0  0
   -2.2860    0.9601    2.0760 C   0  0  0  0  0  0  0  0  0  0  0  0
   -3.0346    1.5537    2.6393 H   0  0  0  0  0  0  0  0  0  0  0  0
   -1.3680    0.9116    2.6907 H   0  0  0  0  0  0  0  0  0  0  0  0
   -2.2354    3.0692   -0.8813 C   0  0  0  0  0  0  0  0  0  0  0  0
   -2.5567    3.8045   -1.6242 H   0  0  0  0  0  0  0  0  0  0  0  0
   -0.1288    2.2480   -2.1031 C   0  0  0  0  0  0  0  0  0  0  0  0
    0.2782    3.2500   -2.3501 H   0  0  0  0  0  0  0  0  0  0  0  0
   -0.5927    1.8104   -3.0128 H   0  0  0  0  0  0  0  0  0  0  0  0
   -2.8037   -0.4508    1.7883 C   0  0  0  0  0  0  0  0  0  0  0  0
   -1.9956   -1.0205    1.2803 H   0  0  0  0  0  0  0  0  0  0  0  0
   -2.9840   -0.9469    2.7674 H   0  0  0  0  0  0  0  0  0  0  0  0
   -4.0679   -0.5051    0.9286 C   0  0  0  0  0  0  0  0  0  0  0  0
   -3.8606   -0.0085   -0.0439 H   0  0  0  0  0  0  0  0  0  0  0  0
   -4.8803    0.0817    1.4157 H   0  0  0  0  0  0  0  0  0  0  0  0
   -4.5320   -1.9375    0.6656 C   0  0  0  0  0  0  0  0  0  0  0  0
   -3.7439   -2.5049    0.1287 H   0  0  0  0  0  0  0  0  0  0  0  0
   -5.4484   -1.9622    0.0426 H   0  0  0  0  0  0  0  0  0  0  0  0
   -4.7533   -2.4750    1.6118 H   0  0  0  0  0  0  0  0  0  0  0  0
  1 11  1  0  0  0  0
  1  2  1  0  0  0  0
  2  4  1  0  0  0  0
  3  5  2  0  0  0  0
  4  8  1  0  0  0  0
  6  7  1  0  0  0  0
  6  4  1  0  0  0  0
  8  9  1  0  0  0  0
  8 10  1  0  0  0  0
 11  6  2  0  0  0  0
 12 11  1  0  0  0  0
 13  5  1  0  0  0  0
 13  1  1  0  0  0  0
 14 13  1  0  0  0  0
 15 13  1  0  0  0  0
 16  8  1  0  0  0  0
 16 18  1  0  0  0  0
 17 16  1  0  0  0  0
 19 21  1  0  0  0  0
 19 16  1  0  0  0  0
 20 19  1  0  0  0  0
 22 19  1  0  0  0  0
 22 25  1  0  0  0  0
 23 22  1  0  0  0  0
 24 22  1  0  0  0  0
M  END
