2,17
q = -1.0

 23 23  0  0  0  0  0  0  0  0999 V2000
   -1.6126    2.5280    0.3295 N   0  0  0  0  0  0  0  0  0  0  0  0
   -0.8833    1.6319   -0.4087 C   0  0  0  0  0  2  0  0  0  0  0  0
    2.9983    1.5062   -1.3347 O   0  0  0  0  0  0  0  0  0  0  0  0
   -0.4309    2.3477   -1.4816 N   0  0  0  0  0  0  0  0  0  0  0  0
   -1.6059    3.7789   -0.2839 C   0  0  0  0  0  0  0  0  0  0  0  0
   -2.1158    4.6424    0.1529 H   0  0  0  0  0  0  0  0  0  0  0  0
    2.9022   -0.7560   -1.1673 O   0  0  0  0  0  0  0  0  0  0  0  0
   -0.8565    3.6625   -1.4283 C   0  0  0  0  0  0  0  0  0  0  0  0
   -0.5906    4.4031   -2.1879 H   0  0  0  0  0  0  0  0  0  0  0  0
   -2.2034    2.2418    1.6234 C   0  0  0  0  0  0  0  0  0  0  0  0
   -3.3103    2.2176    1.5609 H   0  0  0  0  0  0  0  0  0  0  0  0
   -1.8917    3.0079    2.3589 H   0  0  0  0  0  0  0  0  0  0  0  0
   -1.8185    1.2611    1.9577 H   0  0  0  0  0  0  0  0  0  0  0  0
    0.4082    1.6626   -2.4604 C   0  0  0  0  0  0  0  0  0  0  0  0
    1.2518    2.3321   -2.7250 H   0  0  0  0  0  0  0  0  0  0  0  0
   -0.1988    1.4594   -3.3679 H   0  0  0  0  0  0  0  0  0  0  0  0
    0.9194    0.3562   -1.8355 C   0  0  0  0  0  3  0  0  0  0  0  0
    0.8352   -0.4756   -2.5604 H   0  0  0  0  0  0  0  0  0  0  0  0
    2.3554    0.4718   -1.4220 C   0  0  0  0  0  0  0  0  0  0  0  0
    4.2198   -0.7274   -0.6150 C   0  0  0  0  0  0  0  0  0  0  0  0
    4.9128   -0.1508   -1.2607 H   0  0  0  0  0  0  0  0  0  0  0  0
    4.5462   -1.7810   -0.5401 H   0  0  0  0  0  0  0  0  0  0  0  0
    4.2005   -0.2599    0.3912 H   0  0  0  0  0  0  0  0  0  0  0  0
  1 10  1  0  0  0  0
  2  1  1  0  0  0  0
  4  8  1  0  0  0  0
  4  2  1  0  0  0  0
  5  6  1  0  0  0  0
  5  1  1  0  0  0  0
  7 20  1  0  0  0  0
  8  5  2  0  0  0  0
  9  8  1  0  0  0  0
 10 13  1  0  0  0  0
 10 12  1  0  0  0  0
 11 10  1  0  0  0  0
 14 17  1  0  0  0  0
 14  4  1  0  0  0  0
 15 14  1  0  0  0  0
 16 14  1  0  0  0  0
 17 19  1  0  0  0  0
 18 17  1  0  0  0  0
 19  3  2  0  0  0  0
 19  7  1  0  0  0  0
 20 22  1  0  0  0  0
 20 23  1  0  0  0  0
 21 20  1  0  0  0  0
M  END
