3,31
q = -1.0, confidence = 0.0

 35 35  0  0  1  0  0  0  0  0999 V2000
    0.7452    0.7284    1.6687 C   0  0  0  0  0  3  0  0  0  0  0  0
    0.0523    0.9968    2.4756 H   0  0  0  0  0  0  0  0  0  0  0  0
    1.1322    1.5793    0.5649 C   0  0  1  0  0  3  0  0  0  0  0  0
    0.7668    3.0111    0.4114 C   0  0  0  0  0  0  0  0  0  0  0  0
    0.8970    3.8460    1.6628 C   0  0  0  0  0  0  0  0  0  0  0  0
    0.6858    4.9147    1.4653 H   0  0  0  0  0  0  0  0  0  0  0  0
    1.9154    3.7572    2.0968 H   0  0  0  0  0  0  0  0  0  0  0  0
    0.1924    3.4961    2.4475 H   0  0  0  0  0  0  0  0  0  0  0  0
    0.3694    3.5423   -0.7667 C   0  0  0  0  0  0  0  0  0  0  0  0
    0.1478    4.6173   -0.8580 H   0  0  0  0  0  0  0  0  0  0  0  0
    0.2332    2.9146   -1.6587 H   0  0  0  0  0  0  0  0  0  0  0  0
    2.1432    0.8452   -0.2259 C   0  0  0  0  0  0  0  0  0  0  0  0
    2.8969    1.3882   -1.4029 C   0  0  0  0  0  0  0  0  0  0  0  0
    2.2082    1.9727   -2.0441 H   0  0  0  0  0  0  0  0  0  0  0  0
    3.2460    0.5432   -2.0295 H   0  0  0  0  0  0  0  0  0  0  0  0
    4.0799    2.2709   -0.9784 C   0  0  0  0  0  0  0  0  0  0  0  0
    3.7310    3.1402   -0.3843 H   0  0  0  0  0  0  0  0  0  0  0  0
    4.6252    2.6612   -1.8613 H   0  0  0  0  0  0  0  0  0  0  0  0
    4.8014    1.7057   -0.3537 H   0  0  0  0  0  0  0  0  0  0  0  0
    2.2965   -0.4523    0.3602 C   0  0  0  0  0  0  0  0  0  0  0  0
    3.1972   -1.5510   -0.1173 C   0  0  0  0  0  0  0  0  0  0  0  0
    3.3396   -1.4624   -1.2140 H   0  0  0  0  0  0  0  0  0  0  0  0
    2.6885   -2.5272    0.0363 H   0  0  0  0  0  0  0  0  0  0  0  0
    4.5643   -1.5665    0.5908 C   0  0  0  0  0  0  0  0  0  0  0  0
    5.0642   -0.5865    0.4306 H   0  0  0  0  0  0  0  0  0  0  0  0
    4.4061   -1.6453    1.6887 H   0  0  0  0  0  0  0  0  0  0  0  0
    5.4690   -2.7007    0.1105 C   0  0  0  0  0  0  0  0  0  0  0  0
    5.0017   -3.6915    0.2899 H   0  0  0  0  0  0  0  0  0  0  0  0
    6.4488   -2.6926    0.6290 H   0  0  0  0  0  0  0  0  0  0  0  0
    5.6642   -2.6241   -0.9795 H   0  0  0  0  0  0  0  0  0  0  0  0
    1.3961   -0.5469    1.5169 C   0  0  1  0  0  3  0  0  0  0  0  0
    1.3232   -1.6901    2.4791 C   0  0  0  0  0  0  0  0  0  0  0  0
    2.1366   -1.6166    3.2347 H   0  0  0  0  0  0  0  0  0  0  0  0
    1.4342   -2.6655    1.9665 H   0  0  0  0  0  0  0  0  0  0  0  0
    0.3586   -1.6964    3.0217 H   0  0  0  0  0  0  0  0  0  0  0  0
  1  2  1  0  0  0  0
  3  4  1  1  0  0  0
  3  1  1  0  0  0  0
  4  5  1  0  0  0  0
  5  7  1  0  0  0  0
  5  8  1  0  0  0  0
  6  5  1  0  0  0  0
  9  4  2  0  0  0  0
 10  9  1  0  0  0  0
 11  9  1  0  0  0  0
 12 20  2  0  0  0  0
 12  3  1  0  0  0  0
 13 16  1  0  0  0  0
 13 12  1  0  0  0  0
 14 13  1  0  0  0  0
 15 13  1  0  0  0  0
 16 17  1  0  0  0  0
 16 19  1  0  0  0  0
 18 16  1  0  0  0  0
 20 31  1  0  0  0  0
 21 23  1  0  0  0  0
 21 20  1  0  0  0  0
 21 24  1  0  0  0  0
 22 21  1  0  0  0  0
 24 26  1  0  0  0  0
 25 24  1  0  0  0  0
 27 28  1  0  0  0  0
 27 24  1  0  0  0  0
 27 29  1  0  0  0  0
 30 27  1  0  0  0  0
 31  1  1  0  0  0  0
 31 32  1  1  0  0  0
 32 35  1  0  0  0  0
 32 33  1  0  0  0  0
 34 32  1  0  0  0  0
M  END
