3,19
q = -2.0, confidence = 0.57

 67 72  0  0  1  0  0  0  0  0999 V2000
   -2.2763   -0.5462   -0.2113 P   0  0  0  0  0  4  0  0  0  0  0  0
    0.4000    0.7603   -0.5298 B   0  0  1  0  0  0  0  0  0  0  0  0
    1.6604    0.7345   -1.5785 C   0  0  1  0  0  3  0  0  0  0  0  0
    2.7573    1.6599   -1.5219 C   0  0  0  0  0  3  0  0  0  0  0  0
    2.7397    2.6201   -0.9890 H   0  0  0  0  0  0  0  0  0  0  0  0
    3.8759    1.1296   -2.2398 C   0  0  0  0  0  0  0  0  0  0  0  0
    4.8582    1.6042   -2.3480 H   0  0  0  0  0  0  0  0  0  0  0  0
    3.5052   -0.1453   -2.7306 C   0  0  0  0  0  0  0  0  0  0  0  0
    4.1462   -0.8377   -3.2888 H   0  0  0  0  0  0  0  0  0  0  0  0
    2.1565   -0.3930   -2.3145 C   0  0  0  0  0  3  0  0  0  0  0  0
    1.6127   -1.3275   -2.5106 H   0  0  0  0  0  0  0  0  0  0  0  0
    1.1368    0.0441    0.7404 C   0  0  2  0  0  3  0  0  0  0  0  0
    2.0479    0.6977    1.6380 C   0  0  0  0  0  3  0  0  0  0  0  0
    2.1517    1.7852    1.7485 H   0  0  0  0  0  0  0  0  0  0  0  0
    2.8304   -0.2798    2.3332 C   0  0  0  0  0  0  0  0  0  0  0  0
    3.6256   -0.0725    3.0589 H   0  0  0  0  0  0  0  0  0  0  0  0
    2.4432   -1.5553    1.8581 C   0  0  0  0  0  0  0  0  0  0  0  0
    2.8796   -2.5175    2.1501 H   0  0  0  0  0  0  0  0  0  0  0  0
    1.4271   -1.3569    0.8701 C   0  0  0  0  0  3  0  0  0  0  0  0
    0.9549   -2.1682    0.3000 H   0  0  0  0  0  0  0  0  0  0  0  0
   -0.1237    2.2775   -0.2665 C   0  0  0  0  0  0  0  0  0  0  0  0
   -0.2753    3.1696   -1.3559 C   0  0  0  0  0  0  0  0  0  0  0  0
    0.0328    2.8338   -2.3609 H   0  0  0  0  0  0  0  0  0  0  0  0
   -0.7866    4.4673   -1.1974 C   0  0  0  0  0  0  0  0  0  0  0  0
   -0.8820    5.1331   -2.0702 H   0  0  0  0  0  0  0  0  0  0  0  0
   -1.1660    4.9221    0.0770 C   0  0  0  0  0  0  0  0  0  0  0  0
   -1.5647    5.9400    0.2100 H   0  0  0  0  0  0  0  0  0  0  0  0
   -1.0135    4.0691    1.1810 C   0  0  0  0  0  0  0  0  0  0  0  0
   -1.2943    4.4158    2.1882 H   0  0  0  0  0  0  0  0  0  0  0  0
   -0.4953    2.7754    1.0028 C   0  0  0  0  0  0  0  0  0  0  0  0
   -0.3633    2.1340    1.8898 H   0  0  0  0  0  0  0  0  0  0  0  0
   -0.8077   -0.1972   -1.1867 C   0  0  0  0  0  0  0  0  0  0  0  0
   -0.3948   -1.2030   -1.4181 H   0  0  0  0  0  0  0  0  0  0  0  0
   -1.1631    0.2378   -2.1454 H   0  0  0  0  0  0  0  0  0  0  0  0
   -3.2185    0.9449    0.2197 C   0  0  0  0  0  0  0  0  0  0  0  0
   -3.3131    1.9849   -0.7270 C   0  0  0  0  0  0  0  0  0  0  0  0
   -2.7800    1.9213   -1.6850 H   0  0  0  0  0  0  0  0  0  0  0  0
   -4.0559    3.1320   -0.4251 C   0  0  0  0  0  0  0  0  0  0  0  0
   -4.0992    3.9544   -1.1532 H   0  0  0  0  0  0  0  0  0  0  0  0
   -4.7197    3.2394    0.8078 C   0  0  0  0  0  0  0  0  0  0  0  0
   -5.2947    4.1473    1.0440 H   0  0  0  0  0  0  0  0  0  0  0  0
   -4.6444    2.1953    1.7414 C   0  0  0  0  0  0  0  0  0  0  0  0
   -5.1641    2.2772    2.7077 H   0  0  0  0  0  0  0  0  0  0  0  0
   -3.8947    1.0452    1.4525 C   0  0  0  0  0  0  0  0  0  0  0  0
   -3.8232    0.2352    2.1929 H   0  0  0  0  0  0  0  0  0  0  0  0
   -3.4284   -1.6194   -1.1447 C   0  0  0  0  0  0  0  0  0  0  0  0
   -4.7655   -1.7431   -0.7128 C   0  0  0  0  0  0  0  0  0  0  0  0
   -5.1198   -1.1674    0.1559 H   0  0  0  0  0  0  0  0  0  0  0  0
   -5.6460   -2.5903   -1.3981 C   0  0  0  0  0  0  0  0  0  0  0  0
   -6.6889   -2.6826   -1.0596 H   0  0  0  0  0  0  0  0  0  0  0  0
   -5.2006   -3.3140   -2.5172 C   0  0  0  0  0  0  0  0  0  0  0  0
   -5.8951   -3.9765   -3.0555 H   0  0  0  0  0  0  0  0  0  0  0  0
   -3.8728   -3.1879   -2.9524 C   0  0  0  0  0  0  0  0  0  0  0  0
   -3.5222   -3.7489   -3.8314 H   0  0  0  0  0  0  0  0  0  0  0  0
   -2.9847   -2.3421   -2.2696 C   0  0  0  0  0  0  0  0  0  0  0  0
   -1.9465   -2.2445   -2.6186 H   0  0  0  0  0  0  0  0  0  0  0  0
   -1.8641   -1.4465    1.3115 C   0  0  0  0  0  0  0  0  0  0  0  0
   -1.9773   -2.8506    1.3470 C   0  0  0  0  0  0  0  0  0  0  0  0
   -2.4113   -3.3939    0.4945 H   0  0  0  0  0  0  0  0  0  0  0  0
   -1.5276   -3.5553    2.4736 C   0  0  0  0  0  0  0  0  0  0  0  0
   -1.6100   -4.6521    2.4981 H   0  0  0  0  0  0  0  0  0  0  0  0
   -0.9722   -2.8641    3.5614 C   0  0  0  0  0  0  0  0  0  0  0  0
   -0.6125   -3.4211    4.4395 H   0  0  0  0  0  0  0  0  0  0  0  0
   -0.8691   -1.4643    3.5298 C   0  0  0  0  0  0  0  0  0  0  0  0
   -0.4204   -0.9208    4.3738 H   0  0  0  0  0  0  0  0  0  0  0  0
   -1.3081   -0.7524    2.4070 C   0  0  0  0  0  0  0  0  0  0  0  0
   -1.1991    0.3396    2.3714 H   0  0  0  0  0  0  0  0  0  0  0  0
  1 35  1  0  0  0  0
  1 57  1  0  0  0  0
  2 32  1  6  0  0  0
  2 21  1  0  0  0  0
  3  4  1  0  0  0  0
  3  2  1  1  0  0  0
  4  5  1  0  0  0  0
  6  4  1  0  0  0  0
  7  6  1  0  0  0  0
  8 10  1  0  0  0  0
  8  6  2  0  0  0  0
  9  8  1  0  0  0  0
 10  3  1  0  0  0  0
 11 10  1  0  0  0  0
 12  2  1  6  0  0  0
 12 19  1  0  0  0  0
 12 13  1  0  0  0  0
 13 14  1  0  0  0  0
 13 15  1  0  0  0  0
 15 16  1  0  0  0  0
 17 18  1  0  0  0  0
 17 15  2  0  0  0  0
 19 17  1  0  0  0  0
 20 19  1  0  0  0  0
 21 30  1  0  0  0  0
 22 24  1  0  0  0  0
 22 21  2  0  0  0  0
 23 22  1  0  0  0  0
 24 26  2  0  0  0  0
 25 24  1  0  0  0  0
 26 27  1  0  0  0  0
 26 28  1  0  0  0  0
 28 29  1  0  0  0  0
 30 28  2  0  0  0  0
 30 31  1  0  0  0  0
 32  1  1  0  0  0  0
 33 32  1  0  0  0  0
 34 32  1  0  0  0  0
 35 44  1  0  0  0  0
 36 38  1  0  0  0  0
 36 35  2  0  0  0  0
 37 36  1  0  0  0  0
 38 40  2  0  0  0  0
 39 38  1  0  0  0  0
 40 41  1  0  0  0  0
 40 42  1  0  0  0  0
 42 43  1  0  0  0  0
 44 42  2  0  0  0  0
 44 45  1  0  0  0  0
 46 47  1  0  0  0  0
 46  1  1  0  0  0  0
 47 48  1  0  0  0  0
 49 50  1  0  0  0  0
 49 47  2  0  0  0  0
 51 49  1  0  0  0  0
 52 51  1  0  0  0  0
 53 51  2  0  0  0  0
 53 55  1  0  0  0  0
 54 53  1  0  0  0  0
 55 46  2  0  0  0  0
 56 55  1  0  0  0  0
 57 58  2  0  0  0  0
 57 66  1  0  0  0  0
 58 60  1  0  0  0  0
 59 58  1  0  0  0  0
 60 61  1  0  0  0  0
 60 62  2  0  0  0  0
 62 63  1  0  0  0  0
 64 62  1  0  0  0  0
 64 65  1  0  0  0  0
 66 64  2  0  0  0  0
 67 66  1  0  0  0  0
M  END
