3,14
q = 0.0, confidence = 0.942

 37 38  0  0  1  0  0  0  0  0999 V2000
   -1.7693   -0.7110   -0.7216 P   0  0  0  0  0  2  0  0  0  0  0  0
   -3.1469   -1.0293    0.2349 N   0  0  0  0  0  0  0  0  0  0  0  0
   -0.2933   -1.3127    0.2088 C   0  0  2  0  0  3  0  0  0  0  0  0
    0.7418   -2.0657   -0.4847 C   0  0  0  0  0  0  0  0  0  0  0  0
    0.9261   -2.3822   -1.8597 C   0  0  0  0  0  0  0  0  0  0  0  0
    0.1604   -2.0853   -2.5921 H   0  0  0  0  0  0  0  0  0  0  0  0
    2.0625   -3.0873   -2.2403 C   0  0  0  0  0  0  0  0  0  0  0  0
    2.2042   -3.3566   -3.2977 H   0  0  0  0  0  0  0  0  0  0  0  0
    3.0510   -3.4699   -1.2889 C   0  0  0  0  0  0  0  0  0  0  0  0
    3.9368   -4.0266   -1.6299 H   0  0  0  0  0  0  0  0  0  0  0  0
    2.9154   -3.1532    0.0576 C   0  0  0  0  0  0  0  0  0  0  0  0
    3.6812   -3.4507    0.7898 H   0  0  0  0  0  0  0  0  0  0  0  0
    1.7526   -2.4503    0.4845 C   0  0  0  0  0  0  0  0  0  0  0  0
    1.3206   -1.9573    1.7707 C   0  0  0  0  0  3  0  0  0  0  0  0
    1.8463   -2.1019    2.7225 H   0  0  0  0  0  0  0  0  0  0  0  0
    0.0591   -1.3342    1.5984 C   0  0  0  0  0  3  0  0  0  0  0  0
   -0.5142   -0.8611    2.4029 H   0  0  0  0  0  0  0  0  0  0  0  0
   -3.2533   -0.8808    1.6998 C   0  0  0  0  0  0  0  0  0  0  0  0
   -2.3866   -0.2591    1.9951 H   0  0  0  0  0  0  0  0  0  0  0  0
   -4.5027   -0.1010    2.1350 C   0  0  0  0  0  0  0  0  0  0  0  0
   -4.5540    0.8792    1.6257 H   0  0  0  0  0  0  0  0  0  0  0  0
   -4.4742    0.0767    3.2289 H   0  0  0  0  0  0  0  0  0  0  0  0
   -5.4378   -0.6573    1.9197 H   0  0  0  0  0  0  0  0  0  0  0  0
   -3.1569   -2.2324    2.4252 C   0  0  0  0  0  0  0  0  0  0  0  0
   -2.2448   -2.7841    2.1241 H   0  0  0  0  0  0  0  0  0  0  0  0
   -4.0351   -2.8709    2.1968 H   0  0  0  0  0  0  0  0  0  0  0  0
   -3.1322   -2.0884    3.5249 H   0  0  0  0  0  0  0  0  0  0  0  0
   -4.2615   -1.7221   -0.4650 C   0  0  0  0  0  0  0  0  0  0  0  0
   -5.0324   -1.8902    0.3151 H   0  0  0  0  0  0  0  0  0  0  0  0
   -3.8537   -3.0983   -1.0095 C   0  0  0  0  0  0  0  0  0  0  0  0
   -3.4266   -3.7331   -0.2083 H   0  0  0  0  0  0  0  0  0  0  0  0
   -3.0893   -2.9914   -1.8065 H   0  0  0  0  0  0  0  0  0  0  0  0
   -4.7269   -3.6259   -1.4451 H   0  0  0  0  0  0  0  0  0  0  0  0
   -4.8877   -0.8357   -1.5469 C   0  0  0  0  0  0  0  0  0  0  0  0
   -5.2111    0.1350   -1.1231 H   0  0  0  0  0  0  0  0  0  0  0  0
   -5.7654   -1.3323   -2.0085 H   0  0  0  0  0  0  0  0  0  0  0  0
   -4.1530   -0.6249   -2.3512 H   0  0  0  0  0  0  0  0  0  0  0  0
  1  2  1  0  0  0  0
  2 18  1  0  0  0  0
  3  1  1  1  0  0  0
  3 16  1  0  0  0  0
  4  3  1  0  0  0  0
  4 13  1  0  0  0  0
  5  4  2  0  0  0  0
  6  5  1  0  0  0  0
  7  5  1  0  0  0  0
  7  9  2  0  0  0  0
  8  7  1  0  0  0  0
  9 11  1  0  0  0  0
 10  9  1  0  0  0  0
 11 13  2  0  0  0  0
 11 12  1  0  0  0  0
 13 14  1  0  0  0  0
 14 15  1  0  0  0  0
 16 14  1  0  0  0  0
 16 17  1  0  0  0  0
 18 19  1  0  0  0  0
 18 20  1  0  0  0  0
 18 24  1  0  0  0  0
 20 22  1  0  0  0  0
 21 20  1  0  0  0  0
 23 20  1  0  0  0  0
 24 27  1  0  0  0  0
 25 24  1  0  0  0  0
 26 24  1  0  0  0  0
 28  2  1  0  0  0  0
 28 29  1  0  0  0  0
 30 28  1  0  0  0  0
 30 31  1  0  0  0  0
 32 30  1  0  0  0  0
 33 30  1  0  0  0  0
 34 35  1  0  0  0  0
 34 28  1  0  0  0  0
 36 34  1  0  0  0  0
 37 34  1  0  0  0  0
M  END
