8,11
q = 0.0, confidence = 0.992

 18 19  0  0  0  0  0  0  0  0999 V2000
   -3.0877   -0.9714    0.0057 Br  0  0  0  0  0  0  0  0  0  0  0  0
   -0.6704    0.4252    0.7603 C   0  0  0  0  0  0  0  0  0  0  0  0
   -1.9224    0.5282    0.0600 C   0  0  0  0  0  0  0  0  0  0  0  0
   -2.3105    1.7002   -0.5675 C   0  0  0  0  0  0  0  0  0  0  0  0
   -1.4529    2.8329   -0.5529 C   0  0  0  0  0  0  0  0  0  0  0  0
   -0.2267    2.7821    0.0827 C   0  0  0  0  0  0  0  0  0  0  0  0
    0.1930    1.5947    0.7592 C   0  0  0  0  0  0  0  0  0  0  0  0
    1.4930    1.4948    1.3848 C   0  0  0  0  0  3  0  0  0  0  0  0
    1.8873    0.3310    2.0755 C   0  0  0  0  0  0  0  0  0  0  0  0
    1.0308   -0.8148    2.0831 C   0  0  0  0  0  0  0  0  0  0  0  0
   -0.2014   -0.7836    1.3983 C   0  0  0  0  0  3  0  0  0  0  0  0
   -3.2790    1.7450   -1.0842 H   0  0  0  0  0  0  0  0  0  0  0  0
   -1.7741    3.7523   -1.0642 H   0  0  0  0  0  0  0  0  0  0  0  0
    0.4434    3.6541    0.0882 H   0  0  0  0  0  0  0  0  0  0  0  0
    2.1692    2.3592    1.3282 H   0  0  0  0  0  0  0  0  0  0  0  0
    2.8778    0.2807    2.5477 H   0  0  0  0  0  0  0  0  0  0  0  0
    1.3632   -1.7458    2.5620 H   0  0  0  0  0  0  0  0  0  0  0  0
   -0.8337   -1.6796    1.3530 H   0  0  0  0  0  0  0  0  0  0  0  0
  1  3  1  0  0  0  0
  2 11  1  0  0  0  0
  3  2  2  0  0  0  0
  4  5  2  0  0  0  0
  4  3  1  0  0  0  0
  5  6  1  0  0  0  0
  6 14  1  0  0  0  0
  6  7  2  0  0  0  0
  7  2  1  0  0  0  0
  7  8  1  0  0  0  0
  8  9  1  0  0  0  0
  9 10  2  0  0  0  0
  9 16  1  0  0  0  0
 10 17  1  0  0  0  0
 11 10  1  0  0  0  0
 12  4  1  0  0  0  0
 13  5  1  0  0  0  0
 15  8  1  0  0  0  0
 18 11  1  0  0  0  0
M  END
