20,27
q = -1.0

 37 39  0  0  1  0  0  0  0  0999 V2000
    2.7528    0.8534    1.0424 O   0  0  0  0  0  0  0  0  0  0  0  0
   -0.8215    2.0795   -1.9279 O   0  0  0  0  0  0  0  0  0  0  0  0
   -1.1519   -2.5996   -0.9147 O   0  0  0  0  0  0  0  0  0  0  0  0
   -0.4857   -1.0856    0.7867 C   0  0  1  0  0  3  0  0  0  0  0  0
    0.4265    0.1068    1.0399 C   0  0  1  0  0  0  0  0  0  0  0  0
    0.4180    0.3255    2.1283 H   0  0  0  0  0  0  0  0  0  0  0  0
    1.8526   -0.1076    0.6251 C   0  0  0  0  0  0  0  0  0  0  0  0
    2.4666   -1.0697   -0.1410 C   0  0  0  0  0  0  0  0  0  0  0  0
    1.9741   -1.9381   -0.5911 H   0  0  0  0  0  0  0  0  0  0  0  0
    3.8615   -0.7025   -0.2175 C   0  0  0  0  0  0  0  0  0  0  0  0
    5.0193   -1.2351   -0.8231 C   0  0  0  0  0  0  0  0  0  0  0  0
    4.9697   -2.1645   -1.4100 H   0  0  0  0  0  0  0  0  0  0  0  0
    6.2321   -0.5534   -0.6599 C   0  0  0  0  0  0  0  0  0  0  0  0
    7.1453   -0.9539   -1.1252 H   0  0  0  0  0  0  0  0  0  0  0  0
    6.3106    0.6417    0.0927 C   0  0  0  0  0  0  0  0  0  0  0  0
    7.2804    1.1498    0.2013 H   0  0  0  0  0  0  0  0  0  0  0  0
    5.1746    1.1924    0.7062 C   0  0  0  0  0  0  0  0  0  0  0  0
    5.2177    2.1187    1.2960 H   0  0  0  0  0  0  0  0  0  0  0  0
    3.9748    0.4993    0.5315 C   0  0  0  0  0  0  0  0  0  0  0  0
   -0.2809    1.2635    0.3382 C   0  0  0  0  0  3  0  0  0  0  0  0
   -0.1527    2.2780    0.7368 H   0  0  0  0  0  0  0  0  0  0  0  0
   -0.6408    1.0904   -1.0216 C   0  0  1  0  0  3  0  0  0  0  0  0
   -0.6702    3.4251   -1.4943 C   0  0  0  0  0  0  0  0  0  0  0  0
   -1.4465    3.6974   -0.7473 H   0  0  0  0  0  0  0  0  0  0  0  0
   -0.8016    4.0537   -2.3935 H   0  0  0  0  0  0  0  0  0  0  0  0
    0.3383    3.6052   -1.0634 H   0  0  0  0  0  0  0  0  0  0  0  0
   -0.9749   -0.2246   -1.4860 C   0  0  0  0  0  3  0  0  0  0  0  0
   -1.2795   -0.3492   -2.5306 H   0  0  0  0  0  0  0  0  0  0  0  0
   -0.8431   -1.3240   -0.5744 C   0  0  2  0  0  3  0  0  0  0  0  0
   -1.8240   -2.8458   -2.1446 C   0  0  0  0  0  0  0  0  0  0  0  0
   -2.7813   -2.2863   -2.2032 H   0  0  0  0  0  0  0  0  0  0  0  0
   -2.0369   -3.9299   -2.1659 H   0  0  0  0  0  0  0  0  0  0  0  0
   -1.1874   -2.5852   -3.0175 H   0  0  0  0  0  0  0  0  0  0  0  0
   -0.5055   -2.2158    1.7785 C   0  0  0  0  0  0  0  0  0  0  0  0
   -1.3020   -2.9456    1.5435 H   0  0  0  0  0  0  0  0  0  0  0  0
   -0.6710   -1.8281    2.8033 H   0  0  0  0  0  0  0  0  0  0  0  0
    0.4653   -2.7588    1.7814 H   0  0  0  0  0  0  0  0  0  0  0  0
  2 23  1  0  0  0  0
  4  5  1  0  0  0  0
  4 34  1  6  0  0  0
  5  6  1  1  0  0  0
  7  5  1  0  0  0  0
  7  1  1  0  0  0  0
  8  7  2  0  0  0  0
  9  8  1  0  0  0  0
 10  8  1  0  0  0  0
 10 19  1  0  0  0  0
 11 13  1  0  0  0  0
 11 10  2  0  0  0  0
 12 11  1  0  0  0  0
 13 15  2  0  0  0  0
 14 13  1  0  0  0  0
 15 16  1  0  0  0  0
 15 17  1  0  0  0  0
 17 18  1  0  0  0  0
 19 17  2  0  0  0  0
 19  1  1  0  0  0  0
 20 21  1  0  0  0  0
 20  5  1  0  0  0  0
 22  2  1  1  0  0  0
 22 20  1  0  0  0  0
 23 26  1  0  0  0  0
 23 24  1  0  0  0  0
 25 23  1  0  0  0  0
 27 22  1  0  0  0  0
 27 29  1  0  0  0  0
 28 27  1  0  0  0  0
 29  3  1  1  0  0  0
 29  4  1  0  0  0  0
 30  3  1  0  0  0  0
 31 30  1  0  0  0  0
 32 30  1  0  0  0  0
 33 30  1  0  0  0  0
 34 37  1  0  0  0  0
 34 36  1  0  0  0  0
 35 34  1  0  0  0  0
M  END
