5,15
q = -1.0, confidence = 0.026

 24 27  0  0  1  0  0  0  0  0999 V2000
   -2.8665   -1.8131   -0.0206 C   0  0  0  0  0  0  0  0  0  0  0  0
   -3.3880   -0.7893   -0.8644 C   0  0  0  0  0  0  0  0  0  0  0  0
   -2.6037    0.1437   -1.5543 C   0  0  0  0  0  0  0  0  0  0  0  0
   -1.1818    0.0744   -1.4147 C   0  0  1  0  0  3  0  0  0  0  0  0
    0.0009    0.7901   -1.9010 C   0  0  0  0  0  3  0  0  0  0  0  0
    1.1830    0.0778   -1.4125 C   0  0  0  0  0  0  0  0  0  0  0  0
    2.6052    0.1455   -1.5565 C   0  0  0  0  0  0  0  0  0  0  0  0
    3.3899   -0.7861   -0.8660 C   0  0  0  0  0  0  0  0  0  0  0  0
    2.8702   -1.8085   -0.0186 C   0  0  0  0  0  0  0  0  0  0  0  0
    0.6962   -2.8759    0.9264 C   0  0  0  0  0  0  0  0  0  0  0  0
    1.4839   -1.9202    0.1663 C   0  0  0  0  0  0  0  0  0  0  0  0
   -0.6915   -2.8779    0.9247 C   0  0  0  0  0  0  0  0  0  0  0  0
   -1.4800   -1.9242    0.1634 C   0  0  0  0  0  0  0  0  0  0  0  0
    0.7082   -0.9602   -0.5390 C   0  0  0  0  0  0  0  0  0  0  0  0
   -0.7053   -0.9616   -0.5400 C   0  0  1  0  0  3  0  0  0  0  0  0
   -3.5580   -2.5120    0.4736 H   0  0  0  0  0  0  0  0  0  0  0  0
   -4.4807   -0.7328   -0.9857 H   0  0  0  0  0  0  0  0  0  0  0  0
   -3.0770    0.8959   -2.2016 H   0  0  0  0  0  0  0  0  0  0  0  0
    0.0006    1.6205   -2.6152 H   0  0  0  0  0  0  0  0  0  0  0  0
    3.0777    0.8965   -2.2058 H   0  0  0  0  0  0  0  0  0  0  0  0
    4.4824   -0.7305   -0.9897 H   0  0  0  0  0  0  0  0  0  0  0  0
    3.5629   -2.5061    0.4759 H   0  0  0  0  0  0  0  0  0  0  0  0
    1.2265   -3.6352    1.5220 H   0  0  0  0  0  0  0  0  0  0  0  0
   -1.2210   -3.6384    1.5195 H   0  0  0  0  0  0  0  0  0  0  0  0
  1 13  2  0  0  0  0
  1 16  1  0  0  0  0
  2  1  1  0  0  0  0
  3  4  1  0  0  0  0
  3  2  2  0  0  0  0
  4  5  1  1  0  0  0
  4 15  1  0  0  0  0
  5  6  1  0  0  0  0
  6 14  1  0  0  0  0
  7  6  2  0  0  0  0
  7  8  1  0  0  0  0
  8  9  2  0  0  0  0
  9 11  1  0  0  0  0
  9 22  1  0  0  0  0
 10 23  1  0  0  0  0
 11 10  1  0  0  0  0
 12 10  2  0  0  0  0
 12 24  1  0  0  0  0
 13 12  1  0  0  0  0
 14 11  2  0  0  0  0
 15 14  1  6  0  0  0
 15 13  1  0  0  0  0
 17  2  1  0  0  0  0
 18  3  1  0  0  0  0
 19  5  1  0  0  0  0
 20  7  1  0  0  0  0
 21  8  1  0  0  0  0
M  END
