1,25
q = 0.0, confidence = 0.662

 44 50  0  0  1  0  0  0  0  0999 V2000
   -0.4527   -1.3251    1.6971 C   0  0  0  0  0  3  0  0  0  0  0  0
   -1.5131   -1.4678    0.7393 C   0  0  0  0  0  0  0  0  0  0  0  0
   -2.7616   -0.7348    0.6135 C   0  0  0  0  0  0  0  0  0  0  0  0
   -3.0234    0.3318    1.4740 C   0  0  1  0  0  3  0  0  0  0  0  0
   -3.6300   -1.1421   -0.4480 C   0  0  0  0  0  0  0  0  0  0  0  0
   -3.2617   -2.1320   -1.3615 C   0  0  0  0  0  0  0  0  0  0  0  0
   -2.0000   -2.7644   -1.3123 C   0  0  0  0  0  0  0  0  0  0  0  0
   -1.1188   -2.4237   -0.2740 C   0  0  0  0  0  0  0  0  0  0  0  0
    0.2394   -2.8413    0.0394 C   0  0  0  0  0  0  0  0  0  0  0  0
    1.1406   -3.7089   -0.6195 C   0  0  0  0  0  0  0  0  0  0  0  0
    2.3865   -3.9424   -0.0433 C   0  0  0  0  0  0  0  0  0  0  0  0
    2.7546   -3.3358    1.1888 C   0  0  0  0  0  0  0  0  0  0  0  0
    1.8927   -2.4712    1.8541 C   0  0  0  0  0  0  0  0  0  0  0  0
    0.6214   -2.2028    1.2822 C   0  0  0  0  0  0  0  0  0  0  0  0
   -0.5399   -0.8488    2.6777 H   0  0  0  0  0  0  0  0  0  0  0  0
   -4.5926   -0.6220   -0.5586 H   0  0  0  0  0  0  0  0  0  0  0  0
   -3.9577   -2.3937   -2.1726 H   0  0  0  0  0  0  0  0  0  0  0  0
   -1.7061   -3.4892   -2.0843 H   0  0  0  0  0  0  0  0  0  0  0  0
    0.8609   -4.1829   -1.5716 H   0  0  0  0  0  0  0  0  0  0  0  0
    3.1031   -4.6074   -0.5479 H   0  0  0  0  0  0  0  0  0  0  0  0
    3.7468   -3.5465    1.6145 H   0  0  0  0  0  0  0  0  0  0  0  0
    2.1905   -1.9898    2.7974 H   0  0  0  0  0  0  0  0  0  0  0  0
    0.4686    1.5783    1.8290 C   0  0  0  0  0  0  0  0  0  0  0  0
    1.2945    2.0970    0.7952 C   0  0  0  0  0  0  0  0  0  0  0  0
    0.4509    2.4733   -0.3327 C   0  0  2  0  0  3  0  0  0  0  0  0
   -0.9208    2.1843    0.0567 C   0  0  0  0  0  0  0  0  0  0  0  0
   -0.8926    1.6639    1.3960 C   0  0  0  0  0  0  0  0  0  0  0  0
    0.8101    1.2327    2.8119 H   0  0  0  0  0  0  0  0  0  0  0  0
    2.7384    2.3749    0.7455 C   0  0  0  0  0  0  0  0  0  0  0  0
    1.0223    2.9693   -1.5210 C   0  0  0  0  0  3  0  0  0  0  0  0
   -2.1614    2.5623   -0.5851 C   0  0  0  0  0  0  0  0  0  0  0  0
   -2.1398    1.3168    2.1136 C   0  0  1  0  0  0  0  0  0  0  0  0
    3.5822    2.0371    1.7398 C   0  0  0  0  0  2  0  0  0  0  0  0
    3.2562    2.9774   -0.4808 C   0  0  0  0  0  0  0  0  0  0  0  0
    2.4180    3.2172   -1.5579 C   0  0  0  0  0  0  0  0  0  0  0  0
    0.3940    3.1688   -2.3989 H   0  0  0  0  0  0  0  0  0  0  0  0
   -3.3570    2.4174    0.0584 C   0  0  0  0  0  0  0  0  0  0  0  0
   -2.1181    3.0382   -1.5750 H   0  0  0  0  0  0  0  0  0  0  0  0
   -3.4878    1.7231    1.3604 C   0  0  1  0  0  0  0  0  0  0  0  0
   -2.1523    1.4528    3.2103 H   0  0  0  0  0  0  0  0  0  0  0  0
    4.3292    3.2001   -0.5395 H   0  0  0  0  0  0  0  0  0  0  0  0
    2.8589    3.6306   -2.4776 H   0  0  0  0  0  0  0  0  0  0  0  0
   -4.2747    2.8137   -0.4038 H   0  0  0  0  0  0  0  0  0  0  0  0
   -4.2926    2.0673    2.0373 H   0  0  0  0  0  0  0  0  0  0  0  0
  1 15  1  0  0  0  0
  2  1  1  0  0  0  0
  3  2  1  0  0  0  0
  4  3  1  6  0  0  0
  4 32  1  0  0  0  0
  5  3  2  0  0  0  0
  6  7  2  0  0  0  0
  6  5  1  0  0  0  0
  7  8  1  0  0  0  0
  8  9  1  0  0  0  0
  8  2  2  0  0  0  0
  9 14  1  0  0  0  0
 10 11  1  0  0  0  0
 10  9  2  0  0  0  0
 11 12  2  0  0  0  0
 12 21  1  0  0  0  0
 12 13  1  0  0  0  0
 13 22  1  0  0  0  0
 14  1  1  0  0  0  0
 14 13  2  0  0  0  0
 16  5  1  0  0  0  0
 17  6  1  0  0  0  0
 18  7  1  0  0  0  0
 19 10  1  0  0  0  0
 20 11  1  0  0  0  0
 23 28  1  0  0  0  0
 24 23  2  0  0  0  0
 25 30  1  6  0  0  0
 25 26  1  0  0  0  0
 25 24  1  0  0  0  0
 26 27  2  0  0  0  0
 27 23  1  0  0  0  0
 27 32  1  0  0  0  0
 29 24  1  0  0  0  0
 29 33  2  0  0  0  0
 31 26  1  0  0  0  0
 31 37  2  0  0  0  0
 32 40  1  1  0  0  0
 34 29  1  0  0  0  0
 35 30  1  0  0  0  0
 35 34  2  0  0  0  0
 36 30  1  0  0  0  0
 37 39  1  0  0  0  0
 38 31  1  0  0  0  0
 39  4  1  0  0  0  0
 39 44  1  1  0  0  0
 39 32  1  0  0  0  0
 41 34  1  0  0  0  0
 42 35  1  0  0  0  0
 43 37  1  0  0  0  0
M  END
