1,6
q = -2.0, confidence = 0.864

 47 47  0  0  1  0  0  0  0  0999 V2000
    1.0361   -0.7994    0.4353 C   0  0  0  0  0  3  0  0  0  0  0  0
    1.9459   -0.4009   -0.5054 C   0  0  0  0  0  0  0  0  0  0  0  0
    1.6907    0.9146   -1.1181 C   0  0  0  0  0  0  0  0  0  0  0  0
    2.2890    1.3859   -2.0788 O   0  0  0  0  0  0  0  0  0  0  0  0
    0.5347    1.7246   -0.4969 C   0  0  2  0  0  3  0  0  0  0  0  0
   -0.7935    1.3641   -0.8831 C   0  0  0  0  0  3  0  0  0  0  0  0
   -1.2158    0.0191   -1.0828 C   0  0  0  0  0  3  0  0  0  0  0  0
   -2.6137   -0.3912   -1.3132 C   0  0  0  0  0  0  0  0  0  0  0  0
   -3.7153    0.4907   -1.2197 C   0  0  0  0  0  0  0  0  0  0  0  0
   -5.0193    0.0306   -1.4390 C   0  0  0  0  0  0  0  0  0  0  0  0
   -5.2536   -1.3198   -1.7489 C   0  0  0  0  0  0  0  0  0  0  0  0
   -4.1703   -2.2086   -1.8366 C   0  0  0  0  0  0  0  0  0  0  0  0
   -2.8657   -1.7487   -1.6205 C   0  0  0  0  0  0  0  0  0  0  0  0
    1.1538   -2.1060    1.1372 C   0  0  0  0  0  0  0  0  0  0  0  0
    1.6703   -2.2339    2.2327 O   0  0  0  0  0  0  0  0  0  0  0  0
    0.4839   -3.0769    0.4748 O   0  0  0  0  0  0  0  0  0  0  0  0
    0.5434   -4.3759    1.0784 C   0  0  0  0  0  0  0  0  0  0  0  0
    3.0710   -1.3094   -0.8907 C   0  0  0  0  0  0  0  0  0  0  0  0
    3.1816   -2.4588   -0.4855 O   0  0  0  0  0  0  0  0  0  0  0  0
    3.9708   -0.7248   -1.7047 O   0  0  0  0  0  0  0  0  0  0  0  0
    5.0774   -1.5508   -2.0818 C   0  0  0  0  0  0  0  0  0  0  0  0
    0.8708    3.2201   -0.2415 C   0  0  0  0  0  0  0  0  0  0  0  0
    2.2916    3.3563    0.3459 C   0  0  0  0  0  0  0  0  0  0  0  0
    0.7973    3.9735   -1.5947 C   0  0  0  0  0  0  0  0  0  0  0  0
   -0.1131    3.8928    0.7316 C   0  0  0  0  0  0  0  0  0  0  0  0
   -1.5546    2.1616   -0.9107 H   0  0  0  0  0  0  0  0  0  0  0  0
   -0.4718   -0.7181   -1.4169 H   0  0  0  0  0  0  0  0  0  0  0  0
   -3.5590    1.5509   -0.9701 H   0  0  0  0  0  0  0  0  0  0  0  0
   -5.8631    0.7332   -1.3658 H   0  0  0  0  0  0  0  0  0  0  0  0
   -6.2801   -1.6780   -1.9183 H   0  0  0  0  0  0  0  0  0  0  0  0
   -4.3438   -3.2693   -2.0730 H   0  0  0  0  0  0  0  0  0  0  0  0
   -2.0156   -2.4474   -1.6704 H   0  0  0  0  0  0  0  0  0  0  0  0
   -0.1175   -5.0241    0.4765 H   0  0  0  0  0  0  0  0  0  0  0  0
    1.5843   -4.7562    1.0538 H   0  0  0  0  0  0  0  0  0  0  0  0
    0.1986   -4.3383    2.1310 H   0  0  0  0  0  0  0  0  0  0  0  0
    5.7074   -0.9296   -2.7425 H   0  0  0  0  0  0  0  0  0  0  0  0
    5.6497   -1.8763   -1.1894 H   0  0  0  0  0  0  0  0  0  0  0  0
    4.7293   -2.4575   -2.6167 H   0  0  0  0  0  0  0  0  0  0  0  0
    2.5018    4.4209    0.5722 H   0  0  0  0  0  0  0  0  0  0  0  0
    2.3956    2.7857    1.2900 H   0  0  0  0  0  0  0  0  0  0  0  0
    3.0643    3.0040   -0.3621 H   0  0  0  0  0  0  0  0  0  0  0  0
   -0.2306    3.9450   -2.0110 H   0  0  0  0  0  0  0  0  0  0  0  0
    1.0714    5.0383   -1.4456 H   0  0  0  0  0  0  0  0  0  0  0  0
    1.4853    3.5207   -2.3302 H   0  0  0  0  0  0  0  0  0  0  0  0
   -1.1671    3.8255    0.3968 H   0  0  0  0  0  0  0  0  0  0  0  0
   -0.0418    3.4695    1.7519 H   0  0  0  0  0  0  0  0  0  0  0  0
    0.1299    4.9721    0.8026 H   0  0  0  0  0  0  0  0  0  0  0  0
  1 14  1  0  0  0  0
  2  1  2  0  0  0  0
  3  2  1  0  0  0  0
  4  3  2  0  0  0  0
  5  3  1  6  0  0  0
  5 22  1  0  0  0  0
  6  5  1  0  0  0  0
  7  6  1  0  0  0  0
  8  9  1  0  0  0  0
  8  7  1  0  0  0  0
  9 28  1  0  0  0  0
 10 29  1  0  0  0  0
 10  9  2  0  0  0  0
 11 10  1  0  0  0  0
 12 11  2  0  0  0  0
 12 13  1  0  0  0  0
 13  8  2  0  0  0  0
 14 15  2  0  0  0  0
 16 17  1  0  0  0  0
 16 14  1  0  0  0  0
 17 35  1  0  0  0  0
 18  2  1  0  0  0  0
 18 19  2  0  0  0  0
 20 18  1  0  0  0  0
 21 20  1  0  0  0  0
 21 37  1  0  0  0  0
 22 23  1  0  0  0  0
 22 25  1  0  0  0  0
 23 39  1  0  0  0  0
 23 40  1  0  0  0  0
 24 43  1  0  0  0  0
 24 22  1  0  0  0  0
 25 47  1  0  0  0  0
 25 46  1  0  0  0  0
 26  6  1  0  0  0  0
 27  7  1  0  0  0  0
 30 11  1  0  0  0  0
 31 12  1  0  0  0  0
 32 13  1  0  0  0  0
 33 17  1  0  0  0  0
 34 17  1  0  0  0  0
 36 21  1  0  0  0  0
 38 21  1  0  0  0  0
 41 23  1  0  0  0  0
 42 24  1  0  0  0  0
 44 24  1  0  0  0  0
 45 25  1  0  0  0  0
M  END
