17,18
q = -2.0, confidence = 0.746

 23 26  0  0  1  0  0  0  0  0999 V2000
    1.1849    1.6798    0.8088 S   0  0  0  0  0  0  0  0  0  0  0  0
    0.5737    0.6758    1.7317 O   0  0  0  0  0  0  0  0  0  0  0  0
    1.5913    2.9932    1.3198 O   0  0  0  0  0  0  0  0  0  0  0  0
   -1.8793    1.7852    1.4957 F   0  0  0  0  0  0  0  0  0  0  0  0
    0.2626    2.0007   -0.5935 N   0  0  0  0  0  0  0  0  0  0  0  0
   -1.0271    1.8871   -0.7538 C   0  0  0  0  0  0  0  0  0  0  0  0
   -2.0222    1.1870    0.2769 C   0  0  2  0  0  0  0  0  0  0  0  0
   -3.5948    1.1234   -0.1874 C   0  0  1  0  0  0  0  0  0  0  0  0
   -4.0811    1.9116   -1.2078 C   0  0  0  0  0  0  0  0  0  0  0  0
   -3.0024    2.3341   -1.8881 C   0  0  0  0  0  0  0  0  0  0  0  0
   -1.7337    2.4952   -1.8579 C   0  0  0  0  0  0  0  0  0  0  0  0
    2.6343    0.8614    0.0227 C   0  0  0  0  0  0  0  0  0  0  0  0
    3.8145    1.5775   -0.1842 C   0  0  0  0  0  0  0  0  0  0  0  0
    4.7318    0.8084   -0.6948 C   0  0  0  0  0  0  0  0  0  0  0  0
    4.8076   -0.4693   -1.0609 C   0  0  0  0  0  0  0  0  0  0  0  0
    3.6635   -1.0450   -0.8418 C   0  0  0  0  0  0  0  0  0  0  0  0
    2.4986   -0.5627   -0.3166 C   0  0  0  0  0  0  0  0  0  0  0  0
   -1.5010   -1.5433    0.2019 C   0  0  0  0  0  0  0  0  0  0  0  0
   -2.3511   -2.6434    0.2395 C   0  0  0  0  0  0  0  0  0  0  0  0
   -3.6369   -2.4517    0.1309 C   0  0  0  0  0  0  0  0  0  0  0  0
   -4.4459   -1.4212    0.1979 C   0  0  0  0  0  0  0  0  0  0  0  0
   -3.6722   -0.2360    0.2437 C   0  0  0  0  0  0  0  0  0  0  0  0
   -2.2095   -0.3111    0.3277 C   0  0  0  0  0  0  0  0  0  0  0  0
  1  3  2  0  0  0  0
  1  2  2  0  0  0  0
  5  1  1  0  0  0  0
  6  5  2  0  0  0  0
  6  7  1  0  0  0  0
  7 23  1  0  0  0  0
  7  4  1  1  0  0  0
  8  9  1  6  0  0  0
  8 22  1  0  0  0  0
  8  7  1  0  0  0  0
 10 11  2  0  0  0  0
 10  9  1  0  0  0  0
 11  6  1  0  0  0  0
 12  1  1  0  0  0  0
 13 12  1  0  0  0  0
 14 13  2  0  0  0  0
 15 16  2  0  0  0  0
 15 14  1  0  0  0  0
 16 17  1  0  0  0  0
 17 12  2  0  0  0  0
 18 19  2  0  0  0  0
 18 23  1  0  0  0  0
 20 21  2  0  0  0  0
 20 19  1  0  0  0  0
 21 22  1  0  0  0  0
 22 23  2  0  0  0  0
M  END
