1
q = 0.0, confidence = 0.712

 53 58  0  0  1  0  0  0  0  0999 V2000
   -0.3032    0.0000   -0.7582 C   0  0  0  0  0  3  0  0  0  0  0  0
    0.4600   -1.1683   -1.1704 C   0  0  0  0  0  0  0  0  0  0  0  0
    0.2603   -2.5729   -0.9956 C   0  0  0  0  0  0  0  0  0  0  0  0
    1.2124   -3.4607   -1.4837 C   0  0  0  0  0  0  0  0  0  0  0  0
    2.3905   -3.0124   -2.1376 C   0  0  0  0  0  0  0  0  0  0  0  0
    2.6299   -1.6537   -2.3062 C   0  0  0  0  0  0  0  0  0  0  0  0
    1.6832   -0.7229   -1.8187 C   0  0  0  0  0  0  0  0  0  0  0  0
   -1.5158   -0.0000    0.1888 C   0  0  0  0  0  0  0  0  0  0  0  0
   -2.4487    1.2086    0.0062 C   0  0  0  0  0  0  0  0  0  0  0  0
   -2.7586    1.6779   -1.2857 C   0  0  0  0  0  0  0  0  0  0  0  0
   -3.6801    2.7175   -1.4686 C   0  0  0  0  0  0  0  0  0  0  0  0
   -4.3149    3.3030   -0.3610 C   0  0  0  0  0  0  0  0  0  0  0  0
   -4.0248    2.8317    0.9280 C   0  0  0  0  0  0  0  0  0  0  0  0
   -3.1024    1.7891    1.1090 C   0  0  0  0  0  0  0  0  0  0  0  0
   -0.7643   -0.0001    1.5236 C   0  0  1  0  0  3  0  0  0  0  0  0
   -0.1486   -1.1507    2.1197 C   0  0  0  0  0  3  0  0  0  0  0  0
    0.7975    0.7075    3.0968 C   0  0  0  0  0  0  0  0  0  0  0  0
   -0.6410   -2.9518   -0.4998 H   0  0  0  0  0  0  0  0  0  0  0  0
    1.0508   -4.5410   -1.3514 H   0  0  0  0  0  0  0  0  0  0  0  0
    3.1215   -3.7485   -2.5028 H   0  0  0  0  0  0  0  0  0  0  0  0
    3.5491   -1.2978   -2.7942 H   0  0  0  0  0  0  0  0  0  0  0  0
   -2.2555    1.2343   -2.1573 H   0  0  0  0  0  0  0  0  0  0  0  0
   -3.9001    3.0765   -2.4854 H   0  0  0  0  0  0  0  0  0  0  0  0
   -5.0355    4.1224   -0.5035 H   0  0  0  0  0  0  0  0  0  0  0  0
   -4.5209    3.2766    1.8040 H   0  0  0  0  0  0  0  0  0  0  0  0
   -2.8899    1.4202    2.1231 H   0  0  0  0  0  0  0  0  0  0  0  0
   -0.3538   -2.1953    1.8595 H   0  0  0  0  0  0  0  0  0  0  0  0
    1.4312    1.3569    3.7107 H   0  0  0  0  0  0  0  0  0  0  0  0
    0.4600    1.1685   -1.1703 C   0  0  0  0  0  0  0  0  0  0  0  0
    1.6832    0.7232   -1.8186 C   0  0  0  0  0  0  0  0  0  0  0  0
   -0.1486    1.1505    2.1198 C   0  0  0  0  0  3  0  0  0  0  0  0
    0.7975   -0.7078    3.0967 C   0  0  0  0  0  0  0  0  0  0  0  0
   -2.4487   -1.2086    0.0061 C   0  0  0  0  0  0  0  0  0  0  0  0
    0.2601    2.5730   -0.9952 C   0  0  0  0  0  0  0  0  0  0  0  0
    2.6298    1.6541   -2.3060 C   0  0  0  0  0  0  0  0  0  0  0  0
   -0.3539    2.1950    1.8597 H   0  0  0  0  0  0  0  0  0  0  0  0
    1.4313   -1.3573    3.7106 H   0  0  0  0  0  0  0  0  0  0  0  0
   -2.7590   -1.6776   -1.2858 C   0  0  0  0  0  0  0  0  0  0  0  0
   -3.1020   -1.7895    1.1089 C   0  0  0  0  0  0  0  0  0  0  0  0
    1.2122    3.4609   -1.4833 C   0  0  0  0  0  0  0  0  0  0  0  0
   -0.6412    2.9518   -0.4994 H   0  0  0  0  0  0  0  0  0  0  0  0
    2.3904    3.0129   -2.1372 C   0  0  0  0  0  0  0  0  0  0  0  0
    3.5490    1.2983   -2.7941 H   0  0  0  0  0  0  0  0  0  0  0  0
   -3.6805   -2.7171   -1.4688 C   0  0  0  0  0  0  0  0  0  0  0  0
   -2.2562   -1.2336   -2.1575 H   0  0  0  0  0  0  0  0  0  0  0  0
   -4.0244   -2.8321    0.9278 C   0  0  0  0  0  0  0  0  0  0  0  0
   -2.8892   -1.4210    2.1231 H   0  0  0  0  0  0  0  0  0  0  0  0
    1.0506    4.5413   -1.3507 H   0  0  0  0  0  0  0  0  0  0  0  0
    3.1213    3.7490   -2.5023 H   0  0  0  0  0  0  0  0  0  0  0  0
   -4.3149   -3.3030   -0.3612 C   0  0  0  0  0  0  0  0  0  0  0  0
   -3.9008   -3.0758   -2.4857 H   0  0  0  0  0  0  0  0  0  0  0  0
   -4.5202   -3.2773    1.8038 H   0  0  0  0  0  0  0  0  0  0  0  0
   -5.0355   -4.1224   -0.5037 H   0  0  0  0  0  0  0  0  0  0  0  0
  1  8  1  0  0  0  0
  2  3  1  0  0  0  0
  2  1  1  0  0  0  0
  3 18  1  0  0  0  0
  4 19  1  0  0  0  0
  4  3  2  0  0  0  0
  5  4  1  0  0  0  0
  6  5  2  0  0  0  0
  6  7  1  0  0  0  0
  7 30  1  0  0  0  0
  7  2  2  0  0  0  0
  9  8  1  0  0  0  0
  9 14  1  0  0  0  0
 10  9  2  0  0  0  0
 11 10  1  0  0  0  0
 11 12  2  0  0  0  0
 12 13  1  0  0  0  0
 13 14  2  0  0  0  0
 13 25  1  0  0  0  0
 14 26  1  0  0  0  0
 15  8  1  6  0  0  0
 15 16  1  0  0  0  0
 15 31  1  0  0  0  0
 16 32  1  0  0  0  0
 17 28  1  0  0  0  0
 20  5  1  0  0  0  0
 21  6  1  0  0  0  0
 22 10  1  0  0  0  0
 23 11  1  0  0  0  0
 24 12  1  0  0  0  0
 27 16  1  0  0  0  0
 29 34  1  0  0  0  0
 29  1  1  0  0  0  0
 30 29  2  0  0  0  0
 31 17  1  0  0  0  0
 32 17  2  0  0  0  0
 32 37  1  0  0  0  0
 33  8  1  0  0  0  0
 33 39  1  0  0  0  0
 34 41  1  0  0  0  0
 35 42  2  0  0  0  0
 35 30  1  0  0  0  0
 36 31  1  0  0  0  0
 38 33  2  0  0  0  0
 39 47  1  0  0  0  0
 40 48  1  0  0  0  0
 40 34  2  0  0  0  0
 42 40  1  0  0  0  0
 43 35  1  0  0  0  0
 44 38  1  0  0  0  0
 44 50  2  0  0  0  0
 45 38  1  0  0  0  0
 46 39  2  0  0  0  0
 46 52  1  0  0  0  0
 49 42  1  0  0  0  0
 50 46  1  0  0  0  0
 51 44  1  0  0  0  0
 53 50  1  0  0  0  0
M  END
