3,6
q = -1.0

 50 53  0  0  0  0  0  0  0  0999 V2000
    2.0627    1.0709    0.0477 P   0  0  0  0  0  4  0  0  0  0  0  0
    0.0682    2.4847    1.5641 O   0  0  0  0  0  0  0  0  0  0  0  0
    0.8503   -0.6729    1.6441 C   0  0  0  0  0  3  0  0  0  0  0  0
   -5.9980    3.3520   -0.3747 N   0  0  0  0  0  0  0  0  0  0  0  0
    1.9768    0.1953    1.6189 C   0  0  0  0  0  0  0  0  0  0  0  0
    0.3326    1.2030   -0.4312 C   0  0  0  0  0  3  0  0  0  0  0  0
    0.1639    1.3989   -1.5054 H   0  0  0  0  0  0  0  0  0  0  0  0
    3.0613    2.5971    0.1740 C   0  0  0  0  0  0  0  0  0  0  0  0
   -1.8890    2.3517    0.2302 C   0  0  0  0  0  0  0  0  0  0  0  0
    2.9322    0.0123   -1.1567 C   0  0  0  0  0  0  0  0  0  0  0  0
   -4.5685    3.0084   -0.1669 C   0  0  0  0  0  0  0  0  0  0  0  0
    4.2054   -0.4780   -0.7967 C   0  0  0  0  0  0  0  0  0  0  0  0
    4.6454   -0.2097    0.1764 H   0  0  0  0  0  0  0  0  0  0  0  0
    2.3602   -0.3474   -2.3923 C   0  0  0  0  0  0  0  0  0  0  0  0
    1.3427   -0.0287   -2.6640 H   0  0  0  0  0  0  0  0  0  0  0  0
   -6.5474    2.9101   -1.3837 O   0  0  0  0  0  0  0  0  0  0  0  0
    0.6604   -1.4252    2.8224 C   0  0  0  0  0  0  0  0  0  0  0  0
   -0.1936   -2.1154    2.9063 H   0  0  0  0  0  0  0  0  0  0  0  0
   -0.4409    2.0438    0.5219 C   0  0  0  0  0  0  0  0  0  0  0  0
   -2.5725    3.1597    1.1662 C   0  0  0  0  0  0  0  0  0  0  0  0
   -2.0125    3.5111    2.0449 H   0  0  0  0  0  0  0  0  0  0  0  0
   -3.9169    2.2077   -1.1138 C   0  0  0  0  0  0  0  0  0  0  0  0
   -4.4747    1.8452   -1.9873 H   0  0  0  0  0  0  0  0  0  0  0  0
   -2.5708    1.8808   -0.9121 C   0  0  0  0  0  0  0  0  0  0  0  0
   -2.0715    1.2129   -1.6327 H   0  0  0  0  0  0  0  0  0  0  0  0
   -3.9151    3.4923    0.9761 C   0  0  0  0  0  0  0  0  0  0  0  0
   -4.4747    4.1152    1.6863 H   0  0  0  0  0  0  0  0  0  0  0  0
    2.8867    0.3081    2.6838 C   0  0  0  0  0  0  0  0  0  0  0  0
    3.7461    0.9939    2.6187 H   0  0  0  0  0  0  0  0  0  0  0  0
    4.5389    4.9832    0.3301 C   0  0  0  0  0  0  0  0  0  0  0  0
    5.1185    5.9168    0.3926 H   0  0  0  0  0  0  0  0  0  0  0  0
    2.9135    3.4466    1.2931 C   0  0  0  0  0  0  0  0  0  0  0  0
    2.1939    3.1808    2.0793 H   0  0  0  0  0  0  0  0  0  0  0  0
    2.6665   -0.4555    3.8392 C   0  0  0  0  0  0  0  0  0  0  0  0
    3.3584   -0.3797    4.6912 H   0  0  0  0  0  0  0  0  0  0  0  0
    4.6774    4.1456   -0.7879 C   0  0  0  0  0  0  0  0  0  0  0  0
    5.3636    4.4192   -1.6035 H   0  0  0  0  0  0  0  0  0  0  0  0
   -6.5414    4.0566    0.4769 O   0  0  0  0  0  0  0  0  0  0  0  0
    3.9439    2.9531   -0.8682 C   0  0  0  0  0  0  0  0  0  0  0  0
    4.0614    2.2940   -1.7413 H   0  0  0  0  0  0  0  0  0  0  0  0
    1.5519   -1.3105    3.9037 C   0  0  0  0  0  0  0  0  0  0  0  0
    1.3740   -1.9025    4.8157 H   0  0  0  0  0  0  0  0  0  0  0  0
    4.3352   -1.6778   -2.9063 C   0  0  0  0  0  0  0  0  0  0  0  0
    4.8815   -2.3451   -3.5902 H   0  0  0  0  0  0  0  0  0  0  0  0
    3.6587    4.6318    1.3665 C   0  0  0  0  0  0  0  0  0  0  0  0
    3.5438    5.2909    2.2403 H   0  0  0  0  0  0  0  0  0  0  0  0
    3.0677   -1.1921   -3.2620 C   0  0  0  0  0  0  0  0  0  0  0  0
    2.6075   -1.4824   -4.2182 H   0  0  0  0  0  0  0  0  0  0  0  0
    4.9036   -1.3212   -1.6715 C   0  0  0  0  0  0  0  0  0  0  0  0
    5.8934   -1.7071   -1.3846 H   0  0  0  0  0  0  0  0  0  0  0  0
  1  8  1  0  0  0  0
  1  5  1  0  0  0  0
  3 17  1  0  0  0  0
  4 11  1  0  0  0  0
  4 38  2  0  0  0  0
  5  3  2  0  0  0  0
  5 28  1  0  0  0  0
  6  1  1  0  0  0  0
  6 19  1  0  0  0  0
  7  6  1  0  0  0  0
  8 32  1  0  0  0  0
  9 19  1  0  0  0  0
  9 20  1  0  0  0  0
 10 12  1  0  0  0  0
 10  1  1  0  0  0  0
 11 26  1  0  0  0  0
 12 13  1  0  0  0  0
 14 10  2  0  0  0  0
 15 14  1  0  0  0  0
 16  4  2  0  0  0  0
 17 18  1  0  0  0  0
 17 41  2  0  0  0  0
 19  2  2  0  0  0  0
 20 21  1  0  0  0  0
 22 24  1  0  0  0  0
 22 11  2  0  0  0  0
 23 22  1  0  0  0  0
 24  9  2  0  0  0  0
 25 24  1  0  0  0  0
 26 20  2  0  0  0  0
 26 27  1  0  0  0  0
 28 34  2  0  0  0  0
 29 28  1  0  0  0  0
 30 31  1  0  0  0  0
 30 45  1  0  0  0  0
 32 45  2  0  0  0  0
 32 33  1  0  0  0  0
 34 41  1  0  0  0  0
 34 35  1  0  0  0  0
 36 30  2  0  0  0  0
 37 36  1  0  0  0  0
 39 36  1  0  0  0  0
 39  8  2  0  0  0  0
 40 39  1  0  0  0  0
 41 42  1  0  0  0  0
 43 49  1  0  0  0  0
 44 43  1  0  0  0  0
 45 46  1  0  0  0  0
 47 43  2  0  0  0  0
 47 14  1  0  0  0  0
 48 47  1  0  0  0  0
 49 50  1  0  0  0  0
 49 12  2  0  0  0  0
M  END
