5,6
q = -1.0, confidence = 0.002

 46 46  0  0  1  0  0  0  0  0999 V2000
    1.2705   -0.0003   -1.8702 P   0  0  0  0  0  2  0  0  0  0  0  0
   -1.1017    0.0010   -0.7160 P   0  0  1  0  0  4  0  0  0  0  0  0
   -0.6041   -0.0008    1.8986 P   0  0  0  0  0  1  0  0  0  0  0  0
   -2.2267    0.0020   -1.9504 F   0  0  0  0  0  0  0  0  0  0  0  0
    0.1997   -1.2016   -0.9544 C   0  0  1  0  0  3  0  0  0  0  0  0
    0.2012    1.2021   -0.9539 C   0  0  2  0  0  3  0  0  0  0  0  0
    0.1126   -2.7112   -1.1150 C   0  0  0  0  0  0  0  0  0  0  0  0
   -0.2988   -3.3564    0.2232 C   0  0  0  0  0  0  0  0  0  0  0  0
    1.4777   -3.2648   -1.5600 C   0  0  0  0  0  0  0  0  0  0  0  0
   -0.9422   -3.0431   -2.1943 C   0  0  0  0  0  0  0  0  0  0  0  0
    0.1161    2.7118   -1.1140 C   0  0  0  0  0  0  0  0  0  0  0  0
    1.4829    3.2639   -1.5556 C   0  0  0  0  0  0  0  0  0  0  0  0
   -0.2975    3.3566    0.2237 C   0  0  0  0  0  0  0  0  0  0  0  0
   -0.9359    3.0455   -2.1955 C   0  0  0  0  0  0  0  0  0  0  0  0
   -1.9424    0.0008    0.8242 C   0  0  2  0  0  3  0  0  0  0  0  0
   -3.4437    0.0012    1.0751 C   0  0  0  0  0  0  0  0  0  0  0  0
   -3.7160    0.0004    2.5888 C   0  0  0  0  0  0  0  0  0  0  0  0
   -4.0729   -1.2594    0.4386 C   0  0  0  0  0  0  0  0  0  0  0  0
   -4.0718    1.2631    0.4401 C   0  0  0  0  0  0  0  0  0  0  0  0
   -0.3757   -4.4582    0.1178 H   0  0  0  0  0  0  0  0  0  0  0  0
    0.4435   -3.1211    1.0115 H   0  0  0  0  0  0  0  0  0  0  0  0
   -1.2798   -2.9715    0.5659 H   0  0  0  0  0  0  0  0  0  0  0  0
    1.4330   -4.3678   -1.6669 H   0  0  0  0  0  0  0  0  0  0  0  0
    1.7828   -2.8394   -2.5383 H   0  0  0  0  0  0  0  0  0  0  0  0
    2.2653   -3.0200   -0.8214 H   0  0  0  0  0  0  0  0  0  0  0  0
   -0.9919   -4.1382   -2.3667 H   0  0  0  0  0  0  0  0  0  0  0  0
   -1.9508   -2.6986   -1.8910 H   0  0  0  0  0  0  0  0  0  0  0  0
   -0.6933   -2.5509   -3.1561 H   0  0  0  0  0  0  0  0  0  0  0  0
    1.4399    4.3670   -1.6621 H   0  0  0  0  0  0  0  0  0  0  0  0
    2.2685    3.0176   -0.8155 H   0  0  0  0  0  0  0  0  0  0  0  0
    1.7897    2.8386   -2.5335 H   0  0  0  0  0  0  0  0  0  0  0  0
   -0.3725    4.4586    0.1189 H   0  0  0  0  0  0  0  0  0  0  0  0
   -1.2800    2.9730    0.5637 H   0  0  0  0  0  0  0  0  0  0  0  0
    0.4425    3.1197    1.0136 H   0  0  0  0  0  0  0  0  0  0  0  0
   -0.9844    4.1407   -2.3670 H   0  0  0  0  0  0  0  0  0  0  0  0
   -0.6850    2.5539   -3.1571 H   0  0  0  0  0  0  0  0  0  0  0  0
   -1.9454    2.7012   -1.8949 H   0  0  0  0  0  0  0  0  0  0  0  0
   -4.8078    0.0008    2.7841 H   0  0  0  0  0  0  0  0  0  0  0  0
   -3.2764   -0.8948    3.0737 H   0  0  0  0  0  0  0  0  0  0  0  0
   -3.2756    0.8947    3.0747 H   0  0  0  0  0  0  0  0  0  0  0  0
   -5.1698   -1.2738    0.6080 H   0  0  0  0  0  0  0  0  0  0  0  0
   -3.8949   -1.2826   -0.6546 H   0  0  0  0  0  0  0  0  0  0  0  0
   -3.6434   -2.1802    0.8829 H   0  0  0  0  0  0  0  0  0  0  0  0
   -5.1687    1.2782    0.6094 H   0  0  0  0  0  0  0  0  0  0  0  0
   -3.6417    2.1830    0.8856 H   0  0  0  0  0  0  0  0  0  0  0  0
   -3.8936    1.2876   -0.6530 H   0  0  0  0  0  0  0  0  0  0  0  0
  1  5  1  0  0  0  0
  1  6  1  0  0  0  0
  2  4  1  6  0  0  0
  2 15  1  0  0  0  0
  5  7  1  6  0  0  0
  5  2  1  0  0  0  0
  6 11  1  6  0  0  0
  6  2  1  0  0  0  0
  7  8  1  0  0  0  0
  8 22  1  0  0  0  0
  8 21  1  0  0  0  0
  9  7  1  0  0  0  0
  9 25  1  0  0  0  0
 10 27  1  0  0  0  0
 10  7  1  0  0  0  0
 11 13  1  0  0  0  0
 12 11  1  0  0  0  0
 12 30  1  0  0  0  0
 13 33  1  0  0  0  0
 13 34  1  0  0  0  0
 14 37  1  0  0  0  0
 14 11  1  0  0  0  0
 15 16  1  0  0  0  0
 15  3  1  6  0  0  0
 16 17  1  0  0  0  0
 17 38  1  0  0  0  0
 17 39  1  0  0  0  0
 17 40  1  0  0  0  0
 18 41  1  0  0  0  0
 18 43  1  0  0  0  0
 18 16  1  0  0  0  0
 19 44  1  0  0  0  0
 19 45  1  0  0  0  0
 19 16  1  0  0  0  0
 20  8  1  0  0  0  0
 23  9  1  0  0  0  0
 24  9  1  0  0  0  0
 26 10  1  0  0  0  0
 28 10  1  0  0  0  0
 29 12  1  0  0  0  0
 31 12  1  0  0  0  0
 32 13  1  0  0  0  0
 35 14  1  0  0  0  0
 36 14  1  0  0  0  0
 42 18  1  0  0  0  0
 46 19  1  0  0  0  0
M  END
