17,26
q = 0.0, confidence = 0.538

 58 61  0  0  1  0  0  0  0  0999 V2000
   -1.3431    2.5094   -1.9085 C   0  0  0  0  0  0  0  0  0  0  0  0
   -1.4236    2.1069   -2.9230 H   0  0  0  0  0  0  0  0  0  0  0  0
   -1.1837    3.8791   -1.7378 C   0  0  0  0  0  0  0  0  0  0  0  0
   -1.1234    4.5223   -2.6286 H   0  0  0  0  0  0  0  0  0  0  0  0
   -1.0942    4.4707   -0.4500 C   0  0  0  0  0  0  0  0  0  0  0  0
   -0.9583    5.5580   -0.3586 H   0  0  0  0  0  0  0  0  0  0  0  0
   -1.1814    3.6802    0.6880 C   0  0  0  0  0  0  0  0  0  0  0  0
   -1.1128    4.1237    1.6921 H   0  0  0  0  0  0  0  0  0  0  0  0
   -1.4581    1.3255    2.9531 C   0  0  0  0  0  0  0  0  0  0  0  0
   -1.3438    2.3023    3.4455 H   0  0  0  0  0  0  0  0  0  0  0  0
   -1.5842    0.1604    3.6976 C   0  0  0  0  0  0  0  0  0  0  0  0
   -1.5763    0.2027    4.7964 H   0  0  0  0  0  0  0  0  0  0  0  0
   -1.7267   -1.0911    3.0427 C   0  0  0  0  0  0  0  0  0  0  0  0
   -1.8352   -2.0046    3.6466 H   0  0  0  0  0  0  0  0  0  0  0  0
   -1.7340   -1.2007    1.6572 C   0  0  0  0  0  0  0  0  0  0  0  0
   -1.8702   -2.1909    1.2101 H   0  0  0  0  0  0  0  0  0  0  0  0
   -1.5550    0.2120   -0.5903 C   0  0  0  0  0  3  0  0  0  0  0  0
   -1.4310    1.6552   -0.7640 C   0  0  0  0  0  0  0  0  0  0  0  0
   -1.3441    2.2822    0.5453 C   0  0  0  0  0  0  0  0  0  0  0  0
   -1.4609    1.2455    1.5413 C   0  0  0  0  0  0  0  0  0  0  0  0
   -1.6069   -0.0257    0.8493 C   0  0  0  0  0  0  0  0  0  0  0  0
    2.3542   -0.2795   -1.6750 C   0  0  0  0  0  0  0  0  0  0  0  0
    3.2590    0.2793   -1.9383 H   0  0  0  0  0  0  0  0  0  0  0  0
    1.0624   -0.0655   -2.2479 C   0  0  0  0  0  3  0  0  0  0  0  0
    0.8272    0.7107   -2.9856 H   0  0  0  0  0  0  0  0  0  0  0  0
    0.1420   -0.9936   -1.6617 C   0  0  1  0  0  3  0  0  0  0  0  0
    0.8907   -1.7448   -0.6946 C   0  0  0  0  0  3  0  0  0  0  0  0
    0.4882   -2.5190   -0.0324 H   0  0  0  0  0  0  0  0  0  0  0  0
    2.2681   -1.3381   -0.7298 C   0  0  0  0  0  0  0  0  0  0  0  0
    3.4488   -2.0470   -0.0747 C   0  0  0  0  0  0  0  0  0  0  0  0
    4.0968   -2.9194   -1.1789 C   0  0  0  0  0  0  0  0  0  0  0  0
    3.3669   -3.6424   -1.5968 H   0  0  0  0  0  0  0  0  0  0  0  0
    4.4754   -2.2961   -2.0138 H   0  0  0  0  0  0  0  0  0  0  0  0
    4.9503   -3.4928   -0.7614 H   0  0  0  0  0  0  0  0  0  0  0  0
    2.9865   -2.9627    1.0727 C   0  0  0  0  0  0  0  0  0  0  0  0
    2.3137   -3.7647    0.7058 H   0  0  0  0  0  0  0  0  0  0  0  0
    3.8640   -3.4569    1.5363 H   0  0  0  0  0  0  0  0  0  0  0  0
    2.4584   -2.3873    1.8571 H   0  0  0  0  0  0  0  0  0  0  0  0
    4.4888   -1.0357    0.4456 C   0  0  0  0  0  0  0  0  0  0  0  0
    4.0616   -0.4058    1.2489 H   0  0  0  0  0  0  0  0  0  0  0  0
    5.3696   -1.5738    0.8511 H   0  0  0  0  0  0  0  0  0  0  0  0
    4.8507   -0.3688   -0.3625 H   0  0  0  0  0  0  0  0  0  0  0  0
   -1.3851   -0.8577   -1.6956 C   0  0  2  0  0  0  0  0  0  0  0  0
   -1.8861   -0.4062   -3.0809 C   0  0  0  0  0  0  0  0  0  0  0  0
   -1.9072   -1.2770   -3.7658 H   0  0  0  0  0  0  0  0  0  0  0  0
   -2.9076    0.0157   -3.0205 H   0  0  0  0  0  0  0  0  0  0  0  0
   -1.2350    0.3487   -3.5526 H   0  0  0  0  0  0  0  0  0  0  0  0
   -2.0710   -2.2050   -1.3706 C   0  0  0  0  0  0  0  0  0  0  0  0
   -1.8791   -2.8883   -2.2255 H   0  0  0  0  0  0  0  0  0  0  0  0
   -1.5832   -2.6920   -0.5074 H   0  0  0  0  0  0  0  0  0  0  0  0
   -3.5822   -2.1088   -1.1009 C   0  0  0  0  0  0  0  0  0  0  0  0
   -4.1008   -1.7837   -2.0294 H   0  0  0  0  0  0  0  0  0  0  0  0
   -3.7773   -1.3242   -0.3404 H   0  0  0  0  0  0  0  0  0  0  0  0
   -4.1535   -3.4187   -0.6365 C   0  0  0  0  0  0  0  0  0  0  0  0
   -4.1011   -4.2556   -1.3585 H   0  0  0  0  0  0  0  0  0  0  0  0
   -4.6754   -3.6432    0.5824 C   0  0  0  0  0  0  0  0  0  0  0  0
   -5.0612   -4.6330    0.8725 H   0  0  0  0  0  0  0  0  0  0  0  0
   -4.7394   -2.8376    1.3336 H   0  0  0  0  0  0  0  0  0  0  0  0
  1  3  2  0  0  0  0
  1 18  1  0  0  0  0
  2  1  1  0  0  0  0
  3  5  1  0  0  0  0
  4  3  1  0  0  0  0
  5  6  1  0  0  0  0
  5  7  2  0  0  0  0
  7  8  1  0  0  0  0
  9 10  1  0  0  0  0
  9 11  1  0  0  0  0
 11 12  1  0  0  0  0
 13 14  1  0  0  0  0
 13 11  2  0  0  0  0
 15 13  1  0  0  0  0
 16 15  1  0  0  0  0
 17 21  1  0  0  0  0
 18 17  1  0  0  0  0
 18 19  2  0  0  0  0
 19  7  1  0  0  0  0
 19 20  1  0  0  0  0
 20  9  2  0  0  0  0
 21 20  1  0  0  0  0
 21 15  2  0  0  0  0
 22 29  2  0  0  0  0
 23 22  1  0  0  0  0
 24 22  1  0  0  0  0
 24 26  1  0  0  0  0
 25 24  1  0  0  0  0
 26 43  1  1  0  0  0
 26 27  1  0  0  0  0
 27 28  1  0  0  0  0
 29 27  1  0  0  0  0
 29 30  1  0  0  0  0
 30 39  1  0  0  0  0
 30 35  1  0  0  0  0
 31 34  1  0  0  0  0
 31 30  1  0  0  0  0
 32 31  1  0  0  0  0
 33 31  1  0  0  0  0
 35 37  1  0  0  0  0
 35 38  1  0  0  0  0
 36 35  1  0  0  0  0
 39 41  1  0  0  0  0
 39 40  1  0  0  0  0
 42 39  1  0  0  0  0
 43 44  1  6  0  0  0
 43 48  1  0  0  0  0
 43 17  1  0  0  0  0
 44 46  1  0  0  0  0
 45 44  1  0  0  0  0
 47 44  1  0  0  0  0
 48 51  1  0  0  0  0
 48 50  1  0  0  0  0
 49 48  1  0  0  0  0
 51 54  1  0  0  0  0
 51 53  1  0  0  0  0
 52 51  1  0  0  0  0
 54 56  2  0  0  0  0
 55 54  1  0  0  0  0
 56 57  1  0  0  0  0
 56 58  1  0  0  0  0
M  END
