1,17
q = -2.0, confidence = 0.882

 58 63  0  0  0  0  0  0  0  0999 V2000
    0.7773    1.7947   -1.7233 C   0  0  0  0  0  3  0  0  0  0  0  0
    0.0370    2.2234   -2.4092 H   0  0  0  0  0  0  0  0  0  0  0  0
    1.4700    0.5749   -1.9156 C   0  0  0  0  0  0  0  0  0  0  0  0
    1.3352   -0.1054   -2.7605 H   0  0  0  0  0  0  0  0  0  0  0  0
   -1.2592    2.3897    0.5142 C   0  0  0  0  0  0  0  0  0  0  0  0
   -2.2124    1.4971   -0.0703 C   0  0  0  0  0  0  0  0  0  0  0  0
   -3.2300   -0.8281    0.7330 C   0  0  0  0  0  0  0  0  0  0  0  0
    4.4838   -0.8223   -0.0688 C   0  0  0  0  0  0  0  0  0  0  0  0
   -1.4721    0.5766    1.9155 C   0  0  0  0  0  0  0  0  0  0  0  0
   -1.3384   -0.1030    2.7611 H   0  0  0  0  0  0  0  0  0  0  0  0
    1.2592    2.3889   -0.5150 C   0  0  0  0  0  0  0  0  0  0  0  0
    3.2287   -0.8297   -0.7336 C   0  0  0  0  0  0  0  0  0  0  0  0
    2.8001   -2.0181   -1.3718 C   0  0  0  0  0  0  0  0  0  0  0  0
    1.7959   -2.0489   -1.8197 H   0  0  0  0  0  0  0  0  0  0  0  0
   -2.3644    0.3646    0.8247 C   0  0  0  0  0  0  0  0  0  0  0  0
    2.3634    0.3632   -0.8255 C   0  0  0  0  0  0  0  0  0  0  0  0
   -0.7787    1.7961    1.7233 C   0  0  0  0  0  3  0  0  0  0  0  0
   -0.0390    2.2249    2.4097 H   0  0  0  0  0  0  0  0  0  0  0  0
   -0.7683    3.7033   -0.0304 C   0  0  0  0  0  0  0  0  0  0  0  0
   -1.1937    4.5524    0.5470 H   0  0  0  0  0  0  0  0  0  0  0  0
   -1.1131    3.8365   -1.0747 H   0  0  0  0  0  0  0  0  0  0  0  0
    0.7693    3.7029    0.0294 C   0  0  0  0  0  0  0  0  0  0  0  0
    1.1952    4.5516   -0.5481 H   0  0  0  0  0  0  0  0  0  0  0  0
    1.1140    3.8360    1.0738 H   0  0  0  0  0  0  0  0  0  0  0  0
    2.2130    1.4964    0.0689 C   0  0  0  0  0  0  0  0  0  0  0  0
    3.9863    0.8016    1.8199 C   0  0  0  0  0  0  0  0  0  0  0  0
    3.4744   -0.0983    2.2170 H   0  0  0  0  0  0  0  0  0  0  0  0
    4.5441    1.2541    2.6657 H   0  0  0  0  0  0  0  0  0  0  0  0
    3.5968   -3.1662   -1.3871 C   0  0  0  0  0  0  0  0  0  0  0  0
    3.2309   -4.0790   -1.8809 H   0  0  0  0  0  0  0  0  0  0  0  0
    5.2726   -1.9887   -0.0977 C   0  0  0  0  0  0  0  0  0  0  0  0
    6.2459   -1.9774    0.4184 H   0  0  0  0  0  0  0  0  0  0  0  0
    2.9475    1.8172    1.3460 C   0  0  0  0  0  0  0  0  0  0  0  0
    2.2141    1.9958    2.1615 H   0  0  0  0  0  0  0  0  0  0  0  0
    3.4539    2.7968    1.1879 H   0  0  0  0  0  0  0  0  0  0  0  0
    4.8492   -3.1511   -0.7546 C   0  0  0  0  0  0  0  0  0  0  0  0
    5.4883   -4.0472   -0.7575 H   0  0  0  0  0  0  0  0  0  0  0  0
   -5.2731   -1.9876    0.0953 C   0  0  0  0  0  0  0  0  0  0  0  0
   -6.2456   -1.9767   -0.4225 H   0  0  0  0  0  0  0  0  0  0  0  0
   -4.4840   -0.8215    0.0661 C   0  0  0  0  0  0  0  0  0  0  0  0
   -2.8028   -2.0158    1.3735 C   0  0  0  0  0  0  0  0  0  0  0  0
   -1.7993   -2.0463    1.8231 H   0  0  0  0  0  0  0  0  0  0  0  0
    4.9675    0.3794    0.7079 C   0  0  0  0  0  0  0  0  0  0  0  0
    5.1419    1.2403    0.0231 H   0  0  0  0  0  0  0  0  0  0  0  0
    5.9550    0.1348    1.1474 H   0  0  0  0  0  0  0  0  0  0  0  0
   -3.9827    0.8005   -1.8235 C   0  0  0  0  0  0  0  0  0  0  0  0
   -3.4695   -0.0996   -2.2184 H   0  0  0  0  0  0  0  0  0  0  0  0
   -4.5389    1.2517   -2.6711 H   0  0  0  0  0  0  0  0  0  0  0  0
   -4.8512   -3.1492    0.7546 C   0  0  0  0  0  0  0  0  0  0  0  0
   -5.4905   -4.0451    0.7578 H   0  0  0  0  0  0  0  0  0  0  0  0
   -3.5998   -3.1637    1.3892 C   0  0  0  0  0  0  0  0  0  0  0  0
   -3.2349   -4.0759    1.8848 H   0  0  0  0  0  0  0  0  0  0  0  0
   -4.9663    0.3792   -0.7132 C   0  0  0  0  0  0  0  0  0  0  0  0
   -5.1424    1.2409   -0.0298 H   0  0  0  0  0  0  0  0  0  0  0  0
   -5.9527    0.1339   -1.1545 H   0  0  0  0  0  0  0  0  0  0  0  0
   -2.9456    1.8172   -1.3484 C   0  0  0  0  0  0  0  0  0  0  0  0
   -2.2114    1.9965   -2.1630 H   0  0  0  0  0  0  0  0  0  0  0  0
   -3.4531    2.7963   -1.1911 H   0  0  0  0  0  0  0  0  0  0  0  0
  1 11  1  0  0  0  0
  2  1  1  0  0  0  0
  3  1  1  0  0  0  0
  3 16  2  0  0  0  0
  4  3  1  0  0  0  0
  5 17  1  0  0  0  0
  6  5  2  0  0  0  0
  6 15  1  0  0  0  0
  7 15  1  0  0  0  0
  7 41  1  0  0  0  0
  8 43  1  0  0  0  0
  9 10  1  0  0  0  0
 11 22  1  0  0  0  0
 11 25  2  0  0  0  0
 12  8  2  0  0  0  0
 13 12  1  0  0  0  0
 14 13  1  0  0  0  0
 15  9  2  0  0  0  0
 16 12  1  0  0  0  0
 16 25  1  0  0  0  0
 17  9  1  0  0  0  0
 17 18  1  0  0  0  0
 19 22  1  0  0  0  0
 19  5  1  0  0  0  0
 19 20  1  0  0  0  0
 21 19  1  0  0  0  0
 22 24  1  0  0  0  0
 23 22  1  0  0  0  0
 25 33  1  0  0  0  0
 26 27  1  0  0  0  0
 26 28  1  0  0  0  0
 29 13  2  0  0  0  0
 29 36  1  0  0  0  0
 30 29  1  0  0  0  0
 31  8  1  0  0  0  0
 31 32  1  0  0  0  0
 33 26  1  0  0  0  0
 33 34  1  0  0  0  0
 35 33  1  0  0  0  0
 36 31  2  0  0  0  0
 37 36  1  0  0  0  0
 38 49  2  0  0  0  0
 39 38  1  0  0  0  0
 40 38  1  0  0  0  0
 40  7  2  0  0  0  0
 41 51  2  0  0  0  0
 41 42  1  0  0  0  0
 43 45  1  0  0  0  0
 43 26  1  0  0  0  0
 44 43  1  0  0  0  0
 46 56  1  0  0  0  0
 46 53  1  0  0  0  0
 47 46  1  0  0  0  0
 48 46  1  0  0  0  0
 49 50  1  0  0  0  0
 49 51  1  0  0  0  0
 51 52  1  0  0  0  0
 53 54  1  0  0  0  0
 53 40  1  0  0  0  0
 55 53  1  0  0  0  0
 56 58  1  0  0  0  0
 56  6  1  0  0  0  0
 57 56  1  0  0  0  0
M  END
