7,9
q = 0.0, confidence = 0.998

 24 24  0  0  1  0  0  0  0  0999 V2000
    2.5209   -0.0105   -0.7966 S   0  0  1  0  0  0  0  0  0  0  0  0
    2.8219   -1.3708   -1.4104 O   0  0  0  0  0  0  0  0  0  0  0  0
    0.7127    0.2446   -1.0423 C   0  0  1  0  0  3  0  0  0  0  0  0
    0.0494    1.4571   -0.6861 C   0  0  0  0  0  0  0  0  0  0  0  0
    0.7937    2.3585   -0.0068 O   0  0  0  0  0  0  0  0  0  0  0  0
   -1.3250    1.6266   -1.0331 C   0  0  0  0  0  0  0  0  0  0  0  0
   -1.9945    0.5972   -1.7596 C   0  0  0  0  0  3  0  0  0  0  0  0
   -1.3156   -0.5840   -2.1703 C   0  0  0  0  0  3  0  0  0  0  0  0
    0.0356   -0.7637   -1.7738 C   0  0  0  0  0  3  0  0  0  0  0  0
    2.4904   -0.2683    1.0431 C   0  0  0  0  0  0  0  0  0  0  0  0
    0.1466    3.4936    0.5626 C   0  0  0  0  0  0  0  0  0  0  0  0
    3.8752   -0.6921    1.5049 C   0  0  0  0  0  0  0  0  0  0  0  0
   -1.8830    2.5143   -0.7129 H   0  0  0  0  0  0  0  0  0  0  0  0
   -3.0606    0.7240   -1.9954 H   0  0  0  0  0  0  0  0  0  0  0  0
   -1.8513   -1.3776   -2.7069 H   0  0  0  0  0  0  0  0  0  0  0  0
    0.6126   -1.6744   -2.0058 H   0  0  0  0  0  0  0  0  0  0  0  0
    1.7224   -1.0505    1.2029 H   0  0  0  0  0  0  0  0  0  0  0  0
    2.1361    0.6848    1.4842 H   0  0  0  0  0  0  0  0  0  0  0  0
    0.9343    4.0611    1.0896 H   0  0  0  0  0  0  0  0  0  0  0  0
   -0.3042    4.1399   -0.2203 H   0  0  0  0  0  0  0  0  0  0  0  0
   -0.6310    3.1834    1.2919 H   0  0  0  0  0  0  0  0  0  0  0  0
    3.8533   -0.9493    2.5827 H   0  0  0  0  0  0  0  0  0  0  0  0
    4.2063   -1.5877    0.9427 H   0  0  0  0  0  0  0  0  0  0  0  0
    4.6262    0.1111    1.3601 H   0  0  0  0  0  0  0  0  0  0  0  0
  1  2  2  6  0  0  0
  1 10  1  0  0  0  0
  3  1  1  6  0  0  0
  3  4  1  0  0  0  0
  4  5  1  0  0  0  0
  5 11  1  0  0  0  0
  6 13  1  0  0  0  0
  6  4  2  0  0  0  0
  7  6  1  0  0  0  0
  8  9  1  0  0  0  0
  8  7  1  0  0  0  0
  9  3  1  0  0  0  0
 10 17  1  0  0  0  0
 10 18  1  0  0  0  0
 10 12  1  0  0  0  0
 11 19  1  0  0  0  0
 11 21  1  0  0  0  0
 12 22  1  0  0  0  0
 14  7  1  0  0  0  0
 15  8  1  0  0  0  0
 16  9  1  0  0  0  0
 20 11  1  0  0  0  0
 23 12  1  0  0  0  0
 24 12  1  0  0  0  0
M  END
