3,6
q = 0.0, confidence = 0.974

 15 15  0  0  1  0  0  0  0  0999 V2000
    1.8168    0.0025   -0.8574 S   0  0  0  0  0  0  0  0  0  0  0  0
    1.4961    2.7235   -0.0562 C   0  0  0  0  0  0  0  0  0  0  0  0
    1.3033    1.2811    0.2922 C   0  0  2  0  0  3  0  0  0  0  0  0
    0.9838    0.7176    1.5500 C   0  0  0  0  0  0  0  0  0  0  0  0
    0.9858   -0.7145    1.5501 C   0  0  0  0  0  0  0  0  0  0  0  0
    1.3070   -1.2774    0.2924 C   0  0  2  0  0  3  0  0  0  0  0  0
    1.5039   -2.7192   -0.0558 C   0  0  0  0  0  0  0  0  0  0  0  0
    1.1867    2.9401   -1.0967 H   0  0  0  0  0  0  0  0  0  0  0  0
    2.5551    3.0341    0.0665 H   0  0  0  0  0  0  0  0  0  0  0  0
    0.8718    3.3459    0.6135 H   0  0  0  0  0  0  0  0  0  0  0  0
    0.7105    1.3330    2.4168 H   0  0  0  0  0  0  0  0  0  0  0  0
    0.7143   -1.3307    2.4170 H   0  0  0  0  0  0  0  0  0  0  0  0
    2.5639   -3.0267    0.0664 H   0  0  0  0  0  0  0  0  0  0  0  0
    1.1946   -2.9370   -1.0961 H   0  0  0  0  0  0  0  0  0  0  0  0
    0.8818   -3.3434    0.6144 H   0  0  0  0  0  0  0  0  0  0  0  0
  1  3  1  0  0  0  0
  1  6  1  0  0  0  0
  2  9  1  0  0  0  0
  2 10  1  0  0  0  0
  3  2  1  1  0  0  0
  3  4  1  0  0  0  0
  4  5  2  0  0  0  0
  4 11  1  0  0  0  0
  5 12  1  0  0  0  0
  6  7  1  1  0  0  0
  6  5  1  0  0  0  0
  7 13  1  0  0  0  0
  7 15  1  0  0  0  0
  8  2  1  0  0  0  0
 14  7  1  0  0  0  0
M  END
