1,4
q = -2.0, confidence = 0.68

 47 47  0  0  1  0  0  0  0  0999 V2000
   -1.2500   -0.3452   -0.9552 C   0  0  0  0  0  3  0  0  0  0  0  0
   -1.5190    1.0283   -0.3526 C   0  0  1  0  0  0  0  0  0  0  0  0
   -0.6734    1.1044    0.9141 C   0  0  1  0  0  3  0  0  0  0  0  0
    0.7325    1.0918    0.7574 C   0  0  0  0  0  3  0  0  0  0  0  0
    1.3879    0.6022   -0.4107 C   0  0  0  0  0  3  0  0  0  0  0  0
    2.8513    0.4376   -0.5253 C   0  0  0  0  0  0  0  0  0  0  0  0
    3.7388    0.5360    0.5716 C   0  0  0  0  0  0  0  0  0  0  0  0
    5.1174    0.3642    0.3969 C   0  0  0  0  0  0  0  0  0  0  0  0
    5.6448    0.0849   -0.8748 C   0  0  0  0  0  0  0  0  0  0  0  0
    4.7773   -0.0179   -1.9737 C   0  0  0  0  0  0  0  0  0  0  0  0
    3.3992    0.1578   -1.7988 C   0  0  0  0  0  0  0  0  0  0  0  0
   -2.4585   -1.2102   -1.0282 C   0  0  0  0  0  0  0  0  0  0  0  0
   -3.5312   -0.9971   -0.4772 O   0  0  0  0  0  0  0  0  0  0  0  0
   -2.2264   -2.3200   -1.7788 O   0  0  0  0  0  0  0  0  0  0  0  0
   -3.3058   -3.2578   -1.8322 C   0  0  0  0  0  0  0  0  0  0  0  0
   -1.3111    2.2041   -1.2999 C   0  0  0  0  0  0  0  0  0  0  0  0
   -0.7015    3.2294   -1.0593 O   0  0  0  0  0  0  0  0  0  0  0  0
   -1.9239    1.9607   -2.4853 O   0  0  0  0  0  0  0  0  0  0  0  0
   -1.8241    3.0097   -3.4559 C   0  0  0  0  0  0  0  0  0  0  0  0
   -1.3335    1.6161    2.2047 C   0  0  0  0  0  0  0  0  0  0  0  0
   -1.8598    3.0454    1.9151 C   0  0  0  0  0  0  0  0  0  0  0  0
   -2.5197    0.7199    2.6217 C   0  0  0  0  0  0  0  0  0  0  0  0
   -0.3451    1.6867    3.3813 C   0  0  0  0  0  0  0  0  0  0  0  0
   -0.7297   -0.3519   -1.9284 H   0  0  0  0  0  0  0  0  0  0  0  0
   -2.5977    1.0362   -0.0838 H   0  0  0  0  0  0  0  0  0  0  0  0
    1.3473    1.3330    1.6362 H   0  0  0  0  0  0  0  0  0  0  0  0
    0.8926    0.7334   -1.3837 H   0  0  0  0  0  0  0  0  0  0  0  0
    3.3536    0.7453    1.5802 H   0  0  0  0  0  0  0  0  0  0  0  0
    5.7885    0.4475    1.2652 H   0  0  0  0  0  0  0  0  0  0  0  0
    6.7284   -0.0528   -1.0076 H   0  0  0  0  0  0  0  0  0  0  0  0
    5.1774   -0.2365   -2.9754 H   0  0  0  0  0  0  0  0  0  0  0  0
    2.7217    0.0733   -2.6633 H   0  0  0  0  0  0  0  0  0  0  0  0
   -2.9598   -4.0874   -2.4744 H   0  0  0  0  0  0  0  0  0  0  0  0
   -3.5511   -3.6318   -0.8170 H   0  0  0  0  0  0  0  0  0  0  0  0
   -4.2176   -2.7923   -2.2581 H   0  0  0  0  0  0  0  0  0  0  0  0
   -2.3624    2.6516   -4.3512 H   0  0  0  0  0  0  0  0  0  0  0  0
   -2.2843    3.9441   -3.0756 H   0  0  0  0  0  0  0  0  0  0  0  0
   -0.7636    3.2227   -3.6996 H   0  0  0  0  0  0  0  0  0  0  0  0
   -1.0567    3.7020    1.5299 H   0  0  0  0  0  0  0  0  0  0  0  0
   -2.6746    3.0387    1.1644 H   0  0  0  0  0  0  0  0  0  0  0  0
   -2.2712    3.4832    2.8474 H   0  0  0  0  0  0  0  0  0  0  0  0
   -2.1612   -0.2262    3.0701 H   0  0  0  0  0  0  0  0  0  0  0  0
   -3.1338    1.2404    3.3844 H   0  0  0  0  0  0  0  0  0  0  0  0
   -3.1800    0.4542    1.7728 H   0  0  0  0  0  0  0  0  0  0  0  0
    0.1353    0.7055    3.5726 H   0  0  0  0  0  0  0  0  0  0  0  0
    0.4490    2.4430    3.2186 H   0  0  0  0  0  0  0  0  0  0  0  0
   -0.8864    1.9758    4.3041 H   0  0  0  0  0  0  0  0  0  0  0  0
  1  2  1  0  0  0  0
  2 25  1  1  0  0  0
  2  3  1  0  0  0  0
  3  4  1  6  0  0  0
  3 20  1  0  0  0  0
  4 26  1  0  0  0  0
  5  4  1  0  0  0  0
  6  5  1  0  0  0  0
  6  7  1  0  0  0  0
  7 28  1  0  0  0  0
  8  7  2  0  0  0  0
  8 29  1  0  0  0  0
  9  8  1  0  0  0  0
 10 11  1  0  0  0  0
 10  9  2  0  0  0  0
 11  6  2  0  0  0  0
 12  1  1  0  0  0  0
 12 13  2  0  0  0  0
 14 12  1  0  0  0  0
 15 14  1  0  0  0  0
 15 34  1  0  0  0  0
 16 17  2  0  0  0  0
 16  2  1  0  0  0  0
 18 16  1  0  0  0  0
 19 37  1  0  0  0  0
 19 18  1  0  0  0  0
 20 22  1  0  0  0  0
 20 23  1  0  0  0  0
 21 20  1  0  0  0  0
 21 41  1  0  0  0  0
 22 42  1  0  0  0  0
 22 43  1  0  0  0  0
 23 45  1  0  0  0  0
 23 47  1  0  0  0  0
 24  1  1  0  0  0  0
 27  5  1  0  0  0  0
 30  9  1  0  0  0  0
 31 10  1  0  0  0  0
 32 11  1  0  0  0  0
 33 15  1  0  0  0  0
 35 15  1  0  0  0  0
 36 19  1  0  0  0  0
 38 19  1  0  0  0  0
 39 21  1  0  0  0  0
 40 21  1  0  0  0  0
 44 22  1  0  0  0  0
 46 23  1  0  0  0  0
M  END
