3,9
q = -1.0

 38 38  0  0  1  0  0  0  0  0999 V2000
   -0.5699   -1.6428    1.4445 C   0  0  1  0  0  3  0  0  0  0  0  0
    0.4062   -2.4790    0.8514 C   0  0  0  0  0  3  0  0  0  0  0  0
    0.5912   -2.6836   -0.5506 C   0  0  2  0  0  3  0  0  0  0  0  0
   -0.1742   -1.9574   -1.5417 C   0  0  0  0  0  3  0  0  0  0  0  0
   -1.0283   -0.8649   -1.4089 C   0  0  0  0  0  3  0  0  0  0  0  0
   -1.7625   -0.2932   -0.2116 C   0  0  1  0  0  0  0  0  0  0  0  0
   -1.9538   -1.3878    0.8538 C   0  0  0  0  0  0  0  0  0  0  0  0
   -0.4424   -1.3675    2.9234 C   0  0  0  0  0  0  0  0  0  0  0  0
   -0.7351    0.6678    0.4010 C   0  0  0  0  0  3  0  0  0  0  0  0
    0.1445    1.4150   -0.4167 C   0  0  0  0  0  3  0  0  0  0  0  0
    1.0049    2.4436    0.2225 C   0  0  0  0  0  0  0  0  0  0  0  0
    1.0841    2.6714    1.4195 O   0  0  0  0  0  0  0  0  0  0  0  0
    2.6468    4.0781   -0.1955 C   0  0  0  0  0  0  0  0  0  0  0  0
    1.7305    3.1108   -0.7150 O   0  0  0  0  0  0  0  0  0  0  0  0
   -3.0515    0.4095   -0.6524 C   0  0  0  0  0  0  0  0  0  0  0  0
   -3.4326    0.5404   -1.8005 O   0  0  0  0  0  0  0  0  0  0  0  0
   -4.8937    1.6600    0.1241 C   0  0  0  0  0  0  0  0  0  0  0  0
   -3.7030    0.9179    0.4197 O   0  0  0  0  0  0  0  0  0  0  0  0
    1.6002   -3.7006   -1.0240 C   0  0  0  0  0  0  0  0  0  0  0  0
    1.1670   -2.9348    1.5076 H   0  0  0  0  0  0  0  0  0  0  0  0
    0.1654   -2.1362   -2.5762 H   0  0  0  0  0  0  0  0  0  0  0  0
   -1.2319   -0.3214   -2.3450 H   0  0  0  0  0  0  0  0  0  0  0  0
   -2.6287   -1.0165    1.6478 H   0  0  0  0  0  0  0  0  0  0  0  0
   -2.4095   -2.2973    0.4142 H   0  0  0  0  0  0  0  0  0  0  0  0
   -0.7792   -0.3415    3.1768 H   0  0  0  0  0  0  0  0  0  0  0  0
    0.5966   -1.4816    3.2863 H   0  0  0  0  0  0  0  0  0  0  0  0
   -1.0926   -2.0645    3.4985 H   0  0  0  0  0  0  0  0  0  0  0  0
   -0.8297    0.9603    1.4580 H   0  0  0  0  0  0  0  0  0  0  0  0
   -0.0172    1.5420   -1.4961 H   0  0  0  0  0  0  0  0  0  0  0  0
    3.1717    4.5053   -1.0685 H   0  0  0  0  0  0  0  0  0  0  0  0
    3.3709    3.6021    0.4969 H   0  0  0  0  0  0  0  0  0  0  0  0
    2.1120    4.8739    0.3620 H   0  0  0  0  0  0  0  0  0  0  0  0
   -5.2898    2.0042    1.0956 H   0  0  0  0  0  0  0  0  0  0  0  0
   -5.6368    1.0214   -0.3945 H   0  0  0  0  0  0  0  0  0  0  0  0
   -4.6634    2.5253   -0.5294 H   0  0  0  0  0  0  0  0  0  0  0  0
    2.0441   -3.4115   -1.9964 H   0  0  0  0  0  0  0  0  0  0  0  0
    1.1269   -4.6979   -1.1516 H   0  0  0  0  0  0  0  0  0  0  0  0
    2.4228   -3.8116   -0.2911 H   0  0  0  0  0  0  0  0  0  0  0  0
  1  8  1  1  0  0  0
  2  1  1  0  0  0  0
  2 20  1  0  0  0  0
  3 19  1  1  0  0  0
  3  2  1  0  0  0  0
  4  5  1  0  0  0  0
  4  3  1  0  0  0  0
  5  6  1  0  0  0  0
  6 15  1  6  0  0  0
  6  9  1  0  0  0  0
  6  7  1  0  0  0  0
  7  1  1  0  0  0  0
  7 23  1  0  0  0  0
  8 25  1  0  0  0  0
  8 26  1  0  0  0  0
  8 27  1  0  0  0  0
  9 28  1  0  0  0  0
 10 11  1  0  0  0  0
 10  9  1  0  0  0  0
 11 12  2  0  0  0  0
 13 32  1  0  0  0  0
 13 31  1  0  0  0  0
 14 13  1  0  0  0  0
 14 11  1  0  0  0  0
 15 18  1  0  0  0  0
 16 15  2  0  0  0  0
 17 18  1  0  0  0  0
 17 33  1  0  0  0  0
 19 38  1  0  0  0  0
 21  4  1  0  0  0  0
 22  5  1  0  0  0  0
 24  7  1  0  0  0  0
 29 10  1  0  0  0  0
 30 13  1  0  0  0  0
 34 17  1  0  0  0  0
 35 17  1  0  0  0  0
 36 19  1  0  0  0  0
 37 19  1  0  0  0  0
M  END
