1,7
q = -2.0, confidence = 0.732

 28 30  0  0  1  0  0  0  0  0999 V2000
    1.0990    1.5873   -0.1663 C   0  0  2  0  0  3  0  0  0  0  0  0
    1.2332    0.9738    1.1351 C   0  0  1  0  0  3  0  0  0  0  0  0
    0.0782    1.3203    1.8883 C   0  0  0  0  0  0  0  0  0  0  0  0
   -0.7607    2.1474    1.0867 C   0  0  0  0  0  0  0  0  0  0  0  0
   -0.1170    2.3319   -0.1641 C   0  0  0  0  0  3  0  0  0  0  0  0
    1.2343   -0.9736   -1.1347 C   0  0  0  0  0  0  0  0  0  0  0  0
    1.0976   -1.5879    0.1661 C   0  0  2  0  0  3  0  0  0  0  0  0
   -0.1187   -2.3321    0.1612 C   0  0  0  0  0  0  0  0  0  0  0  0
   -0.7605   -2.1457   -1.0902 C   0  0  0  0  0  0  0  0  0  0  0  0
    0.0800   -1.3180   -1.8897 C   0  0  0  0  0  0  0  0  0  0  0  0
    2.0294    1.4159   -1.3390 C   0  0  0  0  0  0  0  0  0  0  0  0
    2.3634   -0.0783   -1.5820 C   0  0  0  0  0  0  0  0  0  0  0  0
    2.3604    0.0771    1.5845 C   0  0  0  0  0  0  0  0  0  0  0  0
    2.0257   -1.4168    1.3408 C   0  0  0  0  0  0  0  0  0  0  0  0
   -0.1514    0.9656    2.8994 H   0  0  0  0  0  0  0  0  0  0  0  0
   -1.7497    2.5255    1.3678 H   0  0  0  0  0  0  0  0  0  0  0  0
   -0.5217    2.8820   -1.0200 H   0  0  0  0  0  0  0  0  0  0  0  0
   -0.5250   -2.8829    1.0158 H   0  0  0  0  0  0  0  0  0  0  0  0
   -1.7493   -2.5229   -1.3733 H   0  0  0  0  0  0  0  0  0  0  0  0
   -0.1479   -0.9620   -2.9008 H   0  0  0  0  0  0  0  0  0  0  0  0
    2.9596    2.0091   -1.1980 H   0  0  0  0  0  0  0  0  0  0  0  0
    1.5278    1.8347   -2.2341 H   0  0  0  0  0  0  0  0  0  0  0  0
    2.5724   -0.2493   -2.6570 H   0  0  0  0  0  0  0  0  0  0  0  0
    3.2871   -0.3673   -1.0427 H   0  0  0  0  0  0  0  0  0  0  0  0
    2.5674    0.2477    2.6600 H   0  0  0  0  0  0  0  0  0  0  0  0
    3.2856    0.3653    1.0472 H   0  0  0  0  0  0  0  0  0  0  0  0
    2.9558   -2.0108    1.2021 H   0  0  0  0  0  0  0  0  0  0  0  0
    1.5217   -1.8351    2.2349 H   0  0  0  0  0  0  0  0  0  0  0  0
  1  5  1  6  0  0  0
  1  2  1  0  0  0  0
  2 13  1  0  0  0  0
  2  3  1  6  0  0  0
  3 15  1  0  0  0  0
  4 16  1  0  0  0  0
  4  3  2  0  0  0  0
  5  4  1  0  0  0  0
  7  6  1  1  0  0  0
  7 14  1  0  0  0  0
  8  7  1  0  0  0  0
  8 18  1  0  0  0  0
  9  8  2  0  0  0  0
 10  6  2  0  0  0  0
 10  9  1  0  0  0  0
 11 21  1  0  0  0  0
 11  1  1  0  0  0  0
 12 11  1  0  0  0  0
 12  6  1  0  0  0  0
 12 24  1  0  0  0  0
 13 25  1  0  0  0  0
 14 13  1  0  0  0  0
 14 28  1  0  0  0  0
 17  5  1  0  0  0  0
 19  9  1  0  0  0  0
 20 10  1  0  0  0  0
 22 11  1  0  0  0  0
 23 12  1  0  0  0  0
 26 13  1  0  0  0  0
 27 14  1  0  0  0  0
M  END
