2,10
q = 0.0, confidence = 0.988

 32 34  0  0  1  0  0  0  0  0999 V2000
   -1.3711   -2.0861   -0.0269 C   0  0  1  0  0  0  0  0  0  0  0  0
   -1.0871   -0.9554    0.9595 C   0  0  2  0  0  3  0  0  0  0  0  0
   -1.9085    0.2819    0.5833 C   0  0  1  0  0  0  0  0  0  0  0  0
   -0.8927    1.4032    0.2965 C   0  0  0  0  0  0  0  0  0  0  0  0
   -0.5405    1.3920   -1.0519 C   0  0  0  0  0  0  0  0  0  0  0  0
   -1.2489    0.2410   -1.7741 C   0  0  2  0  0  0  0  0  0  0  0  0
   -2.4290   -0.1307   -0.8304 C   0  0  1  0  0  0  0  0  0  0  0  0
   -2.6675   -1.6400   -0.7250 C   0  0  0  0  0  0  0  0  0  0  0  0
   -0.2104   -1.9358   -0.9942 C   0  0  0  0  0  3  0  0  0  0  0  0
   -0.1839   -0.8361   -1.8382 C   0  0  0  0  0  3  0  0  0  0  0  0
   -0.1698   -1.0108    1.9916 C   0  0  0  0  0  3  0  0  0  0  0  0
   -3.0043    0.6148    1.5959 C   0  0  0  0  0  0  0  0  0  0  0  0
   -0.6861    2.5495    1.2399 C   0  0  0  0  0  0  0  0  0  0  0  0
    0.1205    2.4974   -1.8134 C   0  0  0  0  0  0  0  0  0  0  0  0
   -1.3977   -3.0872    0.4396 H   0  0  0  0  0  0  0  0  0  0  0  0
   -1.5791    0.5262   -2.7932 H   0  0  0  0  0  0  0  0  0  0  0  0
   -3.3275    0.4474   -1.1203 H   0  0  0  0  0  0  0  0  0  0  0  0
   -3.5492   -1.8578   -0.0905 H   0  0  0  0  0  0  0  0  0  0  0  0
   -2.8200   -2.1380   -1.7029 H   0  0  0  0  0  0  0  0  0  0  0  0
    0.4818   -2.7747   -1.1654 H   0  0  0  0  0  0  0  0  0  0  0  0
    0.5200   -0.8227   -2.6848 H   0  0  0  0  0  0  0  0  0  0  0  0
   -0.1350   -0.2128    2.7484 H   0  0  0  0  0  0  0  0  0  0  0  0
    0.2754   -1.9720    2.2909 H   0  0  0  0  0  0  0  0  0  0  0  0
   -3.7032   -0.2369    1.7099 H   0  0  0  0  0  0  0  0  0  0  0  0
   -2.5848    0.8340    2.5968 H   0  0  0  0  0  0  0  0  0  0  0  0
   -3.5910    1.4945    1.2644 H   0  0  0  0  0  0  0  0  0  0  0  0
   -1.5938    3.1903    1.2172 H   0  0  0  0  0  0  0  0  0  0  0  0
   -0.5596    2.2272    2.2908 H   0  0  0  0  0  0  0  0  0  0  0  0
    0.1753    3.1840    0.9635 H   0  0  0  0  0  0  0  0  0  0  0  0
   -0.6768    3.1684   -2.2031 H   0  0  0  0  0  0  0  0  0  0  0  0
    0.7992    3.1090   -1.1904 H   0  0  0  0  0  0  0  0  0  0  0  0
    0.6841    2.1328   -2.6928 H   0  0  0  0  0  0  0  0  0  0  0  0
  1 15  1  1  0  0  0
  1  2  1  0  0  0  0
  2 11  1  6  0  0  0
  3  2  1  0  0  0  0
  3 12  1  1  0  0  0
  4  3  1  0  0  0  0
  4 13  1  0  0  0  0
  5  4  2  0  0  0  0
  6 16  1  6  0  0  0
  6  5  1  0  0  0  0
  6  7  1  0  0  0  0
  7 17  1  6  0  0  0
  7  8  1  0  0  0  0
  7  3  1  0  0  0  0
  8 18  1  0  0  0  0
  8  1  1  0  0  0  0
  9  1  1  0  0  0  0
 10  6  1  0  0  0  0
 10  9  1  0  0  0  0
 11 23  1  0  0  0  0
 11 22  1  0  0  0  0
 12 24  1  0  0  0  0
 12 25  1  0  0  0  0
 13 28  1  0  0  0  0
 14 31  1  0  0  0  0
 14  5  1  0  0  0  0
 19  8  1  0  0  0  0
 20  9  1  0  0  0  0
 21 10  1  0  0  0  0
 26 12  1  0  0  0  0
 27 13  1  0  0  0  0
 29 13  1  0  0  0  0
 30 14  1  0  0  0  0
 32 14  1  0  0  0  0
M  END
