2,9
q = -1.0

 47 51  0  0  1  0  0  0  0  0999 V2000
    1.6922   -1.7394   -1.1938 C   0  0  2  0  0  0  0  0  0  0  0  0
    1.1974   -0.4075   -0.5561 C   0  0  2  0  0  3  0  0  0  0  0  0
    0.1469    0.1684   -1.5688 C   0  0  2  0  0  0  0  0  0  0  0  0
   -1.1949    0.2553   -0.8025 C   0  0  2  0  0  3  0  0  0  0  0  0
   -1.9008   -0.9450   -0.9299 C   0  0  2  0  0  3  0  0  0  0  0  0
   -1.1330   -1.9182   -1.8285 C   0  0  1  0  0  0  0  0  0  0  0  0
   -0.0887   -1.0250   -2.5474 C   0  0  2  0  0  0  0  0  0  0  0  0
    1.2858   -1.6815   -2.6733 C   0  0  0  0  0  0  0  0  0  0  0  0
    0.8348   -2.7802   -0.4991 C   0  0  0  0  0  3  0  0  0  0  0  0
   -0.5038   -2.8717   -0.8348 C   0  0  0  0  0  3  0  0  0  0  0  0
    2.2892    0.5203   -0.0978 C   0  0  0  0  0  0  0  0  0  0  0  0
    2.2542    1.2475    1.1110 C   0  0  0  0  0  0  0  0  0  0  0  0
    3.2738    2.1467    1.4620 C   0  0  0  0  0  0  0  0  0  0  0  0
    4.3759    2.3347    0.6166 C   0  0  0  0  0  0  0  0  0  0  0  0
    4.4463    1.6076   -0.5824 C   0  0  0  0  0  0  0  0  0  0  0  0
    3.4204    0.7185   -0.9297 C   0  0  0  0  0  0  0  0  0  0  0  0
   -1.7641    1.5642   -0.3862 C   0  0  0  0  0  0  0  0  0  0  0  0
   -3.0915    1.9051   -0.7374 C   0  0  0  0  0  0  0  0  0  0  0  0
   -3.6202    3.1687   -0.4370 C   0  0  0  0  0  0  0  0  0  0  0  0
   -2.8328    4.1276    0.2164 C   0  0  0  0  0  0  0  0  0  0  0  0
   -1.5066    3.8133    0.5532 C   0  0  0  0  0  0  0  0  0  0  0  0
   -0.9791    2.5527    0.2521 C   0  0  0  0  0  0  0  0  0  0  0  0
   -3.3156   -1.2460   -0.5314 C   0  0  0  0  0  0  0  0  0  0  0  0
    0.5482    1.4399   -2.3153 C   0  0  0  0  0  0  0  0  0  0  0  0
    2.7666   -1.9303   -1.0152 H   0  0  0  0  0  0  0  0  0  0  0  0
   -1.8009   -2.4556   -2.5352 H   0  0  0  0  0  0  0  0  0  0  0  0
   -0.5140   -0.6715   -3.5081 H   0  0  0  0  0  0  0  0  0  0  0  0
    1.2586   -2.6808   -3.1565 H   0  0  0  0  0  0  0  0  0  0  0  0
    1.9739   -1.0361   -3.2564 H   0  0  0  0  0  0  0  0  0  0  0  0
    1.2927   -3.5619    0.1262 H   0  0  0  0  0  0  0  0  0  0  0  0
   -1.1081   -3.7154   -0.4678 H   0  0  0  0  0  0  0  0  0  0  0  0
    1.4198    1.0924    1.8062 H   0  0  0  0  0  0  0  0  0  0  0  0
    3.2083    2.6920    2.4161 H   0  0  0  0  0  0  0  0  0  0  0  0
    5.1802    3.0330    0.8935 H   0  0  0  0  0  0  0  0  0  0  0  0
    5.3079    1.7346   -1.2562 H   0  0  0  0  0  0  0  0  0  0  0  0
    3.4969    0.1668   -1.8794 H   0  0  0  0  0  0  0  0  0  0  0  0
   -3.7131    1.1843   -1.2844 H   0  0  0  0  0  0  0  0  0  0  0  0
   -4.6557    3.4057   -0.7253 H   0  0  0  0  0  0  0  0  0  0  0  0
   -3.2478    5.1183    0.4558 H   0  0  0  0  0  0  0  0  0  0  0  0
   -0.8729    4.5566    1.0601 H   0  0  0  0  0  0  0  0  0  0  0  0
    0.0583    2.3237    0.5289 H   0  0  0  0  0  0  0  0  0  0  0  0
   -3.9956   -1.0757   -1.3962 H   0  0  0  0  0  0  0  0  0  0  0  0
   -3.4374   -2.3069   -0.2382 H   0  0  0  0  0  0  0  0  0  0  0  0
   -3.6604   -0.6172    0.3100 H   0  0  0  0  0  0  0  0  0  0  0  0
   -0.3005    1.8119   -2.9249 H   0  0  0  0  0  0  0  0  0  0  0  0
    0.8586    2.2519   -1.6327 H   0  0  0  0  0  0  0  0  0  0  0  0
    1.4024    1.2398   -2.9921 H   0  0  0  0  0  0  0  0  0  0  0  0
  1 25  1  1  0  0  0
  1  2  1  0  0  0  0
  1  9  1  0  0  0  0
  2 11  1  6  0  0  0
  3 24  1  6  0  0  0
  3  4  1  0  0  0  0
  3  2  1  0  0  0  0
  4 17  1  6  0  0  0
  5  4  1  0  0  0  0
  5 23  1  6  0  0  0
  6 26  1  6  0  0  0
  6  5  1  0  0  0  0
  6 10  1  0  0  0  0
  7 27  1  6  0  0  0
  7  6  1  0  0  0  0
  7  3  1  0  0  0  0
  8  7  1  0  0  0  0
  8  1  1  0  0  0  0
  9 30  1  0  0  0  0
 10  9  1  0  0  0  0
 10 31  1  0  0  0  0
 11 12  1  0  0  0  0
 12 13  2  0  0  0  0
 12 32  1  0  0  0  0
 13 33  1  0  0  0  0
 14 34  1  0  0  0  0
 14 13  1  0  0  0  0
 15 14  2  0  0  0  0
 16 15  1  0  0  0  0
 16 11  2  0  0  0  0
 17 22  1  0  0  0  0
 18 19  1  0  0  0  0
 18 17  2  0  0  0  0
 19 20  2  0  0  0  0
 20 39  1  0  0  0  0
 20 21  1  0  0  0  0
 21 40  1  0  0  0  0
 22 41  1  0  0  0  0
 22 21  2  0  0  0  0
 23 43  1  0  0  0  0
 23 44  1  0  0  0  0
 24 46  1  0  0  0  0
 28  8  1  0  0  0  0
 29  8  1  0  0  0  0
 35 15  1  0  0  0  0
 36 16  1  0  0  0  0
 37 18  1  0  0  0  0
 38 19  1  0  0  0  0
 42 23  1  0  0  0  0
 45 24  1  0  0  0  0
 47 24  1  0  0  0  0
M  END
