1,3
q = -1.0

 39 40  0  0  1  0  0  0  0  0999 V2000
   -1.4863    1.2542   -0.7133 C   0  0  1  0  0  3  0  0  0  0  0  0
   -2.5669    0.8034    0.3159 C   0  0  1  0  0  0  0  0  0  0  0  0
   -2.4215   -0.6936   -0.0029 C   0  0  2  0  0  3  0  0  0  0  0  0
   -2.2108   -0.7871   -1.4008 C   0  0  2  0  0  3  0  0  0  0  0  0
   -2.2119    0.6541   -1.9499 C   0  0  2  0  0  0  0  0  0  0  0  0
   -1.0785    2.7041   -0.7068 C   0  0  0  0  0  0  0  0  0  0  0  0
   -0.3722    2.9460   -1.5230 H   0  0  0  0  0  0  0  0  0  0  0  0
   -0.5877    2.9798    0.2477 H   0  0  0  0  0  0  0  0  0  0  0  0
   -1.9624    3.3723   -0.8265 H   0  0  0  0  0  0  0  0  0  0  0  0
   -2.3589    1.2048    1.7670 C   0  0  0  0  0  0  0  0  0  0  0  0
   -3.0951    0.7222    2.4408 H   0  0  0  0  0  0  0  0  0  0  0  0
   -2.4560    2.3018    1.8942 H   0  0  0  0  0  0  0  0  0  0  0  0
   -1.3484    0.9099    2.1112 H   0  0  0  0  0  0  0  0  0  0  0  0
   -2.8297   -1.8013    0.9154 C   0  0  0  0  0  0  0  0  0  0  0  0
   -3.9360   -1.8977    0.9110 H   0  0  0  0  0  0  0  0  0  0  0  0
   -2.4971   -1.6073    1.9533 H   0  0  0  0  0  0  0  0  0  0  0  0
   -2.3877   -2.7649    0.5991 H   0  0  0  0  0  0  0  0  0  0  0  0
   -2.4088   -2.0055   -2.2407 C   0  0  0  0  0  0  0  0  0  0  0  0
   -2.1428   -2.9256   -1.6869 H   0  0  0  0  0  0  0  0  0  0  0  0
   -1.7966   -1.9728   -3.1622 H   0  0  0  0  0  0  0  0  0  0  0  0
   -3.4797   -2.0694   -2.5364 H   0  0  0  0  0  0  0  0  0  0  0  0
   -1.5811    0.8309   -3.3223 C   0  0  0  0  0  0  0  0  0  0  0  0
   -1.4370    1.9056   -3.5556 H   0  0  0  0  0  0  0  0  0  0  0  0
   -2.2282    0.4049   -4.1161 H   0  0  0  0  0  0  0  0  0  0  0  0
   -0.5971    0.3239   -3.3809 H   0  0  0  0  0  0  0  0  0  0  0  0
   -3.9268    1.3426   -0.3388 C   0  0  2  0  0  0  0  0  0  0  0  0
   -4.0207    2.4027   -0.0234 H   0  0  0  0  0  0  0  0  0  0  0  0
   -5.1432    0.5700    0.1413 C   0  0  0  0  0  0  0  0  0  0  0  0
   -5.4926   -0.4727   -0.4031 O   0  0  0  0  0  0  0  0  0  0  0  0
   -5.9012    1.1344    1.3348 C   0  0  0  0  0  0  0  0  0  0  0  0
   -5.1639    1.4825    2.0904 H   0  0  0  0  0  0  0  0  0  0  0  0
   -6.3845    2.0726    0.9739 H   0  0  0  0  0  0  0  0  0  0  0  0
   -6.9259    0.1748    1.9257 C   0  0  0  0  0  0  0  0  0  0  0  0
   -7.6270   -0.1774    1.1446 H   0  0  0  0  0  0  0  0  0  0  0  0
   -7.5079    0.6541    2.7367 H   0  0  0  0  0  0  0  0  0  0  0  0
   -6.4305   -0.7256    2.3413 H   0  0  0  0  0  0  0  0  0  0  0  0
   -3.6637    1.2110   -1.8500 C   0  0  0  0  0  0  0  0  0  0  0  0
   -3.7289    2.1939   -2.3595 H   0  0  0  0  0  0  0  0  0  0  0  0
   -4.3905    0.5248   -2.3287 H   0  0  0  0  0  0  0  0  0  0  0  0
  1  6  1  6  0  0  0
  1  2  1  0  0  0  0
  2 10  1  1  0  0  0
  3  2  1  0  0  0  0
  3 14  1  6  0  0  0
  4 18  1  6  0  0  0
  4  3  1  0  0  0  0
  5 22  1  6  0  0  0
  5 37  1  0  0  0  0
  5  4  1  0  0  0  0
  5  1  1  0  0  0  0
  6  8  1  0  0  0  0
  7  6  1  0  0  0  0
  9  6  1  0  0  0  0
 10 12  1  0  0  0  0
 10 13  1  0  0  0  0
 10 11  1  0  0  0  0
 14 16  1  0  0  0  0
 15 14  1  0  0  0  0
 17 14  1  0  0  0  0
 18 19  1  0  0  0  0
 20 18  1  0  0  0  0
 21 18  1  0  0  0  0
 23 22  1  0  0  0  0
 24 22  1  0  0  0  0
 25 22  1  0  0  0  0
 26 27  1  1  0  0  0
 26 28  1  0  0  0  0
 26  2  1  0  0  0  0
 28 30  1  0  0  0  0
 29 28  2  0  0  0  0
 30 33  1  0  0  0  0
 30 31  1  0  0  0  0
 32 30  1  0  0  0  0
 33 36  1  0  0  0  0
 33 35  1  0  0  0  0
 34 33  1  0  0  0  0
 37 26  1  0  0  0  0
 38 37  1  0  0  0  0
 39 37  1  0  0  0  0
M  END
