2,27
q = -2.0, confidence = 0.59

 50 52  0  0  0  0  0  0  0  0999 V2000
    0.2485   -3.3396   -0.8340 Si  0  0  0  0  0  0  0  0  0  0  0  0
    0.1798   -1.5182   -0.3549 C   0  0  0  0  0  2  0  0  0  0  0  0
   -0.9213   -0.7587    0.0002 C   0  0  0  0  0  0  0  0  0  0  0  0
   -2.1977   -1.3300    0.5180 C   0  0  0  0  0  0  0  0  0  0  0  0
   -3.4349   -0.6414    0.3615 C   0  0  0  0  0  0  0  0  0  0  0  0
    1.7653   -3.5866   -1.9566 C   0  0  0  0  0  0  0  0  0  0  0  0
    1.7261   -2.9508   -2.8633 H   0  0  0  0  0  0  0  0  0  0  0  0
    1.8149   -4.6442   -2.2894 H   0  0  0  0  0  0  0  0  0  0  0  0
    2.7094   -3.3590   -1.4202 H   0  0  0  0  0  0  0  0  0  0  0  0
    0.4876   -4.6113    0.5780 C   0  0  0  0  0  0  0  0  0  0  0  0
    1.0020   -5.5071    0.1715 H   0  0  0  0  0  0  0  0  0  0  0  0
   -0.4808   -4.9505    0.9964 H   0  0  0  0  0  0  0  0  0  0  0  0
    1.1021   -4.2282    1.4167 H   0  0  0  0  0  0  0  0  0  0  0  0
   -1.2805   -3.8339   -1.8431 C   0  0  0  0  0  0  0  0  0  0  0  0
   -2.2050   -3.7925   -1.2345 H   0  0  0  0  0  0  0  0  0  0  0  0
   -1.1679   -4.8657   -2.2365 H   0  0  0  0  0  0  0  0  0  0  0  0
   -1.4119   -3.1491   -2.7058 H   0  0  0  0  0  0  0  0  0  0  0  0
   -2.1850   -2.5291    1.2607 C   0  0  0  0  0  0  0  0  0  0  0  0
   -1.2213   -3.0172    1.4503 H   0  0  0  0  0  0  0  0  0  0  0  0
   -3.3581   -3.0834    1.7855 C   0  0  0  0  0  0  0  0  0  0  0  0
   -3.3129   -4.0185    2.3643 H   0  0  0  0  0  0  0  0  0  0  0  0
   -4.5824   -2.4233    1.5929 C   0  0  0  0  0  0  0  0  0  0  0  0
   -5.5122   -2.8400    2.0089 H   0  0  0  0  0  0  0  0  0  0  0  0
   -4.6107   -1.2083    0.8982 C   0  0  0  0  0  0  0  0  0  0  0  0
   -5.5663   -0.6751    0.7904 H   0  0  0  0  0  0  0  0  0  0  0  0
    0.2480    3.3398    0.8338 Si  0  0  0  0  0  0  0  0  0  0  0  0
    0.1796    1.5183    0.3548 C   0  0  0  0  0  2  0  0  0  0  0  0
   -0.9214    0.7586   -0.0002 C   0  0  0  0  0  0  0  0  0  0  0  0
   -2.1980    1.3297   -0.5180 C   0  0  0  0  0  0  0  0  0  0  0  0
   -3.4350    0.6408   -0.3614 C   0  0  0  0  0  0  0  0  0  0  0  0
    1.7648    3.5872    1.9563 C   0  0  0  0  0  0  0  0  0  0  0  0
    1.7258    2.9515    2.8629 H   0  0  0  0  0  0  0  0  0  0  0  0
    1.8141    4.6448    2.2890 H   0  0  0  0  0  0  0  0  0  0  0  0
    2.7088    3.3599    1.4197 H   0  0  0  0  0  0  0  0  0  0  0  0
    0.4867    4.6113   -0.5783 C   0  0  0  0  0  0  0  0  0  0  0  0
    1.0009    5.5073   -0.1720 H   0  0  0  0  0  0  0  0  0  0  0  0
   -0.4819    4.9503   -0.9967 H   0  0  0  0  0  0  0  0  0  0  0  0
    1.1011    4.2283   -1.4171 H   0  0  0  0  0  0  0  0  0  0  0  0
   -1.2812    3.8338    1.8430 C   0  0  0  0  0  0  0  0  0  0  0  0
   -2.2057    3.7921    1.2344 H   0  0  0  0  0  0  0  0  0  0  0  0
   -1.1687    4.8657    2.2362 H   0  0  0  0  0  0  0  0  0  0  0  0
   -1.4123    3.1491    2.7057 H   0  0  0  0  0  0  0  0  0  0  0  0
   -2.1854    2.5287   -1.2606 C   0  0  0  0  0  0  0  0  0  0  0  0
   -1.2218    3.0170   -1.4503 H   0  0  0  0  0  0  0  0  0  0  0  0
   -3.3587    3.0828   -1.7854 C   0  0  0  0  0  0  0  0  0  0  0  0
   -3.3136    4.0179   -2.3642 H   0  0  0  0  0  0  0  0  0  0  0  0
   -4.5829    2.4225   -1.5929 C   0  0  0  0  0  0  0  0  0  0  0  0
   -5.5127    2.8390   -2.0088 H   0  0  0  0  0  0  0  0  0  0  0  0
   -4.6109    1.2075   -0.8981 C   0  0  0  0  0  0  0  0  0  0  0  0
   -5.5664    0.6741   -0.7903 H   0  0  0  0  0  0  0  0  0  0  0  0
  1  2  1  0  0  0  0
  1 10  1  0  0  0  0
  2  3  1  0  0  0  0
  3  4  1  0  0  0  0
  4 18  1  0  0  0  0
  5  4  2  0  0  0  0
  5 24  1  0  0  0  0
  6  9  1  0  0  0  0
  6  1  1  0  0  0  0
  7  6  1  0  0  0  0
  8  6  1  0  0  0  0
 10 12  1  0  0  0  0
 10 13  1  0  0  0  0
 11 10  1  0  0  0  0
 14 15  1  0  0  0  0
 14  1  1  0  0  0  0
 16 14  1  0  0  0  0
 17 14  1  0  0  0  0
 18 19  1  0  0  0  0
 18 20  2  0  0  0  0
 20 21  1  0  0  0  0
 22 20  1  0  0  0  0
 22 23  1  0  0  0  0
 24 22  2  0  0  0  0
 25 24  1  0  0  0  0
 26 39  1  0  0  0  0
 26 31  1  0  0  0  0
 27 26  1  0  0  0  0
 28  3  2  0  0  0  0
 28 27  1  0  0  0  0
 29 30  1  0  0  0  0
 29 28  1  0  0  0  0
 30  5  1  0  0  0  0
 31 33  1  0  0  0  0
 31 32  1  0  0  0  0
 34 31  1  0  0  0  0
 35 36  1  0  0  0  0
 35 26  1  0  0  0  0
 37 35  1  0  0  0  0
 38 35  1  0  0  0  0
 39 41  1  0  0  0  0
 39 42  1  0  0  0  0
 40 39  1  0  0  0  0
 43 29  2  0  0  0  0
 44 43  1  0  0  0  0
 45 47  2  0  0  0  0
 45 43  1  0  0  0  0
 46 45  1  0  0  0  0
 47 49  1  0  0  0  0
 48 47  1  0  0  0  0
 49 50  1  0  0  0  0
 49 30  2  0  0  0  0
M  END
