3,7
q = 0.0, confidence = 0.906

 44 46  0  0  0  0  0  0  0  0999 V2000
    3.8763   -0.0031   -0.0085 P   0  0  0  0  0  4  0  0  0  0  0  0
    2.2850    1.2680   -2.4398 O   0  0  0  0  0  0  0  0  0  0  0  0
    1.1887   -0.7851    0.2475 C   0  0  0  0  0  3  0  0  0  0  0  0
    1.4102   -1.2622    1.2197 H   0  0  0  0  0  0  0  0  0  0  0  0
    2.1750   -0.2210   -0.5310 C   0  0  0  0  0  0  0  0  0  0  0  0
    1.6738    0.4474   -1.7584 C   0  0  0  0  0  0  0  0  0  0  0  0
    0.3039   -0.1155   -2.0724 C   0  0  0  0  0  3  0  0  0  0  0  0
    0.4186   -1.0697   -2.6230 H   0  0  0  0  0  0  0  0  0  0  0  0
   -0.9313    0.5765   -2.1822 C   0  0  0  0  0  3  0  0  0  0  0  0
   -1.7098    0.1797   -2.8535 H   0  0  0  0  0  0  0  0  0  0  0  0
   -0.9535    1.6630   -2.0162 H   0  0  0  0  0  0  0  0  0  0  0  0
    4.1059   -0.9475    1.5258 C   0  0  0  0  0  0  0  0  0  0  0  0
    3.8361   -2.3343    1.5234 C   0  0  0  0  0  0  0  0  0  0  0  0
    3.5088   -2.8345    0.5994 H   0  0  0  0  0  0  0  0  0  0  0  0
    3.9745   -3.0693    2.7076 C   0  0  0  0  0  0  0  0  0  0  0  0
    3.7556   -4.1474    2.7080 H   0  0  0  0  0  0  0  0  0  0  0  0
    4.3773   -2.4289    3.8916 C   0  0  0  0  0  0  0  0  0  0  0  0
    4.4770   -3.0086    4.8216 H   0  0  0  0  0  0  0  0  0  0  0  0
    4.6434   -1.0514    3.8929 C   0  0  0  0  0  0  0  0  0  0  0  0
    4.9515   -0.5482    4.8214 H   0  0  0  0  0  0  0  0  0  0  0  0
    4.5081   -0.3055    2.7121 C   0  0  0  0  0  0  0  0  0  0  0  0
    4.7040    0.7769    2.7124 H   0  0  0  0  0  0  0  0  0  0  0  0
    5.1162   -0.5806   -1.2155 C   0  0  0  0  0  0  0  0  0  0  0  0
    5.0962   -0.0381   -2.5203 C   0  0  0  0  0  0  0  0  0  0  0  0
    4.3206    0.6968   -2.7886 H   0  0  0  0  0  0  0  0  0  0  0  0
    6.0594   -0.4503   -3.4510 C   0  0  0  0  0  0  0  0  0  0  0  0
    6.0409   -0.0316   -4.4684 H   0  0  0  0  0  0  0  0  0  0  0  0
    7.0411   -1.3888   -3.0917 C   0  0  0  0  0  0  0  0  0  0  0  0
    7.7940   -1.7076   -3.8285 H   0  0  0  0  0  0  0  0  0  0  0  0
    7.0645   -1.9182   -1.7924 C   0  0  0  0  0  0  0  0  0  0  0  0
    7.8354   -2.6491   -1.5055 H   0  0  0  0  0  0  0  0  0  0  0  0
    6.1057   -1.5166   -0.8499 C   0  0  0  0  0  0  0  0  0  0  0  0
    6.1316   -1.9291    0.1690 H   0  0  0  0  0  0  0  0  0  0  0  0
    4.2260    1.7452    0.3277 C   0  0  0  0  0  0  0  0  0  0  0  0
    3.1681    2.5780    0.7425 C   0  0  0  0  0  0  0  0  0  0  0  0
    2.1318    2.1970    0.8018 H   0  0  0  0  0  0  0  0  0  0  0  0
    3.4412    3.9174    1.0562 C   0  0  0  0  0  0  0  0  0  0  0  0
    2.6135    4.5718    1.3682 H   0  0  0  0  0  0  0  0  0  0  0  0
    4.7494    4.4180    0.9608 C   0  0  0  0  0  0  0  0  0  0  0  0
    4.9544    5.4715    1.2050 H   0  0  0  0  0  0  0  0  0  0  0  0
    5.7990    3.5808    0.5449 C   0  0  0  0  0  0  0  0  0  0  0  0
    6.8229    3.9755    0.4629 H   0  0  0  0  0  0  0  0  0  0  0  0
    5.5424    2.2409    0.2237 C   0  0  0  0  0  0  0  0  0  0  0  0
    6.3584    1.5845   -0.1151 H   0  0  0  0  0  0  0  0  0  0  0  0
  1 34  1  0  0  0  0
  1 12  1  0  0  0  0
  2  6  2  0  0  0  0
  3  4  1  0  0  0  0
  5  1  1  0  0  0  0
  5  3  2  0  0  0  0
  6  5  1  0  0  0  0
  7  6  1  0  0  0  0
  8  7  1  0  0  0  0
  9  7  1  0  0  0  0
  9 11  1  0  0  0  0
 10  9  1  0  0  0  0
 12 21  1  0  0  0  0
 13 12  2  0  0  0  0
 13 15  1  0  0  0  0
 14 13  1  0  0  0  0
 15 16  1  0  0  0  0
 15 17  2  0  0  0  0
 17 19  1  0  0  0  0
 17 18  1  0  0  0  0
 19 20  1  0  0  0  0
 21 22  1  0  0  0  0
 21 19  2  0  0  0  0
 23 32  1  0  0  0  0
 23  1  1  0  0  0  0
 24 23  2  0  0  0  0
 25 24  1  0  0  0  0
 26 28  2  0  0  0  0
 26 24  1  0  0  0  0
 27 26  1  0  0  0  0
 28 30  1  0  0  0  0
 29 28  1  0  0  0  0
 30 31  1  0  0  0  0
 30 32  2  0  0  0  0
 32 33  1  0  0  0  0
 34 35  1  0  0  0  0
 35 36  1  0  0  0  0
 35 37  2  0  0  0  0
 37 38  1  0  0  0  0
 39 37  1  0  0  0  0
 39 40  1  0  0  0  0
 41 39  2  0  0  0  0
 42 41  1  0  0  0  0
 43 34  2  0  0  0  0
 43 41  1  0  0  0  0
 44 43  1  0  0  0  0
M  END
