8,41
q = -2.0, confidence = 0.738

 72 77  0  0  1  0  0  0  0  0999 V2000
    0.9207    0.9055   -1.7944 C   0  0  0  0  0  0  0  0  0  0  0  0
    0.7256    2.3631   -1.9371 C   0  0  0  0  0  0  0  0  0  0  0  0
    1.4781    3.2843   -1.1710 C   0  0  0  0  0  0  0  0  0  0  0  0
    1.3238    4.6645   -1.3568 C   0  0  0  0  0  0  0  0  0  0  0  0
    0.4235    5.1560   -2.3148 C   0  0  0  0  0  0  0  0  0  0  0  0
   -0.3137    4.2519   -3.0957 C   0  0  0  0  0  0  0  0  0  0  0  0
   -0.1625    2.8718   -2.9138 C   0  0  0  0  0  0  0  0  0  0  0  0
    0.7992   -0.0417   -2.8706 C   0  0  0  0  0  3  0  0  0  0  0  0
    1.2962   -1.3125   -2.4330 C   0  0  0  0  0  0  0  0  0  0  0  0
    1.7062   -1.1867   -1.0630 C   0  0  0  0  0  0  0  0  0  0  0  0
    2.3736   -2.2314   -0.2584 C   0  0  0  0  0  0  0  0  0  0  0  0
    3.2881   -3.1060   -0.8836 C   0  0  0  0  0  0  0  0  0  0  0  0
    3.9675   -4.0819   -0.1412 C   0  0  0  0  0  0  0  0  0  0  0  0
    3.7455   -4.1984    1.2392 C   0  0  0  0  0  0  0  0  0  0  0  0
    2.8342   -3.3359    1.8702 C   0  0  0  0  0  0  0  0  0  0  0  0
    2.1516   -2.3641    1.1296 C   0  0  0  0  0  0  0  0  0  0  0  0
    1.4450    0.1732   -0.6564 C   0  0  0  0  0  0  0  0  0  0  0  0
    1.8191    0.7411    0.6652 C   0  0  0  0  0  0  0  0  0  0  0  0
    3.2650    0.7595    0.9974 C   0  0  0  0  0  0  0  0  0  0  0  0
    4.2361    0.7578   -0.0306 C   0  0  0  0  0  0  0  0  0  0  0  0
    5.6044    0.7878    0.2714 C   0  0  0  0  0  0  0  0  0  0  0  0
    6.0335    0.8107    1.6068 C   0  0  0  0  0  0  0  0  0  0  0  0
    5.0800    0.8011    2.6392 C   0  0  0  0  0  0  0  0  0  0  0  0
    3.7137    0.7719    2.3385 C   0  0  0  0  0  0  0  0  0  0  0  0
    0.8648    1.2615    1.4789 C   0  0  0  0  0  0  0  0  0  0  0  0
   -0.5968    1.2425    1.1306 C   0  0  2  0  0  0  0  0  0  0  0  0
   -1.5123    1.6655    2.2722 C   0  0  0  0  0  0  0  0  0  0  0  0
   -1.2773    1.2484    3.5973 C   0  0  0  0  0  0  0  0  0  0  0  0
   -2.1792    1.5750    4.6220 C   0  0  0  0  0  0  0  0  0  0  0  0
   -3.3336    2.3191    4.3330 C   0  0  0  0  0  0  0  0  0  0  0  0
   -3.5819    2.7304    3.0133 C   0  0  0  0  0  0  0  0  0  0  0  0
   -2.6802    2.4017    1.9915 C   0  0  0  0  0  0  0  0  0  0  0  0
   -1.0972   -0.1389    0.6765 C   0  0  0  0  0  3  0  0  0  0  0  0
   -2.2520   -0.2122   -0.1668 C   0  0  2  0  0  3  0  0  0  0  0  0
   -3.4575   -1.0333    0.0633 C   0  0  0  0  0  0  0  0  0  0  0  0
   -3.7135   -1.5751    1.3438 C   0  0  0  0  0  0  0  0  0  0  0  0
   -4.8728   -2.3247    1.5836 C   0  0  0  0  0  0  0  0  0  0  0  0
   -5.8033   -2.5403    0.5553 C   0  0  0  0  0  0  0  0  0  0  0  0
   -5.5682   -1.9905   -0.7164 C   0  0  0  0  0  0  0  0  0  0  0  0
   -4.4102   -1.2443   -0.9618 C   0  0  0  0  0  0  0  0  0  0  0  0
   -2.0246    0.5320   -1.3815 C   0  0  0  0  0  3  0  0  0  0  0  0
   -2.5497    1.3491   -2.0968 O   0  0  0  0  0  0  0  0  0  0  0  0
    2.2088    2.9201   -0.4376 H   0  0  0  0  0  0  0  0  0  0  0  0
    1.9227    5.3617   -0.7514 H   0  0  0  0  0  0  0  0  0  0  0  0
    0.3022    6.2405   -2.4575 H   0  0  0  0  0  0  0  0  0  0  0  0
   -1.0218    4.6234   -3.8518 H   0  0  0  0  0  0  0  0  0  0  0  0
   -0.7711    2.1793   -3.5091 H   0  0  0  0  0  0  0  0  0  0  0  0
    0.4606    0.1995   -3.8844 H   0  0  0  0  0  0  0  0  0  0  0  0
    1.3627   -2.2249   -3.0365 H   0  0  0  0  0  0  0  0  0  0  0  0
    3.4837   -3.0039   -1.9617 H   0  0  0  0  0  0  0  0  0  0  0  0
    4.6805   -4.7519   -0.6451 H   0  0  0  0  0  0  0  0  0  0  0  0
    4.2795   -4.9631    1.8233 H   0  0  0  0  0  0  0  0  0  0  0  0
    2.6468   -3.4269    2.9507 H   0  0  0  0  0  0  0  0  0  0  0  0
    1.4243   -1.7044    1.6223 H   0  0  0  0  0  0  0  0  0  0  0  0
    3.9100    0.7410   -1.0813 H   0  0  0  0  0  0  0  0  0  0  0  0
    6.3417    0.7908   -0.5457 H   0  0  0  0  0  0  0  0  0  0  0  0
    7.1078    0.8253    1.8447 H   0  0  0  0  0  0  0  0  0  0  0  0
    5.4061    0.8001    3.6905 H   0  0  0  0  0  0  0  0  0  0  0  0
    2.9777    0.7266    3.1550 H   0  0  0  0  0  0  0  0  0  0  0  0
    1.1692    1.7769    2.4026 H   0  0  0  0  0  0  0  0  0  0  0  0
   -0.7650    1.9563    0.2919 H   0  0  0  0  0  0  0  0  0  0  0  0
   -0.3786    0.6551    3.8311 H   0  0  0  0  0  0  0  0  0  0  0  0
   -1.9796    1.2439    5.6528 H   0  0  0  0  0  0  0  0  0  0  0  0
   -4.0420    2.5754    5.1353 H   0  0  0  0  0  0  0  0  0  0  0  0
   -4.4873    3.3100    2.7769 H   0  0  0  0  0  0  0  0  0  0  0  0
   -2.8836    2.7090    0.9531 H   0  0  0  0  0  0  0  0  0  0  0  0
   -1.0326   -0.8864    1.4869 H   0  0  0  0  0  0  0  0  0  0  0  0
   -3.0095   -1.3827    2.1662 H   0  0  0  0  0  0  0  0  0  0  0  0
   -5.0545   -2.7362    2.5882 H   0  0  0  0  0  0  0  0  0  0  0  0
   -6.7139   -3.1283    0.7453 H   0  0  0  0  0  0  0  0  0  0  0  0
   -6.2956   -2.1455   -1.5277 H   0  0  0  0  0  0  0  0  0  0  0  0
   -4.2399   -0.8182   -1.9610 H   0  0  0  0  0  0  0  0  0  0  0  0
  1 17  2  0  0  0  0
  2  1  1  0  0  0  0
  2  3  1  0  0  0  0
  3 43  1  0  0  0  0
  4  3  2  0  0  0  0
  4 44  1  0  0  0  0
  5  4  1  0  0  0  0
  6  7  1  0  0  0  0
  6  5  2  0  0  0  0
  7  2  2  0  0  0  0
  8  9  1  0  0  0  0
  8  1  1  0  0  0  0
  9 10  2  0  0  0  0
 10 17  1  0  0  0  0
 10 11  1  0  0  0  0
 11 16  1  0  0  0  0
 12 11  2  0  0  0  0
 12 13  1  0  0  0  0
 13 14  2  0  0  0  0
 14 52  1  0  0  0  0
 14 15  1  0  0  0  0
 15 53  1  0  0  0  0
 16 54  1  0  0  0  0
 16 15  2  0  0  0  0
 17 18  1  0  0  0  0
 18 19  1  0  0  0  0
 18 25  2  0  0  0  0
 19 24  1  0  0  0  0
 20 21  1  0  0  0  0
 20 19  2  0  0  0  0
 21 22  2  0  0  0  0
 22 57  1  0  0  0  0
 22 23  1  0  0  0  0
 23 58  1  0  0  0  0
 24 23  2  0  0  0  0
 24 59  1  0  0  0  0
 25 60  1  0  0  0  0
 26 61  1  6  0  0  0
 26 25  1  0  0  0  0
 26 27  1  0  0  0  0
 27 28  1  0  0  0  0
 28 62  1  0  0  0  0
 28 29  2  0  0  0  0
 29 63  1  0  0  0  0
 30 29  1  0  0  0  0
 30 64  1  0  0  0  0
 31 30  2  0  0  0  0
 32 27  2  0  0  0  0
 32 31  1  0  0  0  0
 33 26  1  0  0  0  0
 33 67  1  0  0  0  0
 34 41  1  6  0  0  0
 34 35  1  0  0  0  0
 34 33  1  0  0  0  0
 35 36  1  0  0  0  0
 36 37  2  0  0  0  0
 36 68  1  0  0  0  0
 37 69  1  0  0  0  0
 38 70  1  0  0  0  0
 38 37  1  0  0  0  0
 39 38  2  0  0  0  0
 40 39  1  0  0  0  0
 40 35  2  0  0  0  0
 42 41  2  0  0  0  0
 45  5  1  0  0  0  0
 46  6  1  0  0  0  0
 47  7  1  0  0  0  0
 48  8  1  0  0  0  0
 49  9  1  0  0  0  0
 50 12  1  0  0  0  0
 51 13  1  0  0  0  0
 55 20  1  0  0  0  0
 56 21  1  0  0  0  0
 65 31  1  0  0  0  0
 66 32  1  0  0  0  0
 71 39  1  0  0  0  0
 72 40  1  0  0  0  0
M  END
