3,6
q = -1.0

 32 33  0  0  1  0  0  0  0  0999 V2000
    2.7504   -1.8072   -0.5510 Si  0  0  0  0  0  0  0  0  0  0  0  0
    1.7403   -0.2363   -0.3018 C   0  0  1  0  0  3  0  0  0  0  0  0
    1.4877    0.4520    0.9309 C   0  0  0  0  0  3  0  0  0  0  0  0
    0.8402    1.6880    0.6538 C   0  0  0  0  0  0  0  0  0  0  0  0
    0.6925    1.7922   -0.7605 C   0  0  0  0  0  0  0  0  0  0  0  0
    1.2436    0.6185   -1.3450 C   0  0  0  0  0  3  0  0  0  0  0  0
    1.8122   -3.0753   -1.5952 C   0  0  0  0  0  0  0  0  0  0  0  0
    3.2711   -2.5424    1.1080 C   0  0  0  0  0  0  0  0  0  0  0  0
    4.3280   -1.2641   -1.4965 C   0  0  0  0  0  0  0  0  0  0  0  0
    5.1521   -0.3145   -0.6695 C   0  0  0  0  0  0  0  0  0  0  0  0
    4.8447    1.0636   -0.6193 C   0  0  0  0  0  0  0  0  0  0  0  0
    5.5663    1.9349    0.2091 C   0  0  0  0  0  0  0  0  0  0  0  0
    6.6122    1.4496    1.0103 C   0  0  0  0  0  0  0  0  0  0  0  0
    6.9304    0.0830    0.9711 C   0  0  0  0  0  0  0  0  0  0  0  0
    6.2071   -0.7869    0.1416 C   0  0  0  0  0  0  0  0  0  0  0  0
    1.7501    0.0777    1.9282 H   0  0  0  0  0  0  0  0  0  0  0  0
    0.4998    2.4299    1.3855 H   0  0  0  0  0  0  0  0  0  0  0  0
    0.2062    2.6192   -1.2922 H   0  0  0  0  0  0  0  0  0  0  0  0
    1.2927    0.4109   -2.4213 H   0  0  0  0  0  0  0  0  0  0  0  0
    0.8980   -3.4149   -1.0682 H   0  0  0  0  0  0  0  0  0  0  0  0
    1.5070   -2.6488   -2.5724 H   0  0  0  0  0  0  0  0  0  0  0  0
    2.4439   -3.9650   -1.7955 H   0  0  0  0  0  0  0  0  0  0  0  0
    3.7986   -1.7866    1.7239 H   0  0  0  0  0  0  0  0  0  0  0  0
    2.4086   -2.9309    1.6849 H   0  0  0  0  0  0  0  0  0  0  0  0
    3.9722   -3.3865    0.9429 H   0  0  0  0  0  0  0  0  0  0  0  0
    4.0066   -0.7958   -2.4507 H   0  0  0  0  0  0  0  0  0  0  0  0
    4.9062   -2.1759   -1.7562 H   0  0  0  0  0  0  0  0  0  0  0  0
    4.0206    1.4550   -1.2356 H   0  0  0  0  0  0  0  0  0  0  0  0
    5.3069    3.0047    0.2281 H   0  0  0  0  0  0  0  0  0  0  0  0
    7.1791    2.1339    1.6596 H   0  0  0  0  0  0  0  0  0  0  0  0
    7.7521   -0.3105    1.5894 H   0  0  0  0  0  0  0  0  0  0  0  0
    6.4648   -1.8581    0.1177 H   0  0  0  0  0  0  0  0  0  0  0  0
  1  8  1  0  0  0  0
  2  1  1  6  0  0  0
  2  3  1  0  0  0  0
  3 16  1  0  0  0  0
  4  3  1  0  0  0  0
  4 17  1  0  0  0  0
  5  4  2  0  0  0  0
  6  5  1  0  0  0  0
  6  2  1  0  0  0  0
  7 20  1  0  0  0  0
  7  1  1  0  0  0  0
  8 24  1  0  0  0  0
  8 23  1  0  0  0  0
  9 10  1  0  0  0  0
  9  1  1  0  0  0  0
 10 11  2  0  0  0  0
 10 15  1  0  0  0  0
 11 12  1  0  0  0  0
 12 29  1  0  0  0  0
 12 13  2  0  0  0  0
 13 30  1  0  0  0  0
 14 13  1  0  0  0  0
 14 31  1  0  0  0  0
 15 14  2  0  0  0  0
 18  5  1  0  0  0  0
 19  6  1  0  0  0  0
 21  7  1  0  0  0  0
 22  7  1  0  0  0  0
 25  8  1  0  0  0  0
 26  9  1  0  0  0  0
 27  9  1  0  0  0  0
 28 11  1  0  0  0  0
 32 15  1  0  0  0  0
M  END
