2,5
q = -1.0

 29 30  0  0  1  0  0  0  0  0999 V2000
    0.9219    1.6851    0.5428 N   0  0  0  0  0  0  0  0  0  0  0  0
   -0.3287    1.2645    0.4796 C   0  0  0  0  0  2  0  0  0  0  0  0
   -1.3658    2.3083    0.8634 C   0  0  0  0  0  0  0  0  0  0  0  0
   -2.5718    2.2021   -0.0874 C   0  0  0  0  0  0  0  0  0  0  0  0
   -2.7519    0.7382   -0.3831 C   0  0  2  0  0  3  0  0  0  0  0  0
   -3.0421   -0.2731    0.5924 C   0  0  0  0  0  3  0  0  0  0  0  0
   -2.8434   -1.5604   -0.0289 C   0  0  0  0  0  0  0  0  0  0  0  0
   -2.4271   -1.3441   -1.3723 C   0  0  0  0  0  0  0  0  0  0  0  0
   -2.3673    0.0799   -1.5985 C   0  0  0  0  0  3  0  0  0  0  0  0
    2.1271    0.9434    0.2757 C   0  0  0  0  0  0  0  0  0  0  0  0
    2.5723   -0.0361    1.1791 C   0  0  0  0  0  0  0  0  0  0  0  0
    3.7446   -0.7486    0.8882 C   0  0  0  0  0  0  0  0  0  0  0  0
    4.4675   -0.4716   -0.2827 C   0  0  0  0  0  0  0  0  0  0  0  0
    4.0283    0.5305   -1.1633 C   0  0  0  0  0  0  0  0  0  0  0  0
    2.8579    1.2490   -0.8849 C   0  0  0  0  0  0  0  0  0  0  0  0
    1.0701    2.6806    0.7740 H   0  0  0  0  0  0  0  0  0  0  0  0
   -1.6859    2.0579    1.8998 H   0  0  0  0  0  0  0  0  0  0  0  0
   -0.9440    3.3377    0.9081 H   0  0  0  0  0  0  0  0  0  0  0  0
   -2.3712    2.7480   -1.0296 H   0  0  0  0  0  0  0  0  0  0  0  0
   -3.4812    2.6431    0.3656 H   0  0  0  0  0  0  0  0  0  0  0  0
   -3.3667   -0.1015    1.6263 H   0  0  0  0  0  0  0  0  0  0  0  0
   -2.9844   -2.5368    0.4513 H   0  0  0  0  0  0  0  0  0  0  0  0
   -2.1902   -2.1245   -2.1060 H   0  0  0  0  0  0  0  0  0  0  0  0
   -2.0834    0.5768   -2.5342 H   0  0  0  0  0  0  0  0  0  0  0  0
    2.0175   -0.2265    2.1078 H   0  0  0  0  0  0  0  0  0  0  0  0
    4.0986   -1.5191    1.5887 H   0  0  0  0  0  0  0  0  0  0  0  0
    5.3856   -1.0342   -0.5066 H   0  0  0  0  0  0  0  0  0  0  0  0
    4.5984    0.7532   -2.0770 H   0  0  0  0  0  0  0  0  0  0  0  0
    2.4978    2.0265   -1.5749 H   0  0  0  0  0  0  0  0  0  0  0  0
  1 16  1  0  0  0  0
  2  1  1  0  0  0  0
  2  3  1  0  0  0  0
  3 18  1  0  0  0  0
  3 17  1  0  0  0  0
  4 20  1  0  0  0  0
  4  3  1  0  0  0  0
  5  4  1  1  0  0  0
  5  6  1  0  0  0  0
  6 21  1  0  0  0  0
  7 22  1  0  0  0  0
  7  6  1  0  0  0  0
  8  7  2  0  0  0  0
  9  8  1  0  0  0  0
  9  5  1  0  0  0  0
 10  1  1  0  0  0  0
 10 11  1  0  0  0  0
 11 25  1  0  0  0  0
 12 11  2  0  0  0  0
 12 26  1  0  0  0  0
 13 12  1  0  0  0  0
 14 15  1  0  0  0  0
 14 13  2  0  0  0  0
 15 10  2  0  0  0  0
 19  4  1  0  0  0  0
 23  8  1  0  0  0  0
 24  9  1  0  0  0  0
 27 13  1  0  0  0  0
 28 14  1  0  0  0  0
 29 15  1  0  0  0  0
M  END
