2,4
q = -1.0

 33 35  0  0  0  0  0  0  0  0999 V2000
   -1.6251   -0.7703   -0.5620 C   0  0  0  0  0  0  0  0  0  0  0  0
   -1.2039   -2.1633   -0.5489 C   0  0  0  0  0  3  0  0  0  0  0  0
   -0.3656   -2.4187   -1.6913 C   0  0  0  0  0  3  0  0  0  0  0  0
   -0.1588   -1.1652   -2.3308 C   0  0  0  0  0  3  0  0  0  0  0  0
   -0.9591   -0.1526   -1.6522 C   0  0  0  0  0  0  0  0  0  0  0  0
   -2.6295   -0.1537    0.3846 C   0  0  0  0  0  0  0  0  0  0  0  0
   -2.3436    1.3294    0.6041 C   0  0  0  0  0  0  0  0  0  0  0  0
   -2.8588    2.3115   -0.2636 C   0  0  0  0  0  0  0  0  0  0  0  0
   -2.5353    3.6658   -0.0815 C   0  0  0  0  0  0  0  0  0  0  0  0
   -1.7054    4.0566    0.9812 C   0  0  0  0  0  0  0  0  0  0  0  0
   -1.1968    3.0836    1.8571 C   0  0  0  0  0  0  0  0  0  0  0  0
   -1.5067    1.7292    1.6637 C   0  0  0  0  0  0  0  0  0  0  0  0
   -4.0779   -0.4032   -0.0401 C   0  0  0  0  0  0  0  0  0  0  0  0
   -4.4238   -0.8168   -1.3394 C   0  0  0  0  0  0  0  0  0  0  0  0
   -5.7698   -1.0069   -1.6959 C   0  0  0  0  0  0  0  0  0  0  0  0
   -6.7875   -0.7897   -0.7563 C   0  0  0  0  0  0  0  0  0  0  0  0
   -6.4516   -0.3801    0.5455 C   0  0  0  0  0  0  0  0  0  0  0  0
   -5.1094   -0.1888    0.8975 C   0  0  0  0  0  0  0  0  0  0  0  0
   -1.5637   -2.9180    0.1623 H   0  0  0  0  0  0  0  0  0  0  0  0
    0.0650   -3.3837   -1.9807 H   0  0  0  0  0  0  0  0  0  0  0  0
    0.4418   -0.9990   -3.2334 H   0  0  0  0  0  0  0  0  0  0  0  0
   -1.0540    0.8993   -1.9433 H   0  0  0  0  0  0  0  0  0  0  0  0
   -2.4915   -0.6554    1.3654 H   0  0  0  0  0  0  0  0  0  0  0  0
   -3.5306    2.0102   -1.0822 H   0  0  0  0  0  0  0  0  0  0  0  0
   -2.9445    4.4222   -0.7688 H   0  0  0  0  0  0  0  0  0  0  0  0
   -1.4610    5.1194    1.1311 H   0  0  0  0  0  0  0  0  0  0  0  0
   -0.5504    3.3799    2.6974 H   0  0  0  0  0  0  0  0  0  0  0  0
   -1.0923    0.9620    2.3355 H   0  0  0  0  0  0  0  0  0  0  0  0
   -3.6283   -0.9957   -2.0784 H   0  0  0  0  0  0  0  0  0  0  0  0
   -6.0220   -1.3314   -2.7173 H   0  0  0  0  0  0  0  0  0  0  0  0
   -7.8415   -0.9417   -1.0345 H   0  0  0  0  0  0  0  0  0  0  0  0
   -7.2428   -0.2097    1.2918 H   0  0  0  0  0  0  0  0  0  0  0  0
   -4.8492    0.1405    1.9162 H   0  0  0  0  0  0  0  0  0  0  0  0
  1  2  1  0  0  0  0
  1  6  1  0  0  0  0
  2 19  1  0  0  0  0
  3  2  1  0  0  0  0
  4  3  1  0  0  0  0
  4  5  1  0  0  0  0
  5  1  2  0  0  0  0
  6  7  1  0  0  0  0
  6 23  1  0  0  0  0
  7 12  1  0  0  0  0
  8  9  1  0  0  0  0
  8  7  2  0  0  0  0
  9 10  2  0  0  0  0
 10 26  1  0  0  0  0
 10 11  1  0  0  0  0
 11 27  1  0  0  0  0
 12 11  2  0  0  0  0
 12 28  1  0  0  0  0
 13  6  1  0  0  0  0
 13 18  1  0  0  0  0
 14 13  2  0  0  0  0
 15 14  1  0  0  0  0
 15 16  2  0  0  0  0
 16 17  1  0  0  0  0
 17 18  2  0  0  0  0
 17 32  1  0  0  0  0
 18 33  1  0  0  0  0
 20  3  1  0  0  0  0
 21  4  1  0  0  0  0
 22  5  1  0  0  0  0
 24  8  1  0  0  0  0
 25  9  1  0  0  0  0
 29 14  1  0  0  0  0
 30 15  1  0  0  0  0
 31 16  1  0  0  0  0
M  END
