4,16
q = -1.0, confidence = 0.0

 16 16  0  0  0  0  0  0  0  0999 V2000
    0.4534    2.8516    0.8582 N   0  0  0  0  0  0  0  0  0  0  0  0
    0.1533    2.4921   -1.2587 N   0  0  0  0  0  0  0  0  0  0  0  0
   -0.6597   -0.5164   -2.9138 O   0  0  0  0  0  0  0  0  0  0  0  0
    0.1891    1.8420   -0.0464 C   0  0  0  0  0  2  0  0  0  0  0  0
    0.6798    2.7324    2.2943 C   0  0  0  0  0  0  0  0  0  0  0  0
    0.8736    1.6730    2.5383 H   0  0  0  0  0  0  0  0  0  0  0  0
   -0.2093    3.0725    2.8619 H   0  0  0  0  0  0  0  0  0  0  0  0
    1.5499    3.3578    2.5729 H   0  0  0  0  0  0  0  0  0  0  0  0
    0.5506    4.0814    0.2062 C   0  0  0  0  0  0  0  0  0  0  0  0
    0.7460    5.0061    0.7566 H   0  0  0  0  0  0  0  0  0  0  0  0
    0.3678    3.8518   -1.1298 C   0  0  0  0  0  0  0  0  0  0  0  0
    0.3761    4.5309   -1.9867 H   0  0  0  0  0  0  0  0  0  0  0  0
   -0.0750    1.7064   -2.4427 C   0  0  0  0  0  0  0  0  0  0  0  0
    0.8026    1.7432   -3.1236 H   0  0  0  0  0  0  0  0  0  0  0  0
   -0.9631    2.0649   -3.0021 H   0  0  0  0  0  0  0  0  0  0  0  0
   -0.2782    0.2294   -2.0149 C   0  0  0  0  0  3  0  0  0  0  0  0
  1  5  1  0  0  0  0
  2 11  1  0  0  0  0
  2  4  1  0  0  0  0
  3 16  2  0  0  0  0
  4  1  1  0  0  0  0
  5  6  1  0  0  0  0
  5  8  1  0  0  0  0
  5  7  1  0  0  0  0
  9 10  1  0  0  0  0
  9  1  1  0  0  0  0
 11  9  2  0  0  0  0
 12 11  1  0  0  0  0
 13 16  1  0  0  0  0
 13  2  1  0  0  0  0
 14 13  1  0  0  0  0
 15 13  1  0  0  0  0
M  END
