2,12
q = 0.0, confidence = 0.512

 25 26  0  0  0  0  0  0  0  0999 V2000
    0.0003   -3.6786   -0.0707 N   0  0  0  0  0  0  0  0  0  0  0  0
    1.3701   -1.8042   -0.9051 C   0  0  0  0  0  2  0  0  0  0  0  0
    2.5434   -1.4010   -1.5742 C   0  0  0  0  0  3  0  0  0  0  0  0
    2.6803   -0.3379   -1.8284 H   0  0  0  0  0  0  0  0  0  0  0  0
    3.5837   -2.2942   -1.8780 C   0  0  0  0  0  0  0  0  0  0  0  0
    4.4945   -1.9335   -2.3799 H   0  0  0  0  0  0  0  0  0  0  0  0
    3.4591   -3.6362   -1.4970 C   0  0  0  0  0  0  0  0  0  0  0  0
    4.2701   -4.3532   -1.6990 H   0  0  0  0  0  0  0  0  0  0  0  0
    2.2816   -4.0835   -0.8803 C   0  0  0  0  0  0  0  0  0  0  0  0
    2.1816   -5.1517   -0.6430 H   0  0  0  0  0  0  0  0  0  0  0  0
    1.2164   -3.1890   -0.6116 C   0  0  0  0  0  0  0  0  0  0  0  0
   -1.3699   -1.8044   -0.9050 C   0  0  0  0  0  3  0  0  0  0  0  0
   -2.5433   -1.4014   -1.5741 C   0  0  0  0  0  0  0  0  0  0  0  0
   -2.6804   -0.3383   -1.8283 H   0  0  0  0  0  0  0  0  0  0  0  0
   -3.5834   -2.2947   -1.8780 C   0  0  0  0  0  0  0  0  0  0  0  0
   -4.4943   -1.9342   -2.3798 H   0  0  0  0  0  0  0  0  0  0  0  0
   -3.4587   -3.6367   -1.4970 C   0  0  0  0  0  0  0  0  0  0  0  0
   -4.2695   -4.3539   -1.6990 H   0  0  0  0  0  0  0  0  0  0  0  0
   -2.2811   -4.0838   -0.8803 C   0  0  0  0  0  0  0  0  0  0  0  0
   -2.1809   -5.1521   -0.6431 H   0  0  0  0  0  0  0  0  0  0  0  0
   -1.2159   -3.1892   -0.6116 C   0  0  0  0  0  0  0  0  0  0  0  0
    0.0005   -4.9826    0.5541 C   0  0  0  0  0  0  0  0  0  0  0  0
   -0.8960   -5.0825    1.1967 H   0  0  0  0  0  0  0  0  0  0  0  0
    0.8970   -5.0823    1.1965 H   0  0  0  0  0  0  0  0  0  0  0  0
    0.0005   -5.8383   -0.1652 H   0  0  0  0  0  0  0  0  0  0  0  0
  1 22  1  0  0  0  0
  2 11  1  0  0  0  0
  3  2  1  0  0  0  0
  4  3  1  0  0  0  0
  5  3  1  0  0  0  0
  5  7  2  0  0  0  0
  6  5  1  0  0  0  0
  7  9  1  0  0  0  0
  8  7  1  0  0  0  0
  9 10  1  0  0  0  0
  9 11  2  0  0  0  0
 11  1  1  0  0  0  0
 12 21  1  0  0  0  0
 13 12  2  0  0  0  0
 14 13  1  0  0  0  0
 15 13  1  0  0  0  0
 15 17  2  0  0  0  0
 16 15  1  0  0  0  0
 17 19  1  0  0  0  0
 18 17  1  0  0  0  0
 19 20  1  0  0  0  0
 19 21  2  0  0  0  0
 21  1  1  0  0  0  0
 22 24  1  0  0  0  0
 22 23  1  0  0  0  0
 25 22  1  0  0  0  0
M  END
