3,7
q = 0.0, confidence = 0.996

 37 39  0  0  1  0  0  0  0  0999 V2000
    1.4000   -2.7644    0.4618 S   0  0  0  0  0  0  0  0  0  0  0  0
    0.2012    0.6717    0.2350 C   0  0  1  0  0  3  0  0  0  0  0  0
   -0.3699    0.7160   -1.0648 C   0  0  0  0  0  3  0  0  0  0  0  0
   -1.6329    1.3278   -1.3115 C   0  0  0  0  0  3  0  0  0  0  0  0
   -2.3433    1.9536   -0.2406 C   0  0  0  0  0  0  0  0  0  0  0  0
   -1.8284    1.8130    1.0908 C   0  0  0  0  0  0  0  0  0  0  0  0
   -0.5640    1.2185    1.3096 C   0  0  0  0  0  3  0  0  0  0  0  0
   -4.1751    2.6299   -1.6277 C   0  0  0  0  0  0  0  0  0  0  0  0
    1.5743    0.0369    0.5093 C   0  0  1  0  0  0  0  0  0  0  0  0
    1.7514   -1.2351   -0.3011 C   0  0  0  0  0  0  0  0  0  0  0  0
    2.1338   -1.4102   -1.6224 C   0  0  0  0  0  0  0  0  0  0  0  0
    2.1192   -2.7819   -2.0240 C   0  0  0  0  0  0  0  0  0  0  0  0
    1.7390   -3.6269   -0.9994 C   0  0  0  0  0  0  0  0  0  0  0  0
    2.6950    1.0495    0.2140 C   0  0  0  0  0  0  0  0  0  0  0  0
    2.4560    2.4294    0.0678 C   0  0  0  0  0  0  0  0  0  0  0  0
    3.5260    3.3217   -0.1042 C   0  0  0  0  0  0  0  0  0  0  0  0
    4.8452    2.8462   -0.1238 C   0  0  0  0  0  0  0  0  0  0  0  0
    5.0922    1.4718    0.0247 C   0  0  0  0  0  0  0  0  0  0  0  0
    4.0252    0.5780    0.1855 C   0  0  0  0  0  0  0  0  0  0  0  0
    1.5517   -0.2818    1.9061 O   0  0  0  0  0  0  0  0  0  0  0  0
   -3.5091    2.5735   -0.3551 O   0  0  0  0  0  0  0  0  0  0  0  0
    2.4798   -0.3518    2.2028 H   0  0  0  0  0  0  0  0  0  0  0  0
    0.1602    0.2276   -1.8955 H   0  0  0  0  0  0  0  0  0  0  0  0
   -2.0457    1.3123   -2.3278 H   0  0  0  0  0  0  0  0  0  0  0  0
   -2.4320    2.1948    1.9259 H   0  0  0  0  0  0  0  0  0  0  0  0
   -0.1624    1.1161    2.3272 H   0  0  0  0  0  0  0  0  0  0  0  0
   -5.0992    3.2073   -1.4547 H   0  0  0  0  0  0  0  0  0  0  0  0
   -3.5486    3.1488   -2.3812 H   0  0  0  0  0  0  0  0  0  0  0  0
   -4.4367    1.6091   -1.9754 H   0  0  0  0  0  0  0  0  0  0  0  0
    2.4544   -0.5818   -2.2707 H   0  0  0  0  0  0  0  0  0  0  0  0
    2.3986   -3.1344   -3.0261 H   0  0  0  0  0  0  0  0  0  0  0  0
    1.6638   -4.7213   -1.0135 H   0  0  0  0  0  0  0  0  0  0  0  0
    1.4308    2.8268    0.0879 H   0  0  0  0  0  0  0  0  0  0  0  0
    3.3251    4.3969   -0.2217 H   0  0  0  0  0  0  0  0  0  0  0  0
    5.6826    3.5467   -0.2580 H   0  0  0  0  0  0  0  0  0  0  0  0
    6.1239    1.0904    0.0056 H   0  0  0  0  0  0  0  0  0  0  0  0
    4.2249   -0.5010    0.2764 H   0  0  0  0  0  0  0  0  0  0  0  0
  2  9  1  1  0  0  0
  2  7  1  0  0  0  0
  3  2  1  0  0  0  0
  4  3  1  0  0  0  0
  4  5  1  0  0  0  0
  5  6  2  0  0  0  0
  6  7  1  0  0  0  0
  6 25  1  0  0  0  0
  7 26  1  0  0  0  0
  8 27  1  0  0  0  0
  8 21  1  0  0  0  0
  9 20  1  1  0  0  0
 10  1  1  0  0  0  0
 10  9  1  0  0  0  0
 11 10  2  0  0  0  0
 12 11  1  0  0  0  0
 12 13  2  0  0  0  0
 13  1  1  0  0  0  0
 14  9  1  0  0  0  0
 15 33  1  0  0  0  0
 15 14  2  0  0  0  0
 16 15  1  0  0  0  0
 17 16  2  0  0  0  0
 17 18  1  0  0  0  0
 18 19  2  0  0  0  0
 19 14  1  0  0  0  0
 19 37  1  0  0  0  0
 20 22  1  0  0  0  0
 21  5  1  0  0  0  0
 23  3  1  0  0  0  0
 24  4  1  0  0  0  0
 28  8  1  0  0  0  0
 29  8  1  0  0  0  0
 30 11  1  0  0  0  0
 31 12  1  0  0  0  0
 32 13  1  0  0  0  0
 34 16  1  0  0  0  0
 35 17  1  0  0  0  0
 36 18  1  0  0  0  0
M  END
