5,16
q = -2.0, confidence = 0.93

 57 60  0  0  0  0  0  0  0  0999 V2000
   -1.6690   -2.4282    1.1054 Si  0  0  0  0  0  0  0  0  0  0  0  0
   -3.2214   -0.4218   -0.7357 Si  0  0  0  0  0  0  0  0  0  0  0  0
   -2.9198   -1.4151    0.5946 O   0  0  0  0  0  0  0  0  0  0  0  0
   -0.1318   -1.3588    1.3522 C   0  0  0  0  0  0  0  0  0  0  0  0
   -0.1543   -0.0948    2.0395 C   0  0  0  0  0  3  0  0  0  0  0  0
    1.1750    0.3939    2.1639 C   0  0  0  0  0  0  0  0  0  0  0  0
    2.0573   -0.5895    1.6114 C   0  0  0  0  0  0  0  0  0  0  0  0
    3.5577   -0.6095    1.6067 C   0  0  0  0  0  0  0  0  0  0  0  0
    4.0835   -1.6895    0.6527 C   0  0  0  0  0  0  0  0  0  0  0  0
    3.3767   -3.0285    0.9010 C   0  0  0  0  0  0  0  0  0  0  0  0
    1.8670   -2.9466    0.6100 C   0  0  0  0  0  0  0  0  0  0  0  0
    1.2618   -1.6725    1.1339 C   0  0  0  0  0  0  0  0  0  0  0  0
   -1.3973   -3.8104   -0.1402 C   0  0  0  0  0  0  0  0  0  0  0  0
   -2.1988   -3.1109    2.7755 C   0  0  0  0  0  0  0  0  0  0  0  0
   -1.9069    0.9272   -0.8156 C   0  0  0  0  0  0  0  0  0  0  0  0
   -1.1338    1.2855   -1.9755 C   0  0  0  0  0  3  0  0  0  0  0  0
   -0.3233    2.4073   -1.6690 C   0  0  0  0  0  0  0  0  0  0  0  0
   -0.6044    2.8037   -0.3203 C   0  0  0  0  0  0  0  0  0  0  0  0
   -0.0732    3.9819    0.4571 C   0  0  0  0  0  0  0  0  0  0  0  0
   -1.0592    4.4008    1.5609 C   0  0  0  0  0  0  0  0  0  0  0  0
   -1.5716    3.1948    2.3621 C   0  0  0  0  0  0  0  0  0  0  0  0
   -2.3461    2.2203    1.4627 C   0  0  0  0  0  0  0  0  0  0  0  0
   -1.5970    1.9154    0.1922 C   0  0  0  0  0  0  0  0  0  0  0  0
   -3.1835   -1.4007   -2.3408 C   0  0  0  0  0  0  0  0  0  0  0  0
   -4.9159    0.3389   -0.4406 C   0  0  0  0  0  0  0  0  0  0  0  0
   -1.0527    0.3881    2.4325 H   0  0  0  0  0  0  0  0  0  0  0  0
    1.4846    1.3384    2.6305 H   0  0  0  0  0  0  0  0  0  0  0  0
    3.9522    0.3917    1.3366 H   0  0  0  0  0  0  0  0  0  0  0  0
    3.9045   -0.8189    2.6446 H   0  0  0  0  0  0  0  0  0  0  0  0
    3.9081   -1.3624   -0.3957 H   0  0  0  0  0  0  0  0  0  0  0  0
    5.1801   -1.8009    0.7747 H   0  0  0  0  0  0  0  0  0  0  0  0
    3.5381   -3.3273    1.9610 H   0  0  0  0  0  0  0  0  0  0  0  0
    3.8271   -3.8290    0.2795 H   0  0  0  0  0  0  0  0  0  0  0  0
    1.6867   -3.0158   -0.4852 H   0  0  0  0  0  0  0  0  0  0  0  0
    1.3406   -3.8142    1.0592 H   0  0  0  0  0  0  0  0  0  0  0  0
   -0.7567   -4.6122    0.2791 H   0  0  0  0  0  0  0  0  0  0  0  0
   -0.9162   -3.4345   -1.0648 H   0  0  0  0  0  0  0  0  0  0  0  0
   -2.3746   -4.2616   -0.4086 H   0  0  0  0  0  0  0  0  0  0  0  0
   -1.4053   -3.7556    3.2057 H   0  0  0  0  0  0  0  0  0  0  0  0
   -3.1242   -3.7147    2.6804 H   0  0  0  0  0  0  0  0  0  0  0  0
   -2.3956   -2.2870    3.4905 H   0  0  0  0  0  0  0  0  0  0  0  0
   -1.1389    0.7499   -2.9308 H   0  0  0  0  0  0  0  0  0  0  0  0
    0.3970    2.8900   -2.3397 H   0  0  0  0  0  0  0  0  0  0  0  0
    0.1282    4.8250   -0.2350 H   0  0  0  0  0  0  0  0  0  0  0  0
    0.9136    3.7262    0.9011 H   0  0  0  0  0  0  0  0  0  0  0  0
   -0.5758    5.1356    2.2363 H   0  0  0  0  0  0  0  0  0  0  0  0
   -1.9289    4.9209    1.1016 H   0  0  0  0  0  0  0  0  0  0  0  0
   -2.2205    3.5329    3.1956 H   0  0  0  0  0  0  0  0  0  0  0  0
   -0.7078    2.6727    2.8298 H   0  0  0  0  0  0  0  0  0  0  0  0
   -2.6479    1.2985    2.0015 H   0  0  0  0  0  0  0  0  0  0  0  0
   -3.3052    2.6991    1.1589 H   0  0  0  0  0  0  0  0  0  0  0  0
   -2.1592   -1.7572   -2.5708 H   0  0  0  0  0  0  0  0  0  0  0  0
   -3.5280   -0.7753   -3.1901 H   0  0  0  0  0  0  0  0  0  0  0  0
   -3.8542   -2.2812   -2.2727 H   0  0  0  0  0  0  0  0  0  0  0  0
   -5.1705    1.0605   -1.2434 H   0  0  0  0  0  0  0  0  0  0  0  0
   -4.9549    0.8720    0.5299 H   0  0  0  0  0  0  0  0  0  0  0  0
   -5.6941   -0.4513   -0.4246 H   0  0  0  0  0  0  0  0  0  0  0  0
  1  4  1  0  0  0  0
  1 14  1  0  0  0  0
  2 25  1  0  0  0  0
  2  3  1  0  0  0  0
  3  1  1  0  0  0  0
  4  5  1  0  0  0  0
  5  6  1  0  0  0  0
  5 26  1  0  0  0  0
  6 27  1  0  0  0  0
  7  6  2  0  0  0  0
  8  7  1  0  0  0  0
  8 29  1  0  0  0  0
  9 31  1  0  0  0  0
  9 10  1  0  0  0  0
  9  8  1  0  0  0  0
 10 32  1  0  0  0  0
 11 10  1  0  0  0  0
 11 35  1  0  0  0  0
 11 12  1  0  0  0  0
 12  4  2  0  0  0  0
 12  7  1  0  0  0  0
 13 36  1  0  0  0  0
 13  1  1  0  0  0  0
 14 39  1  0  0  0  0
 14 41  1  0  0  0  0
 15  2  1  0  0  0  0
 15 23  2  0  0  0  0
 16 17  1  0  0  0  0
 16 15  1  0  0  0  0
 17 18  2  0  0  0  0
 18 23  1  0  0  0  0
 18 19  1  0  0  0  0
 19 45  1  0  0  0  0
 19 20  1  0  0  0  0
 20 46  1  0  0  0  0
 20 21  1  0  0  0  0
 21 49  1  0  0  0  0
 21 48  1  0  0  0  0
 22 50  1  0  0  0  0
 22 21  1  0  0  0  0
 23 22  1  0  0  0  0
 24 54  1  0  0  0  0
 24  2  1  0  0  0  0
 25 57  1  0  0  0  0
 25 56  1  0  0  0  0
 28  8  1  0  0  0  0
 30  9  1  0  0  0  0
 33 10  1  0  0  0  0
 34 11  1  0  0  0  0
 37 13  1  0  0  0  0
 38 13  1  0  0  0  0
 40 14  1  0  0  0  0
 42 16  1  0  0  0  0
 43 17  1  0  0  0  0
 44 19  1  0  0  0  0
 47 20  1  0  0  0  0
 51 22  1  0  0  0  0
 52 24  1  0  0  0  0
 53 24  1  0  0  0  0
 55 25  1  0  0  0  0
M  END
