3,7
q = 0.0, confidence = 0.998

 34 35  0  0  1  0  0  0  0  0999 V2000
   -1.1036   -0.9889    0.7822 C   0  0  0  0  0  0  0  0  0  0  0  0
    0.3056   -0.6953    0.7390 C   0  0  1  0  0  3  0  0  0  0  0  0
    0.7917    0.3749    1.5366 C   0  0  0  0  0  3  0  0  0  0  0  0
    1.8653    0.6060    1.5027 H   0  0  0  0  0  0  0  0  0  0  0  0
   -0.0888    1.1709    2.3301 C   0  0  0  0  0  3  0  0  0  0  0  0
    0.3036    2.0222    2.9018 H   0  0  0  0  0  0  0  0  0  0  0  0
   -1.4806    0.9262    2.2755 C   0  0  0  0  0  3  0  0  0  0  0  0
   -2.1784    1.5851    2.8108 H   0  0  0  0  0  0  0  0  0  0  0  0
   -2.0022   -0.1606    1.5047 C   0  0  0  0  0  0  0  0  0  0  0  0
   -3.0845   -0.3130    1.4210 H   0  0  0  0  0  0  0  0  0  0  0  0
   -1.4869   -2.0882    0.0641 O   0  0  0  0  0  0  0  0  0  0  0  0
   -2.8390   -2.5731    0.2110 C   0  0  0  0  0  0  0  0  0  0  0  0
   -2.7994   -3.5731   -0.2782 H   0  0  0  0  0  0  0  0  0  0  0  0
   -3.0687   -2.6728    1.2933 H   0  0  0  0  0  0  0  0  0  0  0  0
   -3.8003   -1.7532   -0.3337 O   0  0  0  0  0  0  0  0  0  0  0  0
   -3.8237   -1.7196   -1.7611 C   0  0  0  0  0  0  0  0  0  0  0  0
   -4.6687   -1.0686   -2.0503 H   0  0  0  0  0  0  0  0  0  0  0  0
   -3.9904   -2.7397   -2.1769 H   0  0  0  0  0  0  0  0  0  0  0  0
   -2.8859   -1.3024   -2.1811 H   0  0  0  0  0  0  0  0  0  0  0  0
    1.2047   -1.5953   -0.1175 C   0  0  2  0  0  0  0  0  0  0  0  0
    0.7382   -1.6472   -1.1285 H   0  0  0  0  0  0  0  0  0  0  0  0
    1.2714   -2.8887    0.4701 O   0  0  0  0  0  0  0  0  0  0  0  0
    0.3570   -3.2297    0.4406 H   0  0  0  0  0  0  0  0  0  0  0  0
    2.8386    0.0011   -1.1996 C   0  0  0  0  0  0  0  0  0  0  0  0
    2.0207    0.3483   -1.8490 H   0  0  0  0  0  0  0  0  0  0  0  0
    4.1086    0.5871   -1.2957 C   0  0  0  0  0  0  0  0  0  0  0  0
    4.2808    1.3977   -2.0196 H   0  0  0  0  0  0  0  0  0  0  0  0
    5.1546    0.1392   -0.4721 C   0  0  0  0  0  0  0  0  0  0  0  0
    6.1526    0.5969   -0.5495 H   0  0  0  0  0  0  0  0  0  0  0  0
    4.9239   -0.8989    0.4445 C   0  0  0  0  0  0  0  0  0  0  0  0
    5.7432   -1.2605    1.0848 H   0  0  0  0  0  0  0  0  0  0  0  0
    3.6498   -1.4788    0.5500 C   0  0  0  0  0  0  0  0  0  0  0  0
    3.4535   -2.2938    1.2609 H   0  0  0  0  0  0  0  0  0  0  0  0
    2.5989   -1.0279   -0.2689 C   0  0  0  0  0  0  0  0  0  0  0  0
  1  9  2  0  0  0  0
  2 20  1  1  0  0  0
  2  1  1  0  0  0  0
  2  3  1  0  0  0  0
  3  5  1  0  0  0  0
  4  3  1  0  0  0  0
  5  6  1  0  0  0  0
  7  5  1  0  0  0  0
  7  8  1  0  0  0  0
  9  7  1  0  0  0  0
 10  9  1  0  0  0  0
 11 12  1  0  0  0  0
 11  1  1  0  0  0  0
 12 14  1  0  0  0  0
 13 12  1  0  0  0  0
 15 12  1  0  0  0  0
 16 15  1  0  0  0  0
 17 16  1  0  0  0  0
 18 16  1  0  0  0  0
 19 16  1  0  0  0  0
 20 21  1  6  0  0  0
 20 22  1  0  0  0  0
 23 22  1  0  0  0  0
 24 34  1  0  0  0  0
 25 24  1  0  0  0  0
 26 24  2  0  0  0  0
 26 28  1  0  0  0  0
 27 26  1  0  0  0  0
 28 30  2  0  0  0  0
 29 28  1  0  0  0  0
 30 32  1  0  0  0  0
 30 31  1  0  0  0  0
 32 33  1  0  0  0  0
 34 20  1  0  0  0  0
 34 32  2  0  0  0  0
M  END
