5,12
q = 0.0, confidence = 0.99

 31 32  0  0  0  0  0  0  0  0999 V2000
    3.0446   -1.0072   -0.1322 N   0  0  0  0  0  0  0  0  0  0  0  0
    2.2995    0.3506    1.3680 N   0  0  0  0  0  0  0  0  0  0  0  0
    0.1496    2.9869   -0.2130 N   0  0  0  0  0  0  0  0  0  0  0  0
   -1.9210    2.3928   -0.2368 N   0  0  0  0  0  0  0  0  0  0  0  0
    1.9218   -0.2640    0.1870 C   0  0  0  0  0  2  0  0  0  0  0  0
    4.0476   -0.8766    0.8185 C   0  0  0  0  0  0  0  0  0  0  0  0
    3.5813   -0.0090    1.7665 C   0  0  0  0  0  0  0  0  0  0  0  0
    3.2076   -1.8361   -1.3185 C   0  0  0  0  0  0  0  0  0  0  0  0
    1.5695    1.4413    1.9997 C   0  0  0  0  0  0  0  0  0  0  0  0
    1.9926    2.7930    1.4103 C   0  0  0  0  0  0  0  0  0  0  0  0
    1.5952    2.9520   -0.0633 C   0  0  0  0  0  0  0  0  0  0  0  0
   -0.6494    1.8706   -0.3738 C   0  0  0  0  0  2  0  0  0  0  0  0
   -0.5896    4.1414    0.0112 C   0  0  0  0  0  0  0  0  0  0  0  0
   -1.9022    3.7621   -0.0121 C   0  0  0  0  0  0  0  0  0  0  0  0
   -3.1718    1.6521   -0.3234 C   0  0  0  0  0  0  0  0  0  0  0  0
    4.9995   -1.4102    0.7419 H   0  0  0  0  0  0  0  0  0  0  0  0
    4.0464    0.3796    2.6773 H   0  0  0  0  0  0  0  0  0  0  0  0
    2.7760   -1.3207   -2.1933 H   0  0  0  0  0  0  0  0  0  0  0  0
    4.2880   -2.0062   -1.4829 H   0  0  0  0  0  0  0  0  0  0  0  0
    2.6942   -2.8099   -1.2069 H   0  0  0  0  0  0  0  0  0  0  0  0
    0.4866    1.2539    1.8647 H   0  0  0  0  0  0  0  0  0  0  0  0
    1.7789    1.4114    3.0877 H   0  0  0  0  0  0  0  0  0  0  0  0
    1.5291    3.6068    2.0079 H   0  0  0  0  0  0  0  0  0  0  0  0
    3.0935    2.9121    1.5027 H   0  0  0  0  0  0  0  0  0  0  0  0
    1.9709    2.1071   -0.6722 H   0  0  0  0  0  0  0  0  0  0  0  0
    2.0141    3.8893   -0.4806 H   0  0  0  0  0  0  0  0  0  0  0  0
   -0.1252    5.1211    0.1577 H   0  0  0  0  0  0  0  0  0  0  0  0
   -2.8193    4.3482    0.0980 H   0  0  0  0  0  0  0  0  0  0  0  0
   -3.9550    2.2245    0.2081 H   0  0  0  0  0  0  0  0  0  0  0  0
   -3.4757    1.5028   -1.3766 H   0  0  0  0  0  0  0  0  0  0  0  0
   -3.0667    0.6617    0.1510 H   0  0  0  0  0  0  0  0  0  0  0  0
  1  5  1  0  0  0  0
  1  6  1  0  0  0  0
  2  7  1  0  0  0  0
  2  9  1  0  0  0  0
  3 11  1  0  0  0  0
  3 13  1  0  0  0  0
  4 14  1  0  0  0  0
  5  2  1  0  0  0  0
  6  7  2  0  0  0  0
  7 17  1  0  0  0  0
  8 20  1  0  0  0  0
  8  1  1  0  0  0  0
  9 22  1  0  0  0  0
 10 24  1  0  0  0  0
 10  9  1  0  0  0  0
 10 23  1  0  0  0  0
 11 10  1  0  0  0  0
 12  4  1  0  0  0  0
 12  3  1  0  0  0  0
 13 27  1  0  0  0  0
 14 13  2  0  0  0  0
 14 28  1  0  0  0  0
 15  4  1  0  0  0  0
 15 31  1  0  0  0  0
 15 29  1  0  0  0  0
 16  6  1  0  0  0  0
 18  8  1  0  0  0  0
 19  8  1  0  0  0  0
 21  9  1  0  0  0  0
 25 11  1  0  0  0  0
 26 11  1  0  0  0  0
 30 15  1  0  0  0  0
M  END
