3,7
q = 0.0, confidence = 1.0

 40 41  0  0  1  0  0  0  0  0999 V2000
   -0.9557    1.0145    0.6378 C   0  0  0  0  0  0  0  0  0  0  0  0
   -0.7592   -0.2776    1.2510 C   0  0  1  0  0  3  0  0  0  0  0  0
   -1.8529   -0.8418    1.9721 C   0  0  0  0  0  3  0  0  0  0  0  0
   -1.6760   -1.8350    2.4093 H   0  0  0  0  0  0  0  0  0  0  0  0
   -3.1072   -0.1861    2.0846 C   0  0  0  0  0  3  0  0  0  0  0  0
   -3.9435   -0.6737    2.6020 H   0  0  0  0  0  0  0  0  0  0  0  0
   -3.2909    1.0542    1.4245 C   0  0  0  0  0  3  0  0  0  0  0  0
   -4.2721    1.5493    1.4397 H   0  0  0  0  0  0  0  0  0  0  0  0
   -2.2110    1.6794    0.7368 C   0  0  0  0  0  0  0  0  0  0  0  0
   -2.3433    2.6616    0.2682 H   0  0  0  0  0  0  0  0  0  0  0  0
    0.1016    1.5661   -0.0371 O   0  0  0  0  0  0  0  0  0  0  0  0
   -0.1558    2.5782   -1.0361 C   0  0  0  0  0  0  0  0  0  0  0  0
    0.7888    2.5946   -1.6256 H   0  0  0  0  0  0  0  0  0  0  0  0
   -1.0123    2.2585   -1.6635 H   0  0  0  0  0  0  0  0  0  0  0  0
   -0.4654    3.8147   -0.5046 O   0  0  0  0  0  0  0  0  0  0  0  0
    0.6087    4.4427    0.1867 C   0  0  0  0  0  0  0  0  0  0  0  0
    0.2585    5.4474    0.4866 H   0  0  0  0  0  0  0  0  0  0  0  0
    1.5018    4.5494   -0.4714 H   0  0  0  0  0  0  0  0  0  0  0  0
    0.9031    3.8723    1.0943 H   0  0  0  0  0  0  0  0  0  0  0  0
    0.4665   -1.1708    1.1481 C   0  0  0  0  0  0  0  0  0  0  0  0
    0.5543   -2.1776    1.8542 O   0  0  0  0  0  0  0  0  0  0  0  0
    1.4028   -0.8053    0.2284 N   0  0  0  0  0  0  0  0  0  0  0  0
    1.2100    0.0250   -0.3371 H   0  0  0  0  0  0  0  0  0  0  0  0
    2.5617   -1.6210   -0.0846 C   0  0  1  0  0  0  0  0  0  0  0  0
    2.5868   -2.3995    0.7077 H   0  0  0  0  0  0  0  0  0  0  0  0
    2.3601   -2.3110   -1.4467 C   0  0  0  0  0  0  0  0  0  0  0  0
    1.4419   -2.9295   -1.4233 H   0  0  0  0  0  0  0  0  0  0  0  0
    3.2148   -2.9664   -1.7029 H   0  0  0  0  0  0  0  0  0  0  0  0
    2.2512   -1.5580   -2.2538 H   0  0  0  0  0  0  0  0  0  0  0  0
    3.8708    0.5545    0.3130 C   0  0  0  0  0  0  0  0  0  0  0  0
    2.9251    1.0634    0.5517 H   0  0  0  0  0  0  0  0  0  0  0  0
    5.0766    1.2731    0.3620 C   0  0  0  0  0  0  0  0  0  0  0  0
    5.0621    2.3428    0.6223 H   0  0  0  0  0  0  0  0  0  0  0  0
    6.2937    0.6332    0.0891 C   0  0  0  0  0  0  0  0  0  0  0  0
    7.2392    1.1950    0.1288 H   0  0  0  0  0  0  0  0  0  0  0  0
    6.2951   -0.7352   -0.2277 C   0  0  0  0  0  0  0  0  0  0  0  0
    7.2445   -1.2530   -0.4332 H   0  0  0  0  0  0  0  0  0  0  0  0
    5.0902   -1.4486   -0.2800 C   0  0  0  0  0  0  0  0  0  0  0  0
    5.1097   -2.5226   -0.5221 H   0  0  0  0  0  0  0  0  0  0  0  0
    3.8576   -0.8147   -0.0162 C   0  0  0  0  0  0  0  0  0  0  0  0
  1  9  2  0  0  0  0
  1  2  1  0  0  0  0
  2 20  1  6  0  0  0
  2  3  1  0  0  0  0
  3  5  1  0  0  0  0
  3  4  1  0  0  0  0
  5  6  1  0  0  0  0
  7  8  1  0  0  0  0
  7  5  1  0  0  0  0
  9  7  1  0  0  0  0
 10  9  1  0  0  0  0
 11  1  1  0  0  0  0
 12 15  1  0  0  0  0
 12 11  1  0  0  0  0
 13 12  1  0  0  0  0
 14 12  1  0  0  0  0
 15 16  1  0  0  0  0
 16 17  1  0  0  0  0
 16 19  1  0  0  0  0
 18 16  1  0  0  0  0
 20 21  2  0  0  0  0
 22 20  1  0  0  0  0
 23 22  1  0  0  0  0
 24 40  1  0  0  0  0
 24 22  1  0  0  0  0
 24 25  1  1  0  0  0
 26 27  1  0  0  0  0
 26 24  1  0  0  0  0
 28 26  1  0  0  0  0
 29 26  1  0  0  0  0
 30 32  1  0  0  0  0
 30 31  1  0  0  0  0
 32 33  1  0  0  0  0
 34 35  1  0  0  0  0
 34 32  2  0  0  0  0
 36 34  1  0  0  0  0
 37 36  1  0  0  0  0
 38 36  2  0  0  0  0
 38 40  1  0  0  0  0
 39 38  1  0  0  0  0
 40 30  2  0  0  0  0
M  END
