3
q = -2.0, confidence = 0.744

 45 48  0  0  0  0  0  0  0  0999 V2000
   -1.6374   -1.1560    1.5638 C   0  0  0  0  0  3  0  0  0  0  0  0
   -1.4136   -2.1967    1.8282 H   0  0  0  0  0  0  0  0  0  0  0  0
   -1.1730    0.0001    2.2635 C   0  0  0  0  0  3  0  0  0  0  0  0
   -1.6376    1.1560    1.5638 C   0  0  0  0  0  3  0  0  0  0  0  0
   -1.4140    2.1968    1.8281 H   0  0  0  0  0  0  0  0  0  0  0  0
   -2.5092    0.7236    0.4989 C   0  0  0  0  0  0  0  0  0  0  0  0
   -3.2885    1.4626   -0.4468 C   0  0  0  0  0  0  0  0  0  0  0  0
   -4.0306    0.7119   -1.3525 C   0  0  0  0  0  0  0  0  0  0  0  0
   -4.6485    1.2391   -2.0963 H   0  0  0  0  0  0  0  0  0  0  0  0
   -4.0304   -0.7125   -1.3525 C   0  0  0  0  0  0  0  0  0  0  0  0
   -4.6483   -1.2397   -2.0963 H   0  0  0  0  0  0  0  0  0  0  0  0
   -3.2882   -1.4630   -0.4468 C   0  0  0  0  0  0  0  0  0  0  0  0
   -2.5090   -0.7238    0.4989 C   0  0  0  0  0  0  0  0  0  0  0  0
    0.0000    0.0002    3.2235 C   0  0  0  0  0  0  0  0  0  0  0  0
   -0.0000    0.8993    3.8679 H   0  0  0  0  0  0  0  0  0  0  0  0
   -3.2846    2.9629   -0.4239 C   0  0  0  0  0  0  0  0  0  0  0  0
   -3.9623    3.3828   -1.1914 H   0  0  0  0  0  0  0  0  0  0  0  0
   -2.2613    3.3479   -0.6184 H   0  0  0  0  0  0  0  0  0  0  0  0
   -3.6000    3.3534    0.5673 H   0  0  0  0  0  0  0  0  0  0  0  0
   -3.2840   -2.9633   -0.4239 C   0  0  0  0  0  0  0  0  0  0  0  0
   -3.9616   -3.3834   -1.1913 H   0  0  0  0  0  0  0  0  0  0  0  0
   -3.5993   -3.3539    0.5673 H   0  0  0  0  0  0  0  0  0  0  0  0
   -2.2606   -3.3481   -0.6184 H   0  0  0  0  0  0  0  0  0  0  0  0
    1.6375    1.1561    1.5638 C   0  0  0  0  0  3  0  0  0  0  0  0
    1.4137    2.1969    1.8280 H   0  0  0  0  0  0  0  0  0  0  0  0
    1.1731    0.0002    2.2635 C   0  0  0  0  0  3  0  0  0  0  0  0
    1.6376   -1.1558    1.5639 C   0  0  0  0  0  3  0  0  0  0  0  0
    1.4139   -2.1966    1.8283 H   0  0  0  0  0  0  0  0  0  0  0  0
    2.5091   -0.7236    0.4990 C   0  0  0  0  0  0  0  0  0  0  0  0
    3.2884   -1.4628   -0.4467 C   0  0  0  0  0  0  0  0  0  0  0  0
    4.0305   -0.7122   -1.3525 C   0  0  0  0  0  0  0  0  0  0  0  0
    4.6484   -1.2394   -2.0962 H   0  0  0  0  0  0  0  0  0  0  0  0
    4.0304    0.7122   -1.3526 C   0  0  0  0  0  0  0  0  0  0  0  0
    4.6483    1.2394   -2.0964 H   0  0  0  0  0  0  0  0  0  0  0  0
    3.2882    1.4629   -0.4469 C   0  0  0  0  0  0  0  0  0  0  0  0
    2.5091    0.7238    0.4988 C   0  0  0  0  0  0  0  0  0  0  0  0
    0.0000   -0.8988    3.8680 H   0  0  0  0  0  0  0  0  0  0  0  0
    3.2844   -2.9631   -0.4237 C   0  0  0  0  0  0  0  0  0  0  0  0
    3.9620   -3.3831   -1.1911 H   0  0  0  0  0  0  0  0  0  0  0  0
    2.2610   -3.3480   -0.6182 H   0  0  0  0  0  0  0  0  0  0  0  0
    3.5997   -3.3535    0.5675 H   0  0  0  0  0  0  0  0  0  0  0  0
    3.2842    2.9632   -0.4242 C   0  0  0  0  0  0  0  0  0  0  0  0
    3.9617    3.3831   -1.1917 H   0  0  0  0  0  0  0  0  0  0  0  0
    3.5995    3.3538    0.5670 H   0  0  0  0  0  0  0  0  0  0  0  0
    2.2608    3.3480   -0.6186 H   0  0  0  0  0  0  0  0  0  0  0  0
  1  2  1  0  0  0  0
  1  3  1  0  0  0  0
  3 14  1  0  0  0  0
  4  5  1  0  0  0  0
  4  3  1  0  0  0  0
  6 13  1  0  0  0  0
  6  4  1  0  0  0  0
  7 16  1  0  0  0  0
  7  6  2  0  0  0  0
  8 10  2  0  0  0  0
  8  7  1  0  0  0  0
  9  8  1  0  0  0  0
 10 12  1  0  0  0  0
 11 10  1  0  0  0  0
 12 20  1  0  0  0  0
 12 13  2  0  0  0  0
 13  1  1  0  0  0  0
 14 15  1  0  0  0  0
 14 37  1  0  0  0  0
 16 19  1  0  0  0  0
 17 16  1  0  0  0  0
 18 16  1  0  0  0  0
 20 22  1  0  0  0  0
 21 20  1  0  0  0  0
 23 20  1  0  0  0  0
 24 25  1  0  0  0  0
 24 26  1  0  0  0  0
 26 14  1  0  0  0  0
 27 28  1  0  0  0  0
 27 26  1  0  0  0  0
 29 27  1  0  0  0  0
 30 38  1  0  0  0  0
 30 29  2  0  0  0  0
 31 30  1  0  0  0  0
 32 31  1  0  0  0  0
 33 31  2  0  0  0  0
 33 35  1  0  0  0  0
 34 33  1  0  0  0  0
 35 42  1  0  0  0  0
 35 36  2  0  0  0  0
 36 29  1  0  0  0  0
 36 24  1  0  0  0  0
 38 41  1  0  0  0  0
 39 38  1  0  0  0  0
 40 38  1  0  0  0  0
 42 44  1  0  0  0  0
 43 42  1  0  0  0  0
 45 42  1  0  0  0  0
M  END
