1,5
q = -1.0

 21 20  0  0  0  0  0  0  0  0999 V2000
   -1.4029   -0.4230    0.0174 C   0  0  0  0  0  2  0  0  0  0  0  0
   -2.0394   -0.5896   -1.1182 O   0  0  0  0  0  0  0  0  0  0  0  0
   -1.4736    0.1223   -2.2553 C   0  0  0  0  0  0  0  0  0  0  0  0
   -0.1071    0.6965   -1.9625 C   0  0  0  0  0  3  0  0  0  0  0  0
    1.0650   -0.0817   -1.6972 C   0  0  0  0  0  3  0  0  0  0  0  0
    1.0677   -1.2833   -0.9426 C   0  0  0  0  0  3  0  0  0  0  0  0
    2.2974   -1.9108   -0.4794 C   0  0  0  0  0  0  0  0  0  0  0  0
    2.3506   -3.1725    0.0047 C   0  0  0  0  0  0  0  0  0  0  0  0
   -1.9669   -0.9907    1.0392 O   0  0  0  0  0  0  0  0  0  0  0  0
   -3.2315   -1.7118    0.9032 C   0  0  0  0  0  0  0  0  0  0  0  0
   -3.0990   -2.5704    0.2189 H   0  0  0  0  0  0  0  0  0  0  0  0
   -4.0080   -1.0292    0.5111 H   0  0  0  0  0  0  0  0  0  0  0  0
   -3.4774   -2.0508    1.9227 H   0  0  0  0  0  0  0  0  0  0  0  0
   -2.1969    0.9213   -2.5085 H   0  0  0  0  0  0  0  0  0  0  0  0
   -1.4584   -0.6113   -3.0874 H   0  0  0  0  0  0  0  0  0  0  0  0
    0.0732    1.6569   -2.4722 H   0  0  0  0  0  0  0  0  0  0  0  0
    2.0441    0.3531   -1.9613 H   0  0  0  0  0  0  0  0  0  0  0  0
    0.1800   -1.9374   -0.9596 H   0  0  0  0  0  0  0  0  0  0  0  0
    3.2205   -1.3076   -0.5408 H   0  0  0  0  0  0  0  0  0  0  0  0
    1.4458   -3.7971    0.0860 H   0  0  0  0  0  0  0  0  0  0  0  0
    3.3008   -3.6222    0.3282 H   0  0  0  0  0  0  0  0  0  0  0  0
  1  9  1  0  0  0  0
  2  1  1  0  0  0  0
  3  4  1  0  0  0  0
  3  2  1  0  0  0  0
  4  5  1  0  0  0  0
  5  6  1  0  0  0  0
  6  7  1  0  0  0  0
  7  8  2  0  0  0  0
  8 20  1  0  0  0  0
  8 21  1  0  0  0  0
 10  9  1  0  0  0  0
 10 13  1  0  0  0  0
 11 10  1  0  0  0  0
 12 10  1  0  0  0  0
 14  3  1  0  0  0  0
 15  3  1  0  0  0  0
 16  4  1  0  0  0  0
 17  5  1  0  0  0  0
 18  6  1  0  0  0  0
 19  7  1  0  0  0  0
M  END
