1,4
q = -1.0

 19 20  0  0  0  0  0  0  0  0999 V2000
    0.8818    1.3591    1.9724 C   0  0  0  0  0  3  0  0  0  0  0  0
    1.9550    1.5352    2.1176 H   0  0  0  0  0  0  0  0  0  0  0  0
    0.1008    0.3771    2.6780 C   0  0  0  0  0  3  0  0  0  0  0  0
   -1.2411    0.5094    2.2017 C   0  0  0  0  0  3  0  0  0  0  0  0
   -2.0904   -0.0867    2.5555 H   0  0  0  0  0  0  0  0  0  0  0  0
   -1.3494    1.7237    1.3858 C   0  0  0  0  0  0  0  0  0  0  0  0
   -0.0182    2.2617    1.2509 C   0  0  0  0  0  0  0  0  0  0  0  0
   -2.4460    2.3766    0.7845 C   0  0  0  0  0  0  0  0  0  0  0  0
   -3.4671    1.9839    0.9033 H   0  0  0  0  0  0  0  0  0  0  0  0
   -2.2102    3.5579    0.0708 C   0  0  0  0  0  0  0  0  0  0  0  0
   -3.0565    4.0965   -0.3806 H   0  0  0  0  0  0  0  0  0  0  0  0
   -0.9044    4.0861   -0.0634 C   0  0  0  0  0  0  0  0  0  0  0  0
   -0.7577    5.0249   -0.6174 H   0  0  0  0  0  0  0  0  0  0  0  0
    0.1984    3.4451    0.5146 C   0  0  0  0  0  0  0  0  0  0  0  0
    1.2087    3.8707    0.4224 H   0  0  0  0  0  0  0  0  0  0  0  0
    0.5803   -0.5734    3.7307 C   0  0  0  0  0  0  0  0  0  0  0  0
    1.6437   -0.8468    3.5934 H   0  0  0  0  0  0  0  0  0  0  0  0
   -0.0181   -1.5050    3.7457 H   0  0  0  0  0  0  0  0  0  0  0  0
    0.4890   -0.1077    4.7349 H   0  0  0  0  0  0  0  0  0  0  0  0
  1  2  1  0  0  0  0
  1  3  1  0  0  0  0
  3 16  1  0  0  0  0
  4  5  1  0  0  0  0
  4  3  1  0  0  0  0
  6  4  1  0  0  0  0
  7  6  1  0  0  0  0
  7  1  1  0  0  0  0
  8  9  1  0  0  0  0
  8  6  2  0  0  0  0
 10  8  1  0  0  0  0
 11 10  1  0  0  0  0
 12 10  2  0  0  0  0
 12 14  1  0  0  0  0
 13 12  1  0  0  0  0
 14  7  2  0  0  0  0
 15 14  1  0  0  0  0
 16 18  1  0  0  0  0
 16 19  1  0  0  0  0
 17 16  1  0  0  0  0
M  END
