1,4
q = -1.0, confidence = 0.086

 13 13  0  0  1  0  0  0  0  0999 V2000
   -1.1880    1.2224   -1.1865 C   0  0  0  0  0  3  0  0  0  0  0  0
   -0.2183    2.1950   -0.8057 C   0  0  0  0  0  0  0  0  0  0  0  0
   -0.1927    2.2639    0.6375 C   0  0  0  0  0  0  0  0  0  0  0  0
   -1.1473    1.3350    1.1423 C   0  0  0  0  0  3  0  0  0  0  0  0
   -1.8031    0.7034    0.0185 C   0  0  2  0  0  3  0  0  0  0  0  0
   -2.8734   -0.2841    0.1280 C   0  0  0  0  0  0  0  0  0  0  0  0
   -3.4109   -0.6656    1.1640 O   0  0  0  0  0  0  0  0  0  0  0  0
   -3.2859   -0.7563   -1.0967 O   0  0  0  0  0  0  0  0  0  0  0  0
   -1.4669    0.9363   -2.2063 H   0  0  0  0  0  0  0  0  0  0  0  0
    0.4038    2.7867   -1.4877 H   0  0  0  0  0  0  0  0  0  0  0  0
    0.4542    2.9147    1.2373 H   0  0  0  0  0  0  0  0  0  0  0  0
   -1.3952    1.1404    2.1916 H   0  0  0  0  0  0  0  0  0  0  0  0
   -3.9644   -1.4226   -0.8611 H   0  0  0  0  0  0  0  0  0  0  0  0
  1  2  1  0  0  0  0
  1  5  1  0  0  0  0
  2  3  2  0  0  0  0
  3  4  1  0  0  0  0
  3 11  1  0  0  0  0
  4 12  1  0  0  0  0
  5  6  1  1  0  0  0
  5  4  1  0  0  0  0
  6  7  2  0  0  0  0
  8 13  1  0  0  0  0
  8  6  1  0  0  0  0
  9  1  1  0  0  0  0
 10  2  1  0  0  0  0
M  END
