8,12
q = 0.0, confidence = 0.998

 39 43  0  0  1  0  0  0  0  0999 V2000
   -0.0701   -0.4346   -1.3775 C   0  0  0  0  0  0  0  0  0  0  0  0
    0.4097   -1.0507   -2.1708 H   0  0  0  0  0  0  0  0  0  0  0  0
   -0.1247    0.5982   -1.7816 H   0  0  0  0  0  0  0  0  0  0  0  0
    0.7319   -0.5131   -0.0864 C   0  0  0  0  0  0  0  0  0  0  0  0
   -0.0354   -1.0548    0.9051 C   0  0  0  0  0  0  0  0  0  0  0  0
    0.2883   -1.2252    1.9404 H   0  0  0  0  0  0  0  0  0  0  0  0
   -1.3601   -1.3922    0.3874 C   0  0  1  0  0  3  0  0  0  0  0  0
   -2.5115   -1.9560    1.0066 C   0  0  0  0  0  3  0  0  0  0  0  0
   -2.5047   -2.1965    2.0792 H   0  0  0  0  0  0  0  0  0  0  0  0
   -3.6689   -2.2251    0.2205 C   0  0  0  0  0  3  0  0  0  0  0  0
   -4.5632   -2.6567    0.6888 H   0  0  0  0  0  0  0  0  0  0  0  0
   -3.7044   -1.8311   -1.1495 C   0  0  0  0  0  3  0  0  0  0  0  0
   -4.6287   -1.9756   -1.7265 H   0  0  0  0  0  0  0  0  0  0  0  0
   -2.5763   -1.2250   -1.7768 C   0  0  0  0  0  0  0  0  0  0  0  0
   -2.6269   -0.9029   -2.8255 H   0  0  0  0  0  0  0  0  0  0  0  0
   -1.4150   -1.0001   -0.9949 C   0  0  0  0  0  0  0  0  0  0  0  0
    2.1511   -0.0968   -0.0033 C   0  0  0  0  0  0  0  0  0  0  0  0
    3.1741   -1.0873    0.0464 C   0  0  0  0  0  0  0  0  0  0  0  0
    2.8909   -2.4941    0.0492 C   0  0  0  0  0  0  0  0  0  0  0  0
    1.8419   -2.8205    0.0171 H   0  0  0  0  0  0  0  0  0  0  0  0
    3.9059   -3.4307    0.0961 C   0  0  0  0  0  0  0  0  0  0  0  0
    3.6603   -4.5036    0.0978 H   0  0  0  0  0  0  0  0  0  0  0  0
    5.2726   -3.0213    0.1408 C   0  0  0  0  0  0  0  0  0  0  0  0
    6.0691   -3.7795    0.1812 H   0  0  0  0  0  0  0  0  0  0  0  0
    5.5904   -1.6780    0.1272 C   0  0  0  0  0  0  0  0  0  0  0  0
    6.6412   -1.3498    0.1547 H   0  0  0  0  0  0  0  0  0  0  0  0
    4.5681   -0.6744    0.0743 C   0  0  0  0  0  0  0  0  0  0  0  0
    4.8854    0.6952    0.0398 C   0  0  0  0  0  0  0  0  0  0  0  0
    5.9438    1.0009    0.0520 H   0  0  0  0  0  0  0  0  0  0  0  0
    3.8867    1.6843   -0.0083 C   0  0  0  0  0  0  0  0  0  0  0  0
    4.2111    3.0802   -0.0364 C   0  0  0  0  0  0  0  0  0  0  0  0
    5.2738    3.3690   -0.0305 H   0  0  0  0  0  0  0  0  0  0  0  0
    3.2203    4.0417   -0.0654 C   0  0  0  0  0  0  0  0  0  0  0  0
    3.4853    5.1096   -0.0873 H   0  0  0  0  0  0  0  0  0  0  0  0
    1.8471    3.6529   -0.0537 C   0  0  0  0  0  0  0  0  0  0  0  0
    1.0583    4.4201   -0.0593 H   0  0  0  0  0  0  0  0  0  0  0  0
    1.4942    2.3171   -0.0266 C   0  0  0  0  0  0  0  0  0  0  0  0
    0.4319    2.0433    0.0078 H   0  0  0  0  0  0  0  0  0  0  0  0
    2.4898    1.2858   -0.0205 C   0  0  0  0  0  0  0  0  0  0  0  0
  1 16  1  0  0  0  0
  1  4  1  0  0  0  0
  2  1  1  0  0  0  0
  3  1  1  0  0  0  0
  4 17  1  0  0  0  0
  4  5  2  0  0  0  0
  5  6  1  0  0  0  0
  7 16  1  1  0  0  0
  7  5  1  0  0  0  0
  7  8  1  0  0  0  0
  8  9  1  0  0  0  0
 10 11  1  0  0  0  0
 10  8  1  0  0  0  0
 12 10  1  0  0  0  0
 13 12  1  0  0  0  0
 14 12  1  0  0  0  0
 14 16  2  0  0  0  0
 15 14  1  0  0  0  0
 17 18  1  0  0  0  0
 18 19  2  0  0  0  0
 18 27  1  0  0  0  0
 19 21  1  0  0  0  0
 20 19  1  0  0  0  0
 21 22  1  0  0  0  0
 21 23  2  0  0  0  0
 23 24  1  0  0  0  0
 25 23  1  0  0  0  0
 25 26  1  0  0  0  0
 27 25  2  0  0  0  0
 28 29  1  0  0  0  0
 28 27  1  0  0  0  0
 30 28  2  0  0  0  0
 31 32  1  0  0  0  0
 31 30  1  0  0  0  0
 33 35  1  0  0  0  0
 33 31  2  0  0  0  0
 34 33  1  0  0  0  0
 35 37  2  0  0  0  0
 36 35  1  0  0  0  0
 37 39  1  0  0  0  0
 37 38  1  0  0  0  0
 39 30  1  0  0  0  0
 39 17  2  0  0  0  0
M  END
