4,8
q = -1.0

 30 33  0  0  0  0  0  0  0  0999 V2000
   -3.8910    1.5358    0.0001 S   0  0  0  0  0  0  0  0  0  0  0  0
   -0.5536    1.7764   -0.0000 N   0  0  0  0  0  0  0  0  0  0  0  0
    1.2470    3.0038   -0.0001 N   0  0  0  0  0  0  0  0  0  0  0  0
    0.8272    1.7053   -0.0001 C   0  0  0  0  0  2  0  0  0  0  0  0
    0.1529    3.8673   -0.0001 C   0  0  0  0  0  0  0  0  0  0  0  0
   -0.9820    3.0949   -0.0001 C   0  0  0  0  0  0  0  0  0  0  0  0
   -1.2185    0.5260   -0.0001 C   0  0  0  0  0  0  0  0  0  0  0  0
   -0.3101   -0.5653   -0.0001 C   0  0  0  0  0  3  0  0  0  0  0  0
   -0.8385   -1.8745   -0.0002 C   0  0  0  0  0  0  0  0  0  0  0  0
   -2.2211   -2.0951   -0.0001 C   0  0  0  0  0  0  0  0  0  0  0  0
   -3.1206   -1.0089   -0.0000 C   0  0  0  0  0  0  0  0  0  0  0  0
   -4.5747   -1.0264    0.0001 C   0  0  0  0  0  0  0  0  0  0  0  0
   -5.4540   -2.1300    0.0001 C   0  0  0  0  0  0  0  0  0  0  0  0
   -6.8375   -1.9218    0.0002 C   0  0  0  0  0  0  0  0  0  0  0  0
   -7.3683   -0.6146    0.0002 C   0  0  0  0  0  0  0  0  0  0  0  0
   -6.5196    0.5007    0.0002 C   0  0  0  0  0  0  0  0  0  0  0  0
   -5.1330    0.2836    0.0002 C   0  0  0  0  0  0  0  0  0  0  0  0
   -2.6055    0.3227    0.0000 C   0  0  0  0  0  0  0  0  0  0  0  0
    2.6371    3.4338   -0.0002 C   0  0  0  0  0  0  0  0  0  0  0  0
    0.2738    4.9543   -0.0001 H   0  0  0  0  0  0  0  0  0  0  0  0
   -2.0367    3.3824   -0.0001 H   0  0  0  0  0  0  0  0  0  0  0  0
   -0.1385   -2.7228   -0.0002 H   0  0  0  0  0  0  0  0  0  0  0  0
   -2.6144   -3.1235   -0.0001 H   0  0  0  0  0  0  0  0  0  0  0  0
   -5.0465   -3.1523   -0.0000 H   0  0  0  0  0  0  0  0  0  0  0  0
   -7.5186   -2.7858    0.0002 H   0  0  0  0  0  0  0  0  0  0  0  0
   -8.4584   -0.4651    0.0003 H   0  0  0  0  0  0  0  0  0  0  0  0
   -6.9303    1.5211    0.0003 H   0  0  0  0  0  0  0  0  0  0  0  0
    3.2827    2.5355   -0.0001 H   0  0  0  0  0  0  0  0  0  0  0  0
    2.8463    4.0425    0.9021 H   0  0  0  0  0  0  0  0  0  0  0  0
    2.8463    4.0425   -0.9024 H   0  0  0  0  0  0  0  0  0  0  0  0
  1 17  1  0  0  0  0
  3  5  1  0  0  0  0
  3  4  1  0  0  0  0
  4  2  1  0  0  0  0
  5  6  2  0  0  0  0
  6  2  1  0  0  0  0
  7  2  1  0  0  0  0
  7 18  1  0  0  0  0
  8  7  2  0  0  0  0
  9  8  1  0  0  0  0
  9 10  2  0  0  0  0
 10 11  1  0  0  0  0
 11 18  2  0  0  0  0
 11 12  1  0  0  0  0
 12 17  1  0  0  0  0
 13 12  2  0  0  0  0
 13 14  1  0  0  0  0
 14 15  2  0  0  0  0
 15 16  1  0  0  0  0
 15 26  1  0  0  0  0
 16 27  1  0  0  0  0
 17 16  2  0  0  0  0
 18  1  1  0  0  0  0
 19  3  1  0  0  0  0
 19 28  1  0  0  0  0
 19 29  1  0  0  0  0
 20  5  1  0  0  0  0
 21  6  1  0  0  0  0
 22  9  1  0  0  0  0
 23 10  1  0  0  0  0
 24 13  1  0  0  0  0
 25 14  1  0  0  0  0
 30 19  1  0  0  0  0
M  END
