22
q = -2.0, confidence = 0.608

 66 69  0  0  1  0  0  0  0  0999 V2000
    1.5982    3.6284   -0.4097 C   0  0  0  0  0  0  0  0  0  0  0  0
    2.7901    4.4657    0.1193 C   0  0  0  0  0  0  0  0  0  0  0  0
    2.8916    4.3662    1.2191 H   0  0  0  0  0  0  0  0  0  0  0  0
    2.6391    5.5392   -0.1185 H   0  0  0  0  0  0  0  0  0  0  0  0
    3.7443    4.1406   -0.3419 H   0  0  0  0  0  0  0  0  0  0  0  0
    1.5198    3.7776   -1.9408 C   0  0  0  0  0  0  0  0  0  0  0  0
    2.4538    3.4376   -2.4319 H   0  0  0  0  0  0  0  0  0  0  0  0
    1.3748    4.8438   -2.2094 H   0  0  0  0  0  0  0  0  0  0  0  0
    0.6760    3.1931   -2.3539 H   0  0  0  0  0  0  0  0  0  0  0  0
    0.3017    4.1476    0.2386 C   0  0  0  0  0  0  0  0  0  0  0  0
   -0.5694    3.5336   -0.0600 H   0  0  0  0  0  0  0  0  0  0  0  0
    0.1158    5.1940   -0.0770 H   0  0  0  0  0  0  0  0  0  0  0  0
    0.3733    4.1473    1.3455 H   0  0  0  0  0  0  0  0  0  0  0  0
    1.8840    2.1869   -0.0043 C   0  0  0  0  0  0  0  0  0  0  0  0
    2.8203    1.3107   -0.6137 C   0  0  0  0  0  0  0  0  0  0  0  0
    3.3456    1.4837   -1.5605 H   0  0  0  0  0  0  0  0  0  0  0  0
    3.0287    0.1548    0.2126 C   0  0  0  0  0  0  0  0  0  0  0  0
    4.0507   -0.8976   -0.1354 C   0  0  0  0  0  0  0  0  0  0  0  0
    4.8557   -0.9304    0.6268 H   0  0  0  0  0  0  0  0  0  0  0  0
    4.5129   -0.6527   -1.1097 H   0  0  0  0  0  0  0  0  0  0  0  0
    3.6289   -1.9145   -0.2345 H   0  0  0  0  0  0  0  0  0  0  0  0
    2.1726    0.2968    1.3669 C   0  0  1  0  0  3  0  0  0  0  0  0
    1.4611    1.5367    1.1964 C   0  0  0  0  0  0  0  0  0  0  0  0
    0.7151    1.9400    1.8879 H   0  0  0  0  0  0  0  0  0  0  0  0
    1.6853   -0.7922    2.3416 C   0  0  0  0  0  0  0  0  0  0  0  0
    1.2392   -0.1943    3.6909 C   0  0  0  0  0  0  0  0  0  0  0  0
    2.1322    0.1113    4.2713 H   0  0  0  0  0  0  0  0  0  0  0  0
    0.6820   -0.9501    4.2790 H   0  0  0  0  0  0  0  0  0  0  0  0
    0.6025    0.6999    3.5968 H   0  0  0  0  0  0  0  0  0  0  0  0
    2.7727   -1.8229    2.6902 C   0  0  0  0  0  0  0  0  0  0  0  0
    3.5545   -1.3348    3.3054 H   0  0  0  0  0  0  0  0  0  0  0  0
    3.2773   -2.2513    1.8132 H   0  0  0  0  0  0  0  0  0  0  0  0
    2.3363   -2.6524    3.2808 H   0  0  0  0  0  0  0  0  0  0  0  0
    0.5125   -1.3702    1.5113 C   0  0  2  0  0  3  0  0  0  0  0  0
    0.5752   -2.4455    0.5244 C   0  0  0  0  0  0  0  0  0  0  0  0
    1.5472   -3.4434    0.2020 C   0  0  0  0  0  0  0  0  0  0  0  0
    2.4564   -3.5613    0.8000 H   0  0  0  0  0  0  0  0  0  0  0  0
    1.3251   -4.3119   -0.8593 C   0  0  0  0  0  0  0  0  0  0  0  0
    2.0848   -5.0740   -1.0900 H   0  0  0  0  0  0  0  0  0  0  0  0
    0.1452   -4.2499   -1.6475 C   0  0  0  0  0  0  0  0  0  0  0  0
    0.0138   -4.9459   -2.4887 H   0  0  0  0  0  0  0  0  0  0  0  0
   -0.8472   -3.3298   -1.3393 C   0  0  0  0  0  0  0  0  0  0  0  0
   -1.7784   -3.2844   -1.9230 H   0  0  0  0  0  0  0  0  0  0  0  0
   -0.6489   -2.4362   -0.2605 C   0  0  0  0  0  0  0  0  0  0  0  0
   -1.5193   -1.4230    0.2853 C   0  0  0  0  0  0  0  0  0  0  0  0
   -2.8244   -1.0439   -0.0917 C   0  0  0  0  0  0  0  0  0  0  0  0
   -3.3018   -1.5672   -0.9332 H   0  0  0  0  0  0  0  0  0  0  0  0
   -3.4858   -0.0051    0.5664 C   0  0  0  0  0  0  0  0  0  0  0  0
   -2.8008    0.6304    1.6422 C   0  0  0  0  0  0  0  0  0  0  0  0
   -3.2968    1.4423    2.1901 H   0  0  0  0  0  0  0  0  0  0  0  0
   -1.5181    0.2747    2.0455 C   0  0  0  0  0  0  0  0  0  0  0  0
   -1.0802    0.7982    2.9016 H   0  0  0  0  0  0  0  0  0  0  0  0
   -0.8191   -0.7810    1.3837 C   0  0  0  0  0  0  0  0  0  0  0  0
   -4.8933    0.4213    0.1138 C   0  0  0  0  0  0  0  0  0  0  0  0
   -4.8237    0.9029   -1.3538 C   0  0  0  0  0  0  0  0  0  0  0  0
   -4.1276    1.7585   -1.4555 H   0  0  0  0  0  0  0  0  0  0  0  0
   -5.8285    1.2179   -1.7044 H   0  0  0  0  0  0  0  0  0  0  0  0
   -4.4622    0.1040   -2.0308 H   0  0  0  0  0  0  0  0  0  0  0  0
   -5.8520   -0.7863    0.2193 C   0  0  0  0  0  0  0  0  0  0  0  0
   -5.5194   -1.6326   -0.4139 H   0  0  0  0  0  0  0  0  0  0  0  0
   -6.8717   -0.5001   -0.1119 H   0  0  0  0  0  0  0  0  0  0  0  0
   -5.9183   -1.1519    1.2642 H   0  0  0  0  0  0  0  0  0  0  0  0
   -5.4586    1.5660    0.9729 C   0  0  0  0  0  0  0  0  0  0  0  0
   -5.5513    1.2777    2.0397 H   0  0  0  0  0  0  0  0  0  0  0  0
   -6.4710    1.8380    0.6126 H   0  0  0  0  0  0  0  0  0  0  0  0
   -4.8290    2.4764    0.9116 H   0  0  0  0  0  0  0  0  0  0  0  0
  1 14  1  0  0  0  0
  1  2  1  0  0  0  0
  1 10  1  0  0  0  0
  2  3  1  0  0  0  0
  4  2  1  0  0  0  0
  5  2  1  0  0  0  0
  6  1  1  0  0  0  0
  7  6  1  0  0  0  0
  8  6  1  0  0  0  0
  9  6  1  0  0  0  0
 10 13  1  0  0  0  0
 11 10  1  0  0  0  0
 12 10  1  0  0  0  0
 14 23  2  0  0  0  0
 15 14  1  0  0  0  0
 15 17  2  0  0  0  0
 16 15  1  0  0  0  0
 17 22  1  0  0  0  0
 18 17  1  0  0  0  0
 18 19  1  0  0  0  0
 20 18  1  0  0  0  0
 21 18  1  0  0  0  0
 22 25  1  6  0  0  0
 23 22  1  0  0  0  0
 23 24  1  0  0  0  0
 25 30  1  0  0  0  0
 25 26  1  0  0  0  0
 26 27  1  0  0  0  0
 26 28  1  0  0  0  0
 29 26  1  0  0  0  0
 30 33  1  0  0  0  0
 30 31  1  0  0  0  0
 32 30  1  0  0  0  0
 34 25  1  6  0  0  0
 35 34  1  0  0  0  0
 36 35  1  0  0  0  0
 36 37  1  0  0  0  0
 38 36  2  0  0  0  0
 39 38  1  0  0  0  0
 40 42  2  0  0  0  0
 40 38  1  0  0  0  0
 41 40  1  0  0  0  0
 42 44  1  0  0  0  0
 43 42  1  0  0  0  0
 44 45  1  0  0  0  0
 44 35  2  0  0  0  0
 45 53  1  0  0  0  0
 46 45  2  0  0  0  0
 46 48  1  0  0  0  0
 47 46  1  0  0  0  0
 48 49  2  0  0  0  0
 49 51  1  0  0  0  0
 49 50  1  0  0  0  0
 51 52  1  0  0  0  0
 53 34  1  0  0  0  0
 53 51  2  0  0  0  0
 54 59  1  0  0  0  0
 54 48  1  0  0  0  0
 54 63  1  0  0  0  0
 55 54  1  0  0  0  0
 56 55  1  0  0  0  0
 57 55  1  0  0  0  0
 58 55  1  0  0  0  0
 59 62  1  0  0  0  0
 60 59  1  0  0  0  0
 61 59  1  0  0  0  0
 63 64  1  0  0  0  0
 65 63  1  0  0  0  0
 66 63  1  0  0  0  0
M  END
