25,61
q = 0.0, confidence = 1.0

 62 67  0  0  1  0  0  0  0  0999 V2000
    1.2605   -1.1697   -0.5791 C   0  0  0  0  0  0  0  0  0  0  0  0
    2.5161   -1.9669   -0.6749 C   0  0  0  0  0  0  0  0  0  0  0  0
    2.6595   -2.9042   -1.7190 C   0  0  0  0  0  0  0  0  0  0  0  0
    1.8472   -3.0277   -2.4520 H   0  0  0  0  0  0  0  0  0  0  0  0
    3.8348   -3.6600   -1.8440 C   0  0  0  0  0  0  0  0  0  0  0  0
    3.9343   -4.3822   -2.6685 H   0  0  0  0  0  0  0  0  0  0  0  0
    4.8784   -3.4938   -0.9214 C   0  0  0  0  0  0  0  0  0  0  0  0
    5.7997   -4.0883   -1.0157 H   0  0  0  0  0  0  0  0  0  0  0  0
    4.7387   -2.5701    0.1281 C   0  0  0  0  0  0  0  0  0  0  0  0
    5.5474   -2.4433    0.8634 H   0  0  0  0  0  0  0  0  0  0  0  0
    3.5686   -1.8124    0.2519 C   0  0  0  0  0  0  0  0  0  0  0  0
    3.4553   -1.0980    1.0791 H   0  0  0  0  0  0  0  0  0  0  0  0
    1.2636    0.2536   -0.4212 C   0  0  0  0  0  0  0  0  0  0  0  0
    2.5508    1.0115   -0.4746 C   0  0  0  0  0  0  0  0  0  0  0  0
    3.3549    0.8772   -1.6271 C   0  0  0  0  0  0  0  0  0  0  0  0
    3.0362    0.1973   -2.4311 H   0  0  0  0  0  0  0  0  0  0  0  0
    4.5498    1.5980   -1.7545 C   0  0  0  0  0  0  0  0  0  0  0  0
    5.1630    1.4806   -2.6608 H   0  0  0  0  0  0  0  0  0  0  0  0
    4.9628    2.4618   -0.7281 C   0  0  0  0  0  0  0  0  0  0  0  0
    5.9032    3.0256   -0.8239 H   0  0  0  0  0  0  0  0  0  0  0  0
    4.1693    2.6010    0.4212 C   0  0  0  0  0  0  0  0  0  0  0  0
    4.4843    3.2747    1.2323 H   0  0  0  0  0  0  0  0  0  0  0  0
    2.9699    1.8866    0.5473 C   0  0  0  0  0  0  0  0  0  0  0  0
    2.3589    2.0086    1.4501 H   0  0  0  0  0  0  0  0  0  0  0  0
   -0.0025    0.9565   -0.3205 C   0  0  1  0  0  3  0  0  0  0  0  0
   -0.0231    2.4437   -0.1650 C   0  0  0  0  0  0  0  0  0  0  0  0
    0.5674    3.2626   -1.1497 C   0  0  0  0  0  0  0  0  0  0  0  0
    1.0737    2.7995   -2.0093 H   0  0  0  0  0  0  0  0  0  0  0  0
    0.5138    4.6587   -1.0393 C   0  0  0  0  0  0  0  0  0  0  0  0
    0.9796    5.2843   -1.8157 H   0  0  0  0  0  0  0  0  0  0  0  0
   -0.1268    5.2553    0.0581 C   0  0  0  0  0  0  0  0  0  0  0  0
   -0.1639    6.3516    0.1477 H   0  0  0  0  0  0  0  0  0  0  0  0
   -0.7179    4.4464    1.0415 C   0  0  0  0  0  0  0  0  0  0  0  0
   -1.2213    4.9047    1.9061 H   0  0  0  0  0  0  0  0  0  0  0  0
   -0.6687    3.0507    0.9302 C   0  0  0  0  0  0  0  0  0  0  0  0
   -1.1346    2.4145    1.6956 H   0  0  0  0  0  0  0  0  0  0  0  0
   -1.2494    0.2511   -0.4308 C   0  0  0  0  0  0  0  0  0  0  0  0
   -2.5387    1.0077   -0.4875 C   0  0  0  0  0  0  0  0  0  0  0  0
   -2.7263    1.9397   -1.5311 C   0  0  0  0  0  0  0  0  0  0  0  0
   -1.9111    2.1210   -2.2466 H   0  0  0  0  0  0  0  0  0  0  0  0
   -3.9357    2.6351   -1.6610 C   0  0  0  0  0  0  0  0  0  0  0  0
   -4.0621    3.3591   -2.4802 H   0  0  0  0  0  0  0  0  0  0  0  0
   -4.9778    2.4116   -0.7474 C   0  0  0  0  0  0  0  0  0  0  0  0
   -5.9266    2.9607   -0.8445 H   0  0  0  0  0  0  0  0  0  0  0  0
   -4.8008    1.4842    0.2907 C   0  0  0  0  0  0  0  0  0  0  0  0
   -5.6110    1.3009    1.0125 H   0  0  0  0  0  0  0  0  0  0  0  0
   -3.5935    0.7829    0.4187 C   0  0  0  0  0  0  0  0  0  0  0  0
   -3.4720    0.0583    1.2332 H   0  0  0  0  0  0  0  0  0  0  0  0
   -1.2390   -1.1867   -0.5922 C   0  0  0  0  0  0  0  0  0  0  0  0
   -2.4846   -1.9951   -0.7334 C   0  0  0  0  0  0  0  0  0  0  0  0
   -3.4349   -1.6813   -1.7281 C   0  0  0  0  0  0  0  0  0  0  0  0
   -3.2768   -0.8076   -2.3761 H   0  0  0  0  0  0  0  0  0  0  0  0
   -4.5766   -2.4768   -1.8946 C   0  0  0  0  0  0  0  0  0  0  0  0
   -5.3089   -2.2187   -2.6745 H   0  0  0  0  0  0  0  0  0  0  0  0
   -4.7874   -3.5941   -1.0711 C   0  0  0  0  0  0  0  0  0  0  0  0
   -5.6890   -4.2124   -1.1979 H   0  0  0  0  0  0  0  0  0  0  0  0
   -3.8439   -3.9166   -0.0831 C   0  0  0  0  0  0  0  0  0  0  0  0
   -4.0031   -4.7868    0.5714 H   0  0  0  0  0  0  0  0  0  0  0  0
   -2.6998   -3.1242    0.0841 C   0  0  0  0  0  0  0  0  0  0  0  0
   -1.9692   -3.3626    0.8713 H   0  0  0  0  0  0  0  0  0  0  0  0
    0.0074   -1.8602   -0.6570 C   0  0  0  0  0  3  0  0  0  0  0  0
    0.0113   -2.9545   -0.7490 H   0  0  0  0  0  0  0  0  0  0  0  0
  1 13  2  0  0  0  0
  2  1  1  0  0  0  0
  2 11  1  0  0  0  0
  3  2  2  0  0  0  0
  4  3  1  0  0  0  0
  5  3  1  0  0  0  0
  5  7  2  0  0  0  0
  6  5  1  0  0  0  0
  7  9  1  0  0  0  0
  8  7  1  0  0  0  0
  9 11  2  0  0  0  0
  9 10  1  0  0  0  0
 11 12  1  0  0  0  0
 13 25  1  0  0  0  0
 14 13  1  0  0  0  0
 14 23  1  0  0  0  0
 15 14  2  0  0  0  0
 16 15  1  0  0  0  0
 17 15  1  0  0  0  0
 17 19  2  0  0  0  0
 18 17  1  0  0  0  0
 19 21  1  0  0  0  0
 20 19  1  0  0  0  0
 21 23  2  0  0  0  0
 21 22  1  0  0  0  0
 23 24  1  0  0  0  0
 25 26  1  6  0  0  0
 26 35  1  0  0  0  0
 27 29  1  0  0  0  0
 27 26  2  0  0  0  0
 28 27  1  0  0  0  0
 29 31  2  0  0  0  0
 30 29  1  0  0  0  0
 31 32  1  0  0  0  0
 31 33  1  0  0  0  0
 33 34  1  0  0  0  0
 35 33  2  0  0  0  0
 35 36  1  0  0  0  0
 37 25  1  0  0  0  0
 38 37  1  0  0  0  0
 38 47  1  0  0  0  0
 39 38  2  0  0  0  0
 40 39  1  0  0  0  0
 41 39  1  0  0  0  0
 41 43  2  0  0  0  0
 42 41  1  0  0  0  0
 43 45  1  0  0  0  0
 44 43  1  0  0  0  0
 45 47  2  0  0  0  0
 45 46  1  0  0  0  0
 47 48  1  0  0  0  0
 49 37  2  0  0  0  0
 50 49  1  0  0  0  0
 50 59  1  0  0  0  0
 51 50  2  0  0  0  0
 52 51  1  0  0  0  0
 53 51  1  0  0  0  0
 53 55  2  0  0  0  0
 54 53  1  0  0  0  0
 55 57  1  0  0  0  0
 56 55  1  0  0  0  0
 57 59  2  0  0  0  0
 57 58  1  0  0  0  0
 59 60  1  0  0  0  0
 61 49  1  0  0  0  0
 61  1  1  0  0  0  0
 62 61  1  0  0  0  0
M  END
