7,11
q = 0.0, confidence = 1.0

 43 45  0  0  1  0  0  0  0  0999 V2000
   -4.8962    2.8827   -0.1700 O   0  0  0  0  0  0  0  0  0  0  0  0
   -2.4737    1.3714   -0.1930 N   0  0  0  0  0  0  0  0  0  0  0  0
   -1.3156   -0.8071   -0.2780 C   0  0  2  0  0  3  0  0  0  0  0  0
   -1.2109   -1.1461    1.1128 C   0  0  0  0  0  0  0  0  0  0  0  0
   -1.2386   -2.5311    1.4833 C   0  0  0  0  0  0  0  0  0  0  0  0
   -1.1265   -2.7984    2.5429 H   0  0  0  0  0  0  0  0  0  0  0  0
   -1.3143   -3.5537    0.5035 C   0  0  0  0  0  3  0  0  0  0  0  0
   -1.2678   -4.6072    0.8138 H   0  0  0  0  0  0  0  0  0  0  0  0
   -1.4161   -3.2234   -0.8774 C   0  0  0  0  0  3  0  0  0  0  0  0
   -1.4434   -4.0088   -1.6436 H   0  0  0  0  0  0  0  0  0  0  0  0
   -1.3895   -1.8548   -1.2485 C   0  0  0  0  0  3  0  0  0  0  0  0
   -1.4140   -1.5809   -2.3138 H   0  0  0  0  0  0  0  0  0  0  0  0
   -1.1160   -0.0962    2.1864 C   0  0  0  0  0  0  0  0  0  0  0  0
   -0.7674   -0.5409    3.1375 H   0  0  0  0  0  0  0  0  0  0  0  0
   -2.1071    0.3746    2.3408 H   0  0  0  0  0  0  0  0  0  0  0  0
   -0.4223    0.7145    1.8975 H   0  0  0  0  0  0  0  0  0  0  0  0
   -1.3273    0.6490   -0.7640 C   0  0  2  0  0  0  0  0  0  0  0  0
   -1.4261    0.5985   -1.8858 H   0  0  0  0  0  0  0  0  0  0  0  0
   -0.0470    1.3130   -0.5000 C   0  0  0  0  0  0  0  0  0  0  0  0
    1.0675    1.8047   -0.3474 C   0  0  0  0  0  0  0  0  0  0  0  0
    2.3882    2.3168   -0.1725 C   0  0  0  0  0  0  0  0  0  0  0  0
    2.6276    3.4688    0.6168 C   0  0  0  0  0  0  0  0  0  0  0  0
    1.7781    3.9759    1.0972 H   0  0  0  0  0  0  0  0  0  0  0  0
    3.9310    3.9508    0.7845 C   0  0  0  0  0  0  0  0  0  0  0  0
    4.1055    4.8455    1.4012 H   0  0  0  0  0  0  0  0  0  0  0  0
    5.0125    3.2963    0.1720 C   0  0  0  0  0  0  0  0  0  0  0  0
    6.0361    3.6769    0.3080 H   0  0  0  0  0  0  0  0  0  0  0  0
    4.7838    2.1535   -0.6126 C   0  0  0  0  0  0  0  0  0  0  0  0
    5.6283    1.6360   -1.0921 H   0  0  0  0  0  0  0  0  0  0  0  0
    3.4853    1.6623   -0.7886 C   0  0  0  0  0  0  0  0  0  0  0  0
    3.3004    0.7666   -1.3988 H   0  0  0  0  0  0  0  0  0  0  0  0
   -3.7506    0.7653   -0.5610 C   0  0  0  0  0  0  0  0  0  0  0  0
   -3.7593   -0.3012   -0.2562 H   0  0  0  0  0  0  0  0  0  0  0  0
   -3.9150    0.7992   -1.6726 H   0  0  0  0  0  0  0  0  0  0  0  0
   -4.8938    1.5008    0.1365 C   0  0  0  0  0  0  0  0  0  0  0  0
   -5.8705    1.0934   -0.1930 H   0  0  0  0  0  0  0  0  0  0  0  0
   -4.8020    1.3457    1.2413 H   0  0  0  0  0  0  0  0  0  0  0  0
   -3.6584    3.4722    0.1940 C   0  0  0  0  0  0  0  0  0  0  0  0
   -3.5067    3.4055    1.3005 H   0  0  0  0  0  0  0  0  0  0  0  0
   -3.7149    4.5421   -0.0889 H   0  0  0  0  0  0  0  0  0  0  0  0
   -2.4827    2.7984   -0.5084 C   0  0  0  0  0  0  0  0  0  0  0  0
   -2.5673    2.9735   -1.6145 H   0  0  0  0  0  0  0  0  0  0  0  0
   -1.5288    3.2515   -0.1712 H   0  0  0  0  0  0  0  0  0  0  0  0
  1 35  1  0  0  0  0
  1 38  1  0  0  0  0
  3 17  1  6  0  0  0
  3  4  1  0  0  0  0
  4  5  2  0  0  0  0
  4 13  1  0  0  0  0
  5  6  1  0  0  0  0
  7  8  1  0  0  0  0
  7  5  1  0  0  0  0
  9  7  1  0  0  0  0
 10  9  1  0  0  0  0
 11  9  1  0  0  0  0
 11  3  1  0  0  0  0
 12 11  1  0  0  0  0
 13 15  1  0  0  0  0
 13 14  1  0  0  0  0
 16 13  1  0  0  0  0
 17 18  1  6  0  0  0
 17 19  1  0  0  0  0
 17  2  1  0  0  0  0
 19 20  3  0  0  0  0
 20 21  1  0  0  0  0
 21 22  1  0  0  0  0
 22 24  2  0  0  0  0
 22 23  1  0  0  0  0
 24 25  1  0  0  0  0
 26 27  1  0  0  0  0
 26 24  1  0  0  0  0
 28 26  2  0  0  0  0
 29 28  1  0  0  0  0
 30 28  1  0  0  0  0
 30 21  2  0  0  0  0
 31 30  1  0  0  0  0
 32 33  1  0  0  0  0
 32  2  1  0  0  0  0
 32 35  1  0  0  0  0
 34 32  1  0  0  0  0
 35 37  1  0  0  0  0
 36 35  1  0  0  0  0
 38 39  1  0  0  0  0
 40 38  1  0  0  0  0
 41  2  1  0  0  0  0
 41 43  1  0  0  0  0
 41 38  1  0  0  0  0
 42 41  1  0  0  0  0
M  END
