9,21
q = 0.0, confidence = 0.998

 26 26  0  0  1  0  0  0  0  0999 V2000
    0.4912    2.8307    0.4260 Cl  0  0  0  0  0  0  0  0  0  0  0  0
    3.1066   -0.7636   -0.2541 N   0  0  0  0  0  0  0  0  0  0  0  0
    0.8980    0.2601   -0.4744 C   0  0  1  0  0  3  0  0  0  0  0  0
    2.1694    0.1747    0.3785 C   0  0  1  0  0  0  0  0  0  0  0  0
    2.6055    1.2094    0.3812 H   0  0  0  0  0  0  0  0  0  0  0  0
    0.0765    1.4251   -0.5288 C   0  0  0  0  0  0  0  0  0  0  0  0
   -1.0678    1.5135   -1.3765 C   0  0  0  0  0  0  0  0  0  0  0  0
   -1.6789    2.4244   -1.3675 H   0  0  0  0  0  0  0  0  0  0  0  0
    0.4855   -0.8556   -1.2690 C   0  0  0  0  0  3  0  0  0  0  0  0
    1.1022   -1.7628   -1.1894 H   0  0  0  0  0  0  0  0  0  0  0  0
    3.6660   -0.2048   -1.4755 C   0  0  0  0  0  0  0  0  0  0  0  0
    4.3285    0.6813   -1.2859 H   0  0  0  0  0  0  0  0  0  0  0  0
    2.8582    0.1247   -2.1591 H   0  0  0  0  0  0  0  0  0  0  0  0
    4.2659   -0.9718   -2.0055 H   0  0  0  0  0  0  0  0  0  0  0  0
   -0.6275   -0.7911   -2.1479 C   0  0  0  0  0  3  0  0  0  0  0  0
   -0.9209   -1.6704   -2.7359 H   0  0  0  0  0  0  0  0  0  0  0  0
    1.8396   -0.1693    1.8360 C   0  0  0  0  0  0  0  0  0  0  0  0
    1.4347   -1.1964    1.9214 H   0  0  0  0  0  0  0  0  0  0  0  0
    1.0740    0.5317    2.2144 H   0  0  0  0  0  0  0  0  0  0  0  0
    2.7310   -0.0729    2.4854 H   0  0  0  0  0  0  0  0  0  0  0  0
   -1.4198    0.3911   -2.1733 C   0  0  0  0  0  3  0  0  0  0  0  0
   -2.3249    0.4359   -2.7955 H   0  0  0  0  0  0  0  0  0  0  0  0
    4.1515   -1.2923    0.6062 C   0  0  0  0  0  0  0  0  0  0  0  0
    4.8375   -0.5056    1.0199 H   0  0  0  0  0  0  0  0  0  0  0  0
    4.7741   -1.9957    0.0177 H   0  0  0  0  0  0  0  0  0  0  0  0
    3.7262   -1.8601    1.4542 H   0  0  0  0  0  0  0  0  0  0  0  0
  2  4  1  0  0  0  0
  2 23  1  0  0  0  0
  3  4  1  6  0  0  0
  4  5  1  6  0  0  0
  4 17  1  0  0  0  0
  6  3  1  0  0  0  0
  6  1  1  0  0  0  0
  7  8  1  0  0  0  0
  7  6  2  0  0  0  0
  9 10  1  0  0  0  0
  9  3  1  0  0  0  0
 11 12  1  0  0  0  0
 11  2  1  0  0  0  0
 13 11  1  0  0  0  0
 14 11  1  0  0  0  0
 15  9  1  0  0  0  0
 16 15  1  0  0  0  0
 17 18  1  0  0  0  0
 17 19  1  0  0  0  0
 17 20  1  0  0  0  0
 21 15  1  0  0  0  0
 21  7  1  0  0  0  0
 22 21  1  0  0  0  0
 23 24  1  0  0  0  0
 23 26  1  0  0  0  0
 25 23  1  0  0  0  0
M  END
