19,23
q = 0.0, confidence = 1.0

 45 47  0  0  1  0  0  0  0  0999 V2000
    0.4400    2.7985    0.3599 N   0  0  0  0  0  0  0  0  0  0  0  0
    0.9246    0.0997    0.6853 N   0  0  0  0  0  0  0  0  0  0  0  0
    1.2002    1.0896    0.5083 H   0  0  0  0  0  0  0  0  0  0  0  0
   -1.8229    3.1641   -0.7423 C   0  0  0  0  0  0  0  0  0  0  0  0
   -2.2884    3.7144    0.0999 H   0  0  0  0  0  0  0  0  0  0  0  0
   -2.6230    2.6378   -1.2973 H   0  0  0  0  0  0  0  0  0  0  0  0
   -1.3815    3.9111   -1.4299 H   0  0  0  0  0  0  0  0  0  0  0  0
    0.1775    3.4795    1.6188 C   0  0  0  0  0  0  0  0  0  0  0  0
    1.1376    3.7097    2.1247 H   0  0  0  0  0  0  0  0  0  0  0  0
   -0.4129    2.8216    2.2874 H   0  0  0  0  0  0  0  0  0  0  0  0
   -0.3790    4.4426    1.4998 H   0  0  0  0  0  0  0  0  0  0  0  0
    1.2465    3.5897   -0.5565 C   0  0  0  0  0  0  0  0  0  0  0  0
    0.7622    4.5457   -0.8780 H   0  0  0  0  0  0  0  0  0  0  0  0
    1.4739    2.9954   -1.4649 H   0  0  0  0  0  0  0  0  0  0  0  0
    2.2090    3.8511   -0.0713 H   0  0  0  0  0  0  0  0  0  0  0  0
   -0.7511    2.1737   -0.2716 C   0  0  2  0  0  0  0  0  0  0  0  0
   -0.3450    1.6680   -1.1756 H   0  0  0  0  0  0  0  0  0  0  0  0
   -1.2892    1.0526    0.6192 C   0  0  1  0  0  3  0  0  0  0  0  0
   -2.6441    0.9986    1.0595 C   0  0  0  0  0  3  0  0  0  0  0  0
   -3.3230    1.8211    0.8006 H   0  0  0  0  0  0  0  0  0  0  0  0
   -3.1593   -0.1114    1.7882 C   0  0  0  0  0  3  0  0  0  0  0  0
   -4.2167   -0.1414    2.0803 H   0  0  0  0  0  0  0  0  0  0  0  0
   -2.3131   -1.2285    2.0046 C   0  0  0  0  0  3  0  0  0  0  0  0
   -2.7111   -2.1362    2.4796 H   0  0  0  0  0  0  0  0  0  0  0  0
   -0.9456   -1.1954    1.6131 C   0  0  0  0  0  0  0  0  0  0  0  0
   -0.3054   -2.0638    1.8093 H   0  0  0  0  0  0  0  0  0  0  0  0
   -0.3887   -0.0219    1.0078 C   0  0  0  0  0  0  0  0  0  0  0  0
    1.9345   -0.9275    0.7890 C   0  0  2  0  0  0  0  0  0  0  0  0
    1.4535   -1.9041    0.5491 H   0  0  0  0  0  0  0  0  0  0  0  0
    2.6695   -1.0105    2.1604 C   0  0  0  0  0  0  0  0  0  0  0  0
    2.7100    0.0187    2.5745 H   0  0  0  0  0  0  0  0  0  0  0  0
    2.1393   -1.6444    2.8980 H   0  0  0  0  0  0  0  0  0  0  0  0
    4.0980   -1.4971    1.8320 C   0  0  0  0  0  0  0  0  0  0  0  0
    4.8619   -1.1245    2.5445 H   0  0  0  0  0  0  0  0  0  0  0  0
    4.1553   -2.6086    1.8617 H   0  0  0  0  0  0  0  0  0  0  0  0
    4.3115   -1.0111    0.4144 C   0  0  0  0  0  0  0  0  0  0  0  0
    5.5004   -0.8725   -0.3156 C   0  0  0  0  0  0  0  0  0  0  0  0
    6.4727   -1.1069    0.1456 H   0  0  0  0  0  0  0  0  0  0  0  0
    5.4357   -0.4217   -1.6461 C   0  0  0  0  0  0  0  0  0  0  0  0
    6.3635   -0.3009   -2.2260 H   0  0  0  0  0  0  0  0  0  0  0  0
    4.1974   -0.1258   -2.2444 C   0  0  0  0  0  0  0  0  0  0  0  0
    4.1638    0.2155   -3.2902 H   0  0  0  0  0  0  0  0  0  0  0  0
    3.0026   -0.2680   -1.5175 C   0  0  0  0  0  0  0  0  0  0  0  0
    2.0254   -0.0651   -1.9823 H   0  0  0  0  0  0  0  0  0  0  0  0
    3.0767   -0.7011   -0.1873 C   0  0  0  0  0  0  0  0  0  0  0  0
  1  8  1  0  0  0  0
  2 28  1  0  0  0  0
  2 27  1  0  0  0  0
  3  2  1  0  0  0  0
  4 16  1  0  0  0  0
  4  5  1  0  0  0  0
  6  4  1  0  0  0  0
  7  4  1  0  0  0  0
  8  9  1  0  0  0  0
  8 10  1  0  0  0  0
 11  8  1  0  0  0  0
 12 15  1  0  0  0  0
 12  1  1  0  0  0  0
 13 12  1  0  0  0  0
 14 12  1  0  0  0  0
 16 17  1  6  0  0  0
 16  1  1  0  0  0  0
 18 16  1  6  0  0  0
 18 27  1  0  0  0  0
 18 19  1  0  0  0  0
 19 21  1  0  0  0  0
 20 19  1  0  0  0  0
 21 23  1  0  0  0  0
 21 22  1  0  0  0  0
 23 24  1  0  0  0  0
 25 26  1  0  0  0  0
 25 23  1  0  0  0  0
 27 25  2  0  0  0  0
 28 29  1  6  0  0  0
 28 30  1  0  0  0  0
 30 31  1  0  0  0  0
 30 32  1  0  0  0  0
 33 35  1  0  0  0  0
 33 30  1  0  0  0  0
 33 34  1  0  0  0  0
 36 33  1  0  0  0  0
 37 38  1  0  0  0  0
 37 36  2  0  0  0  0
 39 37  1  0  0  0  0
 40 39  1  0  0  0  0
 41 39  2  0  0  0  0
 41 43  1  0  0  0  0
 42 41  1  0  0  0  0
 43 45  2  0  0  0  0
 44 43  1  0  0  0  0
 45 36  1  0  0  0  0
 45 28  1  0  0  0  0
M  END
