2,15
q = -1.0

 26 27  0  0  0  0  0  0  0  0999 V2000
   -0.7042   -0.0370    1.6837 S   0  0  0  0  0  1  0  0  0  0  0  0
    1.3454    0.1614   -2.0744 C   0  0  0  0  0  3  0  0  0  0  0  0
    2.4163   -0.0366   -2.2580 H   0  0  0  0  0  0  0  0  0  0  0  0
    0.7074   -0.2249   -2.8910 H   0  0  0  0  0  0  0  0  0  0  0  0
    1.0273    1.4737   -1.5312 C   0  0  0  0  0  0  0  0  0  0  0  0
    1.9620    2.5401   -1.3258 C   0  0  0  0  0  0  0  0  0  0  0  0
    2.9820    2.4355   -1.7285 H   0  0  0  0  0  0  0  0  0  0  0  0
    1.5811    3.7013   -0.6690 C   0  0  0  0  0  0  0  0  0  0  0  0
    2.3045    4.5218   -0.5414 H   0  0  0  0  0  0  0  0  0  0  0  0
    0.2594    3.8452   -0.1626 C   0  0  0  0  0  0  0  0  0  0  0  0
   -0.0257    4.7725    0.3572 H   0  0  0  0  0  0  0  0  0  0  0  0
   -0.6712    2.8309   -0.3308 C   0  0  0  0  0  0  0  0  0  0  0  0
   -1.6959    2.9320    0.0576 H   0  0  0  0  0  0  0  0  0  0  0  0
   -0.3300    1.6375   -1.0335 C   0  0  0  0  0  0  0  0  0  0  0  0
   -1.1989    0.4625   -1.2032 C   0  0  0  0  0  3  0  0  0  0  0  0
   -1.2927    0.1155   -2.2507 H   0  0  0  0  0  0  0  0  0  0  0  0
   -2.4386    0.3534   -0.4039 C   0  0  0  0  0  0  0  0  0  0  0  0
   -3.7272    0.3956   -0.9748 C   0  0  0  0  0  0  0  0  0  0  0  0
   -3.8201    0.4867   -2.0694 H   0  0  0  0  0  0  0  0  0  0  0  0
   -4.8763    0.3526   -0.1714 C   0  0  0  0  0  0  0  0  0  0  0  0
   -5.8751    0.3925   -0.6313 H   0  0  0  0  0  0  0  0  0  0  0  0
   -4.7402    0.2728    1.2277 C   0  0  0  0  0  0  0  0  0  0  0  0
   -5.6363    0.2469    1.8673 H   0  0  0  0  0  0  0  0  0  0  0  0
   -3.4709    0.2034    1.8158 C   0  0  0  0  0  0  0  0  0  0  0  0
   -3.3646    0.1092    2.9075 H   0  0  0  0  0  0  0  0  0  0  0  0
   -2.3096    0.2073    1.0092 C   0  0  0  0  0  0  0  0  0  0  0  0
  2  5  1  0  0  0  0
  3  2  1  0  0  0  0
  4  2  1  0  0  0  0
  5  6  2  0  0  0  0
  5 14  1  0  0  0  0
  6  8  1  0  0  0  0
  7  6  1  0  0  0  0
  8  9  1  0  0  0  0
  8 10  2  0  0  0  0
 10 11  1  0  0  0  0
 12 10  1  0  0  0  0
 12 13  1  0  0  0  0
 14 12  2  0  0  0  0
 15 14  1  0  0  0  0
 15 17  1  0  0  0  0
 16 15  1  0  0  0  0
 17 26  1  0  0  0  0
 18 17  2  0  0  0  0
 18 20  1  0  0  0  0
 19 18  1  0  0  0  0
 20 22  2  0  0  0  0
 21 20  1  0  0  0  0
 22 24  1  0  0  0  0
 22 23  1  0  0  0  0
 24 25  1  0  0  0  0
 26  1  1  0  0  0  0
 26 24  2  0  0  0  0
M  END
