12,15
q = -1.0

 25 27  0  0  1  0  0  0  0  0999 V2000
    1.5475   -1.2586   -0.6498 N   0  0  0  0  0  0  0  0  0  0  0  0
    1.1996    1.1226   -0.4033 C   0  0  0  0  0  0  0  0  0  0  0  0
    2.0507   -0.0398   -0.3092 C   0  0  0  0  0  0  0  0  0  0  0  0
    2.3168   -2.3297   -0.5346 C   0  0  0  0  0  0  0  0  0  0  0  0
    3.6650   -2.2883   -0.0867 C   0  0  0  0  0  0  0  0  0  0  0  0
    3.4059    0.1143    0.1640 C   0  0  0  0  0  0  0  0  0  0  0  0
    4.2045   -1.0607    0.2595 C   0  0  0  0  0  0  0  0  0  0  0  0
    3.8948    1.4032    0.5204 C   0  0  0  0  0  0  0  0  0  0  0  0
    3.0643    2.5073    0.4185 C   0  0  0  0  0  0  0  0  0  0  0  0
    1.7308    2.3625   -0.0380 C   0  0  0  0  0  0  0  0  0  0  0  0
   -0.2027    1.0361   -0.8500 C   0  0  1  0  0  3  0  0  0  0  0  0
   -1.2592    1.9475   -0.4543 C   0  0  0  0  0  3  0  0  0  0  0  0
   -2.4512    1.5944   -1.1506 C   0  0  0  0  0  0  0  0  0  0  0  0
   -2.1627    0.4626   -1.9876 C   0  0  0  0  0  0  0  0  0  0  0  0
   -0.7906    0.1129   -1.7876 C   0  0  0  0  0  3  0  0  0  0  0  0
    1.8517   -3.2966   -0.8001 H   0  0  0  0  0  0  0  0  0  0  0  0
    4.2527   -3.2153   -0.0154 H   0  0  0  0  0  0  0  0  0  0  0  0
    5.2431   -0.9746    0.6162 H   0  0  0  0  0  0  0  0  0  0  0  0
    4.9329    1.5039    0.8731 H   0  0  0  0  0  0  0  0  0  0  0  0
    3.4352    3.5073    0.6884 H   0  0  0  0  0  0  0  0  0  0  0  0
    1.0994    3.2592   -0.1224 H   0  0  0  0  0  0  0  0  0  0  0  0
   -1.1611    2.7626    0.2719 H   0  0  0  0  0  0  0  0  0  0  0  0
   -3.4218    2.0955   -1.0545 H   0  0  0  0  0  0  0  0  0  0  0  0
   -2.8689   -0.0517   -2.6490 H   0  0  0  0  0  0  0  0  0  0  0  0
   -0.2503   -0.7172   -2.2517 H   0  0  0  0  0  0  0  0  0  0  0  0
  1  4  2  0  0  0  0
  1  3  1  0  0  0  0
  2  3  2  0  0  0  0
  2 10  1  0  0  0  0
  3  6  1  0  0  0  0
  4  5  1  0  0  0  0
  5 17  1  0  0  0  0
  5  7  2  0  0  0  0
  6  7  1  0  0  0  0
  6  8  2  0  0  0  0
  7 18  1  0  0  0  0
  8 19  1  0  0  0  0
  9  8  1  0  0  0  0
  9 20  1  0  0  0  0
 10  9  2  0  0  0  0
 11 12  1  0  0  0  0
 11  2  1  6  0  0  0
 12 22  1  0  0  0  0
 13 23  1  0  0  0  0
 13 12  1  0  0  0  0
 14 15  1  0  0  0  0
 14 13  2  0  0  0  0
 15 11  1  0  0  0  0
 16  4  1  0  0  0  0
 21 10  1  0  0  0  0
 24 14  1  0  0  0  0
 25 15  1  0  0  0  0
M  END
