9,40
q = -2.0, confidence = 0.616

 65 70  0  0  1  0  0  0  0  0999 V2000
   -3.0926    1.7352   -1.4674 S   0  0  0  0  0  0  0  0  0  0  0  0
    3.0929    1.7353    1.4671 S   0  0  0  0  0  0  0  0  0  0  0  0
    0.0001    3.5264   -0.0000 Si  0  0  0  0  0  0  0  0  0  0  0  0
   -3.9817    0.2355   -1.1615 C   0  0  0  0  0  0  0  0  0  0  0  0
   -3.6025   -0.3981    0.0129 C   0  0  0  0  0  0  0  0  0  0  0  0
   -1.7834    0.2700    1.8790 C   0  0  0  0  0  0  0  0  0  0  0  0
   -1.8237   -0.5204    2.6365 H   0  0  0  0  0  0  0  0  0  0  0  0
   -0.9625    1.4383    1.9531 C   0  0  0  0  0  0  0  0  0  0  0  0
   -1.1706    2.2530    0.7669 C   0  0  2  0  0  3  0  0  0  0  0  0
   -2.5504    0.3343    0.6808 C   0  0  0  0  0  0  0  0  0  0  0  0
   -2.1463    1.5277   -0.0063 C   0  0  0  0  0  0  0  0  0  0  0  0
   -4.9516   -0.2214   -2.2055 C   0  0  0  0  0  0  0  0  0  0  0  0
   -5.1353   -1.3079   -2.1027 H   0  0  0  0  0  0  0  0  0  0  0  0
   -4.5574   -0.0323   -3.2243 H   0  0  0  0  0  0  0  0  0  0  0  0
   -5.9304    0.2989   -2.1274 H   0  0  0  0  0  0  0  0  0  0  0  0
   -4.1298   -1.6854    0.5066 C   0  0  0  0  0  0  0  0  0  0  0  0
   -5.5145   -1.9700    0.5034 C   0  0  0  0  0  0  0  0  0  0  0  0
   -6.2221   -1.2030    0.1555 H   0  0  0  0  0  0  0  0  0  0  0  0
   -5.9952   -3.2005    0.9733 C   0  0  0  0  0  0  0  0  0  0  0  0
   -7.0777   -3.4008    0.9682 H   0  0  0  0  0  0  0  0  0  0  0  0
   -5.1026   -4.1678    1.4610 C   0  0  0  0  0  0  0  0  0  0  0  0
   -5.4803   -5.1328    1.8317 H   0  0  0  0  0  0  0  0  0  0  0  0
   -3.7252   -3.8936    1.4777 C   0  0  0  0  0  0  0  0  0  0  0  0
   -3.0165   -4.6467    1.8549 H   0  0  0  0  0  0  0  0  0  0  0  0
   -3.2406   -2.6661    1.0077 C   0  0  0  0  0  0  0  0  0  0  0  0
   -2.1579   -2.4721    0.9990 H   0  0  0  0  0  0  0  0  0  0  0  0
   -0.1134    1.7694    3.1480 C   0  0  0  0  0  0  0  0  0  0  0  0
   -0.7130    2.3402    3.8890 H   0  0  0  0  0  0  0  0  0  0  0  0
    0.7704    2.3797    2.8944 H   0  0  0  0  0  0  0  0  0  0  0  0
    0.2500    0.8454    3.6366 H   0  0  0  0  0  0  0  0  0  0  0  0
    0.9087    4.6214    1.2353 C   0  0  0  0  0  0  0  0  0  0  0  0
    1.4696    5.4032    0.6832 H   0  0  0  0  0  0  0  0  0  0  0  0
    1.6359    4.0702    1.8618 H   0  0  0  0  0  0  0  0  0  0  0  0
    0.1864    5.1261    1.9087 H   0  0  0  0  0  0  0  0  0  0  0  0
    3.9818    0.2353    1.1615 C   0  0  0  0  0  0  0  0  0  0  0  0
    3.6025   -0.3982   -0.0129 C   0  0  0  0  0  0  0  0  0  0  0  0
    1.7834    0.2698   -1.8790 C   0  0  0  0  0  0  0  0  0  0  0  0
    1.8237   -0.5206   -2.6364 H   0  0  0  0  0  0  0  0  0  0  0  0
    0.9626    1.4382   -1.9531 C   0  0  0  0  0  0  0  0  0  0  0  0
    1.1707    2.2530   -0.7670 C   0  0  2  0  0  3  0  0  0  0  0  0
    2.5504    0.3342   -0.6808 C   0  0  0  0  0  0  0  0  0  0  0  0
    2.1465    1.5276    0.0062 C   0  0  0  0  0  0  0  0  0  0  0  0
    4.9515   -0.2216    2.2056 C   0  0  0  0  0  0  0  0  0  0  0  0
    5.1350   -1.3082    2.1029 H   0  0  0  0  0  0  0  0  0  0  0  0
    4.5573   -0.0323    3.2243 H   0  0  0  0  0  0  0  0  0  0  0  0
    5.9304    0.2985    2.1275 H   0  0  0  0  0  0  0  0  0  0  0  0
    4.1297   -1.6856   -0.5066 C   0  0  0  0  0  0  0  0  0  0  0  0
    3.2402   -2.6663   -1.0073 C   0  0  0  0  0  0  0  0  0  0  0  0
    2.1576   -2.4723   -0.9983 H   0  0  0  0  0  0  0  0  0  0  0  0
    3.7246   -3.8940   -1.4773 C   0  0  0  0  0  0  0  0  0  0  0  0
    3.0157   -4.6470   -1.8542 H   0  0  0  0  0  0  0  0  0  0  0  0
    5.1020   -4.1682   -1.4609 C   0  0  0  0  0  0  0  0  0  0  0  0
    5.4795   -5.1333   -1.8316 H   0  0  0  0  0  0  0  0  0  0  0  0
    5.9948   -3.2010   -0.9736 C   0  0  0  0  0  0  0  0  0  0  0  0
    7.0773   -3.4013   -0.9689 H   0  0  0  0  0  0  0  0  0  0  0  0
    5.5143   -1.9703   -0.5038 C   0  0  0  0  0  0  0  0  0  0  0  0
    6.2221   -1.2033   -0.1563 H   0  0  0  0  0  0  0  0  0  0  0  0
    0.1135    1.7693   -3.1480 C   0  0  0  0  0  0  0  0  0  0  0  0
    0.7134    2.3392   -3.8895 H   0  0  0  0  0  0  0  0  0  0  0  0
   -0.7698    2.3804   -2.8946 H   0  0  0  0  0  0  0  0  0  0  0  0
   -0.2508    0.8453   -3.6361 H   0  0  0  0  0  0  0  0  0  0  0  0
   -0.9084    4.6215   -1.2353 C   0  0  0  0  0  0  0  0  0  0  0  0
   -1.6357    4.0704   -1.8617 H   0  0  0  0  0  0  0  0  0  0  0  0
   -0.1862    5.1261   -1.9088 H   0  0  0  0  0  0  0  0  0  0  0  0
   -1.4693    5.4034   -0.6831 H   0  0  0  0  0  0  0  0  0  0  0  0
  1  4  1  0  0  0  0
  1 11  1  0  0  0  0
  3 31  1  0  0  0  0
  4  5  2  0  0  0  0
  5 16  1  0  0  0  0
  5 10  1  0  0  0  0
  6  8  2  0  0  0  0
  6  7  1  0  0  0  0
  8 27  1  0  0  0  0
  9  3  1  6  0  0  0
  9  8  1  0  0  0  0
 10  6  1  0  0  0  0
 11 10  2  0  0  0  0
 11  9  1  0  0  0  0
 12 15  1  0  0  0  0
 12 13  1  0  0  0  0
 12  4  1  0  0  0  0
 14 12  1  0  0  0  0
 16 25  1  0  0  0  0
 17 16  2  0  0  0  0
 17 19  1  0  0  0  0
 18 17  1  0  0  0  0
 19 21  2  0  0  0  0
 20 19  1  0  0  0  0
 21 23  1  0  0  0  0
 21 22  1  0  0  0  0
 23 24  1  0  0  0  0
 25 23  2  0  0  0  0
 26 25  1  0  0  0  0
 27 30  1  0  0  0  0
 27 28  1  0  0  0  0
 29 27  1  0  0  0  0
 31 33  1  0  0  0  0
 31 34  1  0  0  0  0
 32 31  1  0  0  0  0
 35  2  1  0  0  0  0
 35 43  1  0  0  0  0
 36 35  2  0  0  0  0
 37 41  1  0  0  0  0
 38 37  1  0  0  0  0
 39 37  2  0  0  0  0
 39 40  1  0  0  0  0
 40  3  1  1  0  0  0
 40 42  1  0  0  0  0
 41 36  1  0  0  0  0
 41 42  2  0  0  0  0
 42  2  1  0  0  0  0
 43 45  1  0  0  0  0
 44 43  1  0  0  0  0
 46 43  1  0  0  0  0
 47 56  1  0  0  0  0
 47 36  1  0  0  0  0
 48 49  1  0  0  0  0
 48 47  2  0  0  0  0
 50 52  2  0  0  0  0
 50 48  1  0  0  0  0
 51 50  1  0  0  0  0
 52 54  1  0  0  0  0
 53 52  1  0  0  0  0
 54 55  1  0  0  0  0
 54 56  2  0  0  0  0
 56 57  1  0  0  0  0
 58 60  1  0  0  0  0
 58 39  1  0  0  0  0
 59 58  1  0  0  0  0
 61 58  1  0  0  0  0
 62 65  1  0  0  0  0
 62  3  1  0  0  0  0
 63 62  1  0  0  0  0
 64 62  1  0  0  0  0
M  END
