2,12
q = -1.0

 31 32  0  0  0  0  0  0  0  0999 V2000
   -2.5379    1.5835   -0.8470 N   0  0  0  0  0  0  0  0  0  0  0  0
   -1.4310    1.4459   -0.0500 C   0  0  0  0  0  2  0  0  0  0  0  0
   -3.1736    2.7918   -0.5763 C   0  0  0  0  0  0  0  0  0  0  0  0
   -4.0793    3.1061   -1.1036 H   0  0  0  0  0  0  0  0  0  0  0  0
   -2.9080    0.6593   -1.9193 C   0  0  0  0  0  0  0  0  0  0  0  0
   -3.9444    0.9102   -2.2223 H   0  0  0  0  0  0  0  0  0  0  0  0
   -2.9217   -0.3655   -1.4989 H   0  0  0  0  0  0  0  0  0  0  0  0
   -1.9496    0.7215   -3.1051 C   0  0  0  0  0  0  0  0  0  0  0  0
   -1.9106    1.7413   -3.5379 H   0  0  0  0  0  0  0  0  0  0  0  0
   -2.2704    0.0130   -3.8942 H   0  0  0  0  0  0  0  0  0  0  0  0
   -0.9305    0.4312   -2.7782 H   0  0  0  0  0  0  0  0  0  0  0  0
    1.2927    1.5732   -0.0192 C   0  0  0  0  0  2  0  0  0  0  0  0
    1.1194    2.6704    0.7656 N   0  0  0  0  0  0  0  0  0  0  0  0
   -0.1567    2.8766    1.6611 B   0  0  0  0  0  0  0  0  0  0  0  0
   -1.3724    2.5689    0.7147 N   0  0  0  0  0  0  0  0  0  0  0  0
   -2.4334    3.4012    0.4100 C   0  0  0  0  0  0  0  0  0  0  0  0
   -2.5747    4.3618    0.9142 H   0  0  0  0  0  0  0  0  0  0  0  0
   -0.2108    4.0513    2.0221 H   0  0  0  0  0  0  0  0  0  0  0  0
   -0.1465    2.0860    2.6071 H   0  0  0  0  0  0  0  0  0  0  0  0
    2.1297    3.5828    0.5261 C   0  0  0  0  0  0  0  0  0  0  0  0
    2.9553    3.0527   -0.4378 C   0  0  0  0  0  0  0  0  0  0  0  0
    2.4165    1.8130   -0.7697 N   0  0  0  0  0  0  0  0  0  0  0  0
    2.9225    0.9391   -1.8264 C   0  0  0  0  0  0  0  0  0  0  0  0
    2.1817    0.1225   -1.9305 H   0  0  0  0  0  0  0  0  0  0  0  0
    2.9190    1.5126   -2.7779 H   0  0  0  0  0  0  0  0  0  0  0  0
    4.3139    0.3794   -1.5445 C   0  0  0  0  0  0  0  0  0  0  0  0
    4.6408   -0.2566   -2.3907 H   0  0  0  0  0  0  0  0  0  0  0  0
    5.0660    1.1837   -1.4147 H   0  0  0  0  0  0  0  0  0  0  0  0
    4.3115   -0.2480   -0.6326 H   0  0  0  0  0  0  0  0  0  0  0  0
    3.8515    3.4527   -0.9213 H   0  0  0  0  0  0  0  0  0  0  0  0
    2.1743    4.5425    1.0498 H   0  0  0  0  0  0  0  0  0  0  0  0
  1  3  1  0  0  0  0
  1  2  1  0  0  0  0
  2 15  1  0  0  0  0
  3 16  2  0  0  0  0
  4  3  1  0  0  0  0
  5  7  1  0  0  0  0
  5  1  1  0  0  0  0
  6  5  1  0  0  0  0
  8 11  1  0  0  0  0
  8  5  1  0  0  0  0
  9  8  1  0  0  0  0
 10  8  1  0  0  0  0
 12 13  1  0  0  0  0
 13 14  1  0  0  0  0
 14 18  1  0  0  0  0
 14 19  1  0  0  0  0
 15 14  1  0  0  0  0
 16 15  1  0  0  0  0
 16 17  1  0  0  0  0
 20 13  1  0  0  0  0
 20 31  1  0  0  0  0
 21 20  2  0  0  0  0
 22 21  1  0  0  0  0
 22 12  1  0  0  0  0
 23 26  1  0  0  0  0
 23 22  1  0  0  0  0
 24 23  1  0  0  0  0
 25 23  1  0  0  0  0
 26 28  1  0  0  0  0
 26 29  1  0  0  0  0
 27 26  1  0  0  0  0
 30 21  1  0  0  0  0
M  END
