10,28
q = -1.0

 32 31  0  0  1  0  0  0  0  0999 V2000
    2.4321    0.0514    0.1315 P   0  0  0  0  0  4  0  0  0  0  0  0
    0.3869   -0.7218   -1.3235 O   0  0  0  0  0  0  0  0  0  0  0  0
   -1.2810   -2.1737   -1.6180 O   0  0  0  0  0  0  0  0  0  0  0  0
    0.0547    1.8764    1.0916 O   0  0  0  0  0  0  0  0  0  0  0  0
    1.0210    1.5758   -1.7871 C   0  0  0  0  0  0  0  0  0  0  0  0
    1.7788    1.2657   -2.5321 H   0  0  0  0  0  0  0  0  0  0  0  0
    1.3246    2.5297   -1.3166 H   0  0  0  0  0  0  0  0  0  0  0  0
    0.0744    1.7453   -2.3343 H   0  0  0  0  0  0  0  0  0  0  0  0
    0.8084    0.4886   -0.7285 C   0  0  2  0  0  0  0  0  0  0  0  0
   -0.9304   -1.1573   -1.0938 C   0  0  0  0  0  3  0  0  0  0  0  0
    3.6091   -0.6390   -1.0872 C   0  0  0  0  0  0  0  0  0  0  0  0
    3.7582    0.1483   -1.8558 H   0  0  0  0  0  0  0  0  0  0  0  0
    4.5701   -0.7011   -0.5298 H   0  0  0  0  0  0  0  0  0  0  0  0
    3.1823    1.5125    0.9419 C   0  0  0  0  0  0  0  0  0  0  0  0
    2.3293    2.0473    1.4096 H   0  0  0  0  0  0  0  0  0  0  0  0
    3.7949    1.0912    1.7677 H   0  0  0  0  0  0  0  0  0  0  0  0
    2.0457   -1.2048    1.3992 C   0  0  0  0  0  0  0  0  0  0  0  0
    1.3930   -0.7004    2.1418 H   0  0  0  0  0  0  0  0  0  0  0  0
    1.4279   -1.9722    0.8888 H   0  0  0  0  0  0  0  0  0  0  0  0
    3.2313   -1.9843   -1.7140 C   0  0  0  0  0  0  0  0  0  0  0  0
    4.0391   -2.3032   -2.4006 H   0  0  0  0  0  0  0  0  0  0  0  0
    2.2884   -1.9213   -2.2864 H   0  0  0  0  0  0  0  0  0  0  0  0
    3.1134   -2.7779   -0.9505 H   0  0  0  0  0  0  0  0  0  0  0  0
    4.0275    2.4321    0.0554 C   0  0  0  0  0  0  0  0  0  0  0  0
    4.4147    3.2674    0.6704 H   0  0  0  0  0  0  0  0  0  0  0  0
    3.4454    2.8793   -0.7726 H   0  0  0  0  0  0  0  0  0  0  0  0
    4.9033    1.9111   -0.3777 H   0  0  0  0  0  0  0  0  0  0  0  0
   -0.2398    0.9927    0.3185 C   0  0  0  0  0  3  0  0  0  0  0  0
    3.2745   -1.8283    2.0685 C   0  0  0  0  0  0  0  0  0  0  0  0
    2.9426   -2.5554    2.8345 H   0  0  0  0  0  0  0  0  0  0  0  0
    3.9027   -1.0756    2.5844 H   0  0  0  0  0  0  0  0  0  0  0  0
    3.9101   -2.3770    1.3467 H   0  0  0  0  0  0  0  0  0  0  0  0
  1 14  1  0  0  0  0
  1 17  1  0  0  0  0
  2 10  1  0  0  0  0
  2  9  1  0  0  0  0
  3 10  2  0  0  0  0
  5  7  1  0  0  0  0
  5  9  1  0  0  0  0
  6  5  1  0  0  0  0
  8  5  1  0  0  0  0
  9  1  1  0  0  0  0
  9 28  1  1  0  0  0
 11 13  1  0  0  0  0
 11  1  1  0  0  0  0
 12 11  1  0  0  0  0
 14 15  1  0  0  0  0
 14 16  1  0  0  0  0
 17 29  1  0  0  0  0
 17 18  1  0  0  0  0
 19 17  1  0  0  0  0
 20 11  1  0  0  0  0
 20 23  1  0  0  0  0
 21 20  1  0  0  0  0
 22 20  1  0  0  0  0
 24 25  1  0  0  0  0
 24 14  1  0  0  0  0
 26 24  1  0  0  0  0
 27 24  1  0  0  0  0
 28  4  2  0  0  0  0
 29 31  1  0  0  0  0
 29 30  1  0  0  0  0
 32 29  1  0  0  0  0
M  END
