2,25
q = 0.0, confidence = 1.0

 43 46  0  0  0  0  0  0  0  0999 V2000
    1.1961    1.2368    0.6805 N   0  0  0  0  0  0  0  0  0  0  0  0
    1.4395    0.0013    0.1070 C   0  0  0  0  0  2  0  0  0  0  0  0
    2.6233    0.1711   -0.5731 N   0  0  0  0  0  0  0  0  0  0  0  0
    3.1117    1.4719   -0.4426 C   0  0  0  0  0  0  0  0  0  0  0  0
    4.2526    2.1075   -0.9537 C   0  0  0  0  0  0  0  0  0  0  0  0
    4.9797    1.5688   -1.5768 H   0  0  0  0  0  0  0  0  0  0  0  0
    4.4300    3.4641   -0.6373 C   0  0  0  0  0  0  0  0  0  0  0  0
    5.3138    3.9941   -1.0217 H   0  0  0  0  0  0  0  0  0  0  0  0
    3.4996    4.1609    0.1626 C   0  0  0  0  0  0  0  0  0  0  0  0
    3.6706    5.2234    0.3892 H   0  0  0  0  0  0  0  0  0  0  0  0
    2.3571    3.5257    0.6768 C   0  0  0  0  0  0  0  0  0  0  0  0
    1.6365    4.0775    1.2976 H   0  0  0  0  0  0  0  0  0  0  0  0
    2.1795    2.1722    0.3612 C   0  0  0  0  0  0  0  0  0  0  0  0
    3.3292   -0.8758   -1.3079 C   0  0  0  0  0  0  0  0  0  0  0  0
    3.6760   -0.4352   -2.2660 H   0  0  0  0  0  0  0  0  0  0  0  0
    2.5797   -1.6498   -1.5528 H   0  0  0  0  0  0  0  0  0  0  0  0
    4.4923   -1.4718   -0.5186 C   0  0  0  0  0  0  0  0  0  0  0  0
    4.9944   -2.2531   -1.1223 H   0  0  0  0  0  0  0  0  0  0  0  0
    4.1282   -1.9471    0.4121 H   0  0  0  0  0  0  0  0  0  0  0  0
    5.2454   -0.7032   -0.2525 H   0  0  0  0  0  0  0  0  0  0  0  0
    0.0000    1.4851    1.4574 C   0  0  0  0  0  0  0  0  0  0  0  0
    0.0000    0.8181    2.3423 H   0  0  0  0  0  0  0  0  0  0  0  0
    0.0000    2.5354    1.7977 H   0  0  0  0  0  0  0  0  0  0  0  0
   -1.1961    1.2368    0.6805 N   0  0  0  0  0  0  0  0  0  0  0  0
   -1.4395    0.0013    0.1071 C   0  0  0  0  0  2  0  0  0  0  0  0
   -2.6233    0.1711   -0.5730 N   0  0  0  0  0  0  0  0  0  0  0  0
   -3.1117    1.4719   -0.4426 C   0  0  0  0  0  0  0  0  0  0  0  0
   -4.2526    2.1076   -0.9537 C   0  0  0  0  0  0  0  0  0  0  0  0
   -4.9797    1.5688   -1.5767 H   0  0  0  0  0  0  0  0  0  0  0  0
   -4.4300    3.4641   -0.6372 C   0  0  0  0  0  0  0  0  0  0  0  0
   -5.3137    3.9941   -1.0217 H   0  0  0  0  0  0  0  0  0  0  0  0
   -3.4996    4.1609    0.1626 C   0  0  0  0  0  0  0  0  0  0  0  0
   -3.6705    5.2235    0.3891 H   0  0  0  0  0  0  0  0  0  0  0  0
   -2.3570    3.5258    0.6768 C   0  0  0  0  0  0  0  0  0  0  0  0
   -1.6364    4.0775    1.2975 H   0  0  0  0  0  0  0  0  0  0  0  0
   -2.1795    2.1722    0.3612 C   0  0  0  0  0  0  0  0  0  0  0  0
   -3.3292   -0.8758   -1.3078 C   0  0  0  0  0  0  0  0  0  0  0  0
   -2.5797   -1.6498   -1.5526 H   0  0  0  0  0  0  0  0  0  0  0  0
   -3.6759   -0.4352   -2.2659 H   0  0  0  0  0  0  0  0  0  0  0  0
   -4.4924   -1.4718   -0.5185 C   0  0  0  0  0  0  0  0  0  0  0  0
   -4.9945   -2.2530   -1.1223 H   0  0  0  0  0  0  0  0  0  0  0  0
   -5.2455   -0.7032   -0.2525 H   0  0  0  0  0  0  0  0  0  0  0  0
   -4.1284   -1.9472    0.4121 H   0  0  0  0  0  0  0  0  0  0  0  0
  1 21  1  0  0  0  0
  2  1  1  0  0  0  0
  3  4  1  0  0  0  0
  3  2  1  0  0  0  0
  4 13  1  0  0  0  0
  5  7  1  0  0  0  0
  5  4  2  0  0  0  0
  6  5  1  0  0  0  0
  7  9  2  0  0  0  0
  8  7  1  0  0  0  0
  9 10  1  0  0  0  0
  9 11  1  0  0  0  0
 11 12  1  0  0  0  0
 13 11  2  0  0  0  0
 13  1  1  0  0  0  0
 14  3  1  0  0  0  0
 14 17  1  0  0  0  0
 15 14  1  0  0  0  0
 16 14  1  0  0  0  0
 17 20  1  0  0  0  0
 17 19  1  0  0  0  0
 18 17  1  0  0  0  0
 21 23  1  0  0  0  0
 21 22  1  0  0  0  0
 24 21  1  0  0  0  0
 25 24  1  0  0  0  0
 26 27  1  0  0  0  0
 26 25  1  0  0  0  0
 27 36  1  0  0  0  0
 28 30  1  0  0  0  0
 28 27  2  0  0  0  0
 29 28  1  0  0  0  0
 30 32  2  0  0  0  0
 31 30  1  0  0  0  0
 32 33  1  0  0  0  0
 32 34  1  0  0  0  0
 34 35  1  0  0  0  0
 36 34  2  0  0  0  0
 36 24  1  0  0  0  0
 37 26  1  0  0  0  0
 37 40  1  0  0  0  0
 38 37  1  0  0  0  0
 39 37  1  0  0  0  0
 40 42  1  0  0  0  0
 40 43  1  0  0  0  0
 41 40  1  0  0  0  0
M  END
