1,7
q = -1.0

 23 23  0  0  0  0  0  0  0  0999 V2000
   -1.1934    1.1346   -0.0245 C   0  0  0  0  0  2  0  0  0  0  0  0
   -1.6374    2.4741   -0.0468 C   0  0  0  0  0  0  0  0  0  0  0  0
   -0.7406    3.5613   -0.0412 C   0  0  0  0  0  0  0  0  0  0  0  0
   -1.1723    4.5761   -0.0628 H   0  0  0  0  0  0  0  0  0  0  0  0
    0.6611    3.4429   -0.0098 C   0  0  0  0  0  0  0  0  0  0  0  0
    1.2520    4.3761   -0.0048 H   0  0  0  0  0  0  0  0  0  0  0  0
    1.3374    2.2339    0.0135 C   0  0  0  0  0  3  0  0  0  0  0  0
    2.4452    2.2860    0.0420 H   0  0  0  0  0  0  0  0  0  0  0  0
   -2.2362    0.0708   -0.0123 C   0  0  0  0  0  0  0  0  0  0  0  0
   -2.8416   -0.3335    1.2002 C   0  0  0  0  0  0  0  0  0  0  0  0
   -2.5094    0.1356    2.1394 H   0  0  0  0  0  0  0  0  0  0  0  0
   -3.8444   -1.3139    1.2128 C   0  0  0  0  0  0  0  0  0  0  0  0
   -4.3017   -1.6141    2.1686 H   0  0  0  0  0  0  0  0  0  0  0  0
   -4.2637   -1.9148    0.0146 C   0  0  0  0  0  0  0  0  0  0  0  0
   -5.0494   -2.6853    0.0248 H   0  0  0  0  0  0  0  0  0  0  0  0
   -3.6731   -1.5207   -1.1978 C   0  0  0  0  0  0  0  0  0  0  0  0
   -3.9987   -1.9804   -2.1442 H   0  0  0  0  0  0  0  0  0  0  0  0
   -2.6729   -0.5366   -1.2117 C   0  0  0  0  0  0  0  0  0  0  0  0
   -2.2141   -0.2213   -2.1613 H   0  0  0  0  0  0  0  0  0  0  0  0
   -3.1262    2.7738   -0.0859 C   0  0  0  0  0  0  0  0  0  0  0  0
   -3.6192    2.2876   -0.9526 H   0  0  0  0  0  0  0  0  0  0  0  0
   -3.3123    3.8635   -0.1514 H   0  0  0  0  0  0  0  0  0  0  0  0
   -3.6476    2.3918    0.8158 H   0  0  0  0  0  0  0  0  0  0  0  0
  1  9  1  0  0  0  0
  2  3  2  0  0  0  0
  2  1  1  0  0  0  0
  3  5  1  0  0  0  0
  4  3  1  0  0  0  0
  5  6  1  0  0  0  0
  5  7  2  0  0  0  0
  7  8  1  0  0  0  0
  9 10  1  0  0  0  0
 10 12  2  0  0  0  0
 10 11  1  0  0  0  0
 12 13  1  0  0  0  0
 14 15  1  0  0  0  0
 14 12  1  0  0  0  0
 16 14  2  0  0  0  0
 17 16  1  0  0  0  0
 18 16  1  0  0  0  0
 18  9  2  0  0  0  0
 19 18  1  0  0  0  0
 20  2  1  0  0  0  0
 20 23  1  0  0  0  0
 21 20  1  0  0  0  0
 22 20  1  0  0  0  0
M  END
