3,9
q = 0.0, confidence = 0.998

 52 54  0  0  1  0  0  0  0  0999 V2000
   -0.9156   -0.0668    0.5546 P   0  0  0  0  0  0  0  0  0  0  0  0
    1.8172    1.6507    0.6813 C   0  0  1  0  0  3  0  0  0  0  0  0
    2.1878    1.7536   -0.6973 C   0  0  0  0  0  3  0  0  0  0  0  0
    1.8087    2.6034   -1.2838 H   0  0  0  0  0  0  0  0  0  0  0  0
    3.0244    0.7720   -1.3463 C   0  0  0  0  0  0  0  0  0  0  0  0
    3.4337   -0.3406   -0.5809 C   0  0  0  0  0  0  0  0  0  0  0  0
    3.9885   -1.1536   -1.0718 H   0  0  0  0  0  0  0  0  0  0  0  0
    3.0331   -0.5210    0.7988 C   0  0  1  0  0  3  0  0  0  0  0  0
    2.2163    0.4744    1.4444 C   0  0  2  0  0  3  0  0  0  0  0  0
    1.0592    2.7902    1.3134 C   0  0  0  0  0  0  0  0  0  0  0  0
    1.7513    3.3805    1.9512 H   0  0  0  0  0  0  0  0  0  0  0  0
    0.2183    2.4619    1.9502 H   0  0  0  0  0  0  0  0  0  0  0  0
    0.6410    3.4638    0.5438 H   0  0  0  0  0  0  0  0  0  0  0  0
    3.3171    0.8890   -2.8119 C   0  0  0  0  0  0  0  0  0  0  0  0
    3.9314    0.0425   -3.1706 H   0  0  0  0  0  0  0  0  0  0  0  0
    3.8461    1.8381   -3.0344 H   0  0  0  0  0  0  0  0  0  0  0  0
    2.3555    0.8811   -3.3698 H   0  0  0  0  0  0  0  0  0  0  0  0
    3.4736   -1.7835    1.4890 C   0  0  0  0  0  0  0  0  0  0  0  0
    3.4536   -1.7003    2.5907 H   0  0  0  0  0  0  0  0  0  0  0  0
    4.5036   -2.0469    1.1789 H   0  0  0  0  0  0  0  0  0  0  0  0
    2.8018   -2.6156    1.1809 H   0  0  0  0  0  0  0  0  0  0  0  0
    1.7175    0.2495    2.8583 C   0  0  0  0  0  0  0  0  0  0  0  0
    2.5545   -0.1373    3.4747 H   0  0  0  0  0  0  0  0  0  0  0  0
    1.4319    1.2166    3.3179 H   0  0  0  0  0  0  0  0  0  0  0  0
    0.5347   -0.7368    2.9675 C   0  0  0  0  0  0  0  0  0  0  0  0
    0.3890   -0.9835    4.0409 H   0  0  0  0  0  0  0  0  0  0  0  0
    0.7909   -1.6844    2.4484 H   0  0  0  0  0  0  0  0  0  0  0  0
   -0.7978   -0.2012    2.4247 C   0  0  0  0  0  0  0  0  0  0  0  0
   -1.0018    0.8075    2.8397 H   0  0  0  0  0  0  0  0  0  0  0  0
   -1.6332   -0.8505    2.7528 H   0  0  0  0  0  0  0  0  0  0  0  0
   -1.8482    1.5104    0.3011 C   0  0  0  0  0  0  0  0  0  0  0  0
   -2.8790    1.8813    1.1903 C   0  0  0  0  0  0  0  0  0  0  0  0
   -3.1477    1.2286    2.0349 H   0  0  0  0  0  0  0  0  0  0  0  0
   -3.5831    3.0791    0.9985 C   0  0  0  0  0  0  0  0  0  0  0  0
   -4.3826    3.3610    1.7006 H   0  0  0  0  0  0  0  0  0  0  0  0
   -3.2743    3.9105   -0.0905 C   0  0  0  0  0  0  0  0  0  0  0  0
   -3.8285    4.8495   -0.2412 H   0  0  0  0  0  0  0  0  0  0  0  0
   -2.2669    3.5326   -0.9918 C   0  0  0  0  0  0  0  0  0  0  0  0
   -2.0341    4.1707   -1.8582 H   0  0  0  0  0  0  0  0  0  0  0  0
   -1.5536    2.3385   -0.8000 C   0  0  0  0  0  0  0  0  0  0  0  0
   -0.7866    2.0107   -1.5208 H   0  0  0  0  0  0  0  0  0  0  0  0
   -2.1708   -1.3222    0.0819 C   0  0  0  0  0  0  0  0  0  0  0  0
   -2.2618   -2.5547    0.7590 C   0  0  0  0  0  0  0  0  0  0  0  0
   -1.5787   -2.7864    1.5884 H   0  0  0  0  0  0  0  0  0  0  0  0
   -3.2083   -3.5086    0.3594 C   0  0  0  0  0  0  0  0  0  0  0  0
   -3.2721   -4.4684    0.8941 H   0  0  0  0  0  0  0  0  0  0  0  0
   -4.0575   -3.2478   -0.7273 C   0  0  0  0  0  0  0  0  0  0  0  0
   -4.7971   -3.9998   -1.0421 H   0  0  0  0  0  0  0  0  0  0  0  0
   -3.9548   -2.0296   -1.4165 C   0  0  0  0  0  0  0  0  0  0  0  0
   -4.6097   -1.8234   -2.2765 H   0  0  0  0  0  0  0  0  0  0  0  0
   -3.0146   -1.0690   -1.0175 C   0  0  0  0  0  0  0  0  0  0  0  0
   -2.9268   -0.1228   -1.5692 H   0  0  0  0  0  0  0  0  0  0  0  0
  1 28  1  0  0  0  0
  2 10  1  1  0  0  0
  2  9  1  0  0  0  0
  3  2  1  0  0  0  0
  4  3  1  0  0  0  0
  5  3  1  0  0  0  0
  5  6  2  0  0  0  0
  6  8  1  0  0  0  0
  7  6  1  0  0  0  0
  8  9  1  0  0  0  0
  8 18  1  6  0  0  0
  9 22  1  6  0  0  0
 10 12  1  0  0  0  0
 10 11  1  0  0  0  0
 13 10  1  0  0  0  0
 14  5  1  0  0  0  0
 15 14  1  0  0  0  0
 16 14  1  0  0  0  0
 17 14  1  0  0  0  0
 18 19  1  0  0  0  0
 20 18  1  0  0  0  0
 21 18  1  0  0  0  0
 22 25  1  0  0  0  0
 22 24  1  0  0  0  0
 22 23  1  0  0  0  0
 25 26  1  0  0  0  0
 27 25  1  0  0  0  0
 28 30  1  0  0  0  0
 28 29  1  0  0  0  0
 28 25  1  0  0  0  0
 31  1  1  0  0  0  0
 31 32  1  0  0  0  0
 32 33  1  0  0  0  0
 34 32  2  0  0  0  0
 34 35  1  0  0  0  0
 36 34  1  0  0  0  0
 37 36  1  0  0  0  0
 38 40  1  0  0  0  0
 38 36  2  0  0  0  0
 39 38  1  0  0  0  0
 40 31  2  0  0  0  0
 41 40  1  0  0  0  0
 42  1  1  0  0  0  0
 42 43  1  0  0  0  0
 43 44  1  0  0  0  0
 45 43  2  0  0  0  0
 45 46  1  0  0  0  0
 47 45  1  0  0  0  0
 48 47  1  0  0  0  0
 49 51  1  0  0  0  0
 49 47  2  0  0  0  0
 50 49  1  0  0  0  0
 51 42  2  0  0  0  0
 52 51  1  0  0  0  0
M  END
