3,7
q = 0.0, confidence = 0.998

 49 51  0  0  1  0  0  0  0  0999 V2000
   -0.8931   -0.0837    0.5795 P   0  0  0  0  0  0  0  0  0  0  0  0
    2.0854    0.7911    1.5501 C   0  0  2  0  0  3  0  0  0  0  0  0
    1.8115    1.7590    0.5100 C   0  0  0  0  0  3  0  0  0  0  0  0
    2.3480    1.6065   -0.8059 C   0  0  1  0  0  3  0  0  0  0  0  0
    3.2225    0.4817   -1.0722 C   0  0  0  0  0  0  0  0  0  0  0  0
    3.5298   -0.4808   -0.0857 C   0  0  0  0  0  0  0  0  0  0  0  0
    2.9080   -0.3276    1.2148 C   0  0  0  0  0  3  0  0  0  0  0  0
    2.0149    2.5598   -1.9182 C   0  0  0  0  0  0  0  0  0  0  0  0
    4.3137   -1.7232   -0.3885 C   0  0  0  0  0  0  0  0  0  0  0  0
    1.4922    0.9061    2.9360 C   0  0  0  0  0  0  0  0  0  0  0  0
   -0.0363    1.0631    3.0277 C   0  0  0  0  0  0  0  0  0  0  0  0
   -0.8446   -0.1007    2.4324 C   0  0  0  0  0  0  0  0  0  0  0  0
   -1.7667    1.4977    0.1860 C   0  0  0  0  0  0  0  0  0  0  0  0
   -1.4478    2.1870   -1.0011 C   0  0  0  0  0  0  0  0  0  0  0  0
   -2.1081    3.3834   -1.3220 C   0  0  0  0  0  0  0  0  0  0  0  0
   -3.0861    3.9057   -0.4614 C   0  0  0  0  0  0  0  0  0  0  0  0
   -3.4162    3.2168    0.7169 C   0  0  0  0  0  0  0  0  0  0  0  0
   -2.7658    2.0157    1.0369 C   0  0  0  0  0  0  0  0  0  0  0  0
   -2.1372   -1.3506    0.1244 C   0  0  0  0  0  0  0  0  0  0  0  0
   -2.8951   -1.1774   -1.0512 C   0  0  0  0  0  0  0  0  0  0  0  0
   -3.8334   -2.1473   -1.4306 C   0  0  0  0  0  0  0  0  0  0  0  0
   -4.0230   -3.2937   -0.6436 C   0  0  0  0  0  0  0  0  0  0  0  0
   -3.2636   -3.4727    0.5231 C   0  0  0  0  0  0  0  0  0  0  0  0
   -2.3175   -2.5106    0.9042 C   0  0  0  0  0  0  0  0  0  0  0  0
    1.1222    2.5953    0.7046 H   0  0  0  0  0  0  0  0  0  0  0  0
    3.5661    0.3177   -2.1044 H   0  0  0  0  0  0  0  0  0  0  0  0
    3.0356   -1.1308    1.9555 H   0  0  0  0  0  0  0  0  0  0  0  0
    2.9240    3.0990   -2.2561 H   0  0  0  0  0  0  0  0  0  0  0  0
    1.2644    3.3074   -1.6004 H   0  0  0  0  0  0  0  0  0  0  0  0
    1.6038    1.9915   -2.7785 H   0  0  0  0  0  0  0  0  0  0  0  0
    5.2088   -1.7961    0.2628 H   0  0  0  0  0  0  0  0  0  0  0  0
    4.6385   -1.7482   -1.4454 H   0  0  0  0  0  0  0  0  0  0  0  0
    3.6702   -2.6096   -0.1981 H   0  0  0  0  0  0  0  0  0  0  0  0
    1.9665    1.7746    3.4438 H   0  0  0  0  0  0  0  0  0  0  0  0
    1.7935    0.0080    3.5136 H   0  0  0  0  0  0  0  0  0  0  0  0
   -0.2953    1.1527    4.1032 H   0  0  0  0  0  0  0  0  0  0  0  0
   -0.3596    2.0212    2.5666 H   0  0  0  0  0  0  0  0  0  0  0  0
   -1.8834   -0.1035    2.8197 H   0  0  0  0  0  0  0  0  0  0  0  0
   -0.3895   -1.0753    2.7068 H   0  0  0  0  0  0  0  0  0  0  0  0
   -0.7044    1.7465   -1.6844 H   0  0  0  0  0  0  0  0  0  0  0  0
   -1.8568    3.9082   -2.2566 H   0  0  0  0  0  0  0  0  0  0  0  0
   -3.5990    4.8470   -0.7114 H   0  0  0  0  0  0  0  0  0  0  0  0
   -4.1897    3.6143    1.3917 H   0  0  0  0  0  0  0  0  0  0  0  0
   -3.0491    1.4813    1.9559 H   0  0  0  0  0  0  0  0  0  0  0  0
   -2.7409   -0.2877   -1.6772 H   0  0  0  0  0  0  0  0  0  0  0  0
   -4.4177   -2.0058   -2.3523 H   0  0  0  0  0  0  0  0  0  0  0  0
   -4.7606   -4.0537   -0.9434 H   0  0  0  0  0  0  0  0  0  0  0  0
   -3.3981   -4.3755    1.1379 H   0  0  0  0  0  0  0  0  0  0  0  0
   -1.7061   -2.6801    1.8007 H   0  0  0  0  0  0  0  0  0  0  0  0
  1 12  1  0  0  0  0
  2 10  1  6  0  0  0
  3 25  1  0  0  0  0
  3  2  1  0  0  0  0
  4  8  1  6  0  0  0
  4  3  1  0  0  0  0
  5  4  1  0  0  0  0
  5  6  2  0  0  0  0
  6  7  1  0  0  0  0
  7  2  1  0  0  0  0
  7 27  1  0  0  0  0
  8 29  1  0  0  0  0
  9 33  1  0  0  0  0
  9  6  1  0  0  0  0
  9 31  1  0  0  0  0
 10 11  1  0  0  0  0
 10 34  1  0  0  0  0
 10 35  1  0  0  0  0
 11 36  1  0  0  0  0
 12 39  1  0  0  0  0
 12 38  1  0  0  0  0
 12 11  1  0  0  0  0
 13  1  1  0  0  0  0
 13 18  1  0  0  0  0
 14 13  2  0  0  0  0
 15 14  1  0  0  0  0
 15 16  2  0  0  0  0
 16 17  1  0  0  0  0
 17 18  2  0  0  0  0
 17 43  1  0  0  0  0
 18 44  1  0  0  0  0
 19  1  1  0  0  0  0
 19 24  1  0  0  0  0
 20 19  2  0  0  0  0
 21 20  1  0  0  0  0
 21 22  2  0  0  0  0
 22 23  1  0  0  0  0
 23 24  2  0  0  0  0
 23 48  1  0  0  0  0
 24 49  1  0  0  0  0
 26  5  1  0  0  0  0
 28  8  1  0  0  0  0
 30  8  1  0  0  0  0
 32  9  1  0  0  0  0
 37 11  1  0  0  0  0
 40 14  1  0  0  0  0
 41 15  1  0  0  0  0
 42 16  1  0  0  0  0
 45 20  1  0  0  0  0
 46 21  1  0  0  0  0
 47 22  1  0  0  0  0
M  END
