1,6
q = 0.0, confidence = 0.99

 15 14  0  0  0  0  0  0  0  0999 V2000
   -1.3313   -0.1919   -0.0985 C   0  0  0  0  0  2  0  0  0  0  0  0
   -2.1675    0.7602   -0.4598 O   0  0  0  0  0  0  0  0  0  0  0  0
   -1.4736    2.0116   -0.7432 C   0  0  0  0  0  0  0  0  0  0  0  0
   -1.5332    2.6320    0.1743 H   0  0  0  0  0  0  0  0  0  0  0  0
   -2.0541    2.5004   -1.5483 H   0  0  0  0  0  0  0  0  0  0  0  0
   -0.0525    1.6956   -1.1297 C   0  0  0  0  0  3  0  0  0  0  0  0
    0.1148    1.4602   -2.1939 H   0  0  0  0  0  0  0  0  0  0  0  0
    1.0317    2.1184   -0.3339 C   0  0  0  0  0  3  0  0  0  0  0  0
    0.8592    2.7700    0.5376 H   0  0  0  0  0  0  0  0  0  0  0  0
    2.0368    2.2027   -0.7709 H   0  0  0  0  0  0  0  0  0  0  0  0
   -1.9085   -1.3284    0.1746 O   0  0  0  0  0  0  0  0  0  0  0  0
   -3.3585   -1.4725    0.0695 C   0  0  0  0  0  0  0  0  0  0  0  0
   -3.5628   -2.5218    0.3388 H   0  0  0  0  0  0  0  0  0  0  0  0
   -3.6833   -1.2563   -0.9654 H   0  0  0  0  0  0  0  0  0  0  0  0
   -3.8541   -0.7789    0.7738 H   0  0  0  0  0  0  0  0  0  0  0  0
  1 11  1  0  0  0  0
  2  1  1  0  0  0  0
  3  2  1  0  0  0  0
  3  4  1  0  0  0  0
  5  3  1  0  0  0  0
  6  3  1  0  0  0  0
  6  8  1  0  0  0  0
  7  6  1  0  0  0  0
  8  9  1  0  0  0  0
 10  8  1  0  0  0  0
 12 11  1  0  0  0  0
 12 13  1  0  0  0  0
 12 15  1  0  0  0  0
 14 12  1  0  0  0  0
M  END
