9,12
q = -2.0, confidence = 0.746

 43 45  0  0  1  0  0  0  0  0999 V2000
   -0.2079   -2.1040    1.3837 C   0  0  0  0  0  3  0  0  0  0  0  0
   -0.3959   -1.9379    2.4517 H   0  0  0  0  0  0  0  0  0  0  0  0
   -0.9768   -2.9491    0.5239 C   0  0  0  0  0  0  0  0  0  0  0  0
   -1.8460   -3.5455    0.8234 H   0  0  0  0  0  0  0  0  0  0  0  0
   -0.4398   -2.8452   -0.7815 C   0  0  0  0  0  0  0  0  0  0  0  0
   -0.8167   -3.3473   -1.6797 H   0  0  0  0  0  0  0  0  0  0  0  0
    0.6574   -1.9294   -0.7394 C   0  0  0  0  0  3  0  0  0  0  0  0
    1.2598   -1.6184   -1.6007 H   0  0  0  0  0  0  0  0  0  0  0  0
    0.8259   -1.4847    0.6129 C   0  0  1  0  0  3  0  0  0  0  0  0
    1.5690   -0.2314    1.0579 C   0  0  2  0  0  0  0  0  0  0  0  0
    1.6087   -0.2496    2.1680 H   0  0  0  0  0  0  0  0  0  0  0  0
    0.5785    0.8598    0.6527 C   0  0  2  0  0  3  0  0  0  0  0  0
   -0.5472    1.2418    1.4621 C   0  0  2  0  0  3  0  0  0  0  0  0
   -1.4616    1.9829    0.6326 C   0  0  0  0  0  0  0  0  0  0  0  0
   -0.9184    2.0376   -0.6847 C   0  0  0  0  0  0  0  0  0  0  0  0
    0.3314    1.3196   -0.6907 C   0  0  1  0  0  3  0  0  0  0  0  0
   -0.7370    1.0319    2.9371 C   0  0  0  0  0  0  0  0  0  0  0  0
   -0.7128    2.0070    3.4690 H   0  0  0  0  0  0  0  0  0  0  0  0
    0.0564    0.3988    3.3779 H   0  0  0  0  0  0  0  0  0  0  0  0
   -1.7153    0.5605    3.1595 H   0  0  0  0  0  0  0  0  0  0  0  0
   -2.7092    2.6410    1.1321 C   0  0  0  0  0  0  0  0  0  0  0  0
   -2.4642    3.4638    1.8372 H   0  0  0  0  0  0  0  0  0  0  0  0
   -3.3539    1.9158    1.6696 H   0  0  0  0  0  0  0  0  0  0  0  0
   -3.3058    3.0697    0.3052 H   0  0  0  0  0  0  0  0  0  0  0  0
   -1.4712    2.7772   -1.8623 C   0  0  0  0  0  0  0  0  0  0  0  0
   -0.8021    3.6173   -2.1452 H   0  0  0  0  0  0  0  0  0  0  0  0
   -2.4719    3.1970   -1.6485 H   0  0  0  0  0  0  0  0  0  0  0  0
   -1.5691    2.1114   -2.7441 H   0  0  0  0  0  0  0  0  0  0  0  0
    1.2235    1.2288   -1.8974 C   0  0  0  0  0  0  0  0  0  0  0  0
    1.6961    2.2155   -2.0943 H   0  0  0  0  0  0  0  0  0  0  0  0
    0.6461    0.9510   -2.8014 H   0  0  0  0  0  0  0  0  0  0  0  0
    2.0458    0.5044   -1.7661 H   0  0  0  0  0  0  0  0  0  0  0  0
    2.9946   -0.0556    0.5661 C   0  0  0  0  0  0  0  0  0  0  0  0
    3.7807   -1.1569    0.1792 C   0  0  0  0  0  0  0  0  0  0  0  0
    3.3426   -2.1663    0.1921 H   0  0  0  0  0  0  0  0  0  0  0  0
    5.1133   -0.9768   -0.2254 C   0  0  0  0  0  0  0  0  0  0  0  0
    5.7127   -1.8487   -0.5289 H   0  0  0  0  0  0  0  0  0  0  0  0
    5.6789    0.3068   -0.2452 C   0  0  0  0  0  0  0  0  0  0  0  0
    6.7216    0.4484   -0.5671 H   0  0  0  0  0  0  0  0  0  0  0  0
    4.9039    1.4106    0.1478 C   0  0  0  0  0  0  0  0  0  0  0  0
    5.3386    2.4218    0.1370 H   0  0  0  0  0  0  0  0  0  0  0  0
    3.5736    1.2294    0.5497 C   0  0  0  0  0  0  0  0  0  0  0  0
    2.9630    2.0970    0.8457 H   0  0  0  0  0  0  0  0  0  0  0  0
  1  2  1  0  0  0  0
  3  4  1  0  0  0  0
  3  1  1  0  0  0  0
  5  7  1  0  0  0  0
  5  3  2  0  0  0  0
  6  5  1  0  0  0  0
  7  9  1  0  0  0  0
  8  7  1  0  0  0  0
  9 10  1  6  0  0  0
  9  1  1  0  0  0  0
 10 11  1  1  0  0  0
 12 10  1  6  0  0  0
 12 13  1  0  0  0  0
 13 17  1  1  0  0  0
 14 21  1  0  0  0  0
 14 13  1  0  0  0  0
 15 14  2  0  0  0  0
 16 29  1  1  0  0  0
 16 15  1  0  0  0  0
 16 12  1  0  0  0  0
 17 20  1  0  0  0  0
 17 19  1  0  0  0  0
 17 18  1  0  0  0  0
 21 23  1  0  0  0  0
 21 22  1  0  0  0  0
 24 21  1  0  0  0  0
 25 27  1  0  0  0  0
 25 15  1  0  0  0  0
 26 25  1  0  0  0  0
 28 25  1  0  0  0  0
 29 32  1  0  0  0  0
 30 29  1  0  0  0  0
 31 29  1  0  0  0  0
 33 10  1  0  0  0  0
 34 35  1  0  0  0  0
 34 33  2  0  0  0  0
 36 34  1  0  0  0  0
 37 36  1  0  0  0  0
 38 36  2  0  0  0  0
 38 40  1  0  0  0  0
 39 38  1  0  0  0  0
 40 42  2  0  0  0  0
 41 40  1  0  0  0  0
 42 33  1  0  0  0  0
 42 43  1  0  0  0  0
M  END
