7,9
q = 0.0, confidence = 0.806

 39 39  0  0  0  0  0  0  0  0999 V2000
    2.3919    1.4297    0.0010 Si  0  0  0  0  0  0  0  0  0  0  0  0
    4.3840   -1.2849   -1.2426 C   0  0  0  0  0  0  0  0  0  0  0  0
    3.9212   -1.8135    1.1731 C   0  0  0  0  0  0  0  0  0  0  0  0
    2.5405   -2.8928   -0.6404 C   0  0  0  0  0  0  0  0  0  0  0  0
    3.2768   -1.6093   -0.2179 C   0  0  0  0  0  0  0  0  0  0  0  0
    2.3271   -0.4373   -0.1291 C   0  0  0  0  0  0  0  0  0  0  0  0
    0.9581   -0.4200   -0.0780 C   0  0  0  0  0  3  0  0  0  0  0  0
    0.5123    1.0770    0.0414 C   0  0  0  0  0  0  0  0  0  0  0  0
   -0.7693    1.5016    0.1138 C   0  0  0  0  0  3  0  0  0  0  0  0
   -1.2708    2.9328    0.1686 C   0  0  0  0  0  0  0  0  0  0  0  0
   -0.7076    3.6461    1.4176 C   0  0  0  0  0  0  0  0  0  0  0  0
   -0.7886    3.6871   -1.0919 C   0  0  0  0  0  0  0  0  0  0  0  0
   -2.8098    2.9745    0.2263 C   0  0  0  0  0  0  0  0  0  0  0  0
    3.1475    2.1830    1.5681 C   0  0  0  0  0  0  0  0  0  0  0  0
    3.0436    2.4215   -1.4758 C   0  0  0  0  0  0  0  0  0  0  0  0
    5.1135   -2.1182   -1.3188 H   0  0  0  0  0  0  0  0  0  0  0  0
    4.9409   -0.3703   -0.9501 H   0  0  0  0  0  0  0  0  0  0  0  0
    3.9541   -1.1099   -2.2502 H   0  0  0  0  0  0  0  0  0  0  0  0
    4.4364   -0.8914    1.5120 H   0  0  0  0  0  0  0  0  0  0  0  0
    4.6676   -2.6356    1.1478 H   0  0  0  0  0  0  0  0  0  0  0  0
    3.1528   -2.0672    1.9314 H   0  0  0  0  0  0  0  0  0  0  0  0
    2.1165   -2.7841   -1.6588 H   0  0  0  0  0  0  0  0  0  0  0  0
    1.6999   -3.1133    0.0466 H   0  0  0  0  0  0  0  0  0  0  0  0
    3.2302   -3.7621   -0.6451 H   0  0  0  0  0  0  0  0  0  0  0  0
   -1.0482    3.1523    2.3482 H   0  0  0  0  0  0  0  0  0  0  0  0
    0.4006    3.6387    1.4158 H   0  0  0  0  0  0  0  0  0  0  0  0
   -1.0464    4.7030    1.4473 H   0  0  0  0  0  0  0  0  0  0  0  0
   -1.1496    4.7372   -1.0830 H   0  0  0  0  0  0  0  0  0  0  0  0
    0.3179    3.7005   -1.1453 H   0  0  0  0  0  0  0  0  0  0  0  0
   -1.1627    3.2068   -2.0182 H   0  0  0  0  0  0  0  0  0  0  0  0
   -3.1769    4.0206    0.2774 H   0  0  0  0  0  0  0  0  0  0  0  0
   -3.2580    2.4986   -0.6676 H   0  0  0  0  0  0  0  0  0  0  0  0
   -3.1861    2.4340    1.1173 H   0  0  0  0  0  0  0  0  0  0  0  0
    4.2555    2.1483    1.4996 H   0  0  0  0  0  0  0  0  0  0  0  0
    2.8514    3.2460    1.6878 H   0  0  0  0  0  0  0  0  0  0  0  0
    2.8407    1.6291    2.4761 H   0  0  0  0  0  0  0  0  0  0  0  0
    2.6450    2.0391   -2.4345 H   0  0  0  0  0  0  0  0  0  0  0  0
    2.7736    3.4942   -1.3844 H   0  0  0  0  0  0  0  0  0  0  0  0
    4.1516    2.3552   -1.5102 H   0  0  0  0  0  0  0  0  0  0  0  0
  1  8  1  0  0  0  0
  1 14  1  0  0  0  0
  2 17  1  0  0  0  0
  2  5  1  0  0  0  0
  3 19  1  0  0  0  0
  3 21  1  0  0  0  0
  4  5  1  0  0  0  0
  4 23  1  0  0  0  0
  5  6  1  0  0  0  0
  5  3  1  0  0  0  0
  6  7  2  0  0  0  0
  6  1  1  0  0  0  0
  7  8  1  0  0  0  0
  8  9  2  0  0  0  0
  9 10  1  0  0  0  0
 10 13  1  0  0  0  0
 10 11  1  0  0  0  0
 11 27  1  0  0  0  0
 11 25  1  0  0  0  0
 12 28  1  0  0  0  0
 12 10  1  0  0  0  0
 13 31  1  0  0  0  0
 13 33  1  0  0  0  0
 14 35  1  0  0  0  0
 14 36  1  0  0  0  0
 15 38  1  0  0  0  0
 15  1  1  0  0  0  0
 16  2  1  0  0  0  0
 18  2  1  0  0  0  0
 20  3  1  0  0  0  0
 22  4  1  0  0  0  0
 24  4  1  0  0  0  0
 26 11  1  0  0  0  0
 29 12  1  0  0  0  0
 30 12  1  0  0  0  0
 32 13  1  0  0  0  0
 34 14  1  0  0  0  0
 37 15  1  0  0  0  0
 39 15  1  0  0  0  0
M  END
