2,4
q = 0.0, confidence = 0.502

 57 60  0  0  0  0  0  0  0  0999 V2000
   -2.2418    0.2705   -0.8546 Si  0  0  0  0  0  0  0  0  0  0  0  0
    0.0270   -1.2917   -1.0344 C   0  0  0  0  0  3  0  0  0  0  0  0
   -1.2539   -1.1897   -1.4929 C   0  0  0  0  0  0  0  0  0  0  0  0
    0.2189    1.5376   -0.6488 C   0  0  0  0  0  2  0  0  0  0  0  0
   -1.0753    1.7292   -1.0393 C   0  0  0  0  0  3  0  0  0  0  0  0
   -3.8252    0.5245   -1.8694 C   0  0  0  0  0  0  0  0  0  0  0  0
   -4.4244    1.8014   -1.9607 C   0  0  0  0  0  0  0  0  0  0  0  0
   -5.6157    1.9980   -2.6759 C   0  0  0  0  0  0  0  0  0  0  0  0
   -6.2373    0.9135   -3.3161 C   0  0  0  0  0  0  0  0  0  0  0  0
   -5.6609   -0.3640   -3.2364 C   0  0  0  0  0  0  0  0  0  0  0  0
   -4.4675   -0.5523   -2.5208 C   0  0  0  0  0  0  0  0  0  0  0  0
   -2.7975    0.0128    0.9518 C   0  0  0  0  0  0  0  0  0  0  0  0
   -2.5866    1.0078    1.9311 C   0  0  0  0  0  0  0  0  0  0  0  0
   -3.0354    0.8402    3.2510 C   0  0  0  0  0  0  0  0  0  0  0  0
   -3.7143   -0.3344    3.6176 C   0  0  0  0  0  0  0  0  0  0  0  0
   -3.9370   -1.3359    2.6568 C   0  0  0  0  0  0  0  0  0  0  0  0
   -3.4808   -1.1610    1.3397 C   0  0  0  0  0  0  0  0  0  0  0  0
    1.0319   -2.2193   -1.6110 C   0  0  0  0  0  0  0  0  0  0  0  0
    0.6784   -3.2912   -2.4695 C   0  0  0  0  0  0  0  0  0  0  0  0
    1.6404   -4.1678   -2.9784 C   0  0  0  0  0  0  0  0  0  0  0  0
    3.0106   -4.0234   -2.6642 C   0  0  0  0  0  0  0  0  0  0  0  0
    3.3706   -2.9611   -1.8129 C   0  0  0  0  0  0  0  0  0  0  0  0
    2.4051   -2.0850   -1.2980 C   0  0  0  0  0  0  0  0  0  0  0  0
    4.0397   -4.9654   -3.2352 C   0  0  0  0  0  0  0  0  0  0  0  0
    1.3071    2.4513   -1.0656 C   0  0  0  0  0  0  0  0  0  0  0  0
    1.1045    3.8446   -1.2260 C   0  0  0  0  0  0  0  0  0  0  0  0
    2.1461    4.6922   -1.6216 C   0  0  0  0  0  0  0  0  0  0  0  0
    3.4369    4.1914   -1.8941 C   0  0  0  0  0  0  0  0  0  0  0  0
    3.6403    2.8039   -1.7467 C   0  0  0  0  0  0  0  0  0  0  0  0
    2.6044    1.9556   -1.3343 C   0  0  0  0  0  0  0  0  0  0  0  0
    4.5461    5.1025   -2.3559 C   0  0  0  0  0  0  0  0  0  0  0  0
   -1.5990   -1.7906   -2.3580 H   0  0  0  0  0  0  0  0  0  0  0  0
   -1.3352    2.5837   -1.6970 H   0  0  0  0  0  0  0  0  0  0  0  0
   -3.9501    2.6620   -1.4604 H   0  0  0  0  0  0  0  0  0  0  0  0
   -6.0629    3.0027   -2.7356 H   0  0  0  0  0  0  0  0  0  0  0  0
   -7.1715    1.0648   -3.8789 H   0  0  0  0  0  0  0  0  0  0  0  0
   -6.1429   -1.2181   -3.7377 H   0  0  0  0  0  0  0  0  0  0  0  0
   -4.0268   -1.5615   -2.4710 H   0  0  0  0  0  0  0  0  0  0  0  0
   -2.0601    1.9299    1.6376 H   0  0  0  0  0  0  0  0  0  0  0  0
   -2.8643    1.6327    3.9975 H   0  0  0  0  0  0  0  0  0  0  0  0
   -4.0715   -0.4694    4.6502 H   0  0  0  0  0  0  0  0  0  0  0  0
   -4.4705   -2.2578    2.9374 H   0  0  0  0  0  0  0  0  0  0  0  0
   -3.6661   -1.9531    0.5948 H   0  0  0  0  0  0  0  0  0  0  0  0
   -0.3806   -3.4477   -2.7248 H   0  0  0  0  0  0  0  0  0  0  0  0
    1.3237   -4.9950   -3.6349 H   0  0  0  0  0  0  0  0  0  0  0  0
    4.4309   -2.8176   -1.5482 H   0  0  0  0  0  0  0  0  0  0  0  0
    2.6956   -1.2628   -0.6222 H   0  0  0  0  0  0  0  0  0  0  0  0
    4.1760   -4.7992   -4.3256 H   0  0  0  0  0  0  0  0  0  0  0  0
    3.7367   -6.0256   -3.1108 H   0  0  0  0  0  0  0  0  0  0  0  0
    5.0281   -4.8329   -2.7533 H   0  0  0  0  0  0  0  0  0  0  0  0
    0.1085    4.2655   -1.0166 H   0  0  0  0  0  0  0  0  0  0  0  0
    1.9565    5.7737   -1.7189 H   0  0  0  0  0  0  0  0  0  0  0  0
    4.6354    2.3796   -1.9584 H   0  0  0  0  0  0  0  0  0  0  0  0
    2.7793    0.8749   -1.2246 H   0  0  0  0  0  0  0  0  0  0  0  0
    4.5156    5.2429   -3.4585 H   0  0  0  0  0  0  0  0  0  0  0  0
    5.5447    4.6907   -2.1087 H   0  0  0  0  0  0  0  0  0  0  0  0
    4.4654    6.1100   -1.9009 H   0  0  0  0  0  0  0  0  0  0  0  0
  1 12  1  0  0  0  0
  3  2  2  0  0  0  0
  3  1  1  0  0  0  0
  5  1  1  0  0  0  0
  5  4  1  0  0  0  0
  6  1  1  0  0  0  0
  7  6  1  0  0  0  0
  7 34  1  0  0  0  0
  8  7  2  0  0  0  0
  9 10  2  0  0  0  0
  9  8  1  0  0  0  0
 10 11  1  0  0  0  0
 11 38  1  0  0  0  0
 11  6  2  0  0  0  0
 12 17  2  0  0  0  0
 12 13  1  0  0  0  0
 13 14  2  0  0  0  0
 14 15  1  0  0  0  0
 14 40  1  0  0  0  0
 15 41  1  0  0  0  0
 16 42  1  0  0  0  0
 16 15  2  0  0  0  0
 17 16  1  0  0  0  0
 18 23  1  0  0  0  0
 18  2  1  0  0  0  0
 19 18  2  0  0  0  0
 20 21  2  0  0  0  0
 20 19  1  0  0  0  0
 21 22  1  0  0  0  0
 22 46  1  0  0  0  0
 22 23  2  0  0  0  0
 23 47  1  0  0  0  0
 24 49  1  0  0  0  0
 24 50  1  0  0  0  0
 24 21  1  0  0  0  0
 25  4  1  0  0  0  0
 26 25  1  0  0  0  0
 26 51  1  0  0  0  0
 27 26  2  0  0  0  0
 28 29  2  0  0  0  0
 28 27  1  0  0  0  0
 29 30  1  0  0  0  0
 30 54  1  0  0  0  0
 30 25  2  0  0  0  0
 31 56  1  0  0  0  0
 31 57  1  0  0  0  0
 31 28  1  0  0  0  0
 32  3  1  0  0  0  0
 33  5  1  0  0  0  0
 35  8  1  0  0  0  0
 36  9  1  0  0  0  0
 37 10  1  0  0  0  0
 39 13  1  0  0  0  0
 43 17  1  0  0  0  0
 44 19  1  0  0  0  0
 45 20  1  0  0  0  0
 48 24  1  0  0  0  0
 52 27  1  0  0  0  0
 53 29  1  0  0  0  0
 55 31  1  0  0  0  0
M  END
