2,4
q = 0.0, confidence = 0.53

 51 54  0  0  0  0  0  0  0  0999 V2000
   -2.2504   -0.4014   -0.1588 Si  0  0  0  0  0  0  0  0  0  0  0  0
    0.1446   -1.6958    0.4500 C   0  0  0  0  0  2  0  0  0  0  0  0
   -1.2131   -1.8199    0.5096 C   0  0  0  0  0  3  0  0  0  0  0  0
   -0.0254    0.1520   -1.7239 C   0  0  0  0  0  3  0  0  0  0  0  0
   -1.3838    0.0419   -1.7660 C   0  0  0  0  0  0  0  0  0  0  0  0
   -2.3582    1.0764    1.0347 C   0  0  0  0  0  0  0  0  0  0  0  0
   -1.9576    0.9587    2.3837 C   0  0  0  0  0  0  0  0  0  0  0  0
   -2.0630    2.0397    3.2737 C   0  0  0  0  0  0  0  0  0  0  0  0
   -2.5822    3.2673    2.8283 C   0  0  0  0  0  0  0  0  0  0  0  0
   -2.9890    3.4052    1.4902 C   0  0  0  0  0  0  0  0  0  0  0  0
   -2.8735    2.3202    0.6048 C   0  0  0  0  0  0  0  0  0  0  0  0
   -4.0178   -0.9889   -0.5235 C   0  0  0  0  0  0  0  0  0  0  0  0
   -5.1567   -0.4698    0.1300 C   0  0  0  0  0  0  0  0  0  0  0  0
   -6.4445   -0.9451   -0.1682 C   0  0  0  0  0  0  0  0  0  0  0  0
   -6.6166   -1.9536   -1.1292 C   0  0  0  0  0  0  0  0  0  0  0  0
   -5.4963   -2.4849   -1.7898 C   0  0  0  0  0  0  0  0  0  0  0  0
   -4.2125   -2.0054   -1.4880 C   0  0  0  0  0  0  0  0  0  0  0  0
    1.0471   -2.8596    0.6106 C   0  0  0  0  0  0  0  0  0  0  0  0
    0.7470   -3.9281    1.4927 C   0  0  0  0  0  0  0  0  0  0  0  0
    1.6119   -5.0226    1.6288 C   0  0  0  0  0  0  0  0  0  0  0  0
    2.7965   -5.0887    0.8760 C   0  0  0  0  0  0  0  0  0  0  0  0
    3.1041   -4.0472   -0.0152 C   0  0  0  0  0  0  0  0  0  0  0  0
    2.2458   -2.9452   -0.1379 C   0  0  0  0  0  0  0  0  0  0  0  0
    0.8292    0.2579   -2.9336 C   0  0  0  0  0  0  0  0  0  0  0  0
    0.2999    0.5446   -4.2171 C   0  0  0  0  0  0  0  0  0  0  0  0
    1.1303    0.6622   -5.3380 C   0  0  0  0  0  0  0  0  0  0  0  0
    2.5214    0.4947   -5.2163 C   0  0  0  0  0  0  0  0  0  0  0  0
    3.0686    0.2065   -3.9562 C   0  0  0  0  0  0  0  0  0  0  0  0
    2.2331    0.0939   -2.8359 C   0  0  0  0  0  0  0  0  0  0  0  0
   -1.6783   -2.8114    0.6848 H   0  0  0  0  0  0  0  0  0  0  0  0
   -1.9340    0.0163   -2.7281 H   0  0  0  0  0  0  0  0  0  0  0  0
   -1.5576   -0.0071    2.7314 H   0  0  0  0  0  0  0  0  0  0  0  0
   -1.7476    1.9238    4.3231 H   0  0  0  0  0  0  0  0  0  0  0  0
   -2.6705    4.1167    3.5233 H   0  0  0  0  0  0  0  0  0  0  0  0
   -3.3969    4.3648    1.1356 H   0  0  0  0  0  0  0  0  0  0  0  0
   -3.1945    2.4415   -0.4433 H   0  0  0  0  0  0  0  0  0  0  0  0
   -5.0346    0.3228    0.8860 H   0  0  0  0  0  0  0  0  0  0  0  0
   -7.3196   -0.5259    0.3529 H   0  0  0  0  0  0  0  0  0  0  0  0
   -7.6254   -2.3271   -1.3647 H   0  0  0  0  0  0  0  0  0  0  0  0
   -5.6254   -3.2767   -2.5444 H   0  0  0  0  0  0  0  0  0  0  0  0
   -3.3407   -2.4305   -2.0134 H   0  0  0  0  0  0  0  0  0  0  0  0
   -0.1790   -3.8827    2.0871 H   0  0  0  0  0  0  0  0  0  0  0  0
    1.3605   -5.8325    2.3314 H   0  0  0  0  0  0  0  0  0  0  0  0
    3.4754   -5.9484    0.9830 H   0  0  0  0  0  0  0  0  0  0  0  0
    4.0223   -4.0936   -0.6212 H   0  0  0  0  0  0  0  0  0  0  0  0
    2.4790   -2.1276   -0.8365 H   0  0  0  0  0  0  0  0  0  0  0  0
   -0.7846    0.6941   -4.3290 H   0  0  0  0  0  0  0  0  0  0  0  0
    0.6891    0.8929   -6.3204 H   0  0  0  0  0  0  0  0  0  0  0  0
    3.1721    0.5894   -6.0990 H   0  0  0  0  0  0  0  0  0  0  0  0
    4.1553    0.0665   -3.8448 H   0  0  0  0  0  0  0  0  0  0  0  0
    2.6499   -0.1222   -1.8374 H   0  0  0  0  0  0  0  0  0  0  0  0
  1  3  1  0  0  0  0
  1  6  1  0  0  0  0
  2  3  1  0  0  0  0
  2 18  1  0  0  0  0
  3 30  1  0  0  0  0
  5  4  2  0  0  0  0
  5  1  1  0  0  0  0
  6  7  1  0  0  0  0
  7 32  1  0  0  0  0
  7  8  2  0  0  0  0
  8 33  1  0  0  0  0
  9  8  1  0  0  0  0
  9 34  1  0  0  0  0
 10  9  2  0  0  0  0
 11  6  2  0  0  0  0
 11 10  1  0  0  0  0
 12  1  1  0  0  0  0
 12 13  1  0  0  0  0
 13 37  1  0  0  0  0
 14 13  2  0  0  0  0
 14 38  1  0  0  0  0
 15 14  1  0  0  0  0
 16 17  1  0  0  0  0
 16 15  2  0  0  0  0
 17 12  2  0  0  0  0
 18 19  1  0  0  0  0
 19 20  2  0  0  0  0
 19 42  1  0  0  0  0
 20 43  1  0  0  0  0
 21 44  1  0  0  0  0
 21 20  1  0  0  0  0
 22 21  2  0  0  0  0
 23 22  1  0  0  0  0
 23 18  2  0  0  0  0
 24 29  1  0  0  0  0
 24  4  1  0  0  0  0
 25 24  2  0  0  0  0
 26 27  2  0  0  0  0
 26 25  1  0  0  0  0
 27 28  1  0  0  0  0
 28 50  1  0  0  0  0
 28 29  2  0  0  0  0
 29 51  1  0  0  0  0
 31  5  1  0  0  0  0
 35 10  1  0  0  0  0
 36 11  1  0  0  0  0
 39 15  1  0  0  0  0
 40 16  1  0  0  0  0
 41 17  1  0  0  0  0
 45 22  1  0  0  0  0
 46 23  1  0  0  0  0
 47 25  1  0  0  0  0
 48 26  1  0  0  0  0
 49 27  1  0  0  0  0
M  END
