2,11
q = -2.0, confidence = 0.802

 53 54  0  0  1  0  0  0  0  0999 V2000
   -2.3835   -0.7975   -0.0002 Si  0  0  0  0  0  0  0  0  0  0  0  0
   -0.7646   -1.7706   -0.0003 C   0  0  2  0  0  3  0  0  0  0  0  0
    0.0788   -1.9485    1.1608 C   0  0  2  0  0  3  0  0  0  0  0  0
    1.4044   -2.2732    0.7134 C   0  0  0  0  0  0  0  0  0  0  0  0
    1.4044   -2.2728   -0.7142 C   0  0  0  0  0  0  0  0  0  0  0  0
    0.0789   -1.9479   -1.1615 C   0  0  1  0  0  3  0  0  0  0  0  0
   -0.3241   -1.9684    2.6089 C   0  0  0  0  0  0  0  0  0  0  0  0
    2.5342   -2.6696    1.6109 C   0  0  0  0  0  0  0  0  0  0  0  0
    2.5345   -2.6688   -1.6117 C   0  0  0  0  0  0  0  0  0  0  0  0
   -0.3242   -1.9672   -2.6095 C   0  0  0  0  0  0  0  0  0  0  0  0
   -1.5969    0.9277    0.0001 C   0  0  1  0  0  3  0  0  0  0  0  0
   -0.9911    1.5504    1.1621 C   0  0  1  0  0  3  0  0  0  0  0  0
   -0.0852    2.5704    0.7128 C   0  0  0  0  0  0  0  0  0  0  0  0
   -0.0851    2.5705   -0.7122 C   0  0  0  0  0  0  0  0  0  0  0  0
   -0.9910    1.5506   -1.1618 C   0  0  2  0  0  3  0  0  0  0  0  0
   -1.2924    1.3510    2.6214 C   0  0  0  0  0  0  0  0  0  0  0  0
    0.6249    3.5328    1.6120 C   0  0  0  0  0  0  0  0  0  0  0  0
    0.6250    3.5331   -1.6113 C   0  0  0  0  0  0  0  0  0  0  0  0
   -1.2922    1.3517   -2.6212 C   0  0  0  0  0  0  0  0  0  0  0  0
   -3.4927   -1.1883    1.4743 C   0  0  0  0  0  0  0  0  0  0  0  0
   -4.2812   -0.2936    2.1030 C   0  0  0  0  0  0  0  0  0  0  0  0
   -3.4927   -1.1878   -1.4747 C   0  0  0  0  0  0  0  0  0  0  0  0
   -4.2813   -0.2928   -2.1031 C   0  0  0  0  0  0  0  0  0  0  0  0
   -1.3727   -1.6522    2.7536 H   0  0  0  0  0  0  0  0  0  0  0  0
   -0.2307   -2.9996    3.0125 H   0  0  0  0  0  0  0  0  0  0  0  0
    0.3248   -1.3174    3.2285 H   0  0  0  0  0  0  0  0  0  0  0  0
    2.3728   -3.6960    2.0060 H   0  0  0  0  0  0  0  0  0  0  0  0
    3.5041   -2.6618    1.0787 H   0  0  0  0  0  0  0  0  0  0  0  0
    2.6230   -1.9832    2.4756 H   0  0  0  0  0  0  0  0  0  0  0  0
    2.3760   -3.6971   -2.0028 H   0  0  0  0  0  0  0  0  0  0  0  0
    3.5050   -2.6558   -1.0806 H   0  0  0  0  0  0  0  0  0  0  0  0
    2.6201   -1.9852   -2.4788 H   0  0  0  0  0  0  0  0  0  0  0  0
   -0.2309   -2.9982   -3.0136 H   0  0  0  0  0  0  0  0  0  0  0  0
    0.3246   -1.3160   -3.2290 H   0  0  0  0  0  0  0  0  0  0  0  0
   -1.3728   -1.6509   -2.7540 H   0  0  0  0  0  0  0  0  0  0  0  0
   -0.3605    1.3253    3.2202 H   0  0  0  0  0  0  0  0  0  0  0  0
   -1.8596    0.4288    2.8210 H   0  0  0  0  0  0  0  0  0  0  0  0
   -1.9008    2.2007    3.0016 H   0  0  0  0  0  0  0  0  0  0  0  0
    1.1493    3.0061    2.4337 H   0  0  0  0  0  0  0  0  0  0  0  0
   -0.0983    4.2409    2.0707 H   0  0  0  0  0  0  0  0  0  0  0  0
    1.3795    4.1267    1.0628 H   0  0  0  0  0  0  0  0  0  0  0  0
    1.3790    4.1274   -1.0618 H   0  0  0  0  0  0  0  0  0  0  0  0
    1.1502    3.0064   -2.4326 H   0  0  0  0  0  0  0  0  0  0  0  0
   -0.0982    4.2407   -2.0706 H   0  0  0  0  0  0  0  0  0  0  0  0
   -1.8997    2.2019   -3.0014 H   0  0  0  0  0  0  0  0  0  0  0  0
   -0.3602    1.3252   -3.2199 H   0  0  0  0  0  0  0  0  0  0  0  0
   -1.8603    0.4300   -2.8210 H   0  0  0  0  0  0  0  0  0  0  0  0
   -3.5882   -2.2552    1.7539 H   0  0  0  0  0  0  0  0  0  0  0  0
   -4.9947   -0.5889    2.8918 H   0  0  0  0  0  0  0  0  0  0  0  0
   -4.2452    0.7828    1.8595 H   0  0  0  0  0  0  0  0  0  0  0  0
   -3.5883   -2.2546   -1.7548 H   0  0  0  0  0  0  0  0  0  0  0  0
   -4.9947   -0.5879   -2.8920 H   0  0  0  0  0  0  0  0  0  0  0  0
   -4.2452    0.7834   -1.8591 H   0  0  0  0  0  0  0  0  0  0  0  0
  1 20  1  0  0  0  0
  2  1  1  1  0  0  0
  2  3  1  0  0  0  0
  3  7  1  1  0  0  0
  4  3  1  0  0  0  0
  4  8  1  0  0  0  0
  5  4  2  0  0  0  0
  6 10  1  6  0  0  0
  6  5  1  0  0  0  0
  6  2  1  0  0  0  0
  7 24  1  0  0  0  0
  7 25  1  0  0  0  0
  7 26  1  0  0  0  0
  8 27  1  0  0  0  0
  8 29  1  0  0  0  0
  9 31  1  0  0  0  0
  9  5  1  0  0  0  0
 11  1  1  6  0  0  0
 11 12  1  0  0  0  0
 12 16  1  1  0  0  0
 13 12  1  0  0  0  0
 13 17  1  0  0  0  0
 14 13  2  0  0  0  0
 15 19  1  6  0  0  0
 15 14  1  0  0  0  0
 15 11  1  0  0  0  0
 16 37  1  0  0  0  0
 16 38  1  0  0  0  0
 16 36  1  0  0  0  0
 17 40  1  0  0  0  0
 17 39  1  0  0  0  0
 18 42  1  0  0  0  0
 18 14  1  0  0  0  0
 20 48  1  0  0  0  0
 20 21  2  0  0  0  0
 21 49  1  0  0  0  0
 22  1  1  0  0  0  0
 23 53  1  0  0  0  0
 23 22  2  0  0  0  0
 28  8  1  0  0  0  0
 30  9  1  0  0  0  0
 32  9  1  0  0  0  0
 33 10  1  0  0  0  0
 34 10  1  0  0  0  0
 35 10  1  0  0  0  0
 41 17  1  0  0  0  0
 43 18  1  0  0  0  0
 44 18  1  0  0  0  0
 45 19  1  0  0  0  0
 46 19  1  0  0  0  0
 47 19  1  0  0  0  0
 50 21  1  0  0  0  0
 51 22  1  0  0  0  0
 52 23  1  0  0  0  0
M  END
