24,31
q = 0.0, confidence = 1.0

 33 34  0  0  1  0  0  0  0  0999 V2000
    2.4864   -0.3209    1.9003 O   0  0  0  0  0  0  0  0  0  0  0  0
   -0.2782   -0.5696   -1.1980 C   0  0  1  0  0  3  0  0  0  0  0  0
    3.8233    1.1766   -0.4217 C   0  0  0  0  0  0  0  0  0  0  0  0
    4.4534    1.7708   -1.1186 H   0  0  0  0  0  0  0  0  0  0  0  0
    3.9621    1.6423    0.5739 H   0  0  0  0  0  0  0  0  0  0  0  0
    5.6227   -0.2275    0.2340 O   0  0  0  0  0  0  0  0  0  0  0  0
    4.4244   -0.2143   -0.3860 C   0  0  0  0  0  0  0  0  0  0  0  0
    1.2799    0.8900    0.2029 C   0  0  2  0  0  0  0  0  0  0  0  0
    3.9253   -1.2130   -0.8790 O   0  0  0  0  0  0  0  0  0  0  0  0
   -0.0242    0.6875   -0.5662 C   0  0  0  0  0  0  0  0  0  0  0  0
    0.6521   -1.7273   -0.9439 C   0  0  0  0  0  0  0  0  0  0  0  0
    0.1336   -2.6784   -1.1745 H   0  0  0  0  0  0  0  0  0  0  0  0
    1.5319   -1.6632   -1.6205 H   0  0  0  0  0  0  0  0  0  0  0  0
   -0.9506    1.7662   -0.7618 C   0  0  0  0  0  0  0  0  0  0  0  0
   -0.7951    2.7183   -0.2406 H   0  0  0  0  0  0  0  0  0  0  0  0
    1.2328    2.0522    1.2067 C   0  0  0  0  0  0  0  0  0  0  0  0
    0.3877    1.9437    1.9113 H   0  0  0  0  0  0  0  0  0  0  0  0
    1.1518    3.0301    0.6932 H   0  0  0  0  0  0  0  0  0  0  0  0
    2.1581    2.0495    1.8112 H   0  0  0  0  0  0  0  0  0  0  0  0
    2.3696    1.1925   -0.8929 C   0  0  0  0  0  0  0  0  0  0  0  0
    2.2688    0.4738   -1.7297 H   0  0  0  0  0  0  0  0  0  0  0  0
    2.1230    2.1931   -1.3031 H   0  0  0  0  0  0  0  0  0  0  0  0
    1.7065   -0.3994    0.9639 C   0  0  0  0  0  0  0  0  0  0  0  0
   -1.4465   -0.7194   -2.0152 C   0  0  0  0  0  3  0  0  0  0  0  0
   -1.6613   -1.7033   -2.4570 H   0  0  0  0  0  0  0  0  0  0  0  0
    1.1473   -1.7290    0.5012 C   0  0  0  0  0  0  0  0  0  0  0  0
    0.2967   -1.9533    1.1832 H   0  0  0  0  0  0  0  0  0  0  0  0
    1.9238   -2.4961    0.6800 H   0  0  0  0  0  0  0  0  0  0  0  0
   -2.3466    0.3514   -2.2191 C   0  0  0  0  0  3  0  0  0  0  0  0
   -3.2569    0.2048   -2.8155 H   0  0  0  0  0  0  0  0  0  0  0  0
   -2.1014    1.5985   -1.5672 C   0  0  0  0  0  3  0  0  0  0  0  0
   -2.8238    2.4209   -1.6634 H   0  0  0  0  0  0  0  0  0  0  0  0
    5.9294   -1.1602    0.2033 H   0  0  0  0  0  0  0  0  0  0  0  0
  2 24  1  1  0  0  0
  2 11  1  0  0  0  0
  2 10  1  0  0  0  0
  3  7  1  0  0  0  0
  3  5  1  0  0  0  0
  4  3  1  0  0  0  0
  7  6  1  0  0  0  0
  8 20  1  6  0  0  0
  8 23  1  0  0  0  0
  8 16  1  0  0  0  0
  9  7  2  0  0  0  0
 10  8  1  0  0  0  0
 11 26  1  0  0  0  0
 12 11  1  0  0  0  0
 13 11  1  0  0  0  0
 14 10  2  0  0  0  0
 14 15  1  0  0  0  0
 16 19  1  0  0  0  0
 16 17  1  0  0  0  0
 18 16  1  0  0  0  0
 20  3  1  0  0  0  0
 21 20  1  0  0  0  0
 22 20  1  0  0  0  0
 23  1  2  0  0  0  0
 25 24  1  0  0  0  0
 26 28  1  0  0  0  0
 26 23  1  0  0  0  0
 26 27  1  0  0  0  0
 29 24  1  0  0  0  0
 29 31  1  0  0  0  0
 30 29  1  0  0  0  0
 31 14  1  0  0  0  0
 32 31  1  0  0  0  0
 33  6  1  0  0  0  0
M  END
