3,5
q = 0.0, confidence = 0.532

 34 33  0  0  0  0  0  0  0  0999 V2000
   -1.1901    3.3820   -0.0196 Si  0  0  0  0  0  0  0  0  0  0  0  0
   -4.6883   -1.4428   -0.0670 Si  0  0  0  0  0  0  0  0  0  0  0  0
    1.3541    1.8411   -0.0345 C   0  0  0  0  0  3  0  0  0  0  0  0
   -0.1326    1.7844   -0.1075 C   0  0  0  0  0  0  0  0  0  0  0  0
   -0.6903    0.5154   -0.1503 C   0  0  0  0  0  3  0  0  0  0  0  0
   -1.9774    0.0163   -0.1464 C   0  0  0  0  0  0  0  0  0  0  0  0
   -3.0734   -0.5794   -0.1245 C   0  0  0  0  0  0  0  0  0  0  0  0
    2.1151    2.9603   -0.0589 C   0  0  0  0  0  0  0  0  0  0  0  0
   -0.7399    4.3687    1.5401 C   0  0  0  0  0  0  0  0  0  0  0  0
   -0.8859    4.4554   -1.5566 C   0  0  0  0  0  0  0  0  0  0  0  0
   -3.0371    2.9847    0.0596 C   0  0  0  0  0  0  0  0  0  0  0  0
   -6.0838   -0.2128   -0.4136 C   0  0  0  0  0  0  0  0  0  0  0  0
   -4.8932   -2.1929    1.6608 C   0  0  0  0  0  0  0  0  0  0  0  0
   -4.6879   -2.8145   -1.3734 C   0  0  0  0  0  0  0  0  0  0  0  0
    3.2123    2.9115    0.0456 H   0  0  0  0  0  0  0  0  0  0  0  0
    1.6995    3.9790   -0.1742 H   0  0  0  0  0  0  0  0  0  0  0  0
   -0.9795    3.7889    2.4551 H   0  0  0  0  0  0  0  0  0  0  0  0
   -1.3279    5.3099    1.5759 H   0  0  0  0  0  0  0  0  0  0  0  0
    0.3355    4.6296    1.5766 H   0  0  0  0  0  0  0  0  0  0  0  0
    0.1863    4.6914   -1.7022 H   0  0  0  0  0  0  0  0  0  0  0  0
   -1.4432    5.4120   -1.4706 H   0  0  0  0  0  0  0  0  0  0  0  0
   -1.2442    3.9366   -2.4693 H   0  0  0  0  0  0  0  0  0  0  0  0
   -3.6048    3.9378    0.1156 H   0  0  0  0  0  0  0  0  0  0  0  0
   -3.3814    2.4245   -0.8315 H   0  0  0  0  0  0  0  0  0  0  0  0
   -3.2891    2.3751    0.9495 H   0  0  0  0  0  0  0  0  0  0  0  0
   -5.9710    0.2352   -1.4218 H   0  0  0  0  0  0  0  0  0  0  0  0
   -6.0697    0.6128    0.3265 H   0  0  0  0  0  0  0  0  0  0  0  0
   -7.0759   -0.7079   -0.3643 H   0  0  0  0  0  0  0  0  0  0  0  0
   -4.0715   -2.9044    1.8812 H   0  0  0  0  0  0  0  0  0  0  0  0
   -5.8558   -2.7389    1.7434 H   0  0  0  0  0  0  0  0  0  0  0  0
   -4.8773   -1.4019    2.4379 H   0  0  0  0  0  0  0  0  0  0  0  0
   -4.5339   -2.3925   -2.3873 H   0  0  0  0  0  0  0  0  0  0  0  0
   -3.8723   -3.5404   -1.1788 H   0  0  0  0  0  0  0  0  0  0  0  0
   -5.6506   -3.3667   -1.3724 H   0  0  0  0  0  0  0  0  0  0  0  0
  1 11  1  0  0  0  0
  1  9  1  0  0  0  0
  2 13  1  0  0  0  0
  4  3  1  0  0  0  0
  4  1  1  0  0  0  0
  5  6  1  0  0  0  0
  5  4  2  0  0  0  0
  6  7  3  0  0  0  0
  7  2  1  0  0  0  0
  8  3  2  0  0  0  0
  8 15  1  0  0  0  0
  9 18  1  0  0  0  0
  9 19  1  0  0  0  0
  9 17  1  0  0  0  0
 10 21  1  0  0  0  0
 10  1  1  0  0  0  0
 11 23  1  0  0  0  0
 11 25  1  0  0  0  0
 12 28  1  0  0  0  0
 12  2  1  0  0  0  0
 12 27  1  0  0  0  0
 13 30  1  0  0  0  0
 13 29  1  0  0  0  0
 13 31  1  0  0  0  0
 14 34  1  0  0  0  0
 14 33  1  0  0  0  0
 14  2  1  0  0  0  0
 16  8  1  0  0  0  0
 20 10  1  0  0  0  0
 22 10  1  0  0  0  0
 24 11  1  0  0  0  0
 26 12  1  0  0  0  0
 32 14  1  0  0  0  0
M  END
