2,5
q = 0.0, confidence = 0.858

 24 25  0  0  1  0  0  0  0  0999 V2000
    0.1911   -1.7337   -1.1054 C   0  0  1  0  0  3  0  0  0  0  0  0
    1.2021   -1.0851   -1.9336 C   0  0  0  0  0  3  0  0  0  0  0  0
    2.4212   -1.7952   -1.7674 C   0  0  0  0  0  0  0  0  0  0  0  0
    2.2136   -2.8501   -0.8094 C   0  0  0  0  0  0  0  0  0  0  0  0
    0.8605   -2.8093   -0.3824 C   0  0  0  0  0  3  0  0  0  0  0  0
   -3.5562   -0.4733   -0.3040 C   0  0  0  0  0  0  0  0  0  0  0  0
   -4.2806   -1.2294    0.6853 C   0  0  0  0  0  3  0  0  0  0  0  0
   -5.5639   -1.0494    1.1744 C   0  0  0  0  0  0  0  0  0  0  0  0
   -6.5380   -0.0642    0.8376 C   0  0  0  0  0  0  0  0  0  0  0  0
   -6.4238    0.9712   -0.0766 C   0  0  0  0  0  0  0  0  0  0  0  0
   -5.3044    1.2979   -0.8970 C   0  0  0  0  0  0  0  0  0  0  0  0
   -4.0694    0.6793   -0.9978 C   0  0  0  0  0  0  0  0  0  0  0  0
   -2.2607   -0.8926   -0.6065 C   0  0  0  0  0  0  0  0  0  0  0  0
   -1.1010   -1.2726   -0.8488 C   0  0  0  0  0  0  0  0  0  0  0  0
    1.0258   -0.2448   -2.6145 H   0  0  0  0  0  0  0  0  0  0  0  0
    3.3651   -1.5757   -2.2802 H   0  0  0  0  0  0  0  0  0  0  0  0
    2.9721   -3.5634   -0.4663 H   0  0  0  0  0  0  0  0  0  0  0  0
    0.3758   -3.4860    0.3302 H   0  0  0  0  0  0  0  0  0  0  0  0
   -3.7183   -2.0756    1.1108 H   0  0  0  0  0  0  0  0  0  0  0  0
   -5.8794   -1.7779    1.9387 H   0  0  0  0  0  0  0  0  0  0  0  0
   -7.4970   -0.1410    1.3745 H   0  0  0  0  0  0  0  0  0  0  0  0
   -7.3022    1.6269   -0.1875 H   0  0  0  0  0  0  0  0  0  0  0  0
   -5.4442    2.1738   -1.5511 H   0  0  0  0  0  0  0  0  0  0  0  0
   -3.3645    1.1277   -1.7153 H   0  0  0  0  0  0  0  0  0  0  0  0
  1 14  1  1  0  0  0
  1  5  1  0  0  0  0
  2  3  1  0  0  0  0
  2  1  1  0  0  0  0
  3  4  2  0  0  0  0
  4 17  1  0  0  0  0
  4  5  1  0  0  0  0
  5 18  1  0  0  0  0
  6  7  1  0  0  0  0
  7 19  1  0  0  0  0
  7  8  1  0  0  0  0
  8 20  1  0  0  0  0
  9  8  2  0  0  0  0
  9 21  1  0  0  0  0
 10  9  1  0  0  0  0
 11 10  2  0  0  0  0
 12 11  1  0  0  0  0
 12  6  2  0  0  0  0
 13  6  1  0  0  0  0
 14 13  3  0  0  0  0
 15  2  1  0  0  0  0
 16  3  1  0  0  0  0
 22 10  1  0  0  0  0
 23 11  1  0  0  0  0
 24 12  1  0  0  0  0
M  END
