4,15
q = 0.0, confidence = 0.984

 31 31  0  0  0  0  0  0  0  0999 V2000
   -3.0846    1.2543   -0.3300 Si  0  0  0  0  0  0  0  0  0  0  0  0
    2.8441   -1.1135   -1.0933 O   0  0  0  0  0  0  0  0  0  0  0  0
   -1.2483    1.0532   -0.0427 C   0  0  0  0  0  2  0  0  0  0  0  0
   -0.0314    1.3484    0.0648 C   0  0  0  0  0  2  0  0  0  0  0  0
    1.2968    1.8635    0.0747 C   0  0  0  0  0  0  0  0  0  0  0  0
    1.6143    3.2152    0.3306 C   0  0  0  0  0  0  0  0  0  0  0  0
    0.8112    3.9248    0.5750 H   0  0  0  0  0  0  0  0  0  0  0  0
    2.9488    3.6329    0.2607 C   0  0  0  0  0  0  0  0  0  0  0  0
    3.2008    4.6840    0.4673 H   0  0  0  0  0  0  0  0  0  0  0  0
    3.9687    2.7211   -0.0788 C   0  0  0  0  0  0  0  0  0  0  0  0
    5.0132    3.0638   -0.1288 H   0  0  0  0  0  0  0  0  0  0  0  0
    3.6601    1.3820   -0.3436 C   0  0  0  0  0  0  0  0  0  0  0  0
    4.4464    0.6610   -0.6077 H   0  0  0  0  0  0  0  0  0  0  0  0
    2.3265    0.9326   -0.2415 C   0  0  0  0  0  0  0  0  0  0  0  0
    1.8761   -0.4623   -0.4581 C   0  0  0  0  0  2  0  0  0  0  0  0
    2.7168   -2.4800   -1.4954 C   0  0  0  0  0  0  0  0  0  0  0  0
    2.8187   -3.1487   -0.6204 H   0  0  0  0  0  0  0  0  0  0  0  0
    3.5427   -2.6624   -2.2069 H   0  0  0  0  0  0  0  0  0  0  0  0
    1.7416   -2.6578   -1.9856 H   0  0  0  0  0  0  0  0  0  0  0  0
   -3.2708    2.9241   -1.1995 C   0  0  0  0  0  0  0  0  0  0  0  0
   -4.3429    3.1429   -1.3852 H   0  0  0  0  0  0  0  0  0  0  0  0
   -2.7443    2.9259   -2.1751 H   0  0  0  0  0  0  0  0  0  0  0  0
   -2.8550    3.7445   -0.5804 H   0  0  0  0  0  0  0  0  0  0  0  0
   -3.7417   -0.1366   -1.4162 C   0  0  0  0  0  0  0  0  0  0  0  0
   -4.8070    0.0589   -1.6579 H   0  0  0  0  0  0  0  0  0  0  0  0
   -3.6824   -1.1146   -0.9006 H   0  0  0  0  0  0  0  0  0  0  0  0
   -3.1792   -0.2123   -2.3674 H   0  0  0  0  0  0  0  0  0  0  0  0
   -3.9428    1.2809    1.3497 C   0  0  0  0  0  0  0  0  0  0  0  0
   -5.0254    1.4842    1.2140 H   0  0  0  0  0  0  0  0  0  0  0  0
   -3.5214    2.0736    1.9998 H   0  0  0  0  0  0  0  0  0  0  0  0
   -3.8352    0.3076    1.8665 H   0  0  0  0  0  0  0  0  0  0  0  0
  1  3  1  0  0  0  0
  1 28  1  0  0  0  0
  2 15  1  0  0  0  0
  3  4  1  0  0  0  0
  4  5  1  0  0  0  0
  5  6  1  0  0  0  0
  6  7  1  0  0  0  0
  8  6  2  0  0  0  0
  8  9  1  0  0  0  0
 10  8  1  0  0  0  0
 11 10  1  0  0  0  0
 12 14  1  0  0  0  0
 12 10  2  0  0  0  0
 13 12  1  0  0  0  0
 14  5  2  0  0  0  0
 15 14  1  0  0  0  0
 16  2  1  0  0  0  0
 16 17  1  0  0  0  0
 18 16  1  0  0  0  0
 19 16  1  0  0  0  0
 20 23  1  0  0  0  0
 20  1  1  0  0  0  0
 21 20  1  0  0  0  0
 22 20  1  0  0  0  0
 24 26  1  0  0  0  0
 24  1  1  0  0  0  0
 25 24  1  0  0  0  0
 27 24  1  0  0  0  0
 28 31  1  0  0  0  0
 28 30  1  0  0  0  0
 29 28  1  0  0  0  0
M  END
