11,15
q = 0.0, confidence = 1.0

 40 41  0  0  1  0  0  0  0  0999 V2000
   -3.0787    1.1057    1.1855 O   0  0  0  0  0  0  0  0  0  0  0  0
   -0.6068    3.0671    0.6414 O   0  0  0  0  0  0  0  0  0  0  0  0
   -1.9388    2.6688   -1.1555 O   0  0  0  0  0  0  0  0  0  0  0  0
    0.0007    0.5003    0.9264 N   0  0  0  0  0  0  0  0  0  0  0  0
    0.1155    1.3346    1.5135 H   0  0  0  0  0  0  0  0  0  0  0  0
   -1.9513   -0.0206   -0.4329 N   0  0  0  0  0  0  0  0  0  0  0  0
   -2.0303   -0.5852   -1.2782 H   0  0  0  0  0  0  0  0  0  0  0  0
    1.0183   -0.4217    0.9393 C   0  0  0  0  0  0  0  0  0  0  0  0
    1.0181   -1.5430    0.0512 C   0  0  0  0  0  0  0  0  0  0  0  0
    0.1949   -1.6736   -0.6606 H   0  0  0  0  0  0  0  0  0  0  0  0
    2.0681   -2.5025    0.0968 C   0  0  0  0  0  3  0  0  0  0  0  0
    2.0540   -3.3462   -0.6074 H   0  0  0  0  0  0  0  0  0  0  0  0
    3.1269   -2.3747    1.0307 C   0  0  0  0  0  3  0  0  0  0  0  0
    3.9483   -3.1021    1.0528 H   0  0  0  0  0  0  0  0  0  0  0  0
    3.1619   -1.2184    1.8606 C   0  0  0  0  0  3  0  0  0  0  0  0
    4.0193   -1.0622    2.5312 H   0  0  0  0  0  0  0  0  0  0  0  0
    2.1401   -0.2263    1.8302 C   0  0  2  0  0  3  0  0  0  0  0  0
    2.2063    0.9902    2.7134 C   0  0  0  0  0  0  0  0  0  0  0  0
    1.4933    0.9119    3.5629 H   0  0  0  0  0  0  0  0  0  0  0  0
    1.9630    1.9173    2.1556 H   0  0  0  0  0  0  0  0  0  0  0  0
    3.2219    1.1130    3.1331 H   0  0  0  0  0  0  0  0  0  0  0  0
   -0.7693    0.8029   -0.2533 C   0  0  1  0  0  0  0  0  0  0  0  0
   -0.1483    0.6669   -1.1678 H   0  0  0  0  0  0  0  0  0  0  0  0
   -3.0665    0.2038    0.3451 C   0  0  0  0  0  0  0  0  0  0  0  0
   -4.2446   -0.6942    0.1056 C   0  0  0  0  0  0  0  0  0  0  0  0
   -4.1511   -1.9418   -0.5452 C   0  0  0  0  0  0  0  0  0  0  0  0
   -3.1753   -2.3228   -0.8844 H   0  0  0  0  0  0  0  0  0  0  0  0
   -5.2953   -2.7312   -0.7286 C   0  0  0  0  0  0  0  0  0  0  0  0
   -5.2128   -3.7070   -1.2304 H   0  0  0  0  0  0  0  0  0  0  0  0
   -6.5408   -2.2822   -0.2610 C   0  0  0  0  0  0  0  0  0  0  0  0
   -7.4384   -2.9022   -0.4065 H   0  0  0  0  0  0  0  0  0  0  0  0
   -6.6378   -1.0466    0.4015 C   0  0  0  0  0  0  0  0  0  0  0  0
   -7.6121   -0.6975    0.7758 H   0  0  0  0  0  0  0  0  0  0  0  0
   -5.4951   -0.2604    0.5898 C   0  0  0  0  0  0  0  0  0  0  0  0
   -5.5370    0.7050    1.1150 H   0  0  0  0  0  0  0  0  0  0  0  0
   -1.1058    2.3120   -0.1705 C   0  0  0  0  0  0  0  0  0  0  0  0
   -2.3376    4.0485   -1.1469 C   0  0  0  0  0  0  0  0  0  0  0  0
   -2.9044    4.2726   -0.2214 H   0  0  0  0  0  0  0  0  0  0  0  0
   -2.9770    4.1871   -2.0360 H   0  0  0  0  0  0  0  0  0  0  0  0
   -1.4514    4.7116   -1.1936 H   0  0  0  0  0  0  0  0  0  0  0  0
  3 37  1  0  0  0  0
  3 36  1  0  0  0  0
  4  8  1  0  0  0  0
  4  5  1  0  0  0  0
  6 22  1  0  0  0  0
  6 24  1  0  0  0  0
  7  6  1  0  0  0  0
  8 17  1  0  0  0  0
  9 11  1  0  0  0  0
  9  8  2  0  0  0  0
 10  9  1  0  0  0  0
 11 13  1  0  0  0  0
 12 11  1  0  0  0  0
 13 14  1  0  0  0  0
 13 15  1  0  0  0  0
 15 16  1  0  0  0  0
 17 15  1  0  0  0  0
 17 18  1  1  0  0  0
 18 21  1  0  0  0  0
 18 19  1  0  0  0  0
 20 18  1  0  0  0  0
 22 23  1  6  0  0  0
 22 36  1  0  0  0  0
 22  4  1  0  0  0  0
 24  1  2  0  0  0  0
 25 24  1  0  0  0  0
 25 34  1  0  0  0  0
 26 25  2  0  0  0  0
 27 26  1  0  0  0  0
 28 26  1  0  0  0  0
 28 30  2  0  0  0  0
 29 28  1  0  0  0  0
 30 32  1  0  0  0  0
 31 30  1  0  0  0  0
 32 34  2  0  0  0  0
 32 33  1  0  0  0  0
 34 35  1  0  0  0  0
 36  2  2  0  0  0  0
 37 38  1  0  0  0  0
 39 37  1  0  0  0  0
 40 37  1  0  0  0  0
M  END
