28,34
q = -1.0

 35 38  0  0  1  0  0  0  0  0999 V2000
   -3.3822   -2.3122    1.0983 O   0  0  0  0  0  0  0  0  0  0  0  0
   -2.9115    1.6354   -1.3731 O   0  0  0  0  0  0  0  0  0  0  0  0
   -9.4768    1.7790    0.3682 O   0  0  0  0  0  0  0  0  0  0  0  0
   -9.8310   -0.3736    0.2172 O   0  0  0  0  0  0  0  0  0  0  0  0
   -3.4958   -0.2820   -0.1142 N   0  0  0  0  0  0  0  0  0  0  0  0
   -0.2215   -1.8015    0.2717 N   0  0  0  0  0  0  0  0  0  0  0  0
    0.5887   -0.9432   -0.3830 N   0  0  0  0  0  0  0  0  0  0  0  0
    0.0066    0.1465   -0.9494 N   0  0  0  0  0  0  0  0  0  0  0  0
    1.9123   -1.2247   -0.4293 N   0  0  0  0  0  0  0  0  0  0  0  0
   -9.0967    0.6135    0.2563 N   0  0  0  0  0  0  0  0  0  0  0  0
   -2.8356   -1.4313    0.4726 C   0  0  0  0  0  0  0  0  0  0  0  0
   -1.4123   -1.2216    0.1141 C   0  0  0  0  0  0  0  0  0  0  0  0
   -1.2727   -0.0371   -0.6276 C   0  0  0  0  0  0  0  0  0  0  0  0
   -2.5960    0.6140   -0.8027 C   0  0  0  0  0  0  0  0  0  0  0  0
   -4.8924   -0.0588   -0.0211 C   0  0  0  0  0  0  0  0  0  0  0  0
   -5.3887    1.2557    0.1301 C   0  0  0  0  0  0  0  0  0  0  0  0
   -4.6954    2.1037    0.1712 H   0  0  0  0  0  0  0  0  0  0  0  0
   -6.7657    1.4755    0.2152 C   0  0  0  0  0  0  0  0  0  0  0  0
   -7.1842    2.4837    0.3319 H   0  0  0  0  0  0  0  0  0  0  0  0
   -7.6360    0.3799    0.1605 C   0  0  0  0  0  0  0  0  0  0  0  0
   -7.1635   -0.9305    0.0173 C   0  0  0  0  0  0  0  0  0  0  0  0
   -7.8856   -1.7563   -0.0238 H   0  0  0  0  0  0  0  0  0  0  0  0
   -5.7874   -1.1509   -0.0800 C   0  0  0  0  0  0  0  0  0  0  0  0
   -5.4030   -2.1713   -0.1921 H   0  0  0  0  0  0  0  0  0  0  0  0
    2.6708   -0.3907   -1.0750 C   0  0  0  0  0  0  0  0  0  0  0  0
    2.2575    0.5034   -1.5818 H   0  0  0  0  0  0  0  0  0  0  0  0
    4.0983   -0.6287   -1.1407 C   0  0  2  0  0  3  0  0  0  0  0  0
    4.8423   -1.6469   -0.4328 C   0  0  0  0  0  3  0  0  0  0  0  0
    4.3944   -2.4010    0.2242 H   0  0  0  0  0  0  0  0  0  0  0  0
    6.2190   -1.4967   -0.7579 C   0  0  0  0  0  0  0  0  0  0  0  0
    7.0391   -2.1195   -0.3813 H   0  0  0  0  0  0  0  0  0  0  0  0
    6.3541   -0.3779   -1.6571 C   0  0  0  0  0  0  0  0  0  0  0  0
    7.2902   -0.0044   -2.0876 H   0  0  0  0  0  0  0  0  0  0  0  0
    5.0548    0.1629   -1.8801 C   0  0  0  0  0  3  0  0  0  0  0  0
    4.8115    1.0206   -2.5192 H   0  0  0  0  0  0  0  0  0  0  0  0
  2 14  2  0  0  0  0
  4 10  2  0  0  0  0
  5 15  1  0  0  0  0
  5 11  1  0  0  0  0
  7  6  1  0  0  0  0
  8 13  2  0  0  0  0
  8  7  1  0  0  0  0
  9  7  1  0  0  0  0
 10  3  2  0  0  0  0
 11  1  2  0  0  0  0
 12  6  2  0  0  0  0
 12 11  1  0  0  0  0
 13 12  1  0  0  0  0
 14 13  1  0  0  0  0
 14  5  1  0  0  0  0
 15 16  1  0  0  0  0
 16 17  1  0  0  0  0
 16 18  2  0  0  0  0
 18 19  1  0  0  0  0
 20 18  1  0  0  0  0
 20 10  1  0  0  0  0
 21 20  2  0  0  0  0
 22 21  1  0  0  0  0
 23 15  2  0  0  0  0
 23 21  1  0  0  0  0
 24 23  1  0  0  0  0
 25  9  2  0  0  0  0
 26 25  1  0  0  0  0
 27 25  1  1  0  0  0
 27 28  1  0  0  0  0
 28 29  1  0  0  0  0
 30 28  1  0  0  0  0
 30 31  1  0  0  0  0
 32 30  2  0  0  0  0
 33 32  1  0  0  0  0
 34 32  1  0  0  0  0
 34 27  1  0  0  0  0
 35 34  1  0  0  0  0
M  END
