24,30
q = -1.0

 31 34  0  0  1  0  0  0  0  0999 V2000
   -5.1996   -2.7486   -0.5150 O   0  0  0  0  0  0  0  0  0  0  0  0
   -4.4183    2.5780    0.6957 O   0  0  0  0  0  0  0  0  0  0  0  0
   -2.5440   -1.6446    0.2827 N   0  0  0  0  0  0  0  0  0  0  0  0
   -1.7084   -0.6693    0.6559 N   0  0  0  0  0  0  0  0  0  0  0  0
   -2.2262    0.5649    0.7818 N   0  0  0  0  0  0  0  0  0  0  0  0
   -0.4067   -0.9893    0.8817 N   0  0  0  0  0  0  0  0  0  0  0  0
   -5.0194   -1.5657   -0.2487 C   0  0  0  0  0  0  0  0  0  0  0  0
   -3.7124   -0.9973    0.1504 C   0  0  0  0  0  0  0  0  0  0  0  0
   -3.5141    0.3772    0.4614 C   0  0  0  0  0  0  0  0  0  0  0  0
   -4.5901    1.3948    0.4227 C   0  0  0  0  0  0  0  0  0  0  0  0
   -5.9260    0.8338    0.0140 C   0  0  0  0  0  0  0  0  0  0  0  0
   -6.1255   -0.5421   -0.2981 C   0  0  0  0  0  0  0  0  0  0  0  0
   -7.0134    1.7242   -0.0565 C   0  0  0  0  0  0  0  0  0  0  0  0
   -6.8245    2.7796    0.1910 H   0  0  0  0  0  0  0  0  0  0  0  0
   -8.2835    1.2684   -0.4301 C   0  0  0  0  0  0  0  0  0  0  0  0
   -9.1268    1.9736   -0.4825 H   0  0  0  0  0  0  0  0  0  0  0  0
   -8.4805   -0.0899   -0.7384 C   0  0  0  0  0  0  0  0  0  0  0  0
   -9.4784   -0.4491   -1.0323 H   0  0  0  0  0  0  0  0  0  0  0  0
   -7.4069   -0.9865   -0.6716 C   0  0  0  0  0  0  0  0  0  0  0  0
   -7.5264   -2.0549   -0.9060 H   0  0  0  0  0  0  0  0  0  0  0  0
    0.3749   -0.0166    1.2409 C   0  0  0  0  0  0  0  0  0  0  0  0
   -0.0012    1.0172    1.3718 H   0  0  0  0  0  0  0  0  0  0  0  0
    1.7790   -0.2828    1.4870 C   0  0  1  0  0  3  0  0  0  0  0  0
    2.4808   -1.5314    1.2606 C   0  0  0  0  0  3  0  0  0  0  0  0
    2.0117   -2.4469    0.8822 H   0  0  0  0  0  0  0  0  0  0  0  0
    3.8396   -1.3554    1.6490 C   0  0  0  0  0  0  0  0  0  0  0  0
    4.6218   -2.1230    1.6157 H   0  0  0  0  0  0  0  0  0  0  0  0
    4.0106    0.0058    2.1062 C   0  0  0  0  0  0  0  0  0  0  0  0
    4.9377    0.4474    2.4890 H   0  0  0  0  0  0  0  0  0  0  0  0
    2.7501    0.6661    1.9900 C   0  0  0  0  0  3  0  0  0  0  0  0
    2.5366    1.7060    2.2671 H   0  0  0  0  0  0  0  0  0  0  0  0
  1  7  2  0  0  0  0
  3  4  1  0  0  0  0
  4  5  1  0  0  0  0
  4  6  1  0  0  0  0
  6 21  2  0  0  0  0
  7  8  1  0  0  0  0
  8  3  2  0  0  0  0
  8  9  1  0  0  0  0
  9  5  2  0  0  0  0
 10  9  1  0  0  0  0
 10  2  2  0  0  0  0
 11 10  1  0  0  0  0
 12  7  1  0  0  0  0
 12 11  2  0  0  0  0
 13 11  1  0  0  0  0
 13 14  1  0  0  0  0
 15 13  2  0  0  0  0
 16 15  1  0  0  0  0
 17 19  2  0  0  0  0
 17 15  1  0  0  0  0
 18 17  1  0  0  0  0
 19 12  1  0  0  0  0
 20 19  1  0  0  0  0
 21 22  1  0  0  0  0
 23 21  1  6  0  0  0
 23 30  1  0  0  0  0
 24 23  1  0  0  0  0
 24 26  1  0  0  0  0
 25 24  1  0  0  0  0
 26 28  2  0  0  0  0
 27 26  1  0  0  0  0
 28 29  1  0  0  0  0
 30 28  1  0  0  0  0
 30 31  1  0  0  0  0
M  END
