3,6
q = 0.0, confidence = 0.98

 25 27  0  0  0  0  0  0  0  0999 V2000
    2.6052   -1.3167    0.1526 O   0  0  0  0  0  0  0  0  0  0  0  0
   -0.6218    1.6725    0.7156 C   0  0  0  0  0  0  0  0  0  0  0  0
   -1.9113    1.3687    1.2958 C   0  0  0  0  0  3  0  0  0  0  0  0
   -2.1292    0.1822    2.0224 C   0  0  0  0  0  0  0  0  0  0  0  0
   -1.0813   -0.7853    2.1141 C   0  0  0  0  0  0  0  0  0  0  0  0
    0.1532   -0.5652    1.4687 C   0  0  0  0  0  3  0  0  0  0  0  0
    0.4337    0.6740    0.7730 C   0  0  0  0  0  0  0  0  0  0  0  0
    1.6927    0.9602    0.1058 C   0  0  0  0  0  0  0  0  0  0  0  0
    1.8529    2.1990   -0.5235 C   0  0  0  0  0  0  0  0  0  0  0  0
    0.8253    3.1702   -0.5501 C   0  0  0  0  0  0  0  0  0  0  0  0
   -0.3989    2.9090    0.0366 C   0  0  0  0  0  0  0  0  0  0  0  0
    2.8254    0.0389    0.0818 C   0  0  0  0  0  0  0  0  0  0  0  0
    4.1884    0.2612   -0.0623 C   0  0  0  0  0  0  0  0  0  0  0  0
    4.8192   -1.0211   -0.0861 C   0  0  0  0  0  0  0  0  0  0  0  0
    3.8079   -1.9450    0.0465 C   0  0  0  0  0  0  0  0  0  0  0  0
   -2.7220    2.1014    1.1782 H   0  0  0  0  0  0  0  0  0  0  0  0
   -3.1145   -0.0248    2.4613 H   0  0  0  0  0  0  0  0  0  0  0  0
   -1.2592   -1.7400    2.6278 H   0  0  0  0  0  0  0  0  0  0  0  0
    0.9171   -1.3479    1.4914 H   0  0  0  0  0  0  0  0  0  0  0  0
    2.7973    2.4066   -1.0462 H   0  0  0  0  0  0  0  0  0  0  0  0
    0.9988    4.1251   -1.0678 H   0  0  0  0  0  0  0  0  0  0  0  0
   -1.2162    3.6442   -0.0000 H   0  0  0  0  0  0  0  0  0  0  0  0
    4.6793    1.2380   -0.1220 H   0  0  0  0  0  0  0  0  0  0  0  0
    5.8891   -1.2342   -0.1834 H   0  0  0  0  0  0  0  0  0  0  0  0
    3.7775   -3.0385    0.0782 H   0  0  0  0  0  0  0  0  0  0  0  0
  2  7  1  0  0  0  0
  2  3  1  0  0  0  0
  3  4  1  0  0  0  0
  4  5  2  0  0  0  0
  4 17  1  0  0  0  0
  5 18  1  0  0  0  0
  6 19  1  0  0  0  0
  6  5  1  0  0  0  0
  7  6  1  0  0  0  0
  8  7  2  0  0  0  0
  9  8  1  0  0  0  0
 10  9  2  0  0  0  0
 10 11  1  0  0  0  0
 11  2  2  0  0  0  0
 12  8  1  0  0  0  0
 12  1  1  0  0  0  0
 13 12  2  0  0  0  0
 14 13  1  0  0  0  0
 14 15  2  0  0  0  0
 15 25  1  0  0  0  0
 15  1  1  0  0  0  0
 16  3  1  0  0  0  0
 20  9  1  0  0  0  0
 21 10  1  0  0  0  0
 22 11  1  0  0  0  0
 23 13  1  0  0  0  0
 24 14  1  0  0  0  0
M  END
