3,34
q = -1.0

 38 42  0  0  0  0  0  0  0  0999 V2000
    0.6301    2.6754   -0.2153 N   0  0  0  0  0  0  0  0  0  0  0  0
   -1.2744    1.1713    0.2759 C   0  0  0  0  0  0  0  0  0  0  0  0
    1.5550    1.7168   -0.5283 C   0  0  0  0  0  2  0  0  0  0  0  0
   -2.6700   -1.1904   -0.4486 C   0  0  0  0  0  0  0  0  0  0  0  0
   -4.8408   -0.0631   -0.0527 C   0  0  0  0  0  0  0  0  0  0  0  0
    2.4734    2.3699   -1.3160 N   0  0  0  0  0  0  0  0  0  0  0  0
   -3.4105   -0.0230   -0.0656 C   0  0  0  0  0  0  0  0  0  0  0  0
   -5.5355   -1.2667   -0.4259 C   0  0  0  0  0  0  0  0  0  0  0  0
   -3.3903   -2.3795   -0.8231 C   0  0  0  0  0  0  0  0  0  0  0  0
   -2.8077   -3.2646   -1.1234 H   0  0  0  0  0  0  0  0  0  0  0  0
   -0.5064    2.4152    0.6674 C   0  0  0  0  0  0  0  0  0  0  0  0
   -1.1385    3.3192    0.6402 H   0  0  0  0  0  0  0  0  0  0  0  0
   -0.1144    2.3183    1.7036 H   0  0  0  0  0  0  0  0  0  0  0  0
    2.1193    3.7044   -1.4800 C   0  0  0  0  0  0  0  0  0  0  0  0
    2.7146    4.3938   -2.0853 H   0  0  0  0  0  0  0  0  0  0  0  0
   -3.4958    2.3190    0.6781 C   0  0  0  0  0  0  0  0  0  0  0  0
   -2.9996    3.2537    0.9763 H   0  0  0  0  0  0  0  0  0  0  0  0
   -5.5950    1.0974    0.3315 C   0  0  0  0  0  0  0  0  0  0  0  0
   -4.7627   -2.4182   -0.8117 C   0  0  0  0  0  0  0  0  0  0  0  0
   -5.2994   -3.3352   -1.1014 H   0  0  0  0  0  0  0  0  0  0  0  0
    0.9530    3.8966   -0.7866 C   0  0  0  0  0  0  0  0  0  0  0  0
    0.3291    4.7866   -0.6635 H   0  0  0  0  0  0  0  0  0  0  0  0
    3.6733    1.7671   -1.8754 C   0  0  0  0  0  0  0  0  0  0  0  0
    3.4697    0.6957   -2.0684 H   0  0  0  0  0  0  0  0  0  0  0  0
    4.5290    1.8753   -1.1788 H   0  0  0  0  0  0  0  0  0  0  0  0
    3.9182    2.2664   -2.8314 H   0  0  0  0  0  0  0  0  0  0  0  0
   -4.8701    2.2822    0.6957 C   0  0  0  0  0  0  0  0  0  0  0  0
   -5.4416    3.1753    0.9941 H   0  0  0  0  0  0  0  0  0  0  0  0
   -7.0072    1.0367    0.3381 C   0  0  0  0  0  0  0  0  0  0  0  0
   -7.5782    1.9307    0.6340 H   0  0  0  0  0  0  0  0  0  0  0  0
   -7.6737   -0.1400   -0.0269 C   0  0  0  0  0  0  0  0  0  0  0  0
   -8.7740   -0.1713   -0.0181 H   0  0  0  0  0  0  0  0  0  0  0  0
   -2.7017    1.1765    0.2954 C   0  0  0  0  0  0  0  0  0  0  0  0
   -0.5406    0.0056   -0.0621 C   0  0  0  0  0  3  0  0  0  0  0  0
   -1.2619   -1.1441   -0.4451 C   0  0  0  0  0  0  0  0  0  0  0  0
   -0.7099   -2.0417   -0.7648 H   0  0  0  0  0  0  0  0  0  0  0  0
   -6.9481   -1.2787   -0.4048 C   0  0  0  0  0  0  0  0  0  0  0  0
   -7.4757   -2.2015   -0.6925 H   0  0  0  0  0  0  0  0  0  0  0  0
  1 11  1  0  0  0  0
  2 33  1  0  0  0  0
  2 11  1  0  0  0  0
  3  1  1  0  0  0  0
  4 35  2  0  0  0  0
  4  7  1  0  0  0  0
  5 18  1  0  0  0  0
  6  3  1  0  0  0  0
  7  5  2  0  0  0  0
  7 33  1  0  0  0  0
  8 37  2  0  0  0  0
  8  5  1  0  0  0  0
  9 19  2  0  0  0  0
  9  4  1  0  0  0  0
 10  9  1  0  0  0  0
 11 13  1  0  0  0  0
 12 11  1  0  0  0  0
 14  6  1  0  0  0  0
 14 21  2  0  0  0  0
 15 14  1  0  0  0  0
 16 27  1  0  0  0  0
 16 17  1  0  0  0  0
 18 29  1  0  0  0  0
 18 27  2  0  0  0  0
 19  8  1  0  0  0  0
 20 19  1  0  0  0  0
 21 22  1  0  0  0  0
 21  1  1  0  0  0  0
 23  6  1  0  0  0  0
 23 25  1  0  0  0  0
 24 23  1  0  0  0  0
 26 23  1  0  0  0  0
 27 28  1  0  0  0  0
 29 30  1  0  0  0  0
 31 32  1  0  0  0  0
 31 29  2  0  0  0  0
 33 16  2  0  0  0  0
 34  2  2  0  0  0  0
 35 34  1  0  0  0  0
 36 35  1  0  0  0  0
 37 31  1  0  0  0  0
 38 37  1  0  0  0  0
M  END
