1,31
q = -2.0, confidence = 0.938

 74 80  0  0  1  0  0  0  0  0999 V2000
   -0.5741    0.9841   -1.0226 C   0  0  1  0  0  3  0  0  0  0  0  0
   -0.8602   -0.3832   -1.4261 C   0  0  0  0  0  0  0  0  0  0  0  0
   -2.2157   -0.6562   -0.9810 C   0  0  0  0  0  0  0  0  0  0  0  0
   -2.7435    0.5249   -0.3315 C   0  0  0  0  0  0  0  0  0  0  0  0
   -1.7134    1.5607   -0.3596 C   0  0  0  0  0  0  0  0  0  0  0  0
    0.6370    1.6007   -1.1345 O   0  0  0  0  0  0  0  0  0  0  0  0
    0.0760   -1.2576   -2.1638 C   0  0  0  0  0  0  0  0  0  0  0  0
    0.2452   -2.6204   -1.8319 C   0  0  0  0  0  0  0  0  0  0  0  0
    1.1614   -3.4141   -2.5319 C   0  0  0  0  0  0  0  0  0  0  0  0
    1.9314   -2.8619   -3.5702 C   0  0  0  0  0  0  0  0  0  0  0  0
    1.7677   -1.5111   -3.9113 C   0  0  0  0  0  0  0  0  0  0  0  0
    0.8428   -0.7165   -3.2182 C   0  0  0  0  0  0  0  0  0  0  0  0
   -2.9688   -1.9058   -1.2377 C   0  0  0  0  0  0  0  0  0  0  0  0
   -2.9976   -2.4456   -2.5415 C   0  0  0  0  0  0  0  0  0  0  0  0
   -3.7351   -3.6072   -2.8123 C   0  0  0  0  0  0  0  0  0  0  0  0
   -4.4500   -4.2445   -1.7866 C   0  0  0  0  0  0  0  0  0  0  0  0
   -4.4252   -3.7135   -0.4861 C   0  0  0  0  0  0  0  0  0  0  0  0
   -3.6904   -2.5533   -0.2124 C   0  0  0  0  0  0  0  0  0  0  0  0
   -4.1313    0.7028    0.1538 C   0  0  0  0  0  0  0  0  0  0  0  0
   -5.2154    0.3693   -0.6875 C   0  0  0  0  0  0  0  0  0  0  0  0
   -6.5360    0.5666   -0.2593 C   0  0  0  0  0  0  0  0  0  0  0  0
   -6.7937    1.1024    1.0119 C   0  0  0  0  0  0  0  0  0  0  0  0
   -5.7213    1.4398    1.8543 C   0  0  0  0  0  0  0  0  0  0  0  0
   -4.4013    1.2406    1.4309 C   0  0  0  0  0  0  0  0  0  0  0  0
   -1.8240    2.9689    0.0794 C   0  0  0  0  0  0  0  0  0  0  0  0
   -2.9717    3.7200   -0.2543 C   0  0  0  0  0  0  0  0  0  0  0  0
   -3.0701    5.0675    0.1193 C   0  0  0  0  0  0  0  0  0  0  0  0
   -2.0257    5.6830    0.8265 C   0  0  0  0  0  0  0  0  0  0  0  0
   -0.8788    4.9432    1.1574 C   0  0  0  0  0  0  0  0  0  0  0  0
   -0.7763    3.5958    0.7886 C   0  0  0  0  0  0  0  0  0  0  0  0
    1.2188    0.1264    0.6588 C   0  0  0  0  0  3  0  0  0  0  0  0
    2.1733   -0.7311    1.3843 C   0  0  0  0  0  0  0  0  0  0  0  0
    2.3053   -0.6880    2.7919 C   0  0  0  0  0  0  0  0  0  0  0  0
    3.2017   -1.5275    3.4634 C   0  0  0  0  0  0  0  0  0  0  0  0
    3.9732   -2.4431    2.7275 C   0  0  0  0  0  0  0  0  0  0  0  0
    3.8486   -2.5233    1.3309 C   0  0  0  0  0  0  0  0  0  0  0  0
    2.9549   -1.6726    0.6709 C   0  0  0  0  0  0  0  0  0  0  0  0
    5.0879   -3.4986    3.5599 Cl  0  0  0  0  0  0  0  0  0  0  0  0
    1.6185    0.9848   -0.3382 C   0  0  0  0  0  0  0  0  0  0  0  0
    2.9744    1.4145   -0.7200 C   0  0  0  0  0  0  0  0  0  0  0  0
    4.0575    1.3950    0.1920 C   0  0  0  0  0  0  0  0  0  0  0  0
    5.3378    1.7990   -0.1958 C   0  0  0  0  0  0  0  0  0  0  0  0
    5.5573    2.2477   -1.5095 C   0  0  0  0  0  0  0  0  0  0  0  0
    4.4966    2.3069   -2.4266 C   0  0  0  0  0  0  0  0  0  0  0  0
    3.2196    1.8965   -2.0285 C   0  0  0  0  0  0  0  0  0  0  0  0
    7.1558    2.7507   -1.9976 Cl  0  0  0  0  0  0  0  0  0  0  0  0
   -0.3308   -3.0534   -1.0024 H   0  0  0  0  0  0  0  0  0  0  0  0
    1.2864   -4.4712   -2.2532 H   0  0  0  0  0  0  0  0  0  0  0  0
    2.6601   -3.4849   -4.1103 H   0  0  0  0  0  0  0  0  0  0  0  0
    2.3658   -1.0683   -4.7220 H   0  0  0  0  0  0  0  0  0  0  0  0
    0.7108    0.3399   -3.4919 H   0  0  0  0  0  0  0  0  0  0  0  0
   -2.4392   -1.9458   -3.3464 H   0  0  0  0  0  0  0  0  0  0  0  0
   -3.7486   -4.0175   -3.8333 H   0  0  0  0  0  0  0  0  0  0  0  0
   -5.0242   -5.1590   -1.9989 H   0  0  0  0  0  0  0  0  0  0  0  0
   -4.9779   -4.2113    0.3247 H   0  0  0  0  0  0  0  0  0  0  0  0
   -3.6614   -2.1407    0.8069 H   0  0  0  0  0  0  0  0  0  0  0  0
   -5.0170   -0.0444   -1.6869 H   0  0  0  0  0  0  0  0  0  0  0  0
   -7.3696    0.3001   -0.9265 H   0  0  0  0  0  0  0  0  0  0  0  0
   -7.8303    1.2551    1.3483 H   0  0  0  0  0  0  0  0  0  0  0  0
   -5.9138    1.8562    2.8546 H   0  0  0  0  0  0  0  0  0  0  0  0
   -3.5643    1.4945    2.0971 H   0  0  0  0  0  0  0  0  0  0  0  0
   -3.7890    3.2441   -0.8149 H   0  0  0  0  0  0  0  0  0  0  0  0
   -3.9712    5.6406   -0.1464 H   0  0  0  0  0  0  0  0  0  0  0  0
   -2.1059    6.7401    1.1220 H   0  0  0  0  0  0  0  0  0  0  0  0
   -0.0572    5.4172    1.7152 H   0  0  0  0  0  0  0  0  0  0  0  0
    0.1142    3.0126    1.0652 H   0  0  0  0  0  0  0  0  0  0  0  0
    1.6981    0.0248    3.3694 H   0  0  0  0  0  0  0  0  0  0  0  0
    3.3069   -1.4817    4.5564 H   0  0  0  0  0  0  0  0  0  0  0  0
    4.4503   -3.2527    0.7704 H   0  0  0  0  0  0  0  0  0  0  0  0
    2.8485   -1.7322   -0.4226 H   0  0  0  0  0  0  0  0  0  0  0  0
    3.8946    1.0675    1.2269 H   0  0  0  0  0  0  0  0  0  0  0  0
    6.1712    1.7792    0.5202 H   0  0  0  0  0  0  0  0  0  0  0  0
    4.6770    2.6742   -3.4466 H   0  0  0  0  0  0  0  0  0  0  0  0
    2.3880    1.9498   -2.7431 H   0  0  0  0  0  0  0  0  0  0  0  0
  1  6  1  1  0  0  0
  1  5  1  0  0  0  0
  2  1  1  0  0  0  0
  2  3  2  0  0  0  0
  3  4  1  0  0  0  0
  4 19  1  0  0  0  0
  5  4  2  0  0  0  0
  5 25  1  0  0  0  0
  6 39  1  0  0  0  0
  7  8  1  0  0  0  0
  7  2  1  0  0  0  0
  8 47  1  0  0  0  0
  9 48  1  0  0  0  0
  9  8  2  0  0  0  0
 10  9  1  0  0  0  0
 11 10  2  0  0  0  0
 11 12  1  0  0  0  0
 12  7  2  0  0  0  0
 13  3  1  0  0  0  0
 13 18  1  0  0  0  0
 14 13  2  0  0  0  0
 15 14  1  0  0  0  0
 15 16  2  0  0  0  0
 16 17  1  0  0  0  0
 17 18  2  0  0  0  0
 17 55  1  0  0  0  0
 18 56  1  0  0  0  0
 19 24  1  0  0  0  0
 20 21  1  0  0  0  0
 20 19  2  0  0  0  0
 21 22  2  0  0  0  0
 22 59  1  0  0  0  0
 22 23  1  0  0  0  0
 23 60  1  0  0  0  0
 24 23  2  0  0  0  0
 24 61  1  0  0  0  0
 25 30  1  0  0  0  0
 26 25  2  0  0  0  0
 26 27  1  0  0  0  0
 27 28  2  0  0  0  0
 28 64  1  0  0  0  0
 28 29  1  0  0  0  0
 29 65  1  0  0  0  0
 30 66  1  0  0  0  0
 30 29  2  0  0  0  0
 31 32  1  0  0  0  0
 32 33  1  0  0  0  0
 33 67  1  0  0  0  0
 33 34  2  0  0  0  0
 34 68  1  0  0  0  0
 35 34  1  0  0  0  0
 35 38  1  0  0  0  0
 36 35  2  0  0  0  0
 37 36  1  0  0  0  0
 37 32  2  0  0  0  0
 39 31  2  0  0  0  0
 40 39  1  0  0  0  0
 40 41  1  0  0  0  0
 41 71  1  0  0  0  0
 42 41  2  0  0  0  0
 42 72  1  0  0  0  0
 43 42  1  0  0  0  0
 44 45  1  0  0  0  0
 44 43  2  0  0  0  0
 45 40  2  0  0  0  0
 46 43  1  0  0  0  0
 49 10  1  0  0  0  0
 50 11  1  0  0  0  0
 51 12  1  0  0  0  0
 52 14  1  0  0  0  0
 53 15  1  0  0  0  0
 54 16  1  0  0  0  0
 57 20  1  0  0  0  0
 58 21  1  0  0  0  0
 62 26  1  0  0  0  0
 63 27  1  0  0  0  0
 69 36  1  0  0  0  0
 70 37  1  0  0  0  0
 73 44  1  0  0  0  0
 74 45  1  0  0  0  0
M  END
