17
q = -2.0, confidence = 0.614

 52 57  0  0  1  0  0  0  0  0999 V2000
   -1.1890   -1.8430   -1.4629 C   0  0  0  0  0  0  0  0  0  0  0  0
   -1.7065   -1.3881   -0.0777 C   0  0  1  0  0  0  0  0  0  0  0  0
   -1.0354   -0.0911    0.3323 C   0  0  0  0  0  3  0  0  0  0  0  0
   -1.8741    1.5764   -1.5110 C   0  0  0  0  0  0  0  0  0  0  0  0
   -1.8926    2.9180   -1.8750 C   0  0  0  0  0  0  0  0  0  0  0  0
   -1.2853    3.9162   -1.0641 C   0  0  0  0  0  0  0  0  0  0  0  0
   -0.6614    3.5827    0.1326 C   0  0  0  0  0  0  0  0  0  0  0  0
    0.5835    2.0846    2.8492 C   0  0  0  0  0  0  0  0  0  0  0  0
    0.9448    1.2051    3.8633 C   0  0  0  0  0  0  0  0  0  0  0  0
    0.6358   -0.1809    3.7736 C   0  0  0  0  0  0  0  0  0  0  0  0
   -0.0189   -0.7086    2.6676 C   0  0  0  0  0  0  0  0  0  0  0  0
   -1.2381    1.2013   -0.2925 C   0  0  0  0  0  0  0  0  0  0  0  0
   -0.6262    2.2259    0.5314 C   0  0  0  0  0  0  0  0  0  0  0  0
   -0.0924    1.5779    1.7137 C   0  0  0  0  0  0  0  0  0  0  0  0
   -0.3957    0.1643    1.6093 C   0  0  0  0  0  0  0  0  0  0  0  0
    0.2781   -1.5522   -1.6090 C   0  0  2  0  0  3  0  0  0  0  0  0
    0.8880   -0.7167   -2.5925 C   0  0  0  0  0  3  0  0  0  0  0  0
    2.2998   -0.6880   -2.3962 C   0  0  0  0  0  3  0  0  0  0  0  0
    3.8411   -2.0249   -0.7607 C   0  0  0  0  0  0  0  0  0  0  0  0
    3.8145   -2.9309    0.2850 C   0  0  0  0  0  0  0  0  0  0  0  0
    2.5808   -3.4349    0.8006 C   0  0  0  0  0  0  0  0  0  0  0  0
    1.3624   -3.0391    0.2725 C   0  0  0  0  0  0  0  0  0  0  0  0
    1.3494   -2.1116   -0.8135 C   0  0  0  0  0  0  0  0  0  0  0  0
    2.6077   -1.5958   -1.3301 C   0  0  0  0  0  0  0  0  0  0  0  0
   -3.8325   -0.5044    1.0136 C   0  0  0  0  0  0  0  0  0  0  0  0
   -5.2264   -0.4476    1.1488 C   0  0  0  0  0  0  0  0  0  0  0  0
   -6.0515   -1.2034    0.3008 C   0  0  0  0  0  0  0  0  0  0  0  0
   -5.4665   -2.0175   -0.6795 C   0  0  0  0  0  0  0  0  0  0  0  0
   -4.0697   -2.0747   -0.8117 C   0  0  0  0  0  0  0  0  0  0  0  0
   -3.2301   -1.3203    0.0329 C   0  0  0  0  0  0  0  0  0  0  0  0
   -1.7420   -1.3162   -2.2658 H   0  0  0  0  0  0  0  0  0  0  0  0
   -1.3785   -2.9268   -1.6163 H   0  0  0  0  0  0  0  0  0  0  0  0
   -1.3730   -2.1516    0.6591 H   0  0  0  0  0  0  0  0  0  0  0  0
   -2.3768    0.8210   -2.1311 H   0  0  0  0  0  0  0  0  0  0  0  0
   -2.3929    3.2176   -2.8082 H   0  0  0  0  0  0  0  0  0  0  0  0
   -1.3152    4.9660   -1.3907 H   0  0  0  0  0  0  0  0  0  0  0  0
   -0.1893    4.3552    0.7569 H   0  0  0  0  0  0  0  0  0  0  0  0
    0.8240    3.1556    2.9182 H   0  0  0  0  0  0  0  0  0  0  0  0
    1.4759    1.5813    4.7499 H   0  0  0  0  0  0  0  0  0  0  0  0
    0.9285   -0.8488    4.5976 H   0  0  0  0  0  0  0  0  0  0  0  0
   -0.2462   -1.7828    2.6123 H   0  0  0  0  0  0  0  0  0  0  0  0
    0.3399   -0.1337   -3.3445 H   0  0  0  0  0  0  0  0  0  0  0  0
    3.0215   -0.1120   -2.9852 H   0  0  0  0  0  0  0  0  0  0  0  0
    4.7908   -1.6306   -1.1495 H   0  0  0  0  0  0  0  0  0  0  0  0
    4.7589   -3.2725    0.7341 H   0  0  0  0  0  0  0  0  0  0  0  0
    2.6040   -4.1589    1.6289 H   0  0  0  0  0  0  0  0  0  0  0  0
    0.4220   -3.4588    0.6585 H   0  0  0  0  0  0  0  0  0  0  0  0
   -3.1962    0.0983    1.6789 H   0  0  0  0  0  0  0  0  0  0  0  0
   -5.6719    0.1985    1.9207 H   0  0  0  0  0  0  0  0  0  0  0  0
   -7.1462   -1.1555    0.4026 H   0  0  0  0  0  0  0  0  0  0  0  0
   -6.1010   -2.6147   -1.3524 H   0  0  0  0  0  0  0  0  0  0  0  0
   -3.6366   -2.7239   -1.5864 H   0  0  0  0  0  0  0  0  0  0  0  0
  1  2  1  0  0  0  0
  2 30  1  0  0  0  0
  2  3  1  0  0  0  0
  2 33  1  1  0  0  0
  3 15  1  0  0  0  0
  4 12  1  0  0  0  0
  5  4  2  0  0  0  0
  5  6  1  0  0  0  0
  6  7  2  0  0  0  0
  7 13  1  0  0  0  0
  7 37  1  0  0  0  0
  8 38  1  0  0  0  0
  8  9  1  0  0  0  0
  9 39  1  0  0  0  0
 10  9  2  0  0  0  0
 10 40  1  0  0  0  0
 11 10  1  0  0  0  0
 12  3  1  0  0  0  0
 12 13  2  0  0  0  0
 13 14  1  0  0  0  0
 14  8  2  0  0  0  0
 15 14  1  0  0  0  0
 15 11  2  0  0  0  0
 16  1  1  6  0  0  0
 16 23  1  0  0  0  0
 17 18  1  0  0  0  0
 17 16  1  0  0  0  0
 18 24  1  0  0  0  0
 19 20  1  0  0  0  0
 20 45  1  0  0  0  0
 20 21  2  0  0  0  0
 21 46  1  0  0  0  0
 22 47  1  0  0  0  0
 22 21  1  0  0  0  0
 23 22  2  0  0  0  0
 24 23  1  0  0  0  0
 24 19  2  0  0  0  0
 25 26  1  0  0  0  0
 25 48  1  0  0  0  0
 26 49  1  0  0  0  0
 27 50  1  0  0  0  0
 27 26  2  0  0  0  0
 28 27  1  0  0  0  0
 29 28  2  0  0  0  0
 29 30  1  0  0  0  0
 30 25  2  0  0  0  0
 31  1  1  0  0  0  0
 32  1  1  0  0  0  0
 34  4  1  0  0  0  0
 35  5  1  0  0  0  0
 36  6  1  0  0  0  0
 41 11  1  0  0  0  0
 42 17  1  0  0  0  0
 43 18  1  0  0  0  0
 44 19  1  0  0  0  0
 51 28  1  0  0  0  0
 52 29  1  0  0  0  0
M  END
