36
q = -2.0, confidence = 0.892

 51 52  0  0  1  0  0  0  0  0999 V2000
    1.6753    1.9262   -0.0983 Si  0  0  0  0  0  0  0  0  0  0  0  0
   -0.0370    1.5205    0.5821 C   0  0  2  0  0  3  0  0  0  0  0  0
   -0.2577    0.5589    1.6420 C   0  0  2  0  0  3  0  0  0  0  0  0
   -1.6760    0.3131    1.7329 C   0  0  0  0  0  0  0  0  0  0  0  0
   -2.3340    1.1091    0.7408 C   0  0  0  0  0  0  0  0  0  0  0  0
   -1.3350    1.8613    0.0346 C   0  0  1  0  0  3  0  0  0  0  0  0
    0.7649   -0.0275    2.5692 C   0  0  0  0  0  0  0  0  0  0  0  0
    0.4042   -0.9753    3.0124 H   0  0  0  0  0  0  0  0  0  0  0  0
    0.9900    0.6683    3.4063 H   0  0  0  0  0  0  0  0  0  0  0  0
    1.7129   -0.2542    2.0475 H   0  0  0  0  0  0  0  0  0  0  0  0
   -2.3664   -0.5310    2.7616 C   0  0  0  0  0  0  0  0  0  0  0  0
   -2.6292    0.0815    3.6507 H   0  0  0  0  0  0  0  0  0  0  0  0
   -3.3034   -0.9675    2.3663 H   0  0  0  0  0  0  0  0  0  0  0  0
   -1.7333   -1.3701    3.1052 H   0  0  0  0  0  0  0  0  0  0  0  0
   -3.8168    1.2205    0.5533 C   0  0  0  0  0  0  0  0  0  0  0  0
   -4.0845    1.4562   -0.4937 H   0  0  0  0  0  0  0  0  0  0  0  0
   -4.2315    2.0257    1.1974 H   0  0  0  0  0  0  0  0  0  0  0  0
   -4.3323    0.2785    0.8207 H   0  0  0  0  0  0  0  0  0  0  0  0
   -1.6675    2.8972   -0.9976 C   0  0  0  0  0  0  0  0  0  0  0  0
   -0.8248    3.1080   -1.6770 H   0  0  0  0  0  0  0  0  0  0  0  0
   -1.9410    3.8572   -0.5079 H   0  0  0  0  0  0  0  0  0  0  0  0
   -2.5308    2.5857   -1.6169 H   0  0  0  0  0  0  0  0  0  0  0  0
    1.7165    3.2891   -1.4148 C   0  0  0  0  0  0  0  0  0  0  0  0
    1.2112    3.0019   -2.3573 H   0  0  0  0  0  0  0  0  0  0  0  0
    2.7794    3.4967   -1.6600 H   0  0  0  0  0  0  0  0  0  0  0  0
    1.2673    4.2344   -1.0490 H   0  0  0  0  0  0  0  0  0  0  0  0
    2.8579    2.5025    1.2636 C   0  0  0  0  0  0  0  0  0  0  0  0
    2.8821    1.8302    2.1412 H   0  0  0  0  0  0  0  0  0  0  0  0
    3.8915    2.6074    0.8752 H   0  0  0  0  0  0  0  0  0  0  0  0
    2.5288    3.5028    1.6153 H   0  0  0  0  0  0  0  0  0  0  0  0
    2.1255    0.2680   -0.9656 C   0  0  1  0  0  0  0  0  0  0  0  0
    2.7890    0.5168   -1.8293 H   0  0  0  0  0  0  0  0  0  0  0  0
    2.7656   -0.8191   -0.1334 C   0  0  0  0  0  0  0  0  0  0  0  0
    1.9845   -1.9452   -0.1288 C   0  0  0  0  0  0  0  0  0  0  0  0
    0.8017   -1.7524   -1.0044 C   0  0  1  0  0  3  0  0  0  0  0  0
    0.8456   -0.3946   -1.4780 C   0  0  2  0  0  3  0  0  0  0  0  0
    4.0983   -0.6383    0.5266 C   0  0  0  0  0  0  0  0  0  0  0  0
    4.0470    0.0070    1.4299 H   0  0  0  0  0  0  0  0  0  0  0  0
    4.8177   -0.1456   -0.1620 H   0  0  0  0  0  0  0  0  0  0  0  0
    4.5378   -1.6052    0.8388 H   0  0  0  0  0  0  0  0  0  0  0  0
    2.2310   -3.2323    0.5943 C   0  0  0  0  0  0  0  0  0  0  0  0
    2.3165   -4.0874   -0.1096 H   0  0  0  0  0  0  0  0  0  0  0  0
    3.1528   -3.2026    1.2058 H   0  0  0  0  0  0  0  0  0  0  0  0
    1.3785   -3.4700    1.2658 H   0  0  0  0  0  0  0  0  0  0  0  0
    0.2960   -2.9190   -1.8228 C   0  0  0  0  0  0  0  0  0  0  0  0
    1.1184   -3.2883   -2.4746 H   0  0  0  0  0  0  0  0  0  0  0  0
   -0.0327   -3.7654   -1.1891 H   0  0  0  0  0  0  0  0  0  0  0  0
   -0.5555   -2.6329   -2.4673 H   0  0  0  0  0  0  0  0  0  0  0  0
   -0.1980    0.1198   -2.2987 C   0  0  0  0  0  3  0  0  0  0  0  0
   -0.6415   -0.5212   -3.0759 H   0  0  0  0  0  0  0  0  0  0  0  0
   -0.1777    1.1854   -2.5734 H   0  0  0  0  0  0  0  0  0  0  0  0
  1 27  1  0  0  0  0
  2  1  1  6  0  0  0
  2  3  1  0  0  0  0
  3  4  1  0  0  0  0
  3  7  1  1  0  0  0
  4 11  1  0  0  0  0
  5  4  2  0  0  0  0
  6 19  1  1  0  0  0
  6  2  1  0  0  0  0
  6  5  1  0  0  0  0
  7  8  1  0  0  0  0
  7  9  1  0  0  0  0
 10  7  1  0  0  0  0
 11 14  1  0  0  0  0
 11 12  1  0  0  0  0
 13 11  1  0  0  0  0
 15  5  1  0  0  0  0
 15 18  1  0  0  0  0
 15 17  1  0  0  0  0
 16 15  1  0  0  0  0
 19 21  1  0  0  0  0
 20 19  1  0  0  0  0
 22 19  1  0  0  0  0
 23 26  1  0  0  0  0
 23  1  1  0  0  0  0
 24 23  1  0  0  0  0
 25 23  1  0  0  0  0
 27 30  1  0  0  0  0
 27 28  1  0  0  0  0
 29 27  1  0  0  0  0
 31 32  1  6  0  0  0
 31 33  1  0  0  0  0
 31  1  1  0  0  0  0
 33 34  2  0  0  0  0
 33 37  1  0  0  0  0
 34 41  1  0  0  0  0
 35 45  1  6  0  0  0
 35 34  1  0  0  0  0
 36 49  1  6  0  0  0
 36 35  1  0  0  0  0
 36 31  1  0  0  0  0
 37 40  1  0  0  0  0
 37 38  1  0  0  0  0
 39 37  1  0  0  0  0
 41 43  1  0  0  0  0
 41 44  1  0  0  0  0
 42 41  1  0  0  0  0
 45 47  1  0  0  0  0
 46 45  1  0  0  0  0
 48 45  1  0  0  0  0
 50 49  1  0  0  0  0
 51 49  1  0  0  0  0
M  END
