4,15
q = -1.0

 33 35  0  0  1  0  0  0  0  0999 V2000
   -0.9895    1.7217   -0.8960 N   0  0  0  0  0  0  0  0  0  0  0  0
    0.2976    3.3950   -0.1598 N   0  0  0  0  0  0  0  0  0  0  0  0
    0.8768    2.1810    0.0408 N   0  0  0  0  0  0  0  0  0  0  0  0
    0.1338    1.1168   -0.3798 C   0  0  0  0  0  2  0  0  0  0  0  0
   -0.8462    3.0902   -0.7349 C   0  0  0  0  0  0  0  0  0  0  0  0
   -2.0645    0.9999   -1.5799 C   0  0  2  0  0  0  0  0  0  0  0  0
   -2.5173    1.7511   -2.8378 C   0  0  0  0  0  0  0  0  0  0  0  0
   -3.2221    0.6601   -0.6481 C   0  0  0  0  0  0  0  0  0  0  0  0
   -4.0904   -0.3929   -1.0028 C   0  0  0  0  0  0  0  0  0  0  0  0
   -5.1642   -0.7483   -0.1750 C   0  0  0  0  0  0  0  0  0  0  0  0
   -5.3882   -0.0533    1.0252 C   0  0  0  0  0  0  0  0  0  0  0  0
   -4.5333    0.9986    1.3843 C   0  0  0  0  0  0  0  0  0  0  0  0
   -3.4573    1.3528    0.5534 C   0  0  0  0  0  0  0  0  0  0  0  0
    2.1990    1.8950    0.4452 C   0  0  0  0  0  0  0  0  0  0  0  0
    2.4860    0.5136    0.2972 C   0  0  0  0  0  3  0  0  0  0  0  0
    3.8066    0.1358    0.6148 C   0  0  0  0  0  0  0  0  0  0  0  0
    4.7464    1.0774    1.0751 C   0  0  0  0  0  0  0  0  0  0  0  0
    4.4023    2.4331    1.2201 C   0  0  0  0  0  0  0  0  0  0  0  0
    3.1065    2.8600    0.8932 C   0  0  0  0  0  0  0  0  0  0  0  0
   -1.5817    0.0511   -1.8953 H   0  0  0  0  0  0  0  0  0  0  0  0
   -1.5938    3.8254   -1.0499 H   0  0  0  0  0  0  0  0  0  0  0  0
   -3.9118   -0.9516   -1.9359 H   0  0  0  0  0  0  0  0  0  0  0  0
   -5.8261   -1.5786   -0.4643 H   0  0  0  0  0  0  0  0  0  0  0  0
   -6.2265   -0.3350    1.6799 H   0  0  0  0  0  0  0  0  0  0  0  0
   -4.6972    1.5471    2.3242 H   0  0  0  0  0  0  0  0  0  0  0  0
   -2.7841    2.1674    0.8590 H   0  0  0  0  0  0  0  0  0  0  0  0
    4.1214   -0.9117    0.4906 H   0  0  0  0  0  0  0  0  0  0  0  0
    5.7688    0.7467    1.3171 H   0  0  0  0  0  0  0  0  0  0  0  0
    5.1469    3.1608    1.5758 H   0  0  0  0  0  0  0  0  0  0  0  0
    2.7997    3.9134    0.9660 H   0  0  0  0  0  0  0  0  0  0  0  0
   -3.2493    1.1346   -3.3930 H   0  0  0  0  0  0  0  0  0  0  0  0
   -3.0168    2.7088   -2.5897 H   0  0  0  0  0  0  0  0  0  0  0  0
   -1.6490    1.9453   -3.4971 H   0  0  0  0  0  0  0  0  0  0  0  0
  1  5  1  0  0  0  0
  1  4  1  0  0  0  0
  2  3  1  0  0  0  0
  3 14  1  0  0  0  0
  4  3  1  0  0  0  0
  5  2  2  0  0  0  0
  6 20  1  6  0  0  0
  6  1  1  0  0  0  0
  6  8  1  0  0  0  0
  7 32  1  0  0  0  0
  7  6  1  0  0  0  0
  8 13  1  0  0  0  0
  9  8  2  0  0  0  0
  9 10  1  0  0  0  0
 10 11  2  0  0  0  0
 11 12  1  0  0  0  0
 11 24  1  0  0  0  0
 12 25  1  0  0  0  0
 13 26  1  0  0  0  0
 13 12  2  0  0  0  0
 14 19  1  0  0  0  0
 15 14  2  0  0  0  0
 15 16  1  0  0  0  0
 16 17  2  0  0  0  0
 17 18  1  0  0  0  0
 17 28  1  0  0  0  0
 18 29  1  0  0  0  0
 19 30  1  0  0  0  0
 19 18  2  0  0  0  0
 21  5  1  0  0  0  0
 22  9  1  0  0  0  0
 23 10  1  0  0  0  0
 27 16  1  0  0  0  0
 31  7  1  0  0  0  0
 33  7  1  0  0  0  0
M  END
