8
q = -2.0, confidence = 0.914

 50 53  0  0  1  0  0  0  0  0999 V2000
    2.6054    1.4597    0.5543 C   0  0  2  0  0  3  0  0  0  0  0  0
    1.4101    2.2595    0.4825 C   0  0  0  0  0  0  0  0  0  0  0  0
    1.1758    2.9993   -0.2922 H   0  0  0  0  0  0  0  0  0  0  0  0
    0.5695    1.9512    1.5875 C   0  0  0  0  0  0  0  0  0  0  0  0
    1.2281    0.9329    2.3539 C   0  0  0  0  0  0  0  0  0  0  0  0
    2.4441    0.6138    1.7081 C   0  0  0  0  0  0  0  0  0  0  0  0
    3.1743   -0.1044    2.0903 H   0  0  0  0  0  0  0  0  0  0  0  0
    2.6053   -1.4596   -0.5537 C   0  0  1  0  0  3  0  0  0  0  0  0
    2.4428   -0.6141   -1.7076 C   0  0  0  0  0  0  0  0  0  0  0  0
    3.1725    0.1042   -2.0905 H   0  0  0  0  0  0  0  0  0  0  0  0
    1.2268   -0.9345   -2.3528 C   0  0  0  0  0  0  0  0  0  0  0  0
    0.5691   -1.9527   -1.5856 C   0  0  0  0  0  0  0  0  0  0  0  0
    1.4104   -2.2600   -0.4808 C   0  0  0  0  0  0  0  0  0  0  0  0
    1.1769   -2.9995    0.2943 H   0  0  0  0  0  0  0  0  0  0  0  0
   -0.7190    2.5936    1.9893 C   0  0  0  0  0  0  0  0  0  0  0  0
   -0.5840    3.1345    2.9507 H   0  0  0  0  0  0  0  0  0  0  0  0
   -1.0813    3.3160    1.2369 H   0  0  0  0  0  0  0  0  0  0  0  0
   -1.5160    1.8405    2.1485 H   0  0  0  0  0  0  0  0  0  0  0  0
    0.6924    0.3187    3.6021 C   0  0  0  0  0  0  0  0  0  0  0  0
    0.5079    1.0928    4.3758 H   0  0  0  0  0  0  0  0  0  0  0  0
   -0.2759   -0.1812    3.3909 H   0  0  0  0  0  0  0  0  0  0  0  0
    1.3906   -0.4320    4.0185 H   0  0  0  0  0  0  0  0  0  0  0  0
    0.6901   -0.3212   -3.6010 C   0  0  0  0  0  0  0  0  0  0  0  0
    0.5038   -1.0960   -4.3736 H   0  0  0  0  0  0  0  0  0  0  0  0
   -0.2774    0.1801   -3.3892 H   0  0  0  0  0  0  0  0  0  0  0  0
    1.3886    0.4283   -4.0193 H   0  0  0  0  0  0  0  0  0  0  0  0
   -0.7190   -2.5963   -1.9867 C   0  0  0  0  0  0  0  0  0  0  0  0
   -0.5836   -3.1385   -2.9473 H   0  0  0  0  0  0  0  0  0  0  0  0
   -1.0811   -3.3178   -1.2334 H   0  0  0  0  0  0  0  0  0  0  0  0
   -1.5164   -1.8438   -2.1471 H   0  0  0  0  0  0  0  0  0  0  0  0
    3.8092    1.6278   -0.2798 C   0  0  0  0  0  0  0  0  0  0  0  0
    3.9499    2.8201   -1.0272 C   0  0  0  0  0  0  0  0  0  0  0  0
    3.1730    3.5927   -0.9414 H   0  0  0  0  0  0  0  0  0  0  0  0
    5.0558    3.0567   -1.8517 C   0  0  0  0  0  0  0  0  0  0  0  0
    5.1248    3.9981   -2.4175 H   0  0  0  0  0  0  0  0  0  0  0  0
    6.0735    2.0966   -1.9393 C   0  0  0  0  0  0  0  0  0  0  0  0
    6.9513    2.2644   -2.5810 H   0  0  0  0  0  0  0  0  0  0  0  0
    5.9606    0.9136   -1.1973 C   0  0  0  0  0  0  0  0  0  0  0  0
    6.7457    0.1458   -1.2708 H   0  0  0  0  0  0  0  0  0  0  0  0
    4.8462    0.6492   -0.3719 C   0  0  0  0  0  0  0  0  0  0  0  0
    3.8101   -1.6272    0.2793 C   0  0  0  0  0  0  0  0  0  0  0  0
    3.9519   -2.8194    1.0266 C   0  0  0  0  0  0  0  0  0  0  0  0
    3.1752   -3.5924    0.9415 H   0  0  0  0  0  0  0  0  0  0  0  0
    5.0587   -3.0557    1.8498 C   0  0  0  0  0  0  0  0  0  0  0  0
    5.1287   -3.9971    2.4156 H   0  0  0  0  0  0  0  0  0  0  0  0
    6.0762   -2.0953    1.9363 C   0  0  0  0  0  0  0  0  0  0  0  0
    6.9547   -2.2627    2.5772 H   0  0  0  0  0  0  0  0  0  0  0  0
    5.9622   -0.9123    1.1944 C   0  0  0  0  0  0  0  0  0  0  0  0
    6.7471   -0.1443    1.2671 H   0  0  0  0  0  0  0  0  0  0  0  0
    4.8468   -0.6483    0.3702 C   0  0  0  0  0  0  0  0  0  0  0  0
  1 31  1  1  0  0  0
  1  6  1  0  0  0  0
  2  1  1  0  0  0  0
  2  4  2  0  0  0  0
  3  2  1  0  0  0  0
  4 15  1  0  0  0  0
  4  5  1  0  0  0  0
  5 19  1  0  0  0  0
  6  7  1  0  0  0  0
  6  5  2  0  0  0  0
  8 13  1  0  0  0  0
  8 41  1  6  0  0  0
  9  8  1  0  0  0  0
 10  9  1  0  0  0  0
 11  9  2  0  0  0  0
 11 12  1  0  0  0  0
 12 13  2  0  0  0  0
 13 14  1  0  0  0  0
 15 18  1  0  0  0  0
 15 16  1  0  0  0  0
 17 15  1  0  0  0  0
 19 22  1  0  0  0  0
 19 20  1  0  0  0  0
 21 19  1  0  0  0  0
 23 25  1  0  0  0  0
 23 11  1  0  0  0  0
 24 23  1  0  0  0  0
 26 23  1  0  0  0  0
 27 12  1  0  0  0  0
 27 29  1  0  0  0  0
 28 27  1  0  0  0  0
 30 27  1  0  0  0  0
 32 33  1  0  0  0  0
 32 31  2  0  0  0  0
 34 32  1  0  0  0  0
 35 34  1  0  0  0  0
 36 34  2  0  0  0  0
 36 38  1  0  0  0  0
 37 36  1  0  0  0  0
 38 40  2  0  0  0  0
 39 38  1  0  0  0  0
 40 31  1  0  0  0  0
 40 50  1  0  0  0  0
 41 50  2  0  0  0  0
 41 42  1  0  0  0  0
 42 44  2  0  0  0  0
 43 42  1  0  0  0  0
 44 46  1  0  0  0  0
 44 45  1  0  0  0  0
 46 47  1  0  0  0  0
 48 49  1  0  0  0  0
 48 46  2  0  0  0  0
 50 48  1  0  0  0  0
M  END
