5,38
q = -1.0

 38 40  0  0  0  0  0  0  0  0999 V2000
   -0.1719    2.1664    0.2373 Si  0  0  0  0  0  0  0  0  0  0  0  0
    1.6563    0.6366   -1.4999 C   0  0  0  0  0  3  0  0  0  0  0  0
    2.6615    0.2387   -1.7115 H   0  0  0  0  0  0  0  0  0  0  0  0
    1.0974    0.9971   -2.3790 H   0  0  0  0  0  0  0  0  0  0  0  0
    1.3473    1.1143   -0.1985 C   0  0  0  0  0  3  0  0  0  0  0  0
    2.1480    1.0125    0.5576 H   0  0  0  0  0  0  0  0  0  0  0  0
    0.1415    4.0279    0.1819 C   0  0  0  0  0  0  0  0  0  0  0  0
    0.2476    4.6820   -1.0679 C   0  0  0  0  0  0  0  0  0  0  0  0
    0.1144    4.1051   -1.9978 H   0  0  0  0  0  0  0  0  0  0  0  0
    0.5134    6.0575   -1.1428 C   0  0  0  0  0  0  0  0  0  0  0  0
    0.5904    6.5503   -2.1244 H   0  0  0  0  0  0  0  0  0  0  0  0
    0.6785    6.8055    0.0346 C   0  0  0  0  0  0  0  0  0  0  0  0
    0.8855    7.8854   -0.0225 H   0  0  0  0  0  0  0  0  0  0  0  0
    0.5766    6.1735    1.2842 C   0  0  0  0  0  0  0  0  0  0  0  0
    0.7038    6.7574    2.2090 H   0  0  0  0  0  0  0  0  0  0  0  0
    0.3103    4.7970    1.3553 C   0  0  0  0  0  0  0  0  0  0  0  0
    0.2271    4.3110    2.3408 H   0  0  0  0  0  0  0  0  0  0  0  0
   -0.7872    1.6562    1.9566 C   0  0  0  0  0  0  0  0  0  0  0  0
   -0.2307    0.5792    2.6828 C   0  0  0  0  0  0  0  0  0  0  0  0
    0.6603    0.0578    2.2996 H   0  0  0  0  0  0  0  0  0  0  0  0
   -0.8215    0.1232    3.8721 C   0  0  0  0  0  0  0  0  0  0  0  0
   -0.3765   -0.7288    4.4089 H   0  0  0  0  0  0  0  0  0  0  0  0
   -1.9831    0.7410    4.3621 C   0  0  0  0  0  0  0  0  0  0  0  0
   -2.4532    0.3798    5.2899 H   0  0  0  0  0  0  0  0  0  0  0  0
   -2.5449    1.8224    3.6627 C   0  0  0  0  0  0  0  0  0  0  0  0
   -3.4547    2.3123    4.0430 H   0  0  0  0  0  0  0  0  0  0  0  0
   -1.9511    2.2725    2.4731 C   0  0  0  0  0  0  0  0  0  0  0  0
   -2.4125    3.1120    1.9268 H   0  0  0  0  0  0  0  0  0  0  0  0
   -1.3596    1.5766   -1.0855 C   0  0  0  0  0  0  0  0  0  0  0  0
   -2.3884    2.3010   -1.7221 C   0  0  0  0  0  0  0  0  0  0  0  0
   -2.5905    3.3439   -1.4258 H   0  0  0  0  0  0  0  0  0  0  0  0
   -3.1502    1.7018   -2.7364 C   0  0  0  0  0  0  0  0  0  0  0  0
   -3.9638    2.2600   -3.2244 H   0  0  0  0  0  0  0  0  0  0  0  0
   -2.8551    0.3880   -3.1406 C   0  0  0  0  0  0  0  0  0  0  0  0
   -3.4358   -0.0797   -3.9513 H   0  0  0  0  0  0  0  0  0  0  0  0
   -1.8298   -0.3395   -2.5144 C   0  0  0  0  0  0  0  0  0  0  0  0
   -1.6226   -1.3698   -2.8423 H   0  0  0  0  0  0  0  0  0  0  0  0
   -1.0993    0.2297   -1.4528 C   0  0  0  0  0  3  0  0  0  0  0  0
  1 18  1  0  0  0  0
  2  5  1  0  0  0  0
  3  2  1  0  0  0  0
  4  2  1  0  0  0  0
  5  1  1  0  0  0  0
  5  6  1  0  0  0  0
  7  1  1  0  0  0  0
  7 16  1  0  0  0  0
  8  7  2  0  0  0  0
  9  8  1  0  0  0  0
 10  8  1  0  0  0  0
 10 12  2  0  0  0  0
 11 10  1  0  0  0  0
 12 14  1  0  0  0  0
 13 12  1  0  0  0  0
 14 16  2  0  0  0  0
 14 15  1  0  0  0  0
 16 17  1  0  0  0  0
 18 27  2  0  0  0  0
 18 19  1  0  0  0  0
 19 21  2  0  0  0  0
 20 19  1  0  0  0  0
 21 23  1  0  0  0  0
 21 22  1  0  0  0  0
 23 24  1  0  0  0  0
 25 26  1  0  0  0  0
 25 23  2  0  0  0  0
 27 25  1  0  0  0  0
 28 27  1  0  0  0  0
 29  1  1  0  0  0  0
 30 31  1  0  0  0  0
 30 29  2  0  0  0  0
 32 30  1  0  0  0  0
 33 32  1  0  0  0  0
 34 32  2  0  0  0  0
 34 36  1  0  0  0  0
 35 34  1  0  0  0  0
 36 38  2  0  0  0  0
 37 36  1  0  0  0  0
 38 29  1  0  0  0  0
M  END
