1,3
q = -2.0, confidence = 0.69

 20 21  0  0  1  0  0  0  0  0999 V2000
    0.8315    0.0908   -1.9232 C   0  0  0  0  0  3  0  0  0  0  0  0
    1.7546   -0.6243   -0.8868 C   0  0  2  0  0  0  0  0  0  0  0  0
    1.5955   -0.1505    0.6724 C   0  0  0  0  0  3  0  0  0  0  0  0
    2.9381    0.5193    0.9933 C   0  0  1  0  0  0  0  0  0  0  0  0
    3.9849   -0.6014    1.2084 C   0  0  0  0  0  0  0  0  0  0  0  0
    4.1316   -1.1950   -0.2268 C   0  0  0  0  0  0  0  0  0  0  0  0
    3.2555   -0.2614   -1.0978 C   0  0  2  0  0  0  0  0  0  0  0  0
    3.3923    1.0835   -0.3667 C   0  0  0  0  0  0  0  0  0  0  0  0
    0.4049   -0.6201   -2.6526 H   0  0  0  0  0  0  0  0  0  0  0  0
    1.3619    0.8978   -2.4590 H   0  0  0  0  0  0  0  0  0  0  0  0
    1.6171   -1.7219   -0.9611 H   0  0  0  0  0  0  0  0  0  0  0  0
    1.4431   -1.0319    1.3248 H   0  0  0  0  0  0  0  0  0  0  0  0
    2.8811    1.2422    1.8329 H   0  0  0  0  0  0  0  0  0  0  0  0
    3.6436   -1.3478    1.9538 H   0  0  0  0  0  0  0  0  0  0  0  0
    4.9474   -0.1856    1.5743 H   0  0  0  0  0  0  0  0  0  0  0  0
    3.7981   -2.2506   -0.2969 H   0  0  0  0  0  0  0  0  0  0  0  0
    5.1841   -1.1653   -0.5743 H   0  0  0  0  0  0  0  0  0  0  0  0
    3.5252   -0.2672   -2.1721 H   0  0  0  0  0  0  0  0  0  0  0  0
    2.7274    1.8664   -0.7741 H   0  0  0  0  0  0  0  0  0  0  0  0
    4.4340    1.4656   -0.3577 H   0  0  0  0  0  0  0  0  0  0  0  0
  1  2  1  0  0  0  0
  2 11  1  6  0  0  0
  2  3  1  0  0  0  0
  3  4  1  0  0  0  0
  3 12  1  0  0  0  0
  4  5  1  0  0  0  0
  4 13  1  1  0  0  0
  5 15  1  0  0  0  0
  5 14  1  0  0  0  0
  6  5  1  0  0  0  0
  7 18  1  6  0  0  0
  7  2  1  0  0  0  0
  7  8  1  0  0  0  0
  7  6  1  0  0  0  0
  8 20  1  0  0  0  0
  8  4  1  0  0  0  0
  9  1  1  0  0  0  0
 10  1  1  0  0  0  0
 16  6  1  0  0  0  0
 17  6  1  0  0  0  0
 19  8  1  0  0  0  0
M  END
