19,27
q = 0.0, confidence = 0.544

 44 46  0  0  1  0  0  0  0  0999 V2000
    1.3676   -0.5869    0.7196 C   0  0  2  0  0  0  0  0  0  0  0  0
    0.3931   -1.7077    1.1823 C   0  0  0  0  0  0  0  0  0  0  0  0
    0.9419   -2.5964    1.5411 H   0  0  0  0  0  0  0  0  0  0  0  0
   -0.2460   -1.3253    2.0013 H   0  0  0  0  0  0  0  0  0  0  0  0
   -0.5422   -2.0376   -0.0087 C   0  0  2  0  0  0  0  0  0  0  0  0
   -0.1622   -2.8786   -0.6281 H   0  0  0  0  0  0  0  0  0  0  0  0
   -0.5117   -0.7702   -0.8265 C   0  0  0  0  0  0  0  0  0  0  0  0
   -1.1653   -0.1260   -1.9221 C   0  0  0  0  0  0  0  0  0  0  0  0
   -2.0310   -0.4990   -2.4772 H   0  0  0  0  0  0  0  0  0  0  0  0
   -0.4550    1.1133   -2.1400 C   0  0  0  0  0  0  0  0  0  0  0  0
   -0.7225    1.8730   -2.8865 H   0  0  0  0  0  0  0  0  0  0  0  0
    0.6342    1.2329   -1.2021 C   0  0  0  0  0  0  0  0  0  0  0  0
    1.4776    2.4329   -0.8613 C   0  0  0  0  0  0  0  0  0  0  0  0
    1.5504    3.1200   -1.7276 H   0  0  0  0  0  0  0  0  0  0  0  0
    2.5056    2.0837   -0.6396 H   0  0  0  0  0  0  0  0  0  0  0  0
    0.8305    3.1457    0.3590 C   0  0  0  0  0  0  0  0  0  0  0  0
    1.6105    3.6242    0.9995 H   0  0  0  0  0  0  0  0  0  0  0  0
    0.2039    3.9756   -0.0269 H   0  0  0  0  0  0  0  0  0  0  0  0
   -0.0826    2.2254    1.1984 C   0  0  0  0  0  3  0  0  0  0  0  0
   -0.7980    2.8657    1.7512 H   0  0  0  0  0  0  0  0  0  0  0  0
    0.6155    1.3609    2.2569 C   0  0  0  0  0  0  0  0  0  0  0  0
    1.0521    2.0466    3.0224 H   0  0  0  0  0  0  0  0  0  0  0  0
   -0.1546    0.7758    2.8039 H   0  0  0  0  0  0  0  0  0  0  0  0
    1.7561    0.4386    1.8134 C   0  0  0  0  0  0  0  0  0  0  0  0
    2.5963    1.0484    1.4265 H   0  0  0  0  0  0  0  0  0  0  0  0
    2.1556   -0.1132    2.6909 H   0  0  0  0  0  0  0  0  0  0  0  0
    0.5884    0.0391   -0.4071 C   0  0  2  0  0  3  0  0  0  0  0  0
    2.8614   -2.4276    0.0858 O   0  0  0  0  0  0  0  0  0  0  0  0
    3.4585   -0.2930   -0.3986 O   0  0  0  0  0  0  0  0  0  0  0  0
    2.6310   -1.2330    0.1191 C   0  0  0  0  0  0  0  0  0  0  0  0
    4.6808   -0.7698   -1.0108 C   0  0  0  0  0  0  0  0  0  0  0  0
    4.4615   -1.7164   -1.5444 H   0  0  0  0  0  0  0  0  0  0  0  0
    4.9449    0.0135   -1.7476 H   0  0  0  0  0  0  0  0  0  0  0  0
    5.7778   -0.9664    0.0214 C   0  0  0  0  0  0  0  0  0  0  0  0
    6.7222   -1.2582   -0.4808 H   0  0  0  0  0  0  0  0  0  0  0  0
    5.5051   -1.7707    0.7319 H   0  0  0  0  0  0  0  0  0  0  0  0
    5.9632   -0.0330    0.5895 H   0  0  0  0  0  0  0  0  0  0  0  0
   -1.8222   -2.4072    0.5344 O   0  0  0  0  0  0  0  0  0  0  0  0
   -2.6026   -2.8442   -1.5519 O   0  0  0  0  0  0  0  0  0  0  0  0
   -2.7877   -2.7754   -0.3515 C   0  0  0  0  0  0  0  0  0  0  0  0
   -4.0819   -3.0478    0.3728 C   0  0  0  0  0  0  0  0  0  0  0  0
   -4.4115   -2.1218    0.8857 H   0  0  0  0  0  0  0  0  0  0  0  0
   -3.9287   -3.8130    1.1589 H   0  0  0  0  0  0  0  0  0  0  0  0
   -4.8491   -3.3829   -0.3456 H   0  0  0  0  0  0  0  0  0  0  0  0
  1 30  1  6  0  0  0
  1  2  1  0  0  0  0
  1 24  1  0  0  0  0
  2  3  1  0  0  0  0
  2  4  1  0  0  0  0
  5  6  1  6  0  0  0
  5 38  1  0  0  0  0
  5  2  1  0  0  0  0
  7 27  1  0  0  0  0
  7  5  1  0  0  0  0
  8  7  2  0  0  0  0
  9  8  1  0  0  0  0
 10  8  1  0  0  0  0
 10 12  2  0  0  0  0
 11 10  1  0  0  0  0
 12 13  1  0  0  0  0
 13 15  1  0  0  0  0
 13 16  1  0  0  0  0
 14 13  1  0  0  0  0
 16 17  1  0  0  0  0
 16 19  1  0  0  0  0
 18 16  1  0  0  0  0
 19 20  1  0  0  0  0
 19 21  1  0  0  0  0
 21 23  1  0  0  0  0
 21 22  1  0  0  0  0
 24 21  1  0  0  0  0
 24 26  1  0  0  0  0
 25 24  1  0  0  0  0
 27 12  1  6  0  0  0
 27  1  1  0  0  0  0
 28 30  2  0  0  0  0
 29 30  1  0  0  0  0
 31 29  1  0  0  0  0
 31 34  1  0  0  0  0
 32 31  1  0  0  0  0
 33 31  1  0  0  0  0
 34 37  1  0  0  0  0
 34 36  1  0  0  0  0
 35 34  1  0  0  0  0
 39 40  2  0  0  0  0
 40 41  1  0  0  0  0
 40 38  1  0  0  0  0
 41 42  1  0  0  0  0
 41 43  1  0  0  0  0
 44 41  1  0  0  0  0
M  END
