14,17
q = 0.0, confidence = 1.0

 49 51  0  0  1  0  0  0  0  0999 V2000
   -3.0587    1.5439    0.0060 Si  0  0  0  0  0  0  0  0  0  0  0  0
   -2.3711    0.1176   -0.6149 O   0  0  0  0  0  0  0  0  0  0  0  0
   -1.2182   -0.6609   -0.2469 C   0  0  1  0  0  0  0  0  0  0  0  0
   -1.6087   -1.5353    0.9844 C   0  0  1  0  0  0  0  0  0  0  0  0
   -2.6515   -2.5188    0.3613 C   0  0  0  0  0  0  0  0  0  0  0  0
   -2.3601   -2.5678   -1.1633 C   0  0  0  0  0  0  0  0  0  0  0  0
   -1.0894   -1.7135   -1.3840 C   0  0  2  0  0  0  0  0  0  0  0  0
    0.2163   -2.5280   -1.3918 C   0  0  0  0  0  0  0  0  0  0  0  0
    0.3944   -3.6064   -0.3112 C   0  0  0  0  0  0  0  0  0  0  0  0
    0.3859   -3.1372    1.1214 C   0  0  0  0  0  0  0  0  0  0  0  0
   -0.4627   -2.2445    1.6708 C   0  0  0  0  0  0  0  0  0  0  0  0
   -0.0621    0.3156   -0.0823 C   0  0  0  0  0  0  0  0  0  0  0  0
    0.4788    0.9718   -1.2248 C   0  0  0  0  0  0  0  0  0  0  0  0
    1.4269    2.0277   -1.0851 C   0  0  0  0  0  3  0  0  0  0  0  0
    1.9087    2.4664    0.1932 C   0  0  0  0  0  0  0  0  0  0  0  0
    1.3557    1.8233    1.3370 C   0  0  0  0  0  0  0  0  0  0  0  0
    0.3960    0.7752    1.1953 C   0  0  0  0  0  3  0  0  0  0  0  0
    2.9137    3.5774    0.3112 C   0  0  0  0  0  0  0  0  0  0  0  0
   -2.0961    3.0772   -0.5275 C   0  0  0  0  0  0  0  0  0  0  0  0
   -4.7664    1.5490   -0.7832 C   0  0  0  0  0  0  0  0  0  0  0  0
   -3.2102    1.5319    1.8913 C   0  0  0  0  0  0  0  0  0  0  0  0
   -2.1013   -0.8838    1.7294 H   0  0  0  0  0  0  0  0  0  0  0  0
   -3.6778   -2.1475    0.5461 H   0  0  0  0  0  0  0  0  0  0  0  0
   -2.5732   -3.5119    0.8439 H   0  0  0  0  0  0  0  0  0  0  0  0
   -3.2031   -2.1237   -1.7234 H   0  0  0  0  0  0  0  0  0  0  0  0
   -2.2234   -3.6017   -1.5392 H   0  0  0  0  0  0  0  0  0  0  0  0
   -1.1583   -1.1725   -2.3500 H   0  0  0  0  0  0  0  0  0  0  0  0
    0.2816   -3.0302   -2.3806 H   0  0  0  0  0  0  0  0  0  0  0  0
    1.0748   -1.8275   -1.3309 H   0  0  0  0  0  0  0  0  0  0  0  0
    1.3531   -4.1282   -0.5080 H   0  0  0  0  0  0  0  0  0  0  0  0
   -0.3874   -4.3930   -0.4347 H   0  0  0  0  0  0  0  0  0  0  0  0
    1.1471   -3.5813    1.7842 H   0  0  0  0  0  0  0  0  0  0  0  0
   -0.3414   -2.0349    2.7477 H   0  0  0  0  0  0  0  0  0  0  0  0
    0.1853    0.6427   -2.2307 H   0  0  0  0  0  0  0  0  0  0  0  0
    1.8960    2.4386   -1.9916 H   0  0  0  0  0  0  0  0  0  0  0  0
    1.7179    2.0894    2.3406 H   0  0  0  0  0  0  0  0  0  0  0  0
    0.0872    0.2268    2.0952 H   0  0  0  0  0  0  0  0  0  0  0  0
    2.4065    4.5658    0.3425 H   0  0  0  0  0  0  0  0  0  0  0  0
    3.6060    3.5831   -0.5527 H   0  0  0  0  0  0  0  0  0  0  0  0
    3.5153    3.4755    1.2347 H   0  0  0  0  0  0  0  0  0  0  0  0
   -2.6799    3.9894   -0.2827 H   0  0  0  0  0  0  0  0  0  0  0  0
   -1.1143    3.1509   -0.0197 H   0  0  0  0  0  0  0  0  0  0  0  0
   -1.9149    3.0717   -1.6215 H   0  0  0  0  0  0  0  0  0  0  0  0
   -4.6861    1.5292   -1.8889 H   0  0  0  0  0  0  0  0  0  0  0  0
   -5.3374    2.4558   -0.4959 H   0  0  0  0  0  0  0  0  0  0  0  0
   -5.3494    0.6595   -0.4692 H   0  0  0  0  0  0  0  0  0  0  0  0
   -3.7337    2.4535    2.2223 H   0  0  0  0  0  0  0  0  0  0  0  0
   -2.2194    1.5175    2.3883 H   0  0  0  0  0  0  0  0  0  0  0  0
   -3.7967    0.6635    2.2538 H   0  0  0  0  0  0  0  0  0  0  0  0
  1 21  1  0  0  0  0
  2  1  1  0  0  0  0
  3  2  1  6  0  0  0
  3 12  1  0  0  0  0
  3  4  1  0  0  0  0
  4 11  1  0  0  0  0
  4 22  1  1  0  0  0
  5 23  1  0  0  0  0
  5 24  1  0  0  0  0
  5  4  1  0  0  0  0
  6  5  1  0  0  0  0
  7 27  1  6  0  0  0
  7  6  1  0  0  0  0
  7  3  1  0  0  0  0
  8  7  1  0  0  0  0
  8 29  1  0  0  0  0
  8  9  1  0  0  0  0
  9 10  1  0  0  0  0
 10 11  2  0  0  0  0
 10 32  1  0  0  0  0
 11 33  1  0  0  0  0
 12 17  1  0  0  0  0
 13 14  1  0  0  0  0
 13 12  2  0  0  0  0
 14 15  1  0  0  0  0
 15 18  1  0  0  0  0
 15 16  2  0  0  0  0
 16 36  1  0  0  0  0
 17 16  1  0  0  0  0
 17 37  1  0  0  0  0
 18 38  1  0  0  0  0
 18 40  1  0  0  0  0
 19 41  1  0  0  0  0
 19 42  1  0  0  0  0
 19  1  1  0  0  0  0
 20 45  1  0  0  0  0
 20 46  1  0  0  0  0
 20  1  1  0  0  0  0
 21 47  1  0  0  0  0
 21 49  1  0  0  0  0
 21 48  1  0  0  0  0
 25  6  1  0  0  0  0
 26  6  1  0  0  0  0
 28  8  1  0  0  0  0
 30  9  1  0  0  0  0
 31  9  1  0  0  0  0
 34 13  1  0  0  0  0
 35 14  1  0  0  0  0
 39 18  1  0  0  0  0
 43 19  1  0  0  0  0
 44 20  1  0  0  0  0
M  END
