9
q = -2.0, confidence = 0.758

 23 23  0  0  1  0  0  0  0  0999 V2000
    1.8874   -0.4431   -1.2539 N   0  0  0  0  0  0  0  0  0  0  0  0
    1.9278   -0.1509    1.6567 C   0  0  0  0  0  3  0  0  0  0  0  0
    0.8306    0.4558    2.3205 C   0  0  0  0  0  0  0  0  0  0  0  0
   -0.2611   -0.4511    2.3547 C   0  0  0  0  0  0  0  0  0  0  0  0
    0.1599   -1.6728    1.7183 C   0  0  0  0  0  3  0  0  0  0  0  0
    1.5280   -1.4827    1.2722 C   0  0  1  0  0  3  0  0  0  0  0  0
    2.2570   -2.3753    0.2994 C   0  0  0  0  0  0  0  0  0  0  0  0
    2.8317   -1.5210   -0.8403 C   0  0  0  0  0  0  0  0  0  0  0  0
    0.6305   -0.8192   -1.8568 C   0  0  0  0  0  3  0  0  0  0  0  0
    2.5981    0.6884   -1.8620 C   0  0  0  0  0  0  0  0  0  0  0  0
    2.9025    0.3187    1.4799 H   0  0  0  0  0  0  0  0  0  0  0  0
    0.8269    1.4652    2.7493 H   0  0  0  0  0  0  0  0  0  0  0  0
   -1.2251   -0.2662    2.8388 H   0  0  0  0  0  0  0  0  0  0  0  0
   -0.4068   -2.6117    1.6782 H   0  0  0  0  0  0  0  0  0  0  0  0
    1.5569   -3.1445   -0.0889 H   0  0  0  0  0  0  0  0  0  0  0  0
    3.0861   -2.9401    0.7786 H   0  0  0  0  0  0  0  0  0  0  0  0
    3.7478   -1.0086   -0.4868 H   0  0  0  0  0  0  0  0  0  0  0  0
    3.1184   -2.1364   -1.7211 H   0  0  0  0  0  0  0  0  0  0  0  0
    0.5350   -1.9047   -2.0515 H   0  0  0  0  0  0  0  0  0  0  0  0
    0.3503   -0.2172   -2.7383 H   0  0  0  0  0  0  0  0  0  0  0  0
    3.1702    0.3601   -2.7577 H   0  0  0  0  0  0  0  0  0  0  0  0
    3.3008    1.1311   -1.1300 H   0  0  0  0  0  0  0  0  0  0  0  0
    1.8768    1.4622   -2.1756 H   0  0  0  0  0  0  0  0  0  0  0  0
  1  8  1  0  0  0  0
  2  3  1  0  0  0  0
  3  4  2  0  0  0  0
  3 12  1  0  0  0  0
  4 13  1  0  0  0  0
  5  4  1  0  0  0  0
  6  7  1  6  0  0  0
  6  2  1  0  0  0  0
  6  5  1  0  0  0  0
  7 16  1  0  0  0  0
  8 17  1  0  0  0  0
  8  7  1  0  0  0  0
  9  1  1  0  0  0  0
 10  1  1  0  0  0  0
 10 22  1  0  0  0  0
 11  2  1  0  0  0  0
 14  5  1  0  0  0  0
 15  7  1  0  0  0  0
 18  8  1  0  0  0  0
 19  9  1  0  0  0  0
 20  9  1  0  0  0  0
 21 10  1  0  0  0  0
 23 10  1  0  0  0  0
M  END
