1,4
q = -2.0, confidence = 0.702

 27 28  0  0  1  0  0  0  0  0999 V2000
   -0.8926   -1.9401    0.4252 C   0  0  0  0  0  3  0  0  0  0  0  0
   -2.3346   -1.6881   -0.0278 C   0  0  2  0  0  0  0  0  0  0  0  0
   -2.8171   -0.3424    0.5218 C   0  0  1  0  0  0  0  0  0  0  0  0
   -1.6870    0.7241    0.4416 C   0  0  0  0  0  3  0  0  0  0  0  0
   -2.2209    1.7456   -0.5895 C   0  0  2  0  0  0  0  0  0  0  0  0
   -3.2644    2.5916    0.1891 C   0  0  0  0  0  0  0  0  0  0  0  0
   -4.4303    1.5766    0.4282 C   0  0  0  0  0  0  0  0  0  0  0  0
   -3.9476    0.3052   -0.3110 C   0  0  1  0  0  0  0  0  0  0  0  0
   -3.1572    0.9124   -1.4896 C   0  0  0  0  0  0  0  0  0  0  0  0
   -3.1487   -3.9099   -0.2770 C   0  0  0  0  0  0  0  0  0  0  0  0
   -3.2429   -2.6929    0.4215 O   0  0  0  0  0  0  0  0  0  0  0  0
   -0.8662   -2.1866    1.5061 H   0  0  0  0  0  0  0  0  0  0  0  0
   -0.3914   -2.7445   -0.1514 H   0  0  0  0  0  0  0  0  0  0  0  0
   -2.3475   -1.6603   -1.1434 H   0  0  0  0  0  0  0  0  0  0  0  0
   -3.1275   -0.5227    1.5729 H   0  0  0  0  0  0  0  0  0  0  0  0
   -1.5353    1.2184    1.4209 H   0  0  0  0  0  0  0  0  0  0  0  0
   -1.4437    2.3438   -1.1013 H   0  0  0  0  0  0  0  0  0  0  0  0
   -2.8517    3.0073    1.1308 H   0  0  0  0  0  0  0  0  0  0  0  0
   -3.5982    3.4492   -0.4312 H   0  0  0  0  0  0  0  0  0  0  0  0
   -5.3819    1.9477   -0.0030 H   0  0  0  0  0  0  0  0  0  0  0  0
   -4.6137    1.3810    1.5042 H   0  0  0  0  0  0  0  0  0  0  0  0
   -4.7522   -0.4124   -0.5646 H   0  0  0  0  0  0  0  0  0  0  0  0
   -3.7854    1.5437   -2.1522 H   0  0  0  0  0  0  0  0  0  0  0  0
   -2.6162    0.1740   -2.1083 H   0  0  0  0  0  0  0  0  0  0  0  0
   -3.9623   -4.5685    0.0875 H   0  0  0  0  0  0  0  0  0  0  0  0
   -2.1785   -4.4370   -0.1117 H   0  0  0  0  0  0  0  0  0  0  0  0
   -3.2724   -3.7713   -1.3799 H   0  0  0  0  0  0  0  0  0  0  0  0
  1 12  1  0  0  0  0
  2 14  1  6  0  0  0
  2 11  1  0  0  0  0
  2  1  1  0  0  0  0
  2  3  1  0  0  0  0
  3 15  1  1  0  0  0
  4  3  1  0  0  0  0
  4 16  1  0  0  0  0
  5 17  1  6  0  0  0
  5  6  1  0  0  0  0
  5  4  1  0  0  0  0
  6  7  1  0  0  0  0
  6 18  1  0  0  0  0
  7 21  1  0  0  0  0
  8 22  1  6  0  0  0
  8  7  1  0  0  0  0
  8  3  1  0  0  0  0
  9  5  1  0  0  0  0
  9  8  1  0  0  0  0
 10 26  1  0  0  0  0
 10 25  1  0  0  0  0
 10 11  1  0  0  0  0
 13  1  1  0  0  0  0
 19  6  1  0  0  0  0
 20  7  1  0  0  0  0
 23  9  1  0  0  0  0
 24  9  1  0  0  0  0
 27 10  1  0  0  0  0
M  END
