1,9
q = -2.0, confidence = 0.812

 58 60  0  0  1  0  0  0  0  0999 V2000
   -0.2084    1.7423   -0.0052 C   0  0  1  0  0  3  0  0  0  0  0  0
    1.2055    2.2745   -0.0119 C   0  0  2  0  0  0  0  0  0  0  0  0
    2.4642    1.4318   -0.1206 C   0  0  1  0  0  0  0  0  0  0  0  0
    2.6359    0.8061    0.7724 H   0  0  0  0  0  0  0  0  0  0  0  0
    2.3665    0.5447   -1.3858 C   0  0  0  0  0  0  0  0  0  0  0  0
    1.5656    0.9343   -2.0380 H   0  0  0  0  0  0  0  0  0  0  0  0
    3.3095    0.5880   -1.9649 H   0  0  0  0  0  0  0  0  0  0  0  0
    2.0758   -0.8937   -1.0090 C   0  0  1  0  0  0  0  0  0  0  0  0
    0.7175   -1.2805   -0.4012 C   0  0  1  0  0  3  0  0  0  0  0  0
    0.3068    2.4621    1.2335 C   0  0  0  0  0  0  0  0  0  0  0  0
    1.0503   -1.7663   -1.7954 C   0  0  0  0  0  0  0  0  0  0  0  0
   -1.1450    2.4056   -0.9716 C   0  0  0  0  0  0  0  0  0  0  0  0
   -2.1465    3.0601   -0.7116 O   0  0  0  0  0  0  0  0  0  0  0  0
   -0.7655    2.1464   -2.2593 O   0  0  0  0  0  0  0  0  0  0  0  0
   -1.4968    2.8500   -3.2643 C   0  0  0  0  0  0  0  0  0  0  0  0
   -1.1152    2.4834   -4.2346 H   0  0  0  0  0  0  0  0  0  0  0  0
   -1.3153    3.9395   -3.1671 H   0  0  0  0  0  0  0  0  0  0  0  0
   -2.5856    2.6593   -3.1774 H   0  0  0  0  0  0  0  0  0  0  0  0
    1.5409    3.5232   -0.8003 C   0  0  0  0  0  0  0  0  0  0  0  0
    0.8033    4.3702   -1.2620 O   0  0  0  0  0  0  0  0  0  0  0  0
    2.8995    3.6114   -0.9331 O   0  0  0  0  0  0  0  0  0  0  0  0
    3.5318    2.5225   -0.2273 C   0  0  0  0  0  0  0  0  0  0  0  0
    3.8554    2.8854    0.7732 H   0  0  0  0  0  0  0  0  0  0  0  0
    4.4259    2.2122   -0.8014 H   0  0  0  0  0  0  0  0  0  0  0  0
    3.2848   -2.7693   -0.0063 O   0  0  0  0  0  0  0  0  0  0  0  0
    3.2584   -1.6232   -0.4265 C   0  0  0  0  0  0  0  0  0  0  0  0
    4.3732   -0.8239   -0.3968 O   0  0  0  0  0  0  0  0  0  0  0  0
    5.5592   -1.3973    0.1619 C   0  0  0  0  0  0  0  0  0  0  0  0
    6.4040   -0.9634   -0.4140 H   0  0  0  0  0  0  0  0  0  0  0  0
    5.5492   -2.4966   -0.0082 H   0  0  0  0  0  0  0  0  0  0  0  0
    5.7328   -1.1162    1.6268 C   0  0  0  0  0  0  0  0  0  0  0  0
    6.7211   -1.4114    2.0241 H   0  0  0  0  0  0  0  0  0  0  0  0
    4.8195   -0.5727    2.4468 C   0  0  0  0  0  0  0  0  0  0  0  0
    3.8193   -0.2861    2.0876 H   0  0  0  0  0  0  0  0  0  0  0  0
    5.0399   -0.4144    3.5133 H   0  0  0  0  0  0  0  0  0  0  0  0
    0.7597   -2.1959    0.7818 C   0  0  0  0  0  0  0  0  0  0  0  0
    0.2510   -3.3056    0.8804 O   0  0  0  0  0  0  0  0  0  0  0  0
    1.4267   -1.6182    1.8303 O   0  0  0  0  0  0  0  0  0  0  0  0
    1.6107   -2.4578    2.9710 C   0  0  0  0  0  0  0  0  0  0  0  0
    2.1365   -1.8418    3.7230 H   0  0  0  0  0  0  0  0  0  0  0  0
    2.2283   -3.3377    2.6999 H   0  0  0  0  0  0  0  0  0  0  0  0
    0.6386   -2.8124    3.3691 H   0  0  0  0  0  0  0  0  0  0  0  0
    0.6402    1.6157    2.4502 C   0  0  0  0  0  0  0  0  0  0  0  0
   -0.2511    1.5347    3.1088 H   0  0  0  0  0  0  0  0  0  0  0  0
    1.4495    2.0867    3.0486 H   0  0  0  0  0  0  0  0  0  0  0  0
    0.9418    0.5883    2.1759 H   0  0  0  0  0  0  0  0  0  0  0  0
   -0.1374    3.8734    1.5979 C   0  0  0  0  0  0  0  0  0  0  0  0
   -0.9784    3.8385    2.3229 H   0  0  0  0  0  0  0  0  0  0  0  0
   -0.4599    4.4587    0.7206 H   0  0  0  0  0  0  0  0  0  0  0  0
    0.6920    4.4151    2.1000 H   0  0  0  0  0  0  0  0  0  0  0  0
    1.3851   -3.2198   -2.1155 C   0  0  0  0  0  0  0  0  0  0  0  0
    1.7514   -3.7830   -1.2432 H   0  0  0  0  0  0  0  0  0  0  0  0
    2.1556   -3.2660   -2.9138 H   0  0  0  0  0  0  0  0  0  0  0  0
    0.4837   -3.7294   -2.5163 H   0  0  0  0  0  0  0  0  0  0  0  0
    0.3315   -1.0959   -2.9596 C   0  0  0  0  0  0  0  0  0  0  0  0
   -0.5786   -1.6815   -3.2087 H   0  0  0  0  0  0  0  0  0  0  0  0
    0.9725   -1.0805   -3.8664 H   0  0  0  0  0  0  0  0  0  0  0  0
    0.0025   -0.0665   -2.7291 H   0  0  0  0  0  0  0  0  0  0  0  0
  1 12  1  6  0  0  0
  1 10  1  0  0  0  0
  2 19  1  6  0  0  0
  2  1  1  0  0  0  0
  2 10  1  0  0  0  0
  3  2  1  0  0  0  0
  3  4  1  1  0  0  0
  5  8  1  0  0  0  0
  5  3  1  0  0  0  0
  6  5  1  0  0  0  0
  7  5  1  0  0  0  0
  8 26  1  1  0  0  0
  8  9  1  0  0  0  0
  9 36  1  1  0  0  0
 10 47  1  0  0  0  0
 10 43  1  0  0  0  0
 11  8  1  0  0  0  0
 11  9  1  0  0  0  0
 12 13  2  0  0  0  0
 14 12  1  0  0  0  0
 15 18  1  0  0  0  0
 15 17  1  0  0  0  0
 15 14  1  0  0  0  0
 16 15  1  0  0  0  0
 20 19  2  0  0  0  0
 21 19  1  0  0  0  0
 21 22  1  0  0  0  0
 22  3  1  0  0  0  0
 22 23  1  0  0  0  0
 24 22  1  0  0  0  0
 26 27  1  0  0  0  0
 26 25  2  0  0  0  0
 27 28  1  0  0  0  0
 28 31  1  0  0  0  0
 29 28  1  0  0  0  0
 30 28  1  0  0  0  0
 31 32  1  0  0  0  0
 31 33  2  0  0  0  0
 33 35  1  0  0  0  0
 34 33  1  0  0  0  0
 36 37  2  0  0  0  0
 36 38  1  0  0  0  0
 38 39  1  0  0  0  0
 39 42  1  0  0  0  0
 39 40  1  0  0  0  0
 41 39  1  0  0  0  0
 43 45  1  0  0  0  0
 43 44  1  0  0  0  0
 46 43  1  0  0  0  0
 47 50  1  0  0  0  0
 47 48  1  0  0  0  0
 49 47  1  0  0  0  0
 51 11  1  0  0  0  0
 51 52  1  0  0  0  0
 53 51  1  0  0  0  0
 54 51  1  0  0  0  0
 55 58  1  0  0  0  0
 55 11  1  0  0  0  0
 56 55  1  0  0  0  0
 57 55  1  0  0  0  0
M  END
