1,5
q = -1.0, confidence = 0.0

 31 32  0  0  1  0  0  0  0  0999 V2000
   -0.8574   -0.8123    0.9733 C   0  0  0  0  0  3  0  0  0  0  0  0
   -1.9490   -1.0457   -0.1028 C   0  0  2  0  0  0  0  0  0  0  0  0
   -1.4237   -1.2858   -1.5416 C   0  0  0  0  0  0  0  0  0  0  0  0
   -0.4330   -2.4536   -1.6719 C   0  0  0  0  0  0  0  0  0  0  0  0
    0.8955   -2.2575   -0.9665 C   0  0  0  0  0  3  0  0  0  0  0  0
    1.1493   -2.6084    0.3766 C   0  0  0  0  0  3  0  0  0  0  0  0
    0.0641   -3.1410    1.3017 C   0  0  0  0  0  0  0  0  0  0  0  0
   -0.6662   -1.9643    1.9682 C   0  0  0  0  0  0  0  0  0  0  0  0
   -2.9650    0.0870   -0.1474 C   0  0  0  0  0  0  0  0  0  0  0  0
   -4.3451   -0.1891   -0.1969 C   0  0  0  0  0  0  0  0  0  0  0  0
   -5.2884    0.8469   -0.2888 C   0  0  0  0  0  0  0  0  0  0  0  0
   -4.8622    2.1827   -0.3367 C   0  0  0  0  0  0  0  0  0  0  0  0
   -3.4882    2.4709   -0.2880 C   0  0  0  0  0  0  0  0  0  0  0  0
   -2.5477    1.4347   -0.1941 C   0  0  0  0  0  0  0  0  0  0  0  0
   -1.0682    0.1258    1.5237 H   0  0  0  0  0  0  0  0  0  0  0  0
   -2.5044   -1.9712    0.1795 H   0  0  0  0  0  0  0  0  0  0  0  0
   -2.2955   -1.4724   -2.2046 H   0  0  0  0  0  0  0  0  0  0  0  0
   -0.9461   -0.3512   -1.9070 H   0  0  0  0  0  0  0  0  0  0  0  0
   -0.9241   -3.3796   -1.2968 H   0  0  0  0  0  0  0  0  0  0  0  0
   -0.2309   -2.6222   -2.7491 H   0  0  0  0  0  0  0  0  0  0  0  0
    1.7771   -2.1173   -1.6159 H   0  0  0  0  0  0  0  0  0  0  0  0
    2.2004   -2.7613    0.6780 H   0  0  0  0  0  0  0  0  0  0  0  0
    0.4998   -3.8235    2.0583 H   0  0  0  0  0  0  0  0  0  0  0  0
   -0.6566   -3.7465    0.7087 H   0  0  0  0  0  0  0  0  0  0  0  0
   -0.0563   -1.5961    2.8197 H   0  0  0  0  0  0  0  0  0  0  0  0
   -1.6433   -2.2875    2.4000 H   0  0  0  0  0  0  0  0  0  0  0  0
   -4.6854   -1.2369   -0.1593 H   0  0  0  0  0  0  0  0  0  0  0  0
   -6.3627    0.6078   -0.3196 H   0  0  0  0  0  0  0  0  0  0  0  0
   -5.5986    2.9978   -0.4069 H   0  0  0  0  0  0  0  0  0  0  0  0
   -3.1440    3.5166   -0.3191 H   0  0  0  0  0  0  0  0  0  0  0  0
   -1.4734    1.6727   -0.1342 H   0  0  0  0  0  0  0  0  0  0  0  0
  1 15  1  0  0  0  0
  1  8  1  0  0  0  0
  2 16  1  1  0  0  0
  2  1  1  0  0  0  0
  3  2  1  0  0  0  0
  4  3  1  0  0  0  0
  4 19  1  0  0  0  0
  4  5  1  0  0  0  0
  5  6  1  0  0  0  0
  6 22  1  0  0  0  0
  6  7  1  0  0  0  0
  7  8  1  0  0  0  0
  7 23  1  0  0  0  0
  8 26  1  0  0  0  0
  8 25  1  0  0  0  0
  9  2  1  0  0  0  0
 10 27  1  0  0  0  0
 10  9  2  0  0  0  0
 11 10  1  0  0  0  0
 12 11  2  0  0  0  0
 12 13  1  0  0  0  0
 13 14  2  0  0  0  0
 14  9  1  0  0  0  0
 14 31  1  0  0  0  0
 17  3  1  0  0  0  0
 18  3  1  0  0  0  0
 20  4  1  0  0  0  0
 21  5  1  0  0  0  0
 24  7  1  0  0  0  0
 28 11  1  0  0  0  0
 29 12  1  0  0  0  0
 30 13  1  0  0  0  0
M  END
