7,12
q = -1.0, confidence = 0.008

 31 30  0  0  0  0  0  0  0  0999 V2000
   -2.9440   -3.9372    0.1219 O   0  0  0  0  0  0  0  0  0  0  0  0
   -4.7441   -2.5711    0.0387 O   0  0  0  0  0  0  0  0  0  0  0  0
   -3.3066    3.2590    0.5204 O   0  0  0  0  0  0  0  0  0  0  0  0
   -4.8970    1.8396   -0.2378 O   0  0  0  0  0  0  0  0  0  0  0  0
   -0.4174    2.7893    1.6189 O   0  0  0  0  0  0  0  0  0  0  0  0
   -0.7055    3.3977   -0.5441 O   0  0  0  0  0  0  0  0  0  0  0  0
   -1.1895   -1.5878    0.3887 C   0  0  0  0  0  2  0  0  0  0  0  0
   -2.5968   -1.5442    0.1124 C   0  0  0  0  0  0  0  0  0  0  0  0
   -3.2623   -0.3219   -0.0770 C   0  0  0  0  0  0  0  0  0  0  0  0
   -4.3557   -0.3716   -0.1659 H   0  0  0  0  0  0  0  0  0  0  0  0
   -2.6960    0.9777    0.0040 C   0  0  0  0  0  0  0  0  0  0  0  0
   -1.3021    1.1787    0.0695 C   0  0  0  0  0  3  0  0  0  0  0  0
   -0.6258   -2.7275    1.1953 C   0  0  0  0  0  0  0  0  0  0  0  0
   -1.3219   -3.0464    1.9967 H   0  0  0  0  0  0  0  0  0  0  0  0
    0.3568   -2.4671    1.6273 H   0  0  0  0  0  0  0  0  0  0  0  0
   -0.4988   -3.6235    0.5549 H   0  0  0  0  0  0  0  0  0  0  0  0
   -3.4012   -2.8017    0.1097 C   0  0  0  0  0  0  0  0  0  0  0  0
   -5.5563   -3.7423   -0.0580 C   0  0  0  0  0  0  0  0  0  0  0  0
   -5.2933   -4.3363   -0.9571 H   0  0  0  0  0  0  0  0  0  0  0  0
   -6.6004   -3.3872   -0.1227 H   0  0  0  0  0  0  0  0  0  0  0  0
   -5.4236   -4.3926    0.8306 H   0  0  0  0  0  0  0  0  0  0  0  0
   -3.6208    2.1437    0.1309 C   0  0  0  0  0  0  0  0  0  0  0  0
   -5.8333    2.9128   -0.1216 C   0  0  0  0  0  0  0  0  0  0  0  0
   -5.8970    3.2733    0.9253 H   0  0  0  0  0  0  0  0  0  0  0  0
   -6.8072    2.5076   -0.4501 H   0  0  0  0  0  0  0  0  0  0  0  0
   -5.5360    3.7692   -0.7604 H   0  0  0  0  0  0  0  0  0  0  0  0
   -0.7863    2.5299    0.4858 C   0  0  0  0  0  0  0  0  0  0  0  0
   -0.2789    4.7186   -0.1977 C   0  0  0  0  0  0  0  0  0  0  0  0
   -1.0287    5.1936    0.4665 H   0  0  0  0  0  0  0  0  0  0  0  0
   -0.1995    5.2732   -1.1499 H   0  0  0  0  0  0  0  0  0  0  0  0
    0.7004    4.6948    0.3205 H   0  0  0  0  0  0  0  0  0  0  0  0
  2 17  1  0  0  0  0
  4 23  1  0  0  0  0
  4 22  1  0  0  0  0
  6 28  1  0  0  0  0
  6 27  1  0  0  0  0
  7 13  1  0  0  0  0
  8  7  1  0  0  0  0
  9 11  1  0  0  0  0
  9  8  2  0  0  0  0
 10  9  1  0  0  0  0
 11 12  2  0  0  0  0
 11 22  1  0  0  0  0
 12 27  1  0  0  0  0
 13 15  1  0  0  0  0
 13 14  1  0  0  0  0
 16 13  1  0  0  0  0
 17  8  1  0  0  0  0
 17  1  2  0  0  0  0
 18  2  1  0  0  0  0
 18 21  1  0  0  0  0
 19 18  1  0  0  0  0
 20 18  1  0  0  0  0
 22  3  2  0  0  0  0
 23 24  1  0  0  0  0
 25 23  1  0  0  0  0
 26 23  1  0  0  0  0
 27  5  2  0  0  0  0
 28 31  1  0  0  0  0
 28 29  1  0  0  0  0
 30 28  1  0  0  0  0
M  END
