2,5
q = -2.0, confidence = 0.7

 29 29  0  0  1  0  0  0  0  0999 V2000
   -2.8328    0.8916    1.2814 Si  0  0  0  0  0  0  0  0  0  0  0  0
   -1.9577   -0.2130    0.0476 C   0  0  0  0  0  2  0  0  0  0  0  0
   -2.4354   -1.4102   -0.4224 C   0  0  1  0  0  3  0  0  0  0  0  0
   -1.4166   -2.3357   -0.9576 C   0  0  0  0  0  0  0  0  0  0  0  0
   -0.0688   -1.8913   -0.7741 C   0  0  0  0  0  3  0  0  0  0  0  0
    0.9638   -2.6916   -1.2806 C   0  0  0  0  0  0  0  0  0  0  0  0
    2.0084   -2.3486   -1.2003 H   0  0  0  0  0  0  0  0  0  0  0  0
    0.6995   -3.9373   -1.8943 C   0  0  0  0  0  0  0  0  0  0  0  0
    1.5337   -4.5599   -2.2602 H   0  0  0  0  0  0  0  0  0  0  0  0
   -0.6230   -4.3815   -2.0342 C   0  0  0  0  0  0  0  0  0  0  0  0
   -0.8353   -5.3523   -2.5119 H   0  0  0  0  0  0  0  0  0  0  0  0
   -1.6820   -3.5758   -1.5757 C   0  0  0  0  0  0  0  0  0  0  0  0
   -2.7222   -3.9148   -1.7158 H   0  0  0  0  0  0  0  0  0  0  0  0
   -3.8784   -1.8617   -0.3925 C   0  0  0  0  0  0  0  0  0  0  0  0
   -4.5493   -1.0862    0.0224 H   0  0  0  0  0  0  0  0  0  0  0  0
   -4.0071   -2.7933    0.2032 H   0  0  0  0  0  0  0  0  0  0  0  0
   -4.2394   -2.0979   -1.4186 H   0  0  0  0  0  0  0  0  0  0  0  0
   -4.2911    1.9256    0.5978 C   0  0  0  0  0  0  0  0  0  0  0  0
   -3.9414    2.6551   -0.1607 H   0  0  0  0  0  0  0  0  0  0  0  0
   -4.7827    2.4949    1.4160 H   0  0  0  0  0  0  0  0  0  0  0  0
   -5.0580    1.2823    0.1189 H   0  0  0  0  0  0  0  0  0  0  0  0
   -3.5392   -0.1897    2.6957 C   0  0  0  0  0  0  0  0  0  0  0  0
   -4.3204   -0.8936    2.3448 H   0  0  0  0  0  0  0  0  0  0  0  0
   -3.9779    0.4412    3.4985 H   0  0  0  0  0  0  0  0  0  0  0  0
   -2.7221   -0.7947    3.1413 H   0  0  0  0  0  0  0  0  0  0  0  0
   -1.6233    2.0810    2.1335 C   0  0  0  0  0  0  0  0  0  0  0  0
   -0.7260    1.5275    2.4805 H   0  0  0  0  0  0  0  0  0  0  0  0
   -2.1045    2.5596    3.0132 H   0  0  0  0  0  0  0  0  0  0  0  0
   -1.2674    2.8674    1.4408 H   0  0  0  0  0  0  0  0  0  0  0  0
  1 26  1  0  0  0  0
  1 22  1  0  0  0  0
  2  1  1  0  0  0  0
  3 14  1  0  0  0  0
  3  2  1  1  0  0  0
  4  5  1  0  0  0  0
  4  3  1  0  0  0  0
  6  7  1  0  0  0  0
  6  5  2  0  0  0  0
  8  6  1  0  0  0  0
  9  8  1  0  0  0  0
 10  8  2  0  0  0  0
 10 12  1  0  0  0  0
 11 10  1  0  0  0  0
 12  4  2  0  0  0  0
 13 12  1  0  0  0  0
 14 15  1  0  0  0  0
 14 16  1  0  0  0  0
 17 14  1  0  0  0  0
 18  1  1  0  0  0  0
 18 20  1  0  0  0  0
 19 18  1  0  0  0  0
 21 18  1  0  0  0  0
 22 25  1  0  0  0  0
 22 24  1  0  0  0  0
 23 22  1  0  0  0  0
 26 27  1  0  0  0  0
 26 28  1  0  0  0  0
 29 26  1  0  0  0  0
M  END
