3,6
q = 0.0, confidence = 0.67

 40 40  0  0  0  0  0  0  0  0999 V2000
   -3.3214   -0.7222   -0.7138 Si  0  0  0  0  0  0  0  0  0  0  0  0
    3.3159   -0.2328   -0.9611 Si  0  0  0  0  0  0  0  0  0  0  0  0
   -1.4600   -0.8139   -0.9950 C   0  0  0  0  0  3  0  0  0  0  0  0
   -0.6107   -1.9735   -0.6495 C   0  0  0  0  0  0  0  0  0  0  0  0
    0.8392   -1.8719   -0.7344 C   0  0  0  0  0  0  0  0  0  0  0  0
    1.4757   -0.5992   -1.1429 C   0  0  0  0  0  3  0  0  0  0  0  0
    1.6134   -2.9528   -0.2232 C   0  0  0  0  0  0  0  0  0  0  0  0
    1.0333   -4.0903    0.3267 C   0  0  0  0  0  0  0  0  0  0  0  0
   -0.3723   -4.1820    0.4220 C   0  0  0  0  0  0  0  0  0  0  0  0
   -1.1638   -3.1384   -0.0436 C   0  0  0  0  0  0  0  0  0  0  0  0
    4.3481   -1.3355   -2.1174 C   0  0  0  0  0  0  0  0  0  0  0  0
    3.9084   -0.4480    0.8254 C   0  0  0  0  0  0  0  0  0  0  0  0
    3.6020    1.5655   -1.4718 C   0  0  0  0  0  0  0  0  0  0  0  0
   -3.9288    0.9416   -1.3815 C   0  0  0  0  0  0  0  0  0  0  0  0
   -4.2365   -2.0763   -1.6878 C   0  0  0  0  0  0  0  0  0  0  0  0
   -3.7539   -0.8438    1.1244 C   0  0  0  0  0  0  0  0  0  0  0  0
   -1.2043   -0.3457   -1.9731 H   0  0  0  0  0  0  0  0  0  0  0  0
    1.0922   -0.1811   -2.1012 H   0  0  0  0  0  0  0  0  0  0  0  0
    2.7082   -2.8906   -0.2931 H   0  0  0  0  0  0  0  0  0  0  0  0
    1.6689   -4.9167    0.6796 H   0  0  0  0  0  0  0  0  0  0  0  0
   -0.8421   -5.0790    0.8535 H   0  0  0  0  0  0  0  0  0  0  0  0
   -2.2570   -3.2195    0.0326 H   0  0  0  0  0  0  0  0  0  0  0  0
    4.2469   -2.4146   -1.8845 H   0  0  0  0  0  0  0  0  0  0  0  0
    5.4244   -1.0731   -2.0452 H   0  0  0  0  0  0  0  0  0  0  0  0
    4.0346   -1.1927   -3.1722 H   0  0  0  0  0  0  0  0  0  0  0  0
    3.3534    0.2452    1.4881 H   0  0  0  0  0  0  0  0  0  0  0  0
    4.9897   -0.2118    0.9036 H   0  0  0  0  0  0  0  0  0  0  0  0
    3.7520   -1.4744    1.2112 H   0  0  0  0  0  0  0  0  0  0  0  0
    3.1541    2.2541   -0.7301 H   0  0  0  0  0  0  0  0  0  0  0  0
    3.1450    1.7833   -2.4590 H   0  0  0  0  0  0  0  0  0  0  0  0
    4.6871    1.7861   -1.5415 H   0  0  0  0  0  0  0  0  0  0  0  0
   -5.0339    1.0093   -1.3121 H   0  0  0  0  0  0  0  0  0  0  0  0
   -3.6474    1.0745   -2.4464 H   0  0  0  0  0  0  0  0  0  0  0  0
   -3.4960    1.7829   -0.8062 H   0  0  0  0  0  0  0  0  0  0  0  0
   -3.9799   -3.1013   -1.3535 H   0  0  0  0  0  0  0  0  0  0  0  0
   -3.9931   -2.0087   -2.7683 H   0  0  0  0  0  0  0  0  0  0  0  0
   -5.3342   -1.9508   -1.5794 H   0  0  0  0  0  0  0  0  0  0  0  0
   -3.3459    0.0338    1.6628 H   0  0  0  0  0  0  0  0  0  0  0  0
   -3.3277   -1.7515    1.5961 H   0  0  0  0  0  0  0  0  0  0  0  0
   -4.8538   -0.8629    1.2694 H   0  0  0  0  0  0  0  0  0  0  0  0
  1 16  1  0  0  0  0
  2 12  1  0  0  0  0
  3  1  1  0  0  0  0
  3  4  1  0  0  0  0
  4 10  1  0  0  0  0
  5  4  2  0  0  0  0
  5  7  1  0  0  0  0
  6  2  1  0  0  0  0
  6  5  1  0  0  0  0
  7  8  2  0  0  0  0
  8  9  1  0  0  0  0
  8 20  1  0  0  0  0
  9 21  1  0  0  0  0
 10 22  1  0  0  0  0
 10  9  2  0  0  0  0
 11 24  1  0  0  0  0
 11 23  1  0  0  0  0
 11  2  1  0  0  0  0
 12 27  1  0  0  0  0
 12 28  1  0  0  0  0
 12 26  1  0  0  0  0
 13  2  1  0  0  0  0
 13 29  1  0  0  0  0
 14 32  1  0  0  0  0
 14 34  1  0  0  0  0
 14  1  1  0  0  0  0
 15 37  1  0  0  0  0
 15 35  1  0  0  0  0
 15  1  1  0  0  0  0
 16 40  1  0  0  0  0
 16 39  1  0  0  0  0
 16 38  1  0  0  0  0
 17  3  1  0  0  0  0
 18  6  1  0  0  0  0
 19  7  1  0  0  0  0
 25 11  1  0  0  0  0
 30 13  1  0  0  0  0
 31 13  1  0  0  0  0
 33 14  1  0  0  0  0
 36 15  1  0  0  0  0
M  END
