3,34
q = -2.0, confidence = 0.666

 63 66  0  0  1  0  0  0  0  0999 V2000
   -3.8809   -0.8366   -0.9434 Si  0  0  0  0  0  0  0  0  0  0  0  0
   -1.1032    0.3838    1.9585 C   0  0  2  0  0  3  0  0  0  0  0  0
   -1.8943   -0.5811    1.2479 C   0  0  0  0  0  3  0  0  0  0  0  0
   -2.5744    0.0088    0.1361 C   0  0  2  0  0  3  0  0  0  0  0  0
   -2.2307    1.4063    0.1724 C   0  0  0  0  0  0  0  0  0  0  0  0
   -2.6545    2.4877   -0.6524 C   0  0  0  0  0  0  0  0  0  0  0  0
   -2.1585    3.7568   -0.4149 C   0  0  0  0  0  0  0  0  0  0  0  0
   -1.2365    3.9953    0.6477 C   0  0  0  0  0  0  0  0  0  0  0  0
   -0.8085    2.9754    1.4808 C   0  0  0  0  0  0  0  0  0  0  0  0
   -1.3030    1.6467    1.2763 C   0  0  0  0  0  0  0  0  0  0  0  0
    0.0003   -0.0025    2.9575 C   0  0  0  0  0  0  0  0  0  0  0  0
    0.4550    1.1445    3.8772 C   0  0  0  0  0  0  0  0  0  0  0  0
   -5.5601   -0.1411   -0.3994 C   0  0  0  0  0  0  0  0  0  0  0  0
   -3.6253   -0.4788   -2.7804 C   0  0  0  0  0  0  0  0  0  0  0  0
   -3.8136   -2.6920   -0.5941 C   0  0  0  0  0  0  0  0  0  0  0  0
   -1.9434   -1.6503    1.4928 H   0  0  0  0  0  0  0  0  0  0  0  0
   -3.3608    2.3028   -1.4739 H   0  0  0  0  0  0  0  0  0  0  0  0
   -2.4762    4.5975   -1.0493 H   0  0  0  0  0  0  0  0  0  0  0  0
   -0.8625    5.0169    0.8125 H   0  0  0  0  0  0  0  0  0  0  0  0
   -0.1210    3.2012    2.3041 H   0  0  0  0  0  0  0  0  0  0  0  0
    1.1685    0.7512    4.6283 H   0  0  0  0  0  0  0  0  0  0  0  0
   -0.4122    1.5780    4.4135 H   0  0  0  0  0  0  0  0  0  0  0  0
    0.9702    1.9602    3.3418 H   0  0  0  0  0  0  0  0  0  0  0  0
   -6.3850   -0.5958   -0.9865 H   0  0  0  0  0  0  0  0  0  0  0  0
   -5.6053    0.9578   -0.5436 H   0  0  0  0  0  0  0  0  0  0  0  0
   -5.7475   -0.3481    0.6741 H   0  0  0  0  0  0  0  0  0  0  0  0
   -4.4152   -0.9818   -3.3761 H   0  0  0  0  0  0  0  0  0  0  0  0
   -2.6382   -0.8537   -3.1141 H   0  0  0  0  0  0  0  0  0  0  0  0
   -3.6753    0.6058   -3.0039 H   0  0  0  0  0  0  0  0  0  0  0  0
   -4.5667   -3.2291   -1.2064 H   0  0  0  0  0  0  0  0  0  0  0  0
   -4.0308   -2.9105    0.4718 H   0  0  0  0  0  0  0  0  0  0  0  0
   -2.8121   -3.0963   -0.8433 H   0  0  0  0  0  0  0  0  0  0  0  0
    1.1037   -0.3868    1.9577 C   0  0  2  0  0  3  0  0  0  0  0  0
    1.8937    0.5797    1.2481 C   0  0  0  0  0  3  0  0  0  0  0  0
    2.5740   -0.0081    0.1353 C   0  0  1  0  0  3  0  0  0  0  0  0
    3.8797    0.8401   -0.9430 Si  0  0  0  0  0  0  0  0  0  0  0  0
    5.5596    0.1466   -0.3987 C   0  0  0  0  0  0  0  0  0  0  0  0
    6.3842    0.6031   -0.9850 H   0  0  0  0  0  0  0  0  0  0  0  0
    5.6065   -0.9521   -0.5441 H   0  0  0  0  0  0  0  0  0  0  0  0
    5.7462    0.3527    0.6750 H   0  0  0  0  0  0  0  0  0  0  0  0
    3.6256    0.4835   -2.7804 C   0  0  0  0  0  0  0  0  0  0  0  0
    4.4147    0.9887   -3.3752 H   0  0  0  0  0  0  0  0  0  0  0  0
    2.6379    0.8567   -3.1142 H   0  0  0  0  0  0  0  0  0  0  0  0
    3.6780   -0.6008   -3.0049 H   0  0  0  0  0  0  0  0  0  0  0  0
    3.8095    2.6951   -0.5921 C   0  0  0  0  0  0  0  0  0  0  0  0
    4.5618    3.2339   -1.2039 H   0  0  0  0  0  0  0  0  0  0  0  0
    4.0263    2.9130    0.4740 H   0  0  0  0  0  0  0  0  0  0  0  0
    2.8074    3.0981   -0.8411 H   0  0  0  0  0  0  0  0  0  0  0  0
    1.9420    1.6486    1.4944 H   0  0  0  0  0  0  0  0  0  0  0  0
    2.2316   -1.4059    0.1700 C   0  0  0  0  0  0  0  0  0  0  0  0
    1.3046   -1.6487    1.2739 C   0  0  0  0  0  0  0  0  0  0  0  0
    2.6561   -2.4859   -0.6564 C   0  0  0  0  0  0  0  0  0  0  0  0
    2.1615   -3.7558   -0.4203 C   0  0  0  0  0  0  0  0  0  0  0  0
    1.2403   -3.9965    0.6425 C   0  0  0  0  0  0  0  0  0  0  0  0
    0.8116   -2.9781    1.4771 C   0  0  0  0  0  0  0  0  0  0  0  0
    0.1248   -3.2056    2.3004 H   0  0  0  0  0  0  0  0  0  0  0  0
    0.8674   -5.0187    0.8063 H   0  0  0  0  0  0  0  0  0  0  0  0
    2.4796   -4.5954   -1.0559 H   0  0  0  0  0  0  0  0  0  0  0  0
    3.3618   -2.2992   -1.4781 H   0  0  0  0  0  0  0  0  0  0  0  0
   -0.4545   -1.1514    3.8748 C   0  0  0  0  0  0  0  0  0  0  0  0
   -1.1684   -0.7596    4.6264 H   0  0  0  0  0  0  0  0  0  0  0  0
    0.4125   -1.5856    4.4106 H   0  0  0  0  0  0  0  0  0  0  0  0
   -0.9693   -1.9661    3.3376 H   0  0  0  0  0  0  0  0  0  0  0  0
  1 15  1  0  0  0  0
  1 13  1  0  0  0  0
  2 11  1  6  0  0  0
  3 16  1  0  0  0  0
  3  2  1  0  0  0  0
  4  1  1  1  0  0  0
  4  5  1  0  0  0  0
  4  3  1  0  0  0  0
  5 10  1  0  0  0  0
  6  7  1  0  0  0  0
  6  5  2  0  0  0  0
  7  8  2  0  0  0  0
  8 19  1  0  0  0  0
  8  9  1  0  0  0  0
  9 20  1  0  0  0  0
 10  9  2  0  0  0  0
 10  2  1  0  0  0  0
 11 60  1  0  0  0  0
 11 12  1  0  0  0  0
 12 22  1  0  0  0  0
 12 21  1  0  0  0  0
 13 26  1  0  0  0  0
 14  1  1  0  0  0  0
 15 31  1  0  0  0  0
 17  6  1  0  0  0  0
 18  7  1  0  0  0  0
 23 12  1  0  0  0  0
 24 13  1  0  0  0  0
 25 13  1  0  0  0  0
 27 14  1  0  0  0  0
 28 14  1  0  0  0  0
 29 14  1  0  0  0  0
 30 15  1  0  0  0  0
 32 15  1  0  0  0  0
 33 11  1  6  0  0  0
 34 49  1  0  0  0  0
 34 33  1  0  0  0  0
 35 36  1  1  0  0  0
 35 50  1  0  0  0  0
 35 34  1  0  0  0  0
 36 45  1  0  0  0  0
 36 37  1  0  0  0  0
 37 40  1  0  0  0  0
 38 37  1  0  0  0  0
 39 37  1  0  0  0  0
 41 36  1  0  0  0  0
 42 41  1  0  0  0  0
 43 41  1  0  0  0  0
 44 41  1  0  0  0  0
 45 47  1  0  0  0  0
 46 45  1  0  0  0  0
 48 45  1  0  0  0  0
 50 51  1  0  0  0  0
 51 55  2  0  0  0  0
 51 33  1  0  0  0  0
 52 53  1  0  0  0  0
 52 50  2  0  0  0  0
 53 54  2  0  0  0  0
 54 57  1  0  0  0  0
 54 55  1  0  0  0  0
 55 56  1  0  0  0  0
 58 53  1  0  0  0  0
 59 52  1  0  0  0  0
 60 62  1  0  0  0  0
 60 61  1  0  0  0  0
 63 60  1  0  0  0  0
M  END
