3,9
q = 0.0, confidence = 0.874

 27 27  0  0  1  0  0  0  0  0999 V2000
   -2.3323    0.5532    2.0056 O   0  0  0  0  0  0  0  0  0  0  0  0
    0.5643   -1.3457    1.1571 N   0  0  0  0  0  0  0  0  0  0  0  0
   -1.3792    0.6447    1.2763 C   0  0  0  0  0  3  0  0  0  0  0  0
   -0.2516    1.5206    1.0427 C   0  0  0  0  0  0  0  0  0  0  0  0
    1.0259    1.0179    0.6392 C   0  0  0  0  0  0  0  0  0  0  0  0
    2.1612    1.8452    0.0728 C   0  0  0  0  0  0  0  0  0  0  0  0
    3.0035    0.8192   -0.7175 C   0  0  0  0  0  0  0  0  0  0  0  0
    2.7804   -0.5279   -0.0013 C   0  0  0  0  0  0  0  0  0  0  0  0
    1.3796   -0.3618    0.5389 C   0  0  1  0  0  3  0  0  0  0  0  0
   -0.5630    2.9994    0.9134 C   0  0  0  0  0  0  0  0  0  0  0  0
    0.3262   -1.2225    2.6099 C   0  0  0  0  0  0  0  0  0  0  0  0
    0.8195   -2.7470    0.7987 C   0  0  0  0  0  0  0  0  0  0  0  0
    1.8131    2.6896   -0.5523 H   0  0  0  0  0  0  0  0  0  0  0  0
    2.7456    2.2819    0.9145 H   0  0  0  0  0  0  0  0  0  0  0  0
    2.5990    0.7440   -1.7474 H   0  0  0  0  0  0  0  0  0  0  0  0
    4.0722    1.0976   -0.7916 H   0  0  0  0  0  0  0  0  0  0  0  0
    3.4926   -0.6605    0.8469 H   0  0  0  0  0  0  0  0  0  0  0  0
    2.9036   -1.3989   -0.6737 H   0  0  0  0  0  0  0  0  0  0  0  0
    0.1512    3.5793    1.5335 H   0  0  0  0  0  0  0  0  0  0  0  0
   -1.5843    3.2145    1.2798 H   0  0  0  0  0  0  0  0  0  0  0  0
   -0.4867    3.3655   -0.1309 H   0  0  0  0  0  0  0  0  0  0  0  0
    0.2609   -0.1611    2.9016 H   0  0  0  0  0  0  0  0  0  0  0  0
    1.1611   -1.6968    3.1713 H   0  0  0  0  0  0  0  0  0  0  0  0
   -0.6248   -1.7230    2.8725 H   0  0  0  0  0  0  0  0  0  0  0  0
    1.0084   -2.8410   -0.2833 H   0  0  0  0  0  0  0  0  0  0  0  0
   -0.0754   -3.3476    1.0497 H   0  0  0  0  0  0  0  0  0  0  0  0
    1.6891   -3.1505    1.3655 H   0  0  0  0  0  0  0  0  0  0  0  0
  2 11  1  0  0  0  0
  3  1  2  0  0  0  0
  4  3  1  0  0  0  0
  5  4  2  0  0  0  0
  6  5  1  0  0  0  0
  6 14  1  0  0  0  0
  7  8  1  0  0  0  0
  7  6  1  0  0  0  0
  8  9  1  0  0  0  0
  8 17  1  0  0  0  0
  9  5  1  0  0  0  0
  9  2  1  1  0  0  0
 10  4  1  0  0  0  0
 10 20  1  0  0  0  0
 10 19  1  0  0  0  0
 11 24  1  0  0  0  0
 11 22  1  0  0  0  0
 11 23  1  0  0  0  0
 12 26  1  0  0  0  0
 12  2  1  0  0  0  0
 12 27  1  0  0  0  0
 13  6  1  0  0  0  0
 15  7  1  0  0  0  0
 16  7  1  0  0  0  0
 18  8  1  0  0  0  0
 21 10  1  0  0  0  0
 25 12  1  0  0  0  0
M  END
