8,12
q = -1.0, confidence = 0.0

 27 29  0  0  1  0  0  0  0  0999 V2000
    1.0774    0.9031   -0.6101 O   0  0  0  0  0  0  0  0  0  0  0  0
   -1.0100   -0.8912   -1.4260 C   0  0  0  0  0  0  0  0  0  0  0  0
   -0.6224   -0.3633   -2.3034 H   0  0  0  0  0  0  0  0  0  0  0  0
    2.0086   -1.1570   -0.0504 N   0  0  0  0  0  0  0  0  0  0  0  0
    1.8818   -2.1155    0.2768 H   0  0  0  0  0  0  0  0  0  0  0  0
   -2.2068   -1.6829   -1.3379 C   0  0  0  0  0  0  0  0  0  0  0  0
   -2.9169   -1.8688   -2.1524 H   0  0  0  0  0  0  0  0  0  0  0  0
   -2.3197   -2.1751   -0.0022 C   0  0  0  0  0  3  0  0  0  0  0  0
   -3.1294   -2.8051    0.3849 H   0  0  0  0  0  0  0  0  0  0  0  0
   -1.1946   -1.6922    0.7521 C   0  0  0  0  0  3  0  0  0  0  0  0
   -0.9879   -1.8875    1.8109 H   0  0  0  0  0  0  0  0  0  0  0  0
   -0.3981   -0.8888   -0.1324 C   0  0  1  0  0  3  0  0  0  0  0  0
    3.2940   -0.6274    0.0242 C   0  0  0  0  0  0  0  0  0  0  0  0
    0.9131   -0.2342    0.2048 C   0  0  2  0  0  0  0  0  0  0  0  0
    0.9007    0.0850    1.2826 H   0  0  0  0  0  0  0  0  0  0  0  0
    5.7130   -0.8868    0.2158 C   0  0  0  0  0  0  0  0  0  0  0  0
    6.5888   -1.5442    0.3268 H   0  0  0  0  0  0  0  0  0  0  0  0
    4.4336   -1.4511    0.1625 C   0  0  0  0  0  0  0  0  0  0  0  0
    4.3027   -2.5429    0.2282 H   0  0  0  0  0  0  0  0  0  0  0  0
    5.8820    0.5055    0.1290 C   0  0  0  0  0  0  0  0  0  0  0  0
    6.8871    0.9496    0.1698 H   0  0  0  0  0  0  0  0  0  0  0  0
    4.7519    1.3235   -0.0194 C   0  0  0  0  0  0  0  0  0  0  0  0
    4.8732    2.4162   -0.0997 H   0  0  0  0  0  0  0  0  0  0  0  0
    3.4599    0.7799   -0.0756 C   0  0  0  0  0  0  0  0  0  0  0  0
    2.2319    1.6521   -0.2410 C   0  0  0  0  0  0  0  0  0  0  0  0
    2.0239    2.2296    0.6939 H   0  0  0  0  0  0  0  0  0  0  0  0
    2.3822    2.3913   -1.0538 H   0  0  0  0  0  0  0  0  0  0  0  0
  1 25  1  0  0  0  0
  1 14  1  0  0  0  0
  2  6  2  0  0  0  0
  3  2  1  0  0  0  0
  4 13  1  0  0  0  0
  4 14  1  0  0  0  0
  4  5  1  0  0  0  0
  6  8  1  0  0  0  0
  7  6  1  0  0  0  0
  8  9  1  0  0  0  0
  8 10  1  0  0  0  0
 10 11  1  0  0  0  0
 12  2  1  6  0  0  0
 12 14  1  0  0  0  0
 12 10  1  0  0  0  0
 13 18  1  0  0  0  0
 14 15  1  1  0  0  0
 16 17  1  0  0  0  0
 18 16  2  0  0  0  0
 18 19  1  0  0  0  0
 20 21  1  0  0  0  0
 20 16  1  0  0  0  0
 22 20  2  0  0  0  0
 23 22  1  0  0  0  0
 24 22  1  0  0  0  0
 24 13  2  0  0  0  0
 25 24  1  0  0  0  0
 25 26  1  0  0  0  0
 27 25  1  0  0  0  0
M  END
