15,18
q = -2.0, confidence = 0.764

 34 36  0  0  0  0  0  0  0  0999 V2000
   -4.5248    1.1769   -0.6827 F   0  0  0  0  0  0  0  0  0  0  0  0
   -4.4742    3.8977   -0.6330 F   0  0  0  0  0  0  0  0  0  0  0  0
   -2.1250    5.2122   -0.1130 F   0  0  0  0  0  0  0  0  0  0  0  0
    0.1438    3.8756    0.2820 F   0  0  0  0  0  0  0  0  0  0  0  0
   -0.1688   -2.9574    0.9653 F   0  0  0  0  0  0  0  0  0  0  0  0
    1.6833   -4.9504    0.7961 F   0  0  0  0  0  0  0  0  0  0  0  0
    3.9939   -4.5457   -0.6550 F   0  0  0  0  0  0  0  0  0  0  0  0
    4.3858   -2.1531   -1.9267 F   0  0  0  0  0  0  0  0  0  0  0  0
    2.5593   -0.2003   -1.7832 F   0  0  0  0  0  0  0  0  0  0  0  0
    1.8617    0.2715    2.2594 F   0  0  0  0  0  0  0  0  0  0  0  0
    4.3527    1.2591    2.6695 F   0  0  0  0  0  0  0  0  0  0  0  0
    5.4629    2.9898    0.8587 F   0  0  0  0  0  0  0  0  0  0  0  0
    4.0628    3.7289   -1.3736 F   0  0  0  0  0  0  0  0  0  0  0  0
    1.5670    2.7274   -1.8045 F   0  0  0  0  0  0  0  0  0  0  0  0
    0.0935   -0.4706   -0.1098 C   0  0  0  0  0  0  0  0  0  0  0  0
    0.2787    0.8947   -0.0155 C   0  0  0  0  0  0  0  0  0  0  0  0
   -0.9311    1.7386   -0.1086 C   0  0  0  0  0  0  0  0  0  0  0  0
   -2.1707    1.0504   -0.3143 C   0  0  0  0  0  0  0  0  0  0  0  0
   -3.3242    1.7984   -0.4871 C   0  0  0  0  0  0  0  0  0  0  0  0
   -3.3457    3.2047   -0.4438 C   0  0  0  0  0  0  0  0  0  0  0  0
   -2.1428    3.8771   -0.1854 C   0  0  0  0  0  0  0  0  0  0  0  0
   -0.9531    3.1475   -0.0012 C   0  0  0  0  0  0  0  0  0  0  0  0
    1.1820   -1.4376   -0.2544 C   0  0  0  0  0  0  0  0  0  0  0  0
    1.0080   -2.7205    0.3075 C   0  0  0  0  0  0  0  0  0  0  0  0
    1.9226   -3.7701    0.2167 C   0  0  0  0  0  0  0  0  0  0  0  0
    3.0947   -3.5682   -0.5353 C   0  0  0  0  0  0  0  0  0  0  0  0
    3.2985   -2.3320   -1.1725 C   0  0  0  0  0  0  0  0  0  0  0  0
    2.3461   -1.3045   -1.0560 C   0  0  0  0  0  0  0  0  0  0  0  0
    1.6260    1.4867    0.2164 C   0  0  0  0  0  0  0  0  0  0  0  0
    2.3754    1.1169    1.3491 C   0  0  0  0  0  0  0  0  0  0  0  0
    3.6671    1.6177    1.5790 C   0  0  0  0  0  0  0  0  0  0  0  0
    4.2356    2.5085    0.6538 C   0  0  0  0  0  0  0  0  0  0  0  0
    3.5120    2.8918   -0.4896 C   0  0  0  0  0  0  0  0  0  0  0  0
    2.2251    2.3779   -0.6931 C   0  0  0  0  0  0  0  0  0  0  0  0
  1 19  1  0  0  0  0
  2 20  1  0  0  0  0
  7 26  1  0  0  0  0
  8 27  1  0  0  0  0
  9 28  1  0  0  0  0
 13 33  1  0  0  0  0
 14 34  1  0  0  0  0
 15 16  2  0  0  0  0
 16 29  1  0  0  0  0
 17 16  1  0  0  0  0
 17 22  1  0  0  0  0
 18 17  2  0  0  0  0
 19 20  2  0  0  0  0
 19 18  1  0  0  0  0
 20 21  1  0  0  0  0
 21  3  1  0  0  0  0
 21 22  2  0  0  0  0
 22  4  1  0  0  0  0
 23 15  1  0  0  0  0
 23 24  1  0  0  0  0
 24  5  1  0  0  0  0
 25 24  2  0  0  0  0
 25  6  1  0  0  0  0
 26 25  1  0  0  0  0
 27 28  1  0  0  0  0
 27 26  2  0  0  0  0
 28 23  2  0  0  0  0
 29 30  1  0  0  0  0
 30 31  2  0  0  0  0
 30 10  1  0  0  0  0
 31 11  1  0  0  0  0
 32 12  1  0  0  0  0
 32 31  1  0  0  0  0
 33 32  2  0  0  0  0
 34 33  1  0  0  0  0
 34 29  2  0  0  0  0
M  END
