22,24
q = -1.0

 76 80  0  0  1  0  0  0  0  0999 V2000
    2.5291   -1.2646   -0.9958 N   0  0  0  0  0  0  0  0  0  0  0  0
    2.3630   -1.5314   -1.9823 H   0  0  0  0  0  0  0  0  0  0  0  0
    2.3603   -3.6344   -0.3700 C   0  0  0  0  0  0  0  0  0  0  0  0
    1.4929   -3.4505    0.2967 H   0  0  0  0  0  0  0  0  0  0  0  0
    2.9062   -4.5229    0.0046 H   0  0  0  0  0  0  0  0  0  0  0  0
    1.9531   -3.8537   -1.3753 H   0  0  0  0  0  0  0  0  0  0  0  0
    0.6364    0.4246    0.9440 C   0  0  2  0  0  3  0  0  0  0  0  0
    3.2993   -2.4184   -0.3905 C   0  0  0  0  0  0  0  0  0  0  0  0
    3.7654   -2.1206    1.0410 C   0  0  0  0  0  0  0  0  0  0  0  0
    4.5456   -1.3387    1.0848 H   0  0  0  0  0  0  0  0  0  0  0  0
    4.1914   -3.0476    1.4733 H   0  0  0  0  0  0  0  0  0  0  0  0
    2.9271   -1.7947    1.6841 H   0  0  0  0  0  0  0  0  0  0  0  0
    4.5177   -2.7257   -1.2821 C   0  0  0  0  0  0  0  0  0  0  0  0
    4.1993   -2.9930   -2.3108 H   0  0  0  0  0  0  0  0  0  0  0  0
    5.0881   -3.5826   -0.8722 H   0  0  0  0  0  0  0  0  0  0  0  0
    5.2149   -1.8655   -1.3419 H   0  0  0  0  0  0  0  0  0  0  0  0
    3.1489    0.0744   -0.9802 C   0  0  0  0  0  0  0  0  0  0  0  0
    2.5730    0.6880   -1.7060 H   0  0  0  0  0  0  0  0  0  0  0  0
    4.1942    0.0407   -1.3599 H   0  0  0  0  0  0  0  0  0  0  0  0
    3.1671    0.7566    0.3734 C   0  0  0  0  0  0  0  0  0  0  0  0
    2.0558    0.8261    1.2628 C   0  0  0  0  0  0  0  0  0  0  0  0
   -0.0655    1.0719   -0.1411 C   0  0  1  0  0  3  0  0  0  0  0  0
   -1.5420    0.7772   -0.2891 C   0  0  2  0  0  3  0  0  0  0  0  0
   -1.5998   -0.5611   -0.5309 C   0  0  0  0  0  2  0  0  0  0  0  0
   -2.6945   -1.5265   -0.5111 C   0  0  0  0  0  0  0  0  0  0  0  0
   -3.4043   -1.6847    0.7079 C   0  0  0  0  0  0  0  0  0  0  0  0
   -3.0987   -1.0928    1.5834 H   0  0  0  0  0  0  0  0  0  0  0  0
   -4.4742   -2.5835    0.7936 C   0  0  0  0  0  0  0  0  0  0  0  0
   -5.0138   -2.6956    1.7468 H   0  0  0  0  0  0  0  0  0  0  0  0
   -4.8555   -3.3398   -0.3274 C   0  0  0  0  0  0  0  0  0  0  0  0
   -5.6976   -4.0454   -0.2586 H   0  0  0  0  0  0  0  0  0  0  0  0
   -4.1495   -3.1976   -1.5338 C   0  0  0  0  0  0  0  0  0  0  0  0
   -4.4379   -3.7936   -2.4133 H   0  0  0  0  0  0  0  0  0  0  0  0
   -3.0717   -2.3076   -1.6289 C   0  0  0  0  0  0  0  0  0  0  0  0
   -2.4952   -2.2144   -2.5591 H   0  0  0  0  0  0  0  0  0  0  0  0
   -2.5947    1.7973   -0.1973 C   0  0  0  0  0  0  0  0  0  0  0  0
   -2.3074    3.0864    0.3140 C   0  0  0  0  0  0  0  0  0  0  0  0
   -1.2820    3.3291    0.6296 H   0  0  0  0  0  0  0  0  0  0  0  0
   -3.3077    4.0628    0.4156 C   0  0  0  0  0  0  0  0  0  0  0  0
   -3.0583    5.0573    0.8164 H   0  0  0  0  0  0  0  0  0  0  0  0
   -4.6190    3.7763    0.0063 C   0  0  0  0  0  0  0  0  0  0  0  0
   -5.4054    4.5421    0.0853 H   0  0  0  0  0  0  0  0  0  0  0  0
   -4.9166    2.5044   -0.5140 C   0  0  0  0  0  0  0  0  0  0  0  0
   -5.9396    2.2720   -0.8477 H   0  0  0  0  0  0  0  0  0  0  0  0
   -3.9201    1.5282   -0.6201 C   0  0  0  0  0  0  0  0  0  0  0  0
   -4.1609    0.5418   -1.0401 H   0  0  0  0  0  0  0  0  0  0  0  0
    0.5245    2.1167   -1.0288 C   0  0  0  0  0  0  0  0  0  0  0  0
    1.3031    3.1819   -0.5246 C   0  0  0  0  0  0  0  0  0  0  0  0
    1.5136    3.2440    0.5520 H   0  0  0  0  0  0  0  0  0  0  0  0
    1.7980    4.1701   -1.3877 C   0  0  0  0  0  0  0  0  0  0  0  0
    2.3990    4.9960   -0.9780 H   0  0  0  0  0  0  0  0  0  0  0  0
    1.5289    4.1096   -2.7640 C   0  0  0  0  0  0  0  0  0  0  0  0
    1.9250    4.8832   -3.4393 H   0  0  0  0  0  0  0  0  0  0  0  0
    0.7434    3.0617   -3.2734 C   0  0  0  0  0  0  0  0  0  0  0  0
    0.5204    3.0098   -4.3498 H   0  0  0  0  0  0  0  0  0  0  0  0
    0.2383    2.0792   -2.4131 C   0  0  0  0  0  0  0  0  0  0  0  0
   -0.3718    1.2510   -2.8054 H   0  0  0  0  0  0  0  0  0  0  0  0
   -0.1462   -0.1221    2.1126 C   0  0  0  0  0  0  0  0  0  0  0  0
   -1.1132    0.6717    2.7662 C   0  0  0  0  0  0  0  0  0  0  0  0
   -1.3191    1.6868    2.3984 H   0  0  0  0  0  0  0  0  0  0  0  0
   -1.8256    0.1756    3.8684 C   0  0  0  0  0  0  0  0  0  0  0  0
   -2.5817    0.8106    4.3548 H   0  0  0  0  0  0  0  0  0  0  0  0
   -1.5781   -1.1210    4.3459 C   0  0  0  0  0  0  0  0  0  0  0  0
   -2.1409   -1.5127    5.2066 H   0  0  0  0  0  0  0  0  0  0  0  0
   -0.6070   -1.9146    3.7144 C   0  0  0  0  0  0  0  0  0  0  0  0
   -0.4073   -2.9353    4.0739 H   0  0  0  0  0  0  0  0  0  0  0  0
    0.1034   -1.4171    2.6134 C   0  0  0  0  0  0  0  0  0  0  0  0
    0.8453   -2.0523    2.1081 H   0  0  0  0  0  0  0  0  0  0  0  0
    2.2615    1.4080    2.5376 C   0  0  0  0  0  0  0  0  0  0  0  0
    1.4181    1.4365    3.2419 H   0  0  0  0  0  0  0  0  0  0  0  0
    3.4839    1.9772    2.9115 C   0  0  0  0  0  0  0  0  0  0  0  0
    3.5934    2.4325    3.9074 H   0  0  0  0  0  0  0  0  0  0  0  0
    4.5553    1.9659    2.0084 C   0  0  0  0  0  0  0  0  0  0  0  0
    5.5240    2.4130    2.2770 H   0  0  0  0  0  0  0  0  0  0  0  0
    4.3864    1.3443    0.7658 C   0  0  0  0  0  0  0  0  0  0  0  0
    5.2385    1.2890    0.0696 H   0  0  0  0  0  0  0  0  0  0  0  0
  1 17  1  0  0  0  0
  1  8  1  0  0  0  0
  2  1  1  0  0  0  0
  3  5  1  0  0  0  0
  3  4  1  0  0  0  0
  6  3  1  0  0  0  0
  7 22  1  1  0  0  0
  7 21  1  0  0  0  0
  7 58  1  0  0  0  0
  8  3  1  0  0  0  0
  8  9  1  0  0  0  0
  9 10  1  0  0  0  0
  9 11  1  0  0  0  0
  9 12  1  0  0  0  0
 13 15  1  0  0  0  0
 13  8  1  0  0  0  0
 14 13  1  0  0  0  0
 16 13  1  0  0  0  0
 17 20  1  0  0  0  0
 18 17  1  0  0  0  0
 19 17  1  0  0  0  0
 20 75  2  0  0  0  0
 20 21  1  0  0  0  0
 21 69  2  0  0  0  0
 22 23  1  1  0  0  0
 23 24  1  6  0  0  0
 23 36  1  0  0  0  0
 24 25  1  0  0  0  0
 25 26  1  0  0  0  0
 26 28  2  0  0  0  0
 26 27  1  0  0  0  0
 28 29  1  0  0  0  0
 30 31  1  0  0  0  0
 30 28  1  0  0  0  0
 32 30  2  0  0  0  0
 33 32  1  0  0  0  0
 34 32  1  0  0  0  0
 34 25  2  0  0  0  0
 35 34  1  0  0  0  0
 36 37  1  0  0  0  0
 37 39  2  0  0  0  0
 37 38  1  0  0  0  0
 39 40  1  0  0  0  0
 41 42  1  0  0  0  0
 41 39  1  0  0  0  0
 43 41  2  0  0  0  0
 44 43  1  0  0  0  0
 45 43  1  0  0  0  0
 45 36  2  0  0  0  0
 46 45  1  0  0  0  0
 47 48  1  0  0  0  0
 47 22  1  0  0  0  0
 48 49  1  0  0  0  0
 50 51  1  0  0  0  0
 50 48  2  0  0  0  0
 52 50  1  0  0  0  0
 53 52  1  0  0  0  0
 54 52  2  0  0  0  0
 54 56  1  0  0  0  0
 55 54  1  0  0  0  0
 56 47  2  0  0  0  0
 57 56  1  0  0  0  0
 58 67  2  0  0  0  0
 58 59  1  0  0  0  0
 59 61  2  0  0  0  0
 60 59  1  0  0  0  0
 61 63  1  0  0  0  0
 61 62  1  0  0  0  0
 63 64  1  0  0  0  0
 65 66  1  0  0  0  0
 65 63  2  0  0  0  0
 67 65  1  0  0  0  0
 68 67  1  0  0  0  0
 69 71  1  0  0  0  0
 69 70  1  0  0  0  0
 71 72  1  0  0  0  0
 73 74  1  0  0  0  0
 73 71  2  0  0  0  0
 75 73  1  0  0  0  0
 76 75  1  0  0  0  0
M  END
