3,24
q = -2.0, confidence = 0.9

 44 46  0  0  0  0  0  0  0  0999 V2000
    2.2305   -0.9009   -1.1871 O   0  0  0  0  0  0  0  0  0  0  0  0
    2.2159   -0.7646    1.1160 O   0  0  0  0  0  0  0  0  0  0  0  0
    0.1748    0.2344   -0.1043 C   0  0  0  0  0  3  0  0  0  0  0  0
   -0.0867    1.5844   -0.1206 C   0  0  0  0  0  0  0  0  0  0  0  0
    3.3168   -1.7511   -0.7284 C   0  0  0  0  0  0  0  0  0  0  0  0
    3.5406   -1.2413    0.7518 C   0  0  0  0  0  0  0  0  0  0  0  0
    4.5126   -1.5641   -1.6569 C   0  0  0  0  0  0  0  0  0  0  0  0
    5.3908   -2.1321   -1.2894 H   0  0  0  0  0  0  0  0  0  0  0  0
    4.2627   -1.9360   -2.6701 H   0  0  0  0  0  0  0  0  0  0  0  0
    4.7911   -0.4981   -1.7442 H   0  0  0  0  0  0  0  0  0  0  0  0
    2.8068   -3.1965   -0.7943 C   0  0  0  0  0  0  0  0  0  0  0  0
    3.5935   -3.9280   -0.5248 H   0  0  0  0  0  0  0  0  0  0  0  0
    1.9423   -3.3444   -0.1164 H   0  0  0  0  0  0  0  0  0  0  0  0
    2.4710   -3.4119   -1.8278 H   0  0  0  0  0  0  0  0  0  0  0  0
    4.4841   -0.0351    0.8344 C   0  0  0  0  0  0  0  0  0  0  0  0
    5.5368   -0.3198    0.6403 H   0  0  0  0  0  0  0  0  0  0  0  0
    4.1871    0.7565    0.1186 H   0  0  0  0  0  0  0  0  0  0  0  0
    4.4199    0.3960    1.8522 H   0  0  0  0  0  0  0  0  0  0  0  0
    3.9645   -2.3202    1.7439 C   0  0  0  0  0  0  0  0  0  0  0  0
    4.9374   -2.7641    1.4516 H   0  0  0  0  0  0  0  0  0  0  0  0
    4.0807   -1.8748    2.7513 H   0  0  0  0  0  0  0  0  0  0  0  0
    3.2148   -3.1299    1.8156 H   0  0  0  0  0  0  0  0  0  0  0  0
   -1.4863    2.0988   -0.1030 C   0  0  0  0  0  0  0  0  0  0  0  0
   -2.5579    1.1502    0.0183 C   0  0  0  0  0  3  0  0  0  0  0  0
   -3.8783    1.6340    0.0273 C   0  0  0  0  0  0  0  0  0  0  0  0
   -4.7222    0.9271    0.1250 H   0  0  0  0  0  0  0  0  0  0  0  0
   -4.1677    3.0071   -0.0870 C   0  0  0  0  0  0  0  0  0  0  0  0
   -5.2120    3.3579   -0.0743 H   0  0  0  0  0  0  0  0  0  0  0  0
   -3.1160    3.9254   -0.2282 C   0  0  0  0  0  0  0  0  0  0  0  0
   -3.3296    5.0003   -0.3349 H   0  0  0  0  0  0  0  0  0  0  0  0
   -1.7875    3.4748   -0.2383 C   0  0  0  0  0  0  0  0  0  0  0  0
   -0.9696    4.2009   -0.3616 H   0  0  0  0  0  0  0  0  0  0  0  0
    1.0619    2.5453   -0.1179 C   0  0  0  0  0  0  0  0  0  0  0  0
    2.0582    2.4699   -1.1171 C   0  0  0  0  0  0  0  0  0  0  0  0
    1.9387    1.7409   -1.9322 H   0  0  0  0  0  0  0  0  0  0  0  0
    3.1885    3.3001   -1.0716 C   0  0  0  0  0  0  0  0  0  0  0  0
    3.9501    3.2284   -1.8638 H   0  0  0  0  0  0  0  0  0  0  0  0
    3.3469    4.2226   -0.0251 C   0  0  0  0  0  0  0  0  0  0  0  0
    4.2344    4.8726    0.0128 H   0  0  0  0  0  0  0  0  0  0  0  0
    2.3619    4.3115    0.9724 C   0  0  0  0  0  0  0  0  0  0  0  0
    2.4802    5.0271    1.8008 H   0  0  0  0  0  0  0  0  0  0  0  0
    1.2284    3.4873    0.9229 C   0  0  0  0  0  0  0  0  0  0  0  0
    0.4649    3.5532    1.7132 H   0  0  0  0  0  0  0  0  0  0  0  0
    1.5588   -0.4332   -0.0616 B   0  0  0  0  0  0  0  0  0  0  0  0
  1  5  1  0  0  0  0
  1 44  1  0  0  0  0
  3 44  1  0  0  0  0
  4 33  1  0  0  0  0
  4  3  2  0  0  0  0
  4 23  1  0  0  0  0
  5  6  1  0  0  0  0
  6 15  1  0  0  0  0
  6  2  1  0  0  0  0
  6 19  1  0  0  0  0
  7  8  1  0  0  0  0
  7  5  1  0  0  0  0
  9  7  1  0  0  0  0
 10  7  1  0  0  0  0
 11  5  1  0  0  0  0
 11 12  1  0  0  0  0
 11 13  1  0  0  0  0
 14 11  1  0  0  0  0
 15 18  1  0  0  0  0
 16 15  1  0  0  0  0
 17 15  1  0  0  0  0
 19 22  1  0  0  0  0
 19 21  1  0  0  0  0
 20 19  1  0  0  0  0
 23 24  1  0  0  0  0
 24 25  2  0  0  0  0
 25 26  1  0  0  0  0
 27 28  1  0  0  0  0
 27 25  1  0  0  0  0
 29 27  2  0  0  0  0
 30 29  1  0  0  0  0
 31 29  1  0  0  0  0
 31 23  2  0  0  0  0
 32 31  1  0  0  0  0
 33 42  1  0  0  0  0
 34 36  1  0  0  0  0
 34 33  2  0  0  0  0
 35 34  1  0  0  0  0
 36 38  2  0  0  0  0
 37 36  1  0  0  0  0
 38 39  1  0  0  0  0
 38 40  1  0  0  0  0
 40 41  1  0  0  0  0
 42 40  2  0  0  0  0
 42 43  1  0  0  0  0
 44  2  1  0  0  0  0
M  END
