7,9
q = 0.0, confidence = 1.0

 38 38  0  0  1  0  0  0  0  0999 V2000
    1.6617    2.0270   -0.4977 O   0  0  0  0  0  0  0  0  0  0  0  0
    1.2219   -1.4013    1.1432 O   0  0  0  0  0  0  0  0  0  0  0  0
    3.0049    0.2098   -0.8080 N   0  0  0  0  0  0  0  0  0  0  0  0
    0.5421   -0.0706   -0.6956 C   0  0  1  0  0  3  0  0  0  0  0  0
    0.2561   -1.1228    0.2333 C   0  0  0  0  0  0  0  0  0  0  0  0
   -0.9936   -1.8056    0.1713 C   0  0  0  0  0  0  0  0  0  0  0  0
   -1.9783   -1.4600   -0.8082 C   0  0  1  0  0  3  0  0  0  0  0  0
   -1.7031   -0.4233   -1.7626 C   0  0  2  0  0  3  0  0  0  0  0  0
   -0.4642    0.2736   -1.6470 C   0  0  0  0  0  3  0  0  0  0  0  0
    1.7783    0.8074   -0.6380 C   0  0  0  0  0  0  0  0  0  0  0  0
    4.1712    1.0983   -0.7534 C   0  0  0  0  0  0  0  0  0  0  0  0
    3.2176   -1.1773   -1.2063 C   0  0  0  0  0  0  0  0  0  0  0  0
    4.5998    1.4427    0.6731 C   0  0  0  0  0  0  0  0  0  0  0  0
    4.0867   -1.9823   -0.2396 C   0  0  0  0  0  0  0  0  0  0  0  0
    0.9037   -2.2400    2.2467 C   0  0  0  0  0  0  0  0  0  0  0  0
   -3.2733   -2.2281   -0.8516 C   0  0  0  0  0  0  0  0  0  0  0  0
   -2.6982   -0.0420   -2.8258 C   0  0  0  0  0  0  0  0  0  0  0  0
   -1.2397   -2.5781    0.9093 H   0  0  0  0  0  0  0  0  0  0  0  0
   -0.2618    1.1247   -2.3133 H   0  0  0  0  0  0  0  0  0  0  0  0
    4.9937    0.6037   -1.3101 H   0  0  0  0  0  0  0  0  0  0  0  0
    3.9080    2.0319   -1.2916 H   0  0  0  0  0  0  0  0  0  0  0  0
    2.2276   -1.6570   -1.3216 H   0  0  0  0  0  0  0  0  0  0  0  0
    3.6836   -1.1855   -2.2198 H   0  0  0  0  0  0  0  0  0  0  0  0
    4.8699    0.5356    1.2494 H   0  0  0  0  0  0  0  0  0  0  0  0
    5.4770    2.1208    0.6601 H   0  0  0  0  0  0  0  0  0  0  0  0
    3.7741    1.9606    1.1983 H   0  0  0  0  0  0  0  0  0  0  0  0
    5.1126   -1.5684   -0.1674 H   0  0  0  0  0  0  0  0  0  0  0  0
    4.1768   -3.0301   -0.5906 H   0  0  0  0  0  0  0  0  0  0  0  0
    3.6395   -1.9849    0.7721 H   0  0  0  0  0  0  0  0  0  0  0  0
    0.6719   -3.2778    1.9225 H   0  0  0  0  0  0  0  0  0  0  0  0
    1.8046   -2.2568    2.8867 H   0  0  0  0  0  0  0  0  0  0  0  0
    0.0525   -1.8290    2.8289 H   0  0  0  0  0  0  0  0  0  0  0  0
   -4.1476   -1.5592   -0.9615 H   0  0  0  0  0  0  0  0  0  0  0  0
   -3.4174   -2.8198    0.0718 H   0  0  0  0  0  0  0  0  0  0  0  0
   -3.2785   -2.9272   -1.7144 H   0  0  0  0  0  0  0  0  0  0  0  0
   -3.7206    0.0675   -2.4163 H   0  0  0  0  0  0  0  0  0  0  0  0
   -2.4200    0.9194   -3.2970 H   0  0  0  0  0  0  0  0  0  0  0  0
   -2.7426   -0.8131   -3.6249 H   0  0  0  0  0  0  0  0  0  0  0  0
  2 15  1  0  0  0  0
  3 11  1  0  0  0  0
  3 10  1  0  0  0  0
  4 10  1  1  0  0  0
  4  5  1  0  0  0  0
  5  2  1  0  0  0  0
  6  5  2  0  0  0  0
  6 18  1  0  0  0  0
  7 16  1  6  0  0  0
  7  6  1  0  0  0  0
  8 17  1  1  0  0  0
  8  9  1  0  0  0  0
  8  7  1  0  0  0  0
  9  4  1  0  0  0  0
 10  1  2  0  0  0  0
 11 13  1  0  0  0  0
 12  3  1  0  0  0  0
 12 14  1  0  0  0  0
 13 26  1  0  0  0  0
 13 24  1  0  0  0  0
 14 27  1  0  0  0  0
 14 29  1  0  0  0  0
 15 32  1  0  0  0  0
 15 31  1  0  0  0  0
 16 34  1  0  0  0  0
 17 36  1  0  0  0  0
 19  9  1  0  0  0  0
 20 11  1  0  0  0  0
 21 11  1  0  0  0  0
 22 12  1  0  0  0  0
 23 12  1  0  0  0  0
 25 13  1  0  0  0  0
 28 14  1  0  0  0  0
 30 15  1  0  0  0  0
 33 16  1  0  0  0  0
 35 16  1  0  0  0  0
 37 17  1  0  0  0  0
 38 17  1  0  0  0  0
M  END
