1,17
q = -1.0

 32 33  0  0  1  0  0  0  0  0999 V2000
   -0.7644    1.1369   -0.0329 C   0  0  0  0  0  2  0  0  0  0  0  0
   -1.3693    2.3522   -0.0282 N   0  0  0  0  0  0  0  0  0  0  0  0
   -0.6528    3.6246    0.0698 C   0  0  0  0  0  0  0  0  0  0  0  0
   -2.8196    2.4828   -0.0215 C   0  0  0  0  0  0  0  0  0  0  0  0
    0.6434    1.2724   -0.0322 N   0  0  0  0  0  0  0  0  0  0  0  0
    1.3073    0.1506    0.0001 C   0  0  0  0  0  0  0  0  0  0  0  0
    2.7757    0.1198   -0.0045 C   0  0  0  0  0  0  0  0  0  0  0  0
    3.5234    1.3207   -0.0561 C   0  0  0  0  0  0  0  0  0  0  0  0
    4.9203    1.2833   -0.0603 C   0  0  0  0  0  0  0  0  0  0  0  0
    5.5956    0.0495   -0.0127 C   0  0  0  0  0  0  0  0  0  0  0  0
    4.8641   -1.1482    0.0385 C   0  0  0  0  0  0  0  0  0  0  0  0
    3.4641   -1.1150    0.0421 C   0  0  0  0  0  0  0  0  0  0  0  0
   -0.0994   -1.6512    1.2182 C   0  0  0  0  0  3  0  0  0  0  0  0
   -1.0755   -2.6170    0.7830 C   0  0  0  0  0  0  0  0  0  0  0  0
   -1.0556   -2.6691   -0.6391 C   0  0  0  0  0  0  0  0  0  0  0  0
   -0.0668   -1.7368   -1.1176 C   0  0  0  0  0  3  0  0  0  0  0  0
    0.5034   -1.0999    0.0362 C   0  0  1  0  0  3  0  0  0  0  0  0
    0.4305    3.4279    0.0898 H   0  0  0  0  0  0  0  0  0  0  0  0
   -0.9025    4.2708   -0.7982 H   0  0  0  0  0  0  0  0  0  0  0  0
   -0.9541    4.1596    0.9960 H   0  0  0  0  0  0  0  0  0  0  0  0
   -3.2818    1.7672   -0.7227 H   0  0  0  0  0  0  0  0  0  0  0  0
   -3.2376    2.2963    0.9896 H   0  0  0  0  0  0  0  0  0  0  0  0
   -3.0894    3.5101   -0.3314 H   0  0  0  0  0  0  0  0  0  0  0  0
    2.9763    2.2733   -0.0938 H   0  0  0  0  0  0  0  0  0  0  0  0
    5.4935    2.2220   -0.1012 H   0  0  0  0  0  0  0  0  0  0  0  0
    6.6960    0.0233   -0.0159 H   0  0  0  0  0  0  0  0  0  0  0  0
    5.3892   -2.1145    0.0755 H   0  0  0  0  0  0  0  0  0  0  0  0
    2.8865   -2.0510    0.0816 H   0  0  0  0  0  0  0  0  0  0  0  0
    0.1335   -1.3690    2.2510 H   0  0  0  0  0  0  0  0  0  0  0  0
   -1.7310   -3.2035    1.4376 H   0  0  0  0  0  0  0  0  0  0  0  0
   -1.6936   -3.3028   -1.2664 H   0  0  0  0  0  0  0  0  0  0  0  0
    0.1939   -1.5304   -2.1616 H   0  0  0  0  0  0  0  0  0  0  0  0
  1  5  1  0  0  0  0
  1  2  1  0  0  0  0
  2  4  1  0  0  0  0
  2  3  1  0  0  0  0
  3 18  1  0  0  0  0
  3 20  1  0  0  0  0
  4 22  1  0  0  0  0
  5  6  2  0  0  0  0
  7  6  1  0  0  0  0
  7 12  1  0  0  0  0
  8  7  2  0  0  0  0
  9  8  1  0  0  0  0
  9 10  2  0  0  0  0
 10 11  1  0  0  0  0
 11 12  2  0  0  0  0
 11 27  1  0  0  0  0
 12 28  1  0  0  0  0
 13 29  1  0  0  0  0
 14 13  1  0  0  0  0
 14 30  1  0  0  0  0
 15 14  2  0  0  0  0
 16 15  1  0  0  0  0
 16 17  1  0  0  0  0
 17  6  1  6  0  0  0
 17 13  1  0  0  0  0
 19  3  1  0  0  0  0
 21  4  1  0  0  0  0
 23  4  1  0  0  0  0
 24  8  1  0  0  0  0
 25  9  1  0  0  0  0
 26 10  1  0  0  0  0
 31 15  1  0  0  0  0
 32 16  1  0  0  0  0
M  END
