1,16
q = -1.0, confidence = 0.012

 35 36  0  0  1  0  0  0  0  0999 V2000
   -0.5640    1.3570   -0.0345 C   0  0  0  0  0  2  0  0  0  0  0  0
   -1.0738    2.6067   -0.1778 N   0  0  0  0  0  0  0  0  0  0  0  0
   -0.2647    3.7988   -0.4343 C   0  0  0  0  0  0  0  0  0  0  0  0
   -2.5107    2.8438   -0.1748 C   0  0  0  0  0  0  0  0  0  0  0  0
    0.8494    1.3766   -0.0773 N   0  0  0  0  0  0  0  0  0  0  0  0
    1.4199    0.2077    0.0174 C   0  0  0  0  0  0  0  0  0  0  0  0
    2.8809    0.0562   -0.0012 C   0  0  0  0  0  0  0  0  0  0  0  0
    3.4668   -1.2278    0.0925 C   0  0  0  0  0  0  0  0  0  0  0  0
    4.8592   -1.3764    0.0748 C   0  0  0  0  0  0  0  0  0  0  0  0
    5.6855   -0.2462   -0.0356 C   0  0  0  0  0  0  0  0  0  0  0  0
    5.1126    1.0359   -0.1286 C   0  0  0  0  0  0  0  0  0  0  0  0
    3.7236    1.1882   -0.1119 C   0  0  0  0  0  0  0  0  0  0  0  0
   -1.2051   -2.4358   -0.3979 C   0  0  0  0  0  0  0  0  0  0  0  0
   -1.1405   -2.3161    1.0232 C   0  0  0  0  0  0  0  0  0  0  0  0
   -0.0689   -1.4199    1.3761 C   0  0  0  0  0  3  0  0  0  0  0  0
    0.5188   -0.9683    0.1474 C   0  0  1  0  0  3  0  0  0  0  0  0
   -0.1618   -1.6006   -0.9491 C   0  0  0  0  0  3  0  0  0  0  0  0
   -2.1393   -3.3125   -1.1763 C   0  0  0  0  0  0  0  0  0  0  0  0
    0.7997    3.5161   -0.4411 H   0  0  0  0  0  0  0  0  0  0  0  0
   -0.5405    4.2427   -1.4150 H   0  0  0  0  0  0  0  0  0  0  0  0
   -0.4471    4.5608    0.3527 H   0  0  0  0  0  0  0  0  0  0  0  0
   -2.9982    2.2944    0.6494 H   0  0  0  0  0  0  0  0  0  0  0  0
   -2.6963    3.9260   -0.0412 H   0  0  0  0  0  0  0  0  0  0  0  0
   -2.9759    2.5191   -1.1285 H   0  0  0  0  0  0  0  0  0  0  0  0
    2.8150   -2.1103    0.1798 H   0  0  0  0  0  0  0  0  0  0  0  0
    5.3040   -2.3802    0.1481 H   0  0  0  0  0  0  0  0  0  0  0  0
    6.7799   -0.3629   -0.0490 H   0  0  0  0  0  0  0  0  0  0  0  0
    5.7601    1.9218   -0.2143 H   0  0  0  0  0  0  0  0  0  0  0  0
    3.2557    2.1803   -0.1825 H   0  0  0  0  0  0  0  0  0  0  0  0
   -1.8101   -2.8221    1.7297 H   0  0  0  0  0  0  0  0  0  0  0  0
    0.2325   -1.1169    2.3850 H   0  0  0  0  0  0  0  0  0  0  0  0
    0.0621   -1.4585   -2.0128 H   0  0  0  0  0  0  0  0  0  0  0  0
   -1.6582   -4.2841   -1.4179 H   0  0  0  0  0  0  0  0  0  0  0  0
   -3.0593   -3.5237   -0.5983 H   0  0  0  0  0  0  0  0  0  0  0  0
   -2.4406   -2.8382   -2.1303 H   0  0  0  0  0  0  0  0  0  0  0  0
  2  4  1  0  0  0  0
  2  1  1  0  0  0  0
  3  2  1  0  0  0  0
  3 21  1  0  0  0  0
  4 23  1  0  0  0  0
  4 22  1  0  0  0  0
  5  1  1  0  0  0  0
  5  6  2  0  0  0  0
  7  6  1  0  0  0  0
  7  8  1  0  0  0  0
  8 25  1  0  0  0  0
  9  8  2  0  0  0  0
  9 26  1  0  0  0  0
 10  9  1  0  0  0  0
 11 12  1  0  0  0  0
 11 10  2  0  0  0  0
 12  7  2  0  0  0  0
 13 14  2  0  0  0  0
 14 15  1  0  0  0  0
 14 30  1  0  0  0  0
 15 31  1  0  0  0  0
 16  6  1  6  0  0  0
 16 15  1  0  0  0  0
 17 13  1  0  0  0  0
 17 16  1  0  0  0  0
 18 34  1  0  0  0  0
 18 13  1  0  0  0  0
 19  3  1  0  0  0  0
 20  3  1  0  0  0  0
 24  4  1  0  0  0  0
 27 10  1  0  0  0  0
 28 11  1  0  0  0  0
 29 12  1  0  0  0  0
 32 17  1  0  0  0  0
 33 18  1  0  0  0  0
 35 18  1  0  0  0  0
M  END
