3,7
q = -1.0, confidence = 0.002

 27 30  0  0  1  0  0  0  0  0999 V2000
   -2.4795   -2.1195   -0.4982 C   0  0  0  0  0  3  0  0  0  0  0  0
   -2.2207   -3.1138   -0.1069 H   0  0  0  0  0  0  0  0  0  0  0  0
   -2.1605   -1.6567   -1.7729 C   0  0  0  0  0  3  0  0  0  0  0  0
   -1.6363   -2.2106   -2.5658 H   0  0  0  0  0  0  0  0  0  0  0  0
   -2.8076   -0.2740   -1.9051 C   0  0  2  0  0  0  0  0  0  0  0  0
   -2.9287    0.1027   -2.9388 H   0  0  0  0  0  0  0  0  0  0  0  0
   -1.8010    0.5282   -1.0335 C   0  0  0  0  0  3  0  0  0  0  0  0
   -1.2592    1.3157   -1.5871 H   0  0  0  0  0  0  0  0  0  0  0  0
   -2.5062    1.0735    0.2106 C   0  0  1  0  0  0  0  0  0  0  0  0
   -1.8170    1.6959    0.8154 H   0  0  0  0  0  0  0  0  0  0  0  0
   -3.6864    1.9078   -0.3519 C   0  0  0  0  0  0  0  0  0  0  0  0
   -4.0393    2.6851    0.3579 H   0  0  0  0  0  0  0  0  0  0  0  0
   -3.3649    2.4404   -1.2705 H   0  0  0  0  0  0  0  0  0  0  0  0
   -4.7968    0.8743   -0.6242 C   0  0  2  0  0  0  0  0  0  0  0  0
   -5.5252    1.2369   -1.3775 H   0  0  0  0  0  0  0  0  0  0  0  0
   -5.4883    0.6143    0.7331 C   0  0  0  0  0  0  0  0  0  0  0  0
   -6.1576   -0.2684    0.6597 H   0  0  0  0  0  0  0  0  0  0  0  0
   -6.1323    1.4759    1.0051 H   0  0  0  0  0  0  0  0  0  0  0  0
   -4.3822    0.3886    1.8008 C   0  0  0  0  0  0  0  0  0  0  0  0
   -4.1701    1.3242    2.3586 H   0  0  0  0  0  0  0  0  0  0  0  0
   -4.7037   -0.3606    2.5535 H   0  0  0  0  0  0  0  0  0  0  0  0
   -3.1036   -0.0925    1.0843 C   0  0  1  0  0  0  0  0  0  0  0  0
   -2.3459   -0.4537    1.8094 H   0  0  0  0  0  0  0  0  0  0  0  0
   -3.5525   -1.2282    0.1221 C   0  0  1  0  0  0  0  0  0  0  0  0
   -4.3054   -1.8615    0.6356 H   0  0  0  0  0  0  0  0  0  0  0  0
   -4.1254   -0.4444   -1.1027 C   0  0  2  0  0  0  0  0  0  0  0  0
   -4.8381   -1.0780   -1.6718 H   0  0  0  0  0  0  0  0  0  0  0  0
  1  2  1  0  0  0  0
  1 24  1  0  0  0  0
  3  1  1  0  0  0  0
  4  3  1  0  0  0  0
  5  6  1  6  0  0  0
  5  3  1  0  0  0  0
  5 26  1  0  0  0  0
  5  7  1  0  0  0  0
  7  9  1  0  0  0  0
  8  7  1  0  0  0  0
  9 10  1  1  0  0  0
  9 22  1  0  0  0  0
 11  9  1  0  0  0  0
 11 12  1  0  0  0  0
 13 11  1  0  0  0  0
 14 15  1  6  0  0  0
 14 11  1  0  0  0  0
 14 16  1  0  0  0  0
 16 18  1  0  0  0  0
 16 19  1  0  0  0  0
 17 16  1  0  0  0  0
 19 20  1  0  0  0  0
 19 21  1  0  0  0  0
 22 19  1  0  0  0  0
 22 23  1  1  0  0  0
 24 25  1  1  0  0  0
 24 22  1  0  0  0  0
 26 27  1  6  0  0  0
 26 14  1  0  0  0  0
 26 24  1  0  0  0  0
M  END
