3,7
q = -1.0, confidence = 0.006

 23 25  0  0  1  0  0  0  0  0999 V2000
   -2.9362   -1.9171   -0.2171 C   0  0  0  0  0  3  0  0  0  0  0  0
   -2.7070   -2.9357    0.1286 H   0  0  0  0  0  0  0  0  0  0  0  0
   -2.6491   -1.4225   -1.4843 C   0  0  0  0  0  3  0  0  0  0  0  0
   -2.2072   -1.9800   -2.3238 H   0  0  0  0  0  0  0  0  0  0  0  0
   -3.1941    0.0085   -1.5266 C   0  0  2  0  0  0  0  0  0  0  0  0
   -3.3629    0.4286   -2.5374 H   0  0  0  0  0  0  0  0  0  0  0  0
   -2.0958    0.7354   -0.7011 C   0  0  0  0  0  3  0  0  0  0  0  0
   -1.5712    1.5347   -1.2540 H   0  0  0  0  0  0  0  0  0  0  0  0
   -2.6466    1.2174    0.6508 C   0  0  1  0  0  0  0  0  0  0  0  0
   -1.8645    1.7809    1.1984 H   0  0  0  0  0  0  0  0  0  0  0  0
   -3.8620    2.1280    0.3636 C   0  0  0  0  0  0  0  0  0  0  0  0
   -3.5638    2.9153   -0.3600 H   0  0  0  0  0  0  0  0  0  0  0  0
   -4.1771    2.6535    1.2895 H   0  0  0  0  0  0  0  0  0  0  0  0
   -5.0113    1.2541   -0.2040 C   0  0  0  0  0  0  0  0  0  0  0  0
   -5.8002    1.0901    0.5604 H   0  0  0  0  0  0  0  0  0  0  0  0
   -5.5121    1.7558   -1.0574 H   0  0  0  0  0  0  0  0  0  0  0  0
   -4.4604   -0.1048   -0.6496 C   0  0  2  0  0  0  0  0  0  0  0  0
   -5.2320   -0.6928   -1.1899 H   0  0  0  0  0  0  0  0  0  0  0  0
   -3.8805   -0.9608    0.5244 C   0  0  2  0  0  0  0  0  0  0  0  0
   -4.6602   -1.5312    1.0700 H   0  0  0  0  0  0  0  0  0  0  0  0
   -3.1411    0.0076    1.4853 C   0  0  0  0  0  0  0  0  0  0  0  0
   -2.2978   -0.5123    1.9855 H   0  0  0  0  0  0  0  0  0  0  0  0
   -3.8256    0.3607    2.2860 H   0  0  0  0  0  0  0  0  0  0  0  0
  1  2  1  0  0  0  0
  1 19  1  0  0  0  0
  3  1  1  0  0  0  0
  4  3  1  0  0  0  0
  5  6  1  6  0  0  0
  5  3  1  0  0  0  0
  5  7  1  0  0  0  0
  5 17  1  0  0  0  0
  7  9  1  0  0  0  0
  8  7  1  0  0  0  0
  9 10  1  1  0  0  0
  9 21  1  0  0  0  0
 11  9  1  0  0  0  0
 11 13  1  0  0  0  0
 12 11  1  0  0  0  0
 14 11  1  0  0  0  0
 14 15  1  0  0  0  0
 16 14  1  0  0  0  0
 17 18  1  6  0  0  0
 17 14  1  0  0  0  0
 17 19  1  0  0  0  0
 19 20  1  1  0  0  0
 19 21  1  0  0  0  0
 21 22  1  0  0  0  0
 21 23  1  0  0  0  0
M  END
