8,37
q = -2.0, confidence = 0.89

 61 62  0  0  1  0  0  0  0  0999 V2000
   -3.2077    0.0501    0.0275 O   0  0  0  0  0  0  0  0  0  0  0  0
   -2.5233    1.5569    0.3383 Si  0  0  0  0  0  0  0  0  0  0  0  0
   -2.5870   -1.4728   -0.3367 Si  0  0  0  0  0  0  0  0  0  0  0  0
   -0.6580    1.5414    0.0319 C   0  0  2  0  0  3  0  0  0  0  0  0
    0.3647    2.1120    0.8658 C   0  0  1  0  0  3  0  0  0  0  0  0
    1.4773    2.4881    0.0363 C   0  0  0  0  0  0  0  0  0  0  0  0
    1.1680    2.1333   -1.3056 C   0  0  0  0  0  0  0  0  0  0  0  0
   -0.1165    1.5012   -1.3123 C   0  0  2  0  0  3  0  0  0  0  0  0
    0.3087    2.4194    2.3318 C   0  0  0  0  0  0  0  0  0  0  0  0
    1.2575    2.1241    2.8228 H   0  0  0  0  0  0  0  0  0  0  0  0
   -0.5190    1.8980    2.8403 H   0  0  0  0  0  0  0  0  0  0  0  0
    0.1725    3.5102    2.4979 H   0  0  0  0  0  0  0  0  0  0  0  0
    2.6816    3.2389    0.4996 C   0  0  0  0  0  0  0  0  0  0  0  0
    3.4710    3.2650   -0.2749 H   0  0  0  0  0  0  0  0  0  0  0  0
    3.1127    2.7728    1.4075 H   0  0  0  0  0  0  0  0  0  0  0  0
    2.4102    4.2877    0.7482 H   0  0  0  0  0  0  0  0  0  0  0  0
    1.9694    2.4893   -2.5147 C   0  0  0  0  0  0  0  0  0  0  0  0
    1.6977    3.5152   -2.8484 H   0  0  0  0  0  0  0  0  0  0  0  0
    1.7800    1.7935   -3.3521 H   0  0  0  0  0  0  0  0  0  0  0  0
    3.0562    2.4703   -2.3101 H   0  0  0  0  0  0  0  0  0  0  0  0
   -0.8055    1.0538   -2.5678 C   0  0  0  0  0  0  0  0  0  0  0  0
   -1.0648    1.9224   -3.2104 H   0  0  0  0  0  0  0  0  0  0  0  0
   -1.7406    0.5081   -2.3531 H   0  0  0  0  0  0  0  0  0  0  0  0
   -0.1490    0.3901   -3.1664 H   0  0  0  0  0  0  0  0  0  0  0  0
   -3.2781    2.7981   -0.8652 C   0  0  0  0  0  0  0  0  0  0  0  0
   -3.1031    2.5237   -1.9228 H   0  0  0  0  0  0  0  0  0  0  0  0
   -2.8507    3.8083   -0.6975 H   0  0  0  0  0  0  0  0  0  0  0  0
   -4.3741    2.8574   -0.7042 H   0  0  0  0  0  0  0  0  0  0  0  0
   -3.0530    2.1051    2.0641 C   0  0  0  0  0  0  0  0  0  0  0  0
   -4.1621    2.1440    2.0737 H   0  0  0  0  0  0  0  0  0  0  0  0
   -2.6772    3.1226    2.2937 H   0  0  0  0  0  0  0  0  0  0  0  0
   -2.7365    1.4271    2.8791 H   0  0  0  0  0  0  0  0  0  0  0  0
   -0.7282   -1.5303   -0.0049 C   0  0  2  0  0  3  0  0  0  0  0  0
    0.2772   -2.1801   -0.7985 C   0  0  1  0  0  3  0  0  0  0  0  0
    1.3872   -2.5154    0.0519 C   0  0  0  0  0  0  0  0  0  0  0  0
    1.0666   -2.1016    1.3777 C   0  0  0  0  0  0  0  0  0  0  0  0
   -0.1998   -1.4439    1.3441 C   0  0  2  0  0  3  0  0  0  0  0  0
    0.1832   -2.5717   -2.2421 C   0  0  0  0  0  0  0  0  0  0  0  0
    1.1658   -2.4671   -2.7404 H   0  0  0  0  0  0  0  0  0  0  0  0
   -0.5429   -1.9510   -2.7945 H   0  0  0  0  0  0  0  0  0  0  0  0
   -0.1382   -3.6317   -2.3370 H   0  0  0  0  0  0  0  0  0  0  0  0
    2.6186   -3.2643   -0.3441 C   0  0  0  0  0  0  0  0  0  0  0  0
    2.4832   -4.3547   -0.1741 H   0  0  0  0  0  0  0  0  0  0  0  0
    3.4941   -2.9344    0.2483 H   0  0  0  0  0  0  0  0  0  0  0  0
    2.8613   -3.1067   -1.4107 H   0  0  0  0  0  0  0  0  0  0  0  0
    1.8381   -2.4290    2.6136 C   0  0  0  0  0  0  0  0  0  0  0  0
    1.7490   -1.6344    3.3774 H   0  0  0  0  0  0  0  0  0  0  0  0
    2.9144   -2.5687    2.4042 H   0  0  0  0  0  0  0  0  0  0  0  0
    1.4450   -3.3738    3.0507 H   0  0  0  0  0  0  0  0  0  0  0  0
   -0.9101   -0.9768    2.5797 C   0  0  0  0  0  0  0  0  0  0  0  0
   -1.2181   -1.8437    3.2035 H   0  0  0  0  0  0  0  0  0  0  0  0
   -1.8207   -0.4003    2.3425 H   0  0  0  0  0  0  0  0  0  0  0  0
   -0.2545   -0.3446    3.2108 H   0  0  0  0  0  0  0  0  0  0  0  0
   -3.4005   -2.7161    0.8251 C   0  0  0  0  0  0  0  0  0  0  0  0
   -3.2117   -2.4816    1.8901 H   0  0  0  0  0  0  0  0  0  0  0  0
   -3.0195   -3.7390    0.6261 H   0  0  0  0  0  0  0  0  0  0  0  0
   -4.4983   -2.7206    0.6651 H   0  0  0  0  0  0  0  0  0  0  0  0
   -3.1253   -1.9359   -2.0840 C   0  0  0  0  0  0  0  0  0  0  0  0
   -4.2336   -1.8844   -2.1135 H   0  0  0  0  0  0  0  0  0  0  0  0
   -2.8280   -2.9741   -2.3340 H   0  0  0  0  0  0  0  0  0  0  0  0
   -2.7383   -1.2659   -2.8750 H   0  0  0  0  0  0  0  0  0  0  0  0
  1  2  1  0  0  0  0
  2 29  1  0  0  0  0
  3  1  1  0  0  0  0
  3 54  1  0  0  0  0
  4  2  1  6  0  0  0
  4  5  1  0  0  0  0
  5  9  1  6  0  0  0
  6 13  1  0  0  0  0
  6  5  1  0  0  0  0
  7  6  2  0  0  0  0
  8 21  1  6  0  0  0
  8  7  1  0  0  0  0
  8  4  1  0  0  0  0
  9 12  1  0  0  0  0
  9 10  1  0  0  0  0
  9 11  1  0  0  0  0
 13 16  1  0  0  0  0
 13 15  1  0  0  0  0
 14 13  1  0  0  0  0
 17 20  1  0  0  0  0
 17  7  1  0  0  0  0
 18 17  1  0  0  0  0
 19 17  1  0  0  0  0
 21 23  1  0  0  0  0
 22 21  1  0  0  0  0
 24 21  1  0  0  0  0
 25 28  1  0  0  0  0
 25 27  1  0  0  0  0
 25  2  1  0  0  0  0
 26 25  1  0  0  0  0
 29 30  1  0  0  0  0
 29 31  1  0  0  0  0
 29 32  1  0  0  0  0
 33  3  1  1  0  0  0
 33 37  1  0  0  0  0
 34 38  1  1  0  0  0
 34 33  1  0  0  0  0
 34 35  1  0  0  0  0
 35 36  2  0  0  0  0
 36 46  1  0  0  0  0
 37 36  1  0  0  0  0
 37 50  1  1  0  0  0
 39 38  1  0  0  0  0
 40 38  1  0  0  0  0
 41 38  1  0  0  0  0
 42 43  1  0  0  0  0
 42 35  1  0  0  0  0
 42 44  1  0  0  0  0
 45 42  1  0  0  0  0
 46 49  1  0  0  0  0
 46 47  1  0  0  0  0
 48 46  1  0  0  0  0
 50 51  1  0  0  0  0
 50 53  1  0  0  0  0
 52 50  1  0  0  0  0
 54 55  1  0  0  0  0
 56 54  1  0  0  0  0
 57 54  1  0  0  0  0
 58  3  1  0  0  0  0
 59 58  1  0  0  0  0
 60 58  1  0  0  0  0
 61 58  1  0  0  0  0
M  END
