13,16
q = 0.0, confidence = 1.0

 30 32  0  0  1  0  0  0  0  0999 V2000
    0.3839    2.7626   -0.3728 O   0  0  0  0  0  0  0  0  0  0  0  0
   -2.5931    1.8727    0.3661 N   0  0  0  0  0  2  0  0  0  0  0  0
   -3.8940    1.3622    0.8387 C   0  0  0  0  0  0  0  0  0  0  0  0
   -3.9056    1.3913    1.9533 H   0  0  0  0  0  0  0  0  0  0  0  0
   -4.7103    2.0339    0.5015 H   0  0  0  0  0  0  0  0  0  0  0  0
   -4.0330   -0.0965    0.3034 C   0  0  0  0  0  0  0  0  0  0  0  0
   -4.4874   -0.0786   -0.7107 H   0  0  0  0  0  0  0  0  0  0  0  0
   -4.6600   -0.7423    0.9476 H   0  0  0  0  0  0  0  0  0  0  0  0
   -2.5633   -0.5261    0.2125 C   0  0  1  0  0  0  0  0  0  0  0  0
   -2.2190   -0.9645    1.1778 H   0  0  0  0  0  0  0  0  0  0  0  0
   -1.9748   -1.3679   -0.9419 C   0  0  1  0  0  0  0  0  0  0  0  0
   -2.5632   -1.1227   -1.8588 H   0  0  0  0  0  0  0  0  0  0  0  0
   -0.6186   -0.6967   -1.1718 C   0  0  1  0  0  3  0  0  0  0  0  0
    0.5041   -1.1945   -1.8759 C   0  0  0  0  0  3  0  0  0  0  0  0
    0.5333   -2.2285   -2.2429 H   0  0  0  0  0  0  0  0  0  0  0  0
    1.6402   -0.3468   -2.0124 C   0  0  0  0  0  3  0  0  0  0  0  0
    2.5494   -0.7312   -2.4959 H   0  0  0  0  0  0  0  0  0  0  0  0
    1.6367    0.9985   -1.5351 C   0  0  0  0  0  3  0  0  0  0  0  0
    2.5391    1.6095   -1.6512 H   0  0  0  0  0  0  0  0  0  0  0  0
    0.4866    1.5178   -0.8627 C   0  0  0  0  0  0  0  0  0  0  0  0
   -0.6269    0.6463   -0.6481 C   0  0  0  0  0  0  0  0  0  0  0  0
   -1.9021    0.8377    0.0435 C   0  0  1  0  0  3  0  0  0  0  0  0
   -1.9738   -2.8823   -0.7576 C   0  0  0  0  0  0  0  0  0  0  0  0
   -3.0129   -3.2551   -0.6623 H   0  0  0  0  0  0  0  0  0  0  0  0
   -1.4205   -3.1800    0.1532 H   0  0  0  0  0  0  0  0  0  0  0  0
   -1.5179   -3.4011   -1.6252 H   0  0  0  0  0  0  0  0  0  0  0  0
    1.5374    3.5959   -0.3619 C   0  0  0  0  0  0  0  0  0  0  0  0
    1.2252    4.5393    0.1203 H   0  0  0  0  0  0  0  0  0  0  0  0
    1.8948    3.8144   -1.3914 H   0  0  0  0  0  0  0  0  0  0  0  0
    2.3567    3.1367    0.2311 H   0  0  0  0  0  0  0  0  0  0  0  0
  1 27  1  0  0  0  0
  2  3  1  0  0  0  0
  3  4  1  0  0  0  0
  5  3  1  0  0  0  0
  6  3  1  0  0  0  0
  6  8  1  0  0  0  0
  7  6  1  0  0  0  0
  9  6  1  0  0  0  0
  9 10  1  1  0  0  0
 11 12  1  6  0  0  0
 11 23  1  0  0  0  0
 11  9  1  0  0  0  0
 13 14  1  6  0  0  0
 13 11  1  0  0  0  0
 13 21  1  0  0  0  0
 15 14  1  0  0  0  0
 16 14  1  0  0  0  0
 16 18  1  0  0  0  0
 17 16  1  0  0  0  0
 18 20  1  0  0  0  0
 19 18  1  0  0  0  0
 20 21  2  0  0  0  0
 20  1  1  0  0  0  0
 22 21  1  6  0  0  0
 22  9  1  0  0  0  0
 22  2  1  0  0  0  0
 23 24  1  0  0  0  0
 23 25  1  0  0  0  0
 26 23  1  0  0  0  0
 27 28  1  0  0  0  0
 27 30  1  0  0  0  0
 29 27  1  0  0  0  0
M  END
