1,3
q = -1.0

 36 38  0  0  0  0  0  0  0  0999 V2000
   -1.1169    0.2721   -0.0050 C   0  0  0  0  0  2  0  0  0  0  0  0
   -0.0037    1.1552    0.0000 C   0  0  0  0  0  0  0  0  0  0  0  0
    1.1154    0.2794    0.0047 C   0  0  0  0  0  3  0  0  0  0  0  0
   -2.5244    0.6279    0.0375 C   0  0  0  0  0  0  0  0  0  0  0  0
   -3.4839   -0.2654   -0.5106 C   0  0  0  0  0  0  0  0  0  0  0  0
   -4.8481    0.0375   -0.4860 C   0  0  0  0  0  0  0  0  0  0  0  0
   -5.2933    1.2211    0.1281 C   0  0  0  0  0  0  0  0  0  0  0  0
   -4.3640    2.1044    0.7059 C   0  0  0  0  0  0  0  0  0  0  0  0
   -2.9954    1.8256    0.6475 C   0  0  0  0  0  0  0  0  0  0  0  0
    2.5205    0.6442   -0.0388 C   0  0  0  0  0  0  0  0  0  0  0  0
    3.4861   -0.2435    0.5076 C   0  0  0  0  0  0  0  0  0  0  0  0
    4.8484    0.0679    0.4821 C   0  0  0  0  0  0  0  0  0  0  0  0
    5.2856    1.2548   -0.1312 C   0  0  0  0  0  0  0  0  0  0  0  0
    4.3503    2.1327   -0.7074 C   0  0  0  0  0  0  0  0  0  0  0  0
    2.9835    1.8453   -0.6482 C   0  0  0  0  0  0  0  0  0  0  0  0
   -0.0086    2.6453    0.0004 C   0  0  0  0  0  0  0  0  0  0  0  0
   -0.5935    3.3627   -1.0663 C   0  0  0  0  0  0  0  0  0  0  0  0
   -0.5964    4.7649   -1.0656 C   0  0  0  0  0  0  0  0  0  0  0  0
   -0.0179    5.4719    0.0013 C   0  0  0  0  0  0  0  0  0  0  0  0
    0.5651    4.7681    1.0678 C   0  0  0  0  0  0  0  0  0  0  0  0
    0.5715    3.3659    1.0675 C   0  0  0  0  0  0  0  0  0  0  0  0
   -3.1266   -1.1987   -0.9684 H   0  0  0  0  0  0  0  0  0  0  0  0
   -5.5725   -0.6594   -0.9334 H   0  0  0  0  0  0  0  0  0  0  0  0
   -6.3689    1.4525    0.1643 H   0  0  0  0  0  0  0  0  0  0  0  0
   -4.7125    3.0231    1.2015 H   0  0  0  0  0  0  0  0  0  0  0  0
   -2.2771    2.5207    1.1022 H   0  0  0  0  0  0  0  0  0  0  0  0
    3.1351   -1.1795    0.9649 H   0  0  0  0  0  0  0  0  0  0  0  0
    5.5775   -0.6249    0.9283 H   0  0  0  0  0  0  0  0  0  0  0  0
    6.3597    1.4930   -0.1681 H   0  0  0  0  0  0  0  0  0  0  0  0
    4.6926    3.0541   -1.2025 H   0  0  0  0  0  0  0  0  0  0  0  0
    2.2605    2.5363   -1.1017 H   0  0  0  0  0  0  0  0  0  0  0  0
   -1.0483    2.8076   -1.9008 H   0  0  0  0  0  0  0  0  0  0  0  0
   -1.0535    5.3105   -1.9053 H   0  0  0  0  0  0  0  0  0  0  0  0
   -0.0216    6.5724    0.0016 H   0  0  0  0  0  0  0  0  0  0  0  0
    1.0186    5.3162    1.9078 H   0  0  0  0  0  0  0  0  0  0  0  0
    1.0300    2.8133    1.9017 H   0  0  0  0  0  0  0  0  0  0  0  0
  1  2  1  0  0  0  0
  1  4  1  0  0  0  0
  2 16  1  0  0  0  0
  2  3  2  0  0  0  0
  4  9  1  0  0  0  0
  5  6  1  0  0  0  0
  5  4  2  0  0  0  0
  6  7  2  0  0  0  0
  7 24  1  0  0  0  0
  7  8  1  0  0  0  0
  8 25  1  0  0  0  0
  9  8  2  0  0  0  0
  9 26  1  0  0  0  0
 10  3  1  0  0  0  0
 10 11  1  0  0  0  0
 11 27  1  0  0  0  0
 12 11  2  0  0  0  0
 12 28  1  0  0  0  0
 13 12  1  0  0  0  0
 14 15  1  0  0  0  0
 14 13  2  0  0  0  0
 15 10  2  0  0  0  0
 16 21  1  0  0  0  0
 17 18  1  0  0  0  0
 17 16  2  0  0  0  0
 18 19  2  0  0  0  0
 19 34  1  0  0  0  0
 19 20  1  0  0  0  0
 20 35  1  0  0  0  0
 21 20  2  0  0  0  0
 21 36  1  0  0  0  0
 22  5  1  0  0  0  0
 23  6  1  0  0  0  0
 29 13  1  0  0  0  0
 30 14  1  0  0  0  0
 31 15  1  0  0  0  0
 32 17  1  0  0  0  0
 33 18  1  0  0  0  0
M  END
