1,10
q = 0.0, confidence = 0.98

 48 47  0  0  1  0  0  0  0  0999 V2000
    0.9720    0.8184    0.5366 C   0  0  0  0  0  2  0  0  0  0  0  0
    1.4433    1.5570    1.5442 O   0  0  0  0  0  0  0  0  0  0  0  0
    2.6078    1.1605    2.2702 C   0  0  0  0  0  0  0  0  0  0  0  0
   -0.1171    1.3731   -0.0127 N   0  0  0  0  0  0  0  0  0  0  0  0
   -0.7721    2.6039    0.4373 C   0  0  0  0  0  0  0  0  0  0  0  0
   -0.5281    3.8022   -0.4999 C   0  0  0  0  0  0  0  0  0  0  0  0
    0.9656    4.1024   -0.6632 C   0  0  0  0  0  0  0  0  0  0  0  0
   -1.3031    5.0168    0.0226 C   0  0  0  0  0  0  0  0  0  0  0  0
   -0.6339    0.7078   -1.2062 C   0  0  0  0  0  0  0  0  0  0  0  0
   -0.1722   -0.7273   -1.2433 C   0  0  0  0  0  3  0  0  0  0  0  0
   -0.3145   -1.6768   -0.1686 C   0  0  2  0  0  3  0  0  0  0  0  0
   -0.3635   -3.1525   -0.5379 C   0  0  0  0  0  0  0  0  0  0  0  0
   -1.0416   -1.4014    1.1487 C   0  0  0  0  0  0  0  0  0  0  0  0
   -2.5665   -1.7175    1.1760 C   0  0  1  0  0  0  0  0  0  0  0  0
   -3.1172   -1.5383    2.5968 C   0  0  0  0  0  0  0  0  0  0  0  0
   -3.2968   -0.7800    0.2141 C   0  0  0  0  0  0  0  0  0  0  0  0
   -3.4072    0.4166    0.4629 O   0  0  0  0  0  0  0  0  0  0  0  0
   -3.8427   -1.3839   -1.0668 C   0  0  0  0  0  0  0  0  0  0  0  0
   -4.5404   -0.3917   -1.9873 C   0  0  0  0  0  0  0  0  0  0  0  0
    2.8352    2.0050    2.9465 H   0  0  0  0  0  0  0  0  0  0  0  0
    2.4153    0.2471    2.8644 H   0  0  0  0  0  0  0  0  0  0  0  0
    3.4605    0.9837    1.5872 H   0  0  0  0  0  0  0  0  0  0  0  0
   -0.3939    2.8369    1.4505 H   0  0  0  0  0  0  0  0  0  0  0  0
   -1.8570    2.3834    0.5189 H   0  0  0  0  0  0  0  0  0  0  0  0
   -0.9434    3.5400   -1.4997 H   0  0  0  0  0  0  0  0  0  0  0  0
    1.1269    4.9447   -1.3656 H   0  0  0  0  0  0  0  0  0  0  0  0
    1.4202    4.3801    0.3107 H   0  0  0  0  0  0  0  0  0  0  0  0
    1.5260    3.2286   -1.0525 H   0  0  0  0  0  0  0  0  0  0  0  0
   -1.1886    5.8859   -0.6557 H   0  0  0  0  0  0  0  0  0  0  0  0
   -2.3866    4.8003    0.1191 H   0  0  0  0  0  0  0  0  0  0  0  0
   -0.9302    5.3224    1.0234 H   0  0  0  0  0  0  0  0  0  0  0  0
   -0.2509    1.2374   -2.1075 H   0  0  0  0  0  0  0  0  0  0  0  0
   -1.7390    0.8240   -1.2046 H   0  0  0  0  0  0  0  0  0  0  0  0
   -0.1442   -1.1416   -2.2651 H   0  0  0  0  0  0  0  0  0  0  0  0
   -1.4151   -3.5039   -0.6400 H   0  0  0  0  0  0  0  0  0  0  0  0
    0.1404   -3.3669   -1.4986 H   0  0  0  0  0  0  0  0  0  0  0  0
    0.1101   -3.7838    0.2418 H   0  0  0  0  0  0  0  0  0  0  0  0
   -0.9369   -0.3502    1.4714 H   0  0  0  0  0  0  0  0  0  0  0  0
   -0.5721   -2.0234    1.9412 H   0  0  0  0  0  0  0  0  0  0  0  0
   -2.7291   -2.7652    0.8484 H   0  0  0  0  0  0  0  0  0  0  0  0
   -4.1886   -1.8172    2.6581 H   0  0  0  0  0  0  0  0  0  0  0  0
   -2.5563   -2.1667    3.3170 H   0  0  0  0  0  0  0  0  0  0  0  0
   -3.0252   -0.4781    2.9054 H   0  0  0  0  0  0  0  0  0  0  0  0
   -4.5159   -2.2215   -0.7724 H   0  0  0  0  0  0  0  0  0  0  0  0
   -2.9855   -1.8880   -1.5697 H   0  0  0  0  0  0  0  0  0  0  0  0
   -4.9514   -0.8964   -2.8831 H   0  0  0  0  0  0  0  0  0  0  0  0
   -5.3688    0.1217   -1.4612 H   0  0  0  0  0  0  0  0  0  0  0  0
   -3.8401    0.3962   -2.3294 H   0  0  0  0  0  0  0  0  0  0  0  0
  1  2  1  0  0  0  0
  2  3  1  0  0  0  0
  3 21  1  0  0  0  0
  3 20  1  0  0  0  0
  4  5  1  0  0  0  0
  4  1  1  0  0  0  0
  5 24  1  0  0  0  0
  5 23  1  0  0  0  0
  6  8  1  0  0  0  0
  6  5  1  0  0  0  0
  7  6  1  0  0  0  0
  7 27  1  0  0  0  0
  8 30  1  0  0  0  0
  8 31  1  0  0  0  0
  9 33  1  0  0  0  0
  9  4  1  0  0  0  0
 10  9  1  0  0  0  0
 11 10  1  6  0  0  0
 11 13  1  0  0  0  0
 12 11  1  0  0  0  0
 12 37  1  0  0  0  0
 13 14  1  0  0  0  0
 13 38  1  0  0  0  0
 13 39  1  0  0  0  0
 14 40  1  6  0  0  0
 14 15  1  0  0  0  0
 15 41  1  0  0  0  0
 15 43  1  0  0  0  0
 15 42  1  0  0  0  0
 16 17  2  0  0  0  0
 16 14  1  0  0  0  0
 18 44  1  0  0  0  0
 18 16  1  0  0  0  0
 19 47  1  0  0  0  0
 19 18  1  0  0  0  0
 22  3  1  0  0  0  0
 25  6  1  0  0  0  0
 26  7  1  0  0  0  0
 28  7  1  0  0  0  0
 29  8  1  0  0  0  0
 32  9  1  0  0  0  0
 34 10  1  0  0  0  0
 35 12  1  0  0  0  0
 36 12  1  0  0  0  0
 45 18  1  0  0  0  0
 46 19  1  0  0  0  0
 48 19  1  0  0  0  0
M  END
