1,3
q = -2.0, confidence = 0.794

 21 20  0  0  0  0  0  0  0  0999 V2000
   -0.8398   -0.2053   -1.2917 C   0  0  0  0  0  3  0  0  0  0  0  0
   -1.7060   -0.4775   -0.0004 C   0  0  0  0  0  0  0  0  0  0  0  0
   -0.8396   -0.2077    1.2915 C   0  0  0  0  0  3  0  0  0  0  0  0
   -2.1821   -1.9448   -0.0026 C   0  0  0  0  0  0  0  0  0  0  0  0
   -2.9593    0.4838    0.0011 C   0  0  0  0  0  0  0  0  0  0  0  0
   -3.8352    0.3532   -1.2529 C   0  0  0  0  0  0  0  0  0  0  0  0
   -3.8359    0.3473    1.2540 C   0  0  0  0  0  0  0  0  0  0  0  0
   -0.8842   -1.0367   -2.0171 H   0  0  0  0  0  0  0  0  0  0  0  0
   -1.1482    0.7219   -1.8056 H   0  0  0  0  0  0  0  0  0  0  0  0
   -0.8831   -1.0406    2.0153 H   0  0  0  0  0  0  0  0  0  0  0  0
   -1.1489    0.7182    1.8072 H   0  0  0  0  0  0  0  0  0  0  0  0
   -1.3329   -2.6503   -0.0078 H   0  0  0  0  0  0  0  0  0  0  0  0
   -2.7951   -2.1649   -0.8999 H   0  0  0  0  0  0  0  0  0  0  0  0
   -2.7890   -2.1700    0.8976 H   0  0  0  0  0  0  0  0  0  0  0  0
   -2.5361    1.5129    0.0037 H   0  0  0  0  0  0  0  0  0  0  0  0
   -3.2450    0.4355   -2.1862 H   0  0  0  0  0  0  0  0  0  0  0  0
   -4.3694   -0.6193   -1.2749 H   0  0  0  0  0  0  0  0  0  0  0  0
   -4.6092    1.1477   -1.2691 H   0  0  0  0  0  0  0  0  0  0  0  0
   -3.2461    0.4246    2.1880 H   0  0  0  0  0  0  0  0  0  0  0  0
   -4.3704   -0.6251    1.2709 H   0  0  0  0  0  0  0  0  0  0  0  0
   -4.6097    1.1419    1.2739 H   0  0  0  0  0  0  0  0  0  0  0  0
  1  2  1  0  0  0  0
  2  5  1  0  0  0  0
  2  3  1  0  0  0  0
  3 11  1  0  0  0  0
  3 10  1  0  0  0  0
  4  2  1  0  0  0  0
  4 14  1  0  0  0  0
  5 15  1  0  0  0  0
  5  7  1  0  0  0  0
  6  5  1  0  0  0  0
  7 20  1  0  0  0  0
  7 21  1  0  0  0  0
  7 19  1  0  0  0  0
  8  1  1  0  0  0  0
  9  1  1  0  0  0  0
 12  4  1  0  0  0  0
 13  4  1  0  0  0  0
 16  6  1  0  0  0  0
 17  6  1  0  0  0  0
 18  6  1  0  0  0  0
M  END
