3,17
q = -1.0

 27 28  0  0  0  0  0  0  0  0999 V2000
    0.2130    1.9886   -0.4188 N   0  0  0  0  0  0  0  0  0  0  0  0
   -1.8876    1.4491   -0.2891 N   0  0  0  0  0  0  0  0  0  0  0  0
    1.8170    0.3311    0.0204 C   0  0  0  0  0  3  0  0  0  0  0  0
    3.1524   -0.0328    0.2804 C   0  0  0  0  0  0  0  0  0  0  0  0
    3.3916   -1.0722    0.5547 H   0  0  0  0  0  0  0  0  0  0  0  0
    4.1943    0.9115    0.2178 C   0  0  0  0  0  0  0  0  0  0  0  0
    5.2285    0.5944    0.4242 H   0  0  0  0  0  0  0  0  0  0  0  0
    3.9269    2.2539   -0.0974 C   0  0  0  0  0  0  0  0  0  0  0  0
    4.7444    2.9885   -0.1463 H   0  0  0  0  0  0  0  0  0  0  0  0
    2.6051    2.6624   -0.3357 C   0  0  0  0  0  0  0  0  0  0  0  0
    2.3769    3.7152   -0.5621 H   0  0  0  0  0  0  0  0  0  0  0  0
    1.5898    1.7008   -0.2645 C   0  0  0  0  0  0  0  0  0  0  0  0
   -0.4961    3.1760   -0.5090 C   0  0  0  0  0  0  0  0  0  0  0  0
   -0.0152    4.1512   -0.6201 H   0  0  0  0  0  0  0  0  0  0  0  0
   -1.8228    2.8360   -0.4245 C   0  0  0  0  0  0  0  0  0  0  0  0
   -2.7170    3.4644   -0.4552 H   0  0  0  0  0  0  0  0  0  0  0  0
   -0.6307    0.9130   -0.2844 C   0  0  0  0  0  2  0  0  0  0  0  0
   -3.1085    0.6901    0.0257 C   0  0  0  0  0  0  0  0  0  0  0  0
   -2.7758   -0.3649   -0.0082 H   0  0  0  0  0  0  0  0  0  0  0  0
   -3.5641    0.9939    1.4558 C   0  0  0  0  0  0  0  0  0  0  0  0
   -2.7370    0.7761    2.1608 H   0  0  0  0  0  0  0  0  0  0  0  0
   -4.4349    0.3612    1.7199 H   0  0  0  0  0  0  0  0  0  0  0  0
   -3.8672    2.0556    1.5663 H   0  0  0  0  0  0  0  0  0  0  0  0
   -4.1900    0.9204   -1.0304 C   0  0  0  0  0  0  0  0  0  0  0  0
   -4.5597    1.9667   -1.0205 H   0  0  0  0  0  0  0  0  0  0  0  0
   -5.0593    0.2637   -0.8298 H   0  0  0  0  0  0  0  0  0  0  0  0
   -3.8129    0.6982   -2.0487 H   0  0  0  0  0  0  0  0  0  0  0  0
  1 17  1  0  0  0  0
  1 12  1  0  0  0  0
  2 17  1  0  0  0  0
  2 18  1  0  0  0  0
  3  4  1  0  0  0  0
  4  5  1  0  0  0  0
  6  4  2  0  0  0  0
  6  7  1  0  0  0  0
  8  6  1  0  0  0  0
  9  8  1  0  0  0  0
 10 12  1  0  0  0  0
 10  8  2  0  0  0  0
 11 10  1  0  0  0  0
 12  3  2  0  0  0  0
 13 15  2  0  0  0  0
 13  1  1  0  0  0  0
 14 13  1  0  0  0  0
 15  2  1  0  0  0  0
 16 15  1  0  0  0  0
 18 20  1  0  0  0  0
 19 18  1  0  0  0  0
 20 23  1  0  0  0  0
 20 22  1  0  0  0  0
 20 21  1  0  0  0  0
 24 25  1  0  0  0  0
 24 26  1  0  0  0  0
 24 18  1  0  0  0  0
 27 24  1  0  0  0  0
M  END
