3,13
q = -1.0

 30 31  0  0  0  0  0  0  0  0999 V2000
    0.8377    2.0051   -0.2299 N   0  0  0  0  0  0  0  0  0  0  0  0
   -1.2962    1.8646    0.1426 N   0  0  0  0  0  0  0  0  0  0  0  0
    2.1277    0.0476   -0.1018 C   0  0  0  0  0  3  0  0  0  0  0  0
    2.1399    1.4538   -0.2779 C   0  0  0  0  0  0  0  0  0  0  0  0
    3.3066    2.2113   -0.4373 C   0  0  0  0  0  0  0  0  0  0  0  0
    3.2628    3.3028   -0.5723 H   0  0  0  0  0  0  0  0  0  0  0  0
    4.5420    1.5452   -0.4084 C   0  0  0  0  0  0  0  0  0  0  0  0
    5.4748    2.1154   -0.5307 H   0  0  0  0  0  0  0  0  0  0  0  0
    4.5784    0.1554   -0.2079 C   0  0  0  0  0  0  0  0  0  0  0  0
    5.5479   -0.3652   -0.1661 H   0  0  0  0  0  0  0  0  0  0  0  0
    3.3880   -0.5791   -0.0514 C   0  0  0  0  0  0  0  0  0  0  0  0
    3.4519   -1.6634    0.1301 H   0  0  0  0  0  0  0  0  0  0  0  0
   -0.1785    1.0991   -0.0442 C   0  0  0  0  0  2  0  0  0  0  0  0
    0.3712    3.3086   -0.1685 C   0  0  0  0  0  0  0  0  0  0  0  0
    1.0209    4.1805   -0.2784 H   0  0  0  0  0  0  0  0  0  0  0  0
   -0.9781    3.2202    0.0644 C   0  0  0  0  0  0  0  0  0  0  0  0
   -1.7325    4.0028    0.1863 H   0  0  0  0  0  0  0  0  0  0  0  0
   -2.6162    1.3436    0.4703 C   0  0  0  0  0  0  0  0  0  0  0  0
   -2.9711    1.8528    1.3916 H   0  0  0  0  0  0  0  0  0  0  0  0
   -2.4617    0.2792    0.7284 H   0  0  0  0  0  0  0  0  0  0  0  0
   -3.6340    1.5213   -0.6606 C   0  0  0  0  0  0  0  0  0  0  0  0
   -3.2596    0.9959   -1.5667 H   0  0  0  0  0  0  0  0  0  0  0  0
   -3.6866    2.5969   -0.9351 H   0  0  0  0  0  0  0  0  0  0  0  0
   -5.0392    1.0192   -0.3034 C   0  0  0  0  0  0  0  0  0  0  0  0
   -5.4151    1.5859    0.5776 H   0  0  0  0  0  0  0  0  0  0  0  0
   -5.7241    1.2774   -1.1385 H   0  0  0  0  0  0  0  0  0  0  0  0
   -5.1288   -0.4829   -0.0205 C   0  0  0  0  0  0  0  0  0  0  0  0
   -4.5514   -0.7735    0.8810 H   0  0  0  0  0  0  0  0  0  0  0  0
   -4.7408   -1.0793   -0.8732 H   0  0  0  0  0  0  0  0  0  0  0  0
   -6.1774   -0.7968    0.1527 H   0  0  0  0  0  0  0  0  0  0  0  0
  1 14  1  0  0  0  0
  1 13  1  0  0  0  0
  2 18  1  0  0  0  0
  3 11  1  0  0  0  0
  4  1  1  0  0  0  0
  4  3  2  0  0  0  0
  5  7  2  0  0  0  0
  5  4  1  0  0  0  0
  6  5  1  0  0  0  0
  7  9  1  0  0  0  0
  8  7  1  0  0  0  0
  9 10  1  0  0  0  0
  9 11  2  0  0  0  0
 11 12  1  0  0  0  0
 13  2  1  0  0  0  0
 14 16  2  0  0  0  0
 15 14  1  0  0  0  0
 16  2  1  0  0  0  0
 16 17  1  0  0  0  0
 18 20  1  0  0  0  0
 18 19  1  0  0  0  0
 21 24  1  0  0  0  0
 21 18  1  0  0  0  0
 22 21  1  0  0  0  0
 23 21  1  0  0  0  0
 24 27  1  0  0  0  0
 24 25  1  0  0  0  0
 26 24  1  0  0  0  0
 27 30  1  0  0  0  0
 27 28  1  0  0  0  0
 29 27  1  0  0  0  0
M  END
