3,17
q = -1.0

 31 33  0  0  0  0  0  0  0  0999 V2000
    0.4070    1.8533   -0.8055 N   0  0  0  0  0  0  0  0  0  0  0  0
   -1.3763    0.6733   -1.1728 N   0  0  0  0  0  0  0  0  0  0  0  0
   -0.0817    0.5713   -0.7450 C   0  0  0  0  0  2  0  0  0  0  0  0
   -0.5564    2.7405   -1.2613 C   0  0  0  0  0  0  0  0  0  0  0  0
   -0.3741    3.8123   -1.3736 H   0  0  0  0  0  0  0  0  0  0  0  0
   -1.6848    1.9954   -1.4919 C   0  0  0  0  0  0  0  0  0  0  0  0
   -2.6813    2.2887   -1.8336 H   0  0  0  0  0  0  0  0  0  0  0  0
    1.7045    2.0327   -0.2708 C   0  0  0  0  0  0  0  0  0  0  0  0
    2.3647    3.2659   -0.2103 C   0  0  0  0  0  0  0  0  0  0  0  0
    1.9046    4.1784   -0.6193 H   0  0  0  0  0  0  0  0  0  0  0  0
    3.6286    3.3153    0.3989 C   0  0  0  0  0  0  0  0  0  0  0  0
    4.1698    4.2711    0.4601 H   0  0  0  0  0  0  0  0  0  0  0  0
    4.1864    2.1459    0.9408 C   0  0  0  0  0  0  0  0  0  0  0  0
    5.1692    2.1879    1.4359 H   0  0  0  0  0  0  0  0  0  0  0  0
    3.4984    0.9201    0.8649 C   0  0  0  0  0  0  0  0  0  0  0  0
    3.9502    0.0268    1.3238 H   0  0  0  0  0  0  0  0  0  0  0  0
    2.2423    0.8235    0.2364 C   0  0  0  0  0  3  0  0  0  0  0  0
   -2.3464   -0.4204   -1.1700 C   0  0  0  0  0  0  0  0  0  0  0  0
   -1.8007   -1.2919   -0.7602 H   0  0  0  0  0  0  0  0  0  0  0  0
   -2.6447   -0.6518   -2.2141 H   0  0  0  0  0  0  0  0  0  0  0  0
   -3.5652   -0.1085   -0.3280 C   0  0  0  0  0  0  0  0  0  0  0  0
   -3.4182    0.1221    1.0559 C   0  0  0  0  0  0  0  0  0  0  0  0
   -2.4130    0.0695    1.5124 H   0  0  0  0  0  0  0  0  0  0  0  0
   -4.5438    0.4161    1.8372 C   0  0  0  0  0  0  0  0  0  0  0  0
   -4.4227    0.5935    2.9168 H   0  0  0  0  0  0  0  0  0  0  0  0
   -5.8206    0.4806    1.2521 C   0  0  0  0  0  0  0  0  0  0  0  0
   -6.7011    0.7109    1.8713 H   0  0  0  0  0  0  0  0  0  0  0  0
   -5.9703    0.2503   -0.1234 C   0  0  0  0  0  0  0  0  0  0  0  0
   -6.9667    0.2994   -0.5884 H   0  0  0  0  0  0  0  0  0  0  0  0
   -4.8438   -0.0407   -0.9104 C   0  0  0  0  0  0  0  0  0  0  0  0
   -4.9600   -0.2210   -1.9917 H   0  0  0  0  0  0  0  0  0  0  0  0
  1  3  1  0  0  0  0
  1  8  1  0  0  0  0
  2 18  1  0  0  0  0
  2  3  1  0  0  0  0
  4  1  1  0  0  0  0
  5  4  1  0  0  0  0
  6  4  2  0  0  0  0
  6  2  1  0  0  0  0
  7  6  1  0  0  0  0
  8  9  2  0  0  0  0
  8 17  1  0  0  0  0
  9 11  1  0  0  0  0
 10  9  1  0  0  0  0
 11 12  1  0  0  0  0
 11 13  2  0  0  0  0
 13 14  1  0  0  0  0
 15 13  1  0  0  0  0
 15 16  1  0  0  0  0
 17 15  2  0  0  0  0
 18 19  1  0  0  0  0
 18 21  1  0  0  0  0
 20 18  1  0  0  0  0
 21 22  1  0  0  0  0
 22 23  1  0  0  0  0
 22 24  2  0  0  0  0
 24 25  1  0  0  0  0
 26 24  1  0  0  0  0
 26 27  1  0  0  0  0
 28 26  2  0  0  0  0
 29 28  1  0  0  0  0
 30 21  2  0  0  0  0
 30 28  1  0  0  0  0
 31 30  1  0  0  0  0
M  END
