5,21
q = 0.0, confidence = 1.0

 45 48  0  0  0  0  0  0  0  0999 V2000
   -2.5798   -1.1038   -0.7579 N   0  0  0  0  0  0  0  0  0  0  0  0
   -1.1918   -2.7561   -0.5419 N   0  0  0  0  0  0  0  0  0  0  0  0
    1.1918   -2.7561   -0.5418 N   0  0  0  0  0  0  0  0  0  0  0  0
    2.5798   -1.1038   -0.7579 N   0  0  0  0  0  0  0  0  0  0  0  0
   -1.3624   -1.4301   -0.2098 C   0  0  0  0  0  2  0  0  0  0  0  0
   -2.2738   -3.2527   -1.2602 C   0  0  0  0  0  0  0  0  0  0  0  0
   -2.3314   -4.2873   -1.6110 H   0  0  0  0  0  0  0  0  0  0  0  0
   -3.1509   -2.2108   -1.3896 C   0  0  0  0  0  0  0  0  0  0  0  0
   -4.1134   -2.1437   -1.9035 H   0  0  0  0  0  0  0  0  0  0  0  0
   -3.1830    0.1949   -0.7556 C   0  0  0  0  0  0  0  0  0  0  0  0
   -0.0000   -3.4714   -0.1193 C   0  0  0  0  0  0  0  0  0  0  0  0
   -0.0000   -3.5452    0.9882 H   0  0  0  0  0  0  0  0  0  0  0  0
   -0.0000   -4.4815   -0.5679 H   0  0  0  0  0  0  0  0  0  0  0  0
    2.2738   -3.2527   -1.2601 C   0  0  0  0  0  0  0  0  0  0  0  0
    2.3314   -4.2873   -1.6110 H   0  0  0  0  0  0  0  0  0  0  0  0
    3.1508   -2.2108   -1.3896 C   0  0  0  0  0  0  0  0  0  0  0  0
    4.1134   -2.1436   -1.9035 H   0  0  0  0  0  0  0  0  0  0  0  0
    3.1830    0.1949   -0.7556 C   0  0  0  0  0  0  0  0  0  0  0  0
    4.5415    0.3262   -0.4375 C   0  0  0  0  0  0  0  0  0  0  0  0
    5.1245   -0.5574   -0.1391 H   0  0  0  0  0  0  0  0  0  0  0  0
    1.3623   -1.4301   -0.2098 C   0  0  0  0  0  2  0  0  0  0  0  0
    5.1359    1.5946   -0.4584 C   0  0  0  0  0  0  0  0  0  0  0  0
    6.2004    1.6942   -0.1952 H   0  0  0  0  0  0  0  0  0  0  0  0
    4.3918    2.7455   -0.7830 C   0  0  0  0  0  0  0  0  0  0  0  0
    3.0283    2.5824   -1.1070 C   0  0  0  0  0  0  0  0  0  0  0  0
    2.4234    3.4658   -1.3639 H   0  0  0  0  0  0  0  0  0  0  0  0
    2.4230    1.3236   -1.0994 C   0  0  0  0  0  0  0  0  0  0  0  0
    1.3561    1.2051   -1.3325 H   0  0  0  0  0  0  0  0  0  0  0  0
    5.0172    4.1163   -0.7508 C   0  0  0  0  0  0  0  0  0  0  0  0
    4.6760    4.7408   -1.6009 H   0  0  0  0  0  0  0  0  0  0  0  0
    6.1229    4.0647   -0.7805 H   0  0  0  0  0  0  0  0  0  0  0  0
    4.7344    4.6546    0.1791 H   0  0  0  0  0  0  0  0  0  0  0  0
   -2.4230    1.3236   -1.0995 C   0  0  0  0  0  0  0  0  0  0  0  0
   -1.3561    1.2051   -1.3326 H   0  0  0  0  0  0  0  0  0  0  0  0
   -3.0282    2.5824   -1.1070 C   0  0  0  0  0  0  0  0  0  0  0  0
   -2.4234    3.4658   -1.3640 H   0  0  0  0  0  0  0  0  0  0  0  0
   -4.3918    2.7455   -0.7830 C   0  0  0  0  0  0  0  0  0  0  0  0
   -5.1359    1.5946   -0.4583 C   0  0  0  0  0  0  0  0  0  0  0  0
   -6.2004    1.6943   -0.1951 H   0  0  0  0  0  0  0  0  0  0  0  0
   -4.5415    0.3262   -0.4375 C   0  0  0  0  0  0  0  0  0  0  0  0
   -5.1245   -0.5573   -0.1391 H   0  0  0  0  0  0  0  0  0  0  0  0
   -5.0171    4.1163   -0.7509 C   0  0  0  0  0  0  0  0  0  0  0  0
   -4.6760    4.7408   -1.6010 H   0  0  0  0  0  0  0  0  0  0  0  0
   -4.7342    4.6547    0.1791 H   0  0  0  0  0  0  0  0  0  0  0  0
   -6.1228    4.0647   -0.7803 H   0  0  0  0  0  0  0  0  0  0  0  0
  1 10  1  0  0  0  0
  1  5  1  0  0  0  0
  2  5  1  0  0  0  0
  2 11  1  0  0  0  0
  3 21  1  0  0  0  0
  3 11  1  0  0  0  0
  4 18  1  0  0  0  0
  4 21  1  0  0  0  0
  6  2  1  0  0  0  0
  7  6  1  0  0  0  0
  8  6  2  0  0  0  0
  8  1  1  0  0  0  0
  9  8  1  0  0  0  0
 10 40  1  0  0  0  0
 11 12  1  0  0  0  0
 13 11  1  0  0  0  0
 14  3  1  0  0  0  0
 15 14  1  0  0  0  0
 16 14  2  0  0  0  0
 16  4  1  0  0  0  0
 17 16  1  0  0  0  0
 18 19  1  0  0  0  0
 19 20  1  0  0  0  0
 22 19  2  0  0  0  0
 22 23  1  0  0  0  0
 24 29  1  0  0  0  0
 24 22  1  0  0  0  0
 25 27  1  0  0  0  0
 25 24  2  0  0  0  0
 26 25  1  0  0  0  0
 27 18  2  0  0  0  0
 28 27  1  0  0  0  0
 29 32  1  0  0  0  0
 30 29  1  0  0  0  0
 31 29  1  0  0  0  0
 33 10  2  0  0  0  0
 34 33  1  0  0  0  0
 35 33  1  0  0  0  0
 35 37  2  0  0  0  0
 36 35  1  0  0  0  0
 37 42  1  0  0  0  0
 37 38  1  0  0  0  0
 38 40  2  0  0  0  0
 38 39  1  0  0  0  0
 40 41  1  0  0  0  0
 42 44  1  0  0  0  0
 43 42  1  0  0  0  0
 45 42  1  0  0  0  0
M  END
