3,7
q = 0, confidence = 1.0

 27 27  0  0  1  0  0  0  0  0999 V2000
    2.7395    0.2254   -0.0000 Si  0  0  0  0  0  0  0  0  0  0  0  0
    0.9553    0.8893   -0.0000 C   0  0  2  0  0  3  0  0  0  0  0  0
    0.2307    1.1072    1.2160 C   0  0  0  0  0  3  0  0  0  0  0  0
   -1.1174    1.5606    1.2263 C   0  0  0  0  0  0  0  0  0  0  0  0
   -1.8193    1.7665    0.0000 C   0  0  0  0  0  0  0  0  0  0  0  0
   -1.1174    1.5606   -1.2263 C   0  0  0  0  0  3  0  0  0  0  0  0
    0.2307    1.1072   -1.2160 C   0  0  0  0  0  3  0  0  0  0  0  0
   -3.2518    2.2257   -0.0001 C   0  0  0  0  0  0  0  0  0  0  0  0
   -3.2950    3.3353   -0.0020 H   0  0  0  0  0  0  0  0  0  0  0  0
   -3.7907    1.8653    0.8967 H   0  0  0  0  0  0  0  0  0  0  0  0
   -3.7916    1.8622   -0.8950 H   0  0  0  0  0  0  0  0  0  0  0  0
    3.9082    1.7167   -0.0010 C   0  0  0  0  0  0  0  0  0  0  0  0
    3.7488    2.3511    0.8948 H   0  0  0  0  0  0  0  0  0  0  0  0
    3.7487    2.3500   -0.8977 H   0  0  0  0  0  0  0  0  0  0  0  0
    4.9683    1.3879   -0.0009 H   0  0  0  0  0  0  0  0  0  0  0  0
    3.0198   -0.8059   -1.5565 C   0  0  0  0  0  0  0  0  0  0  0  0
    2.3114   -1.6554   -1.6204 H   0  0  0  0  0  0  0  0  0  0  0  0
    4.0509   -1.2158   -1.5533 H   0  0  0  0  0  0  0  0  0  0  0  0
    2.9117   -0.1990   -2.4789 H   0  0  0  0  0  0  0  0  0  0  0  0
    3.0206   -0.8042    1.5574 C   0  0  0  0  0  0  0  0  0  0  0  0
    2.3119   -1.6533    1.6231 H   0  0  0  0  0  0  0  0  0  0  0  0
    2.9137   -0.1961    2.4792 H   0  0  0  0  0  0  0  0  0  0  0  0
    4.0515   -1.2146    1.5537 H   0  0  0  0  0  0  0  0  0  0  0  0
    0.7152    0.8905    2.1798 H   0  0  0  0  0  0  0  0  0  0  0  0
   -1.6476    1.6809    2.1813 H   0  0  0  0  0  0  0  0  0  0  0  0
   -1.6476    1.6810   -2.1813 H   0  0  0  0  0  0  0  0  0  0  0  0
    0.7151    0.8904   -2.1799 H   0  0  0  0  0  0  0  0  0  0  0  0
  1 20  1  0  0  0  0
  2  1  1  1  0  0  0
  2  3  1  0  0  0  0
  3  4  1  0  0  0  0
  3 24  1  0  0  0  0
  4 25  1  0  0  0  0
  5  4  2  0  0  0  0
  6  7  1  0  0  0  0
  6  5  1  0  0  0  0
  7  2  1  0  0  0  0
  8  5  1  0  0  0  0
  8 10  1  0  0  0  0
  9  8  1  0  0  0  0
 11  8  1  0  0  0  0
 12 15  1  0  0  0  0
 12  1  1  0  0  0  0
 12 13  1  0  0  0  0
 14 12  1  0  0  0  0
 16 18  1  0  0  0  0
 16  1  1  0  0  0  0
 17 16  1  0  0  0  0
 19 16  1  0  0  0  0
 20 21  1  0  0  0  0
 20 22  1  0  0  0  0
 23 20  1  0  0  0  0
 26  6  1  0  0  0  0
 27  7  1  0  0  0  0
M  END
