4,15
q = -1.0

 36 36  0  0  1  0  0  0  0  0999 V2000
    2.6959    0.4758    1.0287 O   0  0  0  0  0  0  0  0  0  0  0  0
   -0.2600    1.7506   -0.6374 C   0  0  0  0  0  0  0  0  0  0  0  0
   -1.6130    1.3305   -0.3655 C   0  0  0  0  0  0  0  0  0  0  0  0
   -1.6579    0.8088    0.9976 C   0  0  1  0  0  3  0  0  0  0  0  0
   -0.3294    0.9231    1.5569 C   0  0  0  0  0  0  0  0  0  0  0  0
    0.5436    1.4621    0.5347 C   0  0  0  0  0  0  0  0  0  0  0  0
    0.1748    2.4878   -1.8627 C   0  0  0  0  0  0  0  0  0  0  0  0
   -2.7954    1.5345   -1.2604 C   0  0  0  0  0  0  0  0  0  0  0  0
   -2.8913    0.4051    1.7421 C   0  0  0  0  0  0  0  0  0  0  0  0
    0.0696    0.6384    2.9702 C   0  0  0  0  0  0  0  0  0  0  0  0
    2.0194    1.6978    0.7628 C   0  0  0  0  0  0  0  0  0  0  0  0
    3.4666   -0.0508   -0.0428 C   0  0  0  0  0  0  0  0  0  0  0  0
    2.7244   -0.2270   -1.3754 C   0  0  0  0  0  0  0  0  0  0  0  0
    1.5525   -1.1749   -1.4177 C   0  0  0  0  0  3  0  0  0  0  0  0
    0.4321   -0.9757   -2.2511 C   0  0  0  0  0  3  0  0  0  0  0  0
   -0.0208    3.5717   -1.7183 H   0  0  0  0  0  0  0  0  0  0  0  0
    1.2549    2.3795   -2.0712 H   0  0  0  0  0  0  0  0  0  0  0  0
   -0.3908    2.1777   -2.7616 H   0  0  0  0  0  0  0  0  0  0  0  0
   -3.2348    2.5385   -1.0797 H   0  0  0  0  0  0  0  0  0  0  0  0
   -2.5212    1.4808   -2.3305 H   0  0  0  0  0  0  0  0  0  0  0  0
   -3.5904    0.7891   -1.0726 H   0  0  0  0  0  0  0  0  0  0  0  0
   -3.3429    1.2964    2.2270 H   0  0  0  0  0  0  0  0  0  0  0  0
   -3.6575   -0.0317    1.0747 H   0  0  0  0  0  0  0  0  0  0  0  0
   -2.6684   -0.3293    2.5383 H   0  0  0  0  0  0  0  0  0  0  0  0
   -0.0696    1.5602    3.5743 H   0  0  0  0  0  0  0  0  0  0  0  0
   -0.5540   -0.1509    3.4293 H   0  0  0  0  0  0  0  0  0  0  0  0
    1.1315    0.3404    3.0406 H   0  0  0  0  0  0  0  0  0  0  0  0
    2.4688    2.2526   -0.0881 H   0  0  0  0  0  0  0  0  0  0  0  0
    2.1416    2.3415    1.6604 H   0  0  0  0  0  0  0  0  0  0  0  0
    3.8369   -1.0292    0.3244 H   0  0  0  0  0  0  0  0  0  0  0  0
    4.3585    0.5930   -0.2270 H   0  0  0  0  0  0  0  0  0  0  0  0
    3.4742   -0.6296   -2.0946 H   0  0  0  0  0  0  0  0  0  0  0  0
    2.4277    0.7564   -1.7909 H   0  0  0  0  0  0  0  0  0  0  0  0
    1.7929   -2.2168   -1.1445 H   0  0  0  0  0  0  0  0  0  0  0  0
    0.3564   -0.0491   -2.8427 H   0  0  0  0  0  0  0  0  0  0  0  0
   -0.0952   -1.8414   -2.6774 H   0  0  0  0  0  0  0  0  0  0  0  0
  2  3  2  0  0  0  0
  2  6  1  0  0  0  0
  3  4  1  0  0  0  0
  4  5  1  0  0  0  0
  4  9  1  1  0  0  0
  5 10  1  0  0  0  0
  6 11  1  0  0  0  0
  6  5  2  0  0  0  0
  7 16  1  0  0  0  0
  7  2  1  0  0  0  0
  8 19  1  0  0  0  0
  8 21  1  0  0  0  0
  8  3  1  0  0  0  0
  9 22  1  0  0  0  0
  9 24  1  0  0  0  0
 10 27  1  0  0  0  0
 10 26  1  0  0  0  0
 10 25  1  0  0  0  0
 11  1  1  0  0  0  0
 11 29  1  0  0  0  0
 12 30  1  0  0  0  0
 12  1  1  0  0  0  0
 13 12  1  0  0  0  0
 14 13  1  0  0  0  0
 14 34  1  0  0  0  0
 15 14  1  0  0  0  0
 17  7  1  0  0  0  0
 18  7  1  0  0  0  0
 20  8  1  0  0  0  0
 23  9  1  0  0  0  0
 28 11  1  0  0  0  0
 31 12  1  0  0  0  0
 32 13  1  0  0  0  0
 33 13  1  0  0  0  0
 35 15  1  0  0  0  0
 36 15  1  0  0  0  0
M  END
