8,13
q = -1.0, confidence = 0.044

 14 14  0  0  0  0  0  0  0  0999 V2000
   -2.6313   -0.3926   -0.5920 B   0  0  0  0  0  0  0  0  0  0  0  0
   -4.0758    0.8347   -0.9036 Br  0  0  0  0  0  0  0  0  0  0  0  0
   -3.0143   -2.1292    0.1352 Br  0  0  0  0  0  0  0  0  0  0  0  0
    2.6313   -0.3925   -0.5918 B   0  0  0  0  0  0  0  0  0  0  0  0
    3.0143   -2.1290    0.1356 Br  0  0  0  0  0  0  0  0  0  0  0  0
    4.0759    0.8347   -0.9037 Br  0  0  0  0  0  0  0  0  0  0  0  0
   -1.1803    0.0092   -0.9320 C   0  0  0  0  0  0  0  0  0  0  0  0
    0.0000   -0.7692   -0.6622 C   0  0  0  0  0  3  0  0  0  0  0  0
    0.0000   -1.8034   -0.2958 H   0  0  0  0  0  0  0  0  0  0  0  0
    1.1803    0.0092   -0.9317 C   0  0  0  0  0  0  0  0  0  0  0  0
    0.7083    1.3141   -1.3674 C   0  0  0  0  0  3  0  0  0  0  0  0
    1.3581    2.1548   -1.6403 H   0  0  0  0  0  0  0  0  0  0  0  0
   -0.7083    1.3141   -1.3676 C   0  0  0  0  0  3  0  0  0  0  0  0
   -1.3580    2.1548   -1.6405 H   0  0  0  0  0  0  0  0  0  0  0  0
  1  3  1  0  0  0  0
  2  1  1  0  0  0  0
  4  5  1  0  0  0  0
  6  4  1  0  0  0  0
  7  8  1  0  0  0  0
  7  1  2  0  0  0  0
  8  9  1  0  0  0  0
 10  8  1  0  0  0  0
 10  4  2  0  0  0  0
 11 10  1  0  0  0  0
 12 11  1  0  0  0  0
 13 11  1  0  0  0  0
 13  7  1  0  0  0  0
 14 13  1  0  0  0  0
M  END
