2,3
q = 0.0, confidence = 0.55

 36 37  0  0  0  0  0  0  0  0999 V2000
    0.5008   -2.5876    0.3811 N   0  0  0  0  0  0  0  0  0  0  0  0
    0.3960   -1.3374    0.1450 C   0  0  0  0  0  3  0  0  0  0  0  0
    0.3977    1.3236    0.1058 C   0  0  0  0  0  3  0  0  0  0  0  0
   -0.9440   -0.6965    0.0419 C   0  0  0  0  0  0  0  0  0  0  0  0
    0.4987    2.5827    0.2973 N   0  0  0  0  0  0  0  0  0  0  0  0
   -0.9431    0.6809    0.0560 C   0  0  0  0  0  0  0  0  0  0  0  0
   -4.3689    2.0043    1.0554 C   0  0  0  0  0  0  0  0  0  0  0  0
   -5.1696    1.7524    1.7676 H   0  0  0  0  0  0  0  0  0  0  0  0
   -3.2103    1.2182    1.0089 C   0  0  0  0  0  0  0  0  0  0  0  0
   -3.1058    0.3536    1.6802 H   0  0  0  0  0  0  0  0  0  0  0  0
   -2.1645    1.5213    0.1081 C   0  0  0  0  0  0  0  0  0  0  0  0
   -2.1659   -1.5261   -0.0975 C   0  0  0  0  0  0  0  0  0  0  0  0
   -3.4750    3.4228   -0.6983 C   0  0  0  0  0  0  0  0  0  0  0  0
   -3.5748    4.2876   -1.3723 H   0  0  0  0  0  0  0  0  0  0  0  0
   -2.3094    2.6458   -0.7355 C   0  0  0  0  0  0  0  0  0  0  0  0
   -1.4970    2.9023   -1.4287 H   0  0  0  0  0  0  0  0  0  0  0  0
    1.7419   -3.2860    0.5581 C   0  0  0  0  0  0  0  0  0  0  0  0
    1.6839   -3.9247    1.4662 H   0  0  0  0  0  0  0  0  0  0  0  0
    2.6334   -2.6207    0.6360 H   0  0  0  0  0  0  0  0  0  0  0  0
    1.9039   -3.9870   -0.2913 H   0  0  0  0  0  0  0  0  0  0  0  0
   -4.5094    3.1067    0.1971 C   0  0  0  0  0  0  0  0  0  0  0  0
   -5.4220    3.7214    0.2292 H   0  0  0  0  0  0  0  0  0  0  0  0
   -2.4327   -2.6174    0.7599 C   0  0  0  0  0  0  0  0  0  0  0  0
   -1.7094   -2.8647    1.5472 H   0  0  0  0  0  0  0  0  0  0  0  0
   -3.6025   -3.3749    0.6065 C   0  0  0  0  0  0  0  0  0  0  0  0
   -3.7996   -4.2143    1.2912 H   0  0  0  0  0  0  0  0  0  0  0  0
   -3.0930   -1.2357   -1.1251 C   0  0  0  0  0  0  0  0  0  0  0  0
   -2.8914   -0.3947   -1.8048 H   0  0  0  0  0  0  0  0  0  0  0  0
    1.7395    3.2928    0.4185 C   0  0  0  0  0  0  0  0  0  0  0  0
    1.6875    3.9849    1.2866 H   0  0  0  0  0  0  0  0  0  0  0  0
    1.8930    3.9416   -0.4733 H   0  0  0  0  0  0  0  0  0  0  0  0
    2.6342    2.6357    0.5266 H   0  0  0  0  0  0  0  0  0  0  0  0
   -4.5175   -3.0727   -0.4145 C   0  0  0  0  0  0  0  0  0  0  0  0
   -5.4324   -3.6729   -0.5350 H   0  0  0  0  0  0  0  0  0  0  0  0
   -4.2543   -2.0019   -1.2843 C   0  0  0  0  0  0  0  0  0  0  0  0
   -4.9602   -1.7599   -2.0936 H   0  0  0  0  0  0  0  0  0  0  0  0
  1 17  1  0  0  0  0
  2  1  2  0  0  0  0
  3  5  2  0  0  0  0
  4  6  2  0  0  0  0
  4  2  1  0  0  0  0
  5 29  1  0  0  0  0
  6  3  1  0  0  0  0
  6 11  1  0  0  0  0
  7  8  1  0  0  0  0
  9  7  1  0  0  0  0
  9 10  1  0  0  0  0
 11  9  2  0  0  0  0
 12  4  1  0  0  0  0
 12 23  1  0  0  0  0
 13 21  1  0  0  0  0
 14 13  1  0  0  0  0
 15 13  2  0  0  0  0
 15 11  1  0  0  0  0
 16 15  1  0  0  0  0
 17 19  1  0  0  0  0
 17 18  1  0  0  0  0
 20 17  1  0  0  0  0
 21 22  1  0  0  0  0
 21  7  2  0  0  0  0
 23 24  1  0  0  0  0
 25 23  2  0  0  0  0
 25 26  1  0  0  0  0
 27 12  2  0  0  0  0
 28 27  1  0  0  0  0
 29 32  1  0  0  0  0
 29 30  1  0  0  0  0
 31 29  1  0  0  0  0
 33 25  1  0  0  0  0
 34 33  1  0  0  0  0
 35 27  1  0  0  0  0
 35 33  2  0  0  0  0
 36 35  1  0  0  0  0
M  END
