5,8
q = 0.0, confidence = 1.0

 22 22  0  0  1  0  0  0  0  0999 V2000
    2.9400    0.0945    0.1161 O   0  0  0  0  0  0  0  0  0  0  0  0
    3.3121   -0.8020   -0.0124 H   0  0  0  0  0  0  0  0  0  0  0  0
    1.7046    0.0340    0.6158 C   0  0  0  0  0  0  0  0  0  0  0  0
    1.0240    1.2902    0.7894 C   0  0  1  0  0  3  0  0  0  0  0  0
   -0.2695    1.2678    1.3823 C   0  0  0  0  0  3  0  0  0  0  0  0
   -0.7882    2.2282    1.5249 H   0  0  0  0  0  0  0  0  0  0  0  0
   -0.9305    0.0615    1.7732 C   0  0  2  0  0  3  0  0  0  0  0  0
   -0.2615   -1.1589    1.4728 C   0  0  0  0  0  3  0  0  0  0  0  0
   -0.7696   -2.1115    1.6875 H   0  0  0  0  0  0  0  0  0  0  0  0
    1.0376   -1.2081    0.8780 C   0  0  0  0  0  0  0  0  0  0  0  0
    1.7088    2.5688    0.4102 C   0  0  0  0  0  0  0  0  0  0  0  0
    2.4704    2.8238    1.1771 H   0  0  0  0  0  0  0  0  0  0  0  0
    0.9894    3.4053    0.3463 H   0  0  0  0  0  0  0  0  0  0  0  0
    2.2449    2.4726   -0.5524 H   0  0  0  0  0  0  0  0  0  0  0  0
   -2.2761    0.0833    2.4375 C   0  0  0  0  0  0  0  0  0  0  0  0
   -2.1444    0.1666    3.5371 H   0  0  0  0  0  0  0  0  0  0  0  0
   -2.8467   -0.8429    2.2379 H   0  0  0  0  0  0  0  0  0  0  0  0
   -2.8806    0.9497    2.1088 H   0  0  0  0  0  0  0  0  0  0  0  0
    1.7282   -2.5143    0.5995 C   0  0  0  0  0  0  0  0  0  0  0  0
    2.4639   -2.7455    1.3995 H   0  0  0  0  0  0  0  0  0  0  0  0
    2.2611   -2.5114   -0.3742 H   0  0  0  0  0  0  0  0  0  0  0  0
    1.0049   -3.3499    0.5651 H   0  0  0  0  0  0  0  0  0  0  0  0
  1  3  1  0  0  0  0
  2  1  1  0  0  0  0
  3  4  1  0  0  0  0
  3 10  2  0  0  0  0
  4 11  1  1  0  0  0
  4  5  1  0  0  0  0
  5  6  1  0  0  0  0
  5  7  1  0  0  0  0
  7 15  1  6  0  0  0
  8  9  1  0  0  0  0
  8  7  1  0  0  0  0
 10  8  1  0  0  0  0
 11 12  1  0  0  0  0
 13 11  1  0  0  0  0
 14 11  1  0  0  0  0
 15 16  1  0  0  0  0
 17 15  1  0  0  0  0
 18 15  1  0  0  0  0
 19 10  1  0  0  0  0
 19 20  1  0  0  0  0
 21 19  1  0  0  0  0
 22 19  1  0  0  0  0
M  END
