6,11
q = 0.0, confidence = 0.992

 47 49  0  0  1  0  0  0  0  0999 V2000
   -1.6055   -0.0761    0.3338 C   0  0  1  0  0  0  0  0  0  0  0  0
   -0.6412    1.1159    0.6271 C   0  0  0  0  0  0  0  0  0  0  0  0
   -0.1878    1.6605   -0.5712 C   0  0  0  0  0  0  0  0  0  0  0  0
   -0.7850    0.8836   -1.7441 C   0  0  1  0  0  0  0  0  0  0  0  0
    0.3045   -0.0901   -2.1503 C   0  0  0  0  0  3  0  0  0  0  0  0
    0.3755   -1.4342   -1.8126 C   0  0  0  0  0  3  0  0  0  0  0  0
   -0.6762   -2.1461   -0.9797 C   0  0  2  0  0  0  0  0  0  0  0  0
   -2.0449   -2.2682   -1.6611 C   0  0  0  0  0  0  0  0  0  0  0  0
   -2.6682   -0.8873   -1.9526 C   0  0  0  0  0  0  0  0  0  0  0  0
   -2.0523    0.2524   -1.1228 C   0  0  1  0  0  0  0  0  0  0  0  0
   -0.7082   -1.3253    0.3046 C   0  0  1  0  0  3  0  0  0  0  0  0
    0.0414   -1.6615    1.4304 C   0  0  0  0  0  3  0  0  0  0  0  0
    0.6626   -2.9956    1.7463 C   0  0  0  0  0  0  0  0  0  0  0  0
   -2.7673   -0.1974    1.3448 C   0  0  0  0  0  0  0  0  0  0  0  0
   -3.6137   -1.4690    1.2710 C   0  0  0  0  0  0  0  0  0  0  0  0
   -0.5079    1.7906    1.9752 C   0  0  0  0  0  0  0  0  0  0  0  0
   -1.5999    2.8299    2.2825 C   0  0  0  0  0  0  0  0  0  0  0  0
    0.4722    2.9995   -0.7745 C   0  0  0  0  0  0  0  0  0  0  0  0
   -0.5329    4.0833   -1.1997 C   0  0  0  0  0  0  0  0  0  0  0  0
   -1.0449    1.5378   -2.6038 H   0  0  0  0  0  0  0  0  0  0  0  0
    1.0456    0.2874   -2.8718 H   0  0  0  0  0  0  0  0  0  0  0  0
    1.1548   -2.0403   -2.3008 H   0  0  0  0  0  0  0  0  0  0  0  0
   -0.2998   -3.1608   -0.7490 H   0  0  0  0  0  0  0  0  0  0  0  0
   -2.7053   -2.8591   -0.9941 H   0  0  0  0  0  0  0  0  0  0  0  0
   -1.9388   -2.8553   -2.5962 H   0  0  0  0  0  0  0  0  0  0  0  0
   -2.5414   -0.6291   -3.0247 H   0  0  0  0  0  0  0  0  0  0  0  0
   -3.7634   -0.9259   -1.7861 H   0  0  0  0  0  0  0  0  0  0  0  0
   -2.7876    1.0813   -1.0416 H   0  0  0  0  0  0  0  0  0  0  0  0
   -0.1416   -1.0429    2.3246 H   0  0  0  0  0  0  0  0  0  0  0  0
    0.9096   -3.5945    0.8510 H   0  0  0  0  0  0  0  0  0  0  0  0
   -0.0367   -3.5894    2.3762 H   0  0  0  0  0  0  0  0  0  0  0  0
    1.5969   -2.8742    2.3285 H   0  0  0  0  0  0  0  0  0  0  0  0
   -3.4219    0.6925    1.2247 H   0  0  0  0  0  0  0  0  0  0  0  0
   -2.3421   -0.1256    2.3679 H   0  0  0  0  0  0  0  0  0  0  0  0
   -2.9892   -2.3780    1.3865 H   0  0  0  0  0  0  0  0  0  0  0  0
   -4.1664   -1.5556    0.3152 H   0  0  0  0  0  0  0  0  0  0  0  0
   -4.3657   -1.4795    2.0851 H   0  0  0  0  0  0  0  0  0  0  0  0
    0.4793    2.2900    2.0301 H   0  0  0  0  0  0  0  0  0  0  0  0
   -0.4906    1.0311    2.7836 H   0  0  0  0  0  0  0  0  0  0  0  0
   -1.6072    3.6391    1.5263 H   0  0  0  0  0  0  0  0  0  0  0  0
   -1.4180    3.2968    3.2715 H   0  0  0  0  0  0  0  0  0  0  0  0
   -2.6129    2.3851    2.3036 H   0  0  0  0  0  0  0  0  0  0  0  0
    1.2569    2.9223   -1.5536 H   0  0  0  0  0  0  0  0  0  0  0  0
    0.9997    3.3047    0.1518 H   0  0  0  0  0  0  0  0  0  0  0  0
   -1.0444    3.8153   -2.1469 H   0  0  0  0  0  0  0  0  0  0  0  0
   -0.0177    5.0506   -1.3650 H   0  0  0  0  0  0  0  0  0  0  0  0
   -1.3178    4.2423   -0.4339 H   0  0  0  0  0  0  0  0  0  0  0  0
  1  2  1  0  0  0  0
  1 14  1  1  0  0  0
  2 16  1  0  0  0  0
  3  2  2  0  0  0  0
  4 20  1  6  0  0  0
  4 10  1  0  0  0  0
  4  3  1  0  0  0  0
  5  6  1  0  0  0  0
  5  4  1  0  0  0  0
  6  7  1  0  0  0  0
  7 23  1  1  0  0  0
  7 11  1  0  0  0  0
  8 24  1  0  0  0  0
  8  7  1  0  0  0  0
  9 27  1  0  0  0  0
  9  8  1  0  0  0  0
  9 10  1  0  0  0  0
 10 28  1  1  0  0  0
 10  1  1  0  0  0  0
 11  1  1  0  0  0  0
 11 12  1  6  0  0  0
 12 13  1  0  0  0  0
 12 29  1  0  0  0  0
 13 32  1  0  0  0  0
 13 31  1  0  0  0  0
 14 34  1  0  0  0  0
 15 14  1  0  0  0  0
 15 35  1  0  0  0  0
 15 37  1  0  0  0  0
 16 38  1  0  0  0  0
 16 17  1  0  0  0  0
 16 39  1  0  0  0  0
 17 42  1  0  0  0  0
 17 41  1  0  0  0  0
 18  3  1  0  0  0  0
 18 44  1  0  0  0  0
 19 18  1  0  0  0  0
 19 47  1  0  0  0  0
 21  5  1  0  0  0  0
 22  6  1  0  0  0  0
 25  8  1  0  0  0  0
 26  9  1  0  0  0  0
 30 13  1  0  0  0  0
 33 14  1  0  0  0  0
 36 15  1  0  0  0  0
 40 17  1  0  0  0  0
 43 18  1  0  0  0  0
 45 19  1  0  0  0  0
 46 19  1  0  0  0  0
M  END
