2,4
q = -2.0, confidence = 0.876

 24 23  0  0  1  0  0  0  0  0999 V2000
    3.3047    0.0452    0.5092 Si  0  0  0  0  0  0  0  0  0  0  0  0
   -0.0078    0.0819   -2.2834 C   0  0  0  0  0  3  0  0  0  0  0  0
    1.4634   -0.1261   -1.8284 C   0  0  2  0  0  0  0  0  0  0  0  0
    1.6286    0.2965   -0.3310 C   0  0  0  0  0  3  0  0  0  0  0  0
    2.4342    0.6135   -2.7702 C   0  0  0  0  0  0  0  0  0  0  0  0
    4.4411   -1.2951   -0.2439 C   0  0  0  0  0  0  0  0  0  0  0  0
    4.2762    1.6804    0.3191 C   0  0  0  0  0  0  0  0  0  0  0  0
    3.2338   -0.2599    2.3886 C   0  0  0  0  0  0  0  0  0  0  0  0
   -0.3458   -0.6652   -3.0222 H   0  0  0  0  0  0  0  0  0  0  0  0
   -0.1310    1.0843   -2.7327 H   0  0  0  0  0  0  0  0  0  0  0  0
    1.7028   -1.2071   -1.9054 H   0  0  0  0  0  0  0  0  0  0  0  0
    1.6155    1.4041   -0.3351 H   0  0  0  0  0  0  0  0  0  0  0  0
    2.2755    0.2991   -3.8234 H   0  0  0  0  0  0  0  0  0  0  0  0
    3.4937    0.4142   -2.5064 H   0  0  0  0  0  0  0  0  0  0  0  0
    2.2792    1.7102   -2.7188 H   0  0  0  0  0  0  0  0  0  0  0  0
    4.3018   -1.4022   -1.3389 H   0  0  0  0  0  0  0  0  0  0  0  0
    5.4984   -1.0036   -0.0728 H   0  0  0  0  0  0  0  0  0  0  0  0
    4.2944   -2.2925    0.2137 H   0  0  0  0  0  0  0  0  0  0  0  0
    5.2800    1.6052    0.7878 H   0  0  0  0  0  0  0  0  0  0  0  0
    4.4179    1.9403   -0.7501 H   0  0  0  0  0  0  0  0  0  0  0  0
    3.7478    2.5299    0.8001 H   0  0  0  0  0  0  0  0  0  0  0  0
    4.2575   -0.1915    2.8127 H   0  0  0  0  0  0  0  0  0  0  0  0
    2.8284   -1.2557    2.6552 H   0  0  0  0  0  0  0  0  0  0  0  0
    2.6105    0.5051    2.8944 H   0  0  0  0  0  0  0  0  0  0  0  0
  1  8  1  0  0  0  0
  2  3  1  0  0  0  0
  3 11  1  6  0  0  0
  3  4  1  0  0  0  0
  4  1  1  0  0  0  0
  5 15  1  0  0  0  0
  5 14  1  0  0  0  0
  5  3  1  0  0  0  0
  6 17  1  0  0  0  0
  6 18  1  0  0  0  0
  6  1  1  0  0  0  0
  7  1  1  0  0  0  0
  7 19  1  0  0  0  0
  7 21  1  0  0  0  0
  8 23  1  0  0  0  0
  8 22  1  0  0  0  0
  8 24  1  0  0  0  0
  9  2  1  0  0  0  0
 10  2  1  0  0  0  0
 12  4  1  0  0  0  0
 13  5  1  0  0  0  0
 16  6  1  0  0  0  0
 20  7  1  0  0  0  0
M  END
