2,7
q = -2.0, confidence = 0.946

 57 58  0  0  1  0  0  0  0  0999 V2000
    0.0768    3.3934   -0.0369 Si  0  0  0  0  0  0  0  0  0  0  0  0
    1.2797    2.1208    0.6474 C   0  0  1  0  0  3  0  0  0  0  0  0
    1.1493    1.4023    1.8859 C   0  0  1  0  0  3  0  0  0  0  0  0
    2.0165    0.2738    1.8268 C   0  0  0  0  0  0  0  0  0  0  0  0
    2.7152    0.2663    0.5868 C   0  0  0  0  0  0  0  0  0  0  0  0
    2.2186    1.3767   -0.1610 C   0  0  0  0  0  3  0  0  0  0  0  0
   -1.1309    2.1474   -0.7658 C   0  0  1  0  0  3  0  0  0  0  0  0
   -0.8827    1.3639   -1.9501 C   0  0  1  0  0  3  0  0  0  0  0  0
   -1.7731    0.2524   -1.9310 C   0  0  0  0  0  0  0  0  0  0  0  0
   -2.6095    0.3258   -0.7802 C   0  0  0  0  0  0  0  0  0  0  0  0
   -2.1693    1.4693   -0.0368 C   0  0  0  0  0  3  0  0  0  0  0  0
   -0.7567    4.4731    1.2692 C   0  0  0  0  0  0  0  0  0  0  0  0
    0.9039    4.5136   -1.3132 C   0  0  0  0  0  0  0  0  0  0  0  0
    0.3171    1.7825    3.0801 C   0  0  0  0  0  0  0  0  0  0  0  0
    3.9346   -0.6078    0.3017 C   0  0  0  0  0  0  0  0  0  0  0  0
    5.0298   -0.2050    1.3210 C   0  0  0  0  0  0  0  0  0  0  0  0
    4.4989   -0.3663   -1.1080 C   0  0  0  0  0  0  0  0  0  0  0  0
    3.5977   -2.1002    0.4897 C   0  0  0  0  0  0  0  0  0  0  0  0
    0.0419    1.6995   -3.0910 C   0  0  0  0  0  0  0  0  0  0  0  0
   -3.9008   -0.4809   -0.6124 C   0  0  0  0  0  0  0  0  0  0  0  0
   -4.7601    0.0619    0.5440 C   0  0  0  0  0  0  0  0  0  0  0  0
   -4.7272   -0.3036   -1.9114 C   0  0  0  0  0  0  0  0  0  0  0  0
   -3.6156   -1.9824   -0.4147 C   0  0  0  0  0  0  0  0  0  0  0  0
    2.1647   -0.4383    2.6480 H   0  0  0  0  0  0  0  0  0  0  0  0
    2.5749    1.6801   -1.1535 H   0  0  0  0  0  0  0  0  0  0  0  0
   -1.8404   -0.5028   -2.7256 H   0  0  0  0  0  0  0  0  0  0  0  0
   -2.6108    1.8230    0.9038 H   0  0  0  0  0  0  0  0  0  0  0  0
   -1.4006    3.8941    1.9579 H   0  0  0  0  0  0  0  0  0  0  0  0
   -1.3925    5.2309    0.7667 H   0  0  0  0  0  0  0  0  0  0  0  0
   -0.0010    5.0104    1.8777 H   0  0  0  0  0  0  0  0  0  0  0  0
    1.5387    3.9544   -2.0262 H   0  0  0  0  0  0  0  0  0  0  0  0
    1.5493    5.2497   -0.7909 H   0  0  0  0  0  0  0  0  0  0  0  0
    0.1453    5.0757   -1.8955 H   0  0  0  0  0  0  0  0  0  0  0  0
    0.6397    2.7600    3.4948 H   0  0  0  0  0  0  0  0  0  0  0  0
    0.4167    1.0266    3.8823 H   0  0  0  0  0  0  0  0  0  0  0  0
   -0.7631    1.8739    2.8465 H   0  0  0  0  0  0  0  0  0  0  0  0
    4.6956   -0.3802    2.3627 H   0  0  0  0  0  0  0  0  0  0  0  0
    5.2866    0.8694    1.2237 H   0  0  0  0  0  0  0  0  0  0  0  0
    5.9523   -0.7992    1.1515 H   0  0  0  0  0  0  0  0  0  0  0  0
    3.7775   -0.6448   -1.8980 H   0  0  0  0  0  0  0  0  0  0  0  0
    5.4134   -0.9746   -1.2609 H   0  0  0  0  0  0  0  0  0  0  0  0
    4.7766    0.6971   -1.2544 H   0  0  0  0  0  0  0  0  0  0  0  0
    2.7560   -2.3906   -0.1670 H   0  0  0  0  0  0  0  0  0  0  0  0
    3.2985   -2.3131    1.5360 H   0  0  0  0  0  0  0  0  0  0  0  0
    4.4791   -2.7334    0.2582 H   0  0  0  0  0  0  0  0  0  0  0  0
   -0.2106    2.6925   -3.5156 H   0  0  0  0  0  0  0  0  0  0  0  0
   -0.0495    0.9520   -3.9009 H   0  0  0  0  0  0  0  0  0  0  0  0
    1.1099    1.7371   -2.7981 H   0  0  0  0  0  0  0  0  0  0  0  0
   -4.9998    1.1339    0.3947 H   0  0  0  0  0  0  0  0  0  0  0  0
   -4.2656   -0.0407    1.5282 H   0  0  0  0  0  0  0  0  0  0  0  0
   -5.7173   -0.4952    0.5978 H   0  0  0  0  0  0  0  0  0  0  0  0
   -4.9325    0.7677   -2.1104 H   0  0  0  0  0  0  0  0  0  0  0  0
   -5.6991   -0.8322   -1.8217 H   0  0  0  0  0  0  0  0  0  0  0  0
   -4.1976   -0.7178   -2.7915 H   0  0  0  0  0  0  0  0  0  0  0  0
   -2.9519   -2.1514    0.4519 H   0  0  0  0  0  0  0  0  0  0  0  0
   -3.1067   -2.4063   -1.3030 H   0  0  0  0  0  0  0  0  0  0  0  0
   -4.5613   -2.5439   -0.2656 H   0  0  0  0  0  0  0  0  0  0  0  0
  1 12  1  0  0  0  0
  2  1  1  6  0  0  0
  2  3  1  0  0  0  0
  3 14  1  1  0  0  0
  4  3  1  0  0  0  0
  4 24  1  0  0  0  0
  5  4  2  0  0  0  0
  6  5  1  0  0  0  0
  6  2  1  0  0  0  0
  7  1  1  1  0  0  0
  7 11  1  0  0  0  0
  8 19  1  6  0  0  0
  8  9  1  0  0  0  0
  8  7  1  0  0  0  0
  9 10  2  0  0  0  0
 10 20  1  0  0  0  0
 10 11  1  0  0  0  0
 11 27  1  0  0  0  0
 12 30  1  0  0  0  0
 12 28  1  0  0  0  0
 13 32  1  0  0  0  0
 13  1  1  0  0  0  0
 14 34  1  0  0  0  0
 14 35  1  0  0  0  0
 15 18  1  0  0  0  0
 15  5  1  0  0  0  0
 15 16  1  0  0  0  0
 16 37  1  0  0  0  0
 17 15  1  0  0  0  0
 18 44  1  0  0  0  0
 19 48  1  0  0  0  0
 20 23  1  0  0  0  0
 20 21  1  0  0  0  0
 21 51  1  0  0  0  0
 21 50  1  0  0  0  0
 22 53  1  0  0  0  0
 22 20  1  0  0  0  0
 23 57  1  0  0  0  0
 23 55  1  0  0  0  0
 25  6  1  0  0  0  0
 26  9  1  0  0  0  0
 29 12  1  0  0  0  0
 31 13  1  0  0  0  0
 33 13  1  0  0  0  0
 36 14  1  0  0  0  0
 38 16  1  0  0  0  0
 39 16  1  0  0  0  0
 40 17  1  0  0  0  0
 41 17  1  0  0  0  0
 42 17  1  0  0  0  0
 43 18  1  0  0  0  0
 45 18  1  0  0  0  0
 46 19  1  0  0  0  0
 47 19  1  0  0  0  0
 49 21  1  0  0  0  0
 52 22  1  0  0  0  0
 54 22  1  0  0  0  0
 56 23  1  0  0  0  0
M  END
