6,12
q = -1.0

 47 49  0  0  1  0  0  0  0  0999 V2000
    0.8237   -2.1203    1.6230 O   0  0  0  0  0  0  0  0  0  0  0  0
    1.5156    0.8025   -0.0957 C   0  0  2  0  0  0  0  0  0  0  0  0
    0.1369    1.0809    0.5691 C   0  0  2  0  0  3  0  0  0  0  0  0
   -0.7958    1.5168   -0.3933 C   0  0  2  0  0  3  0  0  0  0  0  0
   -0.2217    1.2924   -1.7979 C   0  0  2  0  0  0  0  0  0  0  0  0
   -0.7870   -0.0617   -2.1683 C   0  0  0  0  0  3  0  0  0  0  0  0
   -0.0319   -1.2071   -1.9135 C   0  0  0  0  0  3  0  0  0  0  0  0
    1.4689   -1.1088   -1.6471 C   0  0  1  0  0  0  0  0  0  0  0  0
    1.9903    0.1235   -2.4015 C   0  0  0  0  0  0  0  0  0  0  0  0
    1.3132    1.2271   -1.5928 C   0  0  2  0  0  0  0  0  0  0  0  0
    1.7787   -0.7751   -0.1596 C   0  0  2  0  0  0  0  0  0  0  0  0
    0.6334   -1.3840    0.6834 C   0  0  0  0  0  3  0  0  0  0  0  0
    3.1682   -1.2523    0.2995 C   0  0  0  0  0  0  0  0  0  0  0  0
    3.4437   -2.7513    0.1482 C   0  0  0  0  0  0  0  0  0  0  0  0
    2.6700    1.6041    0.5536 C   0  0  0  0  0  0  0  0  0  0  0  0
    2.5763    3.1319    0.4566 C   0  0  0  0  0  0  0  0  0  0  0  0
    0.0338    1.5047    2.0282 C   0  0  0  0  0  0  0  0  0  0  0  0
    0.6203    0.6145    3.1306 C   0  0  0  0  0  0  0  0  0  0  0  0
   -1.9269    2.4929   -0.1770 C   0  0  0  0  0  0  0  0  0  0  0  0
   -1.4310    3.9466   -0.2272 C   0  0  0  0  0  0  0  0  0  0  0  0
   -0.5282    2.0761   -2.5196 H   0  0  0  0  0  0  0  0  0  0  0  0
   -1.6885   -0.1106   -2.7959 H   0  0  0  0  0  0  0  0  0  0  0  0
   -0.3959   -2.1585   -2.3315 H   0  0  0  0  0  0  0  0  0  0  0  0
    1.9450   -2.0595   -1.9498 H   0  0  0  0  0  0  0  0  0  0  0  0
    1.7160    0.1216   -3.4764 H   0  0  0  0  0  0  0  0  0  0  0  0
    3.0945    0.2000   -2.3296 H   0  0  0  0  0  0  0  0  0  0  0  0
    1.7346    2.2302   -1.7896 H   0  0  0  0  0  0  0  0  0  0  0  0
    3.2897   -0.9754    1.3667 H   0  0  0  0  0  0  0  0  0  0  0  0
    3.9458   -0.6840   -0.2540 H   0  0  0  0  0  0  0  0  0  0  0  0
    4.4497   -2.9978    0.5431 H   0  0  0  0  0  0  0  0  0  0  0  0
    2.7027   -3.3502    0.7100 H   0  0  0  0  0  0  0  0  0  0  0  0
    3.4250   -3.0795   -0.9112 H   0  0  0  0  0  0  0  0  0  0  0  0
    3.6202    1.2925    0.0742 H   0  0  0  0  0  0  0  0  0  0  0  0
    2.7720    1.3084    1.6152 H   0  0  0  0  0  0  0  0  0  0  0  0
    3.3476    3.6043    1.0972 H   0  0  0  0  0  0  0  0  0  0  0  0
    2.7476    3.4990   -0.5749 H   0  0  0  0  0  0  0  0  0  0  0  0
    1.5923    3.5253    0.7796 H   0  0  0  0  0  0  0  0  0  0  0  0
    0.5248    2.5008    2.0962 H   0  0  0  0  0  0  0  0  0  0  0  0
   -1.0313    1.7009    2.2628 H   0  0  0  0  0  0  0  0  0  0  0  0
    0.5716    1.1504    4.0995 H   0  0  0  0  0  0  0  0  0  0  0  0
    0.0724   -0.3364    3.2440 H   0  0  0  0  0  0  0  0  0  0  0  0
    1.6803    0.3518    2.9510 H   0  0  0  0  0  0  0  0  0  0  0  0
   -2.4251    2.2962    0.7939 H   0  0  0  0  0  0  0  0  0  0  0  0
   -2.7074    2.3414   -0.9503 H   0  0  0  0  0  0  0  0  0  0  0  0
   -2.2759    4.6579   -0.1324 H   0  0  0  0  0  0  0  0  0  0  0  0
   -0.7171    4.1586    0.5937 H   0  0  0  0  0  0  0  0  0  0  0  0
   -0.9134    4.1674   -1.1834 H   0  0  0  0  0  0  0  0  0  0  0  0
  2 15  1  1  0  0  0
  2  3  1  0  0  0  0
  3 17  1  1  0  0  0
  4 19  1  1  0  0  0
  4  3  1  0  0  0  0
  5 21  1  6  0  0  0
  5 10  1  0  0  0  0
  5  4  1  0  0  0  0
  6  7  1  0  0  0  0
  6  5  1  0  0  0  0
  7  8  1  0  0  0  0
  8 24  1  6  0  0  0
  8 11  1  0  0  0  0
  9 26  1  0  0  0  0
  9  8  1  0  0  0  0
  9 10  1  0  0  0  0
 10 27  1  6  0  0  0
 10  2  1  0  0  0  0
 11  2  1  0  0  0  0
 11 13  1  0  0  0  0
 11 12  1  1  0  0  0
 12  1  2  0  0  0  0
 13 28  1  0  0  0  0
 14 13  1  0  0  0  0
 14 30  1  0  0  0  0
 14 31  1  0  0  0  0
 15 34  1  0  0  0  0
 16 15  1  0  0  0  0
 16 37  1  0  0  0  0
 16 35  1  0  0  0  0
 17 38  1  0  0  0  0
 17 39  1  0  0  0  0
 17 18  1  0  0  0  0
 18 41  1  0  0  0  0
 18 40  1  0  0  0  0
 19 43  1  0  0  0  0
 20 19  1  0  0  0  0
 20 45  1  0  0  0  0
 20 46  1  0  0  0  0
 22  6  1  0  0  0  0
 23  7  1  0  0  0  0
 25  9  1  0  0  0  0
 29 13  1  0  0  0  0
 32 14  1  0  0  0  0
 33 15  1  0  0  0  0
 36 16  1  0  0  0  0
 42 18  1  0  0  0  0
 44 19  1  0  0  0  0
 47 20  1  0  0  0  0
M  END
