4,7
q = -2.0, confidence = 0.608

 29 29  0  0  1  0  0  0  0  0999 V2000
   -3.1580   -1.1451    0.2269 O   0  0  0  0  0  0  0  0  0  0  0  0
   -3.8006   -0.9577   -1.9502 O   0  0  0  0  0  0  0  0  0  0  0  0
    0.4835   -2.5140   -1.1961 C   0  0  0  0  0  3  0  0  0  0  0  0
    0.8062   -2.6648    0.1843 C   0  0  0  0  0  3  0  0  0  0  0  0
   -0.1701   -2.6167    1.2042 C   0  0  0  0  0  3  0  0  0  0  0  0
   -1.6484   -2.8894    0.9619 C   0  0  1  0  0  0  0  0  0  0  0  0
   -1.9961   -1.8914   -0.1369 C   0  0  0  0  0  3  0  0  0  0  0  0
   -2.0066   -4.3566    0.6914 C   0  0  0  0  0  0  0  0  0  0  0  0
   -3.9508   -0.6763   -0.7712 C   0  0  0  0  0  0  0  0  0  0  0  0
   -5.0244    0.2202   -0.2465 C   0  0  0  0  0  0  0  0  0  0  0  0
   -6.0307    0.6362   -1.1416 C   0  0  0  0  0  0  0  0  0  0  0  0
   -7.0546    1.4847   -0.7035 C   0  0  0  0  0  0  0  0  0  0  0  0
   -7.0752    1.9302    0.6293 C   0  0  0  0  0  0  0  0  0  0  0  0
   -6.0678    1.5264    1.5216 C   0  0  0  0  0  0  0  0  0  0  0  0
   -5.0441    0.6722    1.0894 C   0  0  0  0  0  0  0  0  0  0  0  0
   -0.4038   -2.9992   -1.6283 H   0  0  0  0  0  0  0  0  0  0  0  0
    1.3219   -2.3924   -1.8989 H   0  0  0  0  0  0  0  0  0  0  0  0
    1.8656   -2.6150    0.4930 H   0  0  0  0  0  0  0  0  0  0  0  0
    0.1962   -2.6381    2.2444 H   0  0  0  0  0  0  0  0  0  0  0  0
   -2.1929   -2.5496    1.8677 H   0  0  0  0  0  0  0  0  0  0  0  0
   -2.1691   -2.3214   -1.1407 H   0  0  0  0  0  0  0  0  0  0  0  0
   -3.0973   -4.4659    0.5218 H   0  0  0  0  0  0  0  0  0  0  0  0
   -1.7249   -5.0044    1.5474 H   0  0  0  0  0  0  0  0  0  0  0  0
   -1.4799   -4.7374   -0.2067 H   0  0  0  0  0  0  0  0  0  0  0  0
   -5.9815    0.2775   -2.1802 H   0  0  0  0  0  0  0  0  0  0  0  0
   -7.8411    1.8043   -1.4040 H   0  0  0  0  0  0  0  0  0  0  0  0
   -7.8785    2.5998    0.9733 H   0  0  0  0  0  0  0  0  0  0  0  0
   -6.0788    1.8835    2.5627 H   0  0  0  0  0  0  0  0  0  0  0  0
   -4.2423    0.3621    1.7736 H   0  0  0  0  0  0  0  0  0  0  0  0
  2  9  2  0  0  0  0
  3  4  1  0  0  0  0
  4 18  1  0  0  0  0
  4  5  1  0  0  0  0
  5 19  1  0  0  0  0
  6  5  1  0  0  0  0
  6 20  1  1  0  0  0
  7  1  1  0  0  0  0
  7  6  1  0  0  0  0
  8  6  1  0  0  0  0
  8 23  1  0  0  0  0
  9 10  1  0  0  0  0
  9  1  1  0  0  0  0
 10 15  1  0  0  0  0
 11 12  1  0  0  0  0
 11 10  2  0  0  0  0
 12 13  2  0  0  0  0
 13 27  1  0  0  0  0
 13 14  1  0  0  0  0
 14 28  1  0  0  0  0
 15 14  2  0  0  0  0
 15 29  1  0  0  0  0
 16  3  1  0  0  0  0
 17  3  1  0  0  0  0
 21  7  1  0  0  0  0
 22  8  1  0  0  0  0
 24  8  1  0  0  0  0
 25 11  1  0  0  0  0
 26 12  1  0  0  0  0
M  END
