2,6
q = -1.0

 43 44  0  0  0  0  0  0  0  0999 V2000
   -1.7104    0.9454   -0.0855 C   0  0  0  0  0  0  0  0  0  0  0  0
   -2.1529    0.4715    1.2019 C   0  0  0  0  0  3  0  0  0  0  0  0
   -1.6373    0.6280    2.1582 H   0  0  0  0  0  0  0  0  0  0  0  0
   -3.3959   -0.2381    1.0783 C   0  0  0  0  0  3  0  0  0  0  0  0
   -3.9671   -0.7010    1.8913 H   0  0  0  0  0  0  0  0  0  0  0  0
   -3.7475   -0.2239   -0.3121 C   0  0  0  0  0  3  0  0  0  0  0  0
   -4.6400   -0.6833   -0.7548 H   0  0  0  0  0  0  0  0  0  0  0  0
   -2.7271    0.4884   -1.0124 C   0  0  0  0  0  0  0  0  0  0  0  0
   -2.7001    0.6721   -2.0934 H   0  0  0  0  0  0  0  0  0  0  0  0
   -0.4622    1.8772   -0.5437 B   0  0  1  0  0  0  0  0  0  0  0  0
   -0.5234    2.0101   -1.7726 H   0  0  0  0  0  0  0  0  0  0  0  0
   -0.4349    3.3859    0.1448 C   0  0  0  0  0  0  0  0  0  0  0  0
    0.6866    4.2217   -0.4971 C   0  0  0  0  0  0  0  0  0  0  0  0
    0.6983    5.2615   -0.0991 H   0  0  0  0  0  0  0  0  0  0  0  0
    0.5617    4.2861   -1.5982 H   0  0  0  0  0  0  0  0  0  0  0  0
    1.6917    3.7906   -0.2989 H   0  0  0  0  0  0  0  0  0  0  0  0
   -0.2181    3.3701    1.6675 C   0  0  0  0  0  0  0  0  0  0  0  0
   -0.2202    4.4025    2.0846 H   0  0  0  0  0  0  0  0  0  0  0  0
    0.7585    2.9201    1.9483 H   0  0  0  0  0  0  0  0  0  0  0  0
   -1.0169    2.8108    2.1968 H   0  0  0  0  0  0  0  0  0  0  0  0
   -1.7876    4.0548   -0.1591 C   0  0  0  0  0  0  0  0  0  0  0  0
   -1.8174    5.1014    0.2198 H   0  0  0  0  0  0  0  0  0  0  0  0
   -2.6296    3.5058    0.3115 H   0  0  0  0  0  0  0  0  0  0  0  0
   -1.9829    4.0862   -1.2512 H   0  0  0  0  0  0  0  0  0  0  0  0
    0.9325    1.1243   -0.3052 N   0  0  0  0  0  0  0  0  0  0  0  0
    1.8676    1.0931   -1.2866 C   0  0  0  0  0  3  0  0  0  0  0  0
    1.5927    1.6277   -2.2054 H   0  0  0  0  0  0  0  0  0  0  0  0
    3.0701    0.4136   -1.1693 C   0  0  0  0  0  0  0  0  0  0  0  0
    3.7579    0.4290   -2.0223 H   0  0  0  0  0  0  0  0  0  0  0  0
    3.3644   -0.3191    0.0181 C   0  0  0  0  0  0  0  0  0  0  0  0
    2.3789   -0.2579    1.0459 C   0  0  0  0  0  0  0  0  0  0  0  0
    2.4946   -0.7925    1.9951 H   0  0  0  0  0  0  0  0  0  0  0  0
    1.2117    0.4598    0.8436 C   0  0  0  0  0  0  0  0  0  0  0  0
    0.4430    0.4984    1.6221 H   0  0  0  0  0  0  0  0  0  0  0  0
    4.5132   -1.0444    0.1603 N   0  0  0  0  0  0  0  0  0  0  0  0
    5.4788   -1.0967   -0.9247 C   0  0  0  0  0  0  0  0  0  0  0  0
    6.3421   -1.7116   -0.6153 H   0  0  0  0  0  0  0  0  0  0  0  0
    5.8576   -0.0848   -1.1861 H   0  0  0  0  0  0  0  0  0  0  0  0
    5.0464   -1.5488   -1.8446 H   0  0  0  0  0  0  0  0  0  0  0  0
    4.7355   -1.8199    1.3703 C   0  0  0  0  0  0  0  0  0  0  0  0
    5.7014   -2.3490    1.2918 H   0  0  0  0  0  0  0  0  0  0  0  0
    3.9379   -2.5789    1.5265 H   0  0  0  0  0  0  0  0  0  0  0  0
    4.7727   -1.1724    2.2732 H   0  0  0  0  0  0  0  0  0  0  0  0
  1  2  1  0  0  0  0
  2  3  1  0  0  0  0
  4  2  1  0  0  0  0
  4  5  1  0  0  0  0
  6  4  1  0  0  0  0
  7  6  1  0  0  0  0
  8  6  1  0  0  0  0
  8  1  2  0  0  0  0
  9  8  1  0  0  0  0
 10 11  1  6  0  0  0
 10 25  1  0  0  0  0
 10  1  1  0  0  0  0
 10 12  1  0  0  0  0
 12 17  1  0  0  0  0
 13 16  1  0  0  0  0
 13 14  1  0  0  0  0
 13 12  1  0  0  0  0
 15 13  1  0  0  0  0
 17 19  1  0  0  0  0
 17 18  1  0  0  0  0
 17 20  1  0  0  0  0
 21 12  1  0  0  0  0
 21 22  1  0  0  0  0
 21 23  1  0  0  0  0
 24 21  1  0  0  0  0
 25 33  1  0  0  0  0
 26 28  1  0  0  0  0
 26 25  1  0  0  0  0
 27 26  1  0  0  0  0
 28 30  2  0  0  0  0
 29 28  1  0  0  0  0
 30 35  1  0  0  0  0
 30 31  1  0  0  0  0
 31 32  1  0  0  0  0
 33 31  2  0  0  0  0
 33 34  1  0  0  0  0
 35 40  1  0  0  0  0
 36 37  1  0  0  0  0
 36 35  1  0  0  0  0
 38 36  1  0  0  0  0
 39 36  1  0  0  0  0
 40 42  1  0  0  0  0
 40 43  1  0  0  0  0
 41 40  1  0  0  0  0
M  END
