2,7
q = -1.0

 28 29  0  0  1  0  0  0  0  0999 V2000
   -4.0009   -0.0999   -0.4171 N   0  0  0  0  0  0  0  0  0  0  0  0
   -2.3479    0.4176    2.1083 C   0  0  2  0  0  3  0  0  0  0  0  0
   -1.8259   -0.9039    2.2831 C   0  0  0  0  0  0  0  0  0  0  0  0
   -2.4132   -1.8161    2.4419 H   0  0  0  0  0  0  0  0  0  0  0  0
   -0.4092   -0.8343    2.2437 C   0  0  0  0  0  0  0  0  0  0  0  0
    0.2848   -1.6725    2.3720 H   0  0  0  0  0  0  0  0  0  0  0  0
   -0.0410    0.5215    2.0304 C   0  0  0  0  0  3  0  0  0  0  0  0
    0.9828    0.9098    1.9995 H   0  0  0  0  0  0  0  0  0  0  0  0
   -1.2344    1.2944    1.9636 C   0  0  0  0  0  3  0  0  0  0  0  0
   -1.2802    2.3827    1.8462 H   0  0  0  0  0  0  0  0  0  0  0  0
   -3.8019    0.8285    2.1678 C   0  0  0  0  0  0  0  0  0  0  0  0
   -3.9871    1.2662    3.1733 H   0  0  0  0  0  0  0  0  0  0  0  0
   -4.1612    1.8955    1.1082 C   0  0  0  0  0  0  0  0  0  0  0  0
   -4.9947    2.5296    1.4733 H   0  0  0  0  0  0  0  0  0  0  0  0
   -3.2983    2.5679    0.9458 H   0  0  0  0  0  0  0  0  0  0  0  0
   -4.5925    1.2478   -0.2164 C   0  0  0  0  0  0  0  0  0  0  0  0
   -5.7053    1.1407   -0.2544 H   0  0  0  0  0  0  0  0  0  0  0  0
   -4.3153    1.8846   -1.0757 H   0  0  0  0  0  0  0  0  0  0  0  0
   -4.3782   -0.5823   -1.7563 C   0  0  0  0  0  0  0  0  0  0  0  0
   -4.1003   -1.6439   -1.8698 H   0  0  0  0  0  0  0  0  0  0  0  0
   -3.8551    0.0003   -2.5367 H   0  0  0  0  0  0  0  0  0  0  0  0
   -5.4800   -0.4910   -1.9153 H   0  0  0  0  0  0  0  0  0  0  0  0
   -4.5981   -1.0173    0.6008 C   0  0  0  0  0  0  0  0  0  0  0  0
   -3.9573   -1.9166    0.6508 H   0  0  0  0  0  0  0  0  0  0  0  0
   -5.5997   -1.3500    0.2363 H   0  0  0  0  0  0  0  0  0  0  0  0
   -4.7563   -0.3597    1.9850 C   0  0  0  0  0  0  0  0  0  0  0  0
   -4.6011   -1.1198    2.7758 H   0  0  0  0  0  0  0  0  0  0  0  0
   -5.7958    0.0078    2.1111 H   0  0  0  0  0  0  0  0  0  0  0  0
  1 16  1  0  0  0  0
  1 23  1  0  0  0  0
  2 11  1  1  0  0  0
  2  3  1  0  0  0  0
  3  4  1  0  0  0  0
  5  3  2  0  0  0  0
  5  6  1  0  0  0  0
  7  5  1  0  0  0  0
  8  7  1  0  0  0  0
  9  7  1  0  0  0  0
  9  2  1  0  0  0  0
 10  9  1  0  0  0  0
 11 12  1  0  0  0  0
 13 14  1  0  0  0  0
 13 11  1  0  0  0  0
 15 13  1  0  0  0  0
 16 13  1  0  0  0  0
 17 16  1  0  0  0  0
 18 16  1  0  0  0  0
 19  1  1  0  0  0  0
 20 19  1  0  0  0  0
 21 19  1  0  0  0  0
 22 19  1  0  0  0  0
 23 24  1  0  0  0  0
 23 26  1  0  0  0  0
 25 23  1  0  0  0  0
 26 28  1  0  0  0  0
 26 11  1  0  0  0  0
 26 27  1  0  0  0  0
M  END
