2,10
q = -1.0

 17 17  0  0  0  0  0  0  0  0999 V2000
    2.3091    1.2127   -0.4301 N   0  0  0  0  0  0  0  0  0  0  0  0
    1.5106    1.0858    0.7117 C   0  0  0  0  0  2  0  0  0  0  0  0
    1.9490    1.7430    1.8774 C   0  0  0  0  0  0  0  0  0  0  0  0
    1.3196    1.7236    2.7771 H   0  0  0  0  0  0  0  0  0  0  0  0
    3.1842    2.3968    1.8701 C   0  0  0  0  0  0  0  0  0  0  0  0
    3.5462    2.9012    2.7798 H   0  0  0  0  0  0  0  0  0  0  0  0
    3.9896    2.4006    0.7140 C   0  0  0  0  0  0  0  0  0  0  0  0
    4.9805    2.8746    0.7183 H   0  0  0  0  0  0  0  0  0  0  0  0
    3.5406    1.8010   -0.4684 C   0  0  0  0  0  0  0  0  0  0  0  0
    1.4360    0.5669   -1.4095 C   0  0  0  0  0  3  0  0  0  0  0  0
    1.5855    0.6372   -2.7526 C   0  0  0  0  0  0  0  0  0  0  0  0
    2.4199    1.1329   -3.2662 H   0  0  0  0  0  0  0  0  0  0  0  0
    0.8017    0.1990   -3.3867 H   0  0  0  0  0  0  0  0  0  0  0  0
    4.3531    1.7744   -1.7222 C   0  0  0  0  0  0  0  0  0  0  0  0
    3.9219    2.4369   -2.5011 H   0  0  0  0  0  0  0  0  0  0  0  0
    4.3906    0.7460   -2.1335 H   0  0  0  0  0  0  0  0  0  0  0  0
    5.3831    2.1140   -1.5101 H   0  0  0  0  0  0  0  0  0  0  0  0
  1  2  1  0  0  0  0
  2  3  1  0  0  0  0
  3  4  1  0  0  0  0
  5  3  2  0  0  0  0
  5  6  1  0  0  0  0
  7  8  1  0  0  0  0
  7  5  1  0  0  0  0
  9  1  1  0  0  0  0
  9  7  2  0  0  0  0
 10  1  1  0  0  0  0
 11 10  2  0  0  0  0
 12 11  1  0  0  0  0
 13 11  1  0  0  0  0
 14 17  1  0  0  0  0
 14  9  1  0  0  0  0
 15 14  1  0  0  0  0
 16 14  1  0  0  0  0
M  END
