6,8
q = -1.0

 36 36  0  0  1  0  0  0  0  0999 V2000
   -0.0007   -3.5560    1.0771 S   0  0  0  0  0  0  0  0  0  0  0  0
   -2.9368   -2.4288    0.0183 Si  0  0  0  0  0  0  0  0  0  0  0  0
    2.9358   -2.4300    0.0185 Si  0  0  0  0  0  0  0  0  0  0  0  0
   -0.0005   -2.3607   -0.1344 C   0  0  0  0  0  0  0  0  0  0  0  0
   -1.2514   -1.7641   -0.6239 C   0  0  1  0  0  3  0  0  0  0  0  0
   -1.2321   -1.0193   -1.8620 C   0  0  0  0  0  3  0  0  0  0  0  0
   -0.0001   -0.6994   -2.4930 C   0  0  0  0  0  3  0  0  0  0  0  0
    1.2318   -1.0198   -1.8620 C   0  0  0  0  0  3  0  0  0  0  0  0
    1.2507   -1.7646   -0.6239 C   0  0  2  0  0  3  0  0  0  0  0  0
   -3.2099   -2.3172    1.8904 C   0  0  0  0  0  0  0  0  0  0  0  0
   -4.3130   -1.4093   -0.8014 C   0  0  0  0  0  0  0  0  0  0  0  0
   -3.1029   -4.2071   -0.6025 C   0  0  0  0  0  0  0  0  0  0  0  0
    3.2088   -2.3183    1.8906 C   0  0  0  0  0  0  0  0  0  0  0  0
    4.3125   -1.4111   -0.8012 C   0  0  0  0  0  0  0  0  0  0  0  0
    3.1012   -4.2084   -0.6022 C   0  0  0  0  0  0  0  0  0  0  0  0
   -2.1735   -0.6773   -2.3117 H   0  0  0  0  0  0  0  0  0  0  0  0
    0.0000   -0.0849   -3.4044 H   0  0  0  0  0  0  0  0  0  0  0  0
    2.1733   -0.6783   -2.3117 H   0  0  0  0  0  0  0  0  0  0  0  0
   -2.2764   -2.5240    2.4468 H   0  0  0  0  0  0  0  0  0  0  0  0
   -3.6247   -1.3346    2.1956 H   0  0  0  0  0  0  0  0  0  0  0  0
   -3.9519   -3.0896    2.1812 H   0  0  0  0  0  0  0  0  0  0  0  0
   -5.2955   -1.7814   -0.4431 H   0  0  0  0  0  0  0  0  0  0  0  0
   -4.2494   -0.3355   -0.5375 H   0  0  0  0  0  0  0  0  0  0  0  0
   -4.3149   -1.4949   -1.9072 H   0  0  0  0  0  0  0  0  0  0  0  0
   -2.3331   -4.8508   -0.1357 H   0  0  0  0  0  0  0  0  0  0  0  0
   -4.1090   -4.6058   -0.3556 H   0  0  0  0  0  0  0  0  0  0  0  0
   -2.9769   -4.2503   -1.7037 H   0  0  0  0  0  0  0  0  0  0  0  0
    3.9500   -3.0915    2.1816 H   0  0  0  0  0  0  0  0  0  0  0  0
    3.6247   -1.3362    2.1956 H   0  0  0  0  0  0  0  0  0  0  0  0
    2.2751   -2.5241    2.4470 H   0  0  0  0  0  0  0  0  0  0  0  0
    4.3142   -1.4966   -1.9070 H   0  0  0  0  0  0  0  0  0  0  0  0
    4.2494   -0.3373   -0.5372 H   0  0  0  0  0  0  0  0  0  0  0  0
    5.2948   -1.7837   -0.4430 H   0  0  0  0  0  0  0  0  0  0  0  0
    2.3316   -4.8519   -0.1350 H   0  0  0  0  0  0  0  0  0  0  0  0
    2.9746   -4.2516   -1.7034 H   0  0  0  0  0  0  0  0  0  0  0  0
    4.1074   -4.6072   -0.3558 H   0  0  0  0  0  0  0  0  0  0  0  0
  2 10  1  0  0  0  0
  3 13  1  0  0  0  0
  4  1  2  0  0  0  0
  5  4  1  0  0  0  0
  5  2  1  6  0  0  0
  6  5  1  0  0  0  0
  7  6  1  0  0  0  0
  7  8  1  0  0  0  0
  8  9  1  0  0  0  0
  9  4  1  0  0  0  0
  9  3  1  6  0  0  0
 10 21  1  0  0  0  0
 10 20  1  0  0  0  0
 10 19  1  0  0  0  0
 11 23  1  0  0  0  0
 11 22  1  0  0  0  0
 11  2  1  0  0  0  0
 12 26  1  0  0  0  0
 12 25  1  0  0  0  0
 12  2  1  0  0  0  0
 13 28  1  0  0  0  0
 13 29  1  0  0  0  0
 13 30  1  0  0  0  0
 14 32  1  0  0  0  0
 14 33  1  0  0  0  0
 14  3  1  0  0  0  0
 15 36  1  0  0  0  0
 15 34  1  0  0  0  0
 15  3  1  0  0  0  0
 16  6  1  0  0  0  0
 17  7  1  0  0  0  0
 18  8  1  0  0  0  0
 24 11  1  0  0  0  0
 27 12  1  0  0  0  0
 31 14  1  0  0  0  0
 35 15  1  0  0  0  0
M  END
