5,10
q = -1.0

 43 43  0  0  0  0  0  0  0  0999 V2000
    3.1119    1.9825    1.2462 O   0  0  0  0  0  0  0  0  0  0  0  0
    3.2454    1.4331   -0.9593 O   0  0  0  0  0  0  0  0  0  0  0  0
    0.8328    3.4716    0.0748 O   0  0  0  0  0  0  0  0  0  0  0  0
   -3.2826    1.1229   -0.1078 O   0  0  0  0  0  0  0  0  0  0  0  0
    0.7937   -0.1467    0.0210 C   0  0  0  0  0  2  0  0  0  0  0  0
    1.1387    1.1885    0.0825 C   0  0  0  0  0  0  0  0  0  0  0  0
    0.2013    2.2865    0.0586 C   0  0  0  0  0  0  0  0  0  0  0  0
   -1.2018    2.2217    0.0001 C   0  0  0  0  0  0  0  0  0  0  0  0
   -1.7271    3.1846   -0.0353 H   0  0  0  0  0  0  0  0  0  0  0  0
   -1.9460    1.0298   -0.0352 C   0  0  0  0  0  3  0  0  0  0  0  0
    1.9105   -1.1247    0.0829 C   0  0  0  0  0  0  0  0  0  0  0  0
    2.6098   -1.3287    1.2946 C   0  0  0  0  0  0  0  0  0  0  0  0
    2.3385   -0.7317    2.1779 H   0  0  0  0  0  0  0  0  0  0  0  0
    3.6337   -2.2846    1.3743 C   0  0  0  0  0  0  0  0  0  0  0  0
    4.1576   -2.4388    2.3302 H   0  0  0  0  0  0  0  0  0  0  0  0
    3.9950   -3.0335    0.2444 C   0  0  0  0  0  0  0  0  0  0  0  0
    4.8004   -3.7806    0.3076 H   0  0  0  0  0  0  0  0  0  0  0  0
    3.3162   -2.8251   -0.9686 C   0  0  0  0  0  0  0  0  0  0  0  0
    3.5939   -3.4046   -1.8624 H   0  0  0  0  0  0  0  0  0  0  0  0
    2.2774   -1.8897   -1.0477 C   0  0  0  0  0  0  0  0  0  0  0  0
    1.7391   -1.7390   -1.9954 H   0  0  0  0  0  0  0  0  0  0  0  0
    2.5947    1.5920    0.2159 C   0  0  0  0  0  0  0  0  0  0  0  0
    4.6718    1.6783   -0.9420 C   0  0  0  0  0  0  0  0  0  0  0  0
    4.8760    2.5376   -0.2711 H   0  0  0  0  0  0  0  0  0  0  0  0
    4.9165    1.9614   -1.9847 H   0  0  0  0  0  0  0  0  0  0  0  0
    5.4385    0.4433   -0.4997 C   0  0  0  0  0  0  0  0  0  0  0  0
    6.5294    0.6252   -0.5811 H   0  0  0  0  0  0  0  0  0  0  0  0
    5.1778   -0.4328   -1.1255 H   0  0  0  0  0  0  0  0  0  0  0  0
    5.2040    0.1936    0.5526 H   0  0  0  0  0  0  0  0  0  0  0  0
    0.1286    4.7199    0.1043 C   0  0  0  0  0  0  0  0  0  0  0  0
   -0.5514    4.7355    0.9849 H   0  0  0  0  0  0  0  0  0  0  0  0
   -0.4967    4.8133   -0.8118 H   0  0  0  0  0  0  0  0  0  0  0  0
    1.1663    5.8215    0.1850 C   0  0  0  0  0  0  0  0  0  0  0  0
    0.6683    6.8100    0.2251 H   0  0  0  0  0  0  0  0  0  0  0  0
    1.8320    5.7994   -0.6998 H   0  0  0  0  0  0  0  0  0  0  0  0
    1.7901    5.7016    1.0919 H   0  0  0  0  0  0  0  0  0  0  0  0
   -3.9919    2.3824   -0.1476 C   0  0  0  0  0  0  0  0  0  0  0  0
   -3.6518    2.9662   -1.0313 H   0  0  0  0  0  0  0  0  0  0  0  0
   -3.7468    2.9682    0.7658 H   0  0  0  0  0  0  0  0  0  0  0  0
   -5.4708    2.0623   -0.2253 C   0  0  0  0  0  0  0  0  0  0  0  0
   -6.0638    2.9976   -0.2532 H   0  0  0  0  0  0  0  0  0  0  0  0
   -5.7902    1.4696    0.6540 H   0  0  0  0  0  0  0  0  0  0  0  0
   -5.6979    1.4751   -1.1363 H   0  0  0  0  0  0  0  0  0  0  0  0
  2 23  1  0  0  0  0
  2 22  1  0  0  0  0
  3 30  1  0  0  0  0
  4 10  1  0  0  0  0
  5  6  1  0  0  0  0
  5 11  1  0  0  0  0
  6 22  1  0  0  0  0
  7  3  1  0  0  0  0
  7  6  2  0  0  0  0
  8  7  1  0  0  0  0
  9  8  1  0  0  0  0
 10  8  2  0  0  0  0
 11 12  1  0  0  0  0
 12 14  2  0  0  0  0
 12 13  1  0  0  0  0
 14 15  1  0  0  0  0
 16 17  1  0  0  0  0
 16 14  1  0  0  0  0
 18 16  2  0  0  0  0
 19 18  1  0  0  0  0
 20 18  1  0  0  0  0
 20 11  2  0  0  0  0
 21 20  1  0  0  0  0
 22  1  2  0  0  0  0
 23 26  1  0  0  0  0
 23 24  1  0  0  0  0
 25 23  1  0  0  0  0
 26 29  1  0  0  0  0
 27 26  1  0  0  0  0
 28 26  1  0  0  0  0
 30 33  1  0  0  0  0
 30 31  1  0  0  0  0
 32 30  1  0  0  0  0
 33 34  1  0  0  0  0
 33 36  1  0  0  0  0
 35 33  1  0  0  0  0
 37  4  1  0  0  0  0
 37 39  1  0  0  0  0
 38 37  1  0  0  0  0
 40 37  1  0  0  0  0
 40 42  1  0  0  0  0
 41 40  1  0  0  0  0
 43 40  1  0  0  0  0
M  END
