5,10
q = -1.0

 49 50  0  0  0  0  0  0  0  0999 V2000
   -1.7152    3.1391    1.5260 O   0  0  0  0  0  0  0  0  0  0  0  0
   -2.3895    2.5124   -0.5608 O   0  0  0  0  0  0  0  0  0  0  0  0
    0.7064    3.6872   -0.1476 O   0  0  0  0  0  0  0  0  0  0  0  0
    3.7775    0.0724   -0.2511 O   0  0  0  0  0  0  0  0  0  0  0  0
   -0.4523    0.2884    0.2827 C   0  0  0  0  0  2  0  0  0  0  0  0
   -0.3261    1.6592    0.2055 C   0  0  0  0  0  0  0  0  0  0  0  0
    0.9076    2.3631   -0.0540 C   0  0  0  0  0  0  0  0  0  0  0  0
    2.1945    1.8166   -0.1965 C   0  0  0  0  0  0  0  0  0  0  0  0
    3.0048    2.5340   -0.3788 H   0  0  0  0  0  0  0  0  0  0  0  0
    2.4946    0.4441   -0.1221 C   0  0  0  0  0  3  0  0  0  0  0  0
   -1.7910   -0.2373    0.6654 C   0  0  0  0  0  0  0  0  0  0  0  0
   -2.6999   -0.7677   -0.3153 C   0  0  0  0  0  0  0  0  0  0  0  0
   -2.4401   -0.6729   -1.7126 C   0  0  0  0  0  0  0  0  0  0  0  0
   -1.5294   -0.1575   -2.0462 H   0  0  0  0  0  0  0  0  0  0  0  0
   -3.3335   -1.1847   -2.6422 C   0  0  0  0  0  0  0  0  0  0  0  0
   -3.1141   -1.1010   -3.7175 H   0  0  0  0  0  0  0  0  0  0  0  0
   -4.5340   -1.8109   -2.2122 C   0  0  0  0  0  0  0  0  0  0  0  0
   -5.2366   -2.2166   -2.9560 H   0  0  0  0  0  0  0  0  0  0  0  0
   -4.8240   -1.9012   -0.8590 C   0  0  0  0  0  0  0  0  0  0  0  0
   -5.7601   -2.3715   -0.5188 H   0  0  0  0  0  0  0  0  0  0  0  0
   -3.9288   -1.3817    0.1224 C   0  0  0  0  0  0  0  0  0  0  0  0
   -4.2335   -1.4257    1.5142 C   0  0  0  0  0  0  0  0  0  0  0  0
   -5.1730   -1.8991    1.8386 H   0  0  0  0  0  0  0  0  0  0  0  0
   -3.3660   -0.8636    2.4374 C   0  0  0  0  0  0  0  0  0  0  0  0
   -3.6108   -0.8801    3.5103 H   0  0  0  0  0  0  0  0  0  0  0  0
   -2.1508   -0.2669    2.0150 C   0  0  0  0  0  0  0  0  0  0  0  0
   -1.4684    0.1661    2.7614 H   0  0  0  0  0  0  0  0  0  0  0  0
   -1.5320    2.5340    0.4866 C   0  0  0  0  0  0  0  0  0  0  0  0
   -3.6685    3.1632   -0.3735 C   0  0  0  0  0  0  0  0  0  0  0  0
   -3.9046    3.6208   -1.3549 H   0  0  0  0  0  0  0  0  0  0  0  0
   -3.5492    3.9621    0.3856 H   0  0  0  0  0  0  0  0  0  0  0  0
   -4.7247    2.1531    0.0424 C   0  0  0  0  0  0  0  0  0  0  0  0
   -5.7059    2.6576    0.1549 H   0  0  0  0  0  0  0  0  0  0  0  0
   -4.4621    1.6844    1.0112 H   0  0  0  0  0  0  0  0  0  0  0  0
   -4.8283    1.3478   -0.7109 H   0  0  0  0  0  0  0  0  0  0  0  0
    1.7816    4.6177   -0.3318 C   0  0  0  0  0  0  0  0  0  0  0  0
    2.2992    4.3982   -1.2924 H   0  0  0  0  0  0  0  0  0  0  0  0
    2.5197    4.4906    0.4909 H   0  0  0  0  0  0  0  0  0  0  0  0
    1.1806    6.0090   -0.3276 C   0  0  0  0  0  0  0  0  0  0  0  0
    1.9780    6.7671   -0.4540 H   0  0  0  0  0  0  0  0  0  0  0  0
    0.6558    6.2023    0.6281 H   0  0  0  0  0  0  0  0  0  0  0  0
    0.4521    6.1246   -1.1536 H   0  0  0  0  0  0  0  0  0  0  0  0
    4.8624    1.0088   -0.4464 C   0  0  0  0  0  0  0  0  0  0  0  0
    4.8809    1.7284    0.4015 H   0  0  0  0  0  0  0  0  0  0  0  0
    4.6840    1.5843   -1.3815 H   0  0  0  0  0  0  0  0  0  0  0  0
    6.1430    0.2027   -0.5235 C   0  0  0  0  0  0  0  0  0  0  0  0
    7.0098    0.8756   -0.6752 H   0  0  0  0  0  0  0  0  0  0  0  0
    6.1043   -0.5157   -1.3655 H   0  0  0  0  0  0  0  0  0  0  0  0
    6.3025   -0.3705    0.4105 H   0  0  0  0  0  0  0  0  0  0  0  0
  2 29  1  0  0  0  0
  2 28  1  0  0  0  0
  3  7  1  0  0  0  0
  4 10  1  0  0  0  0
  5 11  1  0  0  0  0
  6  5  1  0  0  0  0
  6 28  1  0  0  0  0
  7  6  2  0  0  0  0
  8 10  2  0  0  0  0
  8  7  1  0  0  0  0
  9  8  1  0  0  0  0
 11 26  1  0  0  0  0
 12 21  1  0  0  0  0
 12 11  2  0  0  0  0
 13 12  1  0  0  0  0
 14 13  1  0  0  0  0
 15 17  1  0  0  0  0
 15 13  2  0  0  0  0
 16 15  1  0  0  0  0
 17 19  2  0  0  0  0
 18 17  1  0  0  0  0
 19 20  1  0  0  0  0
 19 21  1  0  0  0  0
 21 22  2  0  0  0  0
 22 23  1  0  0  0  0
 22 24  1  0  0  0  0
 24 25  1  0  0  0  0
 26 24  2  0  0  0  0
 26 27  1  0  0  0  0
 28  1  2  0  0  0  0
 29 32  1  0  0  0  0
 29 31  1  0  0  0  0
 30 29  1  0  0  0  0
 32 33  1  0  0  0  0
 32 34  1  0  0  0  0
 35 32  1  0  0  0  0
 36 39  1  0  0  0  0
 36  3  1  0  0  0  0
 36 38  1  0  0  0  0
 37 36  1  0  0  0  0
 39 41  1  0  0  0  0
 40 39  1  0  0  0  0
 42 39  1  0  0  0  0
 43  4  1  0  0  0  0
 43 44  1  0  0  0  0
 45 43  1  0  0  0  0
 46 43  1  0  0  0  0
 46 49  1  0  0  0  0
 47 46  1  0  0  0  0
 48 46  1  0  0  0  0
M  END
