5,7
q = -1.0

 51 54  0  0  1  0  0  0  0  0999 V2000
    0.1028    1.1440   -0.7229 P   0  0  0  0  0  0  0  0  0  0  0  0
   -1.2841   -3.2371    0.2652 O   0  0  0  0  0  0  0  0  0  0  0  0
   -2.0632   -1.0303    0.1242 O   0  0  0  0  0  0  0  0  0  0  0  0
   -5.4405   -0.6170   -1.0374 O   0  0  0  0  0  0  0  0  0  0  0  0
    0.1635   -1.3963    0.6805 C   0  0  1  0  0  3  0  0  0  0  0  0
    0.6799   -0.0482    0.5579 C   0  0  1  0  0  3  0  0  0  0  0  0
    1.6840    0.1044    1.5733 C   0  0  0  0  0  3  0  0  0  0  0  0
    2.2791    1.0122    1.7316 H   0  0  0  0  0  0  0  0  0  0  0  0
    1.7761   -1.1153    2.3215 C   0  0  0  0  0  0  0  0  0  0  0  0
    2.4557   -1.3116    3.1587 H   0  0  0  0  0  0  0  0  0  0  0  0
    0.8285   -2.0404    1.7649 C   0  0  0  0  0  0  0  0  0  0  0  0
    0.6332   -3.0673    2.0933 H   0  0  0  0  0  0  0  0  0  0  0  0
   -0.9895   -1.9216   -0.1242 C   0  0  1  0  0  0  0  0  0  0  0  0
   -0.7668   -1.8963   -1.2251 H   0  0  0  0  0  0  0  0  0  0  0  0
   -2.4050   -3.7370   -0.4700 C   0  0  0  0  0  0  0  0  0  0  0  0
   -2.5933   -4.7616   -0.0951 H   0  0  0  0  0  0  0  0  0  0  0  0
   -2.1366   -3.8102   -1.5530 H   0  0  0  0  0  0  0  0  0  0  0  0
   -3.6220   -2.8273   -0.2888 C   0  0  0  0  0  0  0  0  0  0  0  0
   -4.4646   -3.1491   -0.9326 H   0  0  0  0  0  0  0  0  0  0  0  0
   -3.9595   -2.8679    0.7685 H   0  0  0  0  0  0  0  0  0  0  0  0
   -3.2299   -1.3853   -0.6217 C   0  0  1  0  0  0  0  0  0  0  0  0
   -3.0017   -1.3106   -1.7150 H   0  0  0  0  0  0  0  0  0  0  0  0
   -4.2863   -0.3448   -0.2768 C   0  0  0  0  0  0  0  0  0  0  0  0
   -4.4971   -0.3857    0.8222 H   0  0  0  0  0  0  0  0  0  0  0  0
   -3.8774    0.6734   -0.4892 H   0  0  0  0  0  0  0  0  0  0  0  0
   -6.4765    0.3036   -0.7985 C   0  0  0  0  0  0  0  0  0  0  0  0
   -7.3316    0.0272   -1.4457 H   0  0  0  0  0  0  0  0  0  0  0  0
   -6.1694    1.3514   -1.0377 H   0  0  0  0  0  0  0  0  0  0  0  0
   -6.8155    0.2882    0.2668 H   0  0  0  0  0  0  0  0  0  0  0  0
   -1.2248    2.0566    0.1836 C   0  0  0  0  0  0  0  0  0  0  0  0
   -1.6257    1.7677    1.5032 C   0  0  0  0  0  0  0  0  0  0  0  0
   -1.0980    0.9934    2.0781 H   0  0  0  0  0  0  0  0  0  0  0  0
   -2.7109    2.4461    2.0797 C   0  0  0  0  0  0  0  0  0  0  0  0
   -3.0172    2.2061    3.1097 H   0  0  0  0  0  0  0  0  0  0  0  0
   -3.4059    3.4232    1.3497 C   0  0  0  0  0  0  0  0  0  0  0  0
   -4.2574    3.9522    1.8042 H   0  0  0  0  0  0  0  0  0  0  0  0
   -3.0105    3.7207    0.0346 C   0  0  0  0  0  0  0  0  0  0  0  0
   -3.5502    4.4845   -0.5462 H   0  0  0  0  0  0  0  0  0  0  0  0
   -1.9335    3.0358   -0.5465 C   0  0  0  0  0  0  0  0  0  0  0  0
   -1.6402    3.2579   -1.5855 H   0  0  0  0  0  0  0  0  0  0  0  0
    1.5167    2.3384   -0.6412 C   0  0  0  0  0  0  0  0  0  0  0  0
    1.5771    3.4240    0.2566 C   0  0  0  0  0  0  0  0  0  0  0  0
    0.7334    3.6172    0.9369 H   0  0  0  0  0  0  0  0  0  0  0  0
    2.7088    4.2543    0.2851 C   0  0  0  0  0  0  0  0  0  0  0  0
    2.7473    5.1004    0.9886 H   0  0  0  0  0  0  0  0  0  0  0  0
    3.7912    4.0044   -0.5741 C   0  0  0  0  0  0  0  0  0  0  0  0
    4.6803    4.6525   -0.5442 H   0  0  0  0  0  0  0  0  0  0  0  0
    3.7344    2.9291   -1.4753 C   0  0  0  0  0  0  0  0  0  0  0  0
    4.5789    2.7283   -2.1516 H   0  0  0  0  0  0  0  0  0  0  0  0
    2.5978    2.1091   -1.5185 C   0  0  0  0  0  0  0  0  0  0  0  0
    2.5481    1.2732   -2.2343 H   0  0  0  0  0  0  0  0  0  0  0  0
  1 41  1  0  0  0  0
  1 30  1  0  0  0  0
  4 26  1  0  0  0  0
  4 23  1  0  0  0  0
  5 11  1  1  0  0  0
  6  1  1  6  0  0  0
  6  5  1  0  0  0  0
  6  7  1  0  0  0  0
  7  8  1  0  0  0  0
  7  9  1  0  0  0  0
  9 10  1  0  0  0  0
 11 12  1  0  0  0  0
 11  9  2  0  0  0  0
 13 14  1  6  0  0  0
 13  3  1  0  0  0  0
 13  2  1  0  0  0  0
 13  5  1  0  0  0  0
 15 18  1  0  0  0  0
 15 16  1  0  0  0  0
 15  2  1  0  0  0  0
 17 15  1  0  0  0  0
 18 20  1  0  0  0  0
 19 18  1  0  0  0  0
 21 22  1  6  0  0  0
 21 18  1  0  0  0  0
 21 23  1  0  0  0  0
 21  3  1  0  0  0  0
 23 24  1  0  0  0  0
 25 23  1  0  0  0  0
 26 29  1  0  0  0  0
 27 26  1  0  0  0  0
 28 26  1  0  0  0  0
 30 31  1  0  0  0  0
 31 32  1  0  0  0  0
 31 33  2  0  0  0  0
 33 34  1  0  0  0  0
 35 36  1  0  0  0  0
 35 33  1  0  0  0  0
 37 35  2  0  0  0  0
 38 37  1  0  0  0  0
 39 37  1  0  0  0  0
 39 30  2  0  0  0  0
 40 39  1  0  0  0  0
 41 42  1  0  0  0  0
 42 44  2  0  0  0  0
 42 43  1  0  0  0  0
 44 45  1  0  0  0  0
 46 47  1  0  0  0  0
 46 44  1  0  0  0  0
 48 46  2  0  0  0  0
 49 48  1  0  0  0  0
 50 48  1  0  0  0  0
 50 41  2  0  0  0  0
 51 50  1  0  0  0  0
M  END
