2,4
q = -1.0

 54 57  0  0  1  0  0  0  0  0999 V2000
    0.7204    1.3320   -0.8452 P   0  0  0  0  0  0  0  0  0  0  0  0
   -0.3373   -1.0214    0.5157 C   0  0  1  0  0  3  0  0  0  0  0  0
    0.6479    0.0456    0.4719 C   0  0  1  0  0  3  0  0  0  0  0  0
    1.5314   -0.1606    1.5816 C   0  0  0  0  0  3  0  0  0  0  0  0
    2.4064    0.4591    1.8113 H   0  0  0  0  0  0  0  0  0  0  0  0
    1.0861   -1.3060    2.3154 C   0  0  0  0  0  0  0  0  0  0  0  0
    1.5569   -1.7211    3.2147 H   0  0  0  0  0  0  0  0  0  0  0  0
   -0.0872   -1.8368    1.6713 C   0  0  0  0  0  0  0  0  0  0  0  0
   -0.9337   -2.9680    2.1685 C   0  0  0  0  0  0  0  0  0  0  0  0
   -1.4126   -3.4955    1.3250 H   0  0  0  0  0  0  0  0  0  0  0  0
   -1.7413   -2.5644    2.8142 H   0  0  0  0  0  0  0  0  0  0  0  0
   -0.3399   -3.6862    2.7653 H   0  0  0  0  0  0  0  0  0  0  0  0
   -1.5081   -1.1045   -0.4162 C   0  0  2  0  0  0  0  0  0  0  0  0
   -1.2857   -0.5143   -1.3467 H   0  0  0  0  0  0  0  0  0  0  0  0
   -2.8797   -2.4993   -1.6882 C   0  0  0  0  0  0  0  0  0  0  0  0
   -3.0476   -3.5719   -1.9049 H   0  0  0  0  0  0  0  0  0  0  0  0
   -2.5931   -1.9960   -2.6442 H   0  0  0  0  0  0  0  0  0  0  0  0
   -4.1189   -1.8321   -1.0900 C   0  0  0  0  0  0  0  0  0  0  0  0
   -4.9427   -1.7756   -1.8289 H   0  0  0  0  0  0  0  0  0  0  0  0
   -4.4765   -2.4227   -0.2197 H   0  0  0  0  0  0  0  0  0  0  0  0
   -3.7512   -0.4259   -0.6113 C   0  0  1  0  0  0  0  0  0  0  0  0
   -3.5004    0.2077   -1.4992 H   0  0  0  0  0  0  0  0  0  0  0  0
   -4.8467    0.2727    0.1819 C   0  0  0  0  0  0  0  0  0  0  0  0
   -5.0688   -0.3231    1.1040 H   0  0  0  0  0  0  0  0  0  0  0  0
   -4.4704    1.2716    0.5173 H   0  0  0  0  0  0  0  0  0  0  0  0
   -7.0625    1.0231   -0.0056 C   0  0  0  0  0  0  0  0  0  0  0  0
   -7.8993    1.0726   -0.7291 H   0  0  0  0  0  0  0  0  0  0  0  0
   -6.8105    2.0624    0.3193 H   0  0  0  0  0  0  0  0  0  0  0  0
   -7.4047    0.4598    0.8974 H   0  0  0  0  0  0  0  0  0  0  0  0
   -0.2170    2.7122   -0.0479 C   0  0  0  0  0  0  0  0  0  0  0  0
   -0.0483    4.0222   -0.5512 C   0  0  0  0  0  0  0  0  0  0  0  0
    0.7009    4.2148   -1.3358 H   0  0  0  0  0  0  0  0  0  0  0  0
   -0.8182    5.0825   -0.0535 C   0  0  0  0  0  0  0  0  0  0  0  0
   -0.6657    6.0987   -0.4485 H   0  0  0  0  0  0  0  0  0  0  0  0
   -1.7843    4.8495    0.9398 C   0  0  0  0  0  0  0  0  0  0  0  0
   -2.3918    5.6816    1.3269 H   0  0  0  0  0  0  0  0  0  0  0  0
   -1.9708    3.5485    1.4313 C   0  0  0  0  0  0  0  0  0  0  0  0
   -2.7276    3.3545    2.2073 H   0  0  0  0  0  0  0  0  0  0  0  0
   -1.1927    2.4852    0.9453 C   0  0  0  0  0  0  0  0  0  0  0  0
   -1.3659    1.4691    1.3278 H   0  0  0  0  0  0  0  0  0  0  0  0
    2.4822    1.8564   -0.6400 C   0  0  0  0  0  0  0  0  0  0  0  0
    2.9262    2.7663    0.3422 C   0  0  0  0  0  0  0  0  0  0  0  0
    2.1965    3.2477    1.0110 H   0  0  0  0  0  0  0  0  0  0  0  0
    4.2935    3.0577    0.4670 C   0  0  0  0  0  0  0  0  0  0  0  0
    4.6319    3.7689    1.2363 H   0  0  0  0  0  0  0  0  0  0  0  0
    5.2284    2.4391   -0.3793 C   0  0  0  0  0  0  0  0  0  0  0  0
    6.3006    2.6640   -0.2740 H   0  0  0  0  0  0  0  0  0  0  0  0
    4.7925    1.5359   -1.3614 C   0  0  0  0  0  0  0  0  0  0  0  0
    5.5206    1.0474   -2.0263 H   0  0  0  0  0  0  0  0  0  0  0  0
    3.4254    1.2549   -1.4992 C   0  0  0  0  0  0  0  0  0  0  0  0
    3.0810    0.5500   -2.2726 H   0  0  0  0  0  0  0  0  0  0  0  0
   -2.6082   -0.4992    0.2480 O   0  0  0  0  0  0  0  0  0  0  0  0
   -1.7803   -2.4385   -0.7756 O   0  0  0  0  0  0  0  0  0  0  0  0
   -5.9800    0.3917   -0.6441 O   0  0  0  0  0  0  0  0  0  0  0  0
  1 41  1  0  0  0  0
  1 30  1  0  0  0  0
  2  8  1  1  0  0  0
  3  1  1  6  0  0  0
  3  2  1  0  0  0  0
  3  4  1  0  0  0  0
  4  5  1  0  0  0  0
  4  6  1  0  0  0  0
  6  7  1  0  0  0  0
  8  9  1  0  0  0  0
  8  6  2  0  0  0  0
  9 12  1  0  0  0  0
  9 11  1  0  0  0  0
 10  9  1  0  0  0  0
 13 14  1  6  0  0  0
 13 52  1  0  0  0  0
 13  2  1  0  0  0  0
 15 18  1  0  0  0  0
 15 53  1  0  0  0  0
 16 15  1  0  0  0  0
 17 15  1  0  0  0  0
 18 21  1  0  0  0  0
 18 20  1  0  0  0  0
 19 18  1  0  0  0  0
 21 22  1  6  0  0  0
 21 23  1  0  0  0  0
 21 52  1  0  0  0  0
 23 25  1  0  0  0  0
 23 24  1  0  0  0  0
 26 28  1  0  0  0  0
 26 29  1  0  0  0  0
 27 26  1  0  0  0  0
 30 39  1  0  0  0  0
 31 33  1  0  0  0  0
 31 30  2  0  0  0  0
 32 31  1  0  0  0  0
 33 35  2  0  0  0  0
 34 33  1  0  0  0  0
 35 36  1  0  0  0  0
 35 37  1  0  0  0  0
 37 38  1  0  0  0  0
 39 40  1  0  0  0  0
 39 37  2  0  0  0  0
 41 42  1  0  0  0  0
 42 44  2  0  0  0  0
 42 43  1  0  0  0  0
 44 45  1  0  0  0  0
 46 47  1  0  0  0  0
 46 44  1  0  0  0  0
 48 46  2  0  0  0  0
 49 48  1  0  0  0  0
 50 48  1  0  0  0  0
 50 41  2  0  0  0  0
 51 50  1  0  0  0  0
 53 13  1  0  0  0  0
 54 26  1  0  0  0  0
 54 23  1  0  0  0  0
M  END
