3,10
q = 0.0, confidence = 0.932

 48 50  0  0  1  0  0  0  0  0999 V2000
    0.8439    2.1721    0.1309 N   0  0  0  0  0  0  0  0  0  0  0  0
   -1.2284    1.5278   -0.0088 N   0  0  0  0  0  0  0  0  0  0  0  0
    2.5794    0.5918   -0.0748 C   0  0  0  0  0  3  0  0  0  0  0  0
    3.9018    0.1770   -0.3711 C   0  0  0  0  0  0  0  0  0  0  0  0
    5.1127    0.8888   -0.3994 C   0  0  0  0  0  0  0  0  0  0  0  0
    5.3781    2.2222   -0.0384 C   0  0  0  0  0  0  0  0  0  0  0  0
    4.4515    3.1955    0.3498 C   0  0  0  0  0  0  0  0  0  0  0  0
    3.0515    3.0908    0.4073 C   0  0  0  0  0  0  0  0  0  0  0  0
    2.2355    1.9800    0.1437 C   0  0  2  0  0  3  0  0  0  0  0  0
    0.0431    1.0354    0.0278 C   0  0  0  0  0  2  0  0  0  0  0  0
    0.0763    3.3349    0.1543 C   0  0  0  0  0  0  0  0  0  0  0  0
   -1.2233    2.9233    0.0640 C   0  0  0  0  0  0  0  0  0  0  0  0
   -2.4600    0.7886   -0.1607 C   0  0  0  0  0  0  0  0  0  0  0  0
   -2.8666    0.4216   -1.4628 C   0  0  0  0  0  0  0  0  0  0  0  0
   -4.1035   -0.2375   -1.5840 C   0  0  0  0  0  0  0  0  0  0  0  0
   -4.8914   -0.5091   -0.4597 C   0  0  0  0  0  0  0  0  0  0  0  0
   -4.4538   -0.1354    0.8166 C   0  0  0  0  0  0  0  0  0  0  0  0
   -3.2220    0.5176    0.9975 C   0  0  0  0  0  0  0  0  0  0  0  0
   -2.0083    0.6769   -2.6943 C   0  0  0  0  0  0  0  0  0  0  0  0
   -1.5714   -0.6483   -3.3428 C   0  0  0  0  0  0  0  0  0  0  0  0
   -2.7197    1.6016   -3.6964 C   0  0  0  0  0  0  0  0  0  0  0  0
   -2.7329    0.8748    2.3947 C   0  0  0  0  0  0  0  0  0  0  0  0
   -2.6826   -0.3630    3.3057 C   0  0  0  0  0  0  0  0  0  0  0  0
   -3.5778    2.0047    3.0086 C   0  0  0  0  0  0  0  0  0  0  0  0
    3.9805   -0.9021   -0.5995 H   0  0  0  0  0  0  0  0  0  0  0  0
    5.9915    0.2973   -0.7076 H   0  0  0  0  0  0  0  0  0  0  0  0
    6.4337    2.5375   -0.0665 H   0  0  0  0  0  0  0  0  0  0  0  0
    4.8616    4.1825    0.6168 H   0  0  0  0  0  0  0  0  0  0  0  0
    2.5296    4.0147    0.7032 H   0  0  0  0  0  0  0  0  0  0  0  0
    0.4976    4.3413    0.2079 H   0  0  0  0  0  0  0  0  0  0  0  0
   -2.1566    3.4924    0.0302 H   0  0  0  0  0  0  0  0  0  0  0  0
   -4.4489   -0.5521   -2.5804 H   0  0  0  0  0  0  0  0  0  0  0  0
   -5.8543   -1.0286   -0.5783 H   0  0  0  0  0  0  0  0  0  0  0  0
   -5.0712   -0.3729    1.6959 H   0  0  0  0  0  0  0  0  0  0  0  0
   -1.0842    1.1941   -2.3653 H   0  0  0  0  0  0  0  0  0  0  0  0
   -0.8724   -0.4566   -4.1825 H   0  0  0  0  0  0  0  0  0  0  0  0
   -2.4423   -1.2030   -3.7495 H   0  0  0  0  0  0  0  0  0  0  0  0
   -1.0688   -1.3011   -2.6019 H   0  0  0  0  0  0  0  0  0  0  0  0
   -2.0651    1.8099   -4.5673 H   0  0  0  0  0  0  0  0  0  0  0  0
   -2.9958    2.5710   -3.2332 H   0  0  0  0  0  0  0  0  0  0  0  0
   -3.6510    1.1389   -4.0834 H   0  0  0  0  0  0  0  0  0  0  0  0
   -1.6918    1.2458    2.3023 H   0  0  0  0  0  0  0  0  0  0  0  0
   -2.0786   -1.1646    2.8360 H   0  0  0  0  0  0  0  0  0  0  0  0
   -3.6977   -0.7644    3.5046 H   0  0  0  0  0  0  0  0  0  0  0  0
   -2.2306   -0.1025    4.2845 H   0  0  0  0  0  0  0  0  0  0  0  0
   -3.1974    2.2781    4.0141 H   0  0  0  0  0  0  0  0  0  0  0  0
   -4.6372    1.6945    3.1225 H   0  0  0  0  0  0  0  0  0  0  0  0
   -3.5654    2.9171    2.3775 H   0  0  0  0  0  0  0  0  0  0  0  0
  1  9  1  0  0  0  0
  1 11  1  0  0  0  0
  2 10  1  0  0  0  0
  2 12  1  0  0  0  0
  4  3  2  0  0  0  0
  5  4  1  0  0  0  0
  5  6  2  0  0  0  0
  6  7  1  0  0  0  0
  7  8  2  0  0  0  0
  7 28  1  0  0  0  0
  8 29  1  0  0  0  0
  9  3  1  1  0  0  0
  9  8  1  0  0  0  0
 10  1  1  0  0  0  0
 11 30  1  0  0  0  0
 12 11  2  0  0  0  0
 13  2  1  0  0  0  0
 13 18  1  0  0  0  0
 14 13  2  0  0  0  0
 15 14  1  0  0  0  0
 15 16  2  0  0  0  0
 16 17  1  0  0  0  0
 17 18  2  0  0  0  0
 17 34  1  0  0  0  0
 18 22  1  0  0  0  0
 19 35  1  0  0  0  0
 19 14  1  0  0  0  0
 20 19  1  0  0  0  0
 20 38  1  0  0  0  0
 21 40  1  0  0  0  0
 21 19  1  0  0  0  0
 22 24  1  0  0  0  0
 22 23  1  0  0  0  0
 23 44  1  0  0  0  0
 23 45  1  0  0  0  0
 24 47  1  0  0  0  0
 24 46  1  0  0  0  0
 25  4  1  0  0  0  0
 26  5  1  0  0  0  0
 27  6  1  0  0  0  0
 31 12  1  0  0  0  0
 32 15  1  0  0  0  0
 33 16  1  0  0  0  0
 36 20  1  0  0  0  0
 37 20  1  0  0  0  0
 39 21  1  0  0  0  0
 41 21  1  0  0  0  0
 42 22  1  0  0  0  0
 43 23  1  0  0  0  0
 48 24  1  0  0  0  0
M  END
