3,10
q = -1.0

 31 32  0  0  1  0  0  0  0  0999 V2000
   -1.5505    0.4669   -0.8376 O   0  0  0  0  0  0  0  0  0  0  0  0
   -1.1711    1.3523   -1.0503 H   0  0  0  0  0  0  0  0  0  0  0  0
   -2.3517   -1.8299    0.2552 C   0  0  1  0  0  3  0  0  0  0  0  0
   -2.1663   -2.6765   -0.8837 C   0  0  0  0  0  3  0  0  0  0  0  0
   -2.9131   -2.5775   -1.6857 H   0  0  0  0  0  0  0  0  0  0  0  0
   -1.0116   -3.4504   -1.1956 C   0  0  0  0  0  0  0  0  0  0  0  0
   -1.0059   -3.8601   -2.2189 H   0  0  0  0  0  0  0  0  0  0  0  0
    0.2227   -3.5847   -0.4968 C   0  0  0  0  0  0  0  0  0  0  0  0
    1.0247   -4.1001   -1.0481 H   0  0  0  0  0  0  0  0  0  0  0  0
    0.5950   -3.0106    0.7521 C   0  0  0  0  0  3  0  0  0  0  0  0
    1.6350   -3.1666    1.0767 H   0  0  0  0  0  0  0  0  0  0  0  0
   -0.2403   -2.2686    1.6464 C   0  0  0  0  0  0  0  0  0  0  0  0
    0.2640   -1.8922    2.5508 H   0  0  0  0  0  0  0  0  0  0  0  0
   -1.5446   -1.7679    1.4500 C   0  0  0  0  0  0  0  0  0  0  0  0
   -1.8952   -1.0522    2.2093 H   0  0  0  0  0  0  0  0  0  0  0  0
   -3.3608   -0.7246    0.1230 C   0  0  0  0  0  0  0  0  0  0  0  0
   -4.6991   -0.7985    0.5381 C   0  0  0  0  0  0  0  0  0  0  0  0
   -5.0777   -1.7390    0.9664 H   0  0  0  0  0  0  0  0  0  0  0  0
   -5.5515    0.3170    0.4171 C   0  0  0  0  0  0  0  0  0  0  0  0
   -5.0202    1.5093   -0.1189 C   0  0  0  0  0  0  0  0  0  0  0  0
   -5.6732    2.3920   -0.2092 H   0  0  0  0  0  0  0  0  0  0  0  0
   -3.6865    1.6269   -0.5514 C   0  0  0  0  0  0  0  0  0  0  0  0
   -2.8839    0.4808   -0.4189 C   0  0  0  0  0  0  0  0  0  0  0  0
   -6.9991    0.2392    0.8291 C   0  0  0  0  0  0  0  0  0  0  0  0
   -7.6580    0.1375   -0.0593 H   0  0  0  0  0  0  0  0  0  0  0  0
   -7.3194    1.1548    1.3646 H   0  0  0  0  0  0  0  0  0  0  0  0
   -7.1923   -0.6305    1.4854 H   0  0  0  0  0  0  0  0  0  0  0  0
   -3.1217    2.8995   -1.1254 C   0  0  0  0  0  0  0  0  0  0  0  0
   -2.7670    2.7601   -2.1691 H   0  0  0  0  0  0  0  0  0  0  0  0
   -2.2589    3.2783   -0.5346 H   0  0  0  0  0  0  0  0  0  0  0  0
   -3.8826    3.7015   -1.1403 H   0  0  0  0  0  0  0  0  0  0  0  0
  1 23  1  0  0  0  0
  2  1  1  0  0  0  0
  3 16  1  6  0  0  0
  3 14  1  0  0  0  0
  4  3  1  0  0  0  0
  5  4  1  0  0  0  0
  6  4  1  0  0  0  0
  6  8  2  0  0  0  0
  7  6  1  0  0  0  0
  8 10  1  0  0  0  0
  9  8  1  0  0  0  0
 10 11  1  0  0  0  0
 10 12  1  0  0  0  0
 12 13  1  0  0  0  0
 14 12  2  0  0  0  0
 14 15  1  0  0  0  0
 16 17  1  0  0  0  0
 17 18  1  0  0  0  0
 19 17  2  0  0  0  0
 19 24  1  0  0  0  0
 20 19  1  0  0  0  0
 21 20  1  0  0  0  0
 22 23  1  0  0  0  0
 22 20  2  0  0  0  0
 23 16  2  0  0  0  0
 24 26  1  0  0  0  0
 24 27  1  0  0  0  0
 25 24  1  0  0  0  0
 28 22  1  0  0  0  0
 28 30  1  0  0  0  0
 29 28  1  0  0  0  0
 31 28  1  0  0  0  0
M  END
