12,15
q = 0.0, confidence = 0.99

 67 68  0  0  0  0  0  0  0  0999 V2000
    2.4247    3.6379   -0.2393 O   0  0  0  0  0  0  0  0  0  0  0  0
   -0.0446    2.2188   -0.6685 O   0  0  0  0  0  0  0  0  0  0  0  0
   -2.2439    4.1132   -0.5319 O   0  0  0  0  0  0  0  0  0  0  0  0
   -3.1592    0.6540   -1.9143 O   0  0  0  0  0  0  0  0  0  0  0  0
   -5.3817   -0.6953   -0.5875 O   0  0  0  0  0  0  0  0  0  0  0  0
   -5.0791   -1.4503    2.1921 O   0  0  0  0  0  0  0  0  0  0  0  0
    1.5128    0.2710    2.5365 N   0  0  0  0  0  0  0  0  0  0  0  0
    3.0398    1.3954    1.5037 N   0  0  0  0  0  0  0  0  0  0  0  0
   -0.4469   -0.8076    1.7188 N   0  0  0  0  0  0  0  0  0  0  0  0
   -1.2462   -0.9731   -0.2786 N   0  0  0  0  0  0  0  0  0  0  0  0
    0.5303   -0.7690    2.7871 C   0  0  0  0  0  0  0  0  0  0  0  0
    2.2141    0.3139    1.3551 C   0  0  0  0  0  2  0  0  0  0  0  0
    2.8524    2.0014    2.7417 C   0  0  0  0  0  0  0  0  0  0  0  0
    1.8845    1.2936    3.4002 C   0  0  0  0  0  0  0  0  0  0  0  0
   -0.0630   -0.9495    0.4074 C   0  0  0  0  0  2  0  0  0  0  0  0
   -2.3355   -0.8570    0.5832 C   0  0  0  0  0  0  0  0  0  0  0  0
   -1.8321   -0.7473    1.8504 C   0  0  0  0  0  0  0  0  0  0  0  0
    3.9929    1.8874    0.5102 C   0  0  0  0  0  0  0  0  0  0  0  0
    3.7494    3.3549    0.1410 C   0  0  0  0  0  0  0  0  0  0  0  0
    2.0417    3.0992   -1.4970 C   0  0  0  0  0  0  0  0  0  0  0  0
    0.5295    3.1396   -1.5864 C   0  0  0  0  0  0  0  0  0  0  0  0
   -0.5828    2.7606    0.5274 C   0  0  0  0  0  0  0  0  0  0  0  0
   -2.0668    3.0539    0.3902 C   0  0  0  0  0  0  0  0  0  0  0  0
   -3.5552    4.1904   -1.0376 C   0  0  0  0  0  0  0  0  0  0  0  0
   -1.3988   -1.0698   -1.7297 C   0  0  0  0  0  0  0  0  0  0  0  0
   -1.8675    0.2412   -2.3557 C   0  0  0  0  0  0  0  0  0  0  0  0
   -4.2500    0.0270   -2.5584 C   0  0  0  0  0  0  0  0  0  0  0  0
   -5.4824    0.1849   -1.6912 C   0  0  0  0  0  0  0  0  0  0  0  0
   -6.3602   -0.4801    0.4084 C   0  0  0  0  0  0  0  0  0  0  0  0
   -6.2709   -1.5777    1.4474 C   0  0  0  0  0  0  0  0  0  0  0  0
   -4.8688   -2.5397    3.0599 C   0  0  0  0  0  0  0  0  0  0  0  0
    2.3689    2.0396   -1.6048 H   0  0  0  0  0  0  0  0  0  0  0  0
    2.4971    3.6861   -2.3337 H   0  0  0  0  0  0  0  0  0  0  0  0
    0.0168   -0.5604    3.7434 H   0  0  0  0  0  0  0  0  0  0  0  0
    0.1434    4.1664   -1.4141 H   0  0  0  0  0  0  0  0  0  0  0  0
    0.2219    2.8363   -2.6118 H   0  0  0  0  0  0  0  0  0  0  0  0
    1.0495   -1.7477    2.8455 H   0  0  0  0  0  0  0  0  0  0  0  0
   -0.0227    3.6712    0.8331 H   0  0  0  0  0  0  0  0  0  0  0  0
   -0.4395    1.9972    1.3214 H   0  0  0  0  0  0  0  0  0  0  0  0
    3.4202    2.8825    3.0526 H   0  0  0  0  0  0  0  0  0  0  0  0
   -2.5871    2.1333    0.0354 H   0  0  0  0  0  0  0  0  0  0  0  0
   -2.4937    3.3152    1.3944 H   0  0  0  0  0  0  0  0  0  0  0  0
    1.4460    1.4234    4.3940 H   0  0  0  0  0  0  0  0  0  0  0  0
   -3.5926    5.0375   -1.7508 H   0  0  0  0  0  0  0  0  0  0  0  0
   -4.3101    4.3779   -0.2332 H   0  0  0  0  0  0  0  0  0  0  0  0
   -3.8416    3.2527   -1.5709 H   0  0  0  0  0  0  0  0  0  0  0  0
   -3.3728   -0.8554    0.2294 H   0  0  0  0  0  0  0  0  0  0  0  0
   -2.1038   -1.9004   -1.9397 H   0  0  0  0  0  0  0  0  0  0  0  0
   -0.4149   -1.3806   -2.1385 H   0  0  0  0  0  0  0  0  0  0  0  0
   -2.3423   -0.6351    2.8108 H   0  0  0  0  0  0  0  0  0  0  0  0
   -1.1766    1.0458   -2.0404 H   0  0  0  0  0  0  0  0  0  0  0  0
   -1.8380    0.1407   -3.4656 H   0  0  0  0  0  0  0  0  0  0  0  0
    5.0225    1.7675    0.9067 H   0  0  0  0  0  0  0  0  0  0  0  0
   -4.0705   -1.0629   -2.7162 H   0  0  0  0  0  0  0  0  0  0  0  0
   -4.4364    0.4829   -3.5620 H   0  0  0  0  0  0  0  0  0  0  0  0
    3.9282    1.1966   -0.3521 H   0  0  0  0  0  0  0  0  0  0  0  0
   -5.5570    1.2469   -1.3522 H   0  0  0  0  0  0  0  0  0  0  0  0
   -6.3987   -0.0405   -2.2915 H   0  0  0  0  0  0  0  0  0  0  0  0
    4.4827    3.6247   -0.6589 H   0  0  0  0  0  0  0  0  0  0  0  0
   -7.3871   -0.4975   -0.0339 H   0  0  0  0  0  0  0  0  0  0  0  0
   -6.2229    0.5171    0.8952 H   0  0  0  0  0  0  0  0  0  0  0  0
    3.9624    4.0187    1.0062 H   0  0  0  0  0  0  0  0  0  0  0  0
   -7.1685   -1.5188    2.1142 H   0  0  0  0  0  0  0  0  0  0  0  0
   -6.3099   -2.5672    0.9275 H   0  0  0  0  0  0  0  0  0  0  0  0
   -3.9044   -2.3800    3.5796 H   0  0  0  0  0  0  0  0  0  0  0  0
   -4.8116   -3.5090    2.5082 H   0  0  0  0  0  0  0  0  0  0  0  0
   -5.6767   -2.6285    3.8270 H   0  0  0  0  0  0  0  0  0  0  0  0
  1 19  1  0  0  0  0
  2 22  1  0  0  0  0
  3 23  1  0  0  0  0
  5 29  1  0  0  0  0
  6 31  1  0  0  0  0
  7 11  1  0  0  0  0
  7 14  1  0  0  0  0
  8 13  1  0  0  0  0
  9 17  1  0  0  0  0
  9 11  1  0  0  0  0
 10 15  1  0  0  0  0
 10 16  1  0  0  0  0
 11 37  1  0  0  0  0
 11 34  1  0  0  0  0
 12  8  1  0  0  0  0
 12  7  1  0  0  0  0
 13 40  1  0  0  0  0
 13 14  2  0  0  0  0
 14 43  1  0  0  0  0
 15  9  1  0  0  0  0
 16 17  2  0  0  0  0
 17 50  1  0  0  0  0
 18 53  1  0  0  0  0
 18  8  1  0  0  0  0
 19 18  1  0  0  0  0
 19 62  1  0  0  0  0
 20  1  1  0  0  0  0
 21 20  1  0  0  0  0
 21 35  1  0  0  0  0
 21  2  1  0  0  0  0
 22 38  1  0  0  0  0
 22 39  1  0  0  0  0
 23 22  1  0  0  0  0
 23 42  1  0  0  0  0
 24  3  1  0  0  0  0
 24 45  1  0  0  0  0
 25 10  1  0  0  0  0
 26 51  1  0  0  0  0
 26  4  1  0  0  0  0
 26 25  1  0  0  0  0
 27  4  1  0  0  0  0
 27 28  1  0  0  0  0
 28 57  1  0  0  0  0
 28  5  1  0  0  0  0
 29 61  1  0  0  0  0
 29 30  1  0  0  0  0
 30 63  1  0  0  0  0
 30  6  1  0  0  0  0
 31 65  1  0  0  0  0
 31 67  1  0  0  0  0
 32 20  1  0  0  0  0
 33 20  1  0  0  0  0
 36 21  1  0  0  0  0
 41 23  1  0  0  0  0
 44 24  1  0  0  0  0
 46 24  1  0  0  0  0
 47 16  1  0  0  0  0
 48 25  1  0  0  0  0
 49 25  1  0  0  0  0
 52 26  1  0  0  0  0
 54 27  1  0  0  0  0
 55 27  1  0  0  0  0
 56 18  1  0  0  0  0
 58 28  1  0  0  0  0
 59 19  1  0  0  0  0
 60 29  1  0  0  0  0
 64 30  1  0  0  0  0
 66 31  1  0  0  0  0
M  END
