8,10
q = -1.0

 19 19  0  0  1  0  0  0  0  0999 V2000
   -3.3353   -0.1030    0.1102 B   0  0  0  0  0  0  0  0  0  0  0  0
   -2.2094   -0.4232   -0.9995 O   0  0  0  0  0  0  0  0  0  0  0  0
   -4.4344    0.2534   -0.6118 F   0  0  0  0  0  0  0  0  0  0  0  0
   -2.7830    0.9262    0.8729 F   0  0  0  0  0  0  0  0  0  0  0  0
   -3.4740   -1.2699    0.8498 F   0  0  0  0  0  0  0  0  0  0  0  0
   -1.0398   -0.7899   -0.6486 C   0  0  1  0  0  3  0  0  0  0  0  0
    0.0209   -0.8424   -1.6344 C   0  0  0  0  0  3  0  0  0  0  0  0
    1.2927   -1.3855   -1.3284 C   0  0  0  0  0  3  0  0  0  0  0  0
    1.6511   -1.7739   -0.0003 C   0  0  2  0  0  3  0  0  0  0  0  0
    0.6678   -1.5362    1.0104 C   0  0  0  0  0  3  0  0  0  0  0  0
   -0.6052   -0.9875    0.7234 C   0  0  0  0  0  3  0  0  0  0  0  0
    2.9870   -2.3832    0.3170 C   0  0  0  0  0  0  0  0  0  0  0  0
   -0.2166   -0.5123   -2.6549 H   0  0  0  0  0  0  0  0  0  0  0  0
    2.0448   -1.4662   -2.1285 H   0  0  0  0  0  0  0  0  0  0  0  0
    0.9284   -1.7374    2.0612 H   0  0  0  0  0  0  0  0  0  0  0  0
   -1.3162   -0.7708    1.5298 H   0  0  0  0  0  0  0  0  0  0  0  0
    3.3093   -2.1378    1.3469 H   0  0  0  0  0  0  0  0  0  0  0  0
    3.7687   -2.0358   -0.3852 H   0  0  0  0  0  0  0  0  0  0  0  0
    2.9300   -3.4894    0.2374 H   0  0  0  0  0  0  0  0  0  0  0  0
  1  5  1  0  0  0  0
  1  4  1  0  0  0  0
  2  1  1  0  0  0  0
  3  1  1  0  0  0  0
  6  2  1  1  0  0  0
  6 11  1  0  0  0  0
  7  8  1  0  0  0  0
  7  6  1  0  0  0  0
  8  9  1  0  0  0  0
  9 12  1  1  0  0  0
  9 10  1  0  0  0  0
 10 15  1  0  0  0  0
 11 10  1  0  0  0  0
 11 16  1  0  0  0  0
 12 17  1  0  0  0  0
 13  7  1  0  0  0  0
 14  8  1  0  0  0  0
 18 12  1  0  0  0  0
 19 12  1  0  0  0  0
M  END
