4,8
q = 0.0, confidence = 0.936

 22 24  0  0  0  0  0  0  0  0999 V2000
   -2.3241    1.4059   -1.1247 N   0  0  0  0  0  0  0  0  0  0  0  0
   -2.3443   -1.4526   -1.0715 N   0  0  0  0  0  0  0  0  0  0  0  0
   -1.2937    0.7035   -1.6322 C   0  0  0  0  0  0  0  0  0  0  0  0
   -0.1046    1.3935   -2.0865 C   0  0  0  0  0  3  0  0  0  0  0  0
   -0.1282    2.4931   -2.1056 H   0  0  0  0  0  0  0  0  0  0  0  0
    0.9920    0.6714   -2.6323 C   0  0  0  0  0  3  0  0  0  0  0  0
    1.8491    1.2138   -3.0540 H   0  0  0  0  0  0  0  0  0  0  0  0
    0.9868   -0.7644   -2.5823 C   0  0  0  0  0  3  0  0  0  0  0  0
    1.8443   -1.3263   -2.9832 H   0  0  0  0  0  0  0  0  0  0  0  0
   -0.1228   -1.4815   -2.0575 C   0  0  0  0  0  3  0  0  0  0  0  0
   -0.1321   -2.5794   -2.0353 H   0  0  0  0  0  0  0  0  0  0  0  0
   -1.2837   -0.7738   -1.5827 C   0  0  0  0  0  0  0  0  0  0  0  0
   -3.3673    0.7203   -0.6003 C   0  0  0  0  0  0  0  0  0  0  0  0
   -4.4716    1.4299   -0.0409 C   0  0  0  0  0  0  0  0  0  0  0  0
   -4.4334    2.5293   -0.0679 H   0  0  0  0  0  0  0  0  0  0  0  0
   -5.5439    0.7460    0.5125 C   0  0  0  0  0  0  0  0  0  0  0  0
   -6.3917    1.3020    0.9405 H   0  0  0  0  0  0  0  0  0  0  0  0
   -5.5567   -0.6796    0.5274 C   0  0  0  0  0  0  0  0  0  0  0  0
   -6.4169   -1.2083    0.9665 H   0  0  0  0  0  0  0  0  0  0  0  0
   -4.5012   -1.4035   -0.0050 C   0  0  0  0  0  0  0  0  0  0  0  0
   -4.4903   -2.5036   -0.0015 H   0  0  0  0  0  0  0  0  0  0  0  0
   -3.3749   -0.7347   -0.5804 C   0  0  0  0  0  0  0  0  0  0  0  0
  1 13  1  0  0  0  0
  2 22  1  0  0  0  0
  3 12  1  0  0  0  0
  3  1  2  0  0  0  0
  4  3  1  0  0  0  0
  5  4  1  0  0  0  0
  6  8  1  0  0  0  0
  6  4  1  0  0  0  0
  7  6  1  0  0  0  0
  8 10  1  0  0  0  0
  9  8  1  0  0  0  0
 10 11  1  0  0  0  0
 10 12  1  0  0  0  0
 12  2  2  0  0  0  0
 13 22  2  0  0  0  0
 13 14  1  0  0  0  0
 14 16  2  0  0  0  0
 15 14  1  0  0  0  0
 16 18  1  0  0  0  0
 16 17  1  0  0  0  0
 18 19  1  0  0  0  0
 20 21  1  0  0  0  0
 20 18  2  0  0  0  0
 22 20  1  0  0  0  0
M  END
