3,7
q = 0.0, confidence = 1.0

 24 24  0  0  0  0  0  0  0  0999 V2000
   -1.5694   -1.5934    1.3697 C   0  0  0  0  0  0  0  0  0  0  0  0
   -1.9300   -1.2476    2.3489 H   0  0  0  0  0  0  0  0  0  0  0  0
   -0.7776   -2.7696    1.2854 C   0  0  0  0  0  3  0  0  0  0  0  0
   -0.4824   -3.2875    2.2093 H   0  0  0  0  0  0  0  0  0  0  0  0
   -0.2498   -3.2141    0.0299 C   0  0  0  0  0  3  0  0  0  0  0  0
    0.4117   -4.0894   -0.0161 H   0  0  0  0  0  0  0  0  0  0  0  0
   -0.5233   -2.4373   -1.1342 C   0  0  0  0  0  3  0  0  0  0  0  0
   -0.0656   -2.7205   -2.0945 H   0  0  0  0  0  0  0  0  0  0  0  0
   -1.3333   -1.2613   -1.0778 C   0  0  0  0  0  3  0  0  0  0  0  0
   -1.5272   -0.6701   -1.9819 H   0  0  0  0  0  0  0  0  0  0  0  0
   -1.8283   -0.8103    0.1849 C   0  0  0  0  0  0  0  0  0  0  0  0
   -2.6378    0.4562    0.2600 C   0  0  0  0  0  0  0  0  0  0  0  0
   -2.8608    0.7459    1.3024 H   0  0  0  0  0  0  0  0  0  0  0  0
   -2.0768    1.2937   -0.2071 H   0  0  0  0  0  0  0  0  0  0  0  0
   -3.9504    0.3297   -0.5275 C   0  0  0  0  0  0  0  0  0  0  0  0
   -4.0413   -0.2305   -1.6035 O   0  0  0  0  0  0  0  0  0  0  0  0
   -4.9450    0.9451    0.1246 O   0  0  0  0  0  0  0  0  0  0  0  0
   -6.2437    0.9791   -0.5423 C   0  0  0  0  0  0  0  0  0  0  0  0
   -6.3982    0.0060   -1.0491 H   0  0  0  0  0  0  0  0  0  0  0  0
   -6.9673    1.0806    0.2883 H   0  0  0  0  0  0  0  0  0  0  0  0
   -6.3317    2.1362   -1.5193 C   0  0  0  0  0  0  0  0  0  0  0  0
   -6.1275    3.1023   -1.0169 H   0  0  0  0  0  0  0  0  0  0  0  0
   -7.3529    2.1825   -1.9473 H   0  0  0  0  0  0  0  0  0  0  0  0
   -5.6196    2.0043   -2.3570 H   0  0  0  0  0  0  0  0  0  0  0  0
  1  2  1  0  0  0  0
  3  1  1  0  0  0  0
  3  4  1  0  0  0  0
  5  3  1  0  0  0  0
  6  5  1  0  0  0  0
  7  9  1  0  0  0  0
  7  5  1  0  0  0  0
  8  7  1  0  0  0  0
  9 11  1  0  0  0  0
 10  9  1  0  0  0  0
 11 12  1  0  0  0  0
 11  1  2  0  0  0  0
 12 13  1  0  0  0  0
 14 12  1  0  0  0  0
 15 17  1  0  0  0  0
 15 12  1  0  0  0  0
 16 15  2  0  0  0  0
 18 17  1  0  0  0  0
 18 20  1  0  0  0  0
 19 18  1  0  0  0  0
 21 22  1  0  0  0  0
 21 18  1  0  0  0  0
 23 21  1  0  0  0  0
 24 21  1  0  0  0  0
M  END
