2,12
q = 0.0, confidence = 0.676

 12 12  0  0  0  0  0  0  0  0999 V2000
   -1.0310    0.3718    2.7628 O   0  0  0  0  0  0  0  0  0  0  0  0
   -1.7474   -0.3995   -0.5116 C   0  0  0  0  0  3  0  0  0  0  0  0
   -2.5443   -0.7769   -1.6026 C   0  0  0  0  0  0  0  0  0  0  0  0
   -2.1224   -0.9027   -2.6133 H   0  0  0  0  0  0  0  0  0  0  0  0
   -3.9244   -0.9852   -1.3822 C   0  0  0  0  0  0  0  0  0  0  0  0
   -4.5670   -1.2718   -2.2310 H   0  0  0  0  0  0  0  0  0  0  0  0
   -4.5088   -0.8355   -0.1076 C   0  0  0  0  0  0  0  0  0  0  0  0
   -5.5883   -1.0125    0.0170 H   0  0  0  0  0  0  0  0  0  0  0  0
   -3.7199   -0.4707    1.0004 C   0  0  0  0  0  0  0  0  0  0  0  0
   -4.1539   -0.3594    2.0063 H   0  0  0  0  0  0  0  0  0  0  0  0
   -2.3536   -0.2623    0.7678 C   0  0  0  0  0  0  0  0  0  0  0  0
   -1.1637    0.1238    1.5742 C   0  0  0  0  0  3  0  0  0  0  0  0
  2 11  1  0  0  0  0
  3  5  1  0  0  0  0
  3  2  2  0  0  0  0
  4  3  1  0  0  0  0
  5  7  2  0  0  0  0
  6  5  1  0  0  0  0
  7  8  1  0  0  0  0
  7  9  1  0  0  0  0
  9 10  1  0  0  0  0
 11  9  2  0  0  0  0
 11 12  1  0  0  0  0
 12  1  2  0  0  0  0
M  END
