2
q = -2.0, confidence = 0.884

 48 50  0  0  1  0  0  0  0  0999 V2000
   -0.3386    2.4496    0.6671 Si  0  0  0  0  0  0  0  0  0  0  0  0
    0.7690    1.5757   -0.5834 C   0  0  2  0  0  3  0  0  0  0  0  0
    0.3947    1.1730   -1.9213 C   0  0  0  0  0  0  0  0  0  0  0  0
    1.2651    0.1313   -2.3476 C   0  0  0  0  0  0  0  0  0  0  0  0
    1.1893   -0.3986   -3.3040 H   0  0  0  0  0  0  0  0  0  0  0  0
    3.3974   -0.9298   -1.3136 C   0  0  0  0  0  0  0  0  0  0  0  0
    3.6199   -1.5915   -2.1631 H   0  0  0  0  0  0  0  0  0  0  0  0
    4.1911   -0.9259   -0.1772 C   0  0  0  0  0  0  0  0  0  0  0  0
    5.0703   -1.5851   -0.1207 H   0  0  0  0  0  0  0  0  0  0  0  0
    3.8968   -0.0661    0.9225 C   0  0  0  0  0  0  0  0  0  0  0  0
    4.5649   -0.0676    1.7969 H   0  0  0  0  0  0  0  0  0  0  0  0
    2.8010    0.7845    0.9023 C   0  0  0  0  0  0  0  0  0  0  0  0
    2.6182    1.4663    1.7416 H   0  0  0  0  0  0  0  0  0  0  0  0
    1.9479    0.7956   -0.2390 C   0  0  0  0  0  0  0  0  0  0  0  0
    2.2689   -0.0721   -1.3575 C   0  0  0  0  0  0  0  0  0  0  0  0
    0.5657    3.3196    2.0825 C   0  0  0  0  0  0  0  0  0  0  0  0
    1.2566    2.6975    2.6782 H   0  0  0  0  0  0  0  0  0  0  0  0
   -0.1876    3.7435    2.7786 H   0  0  0  0  0  0  0  0  0  0  0  0
    1.1488    4.1656    1.6634 H   0  0  0  0  0  0  0  0  0  0  0  0
   -1.4259    3.8153   -0.0620 C   0  0  0  0  0  0  0  0  0  0  0  0
   -0.7952    4.7176   -0.2027 H   0  0  0  0  0  0  0  0  0  0  0  0
   -2.2306    4.0789    0.6550 H   0  0  0  0  0  0  0  0  0  0  0  0
   -1.8902    3.5808   -1.0356 H   0  0  0  0  0  0  0  0  0  0  0  0
   -1.2237    0.8372    1.1287 C   0  0  2  0  0  3  0  0  0  0  0  0
   -0.6244   -0.2307    1.9022 C   0  0  2  0  0  3  0  0  0  0  0  0
   -1.3638   -1.4393    1.6642 C   0  0  0  0  0  0  0  0  0  0  0  0
   -2.3728   -1.1595    0.7069 C   0  0  0  0  0  0  0  0  0  0  0  0
   -2.2844    0.2346    0.3606 C   0  0  1  0  0  3  0  0  0  0  0  0
    0.4463   -0.1732    2.9537 C   0  0  0  0  0  0  0  0  0  0  0  0
    1.2713   -0.8776    2.7269 H   0  0  0  0  0  0  0  0  0  0  0  0
    0.0192   -0.4677    3.9363 H   0  0  0  0  0  0  0  0  0  0  0  0
    0.8742    0.8343    3.0717 H   0  0  0  0  0  0  0  0  0  0  0  0
   -1.1554   -2.7178    2.4048 C   0  0  0  0  0  0  0  0  0  0  0  0
   -1.4716   -2.6034    3.4643 H   0  0  0  0  0  0  0  0  0  0  0  0
   -0.0872   -3.0119    2.3953 H   0  0  0  0  0  0  0  0  0  0  0  0
   -1.7346   -3.5493    1.9620 H   0  0  0  0  0  0  0  0  0  0  0  0
   -3.4287   -2.0884    0.2088 C   0  0  0  0  0  0  0  0  0  0  0  0
   -4.4339   -1.7514    0.5410 H   0  0  0  0  0  0  0  0  0  0  0  0
   -3.2748   -3.1210    0.5736 H   0  0  0  0  0  0  0  0  0  0  0  0
   -3.4280   -2.1147   -0.9005 H   0  0  0  0  0  0  0  0  0  0  0  0
   -3.3025    0.8877   -0.5272 C   0  0  0  0  0  0  0  0  0  0  0  0
   -3.1209    1.9665   -0.6636 H   0  0  0  0  0  0  0  0  0  0  0  0
   -4.3119    0.7814   -0.0749 H   0  0  0  0  0  0  0  0  0  0  0  0
   -3.3383    0.3985   -1.5215 H   0  0  0  0  0  0  0  0  0  0  0  0
   -0.6732    1.7591   -2.7985 C   0  0  0  0  0  0  0  0  0  0  0  0
   -0.3414    2.7429   -3.1930 H   0  0  0  0  0  0  0  0  0  0  0  0
   -1.6287    1.9198   -2.2705 H   0  0  0  0  0  0  0  0  0  0  0  0
   -0.8790    1.0892   -3.6532 H   0  0  0  0  0  0  0  0  0  0  0  0
  1 16  1  0  0  0  0
  2 14  1  0  0  0  0
  2  1  1  1  0  0  0
  3  2  1  0  0  0  0
  4  3  2  0  0  0  0
  4 15  1  0  0  0  0
  5  4  1  0  0  0  0
  6  8  1  0  0  0  0
  7  6  1  0  0  0  0
  8  9  1  0  0  0  0
  8 10  2  0  0  0  0
 10 11  1  0  0  0  0
 12 10  1  0  0  0  0
 12 13  1  0  0  0  0
 14 12  2  0  0  0  0
 15  6  2  0  0  0  0
 15 14  1  0  0  0  0
 16 17  1  0  0  0  0
 16 18  1  0  0  0  0
 19 16  1  0  0  0  0
 20 22  1  0  0  0  0
 20  1  1  0  0  0  0
 21 20  1  0  0  0  0
 23 20  1  0  0  0  0
 24  1  1  6  0  0  0
 24 25  1  0  0  0  0
 25 29  1  1  0  0  0
 26 25  1  0  0  0  0
 26 33  1  0  0  0  0
 27 26  2  0  0  0  0
 28 41  1  1  0  0  0
 28 27  1  0  0  0  0
 28 24  1  0  0  0  0
 29 32  1  0  0  0  0
 29 31  1  0  0  0  0
 30 29  1  0  0  0  0
 33 34  1  0  0  0  0
 35 33  1  0  0  0  0
 36 33  1  0  0  0  0
 37 38  1  0  0  0  0
 37 39  1  0  0  0  0
 37 27  1  0  0  0  0
 40 37  1  0  0  0  0
 41 43  1  0  0  0  0
 42 41  1  0  0  0  0
 44 41  1  0  0  0  0
 45 47  1  0  0  0  0
 45  3  1  0  0  0  0
 46 45  1  0  0  0  0
 48 45  1  0  0  0  0
M  END
