4,8
q = 0.0, confidence = 0.998

 60 61  0  0  1  0  0  0  0  0999 V2000
    0.2247   -0.1855   -1.4772 C   0  0  2  0  0  0  0  0  0  0  0  0
   -0.5944    1.0683   -1.1975 C   0  0  0  0  0  3  0  0  0  0  0  0
   -1.0231    1.5604   -2.0842 H   0  0  0  0  0  0  0  0  0  0  0  0
   -0.5757    1.8016    0.0016 C   0  0  2  0  0  3  0  0  0  0  0  0
   -0.2796    1.1842    1.2677 C   0  0  0  0  0  0  0  0  0  0  0  0
   -0.2411    1.8633    2.1346 H   0  0  0  0  0  0  0  0  0  0  0  0
   -0.2444   -0.1995    1.5884 C   0  0  0  0  0  0  0  0  0  0  0  0
   -0.4911   -1.2923    0.6757 C   0  0  0  0  0  3  0  0  0  0  0  0
   -0.7545   -2.2380    1.1731 H   0  0  0  0  0  0  0  0  0  0  0  0
   -0.5483   -1.2759   -0.7240 C   0  0  2  0  0  3  0  0  0  0  0  0
    1.6948   -0.1274   -1.0404 C   0  0  0  0  0  0  0  0  0  0  0  0
    2.4068    1.0839   -0.9423 C   0  0  0  0  0  0  0  0  0  0  0  0
    1.8905    2.0345   -1.1321 H   0  0  0  0  0  0  0  0  0  0  0  0
    3.7596    1.1068   -0.5943 C   0  0  0  0  0  0  0  0  0  0  0  0
    4.3132    2.0531   -0.5099 H   0  0  0  0  0  0  0  0  0  0  0  0
    4.4477   -0.0975   -0.3358 C   0  0  0  0  0  0  0  0  0  0  0  0
    3.7549   -1.3219   -0.4474 C   0  0  0  0  0  0  0  0  0  0  0  0
    4.2610   -2.2782   -0.2600 H   0  0  0  0  0  0  0  0  0  0  0  0
    2.3973   -1.3208   -0.7990 C   0  0  0  0  0  0  0  0  0  0  0  0
    1.8728   -2.2851   -0.8748 H   0  0  0  0  0  0  0  0  0  0  0  0
    5.7583    0.0203    0.0095 O   0  0  0  0  0  0  0  0  0  0  0  0
    6.4892   -1.1589    0.2864 C   0  0  0  0  0  0  0  0  0  0  0  0
    7.5151   -0.8385    0.5464 H   0  0  0  0  0  0  0  0  0  0  0  0
    6.5358   -1.8368   -0.5956 H   0  0  0  0  0  0  0  0  0  0  0  0
    6.0585   -1.7227    1.1446 H   0  0  0  0  0  0  0  0  0  0  0  0
   -0.8957    3.2847   -0.0183 C   0  0  0  0  0  0  0  0  0  0  0  0
   -1.3299    3.5893    0.9565 H   0  0  0  0  0  0  0  0  0  0  0  0
   -1.6852    3.4713   -0.7765 H   0  0  0  0  0  0  0  0  0  0  0  0
    0.3271    4.1626   -0.3307 C   0  0  0  0  0  0  0  0  0  0  0  0
    1.1433    3.9245    0.3863 H   0  0  0  0  0  0  0  0  0  0  0  0
    0.7181    3.8947   -1.3370 H   0  0  0  0  0  0  0  0  0  0  0  0
    0.0078    5.6567   -0.2825 C   0  0  0  0  0  0  0  0  0  0  0  0
    0.8985    6.2728   -0.5183 H   0  0  0  0  0  0  0  0  0  0  0  0
   -0.3535    5.9584    0.7224 H   0  0  0  0  0  0  0  0  0  0  0  0
   -0.7874    5.9214   -1.0100 H   0  0  0  0  0  0  0  0  0  0  0  0
   -0.0264   -0.5798    3.0377 C   0  0  0  0  0  0  0  0  0  0  0  0
   -0.6988   -1.4219    3.3080 H   0  0  0  0  0  0  0  0  0  0  0  0
   -0.3053    0.2671    3.6986 H   0  0  0  0  0  0  0  0  0  0  0  0
    1.4365   -0.9826    3.2946 C   0  0  0  0  0  0  0  0  0  0  0  0
    1.7060   -1.8154    2.6086 H   0  0  0  0  0  0  0  0  0  0  0  0
    2.0978   -0.1380    3.0021 H   0  0  0  0  0  0  0  0  0  0  0  0
    1.6999   -1.3861    4.7446 C   0  0  0  0  0  0  0  0  0  0  0  0
    2.7595   -1.6710    4.9020 H   0  0  0  0  0  0  0  0  0  0  0  0
    1.0715   -2.2508    5.0439 H   0  0  0  0  0  0  0  0  0  0  0  0
    1.4695   -0.5553    5.4437 H   0  0  0  0  0  0  0  0  0  0  0  0
   -1.0240   -2.4726   -1.5123 C   0  0  0  0  0  0  0  0  0  0  0  0
   -0.1289   -2.9582   -1.9655 H   0  0  0  0  0  0  0  0  0  0  0  0
   -1.5841   -2.0954   -2.3926 H   0  0  0  0  0  0  0  0  0  0  0  0
   -1.8660   -3.5073   -0.7666 C   0  0  0  0  0  0  0  0  0  0  0  0
   -1.2613   -3.9928    0.0307 H   0  0  0  0  0  0  0  0  0  0  0  0
   -2.7011   -2.9933   -0.2452 H   0  0  0  0  0  0  0  0  0  0  0  0
   -2.4237   -4.5795   -1.7036 C   0  0  0  0  0  0  0  0  0  0  0  0
   -3.0215   -5.3320   -1.1518 H   0  0  0  0  0  0  0  0  0  0  0  0
   -1.6116   -5.1187   -2.2350 H   0  0  0  0  0  0  0  0  0  0  0  0
   -3.0808   -4.1274   -2.4749 H   0  0  0  0  0  0  0  0  0  0  0  0
    0.1259   -0.5143   -2.8710 O   0  0  0  0  0  0  0  0  0  0  0  0
    0.8411    0.3200   -3.7575 C   0  0  0  0  0  0  0  0  0  0  0  0
    0.5707   -0.0055   -4.7804 H   0  0  0  0  0  0  0  0  0  0  0  0
    1.9434    0.2322   -3.6282 H   0  0  0  0  0  0  0  0  0  0  0  0
    0.5682    1.3967   -3.6501 H   0  0  0  0  0  0  0  0  0  0  0  0
  1 56  1  6  0  0  0
  1  2  1  0  0  0  0
  1 11  1  0  0  0  0
  1 10  1  0  0  0  0
  2  4  1  0  0  0  0
  3  2  1  0  0  0  0
  4 26  1  1  0  0  0
  4  5  1  0  0  0  0
  5  7  2  0  0  0  0
  5  6  1  0  0  0  0
  7 36  1  0  0  0  0
  8  9  1  0  0  0  0
  8  7  1  0  0  0  0
 10 46  1  6  0  0  0
 10  8  1  0  0  0  0
 11 12  2  0  0  0  0
 11 19  1  0  0  0  0
 12 14  1  0  0  0  0
 13 12  1  0  0  0  0
 14 15  1  0  0  0  0
 14 16  2  0  0  0  0
 16 21  1  0  0  0  0
 17 16  1  0  0  0  0
 17 18  1  0  0  0  0
 19 17  2  0  0  0  0
 20 19  1  0  0  0  0
 21 22  1  0  0  0  0
 22 23  1  0  0  0  0
 22 25  1  0  0  0  0
 24 22  1  0  0  0  0
 26 27  1  0  0  0  0
 28 26  1  0  0  0  0
 29 32  1  0  0  0  0
 29 26  1  0  0  0  0
 29 30  1  0  0  0  0
 31 29  1  0  0  0  0
 32 34  1  0  0  0  0
 33 32  1  0  0  0  0
 35 32  1  0  0  0  0
 36 39  1  0  0  0  0
 36 37  1  0  0  0  0
 36 38  1  0  0  0  0
 39 42  1  0  0  0  0
 40 39  1  0  0  0  0
 41 39  1  0  0  0  0
 42 43  1  0  0  0  0
 42 44  1  0  0  0  0
 42 45  1  0  0  0  0
 46 49  1  0  0  0  0
 47 46  1  0  0  0  0
 48 46  1  0  0  0  0
 49 51  1  0  0  0  0
 49 50  1  0  0  0  0
 52 53  1  0  0  0  0
 52 49  1  0  0  0  0
 54 52  1  0  0  0  0
 55 52  1  0  0  0  0
 57 60  1  0  0  0  0
 57 59  1  0  0  0  0
 57 56  1  0  0  0  0
 58 57  1  0  0  0  0
M  END
