7,8
q = 0.0, confidence = 0.534

 22 24  0  0  0  0  0  0  0  0999 V2000
   -4.3166   -0.1983   -1.9792 C   0  0  0  0  0  0  0  0  0  0  0  0
   -5.3720   -0.2268   -2.2935 H   0  0  0  0  0  0  0  0  0  0  0  0
   -3.2914   -0.3954   -2.9053 C   0  0  0  0  0  0  0  0  0  0  0  0
   -3.5467   -0.5818   -3.9614 H   0  0  0  0  0  0  0  0  0  0  0  0
   -1.9239   -0.3582   -2.5182 C   0  0  0  0  0  0  0  0  0  0  0  0
   -1.1595   -0.5182   -3.2998 H   0  0  0  0  0  0  0  0  0  0  0  0
   -1.5414   -0.1228   -1.1882 C   0  0  0  0  0  3  0  0  0  0  0  0
   -0.8238    0.2779    1.3915 C   0  0  0  0  0  3  0  0  0  0  0  0
   -0.4018    0.4865    2.7091 C   0  0  0  0  0  0  0  0  0  0  0  0
    0.6683    0.4597    2.9606 H   0  0  0  0  0  0  0  0  0  0  0  0
   -1.3662    0.7082    3.7287 C   0  0  0  0  0  0  0  0  0  0  0  0
   -1.0162    0.8668    4.7612 H   0  0  0  0  0  0  0  0  0  0  0  0
   -2.7340    0.7205    3.4551 C   0  0  0  0  0  0  0  0  0  0  0  0
   -3.4642    0.8890    4.2621 H   0  0  0  0  0  0  0  0  0  0  0  0
   -4.5820    0.4887    1.7353 C   0  0  0  0  0  0  0  0  0  0  0  0
   -5.3466    0.6539    2.5115 H   0  0  0  0  0  0  0  0  0  0  0  0
   -4.9628    0.2634    0.4282 C   0  0  0  0  0  0  0  0  0  0  0  0
   -6.0327    0.2490    0.1637 H   0  0  0  0  0  0  0  0  0  0  0  0
   -3.9932    0.0433   -0.6158 C   0  0  0  0  0  0  0  0  0  0  0  0
   -2.6126    0.0698   -0.2580 C   0  0  0  0  0  0  0  0  0  0  0  0
   -2.2228    0.2964    1.1020 C   0  0  0  0  0  0  0  0  0  0  0  0
   -3.1940    0.5101    2.1263 C   0  0  0  0  0  0  0  0  0  0  0  0
  1 19  1  0  0  0  0
  2  1  1  0  0  0  0
  3  5  1  0  0  0  0
  3  1  2  0  0  0  0
  4  3  1  0  0  0  0
  5  7  2  0  0  0  0
  6  5  1  0  0  0  0
  7 20  1  0  0  0  0
  8  9  1  0  0  0  0
  9 10  1  0  0  0  0
  9 11  2  0  0  0  0
 11 12  1  0  0  0  0
 13 11  1  0  0  0  0
 13 14  1  0  0  0  0
 15 22  1  0  0  0  0
 15 16  1  0  0  0  0
 17 15  2  0  0  0  0
 18 17  1  0  0  0  0
 19 20  2  0  0  0  0
 19 17  1  0  0  0  0
 20 21  1  0  0  0  0
 21  8  2  0  0  0  0
 21 22  1  0  0  0  0
 22 13  2  0  0  0  0
M  END
