7,9
q = 0.0, confidence = 1.0

 43 46  0  0  0  0  0  0  0  0999 V2000
   -1.5116    1.9544   -1.6358 N   0  0  0  0  0  0  0  0  0  0  0  0
    0.4895    1.3019   -1.9932 N   0  0  0  0  0  0  0  0  0  0  0  0
    0.3881    2.5128   -2.6357 N   0  0  0  0  0  0  0  0  0  0  0  0
   -1.2387    1.9178    1.7558 N   0  0  0  0  0  0  0  0  0  0  0  0
    0.7561    1.1446    1.8945 N   0  0  0  0  0  0  0  0  0  0  0  0
    0.7565    2.2942    2.6457 N   0  0  0  0  0  0  0  0  0  0  0  0
   -0.6529    0.9142   -1.3528 C   0  0  0  0  0  2  0  0  0  0  0  0
   -0.8420    2.8883   -2.4019 C   0  0  0  0  0  0  0  0  0  0  0  0
   -0.4570    0.8694    1.3248 C   0  0  0  0  0  2  0  0  0  0  0  0
   -0.4651    2.7454    2.5454 C   0  0  0  0  0  0  0  0  0  0  0  0
   -2.8770    2.1080   -1.1361 C   0  0  0  0  0  0  0  0  0  0  0  0
   -2.9961    2.8774    0.1868 C   0  0  0  0  0  0  0  0  0  0  0  0
   -2.6624    2.1048    1.4698 C   0  0  0  0  0  0  0  0  0  0  0  0
    1.7571    0.6312   -2.0267 C   0  0  0  0  0  0  0  0  0  0  0  0
    2.8867    1.3099   -1.5422 C   0  0  0  0  0  0  0  0  0  0  0  0
    4.1369    0.6814   -1.5990 C   0  0  0  0  0  0  0  0  0  0  0  0
    4.2535   -0.6112   -2.1348 C   0  0  0  0  0  0  0  0  0  0  0  0
    3.1181   -1.2764   -2.6241 C   0  0  0  0  0  0  0  0  0  0  0  0
    1.8625   -0.6533   -2.5790 C   0  0  0  0  0  0  0  0  0  0  0  0
    1.9609    0.3683    1.8272 C   0  0  0  0  0  0  0  0  0  0  0  0
    3.0567    0.7430    2.6246 C   0  0  0  0  0  0  0  0  0  0  0  0
    4.2274   -0.0265    2.5818 C   0  0  0  0  0  0  0  0  0  0  0  0
    4.3080   -1.1620    1.7605 C   0  0  0  0  0  0  0  0  0  0  0  0
    3.2104   -1.5180    0.9613 C   0  0  0  0  0  0  0  0  0  0  0  0
    2.0393   -0.7516    0.9836 C   0  0  0  0  0  0  0  0  0  0  0  0
   -1.2951    3.8143   -2.7762 H   0  0  0  0  0  0  0  0  0  0  0  0
   -0.8364    3.6552    3.0323 H   0  0  0  0  0  0  0  0  0  0  0  0
   -3.3046    1.0925   -1.0332 H   0  0  0  0  0  0  0  0  0  0  0  0
   -3.4498    2.6394   -1.9216 H   0  0  0  0  0  0  0  0  0  0  0  0
   -4.0577    3.1884    0.2778 H   0  0  0  0  0  0  0  0  0  0  0  0
   -2.4078    3.8186    0.1384 H   0  0  0  0  0  0  0  0  0  0  0  0
   -3.0904    2.6429    2.3382 H   0  0  0  0  0  0  0  0  0  0  0  0
   -3.1207    1.0969    1.4385 H   0  0  0  0  0  0  0  0  0  0  0  0
    2.7770    2.3228   -1.1303 H   0  0  0  0  0  0  0  0  0  0  0  0
    5.0255    1.2040   -1.2162 H   0  0  0  0  0  0  0  0  0  0  0  0
    5.2378   -1.1003   -2.1787 H   0  0  0  0  0  0  0  0  0  0  0  0
    3.2114   -2.2800   -3.0648 H   0  0  0  0  0  0  0  0  0  0  0  0
    0.9731   -1.1427   -2.9981 H   0  0  0  0  0  0  0  0  0  0  0  0
    2.9767    1.6254    3.2718 H   0  0  0  0  0  0  0  0  0  0  0  0
    5.0833    0.2640    3.2087 H   0  0  0  0  0  0  0  0  0  0  0  0
    5.2269   -1.7660    1.7402 H   0  0  0  0  0  0  0  0  0  0  0  0
    3.2661   -2.3937    0.2986 H   0  0  0  0  0  0  0  0  0  0  0  0
    1.1796   -1.0126    0.3358 H   0  0  0  0  0  0  0  0  0  0  0  0
  1  7  1  0  0  0  0
  1 11  1  0  0  0  0
  2  7  1  0  0  0  0
  3  8  2  0  0  0  0
  3  2  1  0  0  0  0
  4 10  1  0  0  0  0
  5  6  1  0  0  0  0
  8  1  1  0  0  0  0
  9  4  1  0  0  0  0
  9  5  1  0  0  0  0
 10  6  2  0  0  0  0
 10 27  1  0  0  0  0
 11 28  1  0  0  0  0
 11 12  1  0  0  0  0
 12 30  1  0  0  0  0
 12 13  1  0  0  0  0
 13  4  1  0  0  0  0
 13 32  1  0  0  0  0
 14  2  1  0  0  0  0
 14 15  1  0  0  0  0
 15 34  1  0  0  0  0
 16 15  2  0  0  0  0
 16 35  1  0  0  0  0
 17 16  1  0  0  0  0
 18 19  1  0  0  0  0
 18 17  2  0  0  0  0
 19 14  2  0  0  0  0
 20  5  1  0  0  0  0
 20 21  1  0  0  0  0
 21 39  1  0  0  0  0
 22 21  2  0  0  0  0
 22 40  1  0  0  0  0
 23 22  1  0  0  0  0
 24 25  1  0  0  0  0
 24 23  2  0  0  0  0
 25 20  2  0  0  0  0
 26  8  1  0  0  0  0
 29 11  1  0  0  0  0
 31 12  1  0  0  0  0
 33 13  1  0  0  0  0
 36 17  1  0  0  0  0
 37 18  1  0  0  0  0
 38 19  1  0  0  0  0
 41 23  1  0  0  0  0
 42 24  1  0  0  0  0
 43 25  1  0  0  0  0
M  END
