3,6
q = -1.0

 25 25  0  0  1  0  0  0  0  0999 V2000
    0.9467    0.0190   -1.6555 C   0  0  0  0  0  0  0  0  0  0  0  0
    1.1663    0.4981   -0.2538 C   0  0  2  0  0  3  0  0  0  0  0  0
    0.2967    1.4998    0.2652 C   0  0  0  0  0  3  0  0  0  0  0  0
    0.5443    1.9800    1.2254 H   0  0  0  0  0  0  0  0  0  0  0  0
   -0.9098    1.9026   -0.3816 C   0  0  1  0  0  3  0  0  0  0  0  0
   -1.3163    1.1716   -1.5352 C   0  0  0  0  0  3  0  0  0  0  0  0
   -2.3007    1.3887   -1.9762 H   0  0  0  0  0  0  0  0  0  0  0  0
   -0.4708    0.1658   -2.0574 C   0  0  0  0  0  3  0  0  0  0  0  0
   -0.7969   -0.4177   -2.9302 H   0  0  0  0  0  0  0  0  0  0  0  0
    2.4752    0.1475    0.4701 C   0  0  0  0  0  0  0  0  0  0  0  0
    3.6267    0.8238   -0.3170 C   0  0  0  0  0  0  0  0  0  0  0  0
    3.6702    0.4367   -1.3513 H   0  0  0  0  0  0  0  0  0  0  0  0
    4.5937    0.6170    0.1855 H   0  0  0  0  0  0  0  0  0  0  0  0
    3.4897    1.9243   -0.3537 H   0  0  0  0  0  0  0  0  0  0  0  0
    2.5031    0.6598    1.9211 C   0  0  0  0  0  0  0  0  0  0  0  0
    2.4977    1.7679    1.9802 H   0  0  0  0  0  0  0  0  0  0  0  0
    3.4386    0.3199    2.4079 H   0  0  0  0  0  0  0  0  0  0  0  0
    1.6573    0.2692    2.5218 H   0  0  0  0  0  0  0  0  0  0  0  0
    2.6856   -1.3813    0.4871 C   0  0  0  0  0  0  0  0  0  0  0  0
    1.9388   -1.8731    1.1413 H   0  0  0  0  0  0  0  0  0  0  0  0
    3.6937   -1.6155    0.8852 H   0  0  0  0  0  0  0  0  0  0  0  0
    2.6061   -1.8055   -0.5306 H   0  0  0  0  0  0  0  0  0  0  0  0
    1.7757   -0.5884   -2.3378 O   0  0  0  0  0  0  0  0  0  0  0  0
   -1.6977    2.9148    0.0539 O   0  0  0  0  0  0  0  0  0  0  0  0
   -1.3649    3.2309    0.9151 H   0  0  0  0  0  0  0  0  0  0  0  0
  1  2  1  0  0  0  0
  2  3  1  0  0  0  0
  2 10  1  6  0  0  0
  3  4  1  0  0  0  0
  5 24  1  1  0  0  0
  5  3  1  0  0  0  0
  6  5  1  0  0  0  0
  7  6  1  0  0  0  0
  8  1  1  0  0  0  0
  8  6  1  0  0  0  0
  9  8  1  0  0  0  0
 10 19  1  0  0  0  0
 10 15  1  0  0  0  0
 11 13  1  0  0  0  0
 11 10  1  0  0  0  0
 12 11  1  0  0  0  0
 14 11  1  0  0  0  0
 15 16  1  0  0  0  0
 15 17  1  0  0  0  0
 15 18  1  0  0  0  0
 19 21  1  0  0  0  0
 19 20  1  0  0  0  0
 22 19  1  0  0  0  0
 23  1  2  0  0  0  0
 24 25  1  0  0  0  0
M  END
