2,8
q = -1.0

 16 16  0  0  1  0  0  0  0  0999 V2000
    1.3938    0.7835    0.8590 C   0  0  1  0  0  3  0  0  0  0  0  0
    1.1344    1.2132   -0.4868 C   0  0  1  0  0  3  0  0  0  0  0  0
   -0.1919    1.5922   -0.8311 C   0  0  0  0  0  3  0  0  0  0  0  0
   -0.3999    1.8876   -1.8705 H   0  0  0  0  0  0  0  0  0  0  0  0
   -1.2445    1.8877    0.1736 C   0  0  0  0  0  0  0  0  0  0  0  0
   -1.0120    1.0640    1.3854 C   0  0  0  0  0  3  0  0  0  0  0  0
   -1.8445    0.9388    2.0925 H   0  0  0  0  0  0  0  0  0  0  0  0
    0.2951    0.6681    1.7636 C   0  0  0  0  0  3  0  0  0  0  0  0
    0.4740    0.2310    2.7610 H   0  0  0  0  0  0  0  0  0  0  0  0
    2.2645    1.2751   -1.4770 C   0  0  0  0  0  0  0  0  0  0  0  0
    2.8021    2.2390   -1.3576 H   0  0  0  0  0  0  0  0  0  0  0  0
    1.8843    1.2205   -2.5139 H   0  0  0  0  0  0  0  0  0  0  0  0
    2.9982    0.4648   -1.3131 H   0  0  0  0  0  0  0  0  0  0  0  0
    2.6764    0.4971    1.1979 O   0  0  0  0  0  0  0  0  0  0  0  0
    2.6900    0.0867    2.0830 H   0  0  0  0  0  0  0  0  0  0  0  0
   -2.2509    2.5571   -0.0413 O   0  0  0  0  0  0  0  0  0  0  0  0
  1 14  1  6  0  0  0
  1  8  1  0  0  0  0
  2 10  1  1  0  0  0
  2  1  1  0  0  0  0
  3  2  1  0  0  0  0
  3  5  1  0  0  0  0
  4  3  1  0  0  0  0
  5  6  1  0  0  0  0
  6  8  1  0  0  0  0
  6  7  1  0  0  0  0
  8  9  1  0  0  0  0
 10 11  1  0  0  0  0
 10 13  1  0  0  0  0
 12 10  1  0  0  0  0
 14 15  1  0  0  0  0
 16  5  2  0  0  0  0
M  END
