13,17
q = -2.0, confidence = 0.74

 29 29  0  0  1  0  0  0  0  0999 V2000
   -3.7255    1.2274    1.3665 C   0  0  0  0  0  0  0  0  0  0  0  0
   -3.4618    2.3104    1.3729 H   0  0  0  0  0  0  0  0  0  0  0  0
   -4.3278    1.0493    2.2834 H   0  0  0  0  0  0  0  0  0  0  0  0
   -1.5636   -3.0873    0.1619 C   0  0  0  0  0  0  0  0  0  0  0  0
   -2.2479   -3.8371   -0.2961 H   0  0  0  0  0  0  0  0  0  0  0  0
   -2.0411   -2.7477    1.1027 H   0  0  0  0  0  0  0  0  0  0  0  0
   -0.6212   -3.5991    0.4267 H   0  0  0  0  0  0  0  0  0  0  0  0
   -0.2055   -1.7959   -1.5757 C   0  0  0  0  0  3  0  0  0  0  0  0
   -4.5604    0.9266    0.1147 C   0  0  0  0  0  0  0  0  0  0  0  0
   -5.4625    1.5738    0.0822 H   0  0  0  0  0  0  0  0  0  0  0  0
   -4.9422   -0.1169    0.1752 H   0  0  0  0  0  0  0  0  0  0  0  0
   -1.3766   -1.9541   -0.8149 C   0  0  1  0  0  3  0  0  0  0  0  0
    1.0932   -2.1657   -1.0683 C   0  0  0  0  0  3  0  0  0  0  0  0
   -3.7412    1.1055   -1.1727 C   0  0  0  0  0  0  0  0  0  0  0  0
   -4.3476    0.8246   -2.0618 H   0  0  0  0  0  0  0  0  0  0  0  0
   -3.4929    2.1836   -1.2937 H   0  0  0  0  0  0  0  0  0  0  0  0
   -1.5948    0.6174    0.1267 C   0  0  0  0  0  3  0  0  0  0  0  0
   -2.6335   -1.2156   -1.2306 C   0  0  0  0  0  0  0  0  0  0  0  0
   -3.4621   -1.5236   -0.5626 H   0  0  0  0  0  0  0  0  0  0  0  0
   -2.9433   -1.5113   -2.2578 H   0  0  0  0  0  0  0  0  0  0  0  0
   -2.4257    0.4031    1.4011 C   0  0  0  0  0  0  0  0  0  0  0  0
   -2.6727   -0.6720    1.5378 H   0  0  0  0  0  0  0  0  0  0  0  0
   -1.8257    0.6809    2.2927 H   0  0  0  0  0  0  0  0  0  0  0  0
   -2.4204    0.3069   -1.1424 C   0  0  1  0  0  0  0  0  0  0  0  0
    1.1865   -3.0502   -0.4173 H   0  0  0  0  0  0  0  0  0  0  0  0
   -0.2648   -1.2001   -2.5060 H   0  0  0  0  0  0  0  0  0  0  0  0
    1.9399   -2.0507   -1.7611 H   0  0  0  0  0  0  0  0  0  0  0  0
   -1.3944    1.7095    0.0980 H   0  0  0  0  0  0  0  0  0  0  0  0
   -1.8177    0.6115   -2.0284 H   0  0  0  0  0  0  0  0  0  0  0  0
  1  2  1  0  0  0  0
  1 21  1  0  0  0  0
  1  3  1  0  0  0  0
  4  7  1  0  0  0  0
  4  6  1  0  0  0  0
  5  4  1  0  0  0  0
  8 13  1  0  0  0  0
  9 11  1  0  0  0  0
  9  1  1  0  0  0  0
 10  9  1  0  0  0  0
 12  8  1  6  0  0  0
 12  4  1  0  0  0  0
 13 25  1  0  0  0  0
 14 24  1  0  0  0  0
 14  9  1  0  0  0  0
 15 14  1  0  0  0  0
 16 14  1  0  0  0  0
 17 21  1  0  0  0  0
 18 24  1  0  0  0  0
 18 12  1  0  0  0  0
 18 19  1  0  0  0  0
 20 18  1  0  0  0  0
 21 22  1  0  0  0  0
 21 23  1  0  0  0  0
 24 29  1  6  0  0  0
 24 17  1  0  0  0  0
 26  8  1  0  0  0  0
 27 13  1  0  0  0  0
 28 17  1  0  0  0  0
M  END
