6,12
q = -1.0, confidence = 0.0

 27 28  0  0  1  0  0  0  0  0999 V2000
   -7.5874    1.8071   -0.8535 O   0  0  0  0  0  0  0  0  0  0  0  0
   -8.3588    0.3564    0.5917 O   0  0  0  0  0  0  0  0  0  0  0  0
   -1.2751   -1.0864   -0.3641 N   0  0  0  0  0  0  0  0  0  0  0  0
   -2.3385   -1.5137    0.3177 N   0  0  0  0  0  0  0  0  0  0  0  0
   -2.2483   -2.3143    0.9616 H   0  0  0  0  0  0  0  0  0  0  0  0
    2.3317   -1.9293   -0.9120 C   0  0  0  0  0  3  0  0  0  0  0  0
    2.5667   -2.8541   -0.3704 H   0  0  0  0  0  0  0  0  0  0  0  0
    3.2254   -1.2115   -1.7725 C   0  0  0  0  0  0  0  0  0  0  0  0
    4.2577   -1.4910   -2.0103 H   0  0  0  0  0  0  0  0  0  0  0  0
    2.5079   -0.0718   -2.2878 C   0  0  0  0  0  0  0  0  0  0  0  0
    2.9087    0.6801   -2.9780 H   0  0  0  0  0  0  0  0  0  0  0  0
    1.1841   -0.0924   -1.7543 C   0  0  0  0  0  3  0  0  0  0  0  0
    0.3800    0.6218   -1.9623 H   0  0  0  0  0  0  0  0  0  0  0  0
    1.0500   -1.2653   -0.9117 C   0  0  1  0  0  3  0  0  0  0  0  0
   -0.1431   -1.7018   -0.2054 C   0  0  0  0  0  0  0  0  0  0  0  0
   -0.0411   -2.5772    0.4753 H   0  0  0  0  0  0  0  0  0  0  0  0
   -3.5841   -0.9169    0.2022 C   0  0  0  0  0  0  0  0  0  0  0  0
   -4.6631   -1.4344    0.9618 C   0  0  0  0  0  0  0  0  0  0  0  0
   -4.4999   -2.2949    1.6295 H   0  0  0  0  0  0  0  0  0  0  0  0
   -5.9280   -0.8581    0.8670 C   0  0  0  0  0  0  0  0  0  0  0  0
   -6.7833   -1.2362    1.4423 H   0  0  0  0  0  0  0  0  0  0  0  0
   -6.1195    0.2385    0.0119 C   0  0  0  0  0  0  0  0  0  0  0  0
   -5.0609    0.7646   -0.7466 C   0  0  0  0  0  0  0  0  0  0  0  0
   -5.2591    1.6244   -1.4003 H   0  0  0  0  0  0  0  0  0  0  0  0
   -3.7943    0.1914   -0.6552 C   0  0  0  0  0  0  0  0  0  0  0  0
   -2.9477    0.5806   -1.2345 H   0  0  0  0  0  0  0  0  0  0  0  0
   -7.4552    0.8465   -0.0910 N   0  0  0  0  0  0  0  0  0  0  0  0
  1 27  2  0  0  0  0
  3 15  2  0  0  0  0
  3  4  1  0  0  0  0
  4  5  1  0  0  0  0
  6 14  1  0  0  0  0
  6  7  1  0  0  0  0
  8  6  1  0  0  0  0
  9  8  1  0  0  0  0
 10  8  2  0  0  0  0
 10 12  1  0  0  0  0
 11 10  1  0  0  0  0
 12 14  1  0  0  0  0
 13 12  1  0  0  0  0
 14 15  1  6  0  0  0
 15 16  1  0  0  0  0
 17  4  1  0  0  0  0
 17 18  1  0  0  0  0
 18 19  1  0  0  0  0
 20 18  2  0  0  0  0
 20 21  1  0  0  0  0
 22 20  1  0  0  0  0
 23 25  1  0  0  0  0
 23 22  2  0  0  0  0
 24 23  1  0  0  0  0
 25 17  2  0  0  0  0
 26 25  1  0  0  0  0
 27 22  1  0  0  0  0
 27  2  2  0  0  0  0
M  END
