19,29
q = 0.0, confidence = 0.686

 29 31  0  0  0  0  0  0  0  0999 V2000
    2.1646    0.0348    0.3236 N   0  0  0  0  0  0  0  0  0  0  0  0
    3.1177   -0.7357    0.8789 C   0  0  0  0  0  0  0  0  0  0  0  0
    2.7846   -1.6950    1.2958 H   0  0  0  0  0  0  0  0  0  0  0  0
    4.4579   -0.3499    0.9554 C   0  0  0  0  0  0  0  0  0  0  0  0
    5.1940   -1.0227    1.4166 H   0  0  0  0  0  0  0  0  0  0  0  0
    4.8223    0.9045    0.4376 C   0  0  0  0  0  0  0  0  0  0  0  0
    5.8696    1.2409    0.4650 H   0  0  0  0  0  0  0  0  0  0  0  0
    3.8286    1.7343   -0.0801 C   0  0  0  0  0  0  0  0  0  0  0  0
    4.0710    2.7421   -0.4431 H   0  0  0  0  0  0  0  0  0  0  0  0
    2.4846    1.2995   -0.1046 C   0  0  0  0  0  0  0  0  0  0  0  0
    1.3445    2.1379   -0.4646 C   0  0  0  0  0  0  0  0  0  0  0  0
    1.4101    3.4874   -0.8886 C   0  0  0  0  0  0  0  0  0  0  0  0
    2.3803    3.9743   -1.0707 H   0  0  0  0  0  0  0  0  0  0  0  0
    0.2268    4.2154   -1.0620 C   0  0  0  0  0  0  0  0  0  0  0  0
    0.2773    5.2632   -1.3936 H   0  0  0  0  0  0  0  0  0  0  0  0
   -1.0267    3.6303   -0.7945 C   0  0  0  0  0  0  0  0  0  0  0  0
   -1.9404    4.2345   -0.9067 H   0  0  0  0  0  0  0  0  0  0  0  0
   -1.1096    2.2887   -0.3767 C   0  0  0  0  0  0  0  0  0  0  0  0
    0.0832    1.5398   -0.2449 C   0  0  0  0  0  3  0  0  0  0  0  0
   -2.3003    1.5252    0.0114 C   0  0  0  0  0  0  0  0  0  0  0  0
   -3.6012    2.0616    0.0936 C   0  0  0  0  0  0  0  0  0  0  0  0
   -3.7745    3.1103   -0.1944 H   0  0  0  0  0  0  0  0  0  0  0  0
   -4.6657    1.2817    0.5599 C   0  0  0  0  0  0  0  0  0  0  0  0
   -5.6786    1.7069    0.6248 H   0  0  0  0  0  0  0  0  0  0  0  0
   -4.4221   -0.0403    0.9624 C   0  0  0  0  0  0  0  0  0  0  0  0
   -5.2441   -0.6591    1.3552 H   0  0  0  0  0  0  0  0  0  0  0  0
   -3.1292   -0.5877    0.8729 C   0  0  0  0  0  0  0  0  0  0  0  0
   -2.9846   -1.6222    1.2100 H   0  0  0  0  0  0  0  0  0  0  0  0
   -2.0523    0.1642    0.3791 C   0  0  0  0  0  3  0  0  0  0  0  0
  1  2  1  0  0  0  0
  2  4  2  0  0  0  0
  2  3  1  0  0  0  0
  4  5  1  0  0  0  0
  6  7  1  0  0  0  0
  6  4  1  0  0  0  0
  8  6  2  0  0  0  0
  9  8  1  0  0  0  0
 10  8  1  0  0  0  0
 10  1  2  0  0  0  0
 11 19  1  0  0  0  0
 11 10  1  0  0  0  0
 12 11  2  0  0  0  0
 13 12  1  0  0  0  0
 14 12  1  0  0  0  0
 14 16  2  0  0  0  0
 15 14  1  0  0  0  0
 16 18  1  0  0  0  0
 17 16  1  0  0  0  0
 18 19  2  0  0  0  0
 18 20  1  0  0  0  0
 20 21  2  0  0  0  0
 20 29  1  0  0  0  0
 21 23  1  0  0  0  0
 22 21  1  0  0  0  0
 23 24  1  0  0  0  0
 23 25  2  0  0  0  0
 25 26  1  0  0  0  0
 27 25  1  0  0  0  0
 27 28  1  0  0  0  0
 29 27  2  0  0  0  0
M  END
