3,31
q = -2.0, confidence = 0.686

 56 57  0  0  1  0  0  0  0  0999 V2000
    4.0318    0.9213    1.1443 O   0  0  0  0  0  0  0  0  0  0  0  0
   -0.0620    3.5354   -0.8822 O   0  0  0  0  0  0  0  0  0  0  0  0
    0.6975    1.2776   -0.4962 C   0  0  2  0  0  3  0  0  0  0  0  0
    0.2977    2.8446    1.2456 O   0  0  0  0  0  0  0  0  0  0  0  0
    1.6268    1.0671   -1.6588 C   0  0  0  0  0  0  0  0  0  0  0  0
    0.3063    2.6588   -0.1031 C   0  0  0  0  0  0  0  0  0  0  0  0
    3.1139    2.8497    0.4054 O   0  0  0  0  0  0  0  0  0  0  0  0
    3.1015    1.6267    0.4426 C   0  0  0  0  0  0  0  0  0  0  0  0
    2.1056    0.7228   -0.2091 C   0  0  1  0  0  0  0  0  0  0  0  0
    1.3624   -0.0679   -2.6344 C   0  0  0  0  0  0  0  0  0  0  0  0
    2.2537    2.2600   -2.3676 C   0  0  0  0  0  0  0  0  0  0  0  0
    5.0027    1.7137    1.8268 C   0  0  0  0  0  0  0  0  0  0  0  0
   -0.1034    4.1439    1.7135 C   0  0  0  0  0  0  0  0  0  0  0  0
   -1.6175    4.2571    1.8164 C   0  0  0  0  0  0  0  0  0  0  0  0
    2.4650    3.1051   -1.6934 H   0  0  0  0  0  0  0  0  0  0  0  0
    0.6238    0.2798   -3.3878 H   0  0  0  0  0  0  0  0  0  0  0  0
    0.3811    4.2476    2.7043 H   0  0  0  0  0  0  0  0  0  0  0  0
    2.2909   -0.3392   -3.1770 H   0  0  0  0  0  0  0  0  0  0  0  0
    5.6799    1.0016    2.3322 H   0  0  0  0  0  0  0  0  0  0  0  0
    4.5195    2.3805    2.5706 H   0  0  0  0  0  0  0  0  0  0  0  0
   -2.0778    4.1780    0.8123 H   0  0  0  0  0  0  0  0  0  0  0  0
    3.2039    1.9425   -2.8460 H   0  0  0  0  0  0  0  0  0  0  0  0
    0.3065    4.9127    1.0280 H   0  0  0  0  0  0  0  0  0  0  0  0
    0.9523   -0.9736   -2.1577 H   0  0  0  0  0  0  0  0  0  0  0  0
    1.5702    2.6152   -3.1650 H   0  0  0  0  0  0  0  0  0  0  0  0
    5.5695    2.3495    1.1165 H   0  0  0  0  0  0  0  0  0  0  0  0
   -1.9014    5.2371    2.2513 H   0  0  0  0  0  0  0  0  0  0  0  0
   -2.0318    3.4568    2.4621 H   0  0  0  0  0  0  0  0  0  0  0  0
    4.0318   -0.9214   -1.1444 O   0  0  0  0  0  0  0  0  0  0  0  0
   -0.0621   -3.5354    0.8823 O   0  0  0  0  0  0  0  0  0  0  0  0
    0.6974   -1.2777    0.4962 C   0  0  2  0  0  3  0  0  0  0  0  0
    0.2975   -2.8446   -1.2456 O   0  0  0  0  0  0  0  0  0  0  0  0
    1.6269   -1.0671    1.6588 C   0  0  0  0  0  0  0  0  0  0  0  0
    0.3062   -2.6588    0.1032 C   0  0  0  0  0  0  0  0  0  0  0  0
    3.1138   -2.8498   -0.4055 O   0  0  0  0  0  0  0  0  0  0  0  0
    3.1014   -1.6268   -0.4426 C   0  0  0  0  0  0  0  0  0  0  0  0
    2.1056   -0.7229    0.2090 C   0  0  2  0  0  0  0  0  0  0  0  0
    1.3625    0.0679    2.6343 C   0  0  0  0  0  0  0  0  0  0  0  0
    2.2537   -2.2600    2.3676 C   0  0  0  0  0  0  0  0  0  0  0  0
    5.0026   -1.7139   -1.8270 C   0  0  0  0  0  0  0  0  0  0  0  0
   -0.1037   -4.1439   -1.7134 C   0  0  0  0  0  0  0  0  0  0  0  0
   -1.6177   -4.2572   -1.8161 C   0  0  0  0  0  0  0  0  0  0  0  0
    2.4650   -3.1052    1.6934 H   0  0  0  0  0  0  0  0  0  0  0  0
    0.6239   -0.2797    3.3878 H   0  0  0  0  0  0  0  0  0  0  0  0
    0.3808   -4.2476   -2.7042 H   0  0  0  0  0  0  0  0  0  0  0  0
    2.2910    0.3392    3.1769 H   0  0  0  0  0  0  0  0  0  0  0  0
    5.6797   -1.0018   -2.3324 H   0  0  0  0  0  0  0  0  0  0  0  0
    4.5193   -2.3807   -2.5707 H   0  0  0  0  0  0  0  0  0  0  0  0
   -2.0780   -4.1780   -0.8120 H   0  0  0  0  0  0  0  0  0  0  0  0
    3.2039   -1.9425    2.8460 H   0  0  0  0  0  0  0  0  0  0  0  0
    0.3064   -4.9127   -1.0279 H   0  0  0  0  0  0  0  0  0  0  0  0
    0.9524    0.9736    2.1576 H   0  0  0  0  0  0  0  0  0  0  0  0
    1.5702   -2.6152    3.1650 H   0  0  0  0  0  0  0  0  0  0  0  0
    5.5694   -2.3497   -1.1166 H   0  0  0  0  0  0  0  0  0  0  0  0
   -1.9016   -5.2372   -2.2510 H   0  0  0  0  0  0  0  0  0  0  0  0
   -2.0321   -3.4568   -2.4619 H   0  0  0  0  0  0  0  0  0  0  0  0
  1 12  1  0  0  0  0
  2  6  2  0  0  0  0
  3  9  1  0  0  0  0
  3  6  1  1  0  0  0
  4 13  1  0  0  0  0
  5  3  1  0  0  0  0
  5  9  1  0  0  0  0
  6  4  1  0  0  0  0
  7  8  2  0  0  0  0
  8  1  1  0  0  0  0
  9 37  1  0  0  0  0
  9  8  1  1  0  0  0
 10 24  1  0  0  0  0
 10  5  1  0  0  0  0
 11 15  1  0  0  0  0
 11  5  1  0  0  0  0
 12 19  1  0  0  0  0
 12 20  1  0  0  0  0
 13 14  1  0  0  0  0
 13 17  1  0  0  0  0
 14 27  1  0  0  0  0
 14 28  1  0  0  0  0
 16 10  1  0  0  0  0
 18 10  1  0  0  0  0
 21 14  1  0  0  0  0
 22 11  1  0  0  0  0
 23 13  1  0  0  0  0
 25 11  1  0  0  0  0
 26 12  1  0  0  0  0
 29 36  1  0  0  0  0
 31 34  1  6  0  0  0
 31 33  1  0  0  0  0
 32 34  1  0  0  0  0
 33 39  1  0  0  0  0
 33 38  1  0  0  0  0
 34 30  2  0  0  0  0
 36 35  2  0  0  0  0
 37 36  1  6  0  0  0
 37 31  1  0  0  0  0
 37 33  1  0  0  0  0
 38 46  1  0  0  0  0
 38 44  1  0  0  0  0
 39 50  1  0  0  0  0
 39 53  1  0  0  0  0
 40 29  1  0  0  0  0
 40 54  1  0  0  0  0
 41 32  1  0  0  0  0
 41 51  1  0  0  0  0
 42 41  1  0  0  0  0
 42 49  1  0  0  0  0
 43 39  1  0  0  0  0
 45 41  1  0  0  0  0
 47 40  1  0  0  0  0
 48 40  1  0  0  0  0
 52 38  1  0  0  0  0
 55 42  1  0  0  0  0
 56 42  1  0  0  0  0
M  END
