2,5
q = 0.0, confidence = 0.916

 20 20  0  0  0  0  0  0  0  0999 V2000
   -1.6808   -0.0836    1.4129 N   0  0  0  0  0  1  0  0  0  0  0  0
   -2.5877   -0.0909    0.5797 C   0  0  0  0  0  2  0  0  0  0  0  0
   -2.2789    0.7155   -1.9269 C   0  0  0  0  0  3  0  0  0  0  0  0
   -2.6096    1.7599   -1.7588 H   0  0  0  0  0  0  0  0  0  0  0  0
   -0.9553    0.5149   -2.4038 C   0  0  0  0  0  3  0  0  0  0  0  0
   -0.7122   -0.4039   -2.9705 H   0  0  0  0  0  0  0  0  0  0  0  0
   -0.3416    1.3889   -2.6841 H   0  0  0  0  0  0  0  0  0  0  0  0
   -4.0028   -0.2457    0.3040 C   0  0  0  0  0  0  0  0  0  0  0  0
   -4.9342   -0.3450    1.3620 C   0  0  0  0  0  0  0  0  0  0  0  0
   -4.5654   -0.2904    2.3969 H   0  0  0  0  0  0  0  0  0  0  0  0
   -6.2966   -0.5037    1.0877 C   0  0  0  0  0  0  0  0  0  0  0  0
   -7.0213   -0.5738    1.9130 H   0  0  0  0  0  0  0  0  0  0  0  0
   -6.7331   -0.5677   -0.2468 C   0  0  0  0  0  0  0  0  0  0  0  0
   -7.8043   -0.6872   -0.4706 H   0  0  0  0  0  0  0  0  0  0  0  0
   -5.8083   -0.4738   -1.2980 C   0  0  0  0  0  0  0  0  0  0  0  0
   -6.1589   -0.5224   -2.3413 H   0  0  0  0  0  0  0  0  0  0  0  0
   -4.4341   -0.3143   -1.0476 C   0  0  0  0  0  0  0  0  0  0  0  0
   -3.4214   -0.2466   -2.1743 C   0  0  0  0  0  0  0  0  0  0  0  0
   -3.0081   -1.2662   -2.3488 H   0  0  0  0  0  0  0  0  0  0  0  0
   -3.9606    0.0241   -3.1101 H   0  0  0  0  0  0  0  0  0  0  0  0
  2  1  1  0  0  0  0
  3  4  1  0  0  0  0
  5  3  1  0  0  0  0
  6  5  1  0  0  0  0
  7  5  1  0  0  0  0
  8  2  1  0  0  0  0
  8  9  1  0  0  0  0
  9 10  1  0  0  0  0
 11  9  2  0  0  0  0
 11 12  1  0  0  0  0
 13 11  1  0  0  0  0
 14 13  1  0  0  0  0
 15 17  1  0  0  0  0
 15 13  2  0  0  0  0
 16 15  1  0  0  0  0
 17  8  2  0  0  0  0
 18  3  1  0  0  0  0
 18 17  1  0  0  0  0
 19 18  1  0  0  0  0
 20 18  1  0  0  0  0
M  END
