1,8
q = -2.0, confidence = 0.594

 13 12  0  0  0  0  0  0  0  0999 V2000
   -1.0039    2.8909   -0.1471 C   0  0  0  0  0  3  0  0  0  0  0  0
   -1.6988    2.9559   -1.0207 H   0  0  0  0  0  0  0  0  0  0  0  0
   -1.7336    3.2630    1.1354 C   0  0  0  0  0  0  0  0  0  0  0  0
   -1.0849    3.1329    2.0255 H   0  0  0  0  0  0  0  0  0  0  0  0
   -2.6387    2.6341    1.2722 H   0  0  0  0  0  0  0  0  0  0  0  0
   -2.0552    4.3292    1.1090 H   0  0  0  0  0  0  0  0  0  0  0  0
    0.1201    3.7666   -0.3746 O   0  0  0  0  0  0  0  0  0  0  0  0
    1.1806    2.7912   -0.4039 C   0  0  0  0  0  3  0  0  0  0  0  0
    1.6422    2.7703   -1.4228 H   0  0  0  0  0  0  0  0  0  0  0  0
    2.2354    3.1099    0.6447 C   0  0  0  0  0  0  0  0  0  0  0  0
    3.0838    2.3951    0.5896 H   0  0  0  0  0  0  0  0  0  0  0  0
    1.8133    3.0735    1.6697 H   0  0  0  0  0  0  0  0  0  0  0  0
    2.6404    4.1361    0.4907 H   0  0  0  0  0  0  0  0  0  0  0  0
  1  3  1  0  0  0  0
  2  1  1  0  0  0  0
  3  5  1  0  0  0  0
  3  4  1  0  0  0  0
  6  3  1  0  0  0  0
  7  1  1  0  0  0  0
  8  7  1  0  0  0  0
  8 10  1  0  0  0  0
  9  8  1  0  0  0  0
 10 12  1  0  0  0  0
 11 10  1  0  0  0  0
 13 10  1  0  0  0  0
M  END
