10,17
q = -2.0, confidence = 0.96

 58 60  0  0  1  0  0  0  0  0999 V2000
   -3.3841   -1.7118    0.3404 Si  0  0  0  0  0  0  0  0  0  0  0  0
    3.3165   -1.8737    0.2652 Si  0  0  0  0  0  0  0  0  0  0  0  0
   -2.6074   -3.2941   -0.3242 C   0  0  0  0  0  0  0  0  0  0  0  0
   -3.5761   -1.8107    2.2183 C   0  0  0  0  0  0  0  0  0  0  0  0
   -5.0796   -1.4618   -0.4748 C   0  0  0  0  0  0  0  0  0  0  0  0
   -2.4026   -0.1256   -0.0397 C   0  0  0  0  0  0  0  0  0  0  0  0
   -2.2086    0.4816   -1.3344 C   0  0  0  0  0  3  0  0  0  0  0  0
   -1.5042    1.6907   -1.1168 C   0  0  2  0  0  3  0  0  0  0  0  0
   -1.8461    0.7565    0.9692 C   0  0  0  0  0  0  0  0  0  0  0  0
   -1.2854    1.8504    0.2777 C   0  0  2  0  0  3  0  0  0  0  0  0
   -0.6540    3.2452    0.1118 C   0  0  2  0  0  0  0  0  0  0  0  0
   -1.4026    4.3770    0.8127 C   0  0  0  0  0  0  0  0  0  0  0  0
   -1.0470    3.1058   -1.4333 C   0  0  0  0  0  0  0  0  0  0  0  0
    0.8812    3.1793    0.4096 C   0  0  0  0  0  0  0  0  0  0  0  0
    1.1110    3.2454    1.9305 C   0  0  0  0  0  0  0  0  0  0  0  0
    1.6471    4.3353   -0.2637 C   0  0  0  0  0  0  0  0  0  0  0  0
    1.4718    1.4157   -1.4926 C   0  0  0  0  0  3  0  0  0  0  0  0
    1.4064    1.8442   -0.1193 C   0  0  0  0  0  0  0  0  0  0  0  0
    2.1007    0.1434   -1.5347 C   0  0  0  0  0  0  0  0  0  0  0  0
    1.9502    0.7766    0.6517 C   0  0  0  0  0  0  0  0  0  0  0  0
    2.3891   -0.2872   -0.2106 C   0  0  0  0  0  0  0  0  0  0  0  0
    5.0080   -1.7346   -0.5865 C   0  0  0  0  0  0  0  0  0  0  0  0
    2.4369   -3.4167   -0.3668 C   0  0  0  0  0  0  0  0  0  0  0  0
    3.5566   -1.9043    2.1383 C   0  0  0  0  0  0  0  0  0  0  0  0
   -1.6095   -3.4497    0.1296 H   0  0  0  0  0  0  0  0  0  0  0  0
   -4.1951   -2.6877    2.4988 H   0  0  0  0  0  0  0  0  0  0  0  0
   -2.4748   -3.2519   -1.4224 H   0  0  0  0  0  0  0  0  0  0  0  0
   -3.2581   -4.1582   -0.0745 H   0  0  0  0  0  0  0  0  0  0  0  0
   -4.0650   -0.9041    2.6302 H   0  0  0  0  0  0  0  0  0  0  0  0
   -2.5813   -1.9235    2.6945 H   0  0  0  0  0  0  0  0  0  0  0  0
   -5.7452   -2.3254   -0.2675 H   0  0  0  0  0  0  0  0  0  0  0  0
   -4.9819   -1.3705   -1.5765 H   0  0  0  0  0  0  0  0  0  0  0  0
   -5.5782   -0.5449   -0.0998 H   0  0  0  0  0  0  0  0  0  0  0  0
   -2.5153    0.0347   -2.2868 H   0  0  0  0  0  0  0  0  0  0  0  0
   -1.8448    0.5496    2.0447 H   0  0  0  0  0  0  0  0  0  0  0  0
   -1.3486    4.2868    1.9144 H   0  0  0  0  0  0  0  0  0  0  0  0
   -2.4746    4.3572    0.5325 H   0  0  0  0  0  0  0  0  0  0  0  0
   -0.9957    5.3681    0.5251 H   0  0  0  0  0  0  0  0  0  0  0  0
   -0.2607    3.2740   -2.1922 H   0  0  0  0  0  0  0  0  0  0  0  0
   -1.9041    3.7635   -1.6833 H   0  0  0  0  0  0  0  0  0  0  0  0
    0.8360    4.2390    2.3317 H   0  0  0  0  0  0  0  0  0  0  0  0
    2.1791    3.0762    2.1691 H   0  0  0  0  0  0  0  0  0  0  0  0
    0.5153    2.4793    2.4672 H   0  0  0  0  0  0  0  0  0  0  0  0
    1.5340    4.3240   -1.3650 H   0  0  0  0  0  0  0  0  0  0  0  0
    2.7298    4.2627   -0.0384 H   0  0  0  0  0  0  0  0  0  0  0  0
    1.2902    5.3170    0.1081 H   0  0  0  0  0  0  0  0  0  0  0  0
    1.1495    1.9774   -2.3744 H   0  0  0  0  0  0  0  0  0  0  0  0
    2.2782   -0.4359   -2.4472 H   0  0  0  0  0  0  0  0  0  0  0  0
    2.0075    0.7476    1.7447 H   0  0  0  0  0  0  0  0  0  0  0  0
    5.6378   -2.6185   -0.3539 H   0  0  0  0  0  0  0  0  0  0  0  0
    5.5538   -0.8277   -0.2552 H   0  0  0  0  0  0  0  0  0  0  0  0
    4.8969   -1.6809   -1.6892 H   0  0  0  0  0  0  0  0  0  0  0  0
    1.4779   -3.5570    0.1679 H   0  0  0  0  0  0  0  0  0  0  0  0
    3.0734   -4.3126   -0.2136 H   0  0  0  0  0  0  0  0  0  0  0  0
    2.2055   -3.3272   -1.4468 H   0  0  0  0  0  0  0  0  0  0  0  0
    2.5752   -1.9426    2.6507 H   0  0  0  0  0  0  0  0  0  0  0  0
    4.1031   -1.0041    2.4880 H   0  0  0  0  0  0  0  0  0  0  0  0
    4.1450   -2.7951    2.4404 H   0  0  0  0  0  0  0  0  0  0  0  0
  1  4  1  0  0  0  0
  2 24  1  0  0  0  0
  3 28  1  0  0  0  0
  3 25  1  0  0  0  0
  3  1  1  0  0  0  0
  4 26  1  0  0  0  0
  4 29  1  0  0  0  0
  4 30  1  0  0  0  0
  5 31  1  0  0  0  0
  5 33  1  0  0  0  0
  5  1  1  0  0  0  0
  6  1  1  0  0  0  0
  6  9  2  0  0  0  0
  7  6  1  0  0  0  0
  8  7  1  1  0  0  0
  8 10  1  0  0  0  0
  9 35  1  0  0  0  0
 10  9  1  1  0  0  0
 11 10  1  0  0  0  0
 11 14  1  1  0  0  0
 11 12  1  0  0  0  0
 12 36  1  0  0  0  0
 13  8  1  0  0  0  0
 13 11  1  0  0  0  0
 14 15  1  0  0  0  0
 15 42  1  0  0  0  0
 15 41  1  0  0  0  0
 15 43  1  0  0  0  0
 16 45  1  0  0  0  0
 16 46  1  0  0  0  0
 16 14  1  0  0  0  0
 17 18  1  0  0  0  0
 18 14  1  0  0  0  0
 18 20  2  0  0  0  0
 19 17  1  0  0  0  0
 19 21  2  0  0  0  0
 20 49  1  0  0  0  0
 21  2  1  0  0  0  0
 21 20  1  0  0  0  0
 22 50  1  0  0  0  0
 22 51  1  0  0  0  0
 22  2  1  0  0  0  0
 23 54  1  0  0  0  0
 23 53  1  0  0  0  0
 23  2  1  0  0  0  0
 24 58  1  0  0  0  0
 24 57  1  0  0  0  0
 24 56  1  0  0  0  0
 27  3  1  0  0  0  0
 32  5  1  0  0  0  0
 34  7  1  0  0  0  0
 37 12  1  0  0  0  0
 38 12  1  0  0  0  0
 39 13  1  0  0  0  0
 40 13  1  0  0  0  0
 44 16  1  0  0  0  0
 47 17  1  0  0  0  0
 48 19  1  0  0  0  0
 52 22  1  0  0  0  0
 55 23  1  0  0  0  0
M  END
