16,29
q = -1.0

 39 41  0  0  0  0  0  0  0  0999 V2000
   -5.0592   -0.7522    0.6621 N   0  0  0  0  0  0  0  0  0  0  0  0
   -1.4604   -1.3388    0.8279 N   0  0  0  0  0  0  0  0  0  0  0  0
   -6.1167   -1.0062   -0.1230 C   0  0  0  0  0  0  0  0  0  0  0  0
   -7.1109   -0.8150    0.3199 H   0  0  0  0  0  0  0  0  0  0  0  0
   -6.0096   -1.4947   -1.4350 C   0  0  0  0  0  0  0  0  0  0  0  0
   -6.9118   -1.6911   -2.0330 H   0  0  0  0  0  0  0  0  0  0  0  0
   -4.7264   -1.7230   -1.9524 C   0  0  0  0  0  0  0  0  0  0  0  0
   -4.5914   -2.0999   -2.9777 H   0  0  0  0  0  0  0  0  0  0  0  0
    0.5769   -1.8458    0.2736 N   0  0  0  0  0  0  0  0  0  0  0  0
   -3.6136   -1.4547   -1.1459 C   0  0  0  0  0  0  0  0  0  0  0  0
   -2.5909   -1.6081   -1.5187 H   0  0  0  0  0  0  0  0  0  0  0  0
   -3.8306   -0.9675    0.1576 C   0  0  0  0  0  0  0  0  0  0  0  0
   -2.6864   -0.6062    1.0825 C   0  0  0  0  0  0  0  0  0  0  0  0
   -2.4257    0.4653    0.9563 H   0  0  0  0  0  0  0  0  0  0  0  0
   -3.0215   -0.7559    2.1286 H   0  0  0  0  0  0  0  0  0  0  0  0
   -0.2973   -0.7690    0.3565 C   0  0  0  0  0  2  0  0  0  0  0  0
   -1.3337   -2.7146    0.9939 C   0  0  0  0  0  0  0  0  0  0  0  0
   -2.1639   -3.3412    1.3322 H   0  0  0  0  0  0  0  0  0  0  0  0
   -0.0536   -3.0359    0.6397 C   0  0  0  0  0  0  0  0  0  0  0  0
    0.4435   -4.0058    0.5882 H   0  0  0  0  0  0  0  0  0  0  0  0
    1.9297   -1.7104   -0.1688 C   0  0  0  0  0  0  0  0  0  0  0  0
    2.1668   -0.7528   -1.1951 C   0  0  0  0  0  0  0  0  0  0  0  0
    3.4966   -0.5970   -1.6355 C   0  0  0  0  0  0  0  0  0  0  0  0
    3.6904    0.1141   -2.4542 H   0  0  0  0  0  0  0  0  0  0  0  0
    4.5682   -1.3223   -1.0809 C   0  0  0  0  0  0  0  0  0  0  0  0
    4.2904   -2.2181   -0.0365 C   0  0  0  0  0  0  0  0  0  0  0  0
    5.1186   -2.7663    0.4404 H   0  0  0  0  0  0  0  0  0  0  0  0
    2.9810   -2.4215    0.4498 C   0  0  0  0  0  0  0  0  0  0  0  0
    1.0507    0.0639   -1.7297 C   0  0  0  0  0  3  0  0  0  0  0  0
    0.3063   -0.5900   -2.2320 H   0  0  0  0  0  0  0  0  0  0  0  0
    1.4163    0.7933   -2.4794 H   0  0  0  0  0  0  0  0  0  0  0  0
    5.9717   -1.1342   -1.6007 C   0  0  0  0  0  0  0  0  0  0  0  0
    6.2482   -0.0604   -1.6433 H   0  0  0  0  0  0  0  0  0  0  0  0
    6.0722   -1.5301   -2.6337 H   0  0  0  0  0  0  0  0  0  0  0  0
    6.7168   -1.6551   -0.9687 H   0  0  0  0  0  0  0  0  0  0  0  0
    2.7854   -3.3276    1.6427 C   0  0  0  0  0  0  0  0  0  0  0  0
    2.0023   -2.9504    2.3303 H   0  0  0  0  0  0  0  0  0  0  0  0
    3.7302   -3.4103    2.2136 H   0  0  0  0  0  0  0  0  0  0  0  0
    2.4947   -4.3612    1.3563 H   0  0  0  0  0  0  0  0  0  0  0  0
  2 17  1  0  0  0  0
  2 13  1  0  0  0  0
  3  4  1  0  0  0  0
  3  1  2  0  0  0  0
  5  3  1  0  0  0  0
  6  5  1  0  0  0  0
  7  5  2  0  0  0  0
  7 10  1  0  0  0  0
  8  7  1  0  0  0  0
  9 16  1  0  0  0  0
  9 19  1  0  0  0  0
 10 12  2  0  0  0  0
 11 10  1  0  0  0  0
 12  1  1  0  0  0  0
 12 13  1  0  0  0  0
 13 15  1  0  0  0  0
 14 13  1  0  0  0  0
 16  2  1  0  0  0  0
 17 18  1  0  0  0  0
 19 17  2  0  0  0  0
 20 19  1  0  0  0  0
 21  9  1  0  0  0  0
 21 28  1  0  0  0  0
 22 21  2  0  0  0  0
 23 22  1  0  0  0  0
 23 25  2  0  0  0  0
 24 23  1  0  0  0  0
 25 26  1  0  0  0  0
 26 27  1  0  0  0  0
 26 28  2  0  0  0  0
 28 36  1  0  0  0  0
 29 22  1  0  0  0  0
 30 29  1  0  0  0  0
 31 29  1  0  0  0  0
 32 25  1  0  0  0  0
 32 35  1  0  0  0  0
 33 32  1  0  0  0  0
 34 32  1  0  0  0  0
 36 38  1  0  0  0  0
 36 37  1  0  0  0  0
 39 36  1  0  0  0  0
M  END
