9,13
q = -2.0, confidence = 0.718

 67 67  0  0  1  0  0  0  0  0999 V2000
    1.3996   -1.6609   -1.9251 O   0  0  0  0  0  0  0  0  0  0  0  0
    3.0453   -3.0182   -1.1782 O   0  0  0  0  0  0  0  0  0  0  0  0
   -2.8943   -0.9069    0.4729 N   0  0  0  0  0  0  0  0  0  0  0  0
   -2.0342    1.6832   -0.6964 N   0  0  0  0  0  0  0  0  0  0  0  0
    3.1464    0.9971    0.1746 N   0  0  0  0  0  0  0  0  0  0  0  0
   -1.6860   -0.7500   -0.2198 C   0  0  0  0  0  0  0  0  0  0  0  0
   -1.2536    0.5214   -0.7825 C   0  0  0  0  0  0  0  0  0  0  0  0
   -0.0375    0.3150   -1.5291 C   0  0  0  0  0  0  0  0  0  0  0  0
    0.2684   -1.0776   -1.4092 C   0  0  2  0  0  3  0  0  0  0  0  0
   -0.7141   -1.7666   -0.6032 C   0  0  0  0  0  0  0  0  0  0  0  0
    2.3061   -2.0900   -0.9320 C   0  0  0  0  0  0  0  0  0  0  0  0
    2.2604   -1.3364    0.3560 C   0  0  2  0  0  3  0  0  0  0  0  0
    2.1757    0.1049    0.3320 C   0  0  0  0  0  2  0  0  0  0  0  0
   -3.0858   -0.1127    1.6922 C   0  0  0  0  0  0  0  0  0  0  0  0
   -4.4974    0.4407    1.8683 C   0  0  0  0  0  0  0  0  0  0  0  0
   -3.5790   -2.1946    0.4212 C   0  0  0  0  0  0  0  0  0  0  0  0
   -4.0669   -2.5449   -0.9837 C   0  0  0  0  0  0  0  0  0  0  0  0
   -3.3030    1.6194   -1.4273 C   0  0  0  0  0  0  0  0  0  0  0  0
   -3.1581    1.6198   -2.9540 C   0  0  0  0  0  0  0  0  0  0  0  0
   -1.3968    2.9925   -0.6002 C   0  0  0  0  0  0  0  0  0  0  0  0
   -2.0679    3.8983    0.4335 C   0  0  0  0  0  0  0  0  0  0  0  0
    4.5163    0.5990   -0.1995 C   0  0  0  0  0  0  0  0  0  0  0  0
    4.7112    0.5288   -1.7134 C   0  0  0  0  0  0  0  0  0  0  0  0
    2.8866    2.4390    0.2923 C   0  0  0  0  0  0  0  0  0  0  0  0
    3.3287    3.0168    1.6346 C   0  0  0  0  0  0  0  0  0  0  0  0
    0.6915    1.2626   -2.4310 C   0  0  0  0  0  0  0  0  0  0  0  0
   -0.6945   -3.2509   -0.3668 C   0  0  0  0  0  0  0  0  0  0  0  0
    3.0333   -2.0284    1.4686 C   0  0  0  0  0  0  0  0  0  0  0  0
   -2.3726    0.7281    1.6447 H   0  0  0  0  0  0  0  0  0  0  0  0
   -2.7955   -0.7219    2.5841 H   0  0  0  0  0  0  0  0  0  0  0  0
   -4.7637    1.1273    1.0411 H   0  0  0  0  0  0  0  0  0  0  0  0
   -5.2675   -0.3568    1.9121 H   0  0  0  0  0  0  0  0  0  0  0  0
   -4.5624    1.0067    2.8194 H   0  0  0  0  0  0  0  0  0  0  0  0
   -4.4552   -2.1175    1.0951 H   0  0  0  0  0  0  0  0  0  0  0  0
   -2.9602   -3.0222    0.8387 H   0  0  0  0  0  0  0  0  0  0  0  0
   -4.8107   -1.8026   -1.3373 H   0  0  0  0  0  0  0  0  0  0  0  0
   -3.2328   -2.5531   -1.7138 H   0  0  0  0  0  0  0  0  0  0  0  0
   -4.5388   -3.5481   -0.9986 H   0  0  0  0  0  0  0  0  0  0  0  0
   -3.9301    2.4752   -1.1002 H   0  0  0  0  0  0  0  0  0  0  0  0
   -3.8314    0.7009   -1.0980 H   0  0  0  0  0  0  0  0  0  0  0  0
   -2.6383    2.5286   -3.3220 H   0  0  0  0  0  0  0  0  0  0  0  0
   -2.5827    0.7346   -3.2946 H   0  0  0  0  0  0  0  0  0  0  0  0
   -4.1526    1.5833   -3.4438 H   0  0  0  0  0  0  0  0  0  0  0  0
   -1.3572    3.5094   -1.5907 H   0  0  0  0  0  0  0  0  0  0  0  0
   -0.3462    2.8267   -0.2954 H   0  0  0  0  0  0  0  0  0  0  0  0
   -3.1416    4.0586    0.2075 H   0  0  0  0  0  0  0  0  0  0  0  0
   -1.9862    3.4573    1.4460 H   0  0  0  0  0  0  0  0  0  0  0  0
   -1.5814    4.8951    0.4490 H   0  0  0  0  0  0  0  0  0  0  0  0
    4.7279   -0.3830    0.2632 H   0  0  0  0  0  0  0  0  0  0  0  0
    5.2171    1.3295    0.2549 H   0  0  0  0  0  0  0  0  0  0  0  0
    4.0585   -0.2463   -2.1610 H   0  0  0  0  0  0  0  0  0  0  0  0
    4.4837    1.4989   -2.2003 H   0  0  0  0  0  0  0  0  0  0  0  0
    5.7611    0.2675   -1.9528 H   0  0  0  0  0  0  0  0  0  0  0  0
    1.7994    2.5836    0.1513 H   0  0  0  0  0  0  0  0  0  0  0  0
    3.4018    2.9504   -0.5487 H   0  0  0  0  0  0  0  0  0  0  0  0
    2.7591    2.5539    2.4628 H   0  0  0  0  0  0  0  0  0  0  0  0
    4.4116    2.8608    1.8163 H   0  0  0  0  0  0  0  0  0  0  0  0
    3.1382    4.1083    1.6582 H   0  0  0  0  0  0  0  0  0  0  0  0
    0.0894    1.4691   -3.3415 H   0  0  0  0  0  0  0  0  0  0  0  0
    0.9085    2.2367   -1.9574 H   0  0  0  0  0  0  0  0  0  0  0  0
    1.6490    0.8121   -2.7548 H   0  0  0  0  0  0  0  0  0  0  0  0
   -0.8723   -3.5147    0.6916 H   0  0  0  0  0  0  0  0  0  0  0  0
   -1.4536   -3.7729   -0.9861 H   0  0  0  0  0  0  0  0  0  0  0  0
    0.2916   -3.6652   -0.6496 H   0  0  0  0  0  0  0  0  0  0  0  0
    2.5429   -2.9803    1.7558 H   0  0  0  0  0  0  0  0  0  0  0  0
    4.0662   -2.2866    1.1512 H   0  0  0  0  0  0  0  0  0  0  0  0
    3.0783   -1.3846    2.3673 H   0  0  0  0  0  0  0  0  0  0  0  0
  1 11  1  0  0  0  0
  2 11  2  0  0  0  0
  3 14  1  0  0  0  0
  4 20  1  0  0  0  0
  5 24  1  0  0  0  0
  5 13  1  0  0  0  0
  6  3  1  0  0  0  0
  7  4  1  0  0  0  0
  7  6  1  0  0  0  0
  8  9  1  0  0  0  0
  8  7  2  0  0  0  0
  9  1  1  1  0  0  0
  9 10  1  0  0  0  0
 10 27  1  0  0  0  0
 10  6  2  0  0  0  0
 11 12  1  0  0  0  0
 12 13  1  6  0  0  0
 12 28  1  0  0  0  0
 14 15  1  0  0  0  0
 14 30  1  0  0  0  0
 15 32  1  0  0  0  0
 15 33  1  0  0  0  0
 16  3  1  0  0  0  0
 16 35  1  0  0  0  0
 16 34  1  0  0  0  0
 17 16  1  0  0  0  0
 18 39  1  0  0  0  0
 18 40  1  0  0  0  0
 18  4  1  0  0  0  0
 19 18  1  0  0  0  0
 20 45  1  0  0  0  0
 20 21  1  0  0  0  0
 21 48  1  0  0  0  0
 21 47  1  0  0  0  0
 22  5  1  0  0  0  0
 22 50  1  0  0  0  0
 22 49  1  0  0  0  0
 23 22  1  0  0  0  0
 24 25  1  0  0  0  0
 25 58  1  0  0  0  0
 25 57  1  0  0  0  0
 25 56  1  0  0  0  0
 26 60  1  0  0  0  0
 26  8  1  0  0  0  0
 27 62  1  0  0  0  0
 28 65  1  0  0  0  0
 28 67  1  0  0  0  0
 29 14  1  0  0  0  0
 31 15  1  0  0  0  0
 36 17  1  0  0  0  0
 37 17  1  0  0  0  0
 38 17  1  0  0  0  0
 41 19  1  0  0  0  0
 42 19  1  0  0  0  0
 43 19  1  0  0  0  0
 44 20  1  0  0  0  0
 46 21  1  0  0  0  0
 51 23  1  0  0  0  0
 52 23  1  0  0  0  0
 53 23  1  0  0  0  0
 54 24  1  0  0  0  0
 55 24  1  0  0  0  0
 59 26  1  0  0  0  0
 61 26  1  0  0  0  0
 63 27  1  0  0  0  0
 64 27  1  0  0  0  0
 66 28  1  0  0  0  0
M  END
