3,7
q = -1.0

 20 20  0  0  1  0  0  0  0  0999 V2000
   -3.0119   -1.1631   -0.9085 C   0  0  0  0  0  0  0  0  0  0  0  0
   -1.7146   -1.8870   -1.2852 C   0  0  0  0  0  0  0  0  0  0  0  0
   -0.5865   -1.7104   -0.2963 C   0  0  0  0  0  3  0  0  0  0  0  0
   -0.8477   -1.4142    1.0758 C   0  0  0  0  0  3  0  0  0  0  0  0
   -2.2829   -1.1650    1.4948 C   0  0  0  0  0  0  0  0  0  0  0  0
   -2.9482   -0.3504    0.3744 C   0  0  1  0  0  0  0  0  0  0  0  0
   -2.0678    0.9085    0.1289 C   0  0  0  0  0  3  0  0  0  0  0  0
   -2.3010    1.9775    1.1981 C   0  0  0  0  0  0  0  0  0  0  0  0
   -4.0033   -1.2306   -1.6150 O   0  0  0  0  0  0  0  0  0  0  0  0
   -1.4192   -1.5609   -2.3047 H   0  0  0  0  0  0  0  0  0  0  0  0
   -1.9660   -2.9684   -1.3838 H   0  0  0  0  0  0  0  0  0  0  0  0
    0.3464   -2.2441   -0.5513 H   0  0  0  0  0  0  0  0  0  0  0  0
   -0.1534   -1.7796    1.8529 H   0  0  0  0  0  0  0  0  0  0  0  0
   -2.8053   -2.1317    1.6787 H   0  0  0  0  0  0  0  0  0  0  0  0
   -2.3186   -0.6005    2.4481 H   0  0  0  0  0  0  0  0  0  0  0  0
   -3.9895   -0.0567    0.6219 H   0  0  0  0  0  0  0  0  0  0  0  0
   -2.2990    1.3418   -0.8681 H   0  0  0  0  0  0  0  0  0  0  0  0
   -3.3714    2.2826    1.2097 H   0  0  0  0  0  0  0  0  0  0  0  0
   -1.6852    2.8727    0.9911 H   0  0  0  0  0  0  0  0  0  0  0  0
   -2.0467    1.6229    2.2181 H   0  0  0  0  0  0  0  0  0  0  0  0
  1  6  1  0  0  0  0
  2  1  1  0  0  0  0
  2  3  1  0  0  0  0
  3  4  1  0  0  0  0
  4  5  1  0  0  0  0
  4 13  1  0  0  0  0
  5 14  1  0  0  0  0
  5 15  1  0  0  0  0
  6 16  1  1  0  0  0
  6  5  1  0  0  0  0
  7  6  1  0  0  0  0
  7  8  1  0  0  0  0
  8 18  1  0  0  0  0
  8 20  1  0  0  0  0
  9  1  2  0  0  0  0
 10  2  1  0  0  0  0
 11  2  1  0  0  0  0
 12  3  1  0  0  0  0
 17  7  1  0  0  0  0
 19  8  1  0  0  0  0
M  END
