19,21
q = 0.0, confidence = 1.0

 43 46  0  0  0  0  0  0  0  0999 V2000
   -1.8916    2.3896   -0.1054 N   0  0  0  0  0  0  0  0  0  0  0  0
   -2.8016    1.3701    0.1399 C   0  0  0  0  0  0  0  0  0  0  0  0
   -2.1557    0.1555   -0.1153 C   0  0  0  0  0  0  0  0  0  0  0  0
   -0.8051    0.4708   -0.5294 C   0  0  0  0  0  0  0  0  0  0  0  0
   -4.2139    1.6553    0.5290 C   0  0  0  0  0  0  0  0  0  0  0  0
   -2.1282    3.7948    0.2178 C   0  0  0  0  0  0  0  0  0  0  0  0
   -1.0148    4.6970   -0.3147 C   0  0  0  0  0  0  0  0  0  0  0  0
    0.3633    4.0938   -0.0296 C   0  0  0  0  0  0  0  0  0  0  0  0
    0.4994    2.7582   -0.7693 C   0  0  0  0  0  0  0  0  0  0  0  0
   -0.6766    1.8675   -0.5083 C   0  0  0  0  0  0  0  0  0  0  0  0
   -2.7650   -1.1858   -0.0481 C   0  0  0  0  0  0  0  0  0  0  0  0
   -2.6079   -2.1043   -1.1137 C   0  0  0  0  0  0  0  0  0  0  0  0
   -3.1717   -3.3853   -1.0507 C   0  0  0  0  0  0  0  0  0  0  0  0
   -3.9136   -3.7790    0.0754 C   0  0  0  0  0  0  0  0  0  0  0  0
   -4.0800   -2.8802    1.1407 C   0  0  0  0  0  0  0  0  0  0  0  0
   -3.5071   -1.6011    1.0828 C   0  0  0  0  0  0  0  0  0  0  0  0
    0.2692   -0.4982   -0.7800 C   0  0  0  0  0  0  0  0  0  0  0  0
    1.2569   -0.2998   -1.7894 C   0  0  0  0  0  3  0  0  0  0  0  0
    2.3087   -1.2463   -1.9889 C   0  0  0  0  0  3  0  0  0  0  0  0
    2.3808   -2.4202   -1.2023 C   0  0  0  0  0  3  0  0  0  0  0  0
    1.4076   -2.6262   -0.1754 C   0  0  0  0  0  3  0  0  0  0  0  0
    0.3791   -1.6813    0.0403 C   0  0  0  0  0  0  0  0  0  0  0  0
   -4.8048    0.7212    0.5087 H   0  0  0  0  0  0  0  0  0  0  0  0
   -4.2992    2.0829    1.5521 H   0  0  0  0  0  0  0  0  0  0  0  0
   -4.7002    2.3749   -0.1643 H   0  0  0  0  0  0  0  0  0  0  0  0
   -3.1132    4.0993   -0.1920 H   0  0  0  0  0  0  0  0  0  0  0  0
   -2.1971    3.8924    1.3249 H   0  0  0  0  0  0  0  0  0  0  0  0
   -1.1270    5.6989    0.1468 H   0  0  0  0  0  0  0  0  0  0  0  0
   -1.1354    4.8348   -1.4116 H   0  0  0  0  0  0  0  0  0  0  0  0
    0.4878    3.9245    1.0621 H   0  0  0  0  0  0  0  0  0  0  0  0
    1.1676    4.7882   -0.3437 H   0  0  0  0  0  0  0  0  0  0  0  0
    1.4272    2.2231   -0.4827 H   0  0  0  0  0  0  0  0  0  0  0  0
    0.5901    2.9596   -1.8626 H   0  0  0  0  0  0  0  0  0  0  0  0
   -2.0403   -1.7953   -2.0043 H   0  0  0  0  0  0  0  0  0  0  0  0
   -3.0373   -4.0818   -1.8926 H   0  0  0  0  0  0  0  0  0  0  0  0
   -4.3579   -4.7847    0.1234 H   0  0  0  0  0  0  0  0  0  0  0  0
   -4.6502   -3.1820    2.0328 H   0  0  0  0  0  0  0  0  0  0  0  0
   -3.6080   -0.9152    1.9375 H   0  0  0  0  0  0  0  0  0  0  0  0
    1.2179    0.6033   -2.4118 H   0  0  0  0  0  0  0  0  0  0  0  0
    3.0797   -1.0447   -2.7457 H   0  0  0  0  0  0  0  0  0  0  0  0
    3.2067   -3.1311   -1.3370 H   0  0  0  0  0  0  0  0  0  0  0  0
    1.4863   -3.5010    0.4849 H   0  0  0  0  0  0  0  0  0  0  0  0
   -0.3306   -1.8248    0.8642 H   0  0  0  0  0  0  0  0  0  0  0  0
  1  2  1  0  0  0  0
  1  6  1  0  0  0  0
  2  5  1  0  0  0  0
  3 11  1  0  0  0  0
  3  2  2  0  0  0  0
  4 10  2  0  0  0  0
  4  3  1  0  0  0  0
  5 24  1  0  0  0  0
  6 27  1  0  0  0  0
  7  8  1  0  0  0  0
  7 28  1  0  0  0  0
  7  6  1  0  0  0  0
  8 30  1  0  0  0  0
  9 10  1  0  0  0  0
  9 32  1  0  0  0  0
  9  8  1  0  0  0  0
 10  1  1  0  0  0  0
 11 16  1  0  0  0  0
 12 13  1  0  0  0  0
 12 11  2  0  0  0  0
 13 14  2  0  0  0  0
 14 36  1  0  0  0  0
 14 15  1  0  0  0  0
 15 37  1  0  0  0  0
 16 15  2  0  0  0  0
 16 38  1  0  0  0  0
 17  4  1  0  0  0  0
 17 22  2  0  0  0  0
 18 17  1  0  0  0  0
 19 18  1  0  0  0  0
 19 20  1  0  0  0  0
 20 21  1  0  0  0  0
 21 22  1  0  0  0  0
 21 42  1  0  0  0  0
 22 43  1  0  0  0  0
 23  5  1  0  0  0  0
 25  5  1  0  0  0  0
 26  6  1  0  0  0  0
 29  7  1  0  0  0  0
 31  8  1  0  0  0  0
 33  9  1  0  0  0  0
 34 12  1  0  0  0  0
 35 13  1  0  0  0  0
 39 18  1  0  0  0  0
 40 19  1  0  0  0  0
 41 20  1  0  0  0  0
M  END
