1,2
q = 0.0, confidence = 0.992

 26 27  0  0  0  0  0  0  0  0999 V2000
    0.6543    1.2943    0.0627 C   0  0  0  0  0  3  0  0  0  0  0  0
    0.6546   -1.2941    0.0625 C   0  0  0  0  0  2  0  0  0  0  0  0
    0.5843    2.6690    0.1067 N   0  0  0  0  0  0  0  0  0  0  0  0
    1.6875    3.4738    0.0089 C   0  0  0  0  0  3  0  0  0  0  0  0
    1.4987    4.5553    0.0524 H   0  0  0  0  0  0  0  0  0  0  0  0
    2.9586    2.9452   -0.1326 C   0  0  0  0  0  0  0  0  0  0  0  0
    3.8204    3.6205   -0.2157 H   0  0  0  0  0  0  0  0  0  0  0  0
    3.1082    1.5443   -0.1625 C   0  0  0  0  0  0  0  0  0  0  0  0
    4.1129    1.1064   -0.2665 H   0  0  0  0  0  0  0  0  0  0  0  0
    1.9762    0.7351   -0.0614 C   0  0  0  0  0  0  0  0  0  0  0  0
   -0.7223    3.3182    0.3193 C   0  0  0  0  0  0  0  0  0  0  0  0
   -0.6803    4.3528   -0.0657 H   0  0  0  0  0  0  0  0  0  0  0  0
   -0.9434    3.3326    1.4050 H   0  0  0  0  0  0  0  0  0  0  0  0
   -1.5233    2.7315   -0.1717 H   0  0  0  0  0  0  0  0  0  0  0  0
    1.9764   -0.7346   -0.0613 C   0  0  0  0  0  0  0  0  0  0  0  0
    3.1086   -1.5436   -0.1618 C   0  0  0  0  0  0  0  0  0  0  0  0
    4.1132   -1.1055   -0.2655 H   0  0  0  0  0  0  0  0  0  0  0  0
    2.9593   -2.9446   -0.1319 C   0  0  0  0  0  0  0  0  0  0  0  0
    3.8213   -3.6196   -0.2145 H   0  0  0  0  0  0  0  0  0  0  0  0
    1.6883   -3.4734    0.0092 C   0  0  0  0  0  0  0  0  0  0  0  0
    1.4998   -4.5550    0.0527 H   0  0  0  0  0  0  0  0  0  0  0  0
    0.5849   -2.6689    0.1065 N   0  0  0  0  0  0  0  0  0  0  0  0
   -0.7217   -3.3184    0.3185 C   0  0  0  0  0  0  0  0  0  0  0  0
   -0.6792   -4.3531   -0.0661 H   0  0  0  0  0  0  0  0  0  0  0  0
   -1.5226   -2.7320   -0.1731 H   0  0  0  0  0  0  0  0  0  0  0  0
   -0.9434   -3.3325    1.4041 H   0  0  0  0  0  0  0  0  0  0  0  0
  1  3  1  0  0  0  0
  2 22  1  0  0  0  0
  3 11  1  0  0  0  0
  4  5  1  0  0  0  0
  4  3  1  0  0  0  0
  6  4  1  0  0  0  0
  7  6  1  0  0  0  0
  8  6  2  0  0  0  0
  8 10  1  0  0  0  0
  9  8  1  0  0  0  0
 10 15  1  0  0  0  0
 10  1  2  0  0  0  0
 11 13  1  0  0  0  0
 12 11  1  0  0  0  0
 14 11  1  0  0  0  0
 15  2  1  0  0  0  0
 16 18  1  0  0  0  0
 16 15  2  0  0  0  0
 17 16  1  0  0  0  0
 18 20  2  0  0  0  0
 19 18  1  0  0  0  0
 20 21  1  0  0  0  0
 20 22  1  0  0  0  0
 22 23  1  0  0  0  0
 23 26  1  0  0  0  0
 24 23  1  0  0  0  0
 25 23  1  0  0  0  0
M  END
