14,18
q = -1.0

 47 48  0  0  0  0  0  0  0  0999 V2000
   -2.4010   -0.3649    0.0138 P   0  0  0  0  0  4  0  0  0  0  0  0
   -2.5415    1.0228    1.1877 C   0  0  0  0  0  0  0  0  0  0  0  0
   -1.3972    1.5506    1.8178 C   0  0  0  0  0  0  0  0  0  0  0  0
   -1.5184    2.6468    2.6817 C   0  0  0  0  0  0  0  0  0  0  0  0
   -2.7757    3.2285    2.9122 C   0  0  0  0  0  0  0  0  0  0  0  0
   -3.9167    2.7021    2.2857 C   0  0  0  0  0  0  0  0  0  0  0  0
   -3.8042    1.5979    1.4285 C   0  0  0  0  0  0  0  0  0  0  0  0
   -3.9807   -1.2773    0.1374 C   0  0  0  0  0  0  0  0  0  0  0  0
   -4.3600   -1.8659    1.3603 C   0  0  0  0  0  0  0  0  0  0  0  0
   -5.5604   -2.5837    1.4433 C   0  0  0  0  0  0  0  0  0  0  0  0
   -6.3823   -2.7121    0.3100 C   0  0  0  0  0  0  0  0  0  0  0  0
   -6.0024   -2.1265   -0.9077 C   0  0  0  0  0  0  0  0  0  0  0  0
   -4.7978   -1.4121   -0.9991 C   0  0  0  0  0  0  0  0  0  0  0  0
   -0.9082   -1.2707    0.4201 C   0  0  0  0  0  3  0  0  0  0  0  0
   -0.7833   -2.5649   -0.2953 C   0  0  0  0  0  0  0  0  0  0  0  0
    0.6223   -4.4529   -0.6423 C   0  0  0  0  0  0  0  0  0  0  0  0
    1.9275   -5.0127   -0.1154 C   0  0  0  0  0  0  0  0  0  0  0  0
   -1.9416    0.1068   -1.6491 C   0  0  0  0  0  3  0  0  0  0  0  0
   -2.3247    1.3921   -2.2751 C   0  0  0  0  0  0  0  0  0  0  0  0
   -2.4479    3.7541   -1.8537 C   0  0  0  0  0  0  0  0  0  0  0  0
   -1.1083    4.4564   -1.6948 C   0  0  0  0  0  0  0  0  0  0  0  0
    0.3092   -3.2688    0.1201 O   0  0  0  0  0  0  0  0  0  0  0  0
   -1.5310   -2.9661   -1.1802 O   0  0  0  0  0  0  0  0  0  0  0  0
   -2.5691    1.5394   -3.4589 O   0  0  0  0  0  0  0  0  0  0  0  0
   -2.3468    2.4087   -1.3559 O   0  0  0  0  0  0  0  0  0  0  0  0
   -0.4074    1.1159    1.6160 H   0  0  0  0  0  0  0  0  0  0  0  0
   -0.6191    3.0479    3.1732 H   0  0  0  0  0  0  0  0  0  0  0  0
   -2.8678    4.0946    3.5852 H   0  0  0  0  0  0  0  0  0  0  0  0
   -4.9039    3.1539    2.4649 H   0  0  0  0  0  0  0  0  0  0  0  0
   -4.6999    1.1861    0.9401 H   0  0  0  0  0  0  0  0  0  0  0  0
   -3.7155   -1.7605    2.2477 H   0  0  0  0  0  0  0  0  0  0  0  0
   -5.8587   -3.0459    2.3966 H   0  0  0  0  0  0  0  0  0  0  0  0
   -7.3248   -3.2765    0.3775 H   0  0  0  0  0  0  0  0  0  0  0  0
   -6.6437   -2.2314   -1.7957 H   0  0  0  0  0  0  0  0  0  0  0  0
   -4.4873   -0.9592   -1.9537 H   0  0  0  0  0  0  0  0  0  0  0  0
   -0.5617   -1.2468    1.4672 H   0  0  0  0  0  0  0  0  0  0  0  0
   -0.2173   -5.1745   -0.5509 H   0  0  0  0  0  0  0  0  0  0  0  0
    0.6932   -4.1745   -1.7150 H   0  0  0  0  0  0  0  0  0  0  0  0
    2.1991   -5.9288   -0.6766 H   0  0  0  0  0  0  0  0  0  0  0  0
    2.7501   -4.2802   -0.2333 H   0  0  0  0  0  0  0  0  0  0  0  0
    1.8450   -5.2796    0.9576 H   0  0  0  0  0  0  0  0  0  0  0  0
   -2.0245   -0.7535   -2.3361 H   0  0  0  0  0  0  0  0  0  0  0  0
   -2.7646    3.7112   -2.9155 H   0  0  0  0  0  0  0  0  0  0  0  0
   -3.2443    4.2476   -1.2578 H   0  0  0  0  0  0  0  0  0  0  0  0
   -1.1662    5.4923   -2.0870 H   0  0  0  0  0  0  0  0  0  0  0  0
   -0.8145    4.5062   -0.6260 H   0  0  0  0  0  0  0  0  0  0  0  0
   -0.3204    3.9040   -2.2456 H   0  0  0  0  0  0  0  0  0  0  0  0
  1  8  1  0  0  0  0
  1 14  1  0  0  0  0
  1  2  1  0  0  0  0
  2  7  2  0  0  0  0
  2  3  1  0  0  0  0
  3  4  2  0  0  0  0
  4  5  1  0  0  0  0
  4 27  1  0  0  0  0
  5 28  1  0  0  0  0
  6 29  1  0  0  0  0
  6  5  2  0  0  0  0
  7  6  1  0  0  0  0
  8  9  1  0  0  0  0
  9 10  2  0  0  0  0
  9 31  1  0  0  0  0
 10 32  1  0  0  0  0
 11 33  1  0  0  0  0
 11 10  1  0  0  0  0
 12 11  2  0  0  0  0
 13 12  1  0  0  0  0
 13  8  2  0  0  0  0
 14 36  1  0  0  0  0
 15 22  1  0  0  0  0
 15 14  1  0  0  0  0
 16 37  1  0  0  0  0
 16 17  1  0  0  0  0
 16 22  1  0  0  0  0
 17 41  1  0  0  0  0
 18  1  1  0  0  0  0
 19 18  1  0  0  0  0
 19 25  1  0  0  0  0
 20 21  1  0  0  0  0
 20 25  1  0  0  0  0
 20 44  1  0  0  0  0
 21 46  1  0  0  0  0
 23 15  2  0  0  0  0
 24 19  2  0  0  0  0
 26  3  1  0  0  0  0
 30  7  1  0  0  0  0
 34 12  1  0  0  0  0
 35 13  1  0  0  0  0
 38 16  1  0  0  0  0
 39 17  1  0  0  0  0
 40 17  1  0  0  0  0
 42 18  1  0  0  0  0
 43 20  1  0  0  0  0
 45 21  1  0  0  0  0
 47 21  1  0  0  0  0
M  END
