4,6
q = 0.0, confidence = 0.998

 36 36  0  0  1  0  0  0  0  0999 V2000
    0.5172   -0.2525   -0.0531 C   0  0  2  0  0  3  0  0  0  0  0  0
    0.0142   -0.6302    1.2431 C   0  0  0  0  0  0  0  0  0  0  0  0
   -0.9093   -1.7150    1.3392 C   0  0  0  0  0  0  0  0  0  0  0  0
   -1.3726   -2.3958    0.1802 C   0  0  0  0  0  3  0  0  0  0  0  0
   -0.8820   -2.0371   -1.1011 C   0  0  0  0  0  3  0  0  0  0  0  0
    0.0299   -0.9513   -1.1971 C   0  0  0  0  0  3  0  0  0  0  0  0
    1.5675    0.8344   -0.2631 C   0  0  2  0  0  0  0  0  0  0  0  0
    2.9655    0.3759    0.2365 C   0  0  2  0  0  0  0  0  0  0  0  0
    4.0392    1.4178   -0.1106 C   0  0  0  0  0  0  0  0  0  0  0  0
    0.4489    0.0566    2.5126 C   0  0  0  0  0  0  0  0  0  0  0  0
    0.5446    2.9897   -0.3942 C   0  0  0  0  0  0  0  0  0  0  0  0
    4.1153   -1.7380    0.6843 C   0  0  0  0  0  0  0  0  0  0  0  0
    3.6027   -1.1546   -1.5942 C   0  0  0  0  0  0  0  0  0  0  0  0
    3.2403   -0.9954   -0.1993 N   0  0  0  0  0  0  0  0  0  0  0  0
    1.2780    2.0627    0.3866 O   0  0  0  0  0  0  0  0  0  0  0  0
   -1.3200   -1.9766    2.3242 H   0  0  0  0  0  0  0  0  0  0  0  0
   -2.1295   -3.1869    0.2789 H   0  0  0  0  0  0  0  0  0  0  0  0
   -1.2566   -2.5328   -2.0061 H   0  0  0  0  0  0  0  0  0  0  0  0
    0.3660   -0.6237   -2.1922 H   0  0  0  0  0  0  0  0  0  0  0  0
    1.6325    1.0130   -1.3636 H   0  0  0  0  0  0  0  0  0  0  0  0
    2.8840    0.3323    1.3422 H   0  0  0  0  0  0  0  0  0  0  0  0
    5.0317    1.1130    0.2775 H   0  0  0  0  0  0  0  0  0  0  0  0
    3.7744    2.3934    0.3378 H   0  0  0  0  0  0  0  0  0  0  0  0
    4.1289    1.5606   -1.2070 H   0  0  0  0  0  0  0  0  0  0  0  0
   -0.3530    0.0092    3.2737 H   0  0  0  0  0  0  0  0  0  0  0  0
    1.3399   -0.4569    2.9319 H   0  0  0  0  0  0  0  0  0  0  0  0
    0.7091    1.1130    2.3272 H   0  0  0  0  0  0  0  0  0  0  0  0
    1.1422    3.3443   -1.2672 H   0  0  0  0  0  0  0  0  0  0  0  0
   -0.4109    2.5616   -0.7652 H   0  0  0  0  0  0  0  0  0  0  0  0
    0.3114    3.8522    0.2584 H   0  0  0  0  0  0  0  0  0  0  0  0
    4.1266   -2.8079    0.3883 H   0  0  0  0  0  0  0  0  0  0  0  0
    5.1819   -1.3853    0.6834 H   0  0  0  0  0  0  0  0  0  0  0  0
    3.7420   -1.6820    1.7272 H   0  0  0  0  0  0  0  0  0  0  0  0
    3.5404   -2.2269   -1.8746 H   0  0  0  0  0  0  0  0  0  0  0  0
    4.6386   -0.8050   -1.8443 H   0  0  0  0  0  0  0  0  0  0  0  0
    2.9001   -0.6029   -2.2502 H   0  0  0  0  0  0  0  0  0  0  0  0
  1  7  1  1  0  0  0
  1  2  1  0  0  0  0
  2  3  2  0  0  0  0
  2 10  1  0  0  0  0
  3 16  1  0  0  0  0
  4 17  1  0  0  0  0
  4  3  1  0  0  0  0
  5  4  1  0  0  0  0
  6  5  1  0  0  0  0
  6  1  1  0  0  0  0
  7 20  1  6  0  0  0
  7  8  1  0  0  0  0
  7 15  1  0  0  0  0
  8 21  1  1  0  0  0
  9  8  1  0  0  0  0
  9 22  1  0  0  0  0
  9 23  1  0  0  0  0
 10 26  1  0  0  0  0
 10 25  1  0  0  0  0
 11 30  1  0  0  0  0
 11 15  1  0  0  0  0
 12 33  1  0  0  0  0
 13 14  1  0  0  0  0
 14  8  1  0  0  0  0
 14 12  1  0  0  0  0
 18  5  1  0  0  0  0
 19  6  1  0  0  0  0
 24  9  1  0  0  0  0
 27 10  1  0  0  0  0
 28 11  1  0  0  0  0
 29 11  1  0  0  0  0
 31 12  1  0  0  0  0
 32 12  1  0  0  0  0
 34 13  1  0  0  0  0
 35 13  1  0  0  0  0
 36 13  1  0  0  0  0
M  END
