6,8
q = 0.0, confidence = 0.998

 36 36  0  0  1  0  0  0  0  0999 V2000
    3.9793    0.2839   -0.1577 N   0  0  0  0  0  0  0  0  0  0  0  0
    1.4564    1.2954    0.7549 O   0  0  0  0  0  0  0  0  0  0  0  0
    0.2743   -0.6521   -0.1275 C   0  0  1  0  0  3  0  0  0  0  0  0
   -0.3438   -1.1242    1.0873 C   0  0  0  0  0  0  0  0  0  0  0  0
   -1.5238   -1.9225    0.9975 C   0  0  0  0  0  0  0  0  0  0  0  0
   -2.1143   -2.2315   -0.2599 C   0  0  0  0  0  3  0  0  0  0  0  0
   -1.5011   -1.7980   -1.4626 C   0  0  0  0  0  3  0  0  0  0  0  0
   -0.3322   -0.9917   -1.3750 C   0  0  0  0  0  3  0  0  0  0  0  0
    1.5334    0.2057   -0.1494 C   0  0  2  0  0  0  0  0  0  0  0  0
    2.8360   -0.5770    0.1680 C   0  0  1  0  0  0  0  0  0  0  0  0
    2.8759   -1.9820   -0.4539 C   0  0  0  0  0  0  0  0  0  0  0  0
    0.2322   -0.8291    2.4480 C   0  0  0  0  0  0  0  0  0  0  0  0
    1.3082    2.5636    0.1506 C   0  0  0  0  0  0  0  0  0  0  0  0
    4.3748    0.3052   -1.5516 C   0  0  0  0  0  0  0  0  0  0  0  0
    5.1068    0.1435    0.7397 C   0  0  0  0  0  0  0  0  0  0  0  0
   -2.0199   -2.2418    1.9244 H   0  0  0  0  0  0  0  0  0  0  0  0
   -3.0587   -2.7927   -0.2945 H   0  0  0  0  0  0  0  0  0  0  0  0
   -1.9626   -2.0067   -2.4365 H   0  0  0  0  0  0  0  0  0  0  0  0
    0.1100   -0.5886   -2.2985 H   0  0  0  0  0  0  0  0  0  0  0  0
    1.6283    0.5886   -1.1912 H   0  0  0  0  0  0  0  0  0  0  0  0
    2.8470   -0.6864    1.2720 H   0  0  0  0  0  0  0  0  0  0  0  0
    2.0958   -2.6367   -0.0188 H   0  0  0  0  0  0  0  0  0  0  0  0
    3.8592   -2.4602   -0.2708 H   0  0  0  0  0  0  0  0  0  0  0  0
    2.7114   -1.9573   -1.5505 H   0  0  0  0  0  0  0  0  0  0  0  0
   -0.5538   -0.8830    3.2249 H   0  0  0  0  0  0  0  0  0  0  0  0
    0.7028    0.1690    2.4725 H   0  0  0  0  0  0  0  0  0  0  0  0
    1.0063   -1.5854    2.6987 H   0  0  0  0  0  0  0  0  0  0  0  0
    1.1768    3.2987    0.9679 H   0  0  0  0  0  0  0  0  0  0  0  0
    2.2139    2.8349   -0.4396 H   0  0  0  0  0  0  0  0  0  0  0  0
    0.4111    2.6160   -0.5076 H   0  0  0  0  0  0  0  0  0  0  0  0
    5.0680    1.1537   -1.7289 H   0  0  0  0  0  0  0  0  0  0  0  0
    3.4942    0.4618   -2.2079 H   0  0  0  0  0  0  0  0  0  0  0  0
    4.8941   -0.6259   -1.9020 H   0  0  0  0  0  0  0  0  0  0  0  0
    4.7739    0.2684    1.7898 H   0  0  0  0  0  0  0  0  0  0  0  0
    5.8558    0.9351    0.5281 H   0  0  0  0  0  0  0  0  0  0  0  0
    5.6412   -0.8424    0.6610 H   0  0  0  0  0  0  0  0  0  0  0  0
  1 10  1  0  0  0  0
  1 15  1  0  0  0  0
  3  9  1  1  0  0  0
  3  4  1  0  0  0  0
  4 12  1  0  0  0  0
  5  4  2  0  0  0  0
  5 16  1  0  0  0  0
  6  5  1  0  0  0  0
  7  8  1  0  0  0  0
  7  6  1  0  0  0  0
  8  3  1  0  0  0  0
  9 20  1  6  0  0  0
  9 10  1  0  0  0  0
  9  2  1  0  0  0  0
 10 21  1  1  0  0  0
 11 23  1  0  0  0  0
 11 22  1  0  0  0  0
 11 10  1  0  0  0  0
 12 26  1  0  0  0  0
 12 27  1  0  0  0  0
 12 25  1  0  0  0  0
 13  2  1  0  0  0  0
 13 28  1  0  0  0  0
 14  1  1  0  0  0  0
 15 34  1  0  0  0  0
 17  6  1  0  0  0  0
 18  7  1  0  0  0  0
 19  8  1  0  0  0  0
 24 11  1  0  0  0  0
 29 13  1  0  0  0  0
 30 13  1  0  0  0  0
 31 14  1  0  0  0  0
 32 14  1  0  0  0  0
 33 14  1  0  0  0  0
 35 15  1  0  0  0  0
 36 15  1  0  0  0  0
M  END
