26,29
q = -1.0

 53 55  0  0  1  0  0  0  0  0999 V2000
   -2.3902   -0.7772   -0.1451 Si  0  0  2  0  0  0  0  0  0  0  0  0
   -4.6392   -1.3161    0.2826 N   0  0  2  0  0  0  0  0  0  0  0  0
   -2.4021   -0.6549    1.5539 O   0  0  0  0  0  0  0  0  0  0  0  0
   -3.1577    0.4009   -1.1053 O   0  0  0  0  0  0  0  0  0  0  0  0
   -2.4022   -2.3597   -0.7679 O   0  0  0  0  0  0  0  0  0  0  0  0
   -3.5793   -0.5036    2.3050 C   0  0  0  0  0  0  0  0  0  0  0  0
   -3.9220    0.5586    2.2830 H   0  0  0  0  0  0  0  0  0  0  0  0
   -3.3738   -0.7500    3.3684 H   0  0  0  0  0  0  0  0  0  0  0  0
   -4.5171    0.3704   -1.4537 C   0  0  0  0  0  0  0  0  0  0  0  0
   -4.8474    1.3956   -1.7260 H   0  0  0  0  0  0  0  0  0  0  0  0
   -4.6781   -0.2732   -2.3525 H   0  0  0  0  0  0  0  0  0  0  0  0
   -3.4230   -3.2781   -0.4660 C   0  0  0  0  0  0  0  0  0  0  0  0
   -3.4214   -4.0947   -1.2197 H   0  0  0  0  0  0  0  0  0  0  0  0
   -3.2394   -3.7565    0.5268 H   0  0  0  0  0  0  0  0  0  0  0  0
   -5.3400   -0.1533   -0.2696 C   0  0  0  0  0  0  0  0  0  0  0  0
   -6.3910   -0.3850   -0.5594 H   0  0  0  0  0  0  0  0  0  0  0  0
   -5.3718    0.6264    0.5176 H   0  0  0  0  0  0  0  0  0  0  0  0
   -4.7846   -2.5687   -0.4661 C   0  0  0  0  0  0  0  0  0  0  0  0
   -5.5939   -3.2171   -0.0578 H   0  0  0  0  0  0  0  0  0  0  0  0
   -5.0557   -2.3111   -1.5095 H   0  0  0  0  0  0  0  0  0  0  0  0
   -4.6611   -1.4366    1.7443 C   0  0  0  0  0  0  0  0  0  0  0  0
   -5.6667   -1.2216    2.1729 H   0  0  0  0  0  0  0  0  0  0  0  0
   -4.4019   -2.4827    2.0031 H   0  0  0  0  0  0  0  0  0  0  0  0
    1.0974    0.9500   -1.7957 C   0  0  0  0  0  3  0  0  0  0  0  0
    1.3167    1.5757   -2.6752 H   0  0  0  0  0  0  0  0  0  0  0  0
   -0.2033    0.4175   -1.6605 C   0  0  0  0  0  3  0  0  0  0  0  0
   -0.9741    0.6334   -2.4160 H   0  0  0  0  0  0  0  0  0  0  0  0
   -0.6099   -0.2460   -0.4479 C   0  0  1  0  0  3  0  0  0  0  0  0
    0.3757   -0.2565    0.6052 C   0  0  0  0  0  3  0  0  0  0  0  0
    0.0547   -0.5687    1.6103 H   0  0  0  0  0  0  0  0  0  0  0  0
    1.6558    0.3000    0.4032 C   0  0  0  0  0  3  0  0  0  0  0  0
    2.3242    0.4044    1.2722 H   0  0  0  0  0  0  0  0  0  0  0  0
    2.2416    0.3618   -0.9952 C   0  0  1  0  0  0  0  0  0  0  0  0
    3.0891    1.0744   -0.9923 H   0  0  0  0  0  0  0  0  0  0  0  0
    2.7681   -0.9926   -1.5271 C   0  0  0  0  0  0  0  0  0  0  0  0
    3.1803   -0.8421   -2.5484 H   0  0  0  0  0  0  0  0  0  0  0  0
    1.9510   -1.7358   -1.5885 H   0  0  0  0  0  0  0  0  0  0  0  0
    3.8571   -1.5846   -0.6496 C   0  0  0  0  0  0  0  0  0  0  0  0
    3.8410   -2.7122   -0.1889 O   0  0  0  0  0  0  0  0  0  0  0  0
    4.8330   -0.6662   -0.4408 O   0  0  0  0  0  0  0  0  0  0  0  0
    5.9875   -0.9485    0.4329 C   0  0  0  0  0  0  0  0  0  0  0  0
    6.8039   -2.1107   -0.1424 C   0  0  0  0  0  0  0  0  0  0  0  0
    7.0968   -1.8938   -1.1891 H   0  0  0  0  0  0  0  0  0  0  0  0
    6.2229   -3.0502   -0.1198 H   0  0  0  0  0  0  0  0  0  0  0  0
    7.7293   -2.2463    0.4524 H   0  0  0  0  0  0  0  0  0  0  0  0
    6.7817    0.3580    0.3793 C   0  0  0  0  0  0  0  0  0  0  0  0
    7.6925    0.2785    1.0047 H   0  0  0  0  0  0  0  0  0  0  0  0
    6.1698    1.2022    0.7538 H   0  0  0  0  0  0  0  0  0  0  0  0
    7.0873    0.5852   -0.6610 H   0  0  0  0  0  0  0  0  0  0  0  0
    5.4996   -1.2332    1.8576 C   0  0  0  0  0  0  0  0  0  0  0  0
    4.9056   -2.1641    1.8944 H   0  0  0  0  0  0  0  0  0  0  0  0
    4.8765   -0.3935    2.2264 H   0  0  0  0  0  0  0  0  0  0  0  0
    6.3700   -1.3368    2.5358 H   0  0  0  0  0  0  0  0  0  0  0  0
  1  4  1  6  0  0  0
  1  3  1  0  0  0  0
  2 18  1  6  0  0  0
  2 21  1  0  0  0  0
  3  6  1  0  0  0  0
  5 12  1  0  0  0  0
  5  1  1  0  0  0  0
  6  8  1  0  0  0  0
  7  6  1  0  0  0  0
  9  4  1  0  0  0  0
  9 15  1  0  0  0  0
 10  9  1  0  0  0  0
 11  9  1  0  0  0  0
 12 14  1  0  0  0  0
 13 12  1  0  0  0  0
 15  2  1  0  0  0  0
 15 17  1  0  0  0  0
 16 15  1  0  0  0  0
 18 12  1  0  0  0  0
 18 19  1  0  0  0  0
 20 18  1  0  0  0  0
 21 23  1  0  0  0  0
 21 22  1  0  0  0  0
 21  6  1  0  0  0  0
 24 26  1  0  0  0  0
 24 33  1  0  0  0  0
 25 24  1  0  0  0  0
 27 26  1  0  0  0  0
 28 26  1  1  0  0  0
 28  1  1  0  0  0  0
 28 29  1  0  0  0  0
 29 30  1  0  0  0  0
 31 29  1  0  0  0  0
 31 32  1  0  0  0  0
 33 34  1  1  0  0  0
 33 31  1  0  0  0  0
 35 33  1  0  0  0  0
 35 38  1  0  0  0  0
 36 35  1  0  0  0  0
 37 35  1  0  0  0  0
 38 40  1  0  0  0  0
 38 39  2  0  0  0  0
 40 41  1  0  0  0  0
 41 50  1  0  0  0  0
 42 44  1  0  0  0  0
 42 41  1  0  0  0  0
 42 45  1  0  0  0  0
 43 42  1  0  0  0  0
 46 41  1  0  0  0  0
 46 48  1  0  0  0  0
 46 47  1  0  0  0  0
 49 46  1  0  0  0  0
 50 51  1  0  0  0  0
 50 52  1  0  0  0  0
 50 53  1  0  0  0  0
M  END
