11,14
q = -1.0

 39 39  0  0  1  0  0  0  0  0999 V2000
    1.1291   -1.2118    1.3759 P   0  0  0  0  0  4  0  0  0  0  0  0
    3.8619   -0.7752    1.6947 C   0  0  0  0  0  0  0  0  0  0  0  0
    3.7127    0.3098    1.5467 H   0  0  0  0  0  0  0  0  0  0  0  0
    4.0357   -1.2362    0.7028 H   0  0  0  0  0  0  0  0  0  0  0  0
    4.7881   -0.8992    2.2936 H   0  0  0  0  0  0  0  0  0  0  0  0
   -0.6511   -2.4425    3.1889 C   0  0  0  0  0  0  0  0  0  0  0  0
   -1.5063   -3.1331    3.3411 H   0  0  0  0  0  0  0  0  0  0  0  0
   -0.9726   -1.4325    3.5096 H   0  0  0  0  0  0  0  0  0  0  0  0
    0.1641   -2.7746    3.8612 H   0  0  0  0  0  0  0  0  0  0  0  0
    0.5493    0.4791    1.6824 C   0  0  1  0  0  3  0  0  0  0  0  0
    1.2961   -1.0774   -0.3716 C   0  0  0  0  0  3  0  0  0  0  0  0
    1.1175   -2.0124   -0.9292 H   0  0  0  0  0  0  0  0  0  0  0  0
    2.2562   -0.6070   -0.6611 H   0  0  0  0  0  0  0  0  0  0  0  0
    1.3263    1.5803    1.1658 C   0  0  0  0  0  3  0  0  0  0  0  0
    2.3858    1.5743    0.8881 H   0  0  0  0  0  0  0  0  0  0  0  0
   -0.2339   -2.4822    1.7093 C   0  0  0  0  0  0  0  0  0  0  0  0
   -0.7918    0.9527    1.8426 C   0  0  0  0  0  0  0  0  0  0  0  0
   -1.6629    0.3900    2.1946 H   0  0  0  0  0  0  0  0  0  0  0  0
    2.6983   -1.4501    2.4481 C   0  0  0  0  0  0  0  0  0  0  0  0
   -0.8258    2.3246    1.4762 C   0  0  0  0  0  0  0  0  0  0  0  0
   -1.7233    2.9530    1.4947 H   0  0  0  0  0  0  0  0  0  0  0  0
    2.4808   -0.7621    3.8063 C   0  0  0  0  0  0  0  0  0  0  0  0
    3.4062   -0.8572    4.4125 H   0  0  0  0  0  0  0  0  0  0  0  0
    1.6546   -1.2207    4.3833 H   0  0  0  0  0  0  0  0  0  0  0  0
    2.2579    0.3160    3.6892 H   0  0  0  0  0  0  0  0  0  0  0  0
    3.0543   -2.9317    2.6444 C   0  0  0  0  0  0  0  0  0  0  0  0
    4.0428   -2.9929    3.1460 H   0  0  0  0  0  0  0  0  0  0  0  0
    3.1386   -3.4736    1.6817 H   0  0  0  0  0  0  0  0  0  0  0  0
    2.3277   -3.4613    3.2892 H   0  0  0  0  0  0  0  0  0  0  0  0
    0.4722    2.7102    1.0708 C   0  0  0  0  0  3  0  0  0  0  0  0
    0.7791    3.7059    0.7361 H   0  0  0  0  0  0  0  0  0  0  0  0
   -1.4275   -2.1517    0.7897 C   0  0  0  0  0  0  0  0  0  0  0  0
   -1.1760   -2.2775   -0.2803 H   0  0  0  0  0  0  0  0  0  0  0  0
   -1.8329   -1.1367    0.9374 H   0  0  0  0  0  0  0  0  0  0  0  0
   -2.2462   -2.8667    1.0137 H   0  0  0  0  0  0  0  0  0  0  0  0
    0.2464   -3.8940    1.3110 C   0  0  0  0  0  0  0  0  0  0  0  0
   -0.6337   -4.5692    1.3332 H   0  0  0  0  0  0  0  0  0  0  0  0
    1.0034   -4.3119    1.9950 H   0  0  0  0  0  0  0  0  0  0  0  0
    0.6381   -3.9184    0.2751 H   0  0  0  0  0  0  0  0  0  0  0  0
  1 16  1  0  0  0  0
  1 19  1  0  0  0  0
  2  5  1  0  0  0  0
  2 19  1  0  0  0  0
  3  2  1  0  0  0  0
  4  2  1  0  0  0  0
  6  7  1  0  0  0  0
  6  8  1  0  0  0  0
  6  9  1  0  0  0  0
 10  1  1  6  0  0  0
 10 17  1  0  0  0  0
 11  1  1  0  0  0  0
 12 11  1  0  0  0  0
 13 11  1  0  0  0  0
 14 10  1  0  0  0  0
 15 14  1  0  0  0  0
 16  6  1  0  0  0  0
 17 18  1  0  0  0  0
 19 26  1  0  0  0  0
 19 22  1  0  0  0  0
 20 21  1  0  0  0  0
 20 17  2  0  0  0  0
 22 24  1  0  0  0  0
 22 23  1  0  0  0  0
 25 22  1  0  0  0  0
 26 27  1  0  0  0  0
 26 29  1  0  0  0  0
 28 26  1  0  0  0  0
 30 14  1  0  0  0  0
 30 20  1  0  0  0  0
 31 30  1  0  0  0  0
 32 34  1  0  0  0  0
 32 35  1  0  0  0  0
 32 16  1  0  0  0  0
 33 32  1  0  0  0  0
 36 37  1  0  0  0  0
 36 16  1  0  0  0  0
 36 38  1  0  0  0  0
 39 36  1  0  0  0  0
M  END
