4,18
q = -1.0

 18 19  0  0  0  0  0  0  0  0999 V2000
   -1.6241   -2.8664    0.0002 S   0  0  0  0  0  0  0  0  0  0  0  0
   -1.2800    2.7143   -0.0001 N   0  0  0  0  0  0  0  0  0  0  0  0
   -2.4764    0.8957   -0.0002 N   0  0  0  0  0  0  0  0  0  0  0  0
   -1.1734    1.3522   -0.0000 C   0  0  0  0  0  2  0  0  0  0  0  0
   -0.1579    3.6408    0.0007 C   0  0  0  0  0  0  0  0  0  0  0  0
   -0.1940    4.2817    0.9043 H   0  0  0  0  0  0  0  0  0  0  0  0
   -0.1957    4.2853   -0.9001 H   0  0  0  0  0  0  0  0  0  0  0  0
    0.7802    3.0550   -0.0011 H   0  0  0  0  0  0  0  0  0  0  0  0
   -2.6194    3.0966   -0.0004 C   0  0  0  0  0  0  0  0  0  0  0  0
   -2.9206    4.1480   -0.0005 H   0  0  0  0  0  0  0  0  0  0  0  0
   -3.3734    1.9457   -0.0005 C   0  0  0  0  0  0  0  0  0  0  0  0
   -4.4570    1.7998   -0.0007 H   0  0  0  0  0  0  0  0  0  0  0  0
   -2.6064   -0.5132   -0.0001 C   0  0  0  0  0  0  0  0  0  0  0  0
   -3.7489   -1.3612   -0.0001 C   0  0  0  0  0  0  0  0  0  0  0  0
   -4.7961   -1.0297   -0.0003 H   0  0  0  0  0  0  0  0  0  0  0  0
   -3.3597   -2.6913    0.0000 C   0  0  0  0  0  0  0  0  0  0  0  0
   -4.0032   -3.5792    0.0001 H   0  0  0  0  0  0  0  0  0  0  0  0
   -1.3664   -1.1516    0.0001 C   0  0  0  0  0  3  0  0  0  0  0  0
  2  4  1  0  0  0  0
  2  5  1  0  0  0  0
  3 13  1  0  0  0  0
  3  4  1  0  0  0  0
  5  6  1  0  0  0  0
  7  5  1  0  0  0  0
  8  5  1  0  0  0  0
  9  2  1  0  0  0  0
 10  9  1  0  0  0  0
 11  9  2  0  0  0  0
 11  3  1  0  0  0  0
 12 11  1  0  0  0  0
 13 18  2  0  0  0  0
 14 13  1  0  0  0  0
 14 16  2  0  0  0  0
 15 14  1  0  0  0  0
 16 17  1  0  0  0  0
 16  1  1  0  0  0  0
 18  1  1  0  0  0  0
M  END
