4,21
q = -1.0, confidence = 0.0

 21 22  0  0  0  0  0  0  0  0999 V2000
    1.2173   -2.7952    0.7911 S   0  0  0  0  0  0  0  0  0  0  0  0
    0.9845    2.7343    0.5344 N   0  0  0  0  0  0  0  0  0  0  0  0
    2.3474    1.4263   -0.5346 N   0  0  0  0  0  0  0  0  0  0  0  0
    1.0788    1.4770   -0.0139 C   0  0  0  0  0  2  0  0  0  0  0  0
   -0.1488    3.2309    1.3047 C   0  0  0  0  0  0  0  0  0  0  0  0
   -0.1546    4.3359    1.2608 H   0  0  0  0  0  0  0  0  0  0  0  0
   -0.0694    2.9075    2.3624 H   0  0  0  0  0  0  0  0  0  0  0  0
   -1.0803    2.8318    0.8651 H   0  0  0  0  0  0  0  0  0  0  0  0
    2.1662    3.4402    0.3570 C   0  0  0  0  0  0  0  0  0  0  0  0
    2.2951    4.4608    0.7284 H   0  0  0  0  0  0  0  0  0  0  0  0
    3.0242    2.6149   -0.3209 C   0  0  0  0  0  0  0  0  0  0  0  0
    4.0481    2.7751   -0.6705 H   0  0  0  0  0  0  0  0  0  0  0  0
    2.9096    0.2512   -1.2151 C   0  0  0  0  0  0  0  0  0  0  0  0
    4.0047    0.4018   -1.2787 H   0  0  0  0  0  0  0  0  0  0  0  0
    2.5142    0.2401   -2.2556 H   0  0  0  0  0  0  0  0  0  0  0  0
    2.5754   -1.0200   -0.4861 C   0  0  0  0  0  0  0  0  0  0  0  0
    3.4610   -2.1294   -0.2991 C   0  0  0  0  0  0  0  0  0  0  0  0
    4.5007   -2.1565   -0.6580 H   0  0  0  0  0  0  0  0  0  0  0  0
    2.8623   -3.1727    0.3814 C   0  0  0  0  0  0  0  0  0  0  0  0
    3.3004   -4.1377    0.6645 H   0  0  0  0  0  0  0  0  0  0  0  0
    1.3026   -1.2157    0.0463 C   0  0  0  0  0  3  0  0  0  0  0  0
  2  5  1  0  0  0  0
  3 11  1  0  0  0  0
  3  4  1  0  0  0  0
  4  2  1  0  0  0  0
  5  7  1  0  0  0  0
  6  5  1  0  0  0  0
  8  5  1  0  0  0  0
  9  2  1  0  0  0  0
  9 10  1  0  0  0  0
 11  9  2  0  0  0  0
 12 11  1  0  0  0  0
 13  3  1  0  0  0  0
 13 16  1  0  0  0  0
 14 13  1  0  0  0  0
 15 13  1  0  0  0  0
 16 17  1  0  0  0  0
 16 21  2  0  0  0  0
 17 19  2  0  0  0  0
 18 17  1  0  0  0  0
 19 20  1  0  0  0  0
 19  1  1  0  0  0  0
 21  1  1  0  0  0  0
M  END
