4,24
q = -1.0

 24 26  0  0  0  0  0  0  0  0999 V2000
    0.5521    3.3989   -0.0000 S   0  0  0  0  0  0  0  0  0  0  0  0
   -1.7653   -1.6956    0.0001 N   0  0  0  0  0  0  0  0  0  0  0  0
   -1.9934    0.4973    0.0001 N   0  0  0  0  0  0  0  0  0  0  0  0
   -1.0562   -0.5241    0.0002 C   0  0  0  0  0  2  0  0  0  0  0  0
   -1.1990   -3.0326    0.0001 C   0  0  0  0  0  0  0  0  0  0  0  0
   -1.5331   -3.5857   -0.9013 H   0  0  0  0  0  0  0  0  0  0  0  0
   -1.5332   -3.5857    0.9014 H   0  0  0  0  0  0  0  0  0  0  0  0
   -0.0965   -2.9503    0.0002 H   0  0  0  0  0  0  0  0  0  0  0  0
   -3.1354   -1.4280   -0.0001 C   0  0  0  0  0  0  0  0  0  0  0  0
   -4.2445   -2.2825   -0.0002 C   0  0  0  0  0  0  0  0  0  0  0  0
   -4.1255   -3.3751   -0.0002 H   0  0  0  0  0  0  0  0  0  0  0  0
   -5.5151   -1.6847   -0.0003 C   0  0  0  0  0  0  0  0  0  0  0  0
   -6.4107   -2.3231   -0.0003 H   0  0  0  0  0  0  0  0  0  0  0  0
   -5.6642   -0.2805   -0.0003 C   0  0  0  0  0  0  0  0  0  0  0  0
   -6.6752    0.1530   -0.0003 H   0  0  0  0  0  0  0  0  0  0  0  0
   -4.5547    0.5789   -0.0001 C   0  0  0  0  0  0  0  0  0  0  0  0
   -4.6803    1.6690   -0.0001 H   0  0  0  0  0  0  0  0  0  0  0  0
   -3.2828   -0.0135   -0.0001 C   0  0  0  0  0  0  0  0  0  0  0  0
   -1.4407    1.8002    0.0000 C   0  0  0  0  0  0  0  0  0  0  0  0
   -2.0337    3.0954   -0.0000 C   0  0  0  0  0  0  0  0  0  0  0  0
   -3.1086    3.3152   -0.0000 H   0  0  0  0  0  0  0  0  0  0  0  0
   -1.0539    4.0756   -0.0001 C   0  0  0  0  0  0  0  0  0  0  0  0
   -1.1940    5.1631   -0.0002 H   0  0  0  0  0  0  0  0  0  0  0  0
   -0.0464    1.7730    0.0000 C   0  0  0  0  0  3  0  0  0  0  0  0
  1 24  1  0  0  0  0
  2  4  1  0  0  0  0
  3  4  1  0  0  0  0
  5  2  1  0  0  0  0
  5  8  1  0  0  0  0
  5  7  1  0  0  0  0
  6  5  1  0  0  0  0
  9 18  1  0  0  0  0
  9  2  1  0  0  0  0
 10 11  1  0  0  0  0
 10  9  2  0  0  0  0
 12 14  2  0  0  0  0
 12 10  1  0  0  0  0
 13 12  1  0  0  0  0
 14 16  1  0  0  0  0
 15 14  1  0  0  0  0
 16 17  1  0  0  0  0
 16 18  2  0  0  0  0
 18  3  1  0  0  0  0
 19 24  2  0  0  0  0
 19  3  1  0  0  0  0
 20 21  1  0  0  0  0
 20 19  1  0  0  0  0
 22  1  1  0  0  0  0
 22 20  2  0  0  0  0
 23 22  1  0  0  0  0
M  END
