21,31
q = -2.0, confidence = 0.656

 67 71  0  0  1  0  0  0  0  0999 V2000
    2.9156    0.3062   -1.1021 C   0  0  0  0  0  0  0  0  0  0  0  0
    3.0917   -0.1064   -2.4614 C   0  0  0  0  0  0  0  0  0  0  0  0
    2.7632    0.5259   -3.2923 H   0  0  0  0  0  0  0  0  0  0  0  0
    3.7262   -1.3099   -2.7445 C   0  0  0  0  0  0  0  0  0  0  0  0
    3.8602   -1.6048   -3.7962 H   0  0  0  0  0  0  0  0  0  0  0  0
    4.2045   -2.1670   -1.7188 C   0  0  0  0  0  0  0  0  0  0  0  0
    4.6946   -3.1147   -1.9849 H   0  0  0  0  0  0  0  0  0  0  0  0
    4.0549   -1.8083   -0.3862 C   0  0  0  0  0  0  0  0  0  0  0  0
    4.4172   -2.4624    0.4202 H   0  0  0  0  0  0  0  0  0  0  0  0
    3.4111   -0.5891   -0.0678 C   0  0  0  0  0  0  0  0  0  0  0  0
    3.1289    0.0139    1.2120 C   0  0  0  0  0  0  0  0  0  0  0  0
    3.4149   -0.4381    2.5220 C   0  0  0  0  0  0  0  0  0  0  0  0
    3.9193   -1.4041    2.6700 H   0  0  0  0  0  0  0  0  0  0  0  0
    3.0396    0.3454    3.6045 C   0  0  0  0  0  0  0  0  0  0  0  0
    3.2464    0.0072    4.6301 H   0  0  0  0  0  0  0  0  0  0  0  0
    2.3910    1.5907    3.3915 C   0  0  0  0  0  0  0  0  0  0  0  0
    2.1109    2.2047    4.2607 H   0  0  0  0  0  0  0  0  0  0  0  0
    2.0979    2.0594    2.1171 C   0  0  0  0  0  0  0  0  0  0  0  0
    1.6140    3.0350    2.0112 H   0  0  0  0  0  0  0  0  0  0  0  0
    2.4602    1.2830    0.9712 C   0  0  0  0  0  0  0  0  0  0  0  0
    2.2795    1.4568   -0.4668 C   0  0  0  0  0  3  0  0  0  0  0  0
    1.3538    2.4869   -1.1593 C   0  0  0  0  0  0  0  0  0  0  0  0
    1.7830    2.8378   -2.5957 C   0  0  0  0  0  0  0  0  0  0  0  0
    2.8364    3.1802   -2.6143 H   0  0  0  0  0  0  0  0  0  0  0  0
    1.1431    3.6557   -2.9816 H   0  0  0  0  0  0  0  0  0  0  0  0
    1.6816    1.9987   -3.3034 H   0  0  0  0  0  0  0  0  0  0  0  0
    1.2275    3.8211   -0.4023 C   0  0  0  0  0  0  0  0  0  0  0  0
    2.2262    4.2645   -0.2206 H   0  0  0  0  0  0  0  0  0  0  0  0
    0.7088    3.7286    0.5661 H   0  0  0  0  0  0  0  0  0  0  0  0
    0.6359    4.5322   -1.0117 H   0  0  0  0  0  0  0  0  0  0  0  0
    0.0438    1.6908   -1.1289 C   0  0  1  0  0  3  0  0  0  0  0  0
   -0.2762    0.6048   -2.0065 C   0  0  0  0  0  3  0  0  0  0  0  0
    0.2207    0.3589   -2.9519 H   0  0  0  0  0  0  0  0  0  0  0  0
   -1.3575   -0.1378   -1.4397 C   0  0  0  0  0  0  0  0  0  0  0  0
   -1.8064   -1.0221   -1.9004 H   0  0  0  0  0  0  0  0  0  0  0  0
   -1.7286    0.4516   -0.2002 C   0  0  0  0  0  0  0  0  0  0  0  0
   -0.8254    1.5568    0.0024 C   0  0  0  0  0  3  0  0  0  0  0  0
   -0.8206    2.1960    0.8935 H   0  0  0  0  0  0  0  0  0  0  0  0
   -2.8812    0.1223    0.7319 C   0  0  1  0  0  0  0  0  0  0  0  0
   -2.4259   -0.1462    1.7094 H   0  0  0  0  0  0  0  0  0  0  0  0
   -3.7430    1.3878    0.9550 C   0  0  0  0  0  0  0  0  0  0  0  0
   -4.4668    1.1783    1.7741 H   0  0  0  0  0  0  0  0  0  0  0  0
   -3.1121    2.2297    1.3095 H   0  0  0  0  0  0  0  0  0  0  0  0
   -4.5185    1.8002   -0.3040 C   0  0  2  0  0  0  0  0  0  0  0  0
   -3.7703    2.0111   -1.1036 H   0  0  0  0  0  0  0  0  0  0  0  0
   -5.3422    3.0686   -0.0743 C   0  0  0  0  0  0  0  0  0  0  0  0
   -4.7014    3.9194    0.2364 H   0  0  0  0  0  0  0  0  0  0  0  0
   -6.0981    2.9104    0.7246 H   0  0  0  0  0  0  0  0  0  0  0  0
   -5.8866    3.3714   -0.9923 H   0  0  0  0  0  0  0  0  0  0  0  0
   -5.3901    0.6262   -0.7760 C   0  0  0  0  0  0  0  0  0  0  0  0
   -5.9192    0.8993   -1.7143 H   0  0  0  0  0  0  0  0  0  0  0  0
   -6.1837    0.4525   -0.0127 H   0  0  0  0  0  0  0  0  0  0  0  0
   -4.5950   -0.6709   -0.9763 C   0  0  0  0  0  0  0  0  0  0  0  0
   -5.2974   -1.4875   -1.2362 H   0  0  0  0  0  0  0  0  0  0  0  0
   -3.9225   -0.5551   -1.8520 H   0  0  0  0  0  0  0  0  0  0  0  0
   -3.7971   -1.0511    0.2881 C   0  0  1  0  0  0  0  0  0  0  0  0
   -4.5629   -1.1312    1.0960 H   0  0  0  0  0  0  0  0  0  0  0  0
   -3.0662   -2.4276    0.2711 C   0  0  0  0  0  0  0  0  0  0  0  0
   -2.0380   -2.2819   -0.1217 H   0  0  0  0  0  0  0  0  0  0  0  0
   -2.9209   -2.9718    1.6992 C   0  0  0  0  0  0  0  0  0  0  0  0
   -2.4226   -2.2459    2.3704 H   0  0  0  0  0  0  0  0  0  0  0  0
   -2.3070   -3.8951    1.7106 H   0  0  0  0  0  0  0  0  0  0  0  0
   -3.9160   -3.2186    2.1283 H   0  0  0  0  0  0  0  0  0  0  0  0
   -3.7414   -3.4764   -0.6214 C   0  0  0  0  0  0  0  0  0  0  0  0
   -3.7610   -3.1801   -1.6892 H   0  0  0  0  0  0  0  0  0  0  0  0
   -4.7897   -3.6670   -0.3050 H   0  0  0  0  0  0  0  0  0  0  0  0
   -3.1965   -4.4399   -0.5573 H   0  0  0  0  0  0  0  0  0  0  0  0
  1 21  1  0  0  0  0
  1 10  1  0  0  0  0
  2  1  2  0  0  0  0
  3  2  1  0  0  0  0
  4  2  1  0  0  0  0
  4  6  2  0  0  0  0
  5  4  1  0  0  0  0
  6  8  1  0  0  0  0
  7  6  1  0  0  0  0
  8 10  2  0  0  0  0
  8  9  1  0  0  0  0
 10 11  1  0  0  0  0
 11 12  1  0  0  0  0
 12 13  1  0  0  0  0
 12 14  2  0  0  0  0
 14 15  1  0  0  0  0
 16 14  1  0  0  0  0
 16 17  1  0  0  0  0
 18 16  2  0  0  0  0
 19 18  1  0  0  0  0
 20 11  2  0  0  0  0
 20 18  1  0  0  0  0
 21 20  1  0  0  0  0
 22 21  1  0  0  0  0
 22 27  1  0  0  0  0
 23 22  1  0  0  0  0
 24 23  1  0  0  0  0
 25 23  1  0  0  0  0
 26 23  1  0  0  0  0
 27 28  1  0  0  0  0
 27 29  1  0  0  0  0
 30 27  1  0  0  0  0
 31 22  1  1  0  0  0
 31 37  1  0  0  0  0
 32 34  1  0  0  0  0
 32 31  1  0  0  0  0
 33 32  1  0  0  0  0
 34 36  2  0  0  0  0
 35 34  1  0  0  0  0
 36 37  1  0  0  0  0
 36 39  1  0  0  0  0
 37 38  1  0  0  0  0
 39 41  1  0  0  0  0
 39 40  1  1  0  0  0
 41 43  1  0  0  0  0
 41 42  1  0  0  0  0
 44 45  1  6  0  0  0
 44 46  1  0  0  0  0
 44 41  1  0  0  0  0
 46 47  1  0  0  0  0
 46 48  1  0  0  0  0
 49 46  1  0  0  0  0
 50 44  1  0  0  0  0
 50 52  1  0  0  0  0
 51 50  1  0  0  0  0
 53 50  1  0  0  0  0
 53 56  1  0  0  0  0
 54 53  1  0  0  0  0
 55 53  1  0  0  0  0
 56 39  1  0  0  0  0
 56 57  1  1  0  0  0
 58 56  1  0  0  0  0
 58 60  1  0  0  0  0
 59 58  1  0  0  0  0
 60 62  1  0  0  0  0
 60 63  1  0  0  0  0
 60 61  1  0  0  0  0
 64 67  1  0  0  0  0
 64 66  1  0  0  0  0
 64 58  1  0  0  0  0
 65 64  1  0  0  0  0
M  END
