16,18
q = -1.0, confidence = 0.0

 45 48  0  0  1  0  0  0  0  0999 V2000
    1.3841    0.3187   -0.1282 Si  0  0  1  0  0  0  0  0  0  0  0  0
    3.7324    0.4736    0.1914 N   0  0  1  0  0  0  0  0  0  0  0  0
    1.6166    1.9527   -0.5524 O   0  0  0  0  0  0  0  0  0  0  0  0
    2.8790    2.4929   -0.8518 C   0  0  0  0  0  0  0  0  0  0  0  0
    3.9367    1.9218    0.1029 C   0  0  0  0  0  0  0  0  0  0  0  0
    1.9235   -0.8036   -1.2898 O   0  0  0  0  0  0  0  0  0  0  0  0
    3.1995   -1.3906   -1.2655 C   0  0  0  0  0  0  0  0  0  0  0  0
    4.2467   -0.3203   -0.9277 C   0  0  0  0  0  0  0  0  0  0  0  0
    1.4874   -0.0356    1.5308 O   0  0  0  0  0  0  0  0  0  0  0  0
    2.6201    0.1919    2.3267 C   0  0  0  0  0  0  0  0  0  0  0  0
    3.8890   -0.1183    1.5216 C   0  0  0  0  0  0  0  0  0  0  0  0
   -0.4726    0.1292   -0.3413 C   0  0  1  0  0  3  0  0  0  0  0  0
   -1.4399    0.8072    0.6287 C   0  0  2  0  0  0  0  0  0  0  0  0
   -0.9469    0.8439    1.6220 H   0  0  0  0  0  0  0  0  0  0  0  0
   -2.5860   -0.1904    0.7190 C   0  0  0  0  0  3  0  0  0  0  0  0
   -3.1650   -0.6936   -0.4657 C   0  0  0  0  0  3  0  0  0  0  0  0
   -2.3752   -0.7676   -1.6581 C   0  0  0  0  0  3  0  0  0  0  0  0
   -0.9987   -0.3925   -1.5526 C   0  0  0  0  0  3  0  0  0  0  0  0
   -1.8882    2.2253    0.2836 C   0  0  0  0  0  0  0  0  0  0  0  0
   -2.7083    2.9222    1.1958 C   0  0  0  0  0  0  0  0  0  0  0  0
   -3.1664    4.2159    0.9124 C   0  0  0  0  0  0  0  0  0  0  0  0
   -2.8043    4.8411   -0.2927 C   0  0  0  0  0  0  0  0  0  0  0  0
   -1.9802    4.1613   -1.2017 C   0  0  0  0  0  0  0  0  0  0  0  0
   -1.5274    2.8629   -0.9170 C   0  0  0  0  0  0  0  0  0  0  0  0
    3.1592    2.2707   -1.9104 H   0  0  0  0  0  0  0  0  0  0  0  0
    2.8393    3.5994   -0.7559 H   0  0  0  0  0  0  0  0  0  0  0  0
    3.7762    2.3495    1.1127 H   0  0  0  0  0  0  0  0  0  0  0  0
    4.9715    2.1888   -0.2150 H   0  0  0  0  0  0  0  0  0  0  0  0
    3.2322   -2.2224   -0.5219 H   0  0  0  0  0  0  0  0  0  0  0  0
    3.4168   -1.8426   -2.2566 H   0  0  0  0  0  0  0  0  0  0  0  0
    4.3637    0.3550   -1.7989 H   0  0  0  0  0  0  0  0  0  0  0  0
    5.2452   -0.7654   -0.7108 H   0  0  0  0  0  0  0  0  0  0  0  0
    2.6391    1.2489    2.6876 H   0  0  0  0  0  0  0  0  0  0  0  0
    2.5698   -0.4568    3.2273 H   0  0  0  0  0  0  0  0  0  0  0  0
    3.9734   -1.2163    1.3946 H   0  0  0  0  0  0  0  0  0  0  0  0
    4.8102    0.2332    2.0421 H   0  0  0  0  0  0  0  0  0  0  0  0
   -3.1546   -0.2813    1.6571 H   0  0  0  0  0  0  0  0  0  0  0  0
   -4.1667   -1.1502   -0.4531 H   0  0  0  0  0  0  0  0  0  0  0  0
   -2.7841   -1.1879   -2.5864 H   0  0  0  0  0  0  0  0  0  0  0  0
   -0.3154   -0.6421   -2.3790 H   0  0  0  0  0  0  0  0  0  0  0  0
   -2.9912    2.4397    2.1457 H   0  0  0  0  0  0  0  0  0  0  0  0
   -3.8067    4.7424    1.6372 H   0  0  0  0  0  0  0  0  0  0  0  0
   -3.1611    5.8576   -0.5188 H   0  0  0  0  0  0  0  0  0  0  0  0
   -1.6836    4.6463   -2.1448 H   0  0  0  0  0  0  0  0  0  0  0  0
   -0.8639    2.3448   -1.6230 H   0  0  0  0  0  0  0  0  0  0  0  0
  1  6  1  6  0  0  0
  1  9  1  0  0  0  0
  2  8  1  6  0  0  0
  2 11  1  0  0  0  0
  3  1  1  0  0  0  0
  4 26  1  0  0  0  0
  4  3  1  0  0  0  0
  4  5  1  0  0  0  0
  5  2  1  0  0  0  0
  5 27  1  0  0  0  0
  6  7  1  0  0  0  0
  7  8  1  0  0  0  0
  7 29  1  0  0  0  0
  8 32  1  0  0  0  0
  9 10  1  0  0  0  0
 10 33  1  0  0  0  0
 10 34  1  0  0  0  0
 11 36  1  0  0  0  0
 11 10  1  0  0  0  0
 12 18  1  6  0  0  0
 12  1  1  0  0  0  0
 12 13  1  0  0  0  0
 13 15  1  0  0  0  0
 13 14  1  1  0  0  0
 15 37  1  0  0  0  0
 16 38  1  0  0  0  0
 16 15  1  0  0  0  0
 17 18  1  0  0  0  0
 17 16  1  0  0  0  0
 19 13  1  0  0  0  0
 19 20  1  0  0  0  0
 20 41  1  0  0  0  0
 21 20  2  0  0  0  0
 21 42  1  0  0  0  0
 22 21  1  0  0  0  0
 23 24  1  0  0  0  0
 23 22  2  0  0  0  0
 24 19  2  0  0  0  0
 25  4  1  0  0  0  0
 28  5  1  0  0  0  0
 30  7  1  0  0  0  0
 31  8  1  0  0  0  0
 35 11  1  0  0  0  0
 39 17  1  0  0  0  0
 40 18  1  0  0  0  0
 43 22  1  0  0  0  0
 44 23  1  0  0  0  0
 45 24  1  0  0  0  0
M  END
