4,44
q = 0.0, confidence = 0.992

 80 84  0  0  0  0  0  0  0  0999 V2000
   -1.5929   -2.6053    0.2730 N   0  0  0  0  0  0  0  0  0  0  0  0
    0.5269   -2.9756    0.4844 N   0  0  0  0  0  0  0  0  0  0  0  0
    3.3858   -0.8626   -1.4351 N   0  0  0  0  0  0  0  0  0  0  0  0
   -0.3802   -1.9750    0.2699 C   0  0  0  0  0  2  0  0  0  0  0  0
   -1.4476   -3.9693    0.4880 C   0  0  0  0  0  0  0  0  0  0  0  0
   -2.3052   -4.6467    0.5336 H   0  0  0  0  0  0  0  0  0  0  0  0
   -0.1049   -4.2056    0.6145 C   0  0  0  0  0  0  0  0  0  0  0  0
    0.4502   -5.1330    0.7829 H   0  0  0  0  0  0  0  0  0  0  0  0
    1.9772   -2.8082    0.5234 C   0  0  0  0  0  0  0  0  0  0  0  0
    2.3582   -3.4460    1.3456 H   0  0  0  0  0  0  0  0  0  0  0  0
    2.1673   -1.7534    0.7991 H   0  0  0  0  0  0  0  0  0  0  0  0
    2.6597   -3.1604   -0.8032 C   0  0  0  0  0  0  0  0  0  0  0  0
    3.7143   -3.4316   -0.5840 H   0  0  0  0  0  0  0  0  0  0  0  0
    2.1997   -4.0763   -1.2316 H   0  0  0  0  0  0  0  0  0  0  0  0
    2.6130   -2.0363   -1.8439 C   0  0  0  0  0  0  0  0  0  0  0  0
    2.9551   -2.4391   -2.8343 H   0  0  0  0  0  0  0  0  0  0  0  0
    1.5608   -1.7115   -1.9869 H   0  0  0  0  0  0  0  0  0  0  0  0
    3.0049    0.3447   -2.1679 C   0  0  0  0  0  0  0  0  0  0  0  0
    1.8959    0.3739   -2.2228 H   0  0  0  0  0  0  0  0  0  0  0  0
    3.3777    0.3025   -3.2271 H   0  0  0  0  0  0  0  0  0  0  0  0
    3.5194    1.6366   -1.5253 C   0  0  0  0  0  0  0  0  0  0  0  0
    3.3234    2.4811   -2.2198 H   0  0  0  0  0  0  0  0  0  0  0  0
    4.6201    1.5930   -1.4034 H   0  0  0  0  0  0  0  0  0  0  0  0
    2.8928    1.9452   -0.1594 C   0  0  0  0  0  0  0  0  0  0  0  0
    2.7352    1.0232    0.4291 H   0  0  0  0  0  0  0  0  0  0  0  0
    3.5493    2.6098    0.4356 H   0  0  0  0  0  0  0  0  0  0  0  0
    4.8287   -1.0879   -1.4284 C   0  0  0  0  0  0  0  0  0  0  0  0
    5.2953   -0.7629   -2.3947 H   0  0  0  0  0  0  0  0  0  0  0  0
    5.0136   -2.1822   -1.3773 H   0  0  0  0  0  0  0  0  0  0  0  0
    5.5844   -0.4519   -0.2724 C   0  0  0  0  0  0  0  0  0  0  0  0
    5.0211   -0.3868    1.0171 C   0  0  0  0  0  0  0  0  0  0  0  0
    3.9975   -0.7541    1.1790 H   0  0  0  0  0  0  0  0  0  0  0  0
    5.7396    0.1713    2.0849 C   0  0  0  0  0  0  0  0  0  0  0  0
    5.2743    0.2224    3.0813 H   0  0  0  0  0  0  0  0  0  0  0  0
    7.0376    0.6680    1.8836 C   0  0  0  0  0  0  0  0  0  0  0  0
    7.5995    1.1094    2.7209 H   0  0  0  0  0  0  0  0  0  0  0  0
    7.6111    0.6025    0.6037 C   0  0  0  0  0  0  0  0  0  0  0  0
    8.6261    0.9933    0.4325 H   0  0  0  0  0  0  0  0  0  0  0  0
    6.8872    0.0488   -0.4635 C   0  0  0  0  0  0  0  0  0  0  0  0
    7.3361    0.0118   -1.4698 H   0  0  0  0  0  0  0  0  0  0  0  0
    1.5928    2.6053   -0.2729 N   0  0  0  0  0  0  0  0  0  0  0  0
   -0.5269    2.9756   -0.4844 N   0  0  0  0  0  0  0  0  0  0  0  0
   -3.3859    0.8627    1.4352 N   0  0  0  0  0  0  0  0  0  0  0  0
    0.3802    1.9750   -0.2698 C   0  0  0  0  0  2  0  0  0  0  0  0
    1.4475    3.9694   -0.4880 C   0  0  0  0  0  0  0  0  0  0  0  0
    2.3051    4.6468   -0.5336 H   0  0  0  0  0  0  0  0  0  0  0  0
    0.1048    4.2056   -0.6145 C   0  0  0  0  0  0  0  0  0  0  0  0
   -0.4504    5.1330   -0.7829 H   0  0  0  0  0  0  0  0  0  0  0  0
   -1.9773    2.8081   -0.5233 C   0  0  0  0  0  0  0  0  0  0  0  0
   -2.3583    3.4460   -1.3456 H   0  0  0  0  0  0  0  0  0  0  0  0
   -2.1674    1.7534   -0.7990 H   0  0  0  0  0  0  0  0  0  0  0  0
   -2.6598    3.1604    0.8033 C   0  0  0  0  0  0  0  0  0  0  0  0
   -3.7144    3.4316    0.5840 H   0  0  0  0  0  0  0  0  0  0  0  0
   -2.1998    4.0764    1.2316 H   0  0  0  0  0  0  0  0  0  0  0  0
   -2.6131    2.0364    1.8439 C   0  0  0  0  0  0  0  0  0  0  0  0
   -2.9552    2.4392    2.8343 H   0  0  0  0  0  0  0  0  0  0  0  0
   -1.5609    1.7116    1.9871 H   0  0  0  0  0  0  0  0  0  0  0  0
   -3.0050   -0.3446    2.1680 C   0  0  0  0  0  0  0  0  0  0  0  0
   -1.8960   -0.3739    2.2230 H   0  0  0  0  0  0  0  0  0  0  0  0
   -3.3779   -0.3024    3.2272 H   0  0  0  0  0  0  0  0  0  0  0  0
   -3.5195   -1.6366    1.5254 C   0  0  0  0  0  0  0  0  0  0  0  0
   -3.3235   -2.4811    2.2199 H   0  0  0  0  0  0  0  0  0  0  0  0
   -4.6202   -1.5929    1.4035 H   0  0  0  0  0  0  0  0  0  0  0  0
   -2.8928   -1.9452    0.1595 C   0  0  0  0  0  0  0  0  0  0  0  0
   -2.7353   -1.0231   -0.4290 H   0  0  0  0  0  0  0  0  0  0  0  0
   -3.5493   -2.6098   -0.4356 H   0  0  0  0  0  0  0  0  0  0  0  0
   -4.8287    1.0879    1.4283 C   0  0  0  0  0  0  0  0  0  0  0  0
   -5.2955    0.7629    2.3946 H   0  0  0  0  0  0  0  0  0  0  0  0
   -5.0136    2.1822    1.3771 H   0  0  0  0  0  0  0  0  0  0  0  0
   -5.5843    0.4519    0.2723 C   0  0  0  0  0  0  0  0  0  0  0  0
   -5.0209    0.3867   -1.0172 C   0  0  0  0  0  0  0  0  0  0  0  0
   -3.9973    0.7539   -1.1789 H   0  0  0  0  0  0  0  0  0  0  0  0
   -5.7392   -0.1715   -2.0850 C   0  0  0  0  0  0  0  0  0  0  0  0
   -5.2738   -0.2227   -3.0814 H   0  0  0  0  0  0  0  0  0  0  0  0
   -7.0373   -0.6682   -1.8838 C   0  0  0  0  0  0  0  0  0  0  0  0
   -7.5991   -1.1096   -2.7211 H   0  0  0  0  0  0  0  0  0  0  0  0
   -7.6109   -0.6026   -0.6040 C   0  0  0  0  0  0  0  0  0  0  0  0
   -8.6259   -0.9934   -0.4329 H   0  0  0  0  0  0  0  0  0  0  0  0
   -6.8872   -0.0488    0.4633 C   0  0  0  0  0  0  0  0  0  0  0  0
   -7.3362   -0.0117    1.4695 H   0  0  0  0  0  0  0  0  0  0  0  0
  1  5  1  0  0  0  0
  2  9  1  0  0  0  0
  2  7  1  0  0  0  0
  3 27  1  0  0  0  0
  4  1  1  0  0  0  0
  4  2  1  0  0  0  0
  5  6  1  0  0  0  0
  5  7  2  0  0  0  0
  7  8  1  0  0  0  0
  9 11  1  0  0  0  0
  9 10  1  0  0  0  0
 12 13  1  0  0  0  0
 12  9  1  0  0  0  0
 14 12  1  0  0  0  0
 15  3  1  0  0  0  0
 15 12  1  0  0  0  0
 16 15  1  0  0  0  0
 17 15  1  0  0  0  0
 18 21  1  0  0  0  0
 18  3  1  0  0  0  0
 19 18  1  0  0  0  0
 20 18  1  0  0  0  0
 21 23  1  0  0  0  0
 21 24  1  0  0  0  0
 22 21  1  0  0  0  0
 24 25  1  0  0  0  0
 24 26  1  0  0  0  0
 27 29  1  0  0  0  0
 27 30  1  0  0  0  0
 28 27  1  0  0  0  0
 30 31  1  0  0  0  0
 31 32  1  0  0  0  0
 31 33  2  0  0  0  0
 33 34  1  0  0  0  0
 35 33  1  0  0  0  0
 35 36  1  0  0  0  0
 37 35  2  0  0  0  0
 38 37  1  0  0  0  0
 39 30  2  0  0  0  0
 39 37  1  0  0  0  0
 40 39  1  0  0  0  0
 41 44  1  0  0  0  0
 41 24  1  0  0  0  0
 42 44  1  0  0  0  0
 43 55  1  0  0  0  0
 43 58  1  0  0  0  0
 45 41  1  0  0  0  0
 46 45  1  0  0  0  0
 47 45  2  0  0  0  0
 47 42  1  0  0  0  0
 48 47  1  0  0  0  0
 49 42  1  0  0  0  0
 49 52  1  0  0  0  0
 50 49  1  0  0  0  0
 51 49  1  0  0  0  0
 52 54  1  0  0  0  0
 52 55  1  0  0  0  0
 53 52  1  0  0  0  0
 55 57  1  0  0  0  0
 55 56  1  0  0  0  0
 58 59  1  0  0  0  0
 58 60  1  0  0  0  0
 61 58  1  0  0  0  0
 61 62  1  0  0  0  0
 63 61  1  0  0  0  0
 64  1  1  0  0  0  0
 64 61  1  0  0  0  0
 65 64  1  0  0  0  0
 66 64  1  0  0  0  0
 67 43  1  0  0  0  0
 67 68  1  0  0  0  0
 69 67  1  0  0  0  0
 70 79  1  0  0  0  0
 70 67  1  0  0  0  0
 71 70  2  0  0  0  0
 72 71  1  0  0  0  0
 73 75  2  0  0  0  0
 73 71  1  0  0  0  0
 74 73  1  0  0  0  0
 75 77  1  0  0  0  0
 76 75  1  0  0  0  0
 77 78  1  0  0  0  0
 77 79  2  0  0  0  0
 79 80  1  0  0  0  0
M  END
