7
q = 0.0, confidence = 0.992

 28 32  0  0  1  0  0  0  0  0999 V2000
    2.0199   -1.5183    0.0726 C   0  0  0  0  0  0  0  0  0  0  0  0
    2.7019   -2.4796   -0.6580 C   0  0  0  0  0  0  0  0  0  0  0  0
    4.1179   -2.3995   -0.6052 C   0  0  0  0  0  0  0  0  0  0  0  0
    4.7809   -1.4024    0.1307 C   0  0  0  0  0  0  0  0  0  0  0  0
    4.0780   -0.4128    0.8667 C   0  0  0  0  0  0  0  0  0  0  0  0
    2.6946   -0.5005    0.8216 C   0  0  0  0  0  0  0  0  0  0  0  0
    1.3847    0.0932    1.2452 C   0  0  2  0  0  3  0  0  0  0  0  0
    0.7279    1.0867    1.9861 C   0  0  0  0  0  0  0  0  0  0  0  0
   -0.7278    1.0867    1.9860 C   0  0  0  0  0  0  0  0  0  0  0  0
   -1.3848    0.0932    1.2453 C   0  0  2  0  0  3  0  0  0  0  0  0
   -2.6946   -0.5004    0.8217 C   0  0  0  0  0  0  0  0  0  0  0  0
   -4.0781   -0.4128    0.8668 C   0  0  0  0  0  0  0  0  0  0  0  0
   -4.7809   -1.4024    0.1308 C   0  0  0  0  0  0  0  0  0  0  0  0
   -4.1179   -2.3995   -0.6052 C   0  0  0  0  0  0  0  0  0  0  0  0
   -2.7019   -2.4795   -0.6580 C   0  0  0  0  0  0  0  0  0  0  0  0
   -2.0200   -1.5182    0.0726 C   0  0  0  0  0  0  0  0  0  0  0  0
   -0.6919   -0.9615    0.4746 C   0  0  0  0  0  0  0  0  0  0  0  0
    0.6919   -0.9616    0.4745 C   0  0  0  0  0  0  0  0  0  0  0  0
    2.1968   -3.2615   -1.2430 H   0  0  0  0  0  0  0  0  0  0  0  0
    4.7165   -3.1387   -1.1585 H   0  0  0  0  0  0  0  0  0  0  0  0
    5.8814   -1.3878    0.1331 H   0  0  0  0  0  0  0  0  0  0  0  0
    4.6147    0.3642    1.4300 H   0  0  0  0  0  0  0  0  0  0  0  0
    1.2772    1.8744    2.5192 H   0  0  0  0  0  0  0  0  0  0  0  0
   -1.2770    1.8745    2.5191 H   0  0  0  0  0  0  0  0  0  0  0  0
   -4.6147    0.3641    1.4302 H   0  0  0  0  0  0  0  0  0  0  0  0
   -5.8814   -1.3878    0.1333 H   0  0  0  0  0  0  0  0  0  0  0  0
   -4.7165   -3.1387   -1.1585 H   0  0  0  0  0  0  0  0  0  0  0  0
   -2.1968   -3.2614   -1.2431 H   0  0  0  0  0  0  0  0  0  0  0  0
  1 18  1  0  0  0  0
  1  6  1  0  0  0  0
  2  3  1  0  0  0  0
  2  1  2  0  0  0  0
  3  4  2  0  0  0  0
  4 21  1  0  0  0  0
  4  5  1  0  0  0  0
  5 22  1  0  0  0  0
  6  5  2  0  0  0  0
  6  7  1  0  0  0  0
  7 18  1  1  0  0  0
  7  8  1  0  0  0  0
  8 23  1  0  0  0  0
  9  8  2  0  0  0  0
  9 24  1  0  0  0  0
 10 17  1  1  0  0  0
 10  9  1  0  0  0  0
 11 12  1  0  0  0  0
 11 10  1  0  0  0  0
 12 25  1  0  0  0  0
 13 26  1  0  0  0  0
 13 12  2  0  0  0  0
 14 13  1  0  0  0  0
 15 14  2  0  0  0  0
 15 16  1  0  0  0  0
 16 17  1  0  0  0  0
 16 11  2  0  0  0  0
 18 17  2  0  0  0  0
 19  2  1  0  0  0  0
 20  3  1  0  0  0  0
 27 14  1  0  0  0  0
 28 15  1  0  0  0  0
M  END
