4,11
q = -1

 24 24  0  0  1  0  0  0  0  0999 V2000
   -0.7081   -2.4656    0.1336 O   0  0  0  0  0  0  0  0  0  0  0  0
    0.2158    2.4678   -0.6715 O   0  0  0  0  0  0  0  0  0  0  0  0
    1.4732    3.0427   -0.3042 C   0  0  0  0  0  0  0  0  0  0  0  0
   -0.0407    1.1819   -0.4494 C   0  0  0  0  0  2  0  0  0  0  0  0
   -1.5045    0.9159   -0.7444 C   0  0  2  0  0  0  0  0  0  0  0  0
   -2.3737    1.3220    0.4753 C   0  0  0  0  0  0  0  0  0  0  0  0
   -3.8030    0.7838    0.3625 C   0  0  0  0  0  0  0  0  0  0  0  0
   -3.7951   -0.7426    0.2233 C   0  0  0  0  0  0  0  0  0  0  0  0
   -3.0195   -1.1751   -1.0251 C   0  0  0  0  0  0  0  0  0  0  0  0
   -1.6091   -0.5774   -1.0741 C   0  0  2  0  0  0  0  0  0  0  0  0
   -0.5638   -1.3057   -0.2006 C   0  0  0  0  0  3  0  0  0  0  0  0
    1.8267    2.6021    0.6483 H   0  0  0  0  0  0  0  0  0  0  0  0
    2.2269    2.8616   -1.0961 H   0  0  0  0  0  0  0  0  0  0  0  0
    1.2982    4.1300   -0.2048 H   0  0  0  0  0  0  0  0  0  0  0  0
   -1.8171    1.5454   -1.6067 H   0  0  0  0  0  0  0  0  0  0  0  0
   -2.3579    2.4268    0.5719 H   0  0  0  0  0  0  0  0  0  0  0  0
   -1.9167    0.9171    1.4023 H   0  0  0  0  0  0  0  0  0  0  0  0
   -4.3871    1.0943    1.2541 H   0  0  0  0  0  0  0  0  0  0  0  0
   -4.3088    1.2366   -0.5204 H   0  0  0  0  0  0  0  0  0  0  0  0
   -3.3201   -1.1906    1.1237 H   0  0  0  0  0  0  0  0  0  0  0  0
   -4.8313   -1.1380    0.1838 H   0  0  0  0  0  0  0  0  0  0  0  0
   -3.5800   -0.8582   -1.9320 H   0  0  0  0  0  0  0  0  0  0  0  0
   -2.9250   -2.2794   -1.0648 H   0  0  0  0  0  0  0  0  0  0  0  0
   -1.1910   -0.7201   -2.0978 H   0  0  0  0  0  0  0  0  0  0  0  0
  2  4  1  0  0  0  0
  2  3  1  0  0  0  0
  3 14  1  0  0  0  0
  3 12  1  0  0  0  0
  5 15  1  6  0  0  0
  5  4  1  0  0  0  0
  5  6  1  0  0  0  0
  6 16  1  0  0  0  0
  6 17  1  0  0  0  0
  7  6  1  0  0  0  0
  7 18  1  0  0  0  0
  8  7  1  0  0  0  0
  8 20  1  0  0  0  0
  9  8  1  0  0  0  0
 10 24  1  6  0  0  0
 10  9  1  0  0  0  0
 10  5  1  0  0  0  0
 10 11  1  0  0  0  0
 11  1  2  0  0  0  0
 13  3  1  0  0  0  0
 19  7  1  0  0  0  0
 21  8  1  0  0  0  0
 22  9  1  0  0  0  0
 23  9  1  0  0  0  0
M  END
