6,18
q = -1.0

 35 35  0  0  0  0  0  0  0  0999 V2000
    0.6015    2.6349    1.1400 O   0  0  0  0  0  0  0  0  0  0  0  0
    2.0089    3.0151   -0.5904 O   0  0  0  0  0  0  0  0  0  0  0  0
    5.0875    1.3360   -0.3010 O   0  0  0  0  0  0  0  0  0  0  0  0
    3.7305    1.9485    1.4021 O   0  0  0  0  0  0  0  0  0  0  0  0
    0.4259   -2.8897    1.0277 O   0  0  0  0  0  0  0  0  0  0  0  0
    1.5979    0.7444   -0.0268 C   0  0  0  0  0  3  0  0  0  0  0  0
    2.8993    0.2825   -0.0453 C   0  0  0  0  0  0  0  0  0  0  0  0
    3.2377   -1.1245   -0.3225 C   0  0  0  0  0  0  0  0  0  0  0  0
    4.5437   -1.4986   -0.7299 C   0  0  0  0  0  0  0  0  0  0  0  0
    5.2790   -0.7016   -0.8983 H   0  0  0  0  0  0  0  0  0  0  0  0
    4.8960   -2.8351   -0.9365 C   0  0  0  0  0  0  0  0  0  0  0  0
    5.9141   -3.0772   -1.2788 H   0  0  0  0  0  0  0  0  0  0  0  0
    3.9630   -3.8625   -0.7130 C   0  0  0  0  0  0  0  0  0  0  0  0
    4.2365   -4.9161   -0.8739 H   0  0  0  0  0  0  0  0  0  0  0  0
    2.6780   -3.5257   -0.2858 C   0  0  0  0  0  0  0  0  0  0  0  0
    1.9322   -4.3099   -0.0947 H   0  0  0  0  0  0  0  0  0  0  0  0
    2.2860   -2.1760   -0.1101 C   0  0  0  0  0  0  0  0  0  0  0  0
    0.8904   -1.8909    0.2661 C   0  0  0  0  0  2  0  0  0  0  0  0
    1.3405    2.1934    0.2777 C   0  0  0  0  0  0  0  0  0  0  0  0
    1.7566    4.4104   -0.4100 C   0  0  0  0  0  0  0  0  0  0  0  0
    0.6769    4.6321   -0.5381 H   0  0  0  0  0  0  0  0  0  0  0  0
    2.3537    4.9316   -1.1801 H   0  0  0  0  0  0  0  0  0  0  0  0
    2.0590    4.7402    0.6049 H   0  0  0  0  0  0  0  0  0  0  0  0
    4.0230    1.2153    0.2846 C   0  0  0  0  0  0  0  0  0  0  0  0
    4.6794    2.9659    1.7268 C   0  0  0  0  0  0  0  0  0  0  0  0
    5.6844    2.5310    1.9002 H   0  0  0  0  0  0  0  0  0  0  0  0
    4.3030    3.4540    2.6436 H   0  0  0  0  0  0  0  0  0  0  0  0
    4.7616    3.7033    0.9018 H   0  0  0  0  0  0  0  0  0  0  0  0
   -0.9204   -2.9924    1.5487 C   0  0  0  0  0  0  0  0  0  0  0  0
   -1.4538   -2.0396    1.4014 H   0  0  0  0  0  0  0  0  0  0  0  0
   -1.4284   -3.7771    0.9506 H   0  0  0  0  0  0  0  0  0  0  0  0
   -0.8393   -3.3791    3.0123 C   0  0  0  0  0  0  0  0  0  0  0  0
   -0.2422   -4.3019    3.1531 H   0  0  0  0  0  0  0  0  0  0  0  0
   -1.8606   -3.5611    3.4025 H   0  0  0  0  0  0  0  0  0  0  0  0
   -0.3853   -2.5667    3.6121 H   0  0  0  0  0  0  0  0  0  0  0  0
  2 20  1  0  0  0  0
  2 19  1  0  0  0  0
  3 24  2  0  0  0  0
  4 25  1  0  0  0  0
  5 29  1  0  0  0  0
  6 19  1  0  0  0  0
  7  6  2  0  0  0  0
  7 24  1  0  0  0  0
  8 17  1  0  0  0  0
  8  7  1  0  0  0  0
  9  8  2  0  0  0  0
 10  9  1  0  0  0  0
 11  9  1  0  0  0  0
 11 13  2  0  0  0  0
 12 11  1  0  0  0  0
 13 15  1  0  0  0  0
 14 13  1  0  0  0  0
 15 17  2  0  0  0  0
 15 16  1  0  0  0  0
 17 18  1  0  0  0  0
 18  5  1  0  0  0  0
 19  1  2  0  0  0  0
 20 23  1  0  0  0  0
 21 20  1  0  0  0  0
 22 20  1  0  0  0  0
 24  4  1  0  0  0  0
 25 26  1  0  0  0  0
 25 27  1  0  0  0  0
 28 25  1  0  0  0  0
 29 32  1  0  0  0  0
 30 29  1  0  0  0  0
 31 29  1  0  0  0  0
 32 33  1  0  0  0  0
 32 34  1  0  0  0  0
 32 35  1  0  0  0  0
M  END
