1
q = -1.0

 51 53  0  0  1  0  0  0  0  0999 V2000
    0.3228    1.2606   -0.8251 C   0  0  0  0  0  2  0  0  0  0  0  0
    0.0507    1.6939   -2.1046 N   0  0  0  0  0  0  0  0  0  0  0  0
    1.4503    1.9922   -0.4567 N   0  0  0  0  0  0  0  0  0  0  0  0
   -0.9935    1.2421   -3.0186 C   0  0  0  0  0  0  0  0  0  0  0  0
   -1.3089    0.2210   -2.7453 H   0  0  0  0  0  0  0  0  0  0  0  0
   -0.5674    1.2277   -4.0404 H   0  0  0  0  0  0  0  0  0  0  0  0
   -1.8683    1.9167   -2.9747 H   0  0  0  0  0  0  0  0  0  0  0  0
    0.9557    2.6602   -2.5115 C   0  0  0  0  0  0  0  0  0  0  0  0
    0.8902    3.1355   -3.4940 H   0  0  0  0  0  0  0  0  0  0  0  0
    1.8366    2.8442   -1.4910 C   0  0  0  0  0  0  0  0  0  0  0  0
    2.7080    3.4958   -1.4319 H   0  0  0  0  0  0  0  0  0  0  0  0
    2.3992    1.7158    0.6540 C   0  0  2  0  0  0  0  0  0  0  0  0
    1.6652    1.3758    1.9870 C   0  0  0  0  0  0  0  0  0  0  0  0
    2.4580    1.0567    2.6946 H   0  0  0  0  0  0  0  0  0  0  0  0
    1.2619    2.3280    2.3837 H   0  0  0  0  0  0  0  0  0  0  0  0
    3.1963    3.0084    0.9527 C   0  0  0  0  0  0  0  0  0  0  0  0
    3.9612    3.2225    0.1838 H   0  0  0  0  0  0  0  0  0  0  0  0
    3.7280    2.8997    1.9155 H   0  0  0  0  0  0  0  0  0  0  0  0
    2.5104    3.8731    1.0442 H   0  0  0  0  0  0  0  0  0  0  0  0
   -1.5716   -0.5489    2.3952 C   0  0  0  0  0  0  0  0  0  0  0  0
   -0.6985   -1.6116    2.0438 C   0  0  0  0  0  0  0  0  0  0  0  0
    0.6399   -1.0662    1.8088 C   0  0  1  0  0  3  0  0  0  0  0  0
    0.5591    0.3692    2.0040 C   0  0  1  0  0  3  0  0  0  0  0  0
   -0.8207    0.7062    2.3283 C   0  0  2  0  0  3  0  0  0  0  0  0
   -1.3685    2.0379    2.7310 C   0  0  0  0  0  0  0  0  0  0  0  0
   -1.4363    2.1231    3.8376 H   0  0  0  0  0  0  0  0  0  0  0  0
   -2.3834    2.1785    2.3095 H   0  0  0  0  0  0  0  0  0  0  0  0
   -0.7431    2.8714    2.3587 H   0  0  0  0  0  0  0  0  0  0  0  0
   -2.9907   -0.6637    2.8415 C   0  0  0  0  0  0  0  0  0  0  0  0
   -3.4048   -1.6676    2.6353 H   0  0  0  0  0  0  0  0  0  0  0  0
   -3.6327    0.0785    2.3258 H   0  0  0  0  0  0  0  0  0  0  0  0
   -3.0547   -0.4792    3.9356 H   0  0  0  0  0  0  0  0  0  0  0  0
   -1.0215   -3.0689    1.9950 C   0  0  0  0  0  0  0  0  0  0  0  0
   -0.5695   -3.5960    2.8628 H   0  0  0  0  0  0  0  0  0  0  0  0
   -0.6205   -3.5274    1.0686 H   0  0  0  0  0  0  0  0  0  0  0  0
   -2.1125   -3.2466    2.0147 H   0  0  0  0  0  0  0  0  0  0  0  0
    1.8410   -1.9430    1.6507 C   0  0  0  0  0  0  0  0  0  0  0  0
    1.8062   -2.4930    0.6877 H   0  0  0  0  0  0  0  0  0  0  0  0
    1.8555   -2.6997    2.4634 H   0  0  0  0  0  0  0  0  0  0  0  0
    2.7876   -1.3788    1.6871 H   0  0  0  0  0  0  0  0  0  0  0  0
    3.3707    0.6001    0.2207 C   0  0  0  0  0  0  0  0  0  0  0  0
    3.1217   -0.2223   -0.8928 C   0  0  0  0  0  0  0  0  0  0  0  0
    2.2060   -0.1034   -1.4869 H   0  0  0  0  0  0  0  0  0  0  0  0
    4.0078   -1.2562   -1.2332 C   0  0  0  0  0  0  0  0  0  0  0  0
    3.7695   -1.8986   -2.0940 H   0  0  0  0  0  0  0  0  0  0  0  0
    5.1643   -1.4813   -0.4747 C   0  0  0  0  0  0  0  0  0  0  0  0
    5.8560   -2.2947   -0.7408 H   0  0  0  0  0  0  0  0  0  0  0  0
    5.4300   -0.6599    0.6329 C   0  0  0  0  0  0  0  0  0  0  0  0
    6.3342   -0.8221    1.2392 H   0  0  0  0  0  0  0  0  0  0  0  0
    4.5423    0.3697    0.9748 C   0  0  0  0  0  0  0  0  0  0  0  0
    4.7681    0.9908    1.8547 H   0  0  0  0  0  0  0  0  0  0  0  0
  1  3  1  0  0  0  0
  2  1  1  0  0  0  0
  3 12  1  0  0  0  0
  4  7  1  0  0  0  0
  4  5  1  0  0  0  0
  4  2  1  0  0  0  0
  6  4  1  0  0  0  0
  8  2  1  0  0  0  0
  8 10  2  0  0  0  0
  9  8  1  0  0  0  0
 10 11  1  0  0  0  0
 10  3  1  0  0  0  0
 12 16  1  1  0  0  0
 12 13  1  0  0  0  0
 13 15  1  0  0  0  0
 13 14  1  0  0  0  0
 16 19  1  0  0  0  0
 16 18  1  0  0  0  0
 17 16  1  0  0  0  0
 20 29  1  0  0  0  0
 21 20  2  0  0  0  0
 22 37  1  1  0  0  0
 22 23  1  0  0  0  0
 22 21  1  0  0  0  0
 23 13  1  1  0  0  0
 23 24  1  0  0  0  0
 24 20  1  0  0  0  0
 24 25  1  1  0  0  0
 25 26  1  0  0  0  0
 27 25  1  0  0  0  0
 28 25  1  0  0  0  0
 29 32  1  0  0  0  0
 30 29  1  0  0  0  0
 31 29  1  0  0  0  0
 33 36  1  0  0  0  0
 33 21  1  0  0  0  0
 33 34  1  0  0  0  0
 35 33  1  0  0  0  0
 37 40  1  0  0  0  0
 37 39  1  0  0  0  0
 38 37  1  0  0  0  0
 41 12  1  0  0  0  0
 41 50  1  0  0  0  0
 42 41  2  0  0  0  0
 43 42  1  0  0  0  0
 44 42  1  0  0  0  0
 44 46  2  0  0  0  0
 45 44  1  0  0  0  0
 46 48  1  0  0  0  0
 47 46  1  0  0  0  0
 48 50  2  0  0  0  0
 48 49  1  0  0  0  0
 50 51  1  0  0  0  0
M  END
