2,13
q = -2.0, confidence = 0.94

 64 65  0  0  1  0  0  0  0  0999 V2000
   -0.8830    2.6067    0.9219 Si  0  0  0  0  0  0  0  0  0  0  0  0
   -2.3581    1.5497    0.3659 C   0  0  2  0  0  3  0  0  0  0  0  0
   -2.9553    0.4950    1.1503 C   0  0  2  0  0  3  0  0  0  0  0  0
   -3.6965   -0.3686    0.2707 C   0  0  0  0  0  0  0  0  0  0  0  0
   -3.5512    0.1277   -1.0596 C   0  0  0  0  0  0  0  0  0  0  0  0
   -2.7059    1.2872   -1.0158 C   0  0  1  0  0  3  0  0  0  0  0  0
    0.4110    1.3470    0.3806 C   0  0  1  0  0  3  0  0  0  0  0  0
    0.8603    0.2063    1.1253 C   0  0  0  0  0  3  0  0  0  0  0  0
    0.7751    0.0843    2.2123 H   0  0  0  0  0  0  0  0  0  0  0  0
    1.4554   -0.7525    0.2387 C   0  0  0  0  0  0  0  0  0  0  0  0
    1.3229   -0.2221   -1.0766 C   0  0  0  0  0  0  0  0  0  0  0  0
    1.6573   -0.7084   -2.0000 H   0  0  0  0  0  0  0  0  0  0  0  0
    0.6799    1.0456   -1.0000 C   0  0  0  0  0  3  0  0  0  0  0  0
    0.4401    1.6834   -1.8606 H   0  0  0  0  0  0  0  0  0  0  0  0
   -0.8132    2.9325    2.7777 C   0  0  0  0  0  0  0  0  0  0  0  0
    0.0582    3.5846    2.9926 H   0  0  0  0  0  0  0  0  0  0  0  0
   -0.7033    2.0099    3.3771 H   0  0  0  0  0  0  0  0  0  0  0  0
   -1.7256    3.4587    3.1245 H   0  0  0  0  0  0  0  0  0  0  0  0
   -0.6962    4.2532    0.0157 C   0  0  0  0  0  0  0  0  0  0  0  0
   -1.6490    4.8207    0.0182 H   0  0  0  0  0  0  0  0  0  0  0  0
   -0.3696    4.1348   -1.0353 H   0  0  0  0  0  0  0  0  0  0  0  0
    0.0694    4.8664    0.5337 H   0  0  0  0  0  0  0  0  0  0  0  0
    2.2784   -1.9836    0.6023 C   0  0  0  0  0  0  0  0  0  0  0  0
    2.1546   -2.3198    2.0978 C   0  0  0  0  0  0  0  0  0  0  0  0
    2.4912   -1.4838    2.7425 H   0  0  0  0  0  0  0  0  0  0  0  0
    2.7828   -3.2011    2.3392 H   0  0  0  0  0  0  0  0  0  0  0  0
    1.1063   -2.5595    2.3603 H   0  0  0  0  0  0  0  0  0  0  0  0
    1.8460   -3.2041   -0.2359 C   0  0  0  0  0  0  0  0  0  0  0  0
    0.8057   -3.4969    0.0015 H   0  0  0  0  0  0  0  0  0  0  0  0
    2.5115   -4.0656   -0.0232 H   0  0  0  0  0  0  0  0  0  0  0  0
    1.9031   -2.9945   -1.3226 H   0  0  0  0  0  0  0  0  0  0  0  0
    3.7601   -1.6536    0.2425 C   0  0  0  0  0  0  0  0  0  0  0  0
    4.3794   -2.5499    0.4673 H   0  0  0  0  0  0  0  0  0  0  0  0
    3.8270   -1.5059   -0.8566 H   0  0  0  0  0  0  0  0  0  0  0  0
    4.3624   -0.4168    0.9350 C   0  0  0  0  0  0  0  0  0  0  0  0
    3.6591    0.4343    0.8263 H   0  0  0  0  0  0  0  0  0  0  0  0
    4.4466   -0.6077    2.0261 H   0  0  0  0  0  0  0  0  0  0  0  0
    5.7155   -0.0511    0.3899 C   0  0  0  0  0  0  0  0  0  0  0  0
    6.5694   -0.6396    0.7735 H   0  0  0  0  0  0  0  0  0  0  0  0
    5.9831    0.8837   -0.5542 C   0  0  0  0  0  0  0  0  0  0  0  0
    7.3915    1.1260   -1.0345 C   0  0  0  0  0  0  0  0  0  0  0  0
    8.1230    0.4666   -0.5279 H   0  0  0  0  0  0  0  0  0  0  0  0
    7.6988    2.1811   -0.8607 H   0  0  0  0  0  0  0  0  0  0  0  0
    7.4762    0.9582   -2.1310 H   0  0  0  0  0  0  0  0  0  0  0  0
    4.9318    1.7461   -1.2063 C   0  0  0  0  0  0  0  0  0  0  0  0
    3.9083    1.5502   -0.8352 H   0  0  0  0  0  0  0  0  0  0  0  0
    4.9263    1.5865   -2.3070 H   0  0  0  0  0  0  0  0  0  0  0  0
    5.1545    2.8253   -1.0550 H   0  0  0  0  0  0  0  0  0  0  0  0
   -2.9155    0.3390    2.6471 C   0  0  0  0  0  0  0  0  0  0  0  0
   -3.4774   -0.5591    2.9611 H   0  0  0  0  0  0  0  0  0  0  0  0
   -3.3682    1.2198    3.1468 H   0  0  0  0  0  0  0  0  0  0  0  0
   -1.8887    0.2241    3.0449 H   0  0  0  0  0  0  0  0  0  0  0  0
   -4.5414   -1.5288    0.6980 C   0  0  0  0  0  0  0  0  0  0  0  0
   -5.4701   -1.1785    1.1966 H   0  0  0  0  0  0  0  0  0  0  0  0
   -3.9961   -2.1827    1.4070 H   0  0  0  0  0  0  0  0  0  0  0  0
   -4.8383   -2.1530   -0.1658 H   0  0  0  0  0  0  0  0  0  0  0  0
   -4.2441   -0.3736   -2.2866 C   0  0  0  0  0  0  0  0  0  0  0  0
   -4.6936   -1.3714   -2.1267 H   0  0  0  0  0  0  0  0  0  0  0  0
   -3.5444   -0.4607   -3.1410 H   0  0  0  0  0  0  0  0  0  0  0  0
   -5.0579    0.3237   -2.5812 H   0  0  0  0  0  0  0  0  0  0  0  0
   -2.4160    2.1206   -2.2341 C   0  0  0  0  0  0  0  0  0  0  0  0
   -2.0826    1.4944   -3.0862 H   0  0  0  0  0  0  0  0  0  0  0  0
   -1.6470    2.8901   -2.0504 H   0  0  0  0  0  0  0  0  0  0  0  0
   -3.3355    2.6513   -2.5636 H   0  0  0  0  0  0  0  0  0  0  0  0
  1 15  1  0  0  0  0
  2  1  1  6  0  0  0
  2  3  1  0  0  0  0
  3 49  1  1  0  0  0
  4 53  1  0  0  0  0
  4  3  1  0  0  0  0
  5  6  1  0  0  0  0
  5  4  2  0  0  0  0
  6 61  1  1  0  0  0
  6  2  1  0  0  0  0
  7  1  1  6  0  0  0
  7  8  1  0  0  0  0
  8  9  1  0  0  0  0
 10 23  1  0  0  0  0
 10  8  1  0  0  0  0
 11 13  1  0  0  0  0
 11 10  2  0  0  0  0
 12 11  1  0  0  0  0
 13  7  1  0  0  0  0
 14 13  1  0  0  0  0
 15 16  1  0  0  0  0
 15 18  1  0  0  0  0
 15 17  1  0  0  0  0
 19 20  1  0  0  0  0
 19 22  1  0  0  0  0
 19  1  1  0  0  0  0
 21 19  1  0  0  0  0
 23 24  1  0  0  0  0
 24 26  1  0  0  0  0
 24 27  1  0  0  0  0
 24 25  1  0  0  0  0
 28 30  1  0  0  0  0
 28 29  1  0  0  0  0
 28 23  1  0  0  0  0
 31 28  1  0  0  0  0
 32 33  1  0  0  0  0
 32 23  1  0  0  0  0
 32 35  1  0  0  0  0
 34 32  1  0  0  0  0
 35 37  1  0  0  0  0
 36 35  1  0  0  0  0
 38 39  1  0  0  0  0
 38 35  1  0  0  0  0
 40 38  2  0  0  0  0
 41 43  1  0  0  0  0
 41 40  1  0  0  0  0
 41 42  1  0  0  0  0
 44 41  1  0  0  0  0
 45 48  1  0  0  0  0
 45 46  1  0  0  0  0
 45 40  1  0  0  0  0
 47 45  1  0  0  0  0
 49 50  1  0  0  0  0
 49 52  1  0  0  0  0
 49 51  1  0  0  0  0
 53 54  1  0  0  0  0
 53 55  1  0  0  0  0
 56 53  1  0  0  0  0
 57 58  1  0  0  0  0
 57  5  1  0  0  0  0
 59 57  1  0  0  0  0
 60 57  1  0  0  0  0
 61 63  1  0  0  0  0
 62 61  1  0  0  0  0
 64 61  1  0  0  0  0
M  END
