5,10
q = 0.0, confidence = 0.556

 12 11  0  0  0  0  0  0  0  0999 V2000
   -2.2219    2.4667    0.7551 F   0  0  0  0  0  0  0  0  0  0  0  0
   -2.4574    2.4292   -1.4510 F   0  0  0  0  0  0  0  0  0  0  0  0
   -0.2004    4.1766    0.6294 F   0  0  0  0  0  0  0  0  0  0  0  0
   -1.7934    4.8956   -0.7039 F   0  0  0  0  0  0  0  0  0  0  0  0
   -1.5104    2.5036   -0.4429 C   0  0  0  0  0  3  0  0  0  0  0  0
   -0.8601    3.9039   -0.5604 C   0  0  0  0  0  0  0  0  0  0  0  0
    0.1264    3.8173   -1.6980 C   0  0  0  0  0  0  0  0  0  0  0  0
    0.7283    4.7495   -1.7500 H   0  0  0  0  0  0  0  0  0  0  0  0
   -0.4713    3.7430   -2.6289 H   0  0  0  0  0  0  0  0  0  0  0  0
    0.9394    2.5458   -1.4516 C   0  0  0  0  0  3  0  0  0  0  0  0
    1.8588    2.7719   -0.8723 H   0  0  0  0  0  0  0  0  0  0  0  0
    1.2631    2.0647   -2.3981 H   0  0  0  0  0  0  0  0  0  0  0  0
  2  5  1  0  0  0  0
  4  6  1  0  0  0  0
  5  1  1  0  0  0  0
  6  5  1  0  0  0  0
  6  3  1  0  0  0  0
  7 10  1  0  0  0  0
  7  6  1  0  0  0  0
  8  7  1  0  0  0  0
  9  7  1  0  0  0  0
 10 11  1  0  0  0  0
 12 10  1  0  0  0  0
M  END
