4,21
q = -1.0

 40 41  0  0  0  0  0  0  0  0999 V2000
    1.4108    0.1948    0.2944 Si  0  0  0  0  0  0  0  0  0  0  0  0
    0.9676    0.0019   -2.8929 O   0  0  0  0  0  1  0  0  0  0  0  0
    0.1061    0.6705    1.4618 C   0  0  0  0  0  2  0  0  0  0  0  0
   -1.0246    1.2860    1.3615 C   0  0  0  0  0  2  0  0  0  0  0  0
   -1.8058    2.4333    1.9281 C   0  0  0  0  0  0  0  0  0  0  0  0
   -3.3082    2.3473    1.6100 C   0  0  0  0  0  0  0  0  0  0  0  0
   -1.5873    2.4582    3.4572 C   0  0  0  0  0  0  0  0  0  0  0  0
   -1.2233    3.7244    1.2998 C   0  0  0  0  0  0  0  0  0  0  0  0
    2.4540    1.6526   -0.2735 C   0  0  0  0  0  0  0  0  0  0  0  0
    1.8475    2.7937   -0.8433 C   0  0  0  0  0  0  0  0  0  0  0  0
    2.6235    3.8872   -1.2503 C   0  0  0  0  0  0  0  0  0  0  0  0
    4.0208    3.8530   -1.1013 C   0  0  0  0  0  0  0  0  0  0  0  0
    4.6370    2.7224   -0.5438 C   0  0  0  0  0  0  0  0  0  0  0  0
    3.8584    1.6288   -0.1314 C   0  0  0  0  0  0  0  0  0  0  0  0
    2.4867   -1.2832    0.7081 C   0  0  0  0  0  0  0  0  0  0  0  0
    2.6729   -1.7313    2.0347 C   0  0  0  0  0  0  0  0  0  0  0  0
    3.4652   -2.8577    2.3060 C   0  0  0  0  0  0  0  0  0  0  0  0
    4.0849   -3.5523    1.2545 C   0  0  0  0  0  0  0  0  0  0  0  0
    3.9179   -3.1128   -0.0695 C   0  0  0  0  0  0  0  0  0  0  0  0
    3.1270   -1.9858   -0.3401 C   0  0  0  0  0  0  0  0  0  0  0  0
    0.2691   -0.0032   -1.9375 C   0  0  0  0  0  2  0  0  0  0  0  0
   -3.7664    1.4584    2.0839 H   0  0  0  0  0  0  0  0  0  0  0  0
   -3.4779    2.2876    0.5184 H   0  0  0  0  0  0  0  0  0  0  0  0
   -3.8306    3.2459    1.9958 H   0  0  0  0  0  0  0  0  0  0  0  0
   -1.9716    1.5315    3.9285 H   0  0  0  0  0  0  0  0  0  0  0  0
   -2.1211    3.3217    3.9047 H   0  0  0  0  0  0  0  0  0  0  0  0
   -0.5100    2.5446    3.6993 H   0  0  0  0  0  0  0  0  0  0  0  0
   -1.7339    4.6090    1.7336 H   0  0  0  0  0  0  0  0  0  0  0  0
   -1.3807    3.7408    0.2046 H   0  0  0  0  0  0  0  0  0  0  0  0
   -0.1372    3.8085    1.4994 H   0  0  0  0  0  0  0  0  0  0  0  0
    0.7548    2.8147   -0.9765 H   0  0  0  0  0  0  0  0  0  0  0  0
    2.1369    4.7693   -1.6940 H   0  0  0  0  0  0  0  0  0  0  0  0
    4.6310    4.7099   -1.4261 H   0  0  0  0  0  0  0  0  0  0  0  0
    5.7316    2.6899   -0.4294 H   0  0  0  0  0  0  0  0  0  0  0  0
    4.3504    0.7449    0.3050 H   0  0  0  0  0  0  0  0  0  0  0  0
    2.1872   -1.1916    2.8628 H   0  0  0  0  0  0  0  0  0  0  0  0
    3.6010   -3.1958    3.3450 H   0  0  0  0  0  0  0  0  0  0  0  0
    4.7050   -4.4365    1.4675 H   0  0  0  0  0  0  0  0  0  0  0  0
    4.4064   -3.6519   -0.8957 H   0  0  0  0  0  0  0  0  0  0  0  0
    2.9999   -1.6497   -1.3822 H   0  0  0  0  0  0  0  0  0  0  0  0
  1 15  1  0  0  0  0
  1  3  1  0  0  0  0
  1 21  1  0  0  0  0
  2 21  1  0  0  0  0
  4  3  1  0  0  0  0
  4  5  1  0  0  0  0
  5  7  1  0  0  0  0
  6  5  1  0  0  0  0
  6 24  1  0  0  0  0
  6 22  1  0  0  0  0
  7 27  1  0  0  0  0
  7 26  1  0  0  0  0
  7 25  1  0  0  0  0
  8 30  1  0  0  0  0
  8 28  1  0  0  0  0
  8  5  1  0  0  0  0
  9 14  1  0  0  0  0
  9  1  1  0  0  0  0
 10  9  2  0  0  0  0
 11 12  2  0  0  0  0
 11 10  1  0  0  0  0
 12 13  1  0  0  0  0
 13 34  1  0  0  0  0
 13 14  2  0  0  0  0
 14 35  1  0  0  0  0
 15 16  1  0  0  0  0
 16 17  2  0  0  0  0
 16 36  1  0  0  0  0
 17 37  1  0  0  0  0
 18 38  1  0  0  0  0
 18 17  1  0  0  0  0
 19 18  2  0  0  0  0
 20 19  1  0  0  0  0
 20 15  2  0  0  0  0
 23  6  1  0  0  0  0
 29  8  1  0  0  0  0
 31 10  1  0  0  0  0
 32 11  1  0  0  0  0
 33 12  1  0  0  0  0
 39 19  1  0  0  0  0
 40 20  1  0  0  0  0
M  HYD  4   2   0   3   0   4   0  21   0
M  ZBO  1   3   0
M  END
