3,26
q = -2.0, confidence = 0.68

 34 36  0  0  1  0  0  0  0  0999 V2000
    1.2427    1.3517    0.0000 Si  0  0  2  0  0  0  0  0  0  0  0  0
   -0.0013    0.9207    1.3568 C   0  0  1  0  0  3  0  0  0  0  0  0
   -1.2638    1.6139    1.4870 C   0  0  0  0  0  3  0  0  0  0  0  0
   -1.4749    2.6349    1.1486 H   0  0  0  0  0  0  0  0  0  0  0  0
   -2.1830    0.7747    2.1697 C   0  0  0  0  0  0  0  0  0  0  0  0
   -3.2283    1.0128    2.3933 H   0  0  0  0  0  0  0  0  0  0  0  0
   -1.5362   -0.4599    2.4309 C   0  0  0  0  0  0  0  0  0  0  0  0
   -1.9960   -1.3497    2.8755 H   0  0  0  0  0  0  0  0  0  0  0  0
   -0.1973   -0.3625    1.9501 C   0  0  0  0  0  3  0  0  0  0  0  0
    0.5416   -1.1703    1.9781 H   0  0  0  0  0  0  0  0  0  0  0  0
    2.7343    0.2062   -0.0000 C   0  0  0  0  0  0  0  0  0  0  0  0
    2.5897   -1.2033    0.0000 C   0  0  0  0  0  0  0  0  0  0  0  0
    1.5885   -1.6644    0.0000 H   0  0  0  0  0  0  0  0  0  0  0  0
    3.7150   -2.0413    0.0000 C   0  0  0  0  0  0  0  0  0  0  0  0
    3.5800   -3.1337    0.0000 H   0  0  0  0  0  0  0  0  0  0  0  0
    5.0065   -1.4905   -0.0000 C   0  0  0  0  0  0  0  0  0  0  0  0
    5.8883   -2.1494   -0.0000 H   0  0  0  0  0  0  0  0  0  0  0  0
    5.1693   -0.0967   -0.0000 C   0  0  0  0  0  0  0  0  0  0  0  0
    6.1791    0.3416   -0.0000 H   0  0  0  0  0  0  0  0  0  0  0  0
    4.0430    0.7410   -0.0000 C   0  0  0  0  0  0  0  0  0  0  0  0
    4.1922    1.8324   -0.0000 H   0  0  0  0  0  0  0  0  0  0  0  0
    1.7185    3.1703    0.0000 C   0  0  0  0  0  0  0  0  0  0  0  0
    2.3134    3.4257   -0.9000 H   0  0  0  0  0  0  0  0  0  0  0  0
    0.8134    3.8099    0.0001 H   0  0  0  0  0  0  0  0  0  0  0  0
   -0.0013    0.9207   -1.3568 C   0  0  2  0  0  3  0  0  0  0  0  0
   -1.2638    1.6139   -1.4870 C   0  0  0  0  0  3  0  0  0  0  0  0
   -1.4749    2.6349   -1.1485 H   0  0  0  0  0  0  0  0  0  0  0  0
   -2.1830    0.7748   -2.1697 C   0  0  0  0  0  0  0  0  0  0  0  0
   -3.2283    1.0129   -2.3933 H   0  0  0  0  0  0  0  0  0  0  0  0
   -1.5362   -0.4599   -2.4309 C   0  0  0  0  0  0  0  0  0  0  0  0
   -1.9960   -1.3496   -2.8756 H   0  0  0  0  0  0  0  0  0  0  0  0
   -0.1973   -0.3624   -1.9501 C   0  0  0  0  0  3  0  0  0  0  0  0
    0.5416   -1.1703   -1.9781 H   0  0  0  0  0  0  0  0  0  0  0  0
    2.3134    3.4256    0.9001 H   0  0  0  0  0  0  0  0  0  0  0  0
  1 22  1  1  0  0  0
  2  1  1  6  0  0  0
  2  3  1  0  0  0  0
  2  9  1  0  0  0  0
  3  5  1  0  0  0  0
  4  3  1  0  0  0  0
  5  6  1  0  0  0  0
  5  7  2  0  0  0  0
  7  8  1  0  0  0  0
  9 10  1  0  0  0  0
  9  7  1  0  0  0  0
 11 12  1  0  0  0  0
 11  1  1  0  0  0  0
 12 13  1  0  0  0  0
 14 12  2  0  0  0  0
 14 15  1  0  0  0  0
 16 14  1  0  0  0  0
 17 16  1  0  0  0  0
 18 20  1  0  0  0  0
 18 16  2  0  0  0  0
 19 18  1  0  0  0  0
 20 11  2  0  0  0  0
 21 20  1  0  0  0  0
 22 24  1  0  0  0  0
 22 34  1  0  0  0  0
 23 22  1  0  0  0  0
 25  1  1  1  0  0  0
 26 25  1  0  0  0  0
 26 27  1  0  0  0  0
 28 26  1  0  0  0  0
 29 28  1  0  0  0  0
 30 28  2  0  0  0  0
 30 32  1  0  0  0  0
 31 30  1  0  0  0  0
 32 25  1  0  0  0  0
 33 32  1  0  0  0  0
M  END
