1,22
q = -2.0, confidence = 0.794

 58 60  0  0  1  0  0  0  0  0999 V2000
   -0.4131    1.3680    0.6044 C   0  0  1  0  0  3  0  0  0  0  0  0
    0.7862    1.7763    1.2962 C   0  0  1  0  0  3  0  0  0  0  0  0
    1.6358    2.4701    0.3678 C   0  0  0  0  0  0  0  0  0  0  0  0
    1.0030    2.4586   -0.9032 C   0  0  0  0  0  0  0  0  0  0  0  0
   -0.2421    1.7514   -0.7788 C   0  0  2  0  0  3  0  0  0  0  0  0
    1.1119    1.7106    2.7588 C   0  0  0  0  0  0  0  0  0  0  0  0
    1.1139    2.7354    3.1892 H   0  0  0  0  0  0  0  0  0  0  0  0
    2.1221    1.2850    2.9221 H   0  0  0  0  0  0  0  0  0  0  0  0
    0.3850    1.1165    3.3346 H   0  0  0  0  0  0  0  0  0  0  0  0
    2.8993    3.1706    0.7408 C   0  0  0  0  0  0  0  0  0  0  0  0
    3.4207    3.5809   -0.1441 H   0  0  0  0  0  0  0  0  0  0  0  0
    3.5958    2.4743    1.2510 H   0  0  0  0  0  0  0  0  0  0  0  0
    2.6868    4.0105    1.4366 H   0  0  0  0  0  0  0  0  0  0  0  0
    1.4595    3.1507   -2.1436 C   0  0  0  0  0  0  0  0  0  0  0  0
    0.7599    3.9724   -2.4082 H   0  0  0  0  0  0  0  0  0  0  0  0
    1.4913    2.4434   -2.9973 H   0  0  0  0  0  0  0  0  0  0  0  0
    2.4705    3.5835   -2.0269 H   0  0  0  0  0  0  0  0  0  0  0  0
   -1.2093    1.6626   -1.9221 C   0  0  0  0  0  0  0  0  0  0  0  0
   -1.5869    2.6784   -2.1711 H   0  0  0  0  0  0  0  0  0  0  0  0
   -2.0869    1.0362   -1.6969 H   0  0  0  0  0  0  0  0  0  0  0  0
   -0.7132    1.2670   -2.8303 H   0  0  0  0  0  0  0  0  0  0  0  0
   -0.4134   -1.3692    0.6039 C   0  0  1  0  0  3  0  0  0  0  0  0
   -0.2421   -1.7513   -0.7796 C   0  0  1  0  0  3  0  0  0  0  0  0
    1.0038   -2.4568   -0.9047 C   0  0  0  0  0  0  0  0  0  0  0  0
    1.6364   -2.4691    0.3664 C   0  0  0  0  0  0  0  0  0  0  0  0
    0.7859   -1.7774    1.2955 C   0  0  2  0  0  3  0  0  0  0  0  0
   -1.2095   -1.6623   -1.9227 C   0  0  0  0  0  0  0  0  0  0  0  0
   -0.7141   -1.2646   -2.8305 H   0  0  0  0  0  0  0  0  0  0  0  0
   -2.0880   -1.0376   -1.6966 H   0  0  0  0  0  0  0  0  0  0  0  0
   -1.5855   -2.6783   -2.1732 H   0  0  0  0  0  0  0  0  0  0  0  0
    1.4610   -3.1481   -2.1453 C   0  0  0  0  0  0  0  0  0  0  0  0
    2.4774   -3.5693   -2.0327 H   0  0  0  0  0  0  0  0  0  0  0  0
    1.4805   -2.4440   -3.0018 H   0  0  0  0  0  0  0  0  0  0  0  0
    0.7692   -3.9786   -2.4026 H   0  0  0  0  0  0  0  0  0  0  0  0
    2.9003   -3.1696    0.7387 C   0  0  0  0  0  0  0  0  0  0  0  0
    2.6867   -4.0160    1.4263 H   0  0  0  0  0  0  0  0  0  0  0  0
    3.5931   -2.4763    1.2574 H   0  0  0  0  0  0  0  0  0  0  0  0
    3.4261   -3.5713   -0.1475 H   0  0  0  0  0  0  0  0  0  0  0  0
    1.1112   -1.7130    2.7583 C   0  0  0  0  0  0  0  0  0  0  0  0
    1.1182   -2.7386    3.1865 H   0  0  0  0  0  0  0  0  0  0  0  0
    0.3811   -1.1238    3.3351 H   0  0  0  0  0  0  0  0  0  0  0  0
    2.1193   -1.2829    2.9227 H   0  0  0  0  0  0  0  0  0  0  0  0
   -1.5694   -0.0005    1.1971 Si  0  0  1  0  0  0  0  0  0  0  0  0
   -2.0179   -0.0006    3.0361 C   0  0  0  0  0  0  0  0  0  0  0  0
   -1.1832    0.0001    3.7592 H   0  0  0  0  0  0  0  0  0  0  0  0
   -2.6450   -0.8943    3.2329 H   0  0  0  0  0  0  0  0  0  0  0  0
   -2.6461    0.8924    3.2326 H   0  0  0  0  0  0  0  0  0  0  0  0
   -3.2740   -0.0002    0.3784 C   0  0  0  0  0  0  0  0  0  0  0  0
   -3.9590    1.2121    0.1385 C   0  0  0  0  0  0  0  0  0  0  0  0
   -3.4483    2.1722    0.3210 H   0  0  0  0  0  0  0  0  0  0  0  0
   -5.2771    1.2150   -0.3434 C   0  0  0  0  0  0  0  0  0  0  0  0
   -5.7917    2.1700   -0.5314 H   0  0  0  0  0  0  0  0  0  0  0  0
   -5.9376    0.0002   -0.5879 C   0  0  0  0  0  0  0  0  0  0  0  0
   -6.9702    0.0004   -0.9694 H   0  0  0  0  0  0  0  0  0  0  0  0
   -5.2776   -1.2148   -0.3432 C   0  0  0  0  0  0  0  0  0  0  0  0
   -5.7926   -2.1696   -0.5311 H   0  0  0  0  0  0  0  0  0  0  0  0
   -3.9595   -1.2124    0.1387 C   0  0  0  0  0  0  0  0  0  0  0  0
   -3.4492   -2.1726    0.3213 H   0  0  0  0  0  0  0  0  0  0  0  0
  1 43  1  6  0  0  0
  1  2  1  0  0  0  0
  2  6  1  1  0  0  0
  3 10  1  0  0  0  0
  3  2  1  0  0  0  0
  4  5  1  0  0  0  0
  4  3  2  0  0  0  0
  5 18  1  1  0  0  0
  5  1  1  0  0  0  0
  6  8  1  0  0  0  0
  6  7  1  0  0  0  0
  6  9  1  0  0  0  0
 10 12  1  0  0  0  0
 10 13  1  0  0  0  0
 11 10  1  0  0  0  0
 14 17  1  0  0  0  0
 14  4  1  0  0  0  0
 15 14  1  0  0  0  0
 16 14  1  0  0  0  0
 18 20  1  0  0  0  0
 19 18  1  0  0  0  0
 21 18  1  0  0  0  0
 22 43  1  6  0  0  0
 22 26  1  0  0  0  0
 23 27  1  1  0  0  0
 23 22  1  0  0  0  0
 24 23  1  0  0  0  0
 24 25  2  0  0  0  0
 25 35  1  0  0  0  0
 25 26  1  0  0  0  0
 26 39  1  1  0  0  0
 27 29  1  0  0  0  0
 28 27  1  0  0  0  0
 30 27  1  0  0  0  0
 31 32  1  0  0  0  0
 31 24  1  0  0  0  0
 33 31  1  0  0  0  0
 34 31  1  0  0  0  0
 35 37  1  0  0  0  0
 35 36  1  0  0  0  0
 38 35  1  0  0  0  0
 39 42  1  0  0  0  0
 39 40  1  0  0  0  0
 39 41  1  0  0  0  0
 43 44  1  1  0  0  0
 44 47  1  0  0  0  0
 44 46  1  0  0  0  0
 44 45  1  0  0  0  0
 48 43  1  0  0  0  0
 49 50  1  0  0  0  0
 49 48  2  0  0  0  0
 51 49  1  0  0  0  0
 52 51  1  0  0  0  0
 53 51  2  0  0  0  0
 53 55  1  0  0  0  0
 54 53  1  0  0  0  0
 55 57  2  0  0  0  0
 56 55  1  0  0  0  0
 57 58  1  0  0  0  0
 57 48  1  0  0  0  0
M  END
