7,15
q = -2.0, confidence = 0.604

 41 41  0  0  0  0  0  0  0  0999 V2000
    2.0266   -0.8557    1.0435 S   0  0  0  0  0  0  0  0  0  0  0  0
   -1.1314   -2.8958    0.9153 Si  0  0  0  0  0  0  0  0  0  0  0  0
   -2.2765   -1.0398   -2.0053 O   0  0  0  0  0  0  0  0  0  0  0  0
   -3.6077    0.5873   -1.1198 O   0  0  0  0  0  0  0  0  0  0  0  0
    2.5053    0.1757    2.0174 O   0  0  0  0  0  0  0  0  0  0  0  0
    1.9877   -2.2849    1.4687 O   0  0  0  0  0  0  0  0  0  0  0  0
   -1.6942   -0.0151    0.1081 C   0  0  0  0  0  3  0  0  0  0  0  0
   -2.5096   -0.2398   -1.1055 C   0  0  0  0  0  0  0  0  0  0  0  0
   -4.5160    0.4193   -2.2244 C   0  0  0  0  0  0  0  0  0  0  0  0
   -5.5717   -0.6307   -1.9140 C   0  0  0  0  0  0  0  0  0  0  0  0
   -0.6946   -1.0914    0.4874 C   0  0  0  0  0  0  0  0  0  0  0  0
   -0.8335   -3.2185    2.7570 C   0  0  0  0  0  0  0  0  0  0  0  0
   -2.9816   -3.0945    0.5465 C   0  0  0  0  0  0  0  0  0  0  0  0
   -0.1494   -4.0839   -0.1777 C   0  0  0  0  0  0  0  0  0  0  0  0
    0.4360   -0.3427    0.4409 C   0  0  0  0  0  3  0  0  0  0  0  0
    4.1215    0.2073   -0.4288 C   0  0  0  0  0  0  0  0  0  0  0  0
    4.9493    0.2833   -1.5602 C   0  0  0  0  0  0  0  0  0  0  0  0
    4.7612   -0.6065   -2.6305 C   0  0  0  0  0  0  0  0  0  0  0  0
    3.7536   -1.5864   -2.5715 C   0  0  0  0  0  0  0  0  0  0  0  0
    2.9256   -1.6778   -1.4439 C   0  0  0  0  0  0  0  0  0  0  0  0
    3.1161   -0.7664   -0.3937 C   0  0  0  0  0  0  0  0  0  0  0  0
   -2.3542    0.3022    0.9421 H   0  0  0  0  0  0  0  0  0  0  0  0
   -3.9374    0.1376   -3.1279 H   0  0  0  0  0  0  0  0  0  0  0  0
   -4.9725    1.4177   -2.3791 H   0  0  0  0  0  0  0  0  0  0  0  0
   -6.3033   -0.6991   -2.7447 H   0  0  0  0  0  0  0  0  0  0  0  0
   -5.1036   -1.6262   -1.7845 H   0  0  0  0  0  0  0  0  0  0  0  0
   -6.1222   -0.3776   -0.9858 H   0  0  0  0  0  0  0  0  0  0  0  0
   -1.0867   -4.2674    3.0173 H   0  0  0  0  0  0  0  0  0  0  0  0
    0.2327   -3.0381    2.9950 H   0  0  0  0  0  0  0  0  0  0  0  0
   -1.4590   -2.5525    3.3867 H   0  0  0  0  0  0  0  0  0  0  0  0
   -3.3406   -4.0828    0.9011 H   0  0  0  0  0  0  0  0  0  0  0  0
   -3.5895   -2.3153    1.0518 H   0  0  0  0  0  0  0  0  0  0  0  0
   -3.1697   -3.0225   -0.5431 H   0  0  0  0  0  0  0  0  0  0  0  0
   -0.4884   -5.1307   -0.0344 H   0  0  0  0  0  0  0  0  0  0  0  0
   -0.2952   -3.8138   -1.2436 H   0  0  0  0  0  0  0  0  0  0  0  0
    0.9271   -4.0218    0.0738 H   0  0  0  0  0  0  0  0  0  0  0  0
    4.2336    0.8870    0.4286 H   0  0  0  0  0  0  0  0  0  0  0  0
    5.7445    1.0427   -1.6074 H   0  0  0  0  0  0  0  0  0  0  0  0
    5.4067   -0.5388   -3.5192 H   0  0  0  0  0  0  0  0  0  0  0  0
    3.6138   -2.2854   -3.4098 H   0  0  0  0  0  0  0  0  0  0  0  0
    2.1279   -2.4329   -1.3818 H   0  0  0  0  0  0  0  0  0  0  0  0
  1  6  2  0  0  0  0
  1  5  2  0  0  0  0
  2 12  1  0  0  0  0
  3  8  2  0  0  0  0
  4  8  1  0  0  0  0
  7 11  1  0  0  0  0
  7 22  1  0  0  0  0
  8  7  1  0  0  0  0
  9 10  1  0  0  0  0
  9  4  1  0  0  0  0
 10 26  1  0  0  0  0
 10 27  1  0  0  0  0
 11  2  1  0  0  0  0
 12 29  1  0  0  0  0
 12 28  1  0  0  0  0
 12 30  1  0  0  0  0
 13 31  1  0  0  0  0
 13  2  1  0  0  0  0
 13 32  1  0  0  0  0
 14 34  1  0  0  0  0
 14 36  1  0  0  0  0
 14  2  1  0  0  0  0
 15 11  2  0  0  0  0
 15  1  1  0  0  0  0
 16 21  1  0  0  0  0
 16 37  1  0  0  0  0
 17 16  2  0  0  0  0
 18 19  2  0  0  0  0
 18 17  1  0  0  0  0
 19 20  1  0  0  0  0
 20 41  1  0  0  0  0
 20 21  2  0  0  0  0
 21  1  1  0  0  0  0
 23  9  1  0  0  0  0
 24  9  1  0  0  0  0
 25 10  1  0  0  0  0
 33 13  1  0  0  0  0
 35 14  1  0  0  0  0
 38 17  1  0  0  0  0
 39 18  1  0  0  0  0
 40 19  1  0  0  0  0
M  END
