1,17
q = -2.0, confidence = 0.67

 32 32  0  0  1  0  0  0  0  0999 V2000
    0.6741    0.7963   -1.3776 C   0  0  1  0  0  3  0  0  0  0  0  0
    0.8243   -0.6500   -1.3755 C   0  0  2  0  0  3  0  0  0  0  0  0
    1.9553   -1.6119   -1.5422 C   0  0  0  0  0  0  0  0  0  0  0  0
    2.9063   -1.0470   -1.4935 H   0  0  0  0  0  0  0  0  0  0  0  0
    1.8900   -2.0211   -2.5767 H   0  0  0  0  0  0  0  0  0  0  0  0
    1.9788   -2.7569   -0.5207 C   0  0  0  0  0  0  0  0  0  0  0  0
    2.8148   -3.4500   -0.7386 H   0  0  0  0  0  0  0  0  0  0  0  0
    1.0405   -3.3464   -0.5368 H   0  0  0  0  0  0  0  0  0  0  0  0
    2.1078   -2.3515    0.5023 H   0  0  0  0  0  0  0  0  0  0  0  0
    1.5778    1.9727   -1.5298 C   0  0  0  0  0  0  0  0  0  0  0  0
    1.0937    2.8357   -1.0264 H   0  0  0  0  0  0  0  0  0  0  0  0
    1.5974    2.2379   -2.6131 H   0  0  0  0  0  0  0  0  0  0  0  0
    3.0003    1.7795   -0.9964 C   0  0  0  0  0  0  0  0  0  0  0  0
    3.5648    2.7300   -1.0586 H   0  0  0  0  0  0  0  0  0  0  0  0
    3.5604    1.0249   -1.5833 H   0  0  0  0  0  0  0  0  0  0  0  0
    2.9781    1.4487    0.0622 H   0  0  0  0  0  0  0  0  0  0  0  0
   -0.6741   -0.7998   -1.3756 C   0  0  1  0  0  3  0  0  0  0  0  0
   -0.8243    0.6464   -1.3771 C   0  0  2  0  0  3  0  0  0  0  0  0
   -1.9553    1.6079   -1.5464 C   0  0  0  0  0  0  0  0  0  0  0  0
   -2.9064    1.0431   -1.4961 H   0  0  0  0  0  0  0  0  0  0  0  0
   -1.8900    2.0145   -2.5819 H   0  0  0  0  0  0  0  0  0  0  0  0
   -1.9788    2.7555   -0.5278 C   0  0  0  0  0  0  0  0  0  0  0  0
   -2.8151    3.4478   -0.7473 H   0  0  0  0  0  0  0  0  0  0  0  0
   -1.0407    3.3453   -0.5456 H   0  0  0  0  0  0  0  0  0  0  0  0
   -2.1076    2.3527    0.4962 H   0  0  0  0  0  0  0  0  0  0  0  0
   -1.5778   -1.9767   -1.5247 C   0  0  0  0  0  0  0  0  0  0  0  0
   -1.0937   -2.8384   -1.0190 H   0  0  0  0  0  0  0  0  0  0  0  0
   -1.5974   -2.2447   -2.6073 H   0  0  0  0  0  0  0  0  0  0  0  0
   -3.0003   -1.7822   -0.9918 C   0  0  0  0  0  0  0  0  0  0  0  0
   -3.5648   -2.7329   -1.0516 H   0  0  0  0  0  0  0  0  0  0  0  0
   -3.5604   -1.0291   -1.5806 H   0  0  0  0  0  0  0  0  0  0  0  0
   -2.9781   -1.4487    0.0660 H   0  0  0  0  0  0  0  0  0  0  0  0
  1 10  1  6  0  0  0
  1 18  1  0  0  0  0
  1  2  1  0  0  0  0
  2  3  1  6  0  0  0
  3  4  1  0  0  0  0
  3  6  1  0  0  0  0
  5  3  1  0  0  0  0
  6  9  1  0  0  0  0
  7  6  1  0  0  0  0
  8  6  1  0  0  0  0
 10 11  1  0  0  0  0
 10 13  1  0  0  0  0
 12 10  1  0  0  0  0
 13 16  1  0  0  0  0
 14 13  1  0  0  0  0
 15 13  1  0  0  0  0
 17 26  1  6  0  0  0
 17  2  1  0  0  0  0
 18 19  1  6  0  0  0
 18 17  1  0  0  0  0
 19 20  1  0  0  0  0
 19 22  1  0  0  0  0
 21 19  1  0  0  0  0
 22 25  1  0  0  0  0
 23 22  1  0  0  0  0
 24 22  1  0  0  0  0
 26 27  1  0  0  0  0
 26 29  1  0  0  0  0
 28 26  1  0  0  0  0
 29 32  1  0  0  0  0
 30 29  1  0  0  0  0
 31 29  1  0  0  0  0
M  END
