2,15
q = 0.0, confidence = 0.594

 26 27  0  0  0  0  0  0  0  0999 V2000
   -0.3872   -2.9145    0.5421 O   0  0  0  0  0  0  0  0  0  0  0  0
   -0.5072   -1.6988    0.5601 C   0  0  0  0  0  3  0  0  0  0  0  0
   -1.6314   -0.8055    0.2521 C   0  0  0  0  0  0  0  0  0  0  0  0
   -3.0058   -1.2235   -0.0764 C   0  0  0  0  0  0  0  0  0  0  0  0
   -4.1310   -0.4122    0.2143 C   0  0  0  0  0  0  0  0  0  0  0  0
   -3.9828    0.5623    0.7005 H   0  0  0  0  0  0  0  0  0  0  0  0
   -5.4256   -0.8426   -0.0986 C   0  0  0  0  0  0  0  0  0  0  0  0
   -6.2848   -0.1949    0.1359 H   0  0  0  0  0  0  0  0  0  0  0  0
   -5.6338   -2.0969   -0.6985 C   0  0  0  0  0  0  0  0  0  0  0  0
   -6.6531   -2.4327   -0.9433 H   0  0  0  0  0  0  0  0  0  0  0  0
   -4.5310   -2.9229   -0.9672 C   0  0  0  0  0  0  0  0  0  0  0  0
   -4.6831   -3.9146   -1.4210 H   0  0  0  0  0  0  0  0  0  0  0  0
   -3.2325   -2.4971   -0.6561 C   0  0  0  0  0  0  0  0  0  0  0  0
   -2.3723   -3.1559   -0.8411 H   0  0  0  0  0  0  0  0  0  0  0  0
   -1.0135    0.4170    0.4793 C   0  0  0  0  0  3  0  0  0  0  0  0
   -1.5673    1.7504    0.2360 C   0  0  0  0  0  0  0  0  0  0  0  0
   -1.3366    2.8370    1.1147 C   0  0  0  0  0  0  0  0  0  0  0  0
   -0.7381    2.6666    2.0191 H   0  0  0  0  0  0  0  0  0  0  0  0
   -1.8556    4.1109    0.8481 C   0  0  0  0  0  0  0  0  0  0  0  0
   -1.6713    4.9328    1.5569 H   0  0  0  0  0  0  0  0  0  0  0  0
   -2.5944    4.3442   -0.3225 C   0  0  0  0  0  0  0  0  0  0  0  0
   -2.9903    5.3479   -0.5392 H   0  0  0  0  0  0  0  0  0  0  0  0
   -2.8182    3.2845   -1.2190 C   0  0  0  0  0  0  0  0  0  0  0  0
   -3.3915    3.4556   -2.1432 H   0  0  0  0  0  0  0  0  0  0  0  0
   -2.3206    2.0069   -0.9418 C   0  0  0  0  0  0  0  0  0  0  0  0
   -2.5098    1.1795   -1.6416 H   0  0  0  0  0  0  0  0  0  0  0  0
  1  2  2  0  0  0  0
  3 15  2  0  0  0  0
  3  2  1  0  0  0  0
  4  5  1  0  0  0  0
  4  3  1  0  0  0  0
  5  6  1  0  0  0  0
  7  8  1  0  0  0  0
  7  5  2  0  0  0  0
  9  7  1  0  0  0  0
 10  9  1  0  0  0  0
 11  9  2  0  0  0  0
 11 13  1  0  0  0  0
 12 11  1  0  0  0  0
 13  4  2  0  0  0  0
 14 13  1  0  0  0  0
 16 15  1  0  0  0  0
 16 17  1  0  0  0  0
 17 18  1  0  0  0  0
 19 17  2  0  0  0  0
 19 20  1  0  0  0  0
 21 19  1  0  0  0  0
 22 21  1  0  0  0  0
 23 25  1  0  0  0  0
 23 21  2  0  0  0  0
 24 23  1  0  0  0  0
 25 16  2  0  0  0  0
 26 25  1  0  0  0  0
M  END
