4,6
q = 0.0, confidence = 0.878

 26 26  0  0  1  0  0  0  0  0999 V2000
   -2.3072    1.1811   -1.6090 C   0  0  2  0  0  0  0  0  0  0  0  0
   -1.6296    2.0551   -1.7459 H   0  0  0  0  0  0  0  0  0  0  0  0
   -1.5401   -0.1186   -1.8699 C   0  0  1  0  0  3  0  0  0  0  0  0
   -2.1404   -1.1750   -1.0545 C   0  0  1  0  0  3  0  0  0  0  0  0
   -2.7783   -0.5135    0.0583 C   0  0  1  0  0  3  0  0  0  0  0  0
   -2.5250    0.9165   -0.1155 C   0  0  2  0  0  3  0  0  0  0  0  0
   -3.5744    1.3981   -2.4527 C   0  0  0  0  0  0  0  0  0  0  0  0
   -3.3328    1.5025   -3.5309 H   0  0  0  0  0  0  0  0  0  0  0  0
   -4.2681    0.5395   -2.3367 H   0  0  0  0  0  0  0  0  0  0  0  0
   -4.1125    2.3172   -2.1408 H   0  0  0  0  0  0  0  0  0  0  0  0
   -0.7648   -0.3539   -3.1324 C   0  0  0  0  0  0  0  0  0  0  0  0
   -0.1626   -1.2833   -3.0844 H   0  0  0  0  0  0  0  0  0  0  0  0
   -1.4339   -0.4345   -4.0197 H   0  0  0  0  0  0  0  0  0  0  0  0
   -0.0675    0.4866   -3.3277 H   0  0  0  0  0  0  0  0  0  0  0  0
   -2.1606   -2.6406   -1.3560 C   0  0  0  0  0  0  0  0  0  0  0  0
   -1.2522   -2.9569   -1.9054 H   0  0  0  0  0  0  0  0  0  0  0  0
   -2.2393   -3.2498   -0.4338 H   0  0  0  0  0  0  0  0  0  0  0  0
   -3.0318   -2.8946   -1.9988 H   0  0  0  0  0  0  0  0  0  0  0  0
   -3.5599   -1.1490    1.1629 C   0  0  0  0  0  0  0  0  0  0  0  0
   -3.3891   -2.2416    1.2124 H   0  0  0  0  0  0  0  0  0  0  0  0
   -4.6479   -0.9737    1.0168 H   0  0  0  0  0  0  0  0  0  0  0  0
   -3.2633   -0.7232    2.1419 H   0  0  0  0  0  0  0  0  0  0  0  0
   -3.0234    1.9676    0.8308 C   0  0  0  0  0  0  0  0  0  0  0  0
   -4.1015    2.1935    0.6650 H   0  0  0  0  0  0  0  0  0  0  0  0
   -2.8857    1.6544    1.8841 H   0  0  0  0  0  0  0  0  0  0  0  0
   -2.4736    2.9225    0.6925 H   0  0  0  0  0  0  0  0  0  0  0  0
  1  2  1  6  0  0  0
  1  6  1  0  0  0  0
  3 11  1  6  0  0  0
  3  1  1  0  0  0  0
  3  4  1  0  0  0  0
  4 15  1  6  0  0  0
  4  5  1  0  0  0  0
  5 19  1  6  0  0  0
  6  5  1  0  0  0  0
  6 23  1  6  0  0  0
  7  9  1  0  0  0  0
  7 10  1  0  0  0  0
  7  1  1  0  0  0  0
  8  7  1  0  0  0  0
 11 12  1  0  0  0  0
 13 11  1  0  0  0  0
 14 11  1  0  0  0  0
 15 17  1  0  0  0  0
 16 15  1  0  0  0  0
 18 15  1  0  0  0  0
 19 20  1  0  0  0  0
 19 22  1  0  0  0  0
 21 19  1  0  0  0  0
 23 25  1  0  0  0  0
 24 23  1  0  0  0  0
 26 23  1  0  0  0  0
M  END
