5,13
q = -1.0, confidence = 0.02

 38 38  0  0  0  0  0  0  0  0999 V2000
    1.9034    2.9031    2.1129 O   0  0  0  0  0  0  0  0  0  0  0  0
    2.4352    0.1080    2.0254 O   0  0  0  0  0  0  0  0  0  0  0  0
    4.3032    0.5612    0.7994 O   0  0  0  0  0  0  0  0  0  0  0  0
    0.0636    4.1254    3.5022 O   0  0  0  0  0  0  0  0  0  0  0  0
   -3.1423    1.9581   -1.7566 C   0  0  0  0  0  3  0  0  0  0  0  0
   -2.5703    2.8979   -1.6890 H   0  0  0  0  0  0  0  0  0  0  0  0
   -3.4812    1.6389   -2.7538 H   0  0  0  0  0  0  0  0  0  0  0  0
   -3.7080    1.3841   -0.6153 C   0  0  0  0  0  3  0  0  0  0  0  0
   -4.4864    0.6155   -0.7603 H   0  0  0  0  0  0  0  0  0  0  0  0
   -3.5628    1.9686    0.7807 C   0  0  0  0  0  0  0  0  0  0  0  0
   -3.9571    1.2306    1.5141 H   0  0  0  0  0  0  0  0  0  0  0  0
   -4.2102    2.8694    0.8799 H   0  0  0  0  0  0  0  0  0  0  0  0
   -1.1234    1.6285    0.3409 C   0  0  0  0  0  3  0  0  0  0  0  0
   -2.1160    2.2885    1.0983 C   0  0  0  0  0  0  0  0  0  0  0  0
   -1.7429    3.1423    2.1570 C   0  0  0  0  0  0  0  0  0  0  0  0
   -2.5260    3.6503    2.7379 H   0  0  0  0  0  0  0  0  0  0  0  0
   -0.3912    3.3367    2.4858 C   0  0  0  0  0  0  0  0  0  0  0  0
    0.6106    2.6772    1.7163 C   0  0  0  0  0  0  0  0  0  0  0  0
    0.2347    1.8602    0.6434 C   0  0  0  0  0  0  0  0  0  0  0  0
    1.0037    1.3564    0.0440 H   0  0  0  0  0  0  0  0  0  0  0  0
   -0.8932    4.7811    4.3037 C   0  0  0  0  0  0  0  0  0  0  0  0
   -1.5198    5.4903    3.7147 H   0  0  0  0  0  0  0  0  0  0  0  0
   -0.3292    5.3513    5.0658 H   0  0  0  0  0  0  0  0  0  0  0  0
   -1.5712    4.0625    4.8195 H   0  0  0  0  0  0  0  0  0  0  0  0
    2.9422    2.4010    1.3184 C   0  0  0  0  0  0  0  0  0  0  0  0
    3.8723    2.9102    1.6429 H   0  0  0  0  0  0  0  0  0  0  0  0
    2.8027    2.6324    0.2361 H   0  0  0  0  0  0  0  0  0  0  0  0
    3.1640    0.8921    1.4486 C   0  0  0  0  0  0  0  0  0  0  0  0
    4.6587   -0.8565    0.7559 C   0  0  0  0  0  0  0  0  0  0  0  0
    3.7238   -1.4199    0.5621 H   0  0  0  0  0  0  0  0  0  0  0  0
    5.6269   -1.0151   -0.4045 C   0  0  0  0  0  0  0  0  0  0  0  0
    5.1726   -0.6707   -1.3539 H   0  0  0  0  0  0  0  0  0  0  0  0
    5.8990   -2.0821   -0.5228 H   0  0  0  0  0  0  0  0  0  0  0  0
    6.5541   -0.4325   -0.2304 H   0  0  0  0  0  0  0  0  0  0  0  0
    5.2393   -1.2951    2.0947 C   0  0  0  0  0  0  0  0  0  0  0  0
    6.1486   -0.7098    2.3411 H   0  0  0  0  0  0  0  0  0  0  0  0
    5.5162   -2.3673    2.0486 H   0  0  0  0  0  0  0  0  0  0  0  0
    4.4942   -1.1675    2.9021 H   0  0  0  0  0  0  0  0  0  0  0  0
  3 28  1  0  0  0  0
  4 21  1  0  0  0  0
  5  6  1  0  0  0  0
  5  8  1  0  0  0  0
  7  5  1  0  0  0  0
  8 10  1  0  0  0  0
  9  8  1  0  0  0  0
 10 12  1  0  0  0  0
 10 14  1  0  0  0  0
 10 11  1  0  0  0  0
 13 19  2  0  0  0  0
 13 14  1  0  0  0  0
 14 15  2  0  0  0  0
 15 17  1  0  0  0  0
 15 16  1  0  0  0  0
 17  4  1  0  0  0  0
 18  1  1  0  0  0  0
 18 17  2  0  0  0  0
 19 18  1  0  0  0  0
 20 19  1  0  0  0  0
 21 24  1  0  0  0  0
 21 23  1  0  0  0  0
 22 21  1  0  0  0  0
 25 28  1  0  0  0  0
 25 26  1  0  0  0  0
 25  1  1  0  0  0  0
 27 25  1  0  0  0  0
 28  2  2  0  0  0  0
 29  3  1  0  0  0  0
 29 35  1  0  0  0  0
 30 29  1  0  0  0  0
 31 34  1  0  0  0  0
 31 29  1  0  0  0  0
 32 31  1  0  0  0  0
 33 31  1  0  0  0  0
 35 36  1  0  0  0  0
 35 38  1  0  0  0  0
 37 35  1  0  0  0  0
M  END
