3,7
q = 0.0, confidence = 0.986

 16 16  0  0  1  0  0  0  0  0999 V2000
   -3.0408   -0.6993    0.0715 Br  0  0  0  0  0  0  0  0  0  0  0  0
   -1.1814   -0.9052   -0.0830 C   0  0  1  0  0  3  0  0  0  0  0  0
   -0.5405   -0.8253   -1.3562 C   0  0  0  0  0  3  0  0  0  0  0  0
    0.8563   -1.0262   -1.4804 C   0  0  0  0  0  3  0  0  0  0  0  0
    1.6498   -1.3652   -0.3343 C   0  0  0  0  0  0  0  0  0  0  0  0
    1.0354   -1.3070    0.9576 C   0  0  0  0  0  0  0  0  0  0  0  0
   -0.3693   -1.0982    1.0703 C   0  0  0  0  0  3  0  0  0  0  0  0
    3.8373   -1.8161    0.5387 C   0  0  0  0  0  0  0  0  0  0  0  0
    2.9312   -1.5963   -0.5593 O   0  0  0  0  0  0  0  0  0  0  0  0
   -1.1381   -0.5915   -2.2496 H   0  0  0  0  0  0  0  0  0  0  0  0
    1.3530   -0.9525   -2.4579 H   0  0  0  0  0  0  0  0  0  0  0  0
    1.6276   -1.4398    1.8718 H   0  0  0  0  0  0  0  0  0  0  0  0
   -0.8340   -1.0821    2.0672 H   0  0  0  0  0  0  0  0  0  0  0  0
    4.8187   -2.0169    0.0764 H   0  0  0  0  0  0  0  0  0  0  0  0
    3.9051   -0.9080    1.1723 H   0  0  0  0  0  0  0  0  0  0  0  0
    3.5225   -2.6924    1.1401 H   0  0  0  0  0  0  0  0  0  0  0  0
  2  1  1  1  0  0  0
  2  7  1  0  0  0  0
  3  2  1  0  0  0  0
  4  3  1  0  0  0  0
  4  5  1  0  0  0  0
  5  6  2  0  0  0  0
  6  7  1  0  0  0  0
  6 12  1  0  0  0  0
  7 13  1  0  0  0  0
  8 16  1  0  0  0  0
  8 15  1  0  0  0  0
  9  5  1  0  0  0  0
  9  8  1  0  0  0  0
 10  3  1  0  0  0  0
 11  4  1  0  0  0  0
 14  8  1  0  0  0  0
M  END
