2,10
q = -2.0, confidence = 0.656

 37 39  0  0  1  0  0  0  0  0999 V2000
   -0.7905    0.6896    1.0249 C   0  0  2  0  0  3  0  0  0  0  0  0
    0.2404    0.5653    2.0112 C   0  0  0  0  0  3  0  0  0  0  0  0
    0.4017   -0.8236    2.3008 C   0  0  0  0  0  0  0  0  0  0  0  0
   -0.4934   -1.5521    1.4868 C   0  0  0  0  0  0  0  0  0  0  0  0
   -1.2478   -0.6253    0.6967 C   0  0  1  0  0  3  0  0  0  0  0  0
   -2.5100   -0.8759   -0.1092 C   0  0  0  0  0  0  0  0  0  0  0  0
   -2.7208    0.2628   -1.1394 C   0  0  0  0  0  0  0  0  0  0  0  0
   -2.3890    1.6796   -0.6420 C   0  0  0  0  0  0  0  0  0  0  0  0
   -1.0424    1.8732    0.0965 C   0  0  2  0  0  0  0  0  0  0  0  0
    0.2029    1.7032   -0.7850 C   0  0  1  0  0  3  0  0  0  0  0  0
    1.5291    2.0079   -0.3266 C   0  0  0  0  0  3  0  0  0  0  0  0
    2.4723    1.3636   -1.1783 C   0  0  0  0  0  0  0  0  0  0  0  0
    1.7564    0.6274   -2.1427 C   0  0  0  0  0  0  0  0  0  0  0  0
    0.3619    0.8204   -1.8997 C   0  0  0  0  0  3  0  0  0  0  0  0
   -1.0480    3.2236    0.8232 C   0  0  0  0  0  0  0  0  0  0  0  0
   -3.6681   -0.8556    0.9234 C   0  0  0  0  0  0  0  0  0  0  0  0
   -2.5070   -2.2315   -0.8299 C   0  0  0  0  0  0  0  0  0  0  0  0
    0.8273    1.3778    2.4537 H   0  0  0  0  0  0  0  0  0  0  0  0
    1.1446   -1.2496    2.9825 H   0  0  0  0  0  0  0  0  0  0  0  0
   -0.5679   -2.6438    1.4372 H   0  0  0  0  0  0  0  0  0  0  0  0
   -3.7833    0.2452   -1.4617 H   0  0  0  0  0  0  0  0  0  0  0  0
   -2.1452    0.0196   -2.0516 H   0  0  0  0  0  0  0  0  0  0  0  0
   -2.4328    2.3919   -1.4925 H   0  0  0  0  0  0  0  0  0  0  0  0
   -3.1829    2.0021    0.0647 H   0  0  0  0  0  0  0  0  0  0  0  0
    1.7881    2.6185    0.5452 H   0  0  0  0  0  0  0  0  0  0  0  0
    3.5594    1.3806   -1.0507 H   0  0  0  0  0  0  0  0  0  0  0  0
    2.1810   -0.0332   -2.9059 H   0  0  0  0  0  0  0  0  0  0  0  0
   -0.4313    0.3302   -2.4675 H   0  0  0  0  0  0  0  0  0  0  0  0
   -1.1665    4.0528    0.0971 H   0  0  0  0  0  0  0  0  0  0  0  0
   -0.1136    3.4016    1.3886 H   0  0  0  0  0  0  0  0  0  0  0  0
   -1.8879    3.2665    1.5448 H   0  0  0  0  0  0  0  0  0  0  0  0
   -4.6352   -1.0508    0.4152 H   0  0  0  0  0  0  0  0  0  0  0  0
   -3.7361    0.1212    1.4425 H   0  0  0  0  0  0  0  0  0  0  0  0
   -3.5201   -1.6349    1.6970 H   0  0  0  0  0  0  0  0  0  0  0  0
   -3.4447   -2.3548   -1.4095 H   0  0  0  0  0  0  0  0  0  0  0  0
   -2.4477   -3.0721   -0.1096 H   0  0  0  0  0  0  0  0  0  0  0  0
   -1.6427   -2.3178   -1.5157 H   0  0  0  0  0  0  0  0  0  0  0  0
  1  2  1  6  0  0  0
  2  3  1  0  0  0  0
  2 18  1  0  0  0  0
  3 19  1  0  0  0  0
  4  3  2  0  0  0  0
  5  1  1  0  0  0  0
  5  4  1  1  0  0  0
  6  5  1  0  0  0  0
  6 16  1  0  0  0  0
  7  8  1  0  0  0  0
  7  6  1  0  0  0  0
  8 24  1  0  0  0  0
  8  9  1  0  0  0  0
  9 15  1  1  0  0  0
  9  1  1  0  0  0  0
 10 14  1  1  0  0  0
 10 11  1  0  0  0  0
 10  9  1  0  0  0  0
 11 25  1  0  0  0  0
 12 26  1  0  0  0  0
 12 11  1  0  0  0  0
 13 14  1  0  0  0  0
 13 12  2  0  0  0  0
 15 30  1  0  0  0  0
 15 31  1  0  0  0  0
 16 33  1  0  0  0  0
 16 34  1  0  0  0  0
 17 36  1  0  0  0  0
 17  6  1  0  0  0  0
 20  4  1  0  0  0  0
 21  7  1  0  0  0  0
 22  7  1  0  0  0  0
 23  8  1  0  0  0  0
 27 13  1  0  0  0  0
 28 14  1  0  0  0  0
 29 15  1  0  0  0  0
 32 16  1  0  0  0  0
 35 17  1  0  0  0  0
 37 17  1  0  0  0  0
M  END
