3,4
q = -1.0

 27 29  0  0  0  0  0  0  0  0999 V2000
   -1.1808    2.6531   -0.1319 N   0  0  0  0  0  0  0  0  0  0  0  0
    0.6680    1.4968   -0.0805 N   0  0  0  0  0  0  0  0  0  0  0  0
   -0.7129    1.3736    0.0045 C   0  0  0  0  0  2  0  0  0  0  0  0
    0.5896   -0.8638   -0.1204 C   0  0  0  0  0  3  0  0  0  0  0  0
    1.2416   -2.1286   -0.2282 C   0  0  0  0  0  0  0  0  0  0  0  0
    2.6230   -2.2365   -0.2688 C   0  0  0  0  0  0  0  0  0  0  0  0
    3.4561   -1.0919   -0.1134 C   0  0  0  0  0  0  0  0  0  0  0  0
    2.8455    0.2167    0.0433 C   0  0  0  0  0  0  0  0  0  0  0  0
    1.4183    0.2763   -0.0597 C   0  0  0  0  0  0  0  0  0  0  0  0
    1.0283    2.8167   -0.3197 C   0  0  0  0  0  0  0  0  0  0  0  0
   -0.1342    3.5442   -0.3397 C   0  0  0  0  0  0  0  0  0  0  0  0
    4.8748   -1.2089   -0.0710 C   0  0  0  0  0  0  0  0  0  0  0  0
    5.6922   -0.1127    0.1662 C   0  0  0  0  0  0  0  0  0  0  0  0
    5.0984    1.1534    0.4027 C   0  0  0  0  0  0  0  0  0  0  0  0
    3.7189    1.3102    0.3445 C   0  0  0  0  0  0  0  0  0  0  0  0
   -2.5770    3.0582   -0.0958 C   0  0  0  0  0  0  0  0  0  0  0  0
    0.6102   -3.0285   -0.2917 H   0  0  0  0  0  0  0  0  0  0  0  0
    3.1051   -3.2209   -0.3904 H   0  0  0  0  0  0  0  0  0  0  0  0
    2.0530    3.1375   -0.5067 H   0  0  0  0  0  0  0  0  0  0  0  0
   -0.3023    4.6149   -0.4887 H   0  0  0  0  0  0  0  0  0  0  0  0
    5.3130   -2.2102   -0.2143 H   0  0  0  0  0  0  0  0  0  0  0  0
    6.7868   -0.2274    0.2001 H   0  0  0  0  0  0  0  0  0  0  0  0
    5.7319    2.0196    0.6519 H   0  0  0  0  0  0  0  0  0  0  0  0
    3.3001    2.2918    0.5964 H   0  0  0  0  0  0  0  0  0  0  0  0
   -2.7379    3.7854    0.7260 H   0  0  0  0  0  0  0  0  0  0  0  0
   -2.8583    3.5334   -1.0576 H   0  0  0  0  0  0  0  0  0  0  0  0
   -3.2159    2.1690    0.0716 H   0  0  0  0  0  0  0  0  0  0  0  0
  1 16  1  0  0  0  0
  1  3  1  0  0  0  0
  2  9  1  0  0  0  0
  2  3  1  0  0  0  0
  4  9  1  0  0  0  0
  5  4  2  0  0  0  0
  6  5  1  0  0  0  0
  6  7  2  0  0  0  0
  7 12  1  0  0  0  0
  7  8  1  0  0  0  0
  8 15  1  0  0  0  0
  9  8  2  0  0  0  0
 10  2  1  0  0  0  0
 11 10  2  0  0  0  0
 11  1  1  0  0  0  0
 12 13  2  0  0  0  0
 13 22  1  0  0  0  0
 13 14  1  0  0  0  0
 14 23  1  0  0  0  0
 15 14  2  0  0  0  0
 15 24  1  0  0  0  0
 16 27  1  0  0  0  0
 16 25  1  0  0  0  0
 17  5  1  0  0  0  0
 18  6  1  0  0  0  0
 19 10  1  0  0  0  0
 20 11  1  0  0  0  0
 21 12  1  0  0  0  0
 26 16  1  0  0  0  0
M  END
