1,3
q = -1.0

 35 35  0  0  1  0  0  0  0  0999 V2000
    2.2276   -0.6963    0.3031 C   0  0  2  0  0  3  0  0  0  0  0  0
    1.4101   -0.8599    1.4646 C   0  0  1  0  0  3  0  0  0  0  0  0
    0.4194   -1.8614    1.1695 C   0  0  1  0  0  3  0  0  0  0  0  0
    1.7813   -0.3668    2.8302 C   0  0  0  0  0  0  0  0  0  0  0  0
    2.4002   -1.1412    3.3345 H   0  0  0  0  0  0  0  0  0  0  0  0
    0.9129   -0.1805    3.4868 H   0  0  0  0  0  0  0  0  0  0  0  0
    2.3874    0.5560    2.7936 H   0  0  0  0  0  0  0  0  0  0  0  0
    0.6874   -2.3654   -0.1428 C   0  0  0  0  0  0  0  0  0  0  0  0
    1.7808   -1.6335   -0.6932 C   0  0  0  0  0  0  0  0  0  0  0  0
    3.4611    0.1527    0.2133 C   0  0  0  0  0  0  0  0  0  0  0  0
    4.7376   -0.6276    0.6071 C   0  0  0  0  0  0  0  0  0  0  0  0
    5.9771    0.2165    0.5368 C   0  0  0  0  0  0  0  0  0  0  0  0
    7.0099    0.0141   -0.3043 C   0  0  0  0  0  0  0  0  0  0  0  0
    8.2396    0.8660   -0.3963 C   0  0  0  0  0  0  0  0  0  0  0  0
    9.1595    0.2754   -0.1936 H   0  0  0  0  0  0  0  0  0  0  0  0
    8.2100    1.7104    0.3212 H   0  0  0  0  0  0  0  0  0  0  0  0
    8.3637    1.2879   -1.4174 H   0  0  0  0  0  0  0  0  0  0  0  0
    6.9592   -0.8530   -0.9907 H   0  0  0  0  0  0  0  0  0  0  0  0
    6.0147    1.0872    1.2206 H   0  0  0  0  0  0  0  0  0  0  0  0
    4.6077   -1.0241    1.6397 H   0  0  0  0  0  0  0  0  0  0  0  0
    4.8420   -1.5130   -0.0553 H   0  0  0  0  0  0  0  0  0  0  0  0
    3.3588    1.0465    0.8650 H   0  0  0  0  0  0  0  0  0  0  0  0
    3.5680    0.5453   -0.8169 H   0  0  0  0  0  0  0  0  0  0  0  0
    0.0384   -3.5733   -0.7366 C   0  0  0  0  0  0  0  0  0  0  0  0
   -1.0498   -3.5960   -0.5388 H   0  0  0  0  0  0  0  0  0  0  0  0
    0.1760   -3.6165   -1.8318 H   0  0  0  0  0  0  0  0  0  0  0  0
    0.4892   -4.4891   -0.2928 H   0  0  0  0  0  0  0  0  0  0  0  0
    2.3936   -1.8832   -2.0351 C   0  0  0  0  0  0  0  0  0  0  0  0
    3.0292   -1.0375   -2.3535 H   0  0  0  0  0  0  0  0  0  0  0  0
    1.6087   -2.0177   -2.8057 H   0  0  0  0  0  0  0  0  0  0  0  0
    3.0163   -2.8037   -2.0154 H   0  0  0  0  0  0  0  0  0  0  0  0
   -0.5174   -2.5350    2.1286 C   0  0  0  0  0  0  0  0  0  0  0  0
   -1.5629   -2.5466    1.7588 H   0  0  0  0  0  0  0  0  0  0  0  0
   -0.5125   -2.0627    3.1261 H   0  0  0  0  0  0  0  0  0  0  0  0
   -0.2189   -3.5969    2.2640 H   0  0  0  0  0  0  0  0  0  0  0  0
  1 10  1  1  0  0  0
  1  2  1  0  0  0  0
  2  4  1  1  0  0  0
  3  2  1  0  0  0  0
  3 32  1  1  0  0  0
  4  5  1  0  0  0  0
  4  6  1  0  0  0  0
  7  4  1  0  0  0  0
  8  3  1  0  0  0  0
  9  8  2  0  0  0  0
  9  1  1  0  0  0  0
 10 11  1  0  0  0  0
 10 22  1  0  0  0  0
 11 20  1  0  0  0  0
 12 11  1  0  0  0  0
 12 19  1  0  0  0  0
 13 12  2  0  0  0  0
 14 13  1  0  0  0  0
 14 15  1  0  0  0  0
 14 16  1  0  0  0  0
 17 14  1  0  0  0  0
 18 13  1  0  0  0  0
 21 11  1  0  0  0  0
 23 10  1  0  0  0  0
 24 25  1  0  0  0  0
 24 27  1  0  0  0  0
 24  8  1  0  0  0  0
 26 24  1  0  0  0  0
 28 31  1  0  0  0  0
 28  9  1  0  0  0  0
 29 28  1  0  0  0  0
 30 28  1  0  0  0  0
 32 35  1  0  0  0  0
 32 34  1  0  0  0  0
 33 32  1  0  0  0  0
M  END
