8
q = -2.0, confidence = 0.57

 34 36  0  0  1  0  0  0  0  0999 V2000
   -2.2184   -0.6976    0.0002 Si  0  0  0  0  0  0  0  0  0  0  0  0
   -0.9968   -0.0736    1.3079 C   0  0  2  0  0  3  0  0  0  0  0  0
   -0.2946    1.1973    1.1526 C   0  0  1  0  0  3  0  0  0  0  0  0
    0.9186    1.1106    1.8930 C   0  0  0  0  0  3  0  0  0  0  0  0
    1.0070   -0.1862    2.4766 C   0  0  0  0  0  0  0  0  0  0  0  0
   -0.1681   -0.8979    2.1322 C   0  0  0  0  0  0  0  0  0  0  0  0
   -0.9971   -0.0734   -1.3079 C   0  0  1  0  0  3  0  0  0  0  0  0
   -0.2942    1.1972   -1.1530 C   0  0  2  0  0  3  0  0  0  0  0  0
    0.9190    1.1099   -1.8932 C   0  0  0  0  0  3  0  0  0  0  0  0
    1.0068   -0.1871   -2.4764 C   0  0  0  0  0  0  0  0  0  0  0  0
   -0.1686   -0.8982   -2.1318 C   0  0  0  0  0  0  0  0  0  0  0  0
   -0.5621    2.1805   -0.0004 C   0  0  0  0  0  0  0  0  0  0  0  0
   -1.9745    2.7789   -0.0014 C   0  0  0  0  0  0  0  0  0  0  0  0
    0.4579    3.3287   -0.0001 C   0  0  0  0  0  0  0  0  0  0  0  0
   -3.9883   -0.0096    0.0019 C   0  0  0  0  0  0  0  0  0  0  0  0
   -2.3323   -2.5750   -0.0013 C   0  0  0  0  0  0  0  0  0  0  0  0
    1.6959    1.8786    1.9523 H   0  0  0  0  0  0  0  0  0  0  0  0
    1.8592   -0.5743    3.0462 H   0  0  0  0  0  0  0  0  0  0  0  0
   -0.3684   -1.9463    2.3828 H   0  0  0  0  0  0  0  0  0  0  0  0
    1.6966    1.8776   -1.9527 H   0  0  0  0  0  0  0  0  0  0  0  0
    1.8588   -0.5758   -3.0459 H   0  0  0  0  0  0  0  0  0  0  0  0
   -0.3693   -1.9466   -2.3822 H   0  0  0  0  0  0  0  0  0  0  0  0
   -2.1179    3.4134   -0.8991 H   0  0  0  0  0  0  0  0  0  0  0  0
   -2.1219    3.4082    0.8993 H   0  0  0  0  0  0  0  0  0  0  0  0
   -2.7639    2.0108   -0.0056 H   0  0  0  0  0  0  0  0  0  0  0  0
    1.5024    2.9633    0.0005 H   0  0  0  0  0  0  0  0  0  0  0  0
    0.3166    3.9639   -0.8966 H   0  0  0  0  0  0  0  0  0  0  0  0
    0.3158    3.9643    0.8960 H   0  0  0  0  0  0  0  0  0  0  0  0
   -4.1915    0.6159    0.8932 H   0  0  0  0  0  0  0  0  0  0  0  0
   -4.1993    0.5960   -0.9015 H   0  0  0  0  0  0  0  0  0  0  0  0
   -4.7020   -0.8580    0.0143 H   0  0  0  0  0  0  0  0  0  0  0  0
   -2.8934   -2.9185    0.8924 H   0  0  0  0  0  0  0  0  0  0  0  0
   -1.3330   -3.0511   -0.0026 H   0  0  0  0  0  0  0  0  0  0  0  0
   -2.8951   -2.9169   -0.8945 H   0  0  0  0  0  0  0  0  0  0  0  0
  1 15  1  0  0  0  0
  1  2  1  0  0  0  0
  2  6  1  6  0  0  0
  3  2  1  0  0  0  0
  3  4  1  6  0  0  0
  4 17  1  0  0  0  0
  4  5  1  0  0  0  0
  5 18  1  0  0  0  0
  6 19  1  0  0  0  0
  6  5  2  0  0  0  0
  7 11  1  1  0  0  0
  7  8  1  0  0  0  0
  7  1  1  0  0  0  0
  8  9  1  1  0  0  0
  8 12  1  0  0  0  0
 10 11  2  0  0  0  0
 10  9  1  0  0  0  0
 12 14  1  0  0  0  0
 12  3  1  0  0  0  0
 13 12  1  0  0  0  0
 13 24  1  0  0  0  0
 14 26  1  0  0  0  0
 14 28  1  0  0  0  0
 15 31  1  0  0  0  0
 15 29  1  0  0  0  0
 16  1  1  0  0  0  0
 16 32  1  0  0  0  0
 20  9  1  0  0  0  0
 21 10  1  0  0  0  0
 22 11  1  0  0  0  0
 23 13  1  0  0  0  0
 25 13  1  0  0  0  0
 27 14  1  0  0  0  0
 30 15  1  0  0  0  0
 33 16  1  0  0  0  0
 34 16  1  0  0  0  0
M  END
