3,16
q = -2.0, confidence = 0.576

 20 21  0  0  1  0  0  0  0  0999 V2000
   -0.0153    3.0121    0.3206 O   0  0  0  0  0  0  0  0  0  0  0  0
    1.8528    1.9929   -0.3421 O   0  0  0  0  0  0  0  0  0  0  0  0
    0.5286    1.9740   -0.0029 C   0  0  0  0  0  3  0  0  0  0  0  0
    2.4769    0.7484   -0.7000 C   0  0  1  0  0  0  0  0  0  0  0  0
    2.8851    0.9013   -1.7216 H   0  0  0  0  0  0  0  0  0  0  0  0
    3.5941    0.4026    0.3062 C   0  0  2  0  0  0  0  0  0  0  0  0
    4.1847    1.2885    0.6068 H   0  0  0  0  0  0  0  0  0  0  0  0
    4.4243   -0.7483   -0.3089 C   0  0  0  0  0  0  0  0  0  0  0  0
    5.3628   -0.8946    0.2615 H   0  0  0  0  0  0  0  0  0  0  0  0
    4.7131   -0.5331   -1.3581 H   0  0  0  0  0  0  0  0  0  0  0  0
    3.4794   -1.9833   -0.1794 C   0  0  0  0  0  0  0  0  0  0  0  0
    3.2669   -2.4712   -1.1520 H   0  0  0  0  0  0  0  0  0  0  0  0
    3.9160   -2.7563    0.4864 H   0  0  0  0  0  0  0  0  0  0  0  0
    2.2032   -1.3738    0.4531 C   0  0  2  0  0  0  0  0  0  0  0  0
    1.5367   -2.1292    0.9129 H   0  0  0  0  0  0  0  0  0  0  0  0
    1.5158   -0.4745   -0.6115 C   0  0  0  0  0  3  0  0  0  0  0  0
    1.4479   -0.9985   -1.5894 H   0  0  0  0  0  0  0  0  0  0  0  0
    2.8065   -0.3274    1.4136 C   0  0  0  0  0  0  0  0  0  0  0  0
    2.0399    0.3100    1.8986 H   0  0  0  0  0  0  0  0  0  0  0  0
    3.4612   -0.7666    2.1941 H   0  0  0  0  0  0  0  0  0  0  0  0
  2  3  1  0  0  0  0
  3  1  2  0  0  0  0
  4  5  1  6  0  0  0
  4 16  1  0  0  0  0
  4  2  1  0  0  0  0
  4  6  1  0  0  0  0
  6  7  1  1  0  0  0
  6 18  1  0  0  0  0
  8 11  1  0  0  0  0
  8  9  1  0  0  0  0
  8  6  1  0  0  0  0
 10  8  1  0  0  0  0
 11 14  1  0  0  0  0
 11 13  1  0  0  0  0
 12 11  1  0  0  0  0
 14 15  1  1  0  0  0
 14 18  1  0  0  0  0
 16 14  1  0  0  0  0
 17 16  1  0  0  0  0
 18 19  1  0  0  0  0
 18 20  1  0  0  0  0
M  END
