11,17
q = -2.0, confidence = 0.538

 41 41  0  0  1  0  0  0  0  0999 V2000
   -2.1278   -1.4145    0.5808 S   0  0  0  0  0  0  0  0  0  0  0  0
    1.5681    2.1191    1.7108 O   0  0  0  0  0  0  0  0  0  0  0  0
    2.1736    2.9514   -0.3140 O   0  0  0  0  0  0  0  0  0  0  0  0
   -1.6373    2.0092    0.5080 O   0  0  0  0  0  0  0  0  0  0  0  0
   -2.4074    1.3235   -1.5193 O   0  0  0  0  0  0  0  0  0  0  0  0
   -1.9658   -2.7122   -0.1212 O   0  0  0  0  0  0  0  0  0  0  0  0
   -1.8244   -1.2720    2.0261 O   0  0  0  0  0  0  0  0  0  0  0  0
    1.8447   -1.5240   -1.8943 C   0  0  0  0  0  3  0  0  0  0  0  0
    1.2358   -0.7039   -2.2990 H   0  0  0  0  0  0  0  0  0  0  0  0
    2.3959   -2.1009   -2.6526 H   0  0  0  0  0  0  0  0  0  0  0  0
    1.4828   -2.1983   -0.6912 C   0  0  0  0  0  3  0  0  0  0  0  0
    1.7995   -3.2462   -0.5542 H   0  0  0  0  0  0  0  0  0  0  0  0
    0.9937   -1.5243    0.4485 C   0  0  0  0  0  3  0  0  0  0  0  0
    0.8723   -2.1059    1.3748 H   0  0  0  0  0  0  0  0  0  0  0  0
    0.3218   -0.1647    0.3710 C   0  0  1  0  0  0  0  0  0  0  0  0
    0.1511    0.2043    1.4031 H   0  0  0  0  0  0  0  0  0  0  0  0
    1.3554    0.7523   -0.2773 C   0  0  0  0  0  3  0  0  0  0  0  0
    1.1722    1.0162   -1.3339 H   0  0  0  0  0  0  0  0  0  0  0  0
    1.6801    1.9770    0.5037 C   0  0  0  0  0  0  0  0  0  0  0  0
    2.5862    4.1479    0.3517 C   0  0  0  0  0  0  0  0  0  0  0  0
    2.9810    4.8170   -0.4338 H   0  0  0  0  0  0  0  0  0  0  0  0
    3.3709    3.9323    1.1055 H   0  0  0  0  0  0  0  0  0  0  0  0
    1.7322    4.6248    0.8743 H   0  0  0  0  0  0  0  0  0  0  0  0
   -1.0350   -0.1846   -0.3422 C   0  0  2  0  0  0  0  0  0  0  0  0
   -0.9928   -0.6172   -1.3590 H   0  0  0  0  0  0  0  0  0  0  0  0
   -1.6997    1.1752   -0.3737 C   0  0  0  0  0  0  0  0  0  0  0  0
   -3.1840    2.5268   -1.6064 C   0  0  0  0  0  0  0  0  0  0  0  0
   -3.6325    2.5290   -2.6151 H   0  0  0  0  0  0  0  0  0  0  0  0
   -2.5448    3.4192   -1.4572 H   0  0  0  0  0  0  0  0  0  0  0  0
   -3.9777    2.5248   -0.8318 H   0  0  0  0  0  0  0  0  0  0  0  0
   -3.8074   -0.8213    0.3087 C   0  0  0  0  0  0  0  0  0  0  0  0
   -4.3473    0.1050    1.2135 C   0  0  0  0  0  0  0  0  0  0  0  0
   -3.7526    0.4291    2.0794 H   0  0  0  0  0  0  0  0  0  0  0  0
   -5.6424    0.5903    0.9774 C   0  0  0  0  0  0  0  0  0  0  0  0
   -6.0882    1.3153    1.6748 H   0  0  0  0  0  0  0  0  0  0  0  0
   -6.3698    0.1453   -0.1398 C   0  0  0  0  0  0  0  0  0  0  0  0
   -7.3862    0.5282   -0.3176 H   0  0  0  0  0  0  0  0  0  0  0  0
   -5.8125   -0.7915   -1.0273 C   0  0  0  0  0  0  0  0  0  0  0  0
   -6.3921   -1.1441   -1.8936 H   0  0  0  0  0  0  0  0  0  0  0  0
   -4.5184   -1.2844   -0.8071 C   0  0  0  0  0  0  0  0  0  0  0  0
   -4.0562   -2.0254   -1.4752 H   0  0  0  0  0  0  0  0  0  0  0  0
  1  7  2  0  0  0  0
  3 20  1  0  0  0  0
  3 19  1  0  0  0  0
  5 26  1  0  0  0  0
  6  1  2  0  0  0  0
  8 11  1  0  0  0  0
  9  8  1  0  0  0  0
 10  8  1  0  0  0  0
 11 12  1  0  0  0  0
 11 13  1  0  0  0  0
 13 14  1  0  0  0  0
 15 13  1  0  0  0  0
 15 16  1  1  0  0  0
 17 15  1  0  0  0  0
 17 19  1  0  0  0  0
 18 17  1  0  0  0  0
 19  2  2  0  0  0  0
 20 23  1  0  0  0  0
 20 22  1  0  0  0  0
 21 20  1  0  0  0  0
 24 25  1  6  0  0  0
 24 15  1  0  0  0  0
 24  1  1  0  0  0  0
 26 24  1  0  0  0  0
 26  4  2  0  0  0  0
 27  5  1  0  0  0  0
 27 29  1  0  0  0  0
 27 30  1  0  0  0  0
 28 27  1  0  0  0  0
 31  1  1  0  0  0  0
 31 32  1  0  0  0  0
 32 33  1  0  0  0  0
 34 32  2  0  0  0  0
 34 35  1  0  0  0  0
 36 34  1  0  0  0  0
 37 36  1  0  0  0  0
 38 40  1  0  0  0  0
 38 36  2  0  0  0  0
 39 38  1  0  0  0  0
 40 31  2  0  0  0  0
 41 40  1  0  0  0  0
M  END
