3,8
q = -2.0, confidence = 0.858

 40 41  0  0  1  0  0  0  0  0999 V2000
    1.4252   -0.0269   -0.0072 B   0  0  0  0  0  0  0  0  0  0  0  0
    2.8219   -0.0705   -0.0024 N   0  0  0  0  0  0  0  0  0  0  0  0
    0.4589    1.2304   -0.0083 C   0  0  2  0  0  3  0  0  0  0  0  0
   -0.2796    1.6832    1.1376 C   0  0  0  0  0  3  0  0  0  0  0  0
   -1.4151    2.4357    0.6997 C   0  0  0  0  0  0  0  0  0  0  0  0
   -1.4185    2.4314   -0.7148 C   0  0  0  0  0  0  0  0  0  0  0  0
   -0.2858    1.6755   -1.1536 C   0  0  0  0  0  3  0  0  0  0  0  0
    0.4592   -1.2853   -0.0096 C   0  0  2  0  0  3  0  0  0  0  0  0
   -0.2819   -1.7341   -1.1557 C   0  0  0  0  0  3  0  0  0  0  0  0
   -1.4106   -2.4955   -0.7172 C   0  0  0  0  0  0  0  0  0  0  0  0
   -1.4070   -2.5012    0.6977 C   0  0  0  0  0  0  0  0  0  0  0  0
   -0.2752   -1.7442    1.1365 C   0  0  0  0  0  3  0  0  0  0  0  0
    3.6830    1.1400    0.0006 C   0  0  0  0  0  0  0  0  0  0  0  0
    3.4927    1.9703    1.2749 C   0  0  0  0  0  0  0  0  0  0  0  0
    3.4962    1.9736   -1.2721 C   0  0  0  0  0  0  0  0  0  0  0  0
    3.5228   -1.3752   -0.0006 C   0  0  0  0  0  0  0  0  0  0  0  0
    4.3461   -1.5840    1.2762 C   0  0  0  0  0  0  0  0  0  0  0  0
    4.3532   -1.5834   -1.2729 C   0  0  0  0  0  0  0  0  0  0  0  0
   -0.0267    1.4709    2.1849 H   0  0  0  0  0  0  0  0  0  0  0  0
   -2.1706    2.8930    1.3489 H   0  0  0  0  0  0  0  0  0  0  0  0
   -2.1770    2.8850   -1.3630 H   0  0  0  0  0  0  0  0  0  0  0  0
   -0.0376    1.4573   -2.2008 H   0  0  0  0  0  0  0  0  0  0  0  0
   -0.0356   -1.5127   -2.2027 H   0  0  0  0  0  0  0  0  0  0  0  0
   -2.1678   -2.9519   -1.3652 H   0  0  0  0  0  0  0  0  0  0  0  0
   -2.1608   -2.9625    1.3460 H   0  0  0  0  0  0  0  0  0  0  0  0
   -0.0238   -1.5308    2.1839 H   0  0  0  0  0  0  0  0  0  0  0  0
    4.7306    0.7734    0.0015 H   0  0  0  0  0  0  0  0  0  0  0  0
    2.4743    2.4039    1.3180 H   0  0  0  0  0  0  0  0  0  0  0  0
    4.2208    2.8058    1.3043 H   0  0  0  0  0  0  0  0  0  0  0  0
    3.6439    1.3479    2.1788 H   0  0  0  0  0  0  0  0  0  0  0  0
    4.2235    2.8100   -1.2967 H   0  0  0  0  0  0  0  0  0  0  0  0
    2.4775    2.4061   -1.3177 H   0  0  0  0  0  0  0  0  0  0  0  0
    3.6513    1.3538   -2.1771 H   0  0  0  0  0  0  0  0  0  0  0  0
    2.7114   -2.1314   -0.0031 H   0  0  0  0  0  0  0  0  0  0  0  0
    5.1893   -0.8666    1.3530 H   0  0  0  0  0  0  0  0  0  0  0  0
    4.7804   -2.6036    1.2878 H   0  0  0  0  0  0  0  0  0  0  0  0
    3.7119   -1.4692    2.1774 H   0  0  0  0  0  0  0  0  0  0  0  0
    4.7875   -2.6030   -1.2827 H   0  0  0  0  0  0  0  0  0  0  0  0
    5.1968   -0.8660   -1.3447 H   0  0  0  0  0  0  0  0  0  0  0  0
    3.7240   -1.4681   -2.1777 H   0  0  0  0  0  0  0  0  0  0  0  0
  1  2  1  0  0  0  0
  2 16  1  0  0  0  0
  2 13  1  0  0  0  0
  3  1  1  1  0  0  0
  3  4  1  0  0  0  0
  4 19  1  0  0  0  0
  5  4  1  0  0  0  0
  5 20  1  0  0  0  0
  6  5  2  0  0  0  0
  7  6  1  0  0  0  0
  7  3  1  0  0  0  0
  8  1  1  1  0  0  0
  8 12  1  0  0  0  0
  9 10  1  0  0  0  0
  9  8  1  0  0  0  0
 10 11  2  0  0  0  0
 11 12  1  0  0  0  0
 11 25  1  0  0  0  0
 12 26  1  0  0  0  0
 13 27  1  0  0  0  0
 13 14  1  0  0  0  0
 14 29  1  0  0  0  0
 14 28  1  0  0  0  0
 14 30  1  0  0  0  0
 15 13  1  0  0  0  0
 16 17  1  0  0  0  0
 17 36  1  0  0  0  0
 17 35  1  0  0  0  0
 17 37  1  0  0  0  0
 18 16  1  0  0  0  0
 21  6  1  0  0  0  0
 22  7  1  0  0  0  0
 23  9  1  0  0  0  0
 24 10  1  0  0  0  0
 31 15  1  0  0  0  0
 32 15  1  0  0  0  0
 33 15  1  0  0  0  0
 34 16  1  0  0  0  0
 38 18  1  0  0  0  0
 39 18  1  0  0  0  0
 40 18  1  0  0  0  0
M  END
