5,9
q = 0.0, confidence = 0.994

 47 48  0  0  1  0  0  0  0  0999 V2000
    0.6268    2.8966    0.0071 Si  0  0  0  0  0  0  0  0  0  0  0  0
   -0.4486   -2.2396    1.0575 O   0  0  0  0  0  0  0  0  0  0  0  0
    0.5203    1.3661   -0.7646 O   0  0  0  0  0  0  0  0  0  0  0  0
    2.7451    0.5639    1.3417 O   0  0  0  0  0  0  0  0  0  0  0  0
   -1.4667   -0.2254   -1.8212 C   0  0  0  0  0  3  0  0  0  0  0  0
   -1.1346    0.7151   -2.2818 H   0  0  0  0  0  0  0  0  0  0  0  0
   -2.5937   -0.9409   -2.3200 C   0  0  0  0  0  3  0  0  0  0  0  0
   -3.1574   -0.5592   -3.1811 H   0  0  0  0  0  0  0  0  0  0  0  0
   -3.0409   -2.0900   -1.6210 C   0  0  0  0  0  3  0  0  0  0  0  0
   -3.9497   -2.6143   -1.9483 H   0  0  0  0  0  0  0  0  0  0  0  0
   -2.3378   -2.5697   -0.4742 C   0  0  0  0  0  0  0  0  0  0  0  0
   -2.7105   -3.4494    0.0627 H   0  0  0  0  0  0  0  0  0  0  0  0
   -1.1882   -1.8652   -0.0153 C   0  0  0  0  0  0  0  0  0  0  0  0
   -0.7489   -0.6687   -0.6799 C   0  0  2  0  0  3  0  0  0  0  0  0
    0.4591    0.0986   -0.1600 C   0  0  1  0  0  0  0  0  0  0  0  0
    0.3651    0.1716    0.9453 H   0  0  0  0  0  0  0  0  0  0  0  0
    1.7536   -0.6751   -0.4562 C   0  0  0  0  0  0  0  0  0  0  0  0
    1.9800   -0.5916   -1.5390 H   0  0  0  0  0  0  0  0  0  0  0  0
    1.6235   -1.7567   -0.2345 H   0  0  0  0  0  0  0  0  0  0  0  0
    2.9265   -0.1822    0.3816 C   0  0  0  0  0  0  0  0  0  0  0  0
    4.3083   -0.6499    0.0311 C   0  0  0  0  0  0  0  0  0  0  0  0
    4.5745   -1.5227   -1.0461 C   0  0  0  0  0  0  0  0  0  0  0  0
    3.7545   -1.8887   -1.6804 H   0  0  0  0  0  0  0  0  0  0  0  0
    5.8876   -1.9317   -1.3176 C   0  0  0  0  0  0  0  0  0  0  0  0
    6.0869   -2.6121   -2.1592 H   0  0  0  0  0  0  0  0  0  0  0  0
    6.9469   -1.4720   -0.5187 C   0  0  0  0  0  0  0  0  0  0  0  0
    7.9775   -1.7923   -0.7353 H   0  0  0  0  0  0  0  0  0  0  0  0
    6.6910   -0.6032    0.5571 C   0  0  0  0  0  0  0  0  0  0  0  0
    7.5212   -0.2434    1.1837 H   0  0  0  0  0  0  0  0  0  0  0  0
    5.3811   -0.1975    0.8304 C   0  0  0  0  0  0  0  0  0  0  0  0
    5.1471    0.4777    1.6669 H   0  0  0  0  0  0  0  0  0  0  0  0
   -0.4361    4.0279   -1.0548 C   0  0  0  0  0  0  0  0  0  0  0  0
   -1.5060    3.7460   -1.0037 H   0  0  0  0  0  0  0  0  0  0  0  0
   -0.1113    3.9840   -2.1149 H   0  0  0  0  0  0  0  0  0  0  0  0
   -0.3394    5.0808   -0.7178 H   0  0  0  0  0  0  0  0  0  0  0  0
   -0.0002    2.7676    1.7755 C   0  0  0  0  0  0  0  0  0  0  0  0
    0.6615    2.1104    2.3744 H   0  0  0  0  0  0  0  0  0  0  0  0
   -1.0334    2.3697    1.8230 H   0  0  0  0  0  0  0  0  0  0  0  0
   -0.0012    3.7718    2.2478 H   0  0  0  0  0  0  0  0  0  0  0  0
    2.4146    3.4929   -0.0456 C   0  0  0  0  0  0  0  0  0  0  0  0
    3.0571    2.8914    0.6264 H   0  0  0  0  0  0  0  0  0  0  0  0
    2.4755    4.5553    0.2705 H   0  0  0  0  0  0  0  0  0  0  0  0
    2.8213    3.4233   -1.0755 H   0  0  0  0  0  0  0  0  0  0  0  0
   -0.9835   -3.2066    1.9541 C   0  0  0  0  0  0  0  0  0  0  0  0
   -0.2748   -3.2658    2.7995 H   0  0  0  0  0  0  0  0  0  0  0  0
   -1.0648   -4.2073    1.4771 H   0  0  0  0  0  0  0  0  0  0  0  0
   -1.9787   -2.8891    2.3309 H   0  0  0  0  0  0  0  0  0  0  0  0
  1 36  1  0  0  0  0
  2 44  1  0  0  0  0
  3 15  1  0  0  0  0
  3  1  1  0  0  0  0
  5 14  1  0  0  0  0
  6  5  1  0  0  0  0
  7  5  1  0  0  0  0
  7  9  1  0  0  0  0
  8  7  1  0  0  0  0
  9 11  1  0  0  0  0
 10  9  1  0  0  0  0
 11 13  2  0  0  0  0
 11 12  1  0  0  0  0
 13  2  1  0  0  0  0
 14 15  1  1  0  0  0
 14 13  1  0  0  0  0
 15 16  1  1  0  0  0
 17 19  1  0  0  0  0
 17 15  1  0  0  0  0
 17 20  1  0  0  0  0
 18 17  1  0  0  0  0
 20  4  2  0  0  0  0
 21 20  1  0  0  0  0
 21 30  1  0  0  0  0
 22 21  2  0  0  0  0
 23 22  1  0  0  0  0
 24 22  1  0  0  0  0
 24 26  2  0  0  0  0
 25 24  1  0  0  0  0
 26 28  1  0  0  0  0
 27 26  1  0  0  0  0
 28 30  2  0  0  0  0
 28 29  1  0  0  0  0
 30 31  1  0  0  0  0
 32 33  1  0  0  0  0
 32 35  1  0  0  0  0
 32  1  1  0  0  0  0
 34 32  1  0  0  0  0
 36 38  1  0  0  0  0
 36 39  1  0  0  0  0
 36 37  1  0  0  0  0
 40  1  1  0  0  0  0
 40 42  1  0  0  0  0
 40 41  1  0  0  0  0
 43 40  1  0  0  0  0
 44 47  1  0  0  0  0
 44 45  1  0  0  0  0
 46 44  1  0  0  0  0
M  END
