1,12
q = 0.0, confidence = 0.596

 20 19  0  0  0  0  0  0  0  0999 V2000
   -2.1882   -0.3507    0.4486 C   0  0  0  0  0  3  0  0  0  0  0  0
   -2.9811   -1.2412    1.3327 C   0  0  0  0  0  0  0  0  0  0  0  0
   -3.5873   -2.2481    0.9922 O   0  0  0  0  0  0  0  0  0  0  0  0
   -3.0186   -0.7742    2.6142 O   0  0  0  0  0  0  0  0  0  0  0  0
   -3.7066   -1.6153    3.5442 C   0  0  0  0  0  0  0  0  0  0  0  0
   -2.6552    0.9119    0.1916 C   0  0  0  0  0  0  0  0  0  0  0  0
   -1.8562    1.6166   -0.7784 C   0  0  0  0  0  0  0  0  0  0  0  0
   -2.0497    3.0171   -1.2101 C   0  0  0  0  0  0  0  0  0  0  0  0
   -1.2686    3.6674   -1.8990 O   0  0  0  0  0  0  0  0  0  0  0  0
   -3.2050    3.5478   -0.7237 O   0  0  0  0  0  0  0  0  0  0  0  0
   -3.4221    4.9237   -1.0393 C   0  0  0  0  0  0  0  0  0  0  0  0
   -0.7964    0.8776   -1.2534 C   0  0  0  0  0  3  0  0  0  0  0  0
   -3.6856   -1.0848    4.5134 H   0  0  0  0  0  0  0  0  0  0  0  0
   -4.7519   -1.7989    3.2233 H   0  0  0  0  0  0  0  0  0  0  0  0
   -3.1916   -2.5940    3.6322 H   0  0  0  0  0  0  0  0  0  0  0  0
   -3.5494    1.3486    0.6610 H   0  0  0  0  0  0  0  0  0  0  0  0
   -4.3850    5.1991   -0.5728 H   0  0  0  0  0  0  0  0  0  0  0  0
   -2.6034    5.5553   -0.6369 H   0  0  0  0  0  0  0  0  0  0  0  0
   -3.4654    5.0802   -2.1366 H   0  0  0  0  0  0  0  0  0  0  0  0
   -0.1528    1.3134   -2.0300 H   0  0  0  0  0  0  0  0  0  0  0  0
  1  2  1  0  0  0  0
  2  4  1  0  0  0  0
  3  2  2  0  0  0  0
  4  5  1  0  0  0  0
  5 15  1  0  0  0  0
  5 13  1  0  0  0  0
  6  1  2  0  0  0  0
  6 16  1  0  0  0  0
  7  6  1  0  0  0  0
  8  7  1  0  0  0  0
  8 10  1  0  0  0  0
  9  8  2  0  0  0  0
 11 10  1  0  0  0  0
 11 18  1  0  0  0  0
 11 17  1  0  0  0  0
 12  7  2  0  0  0  0
 14  5  1  0  0  0  0
 19 11  1  0  0  0  0
 20 12  1  0  0  0  0
M  END
