4,12
q = -1.0

 29 30  0  0  1  0  0  0  0  0999 V2000
    2.0390   -1.2216    0.3654 N   0  0  0  0  0  0  0  0  0  0  0  0
    3.3985    0.3439   -0.3141 N   0  0  0  0  0  0  0  0  0  0  0  0
   -0.4230   -1.6652    0.5017 C   0  0  1  0  0  3  0  0  0  0  0  0
   -0.6886   -1.6879   -0.9058 C   0  0  0  0  0  3  0  0  0  0  0  0
    0.1350   -1.8228   -1.6214 H   0  0  0  0  0  0  0  0  0  0  0  0
   -2.0040   -1.5070   -1.4074 C   0  0  0  0  0  3  0  0  0  0  0  0
   -2.1823   -1.4970   -2.4907 H   0  0  0  0  0  0  0  0  0  0  0  0
   -3.0721   -1.2550   -0.4989 C   0  0  0  0  0  0  0  0  0  0  0  0
   -4.0811   -1.0548   -0.8862 H   0  0  0  0  0  0  0  0  0  0  0  0
   -2.8372   -1.2285    0.8989 C   0  0  0  0  0  0  0  0  0  0  0  0
   -3.6538   -1.0022    1.5970 H   0  0  0  0  0  0  0  0  0  0  0  0
   -1.5097   -1.4062    1.3881 C   0  0  0  0  0  3  0  0  0  0  0  0
   -1.3225   -1.3333    2.4700 H   0  0  0  0  0  0  0  0  0  0  0  0
    0.9598   -1.9319    1.0637 C   0  0  0  0  0  0  0  0  0  0  0  0
    0.9966   -1.6602    2.1346 H   0  0  0  0  0  0  0  0  0  0  0  0
    1.2022   -3.0128    1.0006 H   0  0  0  0  0  0  0  0  0  0  0  0
    2.4832    0.0336    0.6362 C   0  0  2  0  0  3  0  0  0  0  0  0
    3.5314   -0.7138   -1.1962 C   0  0  0  0  0  0  0  0  0  0  0  0
    4.2192   -0.6805   -2.0463 H   0  0  0  0  0  0  0  0  0  0  0  0
    2.6828   -1.7021   -0.7665 C   0  0  0  0  0  0  0  0  0  0  0  0
    2.4998   -2.7075   -1.1568 H   0  0  0  0  0  0  0  0  0  0  0  0
    2.0901    0.9234    1.7529 C   0  0  0  0  0  0  0  0  0  0  0  0
    2.9748    1.1928    2.3663 H   0  0  0  0  0  0  0  0  0  0  0  0
    1.3427    0.4500    2.4100 H   0  0  0  0  0  0  0  0  0  0  0  0
    1.6429    1.8614    1.3679 H   0  0  0  0  0  0  0  0  0  0  0  0
    4.0394    1.6498   -0.4513 C   0  0  0  0  0  0  0  0  0  0  0  0
    4.4379    1.9851    0.5238 H   0  0  0  0  0  0  0  0  0  0  0  0
    3.2980    2.3807   -0.8295 H   0  0  0  0  0  0  0  0  0  0  0  0
    4.8737    1.5645   -1.1688 H   0  0  0  0  0  0  0  0  0  0  0  0
  1 17  1  0  0  0  0
  1 14  1  0  0  0  0
  2 17  1  0  0  0  0
  3 14  1  1  0  0  0
  3 12  1  0  0  0  0
  4  3  1  0  0  0  0
  5  4  1  0  0  0  0
  6  4  1  0  0  0  0
  6  8  1  0  0  0  0
  7  6  1  0  0  0  0
  8 10  2  0  0  0  0
  9  8  1  0  0  0  0
 10 12  1  0  0  0  0
 10 11  1  0  0  0  0
 12 13  1  0  0  0  0
 14 15  1  0  0  0  0
 16 14  1  0  0  0  0
 17 22  1  1  0  0  0
 18 20  2  0  0  0  0
 18  2  1  0  0  0  0
 19 18  1  0  0  0  0
 20  1  1  0  0  0  0
 21 20  1  0  0  0  0
 22 23  1  0  0  0  0
 22 24  1  0  0  0  0
 25 22  1  0  0  0  0
 26  2  1  0  0  0  0
 26 27  1  0  0  0  0
 28 26  1  0  0  0  0
 29 26  1  0  0  0  0
M  END
