9,14
q = -2.0, confidence = 0.668

 60 63  0  0  1  0  0  0  0  0999 V2000
    4.0896   -3.5948   -0.0255 O   0  0  0  0  0  0  0  0  0  0  0  0
    4.1173   -1.4066    1.3761 O   0  0  0  0  0  0  0  0  0  0  0  0
    4.1176    1.4071   -1.3747 O   0  0  0  0  0  0  0  0  0  0  0  0
    4.0889    3.5955    0.0264 O   0  0  0  0  0  0  0  0  0  0  0  0
   -3.0085   -1.2695    1.5636 C   0  0  0  0  0  0  0  0  0  0  0  0
   -4.2175   -1.8251    1.0506 C   0  0  0  0  0  0  0  0  0  0  0  0
   -4.0372   -2.1171   -0.3603 C   0  0  0  0  0  0  0  0  0  0  0  0
   -2.7185   -1.7260   -0.7200 C   0  0  0  0  0  0  0  0  0  0  0  0
   -2.0650   -1.2212    0.4743 C   0  0  1  0  0  3  0  0  0  0  0  0
   -2.7189    1.7266    0.7172 C   0  0  0  0  0  0  0  0  0  0  0  0
   -4.0377    2.1167    0.3564 C   0  0  0  0  0  0  0  0  0  0  0  0
   -4.2180    1.8227   -1.0542 C   0  0  0  0  0  0  0  0  0  0  0  0
   -3.0088    1.2665   -1.5657 C   0  0  0  0  0  0  0  0  0  0  0  0
   -2.0652    1.2204   -0.4762 C   0  0  2  0  0  3  0  0  0  0  0  0
   -0.7049   -0.5602    0.5539 C   0  0  2  0  0  0  0  0  0  0  0  0
   -0.7048    0.5598   -0.5551 C   0  0  2  0  0  0  0  0  0  0  0  0
    0.4970   -1.4808    0.4788 C   0  0  0  0  0  0  0  0  0  0  0  0
    0.4928   -2.6692   -0.2638 C   0  0  0  0  0  0  0  0  0  0  0  0
    1.6747   -3.4163   -0.4328 C   0  0  0  0  0  0  0  0  0  0  0  0
    2.8851   -2.9777    0.1229 C   0  0  0  0  0  0  0  0  0  0  0  0
    2.8993   -1.7775    0.8972 C   0  0  0  0  0  0  0  0  0  0  0  0
    1.7097   -1.0614    1.0755 C   0  0  0  0  0  0  0  0  0  0  0  0
    4.2234   -0.1641    2.0493 C   0  0  0  0  0  0  0  0  0  0  0  0
    4.1304   -4.7898   -0.7770 C   0  0  0  0  0  0  0  0  0  0  0  0
    0.4968    1.4808   -0.4793 C   0  0  0  0  0  0  0  0  0  0  0  0
    1.7099    1.0614   -1.0753 C   0  0  0  0  0  0  0  0  0  0  0  0
    2.8993    1.7778   -0.8965 C   0  0  0  0  0  0  0  0  0  0  0  0
    2.8845    2.9781   -0.1225 C   0  0  0  0  0  0  0  0  0  0  0  0
    1.6737    3.4167    0.4324 C   0  0  0  0  0  0  0  0  0  0  0  0
    0.4920    2.6694    0.2629 C   0  0  0  0  0  0  0  0  0  0  0  0
    4.2243    0.1646   -2.0479 C   0  0  0  0  0  0  0  0  0  0  0  0
    4.1290    4.7907    0.7777 C   0  0  0  0  0  0  0  0  0  0  0  0
   -2.8065   -0.9864    2.6028 H   0  0  0  0  0  0  0  0  0  0  0  0
   -5.1263   -2.0190    1.6325 H   0  0  0  0  0  0  0  0  0  0  0  0
   -4.7831   -2.5619   -1.0285 H   0  0  0  0  0  0  0  0  0  0  0  0
   -2.2757   -1.8190   -1.7179 H   0  0  0  0  0  0  0  0  0  0  0  0
   -2.2763    1.8218    1.7150 H   0  0  0  0  0  0  0  0  0  0  0  0
   -4.7838    2.5625    1.0238 H   0  0  0  0  0  0  0  0  0  0  0  0
   -5.1267    2.0154   -1.6364 H   0  0  0  0  0  0  0  0  0  0  0  0
   -2.8067    0.9812   -2.6043 H   0  0  0  0  0  0  0  0  0  0  0  0
   -0.6589   -0.0267    1.5263 H   0  0  0  0  0  0  0  0  0  0  0  0
   -0.6580    0.0264   -1.5274 H   0  0  0  0  0  0  0  0  0  0  0  0
   -0.4376   -3.0317   -0.7219 H   0  0  0  0  0  0  0  0  0  0  0  0
    1.6428   -4.3453   -1.0176 H   0  0  0  0  0  0  0  0  0  0  0  0
    1.7212   -0.1226    1.6449 H   0  0  0  0  0  0  0  0  0  0  0  0
    5.2775   -0.0781    2.3721 H   0  0  0  0  0  0  0  0  0  0  0  0
    3.5681   -0.1193    2.9480 H   0  0  0  0  0  0  0  0  0  0  0  0
    3.9821    0.6899    1.3792 H   0  0  0  0  0  0  0  0  0  0  0  0
    5.1841   -5.1259   -0.7760 H   0  0  0  0  0  0  0  0  0  0  0  0
    3.8020   -4.6324   -1.8300 H   0  0  0  0  0  0  0  0  0  0  0  0
    3.4962   -5.5871   -0.3268 H   0  0  0  0  0  0  0  0  0  0  0  0
    1.7220    0.1225   -1.6445 H   0  0  0  0  0  0  0  0  0  0  0  0
    1.6413    4.3459    1.0169 H   0  0  0  0  0  0  0  0  0  0  0  0
   -0.4387    3.0319    0.7203 H   0  0  0  0  0  0  0  0  0  0  0  0
    5.2787    0.0788   -2.3701 H   0  0  0  0  0  0  0  0  0  0  0  0
    3.5695    0.1197   -2.9469 H   0  0  0  0  0  0  0  0  0  0  0  0
    3.9828   -0.6894   -1.3779 H   0  0  0  0  0  0  0  0  0  0  0  0
    5.1826    5.1270    0.7772 H   0  0  0  0  0  0  0  0  0  0  0  0
    3.8000    4.6335    1.8306 H   0  0  0  0  0  0  0  0  0  0  0  0
    3.4949    5.5878    0.3269 H   0  0  0  0  0  0  0  0  0  0  0  0
  1 20  1  0  0  0  0
  2 23  1  0  0  0  0
  3 27  1  0  0  0  0
  4 32  1  0  0  0  0
  5 33  1  0  0  0  0
  6  5  2  0  0  0  0
  6 34  1  0  0  0  0
  7  6  1  0  0  0  0
  8  7  2  0  0  0  0
  8  9  1  0  0  0  0
  9 15  1  6  0  0  0
  9  5  1  0  0  0  0
 10 37  1  0  0  0  0
 11 10  2  0  0  0  0
 11 38  1  0  0  0  0
 12 11  1  0  0  0  0
 13 12  2  0  0  0  0
 13 14  1  0  0  0  0
 14 16  1  1  0  0  0
 14 10  1  0  0  0  0
 15 41  1  1  0  0  0
 16 42  1  6  0  0  0
 16 25  1  0  0  0  0
 16 15  1  0  0  0  0
 17 15  1  0  0  0  0
 17 22  1  0  0  0  0
 18 17  2  0  0  0  0
 19 18  1  0  0  0  0
 19 20  2  0  0  0  0
 20 21  1  0  0  0  0
 21 22  2  0  0  0  0
 21  2  1  0  0  0  0
 22 45  1  0  0  0  0
 23 46  1  0  0  0  0
 23 47  1  0  0  0  0
 24 49  1  0  0  0  0
 24 51  1  0  0  0  0
 24  1  1  0  0  0  0
 25 30  1  0  0  0  0
 26 27  1  0  0  0  0
 26 25  2  0  0  0  0
 27 28  2  0  0  0  0
 28  4  1  0  0  0  0
 28 29  1  0  0  0  0
 29 53  1  0  0  0  0
 30 29  2  0  0  0  0
 30 54  1  0  0  0  0
 31 57  1  0  0  0  0
 31  3  1  0  0  0  0
 32 59  1  0  0  0  0
 35  7  1  0  0  0  0
 36  8  1  0  0  0  0
 39 12  1  0  0  0  0
 40 13  1  0  0  0  0
 43 18  1  0  0  0  0
 44 19  1  0  0  0  0
 48 23  1  0  0  0  0
 50 24  1  0  0  0  0
 52 26  1  0  0  0  0
 55 31  1  0  0  0  0
 56 31  1  0  0  0  0
 58 32  1  0  0  0  0
 60 32  1  0  0  0  0
M  END
