17,27
q = -2.0, confidence = 0.812

 28 28  0  0  1  0  0  0  0  0999 V2000
    1.8298    2.5678    0.4593 C   0  0  0  0  0  0  0  0  0  0  0  0
    1.2451    2.4586    1.3982 H   0  0  0  0  0  0  0  0  0  0  0  0
    2.8917    2.6874    0.7555 H   0  0  0  0  0  0  0  0  0  0  0  0
    3.1457   -1.3597   -1.2038 C   0  0  0  0  0  0  0  0  0  0  0  0
    4.0785   -1.9579   -1.2587 H   0  0  0  0  0  0  0  0  0  0  0  0
    3.2973   -0.4668   -1.8454 H   0  0  0  0  0  0  0  0  0  0  0  0
    2.3297   -1.9573   -1.6479 H   0  0  0  0  0  0  0  0  0  0  0  0
    2.8572   -0.9823    0.2583 C   0  0  0  0  0  0  0  0  0  0  0  0
    1.6445    1.2993   -0.3991 C   0  0  1  0  0  0  0  0  0  0  0  0
    2.4429    1.2018   -1.1589 H   0  0  0  0  0  0  0  0  0  0  0  0
   -0.0294    3.1420   -0.9282 C   0  0  0  0  0  0  0  0  0  0  0  0
   -0.4380    3.7163   -1.7837 H   0  0  0  0  0  0  0  0  0  0  0  0
   -0.7999    3.1608   -0.1288 H   0  0  0  0  0  0  0  0  0  0  0  0
    1.2729    3.7317   -0.3635 C   0  0  0  0  0  0  0  0  0  0  0  0
    1.9709    3.9781   -1.1928 H   0  0  0  0  0  0  0  0  0  0  0  0
    1.1225    4.6573    0.2305 H   0  0  0  0  0  0  0  0  0  0  0  0
    1.6582   -0.0247    0.4349 C   0  0  0  0  0  3  0  0  0  0  0  0
    1.5859    0.2362    1.5137 H   0  0  0  0  0  0  0  0  0  0  0  0
    4.1157   -0.3142    0.8593 C   0  0  0  0  0  0  0  0  0  0  0  0
    3.9518   -0.0273    1.9190 H   0  0  0  0  0  0  0  0  0  0  0  0
    4.3904    0.6037    0.2989 H   0  0  0  0  0  0  0  0  0  0  0  0
    4.9876   -1.0001    0.8235 H   0  0  0  0  0  0  0  0  0  0  0  0
    2.5481   -2.2681    1.0473 C   0  0  0  0  0  0  0  0  0  0  0  0
    1.6395   -2.7559    0.6407 H   0  0  0  0  0  0  0  0  0  0  0  0
    2.3734   -2.0501    2.1209 H   0  0  0  0  0  0  0  0  0  0  0  0
    3.3910   -2.9866    0.9812 H   0  0  0  0  0  0  0  0  0  0  0  0
    0.3143    1.7064   -1.3349 C   0  0  0  0  0  3  0  0  0  0  0  0
    0.6056    1.6409   -2.3994 H   0  0  0  0  0  0  0  0  0  0  0  0
  1  3  1  0  0  0  0
  1  2  1  0  0  0  0
  4  8  1  0  0  0  0
  5  4  1  0  0  0  0
  6  4  1  0  0  0  0
  7  4  1  0  0  0  0
  8 17  1  0  0  0  0
  8 19  1  0  0  0  0
  8 23  1  0  0  0  0
  9 10  1  6  0  0  0
  9 17  1  0  0  0  0
  9  1  1  0  0  0  0
 11 14  1  0  0  0  0
 11 13  1  0  0  0  0
 12 11  1  0  0  0  0
 14 16  1  0  0  0  0
 14  1  1  0  0  0  0
 15 14  1  0  0  0  0
 17 18  1  0  0  0  0
 19 20  1  0  0  0  0
 21 19  1  0  0  0  0
 22 19  1  0  0  0  0
 23 25  1  0  0  0  0
 24 23  1  0  0  0  0
 26 23  1  0  0  0  0
 27 11  1  0  0  0  0
 27  9  1  0  0  0  0
 28 27  1  0  0  0  0
M  END
