14,19
q = -1.0, confidence = 0.0

 61 64  0  0  0  0  0  0  0  0999 V2000
   -0.4538   -3.4327   -0.4263 O   0  0  0  0  0  0  0  0  0  0  0  0
    2.5484   -1.1820    1.1106 N   0  0  0  0  0  0  0  0  0  0  0  0
   -2.4489   -0.4672    1.4884 N   0  0  0  0  0  0  0  0  0  0  0  0
   -1.3963   -2.3672    1.5465 N   0  0  0  0  0  0  0  0  0  0  0  0
    1.0536   -2.7493    1.2786 N   0  0  0  0  0  0  0  0  0  0  0  0
   -4.4874    2.2876    0.0193 C   0  0  0  0  0  0  0  0  0  0  0  0
   -5.4164    2.4141   -0.5591 H   0  0  0  0  0  0  0  0  0  0  0  0
   -1.4613   -4.2539   -0.9935 C   0  0  0  0  0  0  0  0  0  0  0  0
   -1.3310   -5.3053   -0.6565 H   0  0  0  0  0  0  0  0  0  0  0  0
   -1.3690   -4.2080   -2.0953 H   0  0  0  0  0  0  0  0  0  0  0  0
   -2.4826   -3.9092   -0.7154 H   0  0  0  0  0  0  0  0  0  0  0  0
   -2.3111   -2.3926    2.5777 C   0  0  0  0  0  0  0  0  0  0  0  0
   -2.4169   -3.2547    3.2437 H   0  0  0  0  0  0  0  0  0  0  0  0
    1.3319   -1.5938    0.6189 C   0  0  0  0  0  2  0  0  0  0  0  0
    4.2034   -0.8749   -1.2765 C   0  0  0  0  0  0  0  0  0  0  0  0
    3.3095   -1.0376   -1.9149 H   0  0  0  0  0  0  0  0  0  0  0  0
    4.3860   -1.8368   -0.7570 H   0  0  0  0  0  0  0  0  0  0  0  0
    5.0648   -0.6617   -1.9370 H   0  0  0  0  0  0  0  0  0  0  0  0
   -1.4652   -1.1908    0.8692 C   0  0  0  0  0  2  0  0  0  0  0  0
    3.0190   -2.0928    2.0532 C   0  0  0  0  0  0  0  0  0  0  0  0
    3.9800   -1.9529    2.5561 H   0  0  0  0  0  0  0  0  0  0  0  0
   -4.9309   -0.2118    0.0173 C   0  0  0  0  0  0  0  0  0  0  0  0
   -4.3255   -0.9513   -0.5453 H   0  0  0  0  0  0  0  0  0  0  0  0
   -5.7900    0.0846   -0.6132 H   0  0  0  0  0  0  0  0  0  0  0  0
   -5.3282   -0.7256    0.9173 H   0  0  0  0  0  0  0  0  0  0  0  0
   -2.1144    1.9574    1.4982 C   0  0  0  0  0  0  0  0  0  0  0  0
    3.9875    0.2466   -0.3009 C   0  0  0  0  0  0  0  0  0  0  0  0
    4.4414    2.5604    0.4170 C   0  0  0  0  0  0  0  0  0  0  0  0
   -3.7315    3.4219    0.3661 C   0  0  0  0  0  0  0  0  0  0  0  0
   -2.8916    0.8467    1.1067 C   0  0  0  0  0  0  0  0  0  0  0  0
   -4.0962    0.9860    0.3838 C   0  0  0  0  0  0  0  0  0  0  0  0
    3.1991    0.0769    0.8587 C   0  0  0  0  0  0  0  0  0  0  0  0
    3.0730    1.0913    1.8363 C   0  0  0  0  0  0  0  0  0  0  0  0
    2.0648   -3.0793    2.1512 C   0  0  0  0  0  0  0  0  0  0  0  0
    2.0338   -3.9843    2.7656 H   0  0  0  0  0  0  0  0  0  0  0  0
   -2.9850   -1.1927    2.5517 C   0  0  0  0  0  0  0  0  0  0  0  0
   -3.7843   -0.7883    3.1794 H   0  0  0  0  0  0  0  0  0  0  0  0
   -4.1441    4.7986   -0.0888 C   0  0  0  0  0  0  0  0  0  0  0  0
   -5.2324    4.8581   -0.2846 H   0  0  0  0  0  0  0  0  0  0  0  0
   -3.6247    5.0684   -1.0338 H   0  0  0  0  0  0  0  0  0  0  0  0
   -3.8812    5.5735    0.6585 H   0  0  0  0  0  0  0  0  0  0  0  0
    4.5862    1.5046   -0.5008 C   0  0  0  0  0  0  0  0  0  0  0  0
    5.1957    1.6565   -1.4060 H   0  0  0  0  0  0  0  0  0  0  0  0
   -2.5569    3.2361    1.1190 C   0  0  0  0  0  0  0  0  0  0  0  0
   -1.9609    4.1135    1.4174 H   0  0  0  0  0  0  0  0  0  0  0  0
    2.3367    0.8527    3.1302 C   0  0  0  0  0  0  0  0  0  0  0  0
    1.4644    0.1859    2.9993 H   0  0  0  0  0  0  0  0  0  0  0  0
    1.9855    1.8061    3.5680 H   0  0  0  0  0  0  0  0  0  0  0  0
    2.9994    0.3689    3.8792 H   0  0  0  0  0  0  0  0  0  0  0  0
   -0.8398    1.7616    2.2705 C   0  0  0  0  0  0  0  0  0  0  0  0
   -0.9847    1.0866    3.1383 H   0  0  0  0  0  0  0  0  0  0  0  0
   -0.4403    2.7254    2.6382 H   0  0  0  0  0  0  0  0  0  0  0  0
   -0.0705    1.2953    1.6220 H   0  0  0  0  0  0  0  0  0  0  0  0
    3.6984    2.3258    1.5883 C   0  0  0  0  0  0  0  0  0  0  0  0
    3.5935    3.1312    2.3329 H   0  0  0  0  0  0  0  0  0  0  0  0
    5.0374    3.9160    0.1372 C   0  0  0  0  0  0  0  0  0  0  0  0
    5.9525    3.8422   -0.4825 H   0  0  0  0  0  0  0  0  0  0  0  0
    5.2905    4.4552    1.0712 H   0  0  0  0  0  0  0  0  0  0  0  0
    4.3149    4.5497   -0.4215 H   0  0  0  0  0  0  0  0  0  0  0  0
   -0.3356   -3.4169    1.0350 B   0  0  2  0  0  0  0  0  0  0  0  0
   -0.4486   -4.4931    1.6164 H   0  0  0  0  0  0  0  0  0  0  0  0
  1 60  1  0  0  0  0
  2 20  1  0  0  0  0
  3 36  1  0  0  0  0
  4 12  1  0  0  0  0
  5 34  1  0  0  0  0
  6 29  2  0  0  0  0
  6 31  1  0  0  0  0
  7  6  1  0  0  0  0
  8 11  1  0  0  0  0
  8  9  1  0  0  0  0
  8  1  1  0  0  0  0
 10  8  1  0  0  0  0
 12 13  1  0  0  0  0
 14  2  1  0  0  0  0
 14  5  1  0  0  0  0
 15 17  1  0  0  0  0
 15 27  1  0  0  0  0
 16 15  1  0  0  0  0
 18 15  1  0  0  0  0
 19  3  1  0  0  0  0
 19  4  1  0  0  0  0
 20 34  2  0  0  0  0
 20 21  1  0  0  0  0
 22 31  1  0  0  0  0
 22 25  1  0  0  0  0
 23 22  1  0  0  0  0
 24 22  1  0  0  0  0
 26 50  1  0  0  0  0
 27 32  1  0  0  0  0
 28 54  2  0  0  0  0
 29 44  1  0  0  0  0
 30  3  1  0  0  0  0
 30 26  1  0  0  0  0
 31 30  2  0  0  0  0
 32  2  1  0  0  0  0
 32 33  2  0  0  0  0
 33 46  1  0  0  0  0
 34 35  1  0  0  0  0
 36 12  2  0  0  0  0
 36 37  1  0  0  0  0
 38 29  1  0  0  0  0
 38 41  1  0  0  0  0
 39 38  1  0  0  0  0
 40 38  1  0  0  0  0
 42 27  2  0  0  0  0
 42 28  1  0  0  0  0
 43 42  1  0  0  0  0
 44 45  1  0  0  0  0
 44 26  2  0  0  0  0
 46 48  1  0  0  0  0
 46 49  1  0  0  0  0
 47 46  1  0  0  0  0
 50 52  1  0  0  0  0
 50 51  1  0  0  0  0
 53 50  1  0  0  0  0
 54 33  1  0  0  0  0
 54 55  1  0  0  0  0
 56 28  1  0  0  0  0
 56 58  1  0  0  0  0
 57 56  1  0  0  0  0
 59 56  1  0  0  0  0
 60  5  1  0  0  0  0
 60  4  1  0  0  0  0
 60 61  1  1  0  0  0
M  END
