3,4
q = -1.0

 14 14  0  0  0  0  0  0  0  0999 V2000
   -0.0001    2.0740    1.5118 N   0  0  0  0  0  0  0  0  0  0  0  0
    0.0000    3.1135   -0.3997 N   0  0  0  0  0  0  0  0  0  0  0  0
   -0.0001    1.8636    0.1679 C   0  0  0  0  0  2  0  0  0  0  0  0
   -0.0000    0.7364    2.1309 C   0  0  0  0  0  3  0  0  0  0  0  0
   -0.8935    0.6091    2.7710 H   0  0  0  0  0  0  0  0  0  0  0  0
    0.8935    0.6091    2.7710 H   0  0  0  0  0  0  0  0  0  0  0  0
   -0.0000    3.4217    1.8218 C   0  0  0  0  0  0  0  0  0  0  0  0
   -0.0000    3.8081    2.8457 H   0  0  0  0  0  0  0  0  0  0  0  0
    0.0000    4.0857    0.6146 C   0  0  0  0  0  0  0  0  0  0  0  0
    0.0001    5.1554    0.3857 H   0  0  0  0  0  0  0  0  0  0  0  0
   -0.0001    3.4039   -1.8195 C   0  0  0  0  0  0  0  0  0  0  0  0
    0.0003    2.4506   -2.3764 H   0  0  0  0  0  0  0  0  0  0  0  0
    0.9025    3.9828   -2.1029 H   0  0  0  0  0  0  0  0  0  0  0  0
   -0.9030    3.9821   -2.1030 H   0  0  0  0  0  0  0  0  0  0  0  0
  1  7  1  0  0  0  0
  1  4  1  0  0  0  0
  2  3  1  0  0  0  0
  2  9  1  0  0  0  0
  3  1  1  0  0  0  0
  4  5  1  0  0  0  0
  4  6  1  0  0  0  0
  7  8  1  0  0  0  0
  9  7  2  0  0  0  0
 10  9  1  0  0  0  0
 11  2  1  0  0  0  0
 12 11  1  0  0  0  0
 13 11  1  0  0  0  0
 14 11  1  0  0  0  0
M  END
