5,24
q = -1.0

 41 44  0  0  0  0  0  0  0  0999 V2000
   -0.1150    1.0646    0.1807 N   0  0  0  0  0  0  0  0  0  0  0  0
    1.7423    1.2158    1.6184 N   0  0  0  0  0  0  0  0  0  0  0  0
    0.4599   -1.2680    0.2008 N   0  0  0  0  0  0  0  0  0  0  0  0
   -0.0600   -2.1912    0.2446 H   0  0  0  0  0  0  0  0  0  0  0  0
   -2.4937    1.3252   -0.1324 C   0  0  0  0  0  3  0  0  0  0  0  0
   -3.6443    2.1045   -0.2742 C   0  0  0  0  0  0  0  0  0  0  0  0
   -4.6119    1.5999   -0.4144 H   0  0  0  0  0  0  0  0  0  0  0  0
   -3.5464    3.5080   -0.2209 C   0  0  0  0  0  0  0  0  0  0  0  0
   -4.4536    4.1210   -0.3314 H   0  0  0  0  0  0  0  0  0  0  0  0
   -2.3030    4.1203   -0.0122 C   0  0  0  0  0  0  0  0  0  0  0  0
   -2.2284    5.2163    0.0487 H   0  0  0  0  0  0  0  0  0  0  0  0
   -1.1387    3.3466    0.1300 C   0  0  0  0  0  0  0  0  0  0  0  0
   -0.1720    3.8357    0.3117 H   0  0  0  0  0  0  0  0  0  0  0  0
   -1.2381    1.9485    0.0508 C   0  0  0  0  0  0  0  0  0  0  0  0
    1.1979    1.5866    0.4581 C   0  0  0  0  0  0  0  0  0  0  0  0
    1.8336    2.4133   -0.4857 C   0  0  0  0  0  0  0  0  0  0  0  0
    1.3296    2.6754   -1.4267 H   0  0  0  0  0  0  0  0  0  0  0  0
    3.1285    2.8579   -0.1912 C   0  0  0  0  0  0  0  0  0  0  0  0
    3.6729    3.4938   -0.9049 H   0  0  0  0  0  0  0  0  0  0  0  0
    3.7261    2.4558    1.0125 C   0  0  0  0  0  0  0  0  0  0  0  0
    4.7489    2.7643    1.2720 H   0  0  0  0  0  0  0  0  0  0  0  0
    2.9897    1.6349    1.8812 C   0  0  0  0  0  0  0  0  0  0  0  0
    3.4270    1.2928    2.8349 H   0  0  0  0  0  0  0  0  0  0  0  0
   -0.4080   -0.2638    0.1467 C   0  0  0  0  0  2  0  0  0  0  0  0
    1.8810   -1.2991    0.1722 C   0  0  0  0  0  0  0  0  0  0  0  0
    2.5927   -0.7097   -0.8648 C   0  0  0  0  0  0  0  0  0  0  0  0
    2.0568   -0.2396   -1.7017 H   0  0  0  0  0  0  0  0  0  0  0  0
    4.0150   -0.6958   -0.8472 C   0  0  0  0  0  0  0  0  0  0  0  0
    4.7757   -0.0548   -1.8691 C   0  0  0  0  0  0  0  0  0  0  0  0
    4.2421    0.4261   -2.7035 H   0  0  0  0  0  0  0  0  0  0  0  0
    6.1609   -0.0302   -1.8104 C   0  0  0  0  0  0  0  0  0  0  0  0
    6.7367    0.4703   -2.6035 H   0  0  0  0  0  0  0  0  0  0  0  0
    6.8454   -0.6526   -0.7308 C   0  0  0  0  0  0  0  0  0  0  0  0
    7.9450   -0.6278   -0.6966 H   0  0  0  0  0  0  0  0  0  0  0  0
    6.1336   -1.2946    0.2720 C   0  0  0  0  0  0  0  0  0  0  0  0
    6.6608   -1.7841    1.1056 H   0  0  0  0  0  0  0  0  0  0  0  0
    4.7092   -1.3352    0.2447 C   0  0  0  0  0  0  0  0  0  0  0  0
    3.9430   -1.9853    1.2576 C   0  0  0  0  0  0  0  0  0  0  0  0
    4.4709   -2.4903    2.0811 H   0  0  0  0  0  0  0  0  0  0  0  0
    2.5599   -1.9696    1.2291 C   0  0  0  0  0  0  0  0  0  0  0  0
    1.9683   -2.4394    2.0278 H   0  0  0  0  0  0  0  0  0  0  0  0
  1 15  1  0  0  0  0
  2 22  1  0  0  0  0
  3  4  1  0  0  0  0
  5 14  1  0  0  0  0
  6  8  1  0  0  0  0
  6  5  2  0  0  0  0
  7  6  1  0  0  0  0
  8 10  2  0  0  0  0
  9  8  1  0  0  0  0
 10 11  1  0  0  0  0
 10 12  1  0  0  0  0
 12 13  1  0  0  0  0
 14 12  2  0  0  0  0
 14  1  1  0  0  0  0
 15  2  2  0  0  0  0
 16 18  2  0  0  0  0
 16 15  1  0  0  0  0
 17 16  1  0  0  0  0
 18 20  1  0  0  0  0
 19 18  1  0  0  0  0
 20 21  1  0  0  0  0
 20 22  2  0  0  0  0
 22 23  1  0  0  0  0
 24  1  1  0  0  0  0
 24  3  1  0  0  0  0
 25  3  1  0  0  0  0
 25 40  1  0  0  0  0
 26 28  1  0  0  0  0
 26 25  2  0  0  0  0
 27 26  1  0  0  0  0
 28 37  1  0  0  0  0
 29 31  1  0  0  0  0
 29 28  2  0  0  0  0
 30 29  1  0  0  0  0
 31 33  2  0  0  0  0
 32 31  1  0  0  0  0
 33 34  1  0  0  0  0
 33 35  1  0  0  0  0
 35 36  1  0  0  0  0
 37 35  2  0  0  0  0
 37 38  1  0  0  0  0
 38 39  1  0  0  0  0
 40 38  2  0  0  0  0
 40 41  1  0  0  0  0
M  END
