3,22
q = -1.0

 41 43  0  0  0  0  0  0  0  0999 V2000
    0.4921    1.3393   -0.0528 N   0  0  0  0  0  0  0  0  0  0  0  0
    2.4306    2.1813    1.0078 N   0  0  0  0  0  0  0  0  0  0  0  0
   -1.9119    1.3400    0.1211 C   0  0  0  0  0  3  0  0  0  0  0  0
   -3.1354    1.9935    0.2838 C   0  0  0  0  0  0  0  0  0  0  0  0
   -4.0604    1.3979    0.2801 H   0  0  0  0  0  0  0  0  0  0  0  0
   -3.1601    3.3920    0.4519 C   0  0  0  0  0  0  0  0  0  0  0  0
   -4.1249    3.9061    0.5778 H   0  0  0  0  0  0  0  0  0  0  0  0
   -1.9654    4.1253    0.4646 C   0  0  0  0  0  0  0  0  0  0  0  0
   -1.9874    5.2164    0.6048 H   0  0  0  0  0  0  0  0  0  0  0  0
   -0.7280    3.4787    0.3048 C   0  0  0  0  0  0  0  0  0  0  0  0
    0.2084    4.0539    0.3273 H   0  0  0  0  0  0  0  0  0  0  0  0
   -0.7125    2.0869    0.1277 C   0  0  0  0  0  0  0  0  0  0  0  0
    1.7451    2.0464   -0.1303 C   0  0  0  0  0  0  0  0  0  0  0  0
    3.6020    2.8357    0.9508 C   0  0  0  0  0  0  0  0  0  0  0  0
    4.1566    2.9263    1.9008 H   0  0  0  0  0  0  0  0  0  0  0  0
    4.1202    3.3860   -0.2332 C   0  0  0  0  0  0  0  0  0  0  0  0
    5.0868    3.9105   -0.2246 H   0  0  0  0  0  0  0  0  0  0  0  0
    3.3741    3.2574   -1.4148 C   0  0  0  0  0  0  0  0  0  0  0  0
    3.7401    3.6806   -2.3622 H   0  0  0  0  0  0  0  0  0  0  0  0
    2.1506    2.5761   -1.3679 C   0  0  0  0  0  0  0  0  0  0  0  0
    1.5200    2.4427   -2.2583 H   0  0  0  0  0  0  0  0  0  0  0  0
    0.3480   -0.0052   -0.1938 C   0  0  0  0  0  2  0  0  0  0  0  0
    1.3088   -0.8902   -0.3849 N   0  0  0  0  0  0  0  0  0  0  0  0
    0.8863   -1.8509   -0.4523 H   0  0  0  0  0  0  0  0  0  0  0  0
    2.7779   -0.8396   -0.2661 C   0  0  0  0  0  0  0  0  0  0  0  0
    3.1280    0.1454   -0.6249 H   0  0  0  0  0  0  0  0  0  0  0  0
    3.3820   -1.9379   -1.1605 C   0  0  0  0  0  0  0  0  0  0  0  0
    3.0270   -1.8068   -2.2039 H   0  0  0  0  0  0  0  0  0  0  0  0
    4.4814   -1.7756   -1.1740 H   0  0  0  0  0  0  0  0  0  0  0  0
    3.0795   -3.3550   -0.6478 C   0  0  0  0  0  0  0  0  0  0  0  0
    3.6029   -4.0958   -1.2866 H   0  0  0  0  0  0  0  0  0  0  0  0
    1.9948   -3.5788   -0.7570 H   0  0  0  0  0  0  0  0  0  0  0  0
    3.4856   -3.5232    0.8230 C   0  0  0  0  0  0  0  0  0  0  0  0
    3.2074   -4.5354    1.1817 H   0  0  0  0  0  0  0  0  0  0  0  0
    4.5939   -3.4517    0.9095 H   0  0  0  0  0  0  0  0  0  0  0  0
    2.8403   -2.4468    1.7074 C   0  0  0  0  0  0  0  0  0  0  0  0
    1.7360   -2.5829    1.7031 H   0  0  0  0  0  0  0  0  0  0  0  0
    3.1626   -2.5606    2.7626 H   0  0  0  0  0  0  0  0  0  0  0  0
    3.1869   -1.0379    1.2085 C   0  0  0  0  0  0  0  0  0  0  0  0
    4.2853   -0.8731    1.2739 H   0  0  0  0  0  0  0  0  0  0  0  0
    2.7090   -0.2506    1.8263 H   0  0  0  0  0  0  0  0  0  0  0  0
  1 12  1  0  0  0  0
  3 12  2  0  0  0  0
  3  4  1  0  0  0  0
  4  6  2  0  0  0  0
  5  4  1  0  0  0  0
  6  8  1  0  0  0  0
  6  7  1  0  0  0  0
  8  9  1  0  0  0  0
 10 11  1  0  0  0  0
 10  8  2  0  0  0  0
 12 10  1  0  0  0  0
 13  1  1  0  0  0  0
 13  2  2  0  0  0  0
 14  2  1  0  0  0  0
 14 15  1  0  0  0  0
 16 17  1  0  0  0  0
 16 14  2  0  0  0  0
 18 20  2  0  0  0  0
 18 16  1  0  0  0  0
 19 18  1  0  0  0  0
 20 13  1  0  0  0  0
 21 20  1  0  0  0  0
 22  1  1  0  0  0  0
 23 25  1  0  0  0  0
 23 22  1  0  0  0  0
 24 23  1  0  0  0  0
 25 39  1  0  0  0  0
 26 25  1  0  0  0  0
 27 30  1  0  0  0  0
 27 25  1  0  0  0  0
 28 27  1  0  0  0  0
 29 27  1  0  0  0  0
 30 33  1  0  0  0  0
 31 30  1  0  0  0  0
 32 30  1  0  0  0  0
 33 35  1  0  0  0  0
 33 34  1  0  0  0  0
 33 36  1  0  0  0  0
 36 38  1  0  0  0  0
 37 36  1  0  0  0  0
 39 40  1  0  0  0  0
 39 36  1  0  0  0  0
 39 41  1  0  0  0  0
M  END
