1,3
q = 0.0, confidence = 0.924

 31 32  0  0  0  0  0  0  0  0999 V2000
   -0.3292    1.1082   -0.0002 C   0  0  0  0  0  2  0  0  0  0  0  0
   -0.9439    2.2836   -0.0003 O   0  0  0  0  0  0  0  0  0  0  0  0
    0.7412   -1.3377    0.0002 C   0  0  0  0  0  2  0  0  0  0  0  0
    1.1279   -2.6066    0.0003 O   0  0  0  0  0  0  0  0  0  0  0  0
   -1.8617   -2.5568    0.0004 S   0  0  0  0  0  0  0  0  0  0  0  0
   -0.7041   -1.2491    0.0002 C   0  0  0  0  0  0  0  0  0  0  0  0
   -1.2975    0.0192   -0.0000 C   0  0  0  0  0  0  0  0  0  0  0  0
   -2.7418   -0.0443   -0.0001 C   0  0  0  0  0  0  0  0  0  0  0  0
   -3.1935   -1.4044    0.0002 C   0  0  0  0  0  0  0  0  0  0  0  0
   -4.5605   -1.7297    0.0002 C   0  0  0  0  0  0  0  0  0  0  0  0
   -4.8903   -2.7789    0.0004 H   0  0  0  0  0  0  0  0  0  0  0  0
   -5.4894   -0.6838   -0.0001 C   0  0  0  0  0  0  0  0  0  0  0  0
   -6.5648   -0.9166   -0.0001 H   0  0  0  0  0  0  0  0  0  0  0  0
   -5.0644    0.6649   -0.0003 C   0  0  0  0  0  0  0  0  0  0  0  0
   -5.8162    1.4681   -0.0005 H   0  0  0  0  0  0  0  0  0  0  0  0
   -3.7072    0.9912   -0.0003 C   0  0  0  0  0  0  0  0  0  0  0  0
   -3.3714    2.0358   -0.0005 H   0  0  0  0  0  0  0  0  0  0  0  0
   -0.1960    3.5189   -0.0002 C   0  0  0  0  0  0  0  0  0  0  0  0
    0.4583    3.5284   -0.8952 H   0  0  0  0  0  0  0  0  0  0  0  0
    0.4584    3.5283    0.8947 H   0  0  0  0  0  0  0  0  0  0  0  0
   -1.1865    4.6641   -0.0002 C   0  0  0  0  0  0  0  0  0  0  0  0
   -1.8332    4.6342   -0.8996 H   0  0  0  0  0  0  0  0  0  0  0  0
   -0.6409    5.6279   -0.0001 H   0  0  0  0  0  0  0  0  0  0  0  0
   -1.8331    4.6341    0.8993 H   0  0  0  0  0  0  0  0  0  0  0  0
    2.5286   -2.9584    0.0001 C   0  0  0  0  0  0  0  0  0  0  0  0
    3.0003   -2.5049    0.8953 H   0  0  0  0  0  0  0  0  0  0  0  0
    3.0001   -2.5046   -0.8951 H   0  0  0  0  0  0  0  0  0  0  0  0
    2.6273   -4.4690   -0.0002 C   0  0  0  0  0  0  0  0  0  0  0  0
    2.1435   -4.9004   -0.8987 H   0  0  0  0  0  0  0  0  0  0  0  0
    2.1436   -4.9007    0.8982 H   0  0  0  0  0  0  0  0  0  0  0  0
    3.6925   -4.7726   -0.0004 H   0  0  0  0  0  0  0  0  0  0  0  0
  1  7  1  0  0  0  0
  2 18  1  0  0  0  0
  2  1  1  0  0  0  0
  3  6  1  0  0  0  0
  3  4  1  0  0  0  0
  6  5  1  0  0  0  0
  7  6  2  0  0  0  0
  8  7  1  0  0  0  0
  8  9  1  0  0  0  0
  9 10  2  0  0  0  0
  9  5  1  0  0  0  0
 10 11  1  0  0  0  0
 12 13  1  0  0  0  0
 12 10  1  0  0  0  0
 14 12  2  0  0  0  0
 15 14  1  0  0  0  0
 16 14  1  0  0  0  0
 16  8  2  0  0  0  0
 17 16  1  0  0  0  0
 18 21  1  0  0  0  0
 18 20  1  0  0  0  0
 19 18  1  0  0  0  0
 21 23  1  0  0  0  0
 21 24  1  0  0  0  0
 22 21  1  0  0  0  0
 25  4  1  0  0  0  0
 25 26  1  0  0  0  0
 27 25  1  0  0  0  0
 28 25  1  0  0  0  0
 28 30  1  0  0  0  0
 29 28  1  0  0  0  0
 31 28  1  0  0  0  0
M  END
