4,24
q = -1.0

 41 43  0  0  0  0  0  0  0  0999 V2000
   -0.4097    1.0914   -0.0624 N   0  0  0  0  0  0  0  0  0  0  0  0
   -0.9122   -1.2496    0.0677 N   0  0  0  0  0  0  0  0  0  0  0  0
   -0.3693   -2.1597    0.0317 H   0  0  0  0  0  0  0  0  0  0  0  0
    1.9798    1.4234   -0.0027 C   0  0  0  0  0  3  0  0  0  0  0  0
    3.1162    2.2356   -0.0059 C   0  0  0  0  0  0  0  0  0  0  0  0
    4.1070    1.7607    0.0523 H   0  0  0  0  0  0  0  0  0  0  0  0
    2.9735    3.6333   -0.0973 C   0  0  0  0  0  0  0  0  0  0  0  0
    3.8694    4.2723   -0.1009 H   0  0  0  0  0  0  0  0  0  0  0  0
    1.6985    4.2061   -0.1991 C   0  0  0  0  0  0  0  0  0  0  0  0
    1.5868    5.2969   -0.2895 H   0  0  0  0  0  0  0  0  0  0  0  0
    0.5482    3.3989   -0.1952 C   0  0  0  0  0  0  0  0  0  0  0  0
   -0.4456    3.8569   -0.2930 H   0  0  0  0  0  0  0  0  0  0  0  0
    0.6945    2.0077   -0.0790 C   0  0  0  0  0  0  0  0  0  0  0  0
   -1.7584    1.5680   -0.2258 C   0  0  0  0  0  0  0  0  0  0  0  0
   -2.3971    1.1594   -1.3243 N   0  0  0  0  0  0  0  0  0  0  0  0
   -3.6684    1.5540   -1.4906 C   0  0  0  0  0  0  0  0  0  0  0  0
   -4.1798    1.1807   -2.3942 H   0  0  0  0  0  0  0  0  0  0  0  0
   -4.3387    2.3902   -0.5842 C   0  0  0  0  0  0  0  0  0  0  0  0
   -5.3819    2.6852   -0.7673 H   0  0  0  0  0  0  0  0  0  0  0  0
   -3.6453    2.8344    0.5512 C   0  0  0  0  0  0  0  0  0  0  0  0
   -4.1318    3.4906    1.2882 H   0  0  0  0  0  0  0  0  0  0  0  0
   -2.3228    2.4162    0.7438 C   0  0  0  0  0  0  0  0  0  0  0  0
   -1.7402    2.7267    1.6223 H   0  0  0  0  0  0  0  0  0  0  0  0
   -0.0747   -0.2273   -0.0124 C   0  0  0  0  0  2  0  0  0  0  0  0
   -2.3337   -1.3208    0.2141 C   0  0  0  0  0  0  0  0  0  0  0  0
   -3.0796   -1.8300   -0.8742 C   0  0  0  0  0  0  0  0  0  0  0  0
   -4.4729   -1.9323   -0.7173 C   0  0  0  0  0  0  0  0  0  0  0  0
   -5.0769   -2.3187   -1.5527 H   0  0  0  0  0  0  0  0  0  0  0  0
   -5.0924   -1.5445    0.4798 C   0  0  0  0  0  0  0  0  0  0  0  0
   -6.1847   -1.6280    0.5842 H   0  0  0  0  0  0  0  0  0  0  0  0
   -4.3243   -1.0708    1.5518 C   0  0  0  0  0  0  0  0  0  0  0  0
   -4.8099   -0.7969    2.5011 H   0  0  0  0  0  0  0  0  0  0  0  0
   -2.9236   -0.9647    1.4483 C   0  0  0  0  0  0  0  0  0  0  0  0
   -2.3871   -2.1787   -2.1627 C   0  0  0  0  0  0  0  0  0  0  0  0
   -1.9789   -1.2542   -2.6245 H   0  0  0  0  0  0  0  0  0  0  0  0
   -3.0824   -2.6554   -2.8787 H   0  0  0  0  0  0  0  0  0  0  0  0
   -1.5259   -2.8598   -2.0040 H   0  0  0  0  0  0  0  0  0  0  0  0
   -2.0751   -0.5358    2.6161 C   0  0  0  0  0  0  0  0  0  0  0  0
   -2.6848   -0.4285    3.5325 H   0  0  0  0  0  0  0  0  0  0  0  0
   -1.5678    0.4341    2.4347 H   0  0  0  0  0  0  0  0  0  0  0  0
   -1.2703   -1.2728    2.8160 H   0  0  0  0  0  0  0  0  0  0  0  0
  1 24  1  0  0  0  0
  2 25  1  0  0  0  0
  3  2  1  0  0  0  0
  5  4  1  0  0  0  0
  5  6  1  0  0  0  0
  7  5  2  0  0  0  0
  8  7  1  0  0  0  0
  9 11  2  0  0  0  0
  9  7  1  0  0  0  0
 10  9  1  0  0  0  0
 11 13  1  0  0  0  0
 12 11  1  0  0  0  0
 13  1  1  0  0  0  0
 13  4  2  0  0  0  0
 14  1  1  0  0  0  0
 14 22  1  0  0  0  0
 15 14  2  0  0  0  0
 16 15  1  0  0  0  0
 16 18  2  0  0  0  0
 17 16  1  0  0  0  0
 18 20  1  0  0  0  0
 19 18  1  0  0  0  0
 20 22  2  0  0  0  0
 20 21  1  0  0  0  0
 22 23  1  0  0  0  0
 24  2  1  0  0  0  0
 25 33  1  0  0  0  0
 26 27  1  0  0  0  0
 26 25  2  0  0  0  0
 27 29  2  0  0  0  0
 28 27  1  0  0  0  0
 29 30  1  0  0  0  0
 29 31  1  0  0  0  0
 31 32  1  0  0  0  0
 33 31  2  0  0  0  0
 33 38  1  0  0  0  0
 34 37  1  0  0  0  0
 34 26  1  0  0  0  0
 35 34  1  0  0  0  0
 36 34  1  0  0  0  0
 38 41  1  0  0  0  0
 38 39  1  0  0  0  0
 40 38  1  0  0  0  0
M  END
