35
q = -2.0, confidence = 0.948

 63 66  0  0  1  0  0  0  0  0999 V2000
    2.2109   -0.1111    2.5106 Si  0  0  0  0  0  0  0  0  0  0  0  0
   -5.2922   -1.2734    0.6418 O   0  0  0  0  0  0  0  0  0  0  0  0
   -5.3584    1.0351    0.2322 O   0  0  0  0  0  0  0  0  0  0  0  0
    0.9251    0.9495    1.6346 C   0  0  2  0  0  3  0  0  0  0  0  0
   -0.4111    0.4594    1.3920 C   0  0  0  0  0  0  0  0  0  0  0  0
   -0.8695   -0.3922    1.9116 H   0  0  0  0  0  0  0  0  0  0  0  0
   -1.0635    1.2220    0.3857 C   0  0  0  0  0  0  0  0  0  0  0  0
   -0.1291    2.2359   -0.0306 C   0  0  0  0  0  0  0  0  0  0  0  0
    1.0921    2.0800    0.7478 C   0  0  0  0  0  0  0  0  0  0  0  0
    2.1658    2.9985    0.5470 C   0  0  0  0  0  0  0  0  0  0  0  0
    3.0832    2.9170    1.1467 H   0  0  0  0  0  0  0  0  0  0  0  0
    2.0190    4.0121   -0.3868 C   0  0  0  0  0  0  0  0  0  0  0  0
    2.8392    4.7292   -0.5417 H   0  0  0  0  0  0  0  0  0  0  0  0
    0.8226    4.1537   -1.1529 C   0  0  0  0  0  0  0  0  0  0  0  0
    0.7516    4.9707   -1.8863 H   0  0  0  0  0  0  0  0  0  0  0  0
   -0.2460    3.2881   -0.9809 C   0  0  0  0  0  0  0  0  0  0  0  0
   -1.1708    3.4032   -1.5651 H   0  0  0  0  0  0  0  0  0  0  0  0
   -2.4804    1.0990   -0.0883 C   0  0  0  0  0  0  0  0  0  0  0  0
   -2.4814    0.9715   -1.1930 H   0  0  0  0  0  0  0  0  0  0  0  0
   -3.0117    2.0546    0.1115 H   0  0  0  0  0  0  0  0  0  0  0  0
   -3.2584   -0.0485    0.5523 C   0  0  0  0  0  0  0  0  0  0  0  0
   -2.7441   -1.0128    0.3692 H   0  0  0  0  0  0  0  0  0  0  0  0
   -3.3419    0.0903    1.6505 H   0  0  0  0  0  0  0  0  0  0  0  0
   -4.6654   -0.1788    0.0046 C   0  0  0  0  0  0  0  0  0  0  0  0
   -4.6462   -0.3723   -1.1052 H   0  0  0  0  0  0  0  0  0  0  0  0
   -6.6166   -1.4665    0.1586 C   0  0  0  0  0  0  0  0  0  0  0  0
   -7.0402   -2.3237    0.7189 H   0  0  0  0  0  0  0  0  0  0  0  0
   -6.5895   -1.7470   -0.9256 H   0  0  0  0  0  0  0  0  0  0  0  0
   -7.4466   -0.1935    0.3431 C   0  0  0  0  0  0  0  0  0  0  0  0
   -7.5876   -0.0037    1.4275 H   0  0  0  0  0  0  0  0  0  0  0  0
   -8.4487   -0.3048   -0.1218 H   0  0  0  0  0  0  0  0  0  0  0  0
   -6.6856    0.9804   -0.2777 C   0  0  0  0  0  0  0  0  0  0  0  0
   -6.6613    0.8699   -1.3921 H   0  0  0  0  0  0  0  0  0  0  0  0
   -7.1597    1.9545   -0.0443 H   0  0  0  0  0  0  0  0  0  0  0  0
    2.4676   -1.2928    1.0464 C   0  0  1  0  0  3  0  0  0  0  0  0
    1.5047   -2.2828    0.6133 C   0  0  0  0  0  0  0  0  0  0  0  0
    1.7859   -2.6262   -0.7524 C   0  0  0  0  0  0  0  0  0  0  0  0
    2.8876   -1.8331   -1.1945 C   0  0  0  0  0  0  0  0  0  0  0  0
    3.3016   -0.9996   -0.0980 C   0  0  0  0  0  0  0  0  0  0  0  0
    0.4452   -2.9821    1.4212 C   0  0  0  0  0  0  0  0  0  0  0  0
    0.7363   -4.0386    1.6057 H   0  0  0  0  0  0  0  0  0  0  0  0
   -0.5266   -3.0056    0.8872 H   0  0  0  0  0  0  0  0  0  0  0  0
    0.2844   -2.5132    2.4064 H   0  0  0  0  0  0  0  0  0  0  0  0
    1.1175   -3.7264   -1.5145 C   0  0  0  0  0  0  0  0  0  0  0  0
    0.0307   -3.7635   -1.3095 H   0  0  0  0  0  0  0  0  0  0  0  0
    1.5537   -4.7086   -1.2295 H   0  0  0  0  0  0  0  0  0  0  0  0
    1.2416   -3.6045   -2.6068 H   0  0  0  0  0  0  0  0  0  0  0  0
    3.5548   -1.9177   -2.5327 C   0  0  0  0  0  0  0  0  0  0  0  0
    2.9053   -2.4187   -3.2751 H   0  0  0  0  0  0  0  0  0  0  0  0
    4.5002   -2.4973   -2.4658 H   0  0  0  0  0  0  0  0  0  0  0  0
    3.7924   -0.9117   -2.9298 H   0  0  0  0  0  0  0  0  0  0  0  0
    4.4719   -0.0535   -0.1590 C   0  0  0  0  0  0  0  0  0  0  0  0
    4.9279   -0.0640   -1.1654 H   0  0  0  0  0  0  0  0  0  0  0  0
    5.2522   -0.3447    0.5736 H   0  0  0  0  0  0  0  0  0  0  0  0
    4.1923    0.9978    0.0480 H   0  0  0  0  0  0  0  0  0  0  0  0
    1.4863   -0.9127    4.0619 C   0  0  0  0  0  0  0  0  0  0  0  0
    1.5741   -0.1972    4.9054 H   0  0  0  0  0  0  0  0  0  0  0  0
    2.0417   -1.8330    4.3349 H   0  0  0  0  0  0  0  0  0  0  0  0
    0.4150   -1.1722    3.9611 H   0  0  0  0  0  0  0  0  0  0  0  0
    3.7682    0.8119    3.0418 C   0  0  0  0  0  0  0  0  0  0  0  0
    4.4886    0.0987    3.4931 H   0  0  0  0  0  0  0  0  0  0  0  0
    3.4977    1.5566    3.8184 H   0  0  0  0  0  0  0  0  0  0  0  0
    4.2853    1.3400    2.2215 H   0  0  0  0  0  0  0  0  0  0  0  0
  1 60  1  0  0  0  0
  1 56  1  0  0  0  0
  4  1  1  6  0  0  0
  5  4  1  0  0  0  0
  5  6  1  0  0  0  0
  7  5  2  0  0  0  0
  8  7  1  0  0  0  0
  8  9  1  0  0  0  0
  9  4  1  0  0  0  0
 10  9  2  0  0  0  0
 10 11  1  0  0  0  0
 12 10  1  0  0  0  0
 13 12  1  0  0  0  0
 14 16  1  0  0  0  0
 14 12  2  0  0  0  0
 15 14  1  0  0  0  0
 16  8  2  0  0  0  0
 17 16  1  0  0  0  0
 18 20  1  0  0  0  0
 18  7  1  0  0  0  0
 18 21  1  0  0  0  0
 19 18  1  0  0  0  0
 21 23  1  0  0  0  0
 22 21  1  0  0  0  0
 24  3  1  0  0  0  0
 24 21  1  0  0  0  0
 24  2  1  0  0  0  0
 25 24  1  0  0  0  0
 26 29  1  0  0  0  0
 26  2  1  0  0  0  0
 26 27  1  0  0  0  0
 28 26  1  0  0  0  0
 29 30  1  0  0  0  0
 31 29  1  0  0  0  0
 32 34  1  0  0  0  0
 32  3  1  0  0  0  0
 32 29  1  0  0  0  0
 33 32  1  0  0  0  0
 35  1  1  6  0  0  0
 36 35  1  0  0  0  0
 36 40  1  0  0  0  0
 37 36  2  0  0  0  0
 38 37  1  0  0  0  0
 38 39  2  0  0  0  0
 39 35  1  0  0  0  0
 40 41  1  0  0  0  0
 40 43  1  0  0  0  0
 42 40  1  0  0  0  0
 44 45  1  0  0  0  0
 44 46  1  0  0  0  0
 44 37  1  0  0  0  0
 47 44  1  0  0  0  0
 48 50  1  0  0  0  0
 48 38  1  0  0  0  0
 49 48  1  0  0  0  0
 51 48  1  0  0  0  0
 52 39  1  0  0  0  0
 52 55  1  0  0  0  0
 52 54  1  0  0  0  0
 53 52  1  0  0  0  0
 56 58  1  0  0  0  0
 56 57  1  0  0  0  0
 59 56  1  0  0  0  0
 60 61  1  0  0  0  0
 60 62  1  0  0  0  0
 63 60  1  0  0  0  0
M  END
