8,28
q = -1.0

 33 34  0  0  0  0  0  0  0  0999 V2000
    0.4990    3.3014   -2.0707 O   0  0  0  0  0  0  0  0  0  0  0  0
    1.6275    2.7885   -0.1783 O   0  0  0  0  0  0  0  0  0  0  0  0
   -0.2242   -2.6970   -1.2661 N   0  0  0  0  0  0  0  0  0  0  0  0
   -1.9460   -1.4391   -1.1123 N   0  0  0  0  0  0  0  0  0  0  0  0
   -1.2482   -3.4198   -1.8182 N   0  0  0  0  0  0  0  0  0  0  0  0
   -4.1393   -0.8881   -0.4568 N   0  0  0  0  0  0  0  0  0  0  0  0
   -4.8334    0.2482   -0.2448 N   0  0  0  0  0  0  0  0  0  0  0  0
   -0.5881   -1.4554   -0.8108 C   0  0  0  0  0  2  0  0  0  0  0  0
   -2.2872   -2.6347   -1.7144 C   0  0  0  0  0  0  0  0  0  0  0  0
   -3.3072   -2.8637   -2.0388 H   0  0  0  0  0  0  0  0  0  0  0  0
    1.0619   -3.3607   -1.1585 C   0  0  0  0  0  0  0  0  0  0  0  0
    1.7754   -2.6746   -0.6723 H   0  0  0  0  0  0  0  0  0  0  0  0
    1.4373   -3.6097   -2.1685 H   0  0  0  0  0  0  0  0  0  0  0  0
    0.9357   -4.2929   -0.5736 H   0  0  0  0  0  0  0  0  0  0  0  0
   -2.9001   -0.4687   -0.7442 C   0  0  0  0  0  0  0  0  0  0  0  0
   -2.7656    0.9462   -0.7166 C   0  0  0  0  0  0  0  0  0  0  0  0
   -4.0665    1.3788   -0.3866 C   0  0  0  0  0  0  0  0  0  0  0  0
   -4.6065    2.7541   -0.1906 C   0  0  0  0  0  0  0  0  0  0  0  0
   -5.4224    2.9903   -0.9064 H   0  0  0  0  0  0  0  0  0  0  0  0
   -3.8011    3.4964   -0.3404 H   0  0  0  0  0  0  0  0  0  0  0  0
   -5.0141    2.9005    0.8325 H   0  0  0  0  0  0  0  0  0  0  0  0
   -6.2345    0.1824    0.1113 C   0  0  0  0  0  0  0  0  0  0  0  0
   -6.4104    0.5899    1.1284 H   0  0  0  0  0  0  0  0  0  0  0  0
   -6.5309   -0.8805    0.0899 H   0  0  0  0  0  0  0  0  0  0  0  0
   -6.8552    0.7510   -0.6108 H   0  0  0  0  0  0  0  0  0  0  0  0
   -1.6025    1.7731   -0.9735 C   0  0  0  0  0  0  0  0  0  0  0  0
   -1.8072    2.7670   -1.4131 H   0  0  0  0  0  0  0  0  0  0  0  0
   -0.2980    1.4684   -0.7027 C   0  0  0  0  0  3  0  0  0  0  0  0
    0.6287    2.5891   -1.0877 C   0  0  0  0  0  0  0  0  0  0  0  0
    2.6126    3.7470   -0.5634 C   0  0  0  0  0  0  0  0  0  0  0  0
    3.1910    3.3677   -1.4312 H   0  0  0  0  0  0  0  0  0  0  0  0
    3.2822    3.8716    0.3075 H   0  0  0  0  0  0  0  0  0  0  0  0
    2.1471    4.7136   -0.8428 H   0  0  0  0  0  0  0  0  0  0  0  0
  1 29  2  0  0  0  0
  3 11  1  0  0  0  0
  3  8  1  0  0  0  0
  4  8  1  0  0  0  0
  4 15  1  0  0  0  0
  5  9  2  0  0  0  0
  5  3  1  0  0  0  0
  6  7  1  0  0  0  0
  7 22  1  0  0  0  0
  9  4  1  0  0  0  0
 10  9  1  0  0  0  0
 11 12  1  0  0  0  0
 11 14  1  0  0  0  0
 13 11  1  0  0  0  0
 15 16  1  0  0  0  0
 15  6  2  0  0  0  0
 16 17  2  0  0  0  0
 17  7  1  0  0  0  0
 17 18  1  0  0  0  0
 18 21  1  0  0  0  0
 19 18  1  0  0  0  0
 20 18  1  0  0  0  0
 22 23  1  0  0  0  0
 24 22  1  0  0  0  0
 25 22  1  0  0  0  0
 26 16  1  0  0  0  0
 26 28  2  0  0  0  0
 27 26  1  0  0  0  0
 29 28  1  0  0  0  0
 29  2  1  0  0  0  0
 30  2  1  0  0  0  0
 30 32  1  0  0  0  0
 31 30  1  0  0  0  0
 33 30  1  0  0  0  0
M  END
