8,14
q = -1.0

 22 23  0  0  0  0  0  0  0  0999 V2000
    4.3203   -2.5567    0.0005 O   0  0  0  0  0  0  0  0  0  0  0  0
    4.6889   -1.3823    0.0002 N   0  0  0  0  0  0  0  0  0  0  0  0
   -0.8425    4.1702   -0.0006 N   0  0  0  0  0  0  0  0  0  0  0  0
    5.8641   -1.0111    0.0001 O   0  0  0  0  0  0  0  0  0  0  0  0
    0.6120    2.5008   -0.0003 N   0  0  0  0  0  0  0  0  0  0  0  0
   -1.4863    2.9592   -0.0001 N   0  0  0  0  0  0  0  0  0  0  0  0
    3.6386   -0.3328    0.0001 C   0  0  0  0  0  0  0  0  0  0  0  0
    1.2885    0.2545    0.0001 C   0  0  0  0  0  3  0  0  0  0  0  0
    1.7152    1.6126   -0.0002 C   0  0  0  0  0  0  0  0  0  0  0  0
    3.0589    2.0077   -0.0004 C   0  0  0  0  0  0  0  0  0  0  0  0
    3.3451    3.0699   -0.0006 H   0  0  0  0  0  0  0  0  0  0  0  0
    2.2917   -0.7276    0.0002 C   0  0  0  0  0  0  0  0  0  0  0  0
    2.0385   -1.7963    0.0004 H   0  0  0  0  0  0  0  0  0  0  0  0
   -0.6397    1.9009   -0.0000 C   0  0  0  0  0  2  0  0  0  0  0  0
    0.4368    3.8637   -0.0007 C   0  0  0  0  0  0  0  0  0  0  0  0
    1.2504    4.5972   -0.0011 H   0  0  0  0  0  0  0  0  0  0  0  0
   -2.9368    2.9100    0.0011 C   0  0  0  0  0  0  0  0  0  0  0  0
   -3.2405    1.8463   -0.0017 H   0  0  0  0  0  0  0  0  0  0  0  0
   -3.3254    3.4252   -0.8985 H   0  0  0  0  0  0  0  0  0  0  0  0
   -3.3239    3.4195    0.9046 H   0  0  0  0  0  0  0  0  0  0  0  0
    4.0432    1.0110   -0.0002 C   0  0  0  0  0  0  0  0  0  0  0  0
    5.1148    1.2464   -0.0003 H   0  0  0  0  0  0  0  0  0  0  0  0
  2  1  2  0  0  0  0
  3  6  1  0  0  0  0
  4  2  2  0  0  0  0
  5  9  1  0  0  0  0
  5 14  1  0  0  0  0
  6 14  1  0  0  0  0
  6 17  1  0  0  0  0
  7  2  1  0  0  0  0
  7 12  1  0  0  0  0
  8 12  2  0  0  0  0
  9  8  1  0  0  0  0
 10 21  1  0  0  0  0
 10  9  2  0  0  0  0
 11 10  1  0  0  0  0
 12 13  1  0  0  0  0
 15  3  2  0  0  0  0
 15  5  1  0  0  0  0
 16 15  1  0  0  0  0
 17 20  1  0  0  0  0
 18 17  1  0  0  0  0
 19 17  1  0  0  0  0
 21  7  2  0  0  0  0
 22 21  1  0  0  0  0
M  END
