3,4
q = -1.0, confidence = 0.0

 23 24  0  0  0  0  0  0  0  0999 V2000
    1.7813    1.8285   -0.0001 N   0  0  0  0  0  0  0  0  0  0  0  0
    0.0505    3.0929   -0.0002 N   0  0  0  0  0  0  0  0  0  0  0  0
    1.5481   -0.4986    0.0001 C   0  0  0  0  0  3  0  0  0  0  0  0
    0.4142    1.7695   -0.0001 C   0  0  0  0  0  2  0  0  0  0  0  0
    1.2129    3.8451   -0.0003 C   0  0  0  0  0  0  0  0  0  0  0  0
    1.2232    4.9411   -0.0004 H   0  0  0  0  0  0  0  0  0  0  0  0
    2.4634    0.5877    0.0000 C   0  0  0  0  0  0  0  0  0  0  0  0
    3.8488    0.4318    0.0002 C   0  0  0  0  0  0  0  0  0  0  0  0
    4.5069    1.3125    0.0004 H   0  0  0  0  0  0  0  0  0  0  0  0
    3.4984   -1.9950    0.0004 C   0  0  0  0  0  0  0  0  0  0  0  0
   -1.3159    3.5950   -0.0003 C   0  0  0  0  0  0  0  0  0  0  0  0
   -1.4974    4.2100   -0.9036 H   0  0  0  0  0  0  0  0  0  0  0  0
   -1.4974    4.2107    0.9026 H   0  0  0  0  0  0  0  0  0  0  0  0
   -1.9994    2.7243    0.0000 H   0  0  0  0  0  0  0  0  0  0  0  0
    2.2886    3.0856   -0.0003 N   0  0  0  0  0  0  0  0  0  0  0  0
    4.0502   -3.3998   -0.0008 C   0  0  0  0  0  0  0  0  0  0  0  0
    5.1575   -3.4068    0.0108 H   0  0  0  0  0  0  0  0  0  0  0  0
    3.7165   -3.9628   -0.8978 H   0  0  0  0  0  0  0  0  0  0  0  0
    3.6972   -3.9721    0.8828 H   0  0  0  0  0  0  0  0  0  0  0  0
    2.0973   -1.7884    0.0003 C   0  0  0  0  0  0  0  0  0  0  0  0
    1.4168   -2.6548    0.0005 H   0  0  0  0  0  0  0  0  0  0  0  0
    4.3586   -0.8780    0.0004 C   0  0  0  0  0  0  0  0  0  0  0  0
    5.4486   -1.0339    0.0007 H   0  0  0  0  0  0  0  0  0  0  0  0
  1  4  1  0  0  0  0
  1  7  1  0  0  0  0
  2  4  1  0  0  0  0
  3 20  1  0  0  0  0
  5 15  2  0  0  0  0
  5  2  1  0  0  0  0
  6  5  1  0  0  0  0
  7  3  2  0  0  0  0
  7  8  1  0  0  0  0
  8  9  1  0  0  0  0
  8 22  2  0  0  0  0
 10 22  1  0  0  0  0
 11  2  1  0  0  0  0
 11 14  1  0  0  0  0
 11 13  1  0  0  0  0
 12 11  1  0  0  0  0
 15  1  1  0  0  0  0
 16 10  1  0  0  0  0
 16 17  1  0  0  0  0
 16 19  1  0  0  0  0
 18 16  1  0  0  0  0
 20 10  2  0  0  0  0
 20 21  1  0  0  0  0
 22 23  1  0  0  0  0
M  END
