2,7
q = -1.0, confidence = 0.0

 20 21  0  0  0  0  0  0  0  0999 V2000
    1.1566    2.7287   -0.0001 N   0  0  0  0  0  0  0  0  0  0  0  0
    1.4013   -1.1534    0.0001 C   0  0  0  0  0  3  0  0  0  0  0  0
    2.6214   -0.4267   -0.0001 C   0  0  0  0  0  0  0  0  0  0  0  0
    2.7660   -3.1787    0.0000 C   0  0  0  0  0  0  0  0  0  0  0  0
    2.8263   -4.2783    0.0001 H   0  0  0  0  0  0  0  0  0  0  0  0
    2.3804    0.9693   -0.0001 N   0  0  0  0  0  0  0  0  0  0  0  0
    1.0687    1.3593   -0.0000 C   0  0  0  0  0  2  0  0  0  0  0  0
    3.2701    1.9921   -0.0002 N   0  0  0  0  0  0  0  0  0  0  0  0
    0.0287    3.6493   -0.0001 C   0  0  0  0  0  0  0  0  0  0  0  0
    0.0582    4.2902   -0.9031 H   0  0  0  0  0  0  0  0  0  0  0  0
    0.0581    4.2900    0.9031 H   0  0  0  0  0  0  0  0  0  0  0  0
   -0.9015    3.0493   -0.0002 H   0  0  0  0  0  0  0  0  0  0  0  0
    3.8871   -1.0165   -0.0002 C   0  0  0  0  0  0  0  0  0  0  0  0
    4.7899   -0.3890   -0.0003 H   0  0  0  0  0  0  0  0  0  0  0  0
    3.9498   -2.4206   -0.0001 C   0  0  0  0  0  0  0  0  0  0  0  0
    4.9288   -2.9225   -0.0002 H   0  0  0  0  0  0  0  0  0  0  0  0
    2.5010    3.0607   -0.0003 C   0  0  0  0  0  0  0  0  0  0  0  0
    2.8682    4.0934   -0.0004 H   0  0  0  0  0  0  0  0  0  0  0  0
    1.5027   -2.5552    0.0001 C   0  0  0  0  0  0  0  0  0  0  0  0
    0.5819   -3.1579    0.0002 H   0  0  0  0  0  0  0  0  0  0  0  0
  1  9  1  0  0  0  0
  1  7  1  0  0  0  0
  2 19  1  0  0  0  0
  3  2  2  0  0  0  0
  4  5  1  0  0  0  0
  4 19  2  0  0  0  0
  6  3  1  0  0  0  0
  6  7  1  0  0  0  0
  8  6  1  0  0  0  0
  9 11  1  0  0  0  0
 10  9  1  0  0  0  0
 12  9  1  0  0  0  0
 13 15  2  0  0  0  0
 13  3  1  0  0  0  0
 14 13  1  0  0  0  0
 15  4  1  0  0  0  0
 16 15  1  0  0  0  0
 17  8  2  0  0  0  0
 17  1  1  0  0  0  0
 18 17  1  0  0  0  0
 19 20  1  0  0  0  0
M  END
