11,16
q = -1.0, confidence = 0.0

 20 21  0  0  0  0  0  0  0  0999 V2000
    3.1781    2.1005   -0.0007 C   0  0  0  0  0  0  0  0  0  0  0  0
    4.2735    2.0997   -0.0011 H   0  0  0  0  0  0  0  0  0  0  0  0
    1.1464    2.7182   -0.0006 N   0  0  0  0  0  0  0  0  0  0  0  0
    3.9372   -2.4414    0.0003 C   0  0  0  0  0  0  0  0  0  0  0  0
    4.9135   -2.9482    0.0004 H   0  0  0  0  0  0  0  0  0  0  0  0
    2.3974    0.9723   -0.0002 N   0  0  0  0  0  0  0  0  0  0  0  0
    1.4919   -2.5570    0.0006 C   0  0  0  0  0  0  0  0  0  0  0  0
    0.5656   -3.1511    0.0007 H   0  0  0  0  0  0  0  0  0  0  0  0
    2.6221   -0.4306    0.0000 C   0  0  0  0  0  0  0  0  0  0  0  0
    2.4339    3.1877   -0.0010 N   0  0  0  0  0  0  0  0  0  0  0  0
    1.3989   -1.1534    0.0003 C   0  0  0  0  0  3  0  0  0  0  0  0
    2.7483   -3.1909    0.0006 C   0  0  0  0  0  0  0  0  0  0  0  0
    2.8009   -4.2909    0.0008 H   0  0  0  0  0  0  0  0  0  0  0  0
    3.8821   -1.0373    0.0001 C   0  0  0  0  0  0  0  0  0  0  0  0
    4.8055   -0.4383   -0.0001 H   0  0  0  0  0  0  0  0  0  0  0  0
    1.0687    1.3635   -0.0000 C   0  0  0  0  0  2  0  0  0  0  0  0
    0.0356    3.6513    0.0004 C   0  0  0  0  0  0  0  0  0  0  0  0
   -0.9018    3.0639   -0.0022 H   0  0  0  0  0  0  0  0  0  0  0  0
    0.0905    4.2945   -0.8992 H   0  0  0  0  0  0  0  0  0  0  0  0
    0.0877    4.2898    0.9035 H   0  0  0  0  0  0  0  0  0  0  0  0
  1  6  1  0  0  0  0
  2  1  1  0  0  0  0
  3 16  1  0  0  0  0
  3 17  1  0  0  0  0
  4  5  1  0  0  0  0
  4 12  1  0  0  0  0
  6 16  1  0  0  0  0
  6  9  1  0  0  0  0
  7 12  2  0  0  0  0
  7  8  1  0  0  0  0
  9 14  1  0  0  0  0
  9 11  2  0  0  0  0
 10  1  2  0  0  0  0
 10  3  1  0  0  0  0
 11  7  1  0  0  0  0
 12 13  1  0  0  0  0
 14  4  2  0  0  0  0
 15 14  1  0  0  0  0
 17 20  1  0  0  0  0
 18 17  1  0  0  0  0
 19 17  1  0  0  0  0
M  END
