5,20
q = -2.0, confidence = 0.74

 39 40  0  0  1  0  0  0  0  0999 V2000
   -2.7323    0.0000   -0.0001 Si  0  0  0  0  0  0  0  0  0  0  0  0
    0.5682    2.3502   -0.7137 C   0  0  0  0  0  0  0  0  0  0  0  0
   -0.6208    1.6790   -1.1710 C   0  0  0  0  0  3  0  0  0  0  0  0
   -0.9317    1.6071   -2.2203 H   0  0  0  0  0  0  0  0  0  0  0  0
   -1.4176    1.3347   -0.0003 C   0  0  2  0  0  3  0  0  0  0  0  0
   -0.6210    1.6788    1.1706 C   0  0  0  0  0  3  0  0  0  0  0  0
   -0.9319    1.6068    2.2200 H   0  0  0  0  0  0  0  0  0  0  0  0
    0.5681    2.3500    0.7136 C   0  0  0  0  0  0  0  0  0  0  0  0
    1.5579    3.0503   -1.5892 C   0  0  0  0  0  0  0  0  0  0  0  0
    1.2563    4.1125   -1.7170 H   0  0  0  0  0  0  0  0  0  0  0  0
    1.6113    2.5902   -2.5935 H   0  0  0  0  0  0  0  0  0  0  0  0
    2.5772    3.0474   -1.1567 H   0  0  0  0  0  0  0  0  0  0  0  0
    1.5574    3.0504    1.5893 C   0  0  0  0  0  0  0  0  0  0  0  0
    1.2553    4.1123    1.7174 H   0  0  0  0  0  0  0  0  0  0  0  0
    2.5768    3.0481    1.1570 H   0  0  0  0  0  0  0  0  0  0  0  0
    1.6110    2.5900    2.5935 H   0  0  0  0  0  0  0  0  0  0  0  0
    0.5681   -2.3502   -0.7137 C   0  0  0  0  0  0  0  0  0  0  0  0
   -0.6208   -1.6789   -1.1710 C   0  0  0  0  0  3  0  0  0  0  0  0
   -0.9317   -1.6070   -2.2204 H   0  0  0  0  0  0  0  0  0  0  0  0
   -1.4176   -1.3346   -0.0003 C   0  0  1  0  0  3  0  0  0  0  0  0
   -0.6210   -1.6788    1.1706 C   0  0  0  0  0  3  0  0  0  0  0  0
   -0.9320   -1.6068    2.2199 H   0  0  0  0  0  0  0  0  0  0  0  0
    0.5681   -2.3501    0.7135 C   0  0  0  0  0  0  0  0  0  0  0  0
    1.5578   -3.0503   -1.5892 C   0  0  0  0  0  0  0  0  0  0  0  0
    1.2562   -4.1124   -1.7172 H   0  0  0  0  0  0  0  0  0  0  0  0
    2.5771   -3.0475   -1.1567 H   0  0  0  0  0  0  0  0  0  0  0  0
    1.6113   -2.5902   -2.5935 H   0  0  0  0  0  0  0  0  0  0  0  0
    1.5573   -3.0504    1.5893 C   0  0  0  0  0  0  0  0  0  0  0  0
    1.2552   -4.1124    1.7174 H   0  0  0  0  0  0  0  0  0  0  0  0
    1.6109   -2.5902    2.5935 H   0  0  0  0  0  0  0  0  0  0  0  0
    2.5767   -3.0482    1.1569 H   0  0  0  0  0  0  0  0  0  0  0  0
   -3.7747    0.0001   -1.5674 C   0  0  0  0  0  0  0  0  0  0  0  0
   -3.1339    0.0001   -2.4717 H   0  0  0  0  0  0  0  0  0  0  0  0
   -4.4237    0.8985   -1.6085 H   0  0  0  0  0  0  0  0  0  0  0  0
   -4.4237   -0.8983   -1.6085 H   0  0  0  0  0  0  0  0  0  0  0  0
   -3.7735    0.0000    1.5680 C   0  0  0  0  0  0  0  0  0  0  0  0
   -4.4224    0.8985    1.6096 H   0  0  0  0  0  0  0  0  0  0  0  0
   -3.1319    0.0000    2.4718 H   0  0  0  0  0  0  0  0  0  0  0  0
   -4.4224   -0.8984    1.6096 H   0  0  0  0  0  0  0  0  0  0  0  0
  1 36  1  0  0  0  0
  2  8  2  0  0  0  0
  3  2  1  0  0  0  0
  3  5  1  0  0  0  0
  4  3  1  0  0  0  0
  5  1  1  6  0  0  0
  5  6  1  0  0  0  0
  6  7  1  0  0  0  0
  8  6  1  0  0  0  0
  8 13  1  0  0  0  0
  9 12  1  0  0  0  0
  9  2  1  0  0  0  0
 10  9  1  0  0  0  0
 11  9  1  0  0  0  0
 13 14  1  0  0  0  0
 13 16  1  0  0  0  0
 15 13  1  0  0  0  0
 17 23  2  0  0  0  0
 18 17  1  0  0  0  0
 18 20  1  0  0  0  0
 19 18  1  0  0  0  0
 20  1  1  6  0  0  0
 20 21  1  0  0  0  0
 21 22  1  0  0  0  0
 23 21  1  0  0  0  0
 23 28  1  0  0  0  0
 24 26  1  0  0  0  0
 24 17  1  0  0  0  0
 25 24  1  0  0  0  0
 27 24  1  0  0  0  0
 28 29  1  0  0  0  0
 28 30  1  0  0  0  0
 31 28  1  0  0  0  0
 32  1  1  0  0  0  0
 33 32  1  0  0  0  0
 34 32  1  0  0  0  0
 35 32  1  0  0  0  0
 36 39  1  0  0  0  0
 36 37  1  0  0  0  0
 36 38  1  0  0  0  0
M  END
