5,7
q = -1.0

 13 13  0  0  0  0  0  0  0  0999 V2000
   -1.3592    2.7739   -0.0934 O   0  0  0  0  0  0  0  0  0  0  0  0
    3.3808    0.0100    0.0152 O   0  0  0  0  0  0  0  0  0  0  0  0
    2.2220    0.4131    0.0071 C   0  0  0  0  0  0  0  0  0  0  0  0
    1.3856    0.5786   -1.2099 C   0  0  0  0  0  3  0  0  0  0  0  0
    0.2436    1.4148   -1.2298 C   0  0  0  0  0  3  0  0  0  0  0  0
   -0.3221    1.9074   -0.0143 C   0  0  0  0  0  3  0  0  0  0  0  0
    0.2307    1.4248    1.2118 C   0  0  0  0  0  3  0  0  0  0  0  0
    1.3715    0.5824    1.2134 C   0  0  0  0  0  3  0  0  0  0  0  0
   -1.7300    2.9148    0.7982 H   0  0  0  0  0  0  0  0  0  0  0  0
    1.7849    0.1874   -2.1569 H   0  0  0  0  0  0  0  0  0  0  0  0
   -0.2568    1.6804   -2.1736 H   0  0  0  0  0  0  0  0  0  0  0  0
   -0.2642    1.6886    2.1622 H   0  0  0  0  0  0  0  0  0  0  0  0
    1.7593    0.1996    2.1684 H   0  0  0  0  0  0  0  0  0  0  0  0
  1  6  1  0  0  0  0
  1  9  1  0  0  0  0
  3  2  2  0  0  0  0
  3  8  1  0  0  0  0
  4  3  1  0  0  0  0
  5  4  1  0  0  0  0
  5  6  1  0  0  0  0
  6  7  1  0  0  0  0
  7  8  1  0  0  0  0
  7 12  1  0  0  0  0
  8 13  1  0  0  0  0
 10  4  1  0  0  0  0
 11  5  1  0  0  0  0
M  END
