1,7
q = 0.0, confidence = 0.614

 20 20  0  0  0  0  0  0  0  0999 V2000
    1.7543   -0.0013    1.5149 C   0  0  0  0  0  3  0  0  0  0  0  0
    2.3402   -0.9088    1.7450 H   0  0  0  0  0  0  0  0  0  0  0  0
    2.3415    0.9050    1.7465 H   0  0  0  0  0  0  0  0  0  0  0  0
    0.3473   -0.0010    2.1940 C   0  0  0  0  0  0  0  0  0  0  0  0
    0.2531    0.9011    2.8394 H   0  0  0  0  0  0  0  0  0  0  0  0
    0.2525   -0.9034    2.8390 H   0  0  0  0  0  0  0  0  0  0  0  0
   -0.8670   -0.0004    1.2224 C   0  0  0  0  0  3  0  0  0  0  0  0
   -2.1441   -0.0003    1.6733 C   0  0  0  0  0  0  0  0  0  0  0  0
   -2.3349   -0.0009    2.7687 H   0  0  0  0  0  0  0  0  0  0  0  0
   -3.3642    0.0006    0.8581 C   0  0  0  0  0  0  0  0  0  0  0  0
   -3.3481    0.0019   -0.5603 C   0  0  0  0  0  0  0  0  0  0  0  0
   -2.3760    0.0021   -1.0737 H   0  0  0  0  0  0  0  0  0  0  0  0
   -4.5359    0.0028   -1.3003 C   0  0  0  0  0  0  0  0  0  0  0  0
   -4.4923    0.0037   -2.4009 H   0  0  0  0  0  0  0  0  0  0  0  0
   -5.7817    0.0025   -0.6484 C   0  0  0  0  0  0  0  0  0  0  0  0
   -6.7150    0.0032   -1.2315 H   0  0  0  0  0  0  0  0  0  0  0  0
   -5.8204    0.0013    0.7556 C   0  0  0  0  0  0  0  0  0  0  0  0
   -6.7888    0.0011    1.2797 H   0  0  0  0  0  0  0  0  0  0  0  0
   -4.6306    0.0004    1.4947 C   0  0  0  0  0  0  0  0  0  0  0  0
   -4.6689   -0.0005    2.5960 H   0  0  0  0  0  0  0  0  0  0  0  0
  1  2  1  0  0  0  0
  1  3  1  0  0  0  0
  1  4  1  0  0  0  0
  4  6  1  0  0  0  0
  4  5  1  0  0  0  0
  7  8  2  0  0  0  0
  7  4  1  0  0  0  0
  8  9  1  0  0  0  0
 10 19  1  0  0  0  0
 10  8  1  0  0  0  0
 11 10  2  0  0  0  0
 12 11  1  0  0  0  0
 13 15  2  0  0  0  0
 13 11  1  0  0  0  0
 14 13  1  0  0  0  0
 15 17  1  0  0  0  0
 16 15  1  0  0  0  0
 17 18  1  0  0  0  0
 17 19  2  0  0  0  0
 19 20  1  0  0  0  0
M  END
