1,7
q = 0.0, confidence = 0.932

 34 33  0  0  0  0  0  0  0  0999 V2000
    1.0813   -0.6441   -1.8927 C   0  0  0  0  0  3  0  0  0  0  0  0
    1.0381   -1.7040   -2.1852 H   0  0  0  0  0  0  0  0  0  0  0  0
    0.7444    0.0228   -2.7065 H   0  0  0  0  0  0  0  0  0  0  0  0
    2.2573   -0.2229   -1.1193 C   0  0  0  0  0  0  0  0  0  0  0  0
    2.1122    1.0847   -0.5742 C   0  0  0  0  0  0  0  0  0  0  0  0
    2.8636    1.4646    0.1363 H   0  0  0  0  0  0  0  0  0  0  0  0
    0.8857    1.8262   -0.8414 C   0  0  0  0  0  3  0  0  0  0  0  0
    0.5384    1.7788   -1.8920 H   0  0  0  0  0  0  0  0  0  0  0  0
    3.5148   -1.0650   -0.8669 C   0  0  0  0  0  0  0  0  0  0  0  0
    3.9326   -1.0284    0.6161 C   0  0  0  0  0  0  0  0  0  0  0  0
    3.1344   -1.4446    1.2632 H   0  0  0  0  0  0  0  0  0  0  0  0
    4.1527   -0.0002    0.9649 H   0  0  0  0  0  0  0  0  0  0  0  0
    4.8530   -1.6267    0.7677 H   0  0  0  0  0  0  0  0  0  0  0  0
    3.3167   -2.5284   -1.2993 C   0  0  0  0  0  0  0  0  0  0  0  0
    2.4928   -3.0137   -0.7405 H   0  0  0  0  0  0  0  0  0  0  0  0
    3.0936   -2.6115   -2.3811 H   0  0  0  0  0  0  0  0  0  0  0  0
    4.2435   -3.1045   -1.1072 H   0  0  0  0  0  0  0  0  0  0  0  0
    4.6322   -0.4394   -1.7382 C   0  0  0  0  0  0  0  0  0  0  0  0
    5.5683   -1.0259   -1.6404 H   0  0  0  0  0  0  0  0  0  0  0  0
    4.8465    0.6041   -1.4322 H   0  0  0  0  0  0  0  0  0  0  0  0
    4.3467   -0.4288   -2.8092 H   0  0  0  0  0  0  0  0  0  0  0  0
    0.7770    3.2831   -0.3452 C   0  0  0  0  0  0  0  0  0  0  0  0
    1.8289    4.0855   -1.1508 C   0  0  0  0  0  0  0  0  0  0  0  0
    1.7667    5.1656   -0.9062 H   0  0  0  0  0  0  0  0  0  0  0  0
    2.8604    3.7462   -0.9260 H   0  0  0  0  0  0  0  0  0  0  0  0
    1.6681    3.9754   -2.2425 H   0  0  0  0  0  0  0  0  0  0  0  0
   -0.6131    3.8581   -0.6636 C   0  0  0  0  0  0  0  0  0  0  0  0
   -0.6573    4.9360   -0.4083 H   0  0  0  0  0  0  0  0  0  0  0  0
   -0.8527    3.7626   -1.7427 H   0  0  0  0  0  0  0  0  0  0  0  0
   -1.4022    3.3459   -0.0814 H   0  0  0  0  0  0  0  0  0  0  0  0
    1.0544    3.4693    1.1560 C   0  0  0  0  0  0  0  0  0  0  0  0
    1.1170    4.5496    1.3961 H   0  0  0  0  0  0  0  0  0  0  0  0
    0.2403    3.0369    1.7674 H   0  0  0  0  0  0  0  0  0  0  0  0
    2.0113    3.0066    1.4717 H   0  0  0  0  0  0  0  0  0  0  0  0
  1  4  1  0  0  0  0
  2  1  1  0  0  0  0
  3  1  1  0  0  0  0
  4  9  1  0  0  0  0
  4  5  2  0  0  0  0
  5  6  1  0  0  0  0
  7  5  1  0  0  0  0
  7 22  1  0  0  0  0
  8  7  1  0  0  0  0
  9 10  1  0  0  0  0
 10 13  1  0  0  0  0
 10 12  1  0  0  0  0
 10 11  1  0  0  0  0
 14 17  1  0  0  0  0
 14  9  1  0  0  0  0
 14 15  1  0  0  0  0
 16 14  1  0  0  0  0
 18 19  1  0  0  0  0
 18 20  1  0  0  0  0
 18  9  1  0  0  0  0
 21 18  1  0  0  0  0
 22 31  1  0  0  0  0
 23 25  1  0  0  0  0
 23 24  1  0  0  0  0
 23 22  1  0  0  0  0
 26 23  1  0  0  0  0
 27 28  1  0  0  0  0
 27 22  1  0  0  0  0
 27 30  1  0  0  0  0
 29 27  1  0  0  0  0
 31 32  1  0  0  0  0
 31 34  1  0  0  0  0
 31 33  1  0  0  0  0
M  END
