4,38
q = 0.0, confidence = 0.542

 58 61  0  0  0  0  0  0  0  0999 V2000
   -1.2328   -2.2838    0.2852 O   0  0  0  0  0  0  0  0  0  0  0  0
    2.2823    1.3459   -0.3525 N   0  0  0  0  0  0  0  0  0  0  0  0
    0.3864    2.4835   -0.1466 N   0  0  0  0  0  0  0  0  0  0  0  0
    0.9515    1.2245   -0.0407 C   0  0  0  0  0  2  0  0  0  0  0  0
    2.6552    2.7389   -0.6106 C   0  0  0  0  0  0  0  0  0  0  0  0
    3.3647    2.8312   -1.4539 H   0  0  0  0  0  0  0  0  0  0  0  0
    3.1239    3.1876    0.2959 H   0  0  0  0  0  0  0  0  0  0  0  0
    1.2931    3.3546   -0.9203 C   0  0  0  0  0  0  0  0  0  0  0  0
    1.0428    3.2631   -2.0014 H   0  0  0  0  0  0  0  0  0  0  0  0
    1.2299    4.4150   -0.6349 H   0  0  0  0  0  0  0  0  0  0  0  0
    3.2304    0.3131   -0.0984 C   0  0  0  0  0  0  0  0  0  0  0  0
    3.2456   -0.2951    1.1724 C   0  0  0  0  0  0  0  0  0  0  0  0
    2.5331    0.0435    1.9400 H   0  0  0  0  0  0  0  0  0  0  0  0
    4.1392   -1.3405    1.4424 C   0  0  0  0  0  0  0  0  0  0  0  0
    4.1354   -1.8169    2.4343 H   0  0  0  0  0  0  0  0  0  0  0  0
    5.0354   -1.7616    0.4497 C   0  0  0  0  0  0  0  0  0  0  0  0
    5.7463   -2.5770    0.6517 H   0  0  0  0  0  0  0  0  0  0  0  0
    5.0136   -1.1513   -0.8133 C   0  0  0  0  0  0  0  0  0  0  0  0
    5.6957   -1.5065   -1.6018 H   0  0  0  0  0  0  0  0  0  0  0  0
    4.1091   -0.1184   -1.1241 C   0  0  0  0  0  0  0  0  0  0  0  0
    4.0164    0.4377   -2.5188 C   0  0  0  0  0  0  0  0  0  0  0  0
    2.9515    0.5073   -2.8221 H   0  0  0  0  0  0  0  0  0  0  0  0
    4.5413   -0.2184   -3.2388 H   0  0  0  0  0  0  0  0  0  0  0  0
    4.4702    1.4485   -2.6089 H   0  0  0  0  0  0  0  0  0  0  0  0
   -0.9706    2.7585    0.1081 C   0  0  0  0  0  0  0  0  0  0  0  0
   -1.3590    4.0560    0.5498 C   0  0  0  0  0  0  0  0  0  0  0  0
   -2.7224    4.3129    0.7847 C   0  0  0  0  0  0  0  0  0  0  0  0
   -3.0122    5.3173    1.1310 H   0  0  0  0  0  0  0  0  0  0  0  0
   -3.6925    3.3115    0.6632 C   0  0  0  0  0  0  0  0  0  0  0  0
   -4.7465    3.5257    0.8936 H   0  0  0  0  0  0  0  0  0  0  0  0
   -3.2992    2.0231    0.3061 C   0  0  0  0  0  0  0  0  0  0  0  0
   -4.0398    1.2131    0.2943 H   0  0  0  0  0  0  0  0  0  0  0  0
   -1.9479    1.7090    0.0034 C   0  0  0  0  0  0  0  0  0  0  0  0
   -0.3697    5.1402    0.9072 C   0  0  0  0  0  0  0  0  0  0  0  0
   -0.0370    5.7414    0.0336 H   0  0  0  0  0  0  0  0  0  0  0  0
    0.5333    4.7213    1.3950 H   0  0  0  0  0  0  0  0  0  0  0  0
   -0.8345    5.8497    1.6182 H   0  0  0  0  0  0  0  0  0  0  0  0
   -1.5898    0.3119   -0.2458 C   0  0  0  0  0  2  0  0  0  0  0  0
   -2.5597   -0.6656   -0.7689 C   0  0  0  0  0  0  0  0  0  0  0  0
   -3.6279   -0.3469   -1.6410 C   0  0  0  0  0  0  0  0  0  0  0  0
   -3.7565    0.6975   -1.9583 H   0  0  0  0  0  0  0  0  0  0  0  0
   -4.4976   -1.3349   -2.1198 C   0  0  0  0  0  0  0  0  0  0  0  0
   -5.3148   -1.0628   -2.8037 H   0  0  0  0  0  0  0  0  0  0  0  0
   -4.3210   -2.6695   -1.7238 C   0  0  0  0  0  0  0  0  0  0  0  0
   -5.0107   -3.4493   -2.0804 H   0  0  0  0  0  0  0  0  0  0  0  0
   -3.2520   -3.0320   -0.8879 C   0  0  0  0  0  0  0  0  0  0  0  0
   -3.1121   -4.0828   -0.6040 H   0  0  0  0  0  0  0  0  0  0  0  0
   -2.3613   -2.0428   -0.4473 C   0  0  0  0  0  0  0  0  0  0  0  0
   -0.9157   -3.6012    0.8334 C   0  0  0  0  0  0  0  0  0  0  0  0
   -1.2025   -4.3481    0.0622 H   0  0  0  0  0  0  0  0  0  0  0  0
    0.5925   -3.6419    1.0280 C   0  0  0  0  0  0  0  0  0  0  0  0
    1.1149   -3.4290    0.0752 H   0  0  0  0  0  0  0  0  0  0  0  0
    0.8906   -4.6465    1.3877 H   0  0  0  0  0  0  0  0  0  0  0  0
    0.9018   -2.8903    1.7819 H   0  0  0  0  0  0  0  0  0  0  0  0
   -1.7100   -3.8001    2.1178 C   0  0  0  0  0  0  0  0  0  0  0  0
   -1.4288   -3.0123    2.8446 H   0  0  0  0  0  0  0  0  0  0  0  0
   -1.4891   -4.7945    2.5546 H   0  0  0  0  0  0  0  0  0  0  0  0
   -2.8009   -3.7374    1.9349 H   0  0  0  0  0  0  0  0  0  0  0  0
  1 49  1  0  0  0  0
  2 11  1  0  0  0  0
  2  4  1  0  0  0  0
  3  4  1  0  0  0  0
  3 25  1  0  0  0  0
  5  2  1  0  0  0  0
  5  7  1  0  0  0  0
  6  5  1  0  0  0  0
  8 10  1  0  0  0  0
  8  5  1  0  0  0  0
  8  3  1  0  0  0  0
  9  8  1  0  0  0  0
 11 12  1  0  0  0  0
 12 14  2  0  0  0  0
 12 13  1  0  0  0  0
 14 15  1  0  0  0  0
 16 17  1  0  0  0  0
 16 14  1  0  0  0  0
 18 16  2  0  0  0  0
 19 18  1  0  0  0  0
 20 18  1  0  0  0  0
 20 11  2  0  0  0  0
 21 20  1  0  0  0  0
 22 21  1  0  0  0  0
 23 21  1  0  0  0  0
 24 21  1  0  0  0  0
 25 26  1  0  0  0  0
 26 27  2  0  0  0  0
 26 34  1  0  0  0  0
 27 28  1  0  0  0  0
 29 27  1  0  0  0  0
 29 30  1  0  0  0  0
 31 29  2  0  0  0  0
 32 31  1  0  0  0  0
 33 25  2  0  0  0  0
 33 31  1  0  0  0  0
 34 36  1  0  0  0  0
 34 37  1  0  0  0  0
 35 34  1  0  0  0  0
 38 33  1  0  0  0  0
 39 48  1  0  0  0  0
 39 38  1  0  0  0  0
 40 39  2  0  0  0  0
 41 40  1  0  0  0  0
 42 44  2  0  0  0  0
 42 40  1  0  0  0  0
 43 42  1  0  0  0  0
 44 46  1  0  0  0  0
 45 44  1  0  0  0  0
 46 47  1  0  0  0  0
 46 48  2  0  0  0  0
 48  1  1  0  0  0  0
 49 51  1  0  0  0  0
 49 55  1  0  0  0  0
 50 49  1  0  0  0  0
 51 53  1  0  0  0  0
 51 54  1  0  0  0  0
 52 51  1  0  0  0  0
 55 57  1  0  0  0  0
 55 56  1  0  0  0  0
 58 55  1  0  0  0  0
M  END
