6,8
q = -1.0, confidence = 0.002

 56 56  0  0  1  0  0  0  0  0999 V2000
   -2.8982   -0.3874    0.2241 Si  0  0  0  0  0  0  0  0  0  0  0  0
    2.9908    0.4492    0.1293 Si  0  0  0  0  0  0  0  0  0  0  0  0
   -3.2631    1.2448    0.7478 N   0  0  0  0  0  0  0  0  0  0  0  0
    2.9930    2.1191    0.6620 N   0  0  0  0  0  0  0  0  0  0  0  0
   -1.0954   -0.3864   -0.3787 C   0  0  0  0  0  0  0  0  0  0  0  0
    0.0331    0.0796    0.3670 C   0  0  0  0  0  3  0  0  0  0  0  0
    1.2314   -0.0499   -0.4060 C   0  0  1  0  0  3  0  0  0  0  0  0
    0.8202   -0.5780   -1.6802 C   0  0  0  0  0  3  0  0  0  0  0  0
   -0.5844   -0.7823   -1.6626 C   0  0  0  0  0  0  0  0  0  0  0  0
   -3.4410    2.4858   -0.0227 C   0  0  0  0  0  0  0  0  0  0  0  0
   -2.5119    2.4795   -1.2481 C   0  0  0  0  0  0  0  0  0  0  0  0
   -4.9072    2.6285   -0.4884 C   0  0  0  0  0  0  0  0  0  0  0  0
   -3.0695    3.6730    0.8858 C   0  0  0  0  0  0  0  0  0  0  0  0
   -3.9520   -1.0583   -1.1930 C   0  0  0  0  0  0  0  0  0  0  0  0
   -3.0964   -1.4566    1.7602 C   0  0  0  0  0  0  0  0  0  0  0  0
    2.4342    3.3433    0.0689 C   0  0  0  0  0  0  0  0  0  0  0  0
    2.3030    3.1746   -1.4529 C   0  0  0  0  0  0  0  0  0  0  0  0
    3.3926    4.5115    0.3721 C   0  0  0  0  0  0  0  0  0  0  0  0
    1.0448    3.6463    0.6723 C   0  0  0  0  0  0  0  0  0  0  0  0
    4.1121    0.1087   -1.3470 C   0  0  0  0  0  0  0  0  0  0  0  0
    3.5494   -0.5398    1.6300 C   0  0  0  0  0  0  0  0  0  0  0  0
   -3.7293    1.2949    1.6585 H   0  0  0  0  0  0  0  0  0  0  0  0
    3.1607    2.2311    1.6664 H   0  0  0  0  0  0  0  0  0  0  0  0
   -0.0120    0.4460    1.4001 H   0  0  0  0  0  0  0  0  0  0  0  0
    1.4952   -0.8359   -2.5056 H   0  0  0  0  0  0  0  0  0  0  0  0
   -1.1787   -1.2238   -2.4722 H   0  0  0  0  0  0  0  0  0  0  0  0
   -1.4505    2.3959   -0.9442 H   0  0  0  0  0  0  0  0  0  0  0  0
   -2.6362    3.4152   -1.8280 H   0  0  0  0  0  0  0  0  0  0  0  0
   -2.7401    1.6345   -1.9290 H   0  0  0  0  0  0  0  0  0  0  0  0
   -5.5934    2.6181    0.3836 H   0  0  0  0  0  0  0  0  0  0  0  0
   -5.1888    1.7852   -1.1507 H   0  0  0  0  0  0  0  0  0  0  0  0
   -5.0738    3.5760   -1.0420 H   0  0  0  0  0  0  0  0  0  0  0  0
   -2.0192    3.5834    1.2274 H   0  0  0  0  0  0  0  0  0  0  0  0
   -3.7222    3.6990    1.7838 H   0  0  0  0  0  0  0  0  0  0  0  0
   -3.1890    4.6404    0.3569 H   0  0  0  0  0  0  0  0  0  0  0  0
   -3.8748   -0.4400   -2.1101 H   0  0  0  0  0  0  0  0  0  0  0  0
   -5.0202   -1.0914   -0.8965 H   0  0  0  0  0  0  0  0  0  0  0  0
   -3.6296   -2.0900   -1.4444 H   0  0  0  0  0  0  0  0  0  0  0  0
   -2.4084   -1.1410    2.5691 H   0  0  0  0  0  0  0  0  0  0  0  0
   -2.8656   -2.5124    1.5179 H   0  0  0  0  0  0  0  0  0  0  0  0
   -4.1385   -1.4058    2.1380 H   0  0  0  0  0  0  0  0  0  0  0  0
    3.2904    2.9830   -1.9173 H   0  0  0  0  0  0  0  0  0  0  0  0
    1.8821    4.0936   -1.9057 H   0  0  0  0  0  0  0  0  0  0  0  0
    1.6243    2.3353   -1.7092 H   0  0  0  0  0  0  0  0  0  0  0  0
    4.3948    4.3077   -0.0541 H   0  0  0  0  0  0  0  0  0  0  0  0
    3.5089    4.6480    1.4679 H   0  0  0  0  0  0  0  0  0  0  0  0
    3.0142    5.4663   -0.0469 H   0  0  0  0  0  0  0  0  0  0  0  0
    1.1126    3.7511    1.7751 H   0  0  0  0  0  0  0  0  0  0  0  0
    0.3395    2.8208    0.4527 H   0  0  0  0  0  0  0  0  0  0  0  0
    0.6149    4.5863    0.2682 H   0  0  0  0  0  0  0  0  0  0  0  0
    3.7926    0.6526   -2.2578 H   0  0  0  0  0  0  0  0  0  0  0  0
    4.1076   -0.9776   -1.5727 H   0  0  0  0  0  0  0  0  0  0  0  0
    5.1525    0.4137   -1.1148 H   0  0  0  0  0  0  0  0  0  0  0  0
    2.8227   -0.4688    2.4635 H   0  0  0  0  0  0  0  0  0  0  0  0
    4.5366   -0.1773    1.9836 H   0  0  0  0  0  0  0  0  0  0  0  0
    3.6445   -1.6106    1.3635 H   0  0  0  0  0  0  0  0  0  0  0  0
  1  3  1  0  0  0  0
  1 15  1  0  0  0  0
  2  4  1  0  0  0  0
  2 21  1  0  0  0  0
  3 22  1  0  0  0  0
  4 23  1  0  0  0  0
  5  1  1  0  0  0  0
  5  6  1  0  0  0  0
  6 24  1  0  0  0  0
  7  2  1  6  0  0  0
  7  6  1  0  0  0  0
  8  9  1  0  0  0  0
  8  7  1  0  0  0  0
  9  5  2  0  0  0  0
 10  3  1  0  0  0  0
 10 13  1  0  0  0  0
 11 27  1  0  0  0  0
 11 10  1  0  0  0  0
 12 10  1  0  0  0  0
 12 30  1  0  0  0  0
 13 33  1  0  0  0  0
 13 34  1  0  0  0  0
 14 37  1  0  0  0  0
 14  1  1  0  0  0  0
 15 41  1  0  0  0  0
 15 39  1  0  0  0  0
 16 18  1  0  0  0  0
 16  4  1  0  0  0  0
 16 19  1  0  0  0  0
 17 16  1  0  0  0  0
 18 46  1  0  0  0  0
 19 48  1  0  0  0  0
 20 53  1  0  0  0  0
 20  2  1  0  0  0  0
 21 55  1  0  0  0  0
 21 54  1  0  0  0  0
 25  8  1  0  0  0  0
 26  9  1  0  0  0  0
 28 11  1  0  0  0  0
 29 11  1  0  0  0  0
 31 12  1  0  0  0  0
 32 12  1  0  0  0  0
 35 13  1  0  0  0  0
 36 14  1  0  0  0  0
 38 14  1  0  0  0  0
 40 15  1  0  0  0  0
 42 17  1  0  0  0  0
 43 17  1  0  0  0  0
 44 17  1  0  0  0  0
 45 18  1  0  0  0  0
 47 18  1  0  0  0  0
 49 19  1  0  0  0  0
 50 19  1  0  0  0  0
 51 20  1  0  0  0  0
 52 20  1  0  0  0  0
 56 21  1  0  0  0  0
M  END
