6,16
q = -1.0

 28 29  0  0  1  0  0  0  0  0999 V2000
    4.6655    1.9276    1.4626 O   0  0  0  0  0  0  0  0  0  0  0  0
    4.6915   -2.2416   -0.5696 O   0  0  0  0  0  0  0  0  0  0  0  0
   -0.0256   -3.1114   -1.4968 N   0  0  0  0  0  0  0  0  0  0  0  0
    1.8155   -2.1727   -0.8373 N   0  0  0  0  0  0  0  0  0  0  0  0
    4.6696   -0.1558    0.4482 N   0  0  0  0  0  4  0  0  0  0  0  0
    1.8432   -0.0158    0.2055 C   0  0  0  0  0  3  0  0  0  0  0  0
    2.5796    1.0257    0.7921 C   0  0  0  0  0  0  0  0  0  0  0  0
    2.0953    1.9334    1.1794 H   0  0  0  0  0  0  0  0  0  0  0  0
    3.9825    0.9054    0.8890 C   0  0  0  0  0  0  0  0  0  0  0  0
    3.9941   -1.1590   -0.1158 C   0  0  0  0  0  0  0  0  0  0  0  0
    2.5937   -1.1327   -0.2547 C   0  0  1  0  0  3  0  0  0  0  0  0
    2.1748   -3.4081   -1.3599 C   0  0  0  0  0  0  0  0  0  0  0  0
    3.2143   -3.7384   -1.3906 H   0  0  0  0  0  0  0  0  0  0  0  0
    1.0084   -4.0022   -1.7740 C   0  0  0  0  0  0  0  0  0  0  0  0
    0.8308   -4.9752   -2.2414 H   0  0  0  0  0  0  0  0  0  0  0  0
    0.4517   -1.9699   -0.9119 C   0  0  0  0  0  2  0  0  0  0  0  0
   -1.4305   -3.3881   -1.7475 C   0  0  0  0  0  0  0  0  0  0  0  0
   -1.8384   -4.0796   -0.9824 H   0  0  0  0  0  0  0  0  0  0  0  0
   -1.5523   -3.8442   -2.7490 H   0  0  0  0  0  0  0  0  0  0  0  0
   -1.9922   -2.4389   -1.6990 H   0  0  0  0  0  0  0  0  0  0  0  0
    6.1074   -2.2086   -0.4090 C   0  0  0  0  0  0  0  0  0  0  0  0
    6.3923   -2.1304    0.6605 H   0  0  0  0  0  0  0  0  0  0  0  0
    6.5556   -1.3460   -0.9439 H   0  0  0  0  0  0  0  0  0  0  0  0
    6.4817   -3.1581   -0.8350 H   0  0  0  0  0  0  0  0  0  0  0  0
    6.0781    1.7993    1.5490 C   0  0  0  0  0  0  0  0  0  0  0  0
    6.3728    0.9128    2.1500 H   0  0  0  0  0  0  0  0  0  0  0  0
    6.4390    2.7235    2.0375 H   0  0  0  0  0  0  0  0  0  0  0  0
    6.5416    1.6951    0.5450 H   0  0  0  0  0  0  0  0  0  0  0  0
  1 25  1  0  0  0  0
  2 21  1  0  0  0  0
  2 10  1  0  0  0  0
  3 16  1  0  0  0  0
  5  9  2  0  0  0  0
  6  7  2  0  0  0  0
  7  9  1  0  0  0  0
  7  8  1  0  0  0  0
  9  1  1  0  0  0  0
 10  5  2  0  0  0  0
 11  4  1  1  0  0  0
 11 10  1  0  0  0  0
 11  6  1  0  0  0  0
 12  4  1  0  0  0  0
 13 12  1  0  0  0  0
 14  3  1  0  0  0  0
 14 12  2  0  0  0  0
 15 14  1  0  0  0  0
 16  4  1  0  0  0  0
 17 20  1  0  0  0  0
 17  3  1  0  0  0  0
 17 18  1  0  0  0  0
 19 17  1  0  0  0  0
 21 22  1  0  0  0  0
 23 21  1  0  0  0  0
 24 21  1  0  0  0  0
 25 27  1  0  0  0  0
 25 26  1  0  0  0  0
 28 25  1  0  0  0  0
M  END
