1,3
q = 0.0, confidence = 0.842

  9  8  0  0  0  0  0  0  0  0999 V2000
   -1.2796    0.9519    0.0002 C   0  0  0  0  0  3  0  0  0  0  0  0
   -1.5296    2.1334    0.0004 O   0  0  0  0  0  0  0  0  0  0  0  0
   -0.5019   -1.6157    0.0000 C   0  0  0  0  0  3  0  0  0  0  0  0
   -0.0898   -2.7424    0.0001 O   0  0  0  0  0  0  0  0  0  0  0  0
   -1.8776   -1.4060   -0.0002 O   0  0  0  0  0  0  0  0  0  0  0  0
   -2.3310   -0.1178   -0.0000 C   0  0  0  0  0  0  0  0  0  0  0  0
   -3.6495    0.1680   -0.0001 C   0  0  0  0  0  0  0  0  0  0  0  0
   -4.4080   -0.6268   -0.0003 H   0  0  0  0  0  0  0  0  0  0  0  0
   -3.9520    1.2237   -0.0000 H   0  0  0  0  0  0  0  0  0  0  0  0
  1  2  2  0  0  0  0
  3  4  2  0  0  0  0
  5  6  1  0  0  0  0
  5  3  1  0  0  0  0
  6  1  1  0  0  0  0
  7  6  2  0  0  0  0
  7  9  1  0  0  0  0
  8  7  1  0  0  0  0
M  END
