8,23
q = -2.0, confidence = 0.852

 72 76  0  0  1  0  0  0  0  0999 V2000
    3.3543   -2.5220    0.5242 C   0  0  0  0  0  0  0  0  0  0  0  0
    3.2737   -3.4203   -0.7192 C   0  0  0  0  0  0  0  0  0  0  0  0
    1.9823   -4.2517   -0.7256 C   0  0  0  0  0  0  0  0  0  0  0  0
    0.7334   -3.3548   -0.8090 C   0  0  0  0  0  0  0  0  0  0  0  0
    0.8333   -2.1963    0.1338 C   0  0  0  0  0  0  0  0  0  0  0  0
    2.0503   -1.8276    0.7757 C   0  0  0  0  0  0  0  0  0  0  0  0
    1.7520   -0.7865    1.7074 C   0  0  0  0  0  0  0  0  0  0  0  0
    0.3642   -0.5092    1.6235 C   0  0  0  0  0  3  0  0  0  0  0  0
   -0.2226   -1.3505    0.6180 C   0  0  0  0  0  0  0  0  0  0  0  0
   -1.6836   -1.5660    0.2852 C   0  0  2  0  0  0  0  0  0  0  0  0
   -2.1047   -1.1523   -1.1592 C   0  0  0  0  0  0  0  0  0  0  0  0
   -2.8529    0.1957   -1.2161 C   0  0  1  0  0  0  0  0  0  0  0  0
   -2.2435    1.1660   -0.1689 C   0  0  1  0  0  0  0  0  0  0  0  0
   -2.6266    0.5991    1.2283 C   0  0  0  0  0  0  0  0  0  0  0  0
   -2.6663   -0.9483    1.3032 C   0  0  2  0  0  0  0  0  0  0  0  0
   -2.5595   -1.4801    2.7556 C   0  0  0  0  0  0  0  0  0  0  0  0
   -3.7317   -0.9732    3.6090 C   0  0  0  0  0  0  0  0  0  0  0  0
   -2.4782   -3.0107    2.8167 C   0  0  0  0  0  0  0  0  0  0  0  0
   -3.0790    0.6955   -2.6710 C   0  0  0  0  0  0  0  0  0  0  0  0
   -4.1520   -0.1610   -3.3620 C   0  0  0  0  0  0  0  0  0  0  0  0
   -3.4551    2.1791   -2.7478 C   0  0  0  0  0  0  0  0  0  0  0  0
   -0.7908    1.5558   -0.3945 C   0  0  0  0  0  0  0  0  0  0  0  0
   -0.1488    1.5837   -1.6687 C   0  0  0  0  0  3  0  0  0  0  0  0
    1.0917    2.2697   -1.5648 C   0  0  0  0  0  0  0  0  0  0  0  0
    1.2180    2.7353   -0.2268 C   0  0  0  0  0  0  0  0  0  0  0  0
    0.0783    2.2863    0.5110 C   0  0  0  0  0  0  0  0  0  0  0  0
   -0.1896    2.7858    1.9128 C   0  0  0  0  0  0  0  0  0  0  0  0
    0.7334    3.9567    2.2979 C   0  0  0  0  0  0  0  0  0  0  0  0
    2.1818    3.7046    1.8653 C   0  0  0  0  0  0  0  0  0  0  0  0
    2.2743    3.6353    0.3387 C   0  0  0  0  0  0  0  0  0  0  0  0
    3.6021   -3.1325    1.4229 H   0  0  0  0  0  0  0  0  0  0  0  0
    4.1598   -1.7644    0.4268 H   0  0  0  0  0  0  0  0  0  0  0  0
    3.2958   -2.7803   -1.6263 H   0  0  0  0  0  0  0  0  0  0  0  0
    4.1619   -4.0828   -0.7632 H   0  0  0  0  0  0  0  0  0  0  0  0
    1.9392   -4.8682    0.2004 H   0  0  0  0  0  0  0  0  0  0  0  0
    1.9830   -4.9635   -1.5761 H   0  0  0  0  0  0  0  0  0  0  0  0
    0.6225   -2.9658   -1.8456 H   0  0  0  0  0  0  0  0  0  0  0  0
   -0.1911   -3.9333   -0.5906 H   0  0  0  0  0  0  0  0  0  0  0  0
    2.4740   -0.2804    2.3579 H   0  0  0  0  0  0  0  0  0  0  0  0
   -0.1684    0.2048    2.2512 H   0  0  0  0  0  0  0  0  0  0  0  0
   -1.8125   -2.6675    0.3300 H   0  0  0  0  0  0  0  0  0  0  0  0
   -1.2058   -1.1158   -1.8081 H   0  0  0  0  0  0  0  0  0  0  0  0
   -2.7567   -1.9444   -1.5795 H   0  0  0  0  0  0  0  0  0  0  0  0
   -3.8839    0.0216   -0.8306 H   0  0  0  0  0  0  0  0  0  0  0  0
   -2.7819    2.1355   -0.2583 H   0  0  0  0  0  0  0  0  0  0  0  0
   -1.9590    1.0001    2.0120 H   0  0  0  0  0  0  0  0  0  0  0  0
   -3.6332    0.9902    1.4793 H   0  0  0  0  0  0  0  0  0  0  0  0
   -3.6724   -1.2718    0.9500 H   0  0  0  0  0  0  0  0  0  0  0  0
   -1.6229   -1.0830    3.2046 H   0  0  0  0  0  0  0  0  0  0  0  0
   -3.6563   -1.3477    4.6499 H   0  0  0  0  0  0  0  0  0  0  0  0
   -4.7018   -1.3260    3.1970 H   0  0  0  0  0  0  0  0  0  0  0  0
   -3.7711    0.1330    3.6576 H   0  0  0  0  0  0  0  0  0  0  0  0
   -2.4946   -3.3620    3.8683 H   0  0  0  0  0  0  0  0  0  0  0  0
   -1.5489   -3.3994    2.3553 H   0  0  0  0  0  0  0  0  0  0  0  0
   -3.3413   -3.4798    2.2968 H   0  0  0  0  0  0  0  0  0  0  0  0
   -2.1413    0.5501   -3.2496 H   0  0  0  0  0  0  0  0  0  0  0  0
   -3.8939   -1.2385   -3.3568 H   0  0  0  0  0  0  0  0  0  0  0  0
   -4.2838    0.1431   -4.4201 H   0  0  0  0  0  0  0  0  0  0  0  0
   -5.1344   -0.0468   -2.8554 H   0  0  0  0  0  0  0  0  0  0  0  0
   -2.6400    2.8382   -2.3878 H   0  0  0  0  0  0  0  0  0  0  0  0
   -4.3620    2.3941   -2.1425 H   0  0  0  0  0  0  0  0  0  0  0  0
   -3.6809    2.4722   -3.7931 H   0  0  0  0  0  0  0  0  0  0  0  0
   -0.5198    1.1145   -2.5804 H   0  0  0  0  0  0  0  0  0  0  0  0
    1.8217    2.4084   -2.3697 H   0  0  0  0  0  0  0  0  0  0  0  0
   -0.0616    1.9791    2.6672 H   0  0  0  0  0  0  0  0  0  0  0  0
   -1.2519    3.0981    1.9955 H   0  0  0  0  0  0  0  0  0  0  0  0
    0.3717    4.8895    1.8114 H   0  0  0  0  0  0  0  0  0  0  0  0
    0.6672    4.1292    3.3916 H   0  0  0  0  0  0  0  0  0  0  0  0
    2.8510    4.4980    2.2552 H   0  0  0  0  0  0  0  0  0  0  0  0
    2.5438    2.7422    2.2910 H   0  0  0  0  0  0  0  0  0  0  0  0
    2.1215    4.6498   -0.0952 H   0  0  0  0  0  0  0  0  0  0  0  0
    3.2741    3.2906    0.0054 H   0  0  0  0  0  0  0  0  0  0  0  0
  1  6  1  0  0  0  0
  1 31  1  0  0  0  0
  2  1  1  0  0  0  0
  3  2  1  0  0  0  0
  3 35  1  0  0  0  0
  4  3  1  0  0  0  0
  4 38  1  0  0  0  0
  4  5  1  0  0  0  0
  5  9  2  0  0  0  0
  5  6  1  0  0  0  0
  6  7  2  0  0  0  0
  7 39  1  0  0  0  0
  8  7  1  0  0  0  0
  8 40  1  0  0  0  0
  9  8  1  0  0  0  0
 10 41  1  1  0  0  0
 10  9  1  0  0  0  0
 10 15  1  0  0  0  0
 11 10  1  0  0  0  0
 12 11  1  0  0  0  0
 12 44  1  1  0  0  0
 12 13  1  0  0  0  0
 13 45  1  6  0  0  0
 13 14  1  0  0  0  0
 14 15  1  0  0  0  0
 14 47  1  0  0  0  0
 14 46  1  0  0  0  0
 15 48  1  6  0  0  0
 15 16  1  0  0  0  0
 16 18  1  0  0  0  0
 16 49  1  0  0  0  0
 16 17  1  0  0  0  0
 17 52  1  0  0  0  0
 17 50  1  0  0  0  0
 18 53  1  0  0  0  0
 19 12  1  0  0  0  0
 20 57  1  0  0  0  0
 20 59  1  0  0  0  0
 20 19  1  0  0  0  0
 21 19  1  0  0  0  0
 21 60  1  0  0  0  0
 21 61  1  0  0  0  0
 22 13  1  0  0  0  0
 22 26  2  0  0  0  0
 23 24  1  0  0  0  0
 23 22  1  0  0  0  0
 24 25  2  0  0  0  0
 25 30  1  0  0  0  0
 25 26  1  0  0  0  0
 26 27  1  0  0  0  0
 27 66  1  0  0  0  0
 27 28  1  0  0  0  0
 27 65  1  0  0  0  0
 28 68  1  0  0  0  0
 29 69  1  0  0  0  0
 29 70  1  0  0  0  0
 29 28  1  0  0  0  0
 30 29  1  0  0  0  0
 32  1  1  0  0  0  0
 33  2  1  0  0  0  0
 34  2  1  0  0  0  0
 36  3  1  0  0  0  0
 37  4  1  0  0  0  0
 42 11  1  0  0  0  0
 43 11  1  0  0  0  0
 51 17  1  0  0  0  0
 54 18  1  0  0  0  0
 55 18  1  0  0  0  0
 56 19  1  0  0  0  0
 58 20  1  0  0  0  0
 62 21  1  0  0  0  0
 63 23  1  0  0  0  0
 64 24  1  0  0  0  0
 67 28  1  0  0  0  0
 71 30  1  0  0  0  0
 72 30  1  0  0  0  0
M  END
