8,11
q = 0.0, confidence = 0.996

 23 24  0  0  0  0  0  0  0  0999 V2000
    2.6389    1.0886   -0.6599 N   0  0  0  0  0  0  0  0  0  0  0  0
    2.1536    3.1208    0.1090 N   0  0  0  0  0  0  0  0  0  0  0  0
    1.1903    2.2003    0.4200 N   0  0  0  0  0  0  0  0  0  0  0  0
   -2.6392    1.0880   -0.6597 N   0  0  0  0  0  0  0  0  0  0  0  0
   -2.1542    3.1204    0.1089 N   0  0  0  0  0  0  0  0  0  0  0  0
   -1.1908    2.2001    0.4201 N   0  0  0  0  0  0  0  0  0  0  0  0
   -0.0003    2.5888    1.1493 C   0  0  0  0  0  0  0  0  0  0  0  0
    1.4224    0.9292   -0.0280 C   0  0  0  0  0  2  0  0  0  0  0  0
    3.0338    2.4058   -0.5508 C   0  0  0  0  0  0  0  0  0  0  0  0
    3.3592    0.0311   -1.3526 C   0  0  0  0  0  0  0  0  0  0  0  0
   -1.4227    0.9289   -0.0278 C   0  0  0  0  0  2  0  0  0  0  0  0
   -3.0344    2.4051   -0.5507 C   0  0  0  0  0  0  0  0  0  0  0  0
   -3.3595    0.0304   -1.3523 C   0  0  0  0  0  0  0  0  0  0  0  0
   -0.0004    3.6858    1.2625 H   0  0  0  0  0  0  0  0  0  0  0  0
   -0.0002    2.0888    2.1402 H   0  0  0  0  0  0  0  0  0  0  0  0
    3.9686    2.7996   -0.9670 H   0  0  0  0  0  0  0  0  0  0  0  0
    3.6145   -0.7834   -0.6500 H   0  0  0  0  0  0  0  0  0  0  0  0
    2.7261   -0.3904   -2.1563 H   0  0  0  0  0  0  0  0  0  0  0  0
    4.2835    0.4517   -1.7892 H   0  0  0  0  0  0  0  0  0  0  0  0
   -3.9692    2.7988   -0.9669 H   0  0  0  0  0  0  0  0  0  0  0  0
   -3.6140   -0.7844   -0.6497 H   0  0  0  0  0  0  0  0  0  0  0  0
   -4.2842    0.4507   -1.7882 H   0  0  0  0  0  0  0  0  0  0  0  0
   -2.7267   -0.3906   -2.1565 H   0  0  0  0  0  0  0  0  0  0  0  0
  1  9  1  0  0  0  0
  1  8  1  0  0  0  0
  2  3  1  0  0  0  0
  3  7  1  0  0  0  0
  4 12  1  0  0  0  0
  4 11  1  0  0  0  0
  5  6  1  0  0  0  0
  6  7  1  0  0  0  0
  7 14  1  0  0  0  0
  7 15  1  0  0  0  0
  8  3  1  0  0  0  0
  9  2  2  0  0  0  0
 10  1  1  0  0  0  0
 10 17  1  0  0  0  0
 11  6  1  0  0  0  0
 12  5  2  0  0  0  0
 13  4  1  0  0  0  0
 13 21  1  0  0  0  0
 16  9  1  0  0  0  0
 18 10  1  0  0  0  0
 19 10  1  0  0  0  0
 20 12  1  0  0  0  0
 22 13  1  0  0  0  0
 23 13  1  0  0  0  0
M  END
