7,20
q = -2.0, confidence = 0.814

 46 47  0  0  1  0  0  0  0  0999 V2000
    3.5038    0.5178    0.2501 N   0  0  0  0  0  0  0  0  0  0  0  0
    1.8399   -1.8273    0.3577 O   0  0  0  0  0  0  0  0  0  0  0  0
   -0.0435    1.4865   -0.5287 C   0  0  0  0  0  3  0  0  0  0  0  0
   -0.3489    1.4854   -1.5918 H   0  0  0  0  0  0  0  0  0  0  0  0
   -1.0499    1.6473    0.4480 C   0  0  0  0  0  3  0  0  0  0  0  0
   -0.7641    1.9584    1.4676 H   0  0  0  0  0  0  0  0  0  0  0  0
   -2.3681    1.1235    0.1935 C   0  0  0  0  0  3  0  0  0  0  0  0
   -3.4198    1.1878    1.3095 C   0  0  0  0  0  0  0  0  0  0  0  0
   -3.8259    0.1798    1.5318 H   0  0  0  0  0  0  0  0  0  0  0  0
   -2.9633    1.5491    2.2534 H   0  0  0  0  0  0  0  0  0  0  0  0
   -4.5380    2.1290    0.7708 C   0  0  0  0  0  0  0  0  0  0  0  0
   -5.4675    1.5523    0.5833 H   0  0  0  0  0  0  0  0  0  0  0  0
   -4.8026    2.9302    1.4887 H   0  0  0  0  0  0  0  0  0  0  0  0
   -3.9935    2.6896   -0.5598 C   0  0  0  0  0  0  0  0  0  0  0  0
   -3.3688    3.5883   -0.3712 H   0  0  0  0  0  0  0  0  0  0  0  0
   -4.7936    2.9832   -1.2695 H   0  0  0  0  0  0  0  0  0  0  0  0
   -3.0934    1.5585   -1.0895 C   0  0  0  0  0  0  0  0  0  0  0  0
   -2.4047    1.8793   -1.8956 H   0  0  0  0  0  0  0  0  0  0  0  0
   -3.7312    0.7493   -1.5034 H   0  0  0  0  0  0  0  0  0  0  0  0
    1.3302   -0.7657    0.0378 C   0  0  0  0  0  3  0  0  0  0  0  0
    2.2202    0.4334   -0.4139 C   0  0  1  0  0  0  0  0  0  0  0  0
    1.4074    1.7544   -0.2290 C   0  0  1  0  0  0  0  0  0  0  0  0
    1.4873    2.1032    0.8204 H   0  0  0  0  0  0  0  0  0  0  0  0
    2.0958    2.7266   -1.2088 C   0  0  0  0  0  0  0  0  0  0  0  0
    2.9745    3.1691   -0.7014 H   0  0  0  0  0  0  0  0  0  0  0  0
    1.4279    3.5590   -1.5074 H   0  0  0  0  0  0  0  0  0  0  0  0
    2.5616    1.8516   -2.4037 C   0  0  0  0  0  0  0  0  0  0  0  0
    2.0052    2.0778   -3.3355 H   0  0  0  0  0  0  0  0  0  0  0  0
    3.6321    2.0322   -2.6281 H   0  0  0  0  0  0  0  0  0  0  0  0
    2.3258    0.3899   -1.9593 C   0  0  0  0  0  0  0  0  0  0  0  0
    1.3505    0.0247   -2.3414 H   0  0  0  0  0  0  0  0  0  0  0  0
    3.0866   -0.3273   -2.3184 H   0  0  0  0  0  0  0  0  0  0  0  0
    3.4697    0.4797    1.7119 C   0  0  0  0  0  0  0  0  0  0  0  0
    3.8940   -0.4786    2.0938 H   0  0  0  0  0  0  0  0  0  0  0  0
    2.4116    0.4648    2.0442 H   0  0  0  0  0  0  0  0  0  0  0  0
    4.7195   -0.0143   -0.3501 C   0  0  0  0  0  0  0  0  0  0  0  0
    5.5715    0.4055    0.2284 H   0  0  0  0  0  0  0  0  0  0  0  0
    4.8403    0.4117   -1.3691 H   0  0  0  0  0  0  0  0  0  0  0  0
    4.1893    1.6648    2.3606 C   0  0  0  0  0  0  0  0  0  0  0  0
    3.7148    2.6243    2.0699 H   0  0  0  0  0  0  0  0  0  0  0  0
    5.2536    1.7132    2.0511 H   0  0  0  0  0  0  0  0  0  0  0  0
    4.1686    1.5848    3.4670 H   0  0  0  0  0  0  0  0  0  0  0  0
    4.8621   -1.5420   -0.4067 C   0  0  0  0  0  0  0  0  0  0  0  0
    4.0724   -2.0049   -1.0292 H   0  0  0  0  0  0  0  0  0  0  0  0
    4.7753   -1.9955    0.6003 H   0  0  0  0  0  0  0  0  0  0  0  0
    5.8523   -1.8201   -0.8246 H   0  0  0  0  0  0  0  0  0  0  0  0
  1 33  1  0  0  0  0
  3 22  1  0  0  0  0
  3  5  1  0  0  0  0
  4  3  1  0  0  0  0
  5  6  1  0  0  0  0
  7  5  1  0  0  0  0
  7  8  1  0  0  0  0
  8  9  1  0  0  0  0
  8 10  1  0  0  0  0
 11  8  1  0  0  0  0
 11 13  1  0  0  0  0
 12 11  1  0  0  0  0
 14 15  1  0  0  0  0
 14 11  1  0  0  0  0
 16 14  1  0  0  0  0
 17 14  1  0  0  0  0
 17  7  1  0  0  0  0
 18 17  1  0  0  0  0
 19 17  1  0  0  0  0
 20  2  2  0  0  0  0
 21 22  1  0  0  0  0
 21 20  1  1  0  0  0
 21  1  1  0  0  0  0
 22 23  1  1  0  0  0
 24 25  1  0  0  0  0
 24 22  1  0  0  0  0
 26 24  1  0  0  0  0
 27 30  1  0  0  0  0
 27 24  1  0  0  0  0
 28 27  1  0  0  0  0
 29 27  1  0  0  0  0
 30 21  1  0  0  0  0
 31 30  1  0  0  0  0
 32 30  1  0  0  0  0
 33 35  1  0  0  0  0
 33 34  1  0  0  0  0
 33 39  1  0  0  0  0
 36 37  1  0  0  0  0
 36  1  1  0  0  0  0
 38 36  1  0  0  0  0
 39 42  1  0  0  0  0
 40 39  1  0  0  0  0
 41 39  1  0  0  0  0
 43 36  1  0  0  0  0
 43 45  1  0  0  0  0
 44 43  1  0  0  0  0
 46 43  1  0  0  0  0
M  END
