4,9
q = -2.0, confidence = 0.764

 40 43  0  0  1  0  0  0  0  0999 V2000
    1.4052    1.4121    0.8152 C   0  0  0  0  0  0  0  0  0  0  0  0
    2.1080    0.0397    0.6497 C   0  0  1  0  0  0  0  0  0  0  0  0
    1.2830   -0.8062   -0.2924 C   0  0  0  0  0  0  0  0  0  0  0  0
    0.6956   -0.3782   -1.5343 C   0  0  0  0  0  3  0  0  0  0  0  0
   -0.0120   -1.4800   -2.0980 C   0  0  0  0  0  0  0  0  0  0  0  0
    0.0874   -2.5731   -1.1994 C   0  0  0  0  0  0  0  0  0  0  0  0
    0.8915   -2.1599   -0.0919 C   0  0  0  0  0  0  0  0  0  0  0  0
   -0.0634    1.2305    1.0895 C   0  0  1  0  0  3  0  0  0  0  0  0
   -0.6420    0.4619    2.1501 C   0  0  0  0  0  3  0  0  0  0  0  0
   -2.0612    0.5366    2.0802 C   0  0  0  0  0  3  0  0  0  0  0  0
   -3.6471    1.8923    0.5030 C   0  0  0  0  0  0  0  0  0  0  0  0
   -3.6478    2.7365   -0.5944 C   0  0  0  0  0  0  0  0  0  0  0  0
   -2.4308    3.1282   -1.2335 C   0  0  0  0  0  0  0  0  0  0  0  0
   -1.1998    2.6860   -0.7768 C   0  0  0  0  0  0  0  0  0  0  0  0
   -1.1583    1.8259    0.3621 C   0  0  0  0  0  0  0  0  0  0  0  0
   -2.4014    1.4153    1.0011 C   0  0  0  0  0  0  0  0  0  0  0  0
    4.5025    0.5897    1.2454 C   0  0  0  0  0  0  0  0  0  0  0  0
    5.8518    0.7914    0.9245 C   0  0  0  0  0  0  0  0  0  0  0  0
    6.2984    0.5951   -0.3925 C   0  0  0  0  0  0  0  0  0  0  0  0
    5.3853    0.1932   -1.3785 C   0  0  0  0  0  0  0  0  0  0  0  0
    4.0334   -0.0056   -1.0548 C   0  0  0  0  0  0  0  0  0  0  0  0
    3.5732    0.1941    0.2605 C   0  0  0  0  0  0  0  0  0  0  0  0
    1.5462    2.0045   -0.1113 H   0  0  0  0  0  0  0  0  0  0  0  0
    1.8935    1.9936    1.6254 H   0  0  0  0  0  0  0  0  0  0  0  0
    2.0891   -0.4641    1.6403 H   0  0  0  0  0  0  0  0  0  0  0  0
    0.7862    0.6180   -1.9846 H   0  0  0  0  0  0  0  0  0  0  0  0
   -0.5835   -1.4639   -3.0322 H   0  0  0  0  0  0  0  0  0  0  0  0
   -0.3923   -3.5519   -1.3146 H   0  0  0  0  0  0  0  0  0  0  0  0
    1.1434   -2.7715    0.7832 H   0  0  0  0  0  0  0  0  0  0  0  0
   -0.0803   -0.1260    2.8885 H   0  0  0  0  0  0  0  0  0  0  0  0
   -2.7653    0.0263    2.7462 H   0  0  0  0  0  0  0  0  0  0  0  0
   -4.5863    1.5798    0.9819 H   0  0  0  0  0  0  0  0  0  0  0  0
   -4.6023    3.1131   -0.9910 H   0  0  0  0  0  0  0  0  0  0  0  0
   -2.4780    3.7994   -2.1041 H   0  0  0  0  0  0  0  0  0  0  0  0
   -0.2680    3.0128   -1.2629 H   0  0  0  0  0  0  0  0  0  0  0  0
    4.1611    0.7365    2.2832 H   0  0  0  0  0  0  0  0  0  0  0  0
    6.5610    1.0976    1.7086 H   0  0  0  0  0  0  0  0  0  0  0  0
    7.3579    0.7489   -0.6469 H   0  0  0  0  0  0  0  0  0  0  0  0
    5.7270    0.0270   -2.4115 H   0  0  0  0  0  0  0  0  0  0  0  0
    3.3284   -0.3313   -1.8338 H   0  0  0  0  0  0  0  0  0  0  0  0
  1 24  1  0  0  0  0
  2  1  1  0  0  0  0
  2 25  1  1  0  0  0
  3  7  2  0  0  0  0
  3  2  1  0  0  0  0
  4  3  1  0  0  0  0
  5  4  1  0  0  0  0
  5  6  2  0  0  0  0
  6  7  1  0  0  0  0
  7 29  1  0  0  0  0
  8  1  1  1  0  0  0
  8  9  1  0  0  0  0
  9 30  1  0  0  0  0
 10  9  1  0  0  0  0
 10 31  1  0  0  0  0
 11 32  1  0  0  0  0
 11 16  1  0  0  0  0
 12 11  2  0  0  0  0
 13 14  2  0  0  0  0
 13 12  1  0  0  0  0
 14 15  1  0  0  0  0
 15 16  2  0  0  0  0
 15  8  1  0  0  0  0
 16 10  1  0  0  0  0
 17 36  1  0  0  0  0
 18 17  1  0  0  0  0
 18 37  1  0  0  0  0
 19 18  2  0  0  0  0
 20 21  2  0  0  0  0
 20 19  1  0  0  0  0
 21 22  1  0  0  0  0
 22  2  1  0  0  0  0
 22 17  2  0  0  0  0
 23  1  1  0  0  0  0
 26  4  1  0  0  0  0
 27  5  1  0  0  0  0
 28  6  1  0  0  0  0
 33 12  1  0  0  0  0
 34 13  1  0  0  0  0
 35 14  1  0  0  0  0
 38 19  1  0  0  0  0
 39 20  1  0  0  0  0
 40 21  1  0  0  0  0
M  END
