7,10
q = -2.0, confidence = 0.826

 40 46  0  0  1  0  0  0  0  0999 V2000
   -0.8812   -0.6439    0.0002 C   0  0  2  0  0  3  0  0  0  0  0  0
   -1.8780    0.7527   -0.0001 C   0  0  1  0  0  0  0  0  0  0  0  0
   -1.1440    2.1303   -0.0005 C   0  0  0  0  0  0  0  0  0  0  0  0
   -1.5138    2.9699    1.2414 C   0  0  0  0  0  0  0  0  0  0  0  0
   -1.5129    2.9688   -1.2433 C   0  0  0  0  0  0  0  0  0  0  0  0
    0.3550    1.8693    0.0003 C   0  0  1  0  0  3  0  0  0  0  0  0
    1.1960    1.7620   -1.1481 C   0  0  0  0  0  3  0  0  0  0  0  0
    2.5488    1.6560   -0.7068 C   0  0  0  0  0  0  0  0  0  0  0  0
    2.5480    1.6555    0.7097 C   0  0  0  0  0  0  0  0  0  0  0  0
    1.1948    1.7612    1.1496 C   0  0  0  0  0  3  0  0  0  0  0  0
   -1.7417   -0.2025    1.4149 B   0  0  1  0  0  0  0  0  0  0  0  0
   -3.3096    0.4765    0.8859 B   0  0  1  0  0  0  0  0  0  0  0  0
   -3.3095    0.4761   -0.8862 B   0  0  2  0  0  0  0  0  0  0  0  0
   -1.7415   -0.2032   -1.4147 B   0  0  2  0  0  0  0  0  0  0  0  0
   -1.6777   -1.8888    0.8850 B   0  0  1  0  0  0  0  0  0  0  0  0
   -3.2157   -1.2049    1.4468 B   0  0  0  0  0  0  0  0  0  0  0  0
   -4.1858   -0.7899    0.0001 B   0  0  0  0  0  0  0  0  0  0  0  0
   -3.2156   -1.2056   -1.4463 B   0  0  1  0  0  0  0  0  0  0  0  0
   -1.6777   -1.8892   -0.8841 B   0  0  1  0  0  0  0  0  0  0  0  0
   -3.1786   -2.2560    0.0005 B   0  0  0  0  0  0  0  0  0  0  0  0
   -0.8870    3.8823    1.2648 H   0  0  0  0  0  0  0  0  0  0  0  0
   -1.3637    2.4171    2.1860 H   0  0  0  0  0  0  0  0  0  0  0  0
   -2.5737    3.2790    1.1969 H   0  0  0  0  0  0  0  0  0  0  0  0
   -1.3621    2.4153   -2.1874 H   0  0  0  0  0  0  0  0  0  0  0  0
   -0.8863    3.8813   -1.2669 H   0  0  0  0  0  0  0  0  0  0  0  0
   -2.5729    3.2777   -1.1999 H   0  0  0  0  0  0  0  0  0  0  0  0
    0.8654    1.7812   -2.1920 H   0  0  0  0  0  0  0  0  0  0  0  0
    3.4330    1.5862   -1.3490 H   0  0  0  0  0  0  0  0  0  0  0  0
    3.4315    1.5853    1.3528 H   0  0  0  0  0  0  0  0  0  0  0  0
    0.8631    1.7796    2.1931 H   0  0  0  0  0  0  0  0  0  0  0  0
   -1.1218    0.2193    2.3583 H   0  0  0  0  0  0  0  0  0  0  0  0
   -3.7795    1.3935    1.5085 H   0  0  0  0  0  0  0  0  0  0  0  0
   -3.7793    1.3928   -1.5093 H   0  0  0  0  0  0  0  0  0  0  0  0
   -1.1213    0.2182   -2.3582 H   0  0  0  0  0  0  0  0  0  0  0  0
   -1.0161   -2.6511    1.5383 H   0  0  0  0  0  0  0  0  0  0  0  0
   -3.6946   -1.5337    2.5065 H   0  0  0  0  0  0  0  0  0  0  0  0
   -5.3946   -0.8144    0.0000 H   0  0  0  0  0  0  0  0  0  0  0  0
   -3.6943   -1.5349   -2.5060 H   0  0  0  0  0  0  0  0  0  0  0  0
   -1.0162   -2.6519   -1.5368 H   0  0  0  0  0  0  0  0  0  0  0  0
   -3.6349   -3.3753    0.0007 H   0  0  0  0  0  0  0  0  0  0  0  0
  1 15  1  0  0  0  0
  1 11  1  0  0  0  0
  2 12  1  0  0  0  0
  2 11  1  0  0  0  0
  3  2  1  0  0  0  0
  3  6  1  0  0  0  0
  3  4  1  0  0  0  0
  4 21  1  0  0  0  0
  4 22  1  0  0  0  0
  5 26  1  0  0  0  0
  5  3  1  0  0  0  0
  6 10  1  0  0  0  0
  7  8  1  0  0  0  0
  7  6  1  0  0  0  0
  8  9  2  0  0  0  0
  9 10  1  0  0  0  0
  9 29  1  0  0  0  0
 10 30  1  0  0  0  0
 11 31  1  0  0  0  0
 12 16  1  0  0  0  0
 12 32  1  0  0  0  0
 13  2  1  0  0  0  0
 13 12  1  0  0  0  0
 14 19  1  0  0  0  0
 14  1  1  0  0  0  0
 15 11  1  0  0  0  0
 15 35  1  0  0  0  0
 16 36  1  0  0  0  0
 17 20  1  0  0  0  0
 17 16  1  0  0  0  0
 18 14  1  0  0  0  0
 18 13  1  0  0  0  0
 18 19  1  0  0  0  0
 19 15  1  0  0  0  0
 20 40  1  0  0  0  0
 20 16  1  0  0  0  0
 23  4  1  0  0  0  0
 24  5  1  0  0  0  0
 25  5  1  0  0  0  0
 27  7  1  0  0  0  0
 28  8  1  0  0  0  0
 33 13  1  0  0  0  0
 34 14  1  0  0  0  0
 37 17  1  0  0  0  0
 38 18  1  0  0  0  0
 39 19  1  0  0  0  0
M  END
