3,6
q = -1.0

 49 52  0  0  1  0  0  0  0  0999 V2000
   -0.3048    0.7175   -0.1783 C   0  0  0  0  0  0  0  0  0  0  0  0
   -0.2849   -0.7394   -0.2089 C   0  0  0  0  0  0  0  0  0  0  0  0
    1.0828   -1.1564   -0.2822 C   0  0  0  0  0  3  0  0  0  0  0  0
    1.4150   -2.1960   -0.3382 H   0  0  0  0  0  0  0  0  0  0  0  0
    1.9320    0.0110   -0.3190 C   0  0  2  0  0  3  0  0  0  0  0  0
    1.0661    1.1508   -0.2256 C   0  0  0  0  0  3  0  0  0  0  0  0
    1.3907    2.1940   -0.2220 H   0  0  0  0  0  0  0  0  0  0  0  0
   -1.4494    1.6466   -0.1729 C   0  0  0  0  0  0  0  0  0  0  0  0
   -1.4009    2.8332   -0.9387 C   0  0  0  0  0  0  0  0  0  0  0  0
   -0.3180    3.1225   -1.6748 F   0  0  0  0  0  0  0  0  0  0  0  0
   -2.4707    3.7370   -0.9688 C   0  0  0  0  0  0  0  0  0  0  0  0
   -2.3518    4.8358   -1.7167 F   0  0  0  0  0  0  0  0  0  0  0  0
   -3.6542    3.4982   -0.2446 C   0  0  0  0  0  0  0  0  0  0  0  0
   -3.7215    2.3174    0.5168 C   0  0  0  0  0  0  0  0  0  0  0  0
   -4.7945    2.0020    1.2409 F   0  0  0  0  0  0  0  0  0  0  0  0
   -2.6414    1.4191    0.5414 C   0  0  0  0  0  0  0  0  0  0  0  0
   -2.7780    0.3184    1.2934 F   0  0  0  0  0  0  0  0  0  0  0  0
   -4.7721    4.5238   -0.3300 C   0  0  0  0  0  0  0  0  0  0  0  0
   -4.3407    5.7290    0.1048 F   0  0  0  0  0  0  0  0  0  0  0  0
   -5.1789    4.6733   -1.6105 F   0  0  0  0  0  0  0  0  0  0  0  0
   -5.8446    4.1825    0.4040 F   0  0  0  0  0  0  0  0  0  0  0  0
   -1.4253   -1.6721   -0.3048 C   0  0  0  0  0  0  0  0  0  0  0  0
   -2.5070   -1.4234   -1.1738 C   0  0  0  0  0  0  0  0  0  0  0  0
   -2.5177   -0.3254   -1.9427 F   0  0  0  0  0  0  0  0  0  0  0  0
   -3.5882   -2.3079   -1.2712 C   0  0  0  0  0  0  0  0  0  0  0  0
   -4.5815   -2.0072   -2.1103 F   0  0  0  0  0  0  0  0  0  0  0  0
   -3.6307   -3.4980   -0.5193 C   0  0  0  0  0  0  0  0  0  0  0  0
   -2.5443   -3.7728    0.3311 C   0  0  0  0  0  0  0  0  0  0  0  0
   -2.4887   -4.8765    1.0744 F   0  0  0  0  0  0  0  0  0  0  0  0
   -1.4621   -2.8792    0.4192 C   0  0  0  0  0  0  0  0  0  0  0  0
   -0.4531   -3.2048    1.2371 F   0  0  0  0  0  0  0  0  0  0  0  0
   -4.8342   -4.4116   -0.6861 C   0  0  0  0  0  0  0  0  0  0  0  0
   -4.7712   -5.4997    0.0994 F   0  0  0  0  0  0  0  0  0  0  0  0
   -5.9732   -3.7499   -0.3850 F   0  0  0  0  0  0  0  0  0  0  0  0
   -4.9322   -4.8324   -1.9675 F   0  0  0  0  0  0  0  0  0  0  0  0
    3.3989    0.0238   -0.4353 C   0  0  0  0  0  0  0  0  0  0  0  0
    4.1060   -1.0506   -1.0186 C   0  0  0  0  0  0  0  0  0  0  0  0
    3.4503   -2.1184   -1.4967 F   0  0  0  0  0  0  0  0  0  0  0  0
    5.5029   -1.0406   -1.1263 C   0  0  0  0  0  0  0  0  0  0  0  0
    6.1014   -2.0893   -1.6939 F   0  0  0  0  0  0  0  0  0  0  0  0
    6.2687    0.0453   -0.6611 C   0  0  0  0  0  0  0  0  0  0  0  0
    5.5790    1.1244   -0.0778 C   0  0  0  0  0  0  0  0  0  0  0  0
    6.2131    2.1942    0.3998 F   0  0  0  0  0  0  0  0  0  0  0  0
    4.1781    1.1054    0.0261 C   0  0  0  0  0  0  0  0  0  0  0  0
    3.5886    2.1586    0.6110 F   0  0  0  0  0  0  0  0  0  0  0  0
    7.7785   -0.0155   -0.8219 C   0  0  0  0  0  0  0  0  0  0  0  0
    8.3951    1.0741   -0.3336 F   0  0  0  0  0  0  0  0  0  0  0  0
    8.1094   -0.1259   -2.1283 F   0  0  0  0  0  0  0  0  0  0  0  0
    8.2787   -1.0952   -0.1814 F   0  0  0  0  0  0  0  0  0  0  0  0
  1  8  1  0  0  0  0
  2  1  2  0  0  0  0
  3  2  1  0  0  0  0
  4  3  1  0  0  0  0
  5 36  1  6  0  0  0
  5  3  1  0  0  0  0
  5  6  1  0  0  0  0
  6  7  1  0  0  0  0
  6  1  1  0  0  0  0
  8 16  1  0  0  0  0
  9  8  2  0  0  0  0
 10  9  1  0  0  0  0
 11  9  1  0  0  0  0
 11 13  2  0  0  0  0
 12 11  1  0  0  0  0
 13 14  1  0  0  0  0
 14 16  2  0  0  0  0
 14 15  1  0  0  0  0
 16 17  1  0  0  0  0
 18 13  1  0  0  0  0
 18 19  1  0  0  0  0
 18 21  1  0  0  0  0
 20 18  1  0  0  0  0
 22  2  1  0  0  0  0
 22 30  1  0  0  0  0
 23 22  2  0  0  0  0
 24 23  1  0  0  0  0
 25 23  1  0  0  0  0
 25 27  2  0  0  0  0
 26 25  1  0  0  0  0
 27 28  1  0  0  0  0
 28 30  2  0  0  0  0
 28 29  1  0  0  0  0
 30 31  1  0  0  0  0
 32 27  1  0  0  0  0
 32 34  1  0  0  0  0
 32 33  1  0  0  0  0
 35 32  1  0  0  0  0
 36 44  1  0  0  0  0
 37 36  2  0  0  0  0
 38 37  1  0  0  0  0
 39 37  1  0  0  0  0
 39 41  2  0  0  0  0
 40 39  1  0  0  0  0
 41 42  1  0  0  0  0
 42 44  2  0  0  0  0
 42 43  1  0  0  0  0
 44 45  1  0  0  0  0
 46 41  1  0  0  0  0
 46 47  1  0  0  0  0
 46 49  1  0  0  0  0
 48 46  1  0  0  0  0
M  END
