12,15
q = -2.0, confidence = 0.878

 40 46  0  0  1  0  0  0  0  0999 V2000
    3.0608   -0.2443    0.1720 C   0  0  1  0  0  0  0  0  0  0  0  0
    1.3565   -0.0665    0.7633 C   0  0  1  0  0  0  0  0  0  0  0  0
    3.2161   -0.6188   -1.3383 C   0  0  0  0  0  0  0  0  0  0  0  0
    3.9741   -1.9518   -1.5171 C   0  0  0  0  0  0  0  0  0  0  0  0
    3.9512   -2.2416   -2.5859 H   0  0  0  0  0  0  0  0  0  0  0  0
    3.5247   -2.7699   -0.9262 H   0  0  0  0  0  0  0  0  0  0  0  0
    5.0299   -1.8481   -1.2055 H   0  0  0  0  0  0  0  0  0  0  0  0
    4.0122    0.4637   -2.0951 C   0  0  0  0  0  0  0  0  0  0  0  0
    4.0233    0.2239   -3.1762 H   0  0  0  0  0  0  0  0  0  0  0  0
    5.0569    0.4988   -1.7360 H   0  0  0  0  0  0  0  0  0  0  0  0
    3.5783    1.4712   -1.9625 H   0  0  0  0  0  0  0  0  0  0  0  0
    1.8221   -0.7608   -1.9569 C   0  0  2  0  0  3  0  0  0  0  0  0
    0.9841   -1.9434   -1.9110 C   0  0  0  0  0  3  0  0  0  0  0  0
    1.2474   -2.9168   -1.4869 H   0  0  0  0  0  0  0  0  0  0  0  0
   -0.2330   -1.6133   -2.6045 C   0  0  0  0  0  3  0  0  0  0  0  0
   -1.0850   -2.2911   -2.7461 H   0  0  0  0  0  0  0  0  0  0  0  0
   -0.1412   -0.2761   -3.1150 C   0  0  0  0  0  0  0  0  0  0  0  0
   -0.8730    0.2081   -3.7735 H   0  0  0  0  0  0  0  0  0  0  0  0
    1.1495    0.2427   -2.7297 C   0  0  0  0  0  0  0  0  0  0  0  0
    1.5827    1.1975   -3.0363 H   0  0  0  0  0  0  0  0  0  0  0  0
    2.3753   -1.4112    1.1915 B   0  0  2  0  0  0  0  0  0  0  0  0
    2.1499   -2.5084    0.7557 H   0  0  0  0  0  0  0  0  0  0  0  0
    4.0659   -0.8844    1.3907 B   0  0  1  0  0  0  0  0  0  0  0  0
    4.9447   -1.6414    1.0625 H   0  0  0  0  0  0  0  0  0  0  0  0
    4.1046    0.8337    0.9834 B   0  0  2  0  0  0  0  0  0  0  0  0
    5.0169    1.3205    0.3636 H   0  0  0  0  0  0  0  0  0  0  0  0
    2.4310    1.2913    0.5491 B   0  0  1  0  0  0  0  0  0  0  0  0
    2.2043    2.0853   -0.3274 H   0  0  0  0  0  0  0  0  0  0  0  0
    1.3862   -0.5840    2.3930 B   0  0  1  0  0  0  0  0  0  0  0  0
    0.3993   -1.1285    2.8267 H   0  0  0  0  0  0  0  0  0  0  0  0
    3.0365   -1.0982    2.8188 B   0  0  0  0  0  0  0  0  0  0  0  0
    3.2241   -2.0153    3.5869 H   0  0  0  0  0  0  0  0  0  0  0  0
    4.1089    0.3269    2.6908 B   0  0  0  0  0  0  0  0  0  0  0  0
    5.0990    0.4626    3.3741 H   0  0  0  0  0  0  0  0  0  0  0  0
    3.1047    1.7037    2.1528 B   0  0  0  0  0  0  0  0  0  0  0  0
    3.3364    2.8579    2.4358 H   0  0  0  0  0  0  0  0  0  0  0  0
    1.4327    1.1313    1.9910 B   0  0  2  0  0  0  0  0  0  0  0  0
    0.5013    1.8785    2.1315 H   0  0  0  0  0  0  0  0  0  0  0  0
    2.4536    0.5126    3.3129 B   0  0  1  0  0  0  0  0  0  0  0  0
    2.2069    0.7924    4.4656 H   0  0  0  0  0  0  0  0  0  0  0  0
  1  3  1  6  0  0  0
  1 27  1  0  0  0  0
  1 21  1  0  0  0  0
  1 23  1  0  0  0  0
  2 21  1  0  0  0  0
  2 37  1  0  0  0  0
  2 29  1  0  0  0  0
  4  3  1  0  0  0  0
  4  7  1  0  0  0  0
  4  6  1  0  0  0  0
  5  4  1  0  0  0  0
  8 11  1  0  0  0  0
  8 10  1  0  0  0  0
  8  3  1  0  0  0  0
  9  8  1  0  0  0  0
 12 13  1  0  0  0  0
 12  3  1  6  0  0  0
 13 14  1  0  0  0  0
 15 13  1  0  0  0  0
 16 15  1  0  0  0  0
 17 19  2  0  0  0  0
 17 15  1  0  0  0  0
 18 17  1  0  0  0  0
 19 12  1  0  0  0  0
 20 19  1  0  0  0  0
 21 22  1  6  0  0  0
 21 29  1  0  0  0  0
 23 24  1  6  0  0  0
 23 31  1  0  0  0  0
 25 23  1  0  0  0  0
 25 35  1  0  0  0  0
 25 33  1  0  0  0  0
 26 25  1  0  0  0  0
 27 28  1  6  0  0  0
 27  2  1  0  0  0  0
 27 37  1  0  0  0  0
 29 30  1  1  0  0  0
 31 39  1  0  0  0  0
 31 32  1  0  0  0  0
 33 39  1  0  0  0  0
 33 34  1  0  0  0  0
 35 36  1  0  0  0  0
 35 39  1  0  0  0  0
 37 38  1  1  0  0  0
 37 29  1  0  0  0  0
 39 40  1  0  0  0  0
M  END
