2,4
q = -2.0, confidence = 0.614

 43 45  0  0  0  0  0  0  0  0999 V2000
   -0.6659    3.0169   -1.6863 O   0  0  0  0  0  0  0  0  0  0  0  0
    0.4815    1.0582   -0.8326 C   0  0  0  0  0  3  0  0  0  0  0  0
   -0.6477    1.8082   -1.4799 C   0  0  0  0  0  0  0  0  0  0  0  0
   -1.8125    0.8471   -1.4008 C   0  0  0  0  0  3  0  0  0  0  0  0
    1.7793    1.0791   -0.7802 C   0  0  0  0  0  0  0  0  0  0  0  0
    3.1107    1.0557   -0.6034 C   0  0  0  0  0  0  0  0  0  0  0  0
    3.9156   -0.0541   -1.1790 C   0  0  0  0  0  0  0  0  0  0  0  0
    3.3973   -1.3697   -1.1889 C   0  0  0  0  0  0  0  0  0  0  0  0
    4.1243   -2.4236   -1.7566 C   0  0  0  0  0  0  0  0  0  0  0  0
    5.3899   -2.1869   -2.3180 C   0  0  0  0  0  0  0  0  0  0  0  0
    5.9198   -0.8857   -2.3066 C   0  0  0  0  0  0  0  0  0  0  0  0
    5.1920    0.1716   -1.7434 C   0  0  0  0  0  0  0  0  0  0  0  0
    3.7299    2.1285    0.2176 C   0  0  0  0  0  0  0  0  0  0  0  0
    4.9154    1.8982    0.9551 C   0  0  0  0  0  0  0  0  0  0  0  0
    5.4549    2.9015    1.7726 C   0  0  0  0  0  0  0  0  0  0  0  0
    4.8235    4.1514    1.8741 C   0  0  0  0  0  0  0  0  0  0  0  0
    3.6433    4.3905    1.1486 C   0  0  0  0  0  0  0  0  0  0  0  0
    3.1033    3.3948    0.3265 C   0  0  0  0  0  0  0  0  0  0  0  0
   -3.2143    1.3117   -1.2743 C   0  0  0  0  0  0  0  0  0  0  0  0
   -4.2750    0.4531   -1.6420 C   0  0  0  0  0  0  0  0  0  0  0  0
   -5.6129    0.8259   -1.4563 C   0  0  0  0  0  0  0  0  0  0  0  0
   -5.9509    2.0752   -0.8992 C   0  0  0  0  0  0  0  0  0  0  0  0
   -4.8913    2.9377   -0.5426 C   0  0  0  0  0  0  0  0  0  0  0  0
   -3.5533    2.5726   -0.7265 C   0  0  0  0  0  0  0  0  0  0  0  0
   -7.3877    2.4954   -0.7176 C   0  0  0  0  0  0  0  0  0  0  0  0
   -1.7180    0.0302   -2.1404 H   0  0  0  0  0  0  0  0  0  0  0  0
    2.4164   -1.5540   -0.7280 H   0  0  0  0  0  0  0  0  0  0  0  0
    3.6991   -3.4392   -1.7529 H   0  0  0  0  0  0  0  0  0  0  0  0
    5.9646   -3.0145   -2.7612 H   0  0  0  0  0  0  0  0  0  0  0  0
    6.9088   -0.6903   -2.7491 H   0  0  0  0  0  0  0  0  0  0  0  0
    5.6054    1.1912   -1.7512 H   0  0  0  0  0  0  0  0  0  0  0  0
    5.4066    0.9156    0.8955 H   0  0  0  0  0  0  0  0  0  0  0  0
    6.3764    2.7016    2.3410 H   0  0  0  0  0  0  0  0  0  0  0  0
    5.2512    4.9387    2.5133 H   0  0  0  0  0  0  0  0  0  0  0  0
    3.1436    5.3691    1.2153 H   0  0  0  0  0  0  0  0  0  0  0  0
    2.1875    3.5858   -0.2555 H   0  0  0  0  0  0  0  0  0  0  0  0
   -4.0387   -0.5356   -2.0669 H   0  0  0  0  0  0  0  0  0  0  0  0
   -6.4157    0.1301   -1.7493 H   0  0  0  0  0  0  0  0  0  0  0  0
   -5.1237    3.9261   -0.1138 H   0  0  0  0  0  0  0  0  0  0  0  0
   -2.7507    3.2765   -0.4653 H   0  0  0  0  0  0  0  0  0  0  0  0
   -8.0805    1.6362   -0.8102 H   0  0  0  0  0  0  0  0  0  0  0  0
   -7.6865    3.2454   -1.4815 H   0  0  0  0  0  0  0  0  0  0  0  0
   -7.5536    2.9661    0.2730 H   0  0  0  0  0  0  0  0  0  0  0  0
  1  3  2  0  0  0  0
  2  5  2  0  0  0  0
  3  4  1  0  0  0  0
  3  2  1  0  0  0  0
  4 19  1  0  0  0  0
  5  6  2  0  0  0  0
  6 13  1  0  0  0  0
  7  6  1  0  0  0  0
  8  7  1  0  0  0  0
  8 27  1  0  0  0  0
  9 28  1  0  0  0  0
  9  8  2  0  0  0  0
 10 11  2  0  0  0  0
 10  9  1  0  0  0  0
 11 12  1  0  0  0  0
 12  7  2  0  0  0  0
 13 18  2  0  0  0  0
 13 14  1  0  0  0  0
 14 15  2  0  0  0  0
 15 16  1  0  0  0  0
 15 33  1  0  0  0  0
 16 34  1  0  0  0  0
 17 35  1  0  0  0  0
 17 16  2  0  0  0  0
 18 17  1  0  0  0  0
 19 24  1  0  0  0  0
 20 21  1  0  0  0  0
 20 19  2  0  0  0  0
 21 22  2  0  0  0  0
 22 25  1  0  0  0  0
 22 23  1  0  0  0  0
 23 39  1  0  0  0  0
 24 23  2  0  0  0  0
 24 40  1  0  0  0  0
 25 43  1  0  0  0  0
 26  4  1  0  0  0  0
 29 10  1  0  0  0  0
 30 11  1  0  0  0  0
 31 12  1  0  0  0  0
 32 14  1  0  0  0  0
 36 18  1  0  0  0  0
 37 20  1  0  0  0  0
 38 21  1  0  0  0  0
 41 25  1  0  0  0  0
 42 25  1  0  0  0  0
M  END
