2,12
q = -1.0, confidence = 0.0

 21 21  0  0  1  0  0  0  0  0999 V2000
   -2.3005   -0.0002   -1.6517 P   0  0  0  0  0  2  0  0  0  0  0  0
   -2.1732    1.2803   -0.3677 C   0  0  2  0  0  3  0  0  0  0  0  0
   -2.1370    0.7226    0.9428 C   0  0  0  0  0  0  0  0  0  0  0  0
   -2.3506    2.7478   -0.6567 C   0  0  0  0  0  0  0  0  0  0  0  0
   -3.3988    3.0617   -0.4592 H   0  0  0  0  0  0  0  0  0  0  0  0
   -2.1274    2.9854   -1.7145 H   0  0  0  0  0  0  0  0  0  0  0  0
   -1.6911    3.3815   -0.0293 H   0  0  0  0  0  0  0  0  0  0  0  0
   -2.2031    1.5627    2.1894 C   0  0  0  0  0  0  0  0  0  0  0  0
   -1.6870    2.5329    2.0542 H   0  0  0  0  0  0  0  0  0  0  0  0
   -1.7455    1.0553    3.0590 H   0  0  0  0  0  0  0  0  0  0  0  0
   -3.2612    1.7912    2.4435 H   0  0  0  0  0  0  0  0  0  0  0  0
   -2.1732   -1.2805   -0.3675 C   0  0  1  0  0  3  0  0  0  0  0  0
   -2.1369   -0.7226    0.9430 C   0  0  0  0  0  0  0  0  0  0  0  0
   -2.2030   -1.5624    2.1896 C   0  0  0  0  0  0  0  0  0  0  0  0
   -1.6868   -2.5326    2.0547 H   0  0  0  0  0  0  0  0  0  0  0  0
   -1.7457   -1.0548    3.0592 H   0  0  0  0  0  0  0  0  0  0  0  0
   -3.2611   -1.7911    2.4436 H   0  0  0  0  0  0  0  0  0  0  0  0
   -2.3505   -2.7480   -0.6563 C   0  0  0  0  0  0  0  0  0  0  0  0
   -3.3987   -3.0618   -0.4586 H   0  0  0  0  0  0  0  0  0  0  0  0
   -2.1274   -2.9857   -1.7140 H   0  0  0  0  0  0  0  0  0  0  0  0
   -1.6909   -3.3816   -0.0288 H   0  0  0  0  0  0  0  0  0  0  0  0
  1  2  1  0  0  0  0
  1 12  1  0  0  0  0
  2  4  1  1  0  0  0
  2  3  1  0  0  0  0
  3 13  2  0  0  0  0
  3  8  1  0  0  0  0
  4  5  1  0  0  0  0
  4  7  1  0  0  0  0
  6  4  1  0  0  0  0
  8 11  1  0  0  0  0
  8 10  1  0  0  0  0
  9  8  1  0  0  0  0
 12 18  1  1  0  0  0
 12 13  1  0  0  0  0
 13 14  1  0  0  0  0
 14 17  1  0  0  0  0
 14 16  1  0  0  0  0
 15 14  1  0  0  0  0
 18 19  1  0  0  0  0
 18 21  1  0  0  0  0
 20 18  1  0  0  0  0
M  END
