2,5
q = -1.0

 58 58  0  0  1  0  0  0  0  0999 V2000
    1.1657   -0.6327   -0.7644 C   0  0  1  0  0  3  0  0  0  0  0  0
    0.7273    0.7268   -0.4510 C   0  0  2  0  0  3  0  0  0  0  0  0
   -0.7383    0.7536   -0.4691 C   0  0  0  0  0  0  0  0  0  0  0  0
   -1.2098   -0.6063   -0.7520 C   0  0  0  0  0  0  0  0  0  0  0  0
   -0.0342   -1.4035   -0.9380 C   0  0  0  0  0  3  0  0  0  0  0  0
    2.8343   -1.5305   -0.9898 Si  0  0  0  0  0  0  0  0  0  0  0  0
    3.8414   -0.7065   -2.3690 C   0  0  0  0  0  0  0  0  0  0  0  0
    2.4121   -3.2807   -1.5876 C   0  0  0  0  0  0  0  0  0  0  0  0
    3.8079   -1.7559    0.6150 C   0  0  0  0  0  0  0  0  0  0  0  0
    1.9275    2.2068   -0.2237 Si  0  0  0  0  0  0  0  0  0  0  0  0
    2.2039    2.9586   -1.9427 C   0  0  0  0  0  0  0  0  0  0  0  0
    3.6417    1.7364    0.4301 C   0  0  0  0  0  0  0  0  0  0  0  0
    1.3305    3.4631    1.0633 C   0  0  0  0  0  0  0  0  0  0  0  0
   -1.8812    2.2923   -0.3483 Si  0  0  0  0  0  0  0  0  0  0  0  0
   -3.5532    1.9833   -1.1847 C   0  0  0  0  0  0  0  0  0  0  0  0
   -2.2044    2.8163    1.4397 C   0  0  0  0  0  0  0  0  0  0  0  0
   -1.2143    3.7333   -1.3919 C   0  0  0  0  0  0  0  0  0  0  0  0
   -2.8816   -1.5232   -0.8810 Si  0  0  0  0  0  0  0  0  0  0  0  0
   -3.6450   -1.2618   -2.5964 C   0  0  0  0  0  0  0  0  0  0  0  0
   -2.4961   -3.3770   -0.7574 C   0  0  0  0  0  0  0  0  0  0  0  0
   -4.1091   -1.1483    0.5118 C   0  0  0  0  0  0  0  0  0  0  0  0
   -0.0479   -2.4754   -1.1642 H   0  0  0  0  0  0  0  0  0  0  0  0
    3.2419   -0.6751   -3.3021 H   0  0  0  0  0  0  0  0  0  0  0  0
    4.1571    0.3286   -2.1375 H   0  0  0  0  0  0  0  0  0  0  0  0
    4.7556   -1.3011   -2.5745 H   0  0  0  0  0  0  0  0  0  0  0  0
    1.8315   -3.2795   -2.5324 H   0  0  0  0  0  0  0  0  0  0  0  0
    3.3537   -3.8379   -1.7729 H   0  0  0  0  0  0  0  0  0  0  0  0
    1.8403   -3.8450   -0.8227 H   0  0  0  0  0  0  0  0  0  0  0  0
    3.2397   -2.4288    1.2889 H   0  0  0  0  0  0  0  0  0  0  0  0
    4.7813   -2.2414    0.3939 H   0  0  0  0  0  0  0  0  0  0  0  0
    4.0068   -0.8176    1.1619 H   0  0  0  0  0  0  0  0  0  0  0  0
    2.7261    2.2211   -2.5862 H   0  0  0  0  0  0  0  0  0  0  0  0
    1.2656    3.2444   -2.4525 H   0  0  0  0  0  0  0  0  0  0  0  0
    2.8478    3.8595   -1.8701 H   0  0  0  0  0  0  0  0  0  0  0  0
    4.2030    1.0244   -0.2001 H   0  0  0  0  0  0  0  0  0  0  0  0
    4.2263    2.6804    0.4574 H   0  0  0  0  0  0  0  0  0  0  0  0
    3.5973    1.3442    1.4636 H   0  0  0  0  0  0  0  0  0  0  0  0
    1.2993    2.9777    2.0597 H   0  0  0  0  0  0  0  0  0  0  0  0
    2.0843    4.2765    1.1160 H   0  0  0  0  0  0  0  0  0  0  0  0
    0.3484    3.9289    0.8759 H   0  0  0  0  0  0  0  0  0  0  0  0
   -3.4226    1.7694   -2.2640 H   0  0  0  0  0  0  0  0  0  0  0  0
   -4.1662    1.1812   -0.7381 H   0  0  0  0  0  0  0  0  0  0  0  0
   -4.1328    2.9267   -1.1026 H   0  0  0  0  0  0  0  0  0  0  0  0
   -2.6923    3.8127    1.4602 H   0  0  0  0  0  0  0  0  0  0  0  0
   -2.8795    2.0940    1.9393 H   0  0  0  0  0  0  0  0  0  0  0  0
   -1.2767    2.8700    2.0399 H   0  0  0  0  0  0  0  0  0  0  0  0
   -1.0877    3.4081   -2.4451 H   0  0  0  0  0  0  0  0  0  0  0  0
   -1.9869    4.5306   -1.3849 H   0  0  0  0  0  0  0  0  0  0  0  0
   -0.2656    4.1858   -1.0560 H   0  0  0  0  0  0  0  0  0  0  0  0
   -4.0238   -0.2365   -2.7628 H   0  0  0  0  0  0  0  0  0  0  0  0
   -2.8956   -1.4837   -3.3838 H   0  0  0  0  0  0  0  0  0  0  0  0
   -4.4933   -1.9650   -2.7313 H   0  0  0  0  0  0  0  0  0  0  0  0
   -1.9424   -3.6300    0.1688 H   0  0  0  0  0  0  0  0  0  0  0  0
   -3.4549   -3.9360   -0.7387 H   0  0  0  0  0  0  0  0  0  0  0  0
   -1.9160   -3.7515   -1.6252 H   0  0  0  0  0  0  0  0  0  0  0  0
   -3.8482   -1.7429    1.4093 H   0  0  0  0  0  0  0  0  0  0  0  0
   -4.1479   -0.0889    0.8251 H   0  0  0  0  0  0  0  0  0  0  0  0
   -5.1280   -1.4482    0.1899 H   0  0  0  0  0  0  0  0  0  0  0  0
  1  6  1  6  0  0  0
  1  2  1  0  0  0  0
  2 10  1  6  0  0  0
  3  2  1  0  0  0  0
  3 14  1  0  0  0  0
  4  3  2  0  0  0  0
  5  1  1  0  0  0  0
  5  4  1  0  0  0  0
  6  9  1  0  0  0  0
  7 24  1  0  0  0  0
  7  6  1  0  0  0  0
  8  6  1  0  0  0  0
  8 28  1  0  0  0  0
  9 31  1  0  0  0  0
  9 29  1  0  0  0  0
 10 12  1  0  0  0  0
 10 13  1  0  0  0  0
 11 34  1  0  0  0  0
 11 10  1  0  0  0  0
 12 36  1  0  0  0  0
 12 37  1  0  0  0  0
 13 39  1  0  0  0  0
 13 38  1  0  0  0  0
 14 16  1  0  0  0  0
 15 43  1  0  0  0  0
 15 42  1  0  0  0  0
 15 14  1  0  0  0  0
 16 44  1  0  0  0  0
 16 45  1  0  0  0  0
 16 46  1  0  0  0  0
 17 48  1  0  0  0  0
 17 49  1  0  0  0  0
 17 14  1  0  0  0  0
 18 20  1  0  0  0  0
 18  4  1  0  0  0  0
 18 21  1  0  0  0  0
 19 18  1  0  0  0  0
 20 54  1  0  0  0  0
 20 53  1  0  0  0  0
 21 57  1  0  0  0  0
 21 56  1  0  0  0  0
 22  5  1  0  0  0  0
 23  7  1  0  0  0  0
 25  7  1  0  0  0  0
 26  8  1  0  0  0  0
 27  8  1  0  0  0  0
 30  9  1  0  0  0  0
 32 11  1  0  0  0  0
 33 11  1  0  0  0  0
 35 12  1  0  0  0  0
 40 13  1  0  0  0  0
 41 15  1  0  0  0  0
 47 17  1  0  0  0  0
 50 19  1  0  0  0  0
 51 19  1  0  0  0  0
 52 19  1  0  0  0  0
 55 20  1  0  0  0  0
 58 21  1  0  0  0  0
M  END
