4,6
q = 0.0, confidence = 0.976

 31 30  0  0  0  0  0  0  0  0999 V2000
    2.7616   -2.8023    1.1435 C   0  0  0  0  0  0  0  0  0  0  0  0
    2.5471   -1.9635   -0.1013 C   0  0  0  0  0  0  0  0  0  0  0  0
    1.1757   -1.4030   -0.2889 C   0  0  0  0  0  3  0  0  0  0  0  0
    0.8434   -0.7659   -1.5326 C   0  0  0  0  0  3  0  0  0  0  0  0
   -0.3618   -0.0110   -1.5653 C   0  0  0  0  0  3  0  0  0  0  0  0
   -1.0122    0.1594   -0.3120 C   0  0  0  0  0  3  0  0  0  0  0  0
   -2.1766    0.0880    0.3502 C   0  0  0  0  0  0  0  0  0  0  0  0
   -3.4252   -0.6032   -0.2466 C   0  0  0  0  0  0  0  0  0  0  0  0
   -3.9849   -1.6136    0.7795 C   0  0  0  0  0  0  0  0  0  0  0  0
   -4.4937    0.4729   -0.5480 C   0  0  0  0  0  0  0  0  0  0  0  0
   -3.1121   -1.3593   -1.5476 C   0  0  0  0  0  0  0  0  0  0  0  0
   -2.3091    0.6608    1.7430 C   0  0  0  0  0  0  0  0  0  0  0  0
    3.4456   -1.7462   -0.9099 O   0  0  0  0  0  0  0  0  0  0  0  0
    2.4736   -2.2268    2.0479 H   0  0  0  0  0  0  0  0  0  0  0  0
    3.8197   -3.1117    1.2126 H   0  0  0  0  0  0  0  0  0  0  0  0
    2.1107   -3.7015    1.1184 H   0  0  0  0  0  0  0  0  0  0  0  0
    0.3619   -1.8341    0.3169 H   0  0  0  0  0  0  0  0  0  0  0  0
    1.5489   -0.7931   -2.3771 H   0  0  0  0  0  0  0  0  0  0  0  0
   -0.6407    0.5552   -2.4709 H   0  0  0  0  0  0  0  0  0  0  0  0
   -4.2991   -1.1239    1.7218 H   0  0  0  0  0  0  0  0  0  0  0  0
   -3.2292   -2.3863    1.0294 H   0  0  0  0  0  0  0  0  0  0  0  0
   -4.8735   -2.1290    0.3606 H   0  0  0  0  0  0  0  0  0  0  0  0
   -4.7919    1.0310    0.3618 H   0  0  0  0  0  0  0  0  0  0  0  0
   -5.4083    0.0009   -0.9631 H   0  0  0  0  0  0  0  0  0  0  0  0
   -4.1179    1.2061   -1.2898 H   0  0  0  0  0  0  0  0  0  0  0  0
   -2.7872   -0.6757   -2.3555 H   0  0  0  0  0  0  0  0  0  0  0  0
   -4.0207   -1.8849   -1.9051 H   0  0  0  0  0  0  0  0  0  0  0  0
   -2.3151   -2.1145   -1.3977 H   0  0  0  0  0  0  0  0  0  0  0  0
   -3.2980    1.1374    1.8969 H   0  0  0  0  0  0  0  0  0  0  0  0
   -1.5320    1.4202    1.9418 H   0  0  0  0  0  0  0  0  0  0  0  0
   -2.2118   -0.1298    2.5175 H   0  0  0  0  0  0  0  0  0  0  0  0
  1 15  1  0  0  0  0
  1 14  1  0  0  0  0
  2  1  1  0  0  0  0
  3  2  1  0  0  0  0
  3 17  1  0  0  0  0
  4  3  1  0  0  0  0
  5  4  1  0  0  0  0
  5  6  1  0  0  0  0
  6  7  2  0  0  0  0
  7 12  1  0  0  0  0
  8  7  1  0  0  0  0
  8  9  1  0  0  0  0
  9 21  1  0  0  0  0
  9 20  1  0  0  0  0
 10  8  1  0  0  0  0
 10 23  1  0  0  0  0
 11 28  1  0  0  0  0
 11  8  1  0  0  0  0
 12 29  1  0  0  0  0
 12 30  1  0  0  0  0
 12 31  1  0  0  0  0
 13  2  2  0  0  0  0
 16  1  1  0  0  0  0
 18  4  1  0  0  0  0
 19  5  1  0  0  0  0
 22  9  1  0  0  0  0
 24 10  1  0  0  0  0
 25 10  1  0  0  0  0
 26 11  1  0  0  0  0
 27 11  1  0  0  0  0
M  END
