2,4
q = -1.0

 15 14  0  0  0  0  0  0  0  0999 V2000
    0.2588    0.4027   -2.6221 C   0  0  0  0  0  3  0  0  0  0  0  0
   -0.9133    1.1542   -2.3418 C   0  0  0  0  0  3  0  0  0  0  0  0
   -0.9737    2.3487   -1.5496 C   0  0  0  0  0  3  0  0  0  0  0  0
    0.1288    2.8460   -0.7978 C   0  0  0  0  0  3  0  0  0  0  0  0
    1.4626    2.3534   -0.9090 C   0  0  0  0  0  3  0  0  0  0  0  0
    2.5014    2.9121    0.0357 C   0  0  0  0  0  0  0  0  0  0  0  0
    1.1940    0.8723   -2.9581 H   0  0  0  0  0  0  0  0  0  0  0  0
    0.0720   -0.5706   -3.1048 H   0  0  0  0  0  0  0  0  0  0  0  0
   -1.8947    0.7261   -2.6165 H   0  0  0  0  0  0  0  0  0  0  0  0
   -1.9665    2.7850   -1.3595 H   0  0  0  0  0  0  0  0  0  0  0  0
   -0.1136    3.5791   -0.0059 H   0  0  0  0  0  0  0  0  0  0  0  0
    1.8576    2.1638   -1.9195 H   0  0  0  0  0  0  0  0  0  0  0  0
    3.4300    2.3061    0.0414 H   0  0  0  0  0  0  0  0  0  0  0  0
    2.1250    2.9698    1.0774 H   0  0  0  0  0  0  0  0  0  0  0  0
    2.8047    3.9415   -0.2638 H   0  0  0  0  0  0  0  0  0  0  0  0
  1  2  1  0  0  0  0
  2  3  1  0  0  0  0
  3 10  1  0  0  0  0
  3  4  1  0  0  0  0
  4 11  1  0  0  0  0
  5  4  1  0  0  0  0
  5  6  1  0  0  0  0
  6 13  1  0  0  0  0
  6 14  1  0  0  0  0
  7  1  1  0  0  0  0
  8  1  1  0  0  0  0
  9  2  1  0  0  0  0
 12  5  1  0  0  0  0
 15  6  1  0  0  0  0
M  END
