2,4
q = -1.0

 30 31  0  0  1  0  0  0  0  0999 V2000
   -0.3259    0.6806    0.9000 C   0  0  0  0  0  3  0  0  0  0  0  0
   -1.5228    1.2337    1.4461 C   0  0  0  0  0  3  0  0  0  0  0  0
   -2.6660    1.7175    0.7271 C   0  0  0  0  0  3  0  0  0  0  0  0
   -2.7546    1.6420   -0.6972 C   0  0  0  0  0  3  0  0  0  0  0  0
   -1.6146    1.3287   -1.4823 C   0  0  0  0  0  3  0  0  0  0  0  0
   -0.2741    1.9989   -1.2174 C   0  0  0  0  0  0  0  0  0  0  0  0
    0.5744    1.2409   -0.1923 C   0  0  1  0  0  0  0  0  0  0  0  0
    1.6600    2.0855    0.4258 C   0  0  0  0  0  0  0  0  0  0  0  0
    2.9628    1.7612    0.6241 C   0  0  0  0  0  0  0  0  0  0  0  0
    3.6826    0.5156    0.3087 C   0  0  0  0  0  0  0  0  0  0  0  0
    3.0831   -0.7685    0.2885 C   0  0  0  0  0  0  0  0  0  0  0  0
    3.8282   -1.9075   -0.0449 C   0  0  0  0  0  0  0  0  0  0  0  0
    5.1935   -1.7998   -0.3527 C   0  0  0  0  0  0  0  0  0  0  0  0
    5.8133   -0.5402   -0.3082 C   0  0  0  0  0  0  0  0  0  0  0  0
    5.0689    0.5974    0.0255 C   0  0  0  0  0  0  0  0  0  0  0  0
    0.2391    0.0941    1.6458 H   0  0  0  0  0  0  0  0  0  0  0  0
   -1.6944    1.0820    2.5257 H   0  0  0  0  0  0  0  0  0  0  0  0
   -3.5617    1.9814    1.3084 H   0  0  0  0  0  0  0  0  0  0  0  0
   -3.7545    1.7373   -1.1514 H   0  0  0  0  0  0  0  0  0  0  0  0
   -1.8211    1.0517   -2.5283 H   0  0  0  0  0  0  0  0  0  0  0  0
   -0.4588    3.0285   -0.8409 H   0  0  0  0  0  0  0  0  0  0  0  0
    0.2904    2.1094   -2.1638 H   0  0  0  0  0  0  0  0  0  0  0  0
    1.0469    0.3836   -0.7100 H   0  0  0  0  0  0  0  0  0  0  0  0
    1.3371    3.0933    0.7452 H   0  0  0  0  0  0  0  0  0  0  0  0
    3.6048    2.5572    1.0413 H   0  0  0  0  0  0  0  0  0  0  0  0
    2.0281   -0.8921    0.5653 H   0  0  0  0  0  0  0  0  0  0  0  0
    3.3338   -2.8907   -0.0560 H   0  0  0  0  0  0  0  0  0  0  0  0
    5.7759   -2.6964   -0.6134 H   0  0  0  0  0  0  0  0  0  0  0  0
    6.8866   -0.4446   -0.5330 H   0  0  0  0  0  0  0  0  0  0  0  0
    5.5607    1.5825    0.0583 H   0  0  0  0  0  0  0  0  0  0  0  0
  1  2  1  0  0  0  0
  1 16  1  0  0  0  0
  2 17  1  0  0  0  0
  3 18  1  0  0  0  0
  3  2  1  0  0  0  0
  4  3  1  0  0  0  0
  5  6  1  0  0  0  0
  5  4  1  0  0  0  0
  6 21  1  0  0  0  0
  6  7  1  0  0  0  0
  7 23  1  6  0  0  0
  7  8  1  0  0  0  0
  7  1  1  0  0  0  0
  8  9  2  0  0  0  0
  8 24  1  0  0  0  0
  9 25  1  0  0  0  0
 10  9  1  0  0  0  0
 11 10  1  0  0  0  0
 11 26  1  0  0  0  0
 12 11  2  0  0  0  0
 13 14  2  0  0  0  0
 13 12  1  0  0  0  0
 14 15  1  0  0  0  0
 15 30  1  0  0  0  0
 15 10  2  0  0  0  0
 19  4  1  0  0  0  0
 20  5  1  0  0  0  0
 22  6  1  0  0  0  0
 27 12  1  0  0  0  0
 28 13  1  0  0  0  0
 29 14  1  0  0  0  0
M  END
