4,6
q = 0.0, confidence = 0.524

 48 53  0  0  1  0  0  0  0  0999 V2000
   -0.0001   -2.7314   -1.6699 O   0  0  0  0  0  0  0  0  0  0  0  0
   -0.7259    0.5475   -0.5151 C   0  0  0  0  0  0  0  0  0  0  0  0
    0.7258    0.5475   -0.5151 C   0  0  0  0  0  0  0  0  0  0  0  0
    1.1783   -0.8382   -0.6169 C   0  0  1  0  0  3  0  0  0  0  0  0
   -0.0001   -1.6461   -1.1152 C   0  0  0  0  0  0  0  0  0  0  0  0
   -1.1784   -0.8381   -0.6169 C   0  0  2  0  0  3  0  0  0  0  0  0
   -1.4717    1.8023   -0.4851 C   0  0  0  0  0  0  0  0  0  0  0  0
   -2.8867    1.8241   -0.4859 C   0  0  0  0  0  0  0  0  0  0  0  0
   -3.4362    0.8748   -0.4954 H   0  0  0  0  0  0  0  0  0  0  0  0
   -3.5846    3.0307   -0.4674 C   0  0  0  0  0  0  0  0  0  0  0  0
   -4.6847    3.0280   -0.4654 H   0  0  0  0  0  0  0  0  0  0  0  0
   -2.8741    4.2455   -0.4486 C   0  0  0  0  0  0  0  0  0  0  0  0
   -3.4143    5.2039   -0.4318 H   0  0  0  0  0  0  0  0  0  0  0  0
   -1.4794    4.2390   -0.4495 C   0  0  0  0  0  0  0  0  0  0  0  0
   -0.9535    5.2025   -0.4337 H   0  0  0  0  0  0  0  0  0  0  0  0
   -0.7371    3.0316   -0.4688 C   0  0  0  0  0  0  0  0  0  0  0  0
    0.7372    3.0316   -0.4688 C   0  0  0  0  0  0  0  0  0  0  0  0
    1.4796    4.2389   -0.4492 C   0  0  0  0  0  0  0  0  0  0  0  0
    0.9537    5.2025   -0.4334 H   0  0  0  0  0  0  0  0  0  0  0  0
    2.8742    4.2453   -0.4481 C   0  0  0  0  0  0  0  0  0  0  0  0
    3.4144    5.2038   -0.4313 H   0  0  0  0  0  0  0  0  0  0  0  0
    3.5847    3.0306   -0.4670 C   0  0  0  0  0  0  0  0  0  0  0  0
    4.6848    3.0278   -0.4648 H   0  0  0  0  0  0  0  0  0  0  0  0
    2.8868    1.8240   -0.4856 C   0  0  0  0  0  0  0  0  0  0  0  0
    3.4362    0.8747   -0.4951 H   0  0  0  0  0  0  0  0  0  0  0  0
    1.4718    1.8022   -0.4850 C   0  0  0  0  0  0  0  0  0  0  0  0
    2.5589   -1.3350   -0.8384 C   0  0  0  0  0  0  0  0  0  0  0  0
    3.0276   -1.4239   -2.1682 C   0  0  0  0  0  0  0  0  0  0  0  0
    2.3651   -1.1201   -2.9921 H   0  0  0  0  0  0  0  0  0  0  0  0
    4.3210   -1.8902   -2.4392 C   0  0  0  0  0  0  0  0  0  0  0  0
    4.6715   -1.9502   -3.4808 H   0  0  0  0  0  0  0  0  0  0  0  0
    5.1644   -2.2849   -1.3882 C   0  0  0  0  0  0  0  0  0  0  0  0
    6.1799   -2.6515   -1.6015 H   0  0  0  0  0  0  0  0  0  0  0  0
    4.7001   -2.2227   -0.0653 C   0  0  0  0  0  0  0  0  0  0  0  0
    5.3477   -2.5450    0.7641 H   0  0  0  0  0  0  0  0  0  0  0  0
    3.4046   -1.7585    0.2061 C   0  0  0  0  0  0  0  0  0  0  0  0
    3.0351   -1.7250    1.2410 H   0  0  0  0  0  0  0  0  0  0  0  0
   -2.5590   -1.3349   -0.8383 C   0  0  0  0  0  0  0  0  0  0  0  0
   -3.0275   -1.4245   -2.1681 C   0  0  0  0  0  0  0  0  0  0  0  0
   -2.3648   -1.1213   -2.9921 H   0  0  0  0  0  0  0  0  0  0  0  0
   -4.3209   -1.8908   -2.4390 C   0  0  0  0  0  0  0  0  0  0  0  0
   -4.6712   -1.9513   -3.4806 H   0  0  0  0  0  0  0  0  0  0  0  0
   -5.1645   -2.2848   -1.3880 C   0  0  0  0  0  0  0  0  0  0  0  0
   -6.1800   -2.6514   -1.6013 H   0  0  0  0  0  0  0  0  0  0  0  0
   -4.7005   -2.2220   -0.0650 C   0  0  0  0  0  0  0  0  0  0  0  0
   -5.3482   -2.5437    0.7644 H   0  0  0  0  0  0  0  0  0  0  0  0
   -3.4049   -1.7578    0.2063 C   0  0  0  0  0  0  0  0  0  0  0  0
   -3.0356   -1.7238    1.2412 H   0  0  0  0  0  0  0  0  0  0  0  0
  1  5  2  0  0  0  0
  2  3  2  0  0  0  0
  2  7  1  0  0  0  0
  3 26  1  0  0  0  0
  4 27  1  6  0  0  0
  4  3  1  0  0  0  0
  5  4  1  0  0  0  0
  5  6  1  0  0  0  0
  6 38  1  6  0  0  0
  6  2  1  0  0  0  0
  7 16  1  0  0  0  0
  8  7  2  0  0  0  0
  8 10  1  0  0  0  0
  9  8  1  0  0  0  0
 10 11  1  0  0  0  0
 10 12  2  0  0  0  0
 12 13  1  0  0  0  0
 14 12  1  0  0  0  0
 14 15  1  0  0  0  0
 16 17  1  0  0  0  0
 16 14  2  0  0  0  0
 17 18  1  0  0  0  0
 18 20  2  0  0  0  0
 18 19  1  0  0  0  0
 20 21  1  0  0  0  0
 22 23  1  0  0  0  0
 22 20  1  0  0  0  0
 24 26  1  0  0  0  0
 24 22  2  0  0  0  0
 25 24  1  0  0  0  0
 26 17  2  0  0  0  0
 27 36  1  0  0  0  0
 28 27  2  0  0  0  0
 29 28  1  0  0  0  0
 30 28  1  0  0  0  0
 30 32  2  0  0  0  0
 31 30  1  0  0  0  0
 32 34  1  0  0  0  0
 33 32  1  0  0  0  0
 34 36  2  0  0  0  0
 34 35  1  0  0  0  0
 36 37  1  0  0  0  0
 38 47  1  0  0  0  0
 39 38  2  0  0  0  0
 40 39  1  0  0  0  0
 41 39  1  0  0  0  0
 41 43  2  0  0  0  0
 42 41  1  0  0  0  0
 43 45  1  0  0  0  0
 44 43  1  0  0  0  0
 45 47  2  0  0  0  0
 45 46  1  0  0  0  0
 47 48  1  0  0  0  0
M  END
