7,9
q = -1.0

 55 57  0  0  0  0  0  0  0  0999 V2000
   -7.1303    1.0404    0.5563 O   0  0  0  0  0  0  0  0  0  0  0  0
    2.1544    1.6875    2.2826 O   0  0  0  0  0  0  0  0  0  0  0  0
   -0.5036    4.5725   -0.4554 O   0  0  0  0  0  0  0  0  0  0  0  0
    0.2343    2.5943   -1.3146 O   0  0  0  0  0  0  0  0  0  0  0  0
   -1.5545    1.1713    0.8500 N   0  0  0  0  0  0  0  0  0  0  0  0
   -1.2211    2.0914    1.1860 H   0  0  0  0  0  0  0  0  0  0  0  0
    1.4967   -0.4962    0.3463 C   0  0  0  0  0  2  0  0  0  0  0  0
    0.7893    0.6507    0.6941 C   0  0  0  0  0  0  0  0  0  0  0  0
   -0.6058    0.3068    0.5072 C   0  0  0  0  0  3  0  0  0  0  0  0
    1.2906    1.9165    1.2717 C   0  0  0  0  0  0  0  0  0  0  0  0
    0.8808    3.1757    0.8905 C   0  0  0  0  0  0  0  0  0  0  0  0
    1.1449    4.0517    1.4983 H   0  0  0  0  0  0  0  0  0  0  0  0
    2.9351   -0.7032    0.4001 C   0  0  0  0  0  0  0  0  0  0  0  0
    3.4068   -1.9004    0.9579 C   0  0  0  0  0  0  0  0  0  0  0  0
    2.6724   -2.6624    1.2572 H   0  0  0  0  0  0  0  0  0  0  0  0
    4.7841   -2.1156    1.1940 C   0  0  0  0  0  0  0  0  0  0  0  0
    5.1121   -3.0530    1.6678 H   0  0  0  0  0  0  0  0  0  0  0  0
    5.7133   -1.1508    0.8338 C   0  0  0  0  0  0  0  0  0  0  0  0
    6.7872   -1.3087    1.0194 H   0  0  0  0  0  0  0  0  0  0  0  0
    5.2990    0.0529    0.1912 C   0  0  0  0  0  0  0  0  0  0  0  0
    6.2465    1.0320   -0.2311 C   0  0  0  0  0  0  0  0  0  0  0  0
    7.3142    0.8488   -0.0326 H   0  0  0  0  0  0  0  0  0  0  0  0
    5.8403    2.1820   -0.8912 C   0  0  0  0  0  0  0  0  0  0  0  0
    6.5835    2.9273   -1.2130 H   0  0  0  0  0  0  0  0  0  0  0  0
    4.4650    2.3828   -1.1779 C   0  0  0  0  0  0  0  0  0  0  0  0
    4.1457    3.2768   -1.7350 H   0  0  0  0  0  0  0  0  0  0  0  0
    3.5157    1.4513   -0.7759 C   0  0  0  0  0  0  0  0  0  0  0  0
    2.4605    1.6090   -1.0382 H   0  0  0  0  0  0  0  0  0  0  0  0
    3.8948    0.2824   -0.0541 C   0  0  0  0  0  0  0  0  0  0  0  0
   -2.9628    1.0686    0.7939 C   0  0  0  0  0  0  0  0  0  0  0  0
   -3.7114    2.2664    0.7563 C   0  0  0  0  0  0  0  0  0  0  0  0
   -3.1882    3.2362    0.7661 H   0  0  0  0  0  0  0  0  0  0  0  0
   -5.1018    2.2233    0.6827 C   0  0  0  0  0  0  0  0  0  0  0  0
   -5.6992    3.1451    0.6440 H   0  0  0  0  0  0  0  0  0  0  0  0
   -5.7768    0.9812    0.6428 C   0  0  0  0  0  0  0  0  0  0  0  0
   -5.0285   -0.2141    0.7018 C   0  0  0  0  0  0  0  0  0  0  0  0
   -5.5203   -1.1954    0.6880 H   0  0  0  0  0  0  0  0  0  0  0  0
   -3.6316   -0.1642    0.7863 C   0  0  0  0  0  0  0  0  0  0  0  0
   -3.0501   -1.0897    0.8598 H   0  0  0  0  0  0  0  0  0  0  0  0
   -7.8565   -0.1750    0.5056 C   0  0  0  0  0  0  0  0  0  0  0  0
   -7.7084   -0.7841    1.4252 H   0  0  0  0  0  0  0  0  0  0  0  0
   -7.5739   -0.7887   -0.3786 H   0  0  0  0  0  0  0  0  0  0  0  0
   -8.9237    0.1022    0.4260 H   0  0  0  0  0  0  0  0  0  0  0  0
    2.8996    2.7789    2.8100 C   0  0  0  0  0  0  0  0  0  0  0  0
    3.4047    3.3383    1.9935 H   0  0  0  0  0  0  0  0  0  0  0  0
    3.6540    2.3371    3.4858 H   0  0  0  0  0  0  0  0  0  0  0  0
    2.2524    3.4737    3.3879 H   0  0  0  0  0  0  0  0  0  0  0  0
    0.1257    3.5302   -0.3229 C   0  0  0  0  0  0  0  0  0  0  0  0
   -0.4743    2.8638   -2.5461 C   0  0  0  0  0  0  0  0  0  0  0  0
    0.0851    2.2917   -3.3106 H   0  0  0  0  0  0  0  0  0  0  0  0
   -0.4008    3.9484   -2.7641 H   0  0  0  0  0  0  0  0  0  0  0  0
   -1.9262    2.4209   -2.4809 C   0  0  0  0  0  0  0  0  0  0  0  0
   -2.0119    1.3506   -2.2086 H   0  0  0  0  0  0  0  0  0  0  0  0
   -2.4038    2.5616   -3.4715 H   0  0  0  0  0  0  0  0  0  0  0  0
   -2.4927    3.0191   -1.7423 H   0  0  0  0  0  0  0  0  0  0  0  0
  1 35  1  0  0  0  0
  2 44  1  0  0  0  0
  3 48  2  0  0  0  0
  4 48  1  0  0  0  0
  5  6  1  0  0  0  0
  7 13  1  0  0  0  0
  7  8  1  0  0  0  0
  8 10  1  0  0  0  0
  9  8  2  0  0  0  0
  9  5  1  0  0  0  0
 10  2  1  0  0  0  0
 11 10  2  0  0  0  0
 11 12  1  0  0  0  0
 13 14  1  0  0  0  0
 14 16  2  0  0  0  0
 14 15  1  0  0  0  0
 16 17  1  0  0  0  0
 18 19  1  0  0  0  0
 18 16  1  0  0  0  0
 20 18  2  0  0  0  0
 21 22  1  0  0  0  0
 21 20  1  0  0  0  0
 23 21  2  0  0  0  0
 24 23  1  0  0  0  0
 25 23  1  0  0  0  0
 25 27  2  0  0  0  0
 26 25  1  0  0  0  0
 27 29  1  0  0  0  0
 28 27  1  0  0  0  0
 29 20  1  0  0  0  0
 29 13  2  0  0  0  0
 30  5  1  0  0  0  0
 31 32  1  0  0  0  0
 31 30  2  0  0  0  0
 33 31  1  0  0  0  0
 34 33  1  0  0  0  0
 35 33  2  0  0  0  0
 35 36  1  0  0  0  0
 36 38  2  0  0  0  0
 37 36  1  0  0  0  0
 38 30  1  0  0  0  0
 38 39  1  0  0  0  0
 40  1  1  0  0  0  0
 40 41  1  0  0  0  0
 42 40  1  0  0  0  0
 43 40  1  0  0  0  0
 44 47  1  0  0  0  0
 44 46  1  0  0  0  0
 45 44  1  0  0  0  0
 48 11  1  0  0  0  0
 49 52  1  0  0  0  0
 49  4  1  0  0  0  0
 50 49  1  0  0  0  0
 51 49  1  0  0  0  0
 52 53  1  0  0  0  0
 52 55  1  0  0  0  0
 54 52  1  0  0  0  0
M  END
