5,10
q = -1.0

 43 44  0  0  0  0  0  0  0  0999 V2000
    2.4499    2.4804   -1.3937 O   0  0  0  0  0  0  0  0  0  0  0  0
    2.2239    3.1599    0.7586 O   0  0  0  0  0  0  0  0  0  0  0  0
   -0.4497    3.8680    0.0071 O   0  0  0  0  0  0  0  0  0  0  0  0
   -3.6942    0.4181    0.1799 O   0  0  0  0  0  0  0  0  0  0  0  0
    0.5363    0.4010   -0.3586 C   0  0  0  0  0  2  0  0  0  0  0  0
    0.5042    1.7771   -0.2281 C   0  0  0  0  0  0  0  0  0  0  0  0
   -0.7004    2.5477   -0.0113 C   0  0  0  0  0  0  0  0  0  0  0  0
   -2.0173    2.0723    0.1118 C   0  0  0  0  0  0  0  0  0  0  0  0
   -2.7971    2.8391    0.2035 H   0  0  0  0  0  0  0  0  0  0  0  0
   -2.3892    0.7163    0.0919 C   0  0  0  0  0  3  0  0  0  0  0  0
    1.8451   -0.2346   -0.6664 C   0  0  0  0  0  0  0  0  0  0  0  0
    2.0957   -0.7027   -1.9585 C   0  0  0  0  0  0  0  0  0  0  0  0
    1.3272   -0.5688   -2.7340 H   0  0  0  0  0  0  0  0  0  0  0  0
    3.3184   -1.3331   -2.2892 C   0  0  0  0  0  0  0  0  0  0  0  0
    3.4833   -1.6778   -3.3214 H   0  0  0  0  0  0  0  0  0  0  0  0
    4.2964   -1.5241   -1.3246 C   0  0  0  0  0  0  0  0  0  0  0  0
    5.2435   -2.0272   -1.5734 H   0  0  0  0  0  0  0  0  0  0  0  0
    4.0853   -1.0762    0.0105 C   0  0  0  0  0  0  0  0  0  0  0  0
    5.0687   -1.2659    1.0270 C   0  0  0  0  0  0  0  0  0  0  0  0
    6.0071   -1.7762    0.7585 H   0  0  0  0  0  0  0  0  0  0  0  0
    4.8535   -0.8257    2.3235 C   0  0  0  0  0  0  0  0  0  0  0  0
    5.6223   -0.9829    3.0954 H   0  0  0  0  0  0  0  0  0  0  0  0
    3.6397   -0.1688    2.6585 C   0  0  0  0  0  0  0  0  0  0  0  0
    3.4737    0.1851    3.6870 H   0  0  0  0  0  0  0  0  0  0  0  0
    2.6636    0.0356    1.6951 C   0  0  0  0  0  0  0  0  0  0  0  0
    1.7384    0.5641    1.9615 H   0  0  0  0  0  0  0  0  0  0  0  0
    2.8489   -0.4099    0.3519 C   0  0  0  0  0  0  0  0  0  0  0  0
    1.7951    2.5679   -0.2145 C   0  0  0  0  0  0  0  0  0  0  0  0
    3.7838    3.0046   -1.3905 C   0  0  0  0  0  0  0  0  0  0  0  0
    4.4148    2.4406   -0.6736 H   0  0  0  0  0  0  0  0  0  0  0  0
    3.7905    4.0740   -1.0994 H   0  0  0  0  0  0  0  0  0  0  0  0
    4.1648    2.8755   -2.4189 H   0  0  0  0  0  0  0  0  0  0  0  0
   -1.4794    4.8218    0.2243 C   0  0  0  0  0  0  0  0  0  0  0  0
   -0.9783    5.8062    0.2378 H   0  0  0  0  0  0  0  0  0  0  0  0
   -1.9877    4.6546    1.1975 H   0  0  0  0  0  0  0  0  0  0  0  0
   -2.2316    4.8031   -0.5933 H   0  0  0  0  0  0  0  0  0  0  0  0
   -4.7338    1.4175    0.2937 C   0  0  0  0  0  0  0  0  0  0  0  0
   -4.6856    2.0976   -0.5852 H   0  0  0  0  0  0  0  0  0  0  0  0
   -4.5561    2.0249    1.2085 H   0  0  0  0  0  0  0  0  0  0  0  0
   -6.0574    0.6832    0.3602 C   0  0  0  0  0  0  0  0  0  0  0  0
   -6.2198    0.0828   -0.5561 H   0  0  0  0  0  0  0  0  0  0  0  0
   -6.8910    1.4060    0.4586 H   0  0  0  0  0  0  0  0  0  0  0  0
   -6.0818   -0.0023    1.2296 H   0  0  0  0  0  0  0  0  0  0  0  0
  1 29  1  0  0  0  0
  1 28  1  0  0  0  0
  3 33  1  0  0  0  0
  4 37  1  0  0  0  0
  5  6  1  0  0  0  0
  6 28  1  0  0  0  0
  6  7  2  0  0  0  0
  7  3  1  0  0  0  0
  7  8  1  0  0  0  0
  8  9  1  0  0  0  0
 10  8  2  0  0  0  0
 10  4  1  0  0  0  0
 11  5  1  0  0  0  0
 11 27  1  0  0  0  0
 12 11  2  0  0  0  0
 13 12  1  0  0  0  0
 14 12  1  0  0  0  0
 14 16  2  0  0  0  0
 15 14  1  0  0  0  0
 16 18  1  0  0  0  0
 17 16  1  0  0  0  0
 18 27  2  0  0  0  0
 18 19  1  0  0  0  0
 19 21  2  0  0  0  0
 20 19  1  0  0  0  0
 21 23  1  0  0  0  0
 21 22  1  0  0  0  0
 23 24  1  0  0  0  0
 25 26  1  0  0  0  0
 25 23  2  0  0  0  0
 27 25  1  0  0  0  0
 28  2  2  0  0  0  0
 29 31  1  0  0  0  0
 29 30  1  0  0  0  0
 32 29  1  0  0  0  0
 33 34  1  0  0  0  0
 33 35  1  0  0  0  0
 36 33  1  0  0  0  0
 37 40  1  0  0  0  0
 37 39  1  0  0  0  0
 38 37  1  0  0  0  0
 40 42  1  0  0  0  0
 40 43  1  0  0  0  0
 41 40  1  0  0  0  0
M  END
