2,4
q = -1.0

 47 49  0  0  1  0  0  0  0  0999 V2000
    1.1039    0.0608   -0.2813 P   0  0  0  0  0  0  0  0  0  0  0  0
   -0.9765   -0.0825   -1.8216 C   0  0  1  0  0  3  0  0  0  0  0  0
   -1.5694   -1.3271   -1.3711 C   0  0  1  0  0  3  0  0  0  0  0  0
   -2.8283   -0.9868   -0.7327 C   0  0  1  0  0  3  0  0  0  0  0  0
   -3.0112    0.4486   -0.8168 C   0  0  0  0  0  0  0  0  0  0  0  0
   -1.8665    1.0114   -1.5164 C   0  0  0  0  0  0  0  0  0  0  0  0
   -1.0332   -2.7102   -1.5997 C   0  0  0  0  0  0  0  0  0  0  0  0
   -1.4171   -3.1368   -2.5523 H   0  0  0  0  0  0  0  0  0  0  0  0
   -1.3300   -3.3958   -0.7832 H   0  0  0  0  0  0  0  0  0  0  0  0
    0.0729   -2.7225   -1.6458 H   0  0  0  0  0  0  0  0  0  0  0  0
   -3.8346   -1.9742   -0.2212 C   0  0  0  0  0  0  0  0  0  0  0  0
   -4.4913   -2.3327   -1.0436 H   0  0  0  0  0  0  0  0  0  0  0  0
   -4.4825   -1.5263    0.5557 H   0  0  0  0  0  0  0  0  0  0  0  0
   -3.3427   -2.8596    0.2255 H   0  0  0  0  0  0  0  0  0  0  0  0
   -4.2436    1.2083   -0.4260 C   0  0  0  0  0  0  0  0  0  0  0  0
   -4.9546    1.2812   -1.2782 H   0  0  0  0  0  0  0  0  0  0  0  0
   -3.9993    2.2392   -0.1051 H   0  0  0  0  0  0  0  0  0  0  0  0
   -4.7732    0.7168    0.4118 H   0  0  0  0  0  0  0  0  0  0  0  0
   -1.7115    2.4481   -1.9188 C   0  0  0  0  0  0  0  0  0  0  0  0
   -2.3199    2.6727   -2.8219 H   0  0  0  0  0  0  0  0  0  0  0  0
   -0.6605    2.6988   -2.1574 H   0  0  0  0  0  0  0  0  0  0  0  0
   -2.0436    3.1359   -1.1169 H   0  0  0  0  0  0  0  0  0  0  0  0
    0.5139    0.0733   -2.0894 C   0  0  0  0  0  0  0  0  0  0  0  0
    0.7625    1.0364   -2.5730 H   0  0  0  0  0  0  0  0  0  0  0  0
    0.9418   -0.7483   -2.6952 H   0  0  0  0  0  0  0  0  0  0  0  0
    2.2154   -1.4019   -0.1564 C   0  0  0  0  0  0  0  0  0  0  0  0
    3.0953   -1.7534   -1.2028 C   0  0  0  0  0  0  0  0  0  0  0  0
    3.1414   -1.1415   -2.1173 H   0  0  0  0  0  0  0  0  0  0  0  0
    3.9231   -2.8797   -1.0826 C   0  0  0  0  0  0  0  0  0  0  0  0
    4.6038   -3.1490   -1.9047 H   0  0  0  0  0  0  0  0  0  0  0  0
    3.8818   -3.6607    0.0842 C   0  0  0  0  0  0  0  0  0  0  0  0
    4.5290   -4.5462    0.1765 H   0  0  0  0  0  0  0  0  0  0  0  0
    3.0099   -3.3139    1.1282 C   0  0  0  0  0  0  0  0  0  0  0  0
    2.9697   -3.9262    2.0417 H   0  0  0  0  0  0  0  0  0  0  0  0
    2.1753   -2.1919    1.0092 C   0  0  0  0  0  0  0  0  0  0  0  0
    1.4724   -1.9369    1.8154 H   0  0  0  0  0  0  0  0  0  0  0  0
    2.2276    1.5126   -0.1140 C   0  0  0  0  0  0  0  0  0  0  0  0
    3.6317    1.3967   -0.0643 C   0  0  0  0  0  0  0  0  0  0  0  0
    4.1067    0.4062   -0.1138 H   0  0  0  0  0  0  0  0  0  0  0  0
    4.4288    2.5455    0.0611 C   0  0  0  0  0  0  0  0  0  0  0  0
    5.5240    2.4437    0.1055 H   0  0  0  0  0  0  0  0  0  0  0  0
    3.8363    3.8153    0.1349 C   0  0  0  0  0  0  0  0  0  0  0  0
    4.4647    4.7133    0.2351 H   0  0  0  0  0  0  0  0  0  0  0  0
    2.4371    3.9342    0.0973 C   0  0  0  0  0  0  0  0  0  0  0  0
    1.9633    4.9245    0.1745 H   0  0  0  0  0  0  0  0  0  0  0  0
    1.6359    2.7899   -0.0150 C   0  0  0  0  0  0  0  0  0  0  0  0
    0.5393    2.8776   -0.0022 H   0  0  0  0  0  0  0  0  0  0  0  0
  1 26  1  0  0  0  0
  1 37  1  0  0  0  0
  2 23  1  1  0  0  0
  2  6  1  0  0  0  0
  2  3  1  0  0  0  0
  3  7  1  6  0  0  0
  3  4  1  0  0  0  0
  4 11  1  6  0  0  0
  5  4  1  0  0  0  0
  5 15  1  0  0  0  0
  6  5  2  0  0  0  0
  7  9  1  0  0  0  0
  8  7  1  0  0  0  0
 10  7  1  0  0  0  0
 11 14  1  0  0  0  0
 11 13  1  0  0  0  0
 12 11  1  0  0  0  0
 15 17  1  0  0  0  0
 15 18  1  0  0  0  0
 16 15  1  0  0  0  0
 19  6  1  0  0  0  0
 19 22  1  0  0  0  0
 20 19  1  0  0  0  0
 21 19  1  0  0  0  0
 23  1  1  0  0  0  0
 24 23  1  0  0  0  0
 25 23  1  0  0  0  0
 26 35  1  0  0  0  0
 27 29  1  0  0  0  0
 27 26  2  0  0  0  0
 28 27  1  0  0  0  0
 29 31  2  0  0  0  0
 30 29  1  0  0  0  0
 31 32  1  0  0  0  0
 31 33  1  0  0  0  0
 33 34  1  0  0  0  0
 35 33  2  0  0  0  0
 35 36  1  0  0  0  0
 37 38  2  0  0  0  0
 37 46  1  0  0  0  0
 38 40  1  0  0  0  0
 39 38  1  0  0  0  0
 40 41  1  0  0  0  0
 40 42  2  0  0  0  0
 42 43  1  0  0  0  0
 44 42  1  0  0  0  0
 44 45  1  0  0  0  0
 46 47  1  0  0  0  0
 46 44  2  0  0  0  0
M  END
