9,12
q = -2.0, confidence = 0.672

 46 48  0  0  1  0  0  0  0  0999 V2000
    0.7822    0.0848   -2.0257 C   0  0  0  0  0  3  0  0  0  0  0  0
   -0.2864    0.0510   -2.2473 H   0  0  0  0  0  0  0  0  0  0  0  0
    1.7021   -0.9552   -2.3618 C   0  0  0  0  0  0  0  0  0  0  0  0
    1.4411   -1.8953   -2.8590 H   0  0  0  0  0  0  0  0  0  0  0  0
    2.9686   -0.5942   -1.8628 C   0  0  0  0  0  0  0  0  0  0  0  0
    3.8776   -1.2032   -1.8977 H   0  0  0  0  0  0  0  0  0  0  0  0
    2.8417    0.6662   -1.2093 C   0  0  0  0  0  3  0  0  0  0  0  0
    3.6519    1.1816   -0.6820 H   0  0  0  0  0  0  0  0  0  0  0  0
    1.4862    1.1207   -1.3322 C   0  0  2  0  0  3  0  0  0  0  0  0
    0.8869    2.2082   -0.4297 C   0  0  2  0  0  0  0  0  0  0  0  0
    0.7600    1.3668    0.8351 C   0  0  2  0  0  3  0  0  0  0  0  0
    1.8203    0.8851    1.6669 C   0  0  0  0  0  3  0  0  0  0  0  0
    2.8500    1.2577    1.6996 H   0  0  0  0  0  0  0  0  0  0  0  0
    1.3118   -0.2097    2.4302 C   0  0  0  0  0  0  0  0  0  0  0  0
    1.8907   -0.8227    3.1282 H   0  0  0  0  0  0  0  0  0  0  0  0
   -0.0340   -0.4208    2.0579 C   0  0  0  0  0  0  0  0  0  0  0  0
   -0.6789   -1.2243    2.4293 H   0  0  0  0  0  0  0  0  0  0  0  0
   -0.3950    0.5569    1.0745 C   0  0  1  0  0  3  0  0  0  0  0  0
   -1.7832    0.9317    0.5797 C   0  0  2  0  0  0  0  0  0  0  0  0
   -1.6819    1.7173   -0.7537 C   0  0  0  0  0  0  0  0  0  0  0  0
   -2.6234    2.2853   -0.8995 H   0  0  0  0  0  0  0  0  0  0  0  0
   -1.6582    0.9936   -1.5899 H   0  0  0  0  0  0  0  0  0  0  0  0
   -0.5120    2.7103   -0.8580 C   0  0  0  0  0  0  0  0  0  0  0  0
   -0.4483    3.0987   -1.8961 H   0  0  0  0  0  0  0  0  0  0  0  0
   -0.7368    3.5901   -0.2183 H   0  0  0  0  0  0  0  0  0  0  0  0
    1.8326    3.4047   -0.2704 C   0  0  0  0  0  0  0  0  0  0  0  0
    1.9431    3.9411   -1.2342 H   0  0  0  0  0  0  0  0  0  0  0  0
    2.8427    3.1022    0.0648 H   0  0  0  0  0  0  0  0  0  0  0  0
    1.4302    4.1128    0.4809 H   0  0  0  0  0  0  0  0  0  0  0  0
   -2.3580    1.8627    1.6807 C   0  0  0  0  0  0  0  0  0  0  0  0
   -3.3788    2.2033    1.4138 H   0  0  0  0  0  0  0  0  0  0  0  0
   -1.7224    2.7593    1.8219 H   0  0  0  0  0  0  0  0  0  0  0  0
   -2.4107    1.3349    2.6536 H   0  0  0  0  0  0  0  0  0  0  0  0
   -2.6815   -0.3170    0.4149 C   0  0  0  0  0  0  0  0  0  0  0  0
   -2.1480   -1.0446   -0.2316 H   0  0  0  0  0  0  0  0  0  0  0  0
   -2.7707   -0.8164    1.4047 H   0  0  0  0  0  0  0  0  0  0  0  0
   -4.0895   -0.0805   -0.1385 C   0  0  0  0  0  0  0  0  0  0  0  0
   -4.6395    0.6565    0.4882 H   0  0  0  0  0  0  0  0  0  0  0  0
   -4.0324    0.3702   -1.1539 H   0  0  0  0  0  0  0  0  0  0  0  0
   -4.9114   -1.3718   -0.2217 C   0  0  0  0  0  0  0  0  0  0  0  0
   -4.9809   -1.8241    0.7927 H   0  0  0  0  0  0  0  0  0  0  0  0
   -4.3581   -2.1139   -0.8386 H   0  0  0  0  0  0  0  0  0  0  0  0
   -6.3144   -1.1651   -0.7925 C   0  0  0  0  0  0  0  0  0  0  0  0
   -6.8838   -2.1151   -0.8390 H   0  0  0  0  0  0  0  0  0  0  0  0
   -6.2741   -0.7494   -1.8213 H   0  0  0  0  0  0  0  0  0  0  0  0
   -6.9014   -0.4536   -0.1743 H   0  0  0  0  0  0  0  0  0  0  0  0
  2  1  1  0  0  0  0
  3  1  1  0  0  0  0
  3  5  2  0  0  0  0
  4  3  1  0  0  0  0
  5  7  1  0  0  0  0
  6  5  1  0  0  0  0
  7  8  1  0  0  0  0
  9  1  1  1  0  0  0
  9  7  1  0  0  0  0
  9 10  1  0  0  0  0
 10 26  1  1  0  0  0
 10 11  1  0  0  0  0
 11 18  1  0  0  0  0
 11 12  1  6  0  0  0
 12 13  1  0  0  0  0
 12 14  1  0  0  0  0
 14 15  1  0  0  0  0
 16 17  1  0  0  0  0
 16 14  2  0  0  0  0
 18 16  1  1  0  0  0
 19 34  1  6  0  0  0
 19 18  1  0  0  0  0
 19 30  1  0  0  0  0
 20 19  1  0  0  0  0
 21 20  1  0  0  0  0
 22 20  1  0  0  0  0
 23 20  1  0  0  0  0
 23 10  1  0  0  0  0
 23 25  1  0  0  0  0
 24 23  1  0  0  0  0
 26 28  1  0  0  0  0
 26 29  1  0  0  0  0
 27 26  1  0  0  0  0
 30 32  1  0  0  0  0
 30 33  1  0  0  0  0
 31 30  1  0  0  0  0
 34 36  1  0  0  0  0
 35 34  1  0  0  0  0
 37 34  1  0  0  0  0
 37 38  1  0  0  0  0
 39 37  1  0  0  0  0
 40 37  1  0  0  0  0
 40 41  1  0  0  0  0
 42 40  1  0  0  0  0
 43 40  1  0  0  0  0
 43 46  1  0  0  0  0
 44 43  1  0  0  0  0
 45 43  1  0  0  0  0
M  END
