1,33
q = -2.0, confidence = 0.704

 41 43  0  0  1  0  0  0  0  0999 V2000
    0.1204    0.1897   -2.0770 C   0  0  0  0  0  3  0  0  0  0  0  0
    0.7675    0.6970   -2.8025 H   0  0  0  0  0  0  0  0  0  0  0  0
   -0.1357   -1.2152   -2.0378 C   0  0  0  0  0  0  0  0  0  0  0  0
    0.2845   -1.9612   -2.7215 H   0  0  0  0  0  0  0  0  0  0  0  0
   -0.9840   -1.4792   -0.9330 C   0  0  0  0  0  0  0  0  0  0  0  0
   -1.3507   -2.4643   -0.6236 H   0  0  0  0  0  0  0  0  0  0  0  0
   -0.3264    2.1746   -0.3649 C   0  0  1  0  0  0  0  0  0  0  0  0
   -1.4456    2.5038    0.6559 C   0  0  0  0  0  0  0  0  0  0  0  0
   -1.0903    3.3230    1.3155 H   0  0  0  0  0  0  0  0  0  0  0  0
   -2.2916    2.9305    0.0768 H   0  0  0  0  0  0  0  0  0  0  0  0
   -1.9769    1.3432    1.5157 C   0  0  0  0  0  0  0  0  0  0  0  0
   -2.8677    1.7001    2.0748 H   0  0  0  0  0  0  0  0  0  0  0  0
   -1.2449    1.0506    2.2919 H   0  0  0  0  0  0  0  0  0  0  0  0
   -2.3653    0.0641    0.7367 C   0  0  1  0  0  0  0  0  0  0  0  0
   -1.2909   -0.2342   -0.2915 C   0  0  2  0  0  3  0  0  0  0  0  0
   -0.5918    0.8013   -0.9923 C   0  0  2  0  0  3  0  0  0  0  0  0
   -0.2368    3.2966   -1.4080 C   0  0  0  0  0  0  0  0  0  0  0  0
   -0.0063    4.2633   -0.9169 H   0  0  0  0  0  0  0  0  0  0  0  0
   -1.1993    3.3962   -1.9483 H   0  0  0  0  0  0  0  0  0  0  0  0
    0.5513    3.1058   -2.1615 H   0  0  0  0  0  0  0  0  0  0  0  0
   -2.6021   -1.0933    1.7140 C   0  0  0  0  0  0  0  0  0  0  0  0
   -3.3675   -0.8052    2.4636 H   0  0  0  0  0  0  0  0  0  0  0  0
   -1.6688   -1.3649    2.2429 H   0  0  0  0  0  0  0  0  0  0  0  0
   -2.9772   -1.9934    1.1887 H   0  0  0  0  0  0  0  0  0  0  0  0
   -3.6956    0.3512   -0.0531 C   0  0  0  0  0  0  0  0  0  0  0  0
   -4.4819    0.5758    0.6994 H   0  0  0  0  0  0  0  0  0  0  0  0
   -3.5456    1.2729   -0.6562 H   0  0  0  0  0  0  0  0  0  0  0  0
   -4.1613   -0.7476   -0.9621 C   0  0  0  0  0  0  0  0  0  0  0  0
   -3.5407   -0.9361   -1.8564 H   0  0  0  0  0  0  0  0  0  0  0  0
   -5.2558   -1.5030   -0.7614 C   0  0  0  0  0  0  0  0  0  0  0  0
   -5.9047   -1.3509    0.1180 H   0  0  0  0  0  0  0  0  0  0  0  0
   -5.5483   -2.2956   -1.4676 H   0  0  0  0  0  0  0  0  0  0  0  0
    1.0409    1.9130    0.2939 C   0  0  1  0  0  3  0  0  0  0  0  0
    1.2865    1.3807    1.6000 C   0  0  0  0  0  3  0  0  0  0  0  0
    0.5742    1.3267    2.4276 H   0  0  0  0  0  0  0  0  0  0  0  0
    2.6302    0.8954    1.6596 C   0  0  0  0  0  0  0  0  0  0  0  0
    3.0957    0.4142    2.5273 H   0  0  0  0  0  0  0  0  0  0  0  0
    3.2283    1.1147    0.3977 C   0  0  0  0  0  0  0  0  0  0  0  0
    4.2452    0.8322    0.1031 H   0  0  0  0  0  0  0  0  0  0  0  0
    2.2564    1.7249   -0.4497 C   0  0  0  0  0  3  0  0  0  0  0  0
    2.4208    1.9981   -1.4985 H   0  0  0  0  0  0  0  0  0  0  0  0
  1  3  1  0  0  0  0
  2  1  1  0  0  0  0
  3  5  2  0  0  0  0
  4  3  1  0  0  0  0
  5  6  1  0  0  0  0
  7 17  1  6  0  0  0
  7 33  1  0  0  0  0
  7  8  1  0  0  0  0
  8  9  1  0  0  0  0
  8 11  1  0  0  0  0
 10  8  1  0  0  0  0
 11 12  1  0  0  0  0
 11 13  1  0  0  0  0
 14 25  1  6  0  0  0
 14 11  1  0  0  0  0
 14 21  1  0  0  0  0
 15  5  1  6  0  0  0
 15 14  1  0  0  0  0
 16  1  1  1  0  0  0
 16  7  1  0  0  0  0
 16 15  1  0  0  0  0
 17 18  1  0  0  0  0
 19 17  1  0  0  0  0
 20 17  1  0  0  0  0
 21 23  1  0  0  0  0
 21 22  1  0  0  0  0
 24 21  1  0  0  0  0
 25 26  1  0  0  0  0
 27 25  1  0  0  0  0
 28 30  2  0  0  0  0
 28 25  1  0  0  0  0
 29 28  1  0  0  0  0
 30 31  1  0  0  0  0
 32 30  1  0  0  0  0
 33 40  1  6  0  0  0
 33 34  1  0  0  0  0
 34 36  1  0  0  0  0
 34 35  1  0  0  0  0
 36 37  1  0  0  0  0
 38 36  2  0  0  0  0
 39 38  1  0  0  0  0
 40 38  1  0  0  0  0
 41 40  1  0  0  0  0
M  END
