1,26
q = -2.0, confidence = 0.55

 45 46  0  0  1  0  0  0  0  0999 V2000
   -1.1477    1.8126    0.0195 C   0  0  1  0  0  3  0  0  0  0  0  0
   -1.6542    0.8720   -0.9271 C   0  0  0  0  0  3  0  0  0  0  0  0
   -2.4070   -0.1388   -0.2375 C   0  0  0  0  0  0  0  0  0  0  0  0
   -2.3166    0.1550    1.1446 C   0  0  0  0  0  0  0  0  0  0  0  0
   -1.5349    1.3341    1.3140 C   0  0  0  0  0  3  0  0  0  0  0  0
    0.0000    2.7944   -0.2293 C   0  0  0  0  0  0  0  0  0  0  0  0
    0.0000    3.9586    0.7700 C   0  0  0  0  0  0  0  0  0  0  0  0
    0.0001    3.3416   -1.6614 C   0  0  0  0  0  0  0  0  0  0  0  0
   -3.1800   -1.2570   -0.8863 C   0  0  0  0  0  0  0  0  0  0  0  0
   -4.5137   -0.7232   -1.4424 C   0  0  0  0  0  0  0  0  0  0  0  0
   -3.3880   -2.4443    0.0594 C   0  0  0  0  0  0  0  0  0  0  0  0
   -1.4809    0.8855   -2.0097 H   0  0  0  0  0  0  0  0  0  0  0  0
   -2.7296   -0.4496    1.9581 H   0  0  0  0  0  0  0  0  0  0  0  0
   -1.2735    1.7831    2.2788 H   0  0  0  0  0  0  0  0  0  0  0  0
    0.0000    3.6158    1.8218 H   0  0  0  0  0  0  0  0  0  0  0  0
   -0.8992    4.5895    0.6234 H   0  0  0  0  0  0  0  0  0  0  0  0
    0.0000    2.5387   -2.4224 H   0  0  0  0  0  0  0  0  0  0  0  0
    0.8990    3.9663   -1.8331 H   0  0  0  0  0  0  0  0  0  0  0  0
   -2.5608   -1.6062   -1.7409 H   0  0  0  0  0  0  0  0  0  0  0  0
   -4.3551    0.1163   -2.1490 H   0  0  0  0  0  0  0  0  0  0  0  0
   -5.1666   -0.3557   -0.6236 H   0  0  0  0  0  0  0  0  0  0  0  0
   -5.0597   -1.5252   -1.9800 H   0  0  0  0  0  0  0  0  0  0  0  0
   -2.4209   -2.7904    0.4741 H   0  0  0  0  0  0  0  0  0  0  0  0
   -3.8625   -3.2903   -0.4764 H   0  0  0  0  0  0  0  0  0  0  0  0
   -4.0532   -2.1759    0.9068 H   0  0  0  0  0  0  0  0  0  0  0  0
    1.1477    1.8125    0.0196 C   0  0  2  0  0  3  0  0  0  0  0  0
    1.6542    0.8720   -0.9271 C   0  0  0  0  0  3  0  0  0  0  0  0
    2.4071   -0.1389   -0.2374 C   0  0  0  0  0  0  0  0  0  0  0  0
    2.3166    0.1550    1.1447 C   0  0  0  0  0  0  0  0  0  0  0  0
    1.5349    1.3340    1.3141 C   0  0  0  0  0  3  0  0  0  0  0  0
    0.8993    4.5895    0.6235 H   0  0  0  0  0  0  0  0  0  0  0  0
   -0.8989    3.9663   -1.8331 H   0  0  0  0  0  0  0  0  0  0  0  0
    1.4810    0.8855   -2.0097 H   0  0  0  0  0  0  0  0  0  0  0  0
    3.1801   -1.2570   -0.8862 C   0  0  0  0  0  0  0  0  0  0  0  0
    2.7294   -0.4497    1.9582 H   0  0  0  0  0  0  0  0  0  0  0  0
    1.2734    1.7830    2.2788 H   0  0  0  0  0  0  0  0  0  0  0  0
    4.5138   -0.7232   -1.4424 C   0  0  0  0  0  0  0  0  0  0  0  0
    3.3881   -2.4443    0.0595 C   0  0  0  0  0  0  0  0  0  0  0  0
    2.5608   -1.6062   -1.7409 H   0  0  0  0  0  0  0  0  0  0  0  0
    4.3551    0.1163   -2.1489 H   0  0  0  0  0  0  0  0  0  0  0  0
    5.1666   -0.3556   -0.6235 H   0  0  0  0  0  0  0  0  0  0  0  0
    5.0598   -1.5252   -1.9799 H   0  0  0  0  0  0  0  0  0  0  0  0
    2.4210   -2.7904    0.4742 H   0  0  0  0  0  0  0  0  0  0  0  0
    3.8627   -3.2903   -0.4764 H   0  0  0  0  0  0  0  0  0  0  0  0
    4.0532   -2.1758    0.9069 H   0  0  0  0  0  0  0  0  0  0  0  0
  1  6  1  1  0  0  0
  1  5  1  0  0  0  0
  2  3  1  0  0  0  0
  2  1  1  0  0  0  0
  3  4  2  0  0  0  0
  4  5  1  0  0  0  0
  4 13  1  0  0  0  0
  5 14  1  0  0  0  0
  6  7  1  0  0  0  0
  7 15  1  0  0  0  0
  8  6  1  0  0  0  0
  9  3  1  0  0  0  0
  9 11  1  0  0  0  0
 10  9  1  0  0  0  0
 10 21  1  0  0  0  0
 11 23  1  0  0  0  0
 11 25  1  0  0  0  0
 12  2  1  0  0  0  0
 16  7  1  0  0  0  0
 17  8  1  0  0  0  0
 18  8  1  0  0  0  0
 19  9  1  0  0  0  0
 20 10  1  0  0  0  0
 22 10  1  0  0  0  0
 24 11  1  0  0  0  0
 26  6  1  1  0  0  0
 26 30  1  0  0  0  0
 27 28  1  0  0  0  0
 27 26  1  0  0  0  0
 28 29  2  0  0  0  0
 29 30  1  0  0  0  0
 29 35  1  0  0  0  0
 30 36  1  0  0  0  0
 31  7  1  0  0  0  0
 32  8  1  0  0  0  0
 33 27  1  0  0  0  0
 34 28  1  0  0  0  0
 34 38  1  0  0  0  0
 37 34  1  0  0  0  0
 37 41  1  0  0  0  0
 38 43  1  0  0  0  0
 38 45  1  0  0  0  0
 39 34  1  0  0  0  0
 40 37  1  0  0  0  0
 42 37  1  0  0  0  0
 44 38  1  0  0  0  0
M  END
