6,12
q = -2.0, confidence = 0.75

 35 36  0  0  1  0  0  0  0  0999 V2000
    2.2742    0.8578    0.5045 N   0  0  0  0  0  0  0  0  0  0  0  0
    2.9357   -0.0782    2.4961 O   0  0  0  0  0  0  0  0  0  0  0  0
    0.8176    1.9243   -0.9992 O   0  0  0  0  0  0  0  0  0  0  0  0
   -2.2499    0.5247    0.7791 C   0  0  0  0  0  0  0  0  0  0  0  0
   -0.7967    0.2933    0.8802 C   0  0  0  0  0  3  0  0  0  0  0  0
   -0.2084   -0.8792    1.4147 C   0  0  0  0  0  3  0  0  0  0  0  0
    1.1895   -1.1839    1.2911 C   0  0  1  0  0  3  0  0  0  0  0  0
    2.2221   -0.0854    1.4936 C   0  0  0  0  0  0  0  0  0  0  0  0
    3.1786    2.0000    0.6077 C   0  0  0  0  0  0  0  0  0  0  0  0
    2.4339    3.2791    0.2150 C   0  0  0  0  0  0  0  0  0  0  0  0
    1.6836    3.0548   -1.0991 C   0  0  0  0  0  0  0  0  0  0  0  0
    1.5328    0.7192   -0.7278 C   0  0  0  0  0  3  0  0  0  0  0  0
    1.6667   -2.5329    1.7832 C   0  0  0  0  0  0  0  0  0  0  0  0
   -3.2249   -0.4499    1.0950 C   0  0  0  0  0  0  0  0  0  0  0  0
   -4.5898   -0.1638    0.9688 C   0  0  0  0  0  0  0  0  0  0  0  0
   -5.0128    1.0977    0.5172 C   0  0  0  0  0  0  0  0  0  0  0  0
   -4.0561    2.0722    0.1907 C   0  0  0  0  0  0  0  0  0  0  0  0
   -2.6912    1.7880    0.3203 C   0  0  0  0  0  0  0  0  0  0  0  0
   -0.1913    1.2063    0.8035 H   0  0  0  0  0  0  0  0  0  0  0  0
   -0.8609   -1.6789    1.8054 H   0  0  0  0  0  0  0  0  0  0  0  0
    4.0454    1.8389   -0.0757 H   0  0  0  0  0  0  0  0  0  0  0  0
    3.5668    2.0191    1.6448 H   0  0  0  0  0  0  0  0  0  0  0  0
    1.7059    3.5459    1.0100 H   0  0  0  0  0  0  0  0  0  0  0  0
    3.1460    4.1243    0.1144 H   0  0  0  0  0  0  0  0  0  0  0  0
    1.0421    3.9191   -1.3633 H   0  0  0  0  0  0  0  0  0  0  0  0
    2.4114    2.8993   -1.9347 H   0  0  0  0  0  0  0  0  0  0  0  0
    2.2640    0.5783   -1.5617 H   0  0  0  0  0  0  0  0  0  0  0  0
    1.9721   -2.4482    2.8459 H   0  0  0  0  0  0  0  0  0  0  0  0
    0.8758   -3.3017    1.6890 H   0  0  0  0  0  0  0  0  0  0  0  0
    2.5561   -2.8753    1.2187 H   0  0  0  0  0  0  0  0  0  0  0  0
   -2.9198   -1.4490    1.4405 H   0  0  0  0  0  0  0  0  0  0  0  0
   -5.3325   -0.9350    1.2235 H   0  0  0  0  0  0  0  0  0  0  0  0
   -6.0863    1.3179    0.4165 H   0  0  0  0  0  0  0  0  0  0  0  0
   -4.3766    3.0611   -0.1707 H   0  0  0  0  0  0  0  0  0  0  0  0
   -1.9368    2.5422    0.0483 H   0  0  0  0  0  0  0  0  0  0  0  0
  1  9  1  0  0  0  0
  1  8  1  0  0  0  0
  3 12  1  0  0  0  0
  4  5  1  0  0  0  0
  4 14  1  0  0  0  0
  5  6  1  0  0  0  0
  6 20  1  0  0  0  0
  7  6  1  1  0  0  0
  7  8  1  0  0  0  0
  7 13  1  0  0  0  0
  8  2  2  0  0  0  0
  9 22  1  0  0  0  0
 10  9  1  0  0  0  0
 10 23  1  0  0  0  0
 11  3  1  0  0  0  0
 11 10  1  0  0  0  0
 12  1  1  0  0  0  0
 13 28  1  0  0  0  0
 14 31  1  0  0  0  0
 15 14  2  0  0  0  0
 15 32  1  0  0  0  0
 16 15  1  0  0  0  0
 17 18  1  0  0  0  0
 17 16  2  0  0  0  0
 18  4  2  0  0  0  0
 19  5  1  0  0  0  0
 21  9  1  0  0  0  0
 24 10  1  0  0  0  0
 25 11  1  0  0  0  0
 26 11  1  0  0  0  0
 27 12  1  0  0  0  0
 29 13  1  0  0  0  0
 30 13  1  0  0  0  0
 33 16  1  0  0  0  0
 34 17  1  0  0  0  0
 35 18  1  0  0  0  0
M  END
