2,7
q = -1.0, confidence = 0.038

 48 47  0  0  1  0  0  0  0  0999 V2000
    1.6322   -2.3677   -0.5030 C   0  0  0  0  0  3  0  0  0  0  0  0
    2.5531   -2.1475    0.5603 C   0  0  2  0  0  3  0  0  0  0  0  0
    3.9338   -2.7614    0.5379 C   0  0  0  0  0  0  0  0  0  0  0  0
    2.1831   -1.3302    1.6847 C   0  0  0  0  0  0  0  0  0  0  0  0
    1.0775   -0.4458    1.7639 C   0  0  0  0  0  0  0  0  0  0  0  0
    1.0078    0.3844    3.0403 C   0  0  0  0  0  0  0  0  0  0  0  0
    0.0795   -0.3040    0.7067 C   0  0  0  0  0  3  0  0  0  0  0  0
   -0.5324    1.0062    0.4643 C   0  0  0  0  0  0  0  0  0  0  0  0
    0.4266    2.1615    0.6158 C   0  0  0  0  0  0  0  0  0  0  0  0
    1.7320    1.8826   -0.0747 N   0  0  0  0  0  0  0  0  0  0  0  0
    1.6762    2.4622   -1.4362 C   0  0  0  0  0  0  0  0  0  0  0  0
    2.8465    2.5161    0.6610 C   0  0  0  0  0  0  0  0  0  0  0  0
   -1.8142    1.2297    0.0236 C   0  0  0  0  0  0  0  0  0  0  0  0
   -2.8558    0.2375   -0.1106 C   0  0  0  0  0  0  0  0  0  0  0  0
   -4.1001    0.4860   -0.5982 C   0  0  0  0  0  0  0  0  0  0  0  0
   -5.1774   -0.5437   -0.7662 C   0  0  0  0  0  0  0  0  0  0  0  0
   -6.4412   -0.1447   -0.1535 N   0  0  0  0  0  0  0  0  0  0  0  0
   -6.3528   -0.0424    1.2907 C   0  0  0  0  0  0  0  0  0  0  0  0
   -7.5483   -0.9785   -0.5744 C   0  0  0  0  0  0  0  0  0  0  0  0
    4.2803   -2.9152   -0.5021 H   0  0  0  0  0  0  0  0  0  0  0  0
    3.9117   -3.7569    1.0318 H   0  0  0  0  0  0  0  0  0  0  0  0
    4.6816   -2.1336    1.0606 H   0  0  0  0  0  0  0  0  0  0  0  0
    0.0713    0.9682    3.1006 H   0  0  0  0  0  0  0  0  0  0  0  0
    1.8689    1.0692    3.1872 H   0  0  0  0  0  0  0  0  0  0  0  0
    1.0091   -0.3109    3.9048 H   0  0  0  0  0  0  0  0  0  0  0  0
    2.5807    2.1790   -2.0040 H   0  0  0  0  0  0  0  0  0  0  0  0
    1.6100    3.5737   -1.3802 H   0  0  0  0  0  0  0  0  0  0  0  0
    0.7879    2.0778   -1.9684 H   0  0  0  0  0  0  0  0  0  0  0  0
    3.7882    2.3747    0.1009 H   0  0  0  0  0  0  0  0  0  0  0  0
    2.9592    2.0417    1.6527 H   0  0  0  0  0  0  0  0  0  0  0  0
    2.6684    3.6085    0.7950 H   0  0  0  0  0  0  0  0  0  0  0  0
   -5.5166    0.6275    1.5739 H   0  0  0  0  0  0  0  0  0  0  0  0
   -6.1769   -1.0328    1.7951 H   0  0  0  0  0  0  0  0  0  0  0  0
   -7.2921    0.3819    1.7012 H   0  0  0  0  0  0  0  0  0  0  0  0
   -7.6319   -0.9752   -1.6808 H   0  0  0  0  0  0  0  0  0  0  0  0
   -8.4997   -0.5863   -0.1595 H   0  0  0  0  0  0  0  0  0  0  0  0
   -7.4550   -2.0502   -0.2444 H   0  0  0  0  0  0  0  0  0  0  0  0
    0.5709   -2.5730   -0.3060 H   0  0  0  0  0  0  0  0  0  0  0  0
    2.0280   -2.8874   -1.3904 H   0  0  0  0  0  0  0  0  0  0  0  0
    0.6571    2.3382    1.6830 H   0  0  0  0  0  0  0  0  0  0  0  0
   -0.0131    3.1073    0.2317 H   0  0  0  0  0  0  0  0  0  0  0  0
    2.9193   -1.2581    2.5042 H   0  0  0  0  0  0  0  0  0  0  0  0
   -0.5021   -1.1781    0.3841 H   0  0  0  0  0  0  0  0  0  0  0  0
   -2.6235   -0.7932    0.2135 H   0  0  0  0  0  0  0  0  0  0  0  0
   -2.0852    2.2618   -0.2619 H   0  0  0  0  0  0  0  0  0  0  0  0
   -4.3680    1.5118   -0.9113 H   0  0  0  0  0  0  0  0  0  0  0  0
   -5.3761   -0.6826   -1.8543 H   0  0  0  0  0  0  0  0  0  0  0  0
   -4.8122   -1.5398   -0.3881 H   0  0  0  0  0  0  0  0  0  0  0  0
  1 38  1  0  0  0  0
  2  1  1  1  0  0  0
  2  4  1  0  0  0  0
  3  2  1  0  0  0  0
  3 21  1  0  0  0  0
  3 22  1  0  0  0  0
  4  5  2  0  0  0  0
  4 42  1  0  0  0  0
  5  6  1  0  0  0  0
  6 23  1  0  0  0  0
  6 24  1  0  0  0  0
  6 25  1  0  0  0  0
  7  5  1  0  0  0  0
  8  9  1  0  0  0  0
  8  7  1  0  0  0  0
  9 40  1  0  0  0  0
 10  9  1  0  0  0  0
 10 12  1  0  0  0  0
 11 27  1  0  0  0  0
 11 10  1  0  0  0  0
 12 31  1  0  0  0  0
 12 30  1  0  0  0  0
 13  8  2  0  0  0  0
 14 13  1  0  0  0  0
 14 44  1  0  0  0  0
 15 14  2  0  0  0  0
 16 15  1  0  0  0  0
 16 48  1  0  0  0  0
 16 17  1  0  0  0  0
 17 18  1  0  0  0  0
 18 32  1  0  0  0  0
 18 34  1  0  0  0  0
 18 33  1  0  0  0  0
 19 37  1  0  0  0  0
 19 36  1  0  0  0  0
 19 17  1  0  0  0  0
 20  3  1  0  0  0  0
 26 11  1  0  0  0  0
 28 11  1  0  0  0  0
 29 12  1  0  0  0  0
 35 19  1  0  0  0  0
 39  1  1  0  0  0  0
 41  9  1  0  0  0  0
 43  7  1  0  0  0  0
 45 13  1  0  0  0  0
 46 15  1  0  0  0  0
 47 16  1  0  0  0  0
M  END
