5,7
q = -1.0, confidence = 0.002

 38 38  0  0  0  0  0  0  0  0999 V2000
   -2.5928   -2.8301    0.0537 Si  0  0  0  0  0  0  0  0  0  0  0  0
   -2.6762    2.7851    0.0629 Si  0  0  0  0  0  0  0  0  0  0  0  0
    1.0825   -0.6925   -1.3549 C   0  0  0  0  0  0  0  0  0  0  0  0
    1.0760    0.7781   -1.3280 C   0  0  0  0  0  0  0  0  0  0  0  0
    2.3891    1.2130   -1.7206 C   0  0  0  0  0  3  0  0  0  0  0  0
    3.1929    0.0634   -2.0059 C   0  0  0  0  0  3  0  0  0  0  0  0
    2.3972   -1.1036   -1.7645 C   0  0  0  0  0  3  0  0  0  0  0  0
   -0.0386   -1.4932   -1.0229 C   0  0  0  0  0  0  0  0  0  0  0  0
   -1.0625   -2.0903   -0.6789 C   0  0  0  0  0  0  0  0  0  0  0  0
   -0.0541    1.5557   -0.9755 C   0  0  0  0  0  0  0  0  0  0  0  0
   -1.0925    2.1284   -0.6330 C   0  0  0  0  0  0  0  0  0  0  0  0
   -4.0088   -2.6640   -1.1863 C   0  0  0  0  0  0  0  0  0  0  0  0
   -2.9518   -1.8442    1.6268 C   0  0  0  0  0  0  0  0  0  0  0  0
   -2.2604   -4.6458    0.4522 C   0  0  0  0  0  0  0  0  0  0  0  0
   -2.5800    2.5620    1.9370 C   0  0  0  0  0  0  0  0  0  0  0  0
   -4.0840    1.7525   -0.6635 C   0  0  0  0  0  0  0  0  0  0  0  0
   -2.8691    4.6050   -0.4010 C   0  0  0  0  0  0  0  0  0  0  0  0
    2.7000    2.2609   -1.8006 H   0  0  0  0  0  0  0  0  0  0  0  0
    4.2366    0.0738   -2.3387 H   0  0  0  0  0  0  0  0  0  0  0  0
    2.7156   -2.1455   -1.8835 H   0  0  0  0  0  0  0  0  0  0  0  0
   -4.9488   -3.0708   -0.7592 H   0  0  0  0  0  0  0  0  0  0  0  0
   -4.1817   -1.6010   -1.4502 H   0  0  0  0  0  0  0  0  0  0  0  0
   -3.7871   -3.2169   -2.1213 H   0  0  0  0  0  0  0  0  0  0  0  0
   -2.0621   -1.8301    2.2880 H   0  0  0  0  0  0  0  0  0  0  0  0
   -3.8041   -2.2814    2.1867 H   0  0  0  0  0  0  0  0  0  0  0  0
   -3.2020   -0.7925    1.3800 H   0  0  0  0  0  0  0  0  0  0  0  0
   -3.1570   -5.1131    0.9097 H   0  0  0  0  0  0  0  0  0  0  0  0
   -2.0056   -5.2149   -0.4645 H   0  0  0  0  0  0  0  0  0  0  0  0
   -1.4174   -4.7465    1.1650 H   0  0  0  0  0  0  0  0  0  0  0  0
   -2.3466    1.5081    2.1909 H   0  0  0  0  0  0  0  0  0  0  0  0
   -3.5395    2.8382    2.4211 H   0  0  0  0  0  0  0  0  0  0  0  0
   -1.7785    3.1958    2.3671 H   0  0  0  0  0  0  0  0  0  0  0  0
   -5.0618    2.0727   -0.2479 H   0  0  0  0  0  0  0  0  0  0  0  0
   -4.1248    1.8557   -1.7665 H   0  0  0  0  0  0  0  0  0  0  0  0
   -3.9407    0.6789   -0.4264 H   0  0  0  0  0  0  0  0  0  0  0  0
   -3.8111    5.0145    0.0189 H   0  0  0  0  0  0  0  0  0  0  0  0
   -2.0265    5.2070   -0.0053 H   0  0  0  0  0  0  0  0  0  0  0  0
   -2.8978    4.7351   -1.5016 H   0  0  0  0  0  0  0  0  0  0  0  0
  1 14  1  0  0  0  0
  1 13  1  0  0  0  0
  2 15  1  0  0  0  0
  3  4  2  0  0  0  0
  3  8  1  0  0  0  0
  4 10  1  0  0  0  0
  5  4  1  0  0  0  0
  6  7  1  0  0  0  0
  6  5  1  0  0  0  0
  7  3  1  0  0  0  0
  8  9  3  0  0  0  0
  9  1  1  0  0  0  0
 10 11  3  0  0  0  0
 11  2  1  0  0  0  0
 12 21  1  0  0  0  0
 12  1  1  0  0  0  0
 13 25  1  0  0  0  0
 13 24  1  0  0  0  0
 14 27  1  0  0  0  0
 14 29  1  0  0  0  0
 15 30  1  0  0  0  0
 15 32  1  0  0  0  0
 15 31  1  0  0  0  0
 16 35  1  0  0  0  0
 16 33  1  0  0  0  0
 16  2  1  0  0  0  0
 17 37  1  0  0  0  0
 17 36  1  0  0  0  0
 17  2  1  0  0  0  0
 18  5  1  0  0  0  0
 19  6  1  0  0  0  0
 20  7  1  0  0  0  0
 22 12  1  0  0  0  0
 23 12  1  0  0  0  0
 26 13  1  0  0  0  0
 28 14  1  0  0  0  0
 34 16  1  0  0  0  0
 38 17  1  0  0  0  0
M  END
