6,11
q = -1.0

 48 50  0  0  1  0  0  0  0  0999 V2000
   -1.4231    0.5784    0.2325 C   0  0  1  0  0  0  0  0  0  0  0  0
   -0.0834    1.2366    0.6642 C   0  0  0  0  0  0  0  0  0  0  0  0
    0.6560    1.6203   -0.4554 C   0  0  0  0  0  0  0  0  0  0  0  0
   -0.1207    1.2571   -1.7202 C   0  0  1  0  0  0  0  0  0  0  0  0
    0.5030   -0.0454   -2.1718 C   0  0  0  0  0  3  0  0  0  0  0  0
   -0.0068   -1.3120   -1.9244 C   0  0  0  0  0  3  0  0  0  0  0  0
   -1.2861   -1.5957   -1.1537 C   0  0  2  0  0  0  0  0  0  0  0  0
   -2.5613   -1.1391   -1.8735 C   0  0  0  0  0  0  0  0  0  0  0  0
   -2.5021    0.3672   -2.1825 C   0  0  0  0  0  0  0  0  0  0  0  0
   -1.5754    1.1351   -1.2199 C   0  0  1  0  0  0  0  0  0  0  0  0
   -1.0359   -0.9329    0.2123 C   0  0  2  0  0  3  0  0  0  0  0  0
   -2.6034    1.0049    1.1358 C   0  0  0  0  0  0  0  0  0  0  0  0
   -4.0138    0.5420    0.7615 C   0  0  0  0  0  0  0  0  0  0  0  0
    0.2260    1.6817    2.0789 C   0  0  0  0  0  0  0  0  0  0  0  0
   -0.2696    3.0941    2.4338 C   0  0  0  0  0  0  0  0  0  0  0  0
    1.8201    2.5784   -0.4990 C   0  0  0  0  0  0  0  0  0  0  0  0
    1.3820    4.0022   -0.8810 C   0  0  0  0  0  0  0  0  0  0  0  0
   -1.5127   -1.7254    1.4292 C   0  0  0  0  0  0  0  0  0  0  0  0
   -0.9872   -3.1490    1.6198 C   0  0  0  0  0  0  0  0  0  0  0  0
   -0.0261    2.0214   -2.5203 H   0  0  0  0  0  0  0  0  0  0  0  0
    1.3833    0.0306   -2.8297 H   0  0  0  0  0  0  0  0  0  0  0  0
    0.4804   -2.1479   -2.4538 H   0  0  0  0  0  0  0  0  0  0  0  0
   -1.3304   -2.6923   -1.0003 H   0  0  0  0  0  0  0  0  0  0  0  0
   -1.9390    2.1800   -1.1121 H   0  0  0  0  0  0  0  0  0  0  0  0
   -3.4246   -1.3697   -1.2156 H   0  0  0  0  0  0  0  0  0  0  0  0
   -2.7142   -1.7238   -2.8051 H   0  0  0  0  0  0  0  0  0  0  0  0
   -2.1275    0.5253   -3.2160 H   0  0  0  0  0  0  0  0  0  0  0  0
   -3.5212    0.8011   -2.1694 H   0  0  0  0  0  0  0  0  0  0  0  0
   -2.3922    0.6969    2.1799 H   0  0  0  0  0  0  0  0  0  0  0  0
   -2.6060    2.1159    1.1491 H   0  0  0  0  0  0  0  0  0  0  0  0
   -4.7450    0.9105    1.5091 H   0  0  0  0  0  0  0  0  0  0  0  0
   -4.3350    0.9299   -0.2245 H   0  0  0  0  0  0  0  0  0  0  0  0
   -4.1051   -0.5612    0.7345 H   0  0  0  0  0  0  0  0  0  0  0  0
    1.3226    1.6529    2.2370 H   0  0  0  0  0  0  0  0  0  0  0  0
   -0.1950    0.9539    2.8008 H   0  0  0  0  0  0  0  0  0  0  0  0
    0.0213    3.3462    3.4734 H   0  0  0  0  0  0  0  0  0  0  0  0
    0.1758    3.8588    1.7681 H   0  0  0  0  0  0  0  0  0  0  0  0
   -1.3695    3.1878    2.3629 H   0  0  0  0  0  0  0  0  0  0  0  0
    2.5718    2.2332   -1.2371 H   0  0  0  0  0  0  0  0  0  0  0  0
    2.3415    2.5849    0.4797 H   0  0  0  0  0  0  0  0  0  0  0  0
    2.2554    4.6836   -0.9125 H   0  0  0  0  0  0  0  0  0  0  0  0
    0.9069    4.0270   -1.8829 H   0  0  0  0  0  0  0  0  0  0  0  0
    0.6513    4.4180   -0.1592 H   0  0  0  0  0  0  0  0  0  0  0  0
   -1.2804   -1.1496    2.3498 H   0  0  0  0  0  0  0  0  0  0  0  0
   -2.6275   -1.7789    1.3986 H   0  0  0  0  0  0  0  0  0  0  0  0
   -1.5375   -3.6527    2.4401 H   0  0  0  0  0  0  0  0  0  0  0  0
   -1.1111   -3.7761    0.7137 H   0  0  0  0  0  0  0  0  0  0  0  0
    0.0862   -3.1653    1.8862 H   0  0  0  0  0  0  0  0  0  0  0  0
  1  2  1  0  0  0  0
  1 12  1  1  0  0  0
  2 14  1  0  0  0  0
  3  2  2  0  0  0  0
  4 20  1  6  0  0  0
  4 10  1  0  0  0  0
  4  3  1  0  0  0  0
  5  6  1  0  0  0  0
  5  4  1  0  0  0  0
  6  7  1  0  0  0  0
  7 23  1  1  0  0  0
  7 11  1  0  0  0  0
  8 25  1  0  0  0  0
  8  7  1  0  0  0  0
  9 28  1  0  0  0  0
  9  8  1  0  0  0  0
  9 10  1  0  0  0  0
 10 24  1  1  0  0  0
 10  1  1  0  0  0  0
 11  1  1  0  0  0  0
 11 18  1  1  0  0  0
 12 30  1  0  0  0  0
 12 29  1  0  0  0  0
 13 12  1  0  0  0  0
 13 31  1  0  0  0  0
 14 34  1  0  0  0  0
 14 15  1  0  0  0  0
 14 35  1  0  0  0  0
 15 36  1  0  0  0  0
 16  3  1  0  0  0  0
 16 40  1  0  0  0  0
 17 16  1  0  0  0  0
 17 43  1  0  0  0  0
 18 19  1  0  0  0  0
 18 44  1  0  0  0  0
 19 48  1  0  0  0  0
 19 46  1  0  0  0  0
 21  5  1  0  0  0  0
 22  6  1  0  0  0  0
 26  8  1  0  0  0  0
 27  9  1  0  0  0  0
 32 13  1  0  0  0  0
 33 13  1  0  0  0  0
 37 15  1  0  0  0  0
 38 15  1  0  0  0  0
 39 16  1  0  0  0  0
 41 17  1  0  0  0  0
 42 17  1  0  0  0  0
 45 18  1  0  0  0  0
 47 19  1  0  0  0  0
M  END
