6,9
q = -2.0, confidence = 0.796

 20 20  0  0  1  0  0  0  0  0999 V2000
   -6.8802    0.2243   -0.5721 Cl  0  0  0  0  0  0  0  0  0  0  0  0
    1.9324   -1.6516   -1.5795 F   0  0  0  0  0  0  0  0  0  0  0  0
    2.8756   -3.2398    0.4650 F   0  0  0  0  0  0  0  0  0  0  0  0
    1.8936   -4.2221   -1.2133 F   0  0  0  0  0  0  0  0  0  0  0  0
    0.8901   -4.1335    0.7117 F   0  0  0  0  0  0  0  0  0  0  0  0
   -1.0539   -1.3387   -0.3294 C   0  0  0  0  0  3  0  0  0  0  0  0
   -0.3692   -2.2243   -1.0962 C   0  0  0  0  0  0  0  0  0  0  0  0
   -0.6963   -2.8581   -1.9456 H   0  0  0  0  0  0  0  0  0  0  0  0
    1.0195   -2.1107   -0.5749 C   0  0  1  0  0  3  0  0  0  0  0  0
   -2.4713   -0.9768   -0.3655 C   0  0  0  0  0  0  0  0  0  0  0  0
   -3.4169   -1.7721   -1.0629 C   0  0  0  0  0  0  0  0  0  0  0  0
   -3.0840   -2.6992   -1.5529 H   0  0  0  0  0  0  0  0  0  0  0  0
   -4.7652   -1.4103   -1.1288 C   0  0  0  0  0  0  0  0  0  0  0  0
   -5.4923   -2.0343   -1.6677 H   0  0  0  0  0  0  0  0  0  0  0  0
   -5.1977   -0.2327   -0.4911 C   0  0  0  0  0  0  0  0  0  0  0  0
   -4.2898    0.5724    0.2148 C   0  0  0  0  0  0  0  0  0  0  0  0
   -4.6415    1.4879    0.7114 H   0  0  0  0  0  0  0  0  0  0  0  0
   -2.9440    0.1917    0.2767 C   0  0  0  0  0  0  0  0  0  0  0  0
   -2.2249    0.8159    0.8243 H   0  0  0  0  0  0  0  0  0  0  0  0
    1.6677   -3.4210   -0.1396 C   0  0  0  0  0  0  0  0  0  0  0  0
  1 15  1  0  0  0  0
  4 20  1  0  0  0  0
  7  9  1  0  0  0  0
  7  6  2  0  0  0  0
  8  7  1  0  0  0  0
  9  2  1  6  0  0  0
  9 20  1  0  0  0  0
 10  6  1  0  0  0  0
 10 18  1  0  0  0  0
 11 10  2  0  0  0  0
 12 11  1  0  0  0  0
 13 11  1  0  0  0  0
 13 15  2  0  0  0  0
 14 13  1  0  0  0  0
 15 16  1  0  0  0  0
 16 18  2  0  0  0  0
 16 17  1  0  0  0  0
 18 19  1  0  0  0  0
 20  3  1  0  0  0  0
 20  5  1  0  0  0  0
M  END
