2,14
q = -2.0, confidence = 0.794

 42 45  0  0  0  0  0  0  0  0999 V2000
   -1.3542    1.9448    0.1919 C   0  0  0  0  0  0  0  0  0  0  0  0
   -1.5398    1.3401   -1.0964 C   0  0  0  0  0  3  0  0  0  0  0  0
   -2.3576    0.1691   -0.9217 C   0  0  0  0  0  0  0  0  0  0  0  0
   -2.9426   -0.7417   -1.8421 C   0  0  0  0  0  0  0  0  0  0  0  0
   -3.6851   -1.8008   -1.3442 C   0  0  0  0  0  0  0  0  0  0  0  0
   -3.8431   -2.0013    0.0605 C   0  0  0  0  0  0  0  0  0  0  0  0
   -3.2694   -1.1366    0.9805 C   0  0  0  0  0  0  0  0  0  0  0  0
   -2.5328   -0.0223    0.4953 C   0  0  0  0  0  0  0  0  0  0  0  0
   -1.8676    1.0636    1.1879 C   0  0  0  0  0  0  0  0  0  0  0  0
   -1.8763    1.2557    2.6706 C   0  0  0  0  0  0  0  0  0  0  0  0
   -0.6507    3.2548    0.4081 C   0  0  0  0  0  0  0  0  0  0  0  0
    0.6507    3.2548   -0.4077 C   0  0  0  0  0  0  0  0  0  0  0  0
    1.3541    1.9447   -0.1917 C   0  0  0  0  0  0  0  0  0  0  0  0
    1.5396    1.3399    1.0965 C   0  0  0  0  0  3  0  0  0  0  0  0
    2.3576    0.1689    0.9217 C   0  0  0  0  0  0  0  0  0  0  0  0
    2.9426   -0.7420    1.8421 C   0  0  0  0  0  0  0  0  0  0  0  0
    3.6851   -1.8009    1.3440 C   0  0  0  0  0  0  0  0  0  0  0  0
    3.8432   -2.0012   -0.0608 C   0  0  0  0  0  0  0  0  0  0  0  0
    3.2695   -1.1364   -0.9806 C   0  0  0  0  0  0  0  0  0  0  0  0
    2.5328   -0.0222   -0.4953 C   0  0  0  0  0  0  0  0  0  0  0  0
    1.8677    1.0638   -1.1877 C   0  0  0  0  0  0  0  0  0  0  0  0
    1.8764    1.2560   -2.6704 C   0  0  0  0  0  0  0  0  0  0  0  0
   -1.2538    1.7758   -2.0610 H   0  0  0  0  0  0  0  0  0  0  0  0
   -2.7991   -0.6045   -2.9231 H   0  0  0  0  0  0  0  0  0  0  0  0
   -4.1554   -2.5111   -2.0408 H   0  0  0  0  0  0  0  0  0  0  0  0
   -4.4289   -2.8631    0.4143 H   0  0  0  0  0  0  0  0  0  0  0  0
   -3.3843   -1.2985    2.0613 H   0  0  0  0  0  0  0  0  0  0  0  0
   -2.8974    1.5066    3.0296 H   0  0  0  0  0  0  0  0  0  0  0  0
   -1.5531    0.3253    3.1796 H   0  0  0  0  0  0  0  0  0  0  0  0
   -1.2005    2.0726    2.9892 H   0  0  0  0  0  0  0  0  0  0  0  0
   -0.4324    3.3936    1.4854 H   0  0  0  0  0  0  0  0  0  0  0  0
   -1.3097    4.0994    0.1130 H   0  0  0  0  0  0  0  0  0  0  0  0
    1.3097    4.0994   -0.1125 H   0  0  0  0  0  0  0  0  0  0  0  0
    0.4323    3.3937   -1.4851 H   0  0  0  0  0  0  0  0  0  0  0  0
    1.2537    1.7755    2.0612 H   0  0  0  0  0  0  0  0  0  0  0  0
    2.7990   -0.6049    2.9230 H   0  0  0  0  0  0  0  0  0  0  0  0
    4.1554   -2.5113    2.0405 H   0  0  0  0  0  0  0  0  0  0  0  0
    4.4291   -2.8629   -0.4146 H   0  0  0  0  0  0  0  0  0  0  0  0
    3.3845   -1.2982   -2.0615 H   0  0  0  0  0  0  0  0  0  0  0  0
    2.8974    1.5072   -3.0293 H   0  0  0  0  0  0  0  0  0  0  0  0
    1.5535    0.3256   -3.1795 H   0  0  0  0  0  0  0  0  0  0  0  0
    1.2004    2.0728   -2.9890 H   0  0  0  0  0  0  0  0  0  0  0  0
  1 11  1  0  0  0  0
  1  9  2  0  0  0  0
  2  3  1  0  0  0  0
  2  1  1  0  0  0  0
  3  8  1  0  0  0  0
  4  5  1  0  0  0  0
  4  3  2  0  0  0  0
  5  6  2  0  0  0  0
  6 26  1  0  0  0  0
  6  7  1  0  0  0  0
  7 27  1  0  0  0  0
  8  7  2  0  0  0  0
  8  9  1  0  0  0  0
  9 10  1  0  0  0  0
 10 30  1  0  0  0  0
 10 28  1  0  0  0  0
 10 29  1  0  0  0  0
 11 31  1  0  0  0  0
 12 13  1  0  0  0  0
 12 33  1  0  0  0  0
 12 11  1  0  0  0  0
 13 14  1  0  0  0  0
 14 35  1  0  0  0  0
 15 14  1  0  0  0  0
 15 16  1  0  0  0  0
 16 36  1  0  0  0  0
 17 16  2  0  0  0  0
 17 37  1  0  0  0  0
 18 17  1  0  0  0  0
 19 20  1  0  0  0  0
 19 18  2  0  0  0  0
 20 15  2  0  0  0  0
 21 20  1  0  0  0  0
 21 13  2  0  0  0  0
 22 21  1  0  0  0  0
 23  2  1  0  0  0  0
 24  4  1  0  0  0  0
 25  5  1  0  0  0  0
 32 11  1  0  0  0  0
 34 12  1  0  0  0  0
 38 18  1  0  0  0  0
 39 19  1  0  0  0  0
 40 22  1  0  0  0  0
 41 22  1  0  0  0  0
 42 22  1  0  0  0  0
M  END
