2,29
q = -2.0, confidence = 0.798

 54 57  0  0  1  0  0  0  0  0999 V2000
   -0.9843    1.5517    1.0350 C   0  0  1  0  0  3  0  0  0  0  0  0
   -0.5315    0.7176    2.1216 C   0  0  1  0  0  3  0  0  0  0  0  0
   -1.3338   -0.4573    2.1545 C   0  0  0  0  0  3  0  0  0  0  0  0
   -1.2025   -1.2906    2.8528 H   0  0  0  0  0  0  0  0  0  0  0  0
   -2.3531   -0.3444    1.1578 C   0  0  0  0  0  0  0  0  0  0  0  0
   -3.4264   -1.2339    0.8338 C   0  0  0  0  0  0  0  0  0  0  0  0
   -4.2962   -0.8171   -0.1621 C   0  0  0  0  0  0  0  0  0  0  0  0
   -5.1347   -1.4695   -0.4512 H   0  0  0  0  0  0  0  0  0  0  0  0
   -4.1530    0.4437   -0.8069 C   0  0  0  0  0  0  0  0  0  0  0  0
   -4.9147    0.7438   -1.5441 H   0  0  0  0  0  0  0  0  0  0  0  0
   -3.1232    1.3370   -0.5236 C   0  0  0  0  0  0  0  0  0  0  0  0
   -2.1558    0.9174    0.4588 C   0  0  0  0  0  0  0  0  0  0  0  0
   -0.3818    2.8894    0.6742 C   0  0  0  0  0  0  0  0  0  0  0  0
    0.3124    3.1730    1.4890 H   0  0  0  0  0  0  0  0  0  0  0  0
   -1.1610    3.6785    0.6651 H   0  0  0  0  0  0  0  0  0  0  0  0
    0.5941    1.0033    3.0775 C   0  0  0  0  0  0  0  0  0  0  0  0
    0.5161    2.0293    3.4919 H   0  0  0  0  0  0  0  0  0  0  0  0
    1.5950    0.9014    2.6120 H   0  0  0  0  0  0  0  0  0  0  0  0
    0.5620    0.2894    3.9213 H   0  0  0  0  0  0  0  0  0  0  0  0
   -3.5391   -2.5583    1.5263 C   0  0  0  0  0  0  0  0  0  0  0  0
   -3.5624   -2.4443    2.6305 H   0  0  0  0  0  0  0  0  0  0  0  0
   -2.6571   -3.1896    1.2830 H   0  0  0  0  0  0  0  0  0  0  0  0
   -4.4486   -3.1054    1.2137 H   0  0  0  0  0  0  0  0  0  0  0  0
   -3.1375    2.7177   -1.1262 C   0  0  0  0  0  0  0  0  0  0  0  0
   -2.2038    2.9684   -1.6661 H   0  0  0  0  0  0  0  0  0  0  0  0
   -3.2747    3.4940   -0.3445 H   0  0  0  0  0  0  0  0  0  0  0  0
   -3.9731    2.8194   -1.8449 H   0  0  0  0  0  0  0  0  0  0  0  0
    0.9843    1.5517   -1.0352 C   0  0  2  0  0  3  0  0  0  0  0  0
    0.5315    0.7175   -2.1217 C   0  0  1  0  0  3  0  0  0  0  0  0
    1.3338   -0.4574   -2.1545 C   0  0  0  0  0  3  0  0  0  0  0  0
   -0.5941    1.0031   -3.0776 C   0  0  0  0  0  0  0  0  0  0  0  0
   -0.5161    2.0291   -3.4920 H   0  0  0  0  0  0  0  0  0  0  0  0
   -1.5950    0.9011   -2.6122 H   0  0  0  0  0  0  0  0  0  0  0  0
   -0.5618    0.2893   -3.9214 H   0  0  0  0  0  0  0  0  0  0  0  0
    1.2026   -1.2907   -2.8527 H   0  0  0  0  0  0  0  0  0  0  0  0
    2.3531   -0.3444   -1.1578 C   0  0  0  0  0  0  0  0  0  0  0  0
    0.3818    2.8894   -0.6743 C   0  0  0  0  0  0  0  0  0  0  0  0
    2.1558    0.9174   -0.4588 C   0  0  0  0  0  0  0  0  0  0  0  0
    3.4265   -1.2338   -0.8338 C   0  0  0  0  0  0  0  0  0  0  0  0
    4.2963   -0.8169    0.1622 C   0  0  0  0  0  0  0  0  0  0  0  0
    5.1347   -1.4693    0.4513 H   0  0  0  0  0  0  0  0  0  0  0  0
    4.1529    0.4438    0.8070 C   0  0  0  0  0  0  0  0  0  0  0  0
    4.9145    0.7440    1.5443 H   0  0  0  0  0  0  0  0  0  0  0  0
    3.1230    1.3371    0.5236 C   0  0  0  0  0  0  0  0  0  0  0  0
    3.1372    2.7178    1.1263 C   0  0  0  0  0  0  0  0  0  0  0  0
    2.2034    2.9684    1.6660 H   0  0  0  0  0  0  0  0  0  0  0  0
    3.2743    3.4941    0.3445 H   0  0  0  0  0  0  0  0  0  0  0  0
    3.9726    2.8195    1.8451 H   0  0  0  0  0  0  0  0  0  0  0  0
    3.5393   -2.5582   -1.5262 C   0  0  0  0  0  0  0  0  0  0  0  0
    3.5626   -2.4443   -2.6304 H   0  0  0  0  0  0  0  0  0  0  0  0
    2.6573   -3.1896   -1.2828 H   0  0  0  0  0  0  0  0  0  0  0  0
    4.4488   -3.1053   -1.2135 H   0  0  0  0  0  0  0  0  0  0  0  0
   -0.3124    3.1730   -1.4891 H   0  0  0  0  0  0  0  0  0  0  0  0
    1.1610    3.6785   -0.6653 H   0  0  0  0  0  0  0  0  0  0  0  0
  1 13  1  1  0  0  0
  1  2  1  0  0  0  0
  2  3  1  0  0  0  0
  2 16  1  6  0  0  0
  3  4  1  0  0  0  0
  5  3  1  0  0  0  0
  6  5  1  0  0  0  0
  6 20  1  0  0  0  0
  7  6  2  0  0  0  0
  8  7  1  0  0  0  0
  9 11  2  0  0  0  0
  9  7  1  0  0  0  0
 10  9  1  0  0  0  0
 11 12  1  0  0  0  0
 12  1  1  0  0  0  0
 12  5  2  0  0  0  0
 13 14  1  0  0  0  0
 15 13  1  0  0  0  0
 16 17  1  0  0  0  0
 16 19  1  0  0  0  0
 18 16  1  0  0  0  0
 20 21  1  0  0  0  0
 22 20  1  0  0  0  0
 23 20  1  0  0  0  0
 24 11  1  0  0  0  0
 24 26  1  0  0  0  0
 25 24  1  0  0  0  0
 27 24  1  0  0  0  0
 28 37  1  6  0  0  0
 28 38  1  0  0  0  0
 29 31  1  1  0  0  0
 29 28  1  0  0  0  0
 30 29  1  0  0  0  0
 30 36  1  0  0  0  0
 31 33  1  0  0  0  0
 32 31  1  0  0  0  0
 34 31  1  0  0  0  0
 35 30  1  0  0  0  0
 36 39  2  0  0  0  0
 36 38  1  0  0  0  0
 37 54  1  0  0  0  0
 37 13  1  0  0  0  0
 38 44  2  0  0  0  0
 39 40  1  0  0  0  0
 40 41  1  0  0  0  0
 40 42  2  0  0  0  0
 42 43  1  0  0  0  0
 44 42  1  0  0  0  0
 44 45  1  0  0  0  0
 45 46  1  0  0  0  0
 45 48  1  0  0  0  0
 47 45  1  0  0  0  0
 49 51  1  0  0  0  0
 49 52  1  0  0  0  0
 49 39  1  0  0  0  0
 50 49  1  0  0  0  0
 53 37  1  0  0  0  0
M  END
