4,12
q = 0.0, confidence = 0.996

 35 36  0  0  0  0  0  0  0  0999 V2000
   -2.2558    1.4547   -0.4921 O   0  0  0  0  0  0  0  0  0  0  0  0
    0.3588    2.8282   -0.7727 N   0  0  0  0  0  0  0  0  0  0  0  0
   -3.0976   -1.2801    0.3705 N   0  0  0  0  0  0  0  0  0  0  0  0
   -1.7547   -1.4976    0.1624 C   0  0  0  0  0  2  0  0  0  0  0  0
    2.3504    1.6521    1.9628 C   0  0  0  0  0  0  0  0  0  0  0  0
    1.5862    1.0808    2.5249 H   0  0  0  0  0  0  0  0  0  0  0  0
    2.8143    2.4031    2.6284 H   0  0  0  0  0  0  0  0  0  0  0  0
    3.1302    0.9659    1.5799 H   0  0  0  0  0  0  0  0  0  0  0  0
    1.0865    3.9801   -0.5030 C   0  0  0  0  0  0  0  0  0  0  0  0
    0.9495    4.9084   -1.0653 H   0  0  0  0  0  0  0  0  0  0  0  0
    1.6871    2.3460    0.8662 N   0  0  0  0  0  0  0  0  0  0  0  0
    0.7142    1.7929    0.0668 C   0  0  0  0  0  2  0  0  0  0  0  0
   -2.9509   -3.3954   -0.2508 C   0  0  0  0  0  0  0  0  0  0  0  0
   -3.1064   -4.4430   -0.5251 H   0  0  0  0  0  0  0  0  0  0  0  0
    1.9335    3.6683    0.5272 C   0  0  0  0  0  0  0  0  0  0  0  0
    2.6855    4.2734    1.0421 H   0  0  0  0  0  0  0  0  0  0  0  0
   -1.6914   -2.8128   -0.2236 N   0  0  0  0  0  0  0  0  0  0  0  0
   -0.4576   -3.4945   -0.5894 C   0  0  0  0  0  0  0  0  0  0  0  0
   -0.7093   -4.4447   -1.0953 H   0  0  0  0  0  0  0  0  0  0  0  0
    0.1527   -3.7088    0.3095 H   0  0  0  0  0  0  0  0  0  0  0  0
    0.1161   -2.8420   -1.2758 H   0  0  0  0  0  0  0  0  0  0  0  0
   -3.8443   -2.4242    0.1171 C   0  0  0  0  0  0  0  0  0  0  0  0
   -4.9319   -2.4545    0.2301 H   0  0  0  0  0  0  0  0  0  0  0  0
   -3.6029    1.1011   -0.2277 C   0  0  0  0  0  0  0  0  0  0  0  0
   -4.1062    0.7895   -1.1755 H   0  0  0  0  0  0  0  0  0  0  0  0
   -4.1553    1.9805    0.1814 H   0  0  0  0  0  0  0  0  0  0  0  0
   -2.0938    2.6428   -1.2483 C   0  0  0  0  0  0  0  0  0  0  0  0
   -2.3373    3.5300   -0.6140 H   0  0  0  0  0  0  0  0  0  0  0  0
   -2.7922    2.6412   -2.1187 H   0  0  0  0  0  0  0  0  0  0  0  0
   -0.6744    2.7229   -1.7964 C   0  0  0  0  0  0  0  0  0  0  0  0
   -0.4710    1.8053   -2.3892 H   0  0  0  0  0  0  0  0  0  0  0  0
   -0.5976    3.6110   -2.4532 H   0  0  0  0  0  0  0  0  0  0  0  0
   -3.6516   -0.0057    0.8167 C   0  0  0  0  0  0  0  0  0  0  0  0
   -3.0692    0.3187    1.7069 H   0  0  0  0  0  0  0  0  0  0  0  0
   -4.7064   -0.1754    1.1069 H   0  0  0  0  0  0  0  0  0  0  0  0
  1 24  1  0  0  0  0
  2  9  1  0  0  0  0
  2 12  1  0  0  0  0
  3 33  1  0  0  0  0
  4  3  1  0  0  0  0
  5  6  1  0  0  0  0
  5  7  1  0  0  0  0
  8  5  1  0  0  0  0
  9 15  2  0  0  0  0
 10  9  1  0  0  0  0
 11  5  1  0  0  0  0
 12 11  1  0  0  0  0
 13 17  1  0  0  0  0
 13 22  2  0  0  0  0
 14 13  1  0  0  0  0
 15 11  1  0  0  0  0
 15 16  1  0  0  0  0
 17  4  1  0  0  0  0
 18 17  1  0  0  0  0
 18 20  1  0  0  0  0
 19 18  1  0  0  0  0
 21 18  1  0  0  0  0
 22 23  1  0  0  0  0
 22  3  1  0  0  0  0
 24 26  1  0  0  0  0
 24 33  1  0  0  0  0
 25 24  1  0  0  0  0
 27 28  1  0  0  0  0
 27  1  1  0  0  0  0
 29 27  1  0  0  0  0
 30 27  1  0  0  0  0
 30  2  1  0  0  0  0
 31 30  1  0  0  0  0
 32 30  1  0  0  0  0
 33 35  1  0  0  0  0
 33 34  1  0  0  0  0
M  END
