2,11
q = -1.0

 30 31  0  0  0  0  0  0  0  0999 V2000
    1.8470    1.1931    0.3261 C   0  0  0  0  0  0  0  0  0  0  0  0
    0.4271    1.4016    0.2601 C   0  0  0  0  0  3  0  0  0  0  0  0
   -0.0292    2.7385    0.3676 C   0  0  0  0  0  0  0  0  0  0  0  0
   -1.1095    2.9372    0.3013 H   0  0  0  0  0  0  0  0  0  0  0  0
    0.8370    3.8244    0.5459 C   0  0  0  0  0  0  0  0  0  0  0  0
    0.4277    4.8439    0.6224 H   0  0  0  0  0  0  0  0  0  0  0  0
    2.2239    3.6087    0.6425 C   0  0  0  0  0  0  0  0  0  0  0  0
    2.9122    4.4486    0.8149 H   0  0  0  0  0  0  0  0  0  0  0  0
    2.7140    2.3111    0.5327 C   0  0  0  0  0  0  0  0  0  0  0  0
    3.7931    2.1348    0.6394 H   0  0  0  0  0  0  0  0  0  0  0  0
    0.3089   -1.4109    0.5186 C   0  0  0  0  0  2  0  0  0  0  0  0
    1.7194   -1.3188    0.4305 C   0  0  0  0  0  0  0  0  0  0  0  0
    2.3134   -2.2455    0.4364 H   0  0  0  0  0  0  0  0  0  0  0  0
    2.4425   -0.1358    0.2615 C   0  0  0  0  0  0  0  0  0  0  0  0
   -0.2482   -2.5861    0.8653 O   0  0  0  0  0  0  0  0  0  0  0  0
    0.5472   -3.7349    1.2149 C   0  0  0  0  0  0  0  0  0  0  0  0
    1.1082   -4.1096    0.3346 H   0  0  0  0  0  0  0  0  0  0  0  0
   -0.1705   -4.5055    1.5476 H   0  0  0  0  0  0  0  0  0  0  0  0
    1.2529   -3.4986    2.0368 H   0  0  0  0  0  0  0  0  0  0  0  0
    3.9010   -0.2856    0.0365 C   0  0  0  0  0  0  0  0  0  0  0  0
    4.5263    0.3756   -1.0489 C   0  0  0  0  0  0  0  0  0  0  0  0
    3.9267    1.0267   -1.7022 H   0  0  0  0  0  0  0  0  0  0  0  0
    5.8867    0.1764   -1.3140 C   0  0  0  0  0  0  0  0  0  0  0  0
    6.3541    0.6819   -2.1720 H   0  0  0  0  0  0  0  0  0  0  0  0
    6.6516   -0.6656   -0.4901 C   0  0  0  0  0  0  0  0  0  0  0  0
    7.7230   -0.8111   -0.6933 H   0  0  0  0  0  0  0  0  0  0  0  0
    6.0459   -1.3192    0.5953 C   0  0  0  0  0  0  0  0  0  0  0  0
    6.6437   -1.9688    1.2517 H   0  0  0  0  0  0  0  0  0  0  0  0
    4.6801   -1.1413    0.8499 C   0  0  0  0  0  0  0  0  0  0  0  0
    4.2137   -1.6400    1.7131 H   0  0  0  0  0  0  0  0  0  0  0  0
  1  9  1  0  0  0  0
  2  1  2  0  0  0  0
  2  3  1  0  0  0  0
  3  5  2  0  0  0  0
  4  3  1  0  0  0  0
  5  6  1  0  0  0  0
  5  7  1  0  0  0  0
  7  8  1  0  0  0  0
  9 10  1  0  0  0  0
  9  7  2  0  0  0  0
 11 15  1  0  0  0  0
 12 13  1  0  0  0  0
 12 11  1  0  0  0  0
 14  1  1  0  0  0  0
 14 12  2  0  0  0  0
 15 16  1  0  0  0  0
 16 18  1  0  0  0  0
 16 19  1  0  0  0  0
 17 16  1  0  0  0  0
 20 14  1  0  0  0  0
 20 29  1  0  0  0  0
 21 20  2  0  0  0  0
 22 21  1  0  0  0  0
 23 21  1  0  0  0  0
 23 25  2  0  0  0  0
 24 23  1  0  0  0  0
 25 27  1  0  0  0  0
 26 25  1  0  0  0  0
 27 29  2  0  0  0  0
 27 28  1  0  0  0  0
 29 30  1  0  0  0  0
M  END
