1,7
q = -2.0, confidence = 0.61

 20 20  0  0  0  0  0  0  0  0999 V2000
   -0.7563    1.8680    0.2056 C   0  0  0  0  0  3  0  0  0  0  0  0
   -2.0858    1.7069   -0.1102 C   0  0  0  0  0  0  0  0  0  0  0  0
   -3.9398   -0.0186   -0.3663 C   0  0  0  0  0  0  0  0  0  0  0  0
   -4.3756   -1.3500   -0.2747 C   0  0  0  0  0  0  0  0  0  0  0  0
   -3.4762   -2.3488    0.1236 C   0  0  0  0  0  0  0  0  0  0  0  0
   -2.1388   -2.0097    0.4113 C   0  0  0  0  0  0  0  0  0  0  0  0
   -1.6647   -0.6884    0.3113 C   0  0  0  0  0  3  0  0  0  0  0  0
   -2.6011    0.3240   -0.0724 C   0  0  0  0  0  0  0  0  0  0  0  0
   -0.0885    3.2198    0.2710 C   0  0  0  0  0  0  0  0  0  0  0  0
   -3.0391    2.8211   -0.4635 C   0  0  0  0  0  0  0  0  0  0  0  0
   -4.6554    0.7610   -0.6692 H   0  0  0  0  0  0  0  0  0  0  0  0
   -5.4214   -1.6039   -0.5075 H   0  0  0  0  0  0  0  0  0  0  0  0
   -3.8107   -3.3947    0.2116 H   0  0  0  0  0  0  0  0  0  0  0  0
   -1.4564   -2.8178    0.7232 H   0  0  0  0  0  0  0  0  0  0  0  0
   -0.0888    3.6018    1.3173 H   0  0  0  0  0  0  0  0  0  0  0  0
    0.9795    3.1819   -0.0275 H   0  0  0  0  0  0  0  0  0  0  0  0
   -0.5766    3.9963   -0.3557 H   0  0  0  0  0  0  0  0  0  0  0  0
   -3.8589    2.8950    0.2840 H   0  0  0  0  0  0  0  0  0  0  0  0
   -2.5443    3.8086   -0.5084 H   0  0  0  0  0  0  0  0  0  0  0  0
   -3.5312    2.6416   -1.4438 H   0  0  0  0  0  0  0  0  0  0  0  0
  1  9  1  0  0  0  0
  2  8  1  0  0  0  0
  2  1  2  0  0  0  0
  3  4  2  0  0  0  0
  3  8  1  0  0  0  0
  4  5  1  0  0  0  0
  5 13  1  0  0  0  0
  5  6  2  0  0  0  0
  6 14  1  0  0  0  0
  7  6  1  0  0  0  0
  8  7  2  0  0  0  0
  9 15  1  0  0  0  0
 10  2  1  0  0  0  0
 10 18  1  0  0  0  0
 11  3  1  0  0  0  0
 12  4  1  0  0  0  0
 16  9  1  0  0  0  0
 17  9  1  0  0  0  0
 19 10  1  0  0  0  0
 20 10  1  0  0  0  0
M  END
