1,8
q = 0.0, confidence = 1.0

 36 37  0  0  0  0  0  0  0  0999 V2000
   -0.4649    0.5811    0.5505 C   0  0  0  0  0  3  0  0  0  0  0  0
    0.6561    1.4443    0.2072 C   0  0  0  0  0  0  0  0  0  0  0  0
    1.3062    2.5014    0.9101 C   0  0  0  0  0  0  0  0  0  0  0  0
    2.3629    3.1537    0.2941 C   0  0  0  0  0  0  0  0  0  0  0  0
    2.8146    2.7783   -1.0067 C   0  0  0  0  0  0  0  0  0  0  0  0
    2.2156    1.7449   -1.7093 C   0  0  0  0  0  0  0  0  0  0  0  0
    1.1116    1.0639   -1.1152 C   0  0  0  0  0  0  0  0  0  0  0  0
    0.2841   -0.0348   -1.5808 C   0  0  0  0  0  3  0  0  0  0  0  0
   -0.7397   -0.2686   -0.6008 C   0  0  0  0  0  3  0  0  0  0  0  0
   -1.8388   -1.1055   -0.7516 N   0  0  0  0  0  0  0  0  0  0  0  0
   -1.8251   -2.0919   -1.8279 C   0  0  0  0  0  0  0  0  0  0  0  0
   -2.8208   -2.5670   -1.9040 H   0  0  0  0  0  0  0  0  0  0  0  0
   -1.0639   -2.8862   -1.6609 H   0  0  0  0  0  0  0  0  0  0  0  0
   -1.6169   -1.6007   -2.7980 H   0  0  0  0  0  0  0  0  0  0  0  0
   -2.6497   -1.3711    0.4262 C   0  0  0  0  0  0  0  0  0  0  0  0
   -2.0338   -1.3023    1.3482 H   0  0  0  0  0  0  0  0  0  0  0  0
   -3.0237   -2.4139    0.4067 H   0  0  0  0  0  0  0  0  0  0  0  0
   -3.8676   -0.4391    0.5173 C   0  0  0  0  0  0  0  0  0  0  0  0
   -4.6369   -0.6963   -0.2358 H   0  0  0  0  0  0  0  0  0  0  0  0
   -4.3346   -0.5046    1.5186 H   0  0  0  0  0  0  0  0  0  0  0  0
   -3.4827    1.0162    0.2672 N   0  3  0  0  0  0  0  0  0  0  0  0
   -4.0787    1.9505    1.2695 C   0  0  0  0  0  0  0  0  0  0  0  0
   -5.1811    1.8958    1.2056 H   0  0  0  0  0  0  0  0  0  0  0  0
   -3.7427    2.9801    1.0488 H   0  0  0  0  0  0  0  0  0  0  0  0
   -3.7465    1.6578    2.2821 H   0  0  0  0  0  0  0  0  0  0  0  0
   -3.7691    1.4446   -1.1391 C   0  0  0  0  0  0  0  0  0  0  0  0
   -3.2818    0.7273   -1.8215 H   0  0  0  0  0  0  0  0  0  0  0  0
   -3.3562    2.4576   -1.2961 H   0  0  0  0  0  0  0  0  0  0  0  0
   -4.8636    1.4526   -1.2966 H   0  0  0  0  0  0  0  0  0  0  0  0
   -0.9494    0.5559    1.5356 H   0  0  0  0  0  0  0  0  0  0  0  0
    2.5666    1.4581   -2.7111 H   0  0  0  0  0  0  0  0  0  0  0  0
    2.8716    3.9756    0.8191 H   0  0  0  0  0  0  0  0  0  0  0  0
    0.3666   -0.5191   -2.5585 H   0  0  0  0  0  0  0  0  0  0  0  0
    3.6601    3.3204   -1.4550 H   0  0  0  0  0  0  0  0  0  0  0  0
    0.9684    2.7918    1.9157 H   0  0  0  0  0  0  0  0  0  0  0  0
   -2.4340    1.0686    0.3731 H   0  0  0  0  0  0  0  0  0  0  0  0
  1 30  1  0  0  0  0
  2  1  1  0  0  0  0
  2  3  1  0  0  0  0
  3 35  1  0  0  0  0
  4 32  1  0  0  0  0
  4  3  2  0  0  0  0
  5  4  1  0  0  0  0
  6  7  1  0  0  0  0
  6  5  2  0  0  0  0
  7  2  2  0  0  0  0
  8  7  1  0  0  0  0
  8  9  1  0  0  0  0
  9  1  1  0  0  0  0
 10  9  1  0  0  0  0
 10 15  1  0  0  0  0
 11 13  1  0  0  0  0
 11 10  1  0  0  0  0
 12 11  1  0  0  0  0
 14 11  1  0  0  0  0
 15 18  1  0  0  0  0
 15 16  1  0  0  0  0
 17 15  1  0  0  0  0
 18 20  1  0  0  0  0
 19 18  1  0  0  0  0
 21 36  1  0  0  0  0
 21 18  1  0  0  0  0
 21 22  1  0  0  0  0
 22 25  1  0  0  0  0
 23 22  1  0  0  0  0
 24 22  1  0  0  0  0
 26 21  1  0  0  0  0
 27 26  1  0  0  0  0
 28 26  1  0  0  0  0
 29 26  1  0  0  0  0
 31  6  1  0  0  0  0
 33  8  1  0  0  0  0
 34  5  1  0  0  0  0
M  CHG  1  21   1
M  END
