2,5
q = -1.0

 34 34  0  0  0  0  0  0  0  0999 V2000
   -1.9599   -1.4202   -0.7581 P   0  0  0  0  0  4  0  0  0  0  0  0
   -1.0969   -0.8860    0.7062 C   0  0  0  0  0  3  0  0  0  0  0  0
   -1.6360    0.3461    1.4848 C   0  0  0  0  0  0  0  0  0  0  0  0
   -1.2894    1.5152    0.5688 C   0  0  0  0  0  0  0  0  0  0  0  0
   -0.1336    1.2826   -0.2369 C   0  0  0  0  0  3  0  0  0  0  0  0
    0.1654    2.2525   -1.2206 C   0  0  0  0  0  0  0  0  0  0  0  0
   -0.6082    3.4204   -1.3670 C   0  0  0  0  0  0  0  0  0  0  0  0
   -1.7036    3.6533   -0.5223 C   0  0  0  0  0  0  0  0  0  0  0  0
   -2.0459    2.6900    0.4455 C   0  0  0  0  0  0  0  0  0  0  0  0
   -3.4579   -2.4389   -0.4145 C   0  0  0  0  0  0  0  0  0  0  0  0
   -2.5424   -0.0912   -1.8592 C   0  0  0  0  0  0  0  0  0  0  0  0
   -0.9149   -2.5159   -1.7675 C   0  0  0  0  0  0  0  0  0  0  0  0
   -3.1288    0.2653    1.8523 C   0  0  0  0  0  0  0  0  0  0  0  0
   -0.8201    0.4549    2.7945 C   0  0  0  0  0  0  0  0  0  0  0  0
   -0.9771   -1.7950    1.3352 H   0  0  0  0  0  0  0  0  0  0  0  0
    1.0091    2.0948   -1.9102 H   0  0  0  0  0  0  0  0  0  0  0  0
   -0.3488    4.1537   -2.1477 H   0  0  0  0  0  0  0  0  0  0  0  0
   -2.3013    4.5723   -0.6247 H   0  0  0  0  0  0  0  0  0  0  0  0
   -2.9278    2.8543    1.0859 H   0  0  0  0  0  0  0  0  0  0  0  0
   -4.1922   -1.8459    0.1618 H   0  0  0  0  0  0  0  0  0  0  0  0
   -3.1550   -3.3146    0.1923 H   0  0  0  0  0  0  0  0  0  0  0  0
   -3.9240   -2.7916   -1.3561 H   0  0  0  0  0  0  0  0  0  0  0  0
   -1.6763    0.5079   -2.1961 H   0  0  0  0  0  0  0  0  0  0  0  0
   -3.2309    0.5847   -1.3192 H   0  0  0  0  0  0  0  0  0  0  0  0
   -3.0614   -0.5527   -2.7227 H   0  0  0  0  0  0  0  0  0  0  0  0
   -0.3565   -3.1942   -1.0906 H   0  0  0  0  0  0  0  0  0  0  0  0
   -0.1594   -1.9004   -2.2918 H   0  0  0  0  0  0  0  0  0  0  0  0
   -1.5381   -3.0729   -2.4955 H   0  0  0  0  0  0  0  0  0  0  0  0
   -3.3434   -0.6749    2.4012 H   0  0  0  0  0  0  0  0  0  0  0  0
   -3.7847    0.3057    0.9581 H   0  0  0  0  0  0  0  0  0  0  0  0
   -3.4305    1.1057    2.5109 H   0  0  0  0  0  0  0  0  0  0  0  0
    0.2619    0.5091    2.5619 H   0  0  0  0  0  0  0  0  0  0  0  0
   -0.9882   -0.4301    3.4432 H   0  0  0  0  0  0  0  0  0  0  0  0
   -1.1085    1.3671    3.3556 H   0  0  0  0  0  0  0  0  0  0  0  0
  1 10  1  0  0  0  0
  1  2  1  0  0  0  0
  2 15  1  0  0  0  0
  2  3  1  0  0  0  0
  3 13  1  0  0  0  0
  3 14  1  0  0  0  0
  4  3  1  0  0  0  0
  5  4  2  0  0  0  0
  6  5  1  0  0  0  0
  7  6  2  0  0  0  0
  7  8  1  0  0  0  0
  8  9  2  0  0  0  0
  9  4  1  0  0  0  0
  9 19  1  0  0  0  0
 10 20  1  0  0  0  0
 10 21  1  0  0  0  0
 11 24  1  0  0  0  0
 11  1  1  0  0  0  0
 12 26  1  0  0  0  0
 12  1  1  0  0  0  0
 13 29  1  0  0  0  0
 13 31  1  0  0  0  0
 14 34  1  0  0  0  0
 14 33  1  0  0  0  0
 16  6  1  0  0  0  0
 17  7  1  0  0  0  0
 18  8  1  0  0  0  0
 22 10  1  0  0  0  0
 23 11  1  0  0  0  0
 25 11  1  0  0  0  0
 27 12  1  0  0  0  0
 28 12  1  0  0  0  0
 30 13  1  0  0  0  0
 32 14  1  0  0  0  0
M  END
