6,8
q = -1.0

 39 40  0  0  0  0  0  0  0  0999 V2000
    3.1865    2.2867   -0.0291 C   0  0  0  0  0  0  0  0  0  0  0  0
    3.7598    2.5077   -0.9555 H   0  0  0  0  0  0  0  0  0  0  0  0
    3.8644    2.5535    0.8100 H   0  0  0  0  0  0  0  0  0  0  0  0
    2.2958    2.9416    0.0081 H   0  0  0  0  0  0  0  0  0  0  0  0
    2.8184    0.8250    0.0372 C   0  0  0  0  0  0  0  0  0  0  0  0
    1.5294    0.3979    0.1236 C   0  0  0  0  0  3  0  0  0  0  0  0
    1.0804   -1.4643    0.0843 Si  0  0  0  0  0  0  0  0  0  0  0  0
   -0.8181   -1.3523   -0.0043 C   0  0  0  0  0  3  0  0  0  0  0  0
   -2.0596   -1.4769   -0.0545 C   0  0  0  0  0  0  0  0  0  0  0  0
    1.6370   -2.3185   -1.4965 C   0  0  0  0  0  0  0  0  0  0  0  0
    1.1838   -3.3266   -1.5753 H   0  0  0  0  0  0  0  0  0  0  0  0
    2.7407   -2.4213   -1.4732 H   0  0  0  0  0  0  0  0  0  0  0  0
    1.3637   -1.7282   -2.3920 H   0  0  0  0  0  0  0  0  0  0  0  0
    1.4122   -2.4866    1.6329 C   0  0  0  0  0  0  0  0  0  0  0  0
    0.7490   -3.3744    1.6479 H   0  0  0  0  0  0  0  0  0  0  0  0
    1.2523   -1.9045    2.5605 H   0  0  0  0  0  0  0  0  0  0  0  0
    2.4647   -2.8310    1.6146 H   0  0  0  0  0  0  0  0  0  0  0  0
    3.9734   -0.1269   -0.0128 C   0  0  0  0  0  0  0  0  0  0  0  0
    4.3400   -0.8770    1.1248 C   0  0  0  0  0  0  0  0  0  0  0  0
    3.7957   -0.7220    2.0686 H   0  0  0  0  0  0  0  0  0  0  0  0
    5.4010   -1.7946    1.0641 C   0  0  0  0  0  0  0  0  0  0  0  0
    5.6818   -2.3659    1.9618 H   0  0  0  0  0  0  0  0  0  0  0  0
    6.1080   -1.9749   -0.1345 C   0  0  0  0  0  0  0  0  0  0  0  0
    6.9373   -2.6961   -0.1837 H   0  0  0  0  0  0  0  0  0  0  0  0
    5.7623   -1.2202   -1.2682 C   0  0  0  0  0  0  0  0  0  0  0  0
    6.3185   -1.3522   -2.2085 H   0  0  0  0  0  0  0  0  0  0  0  0
    4.7111   -0.2945   -1.2056 C   0  0  0  0  0  0  0  0  0  0  0  0
    4.4441    0.2920   -2.0988 H   0  0  0  0  0  0  0  0  0  0  0  0
   -3.4727   -1.6265   -0.1154 C   0  0  0  0  0  0  0  0  0  0  0  0
   -4.1414   -1.6035   -1.3688 C   0  0  0  0  0  3  0  0  0  0  0  0
   -3.5564   -1.4860   -2.2926 H   0  0  0  0  0  0  0  0  0  0  0  0
   -5.5311   -1.7474   -1.4201 C   0  0  0  0  0  0  0  0  0  0  0  0
   -6.0460   -1.7331   -2.3919 H   0  0  0  0  0  0  0  0  0  0  0  0
   -6.2678   -1.9189   -0.2348 C   0  0  0  0  0  0  0  0  0  0  0  0
   -7.3610   -2.0332   -0.2816 H   0  0  0  0  0  0  0  0  0  0  0  0
   -5.6133   -1.9556    1.0088 C   0  0  0  0  0  0  0  0  0  0  0  0
   -6.1920   -2.1036    1.9323 H   0  0  0  0  0  0  0  0  0  0  0  0
   -4.2241   -1.8121    1.0759 C   0  0  0  0  0  0  0  0  0  0  0  0
   -3.7028   -1.8579    2.0433 H   0  0  0  0  0  0  0  0  0  0  0  0
  1  4  1  0  0  0  0
  1  5  1  0  0  0  0
  1  3  1  0  0  0  0
  2  1  1  0  0  0  0
  5  6  2  0  0  0  0
  7  6  1  0  0  0  0
  7 14  1  0  0  0  0
  8  7  1  0  0  0  0
  9  8  2  0  0  0  0
 10 12  1  0  0  0  0
 10  7  1  0  0  0  0
 11 10  1  0  0  0  0
 13 10  1  0  0  0  0
 14 15  1  0  0  0  0
 14 16  1  0  0  0  0
 17 14  1  0  0  0  0
 18  5  1  0  0  0  0
 18 19  1  0  0  0  0
 19 20  1  0  0  0  0
 21 19  2  0  0  0  0
 21 22  1  0  0  0  0
 23 21  1  0  0  0  0
 24 23  1  0  0  0  0
 25 27  1  0  0  0  0
 25 23  2  0  0  0  0
 26 25  1  0  0  0  0
 27 18  2  0  0  0  0
 28 27  1  0  0  0  0
 29  9  2  0  0  0  0
 29 38  1  0  0  0  0
 30 29  1  0  0  0  0
 31 30  1  0  0  0  0
 32 30  1  0  0  0  0
 32 34  2  0  0  0  0
 33 32  1  0  0  0  0
 34 36  1  0  0  0  0
 35 34  1  0  0  0  0
 36 38  2  0  0  0  0
 36 37  1  0  0  0  0
 38 39  1  0  0  0  0
M  END
