3,17
q = -1.0

 40 42  0  0  0  0  0  0  0  0999 V2000
    0.4161    2.0098   -0.3281 N   0  0  0  0  0  0  0  0  0  0  0  0
   -1.2634    0.8124    0.3469 N   0  0  0  0  0  0  0  0  0  0  0  0
    2.4319    0.9245   -0.8459 C   0  0  0  0  0  3  0  0  0  0  0  0
    3.7369    0.9690   -1.3748 C   0  0  0  0  0  0  0  0  0  0  0  0
    4.3114    0.0366   -1.4880 H   0  0  0  0  0  0  0  0  0  0  0  0
    4.3226    2.1819   -1.7841 C   0  0  0  0  0  0  0  0  0  0  0  0
    5.3478    2.1823   -2.1862 H   0  0  0  0  0  0  0  0  0  0  0  0
    3.6097    3.3889   -1.6924 C   0  0  0  0  0  0  0  0  0  0  0  0
    4.0711    4.3347   -2.0129 H   0  0  0  0  0  0  0  0  0  0  0  0
    2.2931    3.3831   -1.2049 C   0  0  0  0  0  0  0  0  0  0  0  0
    1.7124    4.3165   -1.1499 H   0  0  0  0  0  0  0  0  0  0  0  0
    1.7381    2.1616   -0.8038 C   0  0  0  0  0  0  0  0  0  0  0  0
   -0.6556    2.8811   -0.2089 C   0  0  0  0  0  0  0  0  0  0  0  0
   -0.5898    3.9454   -0.4486 H   0  0  0  0  0  0  0  0  0  0  0  0
   -1.7186    2.1246    0.2179 C   0  0  0  0  0  0  0  0  0  0  0  0
   -2.7603    2.3944    0.4110 H   0  0  0  0  0  0  0  0  0  0  0  0
    0.0602    0.7267    0.0137 C   0  0  0  0  0  2  0  0  0  0  0  0
   -2.0811   -0.3362    0.7625 C   0  0  0  0  0  0  0  0  0  0  0  0
   -1.9432   -0.4926    1.8511 H   0  0  0  0  0  0  0  0  0  0  0  0
   -1.6424   -1.2122    0.2487 H   0  0  0  0  0  0  0  0  0  0  0  0
   -3.5416   -0.1603    0.4230 C   0  0  0  0  0  0  0  0  0  0  0  0
   -3.9917   -0.4559   -0.8917 C   0  0  0  0  0  0  0  0  0  0  0  0
   -5.3458   -0.2474   -1.2047 C   0  0  0  0  0  0  0  0  0  0  0  0
   -5.6924   -0.4752   -2.2261 H   0  0  0  0  0  0  0  0  0  0  0  0
   -6.2664    0.2419   -0.2591 C   0  0  0  0  0  0  0  0  0  0  0  0
   -5.7958    0.5261    1.0339 C   0  0  0  0  0  0  0  0  0  0  0  0
   -6.4987    0.9134    1.7893 H   0  0  0  0  0  0  0  0  0  0  0  0
   -4.4477    0.3354    1.3934 C   0  0  0  0  0  0  0  0  0  0  0  0
   -3.9988    0.6684    2.7985 C   0  0  0  0  0  0  0  0  0  0  0  0
   -4.8292    1.1047    3.3856 H   0  0  0  0  0  0  0  0  0  0  0  0
   -3.1616    1.3974    2.8119 H   0  0  0  0  0  0  0  0  0  0  0  0
   -3.6468   -0.2321    3.3453 H   0  0  0  0  0  0  0  0  0  0  0  0
   -3.0472   -0.9931   -1.9361 C   0  0  0  0  0  0  0  0  0  0  0  0
   -2.6596   -1.9961   -1.6570 H   0  0  0  0  0  0  0  0  0  0  0  0
   -2.1435   -0.3655   -2.0785 H   0  0  0  0  0  0  0  0  0  0  0  0
   -3.5519   -1.0951   -2.9153 H   0  0  0  0  0  0  0  0  0  0  0  0
   -7.7150    0.4409   -0.6286 C   0  0  0  0  0  0  0  0  0  0  0  0
   -8.2148   -0.5313   -0.8247 H   0  0  0  0  0  0  0  0  0  0  0  0
   -7.8170    1.0439   -1.5542 H   0  0  0  0  0  0  0  0  0  0  0  0
   -8.2778    0.9509    0.1770 H   0  0  0  0  0  0  0  0  0  0  0  0
  1 13  1  0  0  0  0
  1 17  1  0  0  0  0
  2 18  1  0  0  0  0
  3 12  1  0  0  0  0
  4  3  2  0  0  0  0
  5  4  1  0  0  0  0
  6  8  2  0  0  0  0
  6  4  1  0  0  0  0
  7  6  1  0  0  0  0
  8 10  1  0  0  0  0
  9  8  1  0  0  0  0
 10 11  1  0  0  0  0
 10 12  2  0  0  0  0
 12  1  1  0  0  0  0
 13 15  2  0  0  0  0
 14 13  1  0  0  0  0
 15  2  1  0  0  0  0
 15 16  1  0  0  0  0
 17  2  1  0  0  0  0
 18 19  1  0  0  0  0
 20 18  1  0  0  0  0
 21 18  1  0  0  0  0
 21 28  1  0  0  0  0
 22 21  2  0  0  0  0
 23 22  1  0  0  0  0
 23 25  2  0  0  0  0
 24 23  1  0  0  0  0
 25 26  1  0  0  0  0
 26 28  2  0  0  0  0
 26 27  1  0  0  0  0
 28 29  1  0  0  0  0
 29 31  1  0  0  0  0
 29 32  1  0  0  0  0
 29 30  1  0  0  0  0
 33 34  1  0  0  0  0
 33 22  1  0  0  0  0
 35 33  1  0  0  0  0
 36 33  1  0  0  0  0
 37 25  1  0  0  0  0
 37 40  1  0  0  0  0
 38 37  1  0  0  0  0
 39 37  1  0  0  0  0
M  END
