4,24
q = -1.0

 46 49  0  0  0  0  0  0  0  0999 V2000
   -0.4447    1.8847   -0.1782 N   0  0  0  0  0  0  0  0  0  0  0  0
    1.1694    0.5181    0.4458 N   0  0  0  0  0  0  0  0  0  0  0  0
    3.3475   -0.7444    0.3882 C   0  0  0  0  0  0  0  0  0  0  0  0
   -2.4912    0.9055   -0.7832 C   0  0  0  0  0  3  0  0  0  0  0  0
   -3.7811    1.0061   -1.3384 C   0  0  0  0  0  0  0  0  0  0  0  0
   -4.3755    0.0945   -1.5022 H   0  0  0  0  0  0  0  0  0  0  0  0
   -4.3215    2.2491   -1.7179 C   0  0  0  0  0  0  0  0  0  0  0  0
   -5.3354    2.2951   -2.1450 H   0  0  0  0  0  0  0  0  0  0  0  0
   -3.5717    3.4248   -1.5662 C   0  0  0  0  0  0  0  0  0  0  0  0
   -3.9916    4.3971   -1.8640 H   0  0  0  0  0  0  0  0  0  0  0  0
   -2.2677    3.3620   -1.0489 C   0  0  0  0  0  0  0  0  0  0  0  0
   -1.6739    4.2796   -0.9574 H   0  0  0  0  0  0  0  0  0  0  0  0
   -1.7507    2.1135   -0.6749 C   0  0  0  0  0  0  0  0  0  0  0  0
    0.6638    2.6945    0.0711 C   0  0  0  0  0  0  0  0  0  0  0  0
    0.8806    4.0796    0.0016 C   0  0  0  0  0  0  0  0  0  0  0  0
    0.0922    4.7738   -0.3100 H   0  0  0  0  0  0  0  0  0  0  0  0
    2.1509    4.5604    0.3538 C   0  0  0  0  0  0  0  0  0  0  0  0
    2.3442    5.6422    0.3072 H   0  0  0  0  0  0  0  0  0  0  0  0
    3.1759    3.6871    0.7681 C   0  0  0  0  0  0  0  0  0  0  0  0
    4.1605    4.0952    1.0400 H   0  0  0  0  0  0  0  0  0  0  0  0
    2.9704    2.3008    0.8420 C   0  0  0  0  0  0  0  0  0  0  0  0
    3.7744    1.6262    1.1585 H   0  0  0  0  0  0  0  0  0  0  0  0
    1.7038    1.8124    0.4850 C   0  0  0  0  0  0  0  0  0  0  0  0
   -0.1511    0.5568    0.0724 C   0  0  0  0  0  2  0  0  0  0  0  0
    1.8702   -0.7448    0.7093 C   0  0  0  0  0  0  0  0  0  0  0  0
    1.3357   -1.4967    0.0925 H   0  0  0  0  0  0  0  0  0  0  0  0
    1.7058   -1.0205    1.7683 H   0  0  0  0  0  0  0  0  0  0  0  0
    2.8125   -0.2959   -2.0694 C   0  0  0  0  0  0  0  0  0  0  0  0
    3.3015   -0.4180   -3.0545 H   0  0  0  0  0  0  0  0  0  0  0  0
    2.4111    0.7391   -2.0272 H   0  0  0  0  0  0  0  0  0  0  0  0
    1.9234   -0.9592   -2.0416 H   0  0  0  0  0  0  0  0  0  0  0  0
    3.7853   -0.5480   -0.9485 C   0  0  0  0  0  0  0  0  0  0  0  0
    5.1660   -0.5585   -1.2176 C   0  0  0  0  0  0  0  0  0  0  0  0
    5.4995   -0.4016   -2.2564 H   0  0  0  0  0  0  0  0  0  0  0  0
    6.1261   -0.7591   -0.2109 C   0  0  0  0  0  0  0  0  0  0  0  0
    5.6674   -0.9523    1.1039 C   0  0  0  0  0  0  0  0  0  0  0  0
    6.4005   -1.1076    1.9121 H   0  0  0  0  0  0  0  0  0  0  0  0
    4.2970   -0.9497    1.4232 C   0  0  0  0  0  0  0  0  0  0  0  0
    3.8815   -1.1401    2.8650 C   0  0  0  0  0  0  0  0  0  0  0  0
    4.7692   -1.2400    3.5183 H   0  0  0  0  0  0  0  0  0  0  0  0
    3.2637   -2.0513    3.0099 H   0  0  0  0  0  0  0  0  0  0  0  0
    3.2861   -0.2826    3.2441 H   0  0  0  0  0  0  0  0  0  0  0  0
    7.5975   -0.7959   -0.5383 C   0  0  0  0  0  0  0  0  0  0  0  0
    7.8588   -0.0590   -1.3238 H   0  0  0  0  0  0  0  0  0  0  0  0
    7.8942   -1.7958   -0.9225 H   0  0  0  0  0  0  0  0  0  0  0  0
    8.2214   -0.5886    0.3532 H   0  0  0  0  0  0  0  0  0  0  0  0
  1 14  1  0  0  0  0
  1 24  1  0  0  0  0
  2 23  1  0  0  0  0
  2 25  1  0  0  0  0
  3 25  1  0  0  0  0
  3 38  1  0  0  0  0
  4 13  1  0  0  0  0
  5  4  2  0  0  0  0
  6  5  1  0  0  0  0
  7  9  2  0  0  0  0
  7  5  1  0  0  0  0
  8  7  1  0  0  0  0
  9 11  1  0  0  0  0
 10  9  1  0  0  0  0
 11 12  1  0  0  0  0
 11 13  2  0  0  0  0
 13  1  1  0  0  0  0
 14 23  1  0  0  0  0
 15 14  2  0  0  0  0
 15 17  1  0  0  0  0
 16 15  1  0  0  0  0
 17 19  2  0  0  0  0
 18 17  1  0  0  0  0
 19 21  1  0  0  0  0
 19 20  1  0  0  0  0
 21 22  1  0  0  0  0
 23 21  2  0  0  0  0
 24  2  1  0  0  0  0
 25 27  1  0  0  0  0
 26 25  1  0  0  0  0
 28 31  1  0  0  0  0
 28 30  1  0  0  0  0
 28 32  1  0  0  0  0
 29 28  1  0  0  0  0
 32  3  2  0  0  0  0
 33 32  1  0  0  0  0
 33 35  2  0  0  0  0
 34 33  1  0  0  0  0
 35 36  1  0  0  0  0
 36 38  2  0  0  0  0
 36 37  1  0  0  0  0
 38 39  1  0  0  0  0
 39 41  1  0  0  0  0
 39 42  1  0  0  0  0
 39 40  1  0  0  0  0
 43 35  1  0  0  0  0
 43 46  1  0  0  0  0
 44 43  1  0  0  0  0
 45 43  1  0  0  0  0
M  END
