3,8
q = -1.0, confidence = 0.0

 27 28  0  0  0  0  0  0  0  0999 V2000
   -1.8547   -1.8918   -1.0612 N   0  0  0  0  0  0  0  0  0  0  0  0
   -0.0380   -2.5445   -2.0705 N   0  0  0  0  0  0  0  0  0  0  0  0
   -0.5083   -1.5970   -1.2016 C   0  0  0  0  0  2  0  0  0  0  0  0
   -2.1956   -3.0022   -1.8280 C   0  0  0  0  0  0  0  0  0  0  0  0
   -3.1997   -3.4193   -1.8762 H   0  0  0  0  0  0  0  0  0  0  0  0
   -1.0508   -3.4128   -2.4611 C   0  0  0  0  0  0  0  0  0  0  0  0
   -0.8787   -4.2440   -3.1516 H   0  0  0  0  0  0  0  0  0  0  0  0
   -1.8308   -0.0430    0.4412 C   0  0  0  0  0  3  0  0  0  0  0  0
   -2.6217   -1.0504   -0.1824 C   0  0  0  0  0  0  0  0  0  0  0  0
   -4.0098   -1.1974    0.0516 C   0  0  0  0  0  0  0  0  0  0  0  0
   -4.6015   -0.2888    0.9556 C   0  0  0  0  0  0  0  0  0  0  0  0
   -5.6818   -0.3850    1.1536 H   0  0  0  0  0  0  0  0  0  0  0  0
   -3.8725    0.7228    1.6008 C   0  0  0  0  0  0  0  0  0  0  0  0
   -2.4924    0.8263    1.3264 C   0  0  0  0  0  0  0  0  0  0  0  0
   -1.9112    1.6184    1.8271 H   0  0  0  0  0  0  0  0  0  0  0  0
    1.3450   -2.6595   -2.5028 C   0  0  0  0  0  0  0  0  0  0  0  0
    1.8875   -1.7524   -2.1830 H   0  0  0  0  0  0  0  0  0  0  0  0
    1.3921   -2.7573   -3.6051 H   0  0  0  0  0  0  0  0  0  0  0  0
    1.8274   -3.5439   -2.0397 H   0  0  0  0  0  0  0  0  0  0  0  0
   -4.8984   -2.2383   -0.5894 C   0  0  0  0  0  0  0  0  0  0  0  0
   -4.9029   -2.1689   -1.6977 H   0  0  0  0  0  0  0  0  0  0  0  0
   -5.9439   -2.1044   -0.2521 H   0  0  0  0  0  0  0  0  0  0  0  0
   -4.6025   -3.2753   -0.3225 H   0  0  0  0  0  0  0  0  0  0  0  0
   -4.5419    1.6867    2.5495 C   0  0  0  0  0  0  0  0  0  0  0  0
   -4.0162    1.7224    3.5263 H   0  0  0  0  0  0  0  0  0  0  0  0
   -5.5991    1.4152    2.7389 H   0  0  0  0  0  0  0  0  0  0  0  0
   -4.5261    2.7216    2.1460 H   0  0  0  0  0  0  0  0  0  0  0  0
  1  9  1  0  0  0  0
  2  3  1  0  0  0  0
  3  1  1  0  0  0  0
  4  1  1  0  0  0  0
  5  4  1  0  0  0  0
  6  2  1  0  0  0  0
  6  4  2  0  0  0  0
  7  6  1  0  0  0  0
  8 14  1  0  0  0  0
  9 10  1  0  0  0  0
  9  8  2  0  0  0  0
 10 11  2  0  0  0  0
 11 12  1  0  0  0  0
 11 13  1  0  0  0  0
 13 24  1  0  0  0  0
 14 13  2  0  0  0  0
 14 15  1  0  0  0  0
 16 17  1  0  0  0  0
 16  2  1  0  0  0  0
 16 19  1  0  0  0  0
 18 16  1  0  0  0  0
 20 23  1  0  0  0  0
 20 22  1  0  0  0  0
 20 10  1  0  0  0  0
 21 20  1  0  0  0  0
 24 26  1  0  0  0  0
 24 25  1  0  0  0  0
 27 24  1  0  0  0  0
M  END
