4,6
q = 0.0, confidence = 1.0

 22 22  0  0  1  0  0  0  0  0999 V2000
    1.1842   -0.4940   -0.7324 C   0  0  2  0  0  3  0  0  0  0  0  0
    1.0657    0.8918   -0.3185 C   0  0  0  0  0  0  0  0  0  0  0  0
   -0.0080    1.6970   -0.8505 C   0  0  0  0  0  0  0  0  0  0  0  0
   -0.9282    1.0962   -1.7628 C   0  0  0  0  0  3  0  0  0  0  0  0
   -0.7891   -0.2427   -2.2125 C   0  0  0  0  0  3  0  0  0  0  0  0
    0.2419   -1.0386   -1.6652 C   0  0  0  0  0  3  0  0  0  0  0  0
    2.2151   -1.3974   -0.1416 C   0  0  0  0  0  0  0  0  0  0  0  0
    3.0967   -1.0773    0.6384 O   0  0  0  0  0  0  0  0  0  0  0  0
    2.0808   -2.6761   -0.5874 O   0  0  0  0  0  0  0  0  0  0  0  0
    2.0318    1.4634    0.6521 C   0  0  0  0  0  0  0  0  0  0  0  0
    2.7124    2.6064    0.4474 C   0  0  0  0  0  0  0  0  0  0  0  0
   -0.2539    3.1216   -0.4244 C   0  0  0  0  0  0  0  0  0  0  0  0
    2.7871   -3.1802   -0.1300 H   0  0  0  0  0  0  0  0  0  0  0  0
   -1.7812    1.6947   -2.1142 H   0  0  0  0  0  0  0  0  0  0  0  0
   -1.5259   -0.6808   -2.8983 H   0  0  0  0  0  0  0  0  0  0  0  0
    0.3279   -2.0986   -1.9335 H   0  0  0  0  0  0  0  0  0  0  0  0
    2.2216    0.8719    1.5585 H   0  0  0  0  0  0  0  0  0  0  0  0
    3.4353    2.9689    1.1938 H   0  0  0  0  0  0  0  0  0  0  0  0
    2.6035    3.1999   -0.4739 H   0  0  0  0  0  0  0  0  0  0  0  0
    0.0593    3.2972    0.6203 H   0  0  0  0  0  0  0  0  0  0  0  0
    0.3086    3.8346   -1.0630 H   0  0  0  0  0  0  0  0  0  0  0  0
   -1.3295    3.3656   -0.5183 H   0  0  0  0  0  0  0  0  0  0  0  0
  1  2  1  0  0  0  0
  1  7  1  1  0  0  0
  2 10  1  0  0  0  0
  3 12  1  0  0  0  0
  3  2  2  0  0  0  0
  4  3  1  0  0  0  0
  5  4  1  0  0  0  0
  5  6  1  0  0  0  0
  6  1  1  0  0  0  0
  7  8  2  0  0  0  0
  9  7  1  0  0  0  0
  9 13  1  0  0  0  0
 10 17  1  0  0  0  0
 11 10  2  0  0  0  0
 11 18  1  0  0  0  0
 12 20  1  0  0  0  0
 14  4  1  0  0  0  0
 15  5  1  0  0  0  0
 16  6  1  0  0  0  0
 19 11  1  0  0  0  0
 21 12  1  0  0  0  0
 22 12  1  0  0  0  0
M  END
