3,19
q = -1.0, confidence = 0.002

 36 37  0  0  0  0  0  0  0  0999 V2000
    1.3561   -0.0223   -0.4524 Si  0  0  0  0  0  0  0  0  0  0  0  0
    0.8132   -0.4997    2.5636 O   0  0  0  0  0  1  0  0  0  0  0  0
    0.1407   -0.3488   -1.7982 C   0  0  0  0  0  3  0  0  0  0  0  0
   -0.4854   -1.6297   -1.9354 C   0  0  0  0  0  3  0  0  0  0  0  0
   -1.6682   -1.7853   -2.8723 C   0  0  0  0  0  0  0  0  0  0  0  0
    0.3209   -2.9101   -1.8339 C   0  0  0  0  0  0  0  0  0  0  0  0
    1.8920    1.7810   -0.3789 C   0  0  0  0  0  0  0  0  0  0  0  0
    1.9230    2.6083   -1.5236 C   0  0  0  0  0  0  0  0  0  0  0  0
    2.2752    3.9644   -1.4255 C   0  0  0  0  0  0  0  0  0  0  0  0
    2.6011    4.5173   -0.1772 C   0  0  0  0  0  0  0  0  0  0  0  0
    2.5853    3.7065    0.9707 C   0  0  0  0  0  0  0  0  0  0  0  0
    2.2388    2.3507    0.8696 C   0  0  0  0  0  0  0  0  0  0  0  0
    2.8378   -1.1152   -0.0386 C   0  0  0  0  0  0  0  0  0  0  0  0
    4.1121   -0.6954   -0.4846 C   0  0  0  0  0  0  0  0  0  0  0  0
    5.2595   -1.4549   -0.2085 C   0  0  0  0  0  0  0  0  0  0  0  0
    5.1531   -2.6430    0.5312 C   0  0  0  0  0  0  0  0  0  0  0  0
    3.8969   -3.0654    0.9953 C   0  0  0  0  0  0  0  0  0  0  0  0
    2.7511   -2.3067    0.7157 C   0  0  0  0  0  0  0  0  0  0  0  0
    0.1825   -0.5099    1.5548 C   0  0  0  0  0  2  0  0  0  0  0  0
   -0.2271    0.4892   -2.4192 H   0  0  0  0  0  0  0  0  0  0  0  0
   -2.3730   -2.5555   -2.4972 H   0  0  0  0  0  0  0  0  0  0  0  0
   -1.3161   -2.1341   -3.8695 H   0  0  0  0  0  0  0  0  0  0  0  0
   -2.2240   -0.8441   -3.0197 H   0  0  0  0  0  0  0  0  0  0  0  0
    1.1652   -2.8376   -1.1284 H   0  0  0  0  0  0  0  0  0  0  0  0
    0.7462   -3.1373   -2.8375 H   0  0  0  0  0  0  0  0  0  0  0  0
   -0.3053   -3.7754   -1.5386 H   0  0  0  0  0  0  0  0  0  0  0  0
    1.6681    2.1870   -2.5093 H   0  0  0  0  0  0  0  0  0  0  0  0
    2.2957    4.5934   -2.3291 H   0  0  0  0  0  0  0  0  0  0  0  0
    2.8745    5.5808   -0.0985 H   0  0  0  0  0  0  0  0  0  0  0  0
    2.8464    4.1341    1.9511 H   0  0  0  0  0  0  0  0  0  0  0  0
    2.2287    1.7241    1.7762 H   0  0  0  0  0  0  0  0  0  0  0  0
    4.2109    0.2440   -1.0523 H   0  0  0  0  0  0  0  0  0  0  0  0
    6.2424   -1.1143   -0.5692 H   0  0  0  0  0  0  0  0  0  0  0  0
    6.0525   -3.2380    0.7530 H   0  0  0  0  0  0  0  0  0  0  0  0
    3.8087   -3.9900    1.5863 H   0  0  0  0  0  0  0  0  0  0  0  0
    1.7743   -2.6459    1.0931 H   0  0  0  0  0  0  0  0  0  0  0  0
  1  7  1  0  0  0  0
  1 13  1  0  0  0  0
  1 19  1  0  0  0  0
  3  1  1  0  0  0  0
  4  6  1  0  0  0  0
  4  3  1  0  0  0  0
  5 21  1  0  0  0  0
  5  4  1  0  0  0  0
  6 26  1  0  0  0  0
  6 24  1  0  0  0  0
  7 12  1  0  0  0  0
  8  9  1  0  0  0  0
  8  7  2  0  0  0  0
  9 10  2  0  0  0  0
 10 29  1  0  0  0  0
 10 11  1  0  0  0  0
 11 30  1  0  0  0  0
 12 11  2  0  0  0  0
 12 31  1  0  0  0  0
 13 18  1  0  0  0  0
 14 15  1  0  0  0  0
 14 13  2  0  0  0  0
 15 16  2  0  0  0  0
 16 34  1  0  0  0  0
 16 17  1  0  0  0  0
 17 35  1  0  0  0  0
 18 17  2  0  0  0  0
 18 36  1  0  0  0  0
 19  2  1  0  0  0  0
 20  3  1  0  0  0  0
 22  5  1  0  0  0  0
 23  5  1  0  0  0  0
 25  6  1  0  0  0  0
 27  8  1  0  0  0  0
 28  9  1  0  0  0  0
 32 14  1  0  0  0  0
 33 15  1  0  0  0  0
M  HYD  4   2   0   3   0   4   0  19   0
M  ZBO  1   3   0
M  END
