27
q = -2.0, confidence = 0.674

 51 56  0  0  0  0  0  0  0  0999 V2000
   -0.0000    0.0000    2.5702 Si  0  0  0  0  0  0  0  0  0  0  0  0
    0.7657    2.9936    0.7350 C   0  0  0  0  0  0  0  0  0  0  0  0
    1.0249    4.0220   -0.1636 C   0  0  0  0  0  0  0  0  0  0  0  0
    1.9063    3.8441   -1.2657 C   0  0  0  0  0  0  0  0  0  0  0  0
    2.5216    2.6169   -1.4836 C   0  0  0  0  0  0  0  0  0  0  0  0
    3.6686   -0.4977   -1.3970 C   0  0  0  0  0  0  0  0  0  0  0  0
    4.0169   -1.8067   -1.0872 C   0  0  0  0  0  0  0  0  0  0  0  0
    3.4825   -2.4421    0.0692 C   0  0  0  0  0  0  0  0  0  0  0  0
    2.5988   -1.7850    0.9164 C   0  0  0  0  0  0  0  0  0  0  0  0
    1.3335    0.4861    1.3247 C   0  0  0  0  0  3  0  0  0  0  0  0
    1.4026    1.7273    0.5661 C   0  0  0  0  0  0  0  0  0  0  0  0
    2.2612    1.5472   -0.5927 C   0  0  0  0  0  0  0  0  0  0  0  0
    2.7655    0.1927   -0.5523 C   0  0  0  0  0  0  0  0  0  0  0  0
    2.2201   -0.4390    0.6345 C   0  0  0  0  0  0  0  0  0  0  0  0
   -0.5035    1.4060    3.7323 C   0  0  0  0  0  0  0  0  0  0  0  0
    0.0987    3.1679    1.5884 H   0  0  0  0  0  0  0  0  0  0  0  0
    0.5424    4.9998   -0.0146 H   0  0  0  0  0  0  0  0  0  0  0  0
    2.0970    4.6854   -1.9483 H   0  0  0  0  0  0  0  0  0  0  0  0
    3.2000    2.4701   -2.3376 H   0  0  0  0  0  0  0  0  0  0  0  0
    4.0840    0.0001   -2.2861 H   0  0  0  0  0  0  0  0  0  0  0  0
    4.7162   -2.3578   -1.7332 H   0  0  0  0  0  0  0  0  0  0  0  0
    3.7831   -3.4753    0.3003 H   0  0  0  0  0  0  0  0  0  0  0  0
    2.2232   -2.2880    1.8161 H   0  0  0  0  0  0  0  0  0  0  0  0
    0.3248    1.5848    4.4488 H   0  0  0  0  0  0  0  0  0  0  0  0
   -0.7304    2.3704    3.2432 H   0  0  0  0  0  0  0  0  0  0  0  0
   -1.3978    1.1003    4.3133 H   0  0  0  0  0  0  0  0  0  0  0  0
   -1.3335   -0.4861    1.3247 C   0  0  0  0  0  3  0  0  0  0  0  0
    0.5034   -1.4060    3.7323 C   0  0  0  0  0  0  0  0  0  0  0  0
   -0.3249   -1.5848    4.4488 H   0  0  0  0  0  0  0  0  0  0  0  0
    0.7304   -2.3704    3.2433 H   0  0  0  0  0  0  0  0  0  0  0  0
    1.3978   -1.1002    4.3133 H   0  0  0  0  0  0  0  0  0  0  0  0
   -1.4026   -1.7273    0.5660 C   0  0  0  0  0  0  0  0  0  0  0  0
   -2.2611   -1.5472   -0.5927 C   0  0  0  0  0  0  0  0  0  0  0  0
   -2.5216   -2.6169   -1.4836 C   0  0  0  0  0  0  0  0  0  0  0  0
   -1.9063   -3.8442   -1.2657 C   0  0  0  0  0  0  0  0  0  0  0  0
   -1.0249   -4.0220   -0.1636 C   0  0  0  0  0  0  0  0  0  0  0  0
   -0.7657   -2.9936    0.7350 C   0  0  0  0  0  0  0  0  0  0  0  0
   -2.7655   -0.1927   -0.5524 C   0  0  0  0  0  0  0  0  0  0  0  0
   -2.2201    0.4390    0.6345 C   0  0  0  0  0  0  0  0  0  0  0  0
   -2.5988    1.7850    0.9163 C   0  0  0  0  0  0  0  0  0  0  0  0
   -3.4826    2.4420    0.0692 C   0  0  0  0  0  0  0  0  0  0  0  0
   -4.0170    1.8067   -1.0872 C   0  0  0  0  0  0  0  0  0  0  0  0
   -3.6686    0.4977   -1.3970 C   0  0  0  0  0  0  0  0  0  0  0  0
   -4.0840   -0.0002   -2.2861 H   0  0  0  0  0  0  0  0  0  0  0  0
   -4.7163    2.3578   -1.7332 H   0  0  0  0  0  0  0  0  0  0  0  0
   -3.7832    3.4753    0.3003 H   0  0  0  0  0  0  0  0  0  0  0  0
   -2.2233    2.2880    1.8161 H   0  0  0  0  0  0  0  0  0  0  0  0
   -0.0987   -3.1679    1.5884 H   0  0  0  0  0  0  0  0  0  0  0  0
   -0.5424   -4.9998   -0.0146 H   0  0  0  0  0  0  0  0  0  0  0  0
   -2.0970   -4.6854   -1.9483 H   0  0  0  0  0  0  0  0  0  0  0  0
   -3.2000   -2.4701   -2.3376 H   0  0  0  0  0  0  0  0  0  0  0  0
  1 15  1  0  0  0  0
  1 28  1  0  0  0  0
  2 16  1  0  0  0  0
  3 17  1  0  0  0  0
  3  2  2  0  0  0  0
  4  3  1  0  0  0  0
  5  4  2  0  0  0  0
  5 12  1  0  0  0  0
  6  7  2  0  0  0  0
  6 13  1  0  0  0  0
  7  8  1  0  0  0  0
  8 22  1  0  0  0  0
  8  9  2  0  0  0  0
  9 23  1  0  0  0  0
 10  1  1  0  0  0  0
 11  2  1  0  0  0  0
 11 10  1  0  0  0  0
 12 13  1  0  0  0  0
 12 11  2  0  0  0  0
 13 14  2  0  0  0  0
 14  9  1  0  0  0  0
 14 10  1  0  0  0  0
 15 26  1  0  0  0  0
 15 24  1  0  0  0  0
 18  4  1  0  0  0  0
 19  5  1  0  0  0  0
 20  6  1  0  0  0  0
 21  7  1  0  0  0  0
 25 15  1  0  0  0  0
 27  1  1  0  0  0  0
 28 31  1  0  0  0  0
 28 29  1  0  0  0  0
 30 28  1  0  0  0  0
 32 37  1  0  0  0  0
 32 27  1  0  0  0  0
 33 38  1  0  0  0  0
 33 32  2  0  0  0  0
 34 35  2  0  0  0  0
 34 33  1  0  0  0  0
 35 36  1  0  0  0  0
 36 49  1  0  0  0  0
 36 37  2  0  0  0  0
 37 48  1  0  0  0  0
 38 39  1  0  0  0  0
 39 40  2  0  0  0  0
 39 27  1  0  0  0  0
 40 47  1  0  0  0  0
 41 46  1  0  0  0  0
 41 40  1  0  0  0  0
 42 41  2  0  0  0  0
 43 42  1  0  0  0  0
 43 38  2  0  0  0  0
 44 43  1  0  0  0  0
 45 42  1  0  0  0  0
 50 35  1  0  0  0  0
 51 34  1  0  0  0  0
M  END
