1,5,39
q = -1.0

 63 66  0  0  1  0  0  0  0  0999 V2000
    1.4605    1.6656   -0.1902 N   0  0  0  0  0  2  0  0  0  0  0  0
   -0.2446   -2.8872    0.5392 N   0  0  0  0  0  0  0  0  0  0  0  0
   -2.1409   -1.9616    0.0660 N   0  0  0  0  0  0  0  0  0  0  0  0
    3.4636    2.2755   -1.0113 O   0  0  0  0  0  0  0  0  0  0  0  0
    1.9248   -0.9243   -0.0375 C   0  0  0  0  0  3  0  0  0  0  0  0
    3.0084   -0.1107   -0.4939 C   0  0  0  0  0  0  0  0  0  0  0  0
    4.2919   -0.6514   -0.7555 C   0  0  0  0  0  0  0  0  0  0  0  0
    4.4698   -2.0215   -0.5110 C   0  0  0  0  0  0  0  0  0  0  0  0
    5.4549   -2.4710   -0.7133 H   0  0  0  0  0  0  0  0  0  0  0  0
    3.4511   -2.8364    0.0207 C   0  0  0  0  0  0  0  0  0  0  0  0
    2.1718   -2.2747    0.2683 C   0  0  0  0  0  0  0  0  0  0  0  0
    5.4379    0.1853   -1.2642 C   0  0  0  0  0  0  0  0  0  0  0  0
    5.6938    0.9980   -0.5548 H   0  0  0  0  0  0  0  0  0  0  0  0
    5.1830    0.6862   -2.2195 H   0  0  0  0  0  0  0  0  0  0  0  0
    6.3388   -0.4380   -1.4226 H   0  0  0  0  0  0  0  0  0  0  0  0
    3.7576   -4.2813    0.3381 C   0  0  0  0  0  0  0  0  0  0  0  0
    4.7807   -4.5490    0.0122 H   0  0  0  0  0  0  0  0  0  0  0  0
    3.0548   -4.9775   -0.1673 H   0  0  0  0  0  0  0  0  0  0  0  0
    3.6926   -4.4905    1.4273 H   0  0  0  0  0  0  0  0  0  0  0  0
    2.6493    1.2953   -0.5720 C   0  0  1  0  0  3  0  0  0  0  0  0
    2.7057    3.5157   -0.9092 C   0  0  0  0  0  0  0  0  0  0  0  0
    2.6890    3.9834   -1.9122 H   0  0  0  0  0  0  0  0  0  0  0  0
    3.2471    4.1833   -0.2080 H   0  0  0  0  0  0  0  0  0  0  0  0
    1.2972    3.1021   -0.3899 C   0  0  2  0  0  0  0  0  0  0  0  0
    0.5296    3.2551   -1.1814 H   0  0  0  0  0  0  0  0  0  0  0  0
    1.7156    3.5712    2.0920 C   0  0  0  0  0  0  0  0  0  0  0  0
    1.7630    2.4876    2.3196 H   0  0  0  0  0  0  0  0  0  0  0  0
    1.3151    4.0867    2.9883 H   0  0  0  0  0  0  0  0  0  0  0  0
    2.7480    3.9521    1.9339 H   0  0  0  0  0  0  0  0  0  0  0  0
    0.8124    3.8299    0.8839 C   0  0  0  0  0  0  0  0  0  0  0  0
   -0.1804    3.3807    1.0965 H   0  0  0  0  0  0  0  0  0  0  0  0
    0.6178    5.3238    0.6013 C   0  0  0  0  0  0  0  0  0  0  0  0
    0.1743    5.8364    1.4784 H   0  0  0  0  0  0  0  0  0  0  0  0
   -0.0550    5.4940   -0.2651 H   0  0  0  0  0  0  0  0  0  0  0  0
    1.5827    5.8317    0.3840 H   0  0  0  0  0  0  0  0  0  0  0  0
    1.1287   -3.0777    1.0042 C   0  0  0  0  0  0  0  0  0  0  0  0
    1.3359   -4.1612    0.9485 H   0  0  0  0  0  0  0  0  0  0  0  0
    1.1524   -2.7790    2.0765 H   0  0  0  0  0  0  0  0  0  0  0  0
   -0.8054   -1.6722    0.2611 C   0  0  0  0  0  2  0  0  0  0  0  0
   -2.3886   -3.3249    0.2193 C   0  0  0  0  0  0  0  0  0  0  0  0
   -3.3915   -3.7446    0.1028 H   0  0  0  0  0  0  0  0  0  0  0  0
   -1.1875   -3.9056    0.5179 C   0  0  0  0  0  0  0  0  0  0  0  0
   -0.9236   -4.9482    0.7174 H   0  0  0  0  0  0  0  0  0  0  0  0
   -3.1905   -1.0008   -0.1158 C   0  0  0  0  0  0  0  0  0  0  0  0
   -3.6824   -0.3340    1.0353 C   0  0  0  0  0  0  0  0  0  0  0  0
   -4.6816    0.6395    0.8443 C   0  0  0  0  0  0  0  0  0  0  0  0
   -5.0661    1.1788    1.7247 H   0  0  0  0  0  0  0  0  0  0  0  0
   -5.2079    0.9290   -0.4317 C   0  0  0  0  0  0  0  0  0  0  0  0
   -4.7269    0.1996   -1.5331 C   0  0  0  0  0  0  0  0  0  0  0  0
   -5.1433    0.3963   -2.5337 H   0  0  0  0  0  0  0  0  0  0  0  0
   -3.7212   -0.7792   -1.4050 C   0  0  0  0  0  0  0  0  0  0  0  0
   -3.1386   -0.6451    2.4035 C   0  0  0  0  0  0  0  0  0  0  0  0
   -3.1763   -1.7349    2.6080 H   0  0  0  0  0  0  0  0  0  0  0  0
   -3.7212   -0.1243    3.1863 H   0  0  0  0  0  0  0  0  0  0  0  0
   -2.0696   -0.3468    2.5053 H   0  0  0  0  0  0  0  0  0  0  0  0
   -6.2499    2.0048   -0.6031 C   0  0  0  0  0  0  0  0  0  0  0  0
   -7.0153    1.9609    0.1975 H   0  0  0  0  0  0  0  0  0  0  0  0
   -6.7639    1.9254   -1.5803 H   0  0  0  0  0  0  0  0  0  0  0  0
   -5.7872    3.0135   -0.5512 H   0  0  0  0  0  0  0  0  0  0  0  0
   -3.2135   -1.5394   -2.5982 C   0  0  0  0  0  0  0  0  0  0  0  0
   -2.1485   -1.2773   -2.7816 H   0  0  0  0  0  0  0  0  0  0  0  0
   -3.8010   -1.2957   -3.5030 H   0  0  0  0  0  0  0  0  0  0  0  0
   -3.2581   -2.6357   -2.4376 H   0  0  0  0  0  0  0  0  0  0  0  0
  2 36  1  0  0  0  0
  3 40  1  0  0  0  0
  3 39  1  0  0  0  0
  4 21  1  0  0  0  0
  4 20  1  0  0  0  0
  5 11  1  0  0  0  0
  6  5  2  0  0  0  0
  7  8  2  0  0  0  0
  7  6  1  0  0  0  0
  8 10  1  0  0  0  0
  9  8  1  0  0  0  0
 10 11  2  0  0  0  0
 10 16  1  0  0  0  0
 11 36  1  0  0  0  0
 12  7  1  0  0  0  0
 12 13  1  0  0  0  0
 14 12  1  0  0  0  0
 15 12  1  0  0  0  0
 16 19  1  0  0  0  0
 17 16  1  0  0  0  0
 18 16  1  0  0  0  0
 20  6  1  1  0  0  0
 20  1  1  0  0  0  0
 21 24  1  0  0  0  0
 21 23  1  0  0  0  0
 22 21  1  0  0  0  0
 24 25  1  6  0  0  0
 24  1  1  0  0  0  0
 24 30  1  0  0  0  0
 26 27  1  0  0  0  0
 26 28  1  0  0  0  0
 29 26  1  0  0  0  0
 30 31  1  0  0  0  0
 30 26  1  0  0  0  0
 32 30  1  0  0  0  0
 32 33  1  0  0  0  0
 34 32  1  0  0  0  0
 35 32  1  0  0  0  0
 36 38  1  0  0  0  0
 37 36  1  0  0  0  0
 39  2  1  0  0  0  0
 40 42  2  0  0  0  0
 41 40  1  0  0  0  0
 42  2  1  0  0  0  0
 42 43  1  0  0  0  0
 44  3  1  0  0  0  0
 44 45  1  0  0  0  0
 45 52  1  0  0  0  0
 46 45  2  0  0  0  0
 46 47  1  0  0  0  0
 48 46  1  0  0  0  0
 49 51  1  0  0  0  0
 49 48  2  0  0  0  0
 50 49  1  0  0  0  0
 51 44  2  0  0  0  0
 52 55  1  0  0  0  0
 52 53  1  0  0  0  0
 52 54  1  0  0  0  0
 56 59  1  0  0  0  0
 56 48  1  0  0  0  0
 56 57  1  0  0  0  0
 58 56  1  0  0  0  0
 60 63  1  0  0  0  0
 60 51  1  0  0  0  0
 61 60  1  0  0  0  0
 62 60  1  0  0  0  0
M  END
