1,34,49
q = -2.0, confidence = 0.558

 59 64  0  0  0  0  0  0  0  0999 V2000
    0.6016   -1.0312   -1.1711 N   0  0  0  0  0  2  0  0  0  0  0  0
    2.8910    2.6750    0.8829 O   0  0  0  0  0  0  0  0  0  0  0  0
    2.9836    2.1530   -1.3275 O   0  0  0  0  0  0  0  0  0  0  0  0
   -1.0499    3.7614   -1.9457 O   0  0  0  0  0  0  0  0  0  0  0  0
    0.9346    4.1221   -0.9221 O   0  0  0  0  0  0  0  0  0  0  0  0
   -1.6374   -0.0313   -1.0215 C   0  0  0  0  0  0  0  0  0  0  0  0
   -1.4066    1.3000   -0.5646 C   0  0  0  0  0  0  0  0  0  0  0  0
   -2.5100    2.0418   -0.1018 C   0  0  0  0  0  0  0  0  0  0  0  0
   -2.3501    3.0800    0.2222 H   0  0  0  0  0  0  0  0  0  0  0  0
   -4.9302    2.2927    0.4367 C   0  0  0  0  0  0  0  0  0  0  0  0
   -4.7431    3.3248    0.7708 H   0  0  0  0  0  0  0  0  0  0  0  0
   -6.1964    1.7610    0.4888 C   0  0  0  0  0  0  0  0  0  0  0  0
   -7.0380    2.3627    0.8658 H   0  0  0  0  0  0  0  0  0  0  0  0
   -7.7500   -0.1586    0.1029 C   0  0  0  0  0  0  0  0  0  0  0  0
   -8.5880    0.4476    0.4803 H   0  0  0  0  0  0  0  0  0  0  0  0
   -7.9690   -1.4763   -0.3235 C   0  0  0  0  0  0  0  0  0  0  0  0
   -8.9824   -1.9028   -0.2788 H   0  0  0  0  0  0  0  0  0  0  0  0
   -6.9076   -2.2542   -0.8044 C   0  0  0  0  0  0  0  0  0  0  0  0
   -7.0829   -3.2896   -1.1351 H   0  0  0  0  0  0  0  0  0  0  0  0
   -4.4790   -2.4881   -1.3503 C   0  0  0  0  0  0  0  0  0  0  0  0
   -4.6507   -3.5283   -1.6682 H   0  0  0  0  0  0  0  0  0  0  0  0
   -3.2136   -1.9506   -1.4025 C   0  0  0  0  0  0  0  0  0  0  0  0
   -2.3773   -2.5791   -1.7431 H   0  0  0  0  0  0  0  0  0  0  0  0
   -3.8189    1.5231   -0.0539 C   0  0  0  0  0  0  0  0  0  0  0  0
   -6.4589    0.4137    0.0565 C   0  0  0  0  0  0  0  0  0  0  0  0
   -5.5985   -1.7248   -0.8725 C   0  0  0  0  0  0  0  0  0  0  0  0
   -2.9515   -0.5946   -0.9943 C   0  0  0  0  0  0  0  0  0  0  0  0
   -5.3656   -0.3754   -0.4410 C   0  0  0  0  0  0  0  0  0  0  0  0
   -4.0507    0.1812   -0.5018 C   0  0  0  0  0  0  0  0  0  0  0  0
   -0.5831   -0.8128   -1.6671 C   0  0  0  0  0  3  0  0  0  0  0  0
   -0.8156   -1.2276   -2.6669 H   0  0  0  0  0  0  0  0  0  0  0  0
    1.6281   -1.6612   -1.9369 C   0  0  0  0  0  0  0  0  0  0  0  0
    2.9285   -1.4417   -1.4012 C   0  0  0  0  0  0  0  0  0  0  0  0
    3.0197   -0.7184   -0.1681 C   0  0  0  0  0  3  0  0  0  0  0  0
    4.3037   -0.4367    0.3057 C   0  0  0  0  0  0  0  0  0  0  0  0
    4.4332    0.1657    1.2169 H   0  0  0  0  0  0  0  0  0  0  0  0
    5.4620   -0.8900   -0.3884 C   0  0  0  0  0  0  0  0  0  0  0  0
    6.4556   -0.6472    0.0215 H   0  0  0  0  0  0  0  0  0  0  0  0
    5.3678   -1.6280   -1.5614 C   0  0  0  0  0  0  0  0  0  0  0  0
    6.2700   -1.9833   -2.0822 H   0  0  0  0  0  0  0  0  0  0  0  0
    4.0830   -1.9234   -2.1056 C   0  0  0  0  0  0  0  0  0  0  0  0
    3.8735   -2.6696   -3.3015 C   0  0  0  0  0  0  0  0  0  0  0  0
    4.7466   -3.0634   -3.8450 H   0  0  0  0  0  0  0  0  0  0  0  0
    2.5876   -2.9083   -3.7790 C   0  0  0  0  0  0  0  0  0  0  0  0
    2.4453   -3.4990   -4.6965 H   0  0  0  0  0  0  0  0  0  0  0  0
    1.4490   -2.3981   -3.1077 C   0  0  0  0  0  0  0  0  0  0  0  0
    0.4475   -2.5971   -3.5157 H   0  0  0  0  0  0  0  0  0  0  0  0
   -0.0822    1.9904   -0.6177 C   0  0  0  0  0  0  0  0  0  0  0  0
    1.0829    1.4503   -0.1297 C   0  0  0  0  0  3  0  0  0  0  0  0
   -0.1433    3.3516   -1.2339 C   0  0  0  0  0  0  0  0  0  0  0  0
    1.0013    5.3863   -1.5792 C   0  0  0  0  0  0  0  0  0  0  0  0
    1.0975    5.2585   -2.6773 H   0  0  0  0  0  0  0  0  0  0  0  0
    1.8943    5.8948   -1.1730 H   0  0  0  0  0  0  0  0  0  0  0  0
    0.0892    5.9852   -1.3822 H   0  0  0  0  0  0  0  0  0  0  0  0
    2.3769    2.1881   -0.1159 C   0  0  0  0  0  0  0  0  0  0  0  0
    4.2939    2.7223   -1.3736 C   0  0  0  0  0  0  0  0  0  0  0  0
    4.2729    3.7876   -1.0651 H   0  0  0  0  0  0  0  0  0  0  0  0
    4.6311    2.6281   -2.4214 H   0  0  0  0  0  0  0  0  0  0  0  0
    4.9844    2.1725   -0.7027 H   0  0  0  0  0  0  0  0  0  0  0  0
  3 55  1  0  0  0  0
  4 50  2  0  0  0  0
  6 27  2  0  0  0  0
  6  7  1  0  0  0  0
  7  8  2  0  0  0  0
  8 24  1  0  0  0  0
  8  9  1  0  0  0  0
 10 12  1  0  0  0  0
 10 11  1  0  0  0  0
 12 13  1  0  0  0  0
 14 15  1  0  0  0  0
 16 17  1  0  0  0  0
 16 14  2  0  0  0  0
 18 16  1  0  0  0  0
 19 18  1  0  0  0  0
 20 26  1  0  0  0  0
 21 20  1  0  0  0  0
 22 20  2  0  0  0  0
 22 27  1  0  0  0  0
 23 22  1  0  0  0  0
 24 10  2  0  0  0  0
 25 14  1  0  0  0  0
 25 12  2  0  0  0  0
 26 18  2  0  0  0  0
 26 28  1  0  0  0  0
 27 29  1  0  0  0  0
 28 25  1  0  0  0  0
 29 28  2  0  0  0  0
 29 24  1  0  0  0  0
 30  1  1  0  0  0  0
 30  6  1  0  0  0  0
 31 30  1  0  0  0  0
 32 33  1  0  0  0  0
 32  1  1  0  0  0  0
 33 34  1  0  0  0  0
 34 35  2  0  0  0  0
 35 36  1  0  0  0  0
 37 38  1  0  0  0  0
 37 35  1  0  0  0  0
 39 37  2  0  0  0  0
 40 39  1  0  0  0  0
 41 39  1  0  0  0  0
 41 33  2  0  0  0  0
 42 41  1  0  0  0  0
 43 42  1  0  0  0  0
 44 42  2  0  0  0  0
 44 46  1  0  0  0  0
 45 44  1  0  0  0  0
 46 32  2  0  0  0  0
 47 46  1  0  0  0  0
 48  7  1  0  0  0  0
 48 49  2  0  0  0  0
 49 55  1  0  0  0  0
 50  5  1  0  0  0  0
 50 48  1  0  0  0  0
 51 54  1  0  0  0  0
 51 53  1  0  0  0  0
 51  5  1  0  0  0  0
 52 51  1  0  0  0  0
 55  2  2  0  0  0  0
 56  3  1  0  0  0  0
 56 57  1  0  0  0  0
 56 59  1  0  0  0  0
 58 56  1  0  0  0  0
M  END
