5,12,19
q = -2.0, confidence = 0.712

 29 31  0  0  1  0  0  0  0  0999 V2000
    1.2927   -2.1458    0.9473 C   0  0  2  0  0  3  0  0  0  0  0  0
    4.7728   -1.2203   -0.2745 C   0  0  0  0  0  0  0  0  0  0  0  0
    5.8325   -1.4816   -0.1471 H   0  0  0  0  0  0  0  0  0  0  0  0
   -2.3118   -1.4899    0.5019 C   0  0  0  0  0  0  0  0  0  0  0  0
   -2.0643   -0.5308   -0.5326 C   0  0  0  0  0  3  0  0  0  0  0  0
    3.0839    0.1644   -1.4061 C   0  0  0  0  0  0  0  0  0  0  0  0
    2.8485    0.9422   -2.1490 H   0  0  0  0  0  0  0  0  0  0  0  0
   -3.6376   -1.8161    0.8665 C   0  0  0  0  0  0  0  0  0  0  0  0
   -3.8399   -2.5486    1.6632 H   0  0  0  0  0  0  0  0  0  0  0  0
   -3.1463    0.0429   -1.2075 C   0  0  0  0  0  0  0  0  0  0  0  0
   -2.9825    0.7576   -2.0291 H   0  0  0  0  0  0  0  0  0  0  0  0
    2.0655   -0.4699   -0.6866 C   0  0  0  0  0  3  0  0  0  0  0  0
    3.7610   -1.8668    0.4404 C   0  0  0  0  0  0  0  0  0  0  0  0
    4.0336   -2.6636    1.1497 H   0  0  0  0  0  0  0  0  0  0  0  0
   -5.4910    0.2919   -1.4402 F   0  0  0  0  0  0  0  0  0  0  0  0
    0.1562   -3.6650    2.4576 C   0  0  0  0  0  0  0  0  0  0  0  0
    0.1946   -4.4727    3.2039 H   0  0  0  0  0  0  0  0  0  0  0  0
   -1.1279   -2.1204    1.0998 C   0  0  0  0  0  0  0  0  0  0  0  0
    0.0623   -1.6542    0.6193 N   0  0  0  0  0  2  0  0  0  0  0  0
   -4.7149   -1.2080    0.2145 C   0  0  0  0  0  0  0  0  0  0  0  0
   -5.7569   -1.4332    0.4805 H   0  0  0  0  0  0  0  0  0  0  0  0
   -1.0858   -3.1484    2.0622 C   0  0  0  0  0  0  0  0  0  0  0  0
   -2.0204   -3.5483    2.4761 H   0  0  0  0  0  0  0  0  0  0  0  0
   -4.4486   -0.2956   -0.8206 C   0  0  0  0  0  0  0  0  0  0  0  0
    1.3484   -3.1793    1.9032 C   0  0  0  0  0  0  0  0  0  0  0  0
    2.3189   -3.5982    2.1986 H   0  0  0  0  0  0  0  0  0  0  0  0
    2.4098   -1.5035    0.2444 C   0  0  0  0  0  0  0  0  0  0  0  0
    5.3952    0.3971   -1.8797 F   0  0  0  0  0  0  0  0  0  0  0  0
    4.4155   -0.2166   -1.1910 C   0  0  0  0  0  0  0  0  0  0  0  0
  1 27  1  1  0  0  0
  1 25  1  0  0  0  0
  2  3  1  0  0  0  0
  2 13  1  0  0  0  0
  4  8  1  0  0  0  0
  4 18  1  0  0  0  0
  5  4  2  0  0  0  0
  6 29  1  0  0  0  0
  6 12  2  0  0  0  0
  7  6  1  0  0  0  0
  8  9  1  0  0  0  0
 10 24  2  0  0  0  0
 10  5  1  0  0  0  0
 11 10  1  0  0  0  0
 12 27  1  0  0  0  0
 13 14  1  0  0  0  0
 15 24  1  0  0  0  0
 16 17  1  0  0  0  0
 18 22  2  0  0  0  0
 19  1  1  0  0  0  0
 19 18  1  0  0  0  0
 20 21  1  0  0  0  0
 20  8  2  0  0  0  0
 22 16  1  0  0  0  0
 22 23  1  0  0  0  0
 24 20  1  0  0  0  0
 25 26  1  0  0  0  0
 25 16  2  0  0  0  0
 27 13  2  0  0  0  0
 28 29  1  0  0  0  0
 29  2  2  0  0  0  0
M  END
