1,12,21
q = -2.0, confidence = 0.814

 29 31  0  0  0  0  0  0  0  0999 V2000
    2.0768   -0.1631   -0.0001 C   0  0  0  0  0  3  0  0  0  0  0  0
    3.1093   -1.1209   -0.0004 C   0  0  0  0  0  0  0  0  0  0  0  0
    2.8408   -2.1888   -0.0002 H   0  0  0  0  0  0  0  0  0  0  0  0
    4.4626   -0.7375   -0.0008 C   0  0  0  0  0  0  0  0  0  0  0  0
    5.2468   -1.5117   -0.0010 H   0  0  0  0  0  0  0  0  0  0  0  0
    4.8260    0.6203   -0.0008 C   0  0  0  0  0  0  0  0  0  0  0  0
    5.8863    0.9149   -0.0012 H   0  0  0  0  0  0  0  0  0  0  0  0
    3.8254    1.5990   -0.0005 C   0  0  0  0  0  0  0  0  0  0  0  0
    4.1074    2.6637   -0.0005 H   0  0  0  0  0  0  0  0  0  0  0  0
    2.4666    1.2186   -0.0001 C   0  0  0  0  0  0  0  0  0  0  0  0
    1.3722    2.1955    0.0002 C   0  0  0  0  0  0  0  0  0  0  0  0
    0.1298    1.6306   -0.0000 N   0  0  0  0  0  2  0  0  0  0  0  0
   -1.0300    2.3441    0.0001 C   0  0  0  0  0  0  0  0  0  0  0  0
   -0.9570    3.7505    0.0006 C   0  0  0  0  0  0  0  0  0  0  0  0
   -1.8771    4.3488    0.0008 H   0  0  0  0  0  0  0  0  0  0  0  0
    0.3008    4.3688    0.0008 C   0  0  0  0  0  0  0  0  0  0  0  0
    0.3682    5.4673    0.0012 H   0  0  0  0  0  0  0  0  0  0  0  0
    1.4717    3.6011    0.0006 C   0  0  0  0  0  0  0  0  0  0  0  0
    2.4599    4.0789    0.0008 H   0  0  0  0  0  0  0  0  0  0  0  0
   -2.2451    1.5125   -0.0002 C   0  0  0  0  0  0  0  0  0  0  0  0
   -2.0489    0.0865   -0.0002 C   0  0  0  0  0  2  0  0  0  0  0  0
   -3.2300   -0.6858   -0.0005 C   0  0  0  0  0  0  0  0  0  0  0  0
   -3.1764   -1.7871   -0.0004 H   0  0  0  0  0  0  0  0  0  0  0  0
   -4.5171   -0.1174   -0.0008 C   0  0  0  0  0  0  0  0  0  0  0  0
   -5.4043   -0.7707   -0.0011 H   0  0  0  0  0  0  0  0  0  0  0  0
   -4.6733    1.2766   -0.0008 C   0  0  0  0  0  0  0  0  0  0  0  0
   -5.6763    1.7287   -0.0011 H   0  0  0  0  0  0  0  0  0  0  0  0
   -3.5326    2.0881   -0.0005 C   0  0  0  0  0  0  0  0  0  0  0  0
   -3.6519    3.1826   -0.0005 H   0  0  0  0  0  0  0  0  0  0  0  0
  2  3  1  0  0  0  0
  2  1  2  0  0  0  0
  4  2  1  0  0  0  0
  5  4  1  0  0  0  0
  6  4  2  0  0  0  0
  6  8  1  0  0  0  0
  7  6  1  0  0  0  0
  8 10  2  0  0  0  0
  9  8  1  0  0  0  0
 10  1  1  0  0  0  0
 10 11  1  0  0  0  0
 11 18  2  0  0  0  0
 12 13  1  0  0  0  0
 12 11  1  0  0  0  0
 13 14  1  0  0  0  0
 14 15  1  0  0  0  0
 14 16  2  0  0  0  0
 16 17  1  0  0  0  0
 18 19  1  0  0  0  0
 18 16  1  0  0  0  0
 20 13  2  0  0  0  0
 21 20  1  0  0  0  0
 22 23  1  0  0  0  0
 22 21  1  0  0  0  0
 24 22  2  0  0  0  0
 25 24  1  0  0  0  0
 26 24  1  0  0  0  0
 26 28  2  0  0  0  0
 27 26  1  0  0  0  0
 28 20  1  0  0  0  0
 29 28  1  0  0  0  0
M  END
