1,9,38
q = 0.0, confidence = 0.954

 53 56  0  0  1  0  0  0  0  0999 V2000
   -0.7029    0.6010   -0.4447 N   0  0  0  0  0  0  0  0  0  0  0  0
   -0.8672    0.4493   -1.4633 H   0  0  0  0  0  0  0  0  0  0  0  0
   -2.2822    2.5568   -1.6585 O   0  0  0  0  0  0  0  0  0  0  0  0
   -1.2165    4.2146   -0.5318 O   0  0  0  0  0  0  0  0  0  0  0  0
   -1.9290    0.1568    0.3017 C   0  0  0  0  0  0  0  0  0  0  0  0
   -2.7028    0.9401    0.1756 H   0  0  0  0  0  0  0  0  0  0  0  0
   -1.6330    0.0230    1.7790 C   0  0  0  0  0  0  0  0  0  0  0  0
   -0.6276   -0.8723    2.2404 C   0  0  0  0  0  0  0  0  0  0  0  0
    0.1609   -1.7331    1.3420 C   0  0  0  0  0  3  0  0  0  0  0  0
    0.9435   -2.2955    1.8785 H   0  0  0  0  0  0  0  0  0  0  0  0
   -0.2912   -2.3430    0.1107 C   0  0  0  0  0  3  0  0  0  0  0  0
    0.2201   -3.2828   -0.1527 H   0  0  0  0  0  0  0  0  0  0  0  0
   -1.6420   -2.2546   -0.4634 C   0  0  0  0  0  0  0  0  0  0  0  0
   -2.4617   -1.1004   -0.3477 C   0  0  0  0  0  0  0  0  0  0  0  0
   -3.7517   -1.0943   -0.9042 C   0  0  0  0  0  0  0  0  0  0  0  0
   -4.3625   -0.1817   -0.8212 H   0  0  0  0  0  0  0  0  0  0  0  0
   -4.2516   -2.2141   -1.5823 C   0  0  0  0  0  0  0  0  0  0  0  0
   -5.2615   -2.1905   -2.0178 H   0  0  0  0  0  0  0  0  0  0  0  0
   -3.4410   -3.3519   -1.7220 C   0  0  0  0  0  0  0  0  0  0  0  0
   -3.8123   -4.2332   -2.2667 H   0  0  0  0  0  0  0  0  0  0  0  0
   -2.1542   -3.3650   -1.1739 C   0  0  0  0  0  0  0  0  0  0  0  0
   -1.5183   -4.2567   -1.2860 H   0  0  0  0  0  0  0  0  0  0  0  0
   -0.3508   -0.9040    3.6274 C   0  0  0  0  0  0  0  0  0  0  0  0
    0.4321   -1.5877    3.9917 H   0  0  0  0  0  0  0  0  0  0  0  0
   -1.0537   -0.1035    4.5358 C   0  0  0  0  0  0  0  0  0  0  0  0
   -0.8169   -0.1562    5.6093 H   0  0  0  0  0  0  0  0  0  0  0  0
   -2.0588    0.7609    4.0748 C   0  0  0  0  0  0  0  0  0  0  0  0
   -2.6170    1.3957    4.7788 H   0  0  0  0  0  0  0  0  0  0  0  0
   -2.3354    0.8183    2.7011 C   0  0  0  0  0  0  0  0  0  0  0  0
   -3.1115    1.5044    2.3251 H   0  0  0  0  0  0  0  0  0  0  0  0
   -1.4091    2.9300   -0.8975 C   0  0  0  0  0  0  0  0  0  0  0  0
   -0.3625    2.0252   -0.2508 C   0  0  2  0  0  0  0  0  0  0  0  0
   -0.3553    2.2366    0.8388 H   0  0  0  0  0  0  0  0  0  0  0  0
    1.0278    2.2853   -0.8459 C   0  0  0  0  0  0  0  0  0  0  0  0
    0.9705    2.1681   -1.9493 H   0  0  0  0  0  0  0  0  0  0  0  0
    1.3246    3.3365   -0.6368 H   0  0  0  0  0  0  0  0  0  0  0  0
    2.0682    1.3154   -0.3142 C   0  0  2  0  0  3  0  0  0  0  0  0
    1.9950    0.8190    1.0162 C   0  0  0  0  0  3  0  0  0  0  0  0
    1.1742    1.1607    1.6698 H   0  0  0  0  0  0  0  0  0  0  0  0
    3.2300    0.3769    1.7714 C   0  0  0  0  0  0  0  0  0  0  0  0
    3.4622    1.1505    2.5442 H   0  0  0  0  0  0  0  0  0  0  0  0
    3.0180   -0.5414    2.3631 H   0  0  0  0  0  0  0  0  0  0  0  0
    4.4358    0.1798    0.8962 C   0  0  0  0  0  0  0  0  0  0  0  0
    5.3004   -0.3430    1.3370 H   0  0  0  0  0  0  0  0  0  0  0  0
    4.5019    0.6178   -0.3769 C   0  0  0  0  0  0  0  0  0  0  0  0
    5.4211    0.4471   -0.9611 H   0  0  0  0  0  0  0  0  0  0  0  0
    3.3839    1.3454   -1.0655 C   0  0  0  0  0  0  0  0  0  0  0  0
    3.2207    0.9429   -2.0909 H   0  0  0  0  0  0  0  0  0  0  0  0
    3.6839    2.4117   -1.2210 H   0  0  0  0  0  0  0  0  0  0  0  0
   -2.1102    5.1676   -1.1290 C   0  0  0  0  0  0  0  0  0  0  0  0
   -1.8187    6.1533   -0.7266 H   0  0  0  0  0  0  0  0  0  0  0  0
   -3.1616    4.9354   -0.8667 H   0  0  0  0  0  0  0  0  0  0  0  0
   -2.0151    5.1541   -2.2330 H   0  0  0  0  0  0  0  0  0  0  0  0
  1 32  1  0  0  0  0
  1  5  1  0  0  0  0
  2  1  1  0  0  0  0
  3 31  2  0  0  0  0
  5  7  1  0  0  0  0
  6  5  1  0  0  0  0
  7  8  2  0  0  0  0
  7 29  1  0  0  0  0
  8 23  1  0  0  0  0
  9 10  1  0  0  0  0
  9  8  1  0  0  0  0
 11  9  1  0  0  0  0
 12 11  1  0  0  0  0
 13 14  1  0  0  0  0
 13 11  1  0  0  0  0
 14  5  1  0  0  0  0
 15 16  1  0  0  0  0
 15 14  2  0  0  0  0
 17 15  1  0  0  0  0
 18 17  1  0  0  0  0
 19 17  2  0  0  0  0
 19 21  1  0  0  0  0
 20 19  1  0  0  0  0
 21 13  2  0  0  0  0
 22 21  1  0  0  0  0
 23 24  1  0  0  0  0
 23 25  2  0  0  0  0
 25 26  1  0  0  0  0
 27 25  1  0  0  0  0
 27 28  1  0  0  0  0
 29 27  2  0  0  0  0
 30 29  1  0  0  0  0
 31  4  1  0  0  0  0
 31 32  1  0  0  0  0
 32 33  1  1  0  0  0
 34 36  1  0  0  0  0
 34 32  1  0  0  0  0
 35 34  1  0  0  0  0
 37 34  1  1  0  0  0
 37 38  1  0  0  0  0
 38 39  1  0  0  0  0
 38 40  1  0  0  0  0
 40 42  1  0  0  0  0
 40 41  1  0  0  0  0
 43 44  1  0  0  0  0
 43 40  1  0  0  0  0
 45 43  2  0  0  0  0
 46 45  1  0  0  0  0
 47 45  1  0  0  0  0
 47 37  1  0  0  0  0
 48 47  1  0  0  0  0
 49 47  1  0  0  0  0
 50 52  1  0  0  0  0
 50 51  1  0  0  0  0
 50  4  1  0  0  0  0
 53 50  1  0  0  0  0
M  END
