1,43,46
q = -1.0

 75 78  0  0  1  0  0  0  0  0999 V2000
   -2.4651   -1.2297   -0.6128 N   0  0  0  0  0  2  0  0  0  0  0  0
   -3.0066   -2.2149   -1.3443 C   0  0  0  0  0  0  0  0  0  0  0  0
   -4.4179   -2.4087   -1.3679 C   0  0  0  0  0  0  0  0  0  0  0  0
   -4.8293   -3.2250   -1.9778 H   0  0  0  0  0  0  0  0  0  0  0  0
   -5.2370   -1.6065   -0.6002 C   0  0  0  0  0  0  0  0  0  0  0  0
   -6.3248   -1.7722   -0.5661 H   0  0  0  0  0  0  0  0  0  0  0  0
   -4.6736   -0.5399    0.1535 C   0  0  0  0  0  0  0  0  0  0  0  0
   -3.2501   -0.3464    0.0759 C   0  0  2  0  0  3  0  0  0  0  0  0
   -2.6760    0.7951    0.7230 C   0  0  0  0  0  0  0  0  0  0  0  0
   -3.4913    1.6216    1.4996 C   0  0  0  0  0  0  0  0  0  0  0  0
   -3.0564    2.5054    1.9881 H   0  0  0  0  0  0  0  0  0  0  0  0
   -4.8762    1.3705    1.6499 C   0  0  0  0  0  0  0  0  0  0  0  0
   -5.4803    2.0346    2.2847 H   0  0  0  0  0  0  0  0  0  0  0  0
   -5.4641    0.3216    0.9623 C   0  0  0  0  0  0  0  0  0  0  0  0
   -6.5479    0.1392    1.0266 H   0  0  0  0  0  0  0  0  0  0  0  0
   -2.0924   -3.1357   -2.0871 C   0  0  0  0  0  0  0  0  0  0  0  0
   -1.2657   -2.5738   -2.5680 H   0  0  0  0  0  0  0  0  0  0  0  0
   -2.6409   -3.7300   -2.8414 H   0  0  0  0  0  0  0  0  0  0  0  0
   -1.6078   -3.8207   -1.3556 H   0  0  0  0  0  0  0  0  0  0  0  0
   -0.9220    1.3257    0.5340 P   0  0  0  0  0  4  0  0  0  0  0  0
   -0.0055    0.9349    2.0530 C   0  0  0  0  0  0  0  0  0  0  0  0
    1.2349    1.5589    2.3031 C   0  0  0  0  0  0  0  0  0  0  0  0
    1.6821    2.2385    1.5657 H   0  0  0  0  0  0  0  0  0  0  0  0
    1.9104    1.2988    3.5027 C   0  0  0  0  0  0  0  0  0  0  0  0
    2.8823    1.7795    3.6893 H   0  0  0  0  0  0  0  0  0  0  0  0
    1.3524    0.4311    4.4537 C   0  0  0  0  0  0  0  0  0  0  0  0
    1.8795    0.2400    5.4011 H   0  0  0  0  0  0  0  0  0  0  0  0
    0.1309   -0.2094    4.1901 C   0  0  0  0  0  0  0  0  0  0  0  0
   -0.2937   -0.9187    4.9156 H   0  0  0  0  0  0  0  0  0  0  0  0
   -0.5498    0.0349    2.9915 C   0  0  0  0  0  0  0  0  0  0  0  0
   -1.4871   -0.4958    2.7731 H   0  0  0  0  0  0  0  0  0  0  0  0
   -1.1066    3.1696    0.5398 C   0  0  0  0  0  0  0  0  0  0  0  0
   -1.7046    3.7932   -0.5772 C   0  0  0  0  0  0  0  0  0  0  0  0
   -2.0335    3.1847   -1.4307 H   0  0  0  0  0  0  0  0  0  0  0  0
   -1.8899    5.1804   -0.5875 C   0  0  0  0  0  0  0  0  0  0  0  0
   -2.3518    5.6572   -1.4653 H   0  0  0  0  0  0  0  0  0  0  0  0
   -1.4907    5.9612    0.5099 C   0  0  0  0  0  0  0  0  0  0  0  0
   -1.6364    7.0521    0.4951 H   0  0  0  0  0  0  0  0  0  0  0  0
   -0.9130    5.3436    1.6277 C   0  0  0  0  0  0  0  0  0  0  0  0
   -0.6072    5.9442    2.4978 H   0  0  0  0  0  0  0  0  0  0  0  0
   -0.7233    3.9522    1.6476 C   0  0  0  0  0  0  0  0  0  0  0  0
   -0.2820    3.4808    2.5362 H   0  0  0  0  0  0  0  0  0  0  0  0
   -0.0569    0.7093   -0.9648 C   0  0  2  0  0  3  0  0  0  0  0  0
    1.4139    0.9648   -0.9519 C   0  0  1  0  0  3  0  0  0  0  0  0
    2.2248   -0.0009   -0.4135 C   0  0  1  0  0  3  0  0  0  0  0  0
    1.6502   -1.3693   -0.2554 C   0  0  2  0  0  3  0  0  0  0  0  0
   -0.7998    0.9579   -2.2254 C   0  0  0  0  0  0  0  0  0  0  0  0
   -2.0003    1.2025   -2.3279 O   0  0  0  0  0  0  0  0  0  0  0  0
    0.0178    0.8299   -3.3001 O   0  0  0  0  0  0  0  0  0  0  0  0
   -0.6058    0.9978   -4.5750 C   0  0  0  0  0  0  0  0  0  0  0  0
    0.1932    0.8576   -5.3243 H   0  0  0  0  0  0  0  0  0  0  0  0
   -1.0524    2.0087   -4.6672 H   0  0  0  0  0  0  0  0  0  0  0  0
   -1.4081    0.2468   -4.7229 H   0  0  0  0  0  0  0  0  0  0  0  0
    1.8900    2.2504   -1.5342 C   0  0  0  0  0  0  0  0  0  0  0  0
    1.2344    3.2822   -1.5490 O   0  0  0  0  0  0  0  0  0  0  0  0
    3.1188    2.1408   -2.0939 O   0  0  0  0  0  0  0  0  0  0  0  0
    3.6609    3.3555   -2.6161 C   0  0  0  0  0  0  0  0  0  0  0  0
    2.9705    3.8099   -3.3548 H   0  0  0  0  0  0  0  0  0  0  0  0
    4.6190    3.0839   -3.0938 H   0  0  0  0  0  0  0  0  0  0  0  0
    3.8293    4.0922   -1.8033 H   0  0  0  0  0  0  0  0  0  0  0  0
    3.6669    0.2073   -0.0726 C   0  0  0  0  0  0  0  0  0  0  0  0
    4.5460   -0.6136   -0.2482 O   0  0  0  0  0  0  0  0  0  0  0  0
    3.8763    1.4196    0.5164 O   0  0  0  0  0  0  0  0  0  0  0  0
    5.2419    1.7030    0.8299 C   0  0  0  0  0  0  0  0  0  0  0  0
    5.6763    0.9010    1.4601 H   0  0  0  0  0  0  0  0  0  0  0  0
    5.2417    2.6672    1.3695 H   0  0  0  0  0  0  0  0  0  0  0  0
    5.8487    1.7801   -0.0958 H   0  0  0  0  0  0  0  0  0  0  0  0
    2.2950   -2.2542    0.7896 C   0  0  0  0  0  0  0  0  0  0  0  0
    2.6158   -3.4163    0.6845 O   0  0  0  0  0  0  0  0  0  0  0  0
    2.4729   -1.5224    1.9297 O   0  0  0  0  0  0  0  0  0  0  0  0
    3.0381   -2.2639    3.0127 C   0  0  0  0  0  0  0  0  0  0  0  0
    2.3489   -3.0762    3.3205 H   0  0  0  0  0  0  0  0  0  0  0  0
    3.1775   -1.5436    3.8379 H   0  0  0  0  0  0  0  0  0  0  0  0
    4.0063   -2.7150    2.7158 H   0  0  0  0  0  0  0  0  0  0  0  0
    1.8069   -2.3065   -2.0315 Br  0  0  0  0  0  0  0  0  0  0  0  0
  2  1  1  0  0  0  0
  3  2  2  0  0  0  0
  3  5  1  0  0  0  0
  4  3  1  0  0  0  0
  5  6  1  0  0  0  0
  5  7  2  0  0  0  0
  7 14  1  0  0  0  0
  8  1  1  6  0  0  0
  8  7  1  0  0  0  0
  8  9  1  0  0  0  0
  9 10  2  0  0  0  0
 10 12  1  0  0  0  0
 10 11  1  0  0  0  0
 12 13  1  0  0  0  0
 14 15  1  0  0  0  0
 14 12  2  0  0  0  0
 16 19  1  0  0  0  0
 16  2  1  0  0  0  0
 17 16  1  0  0  0  0
 18 16  1  0  0  0  0
 20 32  1  0  0  0  0
 20  9  1  0  0  0  0
 20 21  1  0  0  0  0
 21 22  2  0  0  0  0
 21 30  1  0  0  0  0
 22 24  1  0  0  0  0
 23 22  1  0  0  0  0
 24 25  1  0  0  0  0
 24 26  2  0  0  0  0
 26 27  1  0  0  0  0
 28 26  1  0  0  0  0
 28 29  1  0  0  0  0
 30 28  2  0  0  0  0
 31 30  1  0  0  0  0
 32 41  1  0  0  0  0
 33 32  2  0  0  0  0
 34 33  1  0  0  0  0
 35 33  1  0  0  0  0
 35 37  2  0  0  0  0
 36 35  1  0  0  0  0
 37 39  1  0  0  0  0
 38 37  1  0  0  0  0
 39 41  2  0  0  0  0
 39 40  1  0  0  0  0
 41 42  1  0  0  0  0
 43 47  1  6  0  0  0
 43 44  1  0  0  0  0
 43 20  1  0  0  0  0
 44 54  1  6  0  0  0
 44 45  1  0  0  0  0
 45 46  1  0  0  0  0
 45 61  1  6  0  0  0
 46 75  1  6  0  0  0
 46 68  1  0  0  0  0
 48 47  2  0  0  0  0
 49 47  1  0  0  0  0
 50 49  1  0  0  0  0
 51 50  1  0  0  0  0
 52 50  1  0  0  0  0
 53 50  1  0  0  0  0
 55 54  2  0  0  0  0
 56 54  1  0  0  0  0
 57 56  1  0  0  0  0
 57 60  1  0  0  0  0
 58 57  1  0  0  0  0
 59 57  1  0  0  0  0
 61 63  1  0  0  0  0
 62 61  2  0  0  0  0
 63 64  1  0  0  0  0
 64 66  1  0  0  0  0
 64 65  1  0  0  0  0
 67 64  1  0  0  0  0
 68 70  1  0  0  0  0
 69 68  2  0  0  0  0
 70 71  1  0  0  0  0
 71 72  1  0  0  0  0
 71 73  1  0  0  0  0
 74 71  1  0  0  0  0
M  END
