1,24,60
q = -1.0

 71 76  0  0  1  0  0  0  0  0999 V2000
    1.8607   -2.5227   -0.1787 N   0  0  0  0  0  0  0  0  0  0  0  0
    2.1984   -2.6393    0.7851 H   0  0  0  0  0  0  0  0  0  0  0  0
    1.5826   -3.4186   -0.6054 H   0  0  0  0  0  0  0  0  0  0  0  0
    2.7173   -1.7264   -0.9862 C   0  0  0  0  0  0  0  0  0  0  0  0
    2.8804   -2.0146   -2.3530 C   0  0  0  0  0  0  0  0  0  0  0  0
    2.3479   -2.8753   -2.7842 H   0  0  0  0  0  0  0  0  0  0  0  0
    3.6988   -1.2002   -3.1451 C   0  0  0  0  0  0  0  0  0  0  0  0
    3.8176   -1.4280   -4.2149 H   0  0  0  0  0  0  0  0  0  0  0  0
    4.3668   -0.1069   -2.5721 C   0  0  0  0  0  0  0  0  0  0  0  0
    5.0143    0.5352   -3.1866 H   0  0  0  0  0  0  0  0  0  0  0  0
    4.1910    0.1785   -1.2122 C   0  0  0  0  0  0  0  0  0  0  0  0
    4.6870    1.0520   -0.7654 H   0  0  0  0  0  0  0  0  0  0  0  0
    3.3430   -0.6013   -0.4001 C   0  0  0  0  0  0  0  0  0  0  0  0
    3.2162   -0.3027    1.0573 C   0  0  0  0  0  0  0  0  0  0  0  0
    4.4478   -0.2372    1.7524 C   0  0  0  0  0  0  0  0  0  0  0  0
    5.3663   -0.4356    1.1802 H   0  0  0  0  0  0  0  0  0  0  0  0
    4.5342    0.0470    3.1188 C   0  0  0  0  0  0  0  0  0  0  0  0
    5.5152    0.0846    3.6156 H   0  0  0  0  0  0  0  0  0  0  0  0
    3.3527    0.2672    3.8359 C   0  0  0  0  0  0  0  0  0  0  0  0
    3.3796    0.4911    4.9129 H   0  0  0  0  0  0  0  0  0  0  0  0
    2.1221    0.1979    3.1752 C   0  0  0  0  0  0  0  0  0  0  0  0
    1.2064    0.3839    3.7517 H   0  0  0  0  0  0  0  0  0  0  0  0
    1.9996   -0.0727    1.7870 C   0  0  0  0  0  0  0  0  0  0  0  0
    0.5843    0.0015    1.2453 C   0  0  1  0  0  3  0  0  0  0  0  0
   -0.4873   -0.2705    2.2773 C   0  0  0  0  0  0  0  0  0  0  0  0
   -0.6561   -1.5592    2.8291 C   0  0  0  0  0  0  0  0  0  0  0  0
   -0.0163   -2.3832    2.4781 H   0  0  0  0  0  0  0  0  0  0  0  0
   -1.6443   -1.8053    3.7910 C   0  0  0  0  0  0  0  0  0  0  0  0
   -1.7705   -2.8215    4.1943 H   0  0  0  0  0  0  0  0  0  0  0  0
   -2.4780   -0.7626    4.2298 C   0  0  0  0  0  0  0  0  0  0  0  0
   -3.2606   -0.9569    4.9788 H   0  0  0  0  0  0  0  0  0  0  0  0
   -2.3012    0.5283    3.7096 C   0  0  0  0  0  0  0  0  0  0  0  0
   -2.9401    1.3568    4.0515 H   0  0  0  0  0  0  0  0  0  0  0  0
   -1.3096    0.7741    2.7477 C   0  0  0  0  0  0  0  0  0  0  0  0
   -1.1756    1.7899    2.3494 H   0  0  0  0  0  0  0  0  0  0  0  0
    0.2464    0.7654    0.0762 C   0  0  2  0  0  3  0  0  0  0  0  0
    1.2193    1.5884   -0.6924 C   0  0  0  0  0  0  0  0  0  0  0  0
    2.0524    2.5183   -0.0338 C   0  0  0  0  0  0  0  0  0  0  0  0
    2.0463    2.5681    1.0647 H   0  0  0  0  0  0  0  0  0  0  0  0
    2.8558    3.3962   -0.7755 C   0  0  0  0  0  0  0  0  0  0  0  0
    3.4903    4.1278   -0.2523 H   0  0  0  0  0  0  0  0  0  0  0  0
    2.8462    3.3483   -2.1791 C   0  0  0  0  0  0  0  0  0  0  0  0
    3.4787    4.0373   -2.7592 H   0  0  0  0  0  0  0  0  0  0  0  0
    2.0255    2.4183   -2.8399 C   0  0  0  0  0  0  0  0  0  0  0  0
    2.0189    2.3707   -3.9392 H   0  0  0  0  0  0  0  0  0  0  0  0
    1.2113    1.5505   -2.1029 C   0  0  0  0  0  0  0  0  0  0  0  0
    0.5610    0.8206   -2.6086 H   0  0  0  0  0  0  0  0  0  0  0  0
   -1.2168    0.9370   -0.2796 C   0  0  0  0  0  0  0  0  0  0  0  0
   -1.9647    2.2122   -0.2154 C   0  0  0  0  0  0  0  0  0  0  0  0
   -3.3256    2.1913    0.1836 C   0  0  0  0  0  0  0  0  0  0  0  0
   -3.7941    1.2300    0.4363 H   0  0  0  0  0  0  0  0  0  0  0  0
   -4.0668    3.3740    0.2827 C   0  0  0  0  0  0  0  0  0  0  0  0
   -5.1205    3.3279    0.5983 H   0  0  0  0  0  0  0  0  0  0  0  0
   -3.4708    4.6131   -0.0070 C   0  0  0  0  0  0  0  0  0  0  0  0
   -4.0538    5.5433    0.0723 H   0  0  0  0  0  0  0  0  0  0  0  0
   -2.1225    4.6514   -0.3920 C   0  0  0  0  0  0  0  0  0  0  0  0
   -1.6411    5.6146   -0.6215 H   0  0  0  0  0  0  0  0  0  0  0  0
   -1.3750    3.4687   -0.4948 C   0  0  0  0  0  0  0  0  0  0  0  0
   -0.3259    3.5244   -0.8107 H   0  0  0  0  0  0  0  0  0  0  0  0
   -1.6792   -0.3135   -0.5524 C   0  0  0  0  0  3  0  0  0  0  0  0
   -2.9822   -0.8052   -0.9915 C   0  0  0  0  0  0  0  0  0  0  0  0
   -3.6548   -1.8068   -0.2535 C   0  0  0  0  0  0  0  0  0  0  0  0
   -3.1641   -2.2294    0.6356 H   0  0  0  0  0  0  0  0  0  0  0  0
   -4.9263   -2.2414   -0.6463 C   0  0  0  0  0  0  0  0  0  0  0  0
   -5.4434   -3.0155   -0.0589 H   0  0  0  0  0  0  0  0  0  0  0  0
   -5.5365   -1.7031   -1.7919 C   0  0  0  0  0  0  0  0  0  0  0  0
   -6.5316   -2.0545   -2.1046 H   0  0  0  0  0  0  0  0  0  0  0  0
   -4.8678   -0.7218   -2.5424 C   0  0  0  0  0  0  0  0  0  0  0  0
   -5.3375   -0.3026   -3.4455 H   0  0  0  0  0  0  0  0  0  0  0  0
   -3.6017   -0.2729   -2.1466 C   0  0  0  0  0  0  0  0  0  0  0  0
   -3.0748    0.4993   -2.7265 H   0  0  0  0  0  0  0  0  0  0  0  0
  1  2  1  0  0  0  0
  3  1  1  0  0  0  0
  4 13  1  0  0  0  0
  4  1  1  0  0  0  0
  5  4  2  0  0  0  0
  6  5  1  0  0  0  0
  7  9  2  0  0  0  0
  7  5  1  0  0  0  0
  8  7  1  0  0  0  0
  9 11  1  0  0  0  0
 10  9  1  0  0  0  0
 11 12  1  0  0  0  0
 11 13  2  0  0  0  0
 13 14  1  0  0  0  0
 14 15  2  0  0  0  0
 14 23  1  0  0  0  0
 15 17  1  0  0  0  0
 16 15  1  0  0  0  0
 17 18  1  0  0  0  0
 17 19  2  0  0  0  0
 19 20  1  0  0  0  0
 21 22  1  0  0  0  0
 21 19  1  0  0  0  0
 23 21  2  0  0  0  0
 24 36  1  1  0  0  0
 24 23  1  0  0  0  0
 24 25  1  0  0  0  0
 25 34  2  0  0  0  0
 25 26  1  0  0  0  0
 26 28  2  0  0  0  0
 27 26  1  0  0  0  0
 28 29  1  0  0  0  0
 28 30  1  0  0  0  0
 30 31  1  0  0  0  0
 32 33  1  0  0  0  0
 32 30  2  0  0  0  0
 34 32  1  0  0  0  0
 35 34  1  0  0  0  0
 36 48  1  1  0  0  0
 37 38  1  0  0  0  0
 37 36  1  0  0  0  0
 38 39  1  0  0  0  0
 40 41  1  0  0  0  0
 40 38  2  0  0  0  0
 42 40  1  0  0  0  0
 43 42  1  0  0  0  0
 44 42  2  0  0  0  0
 44 46  1  0  0  0  0
 45 44  1  0  0  0  0
 46 37  2  0  0  0  0
 47 46  1  0  0  0  0
 48 49  1  0  0  0  0
 49 50  1  0  0  0  0
 50 52  2  0  0  0  0
 50 51  1  0  0  0  0
 52 53  1  0  0  0  0
 54 55  1  0  0  0  0
 54 52  1  0  0  0  0
 56 54  2  0  0  0  0
 57 56  1  0  0  0  0
 58 56  1  0  0  0  0
 58 49  2  0  0  0  0
 59 58  1  0  0  0  0
 60 48  2  0  0  0  0
 61 60  1  0  0  0  0
 61 62  1  0  0  0  0
 62 63  1  0  0  0  0
 64 62  2  0  0  0  0
 64 65  1  0  0  0  0
 66 64  1  0  0  0  0
 67 66  1  0  0  0  0
 68 70  1  0  0  0  0
 68 66  2  0  0  0  0
 69 68  1  0  0  0  0
 70 61  2  0  0  0  0
 71 70  1  0  0  0  0
M  END
