1,2,4
q = -2.0, confidence = 0.946

 36 37  0  0  1  0  0  0  0  0999 V2000
   -0.7128    1.1083    0.1980 N   0  0  0  0  0  2  0  0  0  0  0  0
   -0.4120   -1.4380   -0.0571 C   0  0  2  0  0  3  0  0  0  0  0  0
    0.3226   -1.6928    1.1502 C   0  0  1  0  0  3  0  0  0  0  0  0
    1.6916   -1.8382    0.7736 C   0  0  0  0  0  3  0  0  0  0  0  0
    2.5272   -1.9975    1.4670 H   0  0  0  0  0  0  0  0  0  0  0  0
    1.8138   -1.6956   -0.6454 C   0  0  0  0  0  0  0  0  0  0  0  0
    0.5021   -1.4381   -1.1667 C   0  0  0  0  0  0  0  0  0  0  0  0
   -0.2470   -1.7499    2.5333 C   0  0  0  0  0  0  0  0  0  0  0  0
    0.4881   -1.3930    3.2793 H   0  0  0  0  0  0  0  0  0  0  0  0
   -0.5320   -2.7912    2.7947 H   0  0  0  0  0  0  0  0  0  0  0  0
   -1.1598   -1.1280    2.6138 H   0  0  0  0  0  0  0  0  0  0  0  0
    3.0729   -1.8353   -1.4436 C   0  0  0  0  0  0  0  0  0  0  0  0
    3.9688   -1.6913   -0.8098 H   0  0  0  0  0  0  0  0  0  0  0  0
    3.1163   -1.0964   -2.2666 H   0  0  0  0  0  0  0  0  0  0  0  0
    3.1339   -2.8507   -1.8907 H   0  0  0  0  0  0  0  0  0  0  0  0
    0.1427   -1.1830   -2.5969 C   0  0  0  0  0  0  0  0  0  0  0  0
   -0.8438   -0.6864   -2.6722 H   0  0  0  0  0  0  0  0  0  0  0  0
    0.0833   -2.1359   -3.1647 H   0  0  0  0  0  0  0  0  0  0  0  0
    0.8965   -0.5391   -3.0902 H   0  0  0  0  0  0  0  0  0  0  0  0
   -1.8136   -0.9697   -0.1024 C   0  0  0  0  0  0  0  0  0  0  0  0
   -1.9275    0.4421    0.0529 C   0  0  0  0  0  0  0  0  0  0  0  0
   -3.2131    1.0317    0.0684 C   0  0  0  0  0  0  0  0  0  0  0  0
   -3.3319    2.1160    0.1976 H   0  0  0  0  0  0  0  0  0  0  0  0
   -4.3468    0.2175   -0.0798 C   0  0  0  0  0  0  0  0  0  0  0  0
   -5.3443    0.6831   -0.0672 H   0  0  0  0  0  0  0  0  0  0  0  0
   -4.2294   -1.1722   -0.2433 C   0  0  0  0  0  0  0  0  0  0  0  0
   -5.1288   -1.7941   -0.3609 H   0  0  0  0  0  0  0  0  0  0  0  0
   -2.9536   -1.7658   -0.2507 C   0  0  0  0  0  0  0  0  0  0  0  0
   -2.8420   -2.8544   -0.3677 H   0  0  0  0  0  0  0  0  0  0  0  0
   -0.6838    2.5676    0.3105 C   0  0  0  0  0  0  0  0  0  0  0  0
    0.3131    2.8518    0.7139 H   0  0  0  0  0  0  0  0  0  0  0  0
   -1.4134    2.8884    1.0899 H   0  0  0  0  0  0  0  0  0  0  0  0
   -0.9213    3.2904   -1.0166 C   0  0  0  0  0  0  0  0  0  0  0  0
   -0.8762    4.3883   -0.8708 H   0  0  0  0  0  0  0  0  0  0  0  0
   -1.9092    3.0392   -1.4503 H   0  0  0  0  0  0  0  0  0  0  0  0
   -0.1380    3.0037   -1.7453 H   0  0  0  0  0  0  0  0  0  0  0  0
  1 30  1  0  0  0  0
  2 20  1  1  0  0  0
  2  3  1  0  0  0  0
  3  8  1  1  0  0  0
  4  3  1  0  0  0  0
  4  5  1  0  0  0  0
  6  4  1  0  0  0  0
  7  6  2  0  0  0  0
  7  2  1  0  0  0  0
  8 11  1  0  0  0  0
  8 10  1  0  0  0  0
  8  9  1  0  0  0  0
 12 13  1  0  0  0  0
 12  6  1  0  0  0  0
 14 12  1  0  0  0  0
 15 12  1  0  0  0  0
 16  7  1  0  0  0  0
 17 16  1  0  0  0  0
 18 16  1  0  0  0  0
 19 16  1  0  0  0  0
 20 21  1  0  0  0  0
 21 22  2  0  0  0  0
 21  1  1  0  0  0  0
 22 23  1  0  0  0  0
 24 25  1  0  0  0  0
 24 22  1  0  0  0  0
 26 24  2  0  0  0  0
 27 26  1  0  0  0  0
 28 26  1  0  0  0  0
 28 20  2  0  0  0  0
 29 28  1  0  0  0  0
 30 31  1  0  0  0  0
 30 32  1  0  0  0  0
 33 34  1  0  0  0  0
 33 30  1  0  0  0  0
 35 33  1  0  0  0  0
 36 33  1  0  0  0  0
M  END
