2,18,23
q = -1.0, confidence = 0.0

 33 33  0  0  0  0  0  0  0  0999 V2000
    2.0349   -0.3551   -0.2856 C   0  0  0  0  0  0  0  0  0  0  0  0
    0.9288   -1.0878    0.1706 C   0  0  0  0  0  3  0  0  0  0  0  0
    1.2449   -2.2777    0.8636 C   0  0  0  0  0  0  0  0  0  0  0  0
    0.4243   -2.9066    1.2510 H   0  0  0  0  0  0  0  0  0  0  0  0
    2.5690   -2.6978    1.0823 C   0  0  0  0  0  0  0  0  0  0  0  0
    2.7753   -3.6372    1.6202 H   0  0  0  0  0  0  0  0  0  0  0  0
    3.6359   -1.9138    0.6168 C   0  0  0  0  0  0  0  0  0  0  0  0
    4.6774   -2.2282    0.7836 H   0  0  0  0  0  0  0  0  0  0  0  0
    3.3755   -0.7179   -0.0733 C   0  0  0  0  0  0  0  0  0  0  0  0
    4.2265   -0.1153   -0.4228 H   0  0  0  0  0  0  0  0  0  0  0  0
    1.7184    0.9745   -0.9867 N   0  0  0  0  0  4  0  0  0  0  0  0
    1.6480    2.0755    0.0617 C   0  0  0  0  0  0  0  0  0  0  0  0
    2.6911    2.2828    0.3723 H   0  0  0  0  0  0  0  0  0  0  0  0
    1.2649    2.9731   -0.4625 H   0  0  0  0  0  0  0  0  0  0  0  0
    0.8641    1.7799    1.3369 C   0  0  0  0  0  0  0  0  0  0  0  0
    1.3108    0.8950    1.8294 H   0  0  0  0  0  0  0  0  0  0  0  0
    1.0581    2.6549    2.0135 H   0  0  0  0  0  0  0  0  0  0  0  0
   -0.5724    1.5390    1.2053 N   0  0  0  0  0  0  0  0  0  0  0  0
    2.7845    1.3562   -1.9656 C   0  0  0  0  0  0  0  0  0  0  0  0
    3.7531    1.5429   -1.4646 H   0  0  0  0  0  0  0  0  0  0  0  0
    2.4568    2.2754   -2.4827 H   0  0  0  0  0  0  0  0  0  0  0  0
    2.8892    0.5353   -2.6960 H   0  0  0  0  0  0  0  0  0  0  0  0
    0.3650    0.8832   -1.7035 C   0  0  0  0  0  3  0  0  0  0  0  0
    0.5554    0.2450   -2.5920 H   0  0  0  0  0  0  0  0  0  0  0  0
    0.1719    1.9127   -2.0728 H   0  0  0  0  0  0  0  0  0  0  0  0
   -1.3085    2.7218    0.7655 C   0  0  0  0  0  0  0  0  0  0  0  0
   -1.2009    3.5767    1.4798 H   0  0  0  0  0  0  0  0  0  0  0  0
   -2.3807    2.4695    0.6687 H   0  0  0  0  0  0  0  0  0  0  0  0
   -0.9579    3.0432   -0.2333 H   0  0  0  0  0  0  0  0  0  0  0  0
   -1.1094    1.0051    2.4575 C   0  0  0  0  0  0  0  0  0  0  0  0
   -0.6000    0.0513    2.6981 H   0  0  0  0  0  0  0  0  0  0  0  0
   -2.1887    0.7958    2.3348 H   0  0  0  0  0  0  0  0  0  0  0  0
   -0.9772    1.7136    3.3137 H   0  0  0  0  0  0  0  0  0  0  0  0
  1  9  2  0  0  0  0
  1  2  1  0  0  0  0
  2  3  2  0  0  0  0
  3  5  1  0  0  0  0
  3  4  1  0  0  0  0
  5  6  1  0  0  0  0
  7  8  1  0  0  0  0
  7  5  2  0  0  0  0
  9  7  1  0  0  0  0
 10  9  1  0  0  0  0
 11  1  1  0  0  0  0
 11 12  1  0  0  0  0
 12 13  1  0  0  0  0
 12 15  1  0  0  0  0
 14 12  1  0  0  0  0
 15 16  1  0  0  0  0
 15 17  1  0  0  0  0
 18 15  1  0  0  0  0
 18 30  1  0  0  0  0
 19 20  1  0  0  0  0
 19 11  1  0  0  0  0
 21 19  1  0  0  0  0
 22 19  1  0  0  0  0
 23 11  1  0  0  0  0
 24 23  1  0  0  0  0
 25 23  1  0  0  0  0
 26 18  1  0  0  0  0
 26 27  1  0  0  0  0
 28 26  1  0  0  0  0
 29 26  1  0  0  0  0
 30 31  1  0  0  0  0
 30 33  1  0  0  0  0
 32 30  1  0  0  0  0
M  END
