2,7,12
q = -1.0

 49 50  0  0  0  0  0  0  0  0999 V2000
   -1.2663   -0.6779   -0.1164 P   0  0  0  0  0  4  0  0  0  0  0  0
    0.3016   -0.8985   -0.2713 N   0  0  0  0  0  1  0  0  0  0  0  0
    3.3263    1.8377   -0.9312 C   0  0  0  0  0  0  0  0  0  0  0  0
    4.3859    1.8916   -1.2213 H   0  0  0  0  0  0  0  0  0  0  0  0
    2.9620    2.1474    0.3706 C   0  0  0  0  0  0  0  0  0  0  0  0
    3.7424    2.4345    1.0915 H   0  0  0  0  0  0  0  0  0  0  0  0
    1.6122    1.9094    0.8538 C   0  0  0  0  0  3  0  0  0  0  0  0
    1.3168    2.2229    1.8638 H   0  0  0  0  0  0  0  0  0  0  0  0
    0.6127    1.8927   -0.2174 C   0  0  0  0  0  0  0  0  0  0  0  0
    0.9929    1.5938   -1.5260 C   0  0  0  0  0  0  0  0  0  0  0  0
    0.2009    1.4584   -2.2768 H   0  0  0  0  0  0  0  0  0  0  0  0
    2.3635    1.2852   -1.8745 C   0  0  0  0  0  3  0  0  0  0  0  0
    2.6438    1.1317   -2.9245 H   0  0  0  0  0  0  0  0  0  0  0  0
   -0.8295    2.1134    0.0739 C   0  0  0  0  0  0  0  0  0  0  0  0
   -1.2371    3.4243    0.4062 C   0  0  0  0  0  0  0  0  0  0  0  0
   -0.4636    4.2004    0.5132 H   0  0  0  0  0  0  0  0  0  0  0  0
   -2.5900    3.7504    0.5519 C   0  0  0  0  0  0  0  0  0  0  0  0
   -2.8843    4.7828    0.7942 H   0  0  0  0  0  0  0  0  0  0  0  0
   -3.5690    2.7606    0.3597 C   0  0  0  0  0  0  0  0  0  0  0  0
   -4.6378    3.0099    0.4419 H   0  0  0  0  0  0  0  0  0  0  0  0
   -3.1779    1.4466    0.0744 C   0  0  0  0  0  0  0  0  0  0  0  0
   -3.9556    0.6799   -0.0467 H   0  0  0  0  0  0  0  0  0  0  0  0
   -1.8140    1.0950   -0.0489 C   0  0  0  0  0  0  0  0  0  0  0  0
   -1.7827   -1.3613    1.5993 C   0  0  0  0  0  0  0  0  0  0  0  0
   -0.8890   -0.6024    2.5999 C   0  0  0  0  0  0  0  0  0  0  0  0
   -1.0385   -1.0262    3.6157 H   0  0  0  0  0  0  0  0  0  0  0  0
   -1.1500    0.4744    2.6383 H   0  0  0  0  0  0  0  0  0  0  0  0
    0.1815   -0.6809    2.3293 H   0  0  0  0  0  0  0  0  0  0  0  0
   -1.4222   -2.8570    1.6080 C   0  0  0  0  0  0  0  0  0  0  0  0
   -1.4623   -3.2430    2.6484 H   0  0  0  0  0  0  0  0  0  0  0  0
   -0.4009   -3.0149    1.2103 H   0  0  0  0  0  0  0  0  0  0  0  0
   -2.1307   -3.4580    1.0035 H   0  0  0  0  0  0  0  0  0  0  0  0
   -3.2514   -1.1604    1.9985 C   0  0  0  0  0  0  0  0  0  0  0  0
   -3.4116   -1.6248    2.9952 H   0  0  0  0  0  0  0  0  0  0  0  0
   -3.9632   -1.6360    1.2985 H   0  0  0  0  0  0  0  0  0  0  0  0
   -3.5117   -0.0892    2.0947 H   0  0  0  0  0  0  0  0  0  0  0  0
   -2.1471   -1.5103   -1.5938 C   0  0  0  0  0  0  0  0  0  0  0  0
   -1.3574   -2.7931   -1.9151 C   0  0  0  0  0  0  0  0  0  0  0  0
   -1.7348   -3.2201   -2.8685 H   0  0  0  0  0  0  0  0  0  0  0  0
   -1.4740   -3.5636   -1.1293 H   0  0  0  0  0  0  0  0  0  0  0  0
   -0.2779   -2.5718   -2.0173 H   0  0  0  0  0  0  0  0  0  0  0  0
   -2.0058   -0.5323   -2.7750 C   0  0  0  0  0  0  0  0  0  0  0  0
   -2.4021   -1.0101   -3.6958 H   0  0  0  0  0  0  0  0  0  0  0  0
   -0.9408   -0.2844   -2.9539 H   0  0  0  0  0  0  0  0  0  0  0  0
   -2.5627    0.4109   -2.6097 H   0  0  0  0  0  0  0  0  0  0  0  0
   -3.6262   -1.8556   -1.3683 C   0  0  0  0  0  0  0  0  0  0  0  0
   -4.0346   -2.3060   -2.2983 H   0  0  0  0  0  0  0  0  0  0  0  0
   -4.2484   -0.9685   -1.1408 H   0  0  0  0  0  0  0  0  0  0  0  0
   -3.7633   -2.5985   -0.5590 H   0  0  0  0  0  0  0  0  0  0  0  0
  1 23  1  0  0  0  0
  1 24  1  0  0  0  0
  2  1  1  0  0  0  0
  3  5  2  0  0  0  0
  4  3  1  0  0  0  0
  5  7  1  0  0  0  0
  5  6  1  0  0  0  0
  7  8  1  0  0  0  0
  9 14  1  0  0  0  0
  9  7  1  0  0  0  0
 10  9  2  0  0  0  0
 11 10  1  0  0  0  0
 12 10  1  0  0  0  0
 12  3  1  0  0  0  0
 13 12  1  0  0  0  0
 14 15  1  0  0  0  0
 15 16  1  0  0  0  0
 15 17  2  0  0  0  0
 17 18  1  0  0  0  0
 19 20  1  0  0  0  0
 19 17  1  0  0  0  0
 21 19  2  0  0  0  0
 22 21  1  0  0  0  0
 23 14  2  0  0  0  0
 23 21  1  0  0  0  0
 24 29  1  0  0  0  0
 24 33  1  0  0  0  0
 24 25  1  0  0  0  0
 25 27  1  0  0  0  0
 25 26  1  0  0  0  0
 28 25  1  0  0  0  0
 29 30  1  0  0  0  0
 31 29  1  0  0  0  0
 32 29  1  0  0  0  0
 33 36  1  0  0  0  0
 33 34  1  0  0  0  0
 35 33  1  0  0  0  0
 37 46  1  0  0  0  0
 37  1  1  0  0  0  0
 38 37  1  0  0  0  0
 38 40  1  0  0  0  0
 39 38  1  0  0  0  0
 41 38  1  0  0  0  0
 42 45  1  0  0  0  0
 42 37  1  0  0  0  0
 43 42  1  0  0  0  0
 44 42  1  0  0  0  0
 46 48  1  0  0  0  0
 46 49  1  0  0  0  0
 47 46  1  0  0  0  0
M  END
