8,9,17
q = -1.0, confidence = 0.0

 32 33  0  0  0  0  0  0  0  0999 V2000
    3.7641   -3.1970   -1.2494 O   0  0  0  0  0  0  0  0  0  0  0  0
   -2.2922    3.3422    2.5036 O   0  0  0  0  0  0  0  0  0  0  0  0
   -2.8899    1.2851   -0.3305 N   0  0  0  0  0  0  0  0  0  0  0  0
   -1.9413    0.7662   -2.2031 N   0  0  0  0  0  0  0  0  0  0  0  0
   -0.0058   -0.5635   -2.5901 N   0  0  0  0  0  0  0  0  0  0  0  0
    1.2042   -1.7262   -1.2307 N   0  0  0  0  0  0  0  0  0  0  0  0
    4.2651   -1.8172    0.4999 N   0  0  0  0  0  0  0  0  0  0  0  0
   -0.7103    2.2371    1.2096 N   0  0  0  0  0  2  0  0  0  0  0  0
   -1.6807    0.9147   -0.8584 C   0  0  0  0  0  2  0  0  0  0  0  0
   -3.8694    1.3751   -1.3131 C   0  0  0  0  0  0  0  0  0  0  0  0
   -4.8968    1.6805   -1.0915 H   0  0  0  0  0  0  0  0  0  0  0  0
   -3.2728    1.0414   -2.5079 C   0  0  0  0  0  0  0  0  0  0  0  0
   -3.6704    1.0213   -3.5276 H   0  0  0  0  0  0  0  0  0  0  0  0
   -0.8479    0.4880   -3.1225 C   0  0  0  0  0  0  0  0  0  0  0  0
   -0.2423    1.4091   -3.2499 H   0  0  0  0  0  0  0  0  0  0  0  0
   -1.2612    0.1624   -4.0955 H   0  0  0  0  0  0  0  0  0  0  0  0
    0.4834   -0.5371   -1.2884 C   0  0  0  0  0  2  0  0  0  0  0  0
    0.3807   -1.7083   -3.2852 C   0  0  0  0  0  0  0  0  0  0  0  0
    0.1027   -1.8879   -4.3282 H   0  0  0  0  0  0  0  0  0  0  0  0
    1.1499   -2.4418   -2.4273 C   0  0  0  0  0  0  0  0  0  0  0  0
    1.7147   -3.3684   -2.5587 H   0  0  0  0  0  0  0  0  0  0  0  0
    1.9107   -2.1987   -0.0551 C   0  0  0  0  0  0  0  0  0  0  0  0
    1.4777   -3.1642    0.2865 H   0  0  0  0  0  0  0  0  0  0  0  0
    1.7481   -1.4514    0.7385 H   0  0  0  0  0  0  0  0  0  0  0  0
    3.4008   -2.4491   -0.3446 C   0  0  0  0  0  0  0  0  0  0  0  0
   -3.0487    1.5552    1.0959 C   0  0  0  0  0  0  0  0  0  0  0  0
   -3.0522    0.5892    1.6470 H   0  0  0  0  0  0  0  0  0  0  0  0
   -4.0180    2.0574    1.2613 H   0  0  0  0  0  0  0  0  0  0  0  0
   -1.9449    2.4839    1.6714 C   0  0  0  0  0  0  0  0  0  0  0  0
    5.2648   -1.9461    0.3325 H   0  0  0  0  0  0  0  0  0  0  0  0
    3.9762   -1.0844    1.1530 H   0  0  0  0  0  0  0  0  0  0  0  0
   -0.0609    2.9640    1.5383 H   0  0  0  0  0  0  0  0  0  0  0  0
  1 25  2  0  0  0  0
  3 26  1  0  0  0  0
  4  9  1  0  0  0  0
  5 17  1  0  0  0  0
  6 22  1  0  0  0  0
  7 31  1  0  0  0  0
  8 32  1  0  0  0  0
  8 29  1  0  0  0  0
  9  3  1  0  0  0  0
 10 11  1  0  0  0  0
 10  3  1  0  0  0  0
 12  4  1  0  0  0  0
 12 10  2  0  0  0  0
 13 12  1  0  0  0  0
 14  5  1  0  0  0  0
 14  4  1  0  0  0  0
 15 14  1  0  0  0  0
 16 14  1  0  0  0  0
 17  6  1  0  0  0  0
 18  5  1  0  0  0  0
 18 20  2  0  0  0  0
 19 18  1  0  0  0  0
 20  6  1  0  0  0  0
 21 20  1  0  0  0  0
 22 23  1  0  0  0  0
 22 24  1  0  0  0  0
 25 22  1  0  0  0  0
 25  7  1  0  0  0  0
 26 28  1  0  0  0  0
 26 27  1  0  0  0  0
 26 29  1  0  0  0  0
 29  2  2  0  0  0  0
 30  7  1  0  0  0  0
M  END
