1,17,28
q = -2.0, confidence = 0.84

 33 33  0  0  0  0  0  0  0  0999 V2000
   -2.4072   -0.8139   -0.3580 C   0  0  0  0  0  2  0  0  0  0  0  0
   -2.4452   -2.2475   -0.2904 C   0  0  0  0  0  0  0  0  0  0  0  0
   -3.6652   -2.9480   -0.3584 C   0  0  0  0  0  0  0  0  0  0  0  0
   -3.6811   -4.0480   -0.3036 H   0  0  0  0  0  0  0  0  0  0  0  0
   -4.8694   -2.2379   -0.4956 C   0  0  0  0  0  0  0  0  0  0  0  0
   -5.8248   -2.7809   -0.5489 H   0  0  0  0  0  0  0  0  0  0  0  0
   -4.8467   -0.8370   -0.5596 C   0  0  0  0  0  0  0  0  0  0  0  0
   -5.7918   -0.2796   -0.6609 H   0  0  0  0  0  0  0  0  0  0  0  0
   -3.6236   -0.1347   -0.4886 C   0  0  0  0  0  0  0  0  0  0  0  0
   -3.6389    0.9671   -0.5278 H   0  0  0  0  0  0  0  0  0  0  0  0
   -1.1463   -2.9226   -0.1395 C   0  0  0  0  0  0  0  0  0  0  0  0
   -0.9495   -4.3982   -0.0307 C   0  0  0  0  0  0  0  0  0  0  0  0
   -1.3775   -4.9072   -0.9185 H   0  0  0  0  0  0  0  0  0  0  0  0
   -1.4866   -4.7900    0.8576 H   0  0  0  0  0  0  0  0  0  0  0  0
    0.1215   -4.6526    0.0530 H   0  0  0  0  0  0  0  0  0  0  0  0
    2.0382   -1.4518    0.0389 C   0  0  0  0  0  0  0  0  0  0  0  0
    1.5977   -0.1738   -0.0754 C   0  0  0  0  0  3  0  0  0  0  0  0
    3.4228   -1.9768    0.1610 C   0  0  0  0  0  0  0  0  0  0  0  0
    5.6832   -1.3612    0.3633 C   0  0  0  0  0  0  0  0  0  0  0  0
    5.8448   -2.0119    1.2468 H   0  0  0  0  0  0  0  0  0  0  0  0
    6.2703   -0.4304    0.4585 H   0  0  0  0  0  0  0  0  0  0  0  0
    5.9961   -1.9246   -0.5397 H   0  0  0  0  0  0  0  0  0  0  0  0
    2.4232    1.0350   -0.0927 C   0  0  0  0  0  0  0  0  0  0  0  0
    3.7241    2.4884   -1.4092 C   0  0  0  0  0  0  0  0  0  0  0  0
    3.0975    3.3615   -1.1322 H   0  0  0  0  0  0  0  0  0  0  0  0
    4.0517    2.5671   -2.4617 H   0  0  0  0  0  0  0  0  0  0  0  0
    4.6055    2.4730   -0.7352 H   0  0  0  0  0  0  0  0  0  0  0  0
   -0.1516   -2.0669   -0.1032 N   0  0  0  0  0  2  0  0  0  0  0  0
    1.1358   -2.5302    0.0488 O   0  0  0  0  0  0  0  0  0  0  0  0
    3.7328   -3.1556    0.1694 O   0  0  0  0  0  0  0  0  0  0  0  0
    4.3168   -0.9586    0.2676 O   0  0  0  0  0  0  0  0  0  0  0  0
    2.5053    1.8374    0.8338 O   0  0  0  0  0  0  0  0  0  0  0  0
    2.9852    1.2697   -1.3114 O   0  0  0  0  0  0  0  0  0  0  0  0
  1  2  1  0  0  0  0
  2 11  2  0  0  0  0
  3  4  1  0  0  0  0
  3  2  1  0  0  0  0
  5  3  2  0  0  0  0
  6  5  1  0  0  0  0
  7  5  1  0  0  0  0
  7  9  2  0  0  0  0
  8  7  1  0  0  0  0
  9  1  1  0  0  0  0
 10  9  1  0  0  0  0
 11 28  1  0  0  0  0
 11 12  1  0  0  0  0
 12 15  1  0  0  0  0
 12 14  1  0  0  0  0
 13 12  1  0  0  0  0
 16 29  1  0  0  0  0
 16 18  1  0  0  0  0
 17 16  2  0  0  0  0
 18 30  2  0  0  0  0
 18 31  1  0  0  0  0
 19 21  1  0  0  0  0
 19 20  1  0  0  0  0
 22 19  1  0  0  0  0
 23 17  1  0  0  0  0
 23 32  2  0  0  0  0
 24 33  1  0  0  0  0
 24 25  1  0  0  0  0
 24 27  1  0  0  0  0
 26 24  1  0  0  0  0
 28 29  1  0  0  0  0
 31 19  1  0  0  0  0
 33 23  1  0  0  0  0
M  END
