4,8,29
q = -1.0, confidence = 0.0

 83 87  0  0  0  0  0  0  0  0999 V2000
   -2.7916   -2.6275   -0.0001 N   0  0  0  0  0  0  0  0  0  0  0  0
   -2.3314   -3.5505   -0.0002 H   0  0  0  0  0  0  0  0  0  0  0  0
   -2.8799   -0.4668    0.0000 N   0  0  0  0  0  0  0  0  0  0  0  0
    0.0000    0.4331    0.0000 N   0  0  0  0  0  0  0  0  0  0  0  0
    2.8799   -0.4668    0.0001 N   0  0  0  0  0  0  0  0  0  0  0  0
    2.7916   -2.6275   -0.0001 N   0  0  0  0  0  0  0  0  0  0  0  0
    2.3314   -3.5505   -0.0002 H   0  0  0  0  0  0  0  0  0  0  0  0
   -2.0038   -1.5247   -0.0001 C   0  0  0  0  0  2  0  0  0  0  0  0
   -4.1428   -2.3175    0.0001 C   0  0  0  0  0  0  0  0  0  0  0  0
   -4.1974   -0.9423    0.0001 C   0  0  0  0  0  0  0  0  0  0  0  0
   -5.0630   -0.2794    0.0003 H   0  0  0  0  0  0  0  0  0  0  0  0
   -2.4819    0.9009   -0.0000 C   0  0  0  0  0  0  0  0  0  0  0  0
   -3.4238    1.9388   -0.0001 C   0  0  0  0  0  0  0  0  0  0  0  0
   -4.4914    1.6828   -0.0002 H   0  0  0  0  0  0  0  0  0  0  0  0
   -3.0613    3.3115   -0.0001 C   0  0  0  0  0  0  0  0  0  0  0  0
   -1.6959    3.6444    0.0000 C   0  0  0  0  0  0  0  0  0  0  0  0
   -1.3727    4.6940    0.0000 H   0  0  0  0  0  0  0  0  0  0  0  0
   -0.7245    2.6289    0.0000 C   0  0  0  0  0  0  0  0  0  0  0  0
    0.7245    2.6289    0.0001 C   0  0  0  0  0  0  0  0  0  0  0  0
    1.6959    3.6444    0.0001 C   0  0  0  0  0  0  0  0  0  0  0  0
    1.3727    4.6940    0.0001 H   0  0  0  0  0  0  0  0  0  0  0  0
    3.0613    3.3115    0.0002 C   0  0  0  0  0  0  0  0  0  0  0  0
    3.4238    1.9388    0.0001 C   0  0  0  0  0  0  0  0  0  0  0  0
    4.4914    1.6828    0.0001 H   0  0  0  0  0  0  0  0  0  0  0  0
    2.4819    0.9009    0.0001 C   0  0  0  0  0  0  0  0  0  0  0  0
    4.1974   -0.9423    0.0001 C   0  0  0  0  0  0  0  0  0  0  0  0
    5.0630   -0.2794    0.0003 H   0  0  0  0  0  0  0  0  0  0  0  0
    4.1428   -2.3175    0.0000 C   0  0  0  0  0  0  0  0  0  0  0  0
    2.0038   -1.5247   -0.0001 C   0  0  0  0  0  2  0  0  0  0  0  0
   -5.2275   -3.3692    0.0004 C   0  0  0  0  0  0  0  0  0  0  0  0
   -5.0822   -4.2471    1.2646 C   0  0  0  0  0  0  0  0  0  0  0  0
   -5.8644   -5.0332    1.2784 H   0  0  0  0  0  0  0  0  0  0  0  0
   -5.1837   -3.6380    2.1848 H   0  0  0  0  0  0  0  0  0  0  0  0
   -4.0965   -4.7536    1.3001 H   0  0  0  0  0  0  0  0  0  0  0  0
   -5.0819   -4.2484   -1.2629 C   0  0  0  0  0  0  0  0  0  0  0  0
   -5.8641   -5.0344   -1.2761 H   0  0  0  0  0  0  0  0  0  0  0  0
   -4.0961   -4.7551   -1.2976 H   0  0  0  0  0  0  0  0  0  0  0  0
   -5.1830   -3.6403   -2.1838 H   0  0  0  0  0  0  0  0  0  0  0  0
   -6.6057   -2.6874   -0.0002 C   0  0  0  0  0  0  0  0  0  0  0  0
   -7.4088   -3.4509   -0.0000 H   0  0  0  0  0  0  0  0  0  0  0  0
   -6.7414   -2.0530   -0.8993 H   0  0  0  0  0  0  0  0  0  0  0  0
   -6.7418   -2.0523    0.8983 H   0  0  0  0  0  0  0  0  0  0  0  0
   -4.1784    4.3725   -0.0003 C   0  0  0  0  0  0  0  0  0  0  0  0
   -5.0538    4.2002   -1.2626 C   0  0  0  0  0  0  0  0  0  0  0  0
   -5.8665    4.9561   -1.2809 H   0  0  0  0  0  0  0  0  0  0  0  0
   -5.5274    3.1988   -1.3032 H   0  0  0  0  0  0  0  0  0  0  0  0
   -4.4473    4.3214   -2.1827 H   0  0  0  0  0  0  0  0  0  0  0  0
   -5.0545    4.2001    1.2616 C   0  0  0  0  0  0  0  0  0  0  0  0
   -5.8672    4.9560    1.2795 H   0  0  0  0  0  0  0  0  0  0  0  0
   -4.4485    4.3211    2.1821 H   0  0  0  0  0  0  0  0  0  0  0  0
   -5.5282    3.1987    1.3017 H   0  0  0  0  0  0  0  0  0  0  0  0
   -3.6121    5.8029    0.0000 C   0  0  0  0  0  0  0  0  0  0  0  0
   -4.4431    6.5369   -0.0000 H   0  0  0  0  0  0  0  0  0  0  0  0
   -2.9919    5.9996   -0.8975 H   0  0  0  0  0  0  0  0  0  0  0  0
   -2.9922    5.9994    0.8978 H   0  0  0  0  0  0  0  0  0  0  0  0
    4.1784    4.3725    0.0002 C   0  0  0  0  0  0  0  0  0  0  0  0
    5.0541    4.2001    1.2624 C   0  0  0  0  0  0  0  0  0  0  0  0
    5.5277    3.1987    1.3028 H   0  0  0  0  0  0  0  0  0  0  0  0
    4.4478    4.3213    2.1827 H   0  0  0  0  0  0  0  0  0  0  0  0
    5.8668    4.9561    1.2806 H   0  0  0  0  0  0  0  0  0  0  0  0
    3.6121    5.8029    0.0002 C   0  0  0  0  0  0  0  0  0  0  0  0
    2.9921    5.9995   -0.8975 H   0  0  0  0  0  0  0  0  0  0  0  0
    4.4431    6.5369    0.0002 H   0  0  0  0  0  0  0  0  0  0  0  0
    2.9920    5.9995    0.8978 H   0  0  0  0  0  0  0  0  0  0  0  0
    5.0542    4.2001   -1.2618 C   0  0  0  0  0  0  0  0  0  0  0  0
    4.4481    4.3213   -2.1822 H   0  0  0  0  0  0  0  0  0  0  0  0
    5.5279    3.1987   -1.3021 H   0  0  0  0  0  0  0  0  0  0  0  0
    5.8670    4.9561   -1.2798 H   0  0  0  0  0  0  0  0  0  0  0  0
    5.2275   -3.3692   -0.0000 C   0  0  0  0  0  0  0  0  0  0  0  0
    5.0823   -4.2473   -1.2641 C   0  0  0  0  0  0  0  0  0  0  0  0
    5.1838   -3.6384   -2.1844 H   0  0  0  0  0  0  0  0  0  0  0  0
    4.0965   -4.7539   -1.2996 H   0  0  0  0  0  0  0  0  0  0  0  0
    5.8645   -5.0334   -1.2777 H   0  0  0  0  0  0  0  0  0  0  0  0
    5.0818   -4.2482    1.2633 C   0  0  0  0  0  0  0  0  0  0  0  0
    4.0960   -4.7548    1.2981 H   0  0  0  0  0  0  0  0  0  0  0  0
    5.1829   -3.6399    2.1841 H   0  0  0  0  0  0  0  0  0  0  0  0
    5.8640   -5.0342    1.2768 H   0  0  0  0  0  0  0  0  0  0  0  0
    6.6057   -2.6874    0.0005 C   0  0  0  0  0  0  0  0  0  0  0  0
    6.7418   -2.0524   -0.8981 H   0  0  0  0  0  0  0  0  0  0  0  0
    7.4088   -3.4509    0.0004 H   0  0  0  0  0  0  0  0  0  0  0  0
    6.7414   -2.0529    0.8995 H   0  0  0  0  0  0  0  0  0  0  0  0
   -1.1080    1.2456    0.0000 C   0  0  0  0  0  0  0  0  0  0  0  0
    1.1080    1.2456    0.0001 C   0  0  0  0  0  3  0  0  0  0  0  0
  1  9  1  0  0  0  0
  2  1  1  0  0  0  0
  3 10  1  0  0  0  0
  4 83  1  0  0  0  0
  5 25  1  0  0  0  0
  5 26  1  0  0  0  0
  6 29  1  0  0  0  0
  6 28  1  0  0  0  0
  7  6  1  0  0  0  0
  8  1  1  0  0  0  0
  8  3  1  0  0  0  0
  9 10  2  0  0  0  0
  9 30  1  0  0  0  0
 10 11  1  0  0  0  0
 12  3  1  0  0  0  0
 12 82  1  0  0  0  0
 13 15  1  0  0  0  0
 13 12  2  0  0  0  0
 14 13  1  0  0  0  0
 15 16  2  0  0  0  0
 16 17  1  0  0  0  0
 16 18  1  0  0  0  0
 18 19  2  0  0  0  0
 19 20  1  0  0  0  0
 20 21  1  0  0  0  0
 20 22  2  0  0  0  0
 22 56  1  0  0  0  0
 23 22  1  0  0  0  0
 24 23  1  0  0  0  0
 25 23  2  0  0  0  0
 26 27  1  0  0  0  0
 28 26  2  0  0  0  0
 29  5  1  0  0  0  0
 30 31  1  0  0  0  0
 31 32  1  0  0  0  0
 31 34  1  0  0  0  0
 31 33  1  0  0  0  0
 35 30  1  0  0  0  0
 36 35  1  0  0  0  0
 37 35  1  0  0  0  0
 38 35  1  0  0  0  0
 39 40  1  0  0  0  0
 39 30  1  0  0  0  0
 39 42  1  0  0  0  0
 41 39  1  0  0  0  0
 43 15  1  0  0  0  0
 43 52  1  0  0  0  0
 43 48  1  0  0  0  0
 44 43  1  0  0  0  0
 45 44  1  0  0  0  0
 46 44  1  0  0  0  0
 47 44  1  0  0  0  0
 48 49  1  0  0  0  0
 48 51  1  0  0  0  0
 48 50  1  0  0  0  0
 52 55  1  0  0  0  0
 53 52  1  0  0  0  0
 54 52  1  0  0  0  0
 56 57  1  0  0  0  0
 57 60  1  0  0  0  0
 57 58  1  0  0  0  0
 57 59  1  0  0  0  0
 61 56  1  0  0  0  0
 61 63  1  0  0  0  0
 61 64  1  0  0  0  0
 62 61  1  0  0  0  0
 65 56  1  0  0  0  0
 66 65  1  0  0  0  0
 67 65  1  0  0  0  0
 68 65  1  0  0  0  0
 69 28  1  0  0  0  0
 69 78  1  0  0  0  0
 69 74  1  0  0  0  0
 70 69  1  0  0  0  0
 71 70  1  0  0  0  0
 72 70  1  0  0  0  0
 73 70  1  0  0  0  0
 74 77  1  0  0  0  0
 74 75  1  0  0  0  0
 74 76  1  0  0  0  0
 78 81  1  0  0  0  0
 79 78  1  0  0  0  0
 80 78  1  0  0  0  0
 82 18  1  0  0  0  0
 82  4  2  0  0  0  0
 83 19  1  0  0  0  0
 83 25  1  0  0  0  0
M  END
