2,3,7
q = -1.0, confidence = 0.006

 39 41  0  0  1  0  0  0  0  0999 V2000
    4.6826   -2.1291   -1.1039 Br  0  0  0  0  0  0  0  0  0  0  0  0
   -1.4834   -0.1665    1.7560 N   0  0  0  0  0  2  0  0  0  0  0  0
   -0.5300    1.3819   -0.1641 C   0  0  0  0  0  3  0  0  0  0  0  0
    3.5758    3.6575    1.2463 C   0  0  0  0  0  0  0  0  0  0  0  0
    4.4115    3.6438    1.9619 H   0  0  0  0  0  0  0  0  0  0  0  0
    3.1447   -1.6397   -0.1178 C   0  0  0  0  0  0  0  0  0  0  0  0
   -2.7633    1.9741    0.4402 C   0  0  0  0  0  3  0  0  0  0  0  0
   -3.7639    2.3074    0.1183 H   0  0  0  0  0  0  0  0  0  0  0  0
   -2.5697    2.0513    1.5195 H   0  0  0  0  0  0  0  0  0  0  0  0
   -1.6829    2.1267   -0.4901 C   0  0  2  0  0  3  0  0  0  0  0  0
    0.8462   -0.9116    1.3097 C   0  0  0  0  0  0  0  0  0  0  0  0
   -0.2217   -0.7028    3.5314 C   0  0  0  0  0  3  0  0  0  0  0  0
    0.7028   -0.9885    4.0436 H   0  0  0  0  0  0  0  0  0  0  0  0
   -0.2432   -0.5635    2.1697 N   0  0  0  0  0  0  0  0  0  0  0  0
    1.3904   -0.0031    0.3690 C   0  0  0  0  0  0  0  0  0  0  0  0
    1.4410    3.6812   -0.5711 C   0  0  0  0  0  0  0  0  0  0  0  0
    0.6251    3.6866   -1.3055 H   0  0  0  0  0  0  0  0  0  0  0  0
    1.4565   -2.1634    1.5289 C   0  0  0  0  0  0  0  0  0  0  0  0
    1.0255   -2.8526    2.2696 H   0  0  0  0  0  0  0  0  0  0  0  0
    2.7533    2.5304    1.1190 C   0  0  0  0  0  0  0  0  0  0  0  0
    2.9468    1.6430    1.7401 H   0  0  0  0  0  0  0  0  0  0  0  0
    1.6676    2.5270    0.2118 C   0  0  0  0  0  0  0  0  0  0  0  0
    2.5529   -0.3873   -0.3310 C   0  0  0  0  0  0  0  0  0  0  0  0
    2.9944    0.3160   -1.0510 H   0  0  0  0  0  0  0  0  0  0  0  0
   -1.4861   -0.3871    4.0139 C   0  0  0  0  0  0  0  0  0  0  0  0
   -1.8165   -0.3759    5.0569 H   0  0  0  0  0  0  0  0  0  0  0  0
    2.2663    4.8053   -0.4445 C   0  0  0  0  0  0  0  0  0  0  0  0
    2.0809    5.6909   -1.0706 H   0  0  0  0  0  0  0  0  0  0  0  0
   -2.2365   -0.0563    2.8678 C   0  0  0  0  0  0  0  0  0  0  0  0
   -3.2802    0.2658    2.7907 H   0  0  0  0  0  0  0  0  0  0  0  0
    2.6012   -2.5378    0.8191 C   0  0  0  0  0  0  0  0  0  0  0  0
    3.0697   -3.5166    0.9902 H   0  0  0  0  0  0  0  0  0  0  0  0
    3.3355    4.7995    0.4664 C   0  0  0  0  0  0  0  0  0  0  0  0
    3.9848    5.6822    0.5629 H   0  0  0  0  0  0  0  0  0  0  0  0
    0.7878    1.3318    0.1133 C   0  0  0  0  0  0  0  0  0  0  0  0
   -1.8508    2.8818   -1.7846 C   0  0  0  0  0  0  0  0  0  0  0  0
   -2.8810    2.8108   -2.1825 H   0  0  0  0  0  0  0  0  0  0  0  0
   -1.6710    3.9547   -1.5602 H   0  0  0  0  0  0  0  0  0  0  0  0
   -1.1283    2.5749   -2.5607 H   0  0  0  0  0  0  0  0  0  0  0  0
  1  6  1  0  0  0  0
  2 14  1  0  0  0  0
  2 29  1  0  0  0  0
  3 35  2  0  0  0  0
  4  5  1  0  0  0  0
  6 31  1  0  0  0  0
  7  9  1  0  0  0  0
  8  7  1  0  0  0  0
 10  3  1  6  0  0  0
 10  7  1  0  0  0  0
 11 18  1  0  0  0  0
 11 14  1  0  0  0  0
 12 25  1  0  0  0  0
 12 13  1  0  0  0  0
 14 12  1  0  0  0  0
 15 11  2  0  0  0  0
 16 27  2  0  0  0  0
 16 22  1  0  0  0  0
 17 16  1  0  0  0  0
 18 19  1  0  0  0  0
 20  4  1  0  0  0  0
 20 21  1  0  0  0  0
 22 20  2  0  0  0  0
 23  6  2  0  0  0  0
 23 15  1  0  0  0  0
 24 23  1  0  0  0  0
 25 26  1  0  0  0  0
 27 33  1  0  0  0  0
 28 27  1  0  0  0  0
 29 25  2  0  0  0  0
 30 29  1  0  0  0  0
 31 32  1  0  0  0  0
 31 18  2  0  0  0  0
 33 34  1  0  0  0  0
 33  4  2  0  0  0  0
 35 22  1  0  0  0  0
 35 15  1  0  0  0  0
 36 38  1  0  0  0  0
 36 10  1  0  0  0  0
 37 36  1  0  0  0  0
 39 36  1  0  0  0  0
M  END
