2,4,7
q = -1.0

 29 31  0  0  1  0  0  0  0  0999 V2000
    0.0098   -1.5908    0.0564 N   0  0  0  0  0  0  0  0  0  0  0  0
   -0.2140   -0.2397    0.0449 N   0  0  0  0  0  2  0  0  0  0  0  0
    0.9380    0.3743    0.0247 N   0  0  0  0  0  2  0  0  0  0  0  0
   -2.3929   -1.6876   -0.0735 C   0  0  2  0  0  3  0  0  0  0  0  0
   -2.8134   -1.1089   -1.3231 C   0  0  0  0  0  3  0  0  0  0  0  0
   -2.4027   -1.3326   -2.3143 H   0  0  0  0  0  0  0  0  0  0  0  0
   -3.8439   -0.1552   -1.0133 C   0  0  0  0  0  3  0  0  0  0  0  0
   -4.3737    0.4730   -1.7393 H   0  0  0  0  0  0  0  0  0  0  0  0
   -4.0805   -0.1782    0.3974 C   0  0  0  0  0  0  0  0  0  0  0  0
   -4.8202    0.4262    0.9349 H   0  0  0  0  0  0  0  0  0  0  0  0
   -3.1906   -1.1442    0.9856 C   0  0  0  0  0  0  0  0  0  0  0  0
   -3.1100   -1.3984    2.0490 H   0  0  0  0  0  0  0  0  0  0  0  0
   -1.1390   -2.4987    0.1228 C   0  0  0  0  0  0  0  0  0  0  0  0
   -1.1440   -3.0021    1.1116 H   0  0  0  0  0  0  0  0  0  0  0  0
   -1.0202   -3.2742   -0.6607 H   0  0  0  0  0  0  0  0  0  0  0  0
    1.3508   -1.8300    0.0442 C   0  0  0  0  0  0  0  0  0  0  0  0
    1.7591   -2.8441    0.0506 H   0  0  0  0  0  0  0  0  0  0  0  0
    1.9404   -0.5633    0.0245 C   0  0  0  0  0  0  0  0  0  0  0  0
    3.3568   -0.1789    0.0023 C   0  0  0  0  0  0  0  0  0  0  0  0
    4.3833   -1.1489    0.0079 C   0  0  0  0  0  0  0  0  0  0  0  0
    4.1301   -2.2200    0.0297 H   0  0  0  0  0  0  0  0  0  0  0  0
    5.7289   -0.7612   -0.0135 C   0  0  0  0  0  0  0  0  0  0  0  0
    6.5176   -1.5287   -0.0087 H   0  0  0  0  0  0  0  0  0  0  0  0
    6.0713    0.6009   -0.0406 C   0  0  0  0  0  0  0  0  0  0  0  0
    7.1289    0.9045   -0.0572 H   0  0  0  0  0  0  0  0  0  0  0  0
    5.0563    1.5718   -0.0461 C   0  0  0  0  0  0  0  0  0  0  0  0
    5.3169    2.6409   -0.0674 H   0  0  0  0  0  0  0  0  0  0  0  0
    3.7096    1.1889   -0.0251 C   0  0  0  0  0  0  0  0  0  0  0  0
    2.9060    1.9390   -0.0296 H   0  0  0  0  0  0  0  0  0  0  0  0
  1 13  1  0  0  0  0
  2  1  1  0  0  0  0
  3  2  1  0  0  0  0
  4 13  1  1  0  0  0
  4 11  1  0  0  0  0
  5  7  1  0  0  0  0
  5  4  1  0  0  0  0
  6  5  1  0  0  0  0
  7  9  1  0  0  0  0
  8  7  1  0  0  0  0
  9 10  1  0  0  0  0
  9 11  2  0  0  0  0
 11 12  1  0  0  0  0
 13 14  1  0  0  0  0
 15 13  1  0  0  0  0
 16 17  1  0  0  0  0
 16  1  1  0  0  0  0
 18  3  1  0  0  0  0
 18 16  2  0  0  0  0
 19 20  1  0  0  0  0
 19 18  1  0  0  0  0
 20 21  1  0  0  0  0
 22 23  1  0  0  0  0
 22 20  2  0  0  0  0
 24 22  1  0  0  0  0
 25 24  1  0  0  0  0
 26 24  2  0  0  0  0
 26 28  1  0  0  0  0
 27 26  1  0  0  0  0
 28 19  2  0  0  0  0
 29 28  1  0  0  0  0
M  END
