1,4,7
q = 0.0, confidence = 0.996

 35 35  0  0  1  0  0  0  0  0999 V2000
    1.1476   -1.6123    1.2377 N   0  0  0  0  0  0  0  0  0  0  0  0
    2.1119   -2.1383    0.2448 C   0  0  0  0  0  0  0  0  0  0  0  0
    1.4724   -2.1592   -1.1581 C   0  0  0  0  0  0  0  0  0  0  0  0
    0.6340   -0.8978   -1.3721 C   0  0  2  0  0  3  0  0  0  0  0  0
    1.3023    0.3992   -1.3255 C   0  0  0  0  0  0  0  0  0  0  0  0
    0.5162    1.5713   -1.0516 C   0  0  0  0  0  0  0  0  0  0  0  0
   -0.9234    1.4853   -0.8861 C   0  0  1  0  0  3  0  0  0  0  0  0
   -1.5804    0.2292   -1.1534 C   0  0  0  0  0  0  0  0  0  0  0  0
   -0.8173   -0.9789   -1.4127 C   0  0  0  0  0  0  0  0  0  0  0  0
    2.8030    0.5274   -1.4484 C   0  0  0  0  0  0  0  0  0  0  0  0
    1.2082    2.8892   -0.8145 C   0  0  0  0  0  0  0  0  0  0  0  0
   -1.6940    2.6964   -0.4215 C   0  0  0  0  0  0  0  0  0  0  0  0
   -3.0786    0.1089   -1.0390 C   0  0  0  0  0  0  0  0  0  0  0  0
   -1.5694   -2.2811   -1.5383 C   0  0  0  0  0  0  0  0  0  0  0  0
    1.6069   -1.1960    2.0651 H   0  0  0  0  0  0  0  0  0  0  0  0
    0.4544   -2.3003    1.5743 H   0  0  0  0  0  0  0  0  0  0  0  0
    2.9844   -1.4580    0.2599 H   0  0  0  0  0  0  0  0  0  0  0  0
    2.4813   -3.1487    0.5253 H   0  0  0  0  0  0  0  0  0  0  0  0
    2.2625   -2.2689   -1.9302 H   0  0  0  0  0  0  0  0  0  0  0  0
    0.8278   -3.0513   -1.2504 H   0  0  0  0  0  0  0  0  0  0  0  0
    3.0616    1.2427   -2.2562 H   0  0  0  0  0  0  0  0  0  0  0  0
    3.2846   -0.4318   -1.7084 H   0  0  0  0  0  0  0  0  0  0  0  0
    3.2629    0.9084   -0.5144 H   0  0  0  0  0  0  0  0  0  0  0  0
    0.5807    3.7378   -1.1423 H   0  0  0  0  0  0  0  0  0  0  0  0
    2.1721    2.9519   -1.3499 H   0  0  0  0  0  0  0  0  0  0  0  0
    1.4119    3.0027    0.2733 H   0  0  0  0  0  0  0  0  0  0  0  0
   -2.6201    2.4034    0.1023 H   0  0  0  0  0  0  0  0  0  0  0  0
   -1.9681    3.3668   -1.2653 H   0  0  0  0  0  0  0  0  0  0  0  0
   -1.0979    3.2792    0.3035 H   0  0  0  0  0  0  0  0  0  0  0  0
   -3.4849   -0.5087   -1.8625 H   0  0  0  0  0  0  0  0  0  0  0  0
   -3.5770    1.0920   -1.0768 H   0  0  0  0  0  0  0  0  0  0  0  0
   -3.3414   -0.3828   -0.0777 H   0  0  0  0  0  0  0  0  0  0  0  0
   -0.9164   -3.1275   -1.8139 H   0  0  0  0  0  0  0  0  0  0  0  0
   -2.3484   -2.2093   -2.3236 H   0  0  0  0  0  0  0  0  0  0  0  0
   -2.0786   -2.5285   -0.5829 H   0  0  0  0  0  0  0  0  0  0  0  0
  1 16  1  0  0  0  0
  1 15  1  0  0  0  0
  2 17  1  0  0  0  0
  2 18  1  0  0  0  0
  2  1  1  0  0  0  0
  3  2  1  0  0  0  0
  4  5  1  0  0  0  0
  4  3  1  1  0  0  0
  5  6  2  0  0  0  0
  6  7  1  0  0  0  0
  6 11  1  0  0  0  0
  7 12  1  1  0  0  0
  8 13  1  0  0  0  0
  8  7  1  0  0  0  0
  9  4  1  0  0  0  0
  9  8  2  0  0  0  0
 10  5  1  0  0  0  0
 10 23  1  0  0  0  0
 11 26  1  0  0  0  0
 12 27  1  0  0  0  0
 12 29  1  0  0  0  0
 13 32  1  0  0  0  0
 14  9  1  0  0  0  0
 14 35  1  0  0  0  0
 19  3  1  0  0  0  0
 20  3  1  0  0  0  0
 21 10  1  0  0  0  0
 22 10  1  0  0  0  0
 24 11  1  0  0  0  0
 25 11  1  0  0  0  0
 28 12  1  0  0  0  0
 30 13  1  0  0  0  0
 31 13  1  0  0  0  0
 33 14  1  0  0  0  0
 34 14  1  0  0  0  0
M  END
