2,8,10
q = 0.0, confidence = 0.996

 35 35  0  0  1  0  0  0  0  0999 V2000
    3.7405    0.5920   -0.0034 Si  0  0  0  0  0  0  0  0  0  0  0  0
   -1.7108   -2.1193   -0.6325 N   0  0  0  0  0  0  0  0  0  0  0  0
   -1.9248   -3.5845   -0.6583 C   0  0  0  0  0  0  0  0  0  0  0  0
   -1.4143   -4.2996    0.5904 C   0  0  0  0  0  0  0  0  0  0  0  0
    0.1053   -4.5447    0.5774 C   0  0  0  0  0  0  0  0  0  0  0  0
    0.9281   -3.2928    0.4150 C   0  0  0  0  0  0  0  0  0  0  0  0
    0.9355   -2.2922    1.4464 C   0  0  0  0  0  3  0  0  0  0  0  0
    1.6614   -1.0785    1.2547 C   0  0  0  0  0  3  0  0  0  0  0  0
    2.4348   -0.8125    0.0672 C   0  0  2  0  0  3  0  0  0  0  0  0
    2.3307   -1.7930   -0.9694 C   0  0  0  0  0  3  0  0  0  0  0  0
    1.6314   -3.0327   -0.7968 C   0  0  0  0  0  0  0  0  0  0  0  0
    5.2028   -0.1426    0.9426 C   0  0  0  0  0  0  0  0  0  0  0  0
    4.2348    0.9011   -1.7976 C   0  0  0  0  0  0  0  0  0  0  0  0
    3.1399    2.1413    0.8840 C   0  0  0  0  0  0  0  0  0  0  0  0
   -2.3670   -1.6809    0.0327 H   0  0  0  0  0  0  0  0  0  0  0  0
   -1.9471   -1.7230   -1.5623 H   0  0  0  0  0  0  0  0  0  0  0  0
   -3.0134   -3.7703   -0.7782 H   0  0  0  0  0  0  0  0  0  0  0  0
   -1.4256   -3.9795   -1.5672 H   0  0  0  0  0  0  0  0  0  0  0  0
   -1.7175   -3.7285    1.4956 H   0  0  0  0  0  0  0  0  0  0  0  0
   -1.9235   -5.2810    0.6694 H   0  0  0  0  0  0  0  0  0  0  0  0
    0.4053   -5.0425    1.5233 H   0  0  0  0  0  0  0  0  0  0  0  0
    0.3496   -5.2474   -0.2444 H   0  0  0  0  0  0  0  0  0  0  0  0
    0.3797   -2.4564    2.3806 H   0  0  0  0  0  0  0  0  0  0  0  0
    1.6158   -0.3180    2.0491 H   0  0  0  0  0  0  0  0  0  0  0  0
    2.7850   -1.5884   -1.9507 H   0  0  0  0  0  0  0  0  0  0  0  0
    1.5762   -3.7497   -1.6281 H   0  0  0  0  0  0  0  0  0  0  0  0
    4.9356   -0.3600    1.9968 H   0  0  0  0  0  0  0  0  0  0  0  0
    6.0517    0.5722    0.9501 H   0  0  0  0  0  0  0  0  0  0  0  0
    5.5563   -1.0845    0.4766 H   0  0  0  0  0  0  0  0  0  0  0  0
    4.7596    0.0212   -2.2224 H   0  0  0  0  0  0  0  0  0  0  0  0
    4.9432    1.7538   -1.8410 H   0  0  0  0  0  0  0  0  0  0  0  0
    3.3799    1.1413   -2.4592 H   0  0  0  0  0  0  0  0  0  0  0  0
    2.3287    2.6557    0.3356 H   0  0  0  0  0  0  0  0  0  0  0  0
    3.9896    2.8487    0.9790 H   0  0  0  0  0  0  0  0  0  0  0  0
    2.7829    1.9159    1.9093 H   0  0  0  0  0  0  0  0  0  0  0  0
  1 14  1  0  0  0  0
  1 12  1  0  0  0  0
  2 15  1  0  0  0  0
  3  2  1  0  0  0  0
  3  4  1  0  0  0  0
  4 20  1  0  0  0  0
  4 19  1  0  0  0  0
  5  4  1  0  0  0  0
  5 21  1  0  0  0  0
  6  5  1  0  0  0  0
  6  7  1  0  0  0  0
  7 23  1  0  0  0  0
  8  7  1  0  0  0  0
  8 24  1  0  0  0  0
  9  1  1  1  0  0  0
  9  8  1  0  0  0  0
 10 11  1  0  0  0  0
 10  9  1  0  0  0  0
 11  6  2  0  0  0  0
 12 28  1  0  0  0  0
 12 27  1  0  0  0  0
 13  1  1  0  0  0  0
 14 34  1  0  0  0  0
 14 35  1  0  0  0  0
 16  2  1  0  0  0  0
 17  3  1  0  0  0  0
 18  3  1  0  0  0  0
 22  5  1  0  0  0  0
 25 10  1  0  0  0  0
 26 11  1  0  0  0  0
 29 12  1  0  0  0  0
 30 13  1  0  0  0  0
 31 13  1  0  0  0  0
 32 13  1  0  0  0  0
 33 14  1  0  0  0  0
M  END
