2,5,9
q = 0.0, confidence = 0.99

 32 32  0  0  1  0  0  0  0  0999 V2000
    3.7249   -0.9220   -0.0791 Si  0  0  0  0  0  0  0  0  0  0  0  0
   -1.1686    2.5885   -0.6642 N   0  0  0  0  0  0  0  0  0  0  0  0
   -0.8272    4.0168   -0.3939 C   0  0  0  0  0  0  0  0  0  0  0  0
    0.0406    4.1187    0.8689 C   0  0  0  0  0  0  0  0  0  0  0  0
    1.0969    3.0298    0.8013 C   0  0  2  0  0  3  0  0  0  0  0  0
    1.9806    2.9701   -0.3375 C   0  0  0  0  0  0  0  0  0  0  0  0
    2.6683    1.7583   -0.6193 C   0  0  0  0  0  0  0  0  0  0  0  0
    2.6033    0.6006    0.2334 C   0  0  2  0  0  3  0  0  0  0  0  0
    1.7730    0.7303    1.4004 C   0  0  0  0  0  3  0  0  0  0  0  0
    1.0724    1.9337    1.7269 C   0  0  0  0  0  3  0  0  0  0  0  0
    5.3808   -0.4765    0.7124 C   0  0  0  0  0  0  0  0  0  0  0  0
    2.9965   -2.4315    0.7851 C   0  0  0  0  0  0  0  0  0  0  0  0
    3.9376   -1.1418   -1.9422 C   0  0  0  0  0  0  0  0  0  0  0  0
   -1.3894    2.4438   -1.6655 H   0  0  0  0  0  0  0  0  0  0  0  0
   -2.0061    2.2868   -0.1420 H   0  0  0  0  0  0  0  0  0  0  0  0
   -0.2670    4.3830   -1.2760 H   0  0  0  0  0  0  0  0  0  0  0  0
   -1.7469    4.6322   -0.3099 H   0  0  0  0  0  0  0  0  0  0  0  0
    0.4981    5.1275    0.9341 H   0  0  0  0  0  0  0  0  0  0  0  0
   -0.5746    3.9799    1.7806 H   0  0  0  0  0  0  0  0  0  0  0  0
    2.0205    3.7976   -1.0597 H   0  0  0  0  0  0  0  0  0  0  0  0
    3.2120    1.6879   -1.5742 H   0  0  0  0  0  0  0  0  0  0  0  0
    1.6274   -0.1415    2.0571 H   0  0  0  0  0  0  0  0  0  0  0  0
    0.4296    1.9705    2.6164 H   0  0  0  0  0  0  0  0  0  0  0  0
    5.8097    0.4435    0.2659 H   0  0  0  0  0  0  0  0  0  0  0  0
    6.1116   -1.2977    0.5603 H   0  0  0  0  0  0  0  0  0  0  0  0
    5.2780   -0.3131    1.8043 H   0  0  0  0  0  0  0  0  0  0  0  0
    2.8877   -2.2624    1.8760 H   0  0  0  0  0  0  0  0  0  0  0  0
    3.6859   -3.2912    0.6557 H   0  0  0  0  0  0  0  0  0  0  0  0
    2.0120   -2.7247    0.3740 H   0  0  0  0  0  0  0  0  0  0  0  0
    2.9829   -1.0856   -2.5015 H   0  0  0  0  0  0  0  0  0  0  0  0
    4.4079   -2.1233   -2.1572 H   0  0  0  0  0  0  0  0  0  0  0  0
    4.6114   -0.3628   -2.3540 H   0  0  0  0  0  0  0  0  0  0  0  0
  1 11  1  0  0  0  0
  1 12  1  0  0  0  0
  2  3  1  0  0  0  0
  2 15  1  0  0  0  0
  3 17  1  0  0  0  0
  3  4  1  0  0  0  0
  4 18  1  0  0  0  0
  4 19  1  0  0  0  0
  5  4  1  6  0  0  0
  5 10  1  0  0  0  0
  6  5  1  0  0  0  0
  7  6  2  0  0  0  0
  7  8  1  0  0  0  0
  8  1  1  1  0  0  0
  8  9  1  0  0  0  0
  9 10  1  0  0  0  0
  9 22  1  0  0  0  0
 10 23  1  0  0  0  0
 11 26  1  0  0  0  0
 12 27  1  0  0  0  0
 13  1  1  0  0  0  0
 14  2  1  0  0  0  0
 16  3  1  0  0  0  0
 20  6  1  0  0  0  0
 21  7  1  0  0  0  0
 24 11  1  0  0  0  0
 25 11  1  0  0  0  0
 28 12  1  0  0  0  0
 29 12  1  0  0  0  0
 30 13  1  0  0  0  0
 31 13  1  0  0  0  0
 32 13  1  0  0  0  0
M  END
