1,6,16
q = -1.0

 24 24  0  0  1  0  0  0  0  0999 V2000
   -3.1541   -1.6593   -0.4547 C   0  0  2  0  0  3  0  0  0  0  0  0
   -2.3524   -2.4532    0.4585 C   0  0  0  0  0  0  0  0  0  0  0  0
   -2.6253   -2.7406    1.4809 H   0  0  0  0  0  0  0  0  0  0  0  0
   -1.1333   -2.7172   -0.2009 C   0  0  0  0  0  0  0  0  0  0  0  0
   -0.2779   -3.2721    0.2013 H   0  0  0  0  0  0  0  0  0  0  0  0
   -1.2151   -2.1792   -1.5646 C   0  0  0  0  0  3  0  0  0  0  0  0
   -0.4176   -2.2564   -2.3141 H   0  0  0  0  0  0  0  0  0  0  0  0
   -2.4913   -1.5979   -1.7404 C   0  0  0  0  0  3  0  0  0  0  0  0
   -2.8831   -1.1220   -2.6470 H   0  0  0  0  0  0  0  0  0  0  0  0
   -4.3461   -0.8381   -0.0399 C   0  0  0  0  0  0  0  0  0  0  0  0
   -4.8175   -0.3620   -0.9217 H   0  0  0  0  0  0  0  0  0  0  0  0
   -5.1270   -1.4626    0.4411 H   0  0  0  0  0  0  0  0  0  0  0  0
   -3.8482    0.2024    0.9686 C   0  0  0  0  0  0  0  0  0  0  0  0
   -3.5969   -0.2983    1.9240 H   0  0  0  0  0  0  0  0  0  0  0  0
   -4.6122    0.9822    1.1898 H   0  0  0  0  0  0  0  0  0  0  0  0
   -2.5812    0.8715    0.4947 N   0  0  0  0  0  0  0  0  0  0  0  0
   -2.0272    1.6713    1.6110 C   0  0  0  0  0  0  0  0  0  0  0  0
   -1.7765    1.0141    2.4618 H   0  0  0  0  0  0  0  0  0  0  0  0
   -2.7682    2.4313    1.9440 H   0  0  0  0  0  0  0  0  0  0  0  0
   -1.1136    2.1942    1.2761 H   0  0  0  0  0  0  0  0  0  0  0  0
   -2.8803    1.7847   -0.6363 C   0  0  0  0  0  0  0  0  0  0  0  0
   -3.3061    1.2220   -1.4849 H   0  0  0  0  0  0  0  0  0  0  0  0
   -1.9477    2.2729   -0.9692 H   0  0  0  0  0  0  0  0  0  0  0  0
   -3.6047    2.5665   -0.3157 H   0  0  0  0  0  0  0  0  0  0  0  0
  1 10  1  1  0  0  0
  1  2  1  0  0  0  0
  2  3  1  0  0  0  0
  4  5  1  0  0  0  0
  4  2  2  0  0  0  0
  6  4  1  0  0  0  0
  7  6  1  0  0  0  0
  8  6  1  0  0  0  0
  8  1  1  0  0  0  0
  9  8  1  0  0  0  0
 10 12  1  0  0  0  0
 10 13  1  0  0  0  0
 11 10  1  0  0  0  0
 13 15  1  0  0  0  0
 13 14  1  0  0  0  0
 16 13  1  0  0  0  0
 16 17  1  0  0  0  0
 17 19  1  0  0  0  0
 17 18  1  0  0  0  0
 20 17  1  0  0  0  0
 21 24  1  0  0  0  0
 21 16  1  0  0  0  0
 22 21  1  0  0  0  0
 23 21  1  0  0  0  0
M  END
