3,6,44
q = 0.0, confidence = 0.99

 67 71  0  0  1  0  0  0  0  0999 V2000
   -2.9174   -0.8752    0.5707 N   0  0  0  0  0  0  0  0  0  0  0  0
   -2.7026    0.4616   -1.1457 N   0  0  0  0  0  0  0  0  0  0  0  0
   -0.3469    1.8550   -0.2894 N   0  0  0  0  0  2  0  0  0  0  0  0
    2.2345    1.1712    0.7833 N   0  0  0  0  0  0  0  0  0  0  0  0
    2.8754   -0.3307   -0.6676 N   0  0  0  0  0  0  0  0  0  0  0  0
   -2.0040   -0.2245   -0.1957 C   0  0  0  0  0  2  0  0  0  0  0  0
   -4.0781    0.2648   -1.0003 C   0  0  0  0  0  0  0  0  0  0  0  0
   -5.1911    0.7380   -1.7084 C   0  0  0  0  0  0  0  0  0  0  0  0
   -5.0905    1.4071   -2.5748 H   0  0  0  0  0  0  0  0  0  0  0  0
   -6.4515    0.3132   -1.2658 C   0  0  0  0  0  0  0  0  0  0  0  0
   -7.3511    0.6605   -1.7941 H   0  0  0  0  0  0  0  0  0  0  0  0
   -6.5905   -0.5559   -0.1600 C   0  0  0  0  0  0  0  0  0  0  0  0
   -7.5968   -0.8703    0.1524 H   0  0  0  0  0  0  0  0  0  0  0  0
   -5.4773   -1.0325    0.5456 C   0  0  0  0  0  0  0  0  0  0  0  0
   -5.5972   -1.7136    1.3993 H   0  0  0  0  0  0  0  0  0  0  0  0
   -4.2135   -0.6072    0.1100 C   0  0  0  0  0  0  0  0  0  0  0  0
   -2.5824   -1.6924    1.7429 C   0  0  0  0  0  0  0  0  0  0  0  0
   -2.0079   -2.5672    1.3830 H   0  0  0  0  0  0  0  0  0  0  0  0
   -3.5341   -2.0534    2.1772 H   0  0  0  0  0  0  0  0  0  0  0  0
   -1.7769   -0.9040    2.7783 C   0  0  0  0  0  0  0  0  0  0  0  0
   -2.3763   -0.0301    3.1128 H   0  0  0  0  0  0  0  0  0  0  0  0
   -0.8768   -0.5011    2.2573 H   0  0  0  0  0  0  0  0  0  0  0  0
   -1.3307   -1.7421    3.9822 C   0  0  0  0  0  0  0  0  0  0  0  0
   -0.8642   -1.0557    4.7203 H   0  0  0  0  0  0  0  0  0  0  0  0
   -2.2260   -2.1591    4.4948 H   0  0  0  0  0  0  0  0  0  0  0  0
   -0.3489   -2.8666    3.6407 C   0  0  0  0  0  0  0  0  0  0  0  0
   -0.8119   -3.6542    3.0126 H   0  0  0  0  0  0  0  0  0  0  0  0
    0.0249   -3.3602    4.5591 H   0  0  0  0  0  0  0  0  0  0  0  0
    0.5244   -2.4805    3.0758 H   0  0  0  0  0  0  0  0  0  0  0  0
   -2.0106    1.3918   -2.0276 C   0  0  0  0  0  0  0  0  0  0  0  0
   -2.7525    1.9239   -2.6489 H   0  0  0  0  0  0  0  0  0  0  0  0
   -1.3388    0.8270   -2.7093 H   0  0  0  0  0  0  0  0  0  0  0  0
   -1.2142    2.3788   -1.2006 C   0  0  1  0  0  3  0  0  0  0  0  0
   -1.3849    3.7625   -1.3309 C   0  0  0  0  0  0  0  0  0  0  0  0
   -2.0915    4.1511   -2.0780 H   0  0  0  0  0  0  0  0  0  0  0  0
   -0.6612    4.6304   -0.5035 C   0  0  0  0  0  0  0  0  0  0  0  0
   -0.7830    5.7198   -0.5895 H   0  0  0  0  0  0  0  0  0  0  0  0
    0.2163    4.0809    0.4395 C   0  0  0  0  0  0  0  0  0  0  0  0
    0.8006    4.7246    1.1123 H   0  0  0  0  0  0  0  0  0  0  0  0
    0.3552    2.6902    0.5248 C   0  0  0  0  0  0  0  0  0  0  0  0
    1.3059    2.0337    1.4995 C   0  0  0  0  0  0  0  0  0  0  0  0
    1.8781    2.7996    2.0520 H   0  0  0  0  0  0  0  0  0  0  0  0
    0.7355    1.4343    2.2422 H   0  0  0  0  0  0  0  0  0  0  0  0
    1.7764    0.2037   -0.0698 C   0  0  0  0  0  2  0  0  0  0  0  0
    3.6261    1.2751    0.7358 C   0  0  0  0  0  0  0  0  0  0  0  0
    4.5480    2.1016    1.3933 C   0  0  0  0  0  0  0  0  0  0  0  0
    4.2365    2.8566    2.1291 H   0  0  0  0  0  0  0  0  0  0  0  0
    5.9005    1.9235    1.0704 C   0  0  0  0  0  0  0  0  0  0  0  0
    6.6568    2.5510    1.5637 H   0  0  0  0  0  0  0  0  0  0  0  0
    6.3135    0.9566    0.1256 C   0  0  0  0  0  0  0  0  0  0  0  0
    7.3842    0.8507   -0.1007 H   0  0  0  0  0  0  0  0  0  0  0  0
    5.3919    0.1272   -0.5279 C   0  0  0  0  0  0  0  0  0  0  0  0
    5.7201   -0.6232   -1.2596 H   0  0  0  0  0  0  0  0  0  0  0  0
    4.0376    0.2976   -0.2021 C   0  0  0  0  0  0  0  0  0  0  0  0
    2.8841   -1.4105   -1.6586 C   0  0  0  0  0  0  0  0  0  0  0  0
    3.5116   -1.0735   -2.5115 H   0  0  0  0  0  0  0  0  0  0  0  0
    1.8440   -1.5181   -2.0140 H   0  0  0  0  0  0  0  0  0  0  0  0
    3.3962   -2.7380   -1.0912 C   0  0  0  0  0  0  0  0  0  0  0  0
    4.4121   -2.5940   -0.6671 H   0  0  0  0  0  0  0  0  0  0  0  0
    2.7307   -3.0216   -0.2495 H   0  0  0  0  0  0  0  0  0  0  0  0
    3.4322   -3.8593   -2.1388 C   0  0  0  0  0  0  0  0  0  0  0  0
    4.1125   -3.5669   -2.9702 H   0  0  0  0  0  0  0  0  0  0  0  0
    3.9051   -4.7468   -1.6688 H   0  0  0  0  0  0  0  0  0  0  0  0
    2.0643   -4.2544   -2.7023 C   0  0  0  0  0  0  0  0  0  0  0  0
    1.5909   -3.4325   -3.2780 H   0  0  0  0  0  0  0  0  0  0  0  0
    1.3596   -4.5312   -1.8921 H   0  0  0  0  0  0  0  0  0  0  0  0
    2.1531   -5.1200   -3.3880 H   0  0  0  0  0  0  0  0  0  0  0  0
  1 17  1  0  0  0  0
  2  7  1  0  0  0  0
  2  6  1  0  0  0  0
  3 40  1  0  0  0  0
  4 41  1  0  0  0  0
  5 54  1  0  0  0  0
  5 44  1  0  0  0  0
  6  1  1  0  0  0  0
  7 16  1  0  0  0  0
  8 10  1  0  0  0  0
  8  7  2  0  0  0  0
  9  8  1  0  0  0  0
 10 12  2  0  0  0  0
 11 10  1  0  0  0  0
 12 13  1  0  0  0  0
 12 14  1  0  0  0  0
 14 15  1  0  0  0  0
 16 14  2  0  0  0  0
 16  1  1  0  0  0  0
 17 19  1  0  0  0  0
 17 20  1  0  0  0  0
 18 17  1  0  0  0  0
 20 21  1  0  0  0  0
 20 23  1  0  0  0  0
 22 20  1  0  0  0  0
 23 25  1  0  0  0  0
 23 24  1  0  0  0  0
 26 23  1  0  0  0  0
 26 28  1  0  0  0  0
 27 26  1  0  0  0  0
 29 26  1  0  0  0  0
 30  2  1  0  0  0  0
 31 30  1  0  0  0  0
 32 30  1  0  0  0  0
 33 30  1  1  0  0  0
 33  3  1  0  0  0  0
 34 33  1  0  0  0  0
 34 36  2  0  0  0  0
 35 34  1  0  0  0  0
 36 38  1  0  0  0  0
 37 36  1  0  0  0  0
 38 40  2  0  0  0  0
 38 39  1  0  0  0  0
 40 41  1  0  0  0  0
 41 42  1  0  0  0  0
 41 43  1  0  0  0  0
 44  4  1  0  0  0  0
 45  4  1  0  0  0  0
 45 46  1  0  0  0  0
 46 47  1  0  0  0  0
 48 46  2  0  0  0  0
 48 49  1  0  0  0  0
 50 48  1  0  0  0  0
 51 50  1  0  0  0  0
 52 54  1  0  0  0  0
 52 50  2  0  0  0  0
 53 52  1  0  0  0  0
 54 45  2  0  0  0  0
 55 58  1  0  0  0  0
 55  5  1  0  0  0  0
 56 55  1  0  0  0  0
 57 55  1  0  0  0  0
 58 59  1  0  0  0  0
 58 60  1  0  0  0  0
 61 63  1  0  0  0  0
 61 58  1  0  0  0  0
 62 61  1  0  0  0  0
 64 61  1  0  0  0  0
 64 66  1  0  0  0  0
 65 64  1  0  0  0  0
 67 64  1  0  0  0  0
M  END
