7,8,26
q = -2.0, confidence = 0.932

 26 27  0  0  0  0  0  0  0  0999 V2000
    2.8751   -0.0164   -2.2421 F   0  0  0  0  0  0  0  0  0  0  0  0
    5.4196   -0.0175   -1.4329 F   0  0  0  0  0  0  0  0  0  0  0  0
    4.0929    0.0076    3.1139 F   0  0  0  0  0  0  0  0  0  0  0  0
   -5.9023    0.0029    1.4326 F   0  0  0  0  0  0  0  0  0  0  0  0
   -5.3170    0.0032   -1.2350 F   0  0  0  0  0  0  0  0  0  0  0  0
   -2.7700    0.0041   -2.0852 F   0  0  0  0  0  0  0  0  0  0  0  0
    0.1463    0.0059    1.7194 N   0  0  0  0  0  2  0  0  0  0  0  0
    2.0443    0.0005    0.0100 C   0  0  0  0  0  3  0  0  0  0  0  0
    3.1062   -0.0070   -0.9048 C   0  0  0  0  0  0  0  0  0  0  0  0
    4.4536   -0.0092   -0.5003 C   0  0  0  0  0  0  0  0  0  0  0  0
    4.8194   -0.0035    0.8583 C   0  0  0  0  0  0  0  0  0  0  0  0
    5.8758   -0.0049    1.1551 H   0  0  0  0  0  0  0  0  0  0  0  0
    3.7907    0.0031    1.7966 C   0  0  0  0  0  0  0  0  0  0  0  0
    2.4359    0.0047    1.3984 C   0  0  0  0  0  0  0  0  0  0  0  0
    1.3210    0.0079    2.3011 C   0  0  0  0  0  3  0  0  0  0  0  0
    1.4261    0.0123    3.4015 H   0  0  0  0  0  0  0  0  0  0  0  0
   -1.0915    0.0110    2.4958 C   0  0  0  0  0  0  0  0  0  0  0  0
   -1.1209    0.9061    3.1606 H   0  0  0  0  0  0  0  0  0  0  0  0
   -1.1191   -0.8712    3.1773 H   0  0  0  0  0  0  0  0  0  0  0  0
   -2.2463    0.0031    1.5252 C   0  0  0  0  0  0  0  0  0  0  0  0
   -3.5784    0.0037    1.9783 C   0  0  0  0  0  0  0  0  0  0  0  0
   -3.8371    0.0059    3.0481 H   0  0  0  0  0  0  0  0  0  0  0  0
   -4.6146    0.0026    1.0412 C   0  0  0  0  0  0  0  0  0  0  0  0
   -4.3219    0.0023   -0.3336 C   0  0  0  0  0  0  0  0  0  0  0  0
   -2.9765    0.0011   -0.7429 C   0  0  0  0  0  0  0  0  0  0  0  0
   -1.8919    0.0002    0.1472 C   0  0  0  0  0  3  0  0  0  0  0  0
  1  9  1  0  0  0  0
  2 10  1  0  0  0  0
  5 24  1  0  0  0  0
  6 25  1  0  0  0  0
  7 15  1  0  0  0  0
  7 17  1  0  0  0  0
  8 14  1  0  0  0  0
  9 10  1  0  0  0  0
  9  8  2  0  0  0  0
 10 11  2  0  0  0  0
 11 12  1  0  0  0  0
 11 13  1  0  0  0  0
 13  3  1  0  0  0  0
 14 13  2  0  0  0  0
 14 15  1  0  0  0  0
 15 16  1  0  0  0  0
 17 18  1  0  0  0  0
 17 19  1  0  0  0  0
 20 21  1  0  0  0  0
 20 17  1  0  0  0  0
 21 22  1  0  0  0  0
 23  4  1  0  0  0  0
 23 21  2  0  0  0  0
 24 23  1  0  0  0  0
 25 24  2  0  0  0  0
 25 26  1  0  0  0  0
 26 20  2  0  0  0  0
M  END
