3,6,16
q = 0.0, confidence = 0.99

 81 85  0  0  1  0  0  0  0  0999 V2000
   -3.0667    0.5164   -0.1586 N   0  0  0  0  0  0  0  0  0  0  0  0
   -2.2315    2.5148   -0.1580 N   0  0  0  0  0  0  0  0  0  0  0  0
   -0.0003    2.7565    0.0001 N   0  0  0  0  0  2  0  0  0  0  0  0
    2.2310    2.5151    0.1582 N   0  0  0  0  0  0  0  0  0  0  0  0
    3.0664    0.5168    0.1585 N   0  0  0  0  0  0  0  0  0  0  0  0
   -1.8815    1.1672   -0.0980 C   0  0  0  0  0  2  0  0  0  0  0  0
   -4.1298    1.4179   -0.2655 C   0  0  0  0  0  0  0  0  0  0  0  0
   -3.6083    2.6842   -0.2633 C   0  0  0  0  0  0  0  0  0  0  0  0
   -1.1737    3.4269   -0.0884 C   0  0  2  0  0  3  0  0  0  0  0  0
   -1.2226    4.8239   -0.0937 C   0  0  0  0  0  0  0  0  0  0  0  0
   -0.0005    5.5142    0.0000 C   0  0  0  0  0  0  0  0  0  0  0  0
    1.2218    4.8240    0.0938 C   0  0  0  0  0  0  0  0  0  0  0  0
    1.1730    3.4270    0.0885 C   0  0  0  0  0  0  0  0  0  0  0  0
    3.6078    2.6847    0.2630 C   0  0  0  0  0  0  0  0  0  0  0  0
    4.1295    1.4185    0.2651 C   0  0  0  0  0  0  0  0  0  0  0  0
    1.8811    1.1674    0.0983 C   0  0  0  0  0  2  0  0  0  0  0  0
   -3.2564   -0.9183   -0.0990 C   0  0  0  0  0  0  0  0  0  0  0  0
   -3.1887   -1.6554   -1.3010 C   0  0  0  0  0  0  0  0  0  0  0  0
   -3.3995   -3.0434   -1.2065 C   0  0  0  0  0  0  0  0  0  0  0  0
   -3.6530   -3.6529    0.0273 C   0  0  0  0  0  0  0  0  0  0  0  0
   -3.7068   -2.8882    1.1998 C   0  0  0  0  0  0  0  0  0  0  0  0
   -3.5128   -1.4959    1.1664 C   0  0  0  0  0  0  0  0  0  0  0  0
   -2.9068   -1.0038   -2.6480 C   0  0  0  0  0  0  0  0  0  0  0  0
   -1.7494   -1.6968   -3.3859 C   0  0  0  0  0  0  0  0  0  0  0  0
   -4.1833   -0.9510   -3.5068 C   0  0  0  0  0  0  0  0  0  0  0  0
   -3.5099   -0.6652    2.4451 C   0  0  0  0  0  0  0  0  0  0  0  0
   -2.0997   -0.6485    3.0663 C   0  0  0  0  0  0  0  0  0  0  0  0
   -4.5625   -1.1213    3.4650 C   0  0  0  0  0  0  0  0  0  0  0  0
    3.2565   -0.9178    0.0990 C   0  0  0  0  0  0  0  0  0  0  0  0
    3.1892   -1.6549    1.3010 C   0  0  0  0  0  0  0  0  0  0  0  0
    3.4002   -3.0428    1.2065 C   0  0  0  0  0  0  0  0  0  0  0  0
    3.6535   -3.6523   -0.0273 C   0  0  0  0  0  0  0  0  0  0  0  0
    3.7071   -2.8877   -1.1999 C   0  0  0  0  0  0  0  0  0  0  0  0
    3.5129   -1.4954   -1.1665 C   0  0  0  0  0  0  0  0  0  0  0  0
    2.9076   -1.0033    2.6481 C   0  0  0  0  0  0  0  0  0  0  0  0
    1.7495   -1.6956    3.3855 C   0  0  0  0  0  0  0  0  0  0  0  0
    4.1840   -0.9519    3.5072 C   0  0  0  0  0  0  0  0  0  0  0  0
    3.5100   -0.6647   -2.4452 C   0  0  0  0  0  0  0  0  0  0  0  0
    2.0999   -0.6483   -3.0667 C   0  0  0  0  0  0  0  0  0  0  0  0
    4.5628   -1.1207   -3.4649 C   0  0  0  0  0  0  0  0  0  0  0  0
   -5.1644    1.0679   -0.3303 H   0  0  0  0  0  0  0  0  0  0  0  0
   -4.0954    3.6613   -0.3266 H   0  0  0  0  0  0  0  0  0  0  0  0
   -2.1777    5.3597   -0.1661 H   0  0  0  0  0  0  0  0  0  0  0  0
   -0.0005    6.6135   -0.0000 H   0  0  0  0  0  0  0  0  0  0  0  0
    2.1768    5.3600    0.1661 H   0  0  0  0  0  0  0  0  0  0  0  0
    4.0946    3.6619    0.3262 H   0  0  0  0  0  0  0  0  0  0  0  0
    5.1641    1.0686    0.3295 H   0  0  0  0  0  0  0  0  0  0  0  0
   -3.3565   -3.6574   -2.1181 H   0  0  0  0  0  0  0  0  0  0  0  0
   -3.8106   -4.7406    0.0775 H   0  0  0  0  0  0  0  0  0  0  0  0
   -3.9039   -3.3829    2.1613 H   0  0  0  0  0  0  0  0  0  0  0  0
   -2.5883    0.0425   -2.4600 H   0  0  0  0  0  0  0  0  0  0  0  0
   -2.0193   -2.7276   -3.6932 H   0  0  0  0  0  0  0  0  0  0  0  0
   -0.8507   -1.7531   -2.7416 H   0  0  0  0  0  0  0  0  0  0  0  0
   -1.4906   -1.1377   -4.3078 H   0  0  0  0  0  0  0  0  0  0  0  0
   -4.9995   -0.4022   -2.9946 H   0  0  0  0  0  0  0  0  0  0  0  0
   -3.9855   -0.4479   -4.4749 H   0  0  0  0  0  0  0  0  0  0  0  0
   -4.5569   -1.9720   -3.7269 H   0  0  0  0  0  0  0  0  0  0  0  0
   -3.7601    0.3815    2.1681 H   0  0  0  0  0  0  0  0  0  0  0  0
   -2.0754   -0.0016    3.9669 H   0  0  0  0  0  0  0  0  0  0  0  0
   -1.3409   -0.2894    2.3443 H   0  0  0  0  0  0  0  0  0  0  0  0
   -1.7971   -1.6716    3.3701 H   0  0  0  0  0  0  0  0  0  0  0  0
   -4.5987   -0.4153    4.3185 H   0  0  0  0  0  0  0  0  0  0  0  0
   -4.3250   -2.1201    3.8840 H   0  0  0  0  0  0  0  0  0  0  0  0
   -5.5748   -1.1730    3.0171 H   0  0  0  0  0  0  0  0  0  0  0  0
    3.3576   -3.6569    2.1181 H   0  0  0  0  0  0  0  0  0  0  0  0
    3.8112   -4.7401   -0.0776 H   0  0  0  0  0  0  0  0  0  0  0  0
    3.9041   -3.3824   -2.1614 H   0  0  0  0  0  0  0  0  0  0  0  0
    2.5901    0.0433    2.4603 H   0  0  0  0  0  0  0  0  0  0  0  0
    0.8509   -1.7509    2.7411 H   0  0  0  0  0  0  0  0  0  0  0  0
    1.4910   -1.1366    4.3076 H   0  0  0  0  0  0  0  0  0  0  0  0
    2.0185   -2.7267    3.6924 H   0  0  0  0  0  0  0  0  0  0  0  0
    3.9863   -0.4487    4.4754 H   0  0  0  0  0  0  0  0  0  0  0  0
    4.5566   -1.9732    3.7273 H   0  0  0  0  0  0  0  0  0  0  0  0
    5.0009   -0.4036    2.9954 H   0  0  0  0  0  0  0  0  0  0  0  0
    3.7600    0.3820   -2.1681 H   0  0  0  0  0  0  0  0  0  0  0  0
    1.3409   -0.2892   -2.3449 H   0  0  0  0  0  0  0  0  0  0  0  0
    1.7975   -1.6713   -3.3705 H   0  0  0  0  0  0  0  0  0  0  0  0
    2.0757   -0.0014   -3.9673 H   0  0  0  0  0  0  0  0  0  0  0  0
    5.5750   -1.1723   -3.0168 H   0  0  0  0  0  0  0  0  0  0  0  0
    4.3254   -2.1194   -3.8840 H   0  0  0  0  0  0  0  0  0  0  0  0
    4.5991   -0.4146   -4.3184 H   0  0  0  0  0  0  0  0  0  0  0  0
  1 17  1  0  0  0  0
  1  6  1  0  0  0  0
  2  6  1  0  0  0  0
  3 13  1  0  0  0  0
  4 14  1  0  0  0  0
  5 15  1  0  0  0  0
  7  8  2  0  0  0  0
  7  1  1  0  0  0  0
  8  2  1  0  0  0  0
  9  2  1  1  0  0  0
  9  3  1  0  0  0  0
 10  9  1  0  0  0  0
 10 11  2  0  0  0  0
 11 12  1  0  0  0  0
 12 45  1  0  0  0  0
 13 12  2  0  0  0  0
 13  4  1  0  0  0  0
 14 15  2  0  0  0  0
 14 46  1  0  0  0  0
 15 47  1  0  0  0  0
 16  4  1  0  0  0  0
 16  5  1  0  0  0  0
 17 22  1  0  0  0  0
 18 19  1  0  0  0  0
 18 17  2  0  0  0  0
 19 20  2  0  0  0  0
 20 49  1  0  0  0  0
 20 21  1  0  0  0  0
 21 50  1  0  0  0  0
 22 21  2  0  0  0  0
 22 26  1  0  0  0  0
 23 51  1  0  0  0  0
 23 18  1  0  0  0  0
 24 53  1  0  0  0  0
 24 23  1  0  0  0  0
 25 55  1  0  0  0  0
 25 23  1  0  0  0  0
 26 27  1  0  0  0  0
 26 28  1  0  0  0  0
 27 61  1  0  0  0  0
 27 59  1  0  0  0  0
 28 63  1  0  0  0  0
 28 62  1  0  0  0  0
 29  5  1  0  0  0  0
 29 30  1  0  0  0  0
 30 35  1  0  0  0  0
 31 30  2  0  0  0  0
 31 65  1  0  0  0  0
 32 31  1  0  0  0  0
 33 34  1  0  0  0  0
 33 32  2  0  0  0  0
 34 29  2  0  0  0  0
 35 36  1  0  0  0  0
 35 37  1  0  0  0  0
 36 71  1  0  0  0  0
 36 70  1  0  0  0  0
 37 73  1  0  0  0  0
 37 72  1  0  0  0  0
 38 75  1  0  0  0  0
 38 34  1  0  0  0  0
 39 38  1  0  0  0  0
 39 76  1  0  0  0  0
 40 79  1  0  0  0  0
 40 38  1  0  0  0  0
 41  7  1  0  0  0  0
 42  8  1  0  0  0  0
 43 10  1  0  0  0  0
 44 11  1  0  0  0  0
 48 19  1  0  0  0  0
 52 24  1  0  0  0  0
 54 24  1  0  0  0  0
 56 25  1  0  0  0  0
 57 25  1  0  0  0  0
 58 26  1  0  0  0  0
 60 27  1  0  0  0  0
 64 28  1  0  0  0  0
 66 32  1  0  0  0  0
 67 33  1  0  0  0  0
 68 35  1  0  0  0  0
 69 36  1  0  0  0  0
 74 37  1  0  0  0  0
 77 39  1  0  0  0  0
 78 39  1  0  0  0  0
 80 40  1  0  0  0  0
 81 40  1  0  0  0  0
M  END
