5,13,14
q = 0.0, confidence = 1.0

 55 59  0  0  1  0  0  0  0  0999 V2000
   -0.7564    2.4165    0.7395 C   0  0  2  0  0  3  0  0  0  0  0  0
   -2.9955   -1.8423   -1.6821 C   0  0  0  0  0  0  0  0  0  0  0  0
   -1.9296   -1.9490   -1.9558 H   0  0  0  0  0  0  0  0  0  0  0  0
   -3.5512   -1.4983   -2.5794 H   0  0  0  0  0  0  0  0  0  0  0  0
    0.0746    1.7056   -0.0649 N   0  0  0  0  0  2  0  0  0  0  0  0
   -2.5518    0.7503    0.8019 N   0  0  0  0  0  0  0  0  0  0  0  0
   -3.0681   -0.7590   -0.6931 N   0  0  0  0  0  0  0  0  0  0  0  0
    5.5902   -0.6880    0.6493 C   0  0  0  0  0  0  0  0  0  0  0  0
    5.8008   -1.4471    1.4150 H   0  0  0  0  0  0  0  0  0  0  0  0
    2.6319    0.5693   -0.9212 N   0  0  0  0  0  0  0  0  0  0  0  0
    1.0092    3.7472   -0.9190 C   0  0  0  0  0  0  0  0  0  0  0  0
    1.7255    4.2420   -1.5901 H   0  0  0  0  0  0  0  0  0  0  0  0
   -2.0242   -0.2210   -0.0075 C   0  0  0  0  0  2  0  0  0  0  0  0
    2.0398   -0.3458   -0.0930 C   0  0  0  0  0  2  0  0  0  0  0  0
    1.8446    1.4795   -1.7424 C   0  0  0  0  0  0  0  0  0  0  0  0
    1.2247    0.8871   -2.4488 H   0  0  0  0  0  0  0  0  0  0  0  0
    2.5303    2.1088   -2.3364 H   0  0  0  0  0  0  0  0  0  0  0  0
    0.9459    2.3473   -0.8851 C   0  0  0  0  0  0  0  0  0  0  0  0
    4.0201    0.5735   -0.7581 C   0  0  0  0  0  0  0  0  0  0  0  0
    4.2820   -0.4089    0.2267 C   0  0  0  0  0  0  0  0  0  0  0  0
    6.3592    1.0239   -0.9367 C   0  0  0  0  0  0  0  0  0  0  0  0
    7.1985    1.5757   -1.3841 H   0  0  0  0  0  0  0  0  0  0  0  0
   -1.7065    1.6199    1.6092 C   0  0  0  0  0  0  0  0  0  0  0  0
   -1.1241    0.9984    2.3226 H   0  0  0  0  0  0  0  0  0  0  0  0
   -2.3498    2.2989    2.1958 H   0  0  0  0  0  0  0  0  0  0  0  0
    5.0530    1.3048   -1.3611 C   0  0  0  0  0  0  0  0  0  0  0  0
    4.8607    2.0627   -2.1337 H   0  0  0  0  0  0  0  0  0  0  0  0
    3.0431   -0.9449    0.6006 N   0  0  0  0  0  0  0  0  0  0  0  0
    6.6223    0.0463    0.0500 C   0  0  0  0  0  0  0  0  0  0  0  0
    7.6620   -0.1441    0.3530 H   0  0  0  0  0  0  0  0  0  0  0  0
    0.1583    4.4947   -0.0952 C   0  0  0  0  0  0  0  0  0  0  0  0
    0.1917    5.5940   -0.1070 H   0  0  0  0  0  0  0  0  0  0  0  0
   -4.9104    1.6799    1.2075 C   0  0  0  0  0  0  0  0  0  0  0  0
   -4.6630    2.4420    1.9600 H   0  0  0  0  0  0  0  0  0  0  0  0
   -3.9353    0.8516    0.6341 C   0  0  0  0  0  0  0  0  0  0  0  0
   -4.2666   -0.1315   -0.3281 C   0  0  0  0  0  0  0  0  0  0  0  0
   -0.7360    3.8179    0.7437 C   0  0  0  0  0  0  0  0  0  0  0  0
   -1.4215    4.3691    1.4029 H   0  0  0  0  0  0  0  0  0  0  0  0
    2.8706   -1.9105    1.6920 C   0  0  0  0  0  0  0  0  0  0  0  0
    3.7171   -2.6232    1.6336 H   0  0  0  0  0  0  0  0  0  0  0  0
    1.9469   -2.4781    1.4705 H   0  0  0  0  0  0  0  0  0  0  0  0
   -3.5452   -3.1643   -1.1558 C   0  0  0  0  0  0  0  0  0  0  0  0
   -2.9466   -3.5086   -0.2908 H   0  0  0  0  0  0  0  0  0  0  0  0
   -3.4727   -3.9329   -1.9499 H   0  0  0  0  0  0  0  0  0  0  0  0
   -4.6072   -3.0876   -0.8509 H   0  0  0  0  0  0  0  0  0  0  0  0
   -5.5893   -0.3108   -0.7610 C   0  0  0  0  0  0  0  0  0  0  0  0
   -5.8549   -1.0674   -1.5114 H   0  0  0  0  0  0  0  0  0  0  0  0
   -6.2315    1.4948    0.7769 C   0  0  0  0  0  0  0  0  0  0  0  0
   -7.0271    2.1234    1.2023 H   0  0  0  0  0  0  0  0  0  0  0  0
   -6.5636    0.5196   -0.1910 C   0  0  0  0  0  0  0  0  0  0  0  0
   -7.6121    0.4082   -0.5027 H   0  0  0  0  0  0  0  0  0  0  0  0
    2.8015   -1.2315    3.0562 C   0  0  0  0  0  0  0  0  0  0  0  0
    3.7134   -0.6399    3.2737 H   0  0  0  0  0  0  0  0  0  0  0  0
    2.6913   -1.9954    3.8504 H   0  0  0  0  0  0  0  0  0  0  0  0
    1.9246   -0.5549    3.1107 H   0  0  0  0  0  0  0  0  0  0  0  0
  1 37  1  0  0  0  0
  1 23  1  6  0  0  0
  2 42  1  0  0  0  0
  2  7  1  0  0  0  0
  3  2  1  0  0  0  0
  4  2  1  0  0  0  0
  5  1  1  0  0  0  0
  6 23  1  0  0  0  0
  7 36  1  0  0  0  0
  7 13  1  0  0  0  0
  8  9  1  0  0  0  0
 10 19  1  0  0  0  0
 10 14  1  0  0  0  0
 11 18  2  0  0  0  0
 11 31  1  0  0  0  0
 12 11  1  0  0  0  0
 13  6  1  0  0  0  0
 14 28  1  0  0  0  0
 15 10  1  0  0  0  0
 15 18  1  0  0  0  0
 16 15  1  0  0  0  0
 17 15  1  0  0  0  0
 18  5  1  0  0  0  0
 19 20  2  0  0  0  0
 20 28  1  0  0  0  0
 20  8  1  0  0  0  0
 21 29  1  0  0  0  0
 22 21  1  0  0  0  0
 23 25  1  0  0  0  0
 23 24  1  0  0  0  0
 26 21  2  0  0  0  0
 26 19  1  0  0  0  0
 27 26  1  0  0  0  0
 28 39  1  0  0  0  0
 29 30  1  0  0  0  0
 29  8  2  0  0  0  0
 31 37  2  0  0  0  0
 32 31  1  0  0  0  0
 33 34  1  0  0  0  0
 35  6  1  0  0  0  0
 35 33  2  0  0  0  0
 36 35  1  0  0  0  0
 37 38  1  0  0  0  0
 39 52  1  0  0  0  0
 40 39  1  0  0  0  0
 41 39  1  0  0  0  0
 42 45  1  0  0  0  0
 42 43  1  0  0  0  0
 44 42  1  0  0  0  0
 46 36  2  0  0  0  0
 46 50  1  0  0  0  0
 47 46  1  0  0  0  0
 48 49  1  0  0  0  0
 48 33  1  0  0  0  0
 50 48  2  0  0  0  0
 51 50  1  0  0  0  0
 52 55  1  0  0  0  0
 52 53  1  0  0  0  0
 52 54  1  0  0  0  0
M  END
