1,3,5
q = -2.0, confidence = 0.898

 26 26  0  0  0  0  0  0  0  0999 V2000
   -1.0512    0.6362   -0.0529 N   0  0  0  0  0  2  0  0  0  0  0  0
    1.9404    1.0959    1.0464 C   0  0  0  0  0  0  0  0  0  0  0  0
    2.7338    0.0669    0.4594 C   0  0  0  0  0  3  0  0  0  0  0  0
    2.5483    0.1218   -0.9528 C   0  0  0  0  0  3  0  0  0  0  0  0
    1.6292    1.1718   -1.2334 C   0  0  0  0  0  3  0  0  0  0  0  0
    1.2457    1.7783    0.0053 C   0  0  0  0  0  0  0  0  0  0  0  0
    0.1063    2.7432    0.1914 C   0  0  0  0  0  0  0  0  0  0  0  0
   -1.1733    2.0604   -0.3221 C   0  0  0  0  0  0  0  0  0  0  0  0
   -2.2696   -0.1845    0.0225 C   0  0  0  0  0  0  0  0  0  0  0  0
   -3.0949   -0.0983   -1.2670 C   0  0  0  0  0  0  0  0  0  0  0  0
   -3.0705    0.1198    1.2950 C   0  0  0  0  0  0  0  0  0  0  0  0
   -1.9160   -1.2396    0.1108 H   0  0  0  0  0  0  0  0  0  0  0  0
   -2.0769    2.4939    0.1633 H   0  0  0  0  0  0  0  0  0  0  0  0
    0.2847    3.7009   -0.3403 H   0  0  0  0  0  0  0  0  0  0  0  0
    1.2221    1.4192   -2.2220 H   0  0  0  0  0  0  0  0  0  0  0  0
   -3.9470   -0.8056   -1.2291 H   0  0  0  0  0  0  0  0  0  0  0  0
   -2.4646   -0.3608   -2.1395 H   0  0  0  0  0  0  0  0  0  0  0  0
    1.8072    1.2719    2.1207 H   0  0  0  0  0  0  0  0  0  0  0  0
   -3.9403   -0.5621    1.3780 H   0  0  0  0  0  0  0  0  0  0  0  0
   -3.5095    0.9198   -1.4168 H   0  0  0  0  0  0  0  0  0  0  0  0
    2.9856   -0.5630   -1.6881 H   0  0  0  0  0  0  0  0  0  0  0  0
   -1.2984    2.2375   -1.4176 H   0  0  0  0  0  0  0  0  0  0  0  0
   -2.4296   -0.0210    2.1872 H   0  0  0  0  0  0  0  0  0  0  0  0
    3.3416   -0.6655    1.0038 H   0  0  0  0  0  0  0  0  0  0  0  0
   -3.4590    1.1594    1.2936 H   0  0  0  0  0  0  0  0  0  0  0  0
    0.0063    2.9750    1.2702 H   0  0  0  0  0  0  0  0  0  0  0  0
  1  9  1  0  0  0  0
  2 18  1  0  0  0  0
  3 24  1  0  0  0  0
  3  2  1  0  0  0  0
  4  3  1  0  0  0  0
  5  4  1  0  0  0  0
  5  6  1  0  0  0  0
  6  7  1  0  0  0  0
  6  2  2  0  0  0  0
  7 26  1  0  0  0  0
  8  1  1  0  0  0  0
  8 13  1  0  0  0  0
  8  7  1  0  0  0  0
  9 12  1  0  0  0  0
  9 11  1  0  0  0  0
 10 16  1  0  0  0  0
 10  9  1  0  0  0  0
 11 19  1  0  0  0  0
 11 23  1  0  0  0  0
 14  7  1  0  0  0  0
 15  5  1  0  0  0  0
 17 10  1  0  0  0  0
 20 10  1  0  0  0  0
 21  4  1  0  0  0  0
 22  8  1  0  0  0  0
 25 11  1  0  0  0  0
M  END
