2,3,8
q = -1.0, confidence = 0.0

 30 31  0  0  1  0  0  0  0  0999 V2000
    2.6450    0.2510    0.0868 O   0  0  0  0  0  0  0  0  0  0  0  0
   -0.7563    1.2133   -0.0631 N   0  0  0  0  0  2  0  0  0  0  0  0
    0.5831   -1.0761   -0.1591 C   0  0  2  0  0  3  0  0  0  0  0  0
   -0.1208   -1.9319   -1.0607 C   0  0  0  0  0  0  0  0  0  0  0  0
   -0.0129   -1.9417   -2.1520 H   0  0  0  0  0  0  0  0  0  0  0  0
   -1.0344   -2.7263   -0.2824 C   0  0  0  0  0  0  0  0  0  0  0  0
   -1.7343   -3.4745   -0.6718 H   0  0  0  0  0  0  0  0  0  0  0  0
   -0.8571   -2.3763    1.0937 C   0  0  0  0  0  3  0  0  0  0  0  0
   -1.4055   -2.8133    1.9371 H   0  0  0  0  0  0  0  0  0  0  0  0
    0.1596   -1.3672    1.1880 C   0  0  0  0  0  3  0  0  0  0  0  0
    0.5283   -0.8815    2.0982 H   0  0  0  0  0  0  0  0  0  0  0  0
   -1.5133    2.3252    0.1398 C   0  0  0  0  0  3  0  0  0  0  0  0
   -2.5895    2.1518    0.2765 H   0  0  0  0  0  0  0  0  0  0  0  0
   -0.9744    3.6109    0.1975 C   0  0  0  0  0  0  0  0  0  0  0  0
   -1.6460    4.4640    0.3704 H   0  0  0  0  0  0  0  0  0  0  0  0
    0.4106    3.7863    0.0496 C   0  0  0  0  0  0  0  0  0  0  0  0
    0.8663    4.7855    0.1048 H   0  0  0  0  0  0  0  0  0  0  0  0
    1.1956    2.6484   -0.1772 C   0  0  0  0  0  0  0  0  0  0  0  0
    2.2863    2.7009   -0.2995 H   0  0  0  0  0  0  0  0  0  0  0  0
    0.5875    1.3908   -0.2489 C   0  0  0  0  0  0  0  0  0  0  0  0
    1.3892    0.1379   -0.5590 C   0  0  1  0  0  0  0  0  0  0  0  0
    1.5368    0.0965   -1.6703 H   0  0  0  0  0  0  0  0  0  0  0  0
    4.8055   -0.6374    0.5321 C   0  0  0  0  0  0  0  0  0  0  0  0
    4.6454   -0.5760    1.6233 H   0  0  0  0  0  0  0  0  0  0  0  0
    3.5581   -0.7773   -0.2842 C   0  0  0  0  0  0  0  0  0  0  0  0
    3.7874   -0.7285   -1.3774 H   0  0  0  0  0  0  0  0  0  0  0  0
    3.0927   -1.7770   -0.0944 H   0  0  0  0  0  0  0  0  0  0  0  0
    6.0490   -0.6110    0.0262 C   0  0  0  0  0  0  0  0  0  0  0  0
    6.2290   -0.6626   -1.0609 H   0  0  0  0  0  0  0  0  0  0  0  0
    6.9346   -0.5466    0.6769 H   0  0  0  0  0  0  0  0  0  0  0  0
  2 12  1  0  0  0  0
  3 21  1  6  0  0  0
  3 10  1  0  0  0  0
  4  6  2  0  0  0  0
  4  3  1  0  0  0  0
  5  4  1  0  0  0  0
  6  8  1  0  0  0  0
  7  6  1  0  0  0  0
  8 10  1  0  0  0  0
  8  9  1  0  0  0  0
 10 11  1  0  0  0  0
 12 14  1  0  0  0  0
 12 13  1  0  0  0  0
 14 15  1  0  0  0  0
 16 17  1  0  0  0  0
 16 14  2  0  0  0  0
 18 16  1  0  0  0  0
 19 18  1  0  0  0  0
 20 18  2  0  0  0  0
 20  2  1  0  0  0  0
 21 22  1  6  0  0  0
 21 20  1  0  0  0  0
 21  1  1  0  0  0  0
 23 24  1  0  0  0  0
 25 27  1  0  0  0  0
 25  1  1  0  0  0  0
 25 23  1  0  0  0  0
 26 25  1  0  0  0  0
 28 23  2  0  0  0  0
 28 30  1  0  0  0  0
 29 28  1  0  0  0  0
M  END
