1,2,8
q = -1.0

 42 42  0  0  1  0  0  0  0  0999 V2000
   -0.3099    0.9988   -0.4528 N   0  0  0  0  0  2  0  0  0  0  0  0
    2.4996    0.5921   -1.7075 C   0  0  0  0  0  3  0  0  0  0  0  0
    3.3670    1.2510   -1.8677 H   0  0  0  0  0  0  0  0  0  0  0  0
    1.6327    0.8478   -2.3360 H   0  0  0  0  0  0  0  0  0  0  0  0
    2.7876   -0.7851   -1.3875 C   0  0  0  0  0  0  0  0  0  0  0  0
    1.8339   -1.7513   -0.9690 C   0  0  0  0  0  0  0  0  0  0  0  0
    2.2936   -2.6432   -0.5081 H   0  0  0  0  0  0  0  0  0  0  0  0
    0.4066   -1.6362   -0.7571 C   0  0  1  0  0  3  0  0  0  0  0  0
   -0.4955   -0.9632   -1.8041 C   0  0  0  0  0  0  0  0  0  0  0  0
    0.1125   -0.6005   -2.6574 H   0  0  0  0  0  0  0  0  0  0  0  0
   -1.2007   -1.7151   -2.2233 H   0  0  0  0  0  0  0  0  0  0  0  0
    4.2483   -1.1632   -1.2522 C   0  0  0  0  0  0  0  0  0  0  0  0
    4.8510   -0.3217   -0.8548 H   0  0  0  0  0  0  0  0  0  0  0  0
    4.6654   -1.4093   -2.2524 H   0  0  0  0  0  0  0  0  0  0  0  0
    4.4001   -2.0450   -0.5984 H   0  0  0  0  0  0  0  0  0  0  0  0
   -0.2321   -2.8163   -0.0453 C   0  0  0  0  0  0  0  0  0  0  0  0
    0.4384   -3.2395    0.7296 H   0  0  0  0  0  0  0  0  0  0  0  0
   -0.4704   -3.6352   -0.7640 H   0  0  0  0  0  0  0  0  0  0  0  0
   -1.1836   -2.5374    0.4458 H   0  0  0  0  0  0  0  0  0  0  0  0
   -1.2807    0.2424   -1.2288 C   0  0  1  0  0  0  0  0  0  0  0  0
   -1.6544    0.8421   -2.0939 H   0  0  0  0  0  0  0  0  0  0  0  0
   -2.5213   -0.1930   -0.4450 C   0  0  0  0  0  0  0  0  0  0  0  0
   -2.4759   -0.4273    0.9419 C   0  0  0  0  0  0  0  0  0  0  0  0
   -1.5266   -0.2491    1.4666 H   0  0  0  0  0  0  0  0  0  0  0  0
   -3.6117   -0.8728    1.6339 C   0  0  0  0  0  0  0  0  0  0  0  0
   -3.5566   -1.0497    2.7194 H   0  0  0  0  0  0  0  0  0  0  0  0
   -4.8173   -1.0912    0.9474 C   0  0  0  0  0  0  0  0  0  0  0  0
   -5.7106   -1.4367    1.4898 H   0  0  0  0  0  0  0  0  0  0  0  0
   -4.8758   -0.8585   -0.4359 C   0  0  0  0  0  0  0  0  0  0  0  0
   -5.8174   -1.0200   -0.9832 H   0  0  0  0  0  0  0  0  0  0  0  0
   -3.7364   -0.4116   -1.1225 C   0  0  0  0  0  0  0  0  0  0  0  0
   -3.7898   -0.2235   -2.2077 H   0  0  0  0  0  0  0  0  0  0  0  0
   -0.5194    2.4393   -0.2670 C   0  0  0  0  0  0  0  0  0  0  0  0
    0.3388    2.7871    0.3550 H   0  0  0  0  0  0  0  0  0  0  0  0
   -1.8047    2.8064    0.4933 C   0  0  0  0  0  0  0  0  0  0  0  0
   -1.8571    2.2947    1.4735 H   0  0  0  0  0  0  0  0  0  0  0  0
   -2.7091    2.5162   -0.0784 H   0  0  0  0  0  0  0  0  0  0  0  0
   -1.8482    3.9010    0.6675 H   0  0  0  0  0  0  0  0  0  0  0  0
   -0.4284    3.2106   -1.5968 C   0  0  0  0  0  0  0  0  0  0  0  0
   -1.2745    2.9610   -2.2698 H   0  0  0  0  0  0  0  0  0  0  0  0
    0.5156    2.9753   -2.1265 H   0  0  0  0  0  0  0  0  0  0  0  0
   -0.4632    4.3043   -1.4175 H   0  0  0  0  0  0  0  0  0  0  0  0
  1 33  1  0  0  0  0
  2  5  1  0  0  0  0
  3  2  1  0  0  0  0
  4  2  1  0  0  0  0
  5 12  1  0  0  0  0
  5  6  2  0  0  0  0
  6  7  1  0  0  0  0
  8  6  1  6  0  0  0
  8 16  1  0  0  0  0
  9 20  1  0  0  0  0
  9  8  1  0  0  0  0
 10  9  1  0  0  0  0
 11  9  1  0  0  0  0
 12 13  1  0  0  0  0
 12 15  1  0  0  0  0
 14 12  1  0  0  0  0
 16 19  1  0  0  0  0
 16 17  1  0  0  0  0
 18 16  1  0  0  0  0
 20 21  1  6  0  0  0
 20  1  1  0  0  0  0
 20 22  1  0  0  0  0
 22 23  1  0  0  0  0
 23 24  1  0  0  0  0
 23 25  2  0  0  0  0
 25 26  1  0  0  0  0
 27 28  1  0  0  0  0
 27 25  1  0  0  0  0
 29 27  2  0  0  0  0
 30 29  1  0  0  0  0
 31 22  2  0  0  0  0
 31 29  1  0  0  0  0
 32 31  1  0  0  0  0
 33 34  1  0  0  0  0
 33 35  1  0  0  0  0
 35 38  1  0  0  0  0
 35 36  1  0  0  0  0
 37 35  1  0  0  0  0
 39 42  1  0  0  0  0
 39 33  1  0  0  0  0
 40 39  1  0  0  0  0
 41 39  1  0  0  0  0
M  END
