2,14,22
q = 0.0, confidence = 0.992

 73 77  0  0  1  0  0  0  0  0999 V2000
    3.1963    1.1701   -0.4968 N   0  0  0  0  0  0  0  0  0  0  0  0
    1.9931    0.5888   -0.3724 C   0  0  0  0  0  2  0  0  0  0  0  0
    2.2506   -0.7689   -0.0866 N   0  0  0  0  0  0  0  0  0  0  0  0
    3.6309   -1.0125   -0.0276 C   0  0  0  0  0  0  0  0  0  0  0  0
    4.3879   -2.1650    0.2127 C   0  0  0  0  0  0  0  0  0  0  0  0
    3.9043   -3.1304    0.4056 H   0  0  0  0  0  0  0  0  0  0  0  0
    5.7830   -2.0125    0.1917 C   0  0  0  0  0  0  0  0  0  0  0  0
    6.4195   -2.8899    0.3765 H   0  0  0  0  0  0  0  0  0  0  0  0
    6.3899   -0.7623   -0.0596 C   0  0  0  0  0  0  0  0  0  0  0  0
    7.4870   -0.6886   -0.0643 H   0  0  0  0  0  0  0  0  0  0  0  0
    5.6270    0.3897   -0.3032 C   0  0  0  0  0  0  0  0  0  0  0  0
    6.1020    1.3612   -0.4957 H   0  0  0  0  0  0  0  0  0  0  0  0
    4.2349    0.2417   -0.2840 C   0  0  0  0  0  0  0  0  0  0  0  0
   -0.0000   -0.9337   -0.0771 N   0  0  0  0  0  2  0  0  0  0  0  0
    1.1573   -1.6153    0.0815 C   0  0  2  0  0  3  0  0  0  0  0  0
    1.2199   -2.8995    0.3573 N   0  0  0  0  0  0  0  0  0  0  0  0
   -0.0001   -3.5241    0.4899 C   0  0  0  0  0  0  0  0  0  0  0  0
   -0.0001   -4.8372    0.7823 N   0  0  0  0  0  0  0  0  0  0  0  0
   -1.2200   -2.8994    0.3573 N   0  0  0  0  0  0  0  0  0  0  0  0
   -1.1573   -1.6152    0.0815 C   0  0  0  0  0  0  0  0  0  0  0  0
   -3.1963    1.1703   -0.4968 N   0  0  0  0  0  0  0  0  0  0  0  0
   -1.9931    0.5888   -0.3724 C   0  0  0  0  0  2  0  0  0  0  0  0
   -2.2507   -0.7688   -0.0866 N   0  0  0  0  0  0  0  0  0  0  0  0
   -3.6309   -1.0124   -0.0275 C   0  0  0  0  0  0  0  0  0  0  0  0
   -4.3880   -2.1649    0.2128 C   0  0  0  0  0  0  0  0  0  0  0  0
   -3.9044   -3.1303    0.4057 H   0  0  0  0  0  0  0  0  0  0  0  0
   -5.7831   -2.0123    0.1917 C   0  0  0  0  0  0  0  0  0  0  0  0
   -6.4196   -2.8897    0.3765 H   0  0  0  0  0  0  0  0  0  0  0  0
   -6.3899   -0.7621   -0.0595 C   0  0  0  0  0  0  0  0  0  0  0  0
   -7.4870   -0.6883   -0.0643 H   0  0  0  0  0  0  0  0  0  0  0  0
   -5.6270    0.3899   -0.3032 C   0  0  0  0  0  0  0  0  0  0  0  0
   -6.1020    1.3615   -0.4957 H   0  0  0  0  0  0  0  0  0  0  0  0
   -4.2349    0.2419   -0.2839 C   0  0  0  0  0  0  0  0  0  0  0  0
    1.2715   -5.5696    0.9056 C   0  0  0  0  0  0  0  0  0  0  0  0
    1.0673   -6.4483    1.5477 H   0  0  0  0  0  0  0  0  0  0  0  0
    1.9828   -4.9190    1.4501 H   0  0  0  0  0  0  0  0  0  0  0  0
    1.8697   -6.0013   -0.4329 C   0  0  0  0  0  0  0  0  0  0  0  0
    1.1909   -6.6750   -0.9910 H   0  0  0  0  0  0  0  0  0  0  0  0
    2.8182   -6.5470   -0.2588 H   0  0  0  0  0  0  0  0  0  0  0  0
    2.0928   -5.1215   -1.0676 H   0  0  0  0  0  0  0  0  0  0  0  0
   -1.2717   -5.5696    0.9056 C   0  0  0  0  0  0  0  0  0  0  0  0
   -1.9829   -4.9190    1.4502 H   0  0  0  0  0  0  0  0  0  0  0  0
   -1.0675   -6.4483    1.5477 H   0  0  0  0  0  0  0  0  0  0  0  0
   -1.8699   -6.0012   -0.4329 C   0  0  0  0  0  0  0  0  0  0  0  0
   -2.0930   -5.1213   -1.0676 H   0  0  0  0  0  0  0  0  0  0  0  0
   -2.8185   -6.5468   -0.2588 H   0  0  0  0  0  0  0  0  0  0  0  0
   -1.1912   -6.6750   -0.9910 H   0  0  0  0  0  0  0  0  0  0  0  0
    3.3864    2.6048   -0.7444 C   0  0  0  0  0  0  0  0  0  0  0  0
    2.5055    2.9457   -1.3223 H   0  0  0  0  0  0  0  0  0  0  0  0
    4.2902    2.7150   -1.3766 H   0  0  0  0  0  0  0  0  0  0  0  0
    3.4982    3.4097    0.5515 C   0  0  0  0  0  0  0  0  0  0  0  0
    2.5840    3.2187    1.1535 H   0  0  0  0  0  0  0  0  0  0  0  0
    4.3647    3.0524    1.1507 H   0  0  0  0  0  0  0  0  0  0  0  0
    3.6227    4.9113    0.2778 C   0  0  0  0  0  0  0  0  0  0  0  0
    4.5099    5.0994   -0.3669 H   0  0  0  0  0  0  0  0  0  0  0  0
    2.7379    5.2356   -0.3118 H   0  0  0  0  0  0  0  0  0  0  0  0
    3.7265    5.7406    1.5576 C   0  0  0  0  0  0  0  0  0  0  0  0
    2.8337    5.5991    2.2009 H   0  0  0  0  0  0  0  0  0  0  0  0
    3.8078    6.8220    1.3320 H   0  0  0  0  0  0  0  0  0  0  0  0
    4.6169    5.4558    2.1557 H   0  0  0  0  0  0  0  0  0  0  0  0
   -3.3863    2.6049   -0.7444 C   0  0  0  0  0  0  0  0  0  0  0  0
   -4.2901    2.7151   -1.3766 H   0  0  0  0  0  0  0  0  0  0  0  0
   -2.5053    2.9458   -1.3223 H   0  0  0  0  0  0  0  0  0  0  0  0
   -3.4981    3.4098    0.5514 C   0  0  0  0  0  0  0  0  0  0  0  0
   -2.5839    3.2188    1.1535 H   0  0  0  0  0  0  0  0  0  0  0  0
   -4.3646    3.0526    1.1507 H   0  0  0  0  0  0  0  0  0  0  0  0
   -3.6225    4.9114    0.2777 C   0  0  0  0  0  0  0  0  0  0  0  0
   -2.7377    5.2357   -0.3118 H   0  0  0  0  0  0  0  0  0  0  0  0
   -4.5097    5.0996   -0.3670 H   0  0  0  0  0  0  0  0  0  0  0  0
   -3.7263    5.7407    1.5575 C   0  0  0  0  0  0  0  0  0  0  0  0
   -4.6167    5.4560    2.1556 H   0  0  0  0  0  0  0  0  0  0  0  0
   -3.8075    6.8221    1.3319 H   0  0  0  0  0  0  0  0  0  0  0  0
   -2.8334    5.5992    2.2008 H   0  0  0  0  0  0  0  0  0  0  0  0
  1  2  1  0  0  0  0
  1 13  1  0  0  0  0
  2  3  1  0  0  0  0
  3  4  1  0  0  0  0
  4  5  1  0  0  0  0
  5  6  1  0  0  0  0
  7  5  2  0  0  0  0
  7  8  1  0  0  0  0
  9  7  1  0  0  0  0
 10  9  1  0  0  0  0
 11 13  1  0  0  0  0
 11  9  2  0  0  0  0
 12 11  1  0  0  0  0
 13  4  2  0  0  0  0
 14 15  1  0  0  0  0
 14 20  1  0  0  0  0
 15  3  1  1  0  0  0
 15 16  1  0  0  0  0
 16 17  2  0  0  0  0
 17 18  1  0  0  0  0
 18 34  1  0  0  0  0
 18 41  1  0  0  0  0
 19 17  1  0  0  0  0
 20 19  2  0  0  0  0
 21 22  1  0  0  0  0
 21 33  1  0  0  0  0
 22 23  1  0  0  0  0
 23 24  1  0  0  0  0
 23 20  1  0  0  0  0
 24 25  1  0  0  0  0
 25 26  1  0  0  0  0
 27 25  2  0  0  0  0
 27 28  1  0  0  0  0
 29 27  1  0  0  0  0
 30 29  1  0  0  0  0
 31 33  1  0  0  0  0
 31 29  2  0  0  0  0
 32 31  1  0  0  0  0
 33 24  2  0  0  0  0
 34 36  1  0  0  0  0
 34 35  1  0  0  0  0
 37 39  1  0  0  0  0
 37 34  1  0  0  0  0
 38 37  1  0  0  0  0
 40 37  1  0  0  0  0
 41 42  1  0  0  0  0
 41 43  1  0  0  0  0
 44 46  1  0  0  0  0
 44 41  1  0  0  0  0
 45 44  1  0  0  0  0
 47 44  1  0  0  0  0
 48  1  1  0  0  0  0
 48 51  1  0  0  0  0
 49 48  1  0  0  0  0
 50 48  1  0  0  0  0
 51 53  1  0  0  0  0
 51 52  1  0  0  0  0
 54 51  1  0  0  0  0
 54 57  1  0  0  0  0
 55 54  1  0  0  0  0
 56 54  1  0  0  0  0
 57 60  1  0  0  0  0
 57 58  1  0  0  0  0
 59 57  1  0  0  0  0
 61 21  1  0  0  0  0
 61 64  1  0  0  0  0
 62 61  1  0  0  0  0
 63 61  1  0  0  0  0
 64 66  1  0  0  0  0
 64 65  1  0  0  0  0
 67 64  1  0  0  0  0
 67 70  1  0  0  0  0
 68 67  1  0  0  0  0
 69 67  1  0  0  0  0
 70 71  1  0  0  0  0
 70 73  1  0  0  0  0
 72 70  1  0  0  0  0
M  END
