2,3,26
q = -1.0, confidence = 0.0

 35 37  0  0  1  0  0  0  0  0999 V2000
   -2.0952    0.0262   -1.7068 S   0  0  0  0  0  0  0  0  0  0  0  0
   -0.0080   -1.4639    0.0105 N   0  0  0  0  0  2  0  0  0  0  0  0
    2.4079   -0.3547   -0.0104 C   0  0  0  0  0  2  0  0  0  0  0  0
    3.6827    0.2342   -0.0177 C   0  0  0  0  0  0  0  0  0  0  0  0
    3.7732    1.3249    0.0728 H   0  0  0  0  0  0  0  0  0  0  0  0
    4.8279   -0.5735   -0.1439 C   0  0  0  0  0  0  0  0  0  0  0  0
    5.8194   -0.0931   -0.1480 H   0  0  0  0  0  0  0  0  0  0  0  0
    4.7364   -1.9742   -0.2663 C   0  0  0  0  0  0  0  0  0  0  0  0
    5.6473   -2.5829   -0.3647 H   0  0  0  0  0  0  0  0  0  0  0  0
    3.4790   -2.5803   -0.2621 C   0  0  0  0  0  0  0  0  0  0  0  0
    3.3787   -3.6733   -0.3567 H   0  0  0  0  0  0  0  0  0  0  0  0
    2.3183   -1.7799   -0.1324 C   0  0  0  0  0  0  0  0  0  0  0  0
    0.9895   -2.3138   -0.1136 C   0  0  0  0  0  0  0  0  0  0  0  0
    0.7908   -3.3976   -0.2163 H   0  0  0  0  0  0  0  0  0  0  0  0
   -1.3286   -1.9457    0.1274 C   0  0  0  0  0  0  0  0  0  0  0  0
   -1.6228   -3.0361    0.9764 C   0  0  0  0  0  0  0  0  0  0  0  0
   -0.8093   -3.4862    1.5641 H   0  0  0  0  0  0  0  0  0  0  0  0
   -2.9322   -3.5194    1.0963 C   0  0  0  0  0  0  0  0  0  0  0  0
   -3.1368   -4.3697    1.7642 H   0  0  0  0  0  0  0  0  0  0  0  0
   -3.9773   -2.9110    0.3851 C   0  0  0  0  0  0  0  0  0  0  0  0
   -5.0081   -3.2823    0.4815 H   0  0  0  0  0  0  0  0  0  0  0  0
   -3.7035   -1.8088   -0.4385 C   0  0  0  0  0  0  0  0  0  0  0  0
   -4.5085   -1.3072   -0.9953 H   0  0  0  0  0  0  0  0  0  0  0  0
   -2.3927   -1.3199   -0.5753 C   0  0  0  0  0  0  0  0  0  0  0  0
   -1.7842    1.3820   -0.5800 C   0  0  2  0  0  3  0  0  0  0  0  0
   -1.7524    1.2489    0.8333 C   0  0  0  0  0  3  0  0  0  0  0  0
   -1.9521    0.2782    1.3082 H   0  0  0  0  0  0  0  0  0  0  0  0
   -1.6310    2.4051    1.6374 C   0  0  0  0  0  0  0  0  0  0  0  0
   -1.6181    2.2903    2.7313 H   0  0  0  0  0  0  0  0  0  0  0  0
   -1.5180    3.6678    1.0566 C   0  0  0  0  0  0  0  0  0  0  0  0
   -1.4039    4.5605    1.6877 H   0  0  0  0  0  0  0  0  0  0  0  0
   -1.5286    3.7906   -0.3472 C   0  0  0  0  0  0  0  0  0  0  0  0
   -1.4218    4.7820   -0.8121 H   0  0  0  0  0  0  0  0  0  0  0  0
   -1.6632    2.6677   -1.1631 C   0  0  0  0  0  0  0  0  0  0  0  0
   -1.6746    2.7715   -2.2584 H   0  0  0  0  0  0  0  0  0  0  0  0
  1 24  1  0  0  0  0
  2 15  1  0  0  0  0
  4  3  1  0  0  0  0
  4  5  1  0  0  0  0
  6  4  2  0  0  0  0
  7  6  1  0  0  0  0
  8 10  2  0  0  0  0
  8  6  1  0  0  0  0
  9  8  1  0  0  0  0
 10 12  1  0  0  0  0
 11 10  1  0  0  0  0
 12 13  2  0  0  0  0
 12  3  1  0  0  0  0
 13  2  1  0  0  0  0
 14 13  1  0  0  0  0
 15 16  1  0  0  0  0
 16 18  2  0  0  0  0
 16 17  1  0  0  0  0
 18 19  1  0  0  0  0
 20 21  1  0  0  0  0
 20 18  1  0  0  0  0
 22 20  2  0  0  0  0
 23 22  1  0  0  0  0
 24 22  1  0  0  0  0
 24 15  2  0  0  0  0
 25  1  1  1  0  0  0
 25 26  1  0  0  0  0
 26 27  1  0  0  0  0
 26 28  1  0  0  0  0
 28 29  1  0  0  0  0
 30 28  2  0  0  0  0
 30 31  1  0  0  0  0
 32 30  1  0  0  0  0
 33 32  1  0  0  0  0
 34 25  1  0  0  0  0
 34 32  2  0  0  0  0
 35 34  1  0  0  0  0
M  END
