2,3,29
q = 0.0, confidence = 0.538

 39 42  0  0  0  0  0  0  0  0999 V2000
   -9.8944   -0.1410   -0.0009 F   0  0  0  0  0  0  0  0  0  0  0  0
   -1.5056    0.0048    0.0001 N   0  0  0  0  0  2  0  0  0  0  0  0
    0.2248   -2.0299   -0.0440 C   0  0  0  0  0  2  0  0  0  0  0  0
    1.1530   -3.0794   -0.0675 C   0  0  0  0  0  0  0  0  0  0  0  0
    2.2287   -2.8441   -0.0633 H   0  0  0  0  0  0  0  0  0  0  0  0
    0.7220   -4.4183   -0.0964 C   0  0  0  0  0  0  0  0  0  0  0  0
    1.4634   -5.2328   -0.1147 H   0  0  0  0  0  0  0  0  0  0  0  0
   -0.6499   -4.7250   -0.1021 C   0  0  0  0  0  0  0  0  0  0  0  0
   -0.9826   -5.7736   -0.1251 H   0  0  0  0  0  0  0  0  0  0  0  0
   -1.5966   -3.6933   -0.0787 C   0  0  0  0  0  0  0  0  0  0  0  0
   -2.6696   -3.9411   -0.0834 H   0  0  0  0  0  0  0  0  0  0  0  0
   -1.1735   -2.3474   -0.0497 C   0  0  0  0  0  0  0  0  0  0  0  0
   -2.1152   -1.2116   -0.0225 C   0  0  0  0  0  0  0  0  0  0  0  0
   -3.5188   -1.2477   -0.0245 C   0  0  0  0  0  0  0  0  0  0  0  0
   -4.0366   -2.2140   -0.0771 H   0  0  0  0  0  0  0  0  0  0  0  0
   -4.2593   -0.0433   -0.0004 C   0  0  0  0  0  0  0  0  0  0  0  0
   -3.5613    1.1861    0.0241 C   0  0  0  0  0  0  0  0  0  0  0  0
   -4.1126    2.1337    0.0764 H   0  0  0  0  0  0  0  0  0  0  0  0
   -2.1574    1.1991    0.0226 C   0  0  0  0  0  0  0  0  0  0  0  0
   -1.2561    2.3672    0.0502 C   0  0  0  0  0  0  0  0  0  0  0  0
   -1.7262    3.6974    0.0795 C   0  0  0  0  0  0  0  0  0  0  0  0
   -2.8072    3.9074    0.0842 H   0  0  0  0  0  0  0  0  0  0  0  0
   -0.8163    4.7617    0.1033 C   0  0  0  0  0  0  0  0  0  0  0  0
   -1.1855    5.7980    0.1266 H   0  0  0  0  0  0  0  0  0  0  0  0
    0.5655    4.5034    0.0976 C   0  0  0  0  0  0  0  0  0  0  0  0
    1.2780    5.3432    0.1162 H   0  0  0  0  0  0  0  0  0  0  0  0
    1.0433    3.1804    0.0684 C   0  0  0  0  0  0  0  0  0  0  0  0
    2.1267    2.9833    0.0643 H   0  0  0  0  0  0  0  0  0  0  0  0
    0.1526    2.0990    0.0446 C   0  0  0  0  0  3  0  0  0  0  0  0
   -5.7413   -0.0691   -0.0006 C   0  0  0  0  0  0  0  0  0  0  0  0
   -6.4502   -1.1018    0.6558 C   0  0  0  0  0  0  0  0  0  0  0  0
   -5.8967   -1.8818    1.1991 H   0  0  0  0  0  0  0  0  0  0  0  0
   -7.8490   -1.1314    0.6631 C   0  0  0  0  0  0  0  0  0  0  0  0
   -8.4066   -1.9228    1.1836 H   0  0  0  0  0  0  0  0  0  0  0  0
   -8.5520   -0.1177   -0.0008 C   0  0  0  0  0  0  0  0  0  0  0  0
   -7.8844    0.9196   -0.6646 C   0  0  0  0  0  0  0  0  0  0  0  0
   -8.4689    1.6913   -1.1852 H   0  0  0  0  0  0  0  0  0  0  0  0
   -6.4854    0.9384   -0.6572 C   0  0  0  0  0  0  0  0  0  0  0  0
   -5.9591    1.7371   -1.2004 H   0  0  0  0  0  0  0  0  0  0  0  0
  1 35  1  0  0  0  0
  2 19  1  0  0  0  0
  4  5  1  0  0  0  0
  4  3  1  0  0  0  0
  6  4  2  0  0  0  0
  7  6  1  0  0  0  0
  8  6  1  0  0  0  0
  8 10  2  0  0  0  0
  9  8  1  0  0  0  0
 10 12  1  0  0  0  0
 11 10  1  0  0  0  0
 12  3  1  0  0  0  0
 12 13  2  0  0  0  0
 13  2  1  0  0  0  0
 14 13  1  0  0  0  0
 14 16  2  0  0  0  0
 15 14  1  0  0  0  0
 16 17  1  0  0  0  0
 17 18  1  0  0  0  0
 19 17  2  0  0  0  0
 19 20  1  0  0  0  0
 20 21  1  0  0  0  0
 21 22  1  0  0  0  0
 21 23  2  0  0  0  0
 23 24  1  0  0  0  0
 25 23  1  0  0  0  0
 25 26  1  0  0  0  0
 27 25  2  0  0  0  0
 28 27  1  0  0  0  0
 29 20  2  0  0  0  0
 29 27  1  0  0  0  0
 30 16  1  0  0  0  0
 30 31  1  0  0  0  0
 31 33  2  0  0  0  0
 31 32  1  0  0  0  0
 33 34  1  0  0  0  0
 35 33  1  0  0  0  0
 36 38  1  0  0  0  0
 36 35  2  0  0  0  0
 37 36  1  0  0  0  0
 38 30  2  0  0  0  0
 39 38  1  0  0  0  0
M  END
