1,12,48
q = -2.0, confidence = 0.726

 48 50  0  0  1  0  0  0  0  0999 V2000
    0.1370    0.7900   -0.2008 N   0  0  0  0  0  2  0  0  0  0  0  0
   -4.7164   -0.3642    0.3805 C   0  0  0  0  0  0  0  0  0  0  0  0
   -4.5574   -0.8612   -0.5954 H   0  0  0  0  0  0  0  0  0  0  0  0
   -5.8003   -0.1469    0.4767 H   0  0  0  0  0  0  0  0  0  0  0  0
   -4.4539   -1.0982    1.1655 H   0  0  0  0  0  0  0  0  0  0  0  0
   -4.1469    1.5398    1.9139 C   0  0  0  0  0  0  0  0  0  0  0  0
   -3.7749    0.8585    2.7052 H   0  0  0  0  0  0  0  0  0  0  0  0
   -5.2314    1.6905    2.0937 H   0  0  0  0  0  0  0  0  0  0  0  0
   -3.6351    2.5130    2.0412 H   0  0  0  0  0  0  0  0  0  0  0  0
   -3.9100    0.9314    0.5116 C   0  0  0  0  0  0  0  0  0  0  0  0
   -4.3541    1.6497   -0.2176 H   0  0  0  0  0  0  0  0  0  0  0  0
   -2.4173    0.8544    0.2018 C   0  0  0  0  0  2  0  0  0  0  0  0
   -1.7919    2.1136   -0.0895 C   0  0  0  0  0  0  0  0  0  0  0  0
   -2.4167    3.3933   -0.2227 C   0  0  0  0  0  0  0  0  0  0  0  0
   -3.5025    3.4856   -0.0737 H   0  0  0  0  0  0  0  0  0  0  0  0
   -1.6886    4.5255   -0.5651 C   0  0  0  0  0  0  0  0  0  0  0  0
   -2.1904    5.4985   -0.6719 H   0  0  0  0  0  0  0  0  0  0  0  0
   -0.2888    4.4210   -0.8003 C   0  0  0  0  0  0  0  0  0  0  0  0
    0.2782    5.3196   -1.0911 H   0  0  0  0  0  0  0  0  0  0  0  0
    0.3749    3.2079   -0.6869 C   0  0  0  0  0  0  0  0  0  0  0  0
    1.4514    3.1511   -0.8973 H   0  0  0  0  0  0  0  0  0  0  0  0
   -0.3564    2.0269   -0.3204 C   0  0  0  0  0  0  0  0  0  0  0  0
    1.5505    0.4868   -0.3893 C   0  0  1  0  0  0  0  0  0  0  0  0
    1.9307    0.9946   -1.3104 H   0  0  0  0  0  0  0  0  0  0  0  0
    2.4116    1.0388    0.7978 C   0  0  0  0  0  0  0  0  0  0  0  0
    2.1051    2.0919    0.9677 H   0  0  0  0  0  0  0  0  0  0  0  0
    2.1488    0.4771    1.7128 H   0  0  0  0  0  0  0  0  0  0  0  0
    3.9001    0.9789    0.5767 C   0  0  0  0  0  0  0  0  0  0  0  0
    4.7033    0.0472    1.2647 C   0  0  0  0  0  0  0  0  0  0  0  0
    4.2319   -0.6332    1.9910 H   0  0  0  0  0  0  0  0  0  0  0  0
    6.0832   -0.0344    1.0254 C   0  0  0  0  0  0  0  0  0  0  0  0
    6.6905   -0.7709    1.5735 H   0  0  0  0  0  0  0  0  0  0  0  0
    6.6869    0.8163    0.0862 C   0  0  0  0  0  0  0  0  0  0  0  0
    7.7688    0.7525   -0.1053 H   0  0  0  0  0  0  0  0  0  0  0  0
    5.9007    1.7528   -0.6051 C   0  0  0  0  0  0  0  0  0  0  0  0
    6.3660    2.4288   -1.3389 H   0  0  0  0  0  0  0  0  0  0  0  0
    4.5225    1.8329   -0.3588 C   0  0  0  0  0  0  0  0  0  0  0  0
    3.9155    2.5748   -0.9029 H   0  0  0  0  0  0  0  0  0  0  0  0
    1.6473   -1.0179   -0.5579 C   0  0  0  0  0  0  0  0  0  0  0  0
    2.8465   -1.6582   -0.9269 C   0  0  0  0  0  0  0  0  0  0  0  0
    3.7468   -1.0635   -1.1426 H   0  0  0  0  0  0  0  0  0  0  0  0
    2.8992   -3.0581   -1.0281 C   0  0  0  0  0  0  0  0  0  0  0  0
    3.8395   -3.5543   -1.3134 H   0  0  0  0  0  0  0  0  0  0  0  0
    1.7458   -3.8126   -0.7636 C   0  0  0  0  0  0  0  0  0  0  0  0
    1.7779   -4.9123   -0.8303 H   0  0  0  0  0  0  0  0  0  0  0  0
    0.5424   -3.1646   -0.4306 C   0  0  0  0  0  0  0  0  0  0  0  0
   -0.3526   -3.7849   -0.2517 H   0  0  0  0  0  0  0  0  0  0  0  0
    0.4523   -1.7582   -0.3316 C   0  0  0  0  0  3  0  0  0  0  0  0
  2  4  1  0  0  0  0
  2 10  1  0  0  0  0
  2  5  1  0  0  0  0
  3  2  1  0  0  0  0
  6  9  1  0  0  0  0
  6  8  1  0  0  0  0
  6  7  1  0  0  0  0
 10  6  1  0  0  0  0
 11 10  1  0  0  0  0
 12 10  1  0  0  0  0
 13 12  1  0  0  0  0
 14 13  1  0  0  0  0
 14 15  1  0  0  0  0
 16 14  2  0  0  0  0
 17 16  1  0  0  0  0
 18 20  2  0  0  0  0
 18 16  1  0  0  0  0
 19 18  1  0  0  0  0
 20 22  1  0  0  0  0
 21 20  1  0  0  0  0
 22  1  1  0  0  0  0
 22 13  2  0  0  0  0
 23 24  1  6  0  0  0
 23  1  1  0  0  0  0
 23 25  1  0  0  0  0
 25 26  1  0  0  0  0
 25 27  1  0  0  0  0
 28 25  1  0  0  0  0
 28 29  1  0  0  0  0
 29 30  1  0  0  0  0
 31 29  2  0  0  0  0
 31 32  1  0  0  0  0
 33 31  1  0  0  0  0
 34 33  1  0  0  0  0
 35 37  1  0  0  0  0
 35 33  2  0  0  0  0
 36 35  1  0  0  0  0
 37 28  2  0  0  0  0
 38 37  1  0  0  0  0
 39 23  1  0  0  0  0
 39 48  1  0  0  0  0
 40 39  2  0  0  0  0
 41 40  1  0  0  0  0
 42 40  1  0  0  0  0
 42 44  2  0  0  0  0
 43 42  1  0  0  0  0
 44 46  1  0  0  0  0
 45 44  1  0  0  0  0
 46 48  2  0  0  0  0
 46 47  1  0  0  0  0
M  END
