1,11,13
q = -1.0, confidence = 0.018

 25 27  0  0  1  0  0  0  0  0999 V2000
   -0.3866    0.8905   -0.0018 N   0  0  0  0  0  2  0  0  0  0  0  0
   -1.3280   -1.3199   -0.0003 C   0  0  0  0  0  0  0  0  0  0  0  0
   -1.5273    0.0907   -0.0009 C   0  0  2  0  0  3  0  0  0  0  0  0
   -0.5692    2.2236   -0.0031 C   0  0  0  0  0  0  0  0  0  0  0  0
   -1.8419    2.8337   -0.0031 C   0  0  0  0  0  0  0  0  0  0  0  0
   -2.9911    2.0552   -0.0018 C   0  0  0  0  0  0  0  0  0  0  0  0
   -2.8527    0.6380   -0.0007 C   0  0  0  0  0  0  0  0  0  0  0  0
   -3.9523   -0.2688    0.0007 C   0  0  0  0  0  0  0  0  0  0  0  0
   -3.7424   -1.6417    0.0016 C   0  0  0  0  0  0  0  0  0  0  0  0
   -2.4272   -2.1735    0.0010 C   0  0  0  0  0  0  0  0  0  0  0  0
    0.0995   -1.7213   -0.0020 C   0  0  1  0  0  3  0  0  0  0  0  0
    0.9318   -1.7733   -1.1719 C   0  0  0  0  0  3  0  0  0  0  0  0
    2.2978   -1.8167   -0.7186 C   0  0  0  0  0  3  0  0  0  0  0  0
    2.2994   -1.8200    0.7095 C   0  0  0  0  0  0  0  0  0  0  0  0
    0.9341   -1.7785    1.1657 C   0  0  0  0  0  0  0  0  0  0  0  0
    0.3446    2.8347   -0.0040 H   0  0  0  0  0  0  0  0  0  0  0  0
   -1.8968    3.9318   -0.0041 H   0  0  0  0  0  0  0  0  0  0  0  0
   -3.9936    2.5086   -0.0015 H   0  0  0  0  0  0  0  0  0  0  0  0
   -4.9736    0.1418    0.0010 H   0  0  0  0  0  0  0  0  0  0  0  0
   -4.6027   -2.3276    0.0027 H   0  0  0  0  0  0  0  0  0  0  0  0
   -2.2687   -3.2619    0.0014 H   0  0  0  0  0  0  0  0  0  0  0  0
    0.5817   -1.7485   -2.2097 H   0  0  0  0  0  0  0  0  0  0  0  0
    3.1862   -1.8511   -1.3603 H   0  0  0  0  0  0  0  0  0  0  0  0
    3.1891   -1.8573    1.3492 H   0  0  0  0  0  0  0  0  0  0  0  0
    0.5862   -1.7580    2.2044 H   0  0  0  0  0  0  0  0  0  0  0  0
  2 10  2  0  0  0  0
  3  1  1  6  0  0  0
  3  7  1  0  0  0  0
  3  2  1  0  0  0  0
  4  5  2  0  0  0  0
  4  1  1  0  0  0  0
  5  6  1  0  0  0  0
  6 18  1  0  0  0  0
  6  7  2  0  0  0  0
  7  8  1  0  0  0  0
  8 19  1  0  0  0  0
  8  9  2  0  0  0  0
  9 20  1  0  0  0  0
 10 21  1  0  0  0  0
 10  9  1  0  0  0  0
 11  2  1  1  0  0  0
 11 15  1  0  0  0  0
 12 13  1  0  0  0  0
 12 11  1  0  0  0  0
 13 14  1  0  0  0  0
 14 15  2  0  0  0  0
 14 24  1  0  0  0  0
 15 25  1  0  0  0  0
 16  4  1  0  0  0  0
 17  5  1  0  0  0  0
 22 12  1  0  0  0  0
 23 13  1  0  0  0  0
M  END
