1,2,5
q = -1.0

 30 31  0  0  1  0  0  0  0  0999 V2000
   -1.4583   -2.3523    0.1320 N   0  0  0  0  0  0  0  0  0  0  0  0
   -2.8188   -0.7379   -1.6394 C   0  0  2  0  0  3  0  0  0  0  0  0
   -1.8280   -0.4829   -2.6487 C   0  0  0  0  0  3  0  0  0  0  0  0
   -1.5508   -1.1532   -3.4723 H   0  0  0  0  0  0  0  0  0  0  0  0
   -1.1933    0.7515   -2.3128 C   0  0  0  0  0  3  0  0  0  0  0  0
   -0.3779    1.2284   -2.8687 H   0  0  0  0  0  0  0  0  0  0  0  0
   -1.9682    1.4050   -1.2486 C   0  0  0  0  0  0  0  0  0  0  0  0
   -1.8331    2.6521   -0.6101 C   0  0  0  0  0  0  0  0  0  0  0  0
   -1.0510    3.3598   -0.9192 H   0  0  0  0  0  0  0  0  0  0  0  0
   -2.7300    2.9720    0.4213 C   0  0  0  0  0  0  0  0  0  0  0  0
   -2.6550    3.9518    0.9162 H   0  0  0  0  0  0  0  0  0  0  0  0
   -3.7377    2.0690    0.8257 C   0  0  0  0  0  0  0  0  0  0  0  0
   -4.4352    2.3590    1.6251 H   0  0  0  0  0  0  0  0  0  0  0  0
   -3.8769    0.8165    0.2073 C   0  0  0  0  0  0  0  0  0  0  0  0
   -4.6810    0.1308    0.5153 H   0  0  0  0  0  0  0  0  0  0  0  0
   -2.9962    0.4818   -0.8394 C   0  0  0  0  0  0  0  0  0  0  0  0
   -3.4633   -2.0693   -1.3528 C   0  0  0  0  0  0  0  0  0  0  0  0
   -3.9409   -2.4977   -2.2576 H   0  0  0  0  0  0  0  0  0  0  0  0
   -4.2652   -1.9561   -0.5976 H   0  0  0  0  0  0  0  0  0  0  0  0
   -2.3664   -3.0223   -0.8655 C   0  0  0  0  0  0  0  0  0  0  0  0
   -2.7803   -3.9572   -0.4221 H   0  0  0  0  0  0  0  0  0  0  0  0
   -1.7266   -3.3169   -1.7210 H   0  0  0  0  0  0  0  0  0  0  0  0
   -2.1676   -2.1229    1.4131 C   0  0  0  0  0  0  0  0  0  0  0  0
   -3.0122   -1.4272    1.2727 H   0  0  0  0  0  0  0  0  0  0  0  0
   -1.4700   -1.6718    2.1404 H   0  0  0  0  0  0  0  0  0  0  0  0
   -2.5463   -3.0867    1.8204 H   0  0  0  0  0  0  0  0  0  0  0  0
   -0.3035   -3.2410    0.3904 C   0  0  0  0  0  0  0  0  0  0  0  0
   -0.6492   -4.2110    0.8120 H   0  0  0  0  0  0  0  0  0  0  0  0
    0.3768   -2.7633    1.1185 H   0  0  0  0  0  0  0  0  0  0  0  0
    0.2478   -3.4334   -0.5464 H   0  0  0  0  0  0  0  0  0  0  0  0
  1 27  1  0  0  0  0
  1 23  1  0  0  0  0
  2 17  1  1  0  0  0
  2 16  1  0  0  0  0
  3  5  1  0  0  0  0
  3  2  1  0  0  0  0
  4  3  1  0  0  0  0
  5  7  1  0  0  0  0
  6  5  1  0  0  0  0
  7 16  2  0  0  0  0
  7  8  1  0  0  0  0
  8 10  2  0  0  0  0
  9  8  1  0  0  0  0
 10 12  1  0  0  0  0
 10 11  1  0  0  0  0
 12 13  1  0  0  0  0
 14 15  1  0  0  0  0
 14 12  2  0  0  0  0
 16 14  1  0  0  0  0
 17 20  1  0  0  0  0
 17 19  1  0  0  0  0
 18 17  1  0  0  0  0
 20 21  1  0  0  0  0
 20  1  1  0  0  0  0
 22 20  1  0  0  0  0
 23 26  1  0  0  0  0
 23 25  1  0  0  0  0
 24 23  1  0  0  0  0
 27 28  1  0  0  0  0
 27 29  1  0  0  0  0
 30 27  1  0  0  0  0
M  END
