3,6,23
q = 0.0, confidence = 1.0

 57 61  0  0  1  0  0  0  0  0999 V2000
   -3.2270    0.3561   -0.0771 N   0  0  0  0  0  0  0  0  0  0  0  0
   -2.2601    2.2996   -0.0326 N   0  0  0  0  0  0  0  0  0  0  0  0
   -0.0000    2.5375   -0.0000 N   0  0  0  0  0  2  0  0  0  0  0  0
    2.2601    2.2996    0.0326 N   0  0  0  0  0  0  0  0  0  0  0  0
    3.2270    0.3561    0.0770 N   0  0  0  0  0  0  0  0  0  0  0  0
   -2.0023    0.9227   -0.0482 C   0  0  0  0  0  2  0  0  0  0  0  0
   -4.2320    1.3256   -0.0685 C   0  0  0  0  0  0  0  0  0  0  0  0
   -5.2937    1.0646   -0.0844 H   0  0  0  0  0  0  0  0  0  0  0  0
   -3.6292    2.5530   -0.0439 C   0  0  0  0  0  0  0  0  0  0  0  0
   -4.0573    3.5590   -0.0362 H   0  0  0  0  0  0  0  0  0  0  0  0
   -1.1808    3.1919   -0.0157 C   0  0  1  0  0  3  0  0  0  0  0  0
   -1.2264    4.5912   -0.0158 C   0  0  0  0  0  0  0  0  0  0  0  0
   -2.1809    5.1323   -0.0289 H   0  0  0  0  0  0  0  0  0  0  0  0
   -0.0000    5.2780    0.0001 C   0  0  0  0  0  0  0  0  0  0  0  0
   -0.0000    6.3775    0.0001 H   0  0  0  0  0  0  0  0  0  0  0  0
    1.2263    4.5912    0.0159 C   0  0  0  0  0  0  0  0  0  0  0  0
    2.1808    5.1323    0.0291 H   0  0  0  0  0  0  0  0  0  0  0  0
    1.1807    3.1919    0.0157 C   0  0  0  0  0  0  0  0  0  0  0  0
    3.6292    2.5530    0.0440 C   0  0  0  0  0  0  0  0  0  0  0  0
    4.0573    3.5590    0.0362 H   0  0  0  0  0  0  0  0  0  0  0  0
    4.2320    1.3257    0.0685 C   0  0  0  0  0  0  0  0  0  0  0  0
    5.2937    1.0647    0.0845 H   0  0  0  0  0  0  0  0  0  0  0  0
    2.0023    0.9227    0.0481 C   0  0  0  0  0  2  0  0  0  0  0  0
   -3.4719   -1.1019   -0.0702 C   0  0  0  0  0  0  0  0  0  0  0  0
   -2.4792   -1.5484   -0.2813 H   0  0  0  0  0  0  0  0  0  0  0  0
   -3.9241   -1.5750    1.3185 C   0  0  0  0  0  0  0  0  0  0  0  0
   -4.8838   -1.0777    1.5863 H   0  0  0  0  0  0  0  0  0  0  0  0
   -3.1712   -1.2681    2.0735 H   0  0  0  0  0  0  0  0  0  0  0  0
   -4.1059   -3.0990    1.3188 C   0  0  0  0  0  0  0  0  0  0  0  0
   -3.1123   -3.5751    1.1669 H   0  0  0  0  0  0  0  0  0  0  0  0
   -4.4637   -3.4312    2.3143 H   0  0  0  0  0  0  0  0  0  0  0  0
   -5.0680   -3.5549    0.2144 C   0  0  0  0  0  0  0  0  0  0  0  0
   -6.0895   -3.1701    0.4330 H   0  0  0  0  0  0  0  0  0  0  0  0
   -5.1481   -4.6608    0.2079 H   0  0  0  0  0  0  0  0  0  0  0  0
   -4.6201   -3.0483   -1.1625 C   0  0  0  0  0  0  0  0  0  0  0  0
   -5.3447   -3.3469   -1.9468 H   0  0  0  0  0  0  0  0  0  0  0  0
   -3.6505   -3.5204   -1.4347 H   0  0  0  0  0  0  0  0  0  0  0  0
   -4.4507   -1.5216   -1.1730 C   0  0  0  0  0  0  0  0  0  0  0  0
   -4.0816   -1.1696   -2.1586 H   0  0  0  0  0  0  0  0  0  0  0  0
   -5.4432   -1.0463   -1.0049 H   0  0  0  0  0  0  0  0  0  0  0  0
    3.4719   -1.1018    0.0701 C   0  0  0  0  0  0  0  0  0  0  0  0
    2.4791   -1.5484    0.2812 H   0  0  0  0  0  0  0  0  0  0  0  0
    4.4506   -1.5217    1.1731 C   0  0  0  0  0  0  0  0  0  0  0  0
    4.0813   -1.1697    2.1587 H   0  0  0  0  0  0  0  0  0  0  0  0
    5.4431   -1.0463    1.0051 H   0  0  0  0  0  0  0  0  0  0  0  0
    4.6199   -3.0483    1.1625 C   0  0  0  0  0  0  0  0  0  0  0  0
    5.3445   -3.3469    1.9469 H   0  0  0  0  0  0  0  0  0  0  0  0
    3.6504   -3.5204    1.4346 H   0  0  0  0  0  0  0  0  0  0  0  0
    5.0680   -3.5548   -0.2144 C   0  0  0  0  0  0  0  0  0  0  0  0
    6.0896   -3.1701   -0.4328 H   0  0  0  0  0  0  0  0  0  0  0  0
    5.1481   -4.6608   -0.2079 H   0  0  0  0  0  0  0  0  0  0  0  0
    4.1061   -3.0990   -1.3188 C   0  0  0  0  0  0  0  0  0  0  0  0
    3.1125   -3.5751   -1.1671 H   0  0  0  0  0  0  0  0  0  0  0  0
    4.4641   -3.4311   -2.3143 H   0  0  0  0  0  0  0  0  0  0  0  0
    3.9243   -1.5750   -1.3185 C   0  0  0  0  0  0  0  0  0  0  0  0
    4.8840   -1.0776   -1.5862 H   0  0  0  0  0  0  0  0  0  0  0  0
    3.1714   -1.2680   -2.0736 H   0  0  0  0  0  0  0  0  0  0  0  0
  1 24  1  0  0  0  0
  1  7  1  0  0  0  0
  1  6  1  0  0  0  0
  3 18  1  0  0  0  0
  4 19  1  0  0  0  0
  4 23  1  0  0  0  0
  6  2  1  0  0  0  0
  7  9  2  0  0  0  0
  8  7  1  0  0  0  0
  9 10  1  0  0  0  0
  9  2  1  0  0  0  0
 11  2  1  6  0  0  0
 11  3  1  0  0  0  0
 12 11  1  0  0  0  0
 12 14  2  0  0  0  0
 13 12  1  0  0  0  0
 14 15  1  0  0  0  0
 14 16  1  0  0  0  0
 16 17  1  0  0  0  0
 18 16  2  0  0  0  0
 18  4  1  0  0  0  0
 19 21  2  0  0  0  0
 20 19  1  0  0  0  0
 21  5  1  0  0  0  0
 21 22  1  0  0  0  0
 23  5  1  0  0  0  0
 24 26  1  0  0  0  0
 25 24  1  0  0  0  0
 26 29  1  0  0  0  0
 26 27  1  0  0  0  0
 26 28  1  0  0  0  0
 29 31  1  0  0  0  0
 30 29  1  0  0  0  0
 32 33  1  0  0  0  0
 32 29  1  0  0  0  0
 34 32  1  0  0  0  0
 35 32  1  0  0  0  0
 36 35  1  0  0  0  0
 37 35  1  0  0  0  0
 38 35  1  0  0  0  0
 38 40  1  0  0  0  0
 38 24  1  0  0  0  0
 39 38  1  0  0  0  0
 41  5  1  0  0  0  0
 41 42  1  0  0  0  0
 41 43  1  0  0  0  0
 43 44  1  0  0  0  0
 45 43  1  0  0  0  0
 46 43  1  0  0  0  0
 46 48  1  0  0  0  0
 46 47  1  0  0  0  0
 49 51  1  0  0  0  0
 49 46  1  0  0  0  0
 50 49  1  0  0  0  0
 52 55  1  0  0  0  0
 52 53  1  0  0  0  0
 52 49  1  0  0  0  0
 54 52  1  0  0  0  0
 55 41  1  0  0  0  0
 56 55  1  0  0  0  0
 57 55  1  0  0  0  0
M  END
