1,13,19
q = -1.0, confidence = 0.014

 38 41  0  0  1  0  0  0  0  0999 V2000
   -0.4165   -1.1431   -0.0106 N   0  0  0  0  0  2  0  0  0  0  0  0
   -2.1493    0.9862   -1.0465 N   0  0  0  0  0  0  0  0  0  0  0  0
    0.3734   -2.2154    0.2739 C   0  0  0  0  0  0  0  0  0  0  0  0
   -0.1915   -3.4645    0.6526 C   0  0  0  0  0  0  0  0  0  0  0  0
   -1.5589   -3.6218    0.6679 C   0  0  0  0  0  0  0  0  0  0  0  0
   -2.4032   -2.5545    0.2495 C   0  0  0  0  0  0  0  0  0  0  0  0
   -3.8059   -2.7440    0.1189 C   0  0  0  0  0  0  0  0  0  0  0  0
   -4.6038   -1.7252   -0.3752 C   0  0  0  0  0  0  0  0  0  0  0  0
   -4.0174   -0.4894   -0.7198 C   0  0  0  0  0  0  0  0  0  0  0  0
   -2.6441   -0.2448   -0.5896 C   0  0  0  0  0  0  0  0  0  0  0  0
   -1.7850   -1.2941   -0.0915 C   0  0  2  0  0  3  0  0  0  0  0  0
    1.8081   -1.9937    0.1243 C   0  0  0  0  0  0  0  0  0  0  0  0
    2.2121   -0.6699   -0.2207 C   0  0  0  0  0  3  0  0  0  0  0  0
    3.5677   -0.4090   -0.4808 C   0  0  0  0  0  0  0  0  0  0  0  0
    4.5117   -1.4451   -0.3815 C   0  0  0  0  0  0  0  0  0  0  0  0
    4.1228   -2.7471   -0.0182 C   0  0  0  0  0  0  0  0  0  0  0  0
    2.7752   -3.0202    0.2322 C   0  0  0  0  0  0  0  0  0  0  0  0
   -1.5225    1.9550   -0.2488 C   0  0  2  0  0  3  0  0  0  0  0  0
   -1.2293    1.7288    1.1248 C   0  0  0  0  0  3  0  0  0  0  0  0
   -0.7012    2.7776    1.9088 C   0  0  0  0  0  0  0  0  0  0  0  0
   -0.4396    4.0282    1.3487 C   0  0  0  0  0  0  0  0  0  0  0  0
   -0.7106    4.2442   -0.0171 C   0  0  0  0  0  0  0  0  0  0  0  0
   -1.2444    3.2293   -0.8085 C   0  0  0  0  0  0  0  0  0  0  0  0
    0.4741   -4.2914    0.9311 H   0  0  0  0  0  0  0  0  0  0  0  0
   -2.0157   -4.5779    0.9655 H   0  0  0  0  0  0  0  0  0  0  0  0
   -4.2330   -3.7194    0.3958 H   0  0  0  0  0  0  0  0  0  0  0  0
   -5.6882   -1.8661   -0.4932 H   0  0  0  0  0  0  0  0  0  0  0  0
   -4.6497    0.3265   -1.1021 H   0  0  0  0  0  0  0  0  0  0  0  0
    3.8781    0.6116   -0.7406 H   0  0  0  0  0  0  0  0  0  0  0  0
    5.5721   -1.2275   -0.5860 H   0  0  0  0  0  0  0  0  0  0  0  0
    4.8714   -3.5491    0.0632 H   0  0  0  0  0  0  0  0  0  0  0  0
    2.4718   -4.0441    0.4986 H   0  0  0  0  0  0  0  0  0  0  0  0
   -2.6631    1.3746   -1.8386 H   0  0  0  0  0  0  0  0  0  0  0  0
   -1.5359    0.7897    1.6065 H   0  0  0  0  0  0  0  0  0  0  0  0
   -0.4951    2.5896    2.9728 H   0  0  0  0  0  0  0  0  0  0  0  0
   -0.0093    4.8330    1.9613 H   0  0  0  0  0  0  0  0  0  0  0  0
   -0.4882    5.2198   -0.4738 H   0  0  0  0  0  0  0  0  0  0  0  0
   -1.4456    3.4011   -1.8771 H   0  0  0  0  0  0  0  0  0  0  0  0
  1  3  1  0  0  0  0
  2 10  1  0  0  0  0
  3  4  2  0  0  0  0
  4  5  1  0  0  0  0
  4 24  1  0  0  0  0
  5 25  1  0  0  0  0
  6  5  2  0  0  0  0
  7  6  1  0  0  0  0
  7 26  1  0  0  0  0
  8  7  2  0  0  0  0
  9 10  2  0  0  0  0
  9  8  1  0  0  0  0
 11 10  1  6  0  0  0
 11  1  1  0  0  0  0
 11  6  1  0  0  0  0
 12 17  1  0  0  0  0
 12  3  1  0  0  0  0
 13 12  2  0  0  0  0
 14 15  2  0  0  0  0
 14 13  1  0  0  0  0
 15 16  1  0  0  0  0
 16 31  1  0  0  0  0
 16 17  2  0  0  0  0
 17 32  1  0  0  0  0
 18  2  1  1  0  0  0
 18 19  1  0  0  0  0
 19 34  1  0  0  0  0
 19 20  1  0  0  0  0
 20 35  1  0  0  0  0
 21 20  2  0  0  0  0
 21 36  1  0  0  0  0
 22 21  1  0  0  0  0
 23 18  1  0  0  0  0
 23 22  2  0  0  0  0
 27  8  1  0  0  0  0
 28  9  1  0  0  0  0
 29 14  1  0  0  0  0
 30 15  1  0  0  0  0
 33  2  1  0  0  0  0
 37 22  1  0  0  0  0
 38 23  1  0  0  0  0
M  END
