2,8,18
q = -2.0, confidence = 0.742

 64 69  0  0  0  0  0  0  0  0999 V2000
   -5.2019    2.5854    0.3136 S   0  0  0  0  0  0  0  0  0  0  0  0
   -1.5591    0.9626   -0.1034 N   0  0  0  0  0  2  0  0  0  0  0  0
    3.8738   -1.7734   -0.7016 N   0  0  0  0  0  0  0  0  0  0  0  0
   -6.2166    1.2003    0.5069 C   0  0  0  0  0  0  0  0  0  0  0  0
   -7.2970    1.3377    0.6445 H   0  0  0  0  0  0  0  0  0  0  0  0
   -5.4988    0.0120    0.4611 C   0  0  0  0  0  0  0  0  0  0  0  0
   -6.0140   -0.9553    0.5702 H   0  0  0  0  0  0  0  0  0  0  0  0
   -4.0886    0.1757    0.2661 C   0  0  0  0  0  3  0  0  0  0  0  0
   -3.7970    1.5516    0.1694 C   0  0  0  0  0  0  0  0  0  0  0  0
   -2.4364    2.0064   -0.0285 C   0  0  0  0  0  0  0  0  0  0  0  0
   -1.9512    3.3208   -0.1501 C   0  0  0  0  0  0  0  0  0  0  0  0
   -2.6581    4.1611   -0.1230 H   0  0  0  0  0  0  0  0  0  0  0  0
   -0.5704    3.5409   -0.3462 C   0  0  0  0  0  0  0  0  0  0  0  0
    0.2928    2.4256   -0.4158 C   0  0  0  0  0  0  0  0  0  0  0  0
    1.3739    2.5725   -0.5336 H   0  0  0  0  0  0  0  0  0  0  0  0
   -0.2206    1.1209   -0.2915 C   0  0  0  0  0  0  0  0  0  0  0  0
    0.5148   -0.1480   -0.3311 C   0  0  0  0  0  0  0  0  0  0  0  0
   -0.2830   -1.3430   -0.1705 C   0  0  0  0  0  3  0  0  0  0  0  0
    0.3712   -2.5845   -0.1928 C   0  0  0  0  0  0  0  0  0  0  0  0
   -0.2179   -3.5072   -0.0698 H   0  0  0  0  0  0  0  0  0  0  0  0
    1.7685   -2.6501   -0.3674 C   0  0  0  0  0  0  0  0  0  0  0  0
    2.7186   -3.7426   -0.4224 C   0  0  0  0  0  0  0  0  0  0  0  0
    2.5993   -5.1413   -0.3225 C   0  0  0  0  0  0  0  0  0  0  0  0
    1.6102   -5.6009   -0.1753 H   0  0  0  0  0  0  0  0  0  0  0  0
    3.7530   -5.9306   -0.4103 C   0  0  0  0  0  0  0  0  0  0  0  0
    3.6750   -7.0252   -0.3320 H   0  0  0  0  0  0  0  0  0  0  0  0
    5.0223   -5.3355   -0.5947 C   0  0  0  0  0  0  0  0  0  0  0  0
    5.9156   -5.9758   -0.6554 H   0  0  0  0  0  0  0  0  0  0  0  0
    5.1723   -3.9452   -0.6984 C   0  0  0  0  0  0  0  0  0  0  0  0
    6.1669   -3.4958   -0.8342 H   0  0  0  0  0  0  0  0  0  0  0  0
    4.0122   -3.1552   -0.6173 C   0  0  0  0  0  3  0  0  0  0  0  0
    2.5285   -1.4475   -0.5321 C   0  0  0  0  0  0  0  0  0  0  0  0
    1.9134   -0.1910   -0.5110 C   0  0  0  0  0  0  0  0  0  0  0  0
    2.5014    0.7316   -0.6253 H   0  0  0  0  0  0  0  0  0  0  0  0
    4.9564   -0.8182   -0.8082 C   0  0  0  0  0  0  0  0  0  0  0  0
    4.5971    0.0476   -1.4049 H   0  0  0  0  0  0  0  0  0  0  0  0
    5.7711   -1.2812   -1.4037 H   0  0  0  0  0  0  0  0  0  0  0  0
    5.4920   -0.3400    0.5475 C   0  0  0  0  0  0  0  0  0  0  0  0
    5.8498   -1.2212    1.1231 H   0  0  0  0  0  0  0  0  0  0  0  0
    4.6497    0.0875    1.1338 H   0  0  0  0  0  0  0  0  0  0  0  0
    6.6119    0.6934    0.4140 C   0  0  0  0  0  0  0  0  0  0  0  0
    6.2400    1.5563   -0.1822 H   0  0  0  0  0  0  0  0  0  0  0  0
    7.4504    0.2599   -0.1781 H   0  0  0  0  0  0  0  0  0  0  0  0
    7.1489    1.1843    1.7626 C   0  0  0  0  0  0  0  0  0  0  0  0
    7.4855    0.3042    2.3533 H   0  0  0  0  0  0  0  0  0  0  0  0
    6.3125    1.6339    2.3449 H   0  0  0  0  0  0  0  0  0  0  0  0
    8.3006    2.1950    1.6671 C   0  0  0  0  0  0  0  0  0  0  0  0
    8.6941    2.3812    2.6895 H   0  0  0  0  0  0  0  0  0  0  0  0
    9.1421    1.7351    1.1016 H   0  0  0  0  0  0  0  0  0  0  0  0
    7.9220    3.5320    1.0248 C   0  0  0  0  0  0  0  0  0  0  0  0
    8.7751    4.2401    1.0306 H   0  0  0  0  0  0  0  0  0  0  0  0
    7.0835    4.0154    1.5695 H   0  0  0  0  0  0  0  0  0  0  0  0
    7.6044    3.4127   -0.0314 H   0  0  0  0  0  0  0  0  0  0  0  0
   -0.0359    4.9193   -0.4762 C   0  0  0  0  0  0  0  0  0  0  0  0
    1.0577    5.1952   -1.3282 C   0  0  0  0  0  0  0  0  0  0  0  0
    1.4974    4.3812   -1.9239 H   0  0  0  0  0  0  0  0  0  0  0  0
    1.5614    6.4967   -1.4520 C   0  0  0  0  0  0  0  0  0  0  0  0
    2.4058    6.6922   -2.1302 H   0  0  0  0  0  0  0  0  0  0  0  0
    0.9860    7.5494   -0.7227 C   0  0  0  0  0  0  0  0  0  0  0  0
    1.3828    8.5714   -0.8185 H   0  0  0  0  0  0  0  0  0  0  0  0
   -0.0996    7.2900    0.1291 C   0  0  0  0  0  0  0  0  0  0  0  0
   -0.5517    8.1071    0.7114 H   0  0  0  0  0  0  0  0  0  0  0  0
   -0.6071    5.9895    0.2490 C   0  0  0  0  0  0  0  0  0  0  0  0
   -1.4418    5.7915    0.9379 H   0  0  0  0  0  0  0  0  0  0  0  0
  1  4  1  0  0  0  0
  2 10  1  0  0  0  0
  3 31  1  0  0  0  0
  3 32  1  0  0  0  0
  4  5  1  0  0  0  0
  6  4  2  0  0  0  0
  6  7  1  0  0  0  0
  8  6  1  0  0  0  0
  9  8  2  0  0  0  0
  9  1  1  0  0  0  0
 10  9  1  0  0  0  0
 11 12  1  0  0  0  0
 11 10  2  0  0  0  0
 13 11  1  0  0  0  0
 14 13  2  0  0  0  0
 14 16  1  0  0  0  0
 15 14  1  0  0  0  0
 16  2  1  0  0  0  0
 17 16  2  0  0  0  0
 17 18  1  0  0  0  0
 19 18  2  0  0  0  0
 19 20  1  0  0  0  0
 21 19  1  0  0  0  0
 22 21  2  0  0  0  0
 22 23  1  0  0  0  0
 23 24  1  0  0  0  0
 25 26  1  0  0  0  0
 25 23  2  0  0  0  0
 27 25  1  0  0  0  0
 28 27  1  0  0  0  0
 29 31  1  0  0  0  0
 29 27  2  0  0  0  0
 30 29  1  0  0  0  0
 31 22  1  0  0  0  0
 32 33  2  0  0  0  0
 32 21  1  0  0  0  0
 33 17  1  0  0  0  0
 34 33  1  0  0  0  0
 35  3  1  0  0  0  0
 35 38  1  0  0  0  0
 36 35  1  0  0  0  0
 37 35  1  0  0  0  0
 38 39  1  0  0  0  0
 38 40  1  0  0  0  0
 41 38  1  0  0  0  0
 41 44  1  0  0  0  0
 42 41  1  0  0  0  0
 43 41  1  0  0  0  0
 44 46  1  0  0  0  0
 44 45  1  0  0  0  0
 47 44  1  0  0  0  0
 47 48  1  0  0  0  0
 49 47  1  0  0  0  0
 50 51  1  0  0  0  0
 50 52  1  0  0  0  0
 50 47  1  0  0  0  0
 53 50  1  0  0  0  0
 54 13  1  0  0  0  0
 54 63  1  0  0  0  0
 55 54  2  0  0  0  0
 56 55  1  0  0  0  0
 57 55  1  0  0  0  0
 57 59  2  0  0  0  0
 58 57  1  0  0  0  0
 59 61  1  0  0  0  0
 60 59  1  0  0  0  0
 61 63  2  0  0  0  0
 61 62  1  0  0  0  0
 63 64  1  0  0  0  0
M  END
