3,6,25
q = 0.0, confidence = 0.996

 49 51  0  0  1  0  0  0  0  0999 V2000
    3.2501    0.0586   -0.0893 N   0  0  0  0  0  0  0  0  0  0  0  0
    2.3431    1.4416    1.2884 N   0  0  0  0  0  0  0  0  0  0  0  0
   -0.1965    2.3481    0.0144 N   0  0  0  0  0  2  0  0  0  0  0  0
   -2.4189    1.2910   -1.6845 N   0  0  0  0  0  0  0  0  0  0  0  0
   -2.9884   -0.6352   -0.9031 N   0  0  0  0  0  0  0  0  0  0  0  0
    2.0269    0.5128    0.3323 C   0  0  0  0  0  2  0  0  0  0  0  0
    4.2855    0.6898    0.5891 C   0  0  0  0  0  0  0  0  0  0  0  0
    5.3383    0.4646    0.3990 H   0  0  0  0  0  0  0  0  0  0  0  0
    3.7132    1.5762    1.4606 C   0  0  0  0  0  0  0  0  0  0  0  0
    4.1585    2.2713    2.1785 H   0  0  0  0  0  0  0  0  0  0  0  0
    1.3267    2.2127    1.9803 C   0  0  0  0  0  0  0  0  0  0  0  0
    1.8366    2.9189    2.6595 H   0  0  0  0  0  0  0  0  0  0  0  0
    0.7242    1.5331    2.6142 H   0  0  0  0  0  0  0  0  0  0  0  0
    0.4322    2.9960    1.0444 C   0  0  2  0  0  3  0  0  0  0  0  0
    0.2760    4.3702    1.2775 C   0  0  0  0  0  0  0  0  0  0  0  0
    0.8141    4.8341    2.1164 H   0  0  0  0  0  0  0  0  0  0  0  0
   -0.5507    5.1330    0.4486 C   0  0  0  0  0  0  0  0  0  0  0  0
   -0.6901    6.2103    0.6182 H   0  0  0  0  0  0  0  0  0  0  0  0
   -1.1820    4.4782   -0.6113 C   0  0  0  0  0  0  0  0  0  0  0  0
   -1.8338    5.0282   -1.3049 H   0  0  0  0  0  0  0  0  0  0  0  0
   -0.9810    3.1046   -0.8155 C   0  0  0  0  0  0  0  0  0  0  0  0
   -1.6096    2.4526   -2.0193 C   0  0  0  0  0  0  0  0  0  0  0  0
   -2.2508    3.1814   -2.5451 H   0  0  0  0  0  0  0  0  0  0  0  0
   -0.7917    2.1182   -2.6972 H   0  0  0  0  0  0  0  0  0  0  0  0
   -1.9181    0.2251   -0.9855 C   0  0  0  0  0  2  0  0  0  0  0  0
   -3.7480    1.1103   -2.0365 C   0  0  0  0  0  0  0  0  0  0  0  0
   -4.3149    1.8501   -2.6095 H   0  0  0  0  0  0  0  0  0  0  0  0
   -4.1085   -0.1142   -1.5439 C   0  0  0  0  0  0  0  0  0  0  0  0
   -5.0602   -0.6493   -1.6020 H   0  0  0  0  0  0  0  0  0  0  0  0
    3.4849   -0.9566   -1.1374 C   0  0  0  0  0  0  0  0  0  0  0  0
    2.4928   -1.0988   -1.5980 H   0  0  0  0  0  0  0  0  0  0  0  0
    3.9788   -2.2620   -0.5131 C   0  0  0  0  0  0  0  0  0  0  0  0
    4.9803   -2.1418   -0.0508 H   0  0  0  0  0  0  0  0  0  0  0  0
    4.0610   -3.0451   -1.2919 H   0  0  0  0  0  0  0  0  0  0  0  0
    3.2791   -2.6240    0.2657 H   0  0  0  0  0  0  0  0  0  0  0  0
    4.4083   -0.4094   -2.2253 C   0  0  0  0  0  0  0  0  0  0  0  0
    3.9887    0.5237   -2.6476 H   0  0  0  0  0  0  0  0  0  0  0  0
    4.4877   -1.1498   -3.0450 H   0  0  0  0  0  0  0  0  0  0  0  0
    5.4352   -0.2153   -1.8539 H   0  0  0  0  0  0  0  0  0  0  0  0
   -2.9834   -1.9551   -0.2481 C   0  0  0  0  0  0  0  0  0  0  0  0
   -1.9726   -2.0455    0.1764 H   0  0  0  0  0  0  0  0  0  0  0  0
   -3.9961   -2.0049    0.8979 C   0  0  0  0  0  0  0  0  0  0  0  0
   -3.8154   -1.1864    1.6224 H   0  0  0  0  0  0  0  0  0  0  0  0
   -3.9072   -2.9686    1.4365 H   0  0  0  0  0  0  0  0  0  0  0  0
   -5.0399   -1.9238    0.5323 H   0  0  0  0  0  0  0  0  0  0  0  0
   -3.1742   -3.0720   -1.2769 C   0  0  0  0  0  0  0  0  0  0  0  0
   -4.1818   -3.0383   -1.7387 H   0  0  0  0  0  0  0  0  0  0  0  0
   -3.0619   -4.0598   -0.7885 H   0  0  0  0  0  0  0  0  0  0  0  0
   -2.4192   -2.9956   -2.0835 H   0  0  0  0  0  0  0  0  0  0  0  0
  1  6  1  0  0  0  0
  1  7  1  0  0  0  0
  2  9  1  0  0  0  0
  2 11  1  0  0  0  0
  3 14  1  0  0  0  0
  4 25  1  0  0  0  0
  5 40  1  0  0  0  0
  6  2  1  0  0  0  0
  7  9  2  0  0  0  0
  8  7  1  0  0  0  0
  9 10  1  0  0  0  0
 11 13  1  0  0  0  0
 11 12  1  0  0  0  0
 14 15  1  0  0  0  0
 14 11  1  1  0  0  0
 15 16  1  0  0  0  0
 17 18  1  0  0  0  0
 17 15  2  0  0  0  0
 19 17  1  0  0  0  0
 20 19  1  0  0  0  0
 21 19  2  0  0  0  0
 21  3  1  0  0  0  0
 22  4  1  0  0  0  0
 22 21  1  0  0  0  0
 23 22  1  0  0  0  0
 24 22  1  0  0  0  0
 25  5  1  0  0  0  0
 26  4  1  0  0  0  0
 26 28  2  0  0  0  0
 27 26  1  0  0  0  0
 28  5  1  0  0  0  0
 29 28  1  0  0  0  0
 30 32  1  0  0  0  0
 30  1  1  0  0  0  0
 31 30  1  0  0  0  0
 32 33  1  0  0  0  0
 32 35  1  0  0  0  0
 34 32  1  0  0  0  0
 36 39  1  0  0  0  0
 36 30  1  0  0  0  0
 37 36  1  0  0  0  0
 38 36  1  0  0  0  0
 40 41  1  0  0  0  0
 40 42  1  0  0  0  0
 42 44  1  0  0  0  0
 42 43  1  0  0  0  0
 45 42  1  0  0  0  0
 46 48  1  0  0  0  0
 46 40  1  0  0  0  0
 47 46  1  0  0  0  0
 49 46  1  0  0  0  0
M  END
