3,46,70
q = -1.0, confidence = 0.13

 81 87  0  0  1  0  0  0  0  0999 V2000
    3.3208   -1.4296    2.2601 Cl  0  0  0  0  0  0  0  0  0  0  0  0
    3.6994   -2.2860   -3.0977 Cl  0  0  0  0  0  0  0  0  0  0  0  0
    1.3673   -1.0411   -0.7553 N   0  0  0  0  0  2  0  0  0  0  0  0
    4.4610   -2.0050   -1.5537 C   0  0  0  0  0  0  0  0  0  0  0  0
    5.8570   -1.8813   -1.4843 C   0  0  0  0  0  0  0  0  0  0  0  0
    6.4537   -1.9839   -2.4008 H   0  0  0  0  0  0  0  0  0  0  0  0
    6.4588   -1.6256   -0.2444 C   0  0  0  0  0  0  0  0  0  0  0  0
    7.5522   -1.5236   -0.1818 H   0  0  0  0  0  0  0  0  0  0  0  0
    5.6839   -1.4922    0.9153 C   0  0  0  0  0  0  0  0  0  0  0  0
    6.1422   -1.2757    1.8894 H   0  0  0  0  0  0  0  0  0  0  0  0
    4.2911   -1.6221    0.8232 C   0  0  0  0  0  0  0  0  0  0  0  0
    3.6471   -1.8808   -0.4069 C   0  0  0  0  0  0  0  0  0  0  0  0
    2.1633   -2.0074   -0.4624 C   0  0  0  0  0  3  0  0  0  0  0  0
    1.6806   -2.9782   -0.2264 H   0  0  0  0  0  0  0  0  0  0  0  0
    1.8794    0.2870   -1.0993 C   0  0  0  0  0  0  0  0  0  0  0  0
    1.1709    0.7346   -1.8249 H   0  0  0  0  0  0  0  0  0  0  0  0
    2.8524    0.1961   -1.6094 H   0  0  0  0  0  0  0  0  0  0  0  0
    1.9871    1.1369    0.1478 C   0  0  0  0  0  0  0  0  0  0  0  0
    3.2510    1.7518    0.4698 C   0  0  0  0  0  0  0  0  0  0  0  0
    4.4125    1.6499   -0.3588 C   0  0  0  0  0  0  0  0  0  0  0  0
    4.3709    1.0947   -1.3049 H   0  0  0  0  0  0  0  0  0  0  0  0
    5.6178    2.2353   -0.0003 C   0  0  0  0  0  0  0  0  0  0  0  0
    6.4891    2.1280   -0.6640 H   0  0  0  0  0  0  0  0  0  0  0  0
    5.7363    2.9670    1.2090 C   0  0  0  0  0  0  0  0  0  0  0  0
    6.6967    3.4289    1.4832 H   0  0  0  0  0  0  0  0  0  0  0  0
    4.6330    3.0967    2.0371 C   0  0  0  0  0  0  0  0  0  0  0  0
    4.7022    3.6622    2.9795 H   0  0  0  0  0  0  0  0  0  0  0  0
    3.3835    2.5034    1.6962 C   0  0  0  0  0  0  0  0  0  0  0  0
    2.2531    2.6247    2.5494 C   0  0  0  0  0  0  0  0  0  0  0  0
    2.3481    3.2001    3.4832 H   0  0  0  0  0  0  0  0  0  0  0  0
    1.0545    2.0263    2.2217 C   0  0  0  0  0  0  0  0  0  0  0  0
    0.1950    2.1282    2.8984 H   0  0  0  0  0  0  0  0  0  0  0  0
    0.8862    1.2743    1.0147 C   0  0  0  0  0  0  0  0  0  0  0  0
   -0.5050    0.7186    0.8029 C   0  0  1  0  0  3  0  0  0  0  0  0
   -1.1452    0.2450    2.0841 C   0  0  0  0  0  0  0  0  0  0  0  0
   -0.5622   -0.8166    2.8099 C   0  0  0  0  0  0  0  0  0  0  0  0
    0.3241   -1.3224    2.3983 H   0  0  0  0  0  0  0  0  0  0  0  0
   -1.1117   -1.2393    4.0269 C   0  0  0  0  0  0  0  0  0  0  0  0
   -0.6538   -2.0819    4.5667 H   0  0  0  0  0  0  0  0  0  0  0  0
   -2.2450   -0.5970    4.5524 C   0  0  0  0  0  0  0  0  0  0  0  0
   -2.6789   -0.9306    5.5071 H   0  0  0  0  0  0  0  0  0  0  0  0
   -2.8176    0.4760    3.8515 C   0  0  0  0  0  0  0  0  0  0  0  0
   -3.6989    0.9956    4.2578 H   0  0  0  0  0  0  0  0  0  0  0  0
   -2.2718    0.8960    2.6290 C   0  0  0  0  0  0  0  0  0  0  0  0
   -2.7281    1.7380    2.0897 H   0  0  0  0  0  0  0  0  0  0  0  0
   -1.3047    1.0670   -0.3394 C   0  0  2  0  0  3  0  0  0  0  0  0
   -0.8579    2.0031   -1.4104 C   0  0  0  0  0  0  0  0  0  0  0  0
   -0.1760    3.2060   -1.1224 C   0  0  0  0  0  0  0  0  0  0  0  0
    0.0488    3.4690   -0.0793 H   0  0  0  0  0  0  0  0  0  0  0  0
    0.2036    4.0734   -2.1562 C   0  0  0  0  0  0  0  0  0  0  0  0
    0.7317    5.0083   -1.9143 H   0  0  0  0  0  0  0  0  0  0  0  0
   -0.0913    3.7564   -3.4919 C   0  0  0  0  0  0  0  0  0  0  0  0
    0.2122    4.4373   -4.3016 H   0  0  0  0  0  0  0  0  0  0  0  0
   -0.7861    2.5718   -3.7882 C   0  0  0  0  0  0  0  0  0  0  0  0
   -1.0305    2.3200   -4.8312 H   0  0  0  0  0  0  0  0  0  0  0  0
   -1.1729    1.7072   -2.7565 C   0  0  0  0  0  0  0  0  0  0  0  0
   -1.7135    0.7747   -2.9801 H   0  0  0  0  0  0  0  0  0  0  0  0
   -2.7396    0.5883   -0.3865 C   0  0  0  0  0  0  0  0  0  0  0  0
   -3.8750    1.5177   -0.5074 C   0  0  0  0  0  0  0  0  0  0  0  0
   -3.7221    2.8839   -0.1671 C   0  0  0  0  0  0  0  0  0  0  0  0
   -2.7435    3.2506    0.1772 H   0  0  0  0  0  0  0  0  0  0  0  0
   -4.7968    3.7782   -0.2646 C   0  0  0  0  0  0  0  0  0  0  0  0
   -4.6522    4.8349    0.0078 H   0  0  0  0  0  0  0  0  0  0  0  0
   -6.0499    3.3298   -0.7094 C   0  0  0  0  0  0  0  0  0  0  0  0
   -6.8947    4.0308   -0.7880 H   0  0  0  0  0  0  0  0  0  0  0  0
   -6.2140    1.9786   -1.0617 C   0  0  0  0  0  0  0  0  0  0  0  0
   -7.1901    1.6185   -1.4216 H   0  0  0  0  0  0  0  0  0  0  0  0
   -5.1428    1.0835   -0.9666 C   0  0  0  0  0  0  0  0  0  0  0  0
   -5.2786    0.0324   -1.2565 H   0  0  0  0  0  0  0  0  0  0  0  0
   -2.7062   -0.7750   -0.3327 C   0  0  0  0  0  3  0  0  0  0  0  0
   -3.7745   -1.7527   -0.1500 C   0  0  0  0  0  0  0  0  0  0  0  0
   -4.0600   -2.7640   -1.0972 C   0  0  0  0  0  0  0  0  0  0  0  0
   -3.4302   -2.8483   -1.9928 H   0  0  0  0  0  0  0  0  0  0  0  0
   -5.1236   -3.6502   -0.8847 C   0  0  0  0  0  0  0  0  0  0  0  0
   -5.3403   -4.4263   -1.6347 H   0  0  0  0  0  0  0  0  0  0  0  0
   -5.9027   -3.5636    0.2814 C   0  0  0  0  0  0  0  0  0  0  0  0
   -6.7314   -4.2689    0.4470 H   0  0  0  0  0  0  0  0  0  0  0  0
   -5.6108   -2.5787    1.2396 C   0  0  0  0  0  0  0  0  0  0  0  0
   -6.2080   -2.5103    2.1620 H   0  0  0  0  0  0  0  0  0  0  0  0
   -4.5593   -1.6786    1.0282 C   0  0  0  0  0  0  0  0  0  0  0  0
   -4.3239   -0.9071    1.7759 H   0  0  0  0  0  0  0  0  0  0  0  0
  2  4  1  0  0  0  0
  3 13  1  0  0  0  0
  4  5  2  0  0  0  0
  4 12  1  0  0  0  0
  5  7  1  0  0  0  0
  6  5  1  0  0  0  0
  7  8  1  0  0  0  0
  7  9  2  0  0  0  0
  9 10  1  0  0  0  0
 11  9  1  0  0  0  0
 11  1  1  0  0  0  0
 12 11  2  0  0  0  0
 13 12  1  0  0  0  0
 13 14  1  0  0  0  0
 15  3  1  0  0  0  0
 15 18  1  0  0  0  0
 16 15  1  0  0  0  0
 17 15  1  0  0  0  0
 18 19  2  0  0  0  0
 18 33  1  0  0  0  0
 19 28  1  0  0  0  0
 20 22  2  0  0  0  0
 20 19  1  0  0  0  0
 21 20  1  0  0  0  0
 22 24  1  0  0  0  0
 23 22  1  0  0  0  0
 24 25  1  0  0  0  0
 24 26  2  0  0  0  0
 26 27  1  0  0  0  0
 28 26  1  0  0  0  0
 28 29  2  0  0  0  0
 29 30  1  0  0  0  0
 31 29  1  0  0  0  0
 31 32  1  0  0  0  0
 33 31  2  0  0  0  0
 34 46  1  1  0  0  0
 34 33  1  0  0  0  0
 34 35  1  0  0  0  0
 35 44  2  0  0  0  0
 35 36  1  0  0  0  0
 36 38  2  0  0  0  0
 37 36  1  0  0  0  0
 38 40  1  0  0  0  0
 38 39  1  0  0  0  0
 40 41  1  0  0  0  0
 42 43  1  0  0  0  0
 42 40  2  0  0  0  0
 44 42  1  0  0  0  0
 45 44  1  0  0  0  0
 46 58  1  1  0  0  0
 47 48  1  0  0  0  0
 47 46  1  0  0  0  0
 48 49  1  0  0  0  0
 50 51  1  0  0  0  0
 50 48  2  0  0  0  0
 52 50  1  0  0  0  0
 53 52  1  0  0  0  0
 54 52  2  0  0  0  0
 54 56  1  0  0  0  0
 55 54  1  0  0  0  0
 56 47  2  0  0  0  0
 57 56  1  0  0  0  0
 58 70  2  0  0  0  0
 59 58  1  0  0  0  0
 59 60  1  0  0  0  0
 60 61  1  0  0  0  0
 62 60  2  0  0  0  0
 62 63  1  0  0  0  0
 64 62  1  0  0  0  0
 65 64  1  0  0  0  0
 66 68  1  0  0  0  0
 66 64  2  0  0  0  0
 67 66  1  0  0  0  0
 68 59  2  0  0  0  0
 69 68  1  0  0  0  0
 70 71  1  0  0  0  0
 71 80  1  0  0  0  0
 72 74  1  0  0  0  0
 72 71  2  0  0  0  0
 73 72  1  0  0  0  0
 74 76  2  0  0  0  0
 75 74  1  0  0  0  0
 76 77  1  0  0  0  0
 76 78  1  0  0  0  0
 78 79  1  0  0  0  0
 80 78  2  0  0  0  0
 80 81  1  0  0  0  0
M  END
