2,6,14
q = 0.0, confidence = 0.988

 65 71  0  0  1  0  0  0  0  0999 V2000
   -1.4164    2.0420    1.1390 N   0  0  0  0  0  0  0  0  0  0  0  0
   -0.0305   -0.4280    1.6984 N   0  0  0  0  0  2  0  0  0  0  0  0
   -2.5124    1.4318   -0.5905 N   0  0  0  0  0  0  0  0  0  0  0  0
    2.7554   -1.1440   -0.8803 N   0  0  0  0  0  0  0  0  0  0  0  0
    1.4392   -2.4341    0.2010 N   0  0  0  0  0  0  0  0  0  0  0  0
   -1.3505    1.2146    0.0583 C   0  0  0  0  0  2  0  0  0  0  0  0
   -4.6384    2.4717   -0.6382 C   0  0  0  0  0  0  0  0  0  0  0  0
   -4.9103    3.5228   -0.8573 H   0  0  0  0  0  0  0  0  0  0  0  0
   -5.4546    2.0585   -0.0087 H   0  0  0  0  0  0  0  0  0  0  0  0
   -2.6221    2.7515    1.1800 C   0  0  0  0  0  0  0  0  0  0  0  0
   -2.8587    3.4696    1.9702 H   0  0  0  0  0  0  0  0  0  0  0  0
    3.4484   -2.3357   -0.7122 C   0  0  0  0  0  0  0  0  0  0  0  0
   -3.3215    2.3487    0.0641 C   0  0  0  0  0  0  0  0  0  0  0  0
    1.5236   -1.1835   -0.3339 C   0  0  0  0  0  2  0  0  0  0  0  0
   -3.1586    0.7488   -1.7288 C   0  0  1  0  0  0  0  0  0  0  0  0
   -2.4650    0.8064   -2.5885 H   0  0  0  0  0  0  0  0  0  0  0  0
    3.5396   -0.0686   -1.5108 C   0  0  1  0  0  0  0  0  0  0  0  0
    3.1834    0.0443   -2.5551 H   0  0  0  0  0  0  0  0  0  0  0  0
   -3.3773   -0.7137   -1.3708 C   0  0  0  0  0  0  0  0  0  0  0  0
   -2.4874   -1.6867   -1.8670 C   0  0  0  0  0  0  0  0  0  0  0  0
   -1.6785   -1.3796   -2.5469 H   0  0  0  0  0  0  0  0  0  0  0  0
   -0.2989    0.2327    4.0018 C   0  0  0  0  0  0  0  0  0  0  0  0
   -0.4482    1.0422    4.7305 H   0  0  0  0  0  0  0  0  0  0  0  0
   -0.3637    1.9702    2.1465 C   0  0  0  0  0  0  0  0  0  0  0  0
   -0.6176    2.6397    2.9876 H   0  0  0  0  0  0  0  0  0  0  0  0
    0.5958    2.3183    1.7032 H   0  0  0  0  0  0  0  0  0  0  0  0
    3.4564    1.2983    0.6262 C   0  0  0  0  0  0  0  0  0  0  0  0
    3.6708    0.3797    1.1956 H   0  0  0  0  0  0  0  0  0  0  0  0
    3.3570    1.2469   -0.7790 C   0  0  0  0  0  0  0  0  0  0  0  0
    4.7977   -2.2203   -1.3517 C   0  0  0  0  0  0  0  0  0  0  0  0
    4.7871   -2.6938   -2.3572 H   0  0  0  0  0  0  0  0  0  0  0  0
    5.6033   -2.7072   -0.7700 H   0  0  0  0  0  0  0  0  0  0  0  0
    3.2797    2.5105    1.3088 C   0  0  0  0  0  0  0  0  0  0  0  0
    3.3740    2.5400    2.4055 H   0  0  0  0  0  0  0  0  0  0  0  0
    3.0762    2.4270   -1.4879 C   0  0  0  0  0  0  0  0  0  0  0  0
    2.9689    2.3893   -2.5820 H   0  0  0  0  0  0  0  0  0  0  0  0
   -4.3949   -1.1080   -0.4797 C   0  0  0  0  0  0  0  0  0  0  0  0
   -5.1009   -0.3635   -0.0801 H   0  0  0  0  0  0  0  0  0  0  0  0
   -4.5216   -2.4494   -0.0895 C   0  0  0  0  0  0  0  0  0  0  0  0
   -5.3255   -2.7447    0.6015 H   0  0  0  0  0  0  0  0  0  0  0  0
   -4.4192    1.6394   -1.9401 C   0  0  0  0  0  0  0  0  0  0  0  0
   -5.3026    1.0293   -2.2033 H   0  0  0  0  0  0  0  0  0  0  0  0
   -4.2318    2.3234   -2.7896 H   0  0  0  0  0  0  0  0  0  0  0  0
   -0.2186    0.5435    2.6385 C   0  0  2  0  0  3  0  0  0  0  0  0
   -2.6180   -3.0312   -1.4810 C   0  0  0  0  0  0  0  0  0  0  0  0
   -1.9308   -3.7854   -1.8952 H   0  0  0  0  0  0  0  0  0  0  0  0
    0.0662   -1.7313    2.0937 C   0  0  0  0  0  0  0  0  0  0  0  0
   -3.6322   -3.4154   -0.5888 C   0  0  0  0  0  0  0  0  0  0  0  0
   -3.7416   -4.4700   -0.2936 H   0  0  0  0  0  0  0  0  0  0  0  0
    2.9010    3.6417   -0.8073 C   0  0  0  0  0  0  0  0  0  0  0  0
    2.6804    4.5578   -1.3751 H   0  0  0  0  0  0  0  0  0  0  0  0
    4.9740   -0.6784   -1.4511 C   0  0  0  0  0  0  0  0  0  0  0  0
    5.5831   -0.3682   -2.3197 H   0  0  0  0  0  0  0  0  0  0  0  0
    5.4799   -0.3026   -0.5395 H   0  0  0  0  0  0  0  0  0  0  0  0
   -0.0162   -2.0907    3.4449 C   0  0  0  0  0  0  0  0  0  0  0  0
    0.0648   -3.1503    3.7260 H   0  0  0  0  0  0  0  0  0  0  0  0
    0.2768   -2.7757    1.0155 C   0  0  0  0  0  0  0  0  0  0  0  0
    0.4333   -3.7687    1.4733 H   0  0  0  0  0  0  0  0  0  0  0  0
   -0.6253   -2.8330    0.3656 H   0  0  0  0  0  0  0  0  0  0  0  0
   -0.1966   -1.1002    4.4180 C   0  0  0  0  0  0  0  0  0  0  0  0
   -0.2600   -1.3635    5.4836 H   0  0  0  0  0  0  0  0  0  0  0  0
    2.6107   -3.1726   -0.0107 C   0  0  0  0  0  0  0  0  0  0  0  0
    2.7320   -4.2020    0.3383 H   0  0  0  0  0  0  0  0  0  0  0  0
    2.9997    3.6873    0.5917 C   0  0  0  0  0  0  0  0  0  0  0  0
    2.8681    4.6416    1.1240 H   0  0  0  0  0  0  0  0  0  0  0  0
  1 10  1  0  0  0  0
  1 24  1  0  0  0  0
  2 47  1  0  0  0  0
  2 44  1  0  0  0  0
  3  6  1  0  0  0  0
  3 13  1  0  0  0  0
  4 12  1  0  0  0  0
  4 14  1  0  0  0  0
  5 57  1  0  0  0  0
  6  1  1  0  0  0  0
  7  9  1  0  0  0  0
  7 13  1  0  0  0  0
  8  7  1  0  0  0  0
 10 11  1  0  0  0  0
 12 62  2  0  0  0  0
 13 10  2  0  0  0  0
 14  5  1  0  0  0  0
 15 16  1  6  0  0  0
 15 19  1  0  0  0  0
 15  3  1  0  0  0  0
 17 18  1  6  0  0  0
 17 52  1  0  0  0  0
 17  4  1  0  0  0  0
 17 29  1  0  0  0  0
 19 37  1  0  0  0  0
 20 45  1  0  0  0  0
 20 19  2  0  0  0  0
 21 20  1  0  0  0  0
 22 60  2  0  0  0  0
 22 23  1  0  0  0  0
 24 25  1  0  0  0  0
 26 24  1  0  0  0  0
 27 28  1  0  0  0  0
 27 33  1  0  0  0  0
 29 27  2  0  0  0  0
 30 32  1  0  0  0  0
 30 12  1  0  0  0  0
 31 30  1  0  0  0  0
 33 34  1  0  0  0  0
 35 50  2  0  0  0  0
 35 29  1  0  0  0  0
 36 35  1  0  0  0  0
 37 39  2  0  0  0  0
 37 38  1  0  0  0  0
 39 40  1  0  0  0  0
 41 15  1  0  0  0  0
 41  7  1  0  0  0  0
 42 41  1  0  0  0  0
 43 41  1  0  0  0  0
 44 24  1  6  0  0  0
 44 22  1  0  0  0  0
 45 48  2  0  0  0  0
 46 45  1  0  0  0  0
 47 55  2  0  0  0  0
 48 49  1  0  0  0  0
 48 39  1  0  0  0  0
 50 64  1  0  0  0  0
 51 50  1  0  0  0  0
 52 30  1  0  0  0  0
 52 54  1  0  0  0  0
 53 52  1  0  0  0  0
 55 56  1  0  0  0  0
 55 60  1  0  0  0  0
 57 58  1  0  0  0  0
 57 47  1  0  0  0  0
 59 57  1  0  0  0  0
 60 61  1  0  0  0  0
 62  5  1  0  0  0  0
 62 63  1  0  0  0  0
 64 65  1  0  0  0  0
 64 33  2  0  0  0  0
M  END
