4,11,13
q = -1.0, confidence = 0.2

 71 77  0  0  1  0  0  0  0  0999 V2000
   -0.6027   -2.9690    3.8016 C   0  0  0  0  0  0  0  0  0  0  0  0
   -1.0792   -3.9158    4.1297 H   0  0  0  0  0  0  0  0  0  0  0  0
   -0.7247   -2.2511    4.6432 H   0  0  0  0  0  0  0  0  0  0  0  0
   -1.2423   -0.5240    0.8755 N   0  0  0  0  0  2  0  0  0  0  0  0
    3.4863   -2.9060   -2.6083 C   0  0  0  0  0  0  0  0  0  0  0  0
    3.6438   -3.5985   -3.4493 H   0  0  0  0  0  0  0  0  0  0  0  0
   -1.5612    0.4126   -1.8689 C   0  0  0  0  0  3  0  0  0  0  0  0
   -1.1540    0.4847   -2.8935 H   0  0  0  0  0  0  0  0  0  0  0  0
    1.5035    1.5448   -1.3383 C   0  0  0  0  0  3  0  0  0  0  0  0
    1.0804    2.3469   -1.9697 H   0  0  0  0  0  0  0  0  0  0  0  0
   -1.5082    1.6415   -1.1032 C   0  0  0  0  0  3  0  0  0  0  0  0
   -1.0649    2.5049   -1.6300 H   0  0  0  0  0  0  0  0  0  0  0  0
    1.4509    0.2212   -1.9437 C   0  0  0  0  0  3  0  0  0  0  0  0
    1.0101    0.1889   -2.9558 H   0  0  0  0  0  0  0  0  0  0  0  0
   -4.0941   -2.2289   -2.8670 C   0  0  0  0  0  0  0  0  0  0  0  0
   -4.4267   -2.7223   -3.7930 H   0  0  0  0  0  0  0  0  0  0  0  0
   -2.4906    2.0521   -0.0717 C   0  0  0  0  0  0  0  0  0  0  0  0
   -2.8516    3.4134    0.0181 C   0  0  0  0  0  0  0  0  0  0  0  0
   -2.3830    4.1315   -0.6734 H   0  0  0  0  0  0  0  0  0  0  0  0
   -4.0489    1.5838    1.7485 C   0  0  0  0  0  0  0  0  0  0  0  0
   -4.5132    0.8575    2.4352 H   0  0  0  0  0  0  0  0  0  0  0  0
   -0.6587   -1.1166    2.0711 C   0  0  1  0  0  0  0  0  0  0  0  0
   -0.6813   -0.3956    2.9381 H   0  0  0  0  0  0  0  0  0  0  0  0
    4.0395    3.9171    0.1883 C   0  0  0  0  0  0  0  0  0  0  0  0
    4.3272    4.9733    0.0722 H   0  0  0  0  0  0  0  0  0  0  0  0
   -1.3225   -2.4172    2.5640 C   0  0  0  0  0  0  0  0  0  0  0  0
   -2.3899   -2.2368    2.8027 H   0  0  0  0  0  0  0  0  0  0  0  0
   -1.3050   -3.1555    1.7326 H   0  0  0  0  0  0  0  0  0  0  0  0
    2.8374   -0.2081    0.7167 C   0  0  0  0  0  0  0  0  0  0  0  0
    3.4450   -0.5979    1.5594 H   0  0  0  0  0  0  0  0  0  0  0  0
    0.8265   -1.4147    1.7680 C   0  0  2  0  0  0  0  0  0  0  0  0
    0.8532   -2.1989    0.9811 H   0  0  0  0  0  0  0  0  0  0  0  0
    4.1426   -3.1180   -1.3859 C   0  0  0  0  0  0  0  0  0  0  0  0
    4.8181   -3.9759   -1.2524 H   0  0  0  0  0  0  0  0  0  0  0  0
    1.5708   -1.9203    3.0069 C   0  0  0  0  0  0  0  0  0  0  0  0
    1.5730   -1.1275    3.7885 H   0  0  0  0  0  0  0  0  0  0  0  0
    2.6304   -2.1372    2.7617 H   0  0  0  0  0  0  0  0  0  0  0  0
    2.9971    3.3919   -0.5836 C   0  0  0  0  0  0  0  0  0  0  0  0
    2.4759    4.0356   -1.3095 H   0  0  0  0  0  0  0  0  0  0  0  0
    3.2711    1.2248    0.4763 C   0  0  0  0  0  0  0  0  0  0  0  0
   -2.6197   -0.6160   -1.7477 C   0  0  0  0  0  0  0  0  0  0  0  0
    3.0530   -1.1249   -0.4690 C   0  0  0  0  0  0  0  0  0  0  0  0
   -4.4005    2.9413    1.8237 C   0  0  0  0  0  0  0  0  0  0  0  0
   -5.1355    3.2805    2.5694 H   0  0  0  0  0  0  0  0  0  0  0  0
   -2.6874   -0.3396    0.7816 C   0  0  0  0  0  0  0  0  0  0  0  0
   -3.1969   -0.8433    1.6279 H   0  0  0  0  0  0  0  0  0  0  0  0
   -4.2435   -1.9193   -0.4683 C   0  0  0  0  0  0  0  0  0  0  0  0
   -4.6935   -2.1808    0.5031 H   0  0  0  0  0  0  0  0  0  0  0  0
   -4.6887   -2.5535   -1.6386 C   0  0  0  0  0  0  0  0  0  0  0  0
   -5.4886   -3.3077   -1.5878 H   0  0  0  0  0  0  0  0  0  0  0  0
    4.3230    1.7591    1.2412 C   0  0  0  0  0  0  0  0  0  0  0  0
    4.8347    1.1084    1.9689 H   0  0  0  0  0  0  0  0  0  0  0  0
    4.7181    3.0969    1.1034 C   0  0  0  0  0  0  0  0  0  0  0  0
    5.5406    3.4978    1.7141 H   0  0  0  0  0  0  0  0  0  0  0  0
   -3.0934    1.1302    0.8265 C   0  0  0  0  0  0  0  0  0  0  0  0
    2.6287   -1.8110   -2.7608 C   0  0  0  0  0  0  0  0  0  0  0  0
    2.1186   -1.6454   -3.7226 H   0  0  0  0  0  0  0  0  0  0  0  0
    2.3938   -0.8906   -1.7111 C   0  0  0  0  0  0  0  0  0  0  0  0
    1.3960   -0.1878    1.1355 N   0  0  0  0  0  0  0  0  0  0  0  0
    1.2954    0.5956    1.8026 H   0  0  0  0  0  0  0  0  0  0  0  0
   -3.0726   -1.2706   -2.9137 C   0  0  0  0  0  0  0  0  0  0  0  0
   -2.6132   -1.0062   -3.8794 H   0  0  0  0  0  0  0  0  0  0  0  0
    2.5929    2.0397   -0.4751 C   0  0  0  0  0  0  0  0  0  0  0  0
    3.9172   -2.2244   -0.3290 C   0  0  0  0  0  0  0  0  0  0  0  0
    4.4202   -2.3835    0.6389 H   0  0  0  0  0  0  0  0  0  0  0  0
   -3.2110   -0.9693   -0.5040 C   0  0  0  0  0  0  0  0  0  0  0  0
    0.8919   -3.1900    3.5416 C   0  0  0  0  0  0  0  0  0  0  0  0
    1.0168   -4.0024    2.7920 H   0  0  0  0  0  0  0  0  0  0  0  0
    1.4032   -3.5347    4.4641 H   0  0  0  0  0  0  0  0  0  0  0  0
   -3.7947    3.8600    0.9543 C   0  0  0  0  0  0  0  0  0  0  0  0
   -4.0553    4.9281    1.0046 H   0  0  0  0  0  0  0  0  0  0  0  0
  1  2  1  0  0  0  0
  1  3  1  0  0  0  0
  4 22  1  0  0  0  0
  5 33  1  0  0  0  0
  6  5  1  0  0  0  0
  7 41  1  0  0  0  0
  7 11  1  0  0  0  0
  8  7  1  0  0  0  0
  9 63  1  0  0  0  0
 10  9  1  0  0  0  0
 11 17  1  0  0  0  0
 12 11  1  0  0  0  0
 13 58  1  0  0  0  0
 13  9  1  0  0  0  0
 14 13  1  0  0  0  0
 15 49  1  0  0  0  0
 16 15  1  0  0  0  0
 17 18  2  0  0  0  0
 17 55  1  0  0  0  0
 18 70  1  0  0  0  0
 19 18  1  0  0  0  0
 20 43  1  0  0  0  0
 20 21  1  0  0  0  0
 22 26  1  0  0  0  0
 22 23  1  1  0  0  0
 24 53  1  0  0  0  0
 25 24  1  0  0  0  0
 26 27  1  0  0  0  0
 26  1  1  0  0  0  0
 28 26  1  0  0  0  0
 29 59  1  0  0  0  0
 29 30  1  0  0  0  0
 31 32  1  6  0  0  0
 31 22  1  0  0  0  0
 31 35  1  0  0  0  0
 33 34  1  0  0  0  0
 33 64  2  0  0  0  0
 35 67  1  0  0  0  0
 35 36  1  0  0  0  0
 37 35  1  0  0  0  0
 38 63  1  0  0  0  0
 38 24  2  0  0  0  0
 39 38  1  0  0  0  0
 40 29  1  0  0  0  0
 40 51  1  0  0  0  0
 41 66  2  0  0  0  0
 42 64  1  0  0  0  0
 42 29  1  0  0  0  0
 43 44  1  0  0  0  0
 45 55  1  0  0  0  0
 45  4  1  0  0  0  0
 45 46  1  0  0  0  0
 47 48  1  0  0  0  0
 49 50  1  0  0  0  0
 49 47  2  0  0  0  0
 51 52  1  0  0  0  0
 53 51  2  0  0  0  0
 53 54  1  0  0  0  0
 55 20  2  0  0  0  0
 56  5  2  0  0  0  0
 56 58  1  0  0  0  0
 57 56  1  0  0  0  0
 58 42  2  0  0  0  0
 59 31  1  0  0  0  0
 59 60  1  0  0  0  0
 61 15  2  0  0  0  0
 61 41  1  0  0  0  0
 62 61  1  0  0  0  0
 63 40  2  0  0  0  0
 64 65  1  0  0  0  0
 66 47  1  0  0  0  0
 66 45  1  0  0  0  0
 67  1  1  0  0  0  0
 67 69  1  0  0  0  0
 68 67  1  0  0  0  0
 70 71  1  0  0  0  0
 70 43  2  0  0  0  0
M  END
