1,3,41
q = -2.0, confidence = 0.648

 55 60  0  0  0  0  0  0  0  0999 V2000
   -0.5038   -0.0539   -0.0131 N   0  0  0  0  0  2  0  0  0  0  0  0
   -8.9104   -0.6707   -0.1439 O   0  0  0  0  0  0  0  0  0  0  0  0
    1.3173   -2.0178    0.0398 C   0  0  0  0  0  3  0  0  0  0  0  0
    2.2788   -3.0119    0.0862 C   0  0  0  0  0  0  0  0  0  0  0  0
    3.3513   -2.7562    0.1124 H   0  0  0  0  0  0  0  0  0  0  0  0
    2.9122   -5.4296    0.1542 C   0  0  0  0  0  0  0  0  0  0  0  0
    3.9769   -5.1493    0.1767 H   0  0  0  0  0  0  0  0  0  0  0  0
    2.5374   -6.7668    0.1728 C   0  0  0  0  0  0  0  0  0  0  0  0
    3.3063   -7.5530    0.2094 H   0  0  0  0  0  0  0  0  0  0  0  0
    1.1642   -7.1297    0.1459 C   0  0  0  0  0  0  0  0  0  0  0  0
    0.8815   -8.1926    0.1614 H   0  0  0  0  0  0  0  0  0  0  0  0
    0.1832   -6.1499    0.1015 C   0  0  0  0  0  0  0  0  0  0  0  0
   -0.8822   -6.4271    0.0821 H   0  0  0  0  0  0  0  0  0  0  0  0
   -0.4456   -3.7400    0.0404 C   0  0  0  0  0  0  0  0  0  0  0  0
   -1.5062   -4.0365    0.0262 H   0  0  0  0  0  0  0  0  0  0  0  0
   -0.0843   -2.3950    0.0213 C   0  0  0  0  0  0  0  0  0  0  0  0
    1.9310   -4.4004    0.1075 C   0  0  0  0  0  0  0  0  0  0  0  0
    0.5358   -4.7686    0.0816 C   0  0  0  0  0  0  0  0  0  0  0  0
   -1.0671   -1.2969   -0.0105 C   0  0  0  0  0  0  0  0  0  0  0  0
   -2.4632   -1.3913   -0.0244 C   0  0  0  0  0  0  0  0  0  0  0  0
   -2.9336   -2.3817    0.0121 H   0  0  0  0  0  0  0  0  0  0  0  0
   -3.2669   -0.2229   -0.0417 C   0  0  0  0  0  0  0  0  0  0  0  0
   -4.7366   -0.3145   -0.0577 C   0  0  0  0  0  0  0  0  0  0  0  0
   -5.3977   -1.4408   -0.6148 C   0  0  0  0  0  0  0  0  0  0  0  0
   -4.8109   -2.2480   -1.0774 H   0  0  0  0  0  0  0  0  0  0  0  0
   -6.7848   -1.5296   -0.6355 C   0  0  0  0  0  0  0  0  0  0  0  0
   -7.2978   -2.3917   -1.0846 H   0  0  0  0  0  0  0  0  0  0  0  0
   -7.5761   -0.4930   -0.0834 C   0  0  0  0  0  0  0  0  0  0  0  0
   -9.7673    0.3356    0.3809 C   0  0  0  0  0  0  0  0  0  0  0  0
  -10.7996   -0.0210    0.2153 H   0  0  0  0  0  0  0  0  0  0  0  0
   -9.6273    1.3050   -0.1449 H   0  0  0  0  0  0  0  0  0  0  0  0
   -9.6033    0.4833    1.4705 H   0  0  0  0  0  0  0  0  0  0  0  0
   -6.9381    0.6346    0.4825 C   0  0  0  0  0  0  0  0  0  0  0  0
   -7.5229    1.4470    0.9329 H   0  0  0  0  0  0  0  0  0  0  0  0
   -5.5423    0.7136    0.4834 C   0  0  0  0  0  0  0  0  0  0  0  0
   -5.0698    1.5871    0.9567 H   0  0  0  0  0  0  0  0  0  0  0  0
   -2.6114    1.0349   -0.0443 C   0  0  0  0  0  0  0  0  0  0  0  0
   -3.1982    1.9606   -0.0940 H   0  0  0  0  0  0  0  0  0  0  0  0
   -1.2143    1.1113   -0.0294 C   0  0  0  0  0  0  0  0  0  0  0  0
   -0.3719    2.3210   -0.0451 C   0  0  0  0  0  0  0  0  0  0  0  0
    1.0653    2.1170   -0.0383 C   0  0  0  0  0  2  0  0  0  0  0  0
    1.8993    3.2208   -0.0691 C   0  0  0  0  0  0  0  0  0  0  0  0
    2.9952    3.0977   -0.0759 H   0  0  0  0  0  0  0  0  0  0  0  0
    2.2350    5.6977   -0.1300 C   0  0  0  0  0  0  0  0  0  0  0  0
    3.3261    5.5490   -0.1328 H   0  0  0  0  0  0  0  0  0  0  0  0
    1.7007    6.9794   -0.1579 C   0  0  0  0  0  0  0  0  0  0  0  0
    2.3688    7.8533   -0.1823 H   0  0  0  0  0  0  0  0  0  0  0  0
    0.2934    7.1725   -0.1565 C   0  0  0  0  0  0  0  0  0  0  0  0
   -0.1162    8.1932   -0.1793 H   0  0  0  0  0  0  0  0  0  0  0  0
   -0.5618    6.0806   -0.1278 C   0  0  0  0  0  0  0  0  0  0  0  0
   -1.6532    6.2261   -0.1281 H   0  0  0  0  0  0  0  0  0  0  0  0
   -0.8938    3.6119   -0.0731 C   0  0  0  0  0  0  0  0  0  0  0  0
   -1.9826    3.7771   -0.0783 H   0  0  0  0  0  0  0  0  0  0  0  0
   -0.0442    4.7525   -0.0987 C   0  0  0  0  0  0  0  0  0  0  0  0
    1.3856    4.5567   -0.0989 C   0  0  0  0  0  0  0  0  0  0  0  0
  1 19  1  0  0  0  0
  2 28  1  0  0  0  0
  2 29  1  0  0  0  0
  3  4  1  0  0  0  0
  4 17  2  0  0  0  0
  4  5  1  0  0  0  0
  6  8  2  0  0  0  0
  6  7  1  0  0  0  0
  8  9  1  0  0  0  0
 10 11  1  0  0  0  0
 10  8  1  0  0  0  0
 12 10  2  0  0  0  0
 13 12  1  0  0  0  0
 14 18  2  0  0  0  0
 15 14  1  0  0  0  0
 16  3  2  0  0  0  0
 16 14  1  0  0  0  0
 17  6  1  0  0  0  0
 18 12  1  0  0  0  0
 18 17  1  0  0  0  0
 19 16  1  0  0  0  0
 20 19  2  0  0  0  0
 20 21  1  0  0  0  0
 22 20  1  0  0  0  0
 23 22  1  0  0  0  0
 23 35  1  0  0  0  0
 24 23  2  0  0  0  0
 25 24  1  0  0  0  0
 26 24  1  0  0  0  0
 26 28  2  0  0  0  0
 27 26  1  0  0  0  0
 28 33  1  0  0  0  0
 29 32  1  0  0  0  0
 30 29  1  0  0  0  0
 31 29  1  0  0  0  0
 33 35  2  0  0  0  0
 33 34  1  0  0  0  0
 35 36  1  0  0  0  0
 37 22  2  0  0  0  0
 37 39  1  0  0  0  0
 38 37  1  0  0  0  0
 39  1  1  0  0  0  0
 40 41  1  0  0  0  0
 40 39  2  0  0  0  0
 42 41  1  0  0  0  0
 43 42  1  0  0  0  0
 44 55  1  0  0  0  0
 45 44  1  0  0  0  0
 46 48  1  0  0  0  0
 46 44  2  0  0  0  0
 47 46  1  0  0  0  0
 48 50  2  0  0  0  0
 49 48  1  0  0  0  0
 50 54  1  0  0  0  0
 51 50  1  0  0  0  0
 52 40  1  0  0  0  0
 53 52  1  0  0  0  0
 54 52  2  0  0  0  0
 55 54  1  0  0  0  0
 55 42  2  0  0  0  0
M  END
