2,6,37
q = -1.0, confidence = 0.002

 69 74  0  0  0  0  0  0  0  0999 V2000
    2.9873    0.5389    0.7552 N   0  0  0  0  0  0  0  0  0  0  0  0
    2.0172   -0.1531    0.0863 C   0  0  0  0  0  2  0  0  0  0  0  0
   -2.8275   -2.8653    2.2972 C   0  0  0  0  0  0  0  0  0  0  0  0
   -3.7987   -2.4381    2.5902 H   0  0  0  0  0  0  0  0  0  0  0  0
   -0.7963   -2.7090    0.9067 C   0  0  0  0  0  0  0  0  0  0  0  0
   -0.0001   -2.0328    0.0000 N   0  0  0  0  0  2  0  0  0  0  0  0
    2.6917   -1.1780   -0.5381 N   0  0  0  0  0  0  0  0  0  0  0  0
    4.2408   -0.0178    0.5403 C   0  0  0  0  0  0  0  0  0  0  0  0
    5.1469    0.4092    0.9794 H   0  0  0  0  0  0  0  0  0  0  0  0
   -2.0918   -2.2401    1.2748 C   0  0  0  0  0  0  0  0  0  0  0  0
    3.6539    2.8491    1.3266 C   0  0  0  0  0  0  0  0  0  0  0  0
    3.3818    3.6198    0.1770 C   0  0  0  0  0  0  0  0  0  0  0  0
    2.4969    3.3711   -0.4309 H   0  0  0  0  0  0  0  0  0  0  0  0
    5.5896    4.2645    1.7932 C   0  0  0  0  0  0  0  0  0  0  0  0
    6.4501    4.5168    2.4317 H   0  0  0  0  0  0  0  0  0  0  0  0
   -2.3583   -4.0135    2.9528 C   0  0  0  0  0  0  0  0  0  0  0  0
    4.2109    4.6982   -0.1600 C   0  0  0  0  0  0  0  0  0  0  0  0
    3.9880    5.2981   -1.0557 H   0  0  0  0  0  0  0  0  0  0  0  0
   -0.3451   -3.8873    1.5646 C   0  0  0  0  0  0  0  0  0  0  0  0
    0.6453   -4.2797    1.2916 H   0  0  0  0  0  0  0  0  0  0  0  0
    4.0594   -1.1021   -0.2716 C   0  0  0  0  0  0  0  0  0  0  0  0
    4.7704   -1.8407   -0.6480 H   0  0  0  0  0  0  0  0  0  0  0  0
    2.7711    1.6705    1.6688 C   0  0  0  0  0  0  0  0  0  0  0  0
    2.9734    1.3195    2.7018 H   0  0  0  0  0  0  0  0  0  0  0  0
    1.7011    1.9424    1.5787 H   0  0  0  0  0  0  0  0  0  0  0  0
   -1.1036   -4.5226    2.5454 C   0  0  0  0  0  0  0  0  0  0  0  0
   -0.7000   -5.4231    3.0358 H   0  0  0  0  0  0  0  0  0  0  0  0
    4.7604    3.1822    2.1303 C   0  0  0  0  0  0  0  0  0  0  0  0
    4.9702    2.5899    3.0361 H   0  0  0  0  0  0  0  0  0  0  0  0
    5.3175    5.0219    0.6442 C   0  0  0  0  0  0  0  0  0  0  0  0
    5.9654    5.8708    0.3768 H   0  0  0  0  0  0  0  0  0  0  0  0
   -3.1440   -4.6677    4.0606 C   0  0  0  0  0  0  0  0  0  0  0  0
   -4.1450   -4.2086    4.1787 H   0  0  0  0  0  0  0  0  0  0  0  0
   -2.6210   -4.5812    5.0372 H   0  0  0  0  0  0  0  0  0  0  0  0
   -3.2889   -5.7521    3.8721 H   0  0  0  0  0  0  0  0  0  0  0  0
   -2.9873    0.5393   -0.7552 N   0  0  0  0  0  0  0  0  0  0  0  0
   -2.0172   -0.1528   -0.0864 C   0  0  0  0  0  2  0  0  0  0  0  0
    2.8271   -2.8657   -2.2972 C   0  0  0  0  0  0  0  0  0  0  0  0
    3.7984   -2.4387   -2.5902 H   0  0  0  0  0  0  0  0  0  0  0  0
    0.7959   -2.7091   -0.9067 C   0  0  0  0  0  0  0  0  0  0  0  0
   -2.6919   -1.1776    0.5381 N   0  0  0  0  0  0  0  0  0  0  0  0
   -4.2409   -0.0172   -0.5402 C   0  0  0  0  0  0  0  0  0  0  0  0
   -5.1469    0.4100   -0.9793 H   0  0  0  0  0  0  0  0  0  0  0  0
    2.0915   -2.2405   -1.2747 C   0  0  0  0  0  0  0  0  0  0  0  0
   -3.6535    2.8497   -1.3266 C   0  0  0  0  0  0  0  0  0  0  0  0
   -3.3811    3.6203   -0.1770 C   0  0  0  0  0  0  0  0  0  0  0  0
   -2.4963    3.3715    0.4308 H   0  0  0  0  0  0  0  0  0  0  0  0
   -5.5890    4.2653   -1.7931 C   0  0  0  0  0  0  0  0  0  0  0  0
   -6.4495    4.5178   -2.4315 H   0  0  0  0  0  0  0  0  0  0  0  0
    2.3577   -4.0138   -2.9528 C   0  0  0  0  0  0  0  0  0  0  0  0
   -4.2101    4.6988    0.1600 C   0  0  0  0  0  0  0  0  0  0  0  0
   -3.9869    5.2987    1.0557 H   0  0  0  0  0  0  0  0  0  0  0  0
    0.3444   -3.8873   -1.5646 C   0  0  0  0  0  0  0  0  0  0  0  0
   -0.6460   -4.2796   -1.2916 H   0  0  0  0  0  0  0  0  0  0  0  0
   -4.0595   -1.1015    0.2717 C   0  0  0  0  0  0  0  0  0  0  0  0
   -4.7706   -1.8400    0.6481 H   0  0  0  0  0  0  0  0  0  0  0  0
   -2.7709    1.6709   -1.6688 C   0  0  0  0  0  0  0  0  0  0  0  0
   -2.9734    1.3198   -2.7018 H   0  0  0  0  0  0  0  0  0  0  0  0
   -1.7008    1.9425   -1.5788 H   0  0  0  0  0  0  0  0  0  0  0  0
    1.1029   -4.5228   -2.5454 C   0  0  0  0  0  0  0  0  0  0  0  0
    0.6991   -5.4231   -3.0358 H   0  0  0  0  0  0  0  0  0  0  0  0
   -4.7600    3.1829   -2.1303 C   0  0  0  0  0  0  0  0  0  0  0  0
   -4.9700    2.5906   -3.0360 H   0  0  0  0  0  0  0  0  0  0  0  0
   -5.3166    5.0228   -0.6441 C   0  0  0  0  0  0  0  0  0  0  0  0
   -5.9644    5.8717   -0.3767 H   0  0  0  0  0  0  0  0  0  0  0  0
    3.1433   -4.6682   -4.0606 C   0  0  0  0  0  0  0  0  0  0  0  0
    4.1442   -4.2090   -4.1790 H   0  0  0  0  0  0  0  0  0  0  0  0
    2.6201   -4.5820   -5.0371 H   0  0  0  0  0  0  0  0  0  0  0  0
    3.2884   -5.7525   -3.8718 H   0  0  0  0  0  0  0  0  0  0  0  0
  1 23  1  0  0  0  0
  2  1  1  0  0  0  0
  3  4  1  0  0  0  0
  3 16  1  0  0  0  0
  5 10  1  0  0  0  0
  5 19  2  0  0  0  0
  6  5  1  0  0  0  0
  7 21  1  0  0  0  0
  7  2  1  0  0  0  0
  8  1  1  0  0  0  0
  8  9  1  0  0  0  0
 10  3  2  0  0  0  0
 11 23  1  0  0  0  0
 11 28  1  0  0  0  0
 12 11  2  0  0  0  0
 13 12  1  0  0  0  0
 14 28  2  0  0  0  0
 14 15  1  0  0  0  0
 16 32  1  0  0  0  0
 17 12  1  0  0  0  0
 17 30  2  0  0  0  0
 18 17  1  0  0  0  0
 19 26  1  0  0  0  0
 20 19  1  0  0  0  0
 21  8  2  0  0  0  0
 22 21  1  0  0  0  0
 23 24  1  0  0  0  0
 25 23  1  0  0  0  0
 26 16  2  0  0  0  0
 26 27  1  0  0  0  0
 28 29  1  0  0  0  0
 30 14  1  0  0  0  0
 31 30  1  0  0  0  0
 32 33  1  0  0  0  0
 32 34  1  0  0  0  0
 35 32  1  0  0  0  0
 36 42  1  0  0  0  0
 36 37  1  0  0  0  0
 37 41  1  0  0  0  0
 38 44  1  0  0  0  0
 39 38  1  0  0  0  0
 40  6  1  0  0  0  0
 41 10  1  0  0  0  0
 42 55  2  0  0  0  0
 43 42  1  0  0  0  0
 44 40  2  0  0  0  0
 44  7  1  0  0  0  0
 45 46  1  0  0  0  0
 46 51  2  0  0  0  0
 46 47  1  0  0  0  0
 48 64  2  0  0  0  0
 49 48  1  0  0  0  0
 50 60  1  0  0  0  0
 50 38  2  0  0  0  0
 51 52  1  0  0  0  0
 53 54  1  0  0  0  0
 53 40  1  0  0  0  0
 55 41  1  0  0  0  0
 55 56  1  0  0  0  0
 57 59  1  0  0  0  0
 57 45  1  0  0  0  0
 57 36  1  0  0  0  0
 58 57  1  0  0  0  0
 60 53  2  0  0  0  0
 61 60  1  0  0  0  0
 62 48  1  0  0  0  0
 62 45  2  0  0  0  0
 63 62  1  0  0  0  0
 64 65  1  0  0  0  0
 64 51  1  0  0  0  0
 66 69  1  0  0  0  0
 66 50  1  0  0  0  0
 67 66  1  0  0  0  0
 68 66  1  0  0  0  0
M  END
