1,2,6
q = -1.0

 38 40  0  0  1  0  0  0  0  0999 V2000
    1.2875    1.0570   -0.0399 N   0  0  0  0  0  2  0  0  0  0  0  0
   -0.3779   -0.9140   -1.4617 C   0  0  0  0  0  3  0  0  0  0  0  0
   -0.4555   -0.1716   -2.2638 H   0  0  0  0  0  0  0  0  0  0  0  0
    0.3309   -2.1480   -1.5429 C   0  0  0  0  0  3  0  0  0  0  0  0
    0.8770   -2.5186   -2.4199 H   0  0  0  0  0  0  0  0  0  0  0  0
    0.2272   -2.8145   -0.2737 C   0  0  0  0  0  3  0  0  0  0  0  0
    0.6627   -3.7865   -0.0131 H   0  0  0  0  0  0  0  0  0  0  0  0
   -0.5819   -1.9888    0.5761 C   0  0  0  0  0  0  0  0  0  0  0  0
   -0.8537   -2.2252    1.6121 H   0  0  0  0  0  0  0  0  0  0  0  0
   -0.9572   -0.8031   -0.1382 C   0  0  0  0  0  0  0  0  0  0  0  0
   -1.7399    0.3641    0.4371 C   0  0  0  0  0  0  0  0  0  0  0  0
   -2.9102   -0.1545    1.3146 C   0  0  0  0  0  0  0  0  0  0  0  0
   -2.5227   -0.8006    2.1299 H   0  0  0  0  0  0  0  0  0  0  0  0
   -3.3624    0.7273    1.8179 H   0  0  0  0  0  0  0  0  0  0  0  0
   -3.9859   -0.8757    0.4961 C   0  0  0  0  0  0  0  0  0  0  0  0
   -3.5584   -1.7983    0.0429 H   0  0  0  0  0  0  0  0  0  0  0  0
   -4.7992   -1.2136    1.1697 H   0  0  0  0  0  0  0  0  0  0  0  0
   -4.5400    0.0326   -0.6074 C   0  0  0  0  0  0  0  0  0  0  0  0
   -5.0759    0.8882   -0.1399 H   0  0  0  0  0  0  0  0  0  0  0  0
   -5.2914   -0.5094   -1.2160 H   0  0  0  0  0  0  0  0  0  0  0  0
   -3.4161    0.5679   -1.5018 C   0  0  0  0  0  0  0  0  0  0  0  0
   -2.9788   -0.2753   -2.0814 H   0  0  0  0  0  0  0  0  0  0  0  0
   -3.8186    1.2770   -2.2535 H   0  0  0  0  0  0  0  0  0  0  0  0
   -2.3207    1.2626   -0.6813 C   0  0  0  0  0  0  0  0  0  0  0  0
   -2.7496    2.1638   -0.1912 H   0  0  0  0  0  0  0  0  0  0  0  0
   -1.5102    1.6396   -1.3405 H   0  0  0  0  0  0  0  0  0  0  0  0
   -0.7717    1.1807    1.3460 C   0  0  0  0  0  0  0  0  0  0  0  0
   -1.3553    1.9714    1.8560 H   0  0  0  0  0  0  0  0  0  0  0  0
   -0.3792    0.5150    2.1441 H   0  0  0  0  0  0  0  0  0  0  0  0
    0.3683    1.8304    0.6132 C   0  0  2  0  0  3  0  0  0  0  0  0
    0.4720    3.2340    0.5805 C   0  0  0  0  0  0  0  0  0  0  0  0
   -0.2817    3.8278    1.1164 H   0  0  0  0  0  0  0  0  0  0  0  0
    1.5122    3.8595   -0.1119 C   0  0  0  0  0  0  0  0  0  0  0  0
    1.5943    4.9562   -0.1320 H   0  0  0  0  0  0  0  0  0  0  0  0
    2.4428    3.0526   -0.7782 C   0  0  0  0  0  0  0  0  0  0  0  0
    3.2829    3.4792   -1.3439 H   0  0  0  0  0  0  0  0  0  0  0  0
    2.2945    1.6673   -0.7182 C   0  0  0  0  0  0  0  0  0  0  0  0
    3.0129    1.0164   -1.2323 H   0  0  0  0  0  0  0  0  0  0  0  0
  1 30  1  0  0  0  0
  2 10  1  0  0  0  0
  3  2  1  0  0  0  0
  4  2  1  0  0  0  0
  4  6  1  0  0  0  0
  5  4  1  0  0  0  0
  6  7  1  0  0  0  0
  6  8  1  0  0  0  0
  8  9  1  0  0  0  0
 10 11  1  0  0  0  0
 10  8  2  0  0  0  0
 11 12  1  0  0  0  0
 11 27  1  0  0  0  0
 12 14  1  0  0  0  0
 12 13  1  0  0  0  0
 15 17  1  0  0  0  0
 15 12  1  0  0  0  0
 16 15  1  0  0  0  0
 18 19  1  0  0  0  0
 18 15  1  0  0  0  0
 20 18  1  0  0  0  0
 21 24  1  0  0  0  0
 21 18  1  0  0  0  0
 22 21  1  0  0  0  0
 23 21  1  0  0  0  0
 24 25  1  0  0  0  0
 24 11  1  0  0  0  0
 26 24  1  0  0  0  0
 27 28  1  0  0  0  0
 27 29  1  0  0  0  0
 30 27  1  6  0  0  0
 31 30  1  0  0  0  0
 31 32  1  0  0  0  0
 33 31  2  0  0  0  0
 34 33  1  0  0  0  0
 35 37  2  0  0  0  0
 35 33  1  0  0  0  0
 36 35  1  0  0  0  0
 37  1  1  0  0  0  0
 38 37  1  0  0  0  0
M  END
