10,21,25
q = -2.0, confidence = 0.718

 48 48  0  0  1  0  0  0  0  0999 V2000
    1.5798   -2.6877   -0.5024 O   0  0  0  0  0  0  0  0  0  0  0  0
    1.8909   -1.0082   -2.0996 O   0  0  0  0  0  0  0  0  0  0  0  0
    2.8569    0.9321   -2.7208 O   0  0  0  0  0  0  0  0  0  0  0  0
    2.3978    1.8507    1.2799 O   0  0  0  0  0  0  0  0  0  0  0  0
    2.5197    2.9343   -0.7011 O   0  0  0  0  0  0  0  0  0  0  0  0
    1.8727   -1.1184    2.2729 O   0  0  0  0  0  0  0  0  0  0  0  0
    3.3092   -0.6880    0.5761 O   0  0  0  0  0  0  0  0  0  0  0  0
   -2.4523    2.6363   -1.8351 O   0  0  0  0  0  0  0  0  0  0  0  0
   -3.0282    2.2457    0.3208 O   0  0  0  0  0  0  0  0  0  0  0  0
   -1.3475   -1.4272   -0.9296 N   0  0  0  0  0  2  0  0  0  0  0  0
   -3.5762   -0.6584   -1.7533 C   0  0  0  0  0  0  0  0  0  0  0  0
   -2.6667   -1.8498   -1.4546 C   0  0  0  0  0  0  0  0  0  0  0  0
   -3.3002   -2.8751   -0.5085 C   0  0  0  0  0  0  0  0  0  0  0  0
   -0.3097   -1.7692   -1.6047 C   0  0  0  0  0  3  0  0  0  0  0  0
    1.0552   -1.5021   -1.0296 C   0  0  1  0  0  0  0  0  0  0  0  0
    1.9110   -3.7269   -1.4206 C   0  0  0  0  0  0  0  0  0  0  0  0
    2.1609    0.3334   -1.9468 C   0  0  0  0  0  0  0  0  0  0  0  0
    1.3809    0.8512   -0.7131 C   0  0  2  0  0  0  0  0  0  0  0  0
    2.1746    1.9019    0.0853 C   0  0  0  0  0  0  0  0  0  0  0  0
    3.2200    4.0012   -0.0473 C   0  0  0  0  0  0  0  0  0  0  0  0
    1.0053   -0.4232    0.0807 C   0  0  2  0  0  3  0  0  0  0  0  0
    2.0695   -0.7732    1.1249 C   0  0  0  0  0  0  0  0  0  0  0  0
    4.3974   -0.8942    1.4809 C   0  0  0  0  0  0  0  0  0  0  0  0
    0.1080    1.5543   -1.1280 C   0  0  0  0  0  0  0  0  0  0  0  0
   -1.0303    1.2531   -0.4577 C   0  0  0  0  0  3  0  0  0  0  0  0
   -2.2118    2.1041   -0.7607 C   0  0  0  0  0  0  0  0  0  0  0  0
   -4.1878    3.0566    0.1179 C   0  0  0  0  0  0  0  0  0  0  0  0
   -3.8803   -0.1289   -0.8314 H   0  0  0  0  0  0  0  0  0  0  0  0
   -4.4966   -1.0256   -2.2490 H   0  0  0  0  0  0  0  0  0  0  0  0
   -3.0855    0.0708   -2.4250 H   0  0  0  0  0  0  0  0  0  0  0  0
   -2.4615   -2.3667   -2.4200 H   0  0  0  0  0  0  0  0  0  0  0  0
   -4.2086   -3.2972   -0.9817 H   0  0  0  0  0  0  0  0  0  0  0  0
   -3.6032   -2.4204    0.4531 H   0  0  0  0  0  0  0  0  0  0  0  0
   -2.6013   -3.7075   -0.2944 H   0  0  0  0  0  0  0  0  0  0  0  0
   -0.3990   -2.3084   -2.5691 H   0  0  0  0  0  0  0  0  0  0  0  0
    1.0087   -4.2117   -1.8557 H   0  0  0  0  0  0  0  0  0  0  0  0
    2.4653   -4.4840   -0.8361 H   0  0  0  0  0  0  0  0  0  0  0  0
    2.5568   -3.3476   -2.2386 H   0  0  0  0  0  0  0  0  0  0  0  0
    2.6030    4.4325    0.7664 H   0  0  0  0  0  0  0  0  0  0  0  0
    3.4199    4.7554   -0.8282 H   0  0  0  0  0  0  0  0  0  0  0  0
    4.1701    3.6349    0.3901 H   0  0  0  0  0  0  0  0  0  0  0  0
    5.3173   -0.8532    0.8707 H   0  0  0  0  0  0  0  0  0  0  0  0
    4.3065   -1.8749    1.9887 H   0  0  0  0  0  0  0  0  0  0  0  0
    4.4061   -0.0948    2.2497 H   0  0  0  0  0  0  0  0  0  0  0  0
    0.1670    2.3613   -1.8784 H   0  0  0  0  0  0  0  0  0  0  0  0
   -3.9033    4.1016   -0.1205 H   0  0  0  0  0  0  0  0  0  0  0  0
   -4.7576    3.0169    1.0633 H   0  0  0  0  0  0  0  0  0  0  0  0
   -4.7991    2.6674   -0.7218 H   0  0  0  0  0  0  0  0  0  0  0  0
  2 17  1  0  0  0  0
  2 15  1  0  0  0  0
  3 17  2  0  0  0  0
  5 20  1  0  0  0  0
  5 19  1  0  0  0  0
  7 22  1  0  0  0  0
  7 23  1  0  0  0  0
  8 26  2  0  0  0  0
 11 12  1  0  0  0  0
 11 28  1  0  0  0  0
 12 10  1  0  0  0  0
 12 13  1  0  0  0  0
 13 34  1  0  0  0  0
 13 33  1  0  0  0  0
 14 10  1  0  0  0  0
 15 14  1  6  0  0  0
 15  1  1  0  0  0  0
 15 21  1  0  0  0  0
 16 37  1  0  0  0  0
 16  1  1  0  0  0  0
 17 18  1  0  0  0  0
 18 24  1  6  0  0  0
 18 21  1  0  0  0  0
 18 19  1  0  0  0  0
 19  4  2  0  0  0  0
 20 41  1  0  0  0  0
 20 39  1  0  0  0  0
 21 22  1  1  0  0  0
 22  6  2  0  0  0  0
 23 43  1  0  0  0  0
 23 44  1  0  0  0  0
 24 25  2  0  0  0  0
 26 25  1  0  0  0  0
 26  9  1  0  0  0  0
 27  9  1  0  0  0  0
 27 47  1  0  0  0  0
 29 11  1  0  0  0  0
 30 11  1  0  0  0  0
 31 12  1  0  0  0  0
 32 13  1  0  0  0  0
 35 14  1  0  0  0  0
 36 16  1  0  0  0  0
 38 16  1  0  0  0  0
 40 20  1  0  0  0  0
 42 23  1  0  0  0  0
 45 24  1  0  0  0  0
 46 27  1  0  0  0  0
 48 27  1  0  0  0  0
M  END
