1,12,28
q = -2.0, confidence = 0.87

 32 34  0  0  0  0  0  0  0  0999 V2000
    1.8833    1.0901   -0.2015 C   0  0  0  0  0  2  0  0  0  0  0  0
    3.1923    0.6393   -0.4547 C   0  0  0  0  0  0  0  0  0  0  0  0
    3.4139   -0.4186   -0.6430 H   0  0  0  0  0  0  0  0  0  0  0  0
    4.2797    1.5210   -0.4788 C   0  0  0  0  0  0  0  0  0  0  0  0
    5.5168    1.0172   -0.6900 F   0  0  0  0  0  0  0  0  0  0  0  0
    4.1321    2.8981   -0.2780 C   0  0  0  0  0  0  0  0  0  0  0  0
    5.0113    3.5566   -0.3004 H   0  0  0  0  0  0  0  0  0  0  0  0
    2.8374    3.3863   -0.0680 C   0  0  0  0  0  0  0  0  0  0  0  0
    2.6975    4.4702    0.0645 H   0  0  0  0  0  0  0  0  0  0  0  0
    1.7295    2.5135   -0.0365 C   0  0  0  0  0  0  0  0  0  0  0  0
    0.3552    3.0088    0.1261 C   0  0  0  0  0  0  0  0  0  0  0  0
   -0.6019    2.0473    0.0029 N   0  0  0  0  0  2  0  0  0  0  0  0
   -0.0373    4.3371    0.3835 C   0  0  0  0  0  0  0  0  0  0  0  0
    0.7170    5.1277    0.4863 H   0  0  0  0  0  0  0  0  0  0  0  0
   -1.3984    4.6158    0.5273 C   0  0  0  0  0  0  0  0  0  0  0  0
   -1.7274    5.6422    0.7497 H   0  0  0  0  0  0  0  0  0  0  0  0
   -2.3566    3.6001    0.4006 C   0  0  0  0  0  0  0  0  0  0  0  0
   -3.4115    3.8412    0.5385 H   0  0  0  0  0  0  0  0  0  0  0  0
   -1.9466    2.2768    0.1185 C   0  0  0  0  0  0  0  0  0  0  0  0
   -2.7727    1.0635   -0.0689 C   0  0  0  0  0  0  0  0  0  0  0  0
   -4.1983    1.0682   -0.1859 C   0  0  0  0  0  0  0  0  0  0  0  0
   -4.8647   -0.1501   -0.4151 C   0  0  0  0  0  0  0  0  0  0  0  0
   -5.9591   -0.1820   -0.5142 H   0  0  0  0  0  0  0  0  0  0  0  0
   -4.7965   -2.4855   -0.7784 F   0  0  0  0  0  0  0  0  0  0  0  0
   -4.1360   -1.3319   -0.5413 C   0  0  0  0  0  0  0  0  0  0  0  0
   -2.7438   -1.3507   -0.4350 C   0  0  0  0  0  0  0  0  0  0  0  0
   -2.2489   -2.3224   -0.5678 H   0  0  0  0  0  0  0  0  0  0  0  0
   -2.0220   -0.1700   -0.1857 C   0  0  0  0  0  3  0  0  0  0  0  0
   -5.0724    2.2987   -0.1082 C   0  0  0  0  0  0  0  0  0  0  0  0
   -5.0592    2.7609    0.9010 H   0  0  0  0  0  0  0  0  0  0  0  0
   -6.1237    2.0352   -0.3309 H   0  0  0  0  0  0  0  0  0  0  0  0
   -4.7631    3.0786   -0.8333 H   0  0  0  0  0  0  0  0  0  0  0  0
  1 10  1  0  0  0  0
  2  1  1  0  0  0  0
  3  2  1  0  0  0  0
  4  2  2  0  0  0  0
  4  6  1  0  0  0  0
  5  4  1  0  0  0  0
  6  8  2  0  0  0  0
  7  6  1  0  0  0  0
  8 10  1  0  0  0  0
  8  9  1  0  0  0  0
 10 11  2  0  0  0  0
 11 13  1  0  0  0  0
 12 19  1  0  0  0  0
 12 11  1  0  0  0  0
 13 14  1  0  0  0  0
 13 15  2  0  0  0  0
 15 16  1  0  0  0  0
 17 15  1  0  0  0  0
 17 18  1  0  0  0  0
 19 17  2  0  0  0  0
 20 19  1  0  0  0  0
 21 29  1  0  0  0  0
 21 20  2  0  0  0  0
 22 21  1  0  0  0  0
 23 22  1  0  0  0  0
 24 25  1  0  0  0  0
 25 26  1  0  0  0  0
 25 22  2  0  0  0  0
 26 28  2  0  0  0  0
 27 26  1  0  0  0  0
 28 20  1  0  0  0  0
 29 30  1  0  0  0  0
 31 29  1  0  0  0  0
 32 29  1  0  0  0  0
M  END
