1,2,8
q = -1.0, confidence = 0.0

 21 21  0  0  1  0  0  0  0  0999 V2000
    1.2593   -2.1044   -1.0906 S   0  0  0  0  0  1  0  0  0  0  0  0
   -1.1564   -0.5690   -1.5111 N   0  0  0  0  0  2  0  0  0  0  0  0
   -0.8085   -1.3889   -2.5595 N   0  0  0  0  0  0  0  0  0  0  0  0
   -1.4616   -1.4620   -3.3482 H   0  0  0  0  0  0  0  0  0  0  0  0
    0.5753   -2.9747   -3.5637 N   0  0  0  0  0  0  0  0  0  0  0  0
    0.3748   -2.6082   -4.4989 H   0  0  0  0  0  0  0  0  0  0  0  0
    1.4870   -3.4321   -3.5039 H   0  0  0  0  0  0  0  0  0  0  0  0
   -0.9654    0.8312    0.9159 O   0  5  0  0  0  0  0  0  0  0  0  0
   -2.7252    1.1323   -0.7417 C   0  0  0  0  0  0  0  0  0  0  0  0
   -2.0419    1.4224    0.5087 C   0  0  0  0  0  0  0  0  0  0  0  0
   -2.6195    2.4373    1.3427 C   0  0  0  0  0  0  0  0  0  0  0  0
   -2.0907    2.6583    2.2817 H   0  0  0  0  0  0  0  0  0  0  0  0
   -3.7826    3.1062    0.9895 C   0  0  0  0  0  0  0  0  0  0  0  0
   -4.1901    3.8771    1.6628 H   0  0  0  0  0  0  0  0  0  0  0  0
   -4.4513    2.8114   -0.2279 C   0  0  0  0  0  0  0  0  0  0  0  0
   -5.3721    3.3457   -0.5031 H   0  0  0  0  0  0  0  0  0  0  0  0
   -3.9195    1.8431   -1.0669 C   0  0  0  0  0  0  0  0  0  0  0  0
   -4.4203    1.6063   -2.0207 H   0  0  0  0  0  0  0  0  0  0  0  0
   -2.2333    0.1793   -1.6804 C   0  0  0  0  0  3  0  0  0  0  0  0
   -2.8023    0.0617   -2.6261 H   0  0  0  0  0  0  0  0  0  0  0  0
    0.3074   -2.1520   -2.4901 C   0  0  2  0  0  3  0  0  0  0  0  0
  3 21  1  0  0  0  0
  3  2  1  0  0  0  0
  4  3  1  0  0  0  0
  5  7  1  0  0  0  0
  5 21  1  0  0  0  0
  6  5  1  0  0  0  0
  9 10  1  0  0  0  0
 10  8  1  0  0  0  0
 10 11  2  0  0  0  0
 11 12  1  0  0  0  0
 13 11  1  0  0  0  0
 13 14  1  0  0  0  0
 15 13  2  0  0  0  0
 16 15  1  0  0  0  0
 17  9  2  0  0  0  0
 17 15  1  0  0  0  0
 18 17  1  0  0  0  0
 19  2  1  0  0  0  0
 19  9  1  0  0  0  0
 20 19  1  0  0  0  0
 21  1  1  1  0  0  0
M  CHG  1   8  -1
M  END
