1,2,21
q = -2.0, confidence = 0.96

 29 30  0  0  1  0  0  0  0  0999 V2000
   -1.1566    2.6473    0.1252 S   0  0  0  0  0  1  0  0  0  0  0  0
    0.9818   -0.7717    0.0591 O   0  5  0  0  0  0  0  0  0  0  0  0
    2.2782   -0.9474    0.0475 C   0  0  0  0  0  0  0  0  0  0  0  0
    2.7357   -2.3095    0.0815 C   0  0  0  0  0  0  0  0  0  0  0  0
    1.9603   -3.0883    0.1237 H   0  0  0  0  0  0  0  0  0  0  0  0
    4.0763   -2.6130    0.0651 C   0  0  0  0  0  0  0  0  0  0  0  0
    4.4071   -3.6635    0.0925 H   0  0  0  0  0  0  0  0  0  0  0  0
    5.0726   -1.5850    0.0129 C   0  0  0  0  0  0  0  0  0  0  0  0
    6.4558   -1.9121   -0.0072 C   0  0  0  0  0  0  0  0  0  0  0  0
    6.7404   -2.9761    0.0184 H   0  0  0  0  0  0  0  0  0  0  0  0
    7.4303   -0.9235   -0.0577 C   0  0  0  0  0  0  0  0  0  0  0  0
    8.4977   -1.1899   -0.0728 H   0  0  0  0  0  0  0  0  0  0  0  0
    7.0321    0.4335   -0.0898 C   0  0  0  0  0  0  0  0  0  0  0  0
    7.7934    1.2277   -0.1306 H   0  0  0  0  0  0  0  0  0  0  0  0
    5.6843    0.7799   -0.0705 C   0  0  0  0  0  0  0  0  0  0  0  0
    5.4215    1.8463   -0.0976 H   0  0  0  0  0  0  0  0  0  0  0  0
    4.6575   -0.2056   -0.0186 C   0  0  1  0  0  3  0  0  0  0  0  0
    3.2351    0.1153    0.0028 C   0  0  0  0  0  0  0  0  0  0  0  0
    2.8098    1.4769   -0.0133 C   0  0  0  0  0  0  0  0  0  0  0  0
    3.5670    2.2768   -0.0405 H   0  0  0  0  0  0  0  0  0  0  0  0
    1.5665    1.9388    0.0100 N   0  0  0  0  0  2  0  0  0  0  0  0
    1.4715    3.3066    0.0014 N   0  0  0  0  0  0  0  0  0  0  0  0
    0.2335    3.7391    0.0601 C   0  0  0  0  0  0  0  0  0  0  0  0
   -0.0173    5.0809    0.1045 N   0  0  0  0  0  0  0  0  0  0  0  0
   -0.9888    5.3603   -0.0213 H   0  0  0  0  0  0  0  0  0  0  0  0
    1.0274    6.0669   -0.0648 C   0  0  0  0  0  0  0  0  0  0  0  0
    0.6380    7.0657    0.2101 H   0  0  0  0  0  0  0  0  0  0  0  0
    1.8825    5.8189    0.5942 H   0  0  0  0  0  0  0  0  0  0  0  0
    1.4184    6.1067   -1.1076 H   0  0  0  0  0  0  0  0  0  0  0  0
  3  2  1  0  0  0  0
  3  4  2  0  0  0  0
  4  5  1  0  0  0  0
  6  4  1  0  0  0  0
  6  7  1  0  0  0  0
  8  6  2  0  0  0  0
  9  8  1  0  0  0  0
  9 10  1  0  0  0  0
 11  9  2  0  0  0  0
 12 11  1  0  0  0  0
 13 15  2  0  0  0  0
 13 11  1  0  0  0  0
 14 13  1  0  0  0  0
 16 15  1  0  0  0  0
 17 15  1  6  0  0  0
 17 18  1  0  0  0  0
 17  8  1  0  0  0  0
 18  3  1  0  0  0  0
 19 18  2  0  0  0  0
 19 21  1  0  0  0  0
 20 19  1  0  0  0  0
 22 21  1  0  0  0  0
 22 23  2  0  0  0  0
 23 24  1  0  0  0  0
 23  1  1  0  0  0  0
 25 24  1  0  0  0  0
 26 24  1  0  0  0  0
 26 27  1  0  0  0  0
 26 28  1  0  0  0  0
 29 26  1  0  0  0  0
M  CHG  1   2  -1
M  END
