1,2,4
q = -2.0, confidence = 0.898

 36 37  0  0  1  0  0  0  0  0999 V2000
   -1.5275    0.5657   -0.2913 S   0  0  0  0  0  1  0  0  0  0  0  0
    0.4148   -1.4856    0.3776 N   0  0  0  0  0  2  0  0  0  0  0  0
   -0.8476   -1.8485    0.7517 N   0  0  0  0  0  0  0  0  0  0  0  0
    2.6020    0.1506   -0.2950 O   0  5  0  0  0  0  0  0  0  0  0  0
   -1.8110   -0.9946    0.4568 C   0  0  0  0  0  0  0  0  0  0  0  0
   -4.2275   -0.7346    0.1958 C   0  0  0  0  0  0  0  0  0  0  0  0
   -3.0957   -1.3654    0.7916 N   0  0  0  0  0  0  0  0  0  0  0  0
    1.3424   -2.4409    0.4770 C   0  0  2  0  0  3  0  0  0  0  0  0
    3.2640   -0.9692   -0.3200 C   0  0  0  0  0  0  0  0  0  0  0  0
    4.6453   -0.8934   -0.6834 C   0  0  0  0  0  0  0  0  0  0  0  0
    2.7158   -2.2626    0.0313 C   0  0  0  0  0  0  0  0  0  0  0  0
   -4.3156   -0.6014   -1.2064 C   0  0  0  0  0  0  0  0  0  0  0  0
   -3.2830   -2.6266    1.5032 C   0  0  0  0  0  0  0  0  0  0  0  0
    0.8817   -3.7583    1.0494 C   0  0  0  0  0  0  0  0  0  0  0  0
    3.5822   -3.3922   -0.0623 C   0  0  0  0  0  0  0  0  0  0  0  0
   -5.2844   -0.2802    1.0088 C   0  0  0  0  0  0  0  0  0  0  0  0
    5.4538   -2.0208   -0.7418 C   0  0  0  0  0  0  0  0  0  0  0  0
    4.9169   -3.2924   -0.4417 C   0  0  0  0  0  0  0  0  0  0  0  0
   -6.5003    0.4514   -0.9667 C   0  0  0  0  0  0  0  0  0  0  0  0
   -5.4461   -0.0013   -1.7772 C   0  0  0  0  0  0  0  0  0  0  0  0
   -6.4185    0.3038    0.4272 C   0  0  0  0  0  0  0  0  0  0  0  0
    5.0308    0.1070   -0.9286 H   0  0  0  0  0  0  0  0  0  0  0  0
   -5.2028   -0.3773    2.1019 H   0  0  0  0  0  0  0  0  0  0  0  0
   -5.5090    0.0982   -2.8715 H   0  0  0  0  0  0  0  0  0  0  0  0
   -3.4961   -0.9760   -1.8380 H   0  0  0  0  0  0  0  0  0  0  0  0
   -7.3882    0.9157   -1.4218 H   0  0  0  0  0  0  0  0  0  0  0  0
    1.7215   -4.4233    1.3052 H   0  0  0  0  0  0  0  0  0  0  0  0
   -4.3518   -2.7322    1.7616 H   0  0  0  0  0  0  0  0  0  0  0  0
    3.1798   -4.3916    0.1490 H   0  0  0  0  0  0  0  0  0  0  0  0
    0.2671   -3.5812    1.9521 H   0  0  0  0  0  0  0  0  0  0  0  0
    6.5102   -1.9205   -1.0373 H   0  0  0  0  0  0  0  0  0  0  0  0
   -7.2386    0.6584    1.0702 H   0  0  0  0  0  0  0  0  0  0  0  0
   -2.6698   -2.6469    2.4257 H   0  0  0  0  0  0  0  0  0  0  0  0
   -2.9697   -3.4896    0.8765 H   0  0  0  0  0  0  0  0  0  0  0  0
    5.5394   -4.1961   -0.5111 H   0  0  0  0  0  0  0  0  0  0  0  0
    0.2090   -4.2710    0.3303 H   0  0  0  0  0  0  0  0  0  0  0  0
  1  5  1  0  0  0  0
  2  3  1  0  0  0  0
  5  3  2  0  0  0  0
  5  7  1  0  0  0  0
  6  7  1  0  0  0  0
  6 16  1  0  0  0  0
  7 13  1  0  0  0  0
  8  2  1  6  0  0  0
  8 14  1  0  0  0  0
  9  4  1  0  0  0  0
  9 11  1  0  0  0  0
 10  9  2  0  0  0  0
 11  8  1  0  0  0  0
 12  6  2  0  0  0  0
 13 28  1  0  0  0  0
 13 33  1  0  0  0  0
 14 27  1  0  0  0  0
 14 30  1  0  0  0  0
 15 11  2  0  0  0  0
 15 29  1  0  0  0  0
 16 23  1  0  0  0  0
 17 10  1  0  0  0  0
 17 18  2  0  0  0  0
 18 15  1  0  0  0  0
 19 21  1  0  0  0  0
 20 12  1  0  0  0  0
 20 19  2  0  0  0  0
 21 16  2  0  0  0  0
 21 32  1  0  0  0  0
 22 10  1  0  0  0  0
 24 20  1  0  0  0  0
 25 12  1  0  0  0  0
 26 19  1  0  0  0  0
 31 17  1  0  0  0  0
 34 13  1  0  0  0  0
 35 18  1  0  0  0  0
 36 14  1  0  0  0  0
M  CHG  1   4  -1
M  END
