1,5,27
q = -2.0, confidence = 0.962

 27 27  0  0  1  0  0  0  0  0999 V2000
   -1.5496    0.0890   -0.2696 O   0  0  0  0  0  1  0  0  0  0  0  0
    1.2174    3.7464   -0.1353 C   0  0  0  0  0  0  0  0  0  0  0  0
    2.0750    4.8102   -0.0796 N   0  0  0  0  0  0  0  0  0  0  0  0
    3.0379    4.6197   -0.3532 H   0  0  0  0  0  0  0  0  0  0  0  0
   -0.8022    2.7738   -0.0500 N   0  0  0  0  0  2  0  0  0  0  0  0
   -2.7746    0.5307   -0.1471 C   0  0  2  0  0  3  0  0  0  0  0  0
   -3.8310   -0.4253   -0.2009 C   0  0  0  0  0  0  0  0  0  0  0  0
   -3.5368   -1.4705   -0.3544 H   0  0  0  0  0  0  0  0  0  0  0  0
   -5.9541   -2.2624   -0.2983 C   0  0  0  0  0  0  0  0  0  0  0  0
   -5.3279   -2.6786    0.5235 H   0  0  0  0  0  0  0  0  0  0  0  0
   -5.4353   -2.4572   -1.2639 H   0  0  0  0  0  0  0  0  0  0  0  0
   -6.9335   -2.7762   -0.3024 H   0  0  0  0  0  0  0  0  0  0  0  0
   -0.0747    3.9374   -0.0390 N   0  0  0  0  0  0  0  0  0  0  0  0
   -6.2213   -0.8868   -0.1109 O   0  0  0  0  0  0  0  0  0  0  0  0
   -2.1111    2.9402    0.0628 C   0  0  0  0  0  0  0  0  0  0  0  0
   -2.4382    3.9889    0.1843 H   0  0  0  0  0  0  0  0  0  0  0  0
   -3.1062    1.9209    0.0312 C   0  0  0  0  0  0  0  0  0  0  0  0
   -4.4800    2.2812    0.1631 C   0  0  0  0  0  0  0  0  0  0  0  0
   -4.7276    3.3457    0.3011 H   0  0  0  0  0  0  0  0  0  0  0  0
   -5.1643   -0.0287   -0.0710 C   0  0  0  0  0  0  0  0  0  0  0  0
   -5.4965    1.3430    0.1176 C   0  0  0  0  0  0  0  0  0  0  0  0
   -6.5544    1.6211    0.2176 H   0  0  0  0  0  0  0  0  0  0  0  0
    1.6002    6.1767   -0.0981 C   0  0  0  0  0  0  0  0  0  0  0  0
    0.7937    6.2971    0.6514 H   0  0  0  0  0  0  0  0  0  0  0  0
    1.1767    6.4752   -1.0850 H   0  0  0  0  0  0  0  0  0  0  0  0
    2.4337    6.8591    0.1560 H   0  0  0  0  0  0  0  0  0  0  0  0
    1.9343    2.1395   -0.3463 S   0  0  0  0  0  1  0  0  0  0  0  0
  2  3  1  0  0  0  0
  2 13  2  0  0  0  0
  4  3  1  0  0  0  0
  5 13  1  0  0  0  0
  5 15  1  0  0  0  0
  6  1  1  6  0  0  0
  6 17  1  0  0  0  0
  7  6  1  0  0  0  0
  7 20  2  0  0  0  0
  8  7  1  0  0  0  0
  9 14  1  0  0  0  0
  9 10  1  0  0  0  0
 11  9  1  0  0  0  0
 12  9  1  0  0  0  0
 14 20  1  0  0  0  0
 15 16  1  0  0  0  0
 17 15  2  0  0  0  0
 17 18  1  0  0  0  0
 18 19  1  0  0  0  0
 20 21  1  0  0  0  0
 21 18  2  0  0  0  0
 21 22  1  0  0  0  0
 23  3  1  0  0  0  0
 23 26  1  0  0  0  0
 23 24  1  0  0  0  0
 25 23  1  0  0  0  0
 27  2  1  0  0  0  0
M  END
