1,3,5
q = -1.0, confidence = 0.01

 21 20  0  0  1  0  0  0  0  0999 V2000
   -0.7532   -1.0384    1.6618 S   0  0  0  0  0  1  0  0  0  0  0  0
   -3.4455   -2.2688    1.9900 S   0  0  0  0  0  0  0  0  0  0  0  0
    0.0700    1.5731   -1.4518 O   0  5  0  0  0  0  0  0  0  0  0  0
   -1.1804    2.4869   -3.1216 O   0  0  0  0  0  0  0  0  0  0  0  0
   -1.8892    0.1847   -0.5531 N   0  0  0  0  0  2  0  0  0  0  0  0
   -2.8449   -0.5513    0.0288 N   0  0  0  0  0  2  0  0  0  0  0  0
   -1.0440    1.7108   -2.0326 C   0  0  0  0  0  0  0  0  0  0  0  0
    0.0065    3.1581   -3.5584 C   0  0  0  0  0  0  0  0  0  0  0  0
   -2.2104    1.0112   -1.5668 C   0  0  0  0  0  0  0  0  0  0  0  0
   -3.5905    1.1238   -2.1168 C   0  0  0  0  0  0  0  0  0  0  0  0
   -2.3824   -1.2043    1.0889 C   0  0  1  0  0  3  0  0  0  0  0  0
   -5.0086   -2.0588    1.0832 C   0  0  0  0  0  0  0  0  0  0  0  0
   -0.2921    3.7674   -4.4297 H   0  0  0  0  0  0  0  0  0  0  0  0
    0.7880    2.4268   -3.8476 H   0  0  0  0  0  0  0  0  0  0  0  0
    0.4135    3.8040   -2.7539 H   0  0  0  0  0  0  0  0  0  0  0  0
   -3.9498    0.1414   -2.4896 H   0  0  0  0  0  0  0  0  0  0  0  0
   -3.6130    1.8584   -2.9415 H   0  0  0  0  0  0  0  0  0  0  0  0
   -4.3042    1.4367   -1.3262 H   0  0  0  0  0  0  0  0  0  0  0  0
   -5.7370   -2.7268    1.5809 H   0  0  0  0  0  0  0  0  0  0  0  0
   -4.8798   -2.3496    0.0242 H   0  0  0  0  0  0  0  0  0  0  0  0
   -5.3518   -1.0090    1.1372 H   0  0  0  0  0  0  0  0  0  0  0  0
  4  7  1  0  0  0  0
  5  6  1  0  0  0  0
  6 11  1  0  0  0  0
  7  9  2  0  0  0  0
  7  3  1  0  0  0  0
  8  4  1  0  0  0  0
  8 15  1  0  0  0  0
  9  5  1  0  0  0  0
 10  9  1  0  0  0  0
 10 18  1  0  0  0  0
 11  1  1  1  0  0  0
 11  2  1  0  0  0  0
 12 21  1  0  0  0  0
 12 19  1  0  0  0  0
 12  2  1  0  0  0  0
 13  8  1  0  0  0  0
 14  8  1  0  0  0  0
 16 10  1  0  0  0  0
 17 10  1  0  0  0  0
 20 12  1  0  0  0  0
M  CHG  1   3  -1
M  END
