1,2,6
q = -2.0, confidence = 0.91

 30 31  0  0  0  0  0  0  0  0999 V2000
    0.9693   -2.2217   -0.1690 S   0  0  0  0  0  1  0  0  0  0  0  0
   -0.1290    0.4909   -0.1124 N   0  0  0  0  0  2  0  0  0  0  0  0
    1.2271    0.5073   -0.0416 N   0  0  0  0  0  0  0  0  0  0  0  0
    3.1753   -0.7852   -0.0712 N   0  0  0  0  0  0  0  0  0  0  0  0
    3.4988   -1.7533   -0.1193 H   0  0  0  0  0  0  0  0  0  0  0  0
   -2.8126   -0.2884    0.0845 O   0  5  0  0  0  0  0  0  0  0  0  0
   -3.1130    1.0019   -0.0514 C   0  0  0  0  0  0  0  0  0  0  0  0
   -4.4704    1.3895   -0.0589 C   0  0  0  0  0  0  0  0  0  0  0  0
   -5.2312    0.5999    0.0184 H   0  0  0  0  0  0  0  0  0  0  0  0
   -4.8192    2.7391   -0.1655 C   0  0  0  0  0  0  0  0  0  0  0  0
   -5.8825    3.0233   -0.1748 H   0  0  0  0  0  0  0  0  0  0  0  0
   -3.8234    3.7328   -0.2598 C   0  0  0  0  0  0  0  0  0  0  0  0
   -4.1023    4.7929   -0.3431 H   0  0  0  0  0  0  0  0  0  0  0  0
   -2.4804    3.3594   -0.2462 C   0  0  0  0  0  0  0  0  0  0  0  0
   -1.6917    4.1248   -0.3168 H   0  0  0  0  0  0  0  0  0  0  0  0
   -2.0905    1.9966   -0.1483 C   0  0  0  0  0  0  0  0  0  0  0  0
   -0.6846    1.6858   -0.1129 C   0  0  0  0  0  3  0  0  0  0  0  0
    0.0179    2.5398   -0.0898 H   0  0  0  0  0  0  0  0  0  0  0  0
    1.8095   -0.6686   -0.0951 C   0  0  0  0  0  0  0  0  0  0  0  0
    4.2002    0.1733   -0.0145 C   0  0  0  0  0  0  0  0  0  0  0  0
    3.9781    1.5657    0.0688 C   0  0  0  0  0  0  0  0  0  0  0  0
    2.9476    1.9365    0.0900 H   0  0  0  0  0  0  0  0  0  0  0  0
    5.0753    2.4366    0.1213 C   0  0  0  0  0  0  0  0  0  0  0  0
    4.8897    3.5198    0.1853 H   0  0  0  0  0  0  0  0  0  0  0  0
    6.3926    1.9539    0.0942 C   0  0  0  0  0  0  0  0  0  0  0  0
    7.2433    2.6498    0.1362 H   0  0  0  0  0  0  0  0  0  0  0  0
    6.6111    0.5687    0.0124 C   0  0  0  0  0  0  0  0  0  0  0  0
    7.6359    0.1683   -0.0107 H   0  0  0  0  0  0  0  0  0  0  0  0
    5.5287   -0.3144   -0.0416 C   0  0  0  0  0  0  0  0  0  0  0  0
    5.7065   -1.4002   -0.1075 H   0  0  0  0  0  0  0  0  0  0  0  0
  1 19  1  0  0  0  0
  2  3  1  0  0  0  0
  4 20  1  0  0  0  0
  5  4  1  0  0  0  0
  7  6  1  0  0  0  0
  8  7  1  0  0  0  0
  8  9  1  0  0  0  0
 10  8  2  0  0  0  0
 11 10  1  0  0  0  0
 12 14  2  0  0  0  0
 12 10  1  0  0  0  0
 13 12  1  0  0  0  0
 14 16  1  0  0  0  0
 15 14  1  0  0  0  0
 16 17  1  0  0  0  0
 16  7  2  0  0  0  0
 17  2  1  0  0  0  0
 17 18  1  0  0  0  0
 19  4  1  0  0  0  0
 19  3  2  0  0  0  0
 20 21  1  0  0  0  0
 21 22  1  0  0  0  0
 21 23  2  0  0  0  0
 23 24  1  0  0  0  0
 25 23  1  0  0  0  0
 25 26  1  0  0  0  0
 27 25  2  0  0  0  0
 28 27  1  0  0  0  0
 29 20  2  0  0  0  0
 29 27  1  0  0  0  0
 30 29  1  0  0  0  0
M  CHG  1   6  -1
M  END
