1,2,4
q = -2.0, confidence = 0.916

 32 33  0  0  0  0  0  0  0  0999 V2000
    2.2458    1.2858   -0.4409 S   0  0  0  0  0  1  0  0  0  0  0  0
   -1.6599    1.3796   -0.6306 O   0  5  0  0  0  0  0  0  0  0  0  0
   -5.6374   -2.3651    0.2447 O   0  0  0  0  0  0  0  0  0  0  0  0
    0.1138   -0.5197    0.0193 N   0  0  0  0  0  2  0  0  0  0  0  0
    1.2939   -1.1839    0.0506 N   0  0  0  0  0  0  0  0  0  0  0  0
   -2.6256    0.4958   -0.4036 C   0  0  0  0  0  0  0  0  0  0  0  0
   -3.9773    0.8572   -0.5800 C   0  0  0  0  0  0  0  0  0  0  0  0
   -4.2025    1.8889   -0.8847 H   0  0  0  0  0  0  0  0  0  0  0  0
   -5.0031   -0.0692   -0.3697 C   0  0  0  0  0  0  0  0  0  0  0  0
   -6.0441    0.2516   -0.5105 H   0  0  0  0  0  0  0  0  0  0  0  0
   -4.7030   -1.3998    0.0176 C   0  0  0  0  0  0  0  0  0  0  0  0
   -3.3638   -1.7765    0.1793 C   0  0  0  0  0  0  0  0  0  0  0  0
   -3.1396   -2.8139    0.4677 H   0  0  0  0  0  0  0  0  0  0  0  0
   -2.3126   -0.8491   -0.0181 C   0  0  0  0  0  0  0  0  0  0  0  0
   -0.9520   -1.2931    0.0904 C   0  0  0  0  0  3  0  0  0  0  0  0
   -0.7604   -2.3743    0.2224 H   0  0  0  0  0  0  0  0  0  0  0  0
    2.3592   -0.4331   -0.1187 C   0  0  0  0  0  0  0  0  0  0  0  0
    3.6859   -1.0883   -0.0770 C   0  0  0  0  0  0  0  0  0  0  0  0
    3.7722   -2.4915    0.0881 C   0  0  0  0  0  0  0  0  0  0  0  0
    2.8388   -3.0637    0.1803 H   0  0  0  0  0  0  0  0  0  0  0  0
    5.0186   -3.1242    0.1303 C   0  0  0  0  0  0  0  0  0  0  0  0
    5.0716   -4.2161    0.2587 H   0  0  0  0  0  0  0  0  0  0  0  0
    6.2002   -2.3719    0.0091 C   0  0  0  0  0  0  0  0  0  0  0  0
    7.1800   -2.8723    0.0425 H   0  0  0  0  0  0  0  0  0  0  0  0
    6.1249   -0.9794   -0.1540 C   0  0  0  0  0  0  0  0  0  0  0  0
    7.0454   -0.3836   -0.2477 H   0  0  0  0  0  0  0  0  0  0  0  0
    4.8788   -0.3415   -0.1967 C   0  0  0  0  0  0  0  0  0  0  0  0
    4.8164    0.7503   -0.3185 H   0  0  0  0  0  0  0  0  0  0  0  0
   -7.0027   -2.0300    0.0920 C   0  0  0  0  0  0  0  0  0  0  0  0
   -7.3156   -1.2230    0.7928 H   0  0  0  0  0  0  0  0  0  0  0  0
   -7.5773   -2.9459    0.3236 H   0  0  0  0  0  0  0  0  0  0  0  0
   -7.2407   -1.7103   -0.9480 H   0  0  0  0  0  0  0  0  0  0  0  0
  1 17  1  0  0  0  0
  2  6  1  0  0  0  0
  4  5  1  0  0  0  0
  4 15  1  0  0  0  0
  6 14  1  0  0  0  0
  7  6  2  0  0  0  0
  7  9  1  0  0  0  0
  8  7  1  0  0  0  0
  9 11  2  0  0  0  0
 10  9  1  0  0  0  0
 11 12  1  0  0  0  0
 11  3  1  0  0  0  0
 12 13  1  0  0  0  0
 14 15  1  0  0  0  0
 14 12  2  0  0  0  0
 15 16  1  0  0  0  0
 17 18  1  0  0  0  0
 17  5  2  0  0  0  0
 18 19  1  0  0  0  0
 19 21  2  0  0  0  0
 19 20  1  0  0  0  0
 21 22  1  0  0  0  0
 23 24  1  0  0  0  0
 23 21  1  0  0  0  0
 25 23  2  0  0  0  0
 26 25  1  0  0  0  0
 27 25  1  0  0  0  0
 27 18  2  0  0  0  0
 28 27  1  0  0  0  0
 29  3  1  0  0  0  0
 29 31  1  0  0  0  0
 29 30  1  0  0  0  0
 32 29  1  0  0  0  0
M  CHG  1   2  -1
M  END
