1,2,4
q = -2.0, confidence = 0.964

 57 60  0  0  0  0  0  0  0  0999 V2000
   -0.3259   -1.5819   -2.1203 S   0  0  0  0  0  1  0  0  0  0  0  0
    3.5903   -1.0576   -0.3662 O   0  5  0  0  0  0  0  0  0  0  0  0
    6.1482    3.5956    1.1907 O   0  0  0  0  0  0  0  0  0  0  0  0
    1.2241    0.4038   -0.6073 N   0  0  0  0  0  2  0  0  0  0  0  0
   -0.1077    0.6600   -0.5572 N   0  0  0  0  0  0  0  0  0  0  0  0
   -2.2385   -0.0059   -1.1750 N   0  0  0  0  0  0  0  0  0  0  0  0
   -2.7512   -0.8001   -1.5645 H   0  0  0  0  0  0  0  0  0  0  0  0
    3.4061    1.3036    0.1044 C   0  0  0  0  0  0  0  0  0  0  0  0
    4.1569    0.0969   -0.0139 C   0  0  0  0  0  0  0  0  0  0  0  0
    5.5371    0.1148    0.2939 C   0  0  0  0  0  0  0  0  0  0  0  0
    6.0961   -0.8274    0.2065 H   0  0  0  0  0  0  0  0  0  0  0  0
    6.1672    1.2931    0.6851 C   0  0  0  0  0  0  0  0  0  0  0  0
    7.2427    1.3141    0.9141 H   0  0  0  0  0  0  0  0  0  0  0  0
    5.4350    2.5004    0.8001 C   0  0  0  0  0  0  0  0  0  0  0  0
    4.0634    2.4950    0.5209 C   0  0  0  0  0  0  0  0  0  0  0  0
    3.4612    3.4091    0.6128 H   0  0  0  0  0  0  0  0  0  0  0  0
    1.9796    1.3519   -0.0983 C   0  0  0  0  0  3  0  0  0  0  0  0
    1.4468    2.2670    0.2229 H   0  0  0  0  0  0  0  0  0  0  0  0
   -0.8751   -0.1871   -1.1977 C   0  0  0  0  0  0  0  0  0  0  0  0
   -2.9573    0.6623   -0.0648 C   0  0  0  0  0  0  0  0  0  0  0  0
   -2.6666    2.1748   -0.0249 C   0  0  0  0  0  0  0  0  0  0  0  0
   -3.0105    2.9300    1.1125 C   0  0  0  0  0  0  0  0  0  0  0  0
   -3.4238    2.4275    1.9991 H   0  0  0  0  0  0  0  0  0  0  0  0
   -2.8309    4.3212    1.1303 C   0  0  0  0  0  0  0  0  0  0  0  0
   -3.0998    4.8923    2.0320 H   0  0  0  0  0  0  0  0  0  0  0  0
   -2.3165    4.9809    0.0038 C   0  0  0  0  0  0  0  0  0  0  0  0
   -2.1754    6.0723    0.0159 H   0  0  0  0  0  0  0  0  0  0  0  0
   -1.9911    4.2363   -1.1408 C   0  0  0  0  0  0  0  0  0  0  0  0
   -1.5914    4.7411   -2.0335 H   0  0  0  0  0  0  0  0  0  0  0  0
   -2.1667    2.8456   -1.1551 C   0  0  0  0  0  0  0  0  0  0  0  0
   -1.9055    2.2663   -2.0512 H   0  0  0  0  0  0  0  0  0  0  0  0
   -4.4659    0.5670   -0.3786 C   0  0  0  0  0  0  0  0  0  0  0  0
   -5.4201    0.5808    0.6582 C   0  0  0  0  0  0  0  0  0  0  0  0
   -5.0859    0.5849    1.7054 H   0  0  0  0  0  0  0  0  0  0  0  0
   -6.7917    0.5794    0.3690 C   0  0  0  0  0  0  0  0  0  0  0  0
   -7.5198    0.5860    1.1943 H   0  0  0  0  0  0  0  0  0  0  0  0
   -7.2360    0.5656   -0.9626 C   0  0  0  0  0  0  0  0  0  0  0  0
   -8.3130    0.5608   -1.1886 H   0  0  0  0  0  0  0  0  0  0  0  0
   -6.2943    0.5639   -2.0016 C   0  0  0  0  0  0  0  0  0  0  0  0
   -6.6271    0.5642   -3.0507 H   0  0  0  0  0  0  0  0  0  0  0  0
   -4.9211    0.5714   -1.7120 C   0  0  0  0  0  0  0  0  0  0  0  0
   -4.1931    0.6018   -2.5360 H   0  0  0  0  0  0  0  0  0  0  0  0
   -2.5715   -0.0964    1.2251 C   0  0  0  0  0  0  0  0  0  0  0  0
   -3.1369   -1.3655    1.4720 C   0  0  0  0  0  0  0  0  0  0  0  0
   -3.9264   -1.7471    0.8069 H   0  0  0  0  0  0  0  0  0  0  0  0
   -2.7134   -2.1458    2.5567 C   0  0  0  0  0  0  0  0  0  0  0  0
   -3.1834   -3.1248    2.7397 H   0  0  0  0  0  0  0  0  0  0  0  0
   -1.7004   -1.6761    3.4089 C   0  0  0  0  0  0  0  0  0  0  0  0
   -1.3697   -2.2838    4.2655 H   0  0  0  0  0  0  0  0  0  0  0  0
   -1.1140   -0.4273    3.1579 C   0  0  0  0  0  0  0  0  0  0  0  0
   -0.3069   -0.0545    3.8069 H   0  0  0  0  0  0  0  0  0  0  0  0
   -1.5436    0.3551    2.0742 C   0  0  0  0  0  0  0  0  0  0  0  0
   -1.0647    1.3216    1.8726 H   0  0  0  0  0  0  0  0  0  0  0  0
    5.4613    4.8237    1.3152 C   0  0  0  0  0  0  0  0  0  0  0  0
    5.0076    5.1465    0.3504 H   0  0  0  0  0  0  0  0  0  0  0  0
    6.2105    5.5745    1.6281 H   0  0  0  0  0  0  0  0  0  0  0  0
    4.6567    4.7753    2.0844 H   0  0  0  0  0  0  0  0  0  0  0  0
  1 19  1  0  0  0  0
  2  9  1  0  0  0  0
  3 54  1  0  0  0  0
  4  5  1  0  0  0  0
  4 17  1  0  0  0  0
  6 20  1  0  0  0  0
  7  6  1  0  0  0  0
  8 15  1  0  0  0  0
  9  8  2  0  0  0  0
  9 10  1  0  0  0  0
 10 12  2  0  0  0  0
 11 10  1  0  0  0  0
 12 14  1  0  0  0  0
 12 13  1  0  0  0  0
 14  3  1  0  0  0  0
 15 16  1  0  0  0  0
 15 14  2  0  0  0  0
 17  8  1  0  0  0  0
 17 18  1  0  0  0  0
 19  6  1  0  0  0  0
 19  5  2  0  0  0  0
 20 21  1  0  0  0  0
 20 43  1  0  0  0  0
 21 22  1  0  0  0  0
 22 24  2  0  0  0  0
 22 23  1  0  0  0  0
 24 25  1  0  0  0  0
 26 27  1  0  0  0  0
 26 24  1  0  0  0  0
 28 26  2  0  0  0  0
 29 28  1  0  0  0  0
 30 28  1  0  0  0  0
 30 21  2  0  0  0  0
 31 30  1  0  0  0  0
 32 20  1  0  0  0  0
 32 33  1  0  0  0  0
 33 34  1  0  0  0  0
 35 33  2  0  0  0  0
 35 36  1  0  0  0  0
 37 35  1  0  0  0  0
 38 37  1  0  0  0  0
 39 41  1  0  0  0  0
 39 37  2  0  0  0  0
 40 39  1  0  0  0  0
 41 32  2  0  0  0  0
 42 41  1  0  0  0  0
 43 44  2  0  0  0  0
 43 52  1  0  0  0  0
 44 46  1  0  0  0  0
 45 44  1  0  0  0  0
 46 47  1  0  0  0  0
 46 48  2  0  0  0  0
 48 49  1  0  0  0  0
 50 48  1  0  0  0  0
 50 51  1  0  0  0  0
 52 50  2  0  0  0  0
 53 52  1  0  0  0  0
 54 56  1  0  0  0  0
 54 57  1  0  0  0  0
 55 54  1  0  0  0  0
M  CHG  1   2  -1
M  END
