3,4,5
q = -2.0, confidence = 0.962

 53 56  0  0  0  0  0  0  0  0999 V2000
    6.1555   -0.5618   -0.2787 Br  0  0  0  0  0  0  0  0  0  0  0  0
    5.0185    4.5199    1.7101 Cl  0  0  0  0  0  0  0  0  0  0  0  0
   -0.7654   -1.7734   -1.8511 S   0  0  0  0  0  1  0  0  0  0  0  0
    3.1451   -0.6226   -0.4920 O   0  5  0  0  0  0  0  0  0  0  0  0
    0.5435    0.3970   -0.3442 N   0  0  0  0  0  2  0  0  0  0  0  0
   -0.8052    0.4478   -0.2312 N   0  0  0  0  0  0  0  0  0  0  0  0
   -2.8366   -0.4226   -0.9148 N   0  0  0  0  0  0  0  0  0  0  0  0
   -3.2875   -1.2638   -1.2782 H   0  0  0  0  0  0  0  0  0  0  0  0
    2.6040    1.5725    0.3402 C   0  0  0  0  0  0  0  0  0  0  0  0
    3.5356    0.5479   -0.0185 C   0  0  0  0  0  0  0  0  0  0  0  0
    4.9198    0.7971    0.1842 C   0  0  0  0  0  0  0  0  0  0  0  0
    5.3793    2.0096    0.7082 C   0  0  0  0  0  0  0  0  0  0  0  0
    6.4546    2.1806    0.8487 H   0  0  0  0  0  0  0  0  0  0  0  0
    4.4471    3.0065    1.0539 C   0  0  0  0  0  0  0  0  0  0  0  0
    3.0795    2.7940    0.8802 C   0  0  0  0  0  0  0  0  0  0  0  0
    2.3630    3.5789    1.1606 H   0  0  0  0  0  0  0  0  0  0  0  0
    1.1747    1.3968    0.2294 C   0  0  0  0  0  3  0  0  0  0  0  0
    0.5337    2.1805    0.6748 H   0  0  0  0  0  0  0  0  0  0  0  0
   -1.4697   -0.4658   -0.9020 C   0  0  0  0  0  0  0  0  0  0  0  0
   -3.6848    0.4181   -0.0488 C   0  0  0  0  0  0  0  0  0  0  0  0
   -3.4049    1.9197   -0.2692 C   0  0  0  0  0  0  0  0  0  0  0  0
   -3.8471    2.8681    0.6725 C   0  0  0  0  0  0  0  0  0  0  0  0
   -4.3316    2.5342    1.6015 H   0  0  0  0  0  0  0  0  0  0  0  0
   -3.6765    4.2414    0.4416 C   0  0  0  0  0  0  0  0  0  0  0  0
   -4.0232    4.9655    1.1946 H   0  0  0  0  0  0  0  0  0  0  0  0
   -3.0717    4.6889   -0.7424 C   0  0  0  0  0  0  0  0  0  0  0  0
   -2.9348    5.7656   -0.9239 H   0  0  0  0  0  0  0  0  0  0  0  0
   -2.6509    3.7497   -1.6970 C   0  0  0  0  0  0  0  0  0  0  0  0
   -2.1811    4.0854   -2.6339 H   0  0  0  0  0  0  0  0  0  0  0  0
   -2.8205    2.3780   -1.4642 C   0  0  0  0  0  0  0  0  0  0  0  0
   -2.4891    1.6525   -2.2199 H   0  0  0  0  0  0  0  0  0  0  0  0
   -5.1444    0.2333   -0.5225 C   0  0  0  0  0  0  0  0  0  0  0  0
   -6.2185    0.4618    0.3612 C   0  0  0  0  0  0  0  0  0  0  0  0
   -6.0153    0.7015    1.4145 H   0  0  0  0  0  0  0  0  0  0  0  0
   -7.5441    0.3788   -0.0854 C   0  0  0  0  0  0  0  0  0  0  0  0
   -8.3669    0.5569    0.6235 H   0  0  0  0  0  0  0  0  0  0  0  0
   -7.8234    0.0684   -1.4259 C   0  0  0  0  0  0  0  0  0  0  0  0
   -8.8647    0.0002   -1.7749 H   0  0  0  0  0  0  0  0  0  0  0  0
   -6.7623   -0.1462   -2.3165 C   0  0  0  0  0  0  0  0  0  0  0  0
   -6.9639   -0.3775   -3.3734 H   0  0  0  0  0  0  0  0  0  0  0  0
   -5.4343   -0.0574   -1.8702 C   0  0  0  0  0  0  0  0  0  0  0  0
   -4.6147   -0.1936   -2.5911 H   0  0  0  0  0  0  0  0  0  0  0  0
   -3.4733   -0.0650    1.4049 C   0  0  0  0  0  0  0  0  0  0  0  0
   -2.5563    0.5597    2.2721 C   0  0  0  0  0  0  0  0  0  0  0  0
   -2.0186    1.4529    1.9306 H   0  0  0  0  0  0  0  0  0  0  0  0
   -2.3183    0.0439    3.5562 C   0  0  0  0  0  0  0  0  0  0  0  0
   -1.6029    0.5532    4.2198 H   0  0  0  0  0  0  0  0  0  0  0  0
   -2.9863   -1.1096    3.9938 C   0  0  0  0  0  0  0  0  0  0  0  0
   -2.8079   -1.5051    5.0055 H   0  0  0  0  0  0  0  0  0  0  0  0
   -3.8800   -1.7585    3.1262 C   0  0  0  0  0  0  0  0  0  0  0  0
   -4.4070   -2.6685    3.4522 H   0  0  0  0  0  0  0  0  0  0  0  0
   -4.1133   -1.2436    1.8427 C   0  0  0  0  0  0  0  0  0  0  0  0
   -4.8175   -1.7601    1.1732 H   0  0  0  0  0  0  0  0  0  0  0  0
  1 11  1  0  0  0  0
  3 19  1  0  0  0  0
  4 10  1  0  0  0  0
  5  6  1  0  0  0  0
  5 17  1  0  0  0  0
  7 19  1  0  0  0  0
  7 20  1  0  0  0  0
  8  7  1  0  0  0  0
  9 15  1  0  0  0  0
 10 11  1  0  0  0  0
 10  9  2  0  0  0  0
 11 12  2  0  0  0  0
 12 13  1  0  0  0  0
 12 14  1  0  0  0  0
 14  2  1  0  0  0  0
 15 14  2  0  0  0  0
 15 16  1  0  0  0  0
 17  9  1  0  0  0  0
 17 18  1  0  0  0  0
 19  6  2  0  0  0  0
 20 43  1  0  0  0  0
 21 20  1  0  0  0  0
 21 22  1  0  0  0  0
 22 23  1  0  0  0  0
 24 22  2  0  0  0  0
 24 25  1  0  0  0  0
 26 24  1  0  0  0  0
 27 26  1  0  0  0  0
 28 30  1  0  0  0  0
 28 26  2  0  0  0  0
 29 28  1  0  0  0  0
 30 21  2  0  0  0  0
 31 30  1  0  0  0  0
 32 20  1  0  0  0  0
 32 33  1  0  0  0  0
 33 34  1  0  0  0  0
 35 33  2  0  0  0  0
 35 36  1  0  0  0  0
 37 35  1  0  0  0  0
 38 37  1  0  0  0  0
 39 41  1  0  0  0  0
 39 37  2  0  0  0  0
 40 39  1  0  0  0  0
 41 32  2  0  0  0  0
 42 41  1  0  0  0  0
 43 52  2  0  0  0  0
 43 44  1  0  0  0  0
 44 46  2  0  0  0  0
 45 44  1  0  0  0  0
 46 48  1  0  0  0  0
 46 47  1  0  0  0  0
 48 49  1  0  0  0  0
 50 51  1  0  0  0  0
 50 48  2  0  0  0  0
 52 50  1  0  0  0  0
 53 52  1  0  0  0  0
M  CHG  1   4  -1
M  END
