1,4,5
q = -2.0, confidence = 0.954

 53 56  0  0  0  0  0  0  0  0999 V2000
   -0.5140   -1.7854   -1.8668 S   0  0  0  0  0  1  0  0  0  0  0  0
    6.3452   -0.6598   -0.3280 Cl  0  0  0  0  0  0  0  0  0  0  0  0
    5.4787    4.3266    1.6620 Cl  0  0  0  0  0  0  0  0  0  0  0  0
    3.4378   -0.7528   -0.5349 O   0  5  0  0  0  0  0  0  0  0  0  0
    0.8669    0.3400   -0.3594 N   0  0  0  0  0  2  0  0  0  0  0  0
   -0.4789    0.4265   -0.2340 N   0  0  0  0  0  0  0  0  0  0  0  0
   -2.5391   -0.3836   -0.9055 N   0  0  0  0  0  0  0  0  0  0  0  0
   -3.0160   -1.2109   -1.2679 H   0  0  0  0  0  0  0  0  0  0  0  0
    2.9645    1.4551    0.3102 C   0  0  0  0  0  0  0  0  0  0  0  0
    3.8615    0.4071   -0.0633 C   0  0  0  0  0  0  0  0  0  0  0  0
    5.2560    0.6157    0.1199 C   0  0  0  0  0  0  0  0  0  0  0  0
    5.7555    1.8127    0.6435 C   0  0  0  0  0  0  0  0  0  0  0  0
    6.8378    1.9472    0.7674 H   0  0  0  0  0  0  0  0  0  0  0  0
    4.8562    2.8332    1.0063 C   0  0  0  0  0  0  0  0  0  0  0  0
    3.4811    2.6608    0.8494 C   0  0  0  0  0  0  0  0  0  0  0  0
    2.7909    3.4645    1.1418 H   0  0  0  0  0  0  0  0  0  0  0  0
    1.5300    1.3194    0.2135 C   0  0  0  0  0  3  0  0  0  0  0  0
    0.9147    2.1179    0.6687 H   0  0  0  0  0  0  0  0  0  0  0  0
   -1.1738   -0.4645   -0.9043 C   0  0  0  0  0  0  0  0  0  0  0  0
   -3.3573    0.4782   -0.0318 C   0  0  0  0  0  0  0  0  0  0  0  0
   -3.0342    1.9717   -0.2481 C   0  0  0  0  0  0  0  0  0  0  0  0
   -3.4383    2.9290    0.7016 C   0  0  0  0  0  0  0  0  0  0  0  0
   -3.9234    2.6061    1.6340 H   0  0  0  0  0  0  0  0  0  0  0  0
   -3.2282    4.2975    0.4744 C   0  0  0  0  0  0  0  0  0  0  0  0
   -3.5453    5.0286    1.2337 H   0  0  0  0  0  0  0  0  0  0  0  0
   -2.6216    4.7315   -0.7136 C   0  0  0  0  0  0  0  0  0  0  0  0
   -2.4537    5.8043   -0.8922 H   0  0  0  0  0  0  0  0  0  0  0  0
   -2.2389    3.7840   -1.6761 C   0  0  0  0  0  0  0  0  0  0  0  0
   -1.7682    4.1093   -2.6162 H   0  0  0  0  0  0  0  0  0  0  0  0
   -2.4479    2.4172   -1.4471 C   0  0  0  0  0  0  0  0  0  0  0  0
   -2.1462    1.6851   -2.2089 H   0  0  0  0  0  0  0  0  0  0  0  0
   -4.8244    0.3387   -0.4979 C   0  0  0  0  0  0  0  0  0  0  0  0
   -5.8859    0.6013    0.3916 C   0  0  0  0  0  0  0  0  0  0  0  0
   -5.6692    0.8358    1.4434 H   0  0  0  0  0  0  0  0  0  0  0  0
   -7.2159    0.5590   -0.0472 C   0  0  0  0  0  0  0  0  0  0  0  0
   -8.0287    0.7632    0.6662 H   0  0  0  0  0  0  0  0  0  0  0  0
   -7.5124    0.2561   -1.3857 C   0  0  0  0  0  0  0  0  0  0  0  0
   -8.5573    0.2199   -1.7288 H   0  0  0  0  0  0  0  0  0  0  0  0
   -6.4636    0.0080   -2.2822 C   0  0  0  0  0  0  0  0  0  0  0  0
   -6.6784   -0.2179   -3.3376 H   0  0  0  0  0  0  0  0  0  0  0  0
   -5.1310    0.0560   -1.8436 C   0  0  0  0  0  0  0  0  0  0  0  0
   -4.3202   -0.1064   -2.5691 H   0  0  0  0  0  0  0  0  0  0  0  0
   -3.1525   -0.0166    1.4190 C   0  0  0  0  0  0  0  0  0  0  0  0
   -2.2090    0.5745    2.2814 C   0  0  0  0  0  0  0  0  0  0  0  0
   -1.6439    1.4501    1.9384 H   0  0  0  0  0  0  0  0  0  0  0  0
   -1.9793    0.0472    3.5623 C   0  0  0  0  0  0  0  0  0  0  0  0
   -1.2425    0.5303    4.2222 H   0  0  0  0  0  0  0  0  0  0  0  0
   -2.6824   -1.0846    4.0015 C   0  0  0  0  0  0  0  0  0  0  0  0
   -2.5102   -1.4889    5.0109 H   0  0  0  0  0  0  0  0  0  0  0  0
   -3.6035   -1.7006    3.1386 C   0  0  0  0  0  0  0  0  0  0  0  0
   -4.1584   -2.5934    3.4659 H   0  0  0  0  0  0  0  0  0  0  0  0
   -3.8285   -1.1743    1.8582 C   0  0  0  0  0  0  0  0  0  0  0  0
   -4.5545   -1.6649    1.1925 H   0  0  0  0  0  0  0  0  0  0  0  0
  1 19  1  0  0  0  0
  2 11  1  0  0  0  0
  4 10  1  0  0  0  0
  5  6  1  0  0  0  0
  5 17  1  0  0  0  0
  7 19  1  0  0  0  0
  7 20  1  0  0  0  0
  8  7  1  0  0  0  0
  9 15  1  0  0  0  0
 10 11  1  0  0  0  0
 10  9  2  0  0  0  0
 11 12  2  0  0  0  0
 12 13  1  0  0  0  0
 12 14  1  0  0  0  0
 14  3  1  0  0  0  0
 15 14  2  0  0  0  0
 15 16  1  0  0  0  0
 17  9  1  0  0  0  0
 17 18  1  0  0  0  0
 19  6  2  0  0  0  0
 20 43  1  0  0  0  0
 21 20  1  0  0  0  0
 21 22  1  0  0  0  0
 22 23  1  0  0  0  0
 24 22  2  0  0  0  0
 24 25  1  0  0  0  0
 26 24  1  0  0  0  0
 27 26  1  0  0  0  0
 28 30  1  0  0  0  0
 28 26  2  0  0  0  0
 29 28  1  0  0  0  0
 30 21  2  0  0  0  0
 31 30  1  0  0  0  0
 32 20  1  0  0  0  0
 32 33  1  0  0  0  0
 33 34  1  0  0  0  0
 35 33  2  0  0  0  0
 35 36  1  0  0  0  0
 37 35  1  0  0  0  0
 38 37  1  0  0  0  0
 39 41  1  0  0  0  0
 39 37  2  0  0  0  0
 40 39  1  0  0  0  0
 41 32  2  0  0  0  0
 42 41  1  0  0  0  0
 43 52  2  0  0  0  0
 43 44  1  0  0  0  0
 44 46  2  0  0  0  0
 45 44  1  0  0  0  0
 46 48  1  0  0  0  0
 46 47  1  0  0  0  0
 48 49  1  0  0  0  0
 50 51  1  0  0  0  0
 50 48  2  0  0  0  0
 52 50  1  0  0  0  0
 53 52  1  0  0  0  0
M  CHG  1   4  -1
M  END
