1,3,4
q = -2.0, confidence = 0.922

 25 25  0  0  0  0  0  0  0  0999 V2000
    1.7792    1.5004   -0.3724 S   0  0  0  0  0  1  0  0  0  0  0  0
    4.0114   -0.4147   -0.1427 S   0  0  0  0  0  0  0  0  0  0  0  0
   -2.1765    0.4973    0.4119 O   0  5  0  0  0  0  0  0  0  0  0  0
    0.1439   -0.8666   -0.0528 N   0  0  0  0  0  2  0  0  0  0  0  0
    1.4687   -1.1794    0.0006 N   0  0  0  0  0  0  0  0  0  0  0  0
   -2.8239   -0.6442    0.2064 C   0  0  0  0  0  0  0  0  0  0  0  0
   -4.2359   -0.6745    0.2666 C   0  0  0  0  0  0  0  0  0  0  0  0
   -4.7647    0.2725    0.4461 H   0  0  0  0  0  0  0  0  0  0  0  0
   -4.9256   -1.8783    0.0971 C   0  0  0  0  0  0  0  0  0  0  0  0
   -6.0257   -1.8808    0.1380 H   0  0  0  0  0  0  0  0  0  0  0  0
   -4.2277   -3.0840   -0.1244 C   0  0  0  0  0  0  0  0  0  0  0  0
   -4.7770   -4.0274   -0.2552 H   0  0  0  0  0  0  0  0  0  0  0  0
   -2.8344   -3.0693   -0.1716 C   0  0  0  0  0  0  0  0  0  0  0  0
   -2.2745   -4.0036   -0.3354 H   0  0  0  0  0  0  0  0  0  0  0  0
   -2.1037   -1.8616   -0.0207 C   0  0  0  0  0  0  0  0  0  0  0  0
   -0.6646   -1.9037   -0.0249 C   0  0  0  0  0  3  0  0  0  0  0  0
   -0.1765   -2.8963   -0.0058 H   0  0  0  0  0  0  0  0  0  0  0  0
    2.2741   -0.1563   -0.1535 C   0  0  0  0  0  0  0  0  0  0  0  0
    4.1178   -2.2353    0.0736 C   0  0  0  0  0  0  0  0  0  0  0  0
    3.5851   -2.4946    1.0094 H   0  0  0  0  0  0  0  0  0  0  0  0
    3.5612   -2.7056   -0.7607 H   0  0  0  0  0  0  0  0  0  0  0  0
    5.5833   -2.6537    0.1037 C   0  0  0  0  0  0  0  0  0  0  0  0
    6.1286   -2.1755    0.9424 H   0  0  0  0  0  0  0  0  0  0  0  0
    6.1043   -2.3887   -0.8385 H   0  0  0  0  0  0  0  0  0  0  0  0
    5.6580   -3.7520    0.2342 H   0  0  0  0  0  0  0  0  0  0  0  0
  1 18  1  0  0  0  0
  2 19  1  0  0  0  0
  4 16  1  0  0  0  0
  4  5  1  0  0  0  0
  6  7  1  0  0  0  0
  6  3  1  0  0  0  0
  7  8  1  0  0  0  0
  9 10  1  0  0  0  0
  9  7  2  0  0  0  0
 11  9  1  0  0  0  0
 12 11  1  0  0  0  0
 13 11  2  0  0  0  0
 13 15  1  0  0  0  0
 14 13  1  0  0  0  0
 15  6  2  0  0  0  0
 16 15  1  0  0  0  0
 16 17  1  0  0  0  0
 18  2  1  0  0  0  0
 18  5  2  0  0  0  0
 19 22  1  0  0  0  0
 19 20  1  0  0  0  0
 21 19  1  0  0  0  0
 22 25  1  0  0  0  0
 22 23  1  0  0  0  0
 24 22  1  0  0  0  0
M  CHG  1   3  -1
M  END
