1,3,4
q = -1.0, confidence = 0.004

 27 27  0  0  1  0  0  0  0  0999 V2000
   -0.1006    1.1686   -1.8678 S   0  0  0  0  0  0  0  0  0  0  0  0
   -0.7980   -2.6905   -2.5417 O   0  5  0  0  0  0  0  0  0  0  0  0
    0.5371   -1.6270   -1.0688 O   0  0  0  0  0  0  0  0  0  0  0  0
   -1.1353   -0.2617    0.7764 N   0  0  0  0  0  2  0  0  0  0  0  0
   -2.1221    0.6698    0.6106 N   0  0  0  0  0  0  0  0  0  0  0  0
   -1.0117   -2.6850    1.4007 C   0  0  0  0  0  0  0  0  0  0  0  0
   -0.3653   -2.9639    0.5446 H   0  0  0  0  0  0  0  0  0  0  0  0
   -1.7278   -3.5033    1.5978 H   0  0  0  0  0  0  0  0  0  0  0  0
   -0.3601   -2.5720    2.2901 H   0  0  0  0  0  0  0  0  0  0  0  0
   -1.7517   -1.4211    1.1128 C   0  0  1  0  0  3  0  0  0  0  0  0
   -1.0047   -0.3308   -2.4476 C   0  0  0  0  0  0  0  0  0  0  0  0
   -2.0355   -0.2943   -2.0419 H   0  0  0  0  0  0  0  0  0  0  0  0
   -1.0615   -0.3051   -3.5519 H   0  0  0  0  0  0  0  0  0  0  0  0
   -4.6264    0.9155    0.7148 C   0  0  0  0  0  0  0  0  0  0  0  0
   -4.6696    1.7356    1.4624 H   0  0  0  0  0  0  0  0  0  0  0  0
   -5.4911    0.2524    0.8991 H   0  0  0  0  0  0  0  0  0  0  0  0
   -4.7603    1.3690   -0.2892 H   0  0  0  0  0  0  0  0  0  0  0  0
   -1.4663    2.2326   -1.2322 C   0  0  0  0  0  0  0  0  0  0  0  0
   -1.1327    3.2769   -1.3950 H   0  0  0  0  0  0  0  0  0  0  0  0
   -2.3409    2.0531   -1.8887 H   0  0  0  0  0  0  0  0  0  0  0  0
   -3.1507   -1.2117    1.1439 C   0  0  0  0  0  0  0  0  0  0  0  0
   -3.9174   -1.9547    1.3844 H   0  0  0  0  0  0  0  0  0  0  0  0
   -0.3698   -1.6793   -2.0025 C   0  0  0  0  0  0  0  0  0  0  0  0
   -1.8069    2.0382    0.2465 C   0  0  0  0  0  0  0  0  0  0  0  0
   -0.9704    2.3833    0.8821 H   0  0  0  0  0  0  0  0  0  0  0  0
   -2.6868    2.6611    0.5003 H   0  0  0  0  0  0  0  0  0  0  0  0
   -3.3625    0.1274    0.8185 C   0  0  0  0  0  0  0  0  0  0  0  0
  1 18  1  0  0  0  0
  2 23  1  0  0  0  0
  4 10  1  0  0  0  0
  5  4  1  0  0  0  0
  5 27  1  0  0  0  0
  6  8  1  0  0  0  0
  6  9  1  0  0  0  0
  7  6  1  0  0  0  0
 10 21  1  0  0  0  0
 10  6  1  1  0  0  0
 11 12  1  0  0  0  0
 11 23  1  0  0  0  0
 11  1  1  0  0  0  0
 13 11  1  0  0  0  0
 14 27  1  0  0  0  0
 14 16  1  0  0  0  0
 14 15  1  0  0  0  0
 17 14  1  0  0  0  0
 18 24  1  0  0  0  0
 19 18  1  0  0  0  0
 20 18  1  0  0  0  0
 21 22  1  0  0  0  0
 23  3  2  0  0  0  0
 24 26  1  0  0  0  0
 24  5  1  0  0  0  0
 24 25  1  0  0  0  0
 27 21  2  0  0  0  0
M  CHG  1   2  -1
M  END
