1,2,3
q = -1.0, confidence = 0.0

 27 27  0  0  1  0  0  0  0  0999 V2000
   -2.3195    0.6063   -0.1646 S   0  0  0  0  0  1  0  0  0  0  0  0
    1.9494    1.1108    0.0534 O   0  5  0  0  0  0  0  0  0  0  0  0
    0.0671   -1.1037   -0.1068 N   0  0  0  0  0  2  0  0  0  0  0  0
   -1.1264   -1.7809   -0.1960 N   0  0  0  0  0  0  0  0  0  0  0  0
   -1.0816   -2.8020   -0.2980 H   0  0  0  0  0  0  0  0  0  0  0  0
   -3.4443   -1.8450   -0.3542 N   0  0  0  0  0  0  0  0  0  0  0  0
    2.8091    0.1415    0.0745 C   0  0  0  0  0  0  0  0  0  0  0  0
    4.1967    0.5020    0.1633 C   0  0  0  0  0  0  0  0  0  0  0  0
    5.2021   -0.4500    0.1890 C   0  0  0  0  0  0  0  0  0  0  0  0
    4.9000   -1.8374    0.1294 C   0  0  0  0  0  0  0  0  0  0  0  0
    3.5760   -2.2298    0.0447 C   0  0  0  0  0  3  0  0  0  0  0  0
    2.5030   -1.2824    0.0151 C   0  0  0  0  0  0  0  0  0  0  0  0
    1.1823   -1.8087   -0.0706 C   0  0  0  0  0  0  0  0  0  0  0  0
   -2.3072   -1.1097   -0.2363 C   0  0  2  0  0  3  0  0  0  0  0  0
   -4.7820   -1.2574   -0.3140 C   0  0  0  0  0  0  0  0  0  0  0  0
   -5.3078   -1.0111    1.1001 C   0  0  0  0  0  0  0  0  0  0  0  0
    3.3220   -3.3015   -0.0019 H   0  0  0  0  0  0  0  0  0  0  0  0
    6.2518   -0.1237    0.2568 H   0  0  0  0  0  0  0  0  0  0  0  0
    5.7051   -2.5856    0.1506 H   0  0  0  0  0  0  0  0  0  0  0  0
    4.4173    1.5780    0.2084 H   0  0  0  0  0  0  0  0  0  0  0  0
   -4.7356   -0.3059   -0.8830 H   0  0  0  0  0  0  0  0  0  0  0  0
   -5.4529   -1.9368   -0.8785 H   0  0  0  0  0  0  0  0  0  0  0  0
   -6.3198   -0.5616    1.0575 H   0  0  0  0  0  0  0  0  0  0  0  0
   -5.3782   -1.9552    1.6778 H   0  0  0  0  0  0  0  0  0  0  0  0
   -4.6453   -0.3108    1.6459 H   0  0  0  0  0  0  0  0  0  0  0  0
    1.0865   -2.9131   -0.1100 H   0  0  0  0  0  0  0  0  0  0  0  0
   -3.3796   -2.8545   -0.2086 H   0  0  0  0  0  0  0  0  0  0  0  0
  2  7  1  0  0  0  0
  3 13  1  0  0  0  0
  4  3  1  0  0  0  0
  5  4  1  0  0  0  0
  6 15  1  0  0  0  0
  6 14  1  0  0  0  0
  6 27  1  0  0  0  0
  7  8  2  0  0  0  0
  8  9  1  0  0  0  0
  8 20  1  0  0  0  0
  9 18  1  0  0  0  0
 10 19  1  0  0  0  0
 10  9  2  0  0  0  0
 11 10  1  0  0  0  0
 12 11  1  0  0  0  0
 12  7  1  0  0  0  0
 13 12  2  0  0  0  0
 14  4  1  0  0  0  0
 14  1  1  6  0  0  0
 15 16  1  0  0  0  0
 16 25  1  0  0  0  0
 16 24  1  0  0  0  0
 17 11  1  0  0  0  0
 21 15  1  0  0  0  0
 22 15  1  0  0  0  0
 23 16  1  0  0  0  0
 26 13  1  0  0  0  0
M  CHG  1   2  -1
M  END
