1,2,3
q = -2.0, confidence = 0.948

 23 23  0  0  1  0  0  0  0  0999 V2000
   -1.8600   -0.5376    1.4756 S   0  0  0  0  0  1  0  0  0  0  0  0
    1.2351    0.1742   -1.1317 O   0  0  0  0  0  1  0  0  0  0  0  0
    0.0739   -2.0540    0.0855 N   0  0  0  0  0  2  0  0  0  0  0  0
   -0.8818   -2.8977    0.5800 N   0  0  0  0  0  2  0  0  0  0  0  0
   -2.8384   -3.0361    1.7793 N   0  0  0  0  0  0  0  0  0  0  0  0
   -2.6605   -4.0415    1.7500 H   0  0  0  0  0  0  0  0  0  0  0  0
    2.2747   -0.5908   -1.3114 C   0  0  2  0  0  3  0  0  0  0  0  0
    3.4447   -0.0339   -1.9117 C   0  0  0  0  0  0  0  0  0  0  0  0
    3.4069    1.0316   -2.1824 H   0  0  0  0  0  0  0  0  0  0  0  0
    4.5810   -0.8055   -2.1402 C   0  0  0  0  0  0  0  0  0  0  0  0
    5.4673   -0.3403   -2.6005 H   0  0  0  0  0  0  0  0  0  0  0  0
    4.6080   -2.1766   -1.7911 C   0  0  0  0  0  0  0  0  0  0  0  0
    5.5068   -2.7825   -1.9771 H   0  0  0  0  0  0  0  0  0  0  0  0
    3.4773   -2.7489   -1.2145 C   0  0  0  0  0  0  0  0  0  0  0  0
    3.4760   -3.8170   -0.9424 H   0  0  0  0  0  0  0  0  0  0  0  0
    2.3040   -1.9889   -0.9527 C   0  0  0  0  0  0  0  0  0  0  0  0
    1.1721   -2.6378   -0.3608 C   0  0  0  0  0  0  0  0  0  0  0  0
    1.1991   -3.7353   -0.2356 H   0  0  0  0  0  0  0  0  0  0  0  0
   -1.8398   -2.2731    1.2395 C   0  0  1  0  0  3  0  0  0  0  0  0
   -3.8778   -2.5262    2.6378 C   0  0  0  0  0  0  0  0  0  0  0  0
   -4.7161   -3.2492    2.6753 H   0  0  0  0  0  0  0  0  0  0  0  0
   -4.2581   -1.5681    2.2266 H   0  0  0  0  0  0  0  0  0  0  0  0
   -3.5368   -2.3270    3.6809 H   0  0  0  0  0  0  0  0  0  0  0  0
  3  4  1  0  0  0  0
  4 19  1  0  0  0  0
  5 20  1  0  0  0  0
  6  5  1  0  0  0  0
  7  2  1  6  0  0  0
  7 16  1  0  0  0  0
  8  7  1  0  0  0  0
  9  8  1  0  0  0  0
 10  8  2  0  0  0  0
 10 12  1  0  0  0  0
 11 10  1  0  0  0  0
 12 14  2  0  0  0  0
 13 12  1  0  0  0  0
 14 16  1  0  0  0  0
 14 15  1  0  0  0  0
 16 17  2  0  0  0  0
 17 18  1  0  0  0  0
 17  3  1  0  0  0  0
 19  1  1  1  0  0  0
 19  5  1  0  0  0  0
 20 21  1  0  0  0  0
 20 23  1  0  0  0  0
 22 20  1  0  0  0  0
M  END
