1,3,4
q = -1.0, confidence = 0.006

 24 24  0  0  1  0  0  0  0  0999 V2000
   -1.7388    2.6360   -0.0398 S   0  0  0  0  0  1  0  0  0  0  0  0
    7.0279    0.1506    0.0863 Cl  0  0  0  0  0  0  0  0  0  0  0  0
    1.1043    2.5803    0.0774 N   0  0  0  0  0  2  0  0  0  0  0  0
    1.1485   -0.1818   -0.0500 O   0  0  0  0  0  1  0  0  0  0  0  0
    0.5987    3.8622    0.0922 N   0  0  0  0  0  0  0  0  0  0  0  0
   -1.2597    5.2788    0.0487 N   0  0  0  0  0  0  0  0  0  0  0  0
   -0.6902    6.1246    0.0698 H   0  0  0  0  0  0  0  0  0  0  0  0
   -2.2726    5.3862    0.0034 H   0  0  0  0  0  0  0  0  0  0  0  0
    2.4495   -0.0426   -0.0177 C   0  0  2  0  0  3  0  0  0  0  0  0
    2.4252    2.4593    0.0998 C   0  0  0  0  0  0  0  0  0  0  0  0
    3.0281    3.3880    0.1448 H   0  0  0  0  0  0  0  0  0  0  0  0
    4.6383   -1.1983   -0.0409 C   0  0  0  0  0  0  0  0  0  0  0  0
    4.5567    1.2522    0.0940 C   0  0  0  0  0  0  0  0  0  0  0  0
    5.0850    2.2149    0.1564 H   0  0  0  0  0  0  0  0  0  0  0  0
    3.1288    1.2291    0.0628 C   0  0  0  0  0  0  0  0  0  0  0  0
   -0.7379    4.0355    0.0405 C   0  0  1  0  0  3  0  0  0  0  0  0
    3.2453   -1.2222   -0.0694 C   0  0  0  0  0  0  0  0  0  0  0  0
    2.7077   -2.1791   -0.1378 H   0  0  0  0  0  0  0  0  0  0  0  0
    5.2870    0.0789    0.0451 C   0  0  0  0  0  0  0  0  0  0  0  0
    5.4433   -2.4618   -0.0982 C   0  0  0  0  0  0  0  0  0  0  0  0
    6.1286   -2.4508   -0.9712 H   0  0  0  0  0  0  0  0  0  0  0  0
    4.7939   -3.3537   -0.1633 H   0  0  0  0  0  0  0  0  0  0  0  0
    6.0937   -2.5539    0.7963 H   0  0  0  0  0  0  0  0  0  0  0  0
    1.2622    4.6454    0.1363 H   0  0  0  0  0  0  0  0  0  0  0  0
  3  5  1  0  0  0  0
  3 10  1  0  0  0  0
  5 24  1  0  0  0  0
  6  7  1  0  0  0  0
  8  6  1  0  0  0  0
  9  4  1  6  0  0  0
  9 15  1  0  0  0  0
 10 11  1  0  0  0  0
 12 19  1  0  0  0  0
 13 14  1  0  0  0  0
 15 13  1  0  0  0  0
 15 10  2  0  0  0  0
 16  1  1  6  0  0  0
 16  6  1  0  0  0  0
 16  5  1  0  0  0  0
 17 12  2  0  0  0  0
 17  9  1  0  0  0  0
 18 17  1  0  0  0  0
 19  2  1  0  0  0  0
 19 13  2  0  0  0  0
 20 12  1  0  0  0  0
 20 23  1  0  0  0  0
 21 20  1  0  0  0  0
 22 20  1  0  0  0  0
M  END
