2,3,4
q = -2.0, confidence = 0.924

 23 23  0  0  1  0  0  0  0  0999 V2000
   -7.2564   -0.1069    0.0421 Cl  0  0  0  0  0  0  0  0  0  0  0  0
    1.4929    2.7881   -0.0809 S   0  0  0  0  0  1  0  0  0  0  0  0
   -1.3650   -0.4541   -0.0823 O   0  0  0  0  0  1  0  0  0  0  0  0
   -1.4025    2.5142   -0.0091 N   0  0  0  0  0  2  0  0  0  0  0  0
   -1.0409    3.8289    0.0051 N   0  0  0  0  0  0  0  0  0  0  0  0
    0.7001    5.3436    0.0791 N   0  0  0  0  0  0  0  0  0  0  0  0
    0.0066    6.0719   -0.0963 H   0  0  0  0  0  0  0  0  0  0  0  0
    1.6536    5.5333   -0.2252 H   0  0  0  0  0  0  0  0  0  0  0  0
   -2.6612   -0.2882   -0.0569 C   0  0  2  0  0  3  0  0  0  0  0  0
   -3.4653   -1.4684   -0.0901 C   0  0  0  0  0  0  0  0  0  0  0  0
   -2.9254   -2.4256   -0.1457 H   0  0  0  0  0  0  0  0  0  0  0  0
   -4.8593   -1.4560   -0.0620 C   0  0  0  0  0  0  0  0  0  0  0  0
   -5.5030   -0.1860    0.0016 C   0  0  0  0  0  0  0  0  0  0  0  0
   -4.7683    0.9892    0.0288 C   0  0  0  0  0  0  0  0  0  0  0  0
   -5.2980    1.9520    0.0733 H   0  0  0  0  0  0  0  0  0  0  0  0
   -3.3432    0.9840   -0.0019 C   0  0  0  0  0  0  0  0  0  0  0  0
   -2.6960    2.2627    0.0199 C   0  0  0  0  0  0  0  0  0  0  0  0
   -3.3397    3.1605    0.0639 H   0  0  0  0  0  0  0  0  0  0  0  0
    0.2512    4.0501   -0.0027 C   0  0  0  0  0  0  0  0  0  0  0  0
   -5.6569   -2.7293   -0.0994 C   0  0  0  0  0  0  0  0  0  0  0  0
   -4.9959   -3.6149   -0.1511 H   0  0  0  0  0  0  0  0  0  0  0  0
   -6.3411   -2.7443   -0.9733 H   0  0  0  0  0  0  0  0  0  0  0  0
   -6.3048   -2.8195    0.7974 H   0  0  0  0  0  0  0  0  0  0  0  0
  2 19  1  0  0  0  0
  4  5  1  0  0  0  0
  4 17  1  0  0  0  0
  7  6  1  0  0  0  0
  8  6  1  0  0  0  0
  9  3  1  6  0  0  0
  9 16  1  0  0  0  0
 10 12  2  0  0  0  0
 10  9  1  0  0  0  0
 11 10  1  0  0  0  0
 12 13  1  0  0  0  0
 13 14  2  0  0  0  0
 13  1  1  0  0  0  0
 14 15  1  0  0  0  0
 16 17  2  0  0  0  0
 16 14  1  0  0  0  0
 17 18  1  0  0  0  0
 19  5  2  0  0  0  0
 19  6  1  0  0  0  0
 20 12  1  0  0  0  0
 20 23  1  0  0  0  0
 21 20  1  0  0  0  0
 22 20  1  0  0  0  0
M  END
