1,2,3
q = -2.0, confidence = 0.814

 17 17  0  0  1  0  0  0  0  0999 V2000
   -1.2950   -0.5496    2.1785 S   0  0  0  0  0  1  0  0  0  0  0  0
   -0.9792    0.6074   -1.8161 O   0  0  0  0  0  1  0  0  0  0  0  0
   -2.8978    0.3187   -0.0972 N   0  0  0  0  0  2  0  0  0  0  0  0
   -3.2900    0.9643   -1.2280 C   0  0  2  0  0  3  0  0  0  0  0  0
   -4.5714    1.5211   -1.3140 C   0  0  0  0  0  0  0  0  0  0  0  0
   -5.4272    1.4111   -0.2087 C   0  0  0  0  0  0  0  0  0  0  0  0
   -5.0048    0.7349    0.9460 C   0  0  0  0  0  0  0  0  0  0  0  0
   -3.7162    0.1828    0.9876 C   0  0  0  0  0  0  0  0  0  0  0  0
   -2.2280    0.9925   -2.3007 C   0  0  0  0  0  0  0  0  0  0  0  0
   -3.1547   -0.5775    2.1467 C   0  0  0  0  0  0  0  0  0  0  0  0
   -4.8834    2.0417   -2.2304 H   0  0  0  0  0  0  0  0  0  0  0  0
   -6.4314    1.8601   -0.2437 H   0  0  0  0  0  0  0  0  0  0  0  0
   -5.6672    0.6329    1.8166 H   0  0  0  0  0  0  0  0  0  0  0  0
   -2.5746    0.3185   -3.1290 H   0  0  0  0  0  0  0  0  0  0  0  0
   -2.1817    2.0179   -2.7413 H   0  0  0  0  0  0  0  0  0  0  0  0
   -3.4694   -1.6419    2.0611 H   0  0  0  0  0  0  0  0  0  0  0  0
   -3.5578   -0.1922    3.1047 H   0  0  0  0  0  0  0  0  0  0  0  0
  3  8  1  0  0  0  0
  4  9  1  6  0  0  0
  4  3  1  0  0  0  0
  5  4  1  0  0  0  0
  5  6  2  0  0  0  0
  6  7  1  0  0  0  0
  7  8  2  0  0  0  0
  7 13  1  0  0  0  0
  8 10  1  0  0  0  0
  9  2  1  0  0  0  0
 10  1  1  0  0  0  0
 10 17  1  0  0  0  0
 11  5  1  0  0  0  0
 12  6  1  0  0  0  0
 14  9  1  0  0  0  0
 15  9  1  0  0  0  0
 16 10  1  0  0  0  0
M  END
