1,2,5
q = -2.0, confidence = 0.932

 18 17  0  0  1  0  0  0  0  0999 V2000
    0.0036   -1.2898   -1.9264 S   0  0  0  0  0  1  0  0  0  0  0  0
   -0.2944    1.0274    1.5378 O   0  5  0  0  0  0  0  0  0  0  0  0
   -1.9531    1.5294    2.9774 O   0  0  0  0  0  0  0  0  0  0  0  0
   -2.5027   -1.1424   -0.8474 N   0  0  0  0  0  0  0  0  0  0  0  0
   -1.8516   -0.3731    0.0445 N   0  0  0  0  0  2  0  0  0  0  0  0
   -2.2841   -2.4002   -2.7573 N   0  0  0  0  0  0  0  0  0  0  0  0
   -1.7099   -1.6218   -1.8004 C   0  0  0  0  0  0  0  0  0  0  0  0
   -2.4441    0.1227    1.1030 C   0  0  1  0  0  3  0  0  0  0  0  0
   -1.5376    0.9610    1.9699 C   0  0  0  0  0  0  0  0  0  0  0  0
   -3.8905   -0.0578    1.4180 C   0  0  0  0  0  0  0  0  0  0  0  0
   -4.7952    0.8380    0.5549 C   0  0  0  0  0  0  0  0  0  0  0  0
   -1.6868   -2.9401   -3.3794 H   0  0  0  0  0  0  0  0  0  0  0  0
   -3.2388   -2.7211   -2.5943 H   0  0  0  0  0  0  0  0  0  0  0  0
   -4.0117    0.1929    2.4911 H   0  0  0  0  0  0  0  0  0  0  0  0
   -4.1588   -1.1234    1.2600 H   0  0  0  0  0  0  0  0  0  0  0  0
   -4.5482    1.9076    0.7072 H   0  0  0  0  0  0  0  0  0  0  0  0
   -5.8613    0.6918    0.8209 H   0  0  0  0  0  0  0  0  0  0  0  0
   -4.6689    0.5971   -0.5193 H   0  0  0  0  0  0  0  0  0  0  0  0
  1  7  1  0  0  0  0
  2  9  1  0  0  0  0
  4  5  1  0  0  0  0
  6 13  1  0  0  0  0
  6  7  1  0  0  0  0
  7  4  2  0  0  0  0
  8  5  1  6  0  0  0
  8 10  1  0  0  0  0
  8  9  1  0  0  0  0
  9  3  2  0  0  0  0
 10 14  1  0  0  0  0
 11 16  1  0  0  0  0
 11 17  1  0  0  0  0
 11 10  1  0  0  0  0
 12  6  1  0  0  0  0
 15 10  1  0  0  0  0
 18 11  1  0  0  0  0
M  CHG  1   2  -1
M  END
