1,2,3
q = -1.0, confidence = 0.028

 45 46  0  0  1  0  0  0  0  0999 V2000
   -2.9915   -0.4876   -0.5754 S   0  0  0  0  0  0  0  0  0  0  0  0
   -0.3749    0.8870    0.3622 N   0  0  0  0  0  2  0  0  0  0  0  0
    1.2665   -1.3065    0.3202 O   0  5  0  0  0  0  0  0  0  0  0  0
    2.2683   -0.4715    0.1486 C   0  0  0  0  0  0  0  0  0  0  0  0
    2.0394    0.8946    0.0437 C   0  0  0  0  0  0  0  0  0  0  0  0
    2.8934    1.5583   -0.1340 H   0  0  0  0  0  0  0  0  0  0  0  0
    0.7630    1.5346    0.1981 C   0  0  1  0  0  3  0  0  0  0  0  0
   -1.6091    1.6026    0.6553 C   0  0  0  0  0  0  0  0  0  0  0  0
   -1.4500    2.6988    0.7255 H   0  0  0  0  0  0  0  0  0  0  0  0
   -1.9618    1.2482    1.6487 H   0  0  0  0  0  0  0  0  0  0  0  0
   -2.6714    1.3099   -0.4021 C   0  0  0  0  0  0  0  0  0  0  0  0
   -2.3319    1.6299   -1.4063 H   0  0  0  0  0  0  0  0  0  0  0  0
   -3.6282    1.8198   -0.1724 H   0  0  0  0  0  0  0  0  0  0  0  0
    3.6081   -1.0963    0.0750 C   0  0  0  0  0  0  0  0  0  0  0  0
    4.8029   -0.3434    0.1411 C   0  0  0  0  0  0  0  0  0  0  0  0
    4.7630    0.7470    0.2761 H   0  0  0  0  0  0  0  0  0  0  0  0
    6.0464   -0.9793    0.0584 C   0  0  0  0  0  0  0  0  0  0  0  0
    6.9689   -0.3822    0.1160 H   0  0  0  0  0  0  0  0  0  0  0  0
    6.1188   -2.3754   -0.0893 C   0  0  0  0  0  0  0  0  0  0  0  0
    7.0987   -2.8724   -0.1537 H   0  0  0  0  0  0  0  0  0  0  0  0
    4.9380   -3.1327   -0.1505 C   0  0  0  0  0  0  0  0  0  0  0  0
    4.9884   -4.2258   -0.2664 H   0  0  0  0  0  0  0  0  0  0  0  0
    3.6917   -2.5008   -0.0671 C   0  0  0  0  0  0  0  0  0  0  0  0
    2.7596   -3.0812   -0.1184 H   0  0  0  0  0  0  0  0  0  0  0  0
    0.7927    3.0328    0.1023 C   0  0  0  0  0  0  0  0  0  0  0  0
    1.3205    3.8285    1.1367 C   0  0  0  0  0  0  0  0  0  0  0  0
    1.6961    3.3473    2.0527 H   0  0  0  0  0  0  0  0  0  0  0  0
    1.3548    5.2252    1.0014 C   0  0  0  0  0  0  0  0  0  0  0  0
    1.7590    5.8431    1.8175 H   0  0  0  0  0  0  0  0  0  0  0  0
    0.8781    5.8325   -0.1712 C   0  0  0  0  0  0  0  0  0  0  0  0
    0.9100    6.9275   -0.2767 H   0  0  0  0  0  0  0  0  0  0  0  0
    0.3664    5.0404   -1.2123 C   0  0  0  0  0  0  0  0  0  0  0  0
    0.0036    5.5120   -2.1381 H   0  0  0  0  0  0  0  0  0  0  0  0
    0.3216    3.6454   -1.0778 C   0  0  0  0  0  0  0  0  0  0  0  0
   -0.0628    3.0114   -1.8923 H   0  0  0  0  0  0  0  0  0  0  0  0
   -4.1244   -0.8037    0.8360 C   0  0  0  0  0  0  0  0  0  0  0  0
   -4.0353   -1.9003    0.9801 H   0  0  0  0  0  0  0  0  0  0  0  0
   -3.6890   -0.3371    1.7412 H   0  0  0  0  0  0  0  0  0  0  0  0
   -5.5679   -0.3773    0.5710 C   0  0  0  0  0  0  0  0  0  0  0  0
   -6.1320   -0.5412    1.5156 H   0  0  0  0  0  0  0  0  0  0  0  0
   -5.6080    0.7207    0.3935 H   0  0  0  0  0  0  0  0  0  0  0  0
   -6.2441   -1.1232   -0.5792 C   0  0  0  0  0  0  0  0  0  0  0  0
   -5.7003   -0.9661   -1.5328 H   0  0  0  0  0  0  0  0  0  0  0  0
   -7.2889   -0.7831   -0.7220 H   0  0  0  0  0  0  0  0  0  0  0  0
   -6.2664   -2.2158   -0.3872 H   0  0  0  0  0  0  0  0  0  0  0  0
  1 11  1  0  0  0  0
  1 36  1  0  0  0  0
  2  8  1  0  0  0  0
  4  3  1  0  0  0  0
  5  4  2  0  0  0  0
  6  5  1  0  0  0  0
  7  5  1  6  0  0  0
  7  2  1  0  0  0  0
  8  9  1  0  0  0  0
  8 10  1  0  0  0  0
 11 13  1  0  0  0  0
 11  8  1  0  0  0  0
 12 11  1  0  0  0  0
 14 15  1  0  0  0  0
 14  4  1  0  0  0  0
 15 16  1  0  0  0  0
 17 18  1  0  0  0  0
 17 15  2  0  0  0  0
 19 17  1  0  0  0  0
 20 19  1  0  0  0  0
 21 19  2  0  0  0  0
 21 23  1  0  0  0  0
 22 21  1  0  0  0  0
 23 14  2  0  0  0  0
 24 23  1  0  0  0  0
 25  7  1  0  0  0  0
 25 26  1  0  0  0  0
 26 27  1  0  0  0  0
 28 26  2  0  0  0  0
 28 29  1  0  0  0  0
 30 28  1  0  0  0  0
 31 30  1  0  0  0  0
 32 34  1  0  0  0  0
 32 30  2  0  0  0  0
 33 32  1  0  0  0  0
 34 25  2  0  0  0  0
 35 34  1  0  0  0  0
 36 37  1  0  0  0  0
 36 38  1  0  0  0  0
 39 36  1  0  0  0  0
 39 40  1  0  0  0  0
 41 39  1  0  0  0  0
 42 45  1  0  0  0  0
 42 39  1  0  0  0  0
 43 42  1  0  0  0  0
 44 42  1  0  0  0  0
M  CHG  1   3  -1
M  END
