1,2,5
q = -1.0, confidence = 0.018

 27 27  0  0  0  0  0  0  0  0999 V2000
    0.9785   -2.9840   -0.5079 S   0  0  0  0  0  1  0  0  0  0  0  0
   -1.4144    0.3365   -0.0410 O   0  5  0  0  0  0  0  0  0  0  0  0
    1.1287   -4.0059   -2.9878 N   0  0  0  0  0  0  0  0  0  0  0  0
   -0.2380   -2.1558   -2.7832 N   0  0  0  0  0  0  0  0  0  0  0  0
   -0.6871   -1.2515   -1.9046 N   0  0  0  0  0  2  0  0  0  0  0  0
   -2.6926    1.6657   -1.4434 N   0  0  0  0  0  0  0  0  0  0  0  0
    0.5726   -3.0417   -2.2045 C   0  0  0  0  0  0  0  0  0  0  0  0
   -1.4473   -0.2193   -2.3229 C   0  0  0  0  0  0  0  0  0  0  0  0
   -1.8377   -0.0190   -3.7529 C   0  0  0  0  0  0  0  0  0  0  0  0
   -1.8404    0.6115   -1.2128 C   0  0  0  0  0  0  0  0  0  0  0  0
   -3.2116    2.6162   -0.5535 C   0  0  0  0  0  0  0  0  0  0  0  0
   -2.9825    2.5822    0.8420 C   0  0  0  0  0  0  0  0  0  0  0  0
   -3.5432    3.5763    1.6548 C   0  0  0  0  0  0  0  0  0  0  0  0
   -4.3314    4.6050    1.1152 C   0  0  0  0  0  0  0  0  0  0  0  0
   -4.5607    4.6342   -0.2703 C   0  0  0  0  0  0  0  0  0  0  0  0
   -4.0073    3.6522   -1.0982 C   0  0  0  0  0  0  0  0  0  0  0  0
    0.7852   -4.1056   -3.9422 H   0  0  0  0  0  0  0  0  0  0  0  0
    1.6045   -4.7914   -2.5506 H   0  0  0  0  0  0  0  0  0  0  0  0
   -2.9169   -0.2280   -3.9279 H   0  0  0  0  0  0  0  0  0  0  0  0
   -1.2565   -0.7206   -4.3791 H   0  0  0  0  0  0  0  0  0  0  0  0
   -1.6278    1.0160   -4.0986 H   0  0  0  0  0  0  0  0  0  0  0  0
   -2.9755    1.7854   -2.4169 H   0  0  0  0  0  0  0  0  0  0  0  0
   -2.3728    1.7750    1.2629 H   0  0  0  0  0  0  0  0  0  0  0  0
   -3.3580    3.5391    2.7394 H   0  0  0  0  0  0  0  0  0  0  0  0
   -4.7657    5.3770    1.7674 H   0  0  0  0  0  0  0  0  0  0  0  0
   -5.1764    5.4309   -0.7148 H   0  0  0  0  0  0  0  0  0  0  0  0
   -4.1887    3.6825   -2.1852 H   0  0  0  0  0  0  0  0  0  0  0  0
  3 18  1  0  0  0  0
  3  7  1  0  0  0  0
  4  7  2  0  0  0  0
  4  5  1  0  0  0  0
  6 10  1  0  0  0  0
  6 11  1  0  0  0  0
  7  1  1  0  0  0  0
  8  5  1  0  0  0  0
  8 10  2  0  0  0  0
  9  8  1  0  0  0  0
 10  2  1  0  0  0  0
 11 12  1  0  0  0  0
 12 23  1  0  0  0  0
 12 13  2  0  0  0  0
 13 24  1  0  0  0  0
 14 13  1  0  0  0  0
 14 25  1  0  0  0  0
 15 14  2  0  0  0  0
 16 11  2  0  0  0  0
 16 15  1  0  0  0  0
 17  3  1  0  0  0  0
 19  9  1  0  0  0  0
 20  9  1  0  0  0  0
 21  9  1  0  0  0  0
 22  6  1  0  0  0  0
 26 15  1  0  0  0  0
 27 16  1  0  0  0  0
M  CHG  1   2  -1
M  END
