1,4,5
q = -1.0, confidence = 0.076

 52 55  0  0  0  0  0  0  0  0999 V2000
    1.5859    0.7195   -1.5456 S   0  0  0  0  0  0  0  0  0  0  0  0
   -1.9601    0.3298   -0.1201 P   0  0  0  0  0  4  0  0  0  0  0  0
    1.2855    1.8010    2.6440 O   0  0  0  0  0  0  0  0  0  0  0  0
   -1.1456   -0.6431   -1.0353 O   0  0  0  0  0  1  0  0  0  0  0  0
    0.6176    0.0990    1.2399 N   0  0  0  0  0  2  0  0  0  0  0  0
   -0.4658   -0.1504    2.1195 C   0  0  0  0  0  0  0  0  0  0  0  0
   -1.7945   -0.1007    1.6206 C   0  0  0  0  0  0  0  0  0  0  0  0
   -2.8955   -0.4307    2.4382 C   0  0  0  0  0  0  0  0  0  0  0  0
   -3.9133   -0.4061    2.0211 H   0  0  0  0  0  0  0  0  0  0  0  0
   -2.6833   -0.7878    3.7735 C   0  0  0  0  0  0  0  0  0  0  0  0
   -3.5364   -1.0480    4.4170 H   0  0  0  0  0  0  0  0  0  0  0  0
   -1.3715   -0.8167    4.2840 C   0  0  0  0  0  0  0  0  0  0  0  0
   -1.2010   -1.1002    5.3339 H   0  0  0  0  0  0  0  0  0  0  0  0
   -0.2763   -0.5007    3.4742 C   0  0  0  0  0  0  0  0  0  0  0  0
    0.7457   -0.5301    3.8747 H   0  0  0  0  0  0  0  0  0  0  0  0
    2.7800    1.2958    0.8842 C   0  0  0  0  0  0  0  0  0  0  0  0
    2.9840    1.1805   -0.5128 C   0  0  0  0  0  0  0  0  0  0  0  0
    4.2372    1.4688   -1.0813 C   0  0  0  0  0  0  0  0  0  0  0  0
    4.3911    1.3937   -2.1655 H   0  0  0  0  0  0  0  0  0  0  0  0
    5.3097    1.8570   -0.2663 C   0  0  0  0  0  0  0  0  0  0  0  0
    6.2890    2.0636   -0.7236 H   0  0  0  0  0  0  0  0  0  0  0  0
    5.1255    1.9862    1.1168 C   0  0  0  0  0  0  0  0  0  0  0  0
    5.9594    2.2972    1.7633 H   0  0  0  0  0  0  0  0  0  0  0  0
    3.8684    1.7238    1.6716 C   0  0  0  0  0  0  0  0  0  0  0  0
    3.6817    1.8490    2.7477 H   0  0  0  0  0  0  0  0  0  0  0  0
    1.4872    1.0795    1.6527 C   0  0  0  0  0  0  0  0  0  0  0  0
    2.3616    0.2363   -3.1170 C   0  0  0  0  0  0  0  0  0  0  0  0
    2.7511    1.1245   -3.6488 H   0  0  0  0  0  0  0  0  0  0  0  0
    3.1559   -0.5137   -2.9451 H   0  0  0  0  0  0  0  0  0  0  0  0
    1.5465   -0.2200   -3.7088 H   0  0  0  0  0  0  0  0  0  0  0  0
   -3.7086    0.2018   -0.5899 C   0  0  0  0  0  0  0  0  0  0  0  0
   -4.6263    1.2201   -0.2621 C   0  0  0  0  0  0  0  0  0  0  0  0
   -4.2792    2.1307    0.2505 H   0  0  0  0  0  0  0  0  0  0  0  0
   -5.9785    1.0697   -0.6008 C   0  0  0  0  0  0  0  0  0  0  0  0
   -6.6982    1.8623   -0.3466 H   0  0  0  0  0  0  0  0  0  0  0  0
   -6.4112   -0.0876   -1.2703 C   0  0  0  0  0  0  0  0  0  0  0  0
   -7.4727   -0.2007   -1.5382 H   0  0  0  0  0  0  0  0  0  0  0  0
   -5.4935   -1.0972   -1.6034 C   0  0  0  0  0  0  0  0  0  0  0  0
   -5.8338   -1.9998   -2.1330 H   0  0  0  0  0  0  0  0  0  0  0  0
   -4.1398   -0.9578   -1.2630 C   0  0  0  0  0  0  0  0  0  0  0  0
   -3.4030   -1.7340   -1.5188 H   0  0  0  0  0  0  0  0  0  0  0  0
   -1.4824    2.0681   -0.3578 C   0  0  0  0  0  0  0  0  0  0  0  0
   -1.5124    2.5728   -1.6757 C   0  0  0  0  0  0  0  0  0  0  0  0
   -1.8523    1.9300   -2.5026 H   0  0  0  0  0  0  0  0  0  0  0  0
   -1.0931    3.8845   -1.9284 C   0  0  0  0  0  0  0  0  0  0  0  0
   -1.1155    4.2785   -2.9558 H   0  0  0  0  0  0  0  0  0  0  0  0
   -0.6348    4.6915   -0.8724 C   0  0  0  0  0  0  0  0  0  0  0  0
   -0.2949    5.7186   -1.0748 H   0  0  0  0  0  0  0  0  0  0  0  0
   -0.6040    4.1883    0.4372 C   0  0  0  0  0  0  0  0  0  0  0  0
   -0.2293    4.8087    1.2646 H   0  0  0  0  0  0  0  0  0  0  0  0
   -1.0340    2.8790    0.7020 C   0  0  0  0  0  0  0  0  0  0  0  0
   -0.9755    2.4851    1.7271 H   0  0  0  0  0  0  0  0  0  0  0  0
  1 17  1  0  0  0  0
  2  7  1  0  0  0  0
  4  2  1  0  0  0  0
  5 26  1  0  0  0  0
  5  6  1  0  0  0  0
  6 14  1  0  0  0  0
  7  6  2  0  0  0  0
  7  8  1  0  0  0  0
  8 10  2  0  0  0  0
  9  8  1  0  0  0  0
 10 12  1  0  0  0  0
 10 11  1  0  0  0  0
 12 13  1  0  0  0  0
 14 15  1  0  0  0  0
 14 12  2  0  0  0  0
 16 26  1  0  0  0  0
 16 24  1  0  0  0  0
 17 16  2  0  0  0  0
 18 17  1  0  0  0  0
 18 20  2  0  0  0  0
 19 18  1  0  0  0  0
 20 22  1  0  0  0  0
 21 20  1  0  0  0  0
 22 24  2  0  0  0  0
 22 23  1  0  0  0  0
 24 25  1  0  0  0  0
 26  3  2  0  0  0  0
 27 29  1  0  0  0  0
 27  1  1  0  0  0  0
 28 27  1  0  0  0  0
 30 27  1  0  0  0  0
 31 32  1  0  0  0  0
 31  2  1  0  0  0  0
 32 33  1  0  0  0  0
 34 35  1  0  0  0  0
 34 32  2  0  0  0  0
 36 34  1  0  0  0  0
 37 36  1  0  0  0  0
 38 36  2  0  0  0  0
 38 40  1  0  0  0  0
 39 38  1  0  0  0  0
 40 31  2  0  0  0  0
 41 40  1  0  0  0  0
 42  2  1  0  0  0  0
 42 51  1  0  0  0  0
 43 42  2  0  0  0  0
 44 43  1  0  0  0  0
 45 43  1  0  0  0  0
 45 47  2  0  0  0  0
 46 45  1  0  0  0  0
 47 49  1  0  0  0  0
 48 47  1  0  0  0  0
 49 51  2  0  0  0  0
 49 50  1  0  0  0  0
 51 52  1  0  0  0  0
M  END
