1,2,3
q = -1.0, confidence = 0.076

 45 46  0  0  1  0  0  0  0  0999 V2000
    2.0441   -1.0824   -0.9715 S   0  0  0  0  0  0  0  0  0  0  0  0
   -2.3455   -0.5816   -0.6562 O   0  5  0  0  0  0  0  0  0  0  0  0
   -0.0808    0.9347   -0.3660 N   0  0  0  0  0  2  0  0  0  0  0  0
   -2.8858    0.1804    0.2541 C   0  0  0  0  0  0  0  0  0  0  0  0
    1.0422    1.5020   -0.9918 C   0  0  0  0  0  0  0  0  0  0  0  0
    2.7314   -1.2518    0.6766 C   0  0  0  0  0  0  0  0  0  0  0  0
    2.1522    0.6707   -1.2954 C   0  0  0  0  0  0  0  0  0  0  0  0
    3.2855    1.1772   -1.9439 C   0  0  0  0  0  0  0  0  0  0  0  0
    4.1255    0.5009   -2.1588 H   0  0  0  0  0  0  0  0  0  0  0  0
   -0.8246    1.5563    0.5383 C   0  0  1  0  0  3  0  0  0  0  0  0
   -4.3497   -0.1346    0.5502 C   0  0  0  0  0  0  0  0  0  0  0  0
    1.0773    2.8380   -1.4497 C   0  0  0  0  0  0  0  0  0  0  0  0
    0.1980    3.4779   -1.3044 H   0  0  0  0  0  0  0  0  0  0  0  0
    2.2077    3.3405   -2.1049 C   0  0  0  0  0  0  0  0  0  0  0  0
    2.2070    4.3848   -2.4514 H   0  0  0  0  0  0  0  0  0  0  0  0
   -2.1435    1.1641    0.9059 C   0  0  0  0  0  0  0  0  0  0  0  0
   -2.6280    1.7322    1.7047 H   0  0  0  0  0  0  0  0  0  0  0  0
   -4.9621    0.8196    1.5845 C   0  0  0  0  0  0  0  0  0  0  0  0
   -4.4464    0.7545    2.5635 H   0  0  0  0  0  0  0  0  0  0  0  0
   -6.0237    0.5497    1.7521 H   0  0  0  0  0  0  0  0  0  0  0  0
   -4.9350    1.8734    1.2410 H   0  0  0  0  0  0  0  0  0  0  0  0
    3.3245    2.5234   -2.3370 C   0  0  0  0  0  0  0  0  0  0  0  0
    4.2099    2.9198   -2.8548 H   0  0  0  0  0  0  0  0  0  0  0  0
   -4.3781   -1.5870    1.0897 C   0  0  0  0  0  0  0  0  0  0  0  0
   -3.9583   -2.2923    0.3470 H   0  0  0  0  0  0  0  0  0  0  0  0
   -5.4233   -1.8823    1.3121 H   0  0  0  0  0  0  0  0  0  0  0  0
   -3.7794   -1.6790    2.0178 H   0  0  0  0  0  0  0  0  0  0  0  0
    3.0082   -0.1579    1.5110 C   0  0  0  0  0  0  0  0  0  0  0  0
    2.8095    0.8676    1.1711 H   0  0  0  0  0  0  0  0  0  0  0  0
   -5.1363   -0.0533   -0.7770 C   0  0  0  0  0  0  0  0  0  0  0  0
   -5.1423    0.9814   -1.1756 H   0  0  0  0  0  0  0  0  0  0  0  0
   -6.1865   -0.3655   -0.6091 H   0  0  0  0  0  0  0  0  0  0  0  0
   -4.6898   -0.7173   -1.5414 H   0  0  0  0  0  0  0  0  0  0  0  0
    3.7599   -1.7048    3.2375 C   0  0  0  0  0  0  0  0  0  0  0  0
    4.1646   -1.8814    4.2452 H   0  0  0  0  0  0  0  0  0  0  0  0
    2.9535   -2.5708    1.1119 C   0  0  0  0  0  0  0  0  0  0  0  0
    2.7057   -3.4173    0.4534 H   0  0  0  0  0  0  0  0  0  0  0  0
    3.4673   -2.7907    2.3963 C   0  0  0  0  0  0  0  0  0  0  0  0
    3.6372   -3.8214    2.7421 H   0  0  0  0  0  0  0  0  0  0  0  0
    3.5290   -0.3942    2.7919 C   0  0  0  0  0  0  0  0  0  0  0  0
    3.7471    0.4604    3.4502 H   0  0  0  0  0  0  0  0  0  0  0  0
    1.0357    2.7896    1.4550 F   0  0  0  0  0  0  0  0  0  0  0  0
   -0.8142    2.7717    2.5839 F   0  0  0  0  0  0  0  0  0  0  0  0
   -0.6880    3.9515    0.7623 F   0  0  0  0  0  0  0  0  0  0  0  0
   -0.3075    2.7796    1.3322 C   0  0  0  0  0  0  0  0  0  0  0  0
  1  6  1  0  0  0  0
  2  4  1  0  0  0  0
  4 11  1  0  0  0  0
  4 16  2  0  0  0  0
  5  3  1  0  0  0  0
  6 36  2  0  0  0  0
  6 28  1  0  0  0  0
  7  5  1  0  0  0  0
  7  1  1  0  0  0  0
  8  7  2  0  0  0  0
  9  8  1  0  0  0  0
 10  3  1  1  0  0  0
 10 16  1  0  0  0  0
 10 45  1  0  0  0  0
 11 24  1  0  0  0  0
 11 18  1  0  0  0  0
 12 13  1  0  0  0  0
 12  5  2  0  0  0  0
 14 12  1  0  0  0  0
 15 14  1  0  0  0  0
 16 17  1  0  0  0  0
 18 20  1  0  0  0  0
 18 19  1  0  0  0  0
 21 18  1  0  0  0  0
 22 14  2  0  0  0  0
 22  8  1  0  0  0  0
 23 22  1  0  0  0  0
 24 26  1  0  0  0  0
 24 27  1  0  0  0  0
 25 24  1  0  0  0  0
 28 40  2  0  0  0  0
 29 28  1  0  0  0  0
 30 32  1  0  0  0  0
 30 11  1  0  0  0  0
 31 30  1  0  0  0  0
 33 30  1  0  0  0  0
 34 35  1  0  0  0  0
 36 38  1  0  0  0  0
 37 36  1  0  0  0  0
 38 39  1  0  0  0  0
 38 34  2  0  0  0  0
 40 34  1  0  0  0  0
 40 41  1  0  0  0  0
 44 45  1  0  0  0  0
 45 42  1  0  0  0  0
 45 43  1  0  0  0  0
M  CHG  1   2  -1
M  END
