1,2,6
q = -1.0, confidence = 0.004

 27 27  0  0  0  0  0  0  0  0999 V2000
    2.1254    2.2142    0.0970 S   0  0  0  0  0  1  0  0  0  0  0  0
   -0.0850   -1.1448    0.0221 O   0  5  0  0  0  0  0  0  0  0  0  0
   -4.6983    1.4765    0.7356 O   0  0  0  0  0  0  0  0  0  0  0  0
    1.0288    4.6654    0.0709 N   0  0  0  0  0  0  0  0  0  0  0  0
   -0.4747    2.9261   -0.0067 N   0  0  0  0  0  0  0  0  0  0  0  0
   -0.6035    1.5851   -0.0319 N   0  0  0  0  0  2  0  0  0  0  0  0
   -3.2120   -2.8102   -0.1392 N   0  0  0  0  0  0  0  0  0  0  0  0
    0.7879    3.3382    0.0476 C   0  0  0  0  0  0  0  0  0  0  0  0
   -2.3096   -0.1880   -0.1129 C   0  0  0  0  0  0  0  0  0  0  0  0
   -1.8688    1.1663   -0.0740 C   0  0  0  0  0  0  0  0  0  0  0  0
   -3.7107   -0.4817   -0.2195 C   0  0  0  0  0  0  0  0  0  0  0  0
   -4.7515    0.6044   -0.3785 C   0  0  0  0  0  0  0  0  0  0  0  0
   -4.1279   -1.8021   -0.2207 C   0  0  0  0  0  0  0  0  0  0  0  0
   -0.9544   -3.7912    0.0235 C   0  0  0  0  0  0  0  0  0  0  0  0
   -1.8731   -2.6203   -0.0564 C   0  0  0  0  0  0  0  0  0  0  0  0
   -1.3727   -1.2861   -0.0459 C   0  0  0  0  0  0  0  0  0  0  0  0
   -2.6253    1.9644   -0.0339 H   0  0  0  0  0  0  0  0  0  0  0  0
    0.2409    5.3137    0.0684 H   0  0  0  0  0  0  0  0  0  0  0  0
   -4.5460    1.1397   -1.3394 H   0  0  0  0  0  0  0  0  0  0  0  0
   -5.7519    0.1235   -0.4891 H   0  0  0  0  0  0  0  0  0  0  0  0
   -5.1820   -2.0999   -0.2880 H   0  0  0  0  0  0  0  0  0  0  0  0
    1.9782    5.0264    0.1348 H   0  0  0  0  0  0  0  0  0  0  0  0
   -5.3219    2.2084    0.5739 H   0  0  0  0  0  0  0  0  0  0  0  0
   -0.3942   -3.7787    0.9815 H   0  0  0  0  0  0  0  0  0  0  0  0
   -3.5525   -3.7771   -0.1403 H   0  0  0  0  0  0  0  0  0  0  0  0
   -0.1919   -3.7315   -0.7793 H   0  0  0  0  0  0  0  0  0  0  0  0
   -1.4929   -4.7545   -0.0595 H   0  0  0  0  0  0  0  0  0  0  0  0
  4 22  1  0  0  0  0
  5  8  2  0  0  0  0
  6  5  1  0  0  0  0
  7 15  1  0  0  0  0
  8  4  1  0  0  0  0
  8  1  1  0  0  0  0
  9 10  2  0  0  0  0
  9 16  1  0  0  0  0
 10 17  1  0  0  0  0
 10  6  1  0  0  0  0
 11  9  1  0  0  0  0
 12 11  1  0  0  0  0
 12  3  1  0  0  0  0
 13 11  2  0  0  0  0
 13  7  1  0  0  0  0
 14 24  1  0  0  0  0
 15 16  2  0  0  0  0
 15 14  1  0  0  0  0
 16  2  1  0  0  0  0
 18  4  1  0  0  0  0
 19 12  1  0  0  0  0
 20 12  1  0  0  0  0
 21 13  1  0  0  0  0
 23  3  1  0  0  0  0
 25  7  1  0  0  0  0
 26 14  1  0  0  0  0
 27 14  1  0  0  0  0
M  CHG  1   2  -1
M  END
