1,2,3
q = -2.0, confidence = 0.88

 25 26  0  0  0  0  0  0  0  0999 V2000
   -0.7528   -2.3717   -0.1185 S   0  0  0  0  0  1  0  0  0  0  0  0
   -0.6603    1.6620    0.0659 O   0  5  0  0  0  0  0  0  0  0  0  0
   -2.7306   -0.2840    0.0910 N   0  0  0  0  0  2  0  0  0  0  0  0
   -3.0241    2.1725    0.0662 C   0  0  0  0  0  0  0  0  0  0  0  0
   -1.6272    2.5357    0.0602 C   0  0  0  0  0  0  0  0  0  0  0  0
   -1.2924    3.9246    0.0453 C   0  0  0  0  0  0  0  0  0  0  0  0
   -0.2224    4.1792    0.0352 H   0  0  0  0  0  0  0  0  0  0  0  0
   -2.2792    4.9018    0.0357 C   0  0  0  0  0  0  0  0  0  0  0  0
   -1.9892    5.9642    0.0220 H   0  0  0  0  0  0  0  0  0  0  0  0
   -3.6544    4.5491    0.0413 C   0  0  0  0  0  0  0  0  0  0  0  0
   -4.4281    5.3304    0.0339 H   0  0  0  0  0  0  0  0  0  0  0  0
   -4.0079    3.2083    0.0548 C   0  0  0  0  0  3  0  0  0  0  0  0
   -5.0705    2.9155    0.0582 H   0  0  0  0  0  0  0  0  0  0  0  0
   -3.4669    0.8172    0.0780 C   0  0  0  0  0  0  0  0  0  0  0  0
   -4.5652    0.6958    0.0654 H   0  0  0  0  0  0  0  0  0  0  0  0
   -3.3536   -1.5606    0.1006 C   0  0  0  0  0  0  0  0  0  0  0  0
   -2.4776   -2.6725   -0.0153 C   0  0  0  0  0  0  0  0  0  0  0  0
   -3.0018   -3.9837   -0.0423 C   0  0  0  0  0  0  0  0  0  0  0  0
   -2.3071   -4.8317   -0.1390 H   0  0  0  0  0  0  0  0  0  0  0  0
   -4.3790   -4.1946    0.0614 C   0  0  0  0  0  0  0  0  0  0  0  0
   -4.7796   -5.2195    0.0446 H   0  0  0  0  0  0  0  0  0  0  0  0
   -5.2507   -3.0955    0.1982 C   0  0  0  0  0  0  0  0  0  0  0  0
   -6.3345   -3.2568    0.2956 H   0  0  0  0  0  0  0  0  0  0  0  0
   -4.7435   -1.7927    0.2185 C   0  0  0  0  0  0  0  0  0  0  0  0
   -5.4470   -0.9571    0.3397 H   0  0  0  0  0  0  0  0  0  0  0  0
  1 17  1  0  0  0  0
  3 16  1  0  0  0  0
  4 14  2  0  0  0  0
  5  2  1  0  0  0  0
  5  4  1  0  0  0  0
  6  5  2  0  0  0  0
  7  6  1  0  0  0  0
  8 10  2  0  0  0  0
  8  6  1  0  0  0  0
  9  8  1  0  0  0  0
 10 12  1  0  0  0  0
 11 10  1  0  0  0  0
 12 13  1  0  0  0  0
 12  4  1  0  0  0  0
 14  3  1  0  0  0  0
 15 14  1  0  0  0  0
 16 24  1  0  0  0  0
 17 16  2  0  0  0  0
 18 17  1  0  0  0  0
 18 20  2  0  0  0  0
 19 18  1  0  0  0  0
 20 22  1  0  0  0  0
 21 20  1  0  0  0  0
 22 24  2  0  0  0  0
 22 23  1  0  0  0  0
 24 25  1  0  0  0  0
M  CHG  1   2  -1
M  END
