2,3,4
q = -2.0, confidence = 0.91

 23 23  0  0  1  0  0  0  0  0999 V2000
   -6.8411   -0.7219    0.0405 Br  0  0  0  0  0  0  0  0  0  0  0  0
    1.8285    2.5851   -0.3991 S   0  0  0  0  0  1  0  0  0  0  0  0
   -0.8253   -0.4211   -0.4724 O   0  0  0  0  0  1  0  0  0  0  0  0
   -1.0150    2.3515   -0.1365 N   0  0  0  0  0  2  0  0  0  0  0  0
   -0.6390    3.6682   -0.1201 N   0  0  0  0  0  0  0  0  0  0  0  0
    1.1245    5.1637   -0.1291 N   0  0  0  0  0  0  0  0  0  0  0  0
    0.4357    5.9079   -0.2485 H   0  0  0  0  0  0  0  0  0  0  0  0
    2.0604    5.3419   -0.4900 H   0  0  0  0  0  0  0  0  0  0  0  0
   -2.1281   -0.3937   -0.3617 C   0  0  2  0  0  3  0  0  0  0  0  0
   -2.8083   -1.6419   -0.5108 C   0  0  0  0  0  0  0  0  0  0  0  0
   -2.1846   -2.5218   -0.7242 H   0  0  0  0  0  0  0  0  0  0  0  0
   -4.1873   -1.7507   -0.3976 C   0  0  0  0  0  0  0  0  0  0  0  0
   -4.6869   -2.7229   -0.5159 H   0  0  0  0  0  0  0  0  0  0  0  0
   -4.9431   -0.5889   -0.1266 C   0  0  0  0  0  0  0  0  0  0  0  0
   -4.3219    0.6457    0.0129 C   0  0  0  0  0  0  0  0  0  0  0  0
   -4.9478    1.5239    0.2089 H   0  0  0  0  0  0  0  0  0  0  0  0
   -2.9067    0.7924   -0.1054 C   0  0  0  0  0  0  0  0  0  0  0  0
   -2.3257    2.1201    0.0062 C   0  0  0  0  0  0  0  0  0  0  0  0
   -3.2508    3.2830    0.2728 C   0  0  0  0  0  0  0  0  0  0  0  0
   -2.6636    4.2057    0.3963 H   0  0  0  0  0  0  0  0  0  0  0  0
   -3.9594    3.4213   -0.5695 H   0  0  0  0  0  0  0  0  0  0  0  0
   -3.8546    3.0985    1.1834 H   0  0  0  0  0  0  0  0  0  0  0  0
    0.6495    3.8796   -0.2052 C   0  0  0  0  0  0  0  0  0  0  0  0
  2 23  1  0  0  0  0
  4  5  1  0  0  0  0
  4 18  1  0  0  0  0
  7  6  1  0  0  0  0
  8  6  1  0  0  0  0
  9  3  1  6  0  0  0
  9 17  1  0  0  0  0
 10 12  2  0  0  0  0
 10  9  1  0  0  0  0
 11 10  1  0  0  0  0
 12 14  1  0  0  0  0
 13 12  1  0  0  0  0
 14 15  2  0  0  0  0
 14  1  1  0  0  0  0
 15 16  1  0  0  0  0
 17 18  2  0  0  0  0
 17 15  1  0  0  0  0
 18 19  1  0  0  0  0
 19 20  1  0  0  0  0
 19 22  1  0  0  0  0
 21 19  1  0  0  0  0
 23  6  1  0  0  0  0
 23  5  2  0  0  0  0
M  END
