1,2,4
q = -2.0, confidence = 0.934

 34 35  0  0  1  0  0  0  0  0999 V2000
   -3.1657   -1.8756   -0.0070 S   0  0  0  0  0  1  0  0  0  0  0  0
   -0.5797    1.5937   -0.1524 O   0  0  0  0  0  1  0  0  0  0  0  0
    1.2792    3.3723   -0.3246 O   0  0  0  0  0  0  0  0  0  0  0  0
   -3.4547    1.0009   -0.0034 N   0  0  0  0  0  2  0  0  0  0  0  0
   -4.6747    0.3976    0.0816 N   0  0  0  0  0  0  0  0  0  0  0  0
   -5.7989   -1.6619    0.1596 N   0  0  0  0  0  0  0  0  0  0  0  0
   -5.6307   -2.6692    0.1547 H   0  0  0  0  0  0  0  0  0  0  0  0
   -3.4731    2.3205   -0.0200 C   0  0  0  0  0  0  0  0  0  0  0  0
   -4.4854    2.7594    0.0358 H   0  0  0  0  0  0  0  0  0  0  0  0
   -2.3726    3.2380   -0.1062 C   0  0  0  0  0  0  0  0  0  0  0  0
   -2.6911    4.6322   -0.1295 C   0  0  0  0  0  0  0  0  0  0  0  0
   -3.7507    4.9251   -0.0781 H   0  0  0  0  0  0  0  0  0  0  0  0
   -1.7017    5.5985   -0.2167 C   0  0  0  0  0  0  0  0  0  0  0  0
   -1.9655    6.6657   -0.2345 H   0  0  0  0  0  0  0  0  0  0  0  0
   -0.3398    5.2149   -0.2850 C   0  0  0  0  0  0  0  0  0  0  0  0
    0.4401    5.9852   -0.3564 H   0  0  0  0  0  0  0  0  0  0  0  0
    0.0057    3.8639   -0.2623 C   0  0  0  0  0  0  0  0  0  0  0  0
   -1.0008    2.8387   -0.1705 C   0  0  2  0  0  3  0  0  0  0  0  0
   -4.6463   -0.9142    0.0832 C   0  0  0  0  0  0  0  0  0  0  0  0
   -7.1475   -1.2912    0.2404 C   0  0  0  0  0  0  0  0  0  0  0  0
   -7.5964    0.0486    0.2610 C   0  0  0  0  0  0  0  0  0  0  0  0
   -6.8553    0.8543    0.2116 H   0  0  0  0  0  0  0  0  0  0  0  0
   -8.9700    0.3160    0.3440 C   0  0  0  0  0  0  0  0  0  0  0  0
   -9.3051    1.3647    0.3591 H   0  0  0  0  0  0  0  0  0  0  0  0
   -9.9144   -0.7201    0.4074 C   0  0  0  0  0  0  0  0  0  0  0  0
  -10.9890   -0.4945    0.4722 H   0  0  0  0  0  0  0  0  0  0  0  0
   -9.4665   -2.0515    0.3868 C   0  0  0  0  0  0  0  0  0  0  0  0
  -10.1885   -2.8810    0.4355 H   0  0  0  0  0  0  0  0  0  0  0  0
   -8.1003   -2.3370    0.3044 C   0  0  0  0  0  0  0  0  0  0  0  0
   -7.7564   -3.3842    0.2888 H   0  0  0  0  0  0  0  0  0  0  0  0
    2.3514    4.2840   -0.4647 C   0  0  0  0  0  0  0  0  0  0  0  0
    3.2736    3.6773   -0.5270 H   0  0  0  0  0  0  0  0  0  0  0  0
    2.4255    4.9716    0.4078 H   0  0  0  0  0  0  0  0  0  0  0  0
    2.2529    4.8936   -1.3909 H   0  0  0  0  0  0  0  0  0  0  0  0
  1 19  1  0  0  0  0
  3 17  1  0  0  0  0
  4  5  1  0  0  0  0
  5 19  2  0  0  0  0
  6 20  1  0  0  0  0
  7  6  1  0  0  0  0
  8  4  1  0  0  0  0
  8  9  1  0  0  0  0
 10  8  2  0  0  0  0
 11 10  1  0  0  0  0
 11 12  1  0  0  0  0
 13 11  2  0  0  0  0
 14 13  1  0  0  0  0
 15 17  2  0  0  0  0
 15 13  1  0  0  0  0
 16 15  1  0  0  0  0
 17 18  1  0  0  0  0
 18  2  1  6  0  0  0
 18 10  1  0  0  0  0
 19  6  1  0  0  0  0
 20 21  2  0  0  0  0
 20 29  1  0  0  0  0
 21 23  1  0  0  0  0
 22 21  1  0  0  0  0
 23 24  1  0  0  0  0
 23 25  2  0  0  0  0
 25 26  1  0  0  0  0
 27 25  1  0  0  0  0
 27 28  1  0  0  0  0
 29 27  2  0  0  0  0
 30 29  1  0  0  0  0
 31  3  1  0  0  0  0
 31 33  1  0  0  0  0
 32 31  1  0  0  0  0
 34 31  1  0  0  0  0
M  END
