1,3,6
q = -2.0, confidence = 0.944

 24 24  0  0  1  0  0  0  0  0999 V2000
    3.4591   -0.8572   -0.2332 S   0  0  0  0  0  1  0  0  0  0  0  0
    4.4846    1.9090   -0.0831 S   0  0  0  0  0  0  0  0  0  0  0  0
   -0.6200   -1.8419   -0.4667 O   0  5  0  0  0  0  0  0  0  0  0  0
   -6.3266    0.6750   -0.0114 O   0  0  0  0  0  0  0  0  0  0  0  0
   -5.1156    2.4655    0.3233 O   0  0  0  0  0  0  0  0  0  0  0  0
    0.8629    0.4704   -0.0723 N   0  0  0  0  0  2  0  0  0  0  0  0
    1.8881    1.3722   -0.0503 N   0  0  0  0  0  2  0  0  0  0  0  0
   -5.2338    1.2516    0.0995 N   0  0  0  0  0  0  0  0  0  0  0  0
    3.6831    3.5434   -0.0458 C   0  0  0  0  0  0  0  0  0  0  0  0
    3.0837    0.8238   -0.1040 C   0  0  1  0  0  3  0  0  0  0  0  0
   -0.3250    1.0236   -0.0025 C   0  0  0  0  0  3  0  0  0  0  0  0
   -1.5851    0.3287   -0.0647 C   0  0  0  0  0  0  0  0  0  0  0  0
   -2.7731    1.0745    0.0668 C   0  0  0  0  0  0  0  0  0  0  0  0
   -4.0227    0.4558   -0.0433 C   0  0  0  0  0  0  0  0  0  0  0  0
   -4.1238   -0.9319   -0.3008 C   0  0  0  0  0  0  0  0  0  0  0  0
   -2.9679   -1.6836   -0.4386 C   0  0  0  0  0  0  0  0  0  0  0  0
   -1.6626   -1.0981   -0.3192 C   0  0  0  0  0  0  0  0  0  0  0  0
    4.5029    4.2878   -0.0196 H   0  0  0  0  0  0  0  0  0  0  0  0
    3.0434    3.6404    0.8512 H   0  0  0  0  0  0  0  0  0  0  0  0
    3.0562    3.6921   -0.9451 H   0  0  0  0  0  0  0  0  0  0  0  0
   -0.3534    2.1274    0.0982 H   0  0  0  0  0  0  0  0  0  0  0  0
   -2.7385    2.1572    0.2534 H   0  0  0  0  0  0  0  0  0  0  0  0
   -5.1247   -1.3765   -0.3824 H   0  0  0  0  0  0  0  0  0  0  0  0
   -3.0058   -2.7644   -0.6372 H   0  0  0  0  0  0  0  0  0  0  0  0
  2  9  1  0  0  0  0
  3 17  1  0  0  0  0
  4  8  2  0  0  0  0
  6  7  1  0  0  0  0
  6 11  1  0  0  0  0
  8  5  2  0  0  0  0
  9 18  1  0  0  0  0
  9 19  1  0  0  0  0
 10  1  1  6  0  0  0
 10  2  1  0  0  0  0
 10  7  1  0  0  0  0
 11 21  1  0  0  0  0
 12 11  1  0  0  0  0
 12 13  1  0  0  0  0
 13 22  1  0  0  0  0
 14 13  2  0  0  0  0
 14  8  1  0  0  0  0
 15 14  1  0  0  0  0
 16 17  1  0  0  0  0
 16 15  2  0  0  0  0
 17 12  2  0  0  0  0
 20  9  1  0  0  0  0
 23 15  1  0  0  0  0
 24 16  1  0  0  0  0
M  CHG  1   3  -1
M  END
