1,4,5
q = -1.0, confidence = 0.0

 22 21  0  0  1  0  0  0  0  0999 V2000
    1.0092   -2.9013    1.5127 S   0  0  0  0  0  1  0  0  0  0  0  0
    3.4463   -2.2515    2.3584 N   0  0  0  0  0  0  0  0  0  0  0  0
    2.4623   -0.6673    1.0184 N   0  0  0  0  0  0  0  0  0  0  0  0
    1.4868   -0.2966    0.1616 N   0  0  0  0  0  2  0  0  0  0  0  0
   -0.5989    0.1303   -1.3762 O   0  5  0  0  0  0  0  0  0  0  0  0
    0.5132    1.8470   -2.3665 O   0  0  0  0  0  0  0  0  0  0  0  0
    5.5831    1.1347   -2.0687 O   0  0  0  0  0  0  0  0  0  0  0  0
    4.7825    0.3377   -0.1301 O   0  0  0  0  0  0  0  0  0  0  0  0
    2.3571   -1.8880    1.6364 C   0  0  1  0  0  3  0  0  0  0  0  0
    1.4812    0.8411   -0.4560 C   0  0  2  0  0  3  0  0  0  0  0  0
    0.3647    0.9713   -1.5002 C   0  0  0  0  0  0  0  0  0  0  0  0
    2.4269    1.9891   -0.2605 C   0  0  0  0  0  0  0  0  0  0  0  0
    3.5372    2.0745   -1.3114 C   0  0  0  0  0  0  0  0  0  0  0  0
    4.6594    1.0937   -1.0934 C   0  0  0  0  0  0  0  0  0  0  0  0
    3.3969   -0.2210    0.8782 H   0  0  0  0  0  0  0  0  0  0  0  0
    4.2224   -1.6084    2.5203 H   0  0  0  0  0  0  0  0  0  0  0  0
    3.3864   -3.1043    2.9115 H   0  0  0  0  0  0  0  0  0  0  0  0
    2.8580    1.9639    0.7619 H   0  0  0  0  0  0  0  0  0  0  0  0
    1.7934    2.8930   -0.3423 H   0  0  0  0  0  0  0  0  0  0  0  0
    3.9969    3.0866   -1.3255 H   0  0  0  0  0  0  0  0  0  0  0  0
    3.1018    1.9387   -2.3241 H   0  0  0  0  0  0  0  0  0  0  0  0
    6.2705    0.4766   -1.8236 H   0  0  0  0  0  0  0  0  0  0  0  0
  2 16  1  0  0  0  0
  2 17  1  0  0  0  0
  3  9  1  0  0  0  0
  4  3  1  0  0  0  0
  6 11  2  0  0  0  0
  7 22  1  0  0  0  0
  7 14  1  0  0  0  0
  9  1  1  6  0  0  0
  9  2  1  0  0  0  0
 10 11  1  6  0  0  0
 10 12  1  0  0  0  0
 10  4  1  0  0  0  0
 11  5  1  0  0  0  0
 12 18  1  0  0  0  0
 13 14  1  0  0  0  0
 13 12  1  0  0  0  0
 14  8  2  0  0  0  0
 15  3  1  0  0  0  0
 19 12  1  0  0  0  0
 20 13  1  0  0  0  0
 21 13  1  0  0  0  0
M  CHG  1   5  -1
M  END
