1,5,8
q = -2.0, confidence = 0.848

 45 46  0  0  1  0  0  0  0  0999 V2000
    2.1259   -1.5897   -0.0643 S   0  0  0  0  0  1  0  0  0  0  0  0
    2.6691    0.0366    0.4636 C   0  0  2  0  0  3  0  0  0  0  0  0
    2.0578    1.1677    0.1731 N   0  0  0  0  0  0  0  0  0  0  0  0
    0.7803    1.4090   -0.1126 C   0  0  0  0  0  0  0  0  0  0  0  0
   -0.2135    0.4771    0.0559 N   0  0  0  0  0  2  0  0  0  0  0  0
   -1.4565    0.9143    0.4795 N   0  0  0  0  0  0  0  0  0  0  0  0
   -2.2924   -0.0897    0.4634 C   0  0  0  0  0  0  0  0  0  0  0  0
   -1.8801   -1.3057    0.0663 O   0  5  0  0  0  0  0  0  0  0  0  0
    3.8148    0.0905    1.1907 N   0  0  0  0  0  0  0  0  0  0  0  0
    4.6036   -1.1000    1.5174 C   0  0  0  0  0  0  0  0  0  0  0  0
    3.9056   -1.9490    1.6673 H   0  0  0  0  0  0  0  0  0  0  0  0
    5.0911   -0.9069    2.4950 H   0  0  0  0  0  0  0  0  0  0  0  0
    5.6399   -1.4483    0.4492 C   0  0  0  0  0  0  0  0  0  0  0  0
    6.2283   -2.3338    0.7619 H   0  0  0  0  0  0  0  0  0  0  0  0
    6.3455   -0.6102    0.2785 H   0  0  0  0  0  0  0  0  0  0  0  0
    5.1427   -1.6880   -0.5116 H   0  0  0  0  0  0  0  0  0  0  0  0
    4.3108    1.3896    1.6604 C   0  0  0  0  0  0  0  0  0  0  0  0
    4.1157    2.1302    0.8596 H   0  0  0  0  0  0  0  0  0  0  0  0
    5.4098    1.2961    1.7741 H   0  0  0  0  0  0  0  0  0  0  0  0
    3.6618    1.8397    2.9681 C   0  0  0  0  0  0  0  0  0  0  0  0
    4.0877    2.8095    3.2947 H   0  0  0  0  0  0  0  0  0  0  0  0
    3.8287    1.1027    3.7796 H   0  0  0  0  0  0  0  0  0  0  0  0
    2.5698    1.9702    2.8354 H   0  0  0  0  0  0  0  0  0  0  0  0
    0.4447    2.7692   -0.5951 C   0  0  0  0  0  0  0  0  0  0  0  0
   -0.6919    3.0051   -1.4025 C   0  0  0  0  0  0  0  0  0  0  0  0
   -1.3622    2.1735   -1.6561 H   0  0  0  0  0  0  0  0  0  0  0  0
   -0.9523    4.2887   -1.8948 C   0  0  0  0  0  0  0  0  0  0  0  0
   -1.8331    4.4577   -2.5321 H   0  0  0  0  0  0  0  0  0  0  0  0
   -0.0941    5.3564   -1.5812 C   0  0  0  0  0  0  0  0  0  0  0  0
   -0.3075    6.3661   -1.9638 H   0  0  0  0  0  0  0  0  0  0  0  0
    1.0378    5.1310   -0.7805 C   0  0  0  0  0  0  0  0  0  0  0  0
    1.7121    5.9640   -0.5306 H   0  0  0  0  0  0  0  0  0  0  0  0
    1.3092    3.8462   -0.2964 C   0  0  0  0  0  0  0  0  0  0  0  0
    2.1901    3.6549    0.3318 H   0  0  0  0  0  0  0  0  0  0  0  0
   -3.6932    0.0507    0.8890 C   0  0  0  0  0  0  0  0  0  0  0  0
   -4.5432   -1.0761    0.8908 C   0  0  0  0  0  0  0  0  0  0  0  0
   -4.1351   -2.0474    0.5770 H   0  0  0  0  0  0  0  0  0  0  0  0
   -5.8797   -0.9433    1.2903 C   0  0  0  0  0  0  0  0  0  0  0  0
   -6.5392   -1.8244    1.2905 H   0  0  0  0  0  0  0  0  0  0  0  0
   -6.3770    0.3075    1.6900 C   0  0  0  0  0  0  0  0  0  0  0  0
   -7.4274    0.4088    2.0032 H   0  0  0  0  0  0  0  0  0  0  0  0
   -5.5314    1.4317    1.6902 C   0  0  0  0  0  0  0  0  0  0  0  0
   -5.9198    2.4127    2.0036 H   0  0  0  0  0  0  0  0  0  0  0  0
   -4.1960    1.3084    1.2928 C   0  0  0  0  0  0  0  0  0  0  0  0
   -3.5194    2.1751    1.2865 H   0  0  0  0  0  0  0  0  0  0  0  0
  2  1  1  6  0  0  0
  2  9  1  0  0  0  0
  3  2  1  0  0  0  0
  4  5  1  0  0  0  0
  4  3  2  0  0  0  0
  5  6  1  0  0  0  0
  7  6  2  0  0  0  0
  7 35  1  0  0  0  0
  8  7  1  0  0  0  0
  9 10  1  0  0  0  0
  9 17  1  0  0  0  0
 10 11  1  0  0  0  0
 10 12  1  0  0  0  0
 13 14  1  0  0  0  0
 13 10  1  0  0  0  0
 15 13  1  0  0  0  0
 16 13  1  0  0  0  0
 17 19  1  0  0  0  0
 17 20  1  0  0  0  0
 18 17  1  0  0  0  0
 20 21  1  0  0  0  0
 20 22  1  0  0  0  0
 23 20  1  0  0  0  0
 24 33  1  0  0  0  0
 24  4  1  0  0  0  0
 25 24  2  0  0  0  0
 26 25  1  0  0  0  0
 27 29  2  0  0  0  0
 27 25  1  0  0  0  0
 28 27  1  0  0  0  0
 29 31  1  0  0  0  0
 30 29  1  0  0  0  0
 31 32  1  0  0  0  0
 31 33  2  0  0  0  0
 33 34  1  0  0  0  0
 35 36  2  0  0  0  0
 35 44  1  0  0  0  0
 36 38  1  0  0  0  0
 37 36  1  0  0  0  0
 38 39  1  0  0  0  0
 38 40  2  0  0  0  0
 40 42  1  0  0  0  0
 40 41  1  0  0  0  0
 42 43  1  0  0  0  0
 44 42  2  0  0  0  0
 45 44  1  0  0  0  0
M  CHG  1   8  -1
M  END
