1,2,4
q = -1.0, confidence = 0.018

 40 42  0  0  1  0  0  0  0  0999 V2000
   -2.8632    0.0607   -0.8733 S   0  0  0  0  0  0  0  0  0  0  0  0
    0.7560   -2.1287   -0.1742 O   0  5  0  0  0  0  0  0  0  0  0  0
    1.2460    0.8313   -0.1206 N   0  0  0  0  0  0  0  0  0  0  0  0
   -0.0121    0.6484   -0.2965 N   0  0  0  0  0  2  0  0  0  0  0  0
    2.1730   -0.1398   -0.0216 C   0  0  0  0  0  0  0  0  0  0  0  0
    1.9070   -1.5777   -0.0347 C   0  0  0  0  0  0  0  0  0  0  0  0
    3.0281   -2.4740    0.1371 C   0  0  0  0  0  0  0  0  0  0  0  0
    2.7906   -3.5471    0.1308 H   0  0  0  0  0  0  0  0  0  0  0  0
    4.3094   -2.0131    0.2927 C   0  0  0  0  0  0  0  0  0  0  0  0
    5.1368   -2.7300    0.4165 H   0  0  0  0  0  0  0  0  0  0  0  0
    5.9514   -0.1492    0.4530 C   0  0  0  0  0  0  0  0  0  0  0  0
    6.7545   -0.8931    0.5728 H   0  0  0  0  0  0  0  0  0  0  0  0
    6.2425    1.2121    0.4537 C   0  0  0  0  0  0  0  0  0  0  0  0
    7.2794    1.5591    0.5746 H   0  0  0  0  0  0  0  0  0  0  0  0
    5.1934    2.1444    0.2947 C   0  0  0  0  0  0  0  0  0  0  0  0
    5.4152    3.2226    0.2907 H   0  0  0  0  0  0  0  0  0  0  0  0
    3.8765    1.7134    0.1392 C   0  0  0  0  0  0  0  0  0  0  0  0
    3.0646    2.4407    0.0089 H   0  0  0  0  0  0  0  0  0  0  0  0
    3.5532    0.3341    0.1393 C   0  0  2  0  0  3  0  0  0  0  0  0
    4.6184   -0.6093    0.2973 C   0  0  0  0  0  0  0  0  0  0  0  0
   -0.8088    1.8295   -0.3380 C   0  0  0  0  0  0  0  0  0  0  0  0
   -2.2005    1.7010   -0.5623 C   0  0  0  0  0  0  0  0  0  0  0  0
   -3.0307    2.8315   -0.6149 C   0  0  0  0  0  0  0  0  0  0  0  0
   -4.1056    2.7067   -0.8153 H   0  0  0  0  0  0  0  0  0  0  0  0
   -2.4870    4.1069   -0.4146 C   0  0  0  0  0  0  0  0  0  0  0  0
   -3.1374    4.9931   -0.4448 H   0  0  0  0  0  0  0  0  0  0  0  0
   -1.1045    4.2427   -0.1876 C   0  0  0  0  0  0  0  0  0  0  0  0
   -0.6699    5.2420   -0.0351 H   0  0  0  0  0  0  0  0  0  0  0  0
   -0.2698    3.1227   -0.1538 C   0  0  0  0  0  0  0  0  0  0  0  0
    0.8084    3.2167    0.0245 H   0  0  0  0  0  0  0  0  0  0  0  0
   -3.9369   -0.2350    0.5996 C   0  0  0  0  0  0  0  0  0  0  0  0
   -4.8185    0.4289    0.4765 H   0  0  0  0  0  0  0  0  0  0  0  0
   -4.2483   -1.2864    0.4253 H   0  0  0  0  0  0  0  0  0  0  0  0
   -3.2507   -0.0649    1.9474 C   0  0  0  0  0  0  0  0  0  0  0  0
   -2.3919   -0.7689    1.9874 H   0  0  0  0  0  0  0  0  0  0  0  0
   -2.8294    0.9603    2.0256 H   0  0  0  0  0  0  0  0  0  0  0  0
   -4.2140   -0.3322    3.1063 C   0  0  0  0  0  0  0  0  0  0  0  0
   -5.0727    0.3711    3.0975 H   0  0  0  0  0  0  0  0  0  0  0  0
   -3.6984   -0.2183    4.0804 H   0  0  0  0  0  0  0  0  0  0  0  0
   -4.6215   -1.3628    3.0616 H   0  0  0  0  0  0  0  0  0  0  0  0
  1 22  1  0  0  0  0
  1 31  1  0  0  0  0
  2  6  1  0  0  0  0
  3  5  2  0  0  0  0
  4  3  1  0  0  0  0
  6  5  1  0  0  0  0
  6  7  2  0  0  0  0
  7  9  1  0  0  0  0
  8  7  1  0  0  0  0
  9 20  2  0  0  0  0
  9 10  1  0  0  0  0
 11 13  2  0  0  0  0
 11 12  1  0  0  0  0
 13 14  1  0  0  0  0
 15 13  1  0  0  0  0
 16 15  1  0  0  0  0
 17 19  1  0  0  0  0
 17 15  2  0  0  0  0
 18 17  1  0  0  0  0
 19  5  1  6  0  0  0
 19 20  1  0  0  0  0
 20 11  1  0  0  0  0
 21  4  1  0  0  0  0
 21 29  1  0  0  0  0
 22 21  2  0  0  0  0
 23 22  1  0  0  0  0
 23 25  2  0  0  0  0
 24 23  1  0  0  0  0
 25 27  1  0  0  0  0
 26 25  1  0  0  0  0
 27 29  2  0  0  0  0
 27 28  1  0  0  0  0
 29 30  1  0  0  0  0
 31 34  1  0  0  0  0
 32 31  1  0  0  0  0
 33 31  1  0  0  0  0
 34 35  1  0  0  0  0
 34 36  1  0  0  0  0
 34 37  1  0  0  0  0
 37 39  1  0  0  0  0
 38 37  1  0  0  0  0
 40 37  1  0  0  0  0
M  CHG  1   2  -1
M  END
