1,2,3
q = -2.0, confidence = 0.958

 32 32  0  0  1  0  0  0  0  0999 V2000
    1.1409    3.1394   -0.0925 S   0  0  0  0  0  1  0  0  0  0  0  0
   -1.2026   -0.4978   -0.1340 O   0  0  0  0  0  1  0  0  0  0  0  0
   -1.6734    2.4275    0.0078 N   0  0  0  0  0  2  0  0  0  0  0  0
   -1.5221    3.7831    0.0017 N   0  0  0  0  0  0  0  0  0  0  0  0
   -0.0315    5.5476    0.0427 N   0  0  0  0  0  0  0  0  0  0  0  0
    0.8726    5.8791   -0.2894 H   0  0  0  0  0  0  0  0  0  0  0  0
   -0.8327    6.1594   -0.1180 H   0  0  0  0  0  0  0  0  0  0  0  0
   -0.2799    4.2003   -0.0251 C   0  0  0  0  0  0  0  0  0  0  0  0
   -2.9039    1.9677    0.0972 C   0  0  0  0  0  0  0  0  0  0  0  0
   -3.6795    2.7527    0.1698 H   0  0  0  0  0  0  0  0  0  0  0  0
   -3.3560    0.6044    0.1225 C   0  0  0  0  0  0  0  0  0  0  0  0
   -2.5051   -0.5616    0.0054 C   0  0  1  0  0  3  0  0  0  0  0  0
   -3.1203   -1.8747    0.0327 C   0  0  0  0  0  0  0  0  0  0  0  0
   -4.5066   -1.9609    0.1891 C   0  0  0  0  0  0  0  0  0  0  0  0
   -4.9796   -2.9518    0.2161 H   0  0  0  0  0  0  0  0  0  0  0  0
   -5.3373   -0.8253    0.3119 C   0  0  0  0  0  0  0  0  0  0  0  0
   -6.4236   -0.9453    0.4332 H   0  0  0  0  0  0  0  0  0  0  0  0
   -4.7632    0.4337    0.2722 C   0  0  0  0  0  0  0  0  0  0  0  0
   -5.3898    1.3353    0.3596 H   0  0  0  0  0  0  0  0  0  0  0  0
   -2.2554   -3.1399   -0.1351 C   0  0  0  0  0  0  0  0  0  0  0  0
   -3.0888   -4.4319   -0.0494 C   0  0  0  0  0  0  0  0  0  0  0  0
   -2.4212   -5.3084   -0.1754 H   0  0  0  0  0  0  0  0  0  0  0  0
   -3.8590   -4.4854   -0.8451 H   0  0  0  0  0  0  0  0  0  0  0  0
   -3.5952   -4.5366    0.9316 H   0  0  0  0  0  0  0  0  0  0  0  0
   -1.1875   -3.2084    0.9830 C   0  0  0  0  0  0  0  0  0  0  0  0
   -0.5356   -4.0967    0.8404 H   0  0  0  0  0  0  0  0  0  0  0  0
   -1.6699   -3.2970    1.9776 H   0  0  0  0  0  0  0  0  0  0  0  0
   -0.5639   -2.2966    0.9836 H   0  0  0  0  0  0  0  0  0  0  0  0
   -1.5852   -3.1102   -1.5295 C   0  0  0  0  0  0  0  0  0  0  0  0
   -0.9032   -3.9780   -1.6537 H   0  0  0  0  0  0  0  0  0  0  0  0
   -1.0102   -2.1776   -1.6731 H   0  0  0  0  0  0  0  0  0  0  0  0
   -2.3529   -3.1643   -2.3278 H   0  0  0  0  0  0  0  0  0  0  0  0
  1  8  1  0  0  0  0
  3  9  1  0  0  0  0
  4  3  1  0  0  0  0
  6  5  1  0  0  0  0
  7  5  1  0  0  0  0
  8  4  2  0  0  0  0
  8  5  1  0  0  0  0
  9 11  2  0  0  0  0
  9 10  1  0  0  0  0
 11 18  1  0  0  0  0
 12  2  1  6  0  0  0
 12 13  1  0  0  0  0
 12 11  1  0  0  0  0
 13 14  2  0  0  0  0
 14 15  1  0  0  0  0
 14 16  1  0  0  0  0
 16 17  1  0  0  0  0
 18 16  2  0  0  0  0
 18 19  1  0  0  0  0
 20 21  1  0  0  0  0
 20 13  1  0  0  0  0
 20 25  1  0  0  0  0
 21 24  1  0  0  0  0
 22 21  1  0  0  0  0
 23 21  1  0  0  0  0
 25 28  1  0  0  0  0
 25 27  1  0  0  0  0
 26 25  1  0  0  0  0
 29 20  1  0  0  0  0
 30 29  1  0  0  0  0
 31 29  1  0  0  0  0
 32 29  1  0  0  0  0
M  END
