1,2,4
q = -1.0, confidence = 0.002

 22 22  0  0  1  0  0  0  0  0999 V2000
   -1.1035    2.7299   -0.1743 S   0  0  0  0  0  1  0  0  0  0  0  0
    1.6071   -0.2508   -0.1716 O   0  0  0  0  0  1  0  0  0  0  0  0
    2.8638   -2.5537   -0.2872 O   0  0  0  0  0  0  0  0  0  0  0  0
    1.7307    2.4958    0.0394 N   0  0  0  0  0  2  0  0  0  0  0  0
    1.3027    3.8064    0.0430 N   0  0  0  0  0  0  0  0  0  0  0  0
   -0.4616    5.3357   -0.0499 N   0  0  0  0  0  0  0  0  0  0  0  0
    2.9167   -0.1759   -0.0641 C   0  0  1  0  0  3  0  0  0  0  0  0
    3.6018   -1.4373   -0.1241 C   0  0  0  0  0  0  0  0  0  0  0  0
    4.9904   -1.4772   -0.0130 C   0  0  0  0  0  0  0  0  0  0  0  0
    5.4909   -2.4555   -0.0563 H   0  0  0  0  0  0  0  0  0  0  0  0
    5.7376   -0.2818    0.1487 C   0  0  0  0  0  0  0  0  0  0  0  0
    6.8319   -0.3418    0.2338 H   0  0  0  0  0  0  0  0  0  0  0  0
    5.1050    0.9493    0.1960 C   0  0  0  0  0  0  0  0  0  0  0  0
    5.6847    1.8767    0.3151 H   0  0  0  0  0  0  0  0  0  0  0  0
    3.6775    1.0285    0.0881 C   0  0  0  0  0  0  0  0  0  0  0  0
    3.0400    2.2960    0.1172 C   0  0  0  0  0  0  0  0  0  0  0  0
    3.6930    3.1870    0.2064 H   0  0  0  0  0  0  0  0  0  0  0  0
   -0.0179    4.0626   -0.0504 C   0  0  1  0  0  3  0  0  0  0  0  0
    1.9277   -2.2556   -0.3673 H   0  0  0  0  0  0  0  0  0  0  0  0
    2.0108    4.5476    0.1122 H   0  0  0  0  0  0  0  0  0  0  0  0
   -1.4634    5.5068   -0.1329 H   0  0  0  0  0  0  0  0  0  0  0  0
    0.1588    6.1441   -0.0086 H   0  0  0  0  0  0  0  0  0  0  0  0
  3  8  1  0  0  0  0
  4  5  1  0  0  0  0
  4 16  1  0  0  0  0
  5 20  1  0  0  0  0
  6 22  1  0  0  0  0
  7  2  1  6  0  0  0
  7 15  1  0  0  0  0
  8  7  1  0  0  0  0
  8  9  2  0  0  0  0
  9 11  1  0  0  0  0
 10  9  1  0  0  0  0
 11 13  2  0  0  0  0
 11 12  1  0  0  0  0
 13 14  1  0  0  0  0
 15 16  2  0  0  0  0
 15 13  1  0  0  0  0
 16 17  1  0  0  0  0
 18  1  1  6  0  0  0
 18  6  1  0  0  0  0
 18  5  1  0  0  0  0
 19  3  1  0  0  0  0
 21  6  1  0  0  0  0
M  END
