3,4,5
q = -1.0, confidence = 0.056

 40 41  0  0  1  0  0  0  0  0999 V2000
    4.3080   -0.9178    0.2415 Br  0  0  0  0  0  0  0  0  0  0  0  0
    5.9427    4.3576   -0.4214 Cl  0  0  0  0  0  0  0  0  0  0  0  0
   -2.3297    0.5247    0.1759 S   0  0  0  0  0  1  0  0  0  0  0  0
    1.6576    0.3847    0.2474 O   0  5  0  0  0  0  0  0  0  0  0  0
   -0.1659    2.4166    0.0781 N   0  0  0  0  0  2  0  0  0  0  0  0
   -1.4128    3.0065    0.1270 N   0  0  0  0  0  0  0  0  0  0  0  0
   -1.4631    4.0296    0.1160 H   0  0  0  0  0  0  0  0  0  0  0  0
   -3.7387    2.8156    0.2122 N   0  0  0  0  0  0  0  0  0  0  0  0
   -3.8106    3.8342    0.1384 H   0  0  0  0  0  0  0  0  0  0  0  0
    2.5428    1.3292    0.1087 C   0  0  0  0  0  0  0  0  0  0  0  0
    3.9246    0.9285    0.0737 C   0  0  0  0  0  0  0  0  0  0  0  0
    4.9587    1.8403   -0.0769 C   0  0  0  0  0  0  0  0  0  0  0  0
    6.0033    1.5026   -0.1051 H   0  0  0  0  0  0  0  0  0  0  0  0
    4.6490    3.2156   -0.2031 C   0  0  0  0  0  0  0  0  0  0  0  0
    3.3341    3.6540   -0.1578 C   0  0  0  0  0  3  0  0  0  0  0  0
    3.1609    4.7292   -0.2773 H   0  0  0  0  0  0  0  0  0  0  0  0
    2.2456    2.7416    0.0064 C   0  0  0  0  0  0  0  0  0  0  0  0
    0.8882    3.2433    0.0753 C   0  0  0  0  0  0  0  0  0  0  0  0
    0.6185    4.7275    0.1462 C   0  0  0  0  0  0  0  0  0  0  0  0
   -0.0087    4.9717    1.0308 H   0  0  0  0  0  0  0  0  0  0  0  0
    0.1001    5.0954   -0.7665 H   0  0  0  0  0  0  0  0  0  0  0  0
    1.5382    5.3197    0.2551 H   0  0  0  0  0  0  0  0  0  0  0  0
   -2.5266    2.2357    0.1671 C   0  0  2  0  0  3  0  0  0  0  0  0
   -5.0027    2.0641    0.2235 C   0  0  0  0  0  0  0  0  0  0  0  0
   -4.8061    1.1439    0.8185 H   0  0  0  0  0  0  0  0  0  0  0  0
   -6.0894    2.8803    0.9322 C   0  0  0  0  0  0  0  0  0  0  0  0
   -6.2387    3.8357    0.3771 H   0  0  0  0  0  0  0  0  0  0  0  0
   -5.7549    3.1456    1.9567 H   0  0  0  0  0  0  0  0  0  0  0  0
   -7.4137    2.1046    0.9733 C   0  0  0  0  0  0  0  0  0  0  0  0
   -7.2864    1.2107    1.6235 H   0  0  0  0  0  0  0  0  0  0  0  0
   -8.1950    2.7277    1.4534 H   0  0  0  0  0  0  0  0  0  0  0  0
   -7.8565    1.6590   -0.4262 C   0  0  0  0  0  0  0  0  0  0  0  0
   -8.1051    2.5560   -1.0363 H   0  0  0  0  0  0  0  0  0  0  0  0
   -8.7883    1.0615   -0.3596 H   0  0  0  0  0  0  0  0  0  0  0  0
   -6.7566    0.8572   -1.1337 C   0  0  0  0  0  0  0  0  0  0  0  0
   -7.0714    0.5799   -2.1602 H   0  0  0  0  0  0  0  0  0  0  0  0
   -6.5841   -0.0995   -0.5910 H   0  0  0  0  0  0  0  0  0  0  0  0
   -5.4395    1.6421   -1.1897 C   0  0  0  0  0  0  0  0  0  0  0  0
   -4.6361    1.0379   -1.6591 H   0  0  0  0  0  0  0  0  0  0  0  0
   -5.5689    2.5575   -1.8092 H   0  0  0  0  0  0  0  0  0  0  0  0
  2 14  1  0  0  0  0
  5  6  1  0  0  0  0
  6 23  1  0  0  0  0
  7  6  1  0  0  0  0
  8 24  1  0  0  0  0
  9  8  1  0  0  0  0
 10  4  1  0  0  0  0
 11 10  2  0  0  0  0
 11  1  1  0  0  0  0
 12 11  1  0  0  0  0
 13 12  1  0  0  0  0
 14 15  1  0  0  0  0
 14 12  2  0  0  0  0
 15 17  1  0  0  0  0
 16 15  1  0  0  0  0
 17 18  2  0  0  0  0
 17 10  1  0  0  0  0
 18  5  1  0  0  0  0
 18 19  1  0  0  0  0
 19 22  1  0  0  0  0
 19 20  1  0  0  0  0
 21 19  1  0  0  0  0
 23  3  1  1  0  0  0
 23  8  1  0  0  0  0
 24 25  1  0  0  0  0
 24 26  1  0  0  0  0
 26 29  1  0  0  0  0
 26 28  1  0  0  0  0
 27 26  1  0  0  0  0
 29 31  1  0  0  0  0
 29 30  1  0  0  0  0
 32 34  1  0  0  0  0
 32 29  1  0  0  0  0
 33 32  1  0  0  0  0
 35 37  1  0  0  0  0
 35 32  1  0  0  0  0
 36 35  1  0  0  0  0
 38 35  1  0  0  0  0
 38 24  1  0  0  0  0
 39 38  1  0  0  0  0
 40 38  1  0  0  0  0
M  CHG  1   4  -1
M  END
