3,4,5
q = -2.0, confidence = 0.992

 41 41  0  0  1  0  0  0  0  0999 V2000
    2.5769    3.1387   -0.8997 Br  0  0  0  0  0  0  0  0  0  0  0  0
   -1.6350    6.2985    0.9188 Cl  0  0  0  0  0  0  0  0  0  0  0  0
   -0.7816   -2.6827    0.3876 S   0  0  0  0  0  1  0  0  0  0  0  0
    0.5012    1.0105   -0.5773 O   0  0  0  0  0  1  0  0  0  0  0  0
   -1.9238   -0.0835    0.1981 N   0  0  0  0  0  2  0  0  0  0  0  0
   -2.9201   -1.0110    0.3077 N   0  0  0  0  0  0  0  0  0  0  0  0
   -3.3950   -3.2531    0.6114 N   0  0  0  0  0  0  0  0  0  0  0  0
   -3.0396   -4.2056    0.5342 H   0  0  0  0  0  0  0  0  0  0  0  0
   -0.0336    2.1534   -0.2473 C   0  0  1  0  0  3  0  0  0  0  0  0
    0.7758    3.3342   -0.3213 C   0  0  0  0  0  0  0  0  0  0  0  0
    0.3038    4.5987    0.0195 C   0  0  0  0  0  0  0  0  0  0  0  0
    0.9597    5.4771   -0.0364 H   0  0  0  0  0  0  0  0  0  0  0  0
   -1.0317    4.7229    0.4508 C   0  0  0  0  0  0  0  0  0  0  0  0
   -1.8691    3.6130    0.5119 C   0  0  0  0  0  0  0  0  0  0  0  0
   -2.8971    3.7606    0.8630 H   0  0  0  0  0  0  0  0  0  0  0  0
   -1.4086    2.3138    0.1599 C   0  0  0  0  0  0  0  0  0  0  0  0
   -2.3350    1.1876    0.2063 C   0  0  0  0  0  0  0  0  0  0  0  0
   -3.8193    1.4316    0.3032 C   0  0  0  0  0  0  0  0  0  0  0  0
   -4.1952    1.1831    1.3182 H   0  0  0  0  0  0  0  0  0  0  0  0
   -4.3475    0.7416   -0.3810 H   0  0  0  0  0  0  0  0  0  0  0  0
   -4.0909    2.4716    0.0593 H   0  0  0  0  0  0  0  0  0  0  0  0
   -2.4902   -2.2513    0.4175 C   0  0  0  0  0  0  0  0  0  0  0  0
   -4.8284   -3.0210    0.5629 C   0  0  0  0  0  0  0  0  0  0  0  0
   -5.0175   -2.0720    1.1027 H   0  0  0  0  0  0  0  0  0  0  0  0
   -5.3315   -3.8320    1.1307 H   0  0  0  0  0  0  0  0  0  0  0  0
   -5.3986   -2.9326   -0.8619 C   0  0  0  0  0  0  0  0  0  0  0  0
   -5.2987   -3.9249   -1.3523 H   0  0  0  0  0  0  0  0  0  0  0  0
   -4.7673   -2.2256   -1.4411 H   0  0  0  0  0  0  0  0  0  0  0  0
   -6.8597   -2.4662   -0.9039 C   0  0  0  0  0  0  0  0  0  0  0  0
   -7.4707   -3.0813   -0.2036 H   0  0  0  0  0  0  0  0  0  0  0  0
   -7.2767   -2.6666   -1.9147 H   0  0  0  0  0  0  0  0  0  0  0  0
   -7.0498   -0.9801   -0.5782 C   0  0  0  0  0  0  0  0  0  0  0  0
   -6.6250   -0.7496    0.4241 H   0  0  0  0  0  0  0  0  0  0  0  0
   -6.4511   -0.3749   -1.2962 H   0  0  0  0  0  0  0  0  0  0  0  0
   -8.5081   -0.5151   -0.6176 C   0  0  0  0  0  0  0  0  0  0  0  0
   -9.1033   -1.1196    0.1030 H   0  0  0  0  0  0  0  0  0  0  0  0
   -8.9365   -0.7405   -1.6199 H   0  0  0  0  0  0  0  0  0  0  0  0
   -8.6769    0.9723   -0.3062 C   0  0  0  0  0  0  0  0  0  0  0  0
   -9.7405    1.2835   -0.3395 H   0  0  0  0  0  0  0  0  0  0  0  0
   -8.2876    1.2186    0.7040 H   0  0  0  0  0  0  0  0  0  0  0  0
   -8.1213    1.6013   -1.0330 H   0  0  0  0  0  0  0  0  0  0  0  0
  1 10  1  0  0  0  0
  3 22  1  0  0  0  0
  5 17  1  0  0  0  0
  5  6  1  0  0  0  0
  6 22  2  0  0  0  0
  8  7  1  0  0  0  0
  9  4  1  6  0  0  0
  9 16  1  0  0  0  0
 10  9  1  0  0  0  0
 10 11  2  0  0  0  0
 11 13  1  0  0  0  0
 12 11  1  0  0  0  0
 13 14  2  0  0  0  0
 13  2  1  0  0  0  0
 14 15  1  0  0  0  0
 16 17  2  0  0  0  0
 16 14  1  0  0  0  0
 17 18  1  0  0  0  0
 18 19  1  0  0  0  0
 20 18  1  0  0  0  0
 21 18  1  0  0  0  0
 22  7  1  0  0  0  0
 23  7  1  0  0  0  0
 23 24  1  0  0  0  0
 23 25  1  0  0  0  0
 26 23  1  0  0  0  0
 27 26  1  0  0  0  0
 28 26  1  0  0  0  0
 29 26  1  0  0  0  0
 29 32  1  0  0  0  0
 29 30  1  0  0  0  0
 31 29  1  0  0  0  0
 32 33  1  0  0  0  0
 34 32  1  0  0  0  0
 35 32  1  0  0  0  0
 35 38  1  0  0  0  0
 35 36  1  0  0  0  0
 37 35  1  0  0  0  0
 38 40  1  0  0  0  0
 39 38  1  0  0  0  0
 41 38  1  0  0  0  0
M  END
