1,2,3
q = -1.0, confidence = 0.0

 44 46  0  0  0  0  0  0  0  0999 V2000
   -0.6792    0.3713    1.4031 N   0  0  0  0  0  2  0  0  0  0  0  0
    1.5472   -1.1134    0.5444 O   0  5  0  0  0  0  0  0  0  0  0  0
   -2.6544   -1.2733   -0.4323 S   0  0  0  0  0  0  0  0  0  0  0  0
   -1.8672    0.4229    2.2585 C   0  0  0  0  0  0  0  0  0  0  0  0
   -1.5726    0.7439    3.2803 H   0  0  0  0  0  0  0  0  0  0  0  0
   -2.5711    1.2017    1.8811 H   0  0  0  0  0  0  0  0  0  0  0  0
   -2.5943   -0.9186    2.3845 C   0  0  0  0  0  0  0  0  0  0  0  0
   -3.2312   -0.8822    3.2951 H   0  0  0  0  0  0  0  0  0  0  0  0
   -1.8430   -1.7192    2.5523 H   0  0  0  0  0  0  0  0  0  0  0  0
   -3.5005   -1.2973    1.2172 C   0  0  0  0  0  0  0  0  0  0  0  0
   -4.3786   -0.6262    1.1349 H   0  0  0  0  0  0  0  0  0  0  0  0
   -3.8700   -2.3364    1.3212 H   0  0  0  0  0  0  0  0  0  0  0  0
   -3.0171    0.4129   -0.9866 C   0  0  0  0  0  0  0  0  0  0  0  0
   -4.3587    0.8248   -1.1009 C   0  0  0  0  0  0  0  0  0  0  0  0
   -5.1780    0.1426   -0.8266 H   0  0  0  0  0  0  0  0  0  0  0  0
   -4.6524    2.1098   -1.5795 C   0  0  0  0  0  0  0  0  0  0  0  0
   -5.7017    2.4317   -1.6593 H   0  0  0  0  0  0  0  0  0  0  0  0
   -3.6158    2.9731   -1.9704 C   0  0  0  0  0  0  0  0  0  0  0  0
   -3.8501    3.9791   -2.3495 H   0  0  0  0  0  0  0  0  0  0  0  0
   -2.2826    2.5428   -1.8891 C   0  0  0  0  0  0  0  0  0  0  0  0
   -1.4637    3.2060   -2.2061 H   0  0  0  0  0  0  0  0  0  0  0  0
   -1.9760    1.2638   -1.3993 C   0  0  0  0  0  0  0  0  0  0  0  0
   -0.9315    0.9230   -1.3296 H   0  0  0  0  0  0  0  0  0  0  0  0
    1.4798    1.3098    0.7461 C   0  0  0  0  0  0  0  0  0  0  0  0
    2.1062    0.0513    0.4261 C   0  0  0  0  0  0  0  0  0  0  0  0
    3.4970    0.0579   -0.0231 C   0  0  0  0  0  0  0  0  0  0  0  0
    4.1528   -1.1705   -0.2968 C   0  0  0  0  0  3  0  0  0  0  0  0
    3.5827   -2.0999   -0.1583 H   0  0  0  0  0  0  0  0  0  0  0  0
    5.4719   -1.1840   -0.7386 C   0  0  0  0  0  0  0  0  0  0  0  0
    5.9722   -2.1414   -0.9487 H   0  0  0  0  0  0  0  0  0  0  0  0
    6.1689    0.0342   -0.9293 C   0  0  0  0  0  0  0  0  0  0  0  0
    7.2117    0.0190   -1.2822 H   0  0  0  0  0  0  0  0  0  0  0  0
    5.5390    1.2495   -0.6819 C   0  0  0  0  0  0  0  0  0  0  0  0
    6.0756    2.1984   -0.8385 H   0  0  0  0  0  0  0  0  0  0  0  0
    4.1934    1.2943   -0.2246 C   0  0  0  0  0  0  0  0  0  0  0  0
    3.5074    2.5278    0.0207 C   0  0  0  0  0  0  0  0  0  0  0  0
    4.0246    3.4784   -0.1773 H   0  0  0  0  0  0  0  0  0  0  0  0
    2.2170    2.5208    0.4966 C   0  0  0  0  0  0  0  0  0  0  0  0
    1.7181    3.4863    0.6638 H   0  0  0  0  0  0  0  0  0  0  0  0
    0.2041    1.3586    1.4421 C   0  0  0  0  0  0  0  0  0  0  0  0
   -0.1192    2.5673    2.2917 C   0  0  0  0  0  0  0  0  0  0  0  0
   -1.0639    3.0472    1.9612 H   0  0  0  0  0  0  0  0  0  0  0  0
    0.6875    3.3161    2.2799 H   0  0  0  0  0  0  0  0  0  0  0  0
   -0.2683    2.2644    3.3488 H   0  0  0  0  0  0  0  0  0  0  0  0
  1 40  1  0  0  0  0
  1  4  1  0  0  0  0
  3 10  1  0  0  0  0
  4  7  1  0  0  0  0
  4  5  1  0  0  0  0
  6  4  1  0  0  0  0
  7  9  1  0  0  0  0
  7  8  1  0  0  0  0
 10 12  1  0  0  0  0
 10  7  1  0  0  0  0
 11 10  1  0  0  0  0
 13  3  1  0  0  0  0
 14 13  1  0  0  0  0
 14 15  1  0  0  0  0
 16 14  2  0  0  0  0
 17 16  1  0  0  0  0
 18 20  2  0  0  0  0
 18 16  1  0  0  0  0
 19 18  1  0  0  0  0
 20 22  1  0  0  0  0
 21 20  1  0  0  0  0
 22 23  1  0  0  0  0
 22 13  2  0  0  0  0
 24 40  2  0  0  0  0
 25  2  1  0  0  0  0
 25 24  1  0  0  0  0
 26 25  2  0  0  0  0
 27 28  1  0  0  0  0
 27 26  1  0  0  0  0
 29 27  1  0  0  0  0
 30 29  1  0  0  0  0
 31 29  2  0  0  0  0
 31 33  1  0  0  0  0
 32 31  1  0  0  0  0
 33 35  2  0  0  0  0
 34 33  1  0  0  0  0
 35 26  1  0  0  0  0
 35 36  1  0  0  0  0
 36 38  2  0  0  0  0
 37 36  1  0  0  0  0
 38 39  1  0  0  0  0
 38 24  1  0  0  0  0
 40 41  1  0  0  0  0
 41 44  1  0  0  0  0
 42 41  1  0  0  0  0
 43 41  1  0  0  0  0
M  CHG  1   2  -1
M  END
