1,3,4
q = -2.0, confidence = 0.93

 25 25  0  0  0  0  0  0  0  0999 V2000
   -1.0766   -2.1276    0.2600 S   0  0  0  0  0  1  0  0  0  0  0  0
   -4.0466   -1.9332    0.1433 S   0  0  0  0  0  0  0  0  0  0  0  0
    1.5922    0.8442   -0.0389 O   0  5  0  0  0  0  0  0  0  0  0  0
   -1.1493    0.6966   -0.0335 N   0  0  0  0  0  2  0  0  0  0  0  0
   -2.4254    0.1808   -0.0284 N   0  0  0  0  0  0  0  0  0  0  0  0
    0.1318    2.7887   -0.0811 C   0  0  0  0  0  0  0  0  0  0  0  0
    1.4220    2.1387   -0.0419 C   0  0  0  0  0  0  0  0  0  0  0  0
    2.6022    2.9432   -0.0113 C   0  0  0  0  0  0  0  0  0  0  0  0
    2.5393    4.3290    0.0031 C   0  0  0  0  0  0  0  0  0  0  0  0
    1.2831    4.9785   -0.0147 C   0  0  0  0  0  0  0  0  0  0  0  0
    0.1215    4.2183   -0.0586 C   0  0  0  0  0  3  0  0  0  0  0  0
   -1.1055    2.0364   -0.1266 C   0  0  0  0  0  0  0  0  0  0  0  0
   -2.4306    2.7411   -0.2723 C   0  0  0  0  0  0  0  0  0  0  0  0
   -2.4869   -1.1160    0.0994 C   0  0  0  0  0  0  0  0  0  0  0  0
   -5.1793   -0.5184    0.0089 C   0  0  0  0  0  0  0  0  0  0  0  0
    3.5625    2.4073    0.0022 H   0  0  0  0  0  0  0  0  0  0  0  0
    3.4685    4.9193    0.0310 H   0  0  0  0  0  0  0  0  0  0  0  0
    1.2207    6.0761    0.0080 H   0  0  0  0  0  0  0  0  0  0  0  0
   -0.8396    4.7480   -0.0581 H   0  0  0  0  0  0  0  0  0  0  0  0
   -3.0229    2.2522   -1.0687 H   0  0  0  0  0  0  0  0  0  0  0  0
   -3.0319    2.6296    0.6530 H   0  0  0  0  0  0  0  0  0  0  0  0
   -2.3207    3.8109   -0.5069 H   0  0  0  0  0  0  0  0  0  0  0  0
   -6.2014   -0.9415    0.0445 H   0  0  0  0  0  0  0  0  0  0  0  0
   -5.0240    0.1823    0.8507 H   0  0  0  0  0  0  0  0  0  0  0  0
   -5.0197    0.0173   -0.9458 H   0  0  0  0  0  0  0  0  0  0  0  0
  4  5  1  0  0  0  0
  5 14  2  0  0  0  0
  6 11  1  0  0  0  0
  6  7  1  0  0  0  0
  7  3  1  0  0  0  0
  7  8  2  0  0  0  0
  8 16  1  0  0  0  0
  8  9  1  0  0  0  0
  9 17  1  0  0  0  0
 10  9  2  0  0  0  0
 10 18  1  0  0  0  0
 11 19  1  0  0  0  0
 11 10  1  0  0  0  0
 12  6  2  0  0  0  0
 12  4  1  0  0  0  0
 13 12  1  0  0  0  0
 13 21  1  0  0  0  0
 14  2  1  0  0  0  0
 14  1  1  0  0  0  0
 15 23  1  0  0  0  0
 15  2  1  0  0  0  0
 15 24  1  0  0  0  0
 20 13  1  0  0  0  0
 22 13  1  0  0  0  0
 25 15  1  0  0  0  0
M  CHG  1   3  -1
M  END
