1,2,3
q = -1.0, confidence = 0.002

 20 20  0  0  1  0  0  0  0  0999 V2000
   -0.4524   -0.4511   -1.7107 O   0  5  0  0  0  0  0  0  0  0  0  0
   -0.4526   -1.8871    0.9783 S   0  0  0  0  0  0  0  0  0  0  0  0
   -1.1184    0.9964    0.4444 N   0  0  0  0  0  2  0  0  0  0  0  0
   -1.5343   -1.1450   -1.5228 C   0  0  0  0  0  0  0  0  0  0  0  0
   -2.6353   -0.9526   -2.0373 O   0  0  0  0  0  0  0  0  0  0  0  0
   -1.3686   -2.3439   -0.5461 C   0  0  0  0  0  0  0  0  0  0  0  0
   -0.7369   -3.1236   -1.0195 H   0  0  0  0  0  0  0  0  0  0  0  0
   -2.3432   -2.7883   -0.2693 H   0  0  0  0  0  0  0  0  0  0  0  0
   -1.7585   -0.9056    1.8445 C   0  0  0  0  0  0  0  0  0  0  0  0
   -2.6532   -1.5400    1.9984 H   0  0  0  0  0  0  0  0  0  0  0  0
   -1.3246   -0.6631    2.8364 H   0  0  0  0  0  0  0  0  0  0  0  0
   -2.0614    0.3416    1.0723 C   0  0  2  0  0  3  0  0  0  0  0  0
   -3.3131    0.8622    0.9309 N   0  0  0  0  0  0  0  0  0  0  0  0
   -4.1298    0.2644    1.0635 H   0  0  0  0  0  0  0  0  0  0  0  0
   -3.2710    1.8266   -0.1847 C   0  0  0  0  0  0  0  0  0  0  0  0
   -3.8756    2.7276    0.0334 H   0  0  0  0  0  0  0  0  0  0  0  0
   -3.6396    1.3389   -1.1129 H   0  0  0  0  0  0  0  0  0  0  0  0
   -1.7510    2.1177   -0.2775 C   0  0  0  0  0  0  0  0  0  0  0  0
   -1.3883    2.1356   -1.3224 H   0  0  0  0  0  0  0  0  0  0  0  0
   -1.4649    3.0725    0.2141 H   0  0  0  0  0  0  0  0  0  0  0  0
  1  4  1  0  0  0  0
  2  9  1  0  0  0  0
  3 12  1  0  0  0  0
  4  6  1  0  0  0  0
  5  4  2  0  0  0  0
  6  8  1  0  0  0  0
  6  2  1  0  0  0  0
  7  6  1  0  0  0  0
  9 10  1  0  0  0  0
  9 11  1  0  0  0  0
 12  9  1  6  0  0  0
 13 14  1  0  0  0  0
 13 12  1  0  0  0  0
 15 16  1  0  0  0  0
 15 13  1  0  0  0  0
 17 15  1  0  0  0  0
 18 15  1  0  0  0  0
 18 20  1  0  0  0  0
 18  3  1  0  0  0  0
 19 18  1  0  0  0  0
M  CHG  1   1  -1
M  END
