1,2,7
 OpenBabel05122313063D

 29 29  0  0  1  0  0  0  0  0999 V2000
   -2.7686    0.1086   -0.3147 S   0  0  0  0  0  1  0  0  0  0  0  0
    1.3860    1.1372    0.2635 O   0  0  0  0  0  1  0  0  0  0  0  0
    5.8859    0.8240    0.0023 O   0  0  0  0  0  0  0  0  0  0  0  0
    3.5824   -3.0855   -0.5024 O   0  0  0  0  0  0  0  0  0  0  0  0
    3.5897    0.8641    0.1483 N   0  0  0  0  0  0  0  0  0  0  0  0
    3.6191    1.8822    0.2302 H   0  0  0  0  0  0  0  0  0  0  0  0
   -0.2333   -1.3042    0.0752 N   0  0  0  0  0  2  0  0  0  0  0  0
   -1.3009   -2.1460    0.1652 N   0  0  0  0  0  0  0  0  0  0  0  0
   -3.5895   -2.4391    0.1193 N   0  0  0  0  0  0  0  0  0  0  0  0
    4.6697   -1.1356   -0.1599 N   0  0  0  0  0  0  0  0  0  0  0  0
    5.5231   -1.6698   -0.3431 H   0  0  0  0  0  0  0  0  0  0  0  0
    2.3323    0.2747    0.1500 C   0  0  1  0  0  3  0  0  0  0  0  0
    4.8199    0.2265    0.0008 C   0  0  0  0  0  0  0  0  0  0  0  0
    3.4755   -1.8919   -0.2219 C   0  0  0  0  0  0  0  0  0  0  0  0
    2.2281   -1.1428    0.0514 C   0  0  0  0  0  0  0  0  0  0  0  0
    0.9765   -1.8728    0.1676 C   0  0  0  0  0  0  0  0  0  0  0  0
   -2.4932   -1.6177    0.0254 C   0  0  0  0  0  0  0  0  0  0  0  0
   -3.3694   -3.8729    0.2194 C   0  0  0  0  0  0  0  0  0  0  0  0
   -3.0554   -4.3194   -0.7519 H   0  0  0  0  0  0  0  0  0  0  0  0
   -4.3079   -4.3580    0.5498 H   0  0  0  0  0  0  0  0  0  0  0  0
   -2.5668   -4.0784    0.9520 H   0  0  0  0  0  0  0  0  0  0  0  0
   -4.9113   -1.9744   -0.2497 C   0  0  0  0  0  0  0  0  0  0  0  0
   -5.0322   -0.9117    0.0392 H   0  0  0  0  0  0  0  0  0  0  0  0
   -5.6736   -2.5706    0.2900 H   0  0  0  0  0  0  0  0  0  0  0  0
   -5.1104   -2.0574   -1.3439 H   0  0  0  0  0  0  0  0  0  0  0  0
    0.9757   -3.3553    0.4446 C   0  0  0  0  0  0  0  0  0  0  0  0
    0.2576   -3.5560    1.2630 H   0  0  0  0  0  0  0  0  0  0  0  0
    1.9818   -3.7307    0.6745 H   0  0  0  0  0  0  0  0  0  0  0  0
    0.5916   -3.9083   -0.4368 H   0  0  0  0  0  0  0  0  0  0  0  0
  1 17  1  0  0  0  0
  4 14  2  0  0  0  0
  5 12  1  0  0  0  0
  5  6  1  0  0  0  0
  7  8  1  0  0  0  0
  7 16  1  0  0  0  0
  9 18  1  0  0  0  0
 10 13  1  0  0  0  0
 11 10  1  0  0  0  0
 12  2  1  1  0  0  0
 13  3  2  0  0  0  0
 13  5  1  0  0  0  0
 14 10  1  0  0  0  0
 14 15  1  0  0  0  0
 15 12  1  0  0  0  0
 15 16  2  0  0  0  0
 16 26  1  0  0  0  0
 17  9  1  0  0  0  0
 17  8  2  0  0  0  0
 18 20  1  0  0  0  0
 18 21  1  0  0  0  0
 19 18  1  0  0  0  0
 22 23  1  0  0  0  0
 22  9  1  0  0  0  0
 22 24  1  0  0  0  0
 25 22  1  0  0  0  0
 26 28  1  0  0  0  0
 26 27  1  0  0  0  0
 29 26  1  0  0  0  0
M  END
