1,20,22
 OpenBabel05122313063D

 34 35  0  0  1  0  0  0  0  0999 V2000
   -3.0926   -0.7359   -0.2112 O   0  5  0  0  0  0  0  0  0  0  0  0
    4.7968    1.0904   -0.3573 O   0  0  0  0  0  0  0  0  0  0  0  0
    4.1134    0.3598   -0.2535 H   0  0  0  0  0  0  0  0  0  0  0  0
    6.0080    0.5566   -0.1636 C   0  0  0  0  0  0  0  0  0  0  0  0
    7.1414    1.3941   -0.2613 C   0  0  0  0  0  0  0  0  0  0  0  0
    6.9730    2.4553   -0.4945 H   0  0  0  0  0  0  0  0  0  0  0  0
    8.4268    0.8817   -0.0680 C   0  0  0  0  0  0  0  0  0  0  0  0
    9.2937    1.5552   -0.1504 H   0  0  0  0  0  0  0  0  0  0  0  0
    8.6233   -0.4829    0.2293 C   0  0  0  0  0  0  0  0  0  0  0  0
    9.6372   -0.8805    0.3797 H   0  0  0  0  0  0  0  0  0  0  0  0
    7.5139   -1.3228    0.3297 C   0  0  0  0  0  0  0  0  0  0  0  0
    7.6474   -2.3920    0.5612 H   0  0  0  0  0  0  0  0  0  0  0  0
    6.1972   -0.8350    0.1398 C   0  0  0  0  0  0  0  0  0  0  0  0
    5.0677   -1.7331    0.2535 C   0  0  0  0  0  0  0  0  0  0  0  0
    5.2690   -2.8021    0.4899 H   0  0  0  0  0  0  0  0  0  0  0  0
    3.8462   -1.3038    0.0851 N   0  0  0  0  0  0  0  0  0  0  0  0
    2.8150   -2.1456    0.2020 N   0  0  0  0  0  0  0  0  0  0  0  0
    2.9616   -3.1393    0.4362 H   0  0  0  0  0  0  0  0  0  0  0  0
    1.5082   -1.7448    0.0258 C   0  0  2  0  0  3  0  0  0  0  0  0
    1.1787   -0.0584   -0.3473 S   0  0  0  0  0  1  0  0  0  0  0  0
    0.6082   -2.6856    0.2061 N   0  0  0  0  0  2  0  0  0  0  0  0
   -0.6907   -2.2825    0.0070 N   0  0  0  0  0  2  0  0  0  0  0  0
   -1.5838   -3.2397    0.2135 C   0  0  0  0  0  3  0  0  0  0  0  0
   -1.1557   -4.2279    0.4681 H   0  0  0  0  0  0  0  0  0  0  0  0
   -3.0090   -3.1334    0.1563 C   0  0  0  0  0  0  0  0  0  0  0  0
   -3.7675   -4.3236    0.3581 C   0  0  0  0  0  0  0  0  0  0  0  0
   -3.2206   -5.2665    0.5184 H   0  0  0  0  0  0  0  0  0  0  0  0
   -5.1571   -4.3136    0.3534 C   0  0  0  0  0  0  0  0  0  0  0  0
   -5.7220   -5.2445    0.5052 H   0  0  0  0  0  0  0  0  0  0  0  0
   -5.8346   -3.0880    0.1531 C   0  0  0  0  0  0  0  0  0  0  0  0
   -6.9356   -3.0665    0.1490 H   0  0  0  0  0  0  0  0  0  0  0  0
   -5.1271   -1.9033   -0.0379 C   0  0  0  0  0  0  0  0  0  0  0  0
   -5.6404   -0.9430   -0.1905 H   0  0  0  0  0  0  0  0  0  0  0  0
   -3.7052   -1.8871   -0.0463 C   0  0  0  0  0  0  0  0  0  0  0  0
  1 34  1  0  0  0  0
  2  3  1  0  0  0  0
  2  4  1  0  0  0  0
  4 13  1  0  0  0  0
  5  4  2  0  0  0  0
  5  7  1  0  0  0  0
  6  5  1  0  0  0  0
  7  9  2  0  0  0  0
  8  7  1  0  0  0  0
  9 11  1  0  0  0  0
  9 10  1  0  0  0  0
 11 12  1  0  0  0  0
 13 14  1  0  0  0  0
 13 11  2  0  0  0  0
 14 15  1  0  0  0  0
 16 17  1  0  0  0  0
 16 14  2  0  0  0  0
 17 18  1  0  0  0  0
 19 20  1  1  0  0  0
 19 17  1  0  0  0  0
 19 21  1  0  0  0  0
 22 21  1  0  0  0  0
 22 23  1  0  0  0  0
 23 24  1  0  0  0  0
 25 23  1  0  0  0  0
 25 26  1  0  0  0  0
 26 27  1  0  0  0  0
 28 26  2  0  0  0  0
 28 29  1  0  0  0  0
 30 28  1  0  0  0  0
 31 30  1  0  0  0  0
 32 30  2  0  0  0  0
 33 32  1  0  0  0  0
 34 32  1  0  0  0  0
 34 25  2  0  0  0  0
M  CHG  1   1  -1
M  END
