1,2,7
 OpenBabel05122313063D

 23 23  0  0  1  0  0  0  0  0999 V2000
   -0.2471   -2.6663   -0.4151 S   0  0  0  0  0  1  0  0  0  0  0  0
    1.4782    0.9565   -0.4398 O   0  0  0  0  0  1  0  0  0  0  0  0
    1.1470   -4.9557   -0.2540 N   0  0  0  0  0  0  0  0  0  0  0  0
    1.9707   -5.4774    0.0477 H   0  0  0  0  0  0  0  0  0  0  0  0
    0.2383   -5.3702   -0.0549 H   0  0  0  0  0  0  0  0  0  0  0  0
    2.4183   -3.0301   -0.0943 N   0  0  0  0  0  0  0  0  0  0  0  0
    2.4205   -1.6594   -0.1244 N   0  0  0  0  0  2  0  0  0  0  0  0
    1.2421   -3.5877   -0.2154 C   0  0  0  0  0  0  0  0  0  0  0  0
    3.6171   -1.0765    0.0206 C   0  0  0  0  0  0  0  0  0  0  0  0
    4.8263   -1.9453    0.2750 C   0  0  0  0  0  0  0  0  0  0  0  0
    4.5158   -2.9966    0.3733 H   0  0  0  0  0  0  0  0  0  0  0  0
    5.3505   -1.6214    1.1961 H   0  0  0  0  0  0  0  0  0  0  0  0
    5.5499   -1.8621   -0.5615 H   0  0  0  0  0  0  0  0  0  0  0  0
    3.8140    0.3596   -0.0760 C   0  0  0  0  0  0  0  0  0  0  0  0
    5.1320    0.8963    0.0480 C   0  0  0  0  0  0  0  0  0  0  0  0
    5.9692    0.2128    0.2393 H   0  0  0  0  0  0  0  0  0  0  0  0
    5.4053    2.2539   -0.0751 C   0  0  0  0  0  0  0  0  0  0  0  0
    6.4378    2.6190    0.0255 H   0  0  0  0  0  0  0  0  0  0  0  0
    4.3464    3.1524   -0.3384 C   0  0  0  0  0  0  0  0  0  0  0  0
    4.5475    4.2297   -0.4485 H   0  0  0  0  0  0  0  0  0  0  0  0
    3.0471    2.6781   -0.4595 C   0  0  0  0  0  0  0  0  0  0  0  0
    2.2026    3.3503   -0.6689 H   0  0  0  0  0  0  0  0  0  0  0  0
    2.7393    1.2890   -0.3241 C   0  0  1  0  0  3  0  0  0  0  0  0
  1  8  1  0  0  0  0
  3  8  1  0  0  0  0
  3  5  1  0  0  0  0
  3  4  1  0  0  0  0
  7  6  1  0  0  0  0
  7  9  1  0  0  0  0
  8  6  2  0  0  0  0
  9 10  1  0  0  0  0
 10 11  1  0  0  0  0
 10 12  1  0  0  0  0
 13 10  1  0  0  0  0
 14  9  2  0  0  0  0
 14 15  1  0  0  0  0
 15 16  1  0  0  0  0
 17 18  1  0  0  0  0
 17 15  2  0  0  0  0
 19 17  1  0  0  0  0
 20 19  1  0  0  0  0
 21 19  2  0  0  0  0
 21 23  1  0  0  0  0
 22 21  1  0  0  0  0
 23  2  1  6  0  0  0
 23 14  1  0  0  0  0
M  END
