1,2,3
 OpenBabel05122313063D

 20 20  0  0  1  0  0  0  0  0999 V2000
    3.0052   -0.3837   -0.3544 S   0  0  0  0  0  1  0  0  0  0  0  0
   -1.0394   -1.2079   -0.5169 O   0  5  0  0  0  0  0  0  0  0  0  0
    0.4965    1.0512   -0.0489 N   0  0  0  0  0  2  0  0  0  0  0  0
    1.5505    1.9091   -0.0172 N   0  0  0  0  0  2  0  0  0  0  0  0
    3.8286    2.1589   -0.1617 N   0  0  0  0  0  0  0  0  0  0  0  0
    3.6402    3.0887    0.2225 H   0  0  0  0  0  0  0  0  0  0  0  0
    4.7012    1.7243    0.1400 H   0  0  0  0  0  0  0  0  0  0  0  0
   -1.9537    0.9642    0.0108 C   0  0  0  0  0  0  0  0  0  0  0  0
   -2.0710   -0.4418   -0.2948 C   0  0  0  0  0  0  0  0  0  0  0  0
   -4.5231   -0.2080   -0.1835 C   0  0  0  0  0  0  0  0  0  0  0  0
   -5.5213   -0.6703   -0.2587 H   0  0  0  0  0  0  0  0  0  0  0  0
   -3.1315    1.7302    0.2101 C   0  0  0  0  0  0  0  0  0  0  0  0
   -3.0168    2.8036    0.4382 H   0  0  0  0  0  0  0  0  0  0  0  0
    2.7268    1.3188   -0.1407 C   0  0  2  0  0  3  0  0  0  0  0  0
   -3.3858   -0.9895   -0.3906 C   0  0  0  0  0  0  0  0  0  0  0  0
   -3.4572   -2.0611   -0.6299 H   0  0  0  0  0  0  0  0  0  0  0  0
   -0.6767    1.6290    0.0585 C   0  0  0  0  0  3  0  0  0  0  0  0
   -0.6754    2.7317    0.1866 H   0  0  0  0  0  0  0  0  0  0  0  0
   -4.4053    1.1658    0.1235 C   0  0  0  0  0  0  0  0  0  0  0  0
   -5.3022    1.7822    0.2889 H   0  0  0  0  0  0  0  0  0  0  0  0
  2  9  1  0  0  0  0
  3  4  1  0  0  0  0
  3 17  1  0  0  0  0
  5 14  1  0  0  0  0
  5  7  1  0  0  0  0
  5  6  1  0  0  0  0
  8 17  1  0  0  0  0
  8 12  1  0  0  0  0
  9  8  2  0  0  0  0
 10 19  1  0  0  0  0
 11 10  1  0  0  0  0
 12 13  1  0  0  0  0
 14  1  1  6  0  0  0
 14  4  1  0  0  0  0
 15  9  1  0  0  0  0
 15 10  2  0  0  0  0
 16 15  1  0  0  0  0
 17 18  1  0  0  0  0
 19 12  2  0  0  0  0
 19 20  1  0  0  0  0
M  CHG  1   2  -1
M  END
