1,2,3
 OpenBabel05122313063D

 29 29  0  0  1  0  0  0  0  0999 V2000
    3.5694    1.4336   -0.9579 S   0  0  0  0  0  1  0  0  0  0  0  0
    0.0467    0.5493    1.3598 O   0  0  0  0  0  1  0  0  0  0  0  0
    2.5164   -0.8310    0.5705 N   0  0  0  0  0  2  0  0  0  0  0  0
    3.8243   -1.0177    0.2447 N   0  0  0  0  0  0  0  0  0  0  0  0
    5.6968   -0.1773   -0.8109 N   0  0  0  0  0  0  0  0  0  0  0  0
    6.0648    0.5491   -1.4244 H   0  0  0  0  0  0  0  0  0  0  0  0
   -0.3744   -0.6781    1.5296 C   0  0  2  0  0  3  0  0  0  0  0  0
   -1.7621   -0.8415    1.8371 C   0  0  0  0  0  0  0  0  0  0  0  0
   -2.3614    0.0786    1.8964 H   0  0  0  0  0  0  0  0  0  0  0  0
   -2.3443   -2.0934    1.9924 C   0  0  0  0  0  0  0  0  0  0  0  0
   -3.4241   -2.1736    2.1939 H   0  0  0  0  0  0  0  0  0  0  0  0
   -1.5538   -3.2569    1.8668 C   0  0  0  0  0  0  0  0  0  0  0  0
   -2.0027   -4.2555    1.9693 H   0  0  0  0  0  0  0  0  0  0  0  0
   -0.1912   -3.1264    1.6082 C   0  0  0  0  0  0  0  0  0  0  0  0
    0.4064   -4.0421    1.5024 H   0  0  0  0  0  0  0  0  0  0  0  0
    0.4516   -1.8644    1.4314 C   0  0  0  0  0  0  0  0  0  0  0  0
    1.8854   -1.8562    1.1424 C   0  0  0  0  0  0  0  0  0  0  0  0
    4.3875   -0.0451   -0.4450 C   0  0  0  0  0  0  0  0  0  0  0  0
    6.4496   -1.4100   -0.6437 C   0  0  0  0  0  0  0  0  0  0  0  0
    6.2443   -1.7881    0.3787 H   0  0  0  0  0  0  0  0  0  0  0  0
    7.5276   -1.1501   -0.6879 H   0  0  0  0  0  0  0  0  0  0  0  0
    6.1087   -2.4913   -1.6727 C   0  0  0  0  0  0  0  0  0  0  0  0
    5.0361   -2.7581   -1.5988 H   0  0  0  0  0  0  0  0  0  0  0  0
    6.7076   -3.4070   -1.4913 H   0  0  0  0  0  0  0  0  0  0  0  0
    6.3135   -2.1450   -2.7063 H   0  0  0  0  0  0  0  0  0  0  0  0
    2.7124   -3.0841    1.4393 C   0  0  0  0  0  0  0  0  0  0  0  0
    3.7221   -2.7729    1.7632 H   0  0  0  0  0  0  0  0  0  0  0  0
    2.8611   -3.6990    0.5260 H   0  0  0  0  0  0  0  0  0  0  0  0
    2.2451   -3.7101    2.2182 H   0  0  0  0  0  0  0  0  0  0  0  0
  1 18  1  0  0  0  0
  3 17  1  0  0  0  0
  4  3  1  0  0  0  0
  5 19  1  0  0  0  0
  5 18  1  0  0  0  0
  6  5  1  0  0  0  0
  7  2  1  1  0  0  0
  7  8  1  0  0  0  0
  8  9  1  0  0  0  0
  8 10  2  0  0  0  0
 10 11  1  0  0  0  0
 12 13  1  0  0  0  0
 12 10  1  0  0  0  0
 14 12  2  0  0  0  0
 15 14  1  0  0  0  0
 16  7  1  0  0  0  0
 16 14  1  0  0  0  0
 17 16  2  0  0  0  0
 17 26  1  0  0  0  0
 18  4  2  0  0  0  0
 19 20  1  0  0  0  0
 21 19  1  0  0  0  0
 22 23  1  0  0  0  0
 22 24  1  0  0  0  0
 22 19  1  0  0  0  0
 25 22  1  0  0  0  0
 26 27  1  0  0  0  0
 26 29  1  0  0  0  0
 28 26  1  0  0  0  0
M  END
