1,2,8
 OpenBabel05122313063D

 24 24  0  0  1  0  0  0  0  0999 V2000
   -3.2563    0.3198   -0.5389 S   0  0  0  0  0  1  0  0  0  0  0  0
    0.7351   -1.2047   -0.6740 O   0  5  0  0  0  0  0  0  0  0  0  0
    3.2722   -1.3113   -1.2670 O   0  0  0  0  0  0  0  0  0  0  0  0
   -4.6697   -0.0785    1.6856 N   0  0  0  0  0  0  0  0  0  0  0  0
   -4.8222   -0.4979    2.6039 H   0  0  0  0  0  0  0  0  0  0  0  0
   -5.4689    0.0404    1.0659 H   0  0  0  0  0  0  0  0  0  0  0  0
   -2.4637   -0.6841    1.8977 N   0  0  0  0  0  2  0  0  0  0  0  0
   -1.2544   -0.7969    1.2809 N   0  0  0  0  0  2  0  0  0  0  0  0
   -3.4319   -0.2272    1.1346 C   0  0  2  0  0  3  0  0  0  0  0  0
   -0.2450   -1.0417    2.0826 C   0  0  0  0  0  3  0  0  0  0  0  0
   -0.4881   -1.1139    3.1598 H   0  0  0  0  0  0  0  0  0  0  0  0
    1.1432   -1.1874    1.7076 C   0  0  0  0  0  0  0  0  0  0  0  0
    2.1128   -1.2796    2.7442 C   0  0  0  0  0  0  0  0  0  0  0  0
    1.7705   -1.2567    3.7898 H   0  0  0  0  0  0  0  0  0  0  0  0
    3.4678   -1.3853    2.4460 C   0  0  0  0  0  0  0  0  0  0  0  0
    4.2099   -1.4532    3.2547 H   0  0  0  0  0  0  0  0  0  0  0  0
    3.9021   -1.3999    1.1037 C   0  0  0  0  0  0  0  0  0  0  0  0
    4.9755   -1.4701    0.8823 H   0  0  0  0  0  0  0  0  0  0  0  0
    2.9691   -1.3237    0.0584 C   0  0  0  0  0  0  0  0  0  0  0  0
    1.5722   -1.2360    0.3519 C   0  0  0  0  0  0  0  0  0  0  0  0
    4.6315   -1.4199   -1.6399 C   0  0  0  0  0  0  0  0  0  0  0  0
    4.6546   -1.4036   -2.7451 H   0  0  0  0  0  0  0  0  0  0  0  0
    5.0838   -2.3722   -1.2823 H   0  0  0  0  0  0  0  0  0  0  0  0
    5.2388   -0.5707   -1.2511 H   0  0  0  0  0  0  0  0  0  0  0  0
  2 20  1  0  0  0  0
  3 19  1  0  0  0  0
  4  5  1  0  0  0  0
  6  4  1  0  0  0  0
  8  7  1  0  0  0  0
  8 10  1  0  0  0  0
  9  1  1  1  0  0  0
  9  4  1  0  0  0  0
  9  7  1  0  0  0  0
 10 11  1  0  0  0  0
 12 10  1  0  0  0  0
 12 13  1  0  0  0  0
 13 14  1  0  0  0  0
 15 13  2  0  0  0  0
 15 16  1  0  0  0  0
 17 15  1  0  0  0  0
 18 17  1  0  0  0  0
 19 20  1  0  0  0  0
 19 17  2  0  0  0  0
 20 12  2  0  0  0  0
 21 23  1  0  0  0  0
 21  3  1  0  0  0  0
 21 24  1  0  0  0  0
 22 21  1  0  0  0  0
M  CHG  1   2  -1
M  END
