1,2,4
q = -2.0, confidence = 0.922

 30 31  0  0  0  0  0  0  0  0999 V2000
    1.8312   -1.7214   -0.9083 S   0  0  0  0  0  1  0  0  0  0  0  0
   -2.3483   -0.7779   -0.5720 O   0  5  0  0  0  0  0  0  0  0  0  0
    1.4296    0.8927   -0.1604 N   0  0  0  0  0  0  0  0  0  0  0  0
    0.1130    0.5876   -0.2963 N   0  0  0  0  0  2  0  0  0  0  0  0
    2.2705   -0.0744   -0.4455 C   0  0  0  0  0  0  0  0  0  0  0  0
    3.8488    2.4984    0.3465 C   0  0  0  0  0  0  0  0  0  0  0  0
    2.7594    2.6068    0.3857 H   0  0  0  0  0  0  0  0  0  0  0  0
   -2.8211    2.7627    0.3090 C   0  0  0  0  0  0  0  0  0  0  0  0
   -2.2380    3.6669    0.5356 H   0  0  0  0  0  0  0  0  0  0  0  0
   -2.9163    0.3876   -0.2931 C   0  0  0  0  0  0  0  0  0  0  0  0
   -2.1430    1.5560   -0.0051 C   0  0  0  0  0  0  0  0  0  0  0  0
    4.3949    1.2541   -0.0403 C   0  0  0  0  0  0  0  0  0  0  0  0
   -4.2145    2.8150    0.3313 C   0  0  0  0  0  0  0  0  0  0  0  0
    5.8018    1.1059   -0.0973 C   0  0  0  0  0  0  0  0  0  0  0  0
    6.2328    0.1379   -0.4009 H   0  0  0  0  0  0  0  0  0  0  0  0
   -4.3273    0.4654   -0.2597 C   0  0  0  0  0  0  0  0  0  0  0  0
   -4.8980   -0.4466   -0.4845 H   0  0  0  0  0  0  0  0  0  0  0  0
    6.6434    2.1749    0.2248 C   0  0  0  0  0  0  0  0  0  0  0  0
    7.7341    2.0377    0.1721 H   0  0  0  0  0  0  0  0  0  0  0  0
   -0.7014    1.5729    0.0124 C   0  0  0  0  0  3  0  0  0  0  0  0
   -0.2166    2.5184    0.3194 H   0  0  0  0  0  0  0  0  0  0  0  0
   -5.0246    4.3135    0.7169 Cl  0  0  0  0  0  0  0  0  0  0  0  0
   -4.9757    1.6633    0.0455 C   0  0  0  0  0  0  0  0  0  0  0  0
   -6.0733    1.7179    0.0664 H   0  0  0  0  0  0  0  0  0  0  0  0
    4.7077    3.5593    0.6659 C   0  0  0  0  0  0  0  0  0  0  0  0
    4.2695    4.5241    0.9644 H   0  0  0  0  0  0  0  0  0  0  0  0
    6.1021    3.4126    0.6101 C   0  0  0  0  0  0  0  0  0  0  0  0
    6.7631    4.2547    0.8627 H   0  0  0  0  0  0  0  0  0  0  0  0
    3.6274    0.1282   -0.3762 N   0  0  0  0  0  0  0  0  0  0  0  0
    4.1706   -0.6960   -0.6402 H   0  0  0  0  0  0  0  0  0  0  0  0
  1  5  1  0  0  0  0
  2 10  1  0  0  0  0
  4  3  1  0  0  0  0
  4 20  1  0  0  0  0
  5 29  1  0  0  0  0
  5  3  2  0  0  0  0
  6  7  1  0  0  0  0
  6 25  1  0  0  0  0
  8 13  1  0  0  0  0
  8  9  1  0  0  0  0
 10 16  2  0  0  0  0
 10 11  1  0  0  0  0
 11 20  1  0  0  0  0
 11  8  2  0  0  0  0
 12  6  2  0  0  0  0
 13 22  1  0  0  0  0
 14 12  1  0  0  0  0
 14 18  2  0  0  0  0
 15 14  1  0  0  0  0
 16 23  1  0  0  0  0
 17 16  1  0  0  0  0
 18 27  1  0  0  0  0
 19 18  1  0  0  0  0
 20 21  1  0  0  0  0
 23 24  1  0  0  0  0
 23 13  2  0  0  0  0
 25 26  1  0  0  0  0
 27 25  2  0  0  0  0
 27 28  1  0  0  0  0
 29 12  1  0  0  0  0
 30 29  1  0  0  0  0
M  CHG  1   2  -1
M  END
