1,2,4
 OpenBabel05122313063D

 24 24  0  0  1  0  0  0  0  0999 V2000
    1.7648    2.4875   -0.3491 S   0  0  0  0  0  1  0  0  0  0  0  0
   -1.5223    0.1352   -0.2646 O   0  0  0  0  0  1  0  0  0  0  0  0
   -6.0890   -1.2491   -0.1070 O   0  0  0  0  0  0  0  0  0  0  0  0
   -1.0155    2.8750   -0.0585 N   0  0  0  0  0  2  0  0  0  0  0  0
   -0.3932    4.0985   -0.0555 N   0  0  0  0  0  0  0  0  0  0  0  0
    1.6653    5.1674   -0.0880 N   0  0  0  0  0  0  0  0  0  0  0  0
    2.5991    5.1283   -0.4946 H   0  0  0  0  0  0  0  0  0  0  0  0
    1.1538    6.0419   -0.2189 H   0  0  0  0  0  0  0  0  0  0  0  0
    0.9080    4.0231   -0.1541 C   0  0  0  0  0  0  0  0  0  0  0  0
   -2.3341    2.9269    0.0534 C   0  0  0  0  0  0  0  0  0  0  0  0
   -2.7518    3.9435    0.1699 H   0  0  0  0  0  0  0  0  0  0  0  0
   -3.2351    1.8239    0.0260 C   0  0  0  0  0  0  0  0  0  0  0  0
   -4.6358    2.0618    0.1550 C   0  0  0  0  0  0  0  0  0  0  0  0
   -4.9769    3.1008    0.2882 H   0  0  0  0  0  0  0  0  0  0  0  0
   -5.5649    1.0371    0.1127 C   0  0  0  0  0  0  0  0  0  0  0  0
   -6.6435    1.2206    0.2104 H   0  0  0  0  0  0  0  0  0  0  0  0
   -5.1122   -0.3008   -0.0695 C   0  0  0  0  0  0  0  0  0  0  0  0
   -3.7490   -0.5785   -0.1961 C   0  0  0  0  0  0  0  0  0  0  0  0
   -3.3629   -1.5942   -0.3440 H   0  0  0  0  0  0  0  0  0  0  0  0
   -2.7815    0.4676   -0.1456 C   0  0  1  0  0  3  0  0  0  0  0  0
   -5.7007   -2.5965   -0.2887 C   0  0  0  0  0  0  0  0  0  0  0  0
   -6.6309   -3.1948   -0.2918 H   0  0  0  0  0  0  0  0  0  0  0  0
   -5.0413   -2.9522    0.5354 H   0  0  0  0  0  0  0  0  0  0  0  0
   -5.1653   -2.7480   -1.2529 H   0  0  0  0  0  0  0  0  0  0  0  0
  1  9  1  0  0  0  0
  3 17  1  0  0  0  0
  4  5  1  0  0  0  0
  4 10  1  0  0  0  0
  7  6  1  0  0  0  0
  8  6  1  0  0  0  0
  9  6  1  0  0  0  0
  9  5  2  0  0  0  0
 10 11  1  0  0  0  0
 12 10  2  0  0  0  0
 12 13  1  0  0  0  0
 13 14  1  0  0  0  0
 15 13  2  0  0  0  0
 15 16  1  0  0  0  0
 17 15  1  0  0  0  0
 18 20  1  0  0  0  0
 18 17  2  0  0  0  0
 19 18  1  0  0  0  0
 20  2  1  6  0  0  0
 20 12  1  0  0  0  0
 21  3  1  0  0  0  0
 21 23  1  0  0  0  0
 22 21  1  0  0  0  0
 24 21  1  0  0  0  0
M  END
