1,2,4
 OpenBabel05122313063D

 34 35  0  0  1  0  0  0  0  0999 V2000
    1.8362   -1.1933   -0.3612 S   0  0  0  0  0  1  0  0  0  0  0  0
   -1.2463    1.4077   -0.2566 O   0  0  0  0  0  1  0  0  0  0  0  0
   -3.7061    5.4958   -0.1122 O   0  0  0  0  0  0  0  0  0  0  0  0
    1.5362    1.5909   -0.0782 N   0  0  0  0  0  2  0  0  0  0  0  0
    2.8755    1.2913   -0.0696 N   0  0  0  0  0  0  0  0  0  0  0  0
    4.4011   -0.5030   -0.1800 N   0  0  0  0  0  0  0  0  0  0  0  0
    4.4286   -1.5202   -0.2640 H   0  0  0  0  0  0  0  0  0  0  0  0
    3.1246    0.0124   -0.1763 C   0  0  0  0  0  0  0  0  0  0  0  0
    1.2620    2.8838    0.0275 C   0  0  0  0  0  0  0  0  0  0  0  0
    2.1426    3.5427    0.1345 H   0  0  0  0  0  0  0  0  0  0  0  0
   -0.0275    3.4845    0.0057 C   0  0  0  0  0  0  0  0  0  0  0  0
   -0.1392    4.9026    0.1243 C   0  0  0  0  0  0  0  0  0  0  0  0
    0.7852    5.4894    0.2448 H   0  0  0  0  0  0  0  0  0  0  0  0
   -1.3604    5.5505    0.0869 C   0  0  0  0  0  0  0  0  0  0  0  0
   -1.4469    6.6418    0.1764 H   0  0  0  0  0  0  0  0  0  0  0  0
   -2.5485    4.7815   -0.0791 C   0  0  0  0  0  0  0  0  0  0  0  0
   -2.4848    3.3910   -0.1951 C   0  0  0  0  0  0  0  0  0  0  0  0
   -3.3761    2.7666   -0.3306 H   0  0  0  0  0  0  0  0  0  0  0  0
   -1.2330    2.7103   -0.1494 C   0  0  1  0  0  3  0  0  0  0  0  0
   -4.9204    4.7895   -0.2775 C   0  0  0  0  0  0  0  0  0  0  0  0
   -4.9450    4.2261   -1.2372 H   0  0  0  0  0  0  0  0  0  0  0  0
   -5.7269    5.5461   -0.2794 H   0  0  0  0  0  0  0  0  0  0  0  0
   -5.0969    4.0704    0.5543 H   0  0  0  0  0  0  0  0  0  0  0  0
    5.6505    0.1212   -0.0896 C   0  0  0  0  0  0  0  0  0  0  0  0
    5.8200    1.5197    0.0271 C   0  0  0  0  0  0  0  0  0  0  0  0
    4.9288    2.1579    0.0479 H   0  0  0  0  0  0  0  0  0  0  0  0
    7.1131    2.0541    0.1130 C   0  0  0  0  0  0  0  0  0  0  0  0
    7.2301    3.1452    0.2033 H   0  0  0  0  0  0  0  0  0  0  0  0
    8.2487    1.2298    0.0854 C   0  0  0  0  0  0  0  0  0  0  0  0
    9.2571    1.6638    0.1535 H   0  0  0  0  0  0  0  0  0  0  0  0
    8.0783   -0.1601   -0.0311 C   0  0  0  0  0  0  0  0  0  0  0  0
    8.9541   -0.8264   -0.0553 H   0  0  0  0  0  0  0  0  0  0  0  0
    6.7962   -0.7111   -0.1178 C   0  0  0  0  0  0  0  0  0  0  0  0
    6.6702   -1.8024   -0.2092 H   0  0  0  0  0  0  0  0  0  0  0  0
  1  8  1  0  0  0  0
  3 16  1  0  0  0  0
  4  5  1  0  0  0  0
  4  9  1  0  0  0  0
  6  8  1  0  0  0  0
  6 24  1  0  0  0  0
  7  6  1  0  0  0  0
  8  5  2  0  0  0  0
  9 10  1  0  0  0  0
 11  9  2  0  0  0  0
 11 12  1  0  0  0  0
 12 13  1  0  0  0  0
 14 12  2  0  0  0  0
 14 15  1  0  0  0  0
 16 14  1  0  0  0  0
 17 19  1  0  0  0  0
 17 16  2  0  0  0  0
 18 17  1  0  0  0  0
 19  2  1  6  0  0  0
 19 11  1  0  0  0  0
 20  3  1  0  0  0  0
 20 23  1  0  0  0  0
 21 20  1  0  0  0  0
 22 20  1  0  0  0  0
 24 25  1  0  0  0  0
 25 26  1  0  0  0  0
 25 27  2  0  0  0  0
 27 28  1  0  0  0  0
 29 27  1  0  0  0  0
 29 30  1  0  0  0  0
 31 29  2  0  0  0  0
 32 31  1  0  0  0  0
 33 24  2  0  0  0  0
 33 31  1  0  0  0  0
 34 33  1  0  0  0  0
M  END
