1,2,5
 OpenBabel05122313063D

 30 31  0  0  0  0  0  0  0  0999 V2000
   -2.5145    1.0547   -0.3674 S   0  0  0  0  0  1  0  0  0  0  0  0
    1.5417    1.5395    0.4007 O   0  5  0  0  0  0  0  0  0  0  0  0
    5.5321   -3.2494   -0.2694 O   0  0  0  0  0  0  0  0  0  0  0  0
    6.9398   -1.5876   -0.0641 O   0  0  0  0  0  0  0  0  0  0  0  0
   -0.1776   -0.5632    0.0054 N   0  0  0  0  0  2  0  0  0  0  0  0
   -1.3017   -1.3179    0.0674 N   0  0  0  0  0  0  0  0  0  0  0  0
    5.8011   -2.0559   -0.1198 N   0  0  0  0  0  0  0  0  0  0  0  0
    2.5328    0.6872    0.2432 C   0  0  0  0  0  0  0  0  0  0  0  0
    3.8743    1.1474    0.3052 C   0  0  0  0  0  0  0  0  0  0  0  0
    4.0417    2.2241    0.4487 H   0  0  0  0  0  0  0  0  0  0  0  0
    4.9385    0.2596    0.1812 C   0  0  0  0  0  0  0  0  0  0  0  0
    5.9841    0.5938    0.2169 H   0  0  0  0  0  0  0  0  0  0  0  0
    4.6735   -1.1130    0.0040 C   0  0  0  0  0  0  0  0  0  0  0  0
    3.3707   -1.6034   -0.0477 C   0  0  0  0  0  0  0  0  0  0  0  0
    3.2160   -2.6838   -0.1760 H   0  0  0  0  0  0  0  0  0  0  0  0
    2.2761   -0.7161    0.0594 C   0  0  0  0  0  0  0  0  0  0  0  0
    0.9409   -1.2551    0.0582 C   0  0  0  0  0  3  0  0  0  0  0  0
    0.8288   -2.3543    0.1037 H   0  0  0  0  0  0  0  0  0  0  0  0
   -2.4327   -0.6718   -0.1076 C   0  0  0  0  0  0  0  0  0  0  0  0
   -3.6867   -1.4601   -0.0687 C   0  0  0  0  0  0  0  0  0  0  0  0
   -3.6332   -2.8541    0.1697 C   0  0  0  0  0  0  0  0  0  0  0  0
   -2.6498   -3.3200    0.3203 H   0  0  0  0  0  0  0  0  0  0  0  0
   -4.8085   -3.6112    0.2105 C   0  0  0  0  0  0  0  0  0  0  0  0
   -4.7527   -4.6945    0.3971 H   0  0  0  0  0  0  0  0  0  0  0  0
   -6.0562   -2.9947    0.0127 C   0  0  0  0  0  0  0  0  0  0  0  0
   -6.9796   -3.5929    0.0442 H   0  0  0  0  0  0  0  0  0  0  0  0
   -6.1197   -1.6125   -0.2262 C   0  0  0  0  0  0  0  0  0  0  0  0
   -7.0927   -1.1230   -0.3834 H   0  0  0  0  0  0  0  0  0  0  0  0
   -4.9456   -0.8504   -0.2661 C   0  0  0  0  0  0  0  0  0  0  0  0
   -4.9934    0.2327   -0.4547 H   0  0  0  0  0  0  0  0  0  0  0  0
  1 19  1  0  0  0  0
  3  7  2  0  0  0  0
  5 17  1  0  0  0  0
  5  6  1  0  0  0  0
  7  4  2  0  0  0  0
  7 13  1  0  0  0  0
  8  9  1  0  0  0  0
  8  2  1  0  0  0  0
  9 10  1  0  0  0  0
 11 12  1  0  0  0  0
 11  9  2  0  0  0  0
 13 11  1  0  0  0  0
 14 13  2  0  0  0  0
 14 16  1  0  0  0  0
 15 14  1  0  0  0  0
 16  8  2  0  0  0  0
 17 16  1  0  0  0  0
 17 18  1  0  0  0  0
 19 20  1  0  0  0  0
 19  6  2  0  0  0  0
 20 21  1  0  0  0  0
 21 23  2  0  0  0  0
 21 22  1  0  0  0  0
 23 24  1  0  0  0  0
 25 26  1  0  0  0  0
 25 23  1  0  0  0  0
 27 25  2  0  0  0  0
 28 27  1  0  0  0  0
 29 27  1  0  0  0  0
 29 20  2  0  0  0  0
 30 29  1  0  0  0  0
M  CHG  1   2  -1
M  END
