2,3,4
 OpenBabel05122313063D

 28 29  0  0  0  0  0  0  0  0999 V2000
   -6.0510   -2.4315    0.2087 Cl  0  0  0  0  0  0  0  0  0  0  0  0
    2.2281    1.2909   -0.4242 S   0  0  0  0  0  1  0  0  0  0  0  0
   -1.6887    1.4397   -0.6182 O   0  5  0  0  0  0  0  0  0  0  0  0
    0.0691   -0.4884    0.0056 N   0  0  0  0  0  2  0  0  0  0  0  0
    1.2390   -1.1697    0.0356 N   0  0  0  0  0  0  0  0  0  0  0  0
   -2.6595    0.5647   -0.4121 C   0  0  0  0  0  0  0  0  0  0  0  0
   -4.0092    0.9495   -0.5945 C   0  0  0  0  0  0  0  0  0  0  0  0
   -4.2175    1.9880   -0.8873 H   0  0  0  0  0  0  0  0  0  0  0  0
   -5.0418    0.0330   -0.4018 C   0  0  0  0  0  0  0  0  0  0  0  0
   -6.0901    0.3350   -0.5366 H   0  0  0  0  0  0  0  0  0  0  0  0
   -4.7465   -1.2986   -0.0300 C   0  0  0  0  0  0  0  0  0  0  0  0
   -3.4264   -1.7084    0.1400 C   0  0  0  0  0  0  0  0  0  0  0  0
   -3.2047   -2.7490    0.4174 H   0  0  0  0  0  0  0  0  0  0  0  0
   -2.3610   -0.7869   -0.0417 C   0  0  0  0  0  0  0  0  0  0  0  0
   -1.0073   -1.2483    0.0681 C   0  0  0  0  0  3  0  0  0  0  0  0
   -0.8294   -2.3327    0.1934 H   0  0  0  0  0  0  0  0  0  0  0  0
    2.3164   -0.4330   -0.1192 C   0  0  0  0  0  0  0  0  0  0  0  0
    3.6332   -1.1062   -0.0776 C   0  0  0  0  0  0  0  0  0  0  0  0
    3.6991   -2.5123    0.0712 C   0  0  0  0  0  0  0  0  0  0  0  0
    2.7579   -3.0734    0.1510 H   0  0  0  0  0  0  0  0  0  0  0  0
    4.9365   -3.1623    0.1131 C   0  0  0  0  0  0  0  0  0  0  0  0
    4.9741   -4.2562    0.2286 H   0  0  0  0  0  0  0  0  0  0  0  0
    6.1288   -2.4245    0.0079 C   0  0  0  0  0  0  0  0  0  0  0  0
    7.1014   -2.9385    0.0410 H   0  0  0  0  0  0  0  0  0  0  0  0
    6.0737   -1.0292   -0.1389 C   0  0  0  0  0  0  0  0  0  0  0  0
    7.0027   -0.4451   -0.2199 H   0  0  0  0  0  0  0  0  0  0  0  0
    4.8367   -0.3739   -0.1812 C   0  0  0  0  0  0  0  0  0  0  0  0
    4.7907    0.7200   -0.2900 H   0  0  0  0  0  0  0  0  0  0  0  0
  2 17  1  0  0  0  0
  3  6  1  0  0  0  0
  4  5  1  0  0  0  0
  4 15  1  0  0  0  0
  6 14  1  0  0  0  0
  7  6  2  0  0  0  0
  7  9  1  0  0  0  0
  8  7  1  0  0  0  0
  9 11  2  0  0  0  0
 10  9  1  0  0  0  0
 11 12  1  0  0  0  0
 11  1  1  0  0  0  0
 12 13  1  0  0  0  0
 14 15  1  0  0  0  0
 14 12  2  0  0  0  0
 15 16  1  0  0  0  0
 17 18  1  0  0  0  0
 17  5  2  0  0  0  0
 18 19  1  0  0  0  0
 19 21  2  0  0  0  0
 19 20  1  0  0  0  0
 21 22  1  0  0  0  0
 23 24  1  0  0  0  0
 23 21  1  0  0  0  0
 25 23  2  0  0  0  0
 26 25  1  0  0  0  0
 27 25  1  0  0  0  0
 27 18  2  0  0  0  0
 28 27  1  0  0  0  0
M  CHG  1   3  -1
M  END
