2,3,4
 OpenBabel05122313063D

 28 29  0  0  0  0  0  0  0  0999 V2000
   -5.8805   -1.6115    0.1441 Br  0  0  0  0  0  0  0  0  0  0  0  0
    2.9224    1.1705   -0.4091 S   0  0  0  0  0  1  0  0  0  0  0  0
   -0.9446    1.7940   -0.6345 O   0  5  0  0  0  0  0  0  0  0  0  0
    0.5603   -0.3386   -0.0151 N   0  0  0  0  0  2  0  0  0  0  0  0
    1.6389   -1.1568    0.0169 N   0  0  0  0  0  0  0  0  0  0  0  0
   -2.0162    1.0424   -0.4435 C   0  0  0  0  0  0  0  0  0  0  0  0
   -3.3074    1.5901   -0.6327 C   0  0  0  0  0  0  0  0  0  0  0  0
   -3.3857    2.6486   -0.9178 H   0  0  0  0  0  0  0  0  0  0  0  0
   -4.4461    0.8046   -0.4561 C   0  0  0  0  0  0  0  0  0  0  0  0
   -5.4461    1.2387   -0.5975 H   0  0  0  0  0  0  0  0  0  0  0  0
   -4.3168   -0.5556   -0.0944 C   0  0  0  0  0  0  0  0  0  0  0  0
   -3.0587   -1.1252    0.0819 C   0  0  0  0  0  0  0  0  0  0  0  0
   -2.9611   -2.1869    0.3512 H   0  0  0  0  0  0  0  0  0  0  0  0
   -1.8873   -0.3385   -0.0834 C   0  0  0  0  0  0  0  0  0  0  0  0
   -0.6008   -0.9625    0.0321 C   0  0  0  0  0  3  0  0  0  0  0  0
   -0.5575   -2.0615    0.1482 H   0  0  0  0  0  0  0  0  0  0  0  0
    2.7988   -0.5544   -0.1216 C   0  0  0  0  0  0  0  0  0  0  0  0
    4.0242   -1.3822   -0.0766 C   0  0  0  0  0  0  0  0  0  0  0  0
    3.9184   -2.7874    0.0576 C   0  0  0  0  0  0  0  0  0  0  0  0
    2.9156   -3.2313    0.1236 H   0  0  0  0  0  0  0  0  0  0  0  0
    5.0678   -3.5824    0.1029 C   0  0  0  0  0  0  0  0  0  0  0  0
    4.9720   -4.6739    0.2070 H   0  0  0  0  0  0  0  0  0  0  0  0
    6.3413   -2.9931    0.0156 C   0  0  0  0  0  0  0  0  0  0  0  0
    7.2445   -3.6211    0.0514 H   0  0  0  0  0  0  0  0  0  0  0  0
    6.4566   -1.6000   -0.1167 C   0  0  0  0  0  0  0  0  0  0  0  0
    7.4501   -1.1316   -0.1836 H   0  0  0  0  0  0  0  0  0  0  0  0
    5.3083   -0.7997   -0.1624 C   0  0  0  0  0  0  0  0  0  0  0  0
    5.3957    0.2928   -0.2597 H   0  0  0  0  0  0  0  0  0  0  0  0
  2 17  1  0  0  0  0
  3  6  1  0  0  0  0
  4  5  1  0  0  0  0
  4 15  1  0  0  0  0
  6 14  1  0  0  0  0
  7  9  1  0  0  0  0
  7  6  2  0  0  0  0
  8  7  1  0  0  0  0
  9 11  2  0  0  0  0
 10  9  1  0  0  0  0
 11 12  1  0  0  0  0
 11  1  1  0  0  0  0
 12 13  1  0  0  0  0
 14 15  1  0  0  0  0
 14 12  2  0  0  0  0
 15 16  1  0  0  0  0
 17 18  1  0  0  0  0
 17  5  2  0  0  0  0
 18 19  1  0  0  0  0
 19 21  2  0  0  0  0
 19 20  1  0  0  0  0
 21 22  1  0  0  0  0
 23 24  1  0  0  0  0
 23 21  1  0  0  0  0
 25 23  2  0  0  0  0
 26 25  1  0  0  0  0
 27 25  1  0  0  0  0
 27 18  2  0  0  0  0
 28 27  1  0  0  0  0
M  CHG  1   3  -1
M  END
