1,2,5
 OpenBabel05122313063D

 30 31  0  0  0  0  0  0  0  0999 V2000
   -1.2060    1.1350    0.1185 S   0  0  0  0  0  1  0  0  0  0  0  0
    0.8540   -0.7593   -0.0160 N   0  0  0  0  0  2  0  0  0  0  0  0
   -0.3478   -1.4113   -0.0411 N   0  0  0  0  0  0  0  0  0  0  0  0
   -2.6159   -1.2391    0.0467 N   0  0  0  0  0  0  0  0  0  0  0  0
    2.8132    1.2186    0.0550 O   0  5  0  0  0  0  0  0  0  0  0  0
    3.2873   -1.1495   -0.0645 C   0  0  0  0  0  0  0  0  0  0  0  0
    3.6798    0.2366   -0.0038 C   0  0  0  0  0  0  0  0  0  0  0  0
    5.0716    0.5414   -0.0087 C   0  0  0  0  0  0  0  0  0  0  0  0
    6.0311   -0.4655   -0.0691 C   0  0  0  0  0  0  0  0  0  0  0  0
    5.6493   -1.8273   -0.1284 C   0  0  0  0  0  0  0  0  0  0  0  0
    4.2980   -2.1524   -0.1258 C   0  0  0  0  0  3  0  0  0  0  0  0
    1.9172   -1.5519   -0.0676 C   0  0  0  0  0  0  0  0  0  0  0  0
   -1.3906   -0.6092    0.0134 C   0  0  0  0  0  0  0  0  0  0  0  0
   -3.9290   -0.7687   -0.0183 C   0  0  0  0  0  0  0  0  0  0  0  0
   -4.2837    0.5224   -0.4723 C   0  0  0  0  0  0  0  0  0  0  0  0
   -5.6316    0.9041   -0.5104 C   0  0  0  0  0  0  0  0  0  0  0  0
   -6.6499    0.0211   -0.1197 C   0  0  0  0  0  0  0  0  0  0  0  0
   -6.3011   -1.2692    0.3131 C   0  0  0  0  0  0  0  0  0  0  0  0
   -4.9600   -1.6606    0.3676 C   0  0  0  0  0  0  0  0  0  0  0  0
   -2.5098   -2.2524    0.1436 H   0  0  0  0  0  0  0  0  0  0  0  0
    5.3565    1.6029    0.0376 H   0  0  0  0  0  0  0  0  0  0  0  0
    7.0988   -0.1955   -0.0707 H   0  0  0  0  0  0  0  0  0  0  0  0
    6.4123   -2.6176   -0.1761 H   0  0  0  0  0  0  0  0  0  0  0  0
    3.9815   -3.2066   -0.1719 H   0  0  0  0  0  0  0  0  0  0  0  0
    1.6851   -2.6302   -0.1196 H   0  0  0  0  0  0  0  0  0  0  0  0
   -3.5017    1.2165   -0.8070 H   0  0  0  0  0  0  0  0  0  0  0  0
   -5.8867    1.9142   -0.8664 H   0  0  0  0  0  0  0  0  0  0  0  0
   -7.7043    0.3316   -0.1567 H   0  0  0  0  0  0  0  0  0  0  0  0
   -7.0826   -1.9813    0.6193 H   0  0  0  0  0  0  0  0  0  0  0  0
   -4.6934   -2.6704    0.7191 H   0  0  0  0  0  0  0  0  0  0  0  0
  3  2  1  0  0  0  0
  3 13  2  0  0  0  0
  4 20  1  0  0  0  0
  6  7  1  0  0  0  0
  7  5  1  0  0  0  0
  8  7  2  0  0  0  0
  8 21  1  0  0  0  0
  9  8  1  0  0  0  0
 10 11  1  0  0  0  0
 10  9  2  0  0  0  0
 11  6  1  0  0  0  0
 12  6  2  0  0  0  0
 12  2  1  0  0  0  0
 13  4  1  0  0  0  0
 13  1  1  0  0  0  0
 14  4  1  0  0  0  0
 14 19  1  0  0  0  0
 15 14  2  0  0  0  0
 16 15  1  0  0  0  0
 16 17  2  0  0  0  0
 17 18  1  0  0  0  0
 18 19  2  0  0  0  0
 18 29  1  0  0  0  0
 19 30  1  0  0  0  0
 22  9  1  0  0  0  0
 23 10  1  0  0  0  0
 24 11  1  0  0  0  0
 25 12  1  0  0  0  0
 26 15  1  0  0  0  0
 27 16  1  0  0  0  0
 28 17  1  0  0  0  0
M  CHG  1   5  -1
M  END
