1,2,3
 OpenBabel05122313063D

 20 20  0  0  1  0  0  0  0  0999 V2000
   -0.2212   -2.8395   -0.0729 S   0  0  0  0  0  1  0  0  0  0  0  0
    1.7497    1.0075   -0.0883 O   0  0  0  0  0  1  0  0  0  0  0  0
    2.5165   -1.8569   -0.0063 N   0  0  0  0  0  2  0  0  0  0  0  0
    2.4911   -3.2208    0.0118 N   0  0  0  0  0  0  0  0  0  0  0  0
    1.1789   -5.1193    0.0944 N   0  0  0  0  0  0  0  0  0  0  0  0
    2.0311   -5.6522   -0.0844 H   0  0  0  0  0  0  0  0  0  0  0  0
    0.3034   -5.5383   -0.2153 H   0  0  0  0  0  0  0  0  0  0  0  0
    4.0245    0.1047   -0.0044 C   0  0  0  0  0  0  0  0  0  0  0  0
    3.0469    1.1695   -0.0624 C   0  0  1  0  0  3  0  0  0  0  0  0
    3.5339    2.5141   -0.0977 C   0  0  0  0  0  0  0  0  0  0  0  0
    2.7781    3.3111   -0.1551 H   0  0  0  0  0  0  0  0  0  0  0  0
    4.8929    2.8025   -0.0678 C   0  0  0  0  0  0  0  0  0  0  0  0
    5.2236    3.8528   -0.0970 H   0  0  0  0  0  0  0  0  0  0  0  0
    5.8513    1.7626   -0.0027 C   0  0  0  0  0  0  0  0  0  0  0  0
    6.9263    1.9922    0.0218 H   0  0  0  0  0  0  0  0  0  0  0  0
    5.4103    0.4464    0.0262 C   0  0  0  0  0  0  0  0  0  0  0  0
    6.1410   -0.3770    0.0727 H   0  0  0  0  0  0  0  0  0  0  0  0
    3.7073   -1.2931    0.0207 C   0  0  0  0  0  0  0  0  0  0  0  0
    4.5519   -2.0054    0.0664 H   0  0  0  0  0  0  0  0  0  0  0  0
    1.2941   -3.7545    0.0070 C   0  0  0  0  0  0  0  0  0  0  0  0
  1 20  1  0  0  0  0
  3  4  1  0  0  0  0
  3 18  1  0  0  0  0
  6  5  1  0  0  0  0
  7  5  1  0  0  0  0
  8 18  2  0  0  0  0
  8 16  1  0  0  0  0
  9  2  1  6  0  0  0
  9  8  1  0  0  0  0
 10 12  2  0  0  0  0
 10  9  1  0  0  0  0
 11 10  1  0  0  0  0
 12 14  1  0  0  0  0
 13 12  1  0  0  0  0
 14 15  1  0  0  0  0
 14 16  2  0  0  0  0
 16 17  1  0  0  0  0
 18 19  1  0  0  0  0
 20  4  2  0  0  0  0
 20  5  1  0  0  0  0
M  END
