1,5,41
 OpenBabel05122313063D

 41 43  0  0  1  0  0  0  0  0999 V2000
   -0.2377    1.7113   -1.0716 S   0  0  0  0  0  1  0  0  0  0  0  0
   -1.9454    2.0786   -0.6830 C   0  0  2  0  0  3  0  0  0  0  0  0
   -2.9168    1.1957   -0.7835 N   0  0  0  0  0  2  0  0  0  0  0  0
   -2.9078   -0.1156   -0.5383 C   0  0  1  0  0  3  0  0  0  0  0  0
   -1.9220   -0.7068    0.1973 N   0  0  0  0  0  2  0  0  0  0  0  0
   -4.0383   -0.9061   -1.0897 C   0  0  0  0  0  0  0  0  0  0  0  0
   -3.8732   -2.2823   -1.3665 C   0  0  0  0  0  0  0  0  0  0  0  0
   -2.9108   -2.7657   -1.1462 H   0  0  0  0  0  0  0  0  0  0  0  0
   -4.9180   -3.0163   -1.9388 C   0  0  0  0  0  0  0  0  0  0  0  0
   -4.7754   -4.0851   -2.1582 H   0  0  0  0  0  0  0  0  0  0  0  0
   -6.1414   -2.3924   -2.2385 C   0  0  0  0  0  0  0  0  0  0  0  0
   -6.9632   -2.9743   -2.6829 H   0  0  0  0  0  0  0  0  0  0  0  0
   -6.3092   -1.0225   -1.9770 C   0  0  0  0  0  0  0  0  0  0  0  0
   -7.2630   -0.5279   -2.2162 H   0  0  0  0  0  0  0  0  0  0  0  0
   -5.2626   -0.2822   -1.4127 C   0  0  0  0  0  0  0  0  0  0  0  0
   -5.3750    0.7927   -1.2112 H   0  0  0  0  0  0  0  0  0  0  0  0
   -2.2439    3.3506   -0.2896 N   0  0  0  0  0  0  0  0  0  0  0  0
   -1.2445    4.3976   -0.0966 C   0  0  0  0  0  0  0  0  0  0  0  0
   -1.6009    5.3226   -0.6004 H   0  0  0  0  0  0  0  0  0  0  0  0
   -0.2880    4.0876   -0.5555 H   0  0  0  0  0  0  0  0  0  0  0  0
   -1.0732    4.6552    1.4054 C   0  0  0  0  0  0  0  0  0  0  0  0
   -0.6166    3.7484    1.8745 H   0  0  0  0  0  0  0  0  0  0  0  0
   -0.3940    5.5143    1.5770 H   0  0  0  0  0  0  0  0  0  0  0  0
   -2.3107    4.9771    2.0218 O   0  0  0  0  0  0  0  0  0  0  0  0
   -3.2632    3.9409    1.8459 C   0  0  0  0  0  0  0  0  0  0  0  0
   -4.1960    4.2717    2.3456 H   0  0  0  0  0  0  0  0  0  0  0  0
   -2.9151    2.9973    2.3360 H   0  0  0  0  0  0  0  0  0  0  0  0
   -3.5176    3.6608    0.3602 C   0  0  0  0  0  0  0  0  0  0  0  0
   -4.2053    2.8068    0.2180 H   0  0  0  0  0  0  0  0  0  0  0  0
   -3.9538    4.5629   -0.1217 H   0  0  0  0  0  0  0  0  0  0  0  0
   -2.1187   -1.6884    1.1882 C   0  0  0  0  0  0  0  0  0  0  0  0
   -3.3263   -2.0275    1.8250 C   0  0  0  0  0  0  0  0  0  0  0  0
   -4.2628   -1.5336    1.5293 H   0  0  0  0  0  0  0  0  0  0  0  0
   -3.3228   -2.9958    2.8427 C   0  0  0  0  0  0  0  0  0  0  0  0
   -4.2683   -3.2647    3.3370 H   0  0  0  0  0  0  0  0  0  0  0  0
   -2.1209   -3.6113    3.2359 C   0  0  0  0  0  0  0  0  0  0  0  0
   -2.1276   -4.3705    4.0328 H   0  0  0  0  0  0  0  0  0  0  0  0
   -0.9060   -3.2557    2.6270 C   0  0  0  0  0  0  0  0  0  0  0  0
    0.0496   -3.7114    2.9260 H   0  0  0  0  0  0  0  0  0  0  0  0
   -0.8989   -2.2870    1.6082 C   0  0  0  0  0  0  0  0  0  0  0  0
    0.2356   -1.8677    1.0130 O   0  5  0  0  0  0  0  0  0  0  0  0
  2  1  1  6  0  0  0
  2 17  1  0  0  0  0
  3  2  1  0  0  0  0
  4  3  1  1  0  0  0
  4  5  1  0  0  0  0
  5 31  1  0  0  0  0
  6  4  1  0  0  0  0
  7  8  1  0  0  0  0
  7  6  1  0  0  0  0
  9  7  2  0  0  0  0
 10  9  1  0  0  0  0
 11 13  2  0  0  0  0
 11  9  1  0  0  0  0
 12 11  1  0  0  0  0
 13 15  1  0  0  0  0
 14 13  1  0  0  0  0
 15 16  1  0  0  0  0
 15  6  2  0  0  0  0
 17 18  1  0  0  0  0
 17 28  1  0  0  0  0
 18 21  1  0  0  0  0
 19 18  1  0  0  0  0
 20 18  1  0  0  0  0
 21 23  1  0  0  0  0
 21 22  1  0  0  0  0
 21 24  1  0  0  0  0
 25 24  1  0  0  0  0
 25 27  1  0  0  0  0
 25 26  1  0  0  0  0
 28 25  1  0  0  0  0
 29 28  1  0  0  0  0
 30 28  1  0  0  0  0
 31 40  2  0  0  0  0
 31 32  1  0  0  0  0
 32 34  2  0  0  0  0
 33 32  1  0  0  0  0
 34 36  1  0  0  0  0
 34 35  1  0  0  0  0
 36 37  1  0  0  0  0
 38 39  1  0  0  0  0
 38 36  2  0  0  0  0
 40 38  1  0  0  0  0
 41 40  1  0  0  0  0
M  CHG  1  41  -1
M  END
