1,2,4
 OpenBabel05122313063D

 27 27  0  0  0  0  0  0  0  0999 V2000
    2.2417    0.0415    1.4677 S   0  0  0  0  0  1  0  0  0  0  0  0
   -1.0241    0.0942   -1.0410 O   0  5  0  0  0  0  0  0  0  0  0  0
   -6.3707    0.9150    0.2048 O   0  0  0  0  0  0  0  0  0  0  0  0
   -0.4853    0.8163    1.6456 N   0  0  0  0  0  2  0  0  0  0  0  0
    0.1670    1.1895    2.7884 N   0  0  0  0  0  0  0  0  0  0  0  0
    2.1804    1.2173    3.8984 N   0  0  0  0  0  0  0  0  0  0  0  0
    1.6192    1.5577    4.6810 H   0  0  0  0  0  0  0  0  0  0  0  0
   -2.2702    0.2736   -0.7137 C   0  0  0  0  0  0  0  0  0  0  0  0
   -3.2847    0.0360   -1.6886 C   0  0  0  0  0  0  0  0  0  0  0  0
   -2.9533   -0.3128   -2.6777 H   0  0  0  0  0  0  0  0  0  0  0  0
   -4.6392    0.2375   -1.4239 C   0  0  0  0  0  0  0  0  0  0  0  0
   -5.3709    0.0381   -2.2194 H   0  0  0  0  0  0  0  0  0  0  0  0
   -5.0607    0.6909   -0.1481 C   0  0  0  0  0  0  0  0  0  0  0  0
   -7.3634    0.6807   -0.7651 C   0  0  0  0  0  0  0  0  0  0  0  0
   -8.3344    0.9185   -0.2900 H   0  0  0  0  0  0  0  0  0  0  0  0
   -7.3842   -0.3818   -1.1042 H   0  0  0  0  0  0  0  0  0  0  0  0
   -7.2398    1.3284   -1.6649 H   0  0  0  0  0  0  0  0  0  0  0  0
   -4.0961    0.9313    0.8312 C   0  0  0  0  0  0  0  0  0  0  0  0
   -4.4312    1.2837    1.8186 H   0  0  0  0  0  0  0  0  0  0  0  0
   -2.7108    0.7314    0.5859 C   0  0  0  0  0  0  0  0  0  0  0  0
   -1.7923    1.0131    1.6478 C   0  0  0  0  0  3  0  0  0  0  0  0
   -2.1940    1.4323    2.5880 H   0  0  0  0  0  0  0  0  0  0  0  0
    1.4465    0.8737    2.7950 C   0  0  0  0  0  0  0  0  0  0  0  0
    3.5353    0.7874    4.1386 C   0  0  0  0  0  0  0  0  0  0  0  0
    3.9852    1.4117    4.9349 H   0  0  0  0  0  0  0  0  0  0  0  0
    4.1367    0.9160    3.2148 H   0  0  0  0  0  0  0  0  0  0  0  0
    3.6167   -0.2835    4.4410 H   0  0  0  0  0  0  0  0  0  0  0  0
  1 23  1  0  0  0  0
  2  8  1  0  0  0  0
  4 21  1  0  0  0  0
  4  5  1  0  0  0  0
  5 23  2  0  0  0  0
  6 24  1  0  0  0  0
  6  7  1  0  0  0  0
  8 20  1  0  0  0  0
  9 11  1  0  0  0  0
  9  8  2  0  0  0  0
 10  9  1  0  0  0  0
 11 13  2  0  0  0  0
 12 11  1  0  0  0  0
 13  3  1  0  0  0  0
 13 18  1  0  0  0  0
 14 15  1  0  0  0  0
 14  3  1  0  0  0  0
 16 14  1  0  0  0  0
 17 14  1  0  0  0  0
 18 19  1  0  0  0  0
 20 18  2  0  0  0  0
 20 21  1  0  0  0  0
 21 22  1  0  0  0  0
 23  6  1  0  0  0  0
 24 27  1  0  0  0  0
 24 25  1  0  0  0  0
 26 24  1  0  0  0  0
M  CHG  1   2  -1
M  END
