1,2,5
 OpenBabel05122313063D

 31 32  0  0  1  0  0  0  0  0999 V2000
   -0.9895   -0.6978   -2.0126 S   0  0  0  0  0  1  0  0  0  0  0  0
    2.3501    1.2993   -0.6507 O   0  5  0  0  0  0  0  0  0  0  0  0
    5.0121    5.0072    0.7050 O   0  0  0  0  0  0  0  0  0  0  0  0
    5.6807    4.4168    0.3100 H   0  0  0  0  0  0  0  0  0  0  0  0
   -0.5005    1.5793   -0.1679 N   0  0  0  0  0  2  0  0  0  0  0  0
   -1.8331    1.3068   -0.2747 N   0  0  0  0  0  2  0  0  0  0  0  0
   -3.4358   -0.1151   -1.2086 N   0  0  0  0  0  0  0  0  0  0  0  0
   -3.5268   -0.9163   -1.8358 H   0  0  0  0  0  0  0  0  0  0  0  0
    2.3867    2.4828   -0.1058 C   0  0  0  0  0  0  0  0  0  0  0  0
    3.6506    3.1355    0.0065 C   0  0  0  0  0  0  0  0  0  0  0  0
    4.5244    2.5875   -0.3827 H   0  0  0  0  0  0  0  0  0  0  0  0
    3.7994    4.3966    0.5897 C   0  0  0  0  0  0  0  0  0  0  0  0
    2.6716    5.0952    1.0900 C   0  0  0  0  0  0  0  0  0  0  0  0
    2.8070    6.0879    1.5399 H   0  0  0  0  0  0  0  0  0  0  0  0
    1.4255    4.4956    0.9786 C   0  0  0  0  0  0  0  0  0  0  0  0
    0.5372    5.0335    1.3482 H   0  0  0  0  0  0  0  0  0  0  0  0
    1.2256    3.2098    0.4000 C   0  0  0  0  0  0  0  0  0  0  0  0
   -0.1340    2.7517    0.2933 C   0  0  0  0  0  3  0  0  0  0  0  0
   -0.9392    3.4558    0.5907 H   0  0  0  0  0  0  0  0  0  0  0  0
   -2.1180    0.2800   -1.0581 C   0  0  1  0  0  3  0  0  0  0  0  0
   -4.6297    0.3519   -0.6539 C   0  0  0  0  0  0  0  0  0  0  0  0
   -4.7204    1.4520    0.2324 C   0  0  0  0  0  0  0  0  0  0  0  0
   -3.8004    1.9850    0.4979 H   0  0  0  0  0  0  0  0  0  0  0  0
   -5.9710    1.8342    0.7380 C   0  0  0  0  0  0  0  0  0  0  0  0
   -6.0234    2.6942    1.4240 H   0  0  0  0  0  0  0  0  0  0  0  0
   -7.1448    1.1498    0.3866 C   0  0  0  0  0  0  0  0  0  0  0  0
   -8.1188    1.4622    0.7915 H   0  0  0  0  0  0  0  0  0  0  0  0
   -7.0558    0.0593   -0.4954 C   0  0  0  0  0  0  0  0  0  0  0  0
   -7.9624   -0.4920   -0.7894 H   0  0  0  0  0  0  0  0  0  0  0  0
   -5.8177   -0.3360   -1.0100 C   0  0  0  0  0  0  0  0  0  0  0  0
   -5.7571   -1.1913   -1.7029 H   0  0  0  0  0  0  0  0  0  0  0  0
  2  9  1  0  0  0  0
  4  3  1  0  0  0  0
  5 18  1  0  0  0  0
  6  5  1  0  0  0  0
  7 20  1  0  0  0  0
  7 21  1  0  0  0  0
  8  7  1  0  0  0  0
  9 10  2  0  0  0  0
  9 17  1  0  0  0  0
 10 12  1  0  0  0  0
 11 10  1  0  0  0  0
 12  3  1  0  0  0  0
 12 13  2  0  0  0  0
 13 14  1  0  0  0  0
 15 13  1  0  0  0  0
 15 16  1  0  0  0  0
 17 15  2  0  0  0  0
 18 17  1  0  0  0  0
 18 19  1  0  0  0  0
 20  1  1  6  0  0  0
 20  6  1  0  0  0  0
 21 22  1  0  0  0  0
 22 23  1  0  0  0  0
 22 24  2  0  0  0  0
 24 25  1  0  0  0  0
 26 24  1  0  0  0  0
 26 27  1  0  0  0  0
 28 26  2  0  0  0  0
 29 28  1  0  0  0  0
 30 21  2  0  0  0  0
 30 28  1  0  0  0  0
 31 30  1  0  0  0  0
M  CHG  1   2  -1
M  END
