1,9,11
 OpenBabel05122313063D

 35 36  0  0  1  0  0  0  0  0999 V2000
    0.0178    2.0419   -0.5490 S   0  0  0  0  0  1  0  0  0  0  0  0
    2.7364    0.9223   -0.2874 S   0  0  0  0  0  0  0  0  0  0  0  0
   -1.2971   -1.9154    0.0973 C   0  0  2  0  0  3  0  0  0  0  0  0
    3.3970   -0.7800   -0.0079 C   0  0  0  0  0  0  0  0  0  0  0  0
    2.9626   -1.1514    0.9402 H   0  0  0  0  0  0  0  0  0  0  0  0
    3.0288   -1.4214   -0.8318 H   0  0  0  0  0  0  0  0  0  0  0  0
    5.6585   -0.8552   -1.1431 C   0  0  0  0  0  0  0  0  0  0  0  0
    5.1420   -1.0423   -2.0978 H   0  0  0  0  0  0  0  0  0  0  0  0
   -0.8086   -0.6868   -0.0462 N   0  0  0  0  0  2  0  0  0  0  0  0
    0.5479   -0.5821   -0.0715 N   0  0  0  0  0  2  0  0  0  0  0  0
   -3.2729    0.0167   -0.7784 O   0  5  0  0  0  0  0  0  0  0  0  0
    4.8991   -0.7085    0.0354 C   0  0  0  0  0  0  0  0  0  0  0  0
    1.0053    0.6281   -0.2655 C   0  0  2  0  0  3  0  0  0  0  0  0
   -0.3657   -3.0846    0.2891 C   0  0  0  0  0  0  0  0  0  0  0  0
    0.6695   -2.7808    0.0660 H   0  0  0  0  0  0  0  0  0  0  0  0
   -0.6601   -3.9363   -0.3526 H   0  0  0  0  0  0  0  0  0  0  0  0
   -0.4046   -3.4321    1.3433 H   0  0  0  0  0  0  0  0  0  0  0  0
    5.5698   -0.4563    1.2495 C   0  0  0  0  0  0  0  0  0  0  0  0
    4.9834   -0.3297    2.1733 H   0  0  0  0  0  0  0  0  0  0  0  0
   -3.6683   -1.2029   -0.4262 C   0  0  0  0  0  0  0  0  0  0  0  0
   -2.7345   -2.1730    0.0622 C   0  0  0  0  0  0  0  0  0  0  0  0
   -3.2471   -3.4483    0.4272 C   0  0  0  0  0  0  0  0  0  0  0  0
   -2.5605   -4.2089    0.8224 H   0  0  0  0  0  0  0  0  0  0  0  0
   -5.4978   -2.7997   -0.2014 C   0  0  0  0  0  0  0  0  0  0  0  0
   -6.5665   -3.0412   -0.3060 H   0  0  0  0  0  0  0  0  0  0  0  0
   -5.0350   -1.5371   -0.5711 C   0  0  0  0  0  0  0  0  0  0  0  0
   -5.7086   -0.7644   -0.9677 H   0  0  0  0  0  0  0  0  0  0  0  0
    7.0575   -0.7666   -1.1069 C   0  0  0  0  0  0  0  0  0  0  0  0
    7.6378   -0.8889   -2.0341 H   0  0  0  0  0  0  0  0  0  0  0  0
   -4.6012   -3.7588    0.3120 C   0  0  0  0  0  0  0  0  0  0  0  0
   -4.9642   -4.7507    0.6178 H   0  0  0  0  0  0  0  0  0  0  0  0
    6.9686   -0.3674    1.2873 C   0  0  0  0  0  0  0  0  0  0  0  0
    7.4790   -0.1758    2.2434 H   0  0  0  0  0  0  0  0  0  0  0  0
    7.7161   -0.5230    0.1089 C   0  0  0  0  0  0  0  0  0  0  0  0
    8.8141   -0.4544    0.1383 H   0  0  0  0  0  0  0  0  0  0  0  0
  2 13  1  0  0  0  0
  2  4  1  0  0  0  0
  3  9  1  6  0  0  0
  3 14  1  0  0  0  0
  4 12  1  0  0  0  0
  4  5  1  0  0  0  0
  6  4  1  0  0  0  0
  7 28  2  0  0  0  0
  7 12  1  0  0  0  0
  8  7  1  0  0  0  0
 10  9  1  0  0  0  0
 11 20  1  0  0  0  0
 12 18  2  0  0  0  0
 13  1  1  6  0  0  0
 13 10  1  0  0  0  0
 14 17  1  0  0  0  0
 15 14  1  0  0  0  0
 16 14  1  0  0  0  0
 18 32  1  0  0  0  0
 18 19  1  0  0  0  0
 20 21  1  0  0  0  0
 21  3  1  0  0  0  0
 21 22  2  0  0  0  0
 22 23  1  0  0  0  0
 24 30  2  0  0  0  0
 25 24  1  0  0  0  0
 26 20  2  0  0  0  0
 26 24  1  0  0  0  0
 27 26  1  0  0  0  0
 28 34  1  0  0  0  0
 29 28  1  0  0  0  0
 30 22  1  0  0  0  0
 30 31  1  0  0  0  0
 32 33  1  0  0  0  0
 34 35  1  0  0  0  0
 34 32  2  0  0  0  0
M  CHG  1  11  -1
M  END
