1,2,3
 OpenBabel05122313063D

 26 26  0  0  0  0  0  0  0  0999 V2000
    1.2389   -2.2786   -0.2861 S   0  0  0  0  0  1  0  0  0  0  0  0
    0.7739    2.0105   -0.0822 O   0  5  0  0  0  0  0  0  0  0  0  0
    2.9941    0.0384   -0.2083 N   0  0  0  0  0  2  0  0  0  0  0  0
    3.7213   -1.1133   -0.2605 N   0  0  0  0  0  0  0  0  0  0  0  0
    3.6532   -3.4227   -0.4081 N   0  0  0  0  0  0  0  0  0  0  0  0
    3.0705   -4.2489   -0.2754 H   0  0  0  0  0  0  0  0  0  0  0  0
    3.0135   -2.2187   -0.3064 C   0  0  0  0  0  0  0  0  0  0  0  0
    3.6757    1.1659   -0.1644 C   0  0  0  0  0  0  0  0  0  0  0  0
    4.7738    1.0373   -0.1799 H   0  0  0  0  0  0  0  0  0  0  0  0
    3.1710    2.5068   -0.1042 C   0  0  0  0  0  0  0  0  0  0  0  0
    1.7682    2.8598   -0.0725 C   0  0  0  0  0  0  0  0  0  0  0  0
    1.4356    4.2502   -0.0282 C   0  0  0  0  0  0  0  0  0  0  0  0
    0.3648    4.5016   -0.0178 H   0  0  0  0  0  0  0  0  0  0  0  0
    2.4135    5.2374   -0.0060 C   0  0  0  0  0  0  0  0  0  0  0  0
    2.1123    6.2964    0.0278 H   0  0  0  0  0  0  0  0  0  0  0  0
    3.7868    4.8947   -0.0287 C   0  0  0  0  0  0  0  0  0  0  0  0
    4.5596    5.6765   -0.0105 H   0  0  0  0  0  0  0  0  0  0  0  0
    4.1417    3.5532   -0.0784 C   0  0  0  0  0  3  0  0  0  0  0  0
    5.2056    3.2672   -0.1009 H   0  0  0  0  0  0  0  0  0  0  0  0
    5.0969   -3.5586   -0.2891 C   0  0  0  0  0  0  0  0  0  0  0  0
    5.5526   -2.7472   -0.8917 H   0  0  0  0  0  0  0  0  0  0  0  0
    5.3817   -4.5218   -0.7616 H   0  0  0  0  0  0  0  0  0  0  0  0
    5.6121   -3.4850    1.1507 C   0  0  0  0  0  0  0  0  0  0  0  0
    5.3521   -2.5051    1.5972 H   0  0  0  0  0  0  0  0  0  0  0  0
    6.7153   -3.5958    1.1773 H   0  0  0  0  0  0  0  0  0  0  0  0
    5.1719   -4.2858    1.7798 H   0  0  0  0  0  0  0  0  0  0  0  0
  2 11  1  0  0  0  0
  3  8  1  0  0  0  0
  4  3  1  0  0  0  0
  5  7  1  0  0  0  0
  5 20  1  0  0  0  0
  5  6  1  0  0  0  0
  7  1  1  0  0  0  0
  7  4  2  0  0  0  0
  8 10  2  0  0  0  0
  9  8  1  0  0  0  0
 10 18  1  0  0  0  0
 10 11  1  0  0  0  0
 11 12  2  0  0  0  0
 12 13  1  0  0  0  0
 12 14  1  0  0  0  0
 14 15  1  0  0  0  0
 16 17  1  0  0  0  0
 16 14  2  0  0  0  0
 18 16  1  0  0  0  0
 19 18  1  0  0  0  0
 20 23  1  0  0  0  0
 21 20  1  0  0  0  0
 22 20  1  0  0  0  0
 23 25  1  0  0  0  0
 23 24  1  0  0  0  0
 23 26  1  0  0  0  0
M  CHG  1   2  -1
M  END
