1,2,3
 OpenBabel05122313063D

 45 48  0  0  1  0  0  0  0  0999 V2000
   -2.6851   -0.3074   -1.3574 S   0  0  0  0  0  0  0  0  0  0  0  0
    1.0462   -2.0644   -0.2400 O   0  5  0  0  0  0  0  0  0  0  0  0
    0.0302    0.6520   -0.6283 N   0  0  0  0  0  2  0  0  0  0  0  0
   -2.8451    3.7607   -1.1517 C   0  0  0  0  0  0  0  0  0  0  0  0
   -3.5922    4.5513   -1.3114 H   0  0  0  0  0  0  0  0  0  0  0  0
    3.7448    0.5131   -0.0727 C   0  0  2  0  0  3  0  0  0  0  0  0
   -3.1777    2.4185   -1.3701 C   0  0  0  0  0  0  0  0  0  0  0  0
   -4.1892    2.1376   -1.7018 H   0  0  0  0  0  0  0  0  0  0  0  0
   -2.2234    1.4138   -1.1514 C   0  0  0  0  0  0  0  0  0  0  0  0
    4.8144   -0.3691    0.3039 C   0  0  0  0  0  0  0  0  0  0  0  0
    2.3830   -0.0205   -0.2155 C   0  0  0  0  0  0  0  0  0  0  0  0
    1.3237    0.8916   -0.4420 C   0  0  0  0  0  0  0  0  0  0  0  0
    1.6154    1.9522   -0.4544 H   0  0  0  0  0  0  0  0  0  0  0  0
   -0.8933    1.7166   -0.7629 C   0  0  0  0  0  0  0  0  0  0  0  0
   -2.2542   -1.1237    2.1193 C   0  0  0  0  0  0  0  0  0  0  0  0
   -2.1651   -2.1455    1.7172 H   0  0  0  0  0  0  0  0  0  0  0  0
    4.0872    1.8748   -0.2963 C   0  0  0  0  0  0  0  0  0  0  0  0
    3.3264    2.5944   -0.6301 H   0  0  0  0  0  0  0  0  0  0  0  0
    2.1643   -1.4459   -0.0693 C   0  0  0  0  0  0  0  0  0  0  0  0
   -3.0693   -0.1878    1.4452 C   0  0  0  0  0  0  0  0  0  0  0  0
    4.5343   -1.7646    0.4975 C   0  0  0  0  0  0  0  0  0  0  0  0
    5.3653   -2.4271    0.7883 H   0  0  0  0  0  0  0  0  0  0  0  0
   -0.5858    3.0799   -0.5259 C   0  0  0  0  0  0  0  0  0  0  0  0
    0.4094    3.3714   -0.1650 H   0  0  0  0  0  0  0  0  0  0  0  0
    3.2803   -2.2816    0.3137 C   0  0  0  0  0  0  0  0  0  0  0  0
    3.0624   -3.3513    0.4411 H   0  0  0  0  0  0  0  0  0  0  0  0
    6.1327    0.1290    0.4691 C   0  0  0  0  0  0  0  0  0  0  0  0
    6.9248   -0.5777    0.7620 H   0  0  0  0  0  0  0  0  0  0  0  0
    6.4270    1.4722    0.2618 C   0  0  0  0  0  0  0  0  0  0  0  0
    7.4526    1.8480    0.3904 H   0  0  0  0  0  0  0  0  0  0  0  0
   -3.1661    1.1263    1.9460 C   0  0  0  0  0  0  0  0  0  0  0  0
   -3.8012    1.8616    1.4285 H   0  0  0  0  0  0  0  0  0  0  0  0
   -1.6378    0.5713    3.7529 C   0  0  0  0  0  0  0  0  0  0  0  0
   -1.0756    0.8679    4.6516 H   0  0  0  0  0  0  0  0  0  0  0  0
   -1.5461    4.0778   -0.7172 C   0  0  0  0  0  0  0  0  0  0  0  0
   -1.2739    5.1254   -0.5196 H   0  0  0  0  0  0  0  0  0  0  0  0
   -1.5464   -0.7444    3.2671 C   0  0  0  0  0  0  0  0  0  0  0  0
   -0.9127   -1.4817    3.7826 H   0  0  0  0  0  0  0  0  0  0  0  0
   -2.4525    1.5045    3.0934 C   0  0  0  0  0  0  0  0  0  0  0  0
   -2.5340    2.5343    3.4729 H   0  0  0  0  0  0  0  0  0  0  0  0
    5.3894    2.3446   -0.1307 C   0  0  0  0  0  0  0  0  0  0  0  0
    5.6064    3.4072   -0.3184 H   0  0  0  0  0  0  0  0  0  0  0  0
   -3.7538   -0.5732    0.1716 C   0  0  0  0  0  0  0  0  0  0  0  0
   -4.6836   -0.0027   -0.0203 H   0  0  0  0  0  0  0  0  0  0  0  0
   -3.9500   -1.6610    0.0946 H   0  0  0  0  0  0  0  0  0  0  0  0
  1  9  1  0  0  0  0
  1 43  1  0  0  0  0
  2 19  1  0  0  0  0
  3 12  1  0  0  0  0
  4 35  1  0  0  0  0
  5  4  1  0  0  0  0
  6 17  1  6  0  0  0
  6 10  1  0  0  0  0
  7  4  2  0  0  0  0
  7  9  1  0  0  0  0
  8  7  1  0  0  0  0
  9 14  2  0  0  0  0
 10 27  1  0  0  0  0
 10 21  2  0  0  0  0
 11  6  1  0  0  0  0
 11 19  1  0  0  0  0
 12 11  2  0  0  0  0
 13 12  1  0  0  0  0
 14  3  1  0  0  0  0
 14 23  1  0  0  0  0
 15 37  1  0  0  0  0
 16 15  1  0  0  0  0
 17 41  2  0  0  0  0
 18 17  1  0  0  0  0
 19 25  2  0  0  0  0
 20 31  1  0  0  0  0
 20 15  2  0  0  0  0
 21 22  1  0  0  0  0
 23 24  1  0  0  0  0
 25 26  1  0  0  0  0
 25 21  1  0  0  0  0
 27 28  1  0  0  0  0
 29 30  1  0  0  0  0
 29 27  2  0  0  0  0
 31 39  2  0  0  0  0
 32 31  1  0  0  0  0
 33 34  1  0  0  0  0
 35 23  2  0  0  0  0
 35 36  1  0  0  0  0
 37 33  2  0  0  0  0
 37 38  1  0  0  0  0
 39 40  1  0  0  0  0
 39 33  1  0  0  0  0
 41 29  1  0  0  0  0
 42 41  1  0  0  0  0
 43 20  1  0  0  0  0
 44 43  1  0  0  0  0
 45 43  1  0  0  0  0
M  CHG  1   2  -1
M  END
