1,2,5
 OpenBabel05122313063D

 27 27  0  0  0  0  0  0  0  0999 V2000
   -2.9318   -1.0938   -0.0857 S   0  0  0  0  0  1  0  0  0  0  0  0
   -0.9547    1.0657    0.0627 N   0  0  0  0  0  2  0  0  0  0  0  0
   -2.2161    1.5524    0.1584 N   0  0  0  0  0  0  0  0  0  0  0  0
   -4.4625    1.0737    0.0819 N   0  0  0  0  0  0  0  0  0  0  0  0
    1.2403   -0.6239    0.3756 O   0  5  0  0  0  0  0  0  0  0  0  0
    3.8427   -0.9766    0.2759 O   0  0  0  0  0  0  0  0  0  0  0  0
   -0.0075    1.9788    0.0558 C   0  0  0  0  0  3  0  0  0  0  0  0
   -3.1716    0.6515    0.0605 C   0  0  0  0  0  0  0  0  0  0  0  0
   -4.8318    2.4663    0.2281 C   0  0  0  0  0  0  0  0  0  0  0  0
   -4.5741    2.8599    1.2354 H   0  0  0  0  0  0  0  0  0  0  0  0
   -5.9210    2.5694    0.0684 H   0  0  0  0  0  0  0  0  0  0  0  0
   -4.2934    3.0886   -0.5148 H   0  0  0  0  0  0  0  0  0  0  0  0
    1.9884    0.4605    0.1502 C   0  0  0  0  0  0  0  0  0  0  0  0
    3.4063    0.2981    0.1135 C   0  0  0  0  0  0  0  0  0  0  0  0
    4.2269    1.4213   -0.0773 C   0  0  0  0  0  0  0  0  0  0  0  0
    5.3185    1.3070   -0.1132 H   0  0  0  0  0  0  0  0  0  0  0  0
    3.6571    2.7037   -0.2244 C   0  0  0  0  0  0  0  0  0  0  0  0
    4.3158    3.5718   -0.3723 H   0  0  0  0  0  0  0  0  0  0  0  0
    2.2771    2.8716   -0.1829 C   0  0  0  0  0  0  0  0  0  0  0  0
    1.8296    3.8703   -0.2960 H   0  0  0  0  0  0  0  0  0  0  0  0
    1.4169    1.7518   -0.0050 C   0  0  0  0  0  0  0  0  0  0  0  0
    5.2353   -1.2161    0.2163 C   0  0  0  0  0  0  0  0  0  0  0  0
    5.6641   -0.9189   -0.7671 H   0  0  0  0  0  0  0  0  0  0  0  0
    5.3708   -2.3047    0.3532 H   0  0  0  0  0  0  0  0  0  0  0  0
    5.7845   -0.6778    1.0218 H   0  0  0  0  0  0  0  0  0  0  0  0
   -0.3528    3.0291    0.0861 H   0  0  0  0  0  0  0  0  0  0  0  0
   -5.1836    0.3543    0.0739 H   0  0  0  0  0  0  0  0  0  0  0  0
  1  8  1  0  0  0  0
  2  3  1  0  0  0  0
  4  9  1  0  0  0  0
  7  2  1  0  0  0  0
  7 26  1  0  0  0  0
  8  4  1  0  0  0  0
  8  3  2  0  0  0  0
  9 10  1  0  0  0  0
 11  9  1  0  0  0  0
 12  9  1  0  0  0  0
 13  5  1  0  0  0  0
 14 13  1  0  0  0  0
 14  6  1  0  0  0  0
 15 14  2  0  0  0  0
 16 15  1  0  0  0  0
 17 19  2  0  0  0  0
 17 15  1  0  0  0  0
 18 17  1  0  0  0  0
 19 21  1  0  0  0  0
 20 19  1  0  0  0  0
 21  7  1  0  0  0  0
 21 13  2  0  0  0  0
 22  6  1  0  0  0  0
 22 24  1  0  0  0  0
 22 25  1  0  0  0  0
 23 22  1  0  0  0  0
 27  4  1  0  0  0  0
M  CHG  1   5  -1
M  END
