1,2,5
 OpenBabel05122313063D

 19 18  0  0  1  0  0  0  0  0999 V2000
   -0.1466    1.8803   -1.3011 S   0  0  0  0  0  1  0  0  0  0  0  0
    0.3875   -1.5510    1.0297 O   0  5  0  0  0  0  0  0  0  0  0  0
    2.1533   -2.5050    2.0780 O   0  0  0  0  0  0  0  0  0  0  0  0
    2.3587    1.4185   -0.5157 N   0  0  0  0  0  0  0  0  0  0  0  0
    1.8291    0.3092    0.0803 N   0  0  0  0  0  2  0  0  0  0  0  0
    2.0255    3.3947   -1.6900 N   0  0  0  0  0  0  0  0  0  0  0  0
    1.4973    2.2631   -1.1648 C   0  0  1  0  0  3  0  0  0  0  0  0
    2.5021   -0.4834    0.8624 C   0  0  1  0  0  3  0  0  0  0  0  0
    1.6390   -1.6256    1.3890 C   0  0  0  0  0  0  0  0  0  0  0  0
    3.9560   -0.4062    1.1864 C   0  0  0  0  0  0  0  0  0  0  0  0
    4.8165   -1.1664    0.1599 C   0  0  0  0  0  0  0  0  0  0  0  0
    3.3124    1.6986   -0.2593 H   0  0  0  0  0  0  0  0  0  0  0  0
    1.4040    4.0077   -2.2166 H   0  0  0  0  0  0  0  0  0  0  0  0
    3.0302    3.5184   -1.8147 H   0  0  0  0  0  0  0  0  0  0  0  0
    4.0673   -0.8843    2.1809 H   0  0  0  0  0  0  0  0  0  0  0  0
    4.2919    0.6514    1.2883 H   0  0  0  0  0  0  0  0  0  0  0  0
    5.8868   -1.1317    0.4432 H   0  0  0  0  0  0  0  0  0  0  0  0
    4.7125   -0.7448   -0.8609 H   0  0  0  0  0  0  0  0  0  0  0  0
    4.5014   -2.2271    0.1247 H   0  0  0  0  0  0  0  0  0  0  0  0
  2  9  1  0  0  0  0
  4 12  1  0  0  0  0
  4  5  1  0  0  0  0
  6  7  1  0  0  0  0
  7  1  1  6  0  0  0
  7  4  1  0  0  0  0
  8  5  1  6  0  0  0
  8 10  1  0  0  0  0
  8  9  1  0  0  0  0
  9  3  2  0  0  0  0
 10 16  1  0  0  0  0
 10 15  1  0  0  0  0
 11 17  1  0  0  0  0
 11 10  1  0  0  0  0
 13  6  1  0  0  0  0
 14  6  1  0  0  0  0
 18 11  1  0  0  0  0
 19 11  1  0  0  0  0
M  CHG  1   2  -1
M  END
