1,2,4
 OpenBabel05122313063D

 18 17  0  0  1  0  0  0  0  0999 V2000
    1.9038    1.2465   -0.7133 S   0  0  0  0  0  1  0  0  0  0  0  0
    0.8345   -0.4065    1.5877 O   0  5  0  0  0  0  0  0  0  0  0  0
    2.6796   -1.0962    2.6800 O   0  0  0  0  0  0  0  0  0  0  0  0
    1.4542   -1.5681   -0.5950 N   0  0  0  0  0  0  0  0  0  0  0  0
    2.0660   -0.8984    1.6491 C   0  0  0  0  0  0  0  0  0  0  0  0
    2.6351   -1.1979    0.2446 C   0  0  2  0  0  0  0  0  0  0  0  0
    3.3070    0.0414   -0.3955 C   0  0  0  0  0  0  0  0  0  0  0  0
    3.9835   -0.3270   -1.7251 C   0  0  0  0  0  0  0  0  0  0  0  0
    4.3260    0.6785    0.5551 C   0  0  0  0  0  0  0  0  0  0  0  0
    3.3637   -2.0334    0.3154 H   0  0  0  0  0  0  0  0  0  0  0  0
    3.2874   -0.7929   -2.4548 H   0  0  0  0  0  0  0  0  0  0  0  0
    4.3790    0.5838   -2.2150 H   0  0  0  0  0  0  0  0  0  0  0  0
    4.8330   -1.0218   -1.5556 H   0  0  0  0  0  0  0  0  0  0  0  0
    3.8583    1.0021    1.5024 H   0  0  0  0  0  0  0  0  0  0  0  0
    5.1359   -0.0412    0.7968 H   0  0  0  0  0  0  0  0  0  0  0  0
    4.7852    1.5639    0.0743 H   0  0  0  0  0  0  0  0  0  0  0  0
    1.0949   -2.4942   -0.3175 H   0  0  0  0  0  0  0  0  0  0  0  0
    1.7397   -1.6323   -1.5842 H   0  0  0  0  0  0  0  0  0  0  0  0
  1  7  1  0  0  0  0
  2  5  1  0  0  0  0
  4 17  1  0  0  0  0
  4  6  1  0  0  0  0
  5  3  2  0  0  0  0
  6 10  1  1  0  0  0
  6  5  1  0  0  0  0
  7  6  1  0  0  0  0
  7  9  1  0  0  0  0
  8 13  1  0  0  0  0
  8  7  1  0  0  0  0
  9 15  1  0  0  0  0
  9 14  1  0  0  0  0
 11  8  1  0  0  0  0
 12  8  1  0  0  0  0
 16  9  1  0  0  0  0
 18  4  1  0  0  0  0
M  CHG  1   2  -1
M  END
