1,4,9
 OpenBabel05122313063D

 20 20  0  0  0  0  0  0  0  0999 V2000
   -3.2378   -1.6373    0.8206 S   0  0  0  0  0  1  0  0  0  0  0  0
    1.9169    2.0296   -1.6858 Cl  0  0  0  0  0  0  0  0  0  0  0  0
    5.7153   -1.6581   -0.3993 Cl  0  0  0  0  0  0  0  0  0  0  0  0
   -0.6307   -2.5007    0.1942 N   0  0  0  0  0  2  0  0  0  0  0  0
   -1.3958   -3.5935    0.4736 N   0  0  0  0  0  0  0  0  0  0  0  0
   -3.5086   -4.2991    1.0706 N   0  0  0  0  0  0  0  0  0  0  0  0
   -3.1117   -5.2232    1.2410 H   0  0  0  0  0  0  0  0  0  0  0  0
   -4.4033   -4.0717    1.4984 H   0  0  0  0  0  0  0  0  0  0  0  0
    0.0550   -0.0906   -0.9534 O   0  5  0  0  0  0  0  0  0  0  0  0
    0.6599   -2.7373    0.0304 C   0  0  0  0  0  3  0  0  0  0  0  0
    0.9711   -3.7822    0.2051 H   0  0  0  0  0  0  0  0  0  0  0  0
    1.6636   -1.7710   -0.3291 C   0  0  0  0  0  0  0  0  0  0  0  0
    1.2957   -0.4700   -0.8185 C   0  0  0  0  0  0  0  0  0  0  0  0
    2.3564    0.4280   -1.1483 C   0  0  0  0  0  0  0  0  0  0  0  0
    3.7010    0.0762   -1.0230 C   0  0  0  0  0  0  0  0  0  0  0  0
    4.4875    0.7998   -1.2733 H   0  0  0  0  0  0  0  0  0  0  0  0
    4.0299   -1.2143   -0.5583 C   0  0  0  0  0  0  0  0  0  0  0  0
    3.0329   -2.1279   -0.2207 C   0  0  0  0  0  0  0  0  0  0  0  0
    3.3081   -3.1284    0.1422 H   0  0  0  0  0  0  0  0  0  0  0  0
   -2.6416   -3.2861    0.7804 C   0  0  0  0  0  0  0  0  0  0  0  0
  2 14  1  0  0  0  0
  4  5  1  0  0  0  0
  5 20  2  0  0  0  0
  6  7  1  0  0  0  0
  6  8  1  0  0  0  0
  9 13  1  0  0  0  0
 10  4  1  0  0  0  0
 10 11  1  0  0  0  0
 12 18  1  0  0  0  0
 12 10  1  0  0  0  0
 13 12  2  0  0  0  0
 14 15  2  0  0  0  0
 14 13  1  0  0  0  0
 15 17  1  0  0  0  0
 16 15  1  0  0  0  0
 17  3  1  0  0  0  0
 17 18  2  0  0  0  0
 18 19  1  0  0  0  0
 20  1  1  0  0  0  0
 20  6  1  0  0  0  0
M  CHG  1   9  -1
M  END
