3,4,5
 OpenBabel05122313063D

 37 38  0  0  1  0  0  0  0  0999 V2000
    4.8762    2.5514   -0.1050 Cl  0  0  0  0  0  0  0  0  0  0  0  0
    6.8926   -2.4463   -0.5969 Cl  0  0  0  0  0  0  0  0  0  0  0  0
   -1.6967    0.5615    0.4256 S   0  0  0  0  0  1  0  0  0  0  0  0
    2.3885    1.1585    0.4983 O   0  5  0  0  0  0  0  0  0  0  0  0
    0.7270   -1.0799    0.3076 N   0  0  0  0  0  2  0  0  0  0  0  0
   -0.4179   -1.7867    0.5290 N   0  0  0  0  0  0  0  0  0  0  0  0
   -0.3411   -2.7991    0.6925 H   0  0  0  0  0  0  0  0  0  0  0  0
   -2.7291   -1.9015    0.7083 N   0  0  0  0  0  0  0  0  0  0  0  0
   -2.6364   -2.9205    0.6594 H   0  0  0  0  0  0  0  0  0  0  0  0
    3.3274    0.3317    0.1755 C   0  0  0  0  0  0  0  0  0  0  0  0
    4.6491    0.8438   -0.1063 C   0  0  0  0  0  0  0  0  0  0  0  0
    5.7298   -0.0074   -0.3180 C   0  0  0  0  0  0  0  0  0  0  0  0
    6.7276    0.4131   -0.5034 H   0  0  0  0  0  0  0  0  0  0  0  0
    5.5413   -1.4109   -0.3093 C   0  0  0  0  0  0  0  0  0  0  0  0
    4.2748   -1.9572   -0.0927 C   0  0  0  0  0  3  0  0  0  0  0  0
    4.1433   -3.0482   -0.1242 H   0  0  0  0  0  0  0  0  0  0  0  0
    3.1613   -1.1106    0.1348 C   0  0  0  0  0  0  0  0  0  0  0  0
    1.8758   -1.7213    0.2979 C   0  0  0  0  0  0  0  0  0  0  0  0
    1.8571   -2.8251    0.3990 H   0  0  0  0  0  0  0  0  0  0  0  0
   -1.6299   -1.1492    0.5563 C   0  0  1  0  0  3  0  0  0  0  0  0
   -4.0913   -1.3587    0.7365 C   0  0  0  0  0  0  0  0  0  0  0  0
   -4.0501   -0.3794    1.2565 H   0  0  0  0  0  0  0  0  0  0  0  0
   -4.7063   -2.0352    1.3621 H   0  0  0  0  0  0  0  0  0  0  0  0
   -4.7166   -1.1884   -0.6619 C   0  0  0  0  0  0  0  0  0  0  0  0
   -4.7774   -2.1788   -1.1596 H   0  0  0  0  0  0  0  0  0  0  0  0
   -4.0448   -0.5492   -1.2719 H   0  0  0  0  0  0  0  0  0  0  0  0
   -6.0889   -0.5627   -0.5605 C   0  0  0  0  0  0  0  0  0  0  0  0
   -6.2245    0.8377   -0.4667 C   0  0  0  0  0  0  0  0  0  0  0  0
   -5.3279    1.4768   -0.5197 H   0  0  0  0  0  0  0  0  0  0  0  0
   -7.4901    1.4236   -0.3222 C   0  0  0  0  0  0  0  0  0  0  0  0
   -7.5830    2.5182   -0.2596 H   0  0  0  0  0  0  0  0  0  0  0  0
   -8.6372    0.6154   -0.2666 C   0  0  0  0  0  0  0  0  0  0  0  0
   -9.6309    1.0749   -0.1580 H   0  0  0  0  0  0  0  0  0  0  0  0
   -8.5131   -0.7797   -0.3581 C   0  0  0  0  0  0  0  0  0  0  0  0
   -9.4093   -1.4170   -0.3229 H   0  0  0  0  0  0  0  0  0  0  0  0
   -7.2460   -1.3644   -0.5020 C   0  0  0  0  0  0  0  0  0  0  0  0
   -7.1556   -2.4599   -0.5824 H   0  0  0  0  0  0  0  0  0  0  0  0
  2 14  1  0  0  0  0
  5  6  1  0  0  0  0
  6 20  1  0  0  0  0
  6  7  1  0  0  0  0
  8 21  1  0  0  0  0
  9  8  1  0  0  0  0
 10  4  1  0  0  0  0
 11  1  1  0  0  0  0
 11 10  2  0  0  0  0
 12 14  2  0  0  0  0
 12 11  1  0  0  0  0
 13 12  1  0  0  0  0
 14 15  1  0  0  0  0
 15 17  1  0  0  0  0
 16 15  1  0  0  0  0
 17 10  1  0  0  0  0
 17 18  2  0  0  0  0
 18  5  1  0  0  0  0
 18 19  1  0  0  0  0
 20  3  1  1  0  0  0
 20  8  1  0  0  0  0
 21 22  1  0  0  0  0
 21 23  1  0  0  0  0
 24 27  1  0  0  0  0
 24 21  1  0  0  0  0
 25 24  1  0  0  0  0
 26 24  1  0  0  0  0
 27 36  2  0  0  0  0
 27 28  1  0  0  0  0
 28 30  2  0  0  0  0
 29 28  1  0  0  0  0
 30 32  1  0  0  0  0
 30 31  1  0  0  0  0
 32 33  1  0  0  0  0
 34 35  1  0  0  0  0
 34 32  2  0  0  0  0
 36 34  1  0  0  0  0
 37 36  1  0  0  0  0
M  CHG  1   4  -1
M  END
