2,3,8
q = -2.0, confidence = 0.92

 20 20  0  0  1  0  0  0  0  0999 V2000
    7.3693   -0.8537    0.0126 Cl  0  0  0  0  0  0  0  0  0  0  0  0
   -1.0932    2.8192   -0.0678 S   0  0  0  0  0  1  0  0  0  0  0  0
    1.4654   -0.6638   -0.0743 O   0  0  0  0  0  1  0  0  0  0  0  0
   -0.0710    5.2950   -0.0250 N   0  0  0  0  0  0  0  0  0  0  0  0
    0.6769    5.9534    0.1947 H   0  0  0  0  0  0  0  0  0  0  0  0
   -1.0191    5.5604    0.2346 H   0  0  0  0  0  0  0  0  0  0  0  0
    1.5239    3.6285    0.0312 N   0  0  0  0  0  0  0  0  0  0  0  0
    1.7670    2.2879   -0.0042 N   0  0  0  0  0  2  0  0  0  0  0  0
    0.2566    3.9650    0.0026 C   0  0  0  0  0  0  0  0  0  0  0  0
    3.0328    1.9227    0.0221 C   0  0  0  0  0  0  0  0  0  0  0  0
    3.7530    2.7602    0.0669 H   0  0  0  0  0  0  0  0  0  0  0  0
    3.5670    0.5913   -0.0055 C   0  0  0  0  0  0  0  0  0  0  0  0
    2.7711   -0.6148   -0.0589 C   0  0  2  0  0  3  0  0  0  0  0  0
    3.4681   -1.8635   -0.1002 C   0  0  0  0  0  0  0  0  0  0  0  0
    2.8524   -2.7730   -0.1548 H   0  0  0  0  0  0  0  0  0  0  0  0
    4.8542   -1.9405   -0.0789 C   0  0  0  0  0  0  0  0  0  0  0  0
    5.3639   -2.9143   -0.1116 H   0  0  0  0  0  0  0  0  0  0  0  0
    5.6212   -0.7532   -0.0168 C   0  0  0  0  0  0  0  0  0  0  0  0
    4.9894    0.4820    0.0172 C   0  0  0  0  0  0  0  0  0  0  0  0
    5.5945    1.3994    0.0603 H   0  0  0  0  0  0  0  0  0  0  0  0
  2  9  1  0  0  0  0
  4  9  1  0  0  0  0
  4  5  1  0  0  0  0
  4  6  1  0  0  0  0
  8 10  1  0  0  0  0
  8  7  1  0  0  0  0
  9  7  2  0  0  0  0
 10 11  1  0  0  0  0
 12 19  1  0  0  0  0
 12 10  2  0  0  0  0
 13  3  1  6  0  0  0
 13 12  1  0  0  0  0
 14 16  2  0  0  0  0
 14 13  1  0  0  0  0
 15 14  1  0  0  0  0
 16 18  1  0  0  0  0
 17 16  1  0  0  0  0
 18  1  1  0  0  0  0
 18 19  2  0  0  0  0
 19 20  1  0  0  0  0
M  END
