1,2,8
q = -2.0, confidence = 0.908

 24 24  0  0  1  0  0  0  0  0999 V2000
   -1.1547    2.8079   -0.1592 S   0  0  0  0  0  1  0  0  0  0  0  0
    1.8216   -0.3317   -0.0442 O   0  0  0  0  0  1  0  0  0  0  0  0
    3.3079   -2.4573   -0.1899 O   0  0  0  0  0  0  0  0  0  0  0  0
   -0.4532    5.3942   -0.1057 N   0  0  0  0  0  0  0  0  0  0  0  0
   -1.4283    5.5360    0.1527 H   0  0  0  0  0  0  0  0  0  0  0  0
    0.2013    6.1358    0.1464 H   0  0  0  0  0  0  0  0  0  0  0  0
    1.3333    3.9355    0.0285 N   0  0  0  0  0  0  0  0  0  0  0  0
    1.7400    2.6323    0.0084 N   0  0  0  0  0  2  0  0  0  0  0  0
    0.0383    4.1136   -0.0488 C   0  0  0  0  0  0  0  0  0  0  0  0
    3.0392    2.4267    0.0818 C   0  0  0  0  0  0  0  0  0  0  0  0
    3.6448    3.3491    0.1507 H   0  0  0  0  0  0  0  0  0  0  0  0
    3.7453    1.1798    0.0669 C   0  0  0  0  0  0  0  0  0  0  0  0
    3.1067   -0.1084   -0.0139 C   0  0  2  0  0  3  0  0  0  0  0  0
    3.9709   -1.2702   -0.0772 C   0  0  0  0  0  0  0  0  0  0  0  0
    5.3593   -1.1448   -0.0303 C   0  0  0  0  0  0  0  0  0  0  0  0
    5.9945   -2.0398   -0.0753 H   0  0  0  0  0  0  0  0  0  0  0  0
    5.9660    0.1317    0.0741 C   0  0  0  0  0  0  0  0  0  0  0  0
    7.0620    0.2118    0.1127 H   0  0  0  0  0  0  0  0  0  0  0  0
    5.1733    1.2642    0.1182 C   0  0  0  0  0  0  0  0  0  0  0  0
    5.6318    2.2626    0.1871 H   0  0  0  0  0  0  0  0  0  0  0  0
    4.0762   -3.6236   -0.3779 C   0  0  0  0  0  0  0  0  0  0  0  0
    3.3582   -4.4523   -0.5244 H   0  0  0  0  0  0  0  0  0  0  0  0
    4.7193   -3.8520    0.5038 H   0  0  0  0  0  0  0  0  0  0  0  0
    4.7298   -3.5505   -1.2772 H   0  0  0  0  0  0  0  0  0  0  0  0
  1  9  1  0  0  0  0
  3 14  1  0  0  0  0
  4  9  1  0  0  0  0
  4  6  1  0  0  0  0
  4  5  1  0  0  0  0
  8  7  1  0  0  0  0
  8 10  1  0  0  0  0
  9  7  2  0  0  0  0
 10 11  1  0  0  0  0
 12 10  2  0  0  0  0
 12 19  1  0  0  0  0
 13  2  1  6  0  0  0
 13 12  1  0  0  0  0
 14 15  2  0  0  0  0
 14 13  1  0  0  0  0
 15 17  1  0  0  0  0
 16 15  1  0  0  0  0
 17 18  1  0  0  0  0
 17 19  2  0  0  0  0
 19 20  1  0  0  0  0
 21  3  1  0  0  0  0
 21 23  1  0  0  0  0
 22 21  1  0  0  0  0
 24 21  1  0  0  0  0
M  END
