1,4,6
 OpenBabel05122313063D

 22 22  0  0  0  0  0  0  0  0999 V2000
    1.9501    1.2666    0.1100 S   0  0  0  0  0  1  0  0  0  0  0  0
    4.5218   -0.2195    0.0782 S   0  0  0  0  0  0  0  0  0  0  0  0
   -2.1881   -1.4658   -0.0452 N   0  0  0  0  0  0  0  0  0  0  0  0
    0.7908   -1.2615   -0.0043 N   0  0  0  0  0  2  0  0  0  0  0  0
    2.1342   -1.4161    0.0094 N   0  0  0  0  0  0  0  0  0  0  0  0
   -1.7777   -0.2175   -0.0185 O   0  0  0  0  0  1  0  0  0  0  0  0
   -3.5496   -1.6460   -0.0694 C   0  0  0  0  0  0  0  0  0  0  0  0
   -4.1065   -2.9112   -0.0971 C   0  0  0  0  0  0  0  0  0  0  0  0
   -3.2615   -4.0440   -0.1038 C   0  0  0  0  0  0  0  0  0  0  0  0
   -1.8886   -3.8493   -0.0823 C   0  0  0  0  0  0  0  0  0  0  0  0
   -1.3180   -2.5475   -0.0530 C   0  0  0  0  0  0  0  0  0  0  0  0
    0.1009   -2.3948   -0.0303 C   0  0  0  0  0  0  0  0  0  0  0  0
    2.7842   -0.2653    0.0554 C   0  0  0  0  0  0  0  0  0  0  0  0
    4.9424   -1.9883    0.0358 C   0  0  0  0  0  0  0  0  0  0  0  0
   -4.1168   -0.7064   -0.0668 H   0  0  0  0  0  0  0  0  0  0  0  0
   -5.2008   -3.0066   -0.1157 H   0  0  0  0  0  0  0  0  0  0  0  0
   -3.6821   -5.0588   -0.1267 H   0  0  0  0  0  0  0  0  0  0  0  0
   -1.1958   -4.7026   -0.0875 H   0  0  0  0  0  0  0  0  0  0  0  0
    0.6990   -3.3206   -0.0382 H   0  0  0  0  0  0  0  0  0  0  0  0
    6.0480   -2.0228    0.0483 H   0  0  0  0  0  0  0  0  0  0  0  0
    4.5554   -2.4545   -0.8886 H   0  0  0  0  0  0  0  0  0  0  0  0
    4.5335   -2.5027    0.9244 H   0  0  0  0  0  0  0  0  0  0  0  0
  3  6  1  0  0  0  0
  4  5  1  0  0  0  0
  5 13  2  0  0  0  0
  7 15  1  0  0  0  0
  7  3  1  0  0  0  0
  8  7  2  0  0  0  0
  9  8  1  0  0  0  0
  9 10  2  0  0  0  0
 10 11  1  0  0  0  0
 11  3  1  0  0  0  0
 11 12  2  0  0  0  0
 12  4  1  0  0  0  0
 13  2  1  0  0  0  0
 13  1  1  0  0  0  0
 14 20  1  0  0  0  0
 14  2  1  0  0  0  0
 14 22  1  0  0  0  0
 16  8  1  0  0  0  0
 17  9  1  0  0  0  0
 18 10  1  0  0  0  0
 19 12  1  0  0  0  0
 21 14  1  0  0  0  0
M  END
