1,2,3
 OpenBabel05122313063D

 28 29  0  0  0  0  0  0  0  0999 V2000
   -1.4114    1.4003   -0.4568 S   0  0  0  0  0  1  0  0  0  0  0  0
    2.4490    0.6988   -0.5804 O   0  5  0  0  0  0  0  0  0  0  0  0
    0.3089   -0.7880    0.0493 N   0  0  0  0  0  2  0  0  0  0  0  0
   -0.9813   -1.2021    0.0758 N   0  0  0  0  0  0  0  0  0  0  0  0
   -1.8727   -0.2563   -0.1141 C   0  0  0  0  0  0  0  0  0  0  0  0
    1.1967   -1.7596    0.1434 C   0  0  0  0  0  3  0  0  0  0  0  0
   -3.3045   -0.6293   -0.0800 C   0  0  0  0  0  0  0  0  0  0  0  0
   -3.6740   -1.9842    0.0966 C   0  0  0  0  0  0  0  0  0  0  0  0
   -5.0229   -2.3513    0.1317 C   0  0  0  0  0  0  0  0  0  0  0  0
   -6.0268   -1.3770   -0.0082 C   0  0  0  0  0  0  0  0  0  0  0  0
   -5.6703   -0.0303   -0.1827 C   0  0  0  0  0  0  0  0  0  0  0  0
   -4.3205    0.3420   -0.2183 C   0  0  0  0  0  0  0  0  0  0  0  0
    3.2081   -0.3600   -0.3445 C   0  0  0  0  0  0  0  0  0  0  0  0
    2.6182   -1.6071    0.0450 C   0  0  0  0  0  0  0  0  0  0  0  0
    3.4638   -2.7300    0.2567 C   0  0  0  0  0  0  0  0  0  0  0  0
    4.8435   -2.6295    0.1023 C   0  0  0  0  0  0  0  0  0  0  0  0
    5.4121   -1.3959   -0.2877 C   0  0  0  0  0  0  0  0  0  0  0  0
    4.6101   -0.2761   -0.5141 C   0  0  0  0  0  0  0  0  0  0  0  0
    0.7867   -2.7767    0.2887 H   0  0  0  0  0  0  0  0  0  0  0  0
   -2.8766   -2.7325    0.2034 H   0  0  0  0  0  0  0  0  0  0  0  0
   -5.2968   -3.4085    0.2691 H   0  0  0  0  0  0  0  0  0  0  0  0
   -7.0878   -1.6686    0.0197 H   0  0  0  0  0  0  0  0  0  0  0  0
   -6.4504    0.7383   -0.2908 H   0  0  0  0  0  0  0  0  0  0  0  0
   -4.0381    1.3975   -0.3488 H   0  0  0  0  0  0  0  0  0  0  0  0
    3.0032   -3.6866    0.5490 H   0  0  0  0  0  0  0  0  0  0  0  0
    5.4862   -3.5040    0.2776 H   0  0  0  0  0  0  0  0  0  0  0  0
    6.5022   -1.3134   -0.4165 H   0  0  0  0  0  0  0  0  0  0  0  0
    5.0363    0.6891   -0.8219 H   0  0  0  0  0  0  0  0  0  0  0  0
  1  5  1  0  0  0  0
  2 13  1  0  0  0  0
  3  4  1  0  0  0  0
  3  6  1  0  0  0  0
  5  7  1  0  0  0  0
  5  4  2  0  0  0  0
  6 19  1  0  0  0  0
  7  8  1  0  0  0  0
  8  9  2  0  0  0  0
  8 20  1  0  0  0  0
  9 21  1  0  0  0  0
 10 22  1  0  0  0  0
 10  9  1  0  0  0  0
 11 10  2  0  0  0  0
 12 11  1  0  0  0  0
 12  7  2  0  0  0  0
 13 14  1  0  0  0  0
 14  6  1  0  0  0  0
 14 15  2  0  0  0  0
 15 25  1  0  0  0  0
 16 15  1  0  0  0  0
 16 26  1  0  0  0  0
 17 16  2  0  0  0  0
 18 13  2  0  0  0  0
 18 17  1  0  0  0  0
 23 11  1  0  0  0  0
 24 12  1  0  0  0  0
 27 17  1  0  0  0  0
 28 18  1  0  0  0  0
M  CHG  1   2  -1
M  END
