1,3,11
 OpenBabel05122313063D

 52 54  0  0  0  0  0  0  0  0999 V2000
   -0.1700   -0.3705    2.1965 S   0  0  0  0  0  1  0  0  0  0  0  0
    0.4799    0.4664    0.5036 P   0  0  1  0  0  4  0  0  0  0  0  0
   -3.9933   -0.9295    0.1667 O   0  5  0  0  0  0  0  0  0  0  0  0
   -4.7225   -0.0050   -0.3902 C   0  0  0  0  0  0  0  0  0  0  0  0
   -6.0892   -0.3347   -0.6663 C   0  0  0  0  0  0  0  0  0  0  0  0
   -6.9519    0.5682   -1.2728 C   0  0  0  0  0  0  0  0  0  0  0  0
   -6.5082    1.8586   -1.6541 C   0  0  0  0  0  0  0  0  0  0  0  0
   -5.1868    2.2065   -1.4127 C   0  0  0  0  0  3  0  0  0  0  0  0
   -4.2705    1.3130   -0.7825 C   0  0  0  0  0  0  0  0  0  0  0  0
   -2.9163    1.7685   -0.6410 C   0  0  0  0  0  0  0  0  0  0  0  0
   -1.9518    1.1630    0.0130 N   0  0  0  0  0  2  0  0  0  0  0  0
   -0.6536    1.6779   -0.0071 N   0  0  0  0  0  0  0  0  0  0  0  0
   -0.3123    2.7260   -0.9509 C   0  0  0  0  0  0  0  0  0  0  0  0
    1.8825    1.4536    0.7129 N   0  0  0  0  0  0  0  0  0  0  0  0
    1.8348    2.5086    1.7210 C   0  0  0  0  0  0  0  0  0  0  0  0
    3.0659    0.8792    0.3480 N   0  0  0  0  0  0  0  0  0  0  0  0
    4.2127    1.3615    0.7419 C   0  0  0  0  0  0  0  0  0  0  0  0
    5.4607    0.7553    0.3115 C   0  0  0  0  0  0  0  0  0  0  0  0
    6.6923    1.3111    0.7363 C   0  0  0  0  0  0  0  0  0  0  0  0
    7.9129    0.7622    0.3419 C   0  0  0  0  0  0  0  0  0  0  0  0
    7.9169   -0.3704   -0.4979 C   0  0  0  0  0  0  0  0  0  0  0  0
    6.7192   -0.9434   -0.9331 C   0  0  0  0  0  0  0  0  0  0  0  0
    5.4775   -0.3979   -0.5411 C   0  0  0  0  0  0  0  0  0  0  0  0
    4.3513   -0.9784   -0.9780 O   0  0  0  0  0  0  0  0  0  0  0  0
    0.8522   -0.6644   -0.8570 C   0  0  0  0  0  0  0  0  0  0  0  0
    1.3907   -0.1691   -2.0660 C   0  0  0  0  0  0  0  0  0  0  0  0
    1.6151   -1.0496   -3.1307 C   0  0  0  0  0  0  0  0  0  0  0  0
    1.2940   -2.4109   -2.9988 C   0  0  0  0  0  0  0  0  0  0  0  0
    0.7495   -2.8962   -1.8002 C   0  0  0  0  0  0  0  0  0  0  0  0
    0.5252   -2.0293   -0.7213 C   0  0  0  0  0  0  0  0  0  0  0  0
    3.5800   -0.4647   -0.5900 H   0  0  0  0  0  0  0  0  0  0  0  0
   -6.4210   -1.3394   -0.3684 H   0  0  0  0  0  0  0  0  0  0  0  0
   -7.9966    0.2723   -1.4578 H   0  0  0  0  0  0  0  0  0  0  0  0
   -7.1958    2.5690   -2.1347 H   0  0  0  0  0  0  0  0  0  0  0  0
   -4.8183    3.2021   -1.7098 H   0  0  0  0  0  0  0  0  0  0  0  0
   -2.6855    2.7225   -1.1434 H   0  0  0  0  0  0  0  0  0  0  0  0
   -0.8166    3.6785   -0.6839 H   0  0  0  0  0  0  0  0  0  0  0  0
   -0.5873    2.4541   -1.9957 H   0  0  0  0  0  0  0  0  0  0  0  0
    0.7785    2.8919   -0.8981 H   0  0  0  0  0  0  0  0  0  0  0  0
    2.3319    3.4272    1.3442 H   0  0  0  0  0  0  0  0  0  0  0  0
    2.3303    2.1890    2.6637 H   0  0  0  0  0  0  0  0  0  0  0  0
    0.7755    2.7368    1.9382 H   0  0  0  0  0  0  0  0  0  0  0  0
    4.2860    2.2475    1.4028 H   0  0  0  0  0  0  0  0  0  0  0  0
    6.6694    2.1961    1.3927 H   0  0  0  0  0  0  0  0  0  0  0  0
    8.8586    1.2072    0.6826 H   0  0  0  0  0  0  0  0  0  0  0  0
    8.8731   -0.8137   -0.8155 H   0  0  0  0  0  0  0  0  0  0  0  0
    6.7071   -1.8286   -1.5851 H   0  0  0  0  0  0  0  0  0  0  0  0
    1.6626    0.8911   -2.1682 H   0  0  0  0  0  0  0  0  0  0  0  0
    2.0500   -0.6714   -4.0675 H   0  0  0  0  0  0  0  0  0  0  0  0
    1.4716   -3.0983   -3.8396 H   0  0  0  0  0  0  0  0  0  0  0  0
    0.4893   -3.9599   -1.6977 H   0  0  0  0  0  0  0  0  0  0  0  0
    0.0721   -2.4042    0.2111 H   0  0  0  0  0  0  0  0  0  0  0  0
  2 14  1  0  0  0  0
  2  1  1  1  0  0  0
  4  3  1  0  0  0  0
  5  4  2  0  0  0  0
  5 32  1  0  0  0  0
  6  5  1  0  0  0  0
  7  8  1  0  0  0  0
  7  6  2  0  0  0  0
  8  9  1  0  0  0  0
  9 10  2  0  0  0  0
  9  4  1  0  0  0  0
 10 11  1  0  0  0  0
 12 11  1  0  0  0  0
 12  2  1  0  0  0  0
 13 39  1  0  0  0  0
 13 37  1  0  0  0  0
 13 12  1  0  0  0  0
 14 15  1  0  0  0  0
 15 42  1  0  0  0  0
 15 41  1  0  0  0  0
 16 14  1  0  0  0  0
 16 17  2  0  0  0  0
 17 43  1  0  0  0  0
 18 19  1  0  0  0  0
 18 17  1  0  0  0  0
 19 44  1  0  0  0  0
 20 45  1  0  0  0  0
 20 19  2  0  0  0  0
 21 20  1  0  0  0  0
 22 23  1  0  0  0  0
 22 21  2  0  0  0  0
 23 18  2  0  0  0  0
 24 31  1  0  0  0  0
 24 23  1  0  0  0  0
 25 30  1  0  0  0  0
 25  2  1  0  0  0  0
 26 25  2  0  0  0  0
 27 28  2  0  0  0  0
 27 26  1  0  0  0  0
 28 29  1  0  0  0  0
 29 51  1  0  0  0  0
 29 30  2  0  0  0  0
 30 52  1  0  0  0  0
 33  6  1  0  0  0  0
 34  7  1  0  0  0  0
 35  8  1  0  0  0  0
 36 10  1  0  0  0  0
 38 13  1  0  0  0  0
 40 15  1  0  0  0  0
 46 21  1  0  0  0  0
 47 22  1  0  0  0  0
 48 26  1  0  0  0  0
 49 27  1  0  0  0  0
 50 28  1  0  0  0  0
M  CHG  1   3  -1
M  END
