1,2,3
 OpenBabel05122313063D

 36 38  0  0  0  0  0  0  0  0999 V2000
    2.0761   -1.4799   -1.4429 S   0  0  0  0  0  1  0  0  0  0  0  0
   -1.9881   -1.5464   -0.1633 O   0  5  0  0  0  0  0  0  0  0  0  0
    0.0382    0.3182   -0.3650 N   0  0  0  0  0  2  0  0  0  0  0  0
    1.2796    0.8572   -0.2372 N   0  0  0  0  0  0  0  0  0  0  0  0
    3.5556    0.5682   -0.6938 N   0  0  0  0  0  0  0  0  0  0  0  0
    4.2178   -0.0982   -1.0957 H   0  0  0  0  0  0  0  0  0  0  0  0
   -0.9507    1.1377   -0.0614 C   0  0  0  0  0  3  0  0  0  0  0  0
   -0.6341    2.1610    0.2026 H   0  0  0  0  0  0  0  0  0  0  0  0
    2.2569    0.1250   -0.7214 C   0  0  0  0  0  0  0  0  0  0  0  0
    4.1283    1.7688   -0.2463 C   0  0  0  0  0  0  0  0  0  0  0  0
    3.4002    2.8123    0.3678 C   0  0  0  0  0  0  0  0  0  0  0  0
    2.3203    2.6918    0.5065 H   0  0  0  0  0  0  0  0  0  0  0  0
    4.0719    3.9710    0.7822 C   0  0  0  0  0  0  0  0  0  0  0  0
    3.4932    4.7773    1.2585 H   0  0  0  0  0  0  0  0  0  0  0  0
    5.4559    4.1167    0.6024 C   0  0  0  0  0  0  0  0  0  0  0  0
    5.9690    5.0316    0.9333 H   0  0  0  0  0  0  0  0  0  0  0  0
    6.1784    3.0772   -0.0065 C   0  0  0  0  0  0  0  0  0  0  0  0
    7.2644    3.1703   -0.1583 H   0  0  0  0  0  0  0  0  0  0  0  0
    5.5247    1.9154   -0.4275 C   0  0  0  0  0  0  0  0  0  0  0  0
    6.0968    1.1047   -0.9075 H   0  0  0  0  0  0  0  0  0  0  0  0
   -2.8166   -0.5154   -0.0334 C   0  0  0  0  0  0  0  0  0  0  0  0
   -4.1987   -0.8126    0.1526 C   0  0  0  0  0  0  0  0  0  0  0  0
   -4.4934   -1.8713    0.1464 H   0  0  0  0  0  0  0  0  0  0  0  0
   -5.1157    0.2025    0.3279 C   0  0  0  0  0  0  0  0  0  0  0  0
   -6.1820   -0.0354    0.4658 H   0  0  0  0  0  0  0  0  0  0  0  0
   -4.7162    1.5739    0.3251 C   0  0  0  0  0  0  0  0  0  0  0  0
   -3.3239    1.9019    0.1449 C   0  0  0  0  0  0  0  0  0  0  0  0
   -2.3550    0.8289   -0.0156 C   0  0  0  0  0  0  0  0  0  0  0  0
   -5.6739    2.6138    0.4888 C   0  0  0  0  0  0  0  0  0  0  0  0
   -6.7304    2.3345    0.6255 H   0  0  0  0  0  0  0  0  0  0  0  0
   -5.2938    3.9479    0.4717 C   0  0  0  0  0  0  0  0  0  0  0  0
   -6.0430    4.7435    0.5976 H   0  0  0  0  0  0  0  0  0  0  0  0
   -3.9303    4.2780    0.2788 C   0  0  0  0  0  0  0  0  0  0  0  0
   -3.6221    5.3340    0.2482 H   0  0  0  0  0  0  0  0  0  0  0  0
   -2.9735    3.2822    0.1162 C   0  0  0  0  0  0  0  0  0  0  0  0
   -1.9311    3.5826   -0.0569 H   0  0  0  0  0  0  0  0  0  0  0  0
  1  9  1  0  0  0  0
  2 21  1  0  0  0  0
  3  4  1  0  0  0  0
  3  7  1  0  0  0  0
  5 10  1  0  0  0  0
  6  5  1  0  0  0  0
  7 28  1  0  0  0  0
  7  8  1  0  0  0  0
  9  5  1  0  0  0  0
  9  4  2  0  0  0  0
 10 11  1  0  0  0  0
 11 12  1  0  0  0  0
 11 13  2  0  0  0  0
 13 14  1  0  0  0  0
 15 13  1  0  0  0  0
 15 16  1  0  0  0  0
 17 15  2  0  0  0  0
 18 17  1  0  0  0  0
 19 10  2  0  0  0  0
 19 17  1  0  0  0  0
 20 19  1  0  0  0  0
 21 28  2  0  0  0  0
 21 22  1  0  0  0  0
 22 24  2  0  0  0  0
 23 22  1  0  0  0  0
 24 25  1  0  0  0  0
 26 24  1  0  0  0  0
 26 29  1  0  0  0  0
 27 26  2  0  0  0  0
 28 27  1  0  0  0  0
 29 30  1  0  0  0  0
 31 29  2  0  0  0  0
 31 32  1  0  0  0  0
 33 31  1  0  0  0  0
 34 33  1  0  0  0  0
 35 27  1  0  0  0  0
 35 33  2  0  0  0  0
 36 35  1  0  0  0  0
M  CHG  1   2  -1
M  END
