1,2,8
 OpenBabel05122313063D

 32 33  0  0  0  0  0  0  0  0999 V2000
   -2.0968   -2.2074   -0.4124 S   0  0  0  0  0  1  0  0  0  0  0  0
    1.4902   -0.3297   -1.4062 O   0  5  0  0  0  0  0  0  0  0  0  0
    4.5496    5.0726   -0.5973 O   0  0  0  0  0  0  0  0  0  0  0  0
    2.5606    5.6918    0.0730 O   0  0  0  0  0  0  0  0  0  0  0  0
   -4.2819   -0.7803   -0.0609 N   0  0  0  0  0  0  0  0  0  0  0  0
   -4.5853   -1.7556   -0.0893 H   0  0  0  0  0  0  0  0  0  0  0  0
   -2.3760    0.5556   -0.1827 N   0  0  0  0  0  0  0  0  0  0  0  0
   -1.0339    0.5807   -0.3493 N   0  0  0  0  0  2  0  0  0  0  0  0
    3.3515    4.8545   -0.3788 N   0  0  0  0  0  0  0  0  0  0  0  0
    1.8577    0.8881   -1.1780 C   0  0  0  0  0  0  0  0  0  0  0  0
    3.2210    1.2617   -1.4424 C   0  0  0  0  0  0  0  0  0  0  0  0
    3.8690    0.4719   -1.8503 H   0  0  0  0  0  0  0  0  0  0  0  0
    3.7132    2.5301   -1.1829 C   0  0  0  0  0  0  0  0  0  0  0  0
    4.7618    2.8016   -1.3652 H   0  0  0  0  0  0  0  0  0  0  0  0
    2.8414    3.5152   -0.6668 C   0  0  0  0  0  0  0  0  0  0  0  0
    1.4964    3.2268   -0.4325 C   0  0  0  0  0  0  0  0  0  0  0  0
    0.8507    4.0331   -0.0555 H   0  0  0  0  0  0  0  0  0  0  0  0
    0.9746    1.9353   -0.6607 C   0  0  0  0  0  0  0  0  0  0  0  0
   -0.4428    1.7485   -0.4238 C   0  0  0  0  0  3  0  0  0  0  0  0
   -1.0718    2.6539   -0.3015 H   0  0  0  0  0  0  0  0  0  0  0  0
   -2.9186   -0.6530   -0.2067 C   0  0  0  0  0  0  0  0  0  0  0  0
   -5.3109    0.1555    0.1099 C   0  0  0  0  0  0  0  0  0  0  0  0
   -5.1156    1.5544    0.1750 C   0  0  0  0  0  0  0  0  0  0  0  0
   -4.0961    1.9457    0.0871 H   0  0  0  0  0  0  0  0  0  0  0  0
   -6.2205    2.3998    0.3471 C   0  0  0  0  0  0  0  0  0  0  0  0
   -6.0525    3.4870    0.3945 H   0  0  0  0  0  0  0  0  0  0  0  0
   -7.5229    1.8891    0.4585 C   0  0  0  0  0  0  0  0  0  0  0  0
   -8.3797    2.5656    0.5933 H   0  0  0  0  0  0  0  0  0  0  0  0
   -7.7166    0.4991    0.3944 C   0  0  0  0  0  0  0  0  0  0  0  0
   -8.7288    0.0749    0.4786 H   0  0  0  0  0  0  0  0  0  0  0  0
   -6.6263   -0.3589    0.2222 C   0  0  0  0  0  0  0  0  0  0  0  0
   -6.7859   -1.4485    0.1715 H   0  0  0  0  0  0  0  0  0  0  0  0
  1 21  1  0  0  0  0
  2 10  1  0  0  0  0
  3  9  2  0  0  0  0
  5 22  1  0  0  0  0
  6  5  1  0  0  0  0
  8  7  1  0  0  0  0
  9  4  2  0  0  0  0
 10 18  1  0  0  0  0
 11 13  1  0  0  0  0
 11 10  2  0  0  0  0
 12 11  1  0  0  0  0
 13 15  2  0  0  0  0
 14 13  1  0  0  0  0
 15 16  1  0  0  0  0
 15  9  1  0  0  0  0
 16 17  1  0  0  0  0
 18 16  2  0  0  0  0
 18 19  1  0  0  0  0
 19  8  1  0  0  0  0
 19 20  1  0  0  0  0
 21  7  2  0  0  0  0
 21  5  1  0  0  0  0
 22 23  2  0  0  0  0
 22 31  1  0  0  0  0
 23 25  1  0  0  0  0
 24 23  1  0  0  0  0
 25 26  1  0  0  0  0
 25 27  2  0  0  0  0
 27 28  1  0  0  0  0
 29 27  1  0  0  0  0
 29 30  1  0  0  0  0
 31 29  2  0  0  0  0
 32 31  1  0  0  0  0
M  CHG  1   2  -1
M  END
