1,2,3
 OpenBabel05122313063D

 40 40  0  0  1  0  0  0  0  0999 V2000
    3.5274   -0.3361    0.4124 S   0  0  0  0  0  0  0  0  0  0  0  0
   -0.7224   -0.3609   -0.1297 O   0  0  0  0  0  1  0  0  0  0  0  0
    1.3533    1.6663   -0.0587 N   0  0  0  0  0  2  0  0  0  0  0  0
   -1.5144    0.6671   -0.0430 C   0  0  2  0  0  3  0  0  0  0  0  0
   -2.9333    0.3933    0.0146 C   0  0  0  0  0  0  0  0  0  0  0  0
   -3.8220    1.4636    0.0844 C   0  0  0  0  0  0  0  0  0  0  0  0
   -3.4012    2.8176    0.1009 C   0  0  0  0  0  0  0  0  0  0  0  0
   -2.0482    3.0978    0.0492 C   0  0  0  0  0  0  0  0  0  0  0  0
   -1.0778    2.0506   -0.0153 C   0  0  0  0  0  0  0  0  0  0  0  0
    0.2955    2.4431   -0.0781 C   0  0  0  0  0  0  0  0  0  0  0  0
    2.6849    2.2304   -0.2875 C   0  0  0  0  0  0  0  0  0  0  0  0
    3.7301    1.4969    0.5428 C   0  0  0  0  0  0  0  0  0  0  0  0
    4.2245   -0.6987   -1.2357 C   0  0  0  0  0  0  0  0  0  0  0  0
   -3.4426   -1.0394   -0.0014 C   0  0  0  0  0  0  0  0  0  0  0  0
   -2.9534   -1.8758    1.2039 C   0  0  0  0  0  0  0  0  0  0  0  0
   -3.2060   -1.2249    2.5627 C   0  0  0  0  0  0  0  0  0  0  0  0
   -2.8980   -1.8937    3.3917 H   0  0  0  0  0  0  0  0  0  0  0  0
   -4.2802   -0.9804    2.7090 H   0  0  0  0  0  0  0  0  0  0  0  0
   -2.6380   -0.2779    2.6709 H   0  0  0  0  0  0  0  0  0  0  0  0
   -3.1415   -1.7678   -1.3314 C   0  0  0  0  0  0  0  0  0  0  0  0
   -3.6631   -1.0468   -2.5734 C   0  0  0  0  0  0  0  0  0  0  0  0
   -3.4641   -1.6330   -3.4934 H   0  0  0  0  0  0  0  0  0  0  0  0
   -3.1827   -0.0545   -2.6990 H   0  0  0  0  0  0  0  0  0  0  0  0
   -4.7594   -0.8742   -2.5171 H   0  0  0  0  0  0  0  0  0  0  0  0
   -4.8996    1.2358    0.1295 H   0  0  0  0  0  0  0  0  0  0  0  0
   -4.1424    3.6278    0.1548 H   0  0  0  0  0  0  0  0  0  0  0  0
   -1.6925    4.1407    0.0604 H   0  0  0  0  0  0  0  0  0  0  0  0
    0.4811    3.5346   -0.1554 H   0  0  0  0  0  0  0  0  0  0  0  0
    2.9355    2.1391   -1.3690 H   0  0  0  0  0  0  0  0  0  0  0  0
    2.6996    3.3172   -0.0451 H   0  0  0  0  0  0  0  0  0  0  0  0
    4.7662    1.7701    0.2599 H   0  0  0  0  0  0  0  0  0  0  0  0
    3.5940    1.6979    1.6245 H   0  0  0  0  0  0  0  0  0  0  0  0
    5.3289   -0.6326   -1.1952 H   0  0  0  0  0  0  0  0  0  0  0  0
    3.8071   -0.0284   -2.0096 H   0  0  0  0  0  0  0  0  0  0  0  0
    3.9030   -1.7380   -1.4396 H   0  0  0  0  0  0  0  0  0  0  0  0
   -4.5512   -0.9588    0.0844 H   0  0  0  0  0  0  0  0  0  0  0  0
   -1.8725   -2.0892    1.0783 H   0  0  0  0  0  0  0  0  0  0  0  0
   -3.4728   -2.8579    1.1559 H   0  0  0  0  0  0  0  0  0  0  0  0
   -3.5957   -2.7807   -1.2667 H   0  0  0  0  0  0  0  0  0  0  0  0
   -2.0461   -1.9234   -1.4078 H   0  0  0  0  0  0  0  0  0  0  0  0
  1 12  1  0  0  0  0
  4  2  1  6  0  0  0
  4  9  1  0  0  0  0
  4  5  1  0  0  0  0
  5  6  2  0  0  0  0
  6  7  1  0  0  0  0
  6 25  1  0  0  0  0
  7 26  1  0  0  0  0
  8 27  1  0  0  0  0
  8  7  2  0  0  0  0
  9  8  1  0  0  0  0
 10  3  1  0  0  0  0
 10  9  2  0  0  0  0
 11  3  1  0  0  0  0
 11 30  1  0  0  0  0
 11 12  1  0  0  0  0
 12 32  1  0  0  0  0
 13 33  1  0  0  0  0
 13  1  1  0  0  0  0
 14  5  1  0  0  0  0
 14 36  1  0  0  0  0
 14 15  1  0  0  0  0
 15 16  1  0  0  0  0
 16 19  1  0  0  0  0
 16 18  1  0  0  0  0
 16 17  1  0  0  0  0
 20 39  1  0  0  0  0
 20 14  1  0  0  0  0
 21 24  1  0  0  0  0
 21 20  1  0  0  0  0
 22 21  1  0  0  0  0
 23 21  1  0  0  0  0
 28 10  1  0  0  0  0
 29 11  1  0  0  0  0
 31 12  1  0  0  0  0
 34 13  1  0  0  0  0
 35 13  1  0  0  0  0
 37 15  1  0  0  0  0
 38 15  1  0  0  0  0
 40 20  1  0  0  0  0
M  END
