2,3,4
 OpenBabel05122313063D

 21 21  0  0  1  0  0  0  0  0999 V2000
    6.8933   -0.3089    0.0421 Br  0  0  0  0  0  0  0  0  0  0  0  0
   -1.8896    2.6605   -0.0198 S   0  0  0  0  0  1  0  0  0  0  0  0
    0.8430   -0.3061   -0.0560 O   0  0  0  0  0  1  0  0  0  0  0  0
    0.9479    2.4529    0.0806 N   0  0  0  0  0  2  0  0  0  0  0  0
    0.5114    3.7595    0.1048 N   0  0  0  0  0  0  0  0  0  0  0  0
    1.2158    4.5062    0.1478 H   0  0  0  0  0  0  0  0  0  0  0  0
   -1.2687    5.2729    0.0771 N   0  0  0  0  0  0  0  0  0  0  0  0
   -2.2747    5.4353    0.0390 H   0  0  0  0  0  0  0  0  0  0  0  0
   -0.6545    6.0868    0.1005 H   0  0  0  0  0  0  0  0  0  0  0  0
    2.8990    0.9949    0.0480 C   0  0  0  0  0  0  0  0  0  0  0  0
    2.1487   -0.2372   -0.0333 C   0  0  2  0  0  3  0  0  0  0  0  0
    2.8821   -1.4600   -0.0963 C   0  0  0  0  0  0  0  0  0  0  0  0
    2.3032   -2.3919   -0.1655 H   0  0  0  0  0  0  0  0  0  0  0  0
    4.2682   -1.4732   -0.0749 C   0  0  0  0  0  0  0  0  0  0  0  0
    4.8127   -2.4273   -0.1246 H   0  0  0  0  0  0  0  0  0  0  0  0
    4.9987   -0.2558    0.0112 C   0  0  0  0  0  0  0  0  0  0  0  0
    4.3284    0.9546    0.0702 C   0  0  0  0  0  0  0  0  0  0  0  0
    4.8934    1.8963    0.1332 H   0  0  0  0  0  0  0  0  0  0  0  0
    2.2594    2.2619    0.0950 C   0  0  0  0  0  0  0  0  0  0  0  0
    2.9113    3.1569    0.1406 H   0  0  0  0  0  0  0  0  0  0  0  0
   -0.8150    4.0038    0.0611 C   0  0  1  0  0  3  0  0  0  0  0  0
  4 19  1  0  0  0  0
  4  5  1  0  0  0  0
  5  6  1  0  0  0  0
  7  9  1  0  0  0  0
  8  7  1  0  0  0  0
 10 17  1  0  0  0  0
 10 19  2  0  0  0  0
 11  3  1  6  0  0  0
 11 10  1  0  0  0  0
 12 14  2  0  0  0  0
 12 11  1  0  0  0  0
 13 12  1  0  0  0  0
 14 16  1  0  0  0  0
 15 14  1  0  0  0  0
 16  1  1  0  0  0  0
 16 17  2  0  0  0  0
 17 18  1  0  0  0  0
 19 20  1  0  0  0  0
 21  2  1  6  0  0  0
 21  7  1  0  0  0  0
 21  5  1  0  0  0  0
M  END
