1,2,3
 OpenBabel05122313063D

 22 22  0  0  1  0  0  0  0  0999 V2000
    1.4280    2.6505   -0.2857 S   0  0  0  0  0  1  0  0  0  0  0  0
   -1.2344   -0.3921   -0.3105 O   0  0  0  0  0  1  0  0  0  0  0  0
   -1.3773    2.3971   -0.0874 N   0  0  0  0  0  2  0  0  0  0  0  0
   -1.0506    3.7250   -0.0482 N   0  0  0  0  0  0  0  0  0  0  0  0
    0.7078    5.2277   -0.0200 N   0  0  0  0  0  0  0  0  0  0  0  0
    0.0229    5.9777   -0.1200 H   0  0  0  0  0  0  0  0  0  0  0  0
    1.6626    5.4164   -0.3186 H   0  0  0  0  0  0  0  0  0  0  0  0
   -6.8187   -0.4861    0.0161 N   0  0  0  0  0  0  0  0  0  0  0  0
   -7.4218    0.5817    0.1664 O   0  0  0  0  0  0  0  0  0  0  0  0
   -7.3620   -1.5931   -0.0626 O   0  0  0  0  0  0  0  0  0  0  0  0
   -3.2950    0.8593   -0.0760 C   0  0  0  0  0  0  0  0  0  0  0  0
   -2.5334   -0.3596   -0.2388 C   0  0  1  0  0  3  0  0  0  0  0  0
   -3.2489   -1.5970   -0.3303 C   0  0  0  0  0  0  0  0  0  0  0  0
   -2.6528   -2.5097   -0.4725 H   0  0  0  0  0  0  0  0  0  0  0  0
   -4.6311   -1.6433   -0.2497 C   0  0  0  0  0  0  0  0  0  0  0  0
   -5.1889   -2.5867   -0.3175 H   0  0  0  0  0  0  0  0  0  0  0  0
   -5.3558   -0.4407   -0.0748 C   0  0  0  0  0  0  0  0  0  0  0  0
   -4.7054    0.7870    0.0077 C   0  0  0  0  0  0  0  0  0  0  0  0
   -5.3107    1.6956    0.1340 H   0  0  0  0  0  0  0  0  0  0  0  0
   -2.6722    2.1471   -0.0109 C   0  0  0  0  0  0  0  0  0  0  0  0
   -3.3188    3.0354    0.1032 H   0  0  0  0  0  0  0  0  0  0  0  0
    0.2402    3.9471   -0.1076 C   0  0  0  0  0  0  0  0  0  0  0  0
  1 22  1  0  0  0  0
  3  4  1  0  0  0  0
  3 20  1  0  0  0  0
  6  5  1  0  0  0  0
  7  5  1  0  0  0  0
  8  9  2  0  0  0  0
 10  8  2  0  0  0  0
 11 20  2  0  0  0  0
 11 18  1  0  0  0  0
 12  2  1  6  0  0  0
 12 11  1  0  0  0  0
 13 15  2  0  0  0  0
 13 12  1  0  0  0  0
 14 13  1  0  0  0  0
 15 17  1  0  0  0  0
 16 15  1  0  0  0  0
 17 18  2  0  0  0  0
 17  8  1  0  0  0  0
 18 19  1  0  0  0  0
 20 21  1  0  0  0  0
 22  4  2  0  0  0  0
 22  5  1  0  0  0  0
M  END
