1,2,5
 OpenBabel05122313063D

 25 25  0  0  1  0  0  0  0  0999 V2000
   -0.3688    2.5998   -0.3306 S   0  0  0  0  0  1  0  0  0  0  0  0
    1.5629   -0.9544   -0.2932 O   0  0  0  0  0  1  0  0  0  0  0  0
    2.3178   -3.4758   -0.5677 O   0  0  0  0  0  0  0  0  0  0  0  0
    1.4601   -2.9943   -0.6226 H   0  0  0  0  0  0  0  0  0  0  0  0
    2.3173    1.6929   -0.0129 N   0  0  0  0  0  2  0  0  0  0  0  0
    2.2126    3.0683    0.0085 N   0  0  0  0  0  0  0  0  0  0  0  0
    3.0747    3.6194    0.0916 H   0  0  0  0  0  0  0  0  0  0  0  0
    0.8714    4.9767   -0.1059 N   0  0  0  0  0  0  0  0  0  0  0  0
   -0.0795    5.3334   -0.2131 H   0  0  0  0  0  0  0  0  0  0  0  0
    2.8561   -1.1752   -0.1836 C   0  0  1  0  0  3  0  0  0  0  0  0
    3.2633   -2.5490   -0.3173 C   0  0  0  0  0  0  0  0  0  0  0  0
    4.6068   -2.8977   -0.1949 C   0  0  0  0  0  0  0  0  0  0  0  0
    4.8788   -3.9582   -0.2978 H   0  0  0  0  0  0  0  0  0  0  0  0
    5.5947   -1.9107    0.0514 C   0  0  0  0  0  0  0  0  0  0  0  0
    6.6468   -2.2145    0.1471 H   0  0  0  0  0  0  0  0  0  0  0  0
    5.2420   -0.5773    0.1607 C   0  0  0  0  0  0  0  0  0  0  0  0
    6.0048    0.1957    0.3370 H   0  0  0  0  0  0  0  0  0  0  0  0
    3.8692   -0.1820    0.0348 C   0  0  0  0  0  0  0  0  0  0  0  0
    3.5408    1.1943    0.1001 C   0  0  0  0  0  0  0  0  0  0  0  0
    4.3770    1.9072    0.2436 H   0  0  0  0  0  0  0  0  0  0  0  0
    0.9956    3.6349   -0.1194 C   0  0  1  0  0  3  0  0  0  0  0  0
    1.9746    5.9137    0.0082 C   0  0  0  0  0  0  0  0  0  0  0  0
    1.5750    6.9429    0.0039 H   0  0  0  0  0  0  0  0  0  0  0  0
    2.6828    5.8227   -0.8447 H   0  0  0  0  0  0  0  0  0  0  0  0
    2.5311    5.7744    0.9610 H   0  0  0  0  0  0  0  0  0  0  0  0
  3 11  1  0  0  0  0
  4  3  1  0  0  0  0
  5  6  1  0  0  0  0
  5 19  1  0  0  0  0
  6  7  1  0  0  0  0
  8 22  1  0  0  0  0
  9  8  1  0  0  0  0
 10  2  1  6  0  0  0
 10 18  1  0  0  0  0
 11 12  2  0  0  0  0
 11 10  1  0  0  0  0
 12 14  1  0  0  0  0
 13 12  1  0  0  0  0
 14 15  1  0  0  0  0
 14 16  2  0  0  0  0
 16 17  1  0  0  0  0
 18 19  2  0  0  0  0
 18 16  1  0  0  0  0
 19 20  1  0  0  0  0
 21  1  1  6  0  0  0
 21  8  1  0  0  0  0
 21  6  1  0  0  0  0
 22 25  1  0  0  0  0
 23 22  1  0  0  0  0
 24 22  1  0  0  0  0
M  END
