1,2,8
 OpenBabel05122313063D

 30 31  0  0  1  0  0  0  0  0999 V2000
   -4.2275    0.3752    0.2161 S   0  0  0  0  0  1  0  0  0  0  0  0
   -0.1595   -0.7846    1.2313 O   0  5  0  0  0  0  0  0  0  0  0  0
   -4.6448    2.9290   -0.3530 N   0  0  0  0  0  0  0  0  0  0  0  0
   -4.4008    3.9157   -0.4559 H   0  0  0  0  0  0  0  0  0  0  0  0
   -5.6337    2.6751   -0.3631 H   0  0  0  0  0  0  0  0  0  0  0  0
   -2.4209    2.3586   -0.1526 N   0  0  0  0  0  0  0  0  0  0  0  0
   -2.1843    3.3075   -0.4759 H   0  0  0  0  0  0  0  0  0  0  0  0
   -1.4181    1.4975    0.1184 N   0  0  0  0  0  2  0  0  0  0  0  0
    2.0867   -0.8993    0.9746 N   0  0  0  0  0  0  0  0  0  0  0  0
    2.0059   -1.8213    1.4178 H   0  0  0  0  0  0  0  0  0  0  0  0
   -3.7380    1.9626   -0.1120 C   0  0  1  0  0  3  0  0  0  0  0  0
   -0.1918    1.8864   -0.0828 C   0  0  0  0  0  3  0  0  0  0  0  0
    0.0041    2.9041   -0.4836 H   0  0  0  0  0  0  0  0  0  0  0  0
    0.9788    1.0703    0.1573 C   0  0  0  0  0  0  0  0  0  0  0  0
    0.8929   -0.2408    0.8064 C   0  0  0  0  0  0  0  0  0  0  0  0
    2.2268    1.5595   -0.2225 C   0  0  0  0  0  0  0  0  0  0  0  0
    2.2891    2.5507   -0.7008 H   0  0  0  0  0  0  0  0  0  0  0  0
    3.4315    0.8304   -0.0298 C   0  0  0  0  0  0  0  0  0  0  0  0
    3.3378   -0.4513    0.5943 C   0  0  0  0  0  0  0  0  0  0  0  0
    4.4993   -1.2198    0.8056 C   0  0  0  0  0  0  0  0  0  0  0  0
    4.4294   -2.2082    1.2840 H   0  0  0  0  0  0  0  0  0  0  0  0
    5.7320   -0.7150    0.3992 C   0  0  0  0  0  0  0  0  0  0  0  0
    6.6347   -1.3229    0.5662 H   0  0  0  0  0  0  0  0  0  0  0  0
    5.8666    0.5591   -0.2256 C   0  0  0  0  0  0  0  0  0  0  0  0
    7.2236    1.0530   -0.6465 C   0  0  0  0  0  0  0  0  0  0  0  0
    7.9137    1.1066    0.2206 H   0  0  0  0  0  0  0  0  0  0  0  0
    7.1720    2.0573   -1.1066 H   0  0  0  0  0  0  0  0  0  0  0  0
    7.6862    0.3623   -1.3814 H   0  0  0  0  0  0  0  0  0  0  0  0
    4.7094    1.3107   -0.4281 C   0  0  0  0  0  3  0  0  0  0  0  0
    4.7716    2.2988   -0.9093 H   0  0  0  0  0  0  0  0  0  0  0  0
  3 11  1  0  0  0  0
  4  3  1  0  0  0  0
  5  3  1  0  0  0  0
  6 11  1  0  0  0  0
  6  8  1  0  0  0  0
  7  6  1  0  0  0  0
  9 10  1  0  0  0  0
 11  1  1  1  0  0  0
 12  8  1  0  0  0  0
 12 14  1  0  0  0  0
 13 12  1  0  0  0  0
 14 15  2  0  0  0  0
 15  9  1  0  0  0  0
 15  2  1  0  0  0  0
 16 18  2  0  0  0  0
 16 14  1  0  0  0  0
 17 16  1  0  0  0  0
 18 19  1  0  0  0  0
 19 20  2  0  0  0  0
 19  9  1  0  0  0  0
 20 21  1  0  0  0  0
 22 23  1  0  0  0  0
 22 20  1  0  0  0  0
 24 22  2  0  0  0  0
 25 24  1  0  0  0  0
 25 26  1  0  0  0  0
 27 25  1  0  0  0  0
 28 25  1  0  0  0  0
 29 24  1  0  0  0  0
 29 18  1  0  0  0  0
 30 29  1  0  0  0  0
M  CHG  1   2  -1
M  END
