1,2,6
 OpenBabel05122313063D

 34 35  0  0  1  0  0  0  0  0999 V2000
   -0.8286    0.1852   -0.0161 S   0  0  0  0  0  1  0  0  0  0  0  0
    3.1912   -0.0366   -0.0661 O   0  0  0  0  0  1  0  0  0  0  0  0
   -7.6098   -0.0235   -0.0266 O   0  0  0  0  0  0  0  0  0  0  0  0
   -2.3993   -2.0696    0.1686 N   0  0  0  0  0  0  0  0  0  0  0  0
   -0.1483   -2.4145    0.0881 N   0  0  0  0  0  0  0  0  0  0  0  0
    1.0956   -1.8492    0.0412 N   0  0  0  0  0  2  0  0  0  0  0  0
   -3.6696   -1.4856    0.0880 C   0  0  0  0  0  0  0  0  0  0  0  0
   -3.9334   -0.2600   -0.5558 C   0  0  0  0  0  0  0  0  0  0  0  0
   -5.2362    0.2610   -0.6034 C   0  0  0  0  0  0  0  0  0  0  0  0
   -6.3110   -0.4436   -0.0280 C   0  0  0  0  0  0  0  0  0  0  0  0
   -6.0558   -1.6835    0.5969 C   0  0  0  0  0  0  0  0  0  0  0  0
   -4.7593   -2.1896    0.6587 C   0  0  0  0  0  0  0  0  0  0  0  0
   -1.1331   -1.5409    0.0716 C   0  0  0  0  0  0  0  0  0  0  0  0
    2.0919   -2.7249    0.0252 C   0  0  0  0  0  0  0  0  0  0  0  0
    3.4873   -2.4355   -0.0297 C   0  0  0  0  0  0  0  0  0  0  0  0
    4.4188   -3.5136   -0.0440 C   0  0  0  0  0  0  0  0  0  0  0  0
    5.7891   -3.2906   -0.1072 C   0  0  0  0  0  0  0  0  0  0  0  0
    6.2694   -1.9593   -0.1585 C   0  0  0  0  0  0  0  0  0  0  0  0
    5.3883   -0.8820   -0.1442 C   0  0  0  0  0  0  0  0  0  0  0  0
    3.9776   -1.0816   -0.0788 C   0  0  1  0  0  3  0  0  0  0  0  0
   -7.9104    1.2075   -0.6500 C   0  0  0  0  0  0  0  0  0  0  0  0
   -2.3751   -3.0754    0.3544 H   0  0  0  0  0  0  0  0  0  0  0  0
   -3.1142    0.2909   -1.0368 H   0  0  0  0  0  0  0  0  0  0  0  0
   -5.3977    1.2207   -1.1124 H   0  0  0  0  0  0  0  0  0  0  0  0
   -6.9002   -2.2311    1.0397 H   0  0  0  0  0  0  0  0  0  0  0  0
   -4.5753   -3.1510    1.1640 H   0  0  0  0  0  0  0  0  0  0  0  0
    1.7742   -3.7820    0.0578 H   0  0  0  0  0  0  0  0  0  0  0  0
    4.0248   -4.5418   -0.0053 H   0  0  0  0  0  0  0  0  0  0  0  0
    6.4917   -4.1364   -0.1173 H   0  0  0  0  0  0  0  0  0  0  0  0
    7.3533   -1.7705   -0.2084 H   0  0  0  0  0  0  0  0  0  0  0  0
    5.7489    0.1566   -0.1783 H   0  0  0  0  0  0  0  0  0  0  0  0
   -7.3742    2.0596   -0.1725 H   0  0  0  0  0  0  0  0  0  0  0  0
   -8.9997    1.3615   -0.5359 H   0  0  0  0  0  0  0  0  0  0  0  0
   -7.6599    1.1986   -1.7355 H   0  0  0  0  0  0  0  0  0  0  0  0
  1 13  1  0  0  0  0
  4 22  1  0  0  0  0
  6  5  1  0  0  0  0
  7  4  1  0  0  0  0
  7 12  1  0  0  0  0
  8  7  2  0  0  0  0
  9  8  1  0  0  0  0
  9 10  2  0  0  0  0
 10  3  1  0  0  0  0
 10 11  1  0  0  0  0
 11 12  2  0  0  0  0
 11 25  1  0  0  0  0
 12 26  1  0  0  0  0
 13  5  2  0  0  0  0
 13  4  1  0  0  0  0
 14  6  1  0  0  0  0
 14 27  1  0  0  0  0
 15 14  2  0  0  0  0
 16 15  1  0  0  0  0
 16 28  1  0  0  0  0
 17 16  2  0  0  0  0
 18 19  2  0  0  0  0
 18 17  1  0  0  0  0
 19 20  1  0  0  0  0
 20  2  1  6  0  0  0
 20 15  1  0  0  0  0
 21 33  1  0  0  0  0
 21 32  1  0  0  0  0
 21  3  1  0  0  0  0
 23  8  1  0  0  0  0
 24  9  1  0  0  0  0
 29 17  1  0  0  0  0
 30 18  1  0  0  0  0
 31 19  1  0  0  0  0
 34 21  1  0  0  0  0
M  END
