1,2,3
 OpenBabel05122313063D

 35 36  0  0  1  0  0  0  0  0999 V2000
   -3.3494   -1.4381    0.4668 S   0  0  0  0  0  1  0  0  0  0  0  0
   -0.3039    0.1443    1.0673 O   0  0  0  0  0  1  0  0  0  0  0  0
   -2.4305    1.1775   -0.0921 N   0  0  0  0  0  2  0  0  0  0  0  0
   -3.7936    1.1807   -0.0093 N   0  0  0  0  0  0  0  0  0  0  0  0
    0.1606    1.3512    1.1681 C   0  0  1  0  0  3  0  0  0  0  0  0
   -1.8452    2.3766    0.1538 C   0  0  2  0  0  3  0  0  0  0  0  0
   -0.5064    2.4498    0.5854 C   0  0  0  0  0  3  0  0  0  0  0  0
   -0.0548    3.4452    0.6600 H   0  0  0  0  0  0  0  0  0  0  0  0
    1.3953    1.5069    1.9799 C   0  0  0  0  0  0  0  0  0  0  0  0
   -4.3490    0.0273    0.2561 C   0  0  0  0  0  0  0  0  0  0  0  0
    1.9387    2.7663    2.3222 C   0  0  0  0  0  0  0  0  0  0  0  0
    1.4413    3.6910    2.0004 H   0  0  0  0  0  0  0  0  0  0  0  0
    2.0610    0.3392    2.4186 C   0  0  0  0  0  0  0  0  0  0  0  0
    1.6327   -0.6371    2.1548 H   0  0  0  0  0  0  0  0  0  0  0  0
   -5.8153   -0.0481    0.4201 C   0  0  0  0  0  0  0  0  0  0  0  0
   -6.6010    1.1256    0.3272 C   0  0  0  0  0  0  0  0  0  0  0  0
   -6.0938    2.0808    0.1324 H   0  0  0  0  0  0  0  0  0  0  0  0
   -6.4601   -1.2796    0.6715 C   0  0  0  0  0  0  0  0  0  0  0  0
   -5.8578   -2.1981    0.7338 H   0  0  0  0  0  0  0  0  0  0  0  0
   -2.6819    3.6244    0.0879 C   0  0  0  0  0  0  0  0  0  0  0  0
   -3.3395    3.6108   -0.8029 H   0  0  0  0  0  0  0  0  0  0  0  0
   -2.0342    4.5205    0.0754 H   0  0  0  0  0  0  0  0  0  0  0  0
   -3.3535    3.6878    0.9684 H   0  0  0  0  0  0  0  0  0  0  0  0
    3.1160    2.8513    3.0750 C   0  0  0  0  0  0  0  0  0  0  0  0
    3.5248    3.8394    3.3355 H   0  0  0  0  0  0  0  0  0  0  0  0
   -7.8510   -1.3353    0.8320 C   0  0  0  0  0  0  0  0  0  0  0  0
   -8.3374   -2.3029    1.0277 H   0  0  0  0  0  0  0  0  0  0  0  0
    3.7735    1.6825    3.4978 C   0  0  0  0  0  0  0  0  0  0  0  0
    4.7006    1.7535    4.0872 H   0  0  0  0  0  0  0  0  0  0  0  0
    3.2415    0.4261    3.1656 C   0  0  0  0  0  0  0  0  0  0  0  0
    3.7521   -0.4956    3.4823 H   0  0  0  0  0  0  0  0  0  0  0  0
   -8.6211   -0.1657    0.7380 C   0  0  0  0  0  0  0  0  0  0  0  0
   -9.7139   -0.2112    0.8615 H   0  0  0  0  0  0  0  0  0  0  0  0
   -7.9893    1.0645    0.4831 C   0  0  0  0  0  0  0  0  0  0  0  0
   -8.5875    1.9855    0.4078 H   0  0  0  0  0  0  0  0  0  0  0  0
  3  4  1  0  0  0  0
  4 10  2  0  0  0  0
  5  2  1  1  0  0  0
  5  9  1  0  0  0  0
  6  3  1  1  0  0  0
  6  7  1  0  0  0  0
  7  8  1  0  0  0  0
  7  5  1  0  0  0  0
  9 11  2  0  0  0  0
  9 13  1  0  0  0  0
 10 15  1  0  0  0  0
 10  1  1  0  0  0  0
 11 24  1  0  0  0  0
 12 11  1  0  0  0  0
 13 30  2  0  0  0  0
 14 13  1  0  0  0  0
 15 18  1  0  0  0  0
 16 15  2  0  0  0  0
 16 34  1  0  0  0  0
 17 16  1  0  0  0  0
 18 19  1  0  0  0  0
 18 26  2  0  0  0  0
 20  6  1  0  0  0  0
 20 23  1  0  0  0  0
 21 20  1  0  0  0  0
 22 20  1  0  0  0  0
 24 25  1  0  0  0  0
 24 28  2  0  0  0  0
 26 27  1  0  0  0  0
 28 29  1  0  0  0  0
 30 31  1  0  0  0  0
 30 28  1  0  0  0  0
 32 26  1  0  0  0  0
 32 33  1  0  0  0  0
 34 32  2  0  0  0  0
 35 34  1  0  0  0  0
M  END
