1,2,3
 OpenBabel05122313063D

 35 36  0  0  1  0  0  0  0  0999 V2000
   -1.9092   -0.1173   -1.4119 S   0  0  0  0  0  0  0  0  0  0  0  0
    1.7907   -1.3501    0.3636 O   0  0  0  0  0  1  0  0  0  0  0  0
    0.6466    1.2121   -0.4076 N   0  0  0  0  0  2  0  0  0  0  0  0
    2.8677   -0.6262    0.4486 C   0  0  1  0  0  3  0  0  0  0  0  0
    2.9501    0.8181    0.3231 C   0  0  0  0  0  0  0  0  0  0  0  0
    4.2407    1.4211    0.4645 C   0  0  0  0  0  0  0  0  0  0  0  0
    4.3411    2.5063    0.3293 H   0  0  0  0  0  0  0  0  0  0  0  0
    5.3913    0.6912    0.7212 C   0  0  0  0  0  0  0  0  0  0  0  0
    6.3626    1.2001    0.8000 H   0  0  0  0  0  0  0  0  0  0  0  0
    5.2965   -0.7137    0.8728 C   0  0  0  0  0  0  0  0  0  0  0  0
    6.1978   -1.3083    1.0893 H   0  0  0  0  0  0  0  0  0  0  0  0
    4.0738   -1.3482    0.7390 C   0  0  0  0  0  0  0  0  0  0  0  0
    3.9703   -2.4375    0.8432 H   0  0  0  0  0  0  0  0  0  0  0  0
    1.8024    1.6716    0.0488 C   0  0  0  0  0  0  0  0  0  0  0  0
    1.9378    3.1636    0.2994 C   0  0  0  0  0  0  0  0  0  0  0  0
    2.1229    3.7271   -0.6401 H   0  0  0  0  0  0  0  0  0  0  0  0
    2.7669    3.3812    0.9910 H   0  0  0  0  0  0  0  0  0  0  0  0
    1.0170    3.5713    0.7571 H   0  0  0  0  0  0  0  0  0  0  0  0
   -0.4452    2.1431   -0.7283 C   0  0  0  0  0  0  0  0  0  0  0  0
   -0.0558    3.1221   -1.0751 H   0  0  0  0  0  0  0  0  0  0  0  0
   -1.0603    2.3352    0.1813 H   0  0  0  0  0  0  0  0  0  0  0  0
   -1.3315    1.5803   -1.8262 C   0  0  0  0  0  0  0  0  0  0  0  0
   -0.7621    1.4313   -2.7656 H   0  0  0  0  0  0  0  0  0  0  0  0
   -2.1942    2.2385   -2.0453 H   0  0  0  0  0  0  0  0  0  0  0  0
   -3.0325    0.1923   -0.0215 C   0  0  0  0  0  0  0  0  0  0  0  0
   -3.9132    1.2888   -0.0273 C   0  0  0  0  0  0  0  0  0  0  0  0
   -3.9151    2.0136   -0.8542 H   0  0  0  0  0  0  0  0  0  0  0  0
   -4.8127    1.4560    1.0374 C   0  0  0  0  0  0  0  0  0  0  0  0
   -5.4947    2.3197    1.0379 H   0  0  0  0  0  0  0  0  0  0  0  0
   -4.8481    0.5258    2.0872 C   0  0  0  0  0  0  0  0  0  0  0  0
   -5.5556    0.6605    2.9190 H   0  0  0  0  0  0  0  0  0  0  0  0
   -3.9815   -0.5789    2.0686 C   0  0  0  0  0  0  0  0  0  0  0  0
   -4.0072   -1.3171    2.8842 H   0  0  0  0  0  0  0  0  0  0  0  0
   -3.0679   -0.7541    1.0191 C   0  0  0  0  0  0  0  0  0  0  0  0
   -2.3839   -1.6193    0.9885 H   0  0  0  0  0  0  0  0  0  0  0  0
  1 25  1  0  0  0  0
  3 14  1  0  0  0  0
  4  2  1  1  0  0  0
  4 12  1  0  0  0  0
  5  4  1  0  0  0  0
  5  6  1  0  0  0  0
  6  8  2  0  0  0  0
  7  6  1  0  0  0  0
  8  9  1  0  0  0  0
  8 10  1  0  0  0  0
 10 11  1  0  0  0  0
 12 13  1  0  0  0  0
 12 10  2  0  0  0  0
 14 15  1  0  0  0  0
 14  5  2  0  0  0  0
 15 18  1  0  0  0  0
 15 17  1  0  0  0  0
 16 15  1  0  0  0  0
 19  3  1  0  0  0  0
 19 21  1  0  0  0  0
 20 19  1  0  0  0  0
 22  1  1  0  0  0  0
 22 19  1  0  0  0  0
 23 22  1  0  0  0  0
 24 22  1  0  0  0  0
 25 34  1  0  0  0  0
 26 25  2  0  0  0  0
 26 28  1  0  0  0  0
 27 26  1  0  0  0  0
 28 29  1  0  0  0  0
 28 30  2  0  0  0  0
 30 31  1  0  0  0  0
 32 30  1  0  0  0  0
 32 33  1  0  0  0  0
 34 32  2  0  0  0  0
 35 34  1  0  0  0  0
M  END
