2,3,4
 OpenBabel05122313063D

 23 23  0  0  0  0  0  0  0  0999 V2000
   -6.9293   -0.5198   -0.0229 Br  0  0  0  0  0  0  0  0  0  0  0  0
    1.8065    2.5417    0.0682 S   0  0  0  0  0  1  0  0  0  0  0  0
   -0.8720   -0.4855    0.0239 O   0  5  0  0  0  0  0  0  0  0  0  0
   -0.9991    2.3239   -0.0372 N   0  0  0  0  0  2  0  0  0  0  0  0
   -0.6674    3.6515   -0.0455 N   0  0  0  0  0  0  0  0  0  0  0  0
    1.1145    5.1327   -0.0618 N   0  0  0  0  0  0  0  0  0  0  0  0
    2.1116    5.2410    0.1173 H   0  0  0  0  0  0  0  0  0  0  0  0
   -2.1812   -0.4331    0.0165 C   0  0  0  0  0  0  0  0  0  0  0  0
   -2.9066   -1.6600    0.0508 C   0  0  0  0  0  0  0  0  0  0  0  0
   -2.3205   -2.5898    0.0896 H   0  0  0  0  0  0  0  0  0  0  0  0
   -4.2974   -1.6881    0.0401 C   0  0  0  0  0  0  0  0  0  0  0  0
   -4.8361   -2.6462    0.0680 H   0  0  0  0  0  0  0  0  0  0  0  0
   -5.0214   -0.4737   -0.0063 C   0  0  0  0  0  0  0  0  0  0  0  0
   -4.3539    0.7446   -0.0384 C   0  0  0  0  0  3  0  0  0  0  0  0
   -4.9214    1.6863   -0.0722 H   0  0  0  0  0  0  0  0  0  0  0  0
   -2.9306    0.7955   -0.0268 C   0  0  0  0  0  0  0  0  0  0  0  0
   -2.2988    2.0797   -0.0530 C   0  0  0  0  0  0  0  0  0  0  0  0
   -2.9415    2.9781   -0.0831 H   0  0  0  0  0  0  0  0  0  0  0  0
    0.6304    3.8583   -0.0184 C   0  0  0  0  0  0  0  0  0  0  0  0
    0.2534    6.2930    0.0152 C   0  0  0  0  0  0  0  0  0  0  0  0
   -0.5994    6.1674   -0.6799 H   0  0  0  0  0  0  0  0  0  0  0  0
    0.8256    7.1952   -0.2737 H   0  0  0  0  0  0  0  0  0  0  0  0
   -0.1718    6.4467    1.0335 H   0  0  0  0  0  0  0  0  0  0  0  0
  1 13  1  0  0  0  0
  5  4  1  0  0  0  0
  5 19  2  0  0  0  0
  6 19  1  0  0  0  0
  6 20  1  0  0  0  0
  6  7  1  0  0  0  0
  8  3  1  0  0  0  0
  8  9  2  0  0  0  0
  9 10  1  0  0  0  0
 11  9  1  0  0  0  0
 11 12  1  0  0  0  0
 13 11  2  0  0  0  0
 14 16  1  0  0  0  0
 14 13  1  0  0  0  0
 15 14  1  0  0  0  0
 16  8  1  0  0  0  0
 17  4  1  0  0  0  0
 17 16  2  0  0  0  0
 18 17  1  0  0  0  0
 19  2  1  0  0  0  0
 20 23  1  0  0  0  0
 21 20  1  0  0  0  0
 22 20  1  0  0  0  0
M  CHG  1   3  -1
M  END
