1,2,4
 OpenBabel05122313063D

 57 57  0  0  0  0  0  0  0  0999 V2000
    1.4080    0.2928    1.9654 S   0  0  0  0  0  0  0  0  0  0  0  0
    0.5949   -2.1511    0.1653 N   0  0  0  0  0  0  0  0  0  0  0  0
   -1.2357    0.2176   -0.4516 C   0  0  0  0  0  0  0  0  0  0  0  0
    0.0626    0.4499   -0.6682 O   0  5  0  0  0  0  0  0  0  0  0  0
   -2.1655    1.2839   -0.2844 C   0  0  0  0  0  0  0  0  0  0  0  0
   -3.4994    0.9153   -0.0429 C   0  0  0  0  0  0  0  0  0  0  0  0
   -4.2373    1.7163    0.0940 H   0  0  0  0  0  0  0  0  0  0  0  0
   -3.9523   -0.4214    0.0322 C   0  0  0  0  0  0  0  0  0  0  0  0
   -3.0025   -1.4386   -0.1603 C   0  0  0  0  0  0  0  0  0  0  0  0
   -3.2984   -2.4970   -0.1289 H   0  0  0  0  0  0  0  0  0  0  0  0
   -1.6546   -1.1340   -0.4094 C   0  0  0  0  0  0  0  0  0  0  0  0
   -1.7252    2.7544   -0.4034 C   0  0  0  0  0  0  0  0  0  0  0  0
   -2.9122    3.7151   -0.2070 C   0  0  0  0  0  0  0  0  0  0  0  0
   -3.3637    3.6206    0.8018 H   0  0  0  0  0  0  0  0  0  0  0  0
   -3.7088    3.5538   -0.9614 H   0  0  0  0  0  0  0  0  0  0  0  0
   -2.5593    4.7598   -0.3167 H   0  0  0  0  0  0  0  0  0  0  0  0
   -1.1345    2.9953   -1.8138 C   0  0  0  0  0  0  0  0  0  0  0  0
   -0.2395    2.3703   -1.9917 H   0  0  0  0  0  0  0  0  0  0  0  0
   -0.8336    4.0580   -1.9191 H   0  0  0  0  0  0  0  0  0  0  0  0
   -1.8847    2.7715   -2.5991 H   0  0  0  0  0  0  0  0  0  0  0  0
   -0.6573    3.0906    0.6647 C   0  0  0  0  0  0  0  0  0  0  0  0
   -1.0129    2.8333    1.6832 H   0  0  0  0  0  0  0  0  0  0  0  0
   -0.4377    4.1780    0.6416 H   0  0  0  0  0  0  0  0  0  0  0  0
    0.2925    2.5591    0.4743 H   0  0  0  0  0  0  0  0  0  0  0  0
   -5.4387   -0.7061    0.3096 C   0  0  0  0  0  0  0  0  0  0  0  0
   -5.7398   -2.2139    0.3545 C   0  0  0  0  0  0  0  0  0  0  0  0
   -5.1687   -2.7249    1.1560 H   0  0  0  0  0  0  0  0  0  0  0  0
   -5.5045   -2.7103   -0.6086 H   0  0  0  0  0  0  0  0  0  0  0  0
   -6.8172   -2.3769    0.5581 H   0  0  0  0  0  0  0  0  0  0  0  0
   -5.8299   -0.0903    1.6725 C   0  0  0  0  0  0  0  0  0  0  0  0
   -6.9024   -0.2756    1.8895 H   0  0  0  0  0  0  0  0  0  0  0  0
   -5.6676    1.0057    1.6901 H   0  0  0  0  0  0  0  0  0  0  0  0
   -5.2303   -0.5330    2.4937 H   0  0  0  0  0  0  0  0  0  0  0  0
   -0.6431   -2.2130   -0.6901 C   0  0  0  0  0  0  0  0  0  0  0  0
   -0.2749   -2.1491   -1.7362 H   0  0  0  0  0  0  0  0  0  0  0  0
   -1.1171   -3.2096   -0.5480 H   0  0  0  0  0  0  0  0  0  0  0  0
    1.4134   -3.3503   -0.1379 C   0  0  0  0  0  0  0  0  0  0  0  0
    2.3222   -3.3534    0.4882 H   0  0  0  0  0  0  0  0  0  0  0  0
    1.7229   -3.3028   -1.1990 H   0  0  0  0  0  0  0  0  0  0  0  0
    0.8196   -4.2726    0.0468 H   0  0  0  0  0  0  0  0  0  0  0  0
    0.2133   -2.1254    1.6131 C   0  0  0  0  0  0  0  0  0  0  0  0
    0.0154   -3.1637    1.9615 H   0  0  0  0  0  0  0  0  0  0  0  0
   -0.7421   -1.5661    1.6905 H   0  0  0  0  0  0  0  0  0  0  0  0
    1.2503   -1.4646    2.5095 C   0  0  0  0  0  0  0  0  0  0  0  0
    2.2522   -1.9314    2.4191 H   0  0  0  0  0  0  0  0  0  0  0  0
    0.9200   -1.4941    3.5673 H   0  0  0  0  0  0  0  0  0  0  0  0
    2.9764    0.7625    2.8025 C   0  0  0  0  0  0  0  0  0  0  0  0
    2.8426    0.5160    3.8767 H   0  0  0  0  0  0  0  0  0  0  0  0
    3.7659    0.1107    2.3758 H   0  0  0  0  0  0  0  0  0  0  0  0
    3.2624    2.2410    2.5758 C   0  0  0  0  0  0  0  0  0  0  0  0
    3.3563    2.4586    1.4928 H   0  0  0  0  0  0  0  0  0  0  0  0
    4.2159    2.5126    3.0717 H   0  0  0  0  0  0  0  0  0  0  0  0
    2.4612    2.8802    2.9975 H   0  0  0  0  0  0  0  0  0  0  0  0
   -6.2972   -0.0712   -0.8082 C   0  0  0  0  0  0  0  0  0  0  0  0
   -6.0355   -0.4967   -1.7979 H   0  0  0  0  0  0  0  0  0  0  0  0
   -6.1526    1.0259   -0.8648 H   0  0  0  0  0  0  0  0  0  0  0  0
   -7.3754   -0.2597   -0.6245 H   0  0  0  0  0  0  0  0  0  0  0  0
  1 44  1  0  0  0  0
  1 47  1  0  0  0  0
  2 41  1  0  0  0  0
  3 11  2  0  0  0  0
  3  5  1  0  0  0  0
  4  3  1  0  0  0  0
  5  6  2  0  0  0  0
  6  8  1  0  0  0  0
  6  7  1  0  0  0  0
  8 25  1  0  0  0  0
  9 10  1  0  0  0  0
  9  8  2  0  0  0  0
 11  9  1  0  0  0  0
 12  5  1  0  0  0  0
 12 13  1  0  0  0  0
 12 21  1  0  0  0  0
 13 14  1  0  0  0  0
 15 13  1  0  0  0  0
 16 13  1  0  0  0  0
 17 12  1  0  0  0  0
 18 17  1  0  0  0  0
 19 17  1  0  0  0  0
 20 17  1  0  0  0  0
 21 22  1  0  0  0  0
 23 21  1  0  0  0  0
 24 21  1  0  0  0  0
 25 26  1  0  0  0  0
 25 30  1  0  0  0  0
 26 29  1  0  0  0  0
 26 27  1  0  0  0  0
 28 26  1  0  0  0  0
 30 32  1  0  0  0  0
 30 31  1  0  0  0  0
 30 33  1  0  0  0  0
 34 36  1  0  0  0  0
 34 11  1  0  0  0  0
 34  2  1  0  0  0  0
 35 34  1  0  0  0  0
 37 40  1  0  0  0  0
 37  2  1  0  0  0  0
 37 38  1  0  0  0  0
 39 37  1  0  0  0  0
 41 43  1  0  0  0  0
 41 42  1  0  0  0  0
 41 44  1  0  0  0  0
 44 46  1  0  0  0  0
 45 44  1  0  0  0  0
 47 48  1  0  0  0  0
 49 47  1  0  0  0  0
 50 47  1  0  0  0  0
 50 53  1  0  0  0  0
 50 52  1  0  0  0  0
 51 50  1  0  0  0  0
 54 57  1  0  0  0  0
 54 25  1  0  0  0  0
 55 54  1  0  0  0  0
 56 54  1  0  0  0  0
M  CHG  1   4  -1
M  END
