1,12,16
 OpenBabel05122313063D

 33 33  0  0  0  0  0  0  0  0999 V2000
   -0.2346    2.0963    1.0640 S   0  0  0  0  0  0  0  0  0  0  0  0
    1.4790    2.5956    1.1242 C   0  0  0  0  0  0  0  0  0  0  0  0
    2.4291    1.6794    0.6264 C   0  0  0  0  0  0  0  0  0  0  0  0
    3.7931    2.0414    0.6300 C   0  0  0  0  0  0  0  0  0  0  0  0
    4.5260    1.3224    0.2421 H   0  0  0  0  0  0  0  0  0  0  0  0
    4.1791    3.2905    1.1265 C   0  0  0  0  0  0  0  0  0  0  0  0
    5.2450    3.5645    1.1239 H   0  0  0  0  0  0  0  0  0  0  0  0
    3.2251    4.2007    1.6196 C   0  0  0  0  0  0  0  0  0  0  0  0
    3.5380    5.1846    1.9982 H   0  0  0  0  0  0  0  0  0  0  0  0
    1.8674    3.8527    1.6108 C   0  0  0  0  0  0  0  0  0  0  0  0
    1.1023    4.5552    1.9742 H   0  0  0  0  0  0  0  0  0  0  0  0
    1.9465    0.4270    0.1525 N   0  0  0  0  0  2  0  0  0  0  0  0
    2.8687   -0.4147   -0.1522 N   0  0  0  0  0  2  0  0  0  0  0  0
    2.6659   -1.6511   -0.6474 C   0  0  0  0  0  0  0  0  0  0  0  0
    1.3677   -2.1754   -1.0166 C   0  0  0  0  0  0  0  0  0  0  0  0
    0.3069   -1.4839   -0.9090 O   0  5  0  0  0  0  0  0  0  0  0  0
    1.1834   -3.5600   -1.5725 C   0  0  0  0  0  0  0  0  0  0  0  0
    0.1063   -3.7216   -1.7618 H   0  0  0  0  0  0  0  0  0  0  0  0
    1.5785   -4.3189   -0.8703 H   0  0  0  0  0  0  0  0  0  0  0  0
    1.7764   -3.6970   -2.4976 H   0  0  0  0  0  0  0  0  0  0  0  0
    3.9169   -2.4465   -0.8236 C   0  0  0  0  0  0  0  0  0  0  0  0
    3.9140   -3.5967   -1.2625 O   0  0  0  0  0  0  0  0  0  0  0  0
    5.2237   -1.7709   -0.4334 C   0  0  0  0  0  0  0  0  0  0  0  0
    6.0461   -2.4901   -0.5968 H   0  0  0  0  0  0  0  0  0  0  0  0
    5.2043   -1.4433    0.6247 H   0  0  0  0  0  0  0  0  0  0  0  0
    5.3931   -0.8595   -1.0414 H   0  0  0  0  0  0  0  0  0  0  0  0
   -0.5494    1.7247    2.8500 C   0  0  0  0  0  0  0  0  0  0  0  0
    0.1393    0.9043    3.1262 H   0  0  0  0  0  0  0  0  0  0  0  0
   -0.2777    2.6532    3.3921 H   0  0  0  0  0  0  0  0  0  0  0  0
   -2.0042    1.3340    3.0545 C   0  0  0  0  0  0  0  0  0  0  0  0
   -2.1966    1.1977    4.1378 H   0  0  0  0  0  0  0  0  0  0  0  0
   -2.2229    0.3757    2.5484 H   0  0  0  0  0  0  0  0  0  0  0  0
   -2.7020    2.1067    2.6739 H   0  0  0  0  0  0  0  0  0  0  0  0
  1  2  1  0  0  0  0
  1 27  1  0  0  0  0
  2 10  1  0  0  0  0
  3  4  1  0  0  0  0
  3  2  2  0  0  0  0
  4  6  2  0  0  0  0
  5  4  1  0  0  0  0
  6  8  1  0  0  0  0
  7  6  1  0  0  0  0
  8  9  1  0  0  0  0
 10  8  2  0  0  0  0
 10 11  1  0  0  0  0
 12  3  1  0  0  0  0
 13 12  1  0  0  0  0
 14 13  1  0  0  0  0
 15 16  1  0  0  0  0
 15 14  2  0  0  0  0
 17 15  1  0  0  0  0
 17 19  1  0  0  0  0
 18 17  1  0  0  0  0
 20 17  1  0  0  0  0
 21 14  1  0  0  0  0
 21 23  1  0  0  0  0
 22 21  2  0  0  0  0
 23 25  1  0  0  0  0
 24 23  1  0  0  0  0
 26 23  1  0  0  0  0
 27 30  1  0  0  0  0
 27 28  1  0  0  0  0
 27 29  1  0  0  0  0
 30 31  1  0  0  0  0
 32 30  1  0  0  0  0
 33 30  1  0  0  0  0
M  CHG  1  16  -1
M  END
