1,2,5
 OpenBabel05122313063D

 39 40  0  0  1  0  0  0  0  0999 V2000
   -0.6722    1.4233   -1.8470 S   0  0  0  0  0  1  0  0  0  0  0  0
    0.2384   -0.7597   -0.0738 N   0  0  0  0  0  2  0  0  0  0  0  0
   -1.1037   -0.5767   -0.0058 N   0  0  0  0  0  0  0  0  0  0  0  0
   -2.9399    0.5940   -0.7493 N   0  0  0  0  0  0  0  0  0  0  0  0
    2.8547    0.0843    0.1258 O   0  5  0  0  0  0  0  0  0  0  0  0
    3.1465   -1.1949    0.3983 C   0  0  0  0  0  0  0  0  0  0  0  0
    4.5057   -1.5464    0.5433 C   0  0  0  0  0  0  0  0  0  0  0  0
    5.2522   -0.7507    0.4097 H   0  0  0  0  0  0  0  0  0  0  0  0
    4.8752   -2.8633    0.8259 C   0  0  0  0  0  0  0  0  0  0  0  0
    5.9406   -3.1229    0.9208 H   0  0  0  0  0  0  0  0  0  0  0  0
    3.8863   -3.8529    0.9758 C   0  0  0  0  0  0  0  0  0  0  0  0
    4.1675   -4.8966    1.1779 H   0  0  0  0  0  0  0  0  0  0  0  0
    2.5390   -3.5049    0.8651 C   0  0  0  0  0  0  0  0  0  0  0  0
    1.7796   -4.2914    0.9740 H   0  0  0  0  0  0  0  0  0  0  0  0
    2.1209   -2.1768    0.5825 C   0  0  0  0  0  0  0  0  0  0  0  0
    0.6919   -1.8459    0.5418 C   0  0  1  0  0  3  0  0  0  0  0  0
   -0.3084   -2.7497    1.2141 C   0  0  0  0  0  0  0  0  0  0  0  0
   -1.0054   -2.1347    1.8165 H   0  0  0  0  0  0  0  0  0  0  0  0
    0.1717   -3.5045    1.8583 H   0  0  0  0  0  0  0  0  0  0  0  0
   -0.9437   -3.2583    0.4591 H   0  0  0  0  0  0  0  0  0  0  0  0
   -1.5971    0.3745   -0.7748 C   0  0  0  0  0  0  0  0  0  0  0  0
   -3.8897   -0.2613   -0.0478 C   0  0  0  0  0  0  0  0  0  0  0  0
   -3.4080   -0.5368    0.9154 H   0  0  0  0  0  0  0  0  0  0  0  0
   -4.1852   -1.5636   -0.8150 C   0  0  0  0  0  0  0  0  0  0  0  0
   -3.2326   -2.1067   -0.9789 H   0  0  0  0  0  0  0  0  0  0  0  0
   -4.5876   -1.2983   -1.8184 H   0  0  0  0  0  0  0  0  0  0  0  0
   -5.1974   -2.4334   -0.0599 C   0  0  0  0  0  0  0  0  0  0  0  0
   -5.4163   -3.3548   -0.6383 H   0  0  0  0  0  0  0  0  0  0  0  0
   -4.7439   -2.7695    0.8999 H   0  0  0  0  0  0  0  0  0  0  0  0
   -6.4896   -1.6604    0.2350 C   0  0  0  0  0  0  0  0  0  0  0  0
   -6.9985   -1.4213   -0.7260 H   0  0  0  0  0  0  0  0  0  0  0  0
   -7.1970   -2.2898    0.8143 H   0  0  0  0  0  0  0  0  0  0  0  0
   -6.1993   -0.3556    0.9888 C   0  0  0  0  0  0  0  0  0  0  0  0
   -5.7973   -0.5983    1.9980 H   0  0  0  0  0  0  0  0  0  0  0  0
   -7.1354    0.2163    1.1567 H   0  0  0  0  0  0  0  0  0  0  0  0
   -5.1791    0.5161    0.2446 C   0  0  0  0  0  0  0  0  0  0  0  0
   -5.6201    0.8540   -0.7223 H   0  0  0  0  0  0  0  0  0  0  0  0
   -4.9398    1.4315    0.8252 H   0  0  0  0  0  0  0  0  0  0  0  0
   -3.3015    1.2827   -1.4107 H   0  0  0  0  0  0  0  0  0  0  0  0
  1 21  1  0  0  0  0
  2  3  1  0  0  0  0
  4 22  1  0  0  0  0
  5  6  1  0  0  0  0
  6  7  2  0  0  0  0
  6 15  1  0  0  0  0
  7  9  1  0  0  0  0
  8  7  1  0  0  0  0
  9 10  1  0  0  0  0
  9 11  2  0  0  0  0
 11 12  1  0  0  0  0
 13 14  1  0  0  0  0
 13 11  1  0  0  0  0
 15 13  2  0  0  0  0
 16  2  1  1  0  0  0
 16 15  1  0  0  0  0
 16 17  1  0  0  0  0
 17 18  1  0  0  0  0
 17 19  1  0  0  0  0
 20 17  1  0  0  0  0
 21  4  1  0  0  0  0
 21  3  2  0  0  0  0
 22 36  1  0  0  0  0
 22 23  1  0  0  0  0
 24 27  1  0  0  0  0
 24 22  1  0  0  0  0
 25 24  1  0  0  0  0
 26 24  1  0  0  0  0
 27 30  1  0  0  0  0
 27 29  1  0  0  0  0
 28 27  1  0  0  0  0
 30 32  1  0  0  0  0
 30 33  1  0  0  0  0
 31 30  1  0  0  0  0
 33 35  1  0  0  0  0
 33 34  1  0  0  0  0
 36 38  1  0  0  0  0
 36 33  1  0  0  0  0
 37 36  1  0  0  0  0
 39  4  1  0  0  0  0
M  CHG  1   5  -1
M  END
