1,2,5
 OpenBabel05122313063D

 33 34  0  0  1  0  0  0  0  0999 V2000
   -0.8545    1.3966   -1.8581 S   0  0  0  0  0  1  0  0  0  0  0  0
    0.2598   -0.8350   -0.2780 N   0  0  0  0  0  2  0  0  0  0  0  0
   -1.1004   -0.8314   -0.2656 N   0  0  0  0  0  0  0  0  0  0  0  0
   -3.0493    0.2163   -1.0093 N   0  0  0  0  0  0  0  0  0  0  0  0
    2.6737    0.3574    0.2873 O   0  5  0  0  0  0  0  0  0  0  0  0
    3.1500   -0.8866    0.4201 C   0  0  0  0  0  0  0  0  0  0  0  0
    4.5186   -1.0321    0.7360 C   0  0  0  0  0  0  0  0  0  0  0  0
    5.1142   -0.1140    0.8389 H   0  0  0  0  0  0  0  0  0  0  0  0
    5.0857   -2.2987    0.8866 C   0  0  0  0  0  0  0  0  0  0  0  0
    6.1582   -2.3929    1.1151 H   0  0  0  0  0  0  0  0  0  0  0  0
    4.2869   -3.4476    0.7368 C   0  0  0  0  0  0  0  0  0  0  0  0
    4.7262   -4.4501    0.8420 H   0  0  0  0  0  0  0  0  0  0  0  0
    2.9273   -3.3106    0.4554 C   0  0  0  0  0  0  0  0  0  0  0  0
    2.3190   -4.2182    0.3480 H   0  0  0  0  0  0  0  0  0  0  0  0
    2.3109   -2.0404    0.2890 C   0  0  0  0  0  0  0  0  0  0  0  0
    0.8564   -1.9580    0.1039 C   0  0  1  0  0  3  0  0  0  0  0  0
    0.0377   -3.1945    0.3714 C   0  0  0  0  0  0  0  0  0  0  0  0
   -1.0356   -2.9734    0.2601 H   0  0  0  0  0  0  0  0  0  0  0  0
    0.2391   -3.5960    1.3842 H   0  0  0  0  0  0  0  0  0  0  0  0
    0.3059   -3.9896   -0.3545 H   0  0  0  0  0  0  0  0  0  0  0  0
   -1.6790    0.1267   -0.9497 C   0  0  0  0  0  0  0  0  0  0  0  0
   -4.0613   -0.5660   -0.4335 C   0  0  0  0  0  0  0  0  0  0  0  0
   -5.3857   -0.3276   -0.8727 C   0  0  0  0  0  0  0  0  0  0  0  0
   -5.5701    0.4337   -1.6479 H   0  0  0  0  0  0  0  0  0  0  0  0
   -6.4545   -1.0524   -0.3365 C   0  0  0  0  0  0  0  0  0  0  0  0
   -7.4756   -0.8516   -0.6944 H   0  0  0  0  0  0  0  0  0  0  0  0
   -6.2277   -2.0307    0.6459 C   0  0  0  0  0  0  0  0  0  0  0  0
   -7.0676   -2.6036    1.0653 H   0  0  0  0  0  0  0  0  0  0  0  0
   -4.9157   -2.2637    1.0856 C   0  0  0  0  0  0  0  0  0  0  0  0
   -4.7232   -3.0220    1.8602 H   0  0  0  0  0  0  0  0  0  0  0  0
   -3.8331   -1.5436    0.5611 C   0  0  0  0  0  0  0  0  0  0  0  0
   -2.8087   -1.7144    0.9092 H   0  0  0  0  0  0  0  0  0  0  0  0
   -3.3783    0.9788   -1.6045 H   0  0  0  0  0  0  0  0  0  0  0  0
  1 21  1  0  0  0  0
  2  3  1  0  0  0  0
  4 21  1  0  0  0  0
  4 22  1  0  0  0  0
  5  6  1  0  0  0  0
  6  7  1  0  0  0  0
  7  8  1  0  0  0  0
  7  9  2  0  0  0  0
  9 10  1  0  0  0  0
 11 12  1  0  0  0  0
 11  9  1  0  0  0  0
 13 11  2  0  0  0  0
 14 13  1  0  0  0  0
 15  6  2  0  0  0  0
 15 13  1  0  0  0  0
 16  2  1  1  0  0  0
 16 15  1  0  0  0  0
 16 17  1  0  0  0  0
 17 19  1  0  0  0  0
 18 17  1  0  0  0  0
 20 17  1  0  0  0  0
 21  3  2  0  0  0  0
 22 31  1  0  0  0  0
 23 22  2  0  0  0  0
 23 25  1  0  0  0  0
 24 23  1  0  0  0  0
 25 27  2  0  0  0  0
 26 25  1  0  0  0  0
 27 28  1  0  0  0  0
 27 29  1  0  0  0  0
 29 30  1  0  0  0  0
 31 32  1  0  0  0  0
 31 29  2  0  0  0  0
 33  4  1  0  0  0  0
M  CHG  1   5  -1
M  END
