1,2,3
 OpenBabel05122313063D

 19 19  0  0  0  0  0  0  0  0999 V2000
   -0.5835   -0.7392   -1.8657 S   0  0  0  0  0  1  0  0  0  0  0  0
    0.1452   -0.1243    2.2177 O   0  0  0  0  0  1  0  0  0  0  0  0
   -1.8014   -0.0017    0.6436 N   0  0  0  0  0  2  0  0  0  0  0  0
   -2.1035    0.3031    1.8788 N   0  0  0  0  0  2  0  0  0  0  0  0
   -1.0715    0.2126    2.6578 N   0  0  0  0  0  0  0  0  0  0  0  0
   -2.2594   -0.2037   -1.6805 C   0  0  0  0  0  0  0  0  0  0  0  0
   -3.1379   -0.0972   -2.7776 C   0  0  0  0  0  0  0  0  0  0  0  0
   -4.4643    0.3163   -2.5899 C   0  0  0  0  0  0  0  0  0  0  0  0
   -4.9327    0.6376   -1.3012 C   0  0  0  0  0  0  0  0  0  0  0  0
   -4.0763    0.5457   -0.1975 C   0  0  0  0  0  0  0  0  0  0  0  0
   -2.7432    0.1240   -0.3808 C   0  0  0  0  0  0  0  0  0  0  0  0
   -1.1848    0.5438    4.0595 C   0  0  0  0  0  0  0  0  0  0  0  0
   -2.7670   -0.3458   -3.7837 H   0  0  0  0  0  0  0  0  0  0  0  0
   -5.1379    0.3915   -3.4570 H   0  0  0  0  0  0  0  0  0  0  0  0
   -5.9736    0.9643   -1.1567 H   0  0  0  0  0  0  0  0  0  0  0  0
   -4.4184    0.7922    0.8175 H   0  0  0  0  0  0  0  0  0  0  0  0
   -2.2443    0.7529    4.2860 H   0  0  0  0  0  0  0  0  0  0  0  0
   -0.8198   -0.3081    4.6681 H   0  0  0  0  0  0  0  0  0  0  0  0
   -0.5602    1.4337    4.2840 H   0  0  0  0  0  0  0  0  0  0  0  0
  1  6  1  0  0  0  0
  2  5  1  0  0  0  0
  3  4  1  0  0  0  0
  4  5  1  0  0  0  0
  5 12  1  0  0  0  0
  6 11  1  0  0  0  0
  7  8  1  0  0  0  0
  7  6  2  0  0  0  0
  8  9  2  0  0  0  0
  9 15  1  0  0  0  0
  9 10  1  0  0  0  0
 10 16  1  0  0  0  0
 11 10  2  0  0  0  0
 11  3  1  0  0  0  0
 12 19  1  0  0  0  0
 12 17  1  0  0  0  0
 12 18  1  0  0  0  0
 13  7  1  0  0  0  0
 14  8  1  0  0  0  0
M  END
