1,2,3
 OpenBabel05122313063D

 74 75  0  0  0  0  0  0  0  0999 V2000
   -2.0726    1.9682    0.1543 S   0  0  0  0  0  0  0  0  0  0  0  0
    1.1924   -0.8488    0.8347 O   0  5  0  0  0  0  0  0  0  0  0  0
    0.9597    1.8371    0.2947 N   0  0  0  0  0  2  0  0  0  0  0  0
    2.4386   -0.8075    0.3931 C   0  0  0  0  0  0  0  0  0  0  0  0
    3.2476   -1.9826    0.3943 C   0  0  0  0  0  0  0  0  0  0  0  0
    4.5530   -1.8505   -0.0983 C   0  0  0  0  0  0  0  0  0  0  0  0
    5.1853   -2.7480   -0.1144 H   0  0  0  0  0  0  0  0  0  0  0  0
    5.1137   -0.6390   -0.5812 C   0  0  0  0  0  0  0  0  0  0  0  0
    4.3007    0.4922   -0.5572 C   0  0  0  0  0  0  0  0  0  0  0  0
    4.6765    1.4631   -0.9100 H   0  0  0  0  0  0  0  0  0  0  0  0
    2.9632    0.4351   -0.0828 C   0  0  0  0  0  0  0  0  0  0  0  0
    2.2160    1.6659   -0.0405 C   0  0  0  0  0  3  0  0  0  0  0  0
    2.8020    2.5581   -0.3396 H   0  0  0  0  0  0  0  0  0  0  0  0
    0.4421    3.1485    0.3886 C   0  0  0  0  0  0  0  0  0  0  0  0
    1.2583    4.2787    0.6322 C   0  0  0  0  0  0  0  0  0  0  0  0
    2.3322    4.1421    0.8222 H   0  0  0  0  0  0  0  0  0  0  0  0
    0.7171    5.5676    0.6732 C   0  0  0  0  0  0  0  0  0  0  0  0
    1.3784    6.4254    0.8669 H   0  0  0  0  0  0  0  0  0  0  0  0
   -0.6622    5.7647    0.4998 C   0  0  0  0  0  0  0  0  0  0  0  0
   -1.0930    6.7756    0.5441 H   0  0  0  0  0  0  0  0  0  0  0  0
   -1.4962    4.6537    0.3208 C   0  0  0  0  0  0  0  0  0  0  0  0
   -2.5862    4.7808    0.2416 H   0  0  0  0  0  0  0  0  0  0  0  0
   -0.9574    3.3574    0.2697 C   0  0  0  0  0  0  0  0  0  0  0  0
    2.6847   -3.3260    0.8909 C   0  0  0  0  0  0  0  0  0  0  0  0
    2.2420   -3.1937    2.3680 C   0  0  0  0  0  0  0  0  0  0  0  0
    1.8417   -4.1639    2.7270 H   0  0  0  0  0  0  0  0  0  0  0  0
    1.4533   -2.4301    2.4960 H   0  0  0  0  0  0  0  0  0  0  0  0
    3.1017   -2.9194    3.0129 H   0  0  0  0  0  0  0  0  0  0  0  0
    1.4834   -3.7424    0.0067 C   0  0  0  0  0  0  0  0  0  0  0  0
    1.1011   -4.7294    0.3388 H   0  0  0  0  0  0  0  0  0  0  0  0
    1.7902   -3.8331   -1.0550 H   0  0  0  0  0  0  0  0  0  0  0  0
    0.6485   -3.0207    0.0620 H   0  0  0  0  0  0  0  0  0  0  0  0
    3.7405   -4.4437    0.8113 C   0  0  0  0  0  0  0  0  0  0  0  0
    4.6313   -4.2227    1.4344 H   0  0  0  0  0  0  0  0  0  0  0  0
    4.0780   -4.6272   -0.2291 H   0  0  0  0  0  0  0  0  0  0  0  0
    3.3002   -5.3888    1.1863 H   0  0  0  0  0  0  0  0  0  0  0  0
    6.5613   -0.6273   -1.0988 C   0  0  0  0  0  0  0  0  0  0  0  0
    6.6814   -1.6071   -2.2885 C   0  0  0  0  0  0  0  0  0  0  0  0
    7.7214   -1.6204   -2.6749 H   0  0  0  0  0  0  0  0  0  0  0  0
    6.0082   -1.3088   -3.1173 H   0  0  0  0  0  0  0  0  0  0  0  0
    6.4191   -2.6438   -1.9976 H   0  0  0  0  0  0  0  0  0  0  0  0
    7.5118   -1.0716    0.0362 C   0  0  0  0  0  0  0  0  0  0  0  0
    7.4451   -0.3824    0.9022 H   0  0  0  0  0  0  0  0  0  0  0  0
    8.5626   -1.0785   -0.3199 H   0  0  0  0  0  0  0  0  0  0  0  0
    7.2747   -2.0919    0.3980 H   0  0  0  0  0  0  0  0  0  0  0  0
    6.9900    0.7712   -1.5743 C   0  0  0  0  0  0  0  0  0  0  0  0
    8.0357    0.7396   -1.9401 H   0  0  0  0  0  0  0  0  0  0  0  0
    6.9473    1.5166   -0.7545 H   0  0  0  0  0  0  0  0  0  0  0  0
    6.3569    1.1350   -2.4087 H   0  0  0  0  0  0  0  0  0  0  0  0
   -2.6092    2.0493   -1.6149 C   0  0  0  0  0  0  0  0  0  0  0  0
   -3.1556    3.0095   -1.7221 H   0  0  0  0  0  0  0  0  0  0  0  0
   -1.6891    2.0611   -2.2303 H   0  0  0  0  0  0  0  0  0  0  0  0
   -3.4826    0.8409   -1.9446 C   0  0  0  0  0  0  0  0  0  0  0  0
   -3.8071    0.9535   -3.0030 H   0  0  0  0  0  0  0  0  0  0  0  0
   -2.8432   -0.0657   -1.9120 H   0  0  0  0  0  0  0  0  0  0  0  0
   -4.7011    0.6454   -1.0394 C   0  0  0  0  0  0  0  0  0  0  0  0
   -5.3646    1.5387   -1.0907 H   0  0  0  0  0  0  0  0  0  0  0  0
   -4.3635    0.5747    0.0185 H   0  0  0  0  0  0  0  0  0  0  0  0
   -5.4948   -0.6184   -1.3761 C   0  0  0  0  0  0  0  0  0  0  0  0
   -5.8395   -0.5740   -2.4345 H   0  0  0  0  0  0  0  0  0  0  0  0
   -4.8095   -1.4929   -1.3148 H   0  0  0  0  0  0  0  0  0  0  0  0
   -6.6946   -0.8517   -0.4555 C   0  0  0  0  0  0  0  0  0  0  0  0
   -7.3764    0.0280   -0.5038 H   0  0  0  0  0  0  0  0  0  0  0  0
   -6.3388   -0.8969    0.5986 H   0  0  0  0  0  0  0  0  0  0  0  0
   -7.4843   -2.1228   -0.7770 C   0  0  0  0  0  0  0  0  0  0  0  0
   -7.8411   -2.0793   -1.8316 H   0  0  0  0  0  0  0  0  0  0  0  0
   -6.8002   -3.0005   -0.7310 H   0  0  0  0  0  0  0  0  0  0  0  0
   -8.6785   -2.3635    0.1511 C   0  0  0  0  0  0  0  0  0  0  0  0
   -8.3178   -2.4051    1.2031 H   0  0  0  0  0  0  0  0  0  0  0  0
   -9.3588   -1.4835    0.1049 H   0  0  0  0  0  0  0  0  0  0  0  0
   -9.4601   -3.6364   -0.1761 C   0  0  0  0  0  0  0  0  0  0  0  0
   -9.8632   -3.6074   -1.2103 H   0  0  0  0  0  0  0  0  0  0  0  0
  -10.3168   -3.7834    0.5122 H   0  0  0  0  0  0  0  0  0  0  0  0
   -8.8135   -4.5359   -0.1019 H   0  0  0  0  0  0  0  0  0  0  0  0
  1 23  1  0  0  0  0
  3 14  1  0  0  0  0
  4  5  1  0  0  0  0
  4  2  1  0  0  0  0
  5 24  1  0  0  0  0
  6  5  2  0  0  0  0
  7  6  1  0  0  0  0
  8  9  2  0  0  0  0
  8  6  1  0  0  0  0
  9 11  1  0  0  0  0
 10  9  1  0  0  0  0
 11 12  1  0  0  0  0
 11  4  2  0  0  0  0
 12  3  1  0  0  0  0
 13 12  1  0  0  0  0
 14 15  1  0  0  0  0
 15 17  2  0  0  0  0
 15 16  1  0  0  0  0
 17 18  1  0  0  0  0
 19 20  1  0  0  0  0
 19 17  1  0  0  0  0
 21 19  2  0  0  0  0
 22 21  1  0  0  0  0
 23 21  1  0  0  0  0
 23 14  2  0  0  0  0
 24 25  1  0  0  0  0
 25 27  1  0  0  0  0
 25 26  1  0  0  0  0
 25 28  1  0  0  0  0
 29 32  1  0  0  0  0
 29 30  1  0  0  0  0
 29 24  1  0  0  0  0
 31 29  1  0  0  0  0
 33 24  1  0  0  0  0
 33 36  1  0  0  0  0
 33 34  1  0  0  0  0
 35 33  1  0  0  0  0
 37  8  1  0  0  0  0
 37 42  1  0  0  0  0
 38 41  1  0  0  0  0
 38 37  1  0  0  0  0
 39 38  1  0  0  0  0
 40 38  1  0  0  0  0
 42 45  1  0  0  0  0
 42 43  1  0  0  0  0
 44 42  1  0  0  0  0
 46 37  1  0  0  0  0
 46 48  1  0  0  0  0
 47 46  1  0  0  0  0
 49 46  1  0  0  0  0
 50  1  1  0  0  0  0
 51 50  1  0  0  0  0
 52 50  1  0  0  0  0
 53 55  1  0  0  0  0
 53 50  1  0  0  0  0
 53 56  1  0  0  0  0
 54 53  1  0  0  0  0
 56 58  1  0  0  0  0
 57 56  1  0  0  0  0
 59 61  1  0  0  0  0
 59 56  1  0  0  0  0
 59 62  1  0  0  0  0
 60 59  1  0  0  0  0
 62 64  1  0  0  0  0
 63 62  1  0  0  0  0
 65 67  1  0  0  0  0
 65 62  1  0  0  0  0
 65 68  1  0  0  0  0
 66 65  1  0  0  0  0
 68 69  1  0  0  0  0
 70 68  1  0  0  0  0
 71 74  1  0  0  0  0
 71 68  1  0  0  0  0
 71 73  1  0  0  0  0
 72 71  1  0  0  0  0
M  CHG  1   2  -1
M  END
