2,19,20
 OpenBabel05122313063D

 33 35  0  0  0  0  0  0  0  0999 V2000
   -8.0169   -0.8566    0.3838 Br  0  0  0  0  0  0  0  0  0  0  0  0
   -0.3913   -1.5738    1.3373 O   0  5  0  0  0  0  0  0  0  0  0  0
   -2.4279   -2.5030    2.1227 N   0  0  0  0  0  0  0  0  0  0  0  0
   -1.6517   -1.6505    1.3695 C   0  0  0  0  0  0  0  0  0  0  0  0
   -2.5348   -0.8226    0.5739 C   0  0  0  0  0  0  0  0  0  0  0  0
   -3.8925   -1.2015    0.8665 C   0  0  0  0  0  0  0  0  0  0  0  0
   -3.7873   -2.2535    1.8383 C   0  0  0  0  0  0  0  0  0  0  0  0
   -5.1542   -0.7745    0.4244 C   0  0  0  0  0  0  0  0  0  0  0  0
   -5.2394    0.0308   -0.3159 H   0  0  0  0  0  0  0  0  0  0  0  0
   -6.2865   -1.4101    0.9628 C   0  0  0  0  0  0  0  0  0  0  0  0
   -6.1844   -2.4416    1.9145 C   0  0  0  0  0  0  0  0  0  0  0  0
   -7.0965   -2.9104    2.3085 H   0  0  0  0  0  0  0  0  0  0  0  0
   -4.9194   -2.8745    2.3632 C   0  0  0  0  0  0  0  0  0  0  0  0
   -4.8421   -3.6804    3.1069 H   0  0  0  0  0  0  0  0  0  0  0  0
   -1.9161   -3.4859    3.0492 C   0  0  0  0  0  0  0  0  0  0  0  0
   -0.8126   -3.4138    3.0431 H   0  0  0  0  0  0  0  0  0  0  0  0
   -2.2151   -4.5117    2.7488 H   0  0  0  0  0  0  0  0  0  0  0  0
   -2.2864   -3.2934    4.0776 H   0  0  0  0  0  0  0  0  0  0  0  0
   -0.0248    1.4881   -1.6315 S   0  0  0  0  0  1  0  0  0  0  0  0
   -1.8759    0.0390   -0.2183 N   0  0  0  0  0  2  0  0  0  0  0  0
   -2.5524    0.8335   -1.0445 N   0  0  0  0  0  0  0  0  0  0  0  0
   -1.7428    1.5961   -1.7944 C   0  0  0  0  0  0  0  0  0  0  0  0
   -2.3593    2.5082   -2.7735 C   0  0  0  0  0  0  0  0  0  0  0  0
   -1.5843    3.4415   -3.5009 C   0  0  0  0  0  0  0  0  0  0  0  0
   -0.4996    3.4921   -3.3224 H   0  0  0  0  0  0  0  0  0  0  0  0
   -2.1880    4.2972   -4.4282 C   0  0  0  0  0  0  0  0  0  0  0  0
   -1.5719    5.0194   -4.9847 H   0  0  0  0  0  0  0  0  0  0  0  0
   -3.5758    4.2402   -4.6442 C   0  0  0  0  0  0  0  0  0  0  0  0
   -4.0493    4.9158   -5.3729 H   0  0  0  0  0  0  0  0  0  0  0  0
   -4.3560    3.3196   -3.9247 C   0  0  0  0  0  0  0  0  0  0  0  0
   -5.4430    3.2703   -4.0895 H   0  0  0  0  0  0  0  0  0  0  0  0
   -3.7568    2.4604   -2.9970 C   0  0  0  0  0  0  0  0  0  0  0  0
   -4.3539    1.7329   -2.4306 H   0  0  0  0  0  0  0  0  0  0  0  0
  1 10  1  0  0  0  0
  2  4  1  0  0  0  0
  3 15  1  0  0  0  0
  4  3  1  0  0  0  0
  5  6  1  0  0  0  0
  5  4  2  0  0  0  0
  6  7  1  0  0  0  0
  7  3  1  0  0  0  0
  7 13  2  0  0  0  0
  8  6  2  0  0  0  0
  8 10  1  0  0  0  0
  9  8  1  0  0  0  0
 10 11  2  0  0  0  0
 11 12  1  0  0  0  0
 11 13  1  0  0  0  0
 13 14  1  0  0  0  0
 15 18  1  0  0  0  0
 16 15  1  0  0  0  0
 17 15  1  0  0  0  0
 20  5  1  0  0  0  0
 21 20  1  0  0  0  0
 22 19  1  0  0  0  0
 22 21  2  0  0  0  0
 23 22  1  0  0  0  0
 24 25  1  0  0  0  0
 24 23  2  0  0  0  0
 26 24  1  0  0  0  0
 27 26  1  0  0  0  0
 28 26  2  0  0  0  0
 28 30  1  0  0  0  0
 29 28  1  0  0  0  0
 30 32  2  0  0  0  0
 31 30  1  0  0  0  0
 32 23  1  0  0  0  0
 32 33  1  0  0  0  0
M  CHG  1   2  -1
M  END
