1,2,3
 OpenBabel05122313063D

 31 33  0  0  0  0  0  0  0  0999 V2000
    0.3026   -1.4755    2.6130 S   0  0  0  0  0  1  0  0  0  0  0  0
   -1.2199    0.9884   -0.3104 O   0  5  0  0  0  0  0  0  0  0  0  0
   -1.4753   -1.5544    0.3282 N   0  0  0  0  0  2  0  0  0  0  0  0
   -0.1496   -2.9565    1.7651 C   0  0  0  0  0  0  0  0  0  0  0  0
    0.3142   -4.2287    2.1551 C   0  0  0  0  0  0  0  0  0  0  0  0
    0.9905   -4.3061    3.0193 H   0  0  0  0  0  0  0  0  0  0  0  0
   -0.0739   -5.3747    1.4457 C   0  0  0  0  0  0  0  0  0  0  0  0
    0.3059   -6.3600    1.7565 H   0  0  0  0  0  0  0  0  0  0  0  0
   -0.9260   -5.2699    0.3318 C   0  0  0  0  0  0  0  0  0  0  0  0
   -1.2031   -6.1661   -0.2428 H   0  0  0  0  0  0  0  0  0  0  0  0
   -1.4049   -4.0123   -0.0626 C   0  0  0  0  0  0  0  0  0  0  0  0
   -2.0381   -3.9176   -0.9579 H   0  0  0  0  0  0  0  0  0  0  0  0
   -1.0354   -2.8594    0.6573 C   0  0  0  0  0  0  0  0  0  0  0  0
   -2.6953   -1.3902   -0.1422 C   0  0  0  0  0  3  0  0  0  0  0  0
   -3.3329   -2.2928   -0.1759 H   0  0  0  0  0  0  0  0  0  0  0  0
   -3.2759   -0.1709   -0.6182 C   0  0  0  0  0  0  0  0  0  0  0  0
   -4.6609   -0.1172   -1.0571 C   0  0  0  0  0  0  0  0  0  0  0  0
   -5.5593   -1.2175   -0.9695 C   0  0  0  0  0  0  0  0  0  0  0  0
   -5.2250   -2.1715   -0.5388 H   0  0  0  0  0  0  0  0  0  0  0  0
   -6.8760   -1.1155   -1.4072 C   0  0  0  0  0  0  0  0  0  0  0  0
   -7.5430   -1.9867   -1.3217 H   0  0  0  0  0  0  0  0  0  0  0  0
   -7.3660    0.0951   -1.9526 C   0  0  0  0  0  0  0  0  0  0  0  0
   -8.4092    0.1654   -2.2943 H   0  0  0  0  0  0  0  0  0  0  0  0
   -6.5191    1.1911   -2.0453 C   0  0  0  0  0  0  0  0  0  0  0  0
   -6.8815    2.1444   -2.4607 H   0  0  0  0  0  0  0  0  0  0  0  0
   -5.1686    1.1147   -1.6062 C   0  0  0  0  0  0  0  0  0  0  0  0
   -4.3036    2.2519   -1.6968 C   0  0  0  0  0  0  0  0  0  0  0  0
   -4.7123    3.1863   -2.1129 H   0  0  0  0  0  0  0  0  0  0  0  0
   -2.9946    2.2035   -1.2700 C   0  0  0  0  0  0  0  0  0  0  0  0
   -2.3252    3.0738   -1.3231 H   0  0  0  0  0  0  0  0  0  0  0  0
   -2.4657    0.9973   -0.7133 C   0  0  0  0  0  0  0  0  0  0  0  0
  3 13  1  0  0  0  0
  4  5  1  0  0  0  0
  4  1  1  0  0  0  0
  5  6  1  0  0  0  0
  7  8  1  0  0  0  0
  7  5  2  0  0  0  0
  9  7  1  0  0  0  0
 10  9  1  0  0  0  0
 11  9  2  0  0  0  0
 11 13  1  0  0  0  0
 12 11  1  0  0  0  0
 13  4  2  0  0  0  0
 14  3  1  0  0  0  0
 15 14  1  0  0  0  0
 16 14  1  0  0  0  0
 17 18  1  0  0  0  0
 17 16  2  0  0  0  0
 18 19  1  0  0  0  0
 20 21  1  0  0  0  0
 20 18  2  0  0  0  0
 22 20  1  0  0  0  0
 23 22  1  0  0  0  0
 24 22  2  0  0  0  0
 24 26  1  0  0  0  0
 25 24  1  0  0  0  0
 26 17  1  0  0  0  0
 27 26  2  0  0  0  0
 27 29  1  0  0  0  0
 28 27  1  0  0  0  0
 29 31  2  0  0  0  0
 30 29  1  0  0  0  0
 31 16  1  0  0  0  0
 31  2  1  0  0  0  0
M  CHG  1   2  -1
M  END
