1,5,8
 OpenBabel05122313063D

 45 46  0  0  1  0  0  0  0  0999 V2000
   -2.2105   -1.8948    0.7716 S   0  0  0  0  0  1  0  0  0  0  0  0
   -3.4523   -0.9576   -0.1138 C   0  0  2  0  0  3  0  0  0  0  0  0
   -3.3023    0.3030   -0.4763 N   0  0  0  0  0  2  0  0  0  0  0  0
   -2.2081    1.0149   -0.7287 C   0  0  1  0  0  3  0  0  0  0  0  0
   -1.0270    0.4553   -1.1058 N   0  0  0  0  0  2  0  0  0  0  0  0
   -0.1184    1.2789   -1.7518 N   0  0  0  0  0  0  0  0  0  0  0  0
    1.1047    0.8157   -1.6917 C   0  0  0  0  0  0  0  0  0  0  0  0
    1.4311   -0.2939   -1.0230 O   0  5  0  0  0  0  0  0  0  0  0  0
   -2.3457    2.4901   -0.6009 C   0  0  0  0  0  0  0  0  0  0  0  0
   -1.2940    3.2726   -0.0728 C   0  0  0  0  0  0  0  0  0  0  0  0
   -0.3450    2.7916    0.1965 H   0  0  0  0  0  0  0  0  0  0  0  0
   -1.4753    4.6450    0.1373 C   0  0  0  0  0  0  0  0  0  0  0  0
   -0.6558    5.2400    0.5680 H   0  0  0  0  0  0  0  0  0  0  0  0
   -2.6948    5.2583   -0.1967 C   0  0  0  0  0  0  0  0  0  0  0  0
   -2.8292    6.3399   -0.0420 H   0  0  0  0  0  0  0  0  0  0  0  0
   -3.7432    4.4868   -0.7242 C   0  0  0  0  0  0  0  0  0  0  0  0
   -4.7003    4.9623   -0.9873 H   0  0  0  0  0  0  0  0  0  0  0  0
   -3.5742    3.1092   -0.9132 C   0  0  0  0  0  0  0  0  0  0  0  0
   -4.3896    2.4913   -1.3156 H   0  0  0  0  0  0  0  0  0  0  0  0
   -4.6522   -1.5528   -0.3428 N   0  0  0  0  0  0  0  0  0  0  0  0
   -5.7046   -0.8084   -1.0429 C   0  0  0  0  0  0  0  0  0  0  0  0
   -5.6503    0.2444   -0.7014 H   0  0  0  0  0  0  0  0  0  0  0  0
   -6.6776   -1.2239   -0.7099 H   0  0  0  0  0  0  0  0  0  0  0  0
   -5.5708   -0.8781   -2.5634 C   0  0  0  0  0  0  0  0  0  0  0  0
   -6.3958   -0.3201   -3.0500 H   0  0  0  0  0  0  0  0  0  0  0  0
   -5.6050   -1.9252   -2.9268 H   0  0  0  0  0  0  0  0  0  0  0  0
   -4.6113   -0.4299   -2.8885 H   0  0  0  0  0  0  0  0  0  0  0  0
   -4.9487   -2.9253    0.0718 C   0  0  0  0  0  0  0  0  0  0  0  0
   -4.0074   -3.5088    0.0220 H   0  0  0  0  0  0  0  0  0  0  0  0
   -5.6395   -3.3530   -0.6842 H   0  0  0  0  0  0  0  0  0  0  0  0
   -5.5508   -3.0124    1.4739 C   0  0  0  0  0  0  0  0  0  0  0  0
   -5.7917   -4.0651    1.7237 H   0  0  0  0  0  0  0  0  0  0  0  0
   -6.4842   -2.4190    1.5554 H   0  0  0  0  0  0  0  0  0  0  0  0
   -4.8304   -2.6360    2.2269 H   0  0  0  0  0  0  0  0  0  0  0  0
    2.1832    1.5582   -2.3836 C   0  0  0  0  0  0  0  0  0  0  0  0
    3.4203    0.9395   -2.6591 C   0  0  0  0  0  0  0  0  0  0  0  0
    3.5764   -0.1076   -2.3715 H   0  0  0  0  0  0  0  0  0  0  0  0
    4.4396    1.6489   -3.3098 C   0  0  0  0  0  0  0  0  0  0  0  0
    5.3986    1.1501   -3.5174 H   0  0  0  0  0  0  0  0  0  0  0  0
    4.2351    2.9828   -3.6956 C   0  0  0  0  0  0  0  0  0  0  0  0
    5.0364    3.5409   -4.2038 H   0  0  0  0  0  0  0  0  0  0  0  0
    2.9998    3.6023   -3.4339 C   0  0  0  0  0  0  0  0  0  0  0  0
    2.8330    4.6473   -3.7374 H   0  0  0  0  0  0  0  0  0  0  0  0
    1.9788    2.8974   -2.7867 C   0  0  0  0  0  0  0  0  0  0  0  0
    1.0065    3.3658   -2.5768 H   0  0  0  0  0  0  0  0  0  0  0  0
  2  1  1  1  0  0  0
  3  2  1  0  0  0  0
  4  5  1  6  0  0  0
  4  9  1  0  0  0  0
  4  3  1  0  0  0  0
  6  7  2  0  0  0  0
  6  5  1  0  0  0  0
  7  8  1  0  0  0  0
  9 10  1  0  0  0  0
 10 12  2  0  0  0  0
 10 11  1  0  0  0  0
 12 13  1  0  0  0  0
 14 15  1  0  0  0  0
 14 12  1  0  0  0  0
 16 14  2  0  0  0  0
 17 16  1  0  0  0  0
 18 16  1  0  0  0  0
 18  9  2  0  0  0  0
 19 18  1  0  0  0  0
 20  2  1  0  0  0  0
 20 28  1  0  0  0  0
 21 23  1  0  0  0  0
 21 22  1  0  0  0  0
 21 20  1  0  0  0  0
 24 21  1  0  0  0  0
 25 24  1  0  0  0  0
 26 24  1  0  0  0  0
 27 24  1  0  0  0  0
 28 31  1  0  0  0  0
 29 28  1  0  0  0  0
 30 28  1  0  0  0  0
 31 33  1  0  0  0  0
 31 32  1  0  0  0  0
 31 34  1  0  0  0  0
 35  7  1  0  0  0  0
 36 35  1  0  0  0  0
 36 37  1  0  0  0  0
 38 36  2  0  0  0  0
 39 38  1  0  0  0  0
 40 42  2  0  0  0  0
 40 38  1  0  0  0  0
 41 40  1  0  0  0  0
 42 44  1  0  0  0  0
 43 42  1  0  0  0  0
 44 45  1  0  0  0  0
 44 35  2  0  0  0  0
M  CHG  1   8  -1
M  END
