1,2,3
 OpenBabel05122313063D

 34 36  0  0  0  0  0  0  0  0999 V2000
   -2.9292   -1.1754   -0.3186 S   0  0  0  0  0  0  0  0  0  0  0  0
   -0.8790    0.9528   -0.0734 N   0  0  0  0  0  2  0  0  0  0  0  0
    1.3384   -0.8991   -0.0581 O   0  5  0  0  0  0  0  0  0  0  0  0
    0.0634    1.8222   -0.0127 N   0  0  0  0  0  0  0  0  0  0  0  0
   -2.2033    1.4770   -0.0572 C   0  0  0  0  0  0  0  0  0  0  0  0
    1.3834    1.5353    0.0021 C   0  0  0  0  0  0  0  0  0  0  0  0
    1.9858    0.2047   -0.0155 C   0  0  0  0  0  0  0  0  0  0  0  0
    3.4465    0.1181    0.0266 C   0  0  0  0  0  0  0  0  0  0  0  0
   -3.2915    0.5743   -0.1206 C   0  0  0  0  0  0  0  0  0  0  0  0
    3.6084    2.5948    0.0899 C   0  0  0  0  0  0  0  0  0  0  0  0
    4.2363    3.4973    0.1288 H   0  0  0  0  0  0  0  0  0  0  0  0
    4.2479    1.3039    0.0762 C   0  0  0  0  0  0  0  0  0  0  0  0
   -2.4745    2.8612    0.0262 C   0  0  0  0  0  0  0  0  0  0  0  0
   -1.6232    3.5522    0.0731 H   0  0  0  0  0  0  0  0  0  0  0  0
    5.6589    1.1647    0.1118 C   0  0  0  0  0  0  0  0  0  0  0  0
    6.2793    2.0735    0.1493 H   0  0  0  0  0  0  0  0  0  0  0  0
    4.0698   -1.1549    0.0152 C   0  0  0  0  0  3  0  0  0  0  0  0
    3.4271   -2.0459   -0.0233 H   0  0  0  0  0  0  0  0  0  0  0  0
   -3.4667   -1.8799    1.2851 C   0  0  0  0  0  0  0  0  0  0  0  0
   -3.0771   -1.2682    2.1181 H   0  0  0  0  0  0  0  0  0  0  0  0
   -3.0053   -2.8867    1.2955 H   0  0  0  0  0  0  0  0  0  0  0  0
   -4.5711   -1.9406    1.3039 H   0  0  0  0  0  0  0  0  0  0  0  0
   -4.6162    1.0375   -0.1119 C   0  0  0  0  0  0  0  0  0  0  0  0
   -5.4449    0.3175   -0.1884 H   0  0  0  0  0  0  0  0  0  0  0  0
   -3.7957    3.3151    0.0539 C   0  0  0  0  0  0  0  0  0  0  0  0
   -3.9918    4.3957    0.1239 H   0  0  0  0  0  0  0  0  0  0  0  0
   -4.8728    2.4112   -0.0111 C   0  0  0  0  0  0  0  0  0  0  0  0
   -5.9099    2.7766    0.0052 H   0  0  0  0  0  0  0  0  0  0  0  0
    2.2445    2.6952    0.0569 C   0  0  0  0  0  0  0  0  0  0  0  0
    1.7391    3.6714    0.0692 H   0  0  0  0  0  0  0  0  0  0  0  0
    6.2551   -0.0953    0.1001 C   0  0  0  0  0  0  0  0  0  0  0  0
    7.3521   -0.1817    0.1283 H   0  0  0  0  0  0  0  0  0  0  0  0
    5.4581   -1.2620    0.0519 C   0  0  0  0  0  0  0  0  0  0  0  0
    5.9340   -2.2538    0.0430 H   0  0  0  0  0  0  0  0  0  0  0  0
  1  9  1  0  0  0  0
  1 19  1  0  0  0  0
  2  5  1  0  0  0  0
  2  4  1  0  0  0  0
  3  7  1  0  0  0  0
  4  6  2  0  0  0  0
  5 13  1  0  0  0  0
  6 29  1  0  0  0  0
  7  6  1  0  0  0  0
  7  8  2  0  0  0  0
  8 12  1  0  0  0  0
  9 23  1  0  0  0  0
  9  5  2  0  0  0  0
 10 11  1  0  0  0  0
 12 10  1  0  0  0  0
 12 15  2  0  0  0  0
 13 25  2  0  0  0  0
 13 14  1  0  0  0  0
 15 16  1  0  0  0  0
 17  8  1  0  0  0  0
 17 33  1  0  0  0  0
 18 17  1  0  0  0  0
 19 21  1  0  0  0  0
 19 22  1  0  0  0  0
 19 20  1  0  0  0  0
 23 27  2  0  0  0  0
 24 23  1  0  0  0  0
 25 26  1  0  0  0  0
 27 28  1  0  0  0  0
 27 25  1  0  0  0  0
 29 30  1  0  0  0  0
 29 10  2  0  0  0  0
 31 15  1  0  0  0  0
 31 32  1  0  0  0  0
 33 31  2  0  0  0  0
 34 33  1  0  0  0  0
M  CHG  1   3  -1
M  END
