1,3,5
 OpenBabel05122313063D

 28 29  0  0  1  0  0  0  0  0999 V2000
    3.1721   -0.2307   -0.3223 S   0  0  0  0  0  1  0  0  0  0  0  0
    3.8964    2.6660   -0.3615 S   0  0  0  0  0  0  0  0  0  0  0  0
   -0.4779   -1.7948   -0.4347 O   0  5  0  0  0  0  0  0  0  0  0  0
    1.3853    1.8013   -0.0762 N   0  0  0  0  0  2  0  0  0  0  0  0
    0.5246    0.7247    0.0396 N   0  0  0  0  0  2  0  0  0  0  0  0
    2.9306    4.2021   -0.2422 C   0  0  0  0  0  0  0  0  0  0  0  0
    2.6353    1.4664   -0.2188 C   0  0  1  0  0  3  0  0  0  0  0  0
   -0.7651    1.0555   -0.0211 C   0  0  0  0  0  3  0  0  0  0  0  0
   -1.8668    0.1695   -0.0836 C   0  0  0  0  0  0  0  0  0  0  0  0
   -3.2282    0.6918   -0.0013 C   0  0  0  0  0  0  0  0  0  0  0  0
   -3.5272    2.0376    0.3398 C   0  0  0  0  0  0  0  0  0  0  0  0
   -4.8418    2.4943    0.3993 C   0  0  0  0  0  0  0  0  0  0  0  0
   -5.9220    1.6230    0.1297 C   0  0  0  0  0  0  0  0  0  0  0  0
   -5.6631    0.2960   -0.1904 C   0  0  0  0  0  0  0  0  0  0  0  0
   -4.3307   -0.1930   -0.2592 C   0  0  0  0  0  0  0  0  0  0  0  0
   -4.0655   -1.5658   -0.5743 C   0  0  0  0  0  0  0  0  0  0  0  0
   -2.7852   -2.0666   -0.6203 C   0  0  0  0  0  0  0  0  0  0  0  0
   -1.6576   -1.2222   -0.3576 C   0  0  0  0  0  0  0  0  0  0  0  0
    3.6645    5.0262   -0.3195 H   0  0  0  0  0  0  0  0  0  0  0  0
    2.1980    4.2609   -1.0684 H   0  0  0  0  0  0  0  0  0  0  0  0
    2.4013    4.2487    0.7276 H   0  0  0  0  0  0  0  0  0  0  0  0
   -0.9389    2.1432   -0.0726 H   0  0  0  0  0  0  0  0  0  0  0  0
   -2.7171    2.7394    0.5828 H   0  0  0  0  0  0  0  0  0  0  0  0
   -5.0380    3.5432    0.6680 H   0  0  0  0  0  0  0  0  0  0  0  0
   -6.9568    1.9923    0.1815 H   0  0  0  0  0  0  0  0  0  0  0  0
   -6.4898   -0.4022   -0.3935 H   0  0  0  0  0  0  0  0  0  0  0  0
   -4.9210   -2.2303   -0.7737 H   0  0  0  0  0  0  0  0  0  0  0  0
   -2.5737   -3.1197   -0.8520 H   0  0  0  0  0  0  0  0  0  0  0  0
  2  6  1  0  0  0  0
  2  7  1  0  0  0  0
  3 18  1  0  0  0  0
  4  5  1  0  0  0  0
  6 21  1  0  0  0  0
  7  1  1  6  0  0  0
  7  4  1  0  0  0  0
  8  5  1  0  0  0  0
  9  8  1  0  0  0  0
  9 10  1  0  0  0  0
 10 11  1  0  0  0  0
 11 12  2  0  0  0  0
 11 23  1  0  0  0  0
 12 24  1  0  0  0  0
 13 25  1  0  0  0  0
 13 12  1  0  0  0  0
 14 13  2  0  0  0  0
 15 14  1  0  0  0  0
 15 10  2  0  0  0  0
 16 15  1  0  0  0  0
 17 16  2  0  0  0  0
 17 18  1  0  0  0  0
 18  9  2  0  0  0  0
 19  6  1  0  0  0  0
 20  6  1  0  0  0  0
 22  8  1  0  0  0  0
 26 14  1  0  0  0  0
 27 16  1  0  0  0  0
 28 17  1  0  0  0  0
M  CHG  1   3  -1
M  END
