1,4,9
 OpenBabel05122313063D

 36 38  0  0  0  0  0  0  0  0999 V2000
    0.4381   -2.1728   -0.3248 S   0  0  0  0  0  1  0  0  0  0  0  0
    2.1879   -1.9320   -0.1731 C   0  0  0  0  0  0  0  0  0  0  0  0
    2.7255   -0.7412   -0.1112 N   0  0  0  0  0  0  0  0  0  0  0  0
    1.8076    0.2780   -0.1385 N   0  0  0  0  0  2  0  0  0  0  0  0
    2.3438    1.4917   -0.0742 C   0  0  0  0  0  0  0  0  0  0  0  0
    3.4413    1.4815    0.0172 H   0  0  0  0  0  0  0  0  0  0  0  0
    1.6654    2.7404   -0.1271 C   0  0  0  0  0  0  0  0  0  0  0  0
    0.2412    2.7866   -0.2794 C   0  0  0  0  0  0  0  0  0  0  0  0
   -0.5297    1.7350   -0.3368 O   0  5  0  0  0  0  0  0  0  0  0  0
   -0.4123    4.0646   -0.3864 C   0  0  0  0  0  0  0  0  0  0  0  0
   -1.5026    4.0517   -0.5268 H   0  0  0  0  0  0  0  0  0  0  0  0
    0.3003    5.2373   -0.3223 C   0  0  0  0  0  0  0  0  0  0  0  0
   -0.2196    6.2050   -0.4077 H   0  0  0  0  0  0  0  0  0  0  0  0
    1.7225    5.2421   -0.1442 C   0  0  0  0  0  0  0  0  0  0  0  0
    2.4427    6.4647   -0.0685 C   0  0  0  0  0  3  0  0  0  0  0  0
    1.8796    7.4080   -0.1498 H   0  0  0  0  0  0  0  0  0  0  0  0
    3.8212    6.4796    0.1040 C   0  0  0  0  0  0  0  0  0  0  0  0
    4.3678    7.4326    0.1616 H   0  0  0  0  0  0  0  0  0  0  0  0
    4.5146    5.2514    0.2061 C   0  0  0  0  0  0  0  0  0  0  0  0
    5.6065    5.2478    0.3456 H   0  0  0  0  0  0  0  0  0  0  0  0
    3.8314    4.0405    0.1336 C   0  0  0  0  0  0  0  0  0  0  0  0
    4.4117    3.1118    0.2218 H   0  0  0  0  0  0  0  0  0  0  0  0
    2.4202    3.9868   -0.0441 C   0  0  0  0  0  0  0  0  0  0  0  0
    2.9317   -3.0896   -0.1506 N   0  0  0  0  0  0  0  0  0  0  0  0
    2.3657   -3.9378   -0.2003 H   0  0  0  0  0  0  0  0  0  0  0  0
    4.3135   -3.3004   -0.0727 C   0  0  0  0  0  0  0  0  0  0  0  0
    4.7656   -4.6425   -0.0632 C   0  0  0  0  0  0  0  0  0  0  0  0
    4.0301   -5.4619   -0.1172 H   0  0  0  0  0  0  0  0  0  0  0  0
    6.1312   -4.9327    0.0137 C   0  0  0  0  0  0  0  0  0  0  0  0
    6.4595   -5.9833    0.0195 H   0  0  0  0  0  0  0  0  0  0  0  0
    7.0759   -3.8949    0.0828 C   0  0  0  0  0  0  0  0  0  0  0  0
    8.1503   -4.1226    0.1432 H   0  0  0  0  0  0  0  0  0  0  0  0
    6.6273   -2.5651    0.0730 C   0  0  0  0  0  0  0  0  0  0  0  0
    7.3554   -1.7408    0.1258 H   0  0  0  0  0  0  0  0  0  0  0  0
    5.2624   -2.2551   -0.0038 C   0  0  0  0  0  0  0  0  0  0  0  0
    4.9057   -1.2185   -0.0122 H   0  0  0  0  0  0  0  0  0  0  0  0
  1  2  1  0  0  0  0
  2 24  1  0  0  0  0
  2  3  2  0  0  0  0
  4  3  1  0  0  0  0
  4  5  1  0  0  0  0
  5  6  1  0  0  0  0
  7  5  2  0  0  0  0
  7 23  1  0  0  0  0
  8  7  1  0  0  0  0
  9  8  1  0  0  0  0
 10 12  1  0  0  0  0
 10  8  2  0  0  0  0
 11 10  1  0  0  0  0
 12 14  2  0  0  0  0
 13 12  1  0  0  0  0
 14 15  1  0  0  0  0
 14 23  1  0  0  0  0
 15 17  1  0  0  0  0
 16 15  1  0  0  0  0
 17 18  1  0  0  0  0
 17 19  2  0  0  0  0
 19 20  1  0  0  0  0
 21 19  1  0  0  0  0
 21 22  1  0  0  0  0
 23 21  2  0  0  0  0
 24 26  1  0  0  0  0
 25 24  1  0  0  0  0
 26 27  2  0  0  0  0
 26 35  1  0  0  0  0
 27 29  1  0  0  0  0
 28 27  1  0  0  0  0
 29 30  1  0  0  0  0
 29 31  2  0  0  0  0
 31 32  1  0  0  0  0
 33 31  1  0  0  0  0
 33 34  1  0  0  0  0
 35 33  2  0  0  0  0
 36 35  1  0  0  0  0
M  CHG  1   9  -1
M  END
