1,2,3
 OpenBabel05122313063D

 31 33  0  0  1  0  0  0  0  0999 V2000
   -1.6891    0.0339   -1.4660 S   0  0  0  0  0  0  0  0  0  0  0  0
    1.5633   -1.9117    0.6442 O   0  5  0  0  0  0  0  0  0  0  0  0
    1.0672    0.3925   -0.5917 N   0  0  0  0  0  2  0  0  0  0  0  0
    2.2314    0.3118    0.1153 C   0  0  1  0  0  3  0  0  0  0  0  0
    0.7026    1.4913   -1.2690 C   0  0  0  0  0  0  0  0  0  0  0  0
   -2.4852    0.8071   -0.0386 C   0  0  0  0  0  0  0  0  0  0  0  0
    2.4585   -0.9556    0.7630 C   0  0  0  0  0  0  0  0  0  0  0  0
   -2.3973    2.1767    0.2575 C   0  0  0  0  0  0  0  0  0  0  0  0
   -1.7808    2.8580   -0.3439 H   0  0  0  0  0  0  0  0  0  0  0  0
    3.1381    1.4203    0.1796 C   0  0  0  0  0  0  0  0  0  0  0  0
   -0.5466    1.3563   -2.0970 C   0  0  0  0  0  0  0  0  0  0  0  0
   -0.3007    0.9826   -3.1145 H   0  0  0  0  0  0  0  0  0  0  0  0
   -1.1068    2.3027   -2.2270 H   0  0  0  0  0  0  0  0  0  0  0  0
   -3.2561   -0.0606    0.7596 C   0  0  0  0  0  0  0  0  0  0  0  0
   -3.2616   -1.1422    0.5442 H   0  0  0  0  0  0  0  0  0  0  0  0
    2.7339    2.5988   -0.5177 C   0  0  0  0  0  0  0  0  0  0  0  0
    3.3842    3.4868   -0.4893 H   0  0  0  0  0  0  0  0  0  0  0  0
    1.5396    2.6378   -1.2316 C   0  0  0  0  0  0  0  0  0  0  0  0
    1.2407    3.5443   -1.7776 H   0  0  0  0  0  0  0  0  0  0  0  0
   -3.1018    2.6829    1.3624 C   0  0  0  0  0  0  0  0  0  0  0  0
   -3.0298    3.7548    1.6003 H   0  0  0  0  0  0  0  0  0  0  0  0
    3.6672   -1.0709    1.4855 C   0  0  0  0  0  0  0  0  0  0  0  0
    3.8898   -2.0199    1.9935 H   0  0  0  0  0  0  0  0  0  0  0  0
    4.3312    1.2477    0.9265 C   0  0  0  0  0  0  0  0  0  0  0  0
    5.0531    2.0729    1.0067 H   0  0  0  0  0  0  0  0  0  0  0  0
   -3.8822    1.8332    2.1589 C   0  0  0  0  0  0  0  0  0  0  0  0
   -4.4285    2.2370    3.0241 H   0  0  0  0  0  0  0  0  0  0  0  0
    4.5650    0.0179    1.5530 C   0  0  0  0  0  0  0  0  0  0  0  0
    5.4935   -0.1134    2.1307 H   0  0  0  0  0  0  0  0  0  0  0  0
   -3.9526    0.4629    1.8558 C   0  0  0  0  0  0  0  0  0  0  0  0
   -4.5475   -0.2147    2.4861 H   0  0  0  0  0  0  0  0  0  0  0  0
  1  6  1  0  0  0  0
  2  7  1  0  0  0  0
  4  3  1  6  0  0  0
  4 10  1  0  0  0  0
  4  7  1  0  0  0  0
  5 18  2  0  0  0  0
  5  3  1  0  0  0  0
  6  8  2  0  0  0  0
  6 14  1  0  0  0  0
  7 22  2  0  0  0  0
  8 20  1  0  0  0  0
  9  8  1  0  0  0  0
 10 24  1  0  0  0  0
 11  1  1  0  0  0  0
 11  5  1  0  0  0  0
 12 11  1  0  0  0  0
 13 11  1  0  0  0  0
 14 30  2  0  0  0  0
 15 14  1  0  0  0  0
 16 17  1  0  0  0  0
 16 10  2  0  0  0  0
 18 16  1  0  0  0  0
 19 18  1  0  0  0  0
 20 21  1  0  0  0  0
 20 26  2  0  0  0  0
 22 28  1  0  0  0  0
 22 23  1  0  0  0  0
 24 25  1  0  0  0  0
 24 28  2  0  0  0  0
 26 27  1  0  0  0  0
 28 29  1  0  0  0  0
 30 26  1  0  0  0  0
 30 31  1  0  0  0  0
M  CHG  1   2  -1
M  END
