2,3,4
 OpenBabel05122313063D

 25 26  0  0  0  0  0  0  0  0999 V2000
   -6.8218   -0.9045   -0.1006 Br  0  0  0  0  0  0  0  0  0  0  0  0
    1.8765    2.3686    0.0618 S   0  0  0  0  0  1  0  0  0  0  0  0
   -0.7844   -0.6617    0.2086 O   0  5  0  0  0  0  0  0  0  0  0  0
   -1.0004    2.1636   -0.0119 N   0  0  0  0  0  2  0  0  0  0  0  0
   -2.0850   -0.6564    0.1544 C   0  0  0  0  0  0  0  0  0  0  0  0
   -2.8686    0.5436   -0.0136 C   0  0  0  0  0  0  0  0  0  0  0  0
   -4.2911    0.4432   -0.0904 C   0  0  0  0  0  3  0  0  0  0  0  0
   -4.8850    1.3602   -0.2211 H   0  0  0  0  0  0  0  0  0  0  0  0
   -4.9214   -0.7877    0.0046 C   0  0  0  0  0  0  0  0  0  0  0  0
   -4.1624   -1.9731    0.1844 C   0  0  0  0  0  0  0  0  0  0  0  0
   -4.6763   -2.9420    0.2629 H   0  0  0  0  0  0  0  0  0  0  0  0
   -2.7784   -1.9017    0.2582 C   0  0  0  0  0  0  0  0  0  0  0  0
   -2.1668   -2.8053    0.3963 H   0  0  0  0  0  0  0  0  0  0  0  0
   -2.2838    1.8438   -0.0834 C   0  0  0  0  0  0  0  0  0  0  0  0
   -3.0109    2.6677   -0.1975 H   0  0  0  0  0  0  0  0  0  0  0  0
   -0.5995    3.5255   -0.0170 C   0  0  0  0  0  0  0  0  0  0  0  0
    0.8026    3.7532   -0.0008 C   0  0  0  0  0  0  0  0  0  0  0  0
    1.3030    5.0740   -0.0186 C   0  0  0  0  0  0  0  0  0  0  0  0
    2.3924    5.2297   -0.0099 H   0  0  0  0  0  0  0  0  0  0  0  0
    0.4247    6.1598   -0.0411 C   0  0  0  0  0  0  0  0  0  0  0  0
    0.8219    7.1861   -0.0522 H   0  0  0  0  0  0  0  0  0  0  0  0
   -0.9677    5.9393   -0.0420 C   0  0  0  0  0  0  0  0  0  0  0  0
   -1.6634    6.7914   -0.0499 H   0  0  0  0  0  0  0  0  0  0  0  0
   -1.4746    4.6368   -0.0271 C   0  0  0  0  0  0  0  0  0  0  0  0
   -2.5646    4.4982   -0.0153 H   0  0  0  0  0  0  0  0  0  0  0  0
  1  9  1  0  0  0  0
  5  3  1  0  0  0  0
  5 12  2  0  0  0  0
  6  5  1  0  0  0  0
  7  6  1  0  0  0  0
  7  9  1  0  0  0  0
  8  7  1  0  0  0  0
  9 10  2  0  0  0  0
 10 12  1  0  0  0  0
 10 11  1  0  0  0  0
 12 13  1  0  0  0  0
 14  6  2  0  0  0  0
 14  4  1  0  0  0  0
 15 14  1  0  0  0  0
 16  4  1  0  0  0  0
 16 17  1  0  0  0  0
 17  2  1  0  0  0  0
 18 19  1  0  0  0  0
 18 17  2  0  0  0  0
 20 18  1  0  0  0  0
 21 20  1  0  0  0  0
 22 20  2  0  0  0  0
 22 24  1  0  0  0  0
 23 22  1  0  0  0  0
 24 16  2  0  0  0  0
 24 25  1  0  0  0  0
M  CHG  1   3  -1
M  END
