1,5,7
 OpenBabel05122313063D

 29 29  0  0  1  0  0  0  0  0999 V2000
   -2.9646   -0.9960   -0.0220 S   0  0  0  0  0  1  0  0  0  0  0  0
   -4.1539    1.8025   -0.2302 S   0  0  0  0  0  0  0  0  0  0  0  0
    4.4650   -0.3401   -0.0968 N   0  0  0  0  0  0  0  0  0  0  0  0
    5.4087   -0.7365   -0.1206 H   0  0  0  0  0  0  0  0  0  0  0  0
   -0.5355    0.6311   -0.1072 N   0  0  0  0  0  2  0  0  0  0  0  0
   -1.6300    1.3866   -0.1609 N   0  0  0  0  0  0  0  0  0  0  0  0
    1.1408   -1.4872   -0.5823 O   0  5  0  0  0  0  0  0  0  0  0  0
    2.3136    3.8255   -0.3260 O   0  0  0  0  0  0  0  0  0  0  0  0
    2.7570    3.6630   -1.1795 H   0  0  0  0  0  0  0  0  0  0  0  0
    2.0978   -0.6610   -0.3199 C   0  0  0  0  0  0  0  0  0  0  0  0
    3.4254   -1.1756   -0.3597 C   0  0  2  0  0  3  0  0  0  0  0  0
    4.3172    0.9801    0.2103 C   0  0  0  0  0  0  0  0  0  0  0  0
    5.2362    1.5420    0.4235 H   0  0  0  0  0  0  0  0  0  0  0  0
    3.0541    1.5498    0.2624 C   0  0  0  0  0  0  0  0  0  0  0  0
    1.8993    0.7408   -0.0164 C   0  0  0  0  0  0  0  0  0  0  0  0
    0.5953    1.3268   -0.0298 C   0  0  0  0  0  3  0  0  0  0  0  0
    0.5058    2.4261    0.0034 H   0  0  0  0  0  0  0  0  0  0  0  0
   -2.7832    0.7043   -0.1263 C   0  0  0  0  0  0  0  0  0  0  0  0
    3.6689   -2.6120   -0.6706 C   0  0  0  0  0  0  0  0  0  0  0  0
    3.1116   -3.2501    0.0459 H   0  0  0  0  0  0  0  0  0  0  0  0
    3.2577   -2.8633   -1.6701 H   0  0  0  0  0  0  0  0  0  0  0  0
    4.7441   -2.8753   -0.6409 H   0  0  0  0  0  0  0  0  0  0  0  0
    2.9415    3.0117    0.6485 C   0  0  0  0  0  0  0  0  0  0  0  0
    3.9579    3.3901    0.9172 H   0  0  0  0  0  0  0  0  0  0  0  0
    2.3166    3.1014    1.5625 H   0  0  0  0  0  0  0  0  0  0  0  0
   -5.5668    0.6677   -0.1626 C   0  0  0  0  0  0  0  0  0  0  0  0
   -5.5566   -0.0279   -1.0239 H   0  0  0  0  0  0  0  0  0  0  0  0
   -6.4677    1.3092   -0.2034 H   0  0  0  0  0  0  0  0  0  0  0  0
   -5.5560    0.0854    0.7789 H   0  0  0  0  0  0  0  0  0  0  0  0
  2 26  1  0  0  0  0
  2 18  1  0  0  0  0
  3 12  1  0  0  0  0
  4  3  1  0  0  0  0
  5 16  1  0  0  0  0
  6 18  2  0  0  0  0
  6  5  1  0  0  0  0
  7 10  1  0  0  0  0
  8 23  1  0  0  0  0
  9  8  1  0  0  0  0
 10 15  2  0  0  0  0
 11 19  1  1  0  0  0
 11 10  1  0  0  0  0
 11  3  1  0  0  0  0
 12 14  2  0  0  0  0
 12 13  1  0  0  0  0
 14 23  1  0  0  0  0
 15 14  1  0  0  0  0
 16 15  1  0  0  0  0
 16 17  1  0  0  0  0
 18  1  1  0  0  0  0
 19 22  1  0  0  0  0
 19 20  1  0  0  0  0
 21 19  1  0  0  0  0
 23 24  1  0  0  0  0
 23 25  1  0  0  0  0
 26 29  1  0  0  0  0
 27 26  1  0  0  0  0
 28 26  1  0  0  0  0
M  CHG  1   7  -1
M  END
