1,19,35
 OpenBabel05122313063D

 35 36  0  0  1  0  0  0  0  0999 V2000
    0.2625   -2.1549   -0.7236 S   0  0  0  0  0  1  0  0  0  0  0  0
    1.1561   -0.7085   -0.2815 C   0  0  0  0  0  0  0  0  0  0  0  0
    2.8981   -0.9325   -0.2920 S   0  0  0  0  0  0  0  0  0  0  0  0
    3.4793    0.7660    0.1398 C   0  0  0  0  0  0  0  0  0  0  0  0
    3.0345    1.4621   -0.5976 H   0  0  0  0  0  0  0  0  0  0  0  0
    3.0708    1.0167    1.1377 H   0  0  0  0  0  0  0  0  0  0  0  0
    4.9836    0.7775    0.1142 C   0  0  0  0  0  0  0  0  0  0  0  0
    5.6773    1.0208   -1.0888 C   0  0  0  0  0  0  0  0  0  0  0  0
    5.1071    1.2195   -2.0100 H   0  0  0  0  0  0  0  0  0  0  0  0
    7.0790    1.0114   -1.1185 C   0  0  0  0  0  0  0  0  0  0  0  0
    7.6075    1.2084   -2.0635 H   0  0  0  0  0  0  0  0  0  0  0  0
    7.8064    0.7517    0.0542 C   0  0  0  0  0  0  0  0  0  0  0  0
    8.9067    0.7452    0.0315 H   0  0  0  0  0  0  0  0  0  0  0  0
    7.1251    0.5006    1.2558 C   0  0  0  0  0  0  0  0  0  0  0  0
    7.6897    0.2959    2.1781 H   0  0  0  0  0  0  0  0  0  0  0  0
    5.7230    0.5102    1.2839 C   0  0  0  0  0  0  0  0  0  0  0  0
    5.1888    0.3099    2.2261 H   0  0  0  0  0  0  0  0  0  0  0  0
    0.6550    0.4521    0.0475 N   0  0  0  0  0  0  0  0  0  0  0  0
   -0.7032    0.5526   -0.0088 N   0  0  0  0  0  2  0  0  0  0  0  0
   -0.2032    2.8976    0.4319 C   0  0  0  0  0  0  0  0  0  0  0  0
    0.5526    2.5641    1.1682 H   0  0  0  0  0  0  0  0  0  0  0  0
   -0.6978    3.8123    0.7970 H   0  0  0  0  0  0  0  0  0  0  0  0
    0.3651    3.1300   -0.4930 H   0  0  0  0  0  0  0  0  0  0  0  0
   -1.1783    1.7776    0.1835 C   0  0  1  0  0  3  0  0  0  0  0  0
   -2.6172    2.0564    0.1493 C   0  0  0  0  0  0  0  0  0  0  0  0
   -3.0807    3.3836   -0.0612 C   0  0  0  0  0  0  0  0  0  0  0  0
   -2.3501    4.1781   -0.2655 H   0  0  0  0  0  0  0  0  0  0  0  0
   -4.4378    3.7058   -0.0520 C   0  0  0  0  0  0  0  0  0  0  0  0
   -4.7562    4.7416   -0.2380 H   0  0  0  0  0  0  0  0  0  0  0  0
   -5.3906    2.6998    0.1945 C   0  0  0  0  0  0  0  0  0  0  0  0
   -6.4637    2.9436    0.2138 H   0  0  0  0  0  0  0  0  0  0  0  0
   -4.9761    1.3829    0.4033 C   0  0  0  0  0  0  0  0  0  0  0  0
   -5.6949    0.5718    0.5873 H   0  0  0  0  0  0  0  0  0  0  0  0
   -3.6067    1.0451    0.3654 C   0  0  0  0  0  0  0  0  0  0  0  0
   -3.2723   -0.2382    0.5761 O   0  5  0  0  0  0  0  0  0  0  0  0
  1  2  1  0  0  0  0
  2 18  2  0  0  0  0
  3  2  1  0  0  0  0
  3  4  1  0  0  0  0
  4  6  1  0  0  0  0
  5  4  1  0  0  0  0
  7  4  1  0  0  0  0
  7 16  1  0  0  0  0
  8  7  2  0  0  0  0
  9  8  1  0  0  0  0
 10  8  1  0  0  0  0
 10 12  2  0  0  0  0
 11 10  1  0  0  0  0
 12 14  1  0  0  0  0
 13 12  1  0  0  0  0
 14 16  2  0  0  0  0
 14 15  1  0  0  0  0
 16 17  1  0  0  0  0
 19 18  1  0  0  0  0
 20 22  1  0  0  0  0
 20 21  1  0  0  0  0
 23 20  1  0  0  0  0
 24 19  1  6  0  0  0
 24 20  1  0  0  0  0
 25 24  1  0  0  0  0
 25 34  1  0  0  0  0
 26 28  1  0  0  0  0
 26 25  2  0  0  0  0
 27 26  1  0  0  0  0
 28 30  2  0  0  0  0
 29 28  1  0  0  0  0
 30 31  1  0  0  0  0
 30 32  1  0  0  0  0
 32 33  1  0  0  0  0
 34 32  2  0  0  0  0
 34 35  1  0  0  0  0
M  CHG  1  35  -1
M  END
