1,7,26
 OpenBabel05122313063D

 26 27  0  0  1  0  0  0  0  0999 V2000
   -1.0810    2.9206    0.0118 S   0  0  0  0  0  1  0  0  0  0  0  0
    0.1951    5.2794    0.0295 N   0  0  0  0  0  0  0  0  0  0  0  0
    1.0095    5.8517   -0.1970 H   0  0  0  0  0  0  0  0  0  0  0  0
   -0.7132    5.6425   -0.2544 H   0  0  0  0  0  0  0  0  0  0  0  0
    0.3807    3.9204   -0.0244 C   0  0  0  0  0  0  0  0  0  0  0  0
    1.6057    3.4533   -0.0576 N   0  0  0  0  0  0  0  0  0  0  0  0
    1.7017    2.0920   -0.0413 N   0  0  0  0  0  2  0  0  0  0  0  0
    2.9271    1.5979   -0.0463 C   0  0  0  0  0  0  0  0  0  0  0  0
    3.6972    2.3855   -0.0596 H   0  0  0  0  0  0  0  0  0  0  0  0
    3.3509    0.2306   -0.0303 C   0  0  0  0  0  0  0  0  0  0  0  0
    4.7882   -0.0467   -0.0301 C   0  0  2  0  0  3  0  0  0  0  0  0
    5.7872    0.9696   -0.0528 C   0  0  0  0  0  0  0  0  0  0  0  0
    5.4992    2.0291   -0.0717 H   0  0  0  0  0  0  0  0  0  0  0  0
    7.1461    0.6684   -0.0527 C   0  0  0  0  0  0  0  0  0  0  0  0
    7.8792    1.4894   -0.0710 H   0  0  0  0  0  0  0  0  0  0  0  0
    7.5910   -0.6734   -0.0292 C   0  0  0  0  0  0  0  0  0  0  0  0
    8.6667   -0.9041   -0.0289 H   0  0  0  0  0  0  0  0  0  0  0  0
    6.6476   -1.6922   -0.0065 C   0  0  0  0  0  0  0  0  0  0  0  0
    6.9641   -2.7472    0.0122 H   0  0  0  0  0  0  0  0  0  0  0  0
    5.2549   -1.4095   -0.0067 C   0  0  0  0  0  0  0  0  0  0  0  0
    4.2966   -2.4725    0.0177 C   0  0  0  0  0  0  0  0  0  0  0  0
    4.6633   -3.5111    0.0396 H   0  0  0  0  0  0  0  0  0  0  0  0
    2.9485   -2.2157    0.0160 C   0  0  0  0  0  0  0  0  0  0  0  0
    2.2030   -3.0239    0.0398 H   0  0  0  0  0  0  0  0  0  0  0  0
    2.4299   -0.8718   -0.0113 C   0  0  0  0  0  0  0  0  0  0  0  0
    1.1255   -0.7872   -0.0164 O   0  5  0  0  0  0  0  0  0  0  0  0
  3  2  1  0  0  0  0
  4  2  1  0  0  0  0
  5  1  1  0  0  0  0
  5  2  1  0  0  0  0
  6  7  1  0  0  0  0
  6  5  2  0  0  0  0
  8  7  1  0  0  0  0
  8 10  2  0  0  0  0
  9  8  1  0  0  0  0
 10 11  1  0  0  0  0
 10 25  1  0  0  0  0
 11 12  1  6  0  0  0
 11 20  1  0  0  0  0
 12 14  2  0  0  0  0
 13 12  1  0  0  0  0
 14 16  1  0  0  0  0
 15 14  1  0  0  0  0
 16 17  1  0  0  0  0
 16 18  2  0  0  0  0
 18 19  1  0  0  0  0
 20 18  1  0  0  0  0
 20 21  2  0  0  0  0
 21 22  1  0  0  0  0
 23 21  1  0  0  0  0
 23 24  1  0  0  0  0
 25 23  2  0  0  0  0
 26 25  1  0  0  0  0
M  CHG  1  26  -1
M  END
