2,3,4
 OpenBabel05122313063D

 32 32  0  0  0  0  0  0  0  0999 V2000
   -6.0778   -1.0661    0.0685 C   0  0  0  0  0  0  0  0  0  0  0  0
    4.1347   -1.5190   -0.1515 S   0  0  0  0  0  1  0  0  0  0  0  0
    0.0719   -0.2089   -0.0424 O   0  5  0  0  0  0  0  0  0  0  0  0
    2.5979    0.9858   -0.1063 N   0  0  0  0  0  2  0  0  0  0  0  0
   -6.9026   -2.5181    0.0890 S   0  0  0  0  0  0  0  0  0  0  0  0
   -2.6868   -0.0005   -0.0218 C   0  0  0  0  0  0  0  0  0  0  0  0
   -2.1670   -0.9811   -0.0399 H   0  0  0  0  0  0  0  0  0  0  0  0
    3.9375    1.2195   -0.0674 N   0  0  0  0  0  0  0  0  0  0  0  0
   -1.8449    1.1888   -0.0388 C   0  0  0  0  0  0  0  0  0  0  0  0
    6.0510    0.3266   -0.0783 N   0  0  0  0  0  0  0  0  0  0  0  0
    6.6612   -0.4558   -0.3056 H   0  0  0  0  0  0  0  0  0  0  0  0
    6.4054    1.2771   -0.1902 H   0  0  0  0  0  0  0  0  0  0  0  0
   -2.3733    2.4952   -0.0363 C   0  0  0  0  0  0  0  0  0  0  0  0
   -3.4690    2.5996   -0.0233 H   0  0  0  0  0  0  0  0  0  0  0  0
   -3.9852    0.0760    0.0131 N   0  0  0  0  0  0  0  0  0  0  0  0
   -4.6911   -1.0610    0.0265 N   0  0  0  0  0  0  0  0  0  0  0  0
   -4.2490   -1.9933    0.0066 H   0  0  0  0  0  0  0  0  0  0  0  0
   -1.5568    3.6425   -0.0490 C   0  0  0  0  0  0  0  0  0  0  0  0
   -6.6420    0.1623    0.0914 N   0  0  0  0  0  0  0  0  0  0  0  0
   -6.0399    0.9888    0.0686 H   0  0  0  0  0  0  0  0  0  0  0  0
   -7.6565    0.2245    0.1152 H   0  0  0  0  0  0  0  0  0  0  0  0
   -0.1677    3.4572   -0.0608 C   0  0  0  0  0  0  0  0  0  0  0  0
    0.4989    4.3345   -0.0672 H   0  0  0  0  0  0  0  0  0  0  0  0
    0.4216    2.1666   -0.0681 C   0  0  0  0  0  0  0  0  0  0  0  0
   -0.4272    1.0218   -0.0586 C   0  0  0  0  0  0  0  0  0  0  0  0
    1.8590    2.0758   -0.0598 C   0  0  0  0  0  3  0  0  0  0  0  0
    2.4228    3.0263   -0.0136 H   0  0  0  0  0  0  0  0  0  0  0  0
    4.7012    0.1506   -0.1156 C   0  0  0  0  0  0  0  0  0  0  0  0
   -2.1697    5.0208   -0.0558 C   0  0  0  0  0  0  0  0  0  0  0  0
   -2.7655    5.1913   -0.9768 H   0  0  0  0  0  0  0  0  0  0  0  0
   -1.3970    5.8118   -0.0044 H   0  0  0  0  0  0  0  0  0  0  0  0
   -2.8580    5.1614    0.8031 H   0  0  0  0  0  0  0  0  0  0  0  0
  1  5  2  0  0  0  0
  1 19  1  0  0  0  0
  2 28  1  0  0  0  0
  4  8  1  0  0  0  0
  4 26  1  0  0  0  0
  6 15  2  0  0  0  0
  7  6  1  0  0  0  0
  9 13  1  0  0  0  0
  9  6  1  0  0  0  0
 11 10  1  0  0  0  0
 12 10  1  0  0  0  0
 13 14  1  0  0  0  0
 15 16  1  0  0  0  0
 16  1  1  0  0  0  0
 17 16  1  0  0  0  0
 18 13  2  0  0  0  0
 19 21  1  0  0  0  0
 20 19  1  0  0  0  0
 22 18  1  0  0  0  0
 23 22  1  0  0  0  0
 24 22  2  0  0  0  0
 24 26  1  0  0  0  0
 24 25  1  0  0  0  0
 25  3  1  0  0  0  0
 25  9  2  0  0  0  0
 26 27  1  0  0  0  0
 28 10  1  0  0  0  0
 28  8  2  0  0  0  0
 29 18  1  0  0  0  0
 29 31  1  0  0  0  0
 29 32  1  0  0  0  0
 30 29  1  0  0  0  0
M  CHG  1   3  -1
M  END
