1,3,4
 OpenBabel05122313063D

 38 40  0  0  1  0  0  0  0  0999 V2000
    2.2077    2.2364   -0.1499 S   0  0  0  0  0  1  0  0  0  0  0  0
   -3.9196    0.4165    0.1136 O   0  0  0  0  0  0  0  0  0  0  0  0
   -2.0403    1.5088    0.1512 O   0  5  0  0  0  0  0  0  0  0  0  0
    0.4456   -0.0866    0.0750 N   0  0  0  0  0  2  0  0  0  0  0  0
    1.7449   -0.4566    0.0465 N   0  0  0  0  0  0  0  0  0  0  0  0
    3.9651    0.2602   -0.0836 N   0  0  0  0  0  0  0  0  0  0  0  0
   -4.7148   -0.6850    0.0175 C   0  0  0  0  0  0  0  0  0  0  0  0
   -0.4282   -1.0942    0.2091 C   0  0  1  0  0  3  0  0  0  0  0  0
   -4.1237   -1.9693   -0.0693 C   0  0  0  0  0  0  0  0  0  0  0  0
   -2.5539    0.3833    0.1236 C   0  0  0  0  0  0  0  0  0  0  0  0
    2.6229    0.5348   -0.0510 C   0  0  0  0  0  0  0  0  0  0  0  0
   -6.1035   -0.4988   -0.0015 C   0  0  0  0  0  0  0  0  0  0  0  0
   -6.5096    0.5196    0.0702 H   0  0  0  0  0  0  0  0  0  0  0  0
   -2.7012   -2.0450   -0.0148 C   0  0  0  0  0  0  0  0  0  0  0  0
   -2.2512   -3.0440   -0.0837 H   0  0  0  0  0  0  0  0  0  0  0  0
   -1.8760   -0.9242    0.1110 C   0  0  0  0  0  0  0  0  0  0  0  0
    6.8904   -1.9928    0.0267 C   0  0  0  0  0  0  0  0  0  0  0  0
    7.9847   -1.8910    0.0832 H   0  0  0  0  0  0  0  0  0  0  0  0
    4.6851   -0.9440   -0.0624 C   0  0  0  0  0  0  0  0  0  0  0  0
    6.0954   -0.8430    0.0087 C   0  0  0  0  0  0  0  0  0  0  0  0
    6.5660    0.1527    0.0521 H   0  0  0  0  0  0  0  0  0  0  0  0
   -4.9847   -3.0931   -0.1905 C   0  0  0  0  0  3  0  0  0  0  0  0
   -4.5402   -4.0974   -0.2615 H   0  0  0  0  0  0  0  0  0  0  0  0
    0.1230   -2.4796    0.4285 C   0  0  0  0  0  0  0  0  0  0  0  0
    0.4022   -2.9658   -0.5313 H   0  0  0  0  0  0  0  0  0  0  0  0
   -0.5961   -3.1312    0.9554 H   0  0  0  0  0  0  0  0  0  0  0  0
    1.0497   -2.4117    1.0265 H   0  0  0  0  0  0  0  0  0  0  0  0
   -6.9251   -1.6252   -0.1180 C   0  0  0  0  0  0  0  0  0  0  0  0
   -8.0174   -1.4971   -0.1370 H   0  0  0  0  0  0  0  0  0  0  0  0
    4.0888   -2.2236   -0.1195 C   0  0  0  0  0  0  0  0  0  0  0  0
    2.9982   -2.2957   -0.1836 H   0  0  0  0  0  0  0  0  0  0  0  0
    4.9009   -3.3659   -0.0994 C   0  0  0  0  0  0  0  0  0  0  0  0
    4.4238   -4.3569   -0.1459 H   0  0  0  0  0  0  0  0  0  0  0  0
    6.2986   -3.2658   -0.0251 C   0  0  0  0  0  0  0  0  0  0  0  0
    6.9234   -4.1709   -0.0094 H   0  0  0  0  0  0  0  0  0  0  0  0
   -6.3669   -2.9206   -0.2143 C   0  0  0  0  0  0  0  0  0  0  0  0
   -7.0280   -3.7943   -0.3074 H   0  0  0  0  0  0  0  0  0  0  0  0
    4.5470    1.1005   -0.1199 H   0  0  0  0  0  0  0  0  0  0  0  0
  1 11  1  0  0  0  0
  2 10  1  0  0  0  0
  5  4  1  0  0  0  0
  6 19  1  0  0  0  0
  6 11  1  0  0  0  0
  7  2  1  0  0  0  0
  8  4  1  6  0  0  0
  8 24  1  0  0  0  0
  9 14  2  0  0  0  0
  9  7  1  0  0  0  0
 10  3  1  0  0  0  0
 11  5  2  0  0  0  0
 12  7  2  0  0  0  0
 12 13  1  0  0  0  0
 14 16  1  0  0  0  0
 15 14  1  0  0  0  0
 16 10  2  0  0  0  0
 16  8  1  0  0  0  0
 17 18  1  0  0  0  0
 19 20  2  0  0  0  0
 20 17  1  0  0  0  0
 20 21  1  0  0  0  0
 22  9  1  0  0  0  0
 23 22  1  0  0  0  0
 24 26  1  0  0  0  0
 24 27  1  0  0  0  0
 25 24  1  0  0  0  0
 28 12  1  0  0  0  0
 29 28  1  0  0  0  0
 30 32  2  0  0  0  0
 30 19  1  0  0  0  0
 31 30  1  0  0  0  0
 32 34  1  0  0  0  0
 33 32  1  0  0  0  0
 34 35  1  0  0  0  0
 34 17  2  0  0  0  0
 36 22  1  0  0  0  0
 36 28  2  0  0  0  0
 37 36  1  0  0  0  0
 38  6  1  0  0  0  0
M  CHG  1   3  -1
M  END
