1,2,3
 OpenBabel05122313063D

 26 26  0  0  1  0  0  0  0  0999 V2000
    1.8444   -2.6646   -0.4435 S   0  0  0  0  0  1  0  0  0  0  0  0
   -1.4217   -0.5657   -1.9060 O   0  0  0  0  0  1  0  0  0  0  0  0
    1.0934    0.1501   -1.1989 N   0  0  0  0  0  2  0  0  0  0  0  0
    2.4145   -0.0564   -1.2416 N   0  0  0  0  0  0  0  0  0  0  0  0
    4.1634   -1.4842   -0.9368 N   0  0  0  0  0  0  0  0  0  0  0  0
   -1.7399    0.6681   -1.6870 N   0  0  0  0  0  0  0  0  0  0  0  0
    0.6533    1.3524   -1.5256 C   0  0  2  0  0  3  0  0  0  0  0  0
    1.5925    2.4623   -1.9138 C   0  0  0  0  0  0  0  0  0  0  0  0
    2.8160   -1.2928   -0.9115 C   0  0  0  0  0  0  0  0  0  0  0  0
    5.1130   -0.4650   -1.3309 C   0  0  0  0  0  0  0  0  0  0  0  0
   -0.7784    1.6522   -1.4448 C   0  0  1  0  0  3  0  0  0  0  0  0
   -1.2313    2.9636   -1.1826 C   0  0  0  0  0  0  0  0  0  0  0  0
   -2.5856    3.2941   -1.1845 C   0  0  0  0  0  0  0  0  0  0  0  0
   -3.5228    2.2826   -1.4630 C   0  0  0  0  0  0  0  0  0  0  0  0
   -3.0759    0.9915   -1.6971 C   0  0  0  0  0  0  0  0  0  0  0  0
    4.4827   -2.4292   -0.7277 H   0  0  0  0  0  0  0  0  0  0  0  0
    2.5295    2.0206   -2.2970 H   0  0  0  0  0  0  0  0  0  0  0  0
    1.8392    3.0770   -1.0209 H   0  0  0  0  0  0  0  0  0  0  0  0
    1.1414    3.1270   -2.6750 H   0  0  0  0  0  0  0  0  0  0  0  0
    6.1373   -0.8647   -1.2093 H   0  0  0  0  0  0  0  0  0  0  0  0
    4.9985    0.4436   -0.7046 H   0  0  0  0  0  0  0  0  0  0  0  0
    4.9704   -0.1529   -2.3878 H   0  0  0  0  0  0  0  0  0  0  0  0
   -0.4725    3.7132   -0.9273 H   0  0  0  0  0  0  0  0  0  0  0  0
   -2.9085    4.3208   -0.9631 H   0  0  0  0  0  0  0  0  0  0  0  0
   -4.6037    2.4802   -1.4784 H   0  0  0  0  0  0  0  0  0  0  0  0
   -3.7182    0.1224   -1.8871 H   0  0  0  0  0  0  0  0  0  0  0  0
  2  6  1  0  0  0  0
  4  3  1  0  0  0  0
  4  9  2  0  0  0  0
  5  9  1  0  0  0  0
  5 16  1  0  0  0  0
  6 11  1  0  0  0  0
  7  3  1  1  0  0  0
  8  7  1  0  0  0  0
  8 18  1  0  0  0  0
  9  1  1  0  0  0  0
 10 20  1  0  0  0  0
 10  5  1  0  0  0  0
 10 21  1  0  0  0  0
 11  7  1  6  0  0  0
 11 12  1  0  0  0  0
 12 23  1  0  0  0  0
 13 12  2  0  0  0  0
 13 24  1  0  0  0  0
 14 13  1  0  0  0  0
 15  6  1  0  0  0  0
 15 14  2  0  0  0  0
 17  8  1  0  0  0  0
 19  8  1  0  0  0  0
 22 10  1  0  0  0  0
 25 14  1  0  0  0  0
 26 15  1  0  0  0  0
M  END
