1,2,3
 OpenBabel05122313063D

 64 66  0  0  0  0  0  0  0  0999 V2000
    2.9429   -1.1231    0.7339 S   0  0  0  0  0  0  0  0  0  0  0  0
    0.3701    0.3509    1.3629 N   0  0  0  0  0  2  0  0  0  0  0  0
   -1.4234   -1.4465    0.3139 O   0  5  0  0  0  0  0  0  0  0  0  0
    4.6512    2.9792   -1.8852 O   0  0  0  0  0  0  0  0  0  0  0  0
   -2.2917   -0.4583    0.1737 C   0  0  0  0  0  0  0  0  0  0  0  0
   -3.5874   -0.7050   -0.3713 C   0  0  0  0  0  0  0  0  0  0  0  0
   -4.4441    0.3978   -0.4891 C   0  0  0  0  0  0  0  0  0  0  0  0
   -5.4398    0.2261   -0.9185 H   0  0  0  0  0  0  0  0  0  0  0  0
   -4.1143    1.7217   -0.0965 C   0  0  0  0  0  0  0  0  0  0  0  0
   -2.8467    1.9270    0.4431 C   0  0  0  0  0  0  0  0  0  0  0  0
   -2.5304    2.9264    0.7740 H   0  0  0  0  0  0  0  0  0  0  0  0
   -1.9171    0.8619    0.5813 C   0  0  0  0  0  0  0  0  0  0  0  0
   -0.6546    1.1549    1.2090 C   0  0  0  0  0  3  0  0  0  0  0  0
    1.4674    0.7702    2.1439 C   0  0  0  0  0  0  0  0  0  0  0  0
    1.3462    1.7196    3.1856 C   0  0  0  0  0  0  0  0  0  0  0  0
    0.3543    2.1172    3.4429 H   0  0  0  0  0  0  0  0  0  0  0  0
    2.4621    2.1285    3.9240 C   0  0  0  0  0  0  0  0  0  0  0  0
    2.3350    2.8664    4.7302 H   0  0  0  0  0  0  0  0  0  0  0  0
    3.7286    1.5823    3.6621 C   0  0  0  0  0  0  0  0  0  0  0  0
    3.8610    0.6002    2.6714 C   0  0  0  0  0  0  0  0  0  0  0  0
    2.7455    0.1940    1.9224 C   0  0  0  0  0  0  0  0  0  0  0  0
   -3.9928   -2.1160   -0.8333 C   0  0  0  0  0  0  0  0  0  0  0  0
   -3.0533   -2.5752   -1.9756 C   0  0  0  0  0  0  0  0  0  0  0  0
   -2.0001   -2.6536   -1.6507 H   0  0  0  0  0  0  0  0  0  0  0  0
   -3.0980   -1.8684   -2.8287 H   0  0  0  0  0  0  0  0  0  0  0  0
   -3.3707   -3.5738   -2.3400 H   0  0  0  0  0  0  0  0  0  0  0  0
   -3.9102   -3.1021    0.3566 C   0  0  0  0  0  0  0  0  0  0  0  0
   -2.8866   -3.1667    0.7679 H   0  0  0  0  0  0  0  0  0  0  0  0
   -4.2109   -4.1166    0.0232 H   0  0  0  0  0  0  0  0  0  0  0  0
   -4.5962   -2.7934    1.1717 H   0  0  0  0  0  0  0  0  0  0  0  0
   -5.4360   -2.1411   -1.3691 C   0  0  0  0  0  0  0  0  0  0  0  0
   -5.6916   -3.1736   -1.6796 H   0  0  0  0  0  0  0  0  0  0  0  0
   -5.5646   -1.4887   -2.2568 H   0  0  0  0  0  0  0  0  0  0  0  0
   -6.1735   -1.8341   -0.5994 H   0  0  0  0  0  0  0  0  0  0  0  0
   -5.1465    2.8460   -0.2803 C   0  0  0  0  0  0  0  0  0  0  0  0
   -5.4995    2.9690   -1.7803 C   0  0  0  0  0  0  0  0  0  0  0  0
   -4.6001    3.2145   -2.3801 H   0  0  0  0  0  0  0  0  0  0  0  0
   -6.2498    3.7714   -1.9366 H   0  0  0  0  0  0  0  0  0  0  0  0
   -5.9264    2.0286   -2.1823 H   0  0  0  0  0  0  0  0  0  0  0  0
   -6.4207    2.5047    0.5254 C   0  0  0  0  0  0  0  0  0  0  0  0
   -6.8756    1.5501    0.1939 H   0  0  0  0  0  0  0  0  0  0  0  0
   -7.1833    3.3007    0.3988 H   0  0  0  0  0  0  0  0  0  0  0  0
   -6.1935    2.4127    1.6067 H   0  0  0  0  0  0  0  0  0  0  0  0
   -4.6106    4.2028    0.2068 C   0  0  0  0  0  0  0  0  0  0  0  0
   -4.3606    4.1838    1.2870 H   0  0  0  0  0  0  0  0  0  0  0  0
   -5.3801    4.9865    0.0578 H   0  0  0  0  0  0  0  0  0  0  0  0
   -3.7061    4.5141   -0.3540 H   0  0  0  0  0  0  0  0  0  0  0  0
    3.6636   -0.3014   -0.6915 C   0  0  0  0  0  0  0  0  0  0  0  0
    3.8963    1.0735   -0.7478 C   0  0  0  0  0  0  0  0  0  0  0  0
    3.6472    1.7429    0.0860 H   0  0  0  0  0  0  0  0  0  0  0  0
    4.4579    1.6323   -1.9164 C   0  0  0  0  0  0  0  0  0  0  0  0
    4.7712    0.8039   -3.0126 C   0  0  0  0  0  0  0  0  0  0  0  0
    4.5152   -0.5756   -2.9293 C   0  0  0  0  0  0  0  0  0  0  0  0
    4.7483   -1.2178   -3.7920 H   0  0  0  0  0  0  0  0  0  0  0  0
    3.9645   -1.1462   -1.7787 C   0  0  0  0  0  0  0  0  0  0  0  0
    3.7349   -2.2205   -1.7292 H   0  0  0  0  0  0  0  0  0  0  0  0
    5.1835    3.6072   -3.0358 C   0  0  0  0  0  0  0  0  0  0  0  0
    6.2024    3.2311   -3.2811 H   0  0  0  0  0  0  0  0  0  0  0  0
    5.2466    4.6864   -2.8027 H   0  0  0  0  0  0  0  0  0  0  0  0
    4.5291    3.4670   -3.9253 H   0  0  0  0  0  0  0  0  0  0  0  0
   -0.5685    2.1903    1.5966 H   0  0  0  0  0  0  0  0  0  0  0  0
    4.6047    1.8938    4.2492 H   0  0  0  0  0  0  0  0  0  0  0  0
    4.8345    0.1288    2.4725 H   0  0  0  0  0  0  0  0  0  0  0  0
    5.2046    1.2199   -3.9312 H   0  0  0  0  0  0  0  0  0  0  0  0
  1 21  1  0  0  0  0
  2 14  1  0  0  0  0
  5  3  1  0  0  0  0
  5 12  1  0  0  0  0
  6  5  2  0  0  0  0
  7  6  1  0  0  0  0
  7  9  2  0  0  0  0
  8  7  1  0  0  0  0
  9 10  1  0  0  0  0
 10 12  2  0  0  0  0
 10 11  1  0  0  0  0
 12 13  1  0  0  0  0
 13  2  1  0  0  0  0
 13 61  1  0  0  0  0
 14 15  1  0  0  0  0
 15 16  1  0  0  0  0
 15 17  2  0  0  0  0
 17 18  1  0  0  0  0
 19 17  1  0  0  0  0
 19 62  1  0  0  0  0
 20 19  2  0  0  0  0
 21 14  2  0  0  0  0
 21 20  1  0  0  0  0
 22  6  1  0  0  0  0
 22 27  1  0  0  0  0
 23 24  1  0  0  0  0
 23 22  1  0  0  0  0
 25 23  1  0  0  0  0
 26 23  1  0  0  0  0
 27 28  1  0  0  0  0
 27 30  1  0  0  0  0
 29 27  1  0  0  0  0
 31 22  1  0  0  0  0
 31 34  1  0  0  0  0
 32 31  1  0  0  0  0
 33 31  1  0  0  0  0
 35  9  1  0  0  0  0
 35 44  1  0  0  0  0
 35 40  1  0  0  0  0
 36 35  1  0  0  0  0
 37 36  1  0  0  0  0
 38 36  1  0  0  0  0
 39 36  1  0  0  0  0
 40 43  1  0  0  0  0
 41 40  1  0  0  0  0
 42 40  1  0  0  0  0
 44 45  1  0  0  0  0
 46 44  1  0  0  0  0
 47 44  1  0  0  0  0
 48  1  1  0  0  0  0
 49 48  1  0  0  0  0
 49 50  1  0  0  0  0
 51  4  1  0  0  0  0
 51 49  2  0  0  0  0
 52 53  2  0  0  0  0
 52 51  1  0  0  0  0
 53 55  1  0  0  0  0
 54 53  1  0  0  0  0
 55 56  1  0  0  0  0
 55 48  2  0  0  0  0
 57 59  1  0  0  0  0
 57  4  1  0  0  0  0
 58 57  1  0  0  0  0
 60 57  1  0  0  0  0
 63 20  1  0  0  0  0
 64 52  1  0  0  0  0
M  CHG  1   3  -1
M  END
