1,2,3
 OpenBabel05122313063D

 60 62  0  0  0  0  0  0  0  0999 V2000
   -3.3314   -0.3236   -0.5274 S   0  0  0  0  0  0  0  0  0  0  0  0
    0.9704   -1.1830   -0.8090 O   0  5  0  0  0  0  0  0  0  0  0  0
   -0.6402    1.0451   -0.8095 N   0  0  0  0  0  2  0  0  0  0  0  0
   -3.0517    1.3492   -1.0845 C   0  0  0  0  0  0  0  0  0  0  0  0
   -4.1569    2.1291   -1.4602 C   0  0  0  0  0  0  0  0  0  0  0  0
   -3.9711    3.4201   -1.9721 C   0  0  0  0  0  0  0  0  0  0  0  0
   -2.6668    3.9113   -2.1420 C   0  0  0  0  0  0  0  0  0  0  0  0
   -1.5624    3.1332   -1.7782 C   0  0  0  0  0  0  0  0  0  0  0  0
   -1.7289    1.8493   -1.2080 C   0  0  0  0  0  0  0  0  0  0  0  0
    0.4911    1.6149   -0.4720 C   0  0  0  0  0  3  0  0  0  0  0  0
    1.7475    0.9728   -0.1789 C   0  0  0  0  0  0  0  0  0  0  0  0
    2.8172    1.7900    0.2616 C   0  0  0  0  0  0  0  0  0  0  0  0
    4.0874    1.2661    0.5140 C   0  0  0  0  0  0  0  0  0  0  0  0
    4.2673   -0.1202    0.2925 C   0  0  0  0  0  0  0  0  0  0  0  0
    3.2599   -0.9911   -0.1577 C   0  0  0  0  0  0  0  0  0  0  0  0
    1.9739   -0.4270   -0.3902 C   0  0  0  0  0  0  0  0  0  0  0  0
    5.2205    2.1822    1.0108 C   0  0  0  0  0  0  0  0  0  0  0  0
    4.8051    2.8142    2.3588 C   0  0  0  0  0  0  0  0  0  0  0  0
    5.6055    3.4838    2.7362 H   0  0  0  0  0  0  0  0  0  0  0  0
    4.6198    2.0325    3.1227 H   0  0  0  0  0  0  0  0  0  0  0  0
    3.8801    3.4171    2.2634 H   0  0  0  0  0  0  0  0  0  0  0  0
    5.4665    3.2979   -0.0301 C   0  0  0  0  0  0  0  0  0  0  0  0
    4.5615    3.9165   -0.1933 H   0  0  0  0  0  0  0  0  0  0  0  0
    5.7637    2.8693   -1.0085 H   0  0  0  0  0  0  0  0  0  0  0  0
    6.2772    3.9743    0.3111 H   0  0  0  0  0  0  0  0  0  0  0  0
    6.5374    1.4145    1.2194 C   0  0  0  0  0  0  0  0  0  0  0  0
    6.9023    0.9544    0.2790 H   0  0  0  0  0  0  0  0  0  0  0  0
    6.4339    0.6138    1.9791 H   0  0  0  0  0  0  0  0  0  0  0  0
    7.3231    2.1104    1.5756 H   0  0  0  0  0  0  0  0  0  0  0  0
    3.5103   -2.4956   -0.3656 C   0  0  0  0  0  0  0  0  0  0  0  0
    4.9741   -2.8709   -0.0698 C   0  0  0  0  0  0  0  0  0  0  0  0
    5.6855   -2.3360   -0.7318 H   0  0  0  0  0  0  0  0  0  0  0  0
    5.1137   -3.9564   -0.2419 H   0  0  0  0  0  0  0  0  0  0  0  0
    5.2546   -2.6655    0.9834 H   0  0  0  0  0  0  0  0  0  0  0  0
    3.2090   -2.8790   -1.8344 C   0  0  0  0  0  0  0  0  0  0  0  0
    3.8668   -2.3187   -2.5299 H   0  0  0  0  0  0  0  0  0  0  0  0
    2.1578   -2.6733   -2.1069 H   0  0  0  0  0  0  0  0  0  0  0  0
    3.3968   -3.9619   -1.9847 H   0  0  0  0  0  0  0  0  0  0  0  0
    2.6080   -3.3084    0.5954 C   0  0  0  0  0  0  0  0  0  0  0  0
    2.8085   -3.0322    1.6503 H   0  0  0  0  0  0  0  0  0  0  0  0
    2.8194   -4.3912    0.4782 H   0  0  0  0  0  0  0  0  0  0  0  0
    1.5320   -3.1515    0.3989 H   0  0  0  0  0  0  0  0  0  0  0  0
   -3.8383   -0.1229    1.1843 C   0  0  0  0  0  0  0  0  0  0  0  0
   -3.9010    1.1140    1.8430 C   0  0  0  0  0  0  0  0  0  0  0  0
   -4.3109    1.1525    3.1847 C   0  0  0  0  0  0  0  0  0  0  0  0
   -4.6429   -0.0298    3.8628 C   0  0  0  0  0  0  0  0  0  0  0  0
   -4.5617   -1.2631    3.1952 C   0  0  0  0  0  0  0  0  0  0  0  0
   -4.1604   -1.3175    1.8548 C   0  0  0  0  0  0  0  0  0  0  0  0
   -2.5043    4.9045   -2.5868 H   0  0  0  0  0  0  0  0  0  0  0  0
   -4.8399    4.0250   -2.2697 H   0  0  0  0  0  0  0  0  0  0  0  0
   -5.1663    1.7055   -1.3546 H   0  0  0  0  0  0  0  0  0  0  0  0
   -0.5490    3.5121   -1.9718 H   0  0  0  0  0  0  0  0  0  0  0  0
    0.5162    2.7207   -0.3924 H   0  0  0  0  0  0  0  0  0  0  0  0
    2.6173    2.8634    0.4074 H   0  0  0  0  0  0  0  0  0  0  0  0
    5.2564   -0.5492    0.4864 H   0  0  0  0  0  0  0  0  0  0  0  0
   -4.0654   -2.2829    1.3347 H   0  0  0  0  0  0  0  0  0  0  0  0
   -3.6281    2.0396    1.3174 H   0  0  0  0  0  0  0  0  0  0  0  0
   -4.3617    2.1210    3.7051 H   0  0  0  0  0  0  0  0  0  0  0  0
   -4.9589    0.0081    4.9159 H   0  0  0  0  0  0  0  0  0  0  0  0
   -4.8065   -2.1966    3.7238 H   0  0  0  0  0  0  0  0  0  0  0  0
  1 43  1  0  0  0  0
  2 16  1  0  0  0  0
  3 10  1  0  0  0  0
  4  1  1  0  0  0  0
  5 51  1  0  0  0  0
  5  4  2  0  0  0  0
  6  5  1  0  0  0  0
  7  6  2  0  0  0  0
  7  8  1  0  0  0  0
  8  9  2  0  0  0  0
  9  4  1  0  0  0  0
  9  3  1  0  0  0  0
 10 53  1  0  0  0  0
 10 11  1  0  0  0  0
 11 12  1  0  0  0  0
 12 54  1  0  0  0  0
 12 13  2  0  0  0  0
 13 17  1  0  0  0  0
 14 55  1  0  0  0  0
 14 13  1  0  0  0  0
 15 14  2  0  0  0  0
 16 11  2  0  0  0  0
 16 15  1  0  0  0  0
 17 26  1  0  0  0  0
 17 18  1  0  0  0  0
 18 19  1  0  0  0  0
 18 20  1  0  0  0  0
 21 18  1  0  0  0  0
 22 25  1  0  0  0  0
 22 17  1  0  0  0  0
 23 22  1  0  0  0  0
 24 22  1  0  0  0  0
 26 29  1  0  0  0  0
 26 28  1  0  0  0  0
 27 26  1  0  0  0  0
 30 15  1  0  0  0  0
 30 31  1  0  0  0  0
 30 39  1  0  0  0  0
 31 34  1  0  0  0  0
 32 31  1  0  0  0  0
 33 31  1  0  0  0  0
 35 30  1  0  0  0  0
 36 35  1  0  0  0  0
 37 35  1  0  0  0  0
 38 35  1  0  0  0  0
 39 40  1  0  0  0  0
 41 39  1  0  0  0  0
 42 39  1  0  0  0  0
 43 44  2  0  0  0  0
 43 48  1  0  0  0  0
 44 45  1  0  0  0  0
 45 58  1  0  0  0  0
 45 46  2  0  0  0  0
 46 59  1  0  0  0  0
 47 60  1  0  0  0  0
 47 46  1  0  0  0  0
 48 47  2  0  0  0  0
 49  7  1  0  0  0  0
 50  6  1  0  0  0  0
 52  8  1  0  0  0  0
 56 48  1  0  0  0  0
 57 44  1  0  0  0  0
M  CHG  1   2  -1
M  END
