1,2,3
 OpenBabel05122313063D

 48 50  0  0  0  0  0  0  0  0999 V2000
   -2.4422   -0.4061   -1.0272 S   0  0  0  0  0  0  0  0  0  0  0  0
   -0.3324    1.4644    0.0862 N   0  0  0  0  0  2  0  0  0  0  0  0
    1.9076   -0.0004   -0.5339 O   0  5  0  0  0  0  0  0  0  0  0  0
    2.5597    0.6219    0.4343 C   0  0  0  0  0  0  0  0  0  0  0  0
    3.9318    0.3169    0.6869 C   0  0  0  0  0  0  0  0  0  0  0  0
    4.5512    1.0166    1.7359 C   0  0  0  0  0  0  0  0  0  0  0  0
    5.6024    0.8004    1.9686 H   0  0  0  0  0  0  0  0  0  0  0  0
    3.8851    1.9878    2.5127 C   0  0  0  0  0  0  0  0  0  0  0  0
    4.4234    2.5048    3.3201 H   0  0  0  0  0  0  0  0  0  0  0  0
    2.5548    2.2860    2.2484 C   0  0  0  0  0  0  0  0  0  0  0  0
    2.0193    3.0468    2.8376 H   0  0  0  0  0  0  0  0  0  0  0  0
    1.8629    1.6068    1.2121 C   0  0  0  0  0  0  0  0  0  0  0  0
    0.5060    2.0055    0.9363 C   0  0  0  0  0  3  0  0  0  0  0  0
    0.1595    2.8759    1.5296 H   0  0  0  0  0  0  0  0  0  0  0  0
   -1.5722    2.0919   -0.1589 C   0  0  0  0  0  0  0  0  0  0  0  0
   -1.7712    3.4826    0.0071 C   0  0  0  0  0  0  0  0  0  0  0  0
   -0.9222    4.1213    0.2887 H   0  0  0  0  0  0  0  0  0  0  0  0
   -3.0213    4.0664   -0.2250 C   0  0  0  0  0  0  0  0  0  0  0  0
   -3.1434    5.1516   -0.0908 H   0  0  0  0  0  0  0  0  0  0  0  0
   -4.1041    3.2833   -0.6556 C   0  0  0  0  0  0  0  0  0  0  0  0
   -5.0840    3.7426   -0.8511 H   0  0  0  0  0  0  0  0  0  0  0  0
   -3.9144    1.9131   -0.8792 C   0  0  0  0  0  0  0  0  0  0  0  0
   -4.7355    1.2850   -1.2546 H   0  0  0  0  0  0  0  0  0  0  0  0
   -2.6641    1.3219   -0.6379 C   0  0  0  0  0  0  0  0  0  0  0  0
   -3.1736   -1.2559    0.3764 C   0  0  0  0  0  0  0  0  0  0  0  0
   -3.7033   -0.6018    1.4986 C   0  0  0  0  0  0  0  0  0  0  0  0
   -3.6856    0.4950    1.5640 H   0  0  0  0  0  0  0  0  0  0  0  0
   -4.2496   -1.3678    2.5399 C   0  0  0  0  0  0  0  0  0  0  0  0
   -4.6666   -0.8586    3.4221 H   0  0  0  0  0  0  0  0  0  0  0  0
   -4.2564   -2.7687    2.4662 C   0  0  0  0  0  0  0  0  0  0  0  0
   -4.6823   -3.3624    3.2887 H   0  0  0  0  0  0  0  0  0  0  0  0
   -3.7094   -3.4110    1.3432 C   0  0  0  0  0  0  0  0  0  0  0  0
   -3.6978   -4.5097    1.2840 H   0  0  0  0  0  0  0  0  0  0  0  0
   -3.1664   -2.6606    0.2930 C   0  0  0  0  0  0  0  0  0  0  0  0
   -2.7090   -3.1577   -0.5761 H   0  0  0  0  0  0  0  0  0  0  0  0
    4.6682   -0.7493   -0.1434 C   0  0  0  0  0  0  0  0  0  0  0  0
    3.9797   -2.1236    0.0458 C   0  0  0  0  0  0  0  0  0  0  0  0
    3.9658   -2.4127    1.1161 H   0  0  0  0  0  0  0  0  0  0  0  0
    4.5425   -2.9003   -0.5116 H   0  0  0  0  0  0  0  0  0  0  0  0
    2.9390   -2.1306   -0.3250 H   0  0  0  0  0  0  0  0  0  0  0  0
    4.6602   -0.3483   -1.6384 C   0  0  0  0  0  0  0  0  0  0  0  0
    5.2002   -1.1134   -2.2328 H   0  0  0  0  0  0  0  0  0  0  0  0
    5.1727    0.6240   -1.7876 H   0  0  0  0  0  0  0  0  0  0  0  0
    3.6334   -0.2665   -2.0387 H   0  0  0  0  0  0  0  0  0  0  0  0
    6.1358   -0.8915    0.3001 C   0  0  0  0  0  0  0  0  0  0  0  0
    6.2238   -1.2210    1.3555 H   0  0  0  0  0  0  0  0  0  0  0  0
    6.7030    0.0540    0.1798 H   0  0  0  0  0  0  0  0  0  0  0  0
    6.6329   -1.6581   -0.3267 H   0  0  0  0  0  0  0  0  0  0  0  0
  1 24  1  0  0  0  0
  1 25  1  0  0  0  0
  2 13  1  0  0  0  0
  3  4  1  0  0  0  0
  4  5  2  0  0  0  0
  4 12  1  0  0  0  0
  5  6  1  0  0  0  0
  6  7  1  0  0  0  0
  6  8  2  0  0  0  0
  8  9  1  0  0  0  0
 10  8  1  0  0  0  0
 10 11  1  0  0  0  0
 12 10  2  0  0  0  0
 13 12  1  0  0  0  0
 13 14  1  0  0  0  0
 15 16  1  0  0  0  0
 15  2  1  0  0  0  0
 16 17  1  0  0  0  0
 18 19  1  0  0  0  0
 18 16  2  0  0  0  0
 20 18  1  0  0  0  0
 21 20  1  0  0  0  0
 22 20  2  0  0  0  0
 22 24  1  0  0  0  0
 23 22  1  0  0  0  0
 24 15  2  0  0  0  0
 25 26  1  0  0  0  0
 26 27  1  0  0  0  0
 26 28  2  0  0  0  0
 28 29  1  0  0  0  0
 30 28  1  0  0  0  0
 30 31  1  0  0  0  0
 32 30  2  0  0  0  0
 33 32  1  0  0  0  0
 34 25  2  0  0  0  0
 34 32  1  0  0  0  0
 35 34  1  0  0  0  0
 36 37  1  0  0  0  0
 36 45  1  0  0  0  0
 36  5  1  0  0  0  0
 37 38  1  0  0  0  0
 39 37  1  0  0  0  0
 40 37  1  0  0  0  0
 41 36  1  0  0  0  0
 42 41  1  0  0  0  0
 43 41  1  0  0  0  0
 44 41  1  0  0  0  0
 45 46  1  0  0  0  0
 47 45  1  0  0  0  0
 48 45  1  0  0  0  0
M  CHG  1   3  -1
M  END
