1,2,3
 OpenBabel05122313063D

 35 36  0  0  1  0  0  0  0  0999 V2000
    0.5499   -0.1000   -0.8721 S   0  0  0  0  0  0  0  0  0  0  0  0
   -0.8106    0.2618    1.7370 O   0  5  0  0  0  0  0  0  0  0  0  0
   -2.2375    1.4900   -0.4412 N   0  0  0  0  0  2  0  0  0  0  0  0
   -3.4991    1.9053   -0.5864 C   0  0  0  0  0  3  0  0  0  0  0  0
   -4.3870    1.2654   -0.5669 H   0  0  0  0  0  0  0  0  0  0  0  0
   -3.5293    3.2521   -0.7412 N   0  0  0  0  0  0  0  0  0  0  0  0
   -2.2342    3.7248   -0.6890 C   0  0  0  0  0  0  0  0  0  0  0  0
   -1.9902    4.7867   -0.7843 H   0  0  0  0  0  0  0  0  0  0  0  0
   -1.4242    2.6146   -0.5044 C   0  0  0  0  0  0  0  0  0  0  0  0
    0.0777    2.6045   -0.4267 C   0  0  0  0  0  0  0  0  0  0  0  0
    0.3975    3.4808    0.1743 H   0  0  0  0  0  0  0  0  0  0  0  0
    0.5031    2.7492   -1.4442 H   0  0  0  0  0  0  0  0  0  0  0  0
    0.7293    1.3775    0.2178 C   0  0  1  0  0  0  0  0  0  0  0  0
    1.8163    1.5727    0.2960 H   0  0  0  0  0  0  0  0  0  0  0  0
    0.1815    1.0999    1.6513 C   0  0  0  0  0  0  0  0  0  0  0  0
    0.7121    1.7029    2.5811 O   0  0  0  0  0  0  0  0  0  0  0  0
    1.6748   -1.2583    0.0761 C   0  0  0  0  0  0  0  0  0  0  0  0
    1.2521   -1.3291    1.0966 H   0  0  0  0  0  0  0  0  0  0  0  0
    1.5286   -2.2291   -0.4352 H   0  0  0  0  0  0  0  0  0  0  0  0
    3.1013   -0.8051    0.0723 C   0  0  0  0  0  0  0  0  0  0  0  0
    3.6218   -0.0515    1.1516 C   0  0  0  0  0  0  0  0  0  0  0  0
    2.9733    0.1999    2.0063 H   0  0  0  0  0  0  0  0  0  0  0  0
    4.9455    0.3911    1.1440 C   0  0  0  0  0  0  0  0  0  0  0  0
    5.3571    0.9739    1.9803 H   0  0  0  0  0  0  0  0  0  0  0  0
    5.7905    0.0938    0.0521 C   0  0  0  0  0  0  0  0  0  0  0  0
    5.2839   -0.6530   -1.0336 C   0  0  0  0  0  0  0  0  0  0  0  0
    5.9186   -0.9021   -1.8943 H   0  0  0  0  0  0  0  0  0  0  0  0
    3.9519   -1.0890   -1.0126 C   0  0  0  0  0  0  0  0  0  0  0  0
    3.5656   -1.6693   -1.8656 H   0  0  0  0  0  0  0  0  0  0  0  0
    7.0632    0.5634    0.1360 O   0  0  0  0  0  0  0  0  0  0  0  0
    7.9563    0.2881   -0.9267 C   0  0  0  0  0  0  0  0  0  0  0  0
    8.9212    0.7538   -0.6533 H   0  0  0  0  0  0  0  0  0  0  0  0
    7.6046    0.7243   -1.8887 H   0  0  0  0  0  0  0  0  0  0  0  0
    8.1101   -0.8055   -1.0670 H   0  0  0  0  0  0  0  0  0  0  0  0
   -4.3723    3.8155   -0.8553 H   0  0  0  0  0  0  0  0  0  0  0  0
  1 17  1  0  0  0  0
  1 13  1  0  0  0  0
  4  5  1  0  0  0  0
  4  3  1  0  0  0  0
  6  7  1  0  0  0  0
  6  4  1  0  0  0  0
  7  9  2  0  0  0  0
  8  7  1  0  0  0  0
  9  3  1  0  0  0  0
  9 10  1  0  0  0  0
 10 11  1  0  0  0  0
 10 13  1  0  0  0  0
 12 10  1  0  0  0  0
 13 14  1  1  0  0  0
 13 15  1  0  0  0  0
 15  2  1  0  0  0  0
 15 16  2  0  0  0  0
 17 18  1  0  0  0  0
 19 17  1  0  0  0  0
 20 17  1  0  0  0  0
 20 21  1  0  0  0  0
 21 22  1  0  0  0  0
 23 21  2  0  0  0  0
 23 24  1  0  0  0  0
 25 30  1  0  0  0  0
 25 23  1  0  0  0  0
 26 28  1  0  0  0  0
 26 25  2  0  0  0  0
 27 26  1  0  0  0  0
 28 20  2  0  0  0  0
 29 28  1  0  0  0  0
 31 32  1  0  0  0  0
 31 30  1  0  0  0  0
 33 31  1  0  0  0  0
 34 31  1  0  0  0  0
 35  6  1  0  0  0  0
M  CHG  1   2  -1
M  END
