1,2,5
 OpenBabel05122313063D

 37 38  0  0  1  0  0  0  0  0999 V2000
    0.7117    1.4278    1.5180 S   0  0  0  0  0  1  0  0  0  0  0  0
   -0.7007   -1.1377   -1.4129 O   0  5  0  0  0  0  0  0  0  0  0  0
    3.3935   -5.6041   -2.4336 O   0  0  0  0  0  0  0  0  0  0  0  0
    3.0366   -6.2905   -1.8406 H   0  0  0  0  0  0  0  0  0  0  0  0
    1.7370   -0.7899    0.0334 N   0  0  0  0  0  2  0  0  0  0  0  0
   -0.3178   -4.1086   -3.2972 N   0  0  0  0  0  0  0  0  0  0  0  0
   -0.8826   -4.6575   -3.9534 H   0  0  0  0  0  0  0  0  0  0  0  0
    2.7112   -0.2494    0.7770 N   0  0  0  0  0  0  0  0  0  0  0  0
    3.2411    1.4317    2.3180 N   0  0  0  0  0  0  0  0  0  0  0  0
    2.8367    2.2095    2.8448 H   0  0  0  0  0  0  0  0  0  0  0  0
   -0.1191   -2.1953   -1.8604 C   0  0  0  0  0  0  0  0  0  0  0  0
   -0.8795   -2.9948   -2.7733 C   0  0  1  0  0  3  0  0  0  0  0  0
   -2.2686   -2.6031   -3.1420 C   0  0  0  0  0  0  0  0  0  0  0  0
   -2.7485   -3.3352   -3.8196 H   0  0  0  0  0  0  0  0  0  0  0  0
   -2.2708   -1.6048   -3.6267 H   0  0  0  0  0  0  0  0  0  0  0  0
   -2.8848   -2.4924   -2.2260 H   0  0  0  0  0  0  0  0  0  0  0  0
    0.9404   -4.5438   -3.0079 C   0  0  0  0  0  0  0  0  0  0  0  0
    1.3005   -5.4552   -3.4997 H   0  0  0  0  0  0  0  0  0  0  0  0
    1.7291   -3.8250   -2.1245 C   0  0  0  0  0  0  0  0  0  0  0  0
    3.1328   -4.3484   -1.8489 C   0  0  0  0  0  0  0  0  0  0  0  0
    3.8679   -3.6334   -2.2812 H   0  0  0  0  0  0  0  0  0  0  0  0
    3.3176   -4.3500   -0.7493 H   0  0  0  0  0  0  0  0  0  0  0  0
    1.2263   -2.6227   -1.5301 C   0  0  0  0  0  0  0  0  0  0  0  0
    2.0766   -1.8708   -0.6573 C   0  0  0  0  0  3  0  0  0  0  0  0
    3.1201   -2.1919   -0.5121 H   0  0  0  0  0  0  0  0  0  0  0  0
    2.3419    0.8007    1.5095 C   0  0  0  0  0  0  0  0  0  0  0  0
    4.6085    1.2119    2.5766 C   0  0  0  0  0  0  0  0  0  0  0  0
    5.3801    0.2038    1.9597 C   0  0  0  0  0  0  0  0  0  0  0  0
    4.9045   -0.4655    1.2350 H   0  0  0  0  0  0  0  0  0  0  0  0
    6.7367    0.0783    2.2895 C   0  0  0  0  0  0  0  0  0  0  0  0
    7.3309   -0.7111    1.8045 H   0  0  0  0  0  0  0  0  0  0  0  0
    7.3423    0.9356    3.2209 C   0  0  0  0  0  0  0  0  0  0  0  0
    8.4076    0.8242    3.4701 H   0  0  0  0  0  0  0  0  0  0  0  0
    6.5719    1.9376    3.8331 C   0  0  0  0  0  0  0  0  0  0  0  0
    7.0278    2.6186    4.5670 H   0  0  0  0  0  0  0  0  0  0  0  0
    5.2174    2.0769    3.5157 C   0  0  0  0  0  0  0  0  0  0  0  0
    4.6170    2.8638    4.0007 H   0  0  0  0  0  0  0  0  0  0  0  0
  3 20  1  0  0  0  0
  3  4  1  0  0  0  0
  5  8  1  0  0  0  0
  6 17  1  0  0  0  0
  6 12  1  0  0  0  0
  7  6  1  0  0  0  0
  8 26  2  0  0  0  0
  9 27  1  0  0  0  0
  9 10  1  0  0  0  0
 11 23  2  0  0  0  0
 11  2  1  0  0  0  0
 12 13  1  6  0  0  0
 12 11  1  0  0  0  0
 13 16  1  0  0  0  0
 14 13  1  0  0  0  0
 15 13  1  0  0  0  0
 17 19  2  0  0  0  0
 18 17  1  0  0  0  0
 19 20  1  0  0  0  0
 19 23  1  0  0  0  0
 20 22  1  0  0  0  0
 21 20  1  0  0  0  0
 23 24  1  0  0  0  0
 24 25  1  0  0  0  0
 24  5  1  0  0  0  0
 26  1  1  0  0  0  0
 26  9  1  0  0  0  0
 27 36  1  0  0  0  0
 28 30  1  0  0  0  0
 28 27  2  0  0  0  0
 29 28  1  0  0  0  0
 30 32  2  0  0  0  0
 31 30  1  0  0  0  0
 32 33  1  0  0  0  0
 32 34  1  0  0  0  0
 34 35  1  0  0  0  0
 36 34  2  0  0  0  0
 36 37  1  0  0  0  0
M  CHG  1   2  -1
M  END
