1,2,6
 OpenBabel05122313063D

 15 14  0  0  1  0  0  0  0  0999 V2000
   -0.5058   -0.8457   -2.1077 S   0  0  0  0  0  1  0  0  0  0  0  0
    0.1168    0.6557    1.7415 O   0  5  0  0  0  0  0  0  0  0  0  0
   -1.2213    1.3523    3.4136 O   0  0  0  0  0  0  0  0  0  0  0  0
   -3.0692   -1.1269   -2.8200 N   0  0  0  0  0  0  0  0  0  0  0  0
   -2.7817   -0.3130   -0.6909 N   0  0  0  0  0  0  0  0  0  0  0  0
   -1.8745    0.0380    0.2376 N   0  0  0  0  0  2  0  0  0  0  0  0
   -2.2292   -0.7322   -1.8252 C   0  0  0  0  0  0  0  0  0  0  0  0
   -2.2269    0.5440    1.3941 C   0  0  1  0  0  3  0  0  0  0  0  0
   -1.0602    0.8954    2.2845 C   0  0  0  0  0  0  0  0  0  0  0  0
   -3.6349    0.7737    1.8075 C   0  0  0  0  0  0  0  0  0  0  0  0
   -2.6973   -1.2619   -3.7574 H   0  0  0  0  0  0  0  0  0  0  0  0
   -4.0612   -0.9147   -2.7117 H   0  0  0  0  0  0  0  0  0  0  0  0
   -3.6355    1.1647    2.8420 H   0  0  0  0  0  0  0  0  0  0  0  0
   -4.2268   -0.1630    1.7467 H   0  0  0  0  0  0  0  0  0  0  0  0
   -4.1270    1.5015    1.1283 H   0  0  0  0  0  0  0  0  0  0  0  0
  1  7  1  0  0  0  0
  2  9  1  0  0  0  0
  4 12  1  0  0  0  0
  4  7  1  0  0  0  0
  5  6  1  0  0  0  0
  7  5  2  0  0  0  0
  8  6  1  6  0  0  0
  8 10  1  0  0  0  0
  8  9  1  0  0  0  0
  9  3  2  0  0  0  0
 10 13  1  0  0  0  0
 11  4  1  0  0  0  0
 14 10  1  0  0  0  0
 15 10  1  0  0  0  0
M  CHG  1   2  -1
M  END
