4,8,9
 OpenBabel05122313063D

 36 37  0  0  1  0  0  0  0  0999 V2000
   -3.8623   -2.2341   -0.0194 N   0  0  0  0  0  0  0  0  0  0  0  0
   -3.5417   -3.2031   -0.0581 H   0  0  0  0  0  0  0  0  0  0  0  0
   -3.0638   -0.0280    0.0421 N   0  0  0  0  0  0  0  0  0  0  0  0
   -1.9477    0.7503    0.0436 N   0  0  0  0  0  2  0  0  0  0  0  0
    0.6600    5.2852    0.0422 N   0  0  0  0  0  0  0  0  0  0  0  0
   -3.3751    6.2004   -0.0975 O   0  0  0  0  0  0  0  0  0  0  0  0
   -2.9930    6.4465   -0.9610 H   0  0  0  0  0  0  0  0  0  0  0  0
    0.8505    1.7244    0.0413 O   0  0  0  0  0  1  0  0  0  0  0  0
   -1.2202   -2.0548   -0.0694 S   0  0  0  0  0  1  0  0  0  0  0  0
   -5.2546   -2.0759    0.0016 C   0  0  0  0  0  0  0  0  0  0  0  0
   -6.0362   -3.2563   -0.0341 C   0  0  0  0  0  0  0  0  0  0  0  0
   -5.5341   -4.2368   -0.0773 H   0  0  0  0  0  0  0  0  0  0  0  0
   -7.4324   -3.1866   -0.0156 C   0  0  0  0  0  0  0  0  0  0  0  0
   -8.0193   -4.1173   -0.0442 H   0  0  0  0  0  0  0  0  0  0  0  0
   -8.0807   -1.9414    0.0388 C   0  0  0  0  0  0  0  0  0  0  0  0
   -9.1791   -1.8854    0.0535 H   0  0  0  0  0  0  0  0  0  0  0  0
   -7.3060   -0.7718    0.0744 C   0  0  0  0  0  0  0  0  0  0  0  0
   -7.7996    0.2114    0.1175 H   0  0  0  0  0  0  0  0  0  0  0  0
   -5.9052   -0.8227    0.0566 C   0  0  0  0  0  0  0  0  0  0  0  0
   -5.2962    0.0878    0.0845 H   0  0  0  0  0  0  0  0  0  0  0  0
   -2.8342   -1.3211   -0.0060 C   0  0  0  0  0  0  0  0  0  0  0  0
   -2.1479    2.0552    0.0695 C   0  0  0  0  0  0  0  0  0  0  0  0
   -3.2143    2.3357    0.0931 H   0  0  0  0  0  0  0  0  0  0  0  0
   -1.1683    3.1072    0.0605 C   0  0  0  0  0  0  0  0  0  0  0  0
    0.2522    2.8861    0.0426 C   0  0  2  0  0  3  0  0  0  0  0  0
    1.1234    4.0428    0.0181 C   0  0  0  0  0  0  0  0  0  0  0  0
   -0.6782    5.4911    0.0808 C   0  0  0  0  0  0  0  0  0  0  0  0
   -1.0145    6.5396    0.1269 H   0  0  0  0  0  0  0  0  0  0  0  0
   -1.6252    4.4717    0.0730 C   0  0  0  0  0  0  0  0  0  0  0  0
   -3.1036    4.8277    0.0914 C   0  0  0  0  0  0  0  0  0  0  0  0
   -3.6482    4.2003   -0.6581 H   0  0  0  0  0  0  0  0  0  0  0  0
   -3.5401    4.5632    1.0804 H   0  0  0  0  0  0  0  0  0  0  0  0
    2.6083    3.8146   -0.0410 C   0  0  0  0  0  0  0  0  0  0  0  0
    3.1241    4.7914   -0.0678 H   0  0  0  0  0  0  0  0  0  0  0  0
    2.8877    3.2156   -0.9332 H   0  0  0  0  0  0  0  0  0  0  0  0
    2.9635    3.2316    0.8349 H   0  0  0  0  0  0  0  0  0  0  0  0
  1 21  1  0  0  0  0
  1 10  1  0  0  0  0
  2  1  1  0  0  0  0
  3  4  1  0  0  0  0
  4 22  1  0  0  0  0
  5 27  1  0  0  0  0
  6 30  1  0  0  0  0
  7  6  1  0  0  0  0
  9 21  1  0  0  0  0
 10 19  1  0  0  0  0
 11 13  1  0  0  0  0
 11 10  2  0  0  0  0
 12 11  1  0  0  0  0
 13 15  2  0  0  0  0
 14 13  1  0  0  0  0
 15 16  1  0  0  0  0
 15 17  1  0  0  0  0
 17 18  1  0  0  0  0
 19 17  2  0  0  0  0
 19 20  1  0  0  0  0
 21  3  2  0  0  0  0
 22 23  1  0  0  0  0
 24 22  2  0  0  0  0
 24 29  1  0  0  0  0
 25  8  1  6  0  0  0
 25 24  1  0  0  0  0
 26  5  2  0  0  0  0
 26 25  1  0  0  0  0
 27 28  1  0  0  0  0
 29 27  2  0  0  0  0
 29 30  1  0  0  0  0
 30 32  1  0  0  0  0
 31 30  1  0  0  0  0
 33 26  1  0  0  0  0
 33 36  1  0  0  0  0
 34 33  1  0  0  0  0
 35 33  1  0  0  0  0
M  END
