2,4,7
q = -1.0, confidence = 0.05

 39 40  0  0  0  0  0  0  0  0999 V2000
    3.0598   -1.2181   -0.0575 S   0  0  0  0  0  0  0  0  0  0  0  0
    0.5500   -2.7550   -0.0231 S   0  0  0  0  0  1  0  0  0  0  0  0
    0.6977   -0.0203   -0.0507 N   0  0  0  0  0  0  0  0  0  0  0  0
   -0.6365   -0.0828   -0.0502 N   0  0  0  0  0  2  0  0  0  0  0  0
   -5.3965    1.7101   -0.1787 N   0  0  0  0  0  0  0  0  0  0  0  0
   -6.4066    1.8683   -0.2385 H   0  0  0  0  0  0  0  0  0  0  0  0
   -3.1505   -0.9972   -0.6434 O   0  5  0  0  0  0  0  0  0  0  0  0
   -1.3764    4.1329   -0.1789 O   0  0  0  0  0  0  0  0  0  0  0  0
   -1.8062    4.2587   -1.0454 H   0  0  0  0  0  0  0  0  0  0  0  0
    5.6479    0.8122    1.1087 C   0  0  0  0  0  0  0  0  0  0  0  0
    5.0735    0.7848    2.0480 H   0  0  0  0  0  0  0  0  0  0  0  0
    7.0449    0.9265    1.1423 C   0  0  0  0  0  0  0  0  0  0  0  0
    7.5652    0.9940    2.1099 H   0  0  0  0  0  0  0  0  0  0  0  0
    7.7783    0.9550   -0.0548 C   0  0  0  0  0  0  0  0  0  0  0  0
    8.8749    1.0453   -0.0289 H   0  0  0  0  0  0  0  0  0  0  0  0
    7.1072    0.8672   -1.2848 C   0  0  0  0  0  0  0  0  0  0  0  0
    7.6762    0.8878   -2.2268 H   0  0  0  0  0  0  0  0  0  0  0  0
    5.7098    0.7526   -1.3167 C   0  0  0  0  0  0  0  0  0  0  0  0
    5.1842    0.6795   -2.2819 H   0  0  0  0  0  0  0  0  0  0  0  0
    4.9633    0.7312   -0.1212 C   0  0  0  0  0  0  0  0  0  0  0  0
    3.4664    0.5844   -0.1546 C   0  0  0  0  0  0  0  0  0  0  0  0
    2.9688    1.0819    0.6990 H   0  0  0  0  0  0  0  0  0  0  0  0
    3.0231    0.9815   -1.0872 H   0  0  0  0  0  0  0  0  0  0  0  0
    1.3062   -1.2123   -0.0372 C   0  0  0  0  0  0  0  0  0  0  0  0
   -1.2320    1.0987    0.0386 C   0  0  0  0  0  3  0  0  0  0  0  0
   -0.5839    1.9884    0.1210 H   0  0  0  0  0  0  0  0  0  0  0  0
   -2.6517    1.2831    0.0016 C   0  0  0  0  0  0  0  0  0  0  0  0
   -3.2218    2.5686    0.2932 C   0  0  0  0  0  0  0  0  0  0  0  0
   -4.5933    2.7482    0.1907 C   0  0  0  0  0  3  0  0  0  0  0  0
   -5.0909    3.7020    0.4106 H   0  0  0  0  0  0  0  0  0  0  0  0
   -4.9394    0.4622   -0.4580 C   0  0  0  0  0  0  0  0  0  0  0  0
   -3.5401    0.2010   -0.3676 C   0  0  0  0  0  0  0  0  0  0  0  0
   -5.8850   -0.6246   -0.8357 C   0  0  0  0  0  0  0  0  0  0  0  0
   -6.9395   -0.2867   -0.8397 H   0  0  0  0  0  0  0  0  0  0  0  0
   -5.7715   -1.4786   -0.1363 H   0  0  0  0  0  0  0  0  0  0  0  0
   -5.6250   -1.0281   -1.8361 H   0  0  0  0  0  0  0  0  0  0  0  0
   -2.3764    3.7434    0.7460 C   0  0  0  0  0  0  0  0  0  0  0  0
   -3.0539    4.5914    1.0105 H   0  0  0  0  0  0  0  0  0  0  0  0
   -1.8348    3.4672    1.6756 H   0  0  0  0  0  0  0  0  0  0  0  0
  1 24  1  0  0  0  0
  3  4  1  0  0  0  0
  3 24  2  0  0  0  0
  4 25  1  0  0  0  0
  5 29  1  0  0  0  0
  6  5  1  0  0  0  0
  7 32  1  0  0  0  0
  8 37  1  0  0  0  0
  9  8  1  0  0  0  0
 10 12  1  0  0  0  0
 10 11  1  0  0  0  0
 12 13  1  0  0  0  0
 14 15  1  0  0  0  0
 14 12  2  0  0  0  0
 16 14  1  0  0  0  0
 17 16  1  0  0  0  0
 18 16  2  0  0  0  0
 18 20  1  0  0  0  0
 19 18  1  0  0  0  0
 20 10  2  0  0  0  0
 21 20  1  0  0  0  0
 21  1  1  0  0  0  0
 21 22  1  0  0  0  0
 23 21  1  0  0  0  0
 24  2  1  0  0  0  0
 25 26  1  0  0  0  0
 27 25  1  0  0  0  0
 27 28  2  0  0  0  0
 28 37  1  0  0  0  0
 29 28  1  0  0  0  0
 29 30  1  0  0  0  0
 31 32  2  0  0  0  0
 31  5  1  0  0  0  0
 32 27  1  0  0  0  0
 33 31  1  0  0  0  0
 33 35  1  0  0  0  0
 34 33  1  0  0  0  0
 36 33  1  0  0  0  0
 37 38  1  0  0  0  0
 37 39  1  0  0  0  0
M  CHG  1   7  -1
M  END
