1,2,3
q = -1.0, confidence = 0.006

 23 23  0  0  0  0  0  0  0  0999 V2000
   -0.0144   -1.1225    1.8789 S   0  0  0  0  0  0  0  0  0  0  0  0
   -0.1361   -1.6383   -1.0747 O   0  5  0  0  0  0  0  0  0  0  0  0
    1.3053    0.6619   -0.4174 N   0  0  0  0  0  2  0  0  0  0  0  0
    1.8154    0.4230   -1.6520 C   0  0  0  0  0  3  0  0  0  0  0  0
    3.1697    0.5744   -1.9564 C   0  0  0  0  0  0  0  0  0  0  0  0
    4.0459    0.9823   -0.9428 C   0  0  0  0  0  0  0  0  0  0  0  0
    3.5242    1.2171    0.3342 C   0  0  0  0  0  0  0  0  0  0  0  0
    2.1490    1.0517    0.5786 C   0  0  0  0  0  0  0  0  0  0  0  0
    1.5826    1.2715    1.9566 C   0  0  0  0  0  0  0  0  0  0  0  0
    1.2037   -0.0100    2.7121 C   0  0  0  0  0  0  0  0  0  0  0  0
    1.0552   -2.3066    0.9542 C   0  0  0  0  0  0  0  0  0  0  0  0
    0.6890   -2.5002   -0.5468 C   0  0  0  0  0  0  0  0  0  0  0  0
    1.2332   -3.4297   -1.1256 O   0  0  0  0  0  0  0  0  0  0  0  0
    1.0987    0.0706   -2.4065 H   0  0  0  0  0  0  0  0  0  0  0  0
    3.5205    0.3667   -2.9766 H   0  0  0  0  0  0  0  0  0  0  0  0
    5.1201    1.1124   -1.1417 H   0  0  0  0  0  0  0  0  0  0  0  0
    4.1774    1.5327    1.1606 H   0  0  0  0  0  0  0  0  0  0  0  0
    0.6955    1.9303    1.8882 H   0  0  0  0  0  0  0  0  0  0  0  0
    2.3335    1.8094    2.5706 H   0  0  0  0  0  0  0  0  0  0  0  0
    2.0911   -0.6345    2.9382 H   0  0  0  0  0  0  0  0  0  0  0  0
    0.7275    0.2526    3.6773 H   0  0  0  0  0  0  0  0  0  0  0  0
    2.0999   -1.9402    1.0040 H   0  0  0  0  0  0  0  0  0  0  0  0
    1.0107   -3.2879    1.4627 H   0  0  0  0  0  0  0  0  0  0  0  0
  1 10  1  0  0  0  0
  2 12  1  0  0  0  0
  3  8  1  0  0  0  0
  4  3  1  0  0  0  0
  5  4  1  0  0  0  0
  5  6  2  0  0  0  0
  6  7  1  0  0  0  0
  7  8  2  0  0  0  0
  7 17  1  0  0  0  0
  8  9  1  0  0  0  0
  9 19  1  0  0  0  0
  9 10  1  0  0  0  0
 10 20  1  0  0  0  0
 10 21  1  0  0  0  0
 11 22  1  0  0  0  0
 11 23  1  0  0  0  0
 11  1  1  0  0  0  0
 12 11  1  0  0  0  0
 13 12  2  0  0  0  0
 14  4  1  0  0  0  0
 15  5  1  0  0  0  0
 16  6  1  0  0  0  0
 18  9  1  0  0  0  0
M  CHG  1   2  -1
M  END
