1,3,4
q = -2.0, confidence = 0.922

 39 40  0  0  1  0  0  0  0  0999 V2000
   -1.5835   -1.2051    0.1378 S   0  0  0  0  0  1  0  0  0  0  0  0
   -4.4770   -0.5475    0.0615 S   0  0  0  0  0  0  0  0  0  0  0  0
    1.7138    1.5865    0.0029 O   0  0  0  0  0  1  0  0  0  0  0  0
   -1.2566    1.6885   -0.0384 N   0  0  0  0  0  2  0  0  0  0  0  0
   -2.5749    1.3315   -0.0282 N   0  0  0  0  0  0  0  0  0  0  0  0
    2.8174    3.6532    0.0331 C   0  0  0  0  0  0  0  0  0  0  0  0
    3.9377    3.0744    0.6702 C   0  0  0  0  0  0  0  0  0  0  0  0
    3.8367    2.0677    1.0984 H   0  0  0  0  0  0  0  0  0  0  0  0
    5.1494    3.7712    0.7556 C   0  0  0  0  0  0  0  0  0  0  0  0
    6.0087    3.3048    1.2619 H   0  0  0  0  0  0  0  0  0  0  0  0
    5.2697    5.0541    0.1968 C   0  0  0  0  0  0  0  0  0  0  0  0
    6.2232    5.6005    0.2600 H   0  0  0  0  0  0  0  0  0  0  0  0
    4.1655    5.6344   -0.4495 C   0  0  0  0  0  0  0  0  0  0  0  0
    4.2544    6.6333   -0.9034 H   0  0  0  0  0  0  0  0  0  0  0  0
    2.9498    4.9419   -0.5297 C   0  0  0  0  0  0  0  0  0  0  0  0
    2.1003    5.3951   -1.0618 H   0  0  0  0  0  0  0  0  0  0  0  0
    1.5447    2.8712   -0.0333 C   0  0  2  0  0  3  0  0  0  0  0  0
    0.3140    3.5461   -0.0908 C   0  0  0  0  0  0  0  0  0  0  0  0
    0.3608    4.6419   -0.0863 H   0  0  0  0  0  0  0  0  0  0  0  0
   -0.9962    3.0039   -0.0961 C   0  0  0  0  0  0  0  0  0  0  0  0
   -2.1673    3.9531   -0.1536 C   0  0  0  0  0  0  0  0  0  0  0  0
   -2.8006    3.7335   -1.0364 H   0  0  0  0  0  0  0  0  0  0  0  0
   -1.8228    5.0020   -0.1983 H   0  0  0  0  0  0  0  0  0  0  0  0
   -2.8232    3.8154    0.7292 H   0  0  0  0  0  0  0  0  0  0  0  0
   -6.8836    0.7337    0.0187 C   0  0  0  0  0  0  0  0  0  0  0  0
   -7.5732    0.5292   -1.1938 C   0  0  0  0  0  0  0  0  0  0  0  0
   -7.0256    0.6170   -2.1453 H   0  0  0  0  0  0  0  0  0  0  0  0
   -8.9406    0.2182   -1.1951 C   0  0  0  0  0  0  0  0  0  0  0  0
   -9.4668    0.0672   -2.1501 H   0  0  0  0  0  0  0  0  0  0  0  0
   -9.6369    0.1002    0.0185 C   0  0  0  0  0  0  0  0  0  0  0  0
  -10.7105   -0.1426    0.0183 H   0  0  0  0  0  0  0  0  0  0  0  0
   -8.9581    0.2933    1.2323 C   0  0  0  0  0  0  0  0  0  0  0  0
   -9.4979    0.2012    2.1871 H   0  0  0  0  0  0  0  0  0  0  0  0
   -7.5906    0.6041    1.2314 C   0  0  0  0  0  0  0  0  0  0  0  0
   -7.0567    0.7507    2.1835 H   0  0  0  0  0  0  0  0  0  0  0  0
   -5.4115    1.0423    0.0191 C   0  0  0  0  0  0  0  0  0  0  0  0
   -5.1036    1.6362    0.9017 H   0  0  0  0  0  0  0  0  0  0  0  0
   -5.0932    1.5919   -0.8879 H   0  0  0  0  0  0  0  0  0  0  0  0
   -2.8166    0.0546    0.0405 C   0  0  0  0  0  0  0  0  0  0  0  0
  4  5  1  0  0  0  0
  5 39  2  0  0  0  0
  6  7  1  0  0  0  0
  7  9  2  0  0  0  0
  7  8  1  0  0  0  0
  9 10  1  0  0  0  0
 11 12  1  0  0  0  0
 11  9  1  0  0  0  0
 13 11  2  0  0  0  0
 14 13  1  0  0  0  0
 15 13  1  0  0  0  0
 15  6  2  0  0  0  0
 16 15  1  0  0  0  0
 17  3  1  1  0  0  0
 17  6  1  0  0  0  0
 18 19  1  0  0  0  0
 18 17  1  0  0  0  0
 20 18  2  0  0  0  0
 20  4  1  0  0  0  0
 21 20  1  0  0  0  0
 21 24  1  0  0  0  0
 22 21  1  0  0  0  0
 23 21  1  0  0  0  0
 25 36  1  0  0  0  0
 25 34  1  0  0  0  0
 26 25  2  0  0  0  0
 27 26  1  0  0  0  0
 28 26  1  0  0  0  0
 28 30  2  0  0  0  0
 29 28  1  0  0  0  0
 30 32  1  0  0  0  0
 31 30  1  0  0  0  0
 32 33  1  0  0  0  0
 34 32  2  0  0  0  0
 34 35  1  0  0  0  0
 36  2  1  0  0  0  0
 36 37  1  0  0  0  0
 38 36  1  0  0  0  0
 39  2  1  0  0  0  0
 39  1  1  0  0  0  0
M  END
