1,3,4
q = -2.0, confidence = 0.776

 37 38  0  0  1  0  0  0  0  0999 V2000
   -0.9864   -0.7950   -1.8048 S   0  0  0  0  0  1  0  0  0  0  0  0
   -3.6447   -0.3193   -3.0660 S   0  0  0  0  0  0  0  0  0  0  0  0
    1.2657    2.0453    0.5301 O   0  0  0  0  0  1  0  0  0  0  0  0
   -1.2910    2.0088   -0.9507 N   0  0  0  0  0  2  0  0  0  0  0  0
   -1.3699    3.2701   -0.4933 C   0  0  0  0  0  0  0  0  0  0  0  0
   -2.3182    1.5751   -1.7430 N   0  0  0  0  0  0  0  0  0  0  0  0
   -2.2639    0.3363   -2.1514 C   0  0  0  0  0  0  0  0  0  0  0  0
   -0.3744    3.8765    0.3715 C   0  0  0  0  0  0  0  0  0  0  0  0
    0.8571    3.2528    0.8189 C   0  0  2  0  0  3  0  0  0  0  0  0
   -2.5688    4.0945   -0.9040 C   0  0  0  0  0  0  0  0  0  0  0  0
   -3.1710    3.5396   -1.6397 H   0  0  0  0  0  0  0  0  0  0  0  0
   -2.2461    5.0571   -1.3454 H   0  0  0  0  0  0  0  0  0  0  0  0
   -3.2021    4.3315   -0.0246 H   0  0  0  0  0  0  0  0  0  0  0  0
    1.7463    4.0028    1.6551 C   0  0  0  0  0  0  0  0  0  0  0  0
    2.6739    3.4925    1.9521 H   0  0  0  0  0  0  0  0  0  0  0  0
   -0.6192    5.2144    0.8307 C   0  0  0  0  0  0  0  0  0  0  0  0
   -1.5450    5.7165    0.5254 H   0  0  0  0  0  0  0  0  0  0  0  0
    0.2543    5.9109    1.6503 C   0  0  0  0  0  0  0  0  0  0  0  0
    0.0095    6.9334    1.9720 H   0  0  0  0  0  0  0  0  0  0  0  0
    1.4602    5.2939    2.0632 C   0  0  0  0  0  0  0  0  0  0  0  0
    2.1700    5.8360    2.7072 H   0  0  0  0  0  0  0  0  0  0  0  0
   -4.9728    0.0526   -1.8248 C   0  0  0  0  0  0  0  0  0  0  0  0
   -5.1117    1.1489   -1.7734 H   0  0  0  0  0  0  0  0  0  0  0  0
   -5.8823   -0.4086   -2.2600 H   0  0  0  0  0  0  0  0  0  0  0  0
   -4.6227   -0.5335   -0.4865 C   0  0  0  0  0  0  0  0  0  0  0  0
   -4.1333    0.2933    0.5468 C   0  0  0  0  0  0  0  0  0  0  0  0
   -4.0662    1.3780    0.3815 H   0  0  0  0  0  0  0  0  0  0  0  0
   -3.7106   -0.2515    1.7645 C   0  0  0  0  0  0  0  0  0  0  0  0
   -3.3147    0.3709    2.5775 H   0  0  0  0  0  0  0  0  0  0  0  0
   -3.7904   -1.6380    1.9427 C   0  0  0  0  0  0  0  0  0  0  0  0
   -4.6817   -1.9287   -0.2759 C   0  0  0  0  0  0  0  0  0  0  0  0
   -5.0363   -2.5826   -1.0871 H   0  0  0  0  0  0  0  0  0  0  0  0
   -2.9732   -1.4534    4.1086 O   0  0  0  0  0  0  0  0  0  0  0  0
   -3.3522   -2.2228    3.2276 N   0  0  0  0  0  0  0  0  0  0  0  0
   -4.2763   -2.4884    0.9373 C   0  0  0  0  0  0  0  0  0  0  0  0
   -4.3223   -3.5686    1.1273 H   0  0  0  0  0  0  0  0  0  0  0  0
   -3.3901   -3.4536    3.3353 O   0  0  0  0  0  0  0  0  0  0  0  0
  2  7  1  0  0  0  0
  2 22  1  0  0  0  0
  4  5  1  0  0  0  0
  5  8  2  0  0  0  0
  6  4  1  0  0  0  0
  7  1  1  0  0  0  0
  7  6  2  0  0  0  0
  8  9  1  0  0  0  0
  8 16  1  0  0  0  0
  9  3  1  6  0  0  0
  9 14  1  0  0  0  0
 10  5  1  0  0  0  0
 10 13  1  0  0  0  0
 11 10  1  0  0  0  0
 12 10  1  0  0  0  0
 14 15  1  0  0  0  0
 14 20  2  0  0  0  0
 16 18  2  0  0  0  0
 17 16  1  0  0  0  0
 18 19  1  0  0  0  0
 18 20  1  0  0  0  0
 20 21  1  0  0  0  0
 22 23  1  0  0  0  0
 22 25  1  0  0  0  0
 24 22  1  0  0  0  0
 25 31  2  0  0  0  0
 25 26  1  0  0  0  0
 26 28  2  0  0  0  0
 27 26  1  0  0  0  0
 28 30  1  0  0  0  0
 28 29  1  0  0  0  0
 30 34  1  0  0  0  0
 31 35  1  0  0  0  0
 32 31  1  0  0  0  0
 34 37  2  0  0  0  0
 34 33  2  0  0  0  0
 35 36  1  0  0  0  0
 35 30  2  0  0  0  0
M  END
