1,2,3
q = -1.0, confidence = 0.244

 14 13  0  0  0  0  0  0  0  0999 V2000
    0.5942    0.2362    1.8854 O   0  5  0  0  0  0  0  0  0  0  0  0
    2.3238   -0.0263    0.0242 N   0  0  0  0  0  2  0  0  0  0  0  0
    0.7339   -0.6014   -2.2705 S   0  0  0  0  0  1  0  0  0  0  0  0
    2.5786   -0.7847   -2.2837 C   0  0  0  0  0  0  0  0  0  0  0  0
    3.1605    0.0747   -1.1694 C   0  0  0  0  0  0  0  0  0  0  0  0
    2.8864    0.5087    1.2465 C   0  0  0  0  0  0  0  0  0  0  0  0
    1.7938    0.6354    2.3206 C   0  0  0  0  0  0  0  0  0  0  0  0
    2.0057    1.0679    3.4369 O   0  0  0  0  0  0  0  0  0  0  0  0
    2.9609   -0.4823   -3.2785 H   0  0  0  0  0  0  0  0  0  0  0  0
    2.8200   -1.8546   -2.1192 H   0  0  0  0  0  0  0  0  0  0  0  0
    4.1993   -0.2524   -0.9295 H   0  0  0  0  0  0  0  0  0  0  0  0
    3.2383    1.1443   -1.4955 H   0  0  0  0  0  0  0  0  0  0  0  0
    3.3496    1.5132    1.0905 H   0  0  0  0  0  0  0  0  0  0  0  0
    3.6971   -0.1399    1.6557 H   0  0  0  0  0  0  0  0  0  0  0  0
  1  7  1  0  0  0  0
  2  6  1  0  0  0  0
  4  3  1  0  0  0  0
  4 10  1  0  0  0  0
  4  5  1  0  0  0  0
  5 11  1  0  0  0  0
  5  2  1  0  0  0  0
  6 14  1  0  0  0  0
  6  7  1  0  0  0  0
  7  8  2  0  0  0  0
  9  4  1  0  0  0  0
 12  5  1  0  0  0  0
 13  6  1  0  0  0  0
M  CHG  1   1  -1
M  END
