1,2,3
q = -1.0, confidence = 0.0

 28 28  0  0  0  0  0  0  0  0999 V2000
    2.1758   -0.7447   -0.1724 S   0  0  0  0  0  1  0  0  0  0  0  0
   -2.0856    0.3421    0.0515 N   0  0  0  0  0  2  0  0  0  0  0  0
    0.3226    1.4728   -0.0905 N   0  0  0  0  0  2  0  0  0  0  0  0
    1.5714    1.9456   -0.1679 N   0  0  0  0  0  0  0  0  0  0  0  0
    3.7875    1.4084   -0.3226 N   0  0  0  0  0  0  0  0  0  0  0  0
    3.9037    2.4238   -0.2822 H   0  0  0  0  0  0  0  0  0  0  0  0
   -3.3873   -1.7555    0.1206 C   0  0  0  0  0  0  0  0  0  0  0  0
   -2.9057   -2.1863   -0.7798 H   0  0  0  0  0  0  0  0  0  0  0  0
   -4.4418   -2.0816    0.1749 H   0  0  0  0  0  0  0  0  0  0  0  0
   -2.8153   -2.1871    0.9660 H   0  0  0  0  0  0  0  0  0  0  0  0
   -3.3004   -0.2647    0.1166 C   0  0  0  0  0  0  0  0  0  0  0  0
   -4.4824    0.5069    0.1814 C   0  0  0  0  0  0  0  0  0  0  0  0
   -5.4456   -0.0188    0.2348 H   0  0  0  0  0  0  0  0  0  0  0  0
   -4.4249    1.9038    0.1781 C   0  0  0  0  0  0  0  0  0  0  0  0
   -5.3461    2.5031    0.2287 H   0  0  0  0  0  0  0  0  0  0  0  0
   -3.1761    2.5228    0.1088 C   0  0  0  0  0  0  0  0  0  0  0  0
   -3.0726    3.6167    0.1014 H   0  0  0  0  0  0  0  0  0  0  0  0
   -2.0164    1.7262    0.0460 C   0  0  0  0  0  0  0  0  0  0  0  0
   -0.7051    2.3091   -0.0292 C   0  0  0  0  0  0  0  0  0  0  0  0
   -0.5277    3.3941   -0.0417 H   0  0  0  0  0  0  0  0  0  0  0  0
    2.5059    0.9846   -0.2199 C   0  0  0  0  0  0  0  0  0  0  0  0
    4.9605    0.5499   -0.3017 C   0  0  0  0  0  0  0  0  0  0  0  0
    5.7613    1.0673   -0.8690 H   0  0  0  0  0  0  0  0  0  0  0  0
    4.7097   -0.3718   -0.8686 H   0  0  0  0  0  0  0  0  0  0  0  0
    5.4357    0.1898    1.1084 C   0  0  0  0  0  0  0  0  0  0  0  0
    5.7068    1.0961    1.6869 H   0  0  0  0  0  0  0  0  0  0  0  0
    6.3276   -0.4663    1.0572 H   0  0  0  0  0  0  0  0  0  0  0  0
    4.6395   -0.3523    1.6558 H   0  0  0  0  0  0  0  0  0  0  0  0
  2 11  1  0  0  0  0
  3 19  1  0  0  0  0
  4  3  1  0  0  0  0
  5 22  1  0  0  0  0
  5  6  1  0  0  0  0
  5 21  1  0  0  0  0
  7  9  1  0  0  0  0
  7 10  1  0  0  0  0
  8  7  1  0  0  0  0
 11  7  1  0  0  0  0
 11 12  2  0  0  0  0
 12 13  1  0  0  0  0
 14 12  1  0  0  0  0
 14 15  1  0  0  0  0
 16 14  2  0  0  0  0
 17 16  1  0  0  0  0
 18  2  1  0  0  0  0
 18 16  1  0  0  0  0
 19 18  2  0  0  0  0
 20 19  1  0  0  0  0
 21  1  1  0  0  0  0
 21  4  2  0  0  0  0
 22 25  1  0  0  0  0
 23 22  1  0  0  0  0
 24 22  1  0  0  0  0
 25 28  1  0  0  0  0
 25 26  1  0  0  0  0
 27 25  1  0  0  0  0
M  END
