1,2,3
q = -1.0

 28 28  0  0  1  0  0  0  0  0999 V2000
    1.9147   -1.8154   -0.0687 S   0  0  0  0  0  1  0  0  0  0  0  0
   -1.9896    0.2891    0.0081 N   0  0  0  0  0  2  0  0  0  0  0  0
    0.6139    0.7475   -0.1787 N   0  0  0  0  0  2  0  0  0  0  0  0
    1.9279    0.9225   -0.2647 N   0  0  0  0  0  0  0  0  0  0  0  0
    3.9629   -0.1421   -0.3305 N   0  0  0  0  0  0  0  0  0  0  0  0
    4.4778   -1.0182   -0.2333 H   0  0  0  0  0  0  0  0  0  0  0  0
   -3.6914   -1.4640    0.2352 C   0  0  0  0  0  0  0  0  0  0  0  0
   -3.2957   -2.0349   -0.6304 H   0  0  0  0  0  0  0  0  0  0  0  0
   -4.7875   -1.5795    0.3083 H   0  0  0  0  0  0  0  0  0  0  0  0
   -3.1920   -1.9088    1.1208 H   0  0  0  0  0  0  0  0  0  0  0  0
   -3.3043   -0.0254    0.1082 C   0  0  2  0  0  3  0  0  0  0  0  0
   -4.2758    1.0001    0.0902 C   0  0  0  0  0  0  0  0  0  0  0  0
   -5.3367    0.7269    0.1725 H   0  0  0  0  0  0  0  0  0  0  0  0
   -3.8834    2.3383   -0.0310 C   0  0  0  0  0  0  0  0  0  0  0  0
   -4.6379    3.1393   -0.0455 H   0  0  0  0  0  0  0  0  0  0  0  0
   -2.5244    2.6465   -0.1338 C   0  0  0  0  0  0  0  0  0  0  0  0
   -2.1712    3.6826   -0.2310 H   0  0  0  0  0  0  0  0  0  0  0  0
   -1.5909    1.5911   -0.1111 C   0  0  0  0  0  0  0  0  0  0  0  0
   -0.1672    1.8057   -0.2110 C   0  0  0  0  0  3  0  0  0  0  0  0
    0.2644    2.8159   -0.3116 H   0  0  0  0  0  0  0  0  0  0  0  0
    2.6149   -0.2354   -0.2276 C   0  0  0  0  0  0  0  0  0  0  0  0
    4.6997    1.1152   -0.3805 C   0  0  0  0  0  0  0  0  0  0  0  0
    4.1235    1.8125   -1.0194 H   0  0  0  0  0  0  0  0  0  0  0  0
    5.6638    0.9115   -0.8902 H   0  0  0  0  0  0  0  0  0  0  0  0
    4.9309    1.7397    0.9969 C   0  0  0  0  0  0  0  0  0  0  0  0
    3.9592    1.9750    1.4738 H   0  0  0  0  0  0  0  0  0  0  0  0
    5.5091    2.6810    0.9026 H   0  0  0  0  0  0  0  0  0  0  0  0
    5.4931    1.0559    1.6646 H   0  0  0  0  0  0  0  0  0  0  0  0
  2 11  1  0  0  0  0
  4 21  2  0  0  0  0
  4  3  1  0  0  0  0
  5  6  1  0  0  0  0
  5 21  1  0  0  0  0
  7  9  1  0  0  0  0
  7 10  1  0  0  0  0
  8  7  1  0  0  0  0
 11  7  1  6  0  0  0
 12 11  1  0  0  0  0
 12 13  1  0  0  0  0
 14 12  2  0  0  0  0
 15 14  1  0  0  0  0
 16 18  2  0  0  0  0
 16 14  1  0  0  0  0
 17 16  1  0  0  0  0
 18  2  1  0  0  0  0
 19  3  1  0  0  0  0
 19 18  1  0  0  0  0
 20 19  1  0  0  0  0
 21  1  1  0  0  0  0
 22  5  1  0  0  0  0
 22 25  1  0  0  0  0
 23 22  1  0  0  0  0
 24 22  1  0  0  0  0
 25 26  1  0  0  0  0
 25 28  1  0  0  0  0
 27 25  1  0  0  0  0
M  END
