1,7,8
q = -2.0, confidence = 0.968

 52 55  0  0  0  0  0  0  0  0999 V2000
    2.2809   -0.7981   -0.5913 S   0  0  0  0  0  1  0  0  0  0  0  0
   -2.2112    1.0130   -2.3594 S   0  0  0  0  0  0  0  0  0  0  0  0
   -2.9473    2.0865   -3.0698 O   0  0  0  0  0  0  0  0  0  0  0  0
   -1.5148   -0.0236   -3.1664 O   0  0  0  0  0  0  0  0  0  0  0  0
    4.8016   -0.0179    0.1713 N   0  0  0  0  0  0  0  0  0  0  0  0
    5.5686    1.0540    0.5644 N   0  0  0  0  0  0  0  0  0  0  0  0
    1.0262    2.2719    0.1323 N   0  0  0  0  0  2  0  0  0  0  0  0
   -1.1185    1.5869   -1.2668 N   0  0  0  0  0  2  0  0  0  0  0  0
    3.4628    0.3041    0.0219 C   0  0  0  0  0  0  0  0  0  0  0  0
    3.3821    1.6902    0.3724 C   0  0  0  0  0  0  0  0  0  0  0  0
    4.7362    2.0756    0.6847 C   0  0  0  0  0  0  0  0  0  0  0  0
    5.2330    3.4200    1.1130 C   0  0  0  0  0  0  0  0  0  0  0  0
    6.3258    3.3724    1.2752 H   0  0  0  0  0  0  0  0  0  0  0  0
    4.7528    3.7551    2.0558 H   0  0  0  0  0  0  0  0  0  0  0  0
    5.0270    4.1954    0.3458 H   0  0  0  0  0  0  0  0  0  0  0  0
    2.2779    2.5897    0.3606 C   0  0  0  0  0  3  0  0  0  0  0  0
    2.5354    3.6567    0.5324 H   0  0  0  0  0  0  0  0  0  0  0  0
   -0.0111    3.2180    0.0972 C   0  0  0  0  0  0  0  0  0  0  0  0
   -1.1693    2.8478   -0.6782 C   0  0  0  0  0  0  0  0  0  0  0  0
   -2.2399    3.7763   -0.7445 C   0  0  0  0  0  0  0  0  0  0  0  0
   -3.1100    3.5324   -1.3665 H   0  0  0  0  0  0  0  0  0  0  0  0
   -2.1777    4.9975   -0.0628 C   0  0  0  0  0  0  0  0  0  0  0  0
   -3.0290    5.6918   -0.1363 H   0  0  0  0  0  0  0  0  0  0  0  0
   -1.0586    5.3388    0.7167 C   0  0  0  0  0  0  0  0  0  0  0  0
   -1.0270    6.2897    1.2688 H   0  0  0  0  0  0  0  0  0  0  0  0
    0.0161    4.4452    0.7908 C   0  0  0  0  0  0  0  0  0  0  0  0
    0.8898    4.6890    1.4151 H   0  0  0  0  0  0  0  0  0  0  0  0
   -3.4173    0.1095   -1.3491 C   0  0  0  0  0  0  0  0  0  0  0  0
   -3.9789   -1.0645   -1.8701 C   0  0  0  0  0  0  0  0  0  0  0  0
   -3.6604   -1.4151   -2.8624 H   0  0  0  0  0  0  0  0  0  0  0  0
   -4.9065   -1.7848   -1.1043 C   0  0  0  0  0  0  0  0  0  0  0  0
   -5.3377   -2.7139   -1.5102 H   0  0  0  0  0  0  0  0  0  0  0  0
   -5.2894   -1.3508    0.1806 C   0  0  0  0  0  0  0  0  0  0  0  0
   -4.7149   -0.1606    0.6778 C   0  0  0  0  0  0  0  0  0  0  0  0
   -4.9931    0.1960    1.6825 H   0  0  0  0  0  0  0  0  0  0  0  0
   -3.7884    0.5707   -0.0755 C   0  0  0  0  0  0  0  0  0  0  0  0
   -3.3395    1.4881    0.3329 H   0  0  0  0  0  0  0  0  0  0  0  0
   -6.2886   -2.1220    1.0043 C   0  0  0  0  0  0  0  0  0  0  0  0
   -6.5047   -3.1142    0.5626 H   0  0  0  0  0  0  0  0  0  0  0  0
   -7.2519   -1.5745    1.0824 H   0  0  0  0  0  0  0  0  0  0  0  0
   -5.9218   -2.2786    2.0396 H   0  0  0  0  0  0  0  0  0  0  0  0
    5.4722   -1.2481   -0.0719 C   0  0  0  0  0  0  0  0  0  0  0  0
    6.7917   -1.2035   -0.5655 C   0  0  0  0  0  0  0  0  0  0  0  0
    7.2512   -0.2233   -0.7474 H   0  0  0  0  0  0  0  0  0  0  0  0
    7.4890   -2.3953   -0.7966 C   0  0  0  0  0  0  0  0  0  0  0  0
    8.5180   -2.3521   -1.1850 H   0  0  0  0  0  0  0  0  0  0  0  0
    6.8826   -3.6362   -0.5414 C   0  0  0  0  0  0  0  0  0  0  0  0
    7.4314   -4.5712   -0.7298 H   0  0  0  0  0  0  0  0  0  0  0  0
    5.5734   -3.6732   -0.0375 C   0  0  0  0  0  0  0  0  0  0  0  0
    5.0932   -4.6392    0.1812 H   0  0  0  0  0  0  0  0  0  0  0  0
    4.8651   -2.4879    0.2057 C   0  0  0  0  0  0  0  0  0  0  0  0
    3.8451   -2.5189    0.6088 H   0  0  0  0  0  0  0  0  0  0  0  0
  1  9  1  0  0  0  0
  2 28  1  0  0  0  0
  2  8  1  0  0  0  0
  3  2  2  0  0  0  0
  4  2  2  0  0  0  0
  5  6  1  0  0  0  0
  6 11  2  0  0  0  0
  7 16  1  0  0  0  0
  8 19  1  0  0  0  0
  9  5  1  0  0  0  0
  9 10  2  0  0  0  0
 10 11  1  0  0  0  0
 11 12  1  0  0  0  0
 12 13  1  0  0  0  0
 12 14  1  0  0  0  0
 15 12  1  0  0  0  0
 16 10  1  0  0  0  0
 16 17  1  0  0  0  0
 18  7  1  0  0  0  0
 18 26  1  0  0  0  0
 19 18  2  0  0  0  0
 20 19  1  0  0  0  0
 20 22  2  0  0  0  0
 21 20  1  0  0  0  0
 22 24  1  0  0  0  0
 23 22  1  0  0  0  0
 24 26  2  0  0  0  0
 24 25  1  0  0  0  0
 26 27  1  0  0  0  0
 28 36  1  0  0  0  0
 29 28  2  0  0  0  0
 29 31  1  0  0  0  0
 30 29  1  0  0  0  0
 31 33  2  0  0  0  0
 32 31  1  0  0  0  0
 33 34  1  0  0  0  0
 33 38  1  0  0  0  0
 34 35  1  0  0  0  0
 36 37  1  0  0  0  0
 36 34  2  0  0  0  0
 38 40  1  0  0  0  0
 38 41  1  0  0  0  0
 39 38  1  0  0  0  0
 42  5  1  0  0  0  0
 42 51  1  0  0  0  0
 43 42  2  0  0  0  0
 44 43  1  0  0  0  0
 45 43  1  0  0  0  0
 45 47  2  0  0  0  0
 46 45  1  0  0  0  0
 47 49  1  0  0  0  0
 48 47  1  0  0  0  0
 49 50  1  0  0  0  0
 49 51  2  0  0  0  0
 51 52  1  0  0  0  0
M  END
