1,3,5
q = 0.0, confidence = 1.0

 41 42  0  0  1  0  0  0  0  0999 V2000
   -0.0002   -1.6658   -1.1631 S   0  0  0  0  0  0  0  0  0  0  0  0
    2.7805   -0.6409    0.3600 N   0  0  0  0  0  0  0  0  0  0  0  0
    2.0436    0.4354   -0.0417 N   0  0  0  0  0  2  0  0  0  0  0  0
   -2.7804   -0.6408    0.3602 N   0  0  0  0  0  0  0  0  0  0  0  0
   -2.0436    0.4354   -0.0418 N   0  0  0  0  0  2  0  0  0  0  0  0
    2.9166    1.3835   -0.4550 C   0  0  2  0  0  3  0  0  0  0  0  0
    4.2320    0.8831   -0.3204 C   0  0  0  0  0  0  0  0  0  0  0  0
    5.1606    1.4069   -0.5679 H   0  0  0  0  0  0  0  0  0  0  0  0
    4.1222   -0.4104    0.1922 C   0  0  0  0  0  0  0  0  0  0  0  0
    2.4662    2.7219   -0.9377 C   0  0  0  0  0  0  0  0  0  0  0  0
    1.5600    2.6343   -1.5678 H   0  0  0  0  0  0  0  0  0  0  0  0
    3.2658    3.2091   -1.5255 H   0  0  0  0  0  0  0  0  0  0  0  0
    2.2194    3.3911   -0.0870 H   0  0  0  0  0  0  0  0  0  0  0  0
    5.1739   -1.4135    0.5306 C   0  0  0  0  0  0  0  0  0  0  0  0
    5.1445   -1.7019    1.6019 H   0  0  0  0  0  0  0  0  0  0  0  0
    6.1717   -0.9834    0.3302 H   0  0  0  0  0  0  0  0  0  0  0  0
    5.0839   -2.3399   -0.0740 H   0  0  0  0  0  0  0  0  0  0  0  0
    2.1144   -1.8680    0.7464 C   0  0  0  0  0  0  0  0  0  0  0  0
    1.3735   -1.6355    1.5398 H   0  0  0  0  0  0  0  0  0  0  0  0
    2.8819   -2.5403    1.1766 H   0  0  0  0  0  0  0  0  0  0  0  0
    1.4451   -2.5653   -0.4406 C   0  0  0  0  0  0  0  0  0  0  0  0
    1.0920   -3.5760   -0.1568 H   0  0  0  0  0  0  0  0  0  0  0  0
    2.1633   -2.6827   -1.2764 H   0  0  0  0  0  0  0  0  0  0  0  0
   -2.9166    1.3833   -0.4556 C   0  0  1  0  0  3  0  0  0  0  0  0
   -4.2320    0.8828   -0.3209 C   0  0  0  0  0  0  0  0  0  0  0  0
   -5.1607    1.4064   -0.5686 H   0  0  0  0  0  0  0  0  0  0  0  0
   -4.1221   -0.4105    0.1921 C   0  0  0  0  0  0  0  0  0  0  0  0
   -2.4663    2.7216   -0.9385 C   0  0  0  0  0  0  0  0  0  0  0  0
   -2.2223    3.3919   -0.0879 H   0  0  0  0  0  0  0  0  0  0  0  0
   -3.2648    3.2074   -1.5289 H   0  0  0  0  0  0  0  0  0  0  0  0
   -1.5583    2.6342   -1.5661 H   0  0  0  0  0  0  0  0  0  0  0  0
   -5.1737   -1.4137    0.5307 C   0  0  0  0  0  0  0  0  0  0  0  0
   -5.0833   -2.3404   -0.0734 H   0  0  0  0  0  0  0  0  0  0  0  0
   -6.1716   -0.9838    0.3299 H   0  0  0  0  0  0  0  0  0  0  0  0
   -5.1445   -1.7016    1.6022 H   0  0  0  0  0  0  0  0  0  0  0  0
   -2.1141   -1.8676    0.7473 C   0  0  0  0  0  0  0  0  0  0  0  0
   -2.8815   -2.5397    1.1781 H   0  0  0  0  0  0  0  0  0  0  0  0
   -1.3731   -1.6343    1.5405 H   0  0  0  0  0  0  0  0  0  0  0  0
   -1.4448   -2.5656   -0.4392 C   0  0  0  0  0  0  0  0  0  0  0  0
   -2.1632   -2.6844   -1.2746 H   0  0  0  0  0  0  0  0  0  0  0  0
   -1.0909   -3.5758   -0.1544 H   0  0  0  0  0  0  0  0  0  0  0  0
  1 21  1  0  0  0  0
  1 39  1  0  0  0  0
  2 18  1  0  0  0  0
  3  2  1  0  0  0  0
  4 36  1  0  0  0  0
  5  4  1  0  0  0  0
  6 10  1  1  0  0  0
  6  7  1  0  0  0  0
  6  3  1  0  0  0  0
  7  9  2  0  0  0  0
  8  7  1  0  0  0  0
  9  2  1  0  0  0  0
  9 14  1  0  0  0  0
 10 13  1  0  0  0  0
 11 10  1  0  0  0  0
 12 10  1  0  0  0  0
 14 15  1  0  0  0  0
 16 14  1  0  0  0  0
 17 14  1  0  0  0  0
 18 20  1  0  0  0  0
 18 19  1  0  0  0  0
 21 22  1  0  0  0  0
 21 18  1  0  0  0  0
 23 21  1  0  0  0  0
 24 28  1  1  0  0  0
 24 25  1  0  0  0  0
 24  5  1  0  0  0  0
 25 27  2  0  0  0  0
 26 25  1  0  0  0  0
 27  4  1  0  0  0  0
 27 32  1  0  0  0  0
 28 29  1  0  0  0  0
 30 28  1  0  0  0  0
 31 28  1  0  0  0  0
 32 35  1  0  0  0  0
 33 32  1  0  0  0  0
 34 32  1  0  0  0  0
 36 37  1  0  0  0  0
 36 38  1  0  0  0  0
 39 41  1  0  0  0  0
 39 36  1  0  0  0  0
 40 39  1  0  0  0  0
M  END
