1,3,4
q = -1.0

 38 40  0  0  0  0  0  0  0  0999 V2000
    1.8104   -1.8237    0.0204 S   0  0  0  0  0  1  0  0  0  0  0  0
   -2.4205    2.9872    0.5236 N   0  0  0  0  0  0  0  0  0  0  0  0
   -2.2235   -1.2648   -0.0149 N   0  0  0  0  0  2  0  0  0  0  0  0
   -0.1735    0.1839   -0.0319 N   0  0  0  0  0  2  0  0  0  0  0  0
    1.0230    0.7841   -0.0267 N   0  0  0  0  0  0  0  0  0  0  0  0
    3.2924    0.4157    0.0344 N   0  0  0  0  0  0  0  0  0  0  0  0
   -2.5060    4.3218    0.5410 C   0  0  0  0  0  0  0  0  0  0  0  0
   -1.5350    5.1716   -0.0113 C   0  0  0  0  0  0  0  0  0  0  0  0
   -0.4264    4.5747   -0.6300 C   0  0  0  0  0  0  0  0  0  0  0  0
   -0.3171    3.1813   -0.6487 C   0  0  0  0  0  0  0  0  0  0  0  0
   -1.3390    2.4005   -0.0467 C   0  0  0  0  0  0  0  0  0  0  0  0
   -1.3057    0.9219   -0.0241 C   0  0  0  0  0  0  0  0  0  0  0  0
   -2.5043    0.0806    0.0018 C   0  0  0  0  0  0  0  0  0  0  0  0
   -3.8479    0.5101    0.0119 C   0  0  0  0  0  0  0  0  0  0  0  0
   -4.8754   -0.4396   -0.0043 C   0  0  0  0  0  0  0  0  0  0  0  0
   -4.5596   -1.8073   -0.0234 C   0  0  0  0  0  0  0  0  0  0  0  0
   -3.2105   -2.1773   -0.0261 C   0  0  0  0  0  0  0  0  0  0  0  0
    2.0399   -0.0876    0.0060 C   0  0  0  0  0  0  0  0  0  0  0  0
    4.5049   -0.4059    0.0753 C   0  0  0  0  0  0  0  0  0  0  0  0
    5.6281    0.6125   -0.1603 C   0  0  0  0  0  0  0  0  0  0  0  0
    5.0621    1.9054    0.4487 C   0  0  0  0  0  0  0  0  0  0  0  0
    3.5810    1.8552    0.0550 C   0  0  0  0  0  0  0  0  0  0  0  0
   -3.4058    4.7446    1.0237 H   0  0  0  0  0  0  0  0  0  0  0  0
   -1.6533    6.2642    0.0346 H   0  0  0  0  0  0  0  0  0  0  0  0
    0.3538    5.1929   -1.1005 H   0  0  0  0  0  0  0  0  0  0  0  0
    0.5419    2.6838   -1.1111 H   0  0  0  0  0  0  0  0  0  0  0  0
   -4.0414    1.5875    0.0657 H   0  0  0  0  0  0  0  0  0  0  0  0
   -5.9246   -0.1079    0.0036 H   0  0  0  0  0  0  0  0  0  0  0  0
   -5.3385   -2.5825   -0.0327 H   0  0  0  0  0  0  0  0  0  0  0  0
   -2.8612   -3.2231   -0.0369 H   0  0  0  0  0  0  0  0  0  0  0  0
    4.4558   -1.2075   -0.6906 H   0  0  0  0  0  0  0  0  0  0  0  0
    4.5919   -0.9086    1.0656 H   0  0  0  0  0  0  0  0  0  0  0  0
    6.5873    0.2940    0.2904 H   0  0  0  0  0  0  0  0  0  0  0  0
    5.7962    0.7450   -1.2496 H   0  0  0  0  0  0  0  0  0  0  0  0
    5.5669    2.8215    0.0863 H   0  0  0  0  0  0  0  0  0  0  0  0
    5.1596    1.8821    1.5544 H   0  0  0  0  0  0  0  0  0  0  0  0
    2.8983    2.3725    0.7575 H   0  0  0  0  0  0  0  0  0  0  0  0
    3.4034    2.2924   -0.9543 H   0  0  0  0  0  0  0  0  0  0  0  0
  2  7  1  0  0  0  0
  3 13  1  0  0  0  0
  4  5  1  0  0  0  0
  4 12  1  0  0  0  0
  5 18  2  0  0  0  0
  6 22  1  0  0  0  0
  6 19  1  0  0  0  0
  7 23  1  0  0  0  0
  8 24  1  0  0  0  0
  8  7  2  0  0  0  0
  9  8  1  0  0  0  0
 10  9  2  0  0  0  0
 10 11  1  0  0  0  0
 11 12  1  0  0  0  0
 11  2  2  0  0  0  0
 12 13  2  0  0  0  0
 13 14  1  0  0  0  0
 14 27  1  0  0  0  0
 15 28  1  0  0  0  0
 15 14  2  0  0  0  0
 16 15  1  0  0  0  0
 17 16  2  0  0  0  0
 17  3  1  0  0  0  0
 18  1  1  0  0  0  0
 18  6  1  0  0  0  0
 19 32  1  0  0  0  0
 20 19  1  0  0  0  0
 20 33  1  0  0  0  0
 20 21  1  0  0  0  0
 21 36  1  0  0  0  0
 22 21  1  0  0  0  0
 22 37  1  0  0  0  0
 25  9  1  0  0  0  0
 26 10  1  0  0  0  0
 29 16  1  0  0  0  0
 30 17  1  0  0  0  0
 31 19  1  0  0  0  0
 34 20  1  0  0  0  0
 35 21  1  0  0  0  0
 38 22  1  0  0  0  0
M  END
