2,28,29
q = 0.0, confidence = 1.0

 30 32  0  0  1  0  0  0  0  0999 V2000
    3.1951   -0.5694    0.0003 S   0  0  0  0  0  0  0  0  0  0  0  0
   -2.6471    1.1825   -0.0003 S   0  0  0  0  0  0  0  0  0  0  0  0
    2.2543    0.1080    1.4319 C   0  0  0  0  0  0  0  0  0  0  0  0
    2.9631    0.0024    2.2782 H   0  0  0  0  0  0  0  0  0  0  0  0
    2.0490    1.1890    1.2559 H   0  0  0  0  0  0  0  0  0  0  0  0
    0.9804   -0.6381    1.7097 C   0  0  2  0  0  3  0  0  0  0  0  0
    0.9713   -1.9669    2.1900 C   0  0  0  0  0  0  0  0  0  0  0  0
    1.9281   -2.4836    2.3816 H   0  0  0  0  0  0  0  0  0  0  0  0
   -1.3079   -2.0097    2.1557 C   0  0  0  0  0  0  0  0  0  0  0  0
   -2.2460   -2.5633    2.3392 H   0  0  0  0  0  0  0  0  0  0  0  0
   -1.3443   -0.6934    1.6740 C   0  0  0  0  0  0  0  0  0  0  0  0
   -2.6457    0.0320    1.4296 C   0  0  0  0  0  0  0  0  0  0  0  0
   -2.8623    0.7077    2.2858 H   0  0  0  0  0  0  0  0  0  0  0  0
   -3.4942   -0.6760    1.3470 H   0  0  0  0  0  0  0  0  0  0  0  0
   -2.6455    0.0313   -1.4297 C   0  0  0  0  0  0  0  0  0  0  0  0
   -3.4940   -0.6768   -1.3467 H   0  0  0  0  0  0  0  0  0  0  0  0
   -2.8623    0.7065   -2.2862 H   0  0  0  0  0  0  0  0  0  0  0  0
   -1.3075   -2.0104   -2.1554 C   0  0  0  0  0  0  0  0  0  0  0  0
   -2.2456   -2.5641   -2.3389 H   0  0  0  0  0  0  0  0  0  0  0  0
   -1.3441   -0.6940   -1.6739 C   0  0  1  0  0  3  0  0  0  0  0  0
    0.9717   -1.9675   -2.1896 C   0  0  0  0  0  0  0  0  0  0  0  0
    1.9285   -2.4840   -2.3811 H   0  0  0  0  0  0  0  0  0  0  0  0
    0.9807   -0.6386   -1.7094 C   0  0  0  0  0  0  0  0  0  0  0  0
    2.2545    0.1076   -1.4315 C   0  0  0  0  0  0  0  0  0  0  0  0
    2.0491    1.1887   -1.2559 H   0  0  0  0  0  0  0  0  0  0  0  0
    2.9634    0.0018   -2.2778 H   0  0  0  0  0  0  0  0  0  0  0  0
   -0.1540   -2.6517   -2.4134 N   0  0  0  0  0  0  0  0  0  0  0  0
   -0.1930   -0.0155   -1.4435 N   0  0  0  0  0  2  0  0  0  0  0  0
   -0.1932   -0.0149    1.4437 N   0  0  0  0  0  2  0  0  0  0  0  0
   -0.1544   -2.6511    2.4138 N   0  0  0  0  0  0  0  0  0  0  0  0
  1  3  1  0  0  0  0
  2 12  1  0  0  0  0
  3  6  1  0  0  0  0
  3  4  1  0  0  0  0
  5  3  1  0  0  0  0
  6 29  1  6  0  0  0
  6  7  1  0  0  0  0
  7  8  1  0  0  0  0
  7 30  2  0  0  0  0
  9 10  1  0  0  0  0
  9 30  1  0  0  0  0
 11  9  2  0  0  0  0
 12 11  1  0  0  0  0
 12 13  1  0  0  0  0
 14 12  1  0  0  0  0
 15 16  1  0  0  0  0
 15  2  1  0  0  0  0
 17 15  1  0  0  0  0
 19 18  1  0  0  0  0
 20 18  1  6  0  0  0
 20 28  1  0  0  0  0
 20 15  1  0  0  0  0
 21 23  2  0  0  0  0
 22 21  1  0  0  0  0
 23 28  1  0  0  0  0
 23 24  1  0  0  0  0
 24 25  1  0  0  0  0
 24  1  1  0  0  0  0
 26 24  1  0  0  0  0
 27 21  1  0  0  0  0
 27 18  2  0  0  0  0
 29 11  1  0  0  0  0
M  END
