1,5,44
q = -1.0, confidence = 0.0

 44 45  0  0  1  0  0  0  0  0999 V2000
   -0.6363   -2.1213   -0.6444 S   0  0  0  0  0  1  0  0  0  0  0  0
   -1.8698   -1.0632    0.0000 C   0  0  0  0  0  0  0  0  0  0  0  0
   -1.8104    0.2649    0.0963 N   0  0  0  0  0  0  0  0  0  0  0  0
   -0.7452    1.0361   -0.1350 C   0  0  2  0  0  3  0  0  0  0  0  0
    0.5302    0.6383   -0.1931 N   0  0  0  0  0  2  0  0  0  0  0  0
    1.5890    1.6508   -0.2591 C   0  0  0  0  0  0  0  0  0  0  0  0
    1.3224    2.5715    0.3011 H   0  0  0  0  0  0  0  0  0  0  0  0
    1.7701    1.9732   -1.3114 H   0  0  0  0  0  0  0  0  0  0  0  0
   -1.1022    2.4889   -0.2885 C   0  0  0  0  0  0  0  0  0  0  0  0
   -0.7646    3.2098   -1.4525 C   0  0  0  0  0  0  0  0  0  0  0  0
   -0.2118    2.7091   -2.2618 H   0  0  0  0  0  0  0  0  0  0  0  0
   -1.1590    4.5478   -1.6001 C   0  0  0  0  0  0  0  0  0  0  0  0
   -0.9022    5.0942   -2.5204 H   0  0  0  0  0  0  0  0  0  0  0  0
   -1.8865    5.1847   -0.5825 C   0  0  0  0  0  0  0  0  0  0  0  0
   -2.1907    6.2363   -0.6962 H   0  0  0  0  0  0  0  0  0  0  0  0
   -2.2345    4.4706    0.5762 C   0  0  0  0  0  0  0  0  0  0  0  0
   -2.8125    4.9621    1.3738 H   0  0  0  0  0  0  0  0  0  0  0  0
   -1.8563    3.1285    0.7169 C   0  0  0  0  0  0  0  0  0  0  0  0
   -2.1446    2.5530    1.6088 H   0  0  0  0  0  0  0  0  0  0  0  0
   -3.0515   -1.6397    0.3866 N   0  0  0  0  0  0  0  0  0  0  0  0
   -3.2549   -3.0859    0.3843 C   0  0  0  0  0  0  0  0  0  0  0  0
   -3.9472   -3.3253    1.2191 H   0  0  0  0  0  0  0  0  0  0  0  0
   -2.2808   -3.5660    0.6131 H   0  0  0  0  0  0  0  0  0  0  0  0
   -3.8014   -3.6211   -0.9406 C   0  0  0  0  0  0  0  0  0  0  0  0
   -3.9619   -4.7163   -0.8782 H   0  0  0  0  0  0  0  0  0  0  0  0
   -3.0826   -3.4248   -1.7604 H   0  0  0  0  0  0  0  0  0  0  0  0
   -4.7697   -3.1472   -1.2022 H   0  0  0  0  0  0  0  0  0  0  0  0
   -4.1707   -0.7993    0.8171 C   0  0  0  0  0  0  0  0  0  0  0  0
   -5.1078   -1.3254    0.5387 H   0  0  0  0  0  0  0  0  0  0  0  0
   -4.1208    0.1448    0.2415 H   0  0  0  0  0  0  0  0  0  0  0  0
   -4.1449   -0.4939    2.3148 C   0  0  0  0  0  0  0  0  0  0  0  0
   -5.0249    0.1162    2.6035 H   0  0  0  0  0  0  0  0  0  0  0  0
   -3.2284    0.0738    2.5698 H   0  0  0  0  0  0  0  0  0  0  0  0
   -4.1592   -1.4217    2.9228 H   0  0  0  0  0  0  0  0  0  0  0  0
    2.8631    1.0580    0.2593 C   0  0  2  0  0  3  0  0  0  0  0  0
    3.9595    1.8032    0.7085 C   0  0  0  0  0  0  0  0  0  0  0  0
    3.8956    2.9009    0.7337 H   0  0  0  0  0  0  0  0  0  0  0  0
    5.1192    1.1305    1.1188 C   0  0  0  0  0  0  0  0  0  0  0  0
    5.9924    1.6930    1.4813 H   0  0  0  0  0  0  0  0  0  0  0  0
    5.1394   -0.2719    1.0617 C   0  0  0  0  0  0  0  0  0  0  0  0
    6.0253   -0.8438    1.3725 H   0  0  0  0  0  0  0  0  0  0  0  0
    4.0099   -0.9562    0.6070 C   0  0  0  0  0  0  0  0  0  0  0  0
    3.9525   -2.0530    0.5182 H   0  0  0  0  0  0  0  0  0  0  0  0
    2.8903   -0.3010    0.2124 N   0  0  0  0  0  2  0  0  0  0  0  0
  1  2  1  0  0  0  0
  2  3  2  0  0  0  0
  2 20  1  0  0  0  0
  4  5  1  1  0  0  0
  4  3  1  0  0  0  0
  6  5  1  0  0  0  0
  6  7  1  0  0  0  0
  8  6  1  0  0  0  0
  9  4  1  0  0  0  0
  9 18  1  0  0  0  0
 10  9  2  0  0  0  0
 11 10  1  0  0  0  0
 12 10  1  0  0  0  0
 12 14  2  0  0  0  0
 13 12  1  0  0  0  0
 14 16  1  0  0  0  0
 15 14  1  0  0  0  0
 16 18  2  0  0  0  0
 16 17  1  0  0  0  0
 18 19  1  0  0  0  0
 20 28  1  0  0  0  0
 21 20  1  0  0  0  0
 21 23  1  0  0  0  0
 21 22  1  0  0  0  0
 24 25  1  0  0  0  0
 24 21  1  0  0  0  0
 26 24  1  0  0  0  0
 27 24  1  0  0  0  0
 28 31  1  0  0  0  0
 29 28  1  0  0  0  0
 30 28  1  0  0  0  0
 31 33  1  0  0  0  0
 31 32  1  0  0  0  0
 31 34  1  0  0  0  0
 35  6  1  6  0  0  0
 35 36  1  0  0  0  0
 36 37  1  0  0  0  0
 36 38  2  0  0  0  0
 38 39  1  0  0  0  0
 40 38  1  0  0  0  0
 40 41  1  0  0  0  0
 42 40  2  0  0  0  0
 43 42  1  0  0  0  0
 44 35  1  0  0  0  0
 44 42  1  0  0  0  0
M  END
