1,4,5
q = -1.0, confidence = 0.018

 35 36  0  0  0  0  0  0  0  0999 V2000
   -0.6228    2.2071    1.8078 S   0  0  0  0  0  1  0  0  0  0  0  0
   -3.1766    2.4198    2.6049 N   0  0  0  0  0  0  0  0  0  0  0  0
   -2.9097    1.0410    0.7900 N   0  0  0  0  0  0  0  0  0  0  0  0
   -2.1215    0.5268   -0.1342 N   0  0  0  0  0  2  0  0  0  0  0  0
   -0.3315   -0.6168   -1.7503 N   0  0  0  0  0  2  0  0  0  0  0  0
   -2.7119    3.3248    3.6362 C   0  0  0  0  0  0  0  0  0  0  0  0
   -1.6817    3.0535    3.9348 H   0  0  0  0  0  0  0  0  0  0  0  0
   -3.3893    3.2561    4.5113 H   0  0  0  0  0  0  0  0  0  0  0  0
   -2.6962    4.3825    3.2862 H   0  0  0  0  0  0  0  0  0  0  0  0
   -4.6188    2.2873    2.4657 C   0  0  0  0  0  0  0  0  0  0  0  0
   -4.8387    1.4874    1.7381 H   0  0  0  0  0  0  0  0  0  0  0  0
   -5.0753    3.2391    2.1095 H   0  0  0  0  0  0  0  0  0  0  0  0
   -5.0705    2.0383    3.4490 H   0  0  0  0  0  0  0  0  0  0  0  0
   -2.3082    1.8565    1.7020 C   0  0  0  0  0  0  0  0  0  0  0  0
   -2.6054   -0.3646   -0.9930 C   0  0  0  0  0  0  0  0  0  0  0  0
   -4.0161   -0.8263   -0.9711 C   0  0  0  0  0  0  0  0  0  0  0  0
   -4.3138   -2.2049   -0.8846 C   0  0  0  0  0  0  0  0  0  0  0  0
   -3.4876   -2.9315   -0.8394 H   0  0  0  0  0  0  0  0  0  0  0  0
   -5.6429   -2.6511   -0.8362 C   0  0  0  0  0  0  0  0  0  0  0  0
   -5.8553   -3.7288   -0.7629 H   0  0  0  0  0  0  0  0  0  0  0  0
   -6.6976   -1.7260   -0.8748 C   0  0  0  0  0  0  0  0  0  0  0  0
   -7.7411   -2.0743   -0.8380 H   0  0  0  0  0  0  0  0  0  0  0  0
   -6.4137   -0.3522   -0.9587 C   0  0  0  0  0  0  0  0  0  0  0  0
   -7.2366    0.3784   -0.9916 H   0  0  0  0  0  0  0  0  0  0  0  0
   -5.0869    0.0955   -1.0008 C   0  0  0  0  0  0  0  0  0  0  0  0
   -4.8650    1.1698   -1.0601 H   0  0  0  0  0  0  0  0  0  0  0  0
   -1.6423   -0.9074   -1.9596 C   0  0  0  0  0  0  0  0  0  0  0  0
   -2.0295   -1.6759   -3.0866 C   0  0  0  0  0  0  0  0  0  0  0  0
   -3.0932   -1.8839   -3.2647 H   0  0  0  0  0  0  0  0  0  0  0  0
   -1.0490   -2.1404   -3.9666 C   0  0  0  0  0  0  0  0  0  0  0  0
   -1.3378   -2.7359   -4.8462 H   0  0  0  0  0  0  0  0  0  0  0  0
    0.3008   -1.8277   -3.7290 C   0  0  0  0  0  0  0  0  0  0  0  0
    1.1004   -2.1710   -4.4004 H   0  0  0  0  0  0  0  0  0  0  0  0
    0.6025   -1.0462   -2.6057 C   0  0  0  0  0  0  0  0  0  0  0  0
    1.6378   -0.7420   -2.3752 H   0  0  0  0  0  0  0  0  0  0  0  0
  2  6  1  0  0  0  0
  3 14  2  0  0  0  0
  4  3  1  0  0  0  0
  6  7  1  0  0  0  0
  6  8  1  0  0  0  0
  9  6  1  0  0  0  0
 10  2  1  0  0  0  0
 10 13  1  0  0  0  0
 11 10  1  0  0  0  0
 12 10  1  0  0  0  0
 14  1  1  0  0  0  0
 14  2  1  0  0  0  0
 15 16  1  0  0  0  0
 15  4  1  0  0  0  0
 16 17  1  0  0  0  0
 17 18  1  0  0  0  0
 17 19  2  0  0  0  0
 19 20  1  0  0  0  0
 21 22  1  0  0  0  0
 21 19  1  0  0  0  0
 23 21  2  0  0  0  0
 24 23  1  0  0  0  0
 25 16  2  0  0  0  0
 25 23  1  0  0  0  0
 26 25  1  0  0  0  0
 27  5  1  0  0  0  0
 27 15  2  0  0  0  0
 28 27  1  0  0  0  0
 29 28  1  0  0  0  0
 30 32  1  0  0  0  0
 30 28  2  0  0  0  0
 31 30  1  0  0  0  0
 32 34  2  0  0  0  0
 33 32  1  0  0  0  0
 34 35  1  0  0  0  0
 34  5  1  0  0  0  0
M  END
