1,6,7
q = -1.0

 29 30  0  0  0  0  0  0  0  0999 V2000
   -2.3249   -2.2369    0.0541 S   0  0  0  0  0  1  0  0  0  0  0  0
   -0.4427   -4.1507    0.0943 N   0  0  0  0  0  0  0  0  0  0  0  0
    0.5185   -4.4858    0.1508 H   0  0  0  0  0  0  0  0  0  0  0  0
   -1.2174   -4.8044    0.1783 H   0  0  0  0  0  0  0  0  0  0  0  0
    0.3896   -2.0125    0.0152 N   0  0  0  0  0  0  0  0  0  0  0  0
    0.0342   -0.7191   -0.0158 N   0  0  0  0  0  2  0  0  0  0  0  0
   -0.9533    1.5997   -0.0296 N   0  0  0  0  0  2  0  0  0  0  0  0
   -0.6739   -2.8180    0.0557 C   0  0  0  0  0  0  0  0  0  0  0  0
    0.9820    0.2317   -0.0240 C   0  0  0  0  0  0  0  0  0  0  0  0
    0.4224    1.5739   -0.0733 C   0  0  0  0  0  0  0  0  0  0  0  0
    1.1508    2.7738   -0.1999 C   0  0  0  0  0  0  0  0  0  0  0  0
    2.2456    2.7334   -0.2719 H   0  0  0  0  0  0  0  0  0  0  0  0
    0.4638    3.9931   -0.2478 C   0  0  0  0  0  0  0  0  0  0  0  0
    1.0230    4.9355   -0.3469 H   0  0  0  0  0  0  0  0  0  0  0  0
   -0.9379    3.9969   -0.1763 C   0  0  0  0  0  0  0  0  0  0  0  0
   -1.5147    4.9317   -0.2073 H   0  0  0  0  0  0  0  0  0  0  0  0
   -1.6110    2.7721   -0.0767 C   0  0  0  0  0  0  0  0  0  0  0  0
   -2.7097    2.6810   -0.0351 H   0  0  0  0  0  0  0  0  0  0  0  0
    2.4319   -0.0476    0.0040 C   0  0  0  0  0  0  0  0  0  0  0  0
    3.0181   -0.9779   -0.8855 C   0  0  0  0  0  0  0  0  0  0  0  0
    2.3772   -1.5135   -1.5981 H   0  0  0  0  0  0  0  0  0  0  0  0
    4.3980   -1.2124   -0.8593 C   0  0  0  0  0  0  0  0  0  0  0  0
    4.8403   -1.9323   -1.5649 H   0  0  0  0  0  0  0  0  0  0  0  0
    5.2180   -0.5354    0.0592 C   0  0  0  0  0  0  0  0  0  0  0  0
    6.3019   -0.7254    0.0784 H   0  0  0  0  0  0  0  0  0  0  0  0
    4.6464    0.3806    0.9556 C   0  0  0  0  0  0  0  0  0  0  0  0
    5.2779    0.9050    1.6889 H   0  0  0  0  0  0  0  0  0  0  0  0
    3.2660    0.6240    0.9283 C   0  0  0  0  0  0  0  0  0  0  0  0
    2.8201    1.3240    1.6509 H   0  0  0  0  0  0  0  0  0  0  0  0
  1  8  1  0  0  0  0
  2  3  1  0  0  0  0
  2  4  1  0  0  0  0
  5  8  2  0  0  0  0
  6  5  1  0  0  0  0
  8  2  1  0  0  0  0
  9  6  1  0  0  0  0
  9 19  1  0  0  0  0
 10  7  1  0  0  0  0
 10  9  2  0  0  0  0
 11 10  1  0  0  0  0
 12 11  1  0  0  0  0
 13 11  2  0  0  0  0
 13 15  1  0  0  0  0
 14 13  1  0  0  0  0
 15 17  2  0  0  0  0
 16 15  1  0  0  0  0
 17 18  1  0  0  0  0
 17  7  1  0  0  0  0
 19 28  1  0  0  0  0
 20 22  1  0  0  0  0
 20 19  2  0  0  0  0
 21 20  1  0  0  0  0
 22 24  2  0  0  0  0
 23 22  1  0  0  0  0
 24 25  1  0  0  0  0
 24 26  1  0  0  0  0
 26 27  1  0  0  0  0
 28 26  2  0  0  0  0
 28 29  1  0  0  0  0
M  END
