1,5,6
q = -1.0, confidence = 0.0

 31 32  0  0  0  0  0  0  0  0999 V2000
   -1.4306   -1.6308    1.2507 S   0  0  0  0  0  1  0  0  0  0  0  0
   -4.0131   -1.8362    0.8018 N   0  0  0  0  0  0  0  0  0  0  0  0
   -3.8257   -2.4998    1.5575 H   0  0  0  0  0  0  0  0  0  0  0  0
   -3.0029   -0.2739   -0.5876 N   0  0  0  0  0  0  0  0  0  0  0  0
   -1.8727    0.3191   -0.9606 N   0  0  0  0  0  2  0  0  0  0  0  0
    0.4238    1.5357   -1.5110 N   0  0  0  0  0  2  0  0  0  0  0  0
    0.6813    3.3669   -3.6060 N   0  0  0  0  0  0  0  0  0  0  0  0
   -6.2599   -2.6231    1.0754 C   0  0  0  0  0  0  0  0  0  0  0  0
   -5.8854   -3.2774    1.8794 H   0  0  0  0  0  0  0  0  0  0  0  0
   -7.6172   -2.6358    0.7412 C   0  0  0  0  0  0  0  0  0  0  0  0
   -8.3011   -3.3027    1.2878 H   0  0  0  0  0  0  0  0  0  0  0  0
   -8.1039   -1.8058   -0.2824 C   0  0  0  0  0  0  0  0  0  0  0  0
   -9.1715   -1.8148   -0.5468 H   0  0  0  0  0  0  0  0  0  0  0  0
   -7.2072   -0.9674   -0.9622 C   0  0  0  0  0  0  0  0  0  0  0  0
   -7.5732   -0.3125   -1.7681 H   0  0  0  0  0  0  0  0  0  0  0  0
   -5.8431   -0.9420   -0.6404 C   0  0  0  0  0  0  0  0  0  0  0  0
   -5.1368   -0.2922   -1.1670 H   0  0  0  0  0  0  0  0  0  0  0  0
   -5.3528   -1.7767    0.3908 C   0  0  0  0  0  0  0  0  0  0  0  0
   -2.8703   -1.1827    0.4032 C   0  0  0  0  0  0  0  0  0  0  0  0
   -1.9345    1.2325   -1.9148 C   0  0  0  0  0  0  0  0  0  0  0  0
   -3.2358    1.5678   -2.5780 C   0  0  0  0  0  0  0  0  0  0  0  0
   -3.9747    1.8962   -1.8171 H   0  0  0  0  0  0  0  0  0  0  0  0
   -3.6691    0.6578   -3.0436 H   0  0  0  0  0  0  0  0  0  0  0  0
   -3.1457    2.3544   -3.3463 H   0  0  0  0  0  0  0  0  0  0  0  0
   -0.6619    1.8707   -2.2576 C   0  0  0  0  0  0  0  0  0  0  0  0
   -0.4947    2.8056   -3.3161 C   0  0  0  0  0  0  0  0  0  0  0  0
   -1.3500    3.0987   -3.9473 H   0  0  0  0  0  0  0  0  0  0  0  0
    1.7363    3.0077   -2.8541 C   0  0  0  0  0  0  0  0  0  0  0  0
    2.7125    3.4648   -3.0889 H   0  0  0  0  0  0  0  0  0  0  0  0
    1.6055    2.0826   -1.8057 C   0  0  0  0  0  0  0  0  0  0  0  0
    2.4668    1.7690   -1.1910 H   0  0  0  0  0  0  0  0  0  0  0  0
  2  3  1  0  0  0  0
  4 19  2  0  0  0  0
  5  4  1  0  0  0  0
  7 26  2  0  0  0  0
  7 28  1  0  0  0  0
  8  9  1  0  0  0  0
 10  8  1  0  0  0  0
 10 11  1  0  0  0  0
 12 10  2  0  0  0  0
 13 12  1  0  0  0  0
 14 16  2  0  0  0  0
 14 12  1  0  0  0  0
 15 14  1  0  0  0  0
 16 18  1  0  0  0  0
 17 16  1  0  0  0  0
 18  2  1  0  0  0  0
 18  8  2  0  0  0  0
 19  2  1  0  0  0  0
 19  1  1  0  0  0  0
 20  5  1  0  0  0  0
 21 20  1  0  0  0  0
 21 22  1  0  0  0  0
 23 21  1  0  0  0  0
 24 21  1  0  0  0  0
 25 20  2  0  0  0  0
 25  6  1  0  0  0  0
 26 25  1  0  0  0  0
 27 26  1  0  0  0  0
 28 30  2  0  0  0  0
 29 28  1  0  0  0  0
 30  6  1  0  0  0  0
 30 31  1  0  0  0  0
M  END
