1,3,5
q = -1.0, confidence = 0.012

 36 38  0  0  1  0  0  0  0  0999 V2000
    1.8500   -1.3863   -0.5846 S   0  0  0  0  0  1  0  0  0  0  0  0
    2.4412    1.0355    0.7559 N   0  0  0  0  0  0  0  0  0  0  0  0
    0.0543    1.3141   -1.5544 N   0  0  0  0  0  2  0  0  0  0  0  0
   -0.0292    1.2643    1.4841 N   0  0  0  0  0  0  0  0  0  0  0  0
   -0.7480    0.1960    1.0523 N   0  0  0  0  0  2  0  0  0  0  0  0
    4.0521   -0.4795    0.6887 N   0  0  0  0  0  0  0  0  0  0  0  0
    4.5623    0.6220    1.3603 C   0  0  0  0  0  0  0  0  0  0  0  0
    5.5805    0.6491    1.7544 H   0  0  0  0  0  0  0  0  0  0  0  0
    2.7511   -0.2242    0.3067 C   0  0  2  0  0  3  0  0  0  0  0  0
    3.5601    1.5513    1.4035 C   0  0  0  0  0  0  0  0  0  0  0  0
    3.5405    2.5488    1.8491 H   0  0  0  0  0  0  0  0  0  0  0  0
   -1.6598   -0.0922    1.9967 C   0  0  0  0  0  3  0  0  0  0  0  0
   -2.3777   -0.9061    1.8343 H   0  0  0  0  0  0  0  0  0  0  0  0
   -0.4813    1.6499    2.7081 C   0  0  0  0  0  0  0  0  0  0  0  0
   -0.0265    2.5034    3.2218 H   0  0  0  0  0  0  0  0  0  0  0  0
    1.1290    1.9009    0.6813 B   0  0  2  0  0  0  0  0  0  0  0  0
   -0.1551    1.8873   -2.7502 C   0  0  0  0  0  3  0  0  0  0  0  0
   -0.6857    1.3257   -3.5292 H   0  0  0  0  0  0  0  0  0  0  0  0
    0.9189    3.3545   -1.4766 C   0  0  0  0  0  0  0  0  0  0  0  0
    1.4289    4.2042   -1.0104 H   0  0  0  0  0  0  0  0  0  0  0  0
    4.7869   -1.7096    0.3448 C   0  0  0  0  0  0  0  0  0  0  0  0
    3.9985   -2.4898    0.2842 H   0  0  0  0  0  0  0  0  0  0  0  0
    5.7805   -2.0858    1.4422 C   0  0  0  0  0  0  0  0  0  0  0  0
    5.2916   -2.1314    2.4351 H   0  0  0  0  0  0  0  0  0  0  0  0
    6.6305   -1.3748    1.4980 H   0  0  0  0  0  0  0  0  0  0  0  0
    6.2058   -3.0841    1.2222 H   0  0  0  0  0  0  0  0  0  0  0  0
    0.3809    3.1926   -2.7555 C   0  0  0  0  0  0  0  0  0  0  0  0
    0.3703    3.9222   -3.5710 H   0  0  0  0  0  0  0  0  0  0  0  0
    0.7087    2.2071   -0.7757 N   0  0  0  0  0  0  0  0  0  0  0  0
   -1.5281    0.8033    3.0778 C   0  0  0  0  0  0  0  0  0  0  0  0
   -2.1231    0.8383    3.9953 H   0  0  0  0  0  0  0  0  0  0  0  0
    5.4350   -1.5695   -1.0359 C   0  0  0  0  0  0  0  0  0  0  0  0
    4.6665   -1.3393   -1.7994 H   0  0  0  0  0  0  0  0  0  0  0  0
    5.9337   -2.5164   -1.3227 H   0  0  0  0  0  0  0  0  0  0  0  0
    6.1954   -0.7615   -1.0361 H   0  0  0  0  0  0  0  0  0  0  0  0
    1.3997    2.9667    1.2151 H   0  0  0  0  0  0  0  0  0  0  0  0
  2 10  1  0  0  0  0
  3 29  1  0  0  0  0
  4 14  1  0  0  0  0
  5  4  1  0  0  0  0
  5 12  1  0  0  0  0
  6  7  1  0  0  0  0
  7 10  2  0  0  0  0
  7  8  1  0  0  0  0
  9  1  1  6  0  0  0
  9  6  1  0  0  0  0
  9  2  1  0  0  0  0
 10 11  1  0  0  0  0
 12 30  1  0  0  0  0
 13 12  1  0  0  0  0
 14 30  2  0  0  0  0
 14 15  1  0  0  0  0
 16  2  1  0  0  0  0
 16 36  1  1  0  0  0
 16  4  1  0  0  0  0
 17  3  1  0  0  0  0
 18 17  1  0  0  0  0
 19 20  1  0  0  0  0
 19 29  1  0  0  0  0
 21  6  1  0  0  0  0
 21 23  1  0  0  0  0
 22 21  1  0  0  0  0
 23 25  1  0  0  0  0
 23 24  1  0  0  0  0
 26 23  1  0  0  0  0
 27 17  1  0  0  0  0
 27 19  2  0  0  0  0
 28 27  1  0  0  0  0
 29 16  1  0  0  0  0
 30 31  1  0  0  0  0
 32 21  1  0  0  0  0
 33 32  1  0  0  0  0
 34 32  1  0  0  0  0
 35 32  1  0  0  0  0
M  END
