1,4,5
q = -1.0

 54 57  0  0  1  0  0  0  0  0999 V2000
   -2.2168   -0.1791   -2.4165 S   0  0  0  0  0  0  0  0  0  0  0  0
    3.3164   -3.7247    0.9371 O   0  0  0  0  0  0  0  0  0  0  0  0
    1.4405   -4.9078    0.8288 O   0  0  0  0  0  0  0  0  0  0  0  0
    1.3171   -0.2375   -0.3075 N   0  0  0  0  0  2  0  0  0  0  0  0
   -1.0075   -1.9825   -0.4520 N   0  0  0  0  0  2  0  0  0  0  0  0
    5.4306   -2.7558    0.8257 C   0  0  0  0  0  0  0  0  0  0  0  0
    5.7929   -3.7015    1.2524 H   0  0  0  0  0  0  0  0  0  0  0  0
    6.2931   -1.7168    0.4788 C   0  0  0  0  0  0  0  0  0  0  0  0
    7.3760   -1.8245    0.6419 H   0  0  0  0  0  0  0  0  0  0  0  0
    5.7683   -0.5465   -0.0973 C   0  0  0  0  0  0  0  0  0  0  0  0
    6.4353    0.2726   -0.4027 H   0  0  0  0  0  0  0  0  0  0  0  0
    4.3919   -0.4118   -0.2871 C   0  0  0  0  0  0  0  0  0  0  0  0
    4.0233    0.5098   -0.7433 H   0  0  0  0  0  0  0  0  0  0  0  0
    3.4744   -1.4335    0.0835 C   0  0  0  0  0  0  0  0  0  0  0  0
    1.9943   -1.3557   -0.0353 C   0  0  2  0  0  3  0  0  0  0  0  0
    1.2937   -2.6106    0.1507 C   0  0  0  0  0  0  0  0  0  0  0  0
    1.9627   -3.8253    0.6342 C   0  0  0  0  0  0  0  0  0  0  0  0
    4.0458   -2.6251    0.6117 C   0  0  0  0  0  0  0  0  0  0  0  0
   -0.0701   -2.8614   -0.1516 C   0  0  0  0  0  0  0  0  0  0  0  0
   -0.3325   -3.9375   -0.1371 H   0  0  0  0  0  0  0  0  0  0  0  0
    1.9077    1.0413   -0.5052 C   0  0  0  0  0  0  0  0  0  0  0  0
    2.2033    1.8548    0.6177 C   0  0  0  0  0  0  0  0  0  0  0  0
    2.7531    3.1273    0.3877 C   0  0  0  0  0  0  0  0  0  0  0  0
    2.9942    3.7612    1.2565 H   0  0  0  0  0  0  0  0  0  0  0  0
    3.0026    3.6144   -0.9100 C   0  0  0  0  0  0  0  0  0  0  0  0
    2.6741    2.7878   -2.0015 C   0  0  0  0  0  0  0  0  0  0  0  0
    2.8502    3.1515   -3.0269 H   0  0  0  0  0  0  0  0  0  0  0  0
    2.1166    1.5094   -1.8262 C   0  0  0  0  0  0  0  0  0  0  0  0
    1.9349    1.3420    2.0062 C   0  0  0  0  0  0  0  0  0  0  0  0
    0.8599    1.0800    2.1086 H   0  0  0  0  0  0  0  0  0  0  0  0
    2.1848    2.1014    2.7707 H   0  0  0  0  0  0  0  0  0  0  0  0
    2.5218    0.4257    2.2252 H   0  0  0  0  0  0  0  0  0  0  0  0
    1.7843    0.6236   -2.9971 C   0  0  0  0  0  0  0  0  0  0  0  0
    0.7285    0.2809   -2.9607 H   0  0  0  0  0  0  0  0  0  0  0  0
    2.4051   -0.2976   -2.9977 H   0  0  0  0  0  0  0  0  0  0  0  0
    1.9465    1.1478   -3.9577 H   0  0  0  0  0  0  0  0  0  0  0  0
    3.5535    5.0019   -1.1230 C   0  0  0  0  0  0  0  0  0  0  0  0
    4.2503    5.2942   -0.3126 H   0  0  0  0  0  0  0  0  0  0  0  0
    2.7363    5.7553   -1.1356 H   0  0  0  0  0  0  0  0  0  0  0  0
    4.0901    5.0859   -2.0885 H   0  0  0  0  0  0  0  0  0  0  0  0
   -2.3134   -2.3865   -0.7623 C   0  0  0  0  0  0  0  0  0  0  0  0
   -3.0509   -1.5827   -1.6735 C   0  0  0  0  0  0  0  0  0  0  0  0
   -4.3761   -1.9149   -1.9988 C   0  0  0  0  0  0  0  0  0  0  0  0
   -4.9333   -1.3045   -2.7238 H   0  0  0  0  0  0  0  0  0  0  0  0
   -4.9932   -3.0225   -1.4007 C   0  0  0  0  0  0  0  0  0  0  0  0
   -6.0362   -3.2662   -1.6502 H   0  0  0  0  0  0  0  0  0  0  0  0
   -4.2769   -3.8131   -0.4867 C   0  0  0  0  0  0  0  0  0  0  0  0
   -4.7603   -4.6760   -0.0050 H   0  0  0  0  0  0  0  0  0  0  0  0
   -2.9503   -3.5002   -0.1708 C   0  0  0  0  0  0  0  0  0  0  0  0
   -2.4018   -4.0998    0.5701 H   0  0  0  0  0  0  0  0  0  0  0  0
   -3.4915    1.1082   -2.2318 C   0  0  0  0  0  0  0  0  0  0  0  0
   -4.3763    0.8806   -2.8543 H   0  0  0  0  0  0  0  0  0  0  0  0
   -3.0337    2.0510   -2.5828 H   0  0  0  0  0  0  0  0  0  0  0  0
   -3.7563    1.2029   -1.1629 H   0  0  0  0  0  0  0  0  0  0  0  0
  1 51  1  0  0  0  0
  1 42  1  0  0  0  0
  5 19  1  0  0  0  0
  6  7  1  0  0  0  0
  8  9  1  0  0  0  0
  8  6  2  0  0  0  0
 10  8  1  0  0  0  0
 11 10  1  0  0  0  0
 12 10  2  0  0  0  0
 12 14  1  0  0  0  0
 13 12  1  0  0  0  0
 14 18  2  0  0  0  0
 15  4  1  6  0  0  0
 15 14  1  0  0  0  0
 15 16  1  0  0  0  0
 16 17  1  0  0  0  0
 17  3  2  0  0  0  0
 17  2  1  0  0  0  0
 18  6  1  0  0  0  0
 18  2  1  0  0  0  0
 19 20  1  0  0  0  0
 19 16  2  0  0  0  0
 21  4  1  0  0  0  0
 21 22  1  0  0  0  0
 22 29  1  0  0  0  0
 23 22  2  0  0  0  0
 23 24  1  0  0  0  0
 25 23  1  0  0  0  0
 26 28  1  0  0  0  0
 26 25  2  0  0  0  0
 27 26  1  0  0  0  0
 28 21  2  0  0  0  0
 29 30  1  0  0  0  0
 29 32  1  0  0  0  0
 29 31  1  0  0  0  0
 33 34  1  0  0  0  0
 33 28  1  0  0  0  0
 35 33  1  0  0  0  0
 36 33  1  0  0  0  0
 37 25  1  0  0  0  0
 37 38  1  0  0  0  0
 39 37  1  0  0  0  0
 40 37  1  0  0  0  0
 41  5  1  0  0  0  0
 41 49  1  0  0  0  0
 42 41  2  0  0  0  0
 43 42  1  0  0  0  0
 43 45  2  0  0  0  0
 44 43  1  0  0  0  0
 45 47  1  0  0  0  0
 46 45  1  0  0  0  0
 47 49  2  0  0  0  0
 47 48  1  0  0  0  0
 49 50  1  0  0  0  0
 51 54  1  0  0  0  0
 52 51  1  0  0  0  0
 53 51  1  0  0  0  0
M  END
