1,9,16
q = 0.0, confidence = 0.996

 30 30  0  0  0  0  0  0  0  0999 V2000
    0.7286   -1.3862   -1.7099 N   0  0  0  0  0  0  0  0  0  0  0  0
    1.1082   -0.7381   -2.4126 H   0  0  0  0  0  0  0  0  0  0  0  0
   -0.3735   -2.1718   -2.2697 C   0  0  0  0  0  0  0  0  0  0  0  0
    0.0004   -3.0450   -2.8573 H   0  0  0  0  0  0  0  0  0  0  0  0
   -0.9337   -1.5276   -2.9786 H   0  0  0  0  0  0  0  0  0  0  0  0
   -1.3419   -2.6929   -1.1971 C   0  0  0  0  0  0  0  0  0  0  0  0
   -0.8013   -3.2610   -0.4127 H   0  0  0  0  0  0  0  0  0  0  0  0
   -2.0750   -3.3825   -1.6612 H   0  0  0  0  0  0  0  0  0  0  0  0
   -2.2345   -1.2878   -0.4279 S   0  0  0  0  0  0  0  0  0  0  0  0
   -2.2617   -1.6855    1.3578 C   0  0  0  0  0  0  0  0  0  0  0  0
   -2.8851   -0.8581    1.7555 H   0  0  0  0  0  0  0  0  0  0  0  0
   -2.8080   -2.6372    1.5131 H   0  0  0  0  0  0  0  0  0  0  0  0
   -0.9135   -1.7336    2.0748 C   0  0  0  0  0  0  0  0  0  0  0  0
   -1.1081   -2.0248    3.1368 H   0  0  0  0  0  0  0  0  0  0  0  0
   -0.2863   -2.5471    1.6506 H   0  0  0  0  0  0  0  0  0  0  0  0
   -0.1662   -0.4798    1.9934 N   0  0  0  0  0  0  0  0  0  0  0  0
   -0.7430    0.2942    2.3528 H   0  0  0  0  0  0  0  0  0  0  0  0
    1.1481   -0.4898    2.6496 C   0  0  0  0  0  0  0  0  0  0  0  0
    1.4877    0.5629    2.7200 H   0  0  0  0  0  0  0  0  0  0  0  0
    1.0996   -0.9172    3.6794 H   0  0  0  0  0  0  0  0  0  0  0  0
    2.1874   -1.2594    1.8411 C   0  0  0  0  0  0  0  0  0  0  0  0
    3.1501   -1.2812    2.4047 H   0  0  0  0  0  0  0  0  0  0  0  0
    1.8733   -2.3219    1.6985 H   0  0  0  0  0  0  0  0  0  0  0  0
    2.3426   -0.5947    0.6044 O   0  0  0  0  0  0  0  0  0  0  0  0
    2.8818   -1.3425   -0.4697 C   0  0  0  0  0  0  0  0  0  0  0  0
    3.7231   -1.9916   -0.1343 H   0  0  0  0  0  0  0  0  0  0  0  0
    3.2828   -0.5882   -1.1773 H   0  0  0  0  0  0  0  0  0  0  0  0
    1.8219   -2.1976   -1.1628 C   0  0  0  0  0  0  0  0  0  0  0  0
    2.3149   -2.8151   -1.9535 H   0  0  0  0  0  0  0  0  0  0  0  0
    1.3902   -2.9184   -0.4358 H   0  0  0  0  0  0  0  0  0  0  0  0
  1 28  1  0  0  0  0
  2  1  1  0  0  0  0
  3  1  1  0  0  0  0
  3  6  1  0  0  0  0
  4  3  1  0  0  0  0
  5  3  1  0  0  0  0
  6  9  1  0  0  0  0
  6  7  1  0  0  0  0
  8  6  1  0  0  0  0
  9 10  1  0  0  0  0
 10 12  1  0  0  0  0
 10 11  1  0  0  0  0
 10 13  1  0  0  0  0
 13 14  1  0  0  0  0
 15 13  1  0  0  0  0
 16 13  1  0  0  0  0
 16 17  1  0  0  0  0
 16 18  1  0  0  0  0
 18 19  1  0  0  0  0
 18 20  1  0  0  0  0
 21 22  1  0  0  0  0
 21 18  1  0  0  0  0
 23 21  1  0  0  0  0
 24 21  1  0  0  0  0
 25 26  1  0  0  0  0
 25 24  1  0  0  0  0
 27 25  1  0  0  0  0
 28 25  1  0  0  0  0
 28 30  1  0  0  0  0
 29 28  1  0  0  0  0
M  END
