1,2,3
q = -1.0

 24 24  0  0  0  0  0  0  0  0999 V2000
   -0.8665   -1.8032   -1.3570 S   0  0  0  0  0  1  0  0  0  0  0  0
    0.4010    1.1414    1.3365 N   0  0  0  0  0  2  0  0  0  0  0  0
   -1.6877   -0.2241    0.8381 N   0  0  0  0  0  2  0  0  0  0  0  0
   -2.7199   -1.0169    0.4879 N   0  0  0  0  0  0  0  0  0  0  0  0
   -0.6764    1.4370    2.1302 C   0  0  0  0  0  0  0  0  0  0  0  0
   -1.8550    0.6284    1.8452 C   0  0  0  0  0  0  0  0  0  0  0  0
   -3.0547    0.7573    2.4837 N   0  0  0  0  0  0  0  0  0  0  0  0
   -2.4225   -1.8174   -0.5389 C   0  0  0  0  0  0  0  0  0  0  0  0
   -3.3675   -2.6793   -0.9752 N   0  0  0  0  0  0  0  0  0  0  0  0
    1.5652    1.7850    1.5182 C   0  0  0  0  0  0  0  0  0  0  0  0
   -0.5931    2.4388    3.1148 C   0  0  0  0  0  0  0  0  0  0  0  0
    1.7202    2.7771    2.4960 C   0  0  0  0  0  0  0  0  0  0  0  0
    0.6195    3.1132    3.2993 C   0  0  0  0  0  0  0  0  0  0  0  0
   -4.6816   -2.7963   -0.3717 C   0  0  0  0  0  0  0  0  0  0  0  0
    2.3960    1.4823    0.8639 H   0  0  0  0  0  0  0  0  0  0  0  0
   -1.4744    2.6923    3.7205 H   0  0  0  0  0  0  0  0  0  0  0  0
    2.6921    3.2750    2.6162 H   0  0  0  0  0  0  0  0  0  0  0  0
    0.7051    3.8967    4.0663 H   0  0  0  0  0  0  0  0  0  0  0  0
   -4.6124   -3.1205    0.6881 H   0  0  0  0  0  0  0  0  0  0  0  0
   -5.2714   -3.5407   -0.9359 H   0  0  0  0  0  0  0  0  0  0  0  0
   -5.2154   -1.8240   -0.3938 H   0  0  0  0  0  0  0  0  0  0  0  0
   -3.1059   -3.3061   -1.7358 H   0  0  0  0  0  0  0  0  0  0  0  0
   -3.0616    1.0559    3.4589 H   0  0  0  0  0  0  0  0  0  0  0  0
   -3.7205    0.0176    2.2341 H   0  0  0  0  0  0  0  0  0  0  0  0
  1  8  1  0  0  0  0
  2 10  1  0  0  0  0
  2  5  1  0  0  0  0
  3  6  1  0  0  0  0
  4  3  1  0  0  0  0
  5 11  1  0  0  0  0
  6  5  2  0  0  0  0
  6  7  1  0  0  0  0
  7 23  1  0  0  0  0
  8  4  2  0  0  0  0
  9  8  1  0  0  0  0
  9 14  1  0  0  0  0
 10 12  2  0  0  0  0
 11 13  2  0  0  0  0
 11 16  1  0  0  0  0
 12 17  1  0  0  0  0
 12 13  1  0  0  0  0
 13 18  1  0  0  0  0
 14 19  1  0  0  0  0
 15 10  1  0  0  0  0
 20 14  1  0  0  0  0
 21 14  1  0  0  0  0
 22  9  1  0  0  0  0
 24  7  1  0  0  0  0
M  END
