1,3,4
q = -1.0, confidence = 0.0

 21 21  0  0  0  0  0  0  0  0999 V2000
    2.1831   -2.0046   -0.0410 S   0  0  0  0  0  1  0  0  0  0  0  0
    5.0127   -1.2202   -0.8107 S   0  0  0  0  0  0  0  0  0  0  0  0
   -0.8144    1.6248   -1.2422 N   0  0  0  0  0  2  0  0  0  0  0  0
    1.7922    0.7342   -1.3136 N   0  0  0  0  0  2  0  0  0  0  0  0
    3.0572    0.3282   -1.2899 N   0  0  0  0  0  0  0  0  0  0  0  0
   -2.0868    2.0349   -1.2314 C   0  0  0  0  0  3  0  0  0  0  0  0
   -2.8059    1.3684   -0.7245 H   0  0  0  0  0  0  0  0  0  0  0  0
   -2.5030    3.2400   -1.8203 C   0  0  0  0  0  0  0  0  0  0  0  0
   -3.5607    3.5370   -1.7880 H   0  0  0  0  0  0  0  0  0  0  0  0
   -1.5322    4.0409   -2.4450 C   0  0  0  0  0  0  0  0  0  0  0  0
   -1.8142    4.9931   -2.9196 H   0  0  0  0  0  0  0  0  0  0  0  0
   -0.2014    3.6140   -2.4610 C   0  0  0  0  0  0  0  0  0  0  0  0
    0.5842    4.2138   -2.9443 H   0  0  0  0  0  0  0  0  0  0  0  0
    0.1364    2.3832   -1.8475 C   0  0  0  0  0  0  0  0  0  0  0  0
    1.5094    1.8975   -1.8443 C   0  0  0  0  0  3  0  0  0  0  0  0
    2.3118    2.5164   -2.2881 H   0  0  0  0  0  0  0  0  0  0  0  0
    3.2768   -0.8795   -0.7361 C   0  0  0  0  0  0  0  0  0  0  0  0
    5.1448   -2.8502   -0.0277 C   0  0  0  0  0  0  0  0  0  0  0  0
    4.7785   -2.8195    1.0164 H   0  0  0  0  0  0  0  0  0  0  0  0
    6.2233   -3.1001   -0.0474 H   0  0  0  0  0  0  0  0  0  0  0  0
    4.5682   -3.6076   -0.5925 H   0  0  0  0  0  0  0  0  0  0  0  0
  2 17  1  0  0  0  0
  2 18  1  0  0  0  0
  3  6  1  0  0  0  0
  4  5  1  0  0  0  0
  5 17  2  0  0  0  0
  6  7  1  0  0  0  0
  8  9  1  0  0  0  0
  8  6  1  0  0  0  0
 10  8  2  0  0  0  0
 11 10  1  0  0  0  0
 12 10  1  0  0  0  0
 12 14  2  0  0  0  0
 13 12  1  0  0  0  0
 14 15  1  0  0  0  0
 14  3  1  0  0  0  0
 15  4  1  0  0  0  0
 16 15  1  0  0  0  0
 17  1  1  0  0  0  0
 18 19  1  0  0  0  0
 20 18  1  0  0  0  0
 21 18  1  0  0  0  0
M  END
