1,3,4
q = 0.0, confidence = 0.978

 22 22  0  0  1  0  0  0  0  0999 V2000
   -2.3640    0.4145   -1.7774 S   0  0  0  0  0  1  0  0  0  0  0  0
   -5.0072   -0.7921   -1.5757 S   0  0  0  0  0  0  0  0  0  0  0  0
    0.5395   -0.5386    1.9659 N   0  0  0  0  0  2  0  0  0  0  0  0
   -1.9640   -0.8925    0.9409 N   0  0  0  0  0  2  0  0  0  0  0  0
   -3.1579   -1.0563    0.3581 N   0  0  0  0  0  0  0  0  0  0  0  0
   -3.8792   -1.6187    0.8322 H   0  0  0  0  0  0  0  0  0  0  0  0
    1.7772   -0.3936    2.4531 C   0  0  0  0  0  3  0  0  0  0  0  0
    2.4934    0.1460    1.8119 H   0  0  0  0  0  0  0  0  0  0  0  0
    2.1660   -0.9068    3.7039 C   0  0  0  0  0  0  0  0  0  0  0  0
    3.1947   -0.7596    4.0624 H   0  0  0  0  0  0  0  0  0  0  0  0
    1.2210   -1.6053    4.4667 C   0  0  0  0  0  0  0  0  0  0  0  0
    1.4886   -2.0238    5.4481 H   0  0  0  0  0  0  0  0  0  0  0  0
   -0.0732   -1.7705    3.9544 C   0  0  0  0  0  0  0  0  0  0  0  0
   -0.8402   -2.3222    4.5180 H   0  0  0  0  0  0  0  0  0  0  0  0
   -0.3784   -1.2204    2.6935 C   0  0  0  0  0  0  0  0  0  0  0  0
   -1.7116   -1.3918    2.1100 C   0  0  0  0  0  3  0  0  0  0  0  0
   -2.4663   -1.9662    2.6860 H   0  0  0  0  0  0  0  0  0  0  0  0
   -3.4312   -0.5124   -0.8769 C   0  0  2  0  0  3  0  0  0  0  0  0
   -5.9058   -1.8032   -0.3499 C   0  0  0  0  0  0  0  0  0  0  0  0
   -5.4325   -2.7946   -0.2004 H   0  0  0  0  0  0  0  0  0  0  0  0
   -6.9013   -1.9688   -0.8051 H   0  0  0  0  0  0  0  0  0  0  0  0
   -6.0553   -1.2658    0.6082 H   0  0  0  0  0  0  0  0  0  0  0  0
  2 18  1  0  0  0  0
  2 19  1  0  0  0  0
  3  7  1  0  0  0  0
  3 15  1  0  0  0  0
  4 16  1  0  0  0  0
  5  6  1  0  0  0  0
  5  4  1  0  0  0  0
  7  9  1  0  0  0  0
  8  7  1  0  0  0  0
  9 10  1  0  0  0  0
  9 11  2  0  0  0  0
 11 12  1  0  0  0  0
 13 11  1  0  0  0  0
 13 14  1  0  0  0  0
 15 13  2  0  0  0  0
 16 17  1  0  0  0  0
 16 15  1  0  0  0  0
 18  1  1  1  0  0  0
 18  5  1  0  0  0  0
 19 20  1  0  0  0  0
 19 22  1  0  0  0  0
 21 19  1  0  0  0  0
M  END
