2,12,15
q = -1.0

 25 25  0  0  0  0  0  0  0  0999 V2000
   -3.7743   -0.8080   -0.4434 S   0  0  0  0  0  0  0  0  0  0  0  0
   -1.1069   -1.9883   -0.0319 S   0  0  0  0  0  1  0  0  0  0  0  0
    4.0590    2.8272   -0.0528 C   0  0  0  0  0  0  0  0  0  0  0  0
    4.7287    3.6997   -0.0814 H   0  0  0  0  0  0  0  0  0  0  0  0
   -5.7191    2.0100    1.2095 C   0  0  0  0  0  0  0  0  0  0  0  0
   -6.6826    1.7970    0.7164 H   0  0  0  0  0  0  0  0  0  0  0  0
   -5.7560    2.5453    2.1707 H   0  0  0  0  0  0  0  0  0  0  0  0
   -4.4216    0.9140   -0.6423 C   0  0  0  0  0  0  0  0  0  0  0  0
   -3.7195    1.4220   -1.3323 H   0  0  0  0  0  0  0  0  0  0  0  0
   -5.4011    0.7768   -1.1428 H   0  0  0  0  0  0  0  0  0  0  0  0
   -1.5793    0.7003   -0.3736 N   0  0  0  0  0  0  0  0  0  0  0  0
   -0.2436    0.7558   -0.2485 N   0  0  0  0  0  2  0  0  0  0  0  0
    4.5788    1.5374    0.1364 C   0  0  0  0  0  0  0  0  0  0  0  0
    5.6569    1.3648    0.2600 H   0  0  0  0  0  0  0  0  0  0  0  0
    2.3712    0.6168    0.0204 N   0  0  0  0  0  2  0  0  0  0  0  0
    3.6921    0.4492    0.1669 C   0  0  0  0  0  0  0  0  0  0  0  0
    4.0109   -0.5979    0.3101 H   0  0  0  0  0  0  0  0  0  0  0  0
    1.8351    1.8700   -0.1666 C   0  0  0  0  0  0  0  0  0  0  0  0
    2.6773    2.9994   -0.2061 C   0  0  0  0  0  0  0  0  0  0  0  0
    2.2397    3.9965   -0.3562 H   0  0  0  0  0  0  0  0  0  0  0  0
   -4.5500    1.6354    0.6613 C   0  0  0  0  0  0  0  0  0  0  0  0
    0.3966    1.9143   -0.3119 C   0  0  0  0  0  0  0  0  0  0  0  0
   -0.1666    2.8471   -0.4693 H   0  0  0  0  0  0  0  0  0  0  0  0
   -2.0522   -0.5418   -0.2880 C   0  0  0  0  0  0  0  0  0  0  0  0
   -3.5968    1.8556    1.1724 H   0  0  0  0  0  0  0  0  0  0  0  0
  1 24  1  0  0  0  0
  3 13  1  0  0  0  0
  4  3  1  0  0  0  0
  5  7  1  0  0  0  0
  6  5  1  0  0  0  0
  8  1  1  0  0  0  0
  8 21  1  0  0  0  0
  9  8  1  0  0  0  0
 10  8  1  0  0  0  0
 11 24  2  0  0  0  0
 11 12  1  0  0  0  0
 13 16  2  0  0  0  0
 13 14  1  0  0  0  0
 15 16  1  0  0  0  0
 16 17  1  0  0  0  0
 18 15  1  0  0  0  0
 19 18  1  0  0  0  0
 19  3  2  0  0  0  0
 20 19  1  0  0  0  0
 21 25  1  0  0  0  0
 21  5  2  0  0  0  0
 22 12  1  0  0  0  0
 22 18  2  0  0  0  0
 23 22  1  0  0  0  0
 24  2  1  0  0  0  0
M  END
