1,3,4
q = -2.0, confidence = 0.856

 35 37  0  0  0  0  0  0  0  0999 V2000
   -0.3413   -1.7931    0.0434 S   0  0  0  0  0  1  0  0  0  0  0  0
   -3.2021   -0.9684    0.0427 S   0  0  0  0  0  0  0  0  0  0  0  0
    2.9492    0.6063    0.2410 N   0  0  0  0  0  0  0  0  0  0  0  0
    0.1911    0.9822   -0.0318 N   0  0  0  0  0  2  0  0  0  0  0  0
   -1.1711    0.7651   -0.0159 N   0  0  0  0  0  0  0  0  0  0  0  0
    4.2720    0.2523    0.5112 C   0  0  0  0  0  3  0  0  0  0  0  0
    4.5414   -0.7870    0.7289 H   0  0  0  0  0  0  0  0  0  0  0  0
    5.1128    1.3565    0.4931 C   0  0  0  0  0  0  0  0  0  0  0  0
    6.1926    1.3550    0.6802 H   0  0  0  0  0  0  0  0  0  0  0  0
    4.2778    2.4894    0.2039 C   0  0  0  0  0  0  0  0  0  0  0  0
    4.4756    3.8739    0.0510 C   0  0  0  0  0  0  0  0  0  0  0  0
    5.4842    4.3070    0.1406 H   0  0  0  0  0  0  0  0  0  0  0  0
    3.3694    4.7077   -0.2094 C   0  0  0  0  0  0  0  0  0  0  0  0
    3.5238    5.7908   -0.3263 H   0  0  0  0  0  0  0  0  0  0  0  0
    2.0697    4.1853   -0.3059 C   0  0  0  0  0  3  0  0  0  0  0  0
    1.2167    4.8583   -0.4838 H   0  0  0  0  0  0  0  0  0  0  0  0
    1.8253    2.7947   -0.1609 C   0  0  0  0  0  0  0  0  0  0  0  0
    2.9461    1.9575    0.0699 C   0  0  0  0  0  0  0  0  0  0  0  0
    0.5041    2.2627   -0.1834 C   0  0  0  0  0  0  0  0  0  0  0  0
   -0.3541    2.9458   -0.3070 H   0  0  0  0  0  0  0  0  0  0  0  0
   -1.5071   -0.4949    0.0247 C   0  0  0  0  0  0  0  0  0  0  0  0
   -4.0227    0.6847   -0.0321 C   0  0  0  0  0  0  0  0  0  0  0  0
   -3.6692    1.2715    0.8373 H   0  0  0  0  0  0  0  0  0  0  0  0
   -3.6683    1.1907   -0.9506 H   0  0  0  0  0  0  0  0  0  0  0  0
   -5.5127    0.4796   -0.0239 C   0  0  0  0  0  0  0  0  0  0  0  0
   -6.2184    0.2979   -1.2308 C   0  0  0  0  0  0  0  0  0  0  0  0
   -5.6692    0.3269   -2.1850 H   0  0  0  0  0  0  0  0  0  0  0  0
   -7.6043    0.0840   -1.2233 C   0  0  0  0  0  0  0  0  0  0  0  0
   -8.1426   -0.0500   -2.1740 H   0  0  0  0  0  0  0  0  0  0  0  0
   -8.3035    0.0418   -0.0064 C   0  0  0  0  0  0  0  0  0  0  0  0
   -9.3915   -0.1245    0.0002 H   0  0  0  0  0  0  0  0  0  0  0  0
   -7.6094    0.2136    1.2019 C   0  0  0  0  0  0  0  0  0  0  0  0
   -8.1517    0.1815    2.1592 H   0  0  0  0  0  0  0  0  0  0  0  0
   -6.2235    0.4274    1.1924 C   0  0  0  0  0  0  0  0  0  0  0  0
   -5.6783    0.5584    2.1404 H   0  0  0  0  0  0  0  0  0  0  0  0
  3  6  1  0  0  0  0
  4  5  1  0  0  0  0
  5 21  2  0  0  0  0
  6  7  1  0  0  0  0
  8  6  1  0  0  0  0
  8  9  1  0  0  0  0
 10  8  2  0  0  0  0
 11 12  1  0  0  0  0
 11 10  1  0  0  0  0
 13 11  2  0  0  0  0
 14 13  1  0  0  0  0
 15 13  1  0  0  0  0
 15 17  1  0  0  0  0
 16 15  1  0  0  0  0
 17 18  1  0  0  0  0
 18 10  1  0  0  0  0
 18  3  2  0  0  0  0
 19 17  2  0  0  0  0
 19  4  1  0  0  0  0
 20 19  1  0  0  0  0
 21  2  1  0  0  0  0
 21  1  1  0  0  0  0
 22 25  1  0  0  0  0
 22  2  1  0  0  0  0
 22 23  1  0  0  0  0
 24 22  1  0  0  0  0
 25 34  1  0  0  0  0
 26 28  1  0  0  0  0
 26 25  2  0  0  0  0
 27 26  1  0  0  0  0
 28 30  2  0  0  0  0
 29 28  1  0  0  0  0
 30 31  1  0  0  0  0
 30 32  1  0  0  0  0
 32 33  1  0  0  0  0
 34 32  2  0  0  0  0
 34 35  1  0  0  0  0
M  END
