1,2,5
q = -1.0, confidence = 0.0

 36 37  0  0  1  0  0  0  0  0999 V2000
   -0.8914   -1.4385    0.0636 S   0  0  0  0  0  1  0  0  0  0  0  0
    0.7845    2.3083   -0.5460 N   0  0  0  0  0  2  0  0  0  0  0  0
    1.8293    3.0853   -0.2319 N   0  0  0  0  0  0  0  0  0  0  0  0
    2.4275    2.8302    0.5575 H   0  0  0  0  0  0  0  0  0  0  0  0
   -1.0684    0.9046   -1.5428 N   0  0  0  0  0  2  0  0  0  0  0  0
   -2.0941    0.1065   -1.8462 N   0  0  0  0  0  0  0  0  0  0  0  0
   -3.0912   -1.9327   -1.4076 N   0  0  0  0  0  0  0  0  0  0  0  0
    3.0152    5.1793   -0.9394 C   0  0  0  0  0  0  0  0  0  0  0  0
    2.8405    5.8182   -0.0487 H   0  0  0  0  0  0  0  0  0  0  0  0
    3.0324    5.8371   -1.8268 H   0  0  0  0  0  0  0  0  0  0  0  0
    4.0195    4.7207   -0.8351 H   0  0  0  0  0  0  0  0  0  0  0  0
    1.9515    4.1452   -1.0921 C   0  0  2  0  0  3  0  0  0  0  0  0
    0.9123    4.0167   -2.0214 C   0  0  0  0  0  0  0  0  0  0  0  0
    0.7086    4.6863   -2.8623 H   0  0  0  0  0  0  0  0  0  0  0  0
    0.2088    2.8396   -1.6539 C   0  0  0  0  0  0  0  0  0  0  0  0
   -0.8840    2.0554   -2.1733 C   0  0  0  0  0  3  0  0  0  0  0  0
   -1.5347    2.3513   -3.0088 H   0  0  0  0  0  0  0  0  0  0  0  0
   -2.1035   -1.0449   -1.1496 C   0  0  0  0  0  0  0  0  0  0  0  0
   -3.2868   -3.1171   -0.5719 C   0  0  0  0  0  0  0  0  0  0  0  0
   -2.3007   -3.5947   -0.3939 H   0  0  0  0  0  0  0  0  0  0  0  0
   -3.8790   -3.8256   -1.1827 H   0  0  0  0  0  0  0  0  0  0  0  0
   -3.9995   -2.8338    0.7684 C   0  0  0  0  0  0  0  0  0  0  0  0
   -3.2431   -2.6171    1.5494 H   0  0  0  0  0  0  0  0  0  0  0  0
   -4.5068   -3.7723    1.0764 H   0  0  0  0  0  0  0  0  0  0  0  0
   -5.0120   -1.6763    0.7319 C   0  0  0  0  0  0  0  0  0  0  0  0
   -5.6142   -1.7292    1.6626 H   0  0  0  0  0  0  0  0  0  0  0  0
   -4.4569   -0.7122    0.7935 H   0  0  0  0  0  0  0  0  0  0  0  0
   -5.9525   -1.6166   -0.4878 C   0  0  0  0  0  0  0  0  0  0  0  0
   -6.8744   -1.0699   -0.2008 H   0  0  0  0  0  0  0  0  0  0  0  0
   -6.2914   -2.6415   -0.7596 H   0  0  0  0  0  0  0  0  0  0  0  0
   -5.3544   -0.9106   -1.7149 C   0  0  0  0  0  0  0  0  0  0  0  0
   -5.0380    0.1162   -1.4254 H   0  0  0  0  0  0  0  0  0  0  0  0
   -6.1338   -0.7829   -2.4957 H   0  0  0  0  0  0  0  0  0  0  0  0
   -4.1588   -1.6135   -2.3656 C   0  0  0  0  0  0  0  0  0  0  0  0
   -4.4756   -2.5749   -2.8206 H   0  0  0  0  0  0  0  0  0  0  0  0
   -3.7272   -0.9808   -3.1623 H   0  0  0  0  0  0  0  0  0  0  0  0
  2  3  1  0  0  0  0
  3  4  1  0  0  0  0
  6  5  1  0  0  0  0
  6 18  2  0  0  0  0
  7 18  1  0  0  0  0
  7 19  1  0  0  0  0
  8 11  1  0  0  0  0
  8  9  1  0  0  0  0
 10  8  1  0  0  0  0
 12  8  1  1  0  0  0
 12  3  1  0  0  0  0
 13 15  2  0  0  0  0
 13 12  1  0  0  0  0
 14 13  1  0  0  0  0
 15  2  1  0  0  0  0
 16 15  1  0  0  0  0
 16  5  1  0  0  0  0
 17 16  1  0  0  0  0
 18  1  1  0  0  0  0
 19 20  1  0  0  0  0
 19 22  1  0  0  0  0
 21 19  1  0  0  0  0
 22 24  1  0  0  0  0
 22 23  1  0  0  0  0
 25 22  1  0  0  0  0
 25 27  1  0  0  0  0
 25 26  1  0  0  0  0
 28 29  1  0  0  0  0
 28 25  1  0  0  0  0
 30 28  1  0  0  0  0
 31 32  1  0  0  0  0
 31 28  1  0  0  0  0
 33 31  1  0  0  0  0
 34 31  1  0  0  0  0
 34  7  1  0  0  0  0
 35 34  1  0  0  0  0
 36 34  1  0  0  0  0
M  END
