1,9,13
q = -1.0

 32 33  0  0  1  0  0  0  0  0999 V2000
    2.3245    1.0029   -0.4570 N   0  0  0  0  0  2  0  0  0  0  0  0
    3.6027    1.0119   -0.9026 C   0  0  0  0  0  3  0  0  0  0  0  0
    4.3751    2.1722   -0.9631 C   0  0  0  0  0  0  0  0  0  0  0  0
    3.8154    3.3865   -0.5224 C   0  0  0  0  0  0  0  0  0  0  0  0
    2.4965    3.3933   -0.0686 C   0  0  0  0  0  0  0  0  0  0  0  0
    1.7519    2.1924   -0.0565 C   0  0  0  0  0  0  0  0  0  0  0  0
    0.3373    2.1302    0.2678 C   0  0  1  0  0  3  0  0  0  0  0  0
   -0.5125    3.3572    0.3826 C   0  0  0  0  0  0  0  0  0  0  0  0
   -0.1574    0.8987    0.2859 N   0  0  0  0  0  2  0  0  0  0  0  0
   -1.4993    0.7287    0.2088 N   0  0  0  0  0  2  0  0  0  0  0  0
   -1.8184   -0.2223   -0.6606 C   0  0  1  0  0  3  0  0  0  0  0  0
   -3.1288   -0.5456   -0.8979 N   0  0  0  0  0  0  0  0  0  0  0  0
   -0.6305   -1.0786   -1.6480 S   0  0  0  0  0  1  0  0  0  0  0  0
   -4.3260   -0.0262   -0.3836 C   0  0  0  0  0  0  0  0  0  0  0  0
   -5.5298   -0.4833   -0.9718 C   0  0  0  0  0  0  0  0  0  0  0  0
   -6.7665   -0.0210   -0.5117 C   0  0  0  0  0  0  0  0  0  0  0  0
   -6.8308    0.9071    0.5410 C   0  0  0  0  0  0  0  0  0  0  0  0
   -5.6380    1.3572    1.1269 C   0  0  0  0  0  0  0  0  0  0  0  0
   -4.3893    0.9010    0.6811 C   0  0  0  0  0  0  0  0  0  0  0  0
    4.0079    0.0386   -1.2161 H   0  0  0  0  0  0  0  0  0  0  0  0
    5.4028    2.1192   -1.3483 H   0  0  0  0  0  0  0  0  0  0  0  0
    4.4050    4.3149   -0.5367 H   0  0  0  0  0  0  0  0  0  0  0  0
    2.0255    4.3216    0.2820 H   0  0  0  0  0  0  0  0  0  0  0  0
   -0.3470    4.0461   -0.4704 H   0  0  0  0  0  0  0  0  0  0  0  0
   -0.2722    3.9159    1.3121 H   0  0  0  0  0  0  0  0  0  0  0  0
   -1.5778    3.0679    0.4083 H   0  0  0  0  0  0  0  0  0  0  0  0
   -3.2344   -1.2809   -1.6000 H   0  0  0  0  0  0  0  0  0  0  0  0
   -5.4857   -1.2080   -1.8009 H   0  0  0  0  0  0  0  0  0  0  0  0
   -7.6898   -0.3900   -0.9836 H   0  0  0  0  0  0  0  0  0  0  0  0
   -7.8034    1.2717    0.9029 H   0  0  0  0  0  0  0  0  0  0  0  0
   -5.6733    2.0778    1.9585 H   0  0  0  0  0  0  0  0  0  0  0  0
   -3.4577    1.2425    1.1462 H   0  0  0  0  0  0  0  0  0  0  0  0
  1  6  1  0  0  0  0
  2  1  1  0  0  0  0
  3  2  1  0  0  0  0
  3  4  2  0  0  0  0
  4  5  1  0  0  0  0
  5  6  2  0  0  0  0
  5 23  1  0  0  0  0
  6  7  1  0  0  0  0
  7  9  1  6  0  0  0
  7  8  1  0  0  0  0
  8 26  1  0  0  0  0
  8 25  1  0  0  0  0
 10  9  1  0  0  0  0
 11 13  1  6  0  0  0
 11 10  1  0  0  0  0
 12 11  1  0  0  0  0
 12 14  1  0  0  0  0
 14 19  1  0  0  0  0
 15 16  1  0  0  0  0
 15 14  2  0  0  0  0
 16 17  2  0  0  0  0
 17 30  1  0  0  0  0
 17 18  1  0  0  0  0
 18 31  1  0  0  0  0
 19 18  2  0  0  0  0
 19 32  1  0  0  0  0
 20  2  1  0  0  0  0
 21  3  1  0  0  0  0
 22  4  1  0  0  0  0
 24  8  1  0  0  0  0
 27 12  1  0  0  0  0
 28 15  1  0  0  0  0
 29 16  1  0  0  0  0
M  END
