1,3,4
q = -1.0

 53 57  0  0  0  0  0  0  0  0999 V2000
   -0.5743   -3.0532   -0.5764 S   0  0  0  0  0  0  0  0  0  0  0  0
    1.4294    0.8259    0.1744 P   0  0  0  0  0  4  0  0  0  0  0  0
    0.9452   -0.5185   -0.7162 N   0  0  0  0  0  2  0  0  0  0  0  0
   -1.1784    1.2223   -0.3025 N   0  0  0  0  0  0  0  0  0  0  0  0
    0.0085    1.8701    0.0204 C   0  0  0  0  0  3  0  0  0  0  0  0
   -0.1652    3.2515    0.1395 C   0  0  0  0  0  0  0  0  0  0  0  0
    0.6048    3.9955    0.3728 H   0  0  0  0  0  0  0  0  0  0  0  0
   -1.5484    3.4821   -0.1404 C   0  0  0  0  0  0  0  0  0  0  0  0
   -2.3428    4.6540   -0.2062 C   0  0  0  0  0  0  0  0  0  0  0  0
   -1.8982    5.6358    0.0162 H   0  0  0  0  0  0  0  0  0  0  0  0
   -3.6833    4.5419   -0.5645 C   0  0  0  0  0  0  0  0  0  0  0  0
   -4.3120    5.4426   -0.6206 H   0  0  0  0  0  0  0  0  0  0  0  0
   -4.2505    3.2779   -0.8820 C   0  0  0  0  0  0  0  0  0  0  0  0
   -5.3052    3.2268   -1.1919 H   0  0  0  0  0  0  0  0  0  0  0  0
   -3.5005    2.1040   -0.8280 C   0  0  0  0  0  0  0  0  0  0  0  0
   -3.9471    1.1436   -1.1165 H   0  0  0  0  0  0  0  0  0  0  0  0
   -2.1444    2.1954   -0.4329 C   0  0  0  0  0  0  0  0  0  0  0  0
    1.7469   -1.6259   -1.0198 C   0  0  0  0  0  0  0  0  0  0  0  0
    3.1232   -1.5479   -1.3585 C   0  0  0  0  0  0  0  0  0  0  0  0
    3.6233   -0.5709   -1.3759 H   0  0  0  0  0  0  0  0  0  0  0  0
    3.8418   -2.7004   -1.6958 C   0  0  0  0  0  0  0  0  0  0  0  0
    4.9056   -2.6036   -1.9597 H   0  0  0  0  0  0  0  0  0  0  0  0
    3.2269   -3.9651   -1.7291 C   0  0  0  0  0  0  0  0  0  0  0  0
    3.7976   -4.8596   -2.0154 H   0  0  0  0  0  0  0  0  0  0  0  0
    1.8680   -4.0678   -1.4089 C   0  0  0  0  0  0  0  0  0  0  0  0
    1.3542   -5.0410   -1.4382 H   0  0  0  0  0  0  0  0  0  0  0  0
    1.1547   -2.9154   -1.0432 C   0  0  0  0  0  0  0  0  0  0  0  0
   -0.4296   -3.5613    1.1836 C   0  0  0  0  0  0  0  0  0  0  0  0
    0.2172   -2.8500    1.7298 H   0  0  0  0  0  0  0  0  0  0  0  0
   -1.4529   -3.5619    1.6045 H   0  0  0  0  0  0  0  0  0  0  0  0
   -0.0091   -4.5840    1.2148 H   0  0  0  0  0  0  0  0  0  0  0  0
    2.8857    1.6752   -0.4791 C   0  0  0  0  0  0  0  0  0  0  0  0
    2.8330    2.1285   -1.8166 C   0  0  0  0  0  0  0  0  0  0  0  0
    1.9275    1.9617   -2.4201 H   0  0  0  0  0  0  0  0  0  0  0  0
    3.9402    2.7878   -2.3627 C   0  0  0  0  0  0  0  0  0  0  0  0
    3.9064    3.1430   -3.4032 H   0  0  0  0  0  0  0  0  0  0  0  0
    5.0907    2.9992   -1.5813 C   0  0  0  0  0  0  0  0  0  0  0  0
    5.9578    3.5195   -2.0150 H   0  0  0  0  0  0  0  0  0  0  0  0
    5.1370    2.5553   -0.2504 C   0  0  0  0  0  0  0  0  0  0  0  0
    6.0355    2.7296    0.3596 H   0  0  0  0  0  0  0  0  0  0  0  0
    4.0350    1.8900    0.3080 C   0  0  0  0  0  0  0  0  0  0  0  0
    4.0671    1.5422    1.3511 H   0  0  0  0  0  0  0  0  0  0  0  0
    1.7367    0.3620    1.9065 C   0  0  0  0  0  0  0  0  0  0  0  0
    2.5985   -0.7172    2.2096 C   0  0  0  0  0  0  0  0  0  0  0  0
    3.1274   -1.2545    1.4078 H   0  0  0  0  0  0  0  0  0  0  0  0
    2.7769   -1.1046    3.5452 C   0  0  0  0  0  0  0  0  0  0  0  0
    3.4492   -1.9421    3.7845 H   0  0  0  0  0  0  0  0  0  0  0  0
    2.1050   -0.4231    4.5749 C   0  0  0  0  0  0  0  0  0  0  0  0
    2.2518   -0.7295    5.6214 H   0  0  0  0  0  0  0  0  0  0  0  0
    1.2502    0.6485    4.2718 C   0  0  0  0  0  0  0  0  0  0  0  0
    0.7264    1.1826    5.0786 H   0  0  0  0  0  0  0  0  0  0  0  0
    1.0606    1.0436    2.9389 C   0  0  0  0  0  0  0  0  0  0  0  0
    0.3872    1.8793    2.6910 H   0  0  0  0  0  0  0  0  0  0  0  0
  1 28  1  0  0  0  0
  2 43  1  0  0  0  0
  3  2  1  0  0  0  0
  4  5  1  0  0  0  0
  5  6  1  0  0  0  0
  5  2  1  0  0  0  0
  6  7  1  0  0  0  0
  8  6  2  0  0  0  0
  9  8  1  0  0  0  0
  9 10  1  0  0  0  0
 11  9  2  0  0  0  0
 12 11  1  0  0  0  0
 13 15  2  0  0  0  0
 13 11  1  0  0  0  0
 14 13  1  0  0  0  0
 15 17  1  0  0  0  0
 16 15  1  0  0  0  0
 17  4  2  0  0  0  0
 17  8  1  0  0  0  0
 18  3  1  0  0  0  0
 19 18  2  0  0  0  0
 20 19  1  0  0  0  0
 21 19  1  0  0  0  0
 22 21  1  0  0  0  0
 23 21  2  0  0  0  0
 23 25  1  0  0  0  0
 24 23  1  0  0  0  0
 25 27  2  0  0  0  0
 26 25  1  0  0  0  0
 27 18  1  0  0  0  0
 27  1  1  0  0  0  0
 28 31  1  0  0  0  0
 28 30  1  0  0  0  0
 28 29  1  0  0  0  0
 32  2  1  0  0  0  0
 32 41  1  0  0  0  0
 33 32  2  0  0  0  0
 34 33  1  0  0  0  0
 35 33  1  0  0  0  0
 35 37  2  0  0  0  0
 36 35  1  0  0  0  0
 37 39  1  0  0  0  0
 38 37  1  0  0  0  0
 39 41  2  0  0  0  0
 39 40  1  0  0  0  0
 41 42  1  0  0  0  0
 43 44  2  0  0  0  0
 43 52  1  0  0  0  0
 44 46  1  0  0  0  0
 45 44  1  0  0  0  0
 46 47  1  0  0  0  0
 46 48  2  0  0  0  0
 48 49  1  0  0  0  0
 50 48  1  0  0  0  0
 50 51  1  0  0  0  0
 52 50  2  0  0  0  0
 53 52  1  0  0  0  0
M  END
