1,2,3
q = -1.0

 33 33  0  0  1  0  0  0  0  0999 V2000
   -0.6587    2.5347    0.3525 S   0  0  0  0  0  0  0  0  0  0  0  0
   -0.5626   -0.6462   -0.5092 N   0  0  0  0  0  2  0  0  0  0  0  0
    2.0196   -0.8593   -0.0185 N   0  0  0  0  0  2  0  0  0  0  0  0
   -0.8003   -2.9426   -0.7065 O   0  0  0  0  0  0  0  0  0  0  0  0
   -2.5701   -0.8882    1.5339 O   0  0  0  0  0  0  0  0  0  0  0  0
   -4.0082   -1.5102   -0.1074 O   0  0  0  0  0  0  0  0  0  0  0  0
    1.3697   -2.0238   -0.2549 C   0  0  2  0  0  3  0  0  0  0  0  0
    2.0483   -3.2469   -0.2783 C   0  0  0  0  0  0  0  0  0  0  0  0
    1.4529   -4.1516   -0.4684 H   0  0  0  0  0  0  0  0  0  0  0  0
    3.4320   -3.2547   -0.0615 C   0  0  0  0  0  0  0  0  0  0  0  0
    3.9950   -4.2002   -0.0754 H   0  0  0  0  0  0  0  0  0  0  0  0
    4.0910   -2.0376    0.1763 C   0  0  0  0  0  0  0  0  0  0  0  0
    5.1755   -1.9982    0.3515 H   0  0  0  0  0  0  0  0  0  0  0  0
    3.3499   -0.8492    0.1959 C   0  0  0  0  0  0  0  0  0  0  0  0
    3.7888    0.1436    0.3886 H   0  0  0  0  0  0  0  0  0  0  0  0
   -0.1104   -1.9316   -0.5018 C   0  0  0  0  0  0  0  0  0  0  0  0
   -1.9696   -0.5136   -0.8140 C   0  0  1  0  0  0  0  0  0  0  0  0
   -2.2091   -1.1885   -1.6640 H   0  0  0  0  0  0  0  0  0  0  0  0
   -2.8421   -0.9994    0.3538 C   0  0  0  0  0  0  0  0  0  0  0  0
   -4.9150   -1.9728    0.9015 C   0  0  0  0  0  0  0  0  0  0  0  0
   -5.8128   -2.3315    0.3677 H   0  0  0  0  0  0  0  0  0  0  0  0
   -5.1791   -1.1560    1.6035 H   0  0  0  0  0  0  0  0  0  0  0  0
   -4.4581   -2.7969    1.4852 H   0  0  0  0  0  0  0  0  0  0  0  0
   -2.3917    0.9097   -1.2249 C   0  0  0  0  0  0  0  0  0  0  0  0
   -1.7775    1.2220   -2.0960 H   0  0  0  0  0  0  0  0  0  0  0  0
   -3.4412    0.8490   -1.5819 H   0  0  0  0  0  0  0  0  0  0  0  0
   -2.3340    1.9580   -0.1165 C   0  0  0  0  0  0  0  0  0  0  0  0
   -2.7586    1.5687    0.8309 H   0  0  0  0  0  0  0  0  0  0  0  0
   -2.8987    2.8725   -0.3905 H   0  0  0  0  0  0  0  0  0  0  0  0
   -0.2668    3.6431   -1.0425 C   0  0  0  0  0  0  0  0  0  0  0  0
   -0.9062    4.5446   -0.9758 H   0  0  0  0  0  0  0  0  0  0  0  0
   -0.4027    3.1282   -2.0117 H   0  0  0  0  0  0  0  0  0  0  0  0
    0.7993    3.9021   -0.9011 H   0  0  0  0  0  0  0  0  0  0  0  0
  2 16  1  0  0  0  0
  3 14  1  0  0  0  0
  4 16  2  0  0  0  0
  6 19  1  0  0  0  0
  6 20  1  0  0  0  0
  7 16  1  6  0  0  0
  7  3  1  0  0  0  0
  8  7  1  0  0  0  0
  8 10  2  0  0  0  0
  9  8  1  0  0  0  0
 10 12  1  0  0  0  0
 11 10  1  0  0  0  0
 12 14  2  0  0  0  0
 12 13  1  0  0  0  0
 14 15  1  0  0  0  0
 17 18  1  6  0  0  0
 17  2  1  0  0  0  0
 17 19  1  0  0  0  0
 19  5  2  0  0  0  0
 20 23  1  0  0  0  0
 20 22  1  0  0  0  0
 21 20  1  0  0  0  0
 24 17  1  0  0  0  0
 24 27  1  0  0  0  0
 25 24  1  0  0  0  0
 26 24  1  0  0  0  0
 27  1  1  0  0  0  0
 27 28  1  0  0  0  0
 29 27  1  0  0  0  0
 30 31  1  0  0  0  0
 30 33  1  0  0  0  0
 30  1  1  0  0  0  0
 32 30  1  0  0  0  0
M  END
