1,4,5
q = -1.0, confidence = 0.0

 33 34  0  0  1  0  0  0  0  0999 V2000
   -1.4873   -0.0703   -2.1205 S   0  0  0  0  0  1  0  0  0  0  0  0
   -4.4907    0.0273   -2.5341 S   0  0  0  0  0  0  0  0  0  0  0  0
   -2.9229   -1.2094    0.6168 N   0  0  0  0  0  0  0  0  0  0  0  0
   -1.6024   -1.4680    0.7861 N   0  0  0  0  0  2  0  0  0  0  0  0
   -1.5507    1.4285    0.7613 N   0  0  0  0  0  2  0  0  0  0  0  0
   -2.8800    1.2117    0.5961 N   0  0  0  0  0  0  0  0  0  0  0  0
   -5.1882   -2.2942    0.7757 C   0  0  0  0  0  0  0  0  0  0  0  0
   -5.6787   -1.5718    1.4629 H   0  0  0  0  0  0  0  0  0  0  0  0
   -5.5912   -3.2982    1.0014 H   0  0  0  0  0  0  0  0  0  0  0  0
   -5.4819   -2.0205   -0.2604 H   0  0  0  0  0  0  0  0  0  0  0  0
   -3.7039   -2.2958    0.9324 C   0  0  1  0  0  3  0  0  0  0  0  0
   -2.8183   -3.2850    1.3600 C   0  0  0  0  0  0  0  0  0  0  0  0
   -3.0864   -4.2894    1.7040 H   0  0  0  0  0  0  0  0  0  0  0  0
   -1.5162   -2.7268    1.2519 C   0  0  0  0  0  0  0  0  0  0  0  0
   -0.1865   -3.3391    1.5527 C   0  0  0  0  0  0  0  0  0  0  0  0
    0.6048   -2.5670    1.5112 H   0  0  0  0  0  0  0  0  0  0  0  0
    0.0691   -4.1294    0.8161 H   0  0  0  0  0  0  0  0  0  0  0  0
   -0.1712   -3.8062    2.5577 H   0  0  0  0  0  0  0  0  0  0  0  0
   -3.3726    0.0043   -0.0527 C   0  0  1  0  0  0  0  0  0  0  0  0
   -4.4677    0.0248    0.0631 H   0  0  0  0  0  0  0  0  0  0  0  0
   -3.1075   -0.0116   -1.5842 C   0  0  0  0  0  0  0  0  0  0  0  0
   -5.1107    2.3654    0.7599 C   0  0  0  0  0  0  0  0  0  0  0  0
   -5.4810    3.3831    0.9803 H   0  0  0  0  0  0  0  0  0  0  0  0
   -5.6210    1.6636    1.4540 H   0  0  0  0  0  0  0  0  0  0  0  0
   -5.4166    2.0941   -0.2734 H   0  0  0  0  0  0  0  0  0  0  0  0
   -3.6264    2.3218    0.9106 C   0  0  2  0  0  3  0  0  0  0  0  0
   -2.7091    3.2841    1.3326 C   0  0  0  0  0  0  0  0  0  0  0  0
   -2.9434    4.2973    1.6754 H   0  0  0  0  0  0  0  0  0  0  0  0
   -1.4254    2.6857    1.2240 C   0  0  0  0  0  0  0  0  0  0  0  0
   -0.0828    3.2700    1.5224 C   0  0  0  0  0  0  0  0  0  0  0  0
   -0.1358    3.9778    2.3720 H   0  0  0  0  0  0  0  0  0  0  0  0
    0.3239    3.8192    0.6474 H   0  0  0  0  0  0  0  0  0  0  0  0
    0.6462    2.4731    1.7637 H   0  0  0  0  0  0  0  0  0  0  0  0
  1 21  1  0  0  0  0
  2 21  2  0  0  0  0
  3  4  1  0  0  0  0
  3 11  1  0  0  0  0
  4 14  1  0  0  0  0
  5 29  1  0  0  0  0
  6  5  1  0  0  0  0
  6 26  1  0  0  0  0
  7  9  1  0  0  0  0
  7  8  1  0  0  0  0
 10  7  1  0  0  0  0
 11  7  1  6  0  0  0
 11 12  1  0  0  0  0
 12 13  1  0  0  0  0
 14 12  2  0  0  0  0
 14 15  1  0  0  0  0
 15 18  1  0  0  0  0
 16 15  1  0  0  0  0
 17 15  1  0  0  0  0
 19 20  1  1  0  0  0
 19  6  1  0  0  0  0
 19  3  1  0  0  0  0
 21 19  1  0  0  0  0
 22 23  1  0  0  0  0
 22 24  1  0  0  0  0
 25 22  1  0  0  0  0
 26 22  1  6  0  0  0
 26 27  1  0  0  0  0
 27 28  1  0  0  0  0
 29 27  2  0  0  0  0
 29 30  1  0  0  0  0
 30 33  1  0  0  0  0
 30 31  1  0  0  0  0
 32 30  1  0  0  0  0
M  END
