1,2,23
q = -1.0, confidence = 0.03

 43 45  0  0  0  0  0  0  0  0999 V2000
    0.3308   -1.7498   -0.2818 S   0  0  0  0  0  1  0  0  0  0  0  0
    4.1012    0.3175    0.1161 N   0  0  0  0  0  2  0  0  0  0  0  0
    5.3763   -0.0645    0.2769 C   0  0  0  0  0  0  0  0  0  0  0  0
    5.5254   -1.1574    0.3216 H   0  0  0  0  0  0  0  0  0  0  0  0
    6.4171    0.8704    0.3780 C   0  0  0  0  0  0  0  0  0  0  0  0
    7.4511    0.5234    0.5104 H   0  0  0  0  0  0  0  0  0  0  0  0
    6.1021    2.2361    0.3066 C   0  0  0  0  0  0  0  0  0  0  0  0
    6.8939    2.9963    0.3823 H   0  0  0  0  0  0  0  0  0  0  0  0
    4.7692    2.6303    0.1375 C   0  0  0  0  0  0  0  0  0  0  0  0
    4.5001    3.6935    0.0786 H   0  0  0  0  0  0  0  0  0  0  0  0
    3.7605    1.6478    0.0417 C   0  0  0  0  0  0  0  0  0  0  0  0
   -6.1356    1.3897    0.1896 N   0  0  0  0  0  0  0  0  0  0  0  0
   -5.6642    0.1372    0.3763 C   0  0  0  0  0  0  0  0  0  0  0  0
   -6.5302   -0.9926    0.3025 C   0  0  0  0  0  0  0  0  0  0  0  0
   -6.1653   -2.0151    0.4648 H   0  0  0  0  0  0  0  0  0  0  0  0
   -7.8818   -0.7814    0.0303 C   0  0  0  0  0  0  0  0  0  0  0  0
   -8.5623   -1.6450   -0.0276 H   0  0  0  0  0  0  0  0  0  0  0  0
   -8.3668    0.5244   -0.1632 C   0  0  0  0  0  0  0  0  0  0  0  0
   -9.4251    0.7246   -0.3803 H   0  0  0  0  0  0  0  0  0  0  0  0
   -7.4376    1.5679   -0.0651 C   0  0  0  0  0  0  0  0  0  0  0  0
   -7.7603    2.6159   -0.2039 H   0  0  0  0  0  0  0  0  0  0  0  0
   -1.7811   -0.0929   -0.6058 N   0  0  0  0  0  0  0  0  0  0  0  0
    1.5496    0.8732   -0.2051 N   0  0  0  0  0  2  0  0  0  0  0  0
   -4.3098    0.0270    0.6651 N   0  0  0  0  0  0  0  0  0  0  0  0
    0.2322    1.0045   -0.3652 N   0  0  0  0  0  0  0  0  0  0  0  0
    1.8264    3.3434   -0.2320 C   0  0  0  0  0  0  0  0  0  0  0  0
    2.2977    3.8895   -1.0761 H   0  0  0  0  0  0  0  0  0  0  0  0
    2.0410    3.9182    0.6937 H   0  0  0  0  0  0  0  0  0  0  0  0
    0.7342    3.3215   -0.3896 H   0  0  0  0  0  0  0  0  0  0  0  0
   -3.5713   -1.2221    0.6321 C   0  0  0  0  0  0  0  0  0  0  0  0
   -4.2546   -2.0885    0.6155 H   0  0  0  0  0  0  0  0  0  0  0  0
   -2.9468   -1.3093    1.5496 H   0  0  0  0  0  0  0  0  0  0  0  0
    2.3461    1.9446   -0.1350 C   0  0  0  0  0  0  0  0  0  0  0  0
   -3.4492    1.2028    0.6466 C   0  0  0  0  0  0  0  0  0  0  0  0
   -2.8352    1.2211    1.5747 H   0  0  0  0  0  0  0  0  0  0  0  0
   -4.1005    2.0952    0.6162 H   0  0  0  0  0  0  0  0  0  0  0  0
   -0.4323   -0.1610   -0.4232 C   0  0  0  0  0  0  0  0  0  0  0  0
   -2.6427   -1.2676   -0.5956 C   0  0  0  0  0  0  0  0  0  0  0  0
   -2.0171   -2.1805   -0.5890 H   0  0  0  0  0  0  0  0  0  0  0  0
   -3.2566   -1.2675   -1.5234 H   0  0  0  0  0  0  0  0  0  0  0  0
   -2.5153    1.1742   -0.5723 C   0  0  0  0  0  0  0  0  0  0  0  0
   -3.1190    1.2587   -1.5023 H   0  0  0  0  0  0  0  0  0  0  0  0
   -1.7835    1.9993   -0.5404 H   0  0  0  0  0  0  0  0  0  0  0  0
  2  3  1  0  0  0  0
  3  4  1  0  0  0  0
  3  5  2  0  0  0  0
  5  6  1  0  0  0  0
  7  5  1  0  0  0  0
  7  8  1  0  0  0  0
  9  7  2  0  0  0  0
 10  9  1  0  0  0  0
 11  2  1  0  0  0  0
 11  9  1  0  0  0  0
 12 13  1  0  0  0  0
 13 24  1  0  0  0  0
 14 13  2  0  0  0  0
 14 15  1  0  0  0  0
 16 14  1  0  0  0  0
 17 16  1  0  0  0  0
 18 20  1  0  0  0  0
 18 16  2  0  0  0  0
 19 18  1  0  0  0  0
 20 12  2  0  0  0  0
 21 20  1  0  0  0  0
 22 38  1  0  0  0  0
 22 41  1  0  0  0  0
 22 37  1  0  0  0  0
 23 33  1  0  0  0  0
 25 23  1  0  0  0  0
 26 33  1  0  0  0  0
 26 28  1  0  0  0  0
 27 26  1  0  0  0  0
 29 26  1  0  0  0  0
 30 24  1  0  0  0  0
 30 32  1  0  0  0  0
 31 30  1  0  0  0  0
 33 11  2  0  0  0  0
 34 24  1  0  0  0  0
 34 35  1  0  0  0  0
 36 34  1  0  0  0  0
 37 25  2  0  0  0  0
 37  1  1  0  0  0  0
 38 39  1  0  0  0  0
 38 30  1  0  0  0  0
 40 38  1  0  0  0  0
 41 43  1  0  0  0  0
 41 34  1  0  0  0  0
 42 41  1  0  0  0  0
M  END
