1,2,3
q = -1.0

 40 42  0  0  0  0  0  0  0  0999 V2000
    0.4076   -1.6348   -0.2332 S   0  0  0  0  0  1  0  0  0  0  0  0
    1.5822    0.9935   -0.1974 N   0  0  0  0  0  2  0  0  0  0  0  0
    4.1631    0.5020    0.0683 N   0  0  0  0  0  2  0  0  0  0  0  0
    0.2659    1.1180   -0.3291 N   0  0  0  0  0  0  0  0  0  0  0  0
   -4.2724    0.0984    0.7438 N   0  0  0  0  0  0  0  0  0  0  0  0
   -1.7365   -0.0084   -0.5146 N   0  0  0  0  0  0  0  0  0  0  0  0
   -6.0811    1.4320    0.1357 N   0  0  0  0  0  0  0  0  0  0  0  0
   -2.5831   -1.1942   -0.4904 C   0  0  0  0  0  0  0  0  0  0  0  0
   -1.9453   -2.0983   -0.4682 H   0  0  0  0  0  0  0  0  0  0  0  0
   -3.1938   -1.2162   -1.4201 H   0  0  0  0  0  0  0  0  0  0  0  0
   -3.4214    1.2818    0.7231 C   0  0  0  0  0  0  0  0  0  0  0  0
   -2.8150    1.3091    1.6554 H   0  0  0  0  0  0  0  0  0  0  0  0
   -4.0777    2.1697    0.6812 H   0  0  0  0  0  0  0  0  0  0  0  0
   -0.3853   -0.0599   -0.3646 C   0  0  0  0  0  0  0  0  0  0  0  0
   -5.6086    0.1883    0.3699 C   0  0  0  0  0  0  0  0  0  0  0  0
   -7.3683    1.5913   -0.1954 C   0  0  0  0  0  0  0  0  0  0  0  0
   -7.6938    2.6332   -0.3694 H   0  0  0  0  0  0  0  0  0  0  0  0
    4.7661    2.8380    0.0568 C   0  0  0  0  0  0  0  0  0  0  0  0
    4.4578    3.8913   -0.0041 H   0  0  0  0  0  0  0  0  0  0  0  0
   -2.4809    1.2543   -0.4909 C   0  0  0  0  0  0  0  0  0  0  0  0
   -3.0817    1.3288   -1.4237 H   0  0  0  0  0  0  0  0  0  0  0  0
   -1.7533    2.0834   -0.4616 H   0  0  0  0  0  0  0  0  0  0  0  0
    5.4526    0.1589    0.1997 C   0  0  0  0  0  0  0  0  0  0  0  0
    5.6360   -0.9284    0.2483 H   0  0  0  0  0  0  0  0  0  0  0  0
    6.4671    1.1248    0.2682 C   0  0  0  0  0  0  0  0  0  0  0  0
    7.5138    0.8091    0.3770 H   0  0  0  0  0  0  0  0  0  0  0  0
   -3.5164   -1.1407    0.7337 C   0  0  0  0  0  0  0  0  0  0  0  0
   -4.1865   -2.0176    0.7327 H   0  0  0  0  0  0  0  0  0  0  0  0
   -2.8949   -1.2004    1.6548 H   0  0  0  0  0  0  0  0  0  0  0  0
    3.7862    1.8240   -0.0063 C   0  0  0  0  0  0  0  0  0  0  0  0
    2.3704    2.0624   -0.1487 C   0  0  0  0  0  0  0  0  0  0  0  0
    1.9326    3.0697   -0.2192 H   0  0  0  0  0  0  0  0  0  0  0  0
   -6.4556   -0.9527    0.2625 C   0  0  0  0  0  0  0  0  0  0  0  0
   -6.0888   -1.9684    0.4598 H   0  0  0  0  0  0  0  0  0  0  0  0
    6.1121    2.4821    0.1951 C   0  0  0  0  0  0  0  0  0  0  0  0
    6.8851    3.2636    0.2456 H   0  0  0  0  0  0  0  0  0  0  0  0
   -8.2789    0.5355   -0.3298 C   0  0  0  0  0  0  0  0  0  0  0  0
   -9.3251    0.7201   -0.6104 H   0  0  0  0  0  0  0  0  0  0  0  0
   -7.7918   -0.7615   -0.0895 C   0  0  0  0  0  0  0  0  0  0  0  0
   -8.4582   -1.6338   -0.1741 H   0  0  0  0  0  0  0  0  0  0  0  0
  2 31  1  0  0  0  0
  3 23  1  0  0  0  0
  4  2  1  0  0  0  0
  6 20  1  0  0  0  0
  6  8  1  0  0  0  0
  6 14  1  0  0  0  0
  7 15  1  0  0  0  0
  8  9  1  0  0  0  0
  8 27  1  0  0  0  0
 10  8  1  0  0  0  0
 11  5  1  0  0  0  0
 11 12  1  0  0  0  0
 13 11  1  0  0  0  0
 14  4  2  0  0  0  0
 14  1  1  0  0  0  0
 15  5  1  0  0  0  0
 16  7  2  0  0  0  0
 17 16  1  0  0  0  0
 18 35  2  0  0  0  0
 19 18  1  0  0  0  0
 20 22  1  0  0  0  0
 20 11  1  0  0  0  0
 21 20  1  0  0  0  0
 23 24  1  0  0  0  0
 23 25  2  0  0  0  0
 25 26  1  0  0  0  0
 27  5  1  0  0  0  0
 27 29  1  0  0  0  0
 28 27  1  0  0  0  0
 30 18  1  0  0  0  0
 30  3  1  0  0  0  0
 31 30  2  0  0  0  0
 32 31  1  0  0  0  0
 33 15  2  0  0  0  0
 33 34  1  0  0  0  0
 35 36  1  0  0  0  0
 35 25  1  0  0  0  0
 37 16  1  0  0  0  0
 37 39  2  0  0  0  0
 38 37  1  0  0  0  0
 39 33  1  0  0  0  0
 40 39  1  0  0  0  0
M  END
