1,2,14
q = -1.0, confidence = 0.0

 22 22  0  0  0  0  0  0  0  0999 V2000
   -0.4245    2.8001   -0.0357 S   0  0  0  0  0  1  0  0  0  0  0  0
   -1.9715   -1.2590    0.0317 N   0  0  0  0  0  2  0  0  0  0  0  0
   -3.8247    0.3133    0.0690 C   0  0  0  0  0  0  0  0  0  0  0  0
   -3.1858    2.5446    0.0311 N   0  0  0  0  0  0  0  0  0  0  0  0
   -3.3355   -1.0672    0.0620 C   0  0  0  0  0  0  0  0  0  0  0  0
   -1.4736   -2.5075    0.0100 C   0  0  0  0  0  0  0  0  0  0  0  0
   -0.3790   -2.6005   -0.0313 H   0  0  0  0  0  0  0  0  0  0  0  0
   -2.2907   -3.6464    0.0241 C   0  0  0  0  0  0  0  0  0  0  0  0
   -1.8300   -4.6435    0.0055 H   0  0  0  0  0  0  0  0  0  0  0  0
   -3.6799   -3.4743    0.0600 C   0  0  0  0  0  0  0  0  0  0  0  0
   -4.3544   -4.3430    0.0719 H   0  0  0  0  0  0  0  0  0  0  0  0
   -4.2044   -2.1759    0.0776 C   0  0  0  0  0  0  0  0  0  0  0  0
   -5.2897   -2.0122    0.1016 H   0  0  0  0  0  0  0  0  0  0  0  0
   -2.8826    1.2447    0.0354 N   0  0  0  0  0  2  0  0  0  0  0  0
   -2.1163    3.3406   -0.0020 C   0  0  0  0  0  0  0  0  0  0  0  0
   -2.3290    4.6697   -0.0134 N   0  0  0  0  0  0  0  0  0  0  0  0
   -3.2860    5.0247   -0.0018 H   0  0  0  0  0  0  0  0  0  0  0  0
   -1.5487    5.3239   -0.0410 H   0  0  0  0  0  0  0  0  0  0  0  0
   -5.2815    0.6443    0.1041 C   0  0  0  0  0  0  0  0  0  0  0  0
   -5.4115    1.7401    0.1088 H   0  0  0  0  0  0  0  0  0  0  0  0
   -5.7645    0.2213    1.0092 H   0  0  0  0  0  0  0  0  0  0  0  0
   -5.8068    0.2253   -0.7792 H   0  0  0  0  0  0  0  0  0  0  0  0
  1 15  1  0  0  0  0
  2  5  1  0  0  0  0
  3 19  1  0  0  0  0
  4 14  1  0  0  0  0
  5  3  2  0  0  0  0
  5 12  1  0  0  0  0
  6  8  2  0  0  0  0
  6  2  1  0  0  0  0
  7  6  1  0  0  0  0
  8 10  1  0  0  0  0
  9  8  1  0  0  0  0
 10 11  1  0  0  0  0
 10 12  2  0  0  0  0
 12 13  1  0  0  0  0
 14  3  1  0  0  0  0
 15  4  2  0  0  0  0
 16 15  1  0  0  0  0
 16 17  1  0  0  0  0
 18 16  1  0  0  0  0
 19 20  1  0  0  0  0
 19 21  1  0  0  0  0
 22 19  1  0  0  0  0
M  END
