1,2,6
q = -1.0

 39 41  0  0  0  0  0  0  0  0999 V2000
    0.3065   -2.7351   -0.0001 S   0  0  0  0  0  1  0  0  0  0  0  0
    0.4286    0.0601    0.0387 N   0  0  0  0  0  2  0  0  0  0  0  0
   -0.8714   -0.2842    0.0193 N   0  0  0  0  0  0  0  0  0  0  0  0
   -2.2894   -2.1445   -0.0285 N   0  0  0  0  0  0  0  0  0  0  0  0
    0.7600    1.3611    0.0427 C   0  0  0  0  0  0  0  0  0  0  0  0
    2.9195    0.3982    0.0109 N   0  0  0  0  0  2  0  0  0  0  0  0
   -1.0373   -1.6009   -0.0035 C   0  0  0  0  0  0  0  0  0  0  0  0
   -3.5641   -1.5513   -0.0469 C   0  0  0  0  0  0  0  0  0  0  0  0
   -3.7813   -0.1565   -0.1042 C   0  0  0  0  0  0  0  0  0  0  0  0
   -2.9190    0.5192   -0.1399 H   0  0  0  0  0  0  0  0  0  0  0  0
   -5.0933    0.3356   -0.1171 C   0  0  0  0  0  0  0  0  0  0  0  0
   -5.2468    1.4249   -0.1626 H   0  0  0  0  0  0  0  0  0  0  0  0
   -6.1978   -0.5296   -0.0757 C   0  0  0  0  0  0  0  0  0  0  0  0
   -7.2222   -0.1290   -0.0860 H   0  0  0  0  0  0  0  0  0  0  0  0
   -5.9787   -1.9161   -0.0229 C   0  0  0  0  0  0  0  0  0  0  0  0
   -6.8304   -2.6123    0.0081 H   0  0  0  0  0  0  0  0  0  0  0  0
   -4.6761   -2.4251   -0.0087 C   0  0  0  0  0  0  0  0  0  0  0  0
   -4.5104   -3.5139    0.0339 H   0  0  0  0  0  0  0  0  0  0  0  0
   -0.2305    2.4568    0.0350 C   0  0  0  0  0  0  0  0  0  0  0  0
   -1.2908    2.4875    0.9705 C   0  0  0  0  0  0  0  0  0  0  0  0
   -1.3743    1.6840    1.7147 H   0  0  0  0  0  0  0  0  0  0  0  0
   -2.2271    3.5283    0.9486 C   0  0  0  0  0  0  0  0  0  0  0  0
   -3.0445    3.5384    1.6856 H   0  0  0  0  0  0  0  0  0  0  0  0
   -2.1260    4.5545   -0.0062 C   0  0  0  0  0  0  0  0  0  0  0  0
   -2.8657    5.3691   -0.0230 H   0  0  0  0  0  0  0  0  0  0  0  0
   -1.0785    4.5343   -0.9398 C   0  0  0  0  0  0  0  0  0  0  0  0
   -0.9980    5.3281   -1.6978 H   0  0  0  0  0  0  0  0  0  0  0  0
   -0.1373    3.4949   -0.9204 C   0  0  0  0  0  0  0  0  0  0  0  0
    0.6645    3.4681   -1.6736 H   0  0  0  0  0  0  0  0  0  0  0  0
    2.1988    1.5682    0.0556 C   0  0  0  0  0  0  0  0  0  0  0  0
    4.2623    0.4240    0.0240 C   0  0  0  0  0  0  0  0  0  0  0  0
    4.7364   -0.5711   -0.0136 H   0  0  0  0  0  0  0  0  0  0  0  0
    4.9784    1.6266    0.0869 C   0  0  0  0  0  0  0  0  0  0  0  0
    6.0770    1.6069    0.0917 H   0  0  0  0  0  0  0  0  0  0  0  0
    4.2636    2.8342    0.1554 C   0  0  0  0  0  0  0  0  0  0  0  0
    4.7948    3.7952    0.2239 H   0  0  0  0  0  0  0  0  0  0  0  0
    2.8639    2.8081    0.1439 C   0  0  0  0  0  0  0  0  0  0  0  0
    2.2746    3.7320    0.2136 H   0  0  0  0  0  0  0  0  0  0  0  0
   -2.2895   -3.1671   -0.0298 H   0  0  0  0  0  0  0  0  0  0  0  0
  2  5  1  0  0  0  0
  3  2  1  0  0  0  0
  4  7  1  0  0  0  0
  5 30  2  0  0  0  0
  6 31  1  0  0  0  0
  6 30  1  0  0  0  0
  7  1  1  0  0  0  0
  7  3  2  0  0  0  0
  8  4  1  0  0  0  0
  8 17  1  0  0  0  0
  9  8  2  0  0  0  0
 10  9  1  0  0  0  0
 11  9  1  0  0  0  0
 11 13  2  0  0  0  0
 12 11  1  0  0  0  0
 13 15  1  0  0  0  0
 14 13  1  0  0  0  0
 15 17  2  0  0  0  0
 15 16  1  0  0  0  0
 17 18  1  0  0  0  0
 19  5  1  0  0  0  0
 19 20  1  0  0  0  0
 20 21  1  0  0  0  0
 22 20  2  0  0  0  0
 22 23  1  0  0  0  0
 24 22  1  0  0  0  0
 25 24  1  0  0  0  0
 26 28  1  0  0  0  0
 26 24  2  0  0  0  0
 27 26  1  0  0  0  0
 28 19  2  0  0  0  0
 29 28  1  0  0  0  0
 30 37  1  0  0  0  0
 31 33  2  0  0  0  0
 32 31  1  0  0  0  0
 33 34  1  0  0  0  0
 33 35  1  0  0  0  0
 35 36  1  0  0  0  0
 37 35  2  0  0  0  0
 37 38  1  0  0  0  0
 39  4  1  0  0  0  0
M  END
