1,2,4
q = -1.0, confidence = 0.0

 26 27  0  0  0  0  0  0  0  0999 V2000
    0.8764    0.0037   -1.3085 S   0  0  0  0  0  0  0  0  0  0  0  0
    0.0974   -1.0706    1.3159 N   0  0  0  0  0  2  0  0  0  0  0  0
   -0.4431   -1.5859    2.0201 H   0  0  0  0  0  0  0  0  0  0  0  0
   -0.4534    1.8207    0.7855 N   0  0  0  0  0  0  0  0  0  0  0  0
   -1.1185    2.4235    0.2451 H   0  0  0  0  0  0  0  0  0  0  0  0
   -0.6969    1.8690    1.7878 H   0  0  0  0  0  0  0  0  0  0  0  0
    1.7304   -1.3172   -0.4502 C   0  0  0  0  0  0  0  0  0  0  0  0
    1.1798   -1.7250    0.8011 C   0  0  0  0  0  0  0  0  0  0  0  0
    1.8533   -2.7888    1.4660 C   0  0  0  0  0  0  0  0  0  0  0  0
    1.4533   -3.1483    2.4262 H   0  0  0  0  0  0  0  0  0  0  0  0
    2.9935   -3.3708    0.9104 C   0  0  0  0  0  0  0  0  0  0  0  0
    3.4838   -4.1962    1.4493 H   0  0  0  0  0  0  0  0  0  0  0  0
    3.5150   -2.9446   -0.3294 C   0  0  0  0  0  0  0  0  0  0  0  0
    4.3999   -3.4302   -0.7636 H   0  0  0  0  0  0  0  0  0  0  0  0
    2.8663   -1.9123   -1.0171 C   0  0  0  0  0  0  0  0  0  0  0  0
    3.2248   -1.5772   -2.0026 H   0  0  0  0  0  0  0  0  0  0  0  0
    1.6261    1.4539   -0.4904 C   0  0  0  0  0  0  0  0  0  0  0  0
    0.9240    2.1649    0.5007 C   0  0  0  0  0  0  0  0  0  0  0  0
    1.5528    3.2287    1.1671 C   0  0  0  0  0  0  0  0  0  0  0  0
    1.0033    3.7797    1.9456 H   0  0  0  0  0  0  0  0  0  0  0  0
    2.8675    3.5847    0.8369 C   0  0  0  0  0  0  0  0  0  0  0  0
    3.3547    4.4156    1.3677 H   0  0  0  0  0  0  0  0  0  0  0  0
    3.5559    2.8885   -0.1696 C   0  0  0  0  0  0  0  0  0  0  0  0
    4.5852    3.1711   -0.4344 H   0  0  0  0  0  0  0  0  0  0  0  0
    2.9340    1.8250   -0.8371 C   0  0  0  0  0  0  0  0  0  0  0  0
    3.4707    1.2618   -1.6150 H   0  0  0  0  0  0  0  0  0  0  0  0
  1 17  1  0  0  0  0
  1  7  1  0  0  0  0
  2  3  1  0  0  0  0
  4  6  1  0  0  0  0
  5  4  1  0  0  0  0
  7  8  1  0  0  0  0
  8  2  1  0  0  0  0
  8  9  2  0  0  0  0
  9 10  1  0  0  0  0
 11 12  1  0  0  0  0
 11  9  1  0  0  0  0
 13 11  2  0  0  0  0
 14 13  1  0  0  0  0
 15  7  2  0  0  0  0
 15 13  1  0  0  0  0
 16 15  1  0  0  0  0
 17 18  1  0  0  0  0
 18  4  1  0  0  0  0
 18 19  2  0  0  0  0
 19 20  1  0  0  0  0
 21 19  1  0  0  0  0
 21 22  1  0  0  0  0
 23 21  2  0  0  0  0
 24 23  1  0  0  0  0
 25 17  2  0  0  0  0
 25 23  1  0  0  0  0
 26 25  1  0  0  0  0
M  END
