1,2,3
q = -1.0

 34 35  0  0  1  0  0  0  0  0999 V2000
   -1.7551   -1.7298    0.7670 S   0  0  0  0  0  1  0  0  0  0  0  0
    0.8351    1.4623   -1.3385 N   0  0  0  0  0  2  0  0  0  0  0  0
   -1.5271    0.2394   -1.4124 N   0  0  0  0  0  2  0  0  0  0  0  0
   -2.7158   -0.3803   -1.4323 N   0  0  0  0  0  0  0  0  0  0  0  0
   -4.1058   -1.9766   -0.5234 N   0  0  0  0  0  0  0  0  0  0  0  0
   -2.3026    1.5062   -3.2459 N   0  0  0  0  0  0  0  0  0  0  0  0
   -3.0638    0.8150   -3.2058 H   0  0  0  0  0  0  0  0  0  0  0  0
   -1.9853    1.7221   -4.1931 H   0  0  0  0  0  0  0  0  0  0  0  0
    2.0393    2.0308   -1.2474 C   0  0  0  0  0  3  0  0  0  0  0  0
    2.6949    1.6381   -0.4507 H   0  0  0  0  0  0  0  0  0  0  0  0
    2.4576    3.0627   -2.1044 C   0  0  0  0  0  0  0  0  0  0  0  0
    3.4596    3.5021   -1.9987 H   0  0  0  0  0  0  0  0  0  0  0  0
    1.5552    3.5164   -3.0801 C   0  0  0  0  0  0  0  0  0  0  0  0
    1.8329    4.3364   -3.7599 H   0  0  0  0  0  0  0  0  0  0  0  0
    0.2926    2.9219   -3.1790 C   0  0  0  0  0  0  0  0  0  0  0  0
   -0.4394    3.2812   -3.9161 H   0  0  0  0  0  0  0  0  0  0  0  0
   -0.0373    1.8690   -2.2930 C   0  0  0  0  0  0  0  0  0  0  0  0
   -1.3213    1.1615   -2.3356 C   0  0  1  0  0  3  0  0  0  0  0  0
   -2.8957   -1.3158   -0.4737 C   0  0  0  0  0  0  0  0  0  0  0  0
   -5.1905   -1.5221   -1.3903 C   0  0  0  0  0  0  0  0  0  0  0  0
   -5.6772   -2.4215   -1.8321 H   0  0  0  0  0  0  0  0  0  0  0  0
   -4.7547   -0.9246   -2.2086 H   0  0  0  0  0  0  0  0  0  0  0  0
   -6.2181   -0.7187   -0.5794 C   0  0  0  0  0  0  0  0  0  0  0  0
   -5.7256    0.2132   -0.2246 H   0  0  0  0  0  0  0  0  0  0  0  0
   -7.0604   -0.4111   -1.2350 H   0  0  0  0  0  0  0  0  0  0  0  0
   -6.7285   -1.5338    0.6183 C   0  0  0  0  0  0  0  0  0  0  0  0
   -7.3433   -2.3824    0.2400 H   0  0  0  0  0  0  0  0  0  0  0  0
   -7.4033   -0.9192    1.2507 H   0  0  0  0  0  0  0  0  0  0  0  0
   -5.5646   -2.0931    1.4497 C   0  0  0  0  0  0  0  0  0  0  0  0
   -5.9383   -2.7699    2.2469 H   0  0  0  0  0  0  0  0  0  0  0  0
   -5.0184   -1.2668    1.9548 H   0  0  0  0  0  0  0  0  0  0  0  0
   -4.5640   -2.8413    0.5568 C   0  0  0  0  0  0  0  0  0  0  0  0
   -3.6805   -3.1822    1.1281 H   0  0  0  0  0  0  0  0  0  0  0  0
   -5.0519   -3.7331    0.1008 H   0  0  0  0  0  0  0  0  0  0  0  0
  2  9  1  0  0  0  0
  4  3  1  0  0  0  0
  4 19  2  0  0  0  0
  5 19  1  0  0  0  0
  5 32  1  0  0  0  0
  6  7  1  0  0  0  0
  6 18  1  0  0  0  0
  8  6  1  0  0  0  0
  9 10  1  0  0  0  0
 11 12  1  0  0  0  0
 11  9  1  0  0  0  0
 13 11  2  0  0  0  0
 14 13  1  0  0  0  0
 15 13  1  0  0  0  0
 15 17  2  0  0  0  0
 16 15  1  0  0  0  0
 17  2  1  0  0  0  0
 18 17  1  0  0  0  0
 18  3  1  1  0  0  0
 19  1  1  0  0  0  0
 20 23  1  0  0  0  0
 20  5  1  0  0  0  0
 21 20  1  0  0  0  0
 22 20  1  0  0  0  0
 23 24  1  0  0  0  0
 23 26  1  0  0  0  0
 25 23  1  0  0  0  0
 26 28  1  0  0  0  0
 26 29  1  0  0  0  0
 27 26  1  0  0  0  0
 29 31  1  0  0  0  0
 29 30  1  0  0  0  0
 32 33  1  0  0  0  0
 32 29  1  0  0  0  0
 34 32  1  0  0  0  0
M  END
