1,2,3
q = -1.0

 34 35  0  0  0  0  0  0  0  0999 V2000
    1.7555   -1.7289   -0.7686 S   0  0  0  0  0  1  0  0  0  0  0  0
   -0.8353    1.4612    1.3393 N   0  0  0  0  0  2  0  0  0  0  0  0
    1.5270    0.2384    1.4124 N   0  0  0  0  0  2  0  0  0  0  0  0
    2.7157   -0.3812    1.4320 N   0  0  0  0  0  0  0  0  0  0  0  0
    4.1059   -1.9768    0.5220 N   0  0  0  0  0  0  0  0  0  0  0  0
    2.3022    1.5037    3.2471 N   0  0  0  0  0  0  0  0  0  0  0  0
    3.0634    0.8126    3.2065 H   0  0  0  0  0  0  0  0  0  0  0  0
    1.9847    1.7187    4.1945 H   0  0  0  0  0  0  0  0  0  0  0  0
   -2.4579    3.0610    2.1063 C   0  0  0  0  0  0  0  0  0  0  0  0
   -3.4600    3.5003    2.0009 H   0  0  0  0  0  0  0  0  0  0  0  0
   -1.5556    3.5140    3.0824 C   0  0  0  0  0  0  0  0  0  0  0  0
   -1.8334    4.3335    3.7629 H   0  0  0  0  0  0  0  0  0  0  0  0
   -0.2930    2.9195    3.1810 C   0  0  0  0  0  0  0  0  0  0  0  0
    0.4390    3.2783    3.9183 H   0  0  0  0  0  0  0  0  0  0  0  0
    0.0370    1.8672    2.2942 C   0  0  0  0  0  0  0  0  0  0  0  0
    1.3210    1.1597    2.3363 C   0  0  0  0  0  0  0  0  0  0  0  0
    2.8958   -1.3160    0.4726 C   0  0  0  0  0  0  0  0  0  0  0  0
    4.5644   -2.8406   -0.5588 C   0  0  0  0  0  0  0  0  0  0  0  0
    5.0521   -3.7328   -0.1034 H   0  0  0  0  0  0  0  0  0  0  0  0
    3.6810   -3.1810   -1.1306 H   0  0  0  0  0  0  0  0  0  0  0  0
   -2.0396    2.0297    1.2486 C   0  0  0  0  0  0  0  0  0  0  0  0
   -2.6951    1.6376    0.4516 H   0  0  0  0  0  0  0  0  0  0  0  0
    5.5652   -2.0917   -1.4508 C   0  0  0  0  0  0  0  0  0  0  0  0
    5.0191   -1.2648   -1.9554 H   0  0  0  0  0  0  0  0  0  0  0  0
    5.9391   -2.7677   -2.2484 H   0  0  0  0  0  0  0  0  0  0  0  0
    6.7289   -1.5331   -0.6186 C   0  0  0  0  0  0  0  0  0  0  0  0
    7.3435   -2.3821   -0.2409 H   0  0  0  0  0  0  0  0  0  0  0  0
    7.4038   -0.9180   -1.2503 H   0  0  0  0  0  0  0  0  0  0  0  0
    6.2182   -0.7190    0.5797 C   0  0  0  0  0  0  0  0  0  0  0  0
    7.0603   -0.4120    1.2358 H   0  0  0  0  0  0  0  0  0  0  0  0
    5.7258    0.2132    0.2256 H   0  0  0  0  0  0  0  0  0  0  0  0
    5.1904   -1.5232    1.3897 C   0  0  0  0  0  0  0  0  0  0  0  0
    5.6770   -2.4230    1.8308 H   0  0  0  0  0  0  0  0  0  0  0  0
    4.7545   -0.9263    2.2083 H   0  0  0  0  0  0  0  0  0  0  0  0
  1 17  1  0  0  0  0
  2 15  1  0  0  0  0
  3  4  1  0  0  0  0
  3 16  1  0  0  0  0
  5 32  1  0  0  0  0
  6  8  1  0  0  0  0
  7  6  1  0  0  0  0
  9 11  1  0  0  0  0
 10  9  1  0  0  0  0
 11 13  2  0  0  0  0
 11 12  1  0  0  0  0
 13 14  1  0  0  0  0
 15 16  2  0  0  0  0
 15 13  1  0  0  0  0
 16  6  1  0  0  0  0
 17  5  1  0  0  0  0
 17  4  2  0  0  0  0
 18 19  1  0  0  0  0
 18  5  1  0  0  0  0
 20 18  1  0  0  0  0
 21  2  1  0  0  0  0
 21  9  2  0  0  0  0
 22 21  1  0  0  0  0
 23 26  1  0  0  0  0
 23 18  1  0  0  0  0
 24 23  1  0  0  0  0
 25 23  1  0  0  0  0
 26 27  1  0  0  0  0
 26 29  1  0  0  0  0
 28 26  1  0  0  0  0
 29 30  1  0  0  0  0
 29 32  1  0  0  0  0
 31 29  1  0  0  0  0
 32 33  1  0  0  0  0
 32 34  1  0  0  0  0
M  END
