1,4,7
q = 0.0, confidence = 1.0

 28 29  0  0  0  0  0  0  0  0999 V2000
   -1.0762   -1.9311   -1.5877 S   0  0  0  0  0  0  0  0  0  0  0  0
   -3.5056   -1.1988    1.5652 C   0  0  0  0  0  0  0  0  0  0  0  0
   -3.3720   -0.9404    2.6259 H   0  0  0  0  0  0  0  0  0  0  0  0
    1.4091   -0.5242    1.9837 N   0  0  0  0  0  2  0  0  0  0  0  0
   -4.7907   -1.2829    1.0247 C   0  0  0  0  0  0  0  0  0  0  0  0
   -5.6675   -1.1318    1.6711 H   0  0  0  0  0  0  0  0  0  0  0  0
   -1.0618   -1.1892    1.2268 N   0  0  0  0  0  2  0  0  0  0  0  0
    0.6051   -1.0999    2.9196 C   0  0  0  0  0  0  0  0  0  0  0  0
   -2.5399   -1.6475   -0.6419 C   0  0  0  0  0  0  0  0  0  0  0  0
   -4.9582   -1.5391   -0.3498 C   0  0  0  0  0  0  0  0  0  0  0  0
   -5.9680   -1.6026   -0.7815 H   0  0  0  0  0  0  0  0  0  0  0  0
   -2.3629   -1.3768    0.7487 C   0  0  0  0  0  0  0  0  0  0  0  0
   -0.7274   -1.4673    2.4579 C   0  0  0  0  0  0  0  0  0  0  0  0
   -1.4171   -1.9732    3.1605 H   0  0  0  0  0  0  0  0  0  0  0  0
   -3.8417   -1.7202   -1.1755 C   0  0  0  0  0  0  0  0  0  0  0  0
   -3.9867   -1.9363   -2.2429 H   0  0  0  0  0  0  0  0  0  0  0  0
   -1.5468   -1.3476   -3.2442 C   0  0  0  0  0  0  0  0  0  0  0  0
   -1.9472   -0.3170   -3.1824 H   0  0  0  0  0  0  0  0  0  0  0  0
   -2.2669   -2.0296   -3.7353 H   0  0  0  0  0  0  0  0  0  0  0  0
   -0.6087   -1.3439   -3.8312 H   0  0  0  0  0  0  0  0  0  0  0  0
    2.6504   -0.1528    2.3307 C   0  0  0  0  0  0  0  0  0  0  0  0
    3.2618    0.3072    1.5361 H   0  0  0  0  0  0  0  0  0  0  0  0
    1.0434   -1.3176    4.2420 C   0  0  0  0  0  0  0  0  0  0  0  0
    0.3664   -1.7830    4.9738 H   0  0  0  0  0  0  0  0  0  0  0  0
    3.1618   -0.3347    3.6241 C   0  0  0  0  0  0  0  0  0  0  0  0
    4.1875   -0.0176    3.8604 H   0  0  0  0  0  0  0  0  0  0  0  0
    2.3398   -0.9289    4.5970 C   0  0  0  0  0  0  0  0  0  0  0  0
    2.7084   -1.0860    5.6213 H   0  0  0  0  0  0  0  0  0  0  0  0
  1  9  1  0  0  0  0
  2  3  1  0  0  0  0
  4 21  1  0  0  0  0
  4  8  1  0  0  0  0
  5  2  1  0  0  0  0
  5  6  1  0  0  0  0
  7 13  1  0  0  0  0
  8 23  1  0  0  0  0
  9 12  1  0  0  0  0
 10  5  2  0  0  0  0
 11 10  1  0  0  0  0
 12  7  1  0  0  0  0
 12  2  2  0  0  0  0
 13  8  2  0  0  0  0
 13 14  1  0  0  0  0
 15  9  2  0  0  0  0
 15 10  1  0  0  0  0
 16 15  1  0  0  0  0
 17 18  1  0  0  0  0
 17  1  1  0  0  0  0
 19 17  1  0  0  0  0
 20 17  1  0  0  0  0
 21 25  2  0  0  0  0
 22 21  1  0  0  0  0
 23 27  2  0  0  0  0
 23 24  1  0  0  0  0
 25 26  1  0  0  0  0
 25 27  1  0  0  0  0
 27 28  1  0  0  0  0
M  END
