1,2,5
q = -1.0, confidence = 0.008

 80 82  0  0  1  0  0  0  0  0999 V2000
    0.6029   -0.0997   -2.1130 S   0  0  0  0  0  1  0  0  0  0  0  0
   -1.2888    1.3179    0.2297 N   0  0  0  0  0  2  0  0  0  0  0  0
    0.0140    1.5854    0.5312 N   0  0  0  0  0  0  0  0  0  0  0  0
    0.3715   -0.6833    1.3275 N   0  0  0  0  0  0  0  0  0  0  0  0
   -0.5702   -1.4309    0.6760 N   0  0  0  0  0  2  0  0  0  0  0  0
    2.8888   -0.1427   -0.5580 N   0  0  0  0  0  0  0  0  0  0  0  0
   -1.9364    2.4997    0.2120 C   0  0  1  0  0  3  0  0  0  0  0  0
   -1.0088    3.5357    0.4674 C   0  0  0  0  0  0  0  0  0  0  0  0
   -1.2269    4.6040    0.5123 H   0  0  0  0  0  0  0  0  0  0  0  0
    0.2451    2.9417    0.6444 C   0  0  0  0  0  0  0  0  0  0  0  0
    0.9563    0.4713    0.6418 C   0  0  1  0  0  0  0  0  0  0  0  0
    1.7789    0.8220    1.2777 H   0  0  0  0  0  0  0  0  0  0  0  0
    0.8112   -1.3264    2.4683 C   0  0  2  0  0  3  0  0  0  0  0  0
    0.0957   -2.5226    2.5216 C   0  0  0  0  0  0  0  0  0  0  0  0
    0.1734   -3.2843    3.2989 H   0  0  0  0  0  0  0  0  0  0  0  0
   -0.7546   -2.5543    1.3906 C   0  0  0  0  0  0  0  0  0  0  0  0
    1.6127    0.0499   -0.6980 C   0  0  0  0  0  0  0  0  0  0  0  0
   -3.4238    2.6247   -0.0706 C   0  0  0  0  0  0  0  0  0  0  0  0
   -3.9445    3.9441    0.5331 C   0  0  0  0  0  0  0  0  0  0  0  0
   -3.7565    3.9955    1.6248 H   0  0  0  0  0  0  0  0  0  0  0  0
   -5.0378    4.0222    0.3691 H   0  0  0  0  0  0  0  0  0  0  0  0
   -3.4767    4.8296    0.0575 H   0  0  0  0  0  0  0  0  0  0  0  0
   -3.6416    2.6490   -1.6019 C   0  0  0  0  0  0  0  0  0  0  0  0
   -3.0885    3.4907   -2.0656 H   0  0  0  0  0  0  0  0  0  0  0  0
   -4.7199    2.7744   -1.8298 H   0  0  0  0  0  0  0  0  0  0  0  0
   -3.3083    1.7032   -2.0717 H   0  0  0  0  0  0  0  0  0  0  0  0
   -4.1856    1.4431    0.5616 C   0  0  0  0  0  0  0  0  0  0  0  0
   -3.8706    0.4762    0.1254 H   0  0  0  0  0  0  0  0  0  0  0  0
   -5.2720    1.5502    0.3689 H   0  0  0  0  0  0  0  0  0  0  0  0
   -4.0270    1.4073    1.6584 H   0  0  0  0  0  0  0  0  0  0  0  0
    1.5918    3.6536    0.7797 C   0  0  0  0  0  0  0  0  0  0  0  0
    2.3430    3.3228    2.0872 C   0  0  0  0  0  0  0  0  0  0  0  0
    1.7180    3.5264    2.9789 H   0  0  0  0  0  0  0  0  0  0  0  0
    3.2503    3.9563    2.1539 H   0  0  0  0  0  0  0  0  0  0  0  0
    2.6921    2.2740    2.1355 H   0  0  0  0  0  0  0  0  0  0  0  0
    2.4896    3.3138   -0.4346 C   0  0  0  0  0  0  0  0  0  0  0  0
    2.8528    2.2693   -0.4089 H   0  0  0  0  0  0  0  0  0  0  0  0
    3.3794    3.9755   -0.4316 H   0  0  0  0  0  0  0  0  0  0  0  0
    1.9462    3.4662   -1.3878 H   0  0  0  0  0  0  0  0  0  0  0  0
    1.3252    5.1742    0.7726 C   0  0  0  0  0  0  0  0  0  0  0  0
    0.8416    5.4986   -0.1693 H   0  0  0  0  0  0  0  0  0  0  0  0
    2.2881    5.7147    0.8604 H   0  0  0  0  0  0  0  0  0  0  0  0
    0.6840    5.4840    1.6218 H   0  0  0  0  0  0  0  0  0  0  0  0
    1.8027   -0.7805    3.4838 C   0  0  0  0  0  0  0  0  0  0  0  0
    1.9065   -1.7750    4.6592 C   0  0  0  0  0  0  0  0  0  0  0  0
    0.9284   -1.9252    5.1573 H   0  0  0  0  0  0  0  0  0  0  0  0
    2.6142   -1.3784    5.4138 H   0  0  0  0  0  0  0  0  0  0  0  0
    2.2869   -2.7608    4.3265 H   0  0  0  0  0  0  0  0  0  0  0  0
    3.2233   -0.6291    2.8853 C   0  0  0  0  0  0  0  0  0  0  0  0
    3.6305   -1.6270    2.6259 H   0  0  0  0  0  0  0  0  0  0  0  0
    3.8969   -0.1686    3.6360 H   0  0  0  0  0  0  0  0  0  0  0  0
    3.2740   -0.0359    1.9520 H   0  0  0  0  0  0  0  0  0  0  0  0
    1.2536    0.5511    4.0490 C   0  0  0  0  0  0  0  0  0  0  0  0
    1.0533    1.3034    3.2665 H   0  0  0  0  0  0  0  0  0  0  0  0
    1.9765    0.9921    4.7649 H   0  0  0  0  0  0  0  0  0  0  0  0
    0.2995    0.3738    4.5842 H   0  0  0  0  0  0  0  0  0  0  0  0
   -1.7495   -3.6300    0.9893 C   0  0  0  0  0  0  0  0  0  0  0  0
   -1.4702   -4.0731   -0.4634 C   0  0  0  0  0  0  0  0  0  0  0  0
   -1.5999   -3.2386   -1.1792 H   0  0  0  0  0  0  0  0  0  0  0  0
   -2.1812   -4.8713   -0.7578 H   0  0  0  0  0  0  0  0  0  0  0  0
   -0.4393   -4.4671   -0.5668 H   0  0  0  0  0  0  0  0  0  0  0  0
   -3.1837   -3.0692    1.1183 C   0  0  0  0  0  0  0  0  0  0  0  0
   -3.3866   -2.7353    2.1561 H   0  0  0  0  0  0  0  0  0  0  0  0
   -3.9221   -3.8534    0.8545 H   0  0  0  0  0  0  0  0  0  0  0  0
   -3.3473   -2.2179    0.4297 H   0  0  0  0  0  0  0  0  0  0  0  0
   -1.5958   -4.8427    1.9255 C   0  0  0  0  0  0  0  0  0  0  0  0
   -0.5719   -5.2660    1.8820 H   0  0  0  0  0  0  0  0  0  0  0  0
   -2.3038   -5.6388    1.6215 H   0  0  0  0  0  0  0  0  0  0  0  0
   -1.8212   -4.5803    2.9791 H   0  0  0  0  0  0  0  0  0  0  0  0
    3.7815   -0.5091   -1.5674 C   0  0  0  0  0  0  0  0  0  0  0  0
    4.8413   -1.3773   -1.2087 C   0  0  0  0  0  0  0  0  0  0  0  0
    4.8821   -1.7448   -0.1723 H   0  0  0  0  0  0  0  0  0  0  0  0
    5.8001   -1.7631   -2.1515 C   0  0  0  0  0  0  0  0  0  0  0  0
    6.6068   -2.4524   -1.8579 H   0  0  0  0  0  0  0  0  0  0  0  0
    5.7437   -1.2629   -3.4640 C   0  0  0  0  0  0  0  0  0  0  0  0
    6.5033   -1.5578   -4.2036 H   0  0  0  0  0  0  0  0  0  0  0  0
    4.7142   -0.3773   -3.8209 C   0  0  0  0  0  0  0  0  0  0  0  0
    4.6675    0.0280   -4.8436 H   0  0  0  0  0  0  0  0  0  0  0  0
    3.7334   -0.0068   -2.8908 C   0  0  0  0  0  0  0  0  0  0  0  0
    2.9291    0.6835   -3.1792 H   0  0  0  0  0  0  0  0  0  0  0  0
  1 17  1  0  0  0  0
  2  3  1  0  0  0  0
  3 11  1  0  0  0  0
  3 10  1  0  0  0  0
  4 13  1  0  0  0  0
  5  4  1  0  0  0  0
  5 16  1  0  0  0  0
  7 18  1  6  0  0  0
  7  2  1  0  0  0  0
  7  8  1  0  0  0  0
  8  9  1  0  0  0  0
  8 10  2  0  0  0  0
 10 31  1  0  0  0  0
 11 12  1  1  0  0  0
 11  4  1  0  0  0  0
 13 14  1  0  0  0  0
 13 44  1  1  0  0  0
 14 15  1  0  0  0  0
 16 14  2  0  0  0  0
 17  6  2  0  0  0  0
 17 11  1  0  0  0  0
 18 19  1  0  0  0  0
 18 27  1  0  0  0  0
 19 20  1  0  0  0  0
 21 19  1  0  0  0  0
 22 19  1  0  0  0  0
 23 18  1  0  0  0  0
 24 23  1  0  0  0  0
 25 23  1  0  0  0  0
 26 23  1  0  0  0  0
 27 30  1  0  0  0  0
 28 27  1  0  0  0  0
 29 27  1  0  0  0  0
 31 32  1  0  0  0  0
 32 35  1  0  0  0  0
 32 34  1  0  0  0  0
 32 33  1  0  0  0  0
 36 38  1  0  0  0  0
 36 37  1  0  0  0  0
 36 31  1  0  0  0  0
 39 36  1  0  0  0  0
 40 31  1  0  0  0  0
 40 42  1  0  0  0  0
 40 43  1  0  0  0  0
 41 40  1  0  0  0  0
 44 53  1  0  0  0  0
 44 45  1  0  0  0  0
 45 46  1  0  0  0  0
 45 47  1  0  0  0  0
 48 45  1  0  0  0  0
 49 44  1  0  0  0  0
 49 51  1  0  0  0  0
 50 49  1  0  0  0  0
 52 49  1  0  0  0  0
 53 56  1  0  0  0  0
 53 55  1  0  0  0  0
 54 53  1  0  0  0  0
 57 62  1  0  0  0  0
 57 16  1  0  0  0  0
 57 66  1  0  0  0  0
 58 57  1  0  0  0  0
 59 58  1  0  0  0  0
 60 58  1  0  0  0  0
 61 58  1  0  0  0  0
 62 63  1  0  0  0  0
 64 62  1  0  0  0  0
 65 62  1  0  0  0  0
 66 69  1  0  0  0  0
 67 66  1  0  0  0  0
 68 66  1  0  0  0  0
 70 71  1  0  0  0  0
 70  6  1  0  0  0  0
 71 72  1  0  0  0  0
 73 74  1  0  0  0  0
 73 71  2  0  0  0  0
 75 73  1  0  0  0  0
 76 75  1  0  0  0  0
 77 75  2  0  0  0  0
 77 79  1  0  0  0  0
 78 77  1  0  0  0  0
 79 70  2  0  0  0  0
 80 79  1  0  0  0  0
M  END
