1,2,3
q = -1.0, confidence = 0.0

 27 27  0  0  1  0  0  0  0  0999 V2000
   -1.4331   -2.0884   -1.6065 S   0  0  0  0  0  1  0  0  0  0  0  0
    0.2321    1.0286    1.7360 N   0  0  0  0  0  2  0  0  0  0  0  0
   -1.9510   -0.3092    0.8046 N   0  0  0  0  0  2  0  0  0  0  0  0
   -3.0690   -0.8440    0.2810 N   0  0  0  0  0  0  0  0  0  0  0  0
   -4.0523   -2.1988   -1.2831 N   0  0  0  0  0  0  0  0  0  0  0  0
   -3.9122   -2.8652   -2.0424 H   0  0  0  0  0  0  0  0  0  0  0  0
   -3.3757    0.7448    2.3544 N   0  0  0  0  0  0  0  0  0  0  0  0
   -4.0957    0.3249    1.7505 H   0  0  0  0  0  0  0  0  0  0  0  0
   -3.5780    1.6951    2.6700 H   0  0  0  0  0  0  0  0  0  0  0  0
    1.3429    1.5946    2.2143 C   0  0  0  0  0  3  0  0  0  0  0  0
    2.2576    1.4367    1.6169 H   0  0  0  0  0  0  0  0  0  0  0  0
    1.3608    2.3492    3.4001 C   0  0  0  0  0  0  0  0  0  0  0  0
    2.2950    2.8086    3.7531 H   0  0  0  0  0  0  0  0  0  0  0  0
    0.1606    2.4821    4.1149 C   0  0  0  0  0  0  0  0  0  0  0  0
    0.1319    3.0447    5.0606 H   0  0  0  0  0  0  0  0  0  0  0  0
   -1.0022    1.8778    3.6230 C   0  0  0  0  0  0  0  0  0  0  0  0
   -1.9451    1.9292    4.1856 H   0  0  0  0  0  0  0  0  0  0  0  0
   -0.9361    1.1582    2.4065 C   0  0  0  0  0  0  0  0  0  0  0  0
   -2.1246    0.5214    1.8131 C   0  0  1  0  0  3  0  0  0  0  0  0
   -2.9027   -1.6517   -0.7780 C   0  0  0  0  0  0  0  0  0  0  0  0
   -5.3631   -2.0768   -0.6684 C   0  0  0  0  0  0  0  0  0  0  0  0
   -5.5173   -1.0112   -0.3992 H   0  0  0  0  0  0  0  0  0  0  0  0
   -6.1150   -2.3286   -1.4451 H   0  0  0  0  0  0  0  0  0  0  0  0
   -5.5557   -2.9548    0.5720 C   0  0  0  0  0  0  0  0  0  0  0  0
   -5.4158   -4.0279    0.3298 H   0  0  0  0  0  0  0  0  0  0  0  0
   -6.5750   -2.8255    0.9906 H   0  0  0  0  0  0  0  0  0  0  0  0
   -4.8186   -2.6750    1.3499 H   0  0  0  0  0  0  0  0  0  0  0  0
  1 20  1  0  0  0  0
  2 10  1  0  0  0  0
  2 18  1  0  0  0  0
  4  3  1  0  0  0  0
  5 20  1  0  0  0  0
  5 21  1  0  0  0  0
  6  5  1  0  0  0  0
  7  9  1  0  0  0  0
  8  7  1  0  0  0  0
 10 12  1  0  0  0  0
 11 10  1  0  0  0  0
 12 13  1  0  0  0  0
 12 14  2  0  0  0  0
 14 15  1  0  0  0  0
 16 14  1  0  0  0  0
 16 17  1  0  0  0  0
 18 16  2  0  0  0  0
 19  3  1  1  0  0  0
 19  7  1  0  0  0  0
 19 18  1  0  0  0  0
 20  4  2  0  0  0  0
 21 22  1  0  0  0  0
 21 24  1  0  0  0  0
 23 21  1  0  0  0  0
 24 26  1  0  0  0  0
 24 27  1  0  0  0  0
 25 24  1  0  0  0  0
M  END
