1,2,10
q = -1.0, confidence = 0.0

 42 44  0  0  1  0  0  0  0  0999 V2000
   -0.4161    1.3502   -0.4812 S   0  0  0  0  0  1  0  0  0  0  0  0
    3.0268   -0.7358    0.1032 N   0  0  0  0  0  2  0  0  0  0  0  0
    4.2859   -0.3237    0.3246 C   0  0  0  0  0  0  0  0  0  0  0  0
    5.3400   -1.2284    0.5099 C   0  0  0  0  0  0  0  0  0  0  0  0
    5.0628   -2.6047    0.4602 C   0  0  0  0  0  0  0  0  0  0  0  0
    3.7513   -3.0357    0.2290 C   0  0  0  0  0  0  0  0  0  0  0  0
    2.7298   -2.0802    0.0498 C   0  0  0  0  0  0  0  0  0  0  0  0
    1.3293   -2.3501   -0.1967 C   0  0  0  0  0  0  0  0  0  0  0  0
    0.7020   -3.6997   -0.3038 C   0  0  0  0  0  0  0  0  0  0  0  0
    0.6010   -1.2346   -0.3262 N   0  0  0  0  0  2  0  0  0  0  0  0
   -0.7137   -1.3494   -0.5560 N   0  0  0  0  0  0  0  0  0  0  0  0
   -1.3181   -0.1576   -0.6621 C   0  0  0  0  0  0  0  0  0  0  0  0
   -4.2780    1.3264    0.3416 C   0  0  1  0  0  0  0  0  0  0  0  0
   -3.4052    1.1192   -0.9268 C   0  0  0  0  0  0  0  0  0  0  0  0
   -2.6550   -0.1291   -0.9053 N   0  0  0  0  0  0  0  0  0  0  0  0
   -3.4506   -1.3545   -0.8739 C   0  0  0  0  0  0  0  0  0  0  0  0
   -4.3911   -1.4284    0.3574 C   0  0  2  0  0  0  0  0  0  0  0  0
   -5.7628   -0.7643    0.1273 C   0  0  0  0  0  0  0  0  0  0  0  0
   -5.7092    0.7849    0.1823 C   0  0  0  0  0  0  0  0  0  0  0  0
   -3.6112    0.7084    1.5866 C   0  0  0  0  0  0  0  0  0  0  0  0
   -3.7150   -0.8474    1.6158 C   0  0  0  0  0  0  0  0  0  0  0  0
    4.4190    0.7693    0.3488 H   0  0  0  0  0  0  0  0  0  0  0  0
    6.3561   -0.8511    0.6894 H   0  0  0  0  0  0  0  0  0  0  0  0
    5.8671   -3.3420    0.6014 H   0  0  0  0  0  0  0  0  0  0  0  0
    3.5106   -4.1066    0.1857 H   0  0  0  0  0  0  0  0  0  0  0  0
    1.4436   -4.5113   -0.1974 H   0  0  0  0  0  0  0  0  0  0  0  0
   -0.0818   -3.8265    0.4720 H   0  0  0  0  0  0  0  0  0  0  0  0
    0.1852   -3.8091   -1.2797 H   0  0  0  0  0  0  0  0  0  0  0  0
   -4.3459    2.4248    0.4877 H   0  0  0  0  0  0  0  0  0  0  0  0
   -2.6748    1.9441   -1.0282 H   0  0  0  0  0  0  0  0  0  0  0  0
   -4.0416    1.1295   -1.8390 H   0  0  0  0  0  0  0  0  0  0  0  0
   -2.7357   -2.1950   -0.8624 H   0  0  0  0  0  0  0  0  0  0  0  0
   -4.0438   -1.4150   -1.8130 H   0  0  0  0  0  0  0  0  0  0  0  0
   -4.5717   -2.5118    0.5235 H   0  0  0  0  0  0  0  0  0  0  0  0
   -6.4622   -1.1419    0.9019 H   0  0  0  0  0  0  0  0  0  0  0  0
   -6.1754   -1.1121   -0.8429 H   0  0  0  0  0  0  0  0  0  0  0  0
   -6.3093    1.1536    1.0402 H   0  0  0  0  0  0  0  0  0  0  0  0
   -6.1748    1.2283   -0.7226 H   0  0  0  0  0  0  0  0  0  0  0  0
   -2.5515    1.0325    1.6337 H   0  0  0  0  0  0  0  0  0  0  0  0
   -4.1035    1.1336    2.4849 H   0  0  0  0  0  0  0  0  0  0  0  0
   -2.7095   -1.3001    1.7369 H   0  0  0  0  0  0  0  0  0  0  0  0
   -4.3058   -1.1686    2.4983 H   0  0  0  0  0  0  0  0  0  0  0  0
  2  3  1  0  0  0  0
  3 22  1  0  0  0  0
  3  4  2  0  0  0  0
  4 23  1  0  0  0  0
  5  4  1  0  0  0  0
  5 24  1  0  0  0  0
  6  5  2  0  0  0  0
  7  2  1  0  0  0  0
  7  6  1  0  0  0  0
  8  7  2  0  0  0  0
  9 26  1  0  0  0  0
  9  8  1  0  0  0  0
  9 27  1  0  0  0  0
 10  8  1  0  0  0  0
 11 10  1  0  0  0  0
 12 11  2  0  0  0  0
 12  1  1  0  0  0  0
 13 29  1  1  0  0  0
 13 20  1  0  0  0  0
 14 15  1  0  0  0  0
 14 13  1  0  0  0  0
 15 16  1  0  0  0  0
 15 12  1  0  0  0  0
 16 32  1  0  0  0  0
 16 17  1  0  0  0  0
 17 34  1  1  0  0  0
 17 21  1  0  0  0  0
 18 19  1  0  0  0  0
 18 17  1  0  0  0  0
 18 35  1  0  0  0  0
 19 13  1  0  0  0  0
 19 37  1  0  0  0  0
 20 21  1  0  0  0  0
 20 39  1  0  0  0  0
 20 40  1  0  0  0  0
 21 41  1  0  0  0  0
 21 42  1  0  0  0  0
 25  6  1  0  0  0  0
 28  9  1  0  0  0  0
 30 14  1  0  0  0  0
 31 14  1  0  0  0  0
 33 16  1  0  0  0  0
 36 18  1  0  0  0  0
 38 19  1  0  0  0  0
M  END
