1,2,17
q = 0.0, confidence = 0.998

 45 45  0  0  1  0  0  0  0  0999 V2000
    0.1945    1.4495    0.1270 N   0  0  0  0  0  2  0  0  0  0  0  0
   -1.9205   -0.4686    0.6268 S   0  0  1  0  0  3  0  0  0  0  0  0
   -1.9773    1.3219    1.1967 C   0  0  0  0  0  0  0  0  0  0  0  0
   -2.9911    1.7389    1.0447 H   0  0  0  0  0  0  0  0  0  0  0  0
   -1.8215    1.1864    2.2883 H   0  0  0  0  0  0  0  0  0  0  0  0
   -0.8832    2.1415    0.5835 C   0  0  1  0  0  3  0  0  0  0  0  0
   -0.9044    3.5416    0.4981 C   0  0  0  0  0  0  0  0  0  0  0  0
   -1.7795    4.1004    0.8581 H   0  0  0  0  0  0  0  0  0  0  0  0
    0.2119    4.2096   -0.0267 C   0  0  0  0  0  0  0  0  0  0  0  0
    0.2181    5.3080   -0.0853 H   0  0  0  0  0  0  0  0  0  0  0  0
    1.3226    3.4748   -0.4705 C   0  0  0  0  0  0  0  0  0  0  0  0
    2.2081    3.9782   -0.8834 H   0  0  0  0  0  0  0  0  0  0  0  0
    1.2782    2.0780   -0.3945 C   0  0  0  0  0  0  0  0  0  0  0  0
    2.3354    1.1524   -0.9398 C   0  0  0  0  0  0  0  0  0  0  0  0
    3.3321    1.6429   -0.9226 H   0  0  0  0  0  0  0  0  0  0  0  0
    2.0938    0.9399   -2.0034 H   0  0  0  0  0  0  0  0  0  0  0  0
    2.3607   -0.1559   -0.2140 N   0  0  0  0  0  0  0  0  0  0  0  0
   -2.5627   -1.2959    1.7027 O   0  0  0  0  0  1  0  0  0  0  0  0
   -3.0716   -0.5060   -0.8948 C   0  0  0  0  0  0  0  0  0  0  0  0
   -2.5454    0.4979   -1.9147 C   0  0  0  0  0  0  0  0  0  0  0  0
   -3.1347    0.3997   -2.8492 H   0  0  0  0  0  0  0  0  0  0  0  0
   -1.4820    0.2988   -2.1632 H   0  0  0  0  0  0  0  0  0  0  0  0
   -2.6468    1.5473   -1.5726 H   0  0  0  0  0  0  0  0  0  0  0  0
   -2.9505   -1.9526   -1.3837 C   0  0  0  0  0  0  0  0  0  0  0  0
   -3.2195   -2.6704   -0.5844 H   0  0  0  0  0  0  0  0  0  0  0  0
   -1.9254   -2.1759   -1.7404 H   0  0  0  0  0  0  0  0  0  0  0  0
   -3.6487   -2.1040   -2.2314 H   0  0  0  0  0  0  0  0  0  0  0  0
   -4.4772   -0.2003   -0.3838 C   0  0  0  0  0  0  0  0  0  0  0  0
   -5.2053   -0.4048   -1.1948 H   0  0  0  0  0  0  0  0  0  0  0  0
   -4.6040    0.8617   -0.0931 H   0  0  0  0  0  0  0  0  0  0  0  0
   -4.7323   -0.8449    0.4798 H   0  0  0  0  0  0  0  0  0  0  0  0
    3.0382    0.0389    1.1131 C   0  0  0  0  0  0  0  0  0  0  0  0
    4.0771    0.3904    0.9237 H   0  0  0  0  0  0  0  0  0  0  0  0
    2.5087    0.8741    1.6143 H   0  0  0  0  0  0  0  0  0  0  0  0
    3.0412   -1.1861    2.0121 C   0  0  0  0  0  0  0  0  0  0  0  0
    2.0078   -1.5300    2.2214 H   0  0  0  0  0  0  0  0  0  0  0  0
    3.5170   -0.9244    2.9772 H   0  0  0  0  0  0  0  0  0  0  0  0
    3.6155   -2.0309    1.5844 H   0  0  0  0  0  0  0  0  0  0  0  0
    3.0275   -1.2056   -1.0603 C   0  0  0  0  0  0  0  0  0  0  0  0
    2.3961   -1.3132   -1.9650 H   0  0  0  0  0  0  0  0  0  0  0  0
    2.9447   -2.1590   -0.5068 H   0  0  0  0  0  0  0  0  0  0  0  0
    4.4817   -0.9423   -1.4396 C   0  0  0  0  0  0  0  0  0  0  0  0
    4.6156   -0.0133   -2.0285 H   0  0  0  0  0  0  0  0  0  0  0  0
    4.8357   -1.7782   -2.0742 H   0  0  0  0  0  0  0  0  0  0  0  0
    5.1529   -0.8994   -0.5597 H   0  0  0  0  0  0  0  0  0  0  0  0
  1  6  1  0  0  0  0
  2  3  1  0  0  0  0
  2 18  1  1  0  0  0
  3  5  1  0  0  0  0
  4  3  1  0  0  0  0
  6  3  1  1  0  0  0
  7  6  1  0  0  0  0
  7  8  1  0  0  0  0
  9  7  2  0  0  0  0
 10  9  1  0  0  0  0
 11 13  2  0  0  0  0
 11  9  1  0  0  0  0
 12 11  1  0  0  0  0
 13  1  1  0  0  0  0
 14 15  1  0  0  0  0
 14 13  1  0  0  0  0
 14 17  1  0  0  0  0
 16 14  1  0  0  0  0
 17 32  1  0  0  0  0
 19 28  1  0  0  0  0
 19  2  1  0  0  0  0
 20 23  1  0  0  0  0
 20 19  1  0  0  0  0
 21 20  1  0  0  0  0
 22 20  1  0  0  0  0
 24 19  1  0  0  0  0
 24 25  1  0  0  0  0
 26 24  1  0  0  0  0
 27 24  1  0  0  0  0
 28 30  1  0  0  0  0
 28 31  1  0  0  0  0
 29 28  1  0  0  0  0
 32 34  1  0  0  0  0
 32 35  1  0  0  0  0
 33 32  1  0  0  0  0
 35 36  1  0  0  0  0
 35 37  1  0  0  0  0
 38 35  1  0  0  0  0
 39 41  1  0  0  0  0
 39 17  1  0  0  0  0
 40 39  1  0  0  0  0
 42 39  1  0  0  0  0
 42 45  1  0  0  0  0
 43 42  1  0  0  0  0
 44 42  1  0  0  0  0
M  END
