1,3,4
q = -1.0

 44 44  0  0  0  0  0  0  0  0999 V2000
    1.8768    0.0721   -0.6797 S   0  0  1  0  0  3  0  0  0  0  0  0
    2.5596   -0.4644   -1.9207 O   0  0  0  0  0  1  0  0  0  0  0  0
   -0.5513    1.4456    0.0369 N   0  0  0  0  0  2  0  0  0  0  0  0
   -2.3993   -0.5309    0.1923 N   0  0  0  0  0  0  0  0  0  0  0  0
    3.1216   -0.2711    0.7363 C   0  0  0  0  0  0  0  0  0  0  0  0
    2.4961    0.2389    2.0281 C   0  0  0  0  0  0  0  0  0  0  0  0
    1.5269   -0.2683    2.2205 H   0  0  0  0  0  0  0  0  0  0  0  0
    2.3143    1.3314    1.9817 H   0  0  0  0  0  0  0  0  0  0  0  0
    3.1760    0.0328    2.8812 H   0  0  0  0  0  0  0  0  0  0  0  0
    4.4031    0.4671    0.3531 C   0  0  0  0  0  0  0  0  0  0  0  0
    4.2660    1.5658    0.3947 H   0  0  0  0  0  0  0  0  0  0  0  0
    4.7190    0.1818   -0.6701 H   0  0  0  0  0  0  0  0  0  0  0  0
    5.2145    0.1974    1.0606 H   0  0  0  0  0  0  0  0  0  0  0  0
    3.3259   -1.7851    0.7347 C   0  0  0  0  0  0  0  0  0  0  0  0
    4.1135   -2.0549    1.4689 H   0  0  0  0  0  0  0  0  0  0  0  0
    3.6411   -2.1352   -0.2674 H   0  0  0  0  0  0  0  0  0  0  0  0
    2.3965   -2.3171    1.0182 H   0  0  0  0  0  0  0  0  0  0  0  0
    1.6837    1.8037   -0.7280 C   0  0  0  0  0  0  0  0  0  0  0  0
    2.5244    2.3976   -1.1051 H   0  0  0  0  0  0  0  0  0  0  0  0
    0.4466    2.3338   -0.3504 C   0  0  0  0  0  0  0  0  0  0  0  0
    0.1135    3.7344   -0.3202 C   0  0  0  0  0  0  0  0  0  0  0  0
    0.8780    4.4647   -0.6196 H   0  0  0  0  0  0  0  0  0  0  0  0
   -1.1466    4.1444    0.0760 C   0  0  0  0  0  0  0  0  0  0  0  0
   -1.3892    5.2184    0.0837 H   0  0  0  0  0  0  0  0  0  0  0  0
   -2.1329    3.2004    0.4796 C   0  0  0  0  0  0  0  0  0  0  0  0
   -3.1331    3.5114    0.8083 H   0  0  0  0  0  0  0  0  0  0  0  0
   -1.7717    1.8576    0.4569 C   0  0  0  0  0  0  0  0  0  0  0  0
   -2.6361    0.7296    0.9621 C   0  0  0  0  0  0  0  0  0  0  0  0
   -3.7167    0.9988    0.9421 H   0  0  0  0  0  0  0  0  0  0  0  0
   -2.3616    0.5327    2.0173 H   0  0  0  0  0  0  0  0  0  0  0  0
   -3.0678   -0.3878   -1.1410 C   0  0  0  0  0  0  0  0  0  0  0  0
   -2.7798    0.6103   -1.5266 H   0  0  0  0  0  0  0  0  0  0  0  0
   -4.1701   -0.3616   -0.9635 H   0  0  0  0  0  0  0  0  0  0  0  0
   -2.7147   -1.4487   -2.1729 C   0  0  0  0  0  0  0  0  0  0  0  0
   -1.6310   -1.4180   -2.4041 H   0  0  0  0  0  0  0  0  0  0  0  0
   -3.2808   -1.2476   -3.1042 H   0  0  0  0  0  0  0  0  0  0  0  0
   -2.9730   -2.4754   -1.8462 H   0  0  0  0  0  0  0  0  0  0  0  0
   -2.9473   -1.7061    0.9266 C   0  0  0  0  0  0  0  0  0  0  0  0
   -2.8401   -2.5747    0.2502 H   0  0  0  0  0  0  0  0  0  0  0  0
   -4.0418   -1.5474    1.0808 H   0  0  0  0  0  0  0  0  0  0  0  0
   -2.2572   -2.0103    2.2498 C   0  0  0  0  0  0  0  0  0  0  0  0
   -1.1578   -2.0591    2.1080 H   0  0  0  0  0  0  0  0  0  0  0  0
   -2.6064   -2.9905    2.6300 H   0  0  0  0  0  0  0  0  0  0  0  0
   -2.4727   -1.2592    3.0350 H   0  0  0  0  0  0  0  0  0  0  0  0
  1  2  1  6  0  0  0
  1  5  1  0  0  0  0
  3 27  1  0  0  0  0
  4 38  1  0  0  0  0
  4 28  1  0  0  0  0
  5  6  1  0  0  0  0
  6  7  1  0  0  0  0
  6  9  1  0  0  0  0
  8  6  1  0  0  0  0
 10 11  1  0  0  0  0
 10  5  1  0  0  0  0
 10 13  1  0  0  0  0
 12 10  1  0  0  0  0
 14  5  1  0  0  0  0
 14 17  1  0  0  0  0
 14 15  1  0  0  0  0
 16 14  1  0  0  0  0
 18  1  1  0  0  0  0
 18 20  2  0  0  0  0
 19 18  1  0  0  0  0
 20 21  1  0  0  0  0
 20  3  1  0  0  0  0
 21 23  2  0  0  0  0
 22 21  1  0  0  0  0
 23 24  1  0  0  0  0
 23 25  1  0  0  0  0
 25 26  1  0  0  0  0
 27 25  2  0  0  0  0
 27 28  1  0  0  0  0
 28 30  1  0  0  0  0
 29 28  1  0  0  0  0
 31 33  1  0  0  0  0
 31  4  1  0  0  0  0
 32 31  1  0  0  0  0
 34 37  1  0  0  0  0
 34 31  1  0  0  0  0
 35 34  1  0  0  0  0
 36 34  1  0  0  0  0
 38 40  1  0  0  0  0
 38 41  1  0  0  0  0
 39 38  1  0  0  0  0
 41 43  1  0  0  0  0
 41 44  1  0  0  0  0
 42 41  1  0  0  0  0
M  END
