1,2,3
q = -1.0, confidence = 0.0

 35 36  0  0  0  0  0  0  0  0999 V2000
    0.6089    0.6450   -0.1681 S   0  0  0  0  0  1  0  0  0  0  0  0
   -3.4506    0.1809   -0.0491 N   0  0  0  0  0  2  0  0  0  0  0  0
   -1.3940   -1.2927   -0.0069 N   0  0  0  0  0  2  0  0  0  0  0  0
   -0.2251   -1.9434    0.0179 N   0  0  0  0  0  0  0  0  0  0  0  0
    2.0452   -1.6510   -0.0397 N   0  0  0  0  0  0  0  0  0  0  0  0
    2.0444   -2.6715   -0.1318 H   0  0  0  0  0  0  0  0  0  0  0  0
   -4.4619    1.0652   -0.0789 C   0  0  0  0  0  0  0  0  0  0  0  0
   -4.1451    2.1204   -0.1371 H   0  0  0  0  0  0  0  0  0  0  0  0
   -5.8033    0.6591   -0.0381 C   0  0  0  0  0  0  0  0  0  0  0  0
   -6.5996    1.4158   -0.0645 H   0  0  0  0  0  0  0  0  0  0  0  0
   -6.0963   -0.7131    0.0358 C   0  0  0  0  0  0  0  0  0  0  0  0
   -7.1397   -1.0608    0.0692 H   0  0  0  0  0  0  0  0  0  0  0  0
   -5.0464   -1.6383    0.0667 C   0  0  0  0  0  0  0  0  0  0  0  0
   -5.2362   -2.7195    0.1241 H   0  0  0  0  0  0  0  0  0  0  0  0
   -3.7176   -1.1699    0.0228 C   0  0  0  0  0  0  0  0  0  0  0  0
   -2.5319   -1.9798    0.0457 C   0  0  0  0  0  0  0  0  0  0  0  0
   -2.5208   -3.0779    0.1047 H   0  0  0  0  0  0  0  0  0  0  0  0
    0.8067   -1.0911   -0.0444 C   0  0  0  0  0  0  0  0  0  0  0  0
    3.2898   -0.9600   -0.0910 C   0  0  0  0  0  0  0  0  0  0  0  0
    3.7376   -0.1844    1.0085 C   0  0  0  0  0  0  0  0  0  0  0  0
    4.9866    0.4539    0.8859 C   0  0  0  0  0  0  0  0  0  0  0  0
    5.3453    1.0594    1.7341 H   0  0  0  0  0  0  0  0  0  0  0  0
    5.8001    0.3339   -0.2560 C   0  0  0  0  0  0  0  0  0  0  0  0
    5.3384   -0.4724   -1.3162 C   0  0  0  0  0  0  0  0  0  0  0  0
    5.9554   -0.5955   -2.2199 H   0  0  0  0  0  0  0  0  0  0  0  0
    4.0955   -1.1066   -1.2350 C   0  0  0  0  0  0  0  0  0  0  0  0
    3.7250   -1.7192   -2.0708 H   0  0  0  0  0  0  0  0  0  0  0  0
    2.9288   -0.0586    2.2703 C   0  0  0  0  0  0  0  0  0  0  0  0
    2.0852    0.6499    2.1265 H   0  0  0  0  0  0  0  0  0  0  0  0
    3.5529    0.3050    3.1084 H   0  0  0  0  0  0  0  0  0  0  0  0
    2.4767   -1.0291    2.5577 H   0  0  0  0  0  0  0  0  0  0  0  0
    7.1161    1.0631   -0.3515 C   0  0  0  0  0  0  0  0  0  0  0  0
    7.8641    0.4836   -0.9282 H   0  0  0  0  0  0  0  0  0  0  0  0
    7.5391    1.2778    0.6493 H   0  0  0  0  0  0  0  0  0  0  0  0
    6.9903    2.0381   -0.8700 H   0  0  0  0  0  0  0  0  0  0  0  0
  1 18  1  0  0  0  0
  2 15  1  0  0  0  0
  3  4  1  0  0  0  0
  3 16  1  0  0  0  0
  6  5  1  0  0  0  0
  7  2  1  0  0  0  0
  7  9  2  0  0  0  0
  8  7  1  0  0  0  0
  9 11  1  0  0  0  0
 10  9  1  0  0  0  0
 11 13  2  0  0  0  0
 11 12  1  0  0  0  0
 13 14  1  0  0  0  0
 15 16  2  0  0  0  0
 15 13  1  0  0  0  0
 16 17  1  0  0  0  0
 18  5  1  0  0  0  0
 18  4  2  0  0  0  0
 19  5  1  0  0  0  0
 19 20  1  0  0  0  0
 20 28  1  0  0  0  0
 21 20  2  0  0  0  0
 21 22  1  0  0  0  0
 23 21  1  0  0  0  0
 24 26  1  0  0  0  0
 24 23  2  0  0  0  0
 25 24  1  0  0  0  0
 26 19  2  0  0  0  0
 27 26  1  0  0  0  0
 28 31  1  0  0  0  0
 28 30  1  0  0  0  0
 29 28  1  0  0  0  0
 32 23  1  0  0  0  0
 32 34  1  0  0  0  0
 33 32  1  0  0  0  0
 35 32  1  0  0  0  0
M  END
