2,3,4
q = -1.0, confidence = 0.0

 19 19  0  0  0  0  0  0  0  0999 V2000
   -3.0382   -1.3840   -2.3417 S   0  0  0  0  0  0  0  0  0  0  0  0
    0.7380    1.4211    2.0354 S   0  0  0  0  0  1  0  0  0  0  0  0
   -0.9385   -1.0270   -0.9018 N   0  0  0  0  0  2  0  0  0  0  0  0
   -1.5798    1.0628    0.4282 N   0  0  0  0  0  2  0  0  0  0  0  0
   -1.7545    2.1441    1.1843 N   0  0  0  0  0  0  0  0  0  0  0  0
   -0.8057    3.4665    2.8015 N   0  0  0  0  0  0  0  0  0  0  0  0
   -1.6657    4.0162    2.7997 H   0  0  0  0  0  0  0  0  0  0  0  0
   -0.0625    3.6951    3.4593 H   0  0  0  0  0  0  0  0  0  0  0  0
   -0.6881   -2.1532   -1.6361 C   0  0  0  0  0  0  0  0  0  0  0  0
    0.2596   -2.6919   -1.5093 H   0  0  0  0  0  0  0  0  0  0  0  0
   -1.7172   -2.5046   -2.4835 C   0  0  0  0  0  0  0  0  0  0  0  0
   -1.7744   -3.3539   -3.1738 H   0  0  0  0  0  0  0  0  0  0  0  0
   -2.1470   -0.4914   -1.1501 C   0  0  0  0  0  0  0  0  0  0  0  0
   -2.5378    0.6843   -0.4219 C   0  0  0  0  0  0  0  0  0  0  0  0
   -3.8330    1.4099   -0.5591 C   0  0  0  0  0  0  0  0  0  0  0  0
   -4.3537    1.4536    0.4194 H   0  0  0  0  0  0  0  0  0  0  0  0
   -4.4955    0.9228   -1.2982 H   0  0  0  0  0  0  0  0  0  0  0  0
   -3.6629    2.4622   -0.8665 H   0  0  0  0  0  0  0  0  0  0  0  0
   -0.7088    2.3951    1.9905 C   0  0  0  0  0  0  0  0  0  0  0  0
  1 13  1  0  0  0  0
  4  5  1  0  0  0  0
  5 19  2  0  0  0  0
  6  8  1  0  0  0  0
  7  6  1  0  0  0  0
  9 10  1  0  0  0  0
  9  3  1  0  0  0  0
 11  1  1  0  0  0  0
 11  9  2  0  0  0  0
 12 11  1  0  0  0  0
 13  3  1  0  0  0  0
 13 14  2  0  0  0  0
 14  4  1  0  0  0  0
 15 14  1  0  0  0  0
 15 16  1  0  0  0  0
 17 15  1  0  0  0  0
 18 15  1  0  0  0  0
 19  2  1  0  0  0  0
 19  6  1  0  0  0  0
M  END
