1,2,3
q = -1.0

 40 41  0  0  1  0  0  0  0  0999 V2000
   -1.6605   -0.8532   -0.0616 S   0  0  0  0  0  1  0  0  0  0  0  0
   -0.0353    1.8763   -0.7381 N   0  0  0  0  0  2  0  0  0  0  0  0
    2.4146    0.5563   -0.8751 N   0  0  0  0  0  0  0  0  0  0  0  0
    2.8172   -0.2201   -1.4224 H   0  0  0  0  0  0  0  0  0  0  0  0
   -2.7036    0.5102    0.0687 C   0  0  2  0  0  3  0  0  0  0  0  0
   -1.1841    2.5031   -0.4982 C   0  0  0  0  0  0  0  0  0  0  0  0
   -1.2440    4.0116   -0.6392 C   0  0  0  0  0  0  0  0  0  0  0  0
   -0.4788    4.5101   -0.0088 H   0  0  0  0  0  0  0  0  0  0  0  0
   -2.2365    4.3964   -0.3463 H   0  0  0  0  0  0  0  0  0  0  0  0
   -1.0530    4.3287   -1.6862 H   0  0  0  0  0  0  0  0  0  0  0  0
   -4.1132    0.1490    0.3998 C   0  0  0  0  0  0  0  0  0  0  0  0
   -2.3968    1.8608   -0.1103 C   0  0  0  0  0  0  0  0  0  0  0  0
   -3.2293    2.5534    0.0811 H   0  0  0  0  0  0  0  0  0  0  0  0
    1.1370    2.6556   -1.1534 C   0  0  0  0  0  0  0  0  0  0  0  0
    1.5575    3.2147   -0.2855 H   0  0  0  0  0  0  0  0  0  0  0  0
    0.8741    3.4189   -1.9168 H   0  0  0  0  0  0  0  0  0  0  0  0
    3.2506    0.7759    0.2879 C   0  0  0  0  0  0  0  0  0  0  0  0
    2.2011    1.7435   -1.7471 C   0  0  0  0  0  0  0  0  0  0  0  0
    1.8538    1.3546   -2.7251 H   0  0  0  0  0  0  0  0  0  0  0  0
    3.1506    2.3024   -1.9007 H   0  0  0  0  0  0  0  0  0  0  0  0
   -5.7283   -1.1983    1.6490 C   0  0  0  0  0  0  0  0  0  0  0  0
   -5.9325   -1.9834    2.3928 H   0  0  0  0  0  0  0  0  0  0  0  0
    2.7267    1.3851    1.4424 C   0  0  0  0  0  0  0  0  0  0  0  0
    1.6568    1.6366    1.4812 H   0  0  0  0  0  0  0  0  0  0  0  0
   -5.1929    0.8078   -0.2330 C   0  0  0  0  0  0  0  0  0  0  0  0
   -4.9841    1.5732   -0.9953 H   0  0  0  0  0  0  0  0  0  0  0  0
   -4.4028   -0.8650    1.3422 C   0  0  0  0  0  0  0  0  0  0  0  0
   -3.5697   -1.3800    1.8430 H   0  0  0  0  0  0  0  0  0  0  0  0
   -6.7912   -0.5334    1.0170 C   0  0  0  0  0  0  0  0  0  0  0  0
   -7.8321   -0.7987    1.2570 H   0  0  0  0  0  0  0  0  0  0  0  0
   -6.5176    0.4691    0.0726 C   0  0  0  0  0  0  0  0  0  0  0  0
   -7.3438    0.9856   -0.4396 H   0  0  0  0  0  0  0  0  0  0  0  0
    3.5580    1.6049    2.5494 C   0  0  0  0  0  0  0  0  0  0  0  0
    3.1415    2.0739    3.4534 H   0  0  0  0  0  0  0  0  0  0  0  0
    4.5950    0.3674    0.2574 C   0  0  0  0  0  0  0  0  0  0  0  0
    4.9937   -0.1286   -0.6412 H   0  0  0  0  0  0  0  0  0  0  0  0
    5.4170    0.5764    1.3745 C   0  0  0  0  0  0  0  0  0  0  0  0
    6.4647    0.2414    1.3484 H   0  0  0  0  0  0  0  0  0  0  0  0
    4.9032    1.2033    2.5196 C   0  0  0  0  0  0  0  0  0  0  0  0
    5.5475    1.3650    3.3965 H   0  0  0  0  0  0  0  0  0  0  0  0
  2  6  1  0  0  0  0
  3 17  1  0  0  0  0
  4  3  1  0  0  0  0
  5  1  1  6  0  0  0
  5 11  1  0  0  0  0
  6 12  2  0  0  0  0
  7  6  1  0  0  0  0
  7  9  1  0  0  0  0
  7  8  1  0  0  0  0
 10  7  1  0  0  0  0
 11 27  1  0  0  0  0
 12  5  1  0  0  0  0
 12 13  1  0  0  0  0
 14  2  1  0  0  0  0
 14 15  1  0  0  0  0
 16 14  1  0  0  0  0
 17 23  1  0  0  0  0
 18 14  1  0  0  0  0
 18  3  1  0  0  0  0
 19 18  1  0  0  0  0
 20 18  1  0  0  0  0
 21 22  1  0  0  0  0
 23 24  1  0  0  0  0
 23 33  2  0  0  0  0
 25 31  1  0  0  0  0
 25 11  2  0  0  0  0
 26 25  1  0  0  0  0
 27 21  2  0  0  0  0
 27 28  1  0  0  0  0
 29 30  1  0  0  0  0
 29 21  1  0  0  0  0
 31 29  2  0  0  0  0
 32 31  1  0  0  0  0
 33 34  1  0  0  0  0
 35 17  2  0  0  0  0
 35 37  1  0  0  0  0
 36 35  1  0  0  0  0
 37 39  2  0  0  0  0
 38 37  1  0  0  0  0
 39 33  1  0  0  0  0
 39 40  1  0  0  0  0
M  END
