1,2,3
q = -1.0

 40 41  0  0  1  0  0  0  0  0999 V2000
   -1.4658   -1.0773   -0.3579 S   0  0  0  0  0  1  0  0  0  0  0  0
   -0.0391    1.8437    0.1116 N   0  0  0  0  0  2  0  0  0  0  0  0
    2.5262    0.8044   -0.3370 N   0  0  0  0  0  0  0  0  0  0  0  0
    2.6560    1.0566   -1.3287 H   0  0  0  0  0  0  0  0  0  0  0  0
   -1.2725    2.3047    0.2952 C   0  0  1  0  0  3  0  0  0  0  0  0
   -2.6337    0.1188    0.0747 C   0  0  0  0  0  0  0  0  0  0  0  0
   -4.0234   -0.4199    0.1570 C   0  0  0  0  0  0  0  0  0  0  0  0
   -2.4421    1.4817    0.3119 C   0  0  0  0  0  0  0  0  0  0  0  0
   -3.3595    2.0272    0.5793 H   0  0  0  0  0  0  0  0  0  0  0  0
    3.6469   -0.0187    0.0600 C   0  0  0  0  0  0  0  0  0  0  0  0
    1.0846    2.7727    0.0570 C   0  0  0  0  0  0  0  0  0  0  0  0
    0.9610    3.6435    0.7356 H   0  0  0  0  0  0  0  0  0  0  0  0
    1.1858    3.1953   -0.9730 H   0  0  0  0  0  0  0  0  0  0  0  0
   -4.2825   -1.6811    0.7418 C   0  0  0  0  0  0  0  0  0  0  0  0
   -3.4398   -2.2596    1.1483 H   0  0  0  0  0  0  0  0  0  0  0  0
   -5.1161    0.3151   -0.3590 C   0  0  0  0  0  0  0  0  0  0  0  0
   -4.9289    1.2813   -0.8511 H   0  0  0  0  0  0  0  0  0  0  0  0
    2.3723    2.0611    0.4494 C   0  0  0  0  0  0  0  0  0  0  0  0
    3.2555    2.7211    0.3029 H   0  0  0  0  0  0  0  0  0  0  0  0
    2.3282    1.7749    1.5171 H   0  0  0  0  0  0  0  0  0  0  0  0
   -5.5889   -2.1816    0.8187 C   0  0  0  0  0  0  0  0  0  0  0  0
   -5.7684   -3.1614    1.2874 H   0  0  0  0  0  0  0  0  0  0  0  0
   -6.6650   -1.4382    0.3081 C   0  0  0  0  0  0  0  0  0  0  0  0
   -7.6906   -1.8335    0.3672 H   0  0  0  0  0  0  0  0  0  0  0  0
   -1.5038    3.7898    0.5068 C   0  0  0  0  0  0  0  0  0  0  0  0
   -0.9773    4.1667    1.4094 H   0  0  0  0  0  0  0  0  0  0  0  0
   -2.5795    4.0072    0.6314 H   0  0  0  0  0  0  0  0  0  0  0  0
   -1.1347    4.3848   -0.3548 H   0  0  0  0  0  0  0  0  0  0  0  0
    3.6984   -0.5666    1.3538 C   0  0  0  0  0  0  0  0  0  0  0  0
    2.8649   -0.3929    2.0502 H   0  0  0  0  0  0  0  0  0  0  0  0
   -6.4216   -0.1884   -0.2836 C   0  0  0  0  0  0  0  0  0  0  0  0
   -7.2556    0.3963   -0.7016 H   0  0  0  0  0  0  0  0  0  0  0  0
    4.6702   -0.2924   -0.8606 C   0  0  0  0  0  0  0  0  0  0  0  0
    4.6173    0.1280   -1.8777 H   0  0  0  0  0  0  0  0  0  0  0  0
    4.7847   -1.3690    1.7232 C   0  0  0  0  0  0  0  0  0  0  0  0
    4.8182   -1.8001    2.7350 H   0  0  0  0  0  0  0  0  0  0  0  0
    5.8136   -1.6440    0.8059 C   0  0  0  0  0  0  0  0  0  0  0  0
    6.6590   -2.2840    1.0987 H   0  0  0  0  0  0  0  0  0  0  0  0
    5.7491   -1.1097   -0.4886 C   0  0  0  0  0  0  0  0  0  0  0  0
    6.5429   -1.3266   -1.2189 H   0  0  0  0  0  0  0  0  0  0  0  0
  1  6  1  0  0  0  0
  3 10  1  0  0  0  0
  3 18  1  0  0  0  0
  4  3  1  0  0  0  0
  5  2  1  1  0  0  0
  5  8  1  0  0  0  0
  5 25  1  0  0  0  0
  6  7  1  0  0  0  0
  6  8  2  0  0  0  0
  7 14  1  0  0  0  0
  8  9  1  0  0  0  0
 10 29  1  0  0  0  0
 11  2  1  0  0  0  0
 11 18  1  0  0  0  0
 11 12  1  0  0  0  0
 13 11  1  0  0  0  0
 14 21  2  0  0  0  0
 14 15  1  0  0  0  0
 16 31  1  0  0  0  0
 16  7  2  0  0  0  0
 17 16  1  0  0  0  0
 18 20  1  0  0  0  0
 19 18  1  0  0  0  0
 21 22  1  0  0  0  0
 23 24  1  0  0  0  0
 23 21  1  0  0  0  0
 25 27  1  0  0  0  0
 25 26  1  0  0  0  0
 28 25  1  0  0  0  0
 29 35  2  0  0  0  0
 29 30  1  0  0  0  0
 31 23  2  0  0  0  0
 32 31  1  0  0  0  0
 33 39  1  0  0  0  0
 33 10  2  0  0  0  0
 34 33  1  0  0  0  0
 35 36  1  0  0  0  0
 37 38  1  0  0  0  0
 37 35  1  0  0  0  0
 39 37  2  0  0  0  0
 40 39  1  0  0  0  0
M  END
