1,2,5
q = 0.0, confidence = 0.996

 27 28  0  0  1  0  0  0  0  0999 V2000
   -3.2319   -0.9667   -0.3304 S   0  0  0  0  0  1  0  0  0  0  0  0
    1.0313    0.4453   -0.1400 N   0  0  0  0  0  2  0  0  0  0  0  0
    2.0384    2.4039    0.2372 N   0  0  0  0  0  0  0  0  0  0  0  0
    2.1685    3.3942    0.4466 H   0  0  0  0  0  0  0  0  0  0  0  0
   -1.4266    1.3762    0.1210 N   0  0  0  0  0  2  0  0  0  0  0  0
   -2.7332    1.6382    0.2282 N   0  0  0  0  0  0  0  0  0  0  0  0
   -3.0505    2.5844    0.4757 H   0  0  0  0  0  0  0  0  0  0  0  0
   -4.9465    0.9842    0.2121 N   0  0  0  0  0  0  0  0  0  0  0  0
   -5.6662    0.2660    0.1158 H   0  0  0  0  0  0  0  0  0  0  0  0
   -5.2388    1.9223    0.4931 H   0  0  0  0  0  0  0  0  0  0  0  0
    2.3923    0.2320   -0.1799 C   0  0  0  0  0  0  0  0  0  0  0  0
    3.1318   -0.9502   -0.3937 C   0  0  0  0  0  0  0  0  0  0  0  0
    2.6142   -1.9075   -0.5531 H   0  0  0  0  0  0  0  0  0  0  0  0
    4.5218   -0.8368   -0.3687 C   0  0  0  0  0  0  0  0  0  0  0  0
    5.1377   -1.7344   -0.5247 H   0  0  0  0  0  0  0  0  0  0  0  0
    5.1707    0.4077   -0.1397 C   0  0  0  0  0  0  0  0  0  0  0  0
    6.2700    0.4407   -0.1295 H   0  0  0  0  0  0  0  0  0  0  0  0
    4.4555    1.5888    0.0790 C   0  0  0  0  0  0  0  0  0  0  0  0
    4.9655    2.5451    0.2608 H   0  0  0  0  0  0  0  0  0  0  0  0
    3.0559    1.4784    0.0567 C   0  0  0  0  0  0  0  0  0  0  0  0
    0.8414    1.7437    0.1167 C   0  0  0  0  0  0  0  0  0  0  0  0
   -0.5033    2.2941    0.2570 C   0  0  0  0  0  0  0  0  0  0  0  0
   -0.7782    3.7389    0.5480 C   0  0  0  0  0  0  0  0  0  0  0  0
    0.1267    4.3668    0.4647 H   0  0  0  0  0  0  0  0  0  0  0  0
   -1.1776    3.8711    1.5770 H   0  0  0  0  0  0  0  0  0  0  0  0
   -1.5205    4.1555   -0.1657 H   0  0  0  0  0  0  0  0  0  0  0  0
   -3.6595    0.6215    0.0531 C   0  0  2  0  0  3  0  0  0  0  0  0
  2 21  1  0  0  0  0
  3  4  1  0  0  0  0
  5  6  1  0  0  0  0
  5 22  1  0  0  0  0
  6  7  1  0  0  0  0
  8 10  1  0  0  0  0
  9  8  1  0  0  0  0
 11  2  1  0  0  0  0
 11 20  1  0  0  0  0
 12 14  1  0  0  0  0
 12 11  2  0  0  0  0
 13 12  1  0  0  0  0
 14 16  2  0  0  0  0
 15 14  1  0  0  0  0
 16 17  1  0  0  0  0
 16 18  1  0  0  0  0
 18 19  1  0  0  0  0
 20 18  2  0  0  0  0
 20  3  1  0  0  0  0
 21  3  1  0  0  0  0
 21 22  2  0  0  0  0
 22 23  1  0  0  0  0
 23 25  1  0  0  0  0
 24 23  1  0  0  0  0
 26 23  1  0  0  0  0
 27  1  1  1  0  0  0
 27  8  1  0  0  0  0
 27  6  1  0  0  0  0
M  END
