1,2,3
q = -1.0, confidence = 0.0

 38 40  0  0  0  0  0  0  0  0999 V2000
    0.0162   -2.8620    0.0004 S   0  0  0  0  0  1  0  0  0  0  0  0
   -2.8989    0.3219   -0.0091 N   0  0  0  0  0  2  0  0  0  0  0  0
   -0.3001    0.0265    0.0053 N   0  0  0  0  0  2  0  0  0  0  0  0
    1.0000   -0.2862   -0.0202 N   0  0  0  0  0  0  0  0  0  0  0  0
    2.5336   -2.0451   -0.0533 N   0  0  0  0  0  0  0  0  0  0  0  0
    2.6051   -3.0651   -0.0153 H   0  0  0  0  0  0  0  0  0  0  0  0
   -0.0471    3.5364   -0.6365 N   0  0  0  0  0  0  0  0  0  0  0  0
   -4.2407    0.3455   -0.0193 C   0  0  0  0  0  0  0  0  0  0  0  0
   -4.7178   -0.6497   -0.0124 H   0  0  0  0  0  0  0  0  0  0  0  0
   -4.9531    1.5517   -0.0353 C   0  0  0  0  0  0  0  0  0  0  0  0
   -6.0519    1.5360   -0.0428 H   0  0  0  0  0  0  0  0  0  0  0  0
   -4.2305    2.7534   -0.0464 C   0  0  0  0  0  0  0  0  0  0  0  0
   -4.7546    3.7207   -0.0665 H   0  0  0  0  0  0  0  0  0  0  0  0
   -2.8308    2.7231   -0.0382 C   0  0  0  0  0  0  0  0  0  0  0  0
   -2.2288    3.6382   -0.0867 H   0  0  0  0  0  0  0  0  0  0  0  0
   -2.1625    1.4821   -0.0147 C   0  0  0  0  0  0  0  0  0  0  0  0
   -0.7046    1.3061    0.0256 C   0  0  0  0  0  0  0  0  0  0  0  0
    1.2415   -1.5996   -0.0280 C   0  0  0  0  0  0  0  0  0  0  0  0
    3.7660   -1.3707   -0.0988 C   0  0  0  0  0  0  0  0  0  0  0  0
    4.9305   -2.1592    0.0572 C   0  0  0  0  0  0  0  0  0  0  0  0
    4.8334   -3.2461    0.2114 H   0  0  0  0  0  0  0  0  0  0  0  0
    6.1978   -1.5687    0.0209 C   0  0  0  0  0  0  0  0  0  0  0  0
    7.0906   -2.1997    0.1456 H   0  0  0  0  0  0  0  0  0  0  0  0
    6.3300   -0.1836   -0.1707 C   0  0  0  0  0  0  0  0  0  0  0  0
    7.3264    0.2813   -0.1974 H   0  0  0  0  0  0  0  0  0  0  0  0
    5.1743    0.5967   -0.3323 C   0  0  0  0  0  0  0  0  0  0  0  0
    5.2604    1.6826   -0.4929 H   0  0  0  0  0  0  0  0  0  0  0  0
    3.8972    0.0210   -0.3009 C   0  0  0  0  0  0  0  0  0  0  0  0
    2.9962    0.6295   -0.4333 H   0  0  0  0  0  0  0  0  0  0  0  0
    0.2493    2.4421    0.0991 C   0  0  0  0  0  0  0  0  0  0  0  0
    1.4020    2.3819    0.9186 C   0  0  0  0  0  0  0  0  0  0  0  0
    1.6038    1.4881    1.5213 H   0  0  0  0  0  0  0  0  0  0  0  0
    2.2760    3.4734    0.9347 C   0  0  0  0  0  0  0  0  0  0  0  0
    3.1792    3.4465    1.5633 H   0  0  0  0  0  0  0  0  0  0  0  0
    1.9832    4.5939    0.1423 C   0  0  0  0  0  0  0  0  0  0  0  0
    2.6475    5.4702    0.1175 H   0  0  0  0  0  0  0  0  0  0  0  0
    0.8001    4.5744   -0.6128 C   0  0  0  0  0  0  0  0  0  0  0  0
    0.5202    5.4447   -1.2329 H   0  0  0  0  0  0  0  0  0  0  0  0
  3 17  1  0  0  0  0
  4  3  1  0  0  0  0
  5 18  1  0  0  0  0
  5  6  1  0  0  0  0
  7 37  2  0  0  0  0
  7 30  1  0  0  0  0
  8  9  1  0  0  0  0
  8  2  1  0  0  0  0
 10  8  2  0  0  0  0
 11 10  1  0  0  0  0
 12 14  2  0  0  0  0
 12 10  1  0  0  0  0
 13 12  1  0  0  0  0
 14 16  1  0  0  0  0
 15 14  1  0  0  0  0
 16  2  1  0  0  0  0
 16 17  2  0  0  0  0
 17 30  1  0  0  0  0
 18  4  2  0  0  0  0
 18  1  1  0  0  0  0
 19  5  1  0  0  0  0
 19 20  1  0  0  0  0
 20 21  1  0  0  0  0
 22 20  2  0  0  0  0
 22 23  1  0  0  0  0
 24 22  1  0  0  0  0
 25 24  1  0  0  0  0
 26 28  1  0  0  0  0
 26 24  2  0  0  0  0
 27 26  1  0  0  0  0
 28 19  2  0  0  0  0
 29 28  1  0  0  0  0
 30 31  2  0  0  0  0
 31 33  1  0  0  0  0
 31 32  1  0  0  0  0
 33 34  1  0  0  0  0
 35 33  2  0  0  0  0
 36 35  1  0  0  0  0
 37 35  1  0  0  0  0
 38 37  1  0  0  0  0
M  END
