1,24,25
q = -1.0, confidence = 0.0

 28 29  0  0  1  0  0  0  0  0999 V2000
    1.8713    0.6853   -1.9984 S   0  0  0  0  0  1  0  0  0  0  0  0
   -1.4610   -1.1692    1.8071 C   0  0  0  0  0  0  0  0  0  0  0  0
   -0.5086   -1.7228    1.7668 H   0  0  0  0  0  0  0  0  0  0  0  0
   -2.5663   -1.6807    2.5259 C   0  0  0  0  0  0  0  0  0  0  0  0
   -2.4800   -2.6405    3.0553 H   0  0  0  0  0  0  0  0  0  0  0  0
   -3.7406   -0.9481    2.5315 C   0  0  0  0  0  0  0  0  0  0  0  0
   -4.6337   -1.3070    3.0671 H   0  0  0  0  0  0  0  0  0  0  0  0
   -3.8034    0.2994    1.8488 C   0  0  0  0  0  0  0  0  0  0  0  0
   -4.9788    1.1010    1.8661 C   0  0  0  0  0  0  0  0  0  0  0  0
   -5.8674    0.7342    2.4019 H   0  0  0  0  0  0  0  0  0  0  0  0
   -4.9826    2.3301    1.2214 C   0  0  0  0  0  0  0  0  0  0  0  0
   -5.8838    2.9613    1.2340 H   0  0  0  0  0  0  0  0  0  0  0  0
   -3.8286    2.7833    0.5521 C   0  0  0  0  0  0  0  0  0  0  0  0
   -3.8466    3.7680    0.0601 H   0  0  0  0  0  0  0  0  0  0  0  0
   -2.6409    2.0279    0.4729 C   0  0  0  0  0  0  0  0  0  0  0  0
   -2.6244    0.7417    1.1402 C   0  0  1  0  0  3  0  0  0  0  0  0
   -1.5390    2.6559   -0.2276 C   0  0  0  0  0  3  0  0  0  0  0  0
   -1.6779    3.7219   -0.4969 H   0  0  0  0  0  0  0  0  0  0  0  0
    1.5459    2.3692   -1.7592 C   0  0  0  0  0  0  0  0  0  0  0  0
    2.3356    4.6936   -2.1365 C   0  0  0  0  0  0  0  0  0  0  0  0
    2.4070    5.0357   -1.0809 H   0  0  0  0  0  0  0  0  0  0  0  0
    1.3549    5.0408   -2.5216 H   0  0  0  0  0  0  0  0  0  0  0  0
    3.1458    5.1702   -2.7203 H   0  0  0  0  0  0  0  0  0  0  0  0
   -1.4947   -0.0252    1.1294 N   0  0  0  0  0  2  0  0  0  0  0  0
   -0.3993    2.1107   -0.5965 N   0  0  0  0  0  2  0  0  0  0  0  0
    0.4758    2.9408   -1.1745 N   0  0  0  0  0  0  0  0  0  0  0  0
    2.4581    3.2567   -2.2510 N   0  0  0  0  0  0  0  0  0  0  0  0
    3.2680    2.8451   -2.7119 H   0  0  0  0  0  0  0  0  0  0  0  0
  1 19  1  0  0  0  0
  2  4  2  0  0  0  0
  3  2  1  0  0  0  0
  4  6  1  0  0  0  0
  4  5  1  0  0  0  0
  6  7  1  0  0  0  0
  8  9  1  0  0  0  0
  8  6  2  0  0  0  0
  9 10  1  0  0  0  0
 11 12  1  0  0  0  0
 11  9  2  0  0  0  0
 13 11  1  0  0  0  0
 14 13  1  0  0  0  0
 15 13  2  0  0  0  0
 16 15  1  1  0  0  0
 16  8  1  0  0  0  0
 17 15  1  0  0  0  0
 18 17  1  0  0  0  0
 19 26  2  0  0  0  0
 20 21  1  0  0  0  0
 22 20  1  0  0  0  0
 23 20  1  0  0  0  0
 24 16  1  0  0  0  0
 24  2  1  0  0  0  0
 25 17  1  0  0  0  0
 26 25  1  0  0  0  0
 27 20  1  0  0  0  0
 27 19  1  0  0  0  0
 28 27  1  0  0  0  0
M  END
