1,11,14
q = -1.0

 28 29  0  0  0  0  0  0  0  0999 V2000
    0.2761   -2.0429    0.6886 S   0  0  0  0  0  0  0  0  0  0  0  0
   -2.2550    2.4596   -2.5498 C   0  0  0  0  0  0  0  0  0  0  0  0
   -3.2926    2.3729   -2.9034 H   0  0  0  0  0  0  0  0  0  0  0  0
    0.3292    2.4646   -1.5659 C   0  0  0  0  0  3  0  0  0  0  0  0
    1.3491    2.4080   -1.1605 H   0  0  0  0  0  0  0  0  0  0  0  0
   -1.7586    1.4272   -1.7461 C   0  0  0  0  0  0  0  0  0  0  0  0
   -0.0991    3.5287   -2.3669 C   0  0  0  0  0  0  0  0  0  0  0  0
    0.6024    4.3436   -2.5962 H   0  0  0  0  0  0  0  0  0  0  0  0
   -1.4137    3.5333   -2.8658 C   0  0  0  0  0  0  0  0  0  0  0  0
   -1.7707    4.3615   -3.4960 H   0  0  0  0  0  0  0  0  0  0  0  0
   -0.4913    1.4378   -1.2565 N   0  0  0  0  0  2  0  0  0  0  0  0
   -3.7511    0.1004   -1.7862 O   0  0  0  0  0  0  0  0  0  0  0  0
   -2.5810    0.2233   -1.3968 C   0  0  0  0  0  0  0  0  0  0  0  0
   -1.8425   -0.6501   -0.6338 N   0  0  0  0  0  2  0  0  0  0  0  0
   -1.3880   -2.6966    0.5261 C   0  0  0  0  0  0  0  0  0  0  0  0
   -1.7231   -3.9713    0.9991 C   0  0  0  0  0  0  0  0  0  0  0  0
   -0.9700   -4.5736    1.5304 H   0  0  0  0  0  0  0  0  0  0  0  0
   -2.3061   -1.8901   -0.1996 C   0  0  0  0  0  0  0  0  0  0  0  0
   -3.0170   -4.4681    0.7869 C   0  0  0  0  0  0  0  0  0  0  0  0
   -3.2959   -5.4626    1.1649 H   0  0  0  0  0  0  0  0  0  0  0  0
   -3.6066   -2.4202   -0.4227 C   0  0  0  0  0  0  0  0  0  0  0  0
   -4.3233   -1.8107   -0.9847 H   0  0  0  0  0  0  0  0  0  0  0  0
   -3.9427   -3.6847    0.0746 C   0  0  0  0  0  0  0  0  0  0  0  0
   -4.9586   -4.0703   -0.1029 H   0  0  0  0  0  0  0  0  0  0  0  0
    0.4264   -1.8423    2.5010 C   0  0  0  0  0  0  0  0  0  0  0  0
   -0.3609   -1.1568    2.8640 H   0  0  0  0  0  0  0  0  0  0  0  0
    1.4296   -1.4062    2.6697 H   0  0  0  0  0  0  0  0  0  0  0  0
    0.3619   -2.8337    2.9874 H   0  0  0  0  0  0  0  0  0  0  0  0
  1 25  1  0  0  0  0
  2  6  2  0  0  0  0
  3  2  1  0  0  0  0
  4 11  1  0  0  0  0
  4  5  1  0  0  0  0
  6 13  1  0  0  0  0
  6 11  1  0  0  0  0
  7  4  1  0  0  0  0
  8  7  1  0  0  0  0
  9  2  1  0  0  0  0
  9  7  2  0  0  0  0
 10  9  1  0  0  0  0
 12 13  2  0  0  0  0
 13 14  1  0  0  0  0
 14 18  1  0  0  0  0
 15  1  1  0  0  0  0
 15 16  1  0  0  0  0
 16 17  1  0  0  0  0
 18 15  2  0  0  0  0
 19 16  2  0  0  0  0
 19 20  1  0  0  0  0
 21 18  1  0  0  0  0
 21 23  2  0  0  0  0
 22 21  1  0  0  0  0
 23 19  1  0  0  0  0
 24 23  1  0  0  0  0
 25 27  1  0  0  0  0
 25 26  1  0  0  0  0
 25 28  1  0  0  0  0
M  END
