1,3,4
q = -1.0

 29 30  0  0  1  0  0  0  0  0999 V2000
   -0.5336   -2.0421    0.0780 S   0  0  0  0  0  0  0  0  0  0  0  0
   -3.1073    2.2391   -1.5393 O   0  0  0  0  0  0  0  0  0  0  0  0
   -1.7789    0.4558   -0.7648 N   0  0  0  0  0  2  0  0  0  0  0  0
    0.3257    1.9370   -0.6199 N   0  0  0  0  0  2  0  0  0  0  0  0
   -2.2498   -1.8785   -0.4259 C   0  0  0  0  0  0  0  0  0  0  0  0
   -3.0847   -3.0030   -0.4576 C   0  0  0  0  0  0  0  0  0  0  0  0
   -2.6853   -3.9840   -0.1587 H   0  0  0  0  0  0  0  0  0  0  0  0
   -4.4170   -2.8628   -0.8701 C   0  0  0  0  0  0  0  0  0  0  0  0
   -5.0824   -3.7380   -0.8934 H   0  0  0  0  0  0  0  0  0  0  0  0
   -4.8821   -1.5955   -1.2638 C   0  0  0  0  0  0  0  0  0  0  0  0
   -5.9248   -1.4774   -1.5970 H   0  0  0  0  0  0  0  0  0  0  0  0
   -4.0490   -0.4714   -1.2485 C   0  0  0  0  0  0  0  0  0  0  0  0
   -4.4074    0.5175   -1.5571 H   0  0  0  0  0  0  0  0  0  0  0  0
   -2.6969   -0.5877   -0.8240 C   0  0  0  0  0  0  0  0  0  0  0  0
   -2.0391    1.7453   -1.1530 C   0  0  0  0  0  0  0  0  0  0  0  0
   -0.7876    2.5746   -1.0590 C   0  0  2  0  0  3  0  0  0  0  0  0
   -0.7608    3.9223   -1.4351 C   0  0  0  0  0  0  0  0  0  0  0  0
   -1.7036    4.3699   -1.7811 H   0  0  0  0  0  0  0  0  0  0  0  0
    0.4513    4.6194   -1.3638 C   0  0  0  0  0  0  0  0  0  0  0  0
    0.5072    5.6787   -1.6560 H   0  0  0  0  0  0  0  0  0  0  0  0
    1.5985    3.9404   -0.9216 C   0  0  0  0  0  0  0  0  0  0  0  0
    2.5740    4.4432   -0.8604 H   0  0  0  0  0  0  0  0  0  0  0  0
    1.5011    2.5924   -0.5564 C   0  0  0  0  0  0  0  0  0  0  0  0
    2.3669    2.0085   -0.2131 H   0  0  0  0  0  0  0  0  0  0  0  0
   -0.7221   -2.3923    1.8262 C   0  0  0  0  0  0  0  0  0  0  0  0
   -1.6973   -2.1316    2.2695 H   0  0  0  0  0  0  0  0  0  0  0  0
    0.3131   -2.8806    2.5300 C   0  0  0  0  0  0  0  0  0  0  0  0
    1.2810   -3.1139    2.0573 H   0  0  0  0  0  0  0  0  0  0  0  0
    0.2231   -3.0417    3.6152 H   0  0  0  0  0  0  0  0  0  0  0  0
  1 25  1  0  0  0  0
  2 15  2  0  0  0  0
  4 23  1  0  0  0  0
  5  1  1  0  0  0  0
  6  5  1  0  0  0  0
  6  7  1  0  0  0  0
  8  6  2  0  0  0  0
  9  8  1  0  0  0  0
 10 12  2  0  0  0  0
 10  8  1  0  0  0  0
 11 10  1  0  0  0  0
 12 14  1  0  0  0  0
 13 12  1  0  0  0  0
 14  3  1  0  0  0  0
 14  5  2  0  0  0  0
 15  3  1  0  0  0  0
 16 15  1  6  0  0  0
 16  4  1  0  0  0  0
 17 19  2  0  0  0  0
 17 16  1  0  0  0  0
 18 17  1  0  0  0  0
 19 21  1  0  0  0  0
 20 19  1  0  0  0  0
 21 22  1  0  0  0  0
 21 23  2  0  0  0  0
 23 24  1  0  0  0  0
 25 26  1  0  0  0  0
 25 27  2  0  0  0  0
 27 29  1  0  0  0  0
 28 27  1  0  0  0  0
M  END
