1,2,3
q = -1.0

 38 39  0  0  0  0  0  0  0  0999 V2000
   -0.4906   -2.1425    0.0037 S   0  0  0  0  0  1  0  0  0  0  0  0
    2.7017    0.7913   -0.0059 N   0  0  0  0  0  2  0  0  0  0  0  0
    0.0844    0.7066   -0.1280 N   0  0  0  0  0  2  0  0  0  0  0  0
   -1.2431    0.5140   -0.1778 N   0  0  0  0  0  0  0  0  0  0  0  0
   -2.9202   -1.0651   -0.1985 N   0  0  0  0  0  0  0  0  0  0  0  0
    4.0430    0.7338    0.0622 C   0  0  0  0  0  0  0  0  0  0  0  0
    4.8306    1.8926    0.0357 C   0  0  0  0  0  0  0  0  0  0  0  0
    4.1945    3.1396   -0.0646 C   0  0  0  0  0  0  0  0  0  0  0  0
    2.7971    3.1962   -0.1353 C   0  0  0  0  0  0  0  0  0  0  0  0
    2.0477    2.0022   -0.1051 C   0  0  0  0  0  0  0  0  0  0  0  0
    0.5962    1.9440   -0.1719 C   0  0  0  0  0  0  0  0  0  0  0  0
   -0.2593    3.1642   -0.2803 C   0  0  0  0  0  0  0  0  0  0  0  0
   -1.6002   -0.7764   -0.1306 C   0  0  0  0  0  0  0  0  0  0  0  0
   -3.9908   -0.0746   -0.2367 C   0  0  0  0  0  0  0  0  0  0  0  0
   -5.2323   -0.6723   -0.9114 C   0  0  0  0  0  0  0  0  0  0  0  0
   -6.3814    0.3429   -0.9643 C   0  0  0  0  0  0  0  0  0  0  0  0
   -6.7122    0.8993    0.4269 C   0  0  0  0  0  0  0  0  0  0  0  0
   -5.4677    1.4941    1.0991 C   0  0  0  0  0  0  0  0  0  0  0  0
   -4.3236    0.4750    1.1630 C   0  0  0  0  0  0  0  0  0  0  0  0
    4.4543   -0.2871    0.1389 H   0  0  0  0  0  0  0  0  0  0  0  0
    5.9245    1.8066    0.0935 H   0  0  0  0  0  0  0  0  0  0  0  0
    4.7844    4.0680   -0.0877 H   0  0  0  0  0  0  0  0  0  0  0  0
    2.2752    4.1593   -0.2141 H   0  0  0  0  0  0  0  0  0  0  0  0
   -3.1737   -2.0501   -0.0957 H   0  0  0  0  0  0  0  0  0  0  0  0
   -3.6133    0.7687   -0.8539 H   0  0  0  0  0  0  0  0  0  0  0  0
   -5.5584   -1.5667   -0.3309 H   0  0  0  0  0  0  0  0  0  0  0  0
   -4.9697   -1.0280   -1.9294 H   0  0  0  0  0  0  0  0  0  0  0  0
   -7.2773   -0.1243   -1.4229 H   0  0  0  0  0  0  0  0  0  0  0  0
   -6.0906    1.1823   -1.6348 H   0  0  0  0  0  0  0  0  0  0  0  0
   -7.1133    0.0784    1.0631 H   0  0  0  0  0  0  0  0  0  0  0  0
   -7.5171    1.6601    0.3555 H   0  0  0  0  0  0  0  0  0  0  0  0
   -5.7101    1.8589    2.1186 H   0  0  0  0  0  0  0  0  0  0  0  0
   -5.1302    2.3848    0.5225 H   0  0  0  0  0  0  0  0  0  0  0  0
   -3.4081    0.9253    1.5974 H   0  0  0  0  0  0  0  0  0  0  0  0
   -4.6116   -0.3775    1.8183 H   0  0  0  0  0  0  0  0  0  0  0  0
   -1.3207    2.8639   -0.3251 H   0  0  0  0  0  0  0  0  0  0  0  0
   -0.1153    3.8365    0.5920 H   0  0  0  0  0  0  0  0  0  0  0  0
   -0.0140    3.7491   -1.1919 H   0  0  0  0  0  0  0  0  0  0  0  0
  2  6  1  0  0  0  0
  4 13  2  0  0  0  0
  4  3  1  0  0  0  0
  5 13  1  0  0  0  0
  5 24  1  0  0  0  0
  6 20  1  0  0  0  0
  7  6  2  0  0  0  0
  7 21  1  0  0  0  0
  8  7  1  0  0  0  0
  9 10  1  0  0  0  0
  9  8  2  0  0  0  0
 10  2  1  0  0  0  0
 11  3  1  0  0  0  0
 11 10  2  0  0  0  0
 12 11  1  0  0  0  0
 12 37  1  0  0  0  0
 13  1  1  0  0  0  0
 14  5  1  0  0  0  0
 14 19  1  0  0  0  0
 15 26  1  0  0  0  0
 15 14  1  0  0  0  0
 16 15  1  0  0  0  0
 16 17  1  0  0  0  0
 17 30  1  0  0  0  0
 17 18  1  0  0  0  0
 18 19  1  0  0  0  0
 18 32  1  0  0  0  0
 19 34  1  0  0  0  0
 19 35  1  0  0  0  0
 22  8  1  0  0  0  0
 23  9  1  0  0  0  0
 25 14  1  0  0  0  0
 27 15  1  0  0  0  0
 28 16  1  0  0  0  0
 29 16  1  0  0  0  0
 31 17  1  0  0  0  0
 33 18  1  0  0  0  0
 36 12  1  0  0  0  0
 38 12  1  0  0  0  0
M  END
