1,3,4
q = -1.0

 35 37  0  0  0  0  0  0  0  0999 V2000
    1.5619    0.3130   -1.6321 S   0  0  0  0  0  0  0  0  0  0  0  0
   -0.1976   -4.2918    0.0399 O   0  0  0  0  0  0  0  0  0  0  0  0
   -1.3180   -1.0441    0.9778 N   0  0  0  0  0  2  0  0  0  0  0  0
    0.4907   -2.1084   -0.5054 N   0  0  0  0  0  2  0  0  0  0  0  0
   -2.2432   -0.3805    1.7030 C   0  0  0  0  0  3  0  0  0  0  0  0
   -2.1965    0.7159    1.6703 H   0  0  0  0  0  0  0  0  0  0  0  0
   -3.2207   -1.0559    2.4417 C   0  0  0  0  0  0  0  0  0  0  0  0
   -3.9711   -0.4736    2.9939 H   0  0  0  0  0  0  0  0  0  0  0  0
   -3.2340   -2.4606    2.4456 C   0  0  0  0  0  0  0  0  0  0  0  0
   -3.9953   -3.0116    3.0175 H   0  0  0  0  0  0  0  0  0  0  0  0
   -2.2641   -3.1429    1.7019 C   0  0  0  0  0  0  0  0  0  0  0  0
   -2.1982   -4.2391    1.6453 H   0  0  0  0  0  0  0  0  0  0  0  0
   -1.3266   -2.4017    0.9742 C   0  0  0  0  0  0  0  0  0  0  0  0
   -0.2836   -3.0585    0.1223 C   0  0  0  0  0  0  0  0  0  0  0  0
    1.4972   -2.4137   -1.4181 C   0  0  0  0  0  0  0  0  0  0  0  0
    1.9176   -3.7218   -1.7901 C   0  0  0  0  0  0  0  0  0  0  0  0
    1.4165   -4.5767   -1.3227 H   0  0  0  0  0  0  0  0  0  0  0  0
    2.9436   -3.8908   -2.7261 C   0  0  0  0  0  0  0  0  0  0  0  0
    3.2524   -4.9137   -2.9918 H   0  0  0  0  0  0  0  0  0  0  0  0
    3.5819   -2.7931   -3.3330 C   0  0  0  0  0  0  0  0  0  0  0  0
    4.3829   -2.9458   -4.0708 H   0  0  0  0  0  0  0  0  0  0  0  0
    3.1742   -1.4969   -2.9934 C   0  0  0  0  0  0  0  0  0  0  0  0
    3.6421   -0.6141   -3.4548 H   0  0  0  0  0  0  0  0  0  0  0  0
    2.1609   -1.3217   -2.0409 C   0  0  0  0  0  0  0  0  0  0  0  0
    2.9076    1.0391   -0.6840 C   0  0  0  0  0  0  0  0  0  0  0  0
    3.9185    0.2676   -0.0879 C   0  0  0  0  0  0  0  0  0  0  0  0
    3.9567   -0.8174   -0.2616 H   0  0  0  0  0  0  0  0  0  0  0  0
    4.8642    0.8971    0.7333 C   0  0  0  0  0  0  0  0  0  0  0  0
    5.6575    0.2958    1.2030 H   0  0  0  0  0  0  0  0  0  0  0  0
    4.7932    2.2797    0.9714 C   0  0  0  0  0  0  0  0  0  0  0  0
    5.5308    2.7649    1.6279 H   0  0  0  0  0  0  0  0  0  0  0  0
    3.7807    3.0412    0.3660 C   0  0  0  0  0  0  0  0  0  0  0  0
    3.7178    4.1249    0.5459 H   0  0  0  0  0  0  0  0  0  0  0  0
    2.8396    2.4279   -0.4731 C   0  0  0  0  0  0  0  0  0  0  0  0
    2.0448    3.0226   -0.9482 H   0  0  0  0  0  0  0  0  0  0  0  0
  1 25  1  0  0  0  0
  2 14  2  0  0  0  0
  3  5  1  0  0  0  0
  4 14  1  0  0  0  0
  5  7  1  0  0  0  0
  6  5  1  0  0  0  0
  7  9  2  0  0  0  0
  7  8  1  0  0  0  0
  9 10  1  0  0  0  0
 11  9  1  0  0  0  0
 12 11  1  0  0  0  0
 13  3  1  0  0  0  0
 13 11  2  0  0  0  0
 14 13  1  0  0  0  0
 15  4  1  0  0  0  0
 16 15  1  0  0  0  0
 16 17  1  0  0  0  0
 18 16  2  0  0  0  0
 19 18  1  0  0  0  0
 20 22  2  0  0  0  0
 20 18  1  0  0  0  0
 21 20  1  0  0  0  0
 22 24  1  0  0  0  0
 23 22  1  0  0  0  0
 24  1  1  0  0  0  0
 24 15  2  0  0  0  0
 25 34  2  0  0  0  0
 25 26  1  0  0  0  0
 26 28  2  0  0  0  0
 27 26  1  0  0  0  0
 28 30  1  0  0  0  0
 28 29  1  0  0  0  0
 30 31  1  0  0  0  0
 32 33  1  0  0  0  0
 32 30  2  0  0  0  0
 34 32  1  0  0  0  0
 35 34  1  0  0  0  0
M  END
