1,2,7
q = -1.0

 25 25  0  0  1  0  0  0  0  0999 V2000
   -2.2604   -1.5662   -0.3169 S   0  0  0  0  0  1  0  0  0  0  0  0
   -0.5211    0.7310   -0.0230 N   0  0  0  0  0  2  0  0  0  0  0  0
   -4.4648    1.8109    0.0070 C   0  0  0  0  0  0  0  0  0  0  0  0
   -4.0852    2.3072    0.9236 H   0  0  0  0  0  0  0  0  0  0  0  0
   -5.5697    1.7946    0.0373 H   0  0  0  0  0  0  0  0  0  0  0  0
   -4.1363    2.4207   -0.8607 H   0  0  0  0  0  0  0  0  0  0  0  0
    1.8833   -0.2620   -0.0686 N   0  0  0  0  0  2  0  0  0  0  0  0
   -1.7922    1.1270    0.0028 N   0  0  0  0  0  2  0  0  0  0  0  0
    4.2755   -0.1405   -0.1943 C   0  0  0  0  0  0  0  0  0  0  0  0
    0.4398    1.6416    0.0345 C   0  0  0  0  0  0  0  0  0  0  0  0
    4.2085    1.2607   -0.1315 C   0  0  0  0  0  0  0  0  0  0  0  0
   -3.9788    0.4488   -0.0873 N   0  0  0  0  0  0  0  0  0  0  0  0
    1.7916    1.0980   -0.0218 C   0  0  0  0  0  0  0  0  0  0  0  0
   -2.6667    0.1122   -0.1060 C   0  0  1  0  0  3  0  0  0  0  0  0
    0.1784    3.1120    0.1262 C   0  0  0  0  0  0  0  0  0  0  0  0
   -0.9109    3.2806    0.1901 H   0  0  0  0  0  0  0  0  0  0  0  0
    0.5721    3.6470   -0.7639 H   0  0  0  0  0  0  0  0  0  0  0  0
    0.6695    3.5521    1.0190 H   0  0  0  0  0  0  0  0  0  0  0  0
    3.0779   -0.8669   -0.1636 C   0  0  0  0  0  0  0  0  0  0  0  0
    2.9616    1.8889   -0.0494 C   0  0  0  0  0  0  0  0  0  0  0  0
   -4.6413   -0.3226   -0.1632 H   0  0  0  0  0  0  0  0  0  0  0  0
    5.1285    1.8643   -0.1520 H   0  0  0  0  0  0  0  0  0  0  0  0
    2.8828    2.9836   -0.0121 H   0  0  0  0  0  0  0  0  0  0  0  0
    3.0456   -1.9658   -0.2183 H   0  0  0  0  0  0  0  0  0  0  0  0
    5.2356   -0.6695   -0.2670 H   0  0  0  0  0  0  0  0  0  0  0  0
  2  8  1  0  0  0  0
  2 10  1  0  0  0  0
  3  5  1  0  0  0  0
  3  4  1  0  0  0  0
  6  3  1  0  0  0  0
  7 13  1  0  0  0  0
  9 19  2  0  0  0  0
  9 11  1  0  0  0  0
 10 15  1  0  0  0  0
 11 20  2  0  0  0  0
 12  3  1  0  0  0  0
 13 10  2  0  0  0  0
 14  1  1  6  0  0  0
 14 12  1  0  0  0  0
 14  8  1  0  0  0  0
 15 16  1  0  0  0  0
 15 18  1  0  0  0  0
 17 15  1  0  0  0  0
 19  7  1  0  0  0  0
 20 13  1  0  0  0  0
 20 23  1  0  0  0  0
 21 12  1  0  0  0  0
 22 11  1  0  0  0  0
 24 19  1  0  0  0  0
 25  9  1  0  0  0  0
M  END
