1,13,24
q = 0.0, confidence = 0.99

 28 29  0  0  0  0  0  0  0  0999 V2000
   -2.1428    0.3932   -0.0868 N   0  0  0  0  0  2  0  0  0  0  0  0
   -3.4283    0.0283   -0.0520 C   0  0  0  0  0  3  0  0  0  0  0  0
   -3.6027   -1.0416    0.1582 H   0  0  0  0  0  0  0  0  0  0  0  0
   -4.4660    0.9455   -0.2946 C   0  0  0  0  0  0  0  0  0  0  0  0
   -5.5133    0.6137   -0.2533 H   0  0  0  0  0  0  0  0  0  0  0  0
   -4.1351    2.2771   -0.5869 C   0  0  0  0  0  0  0  0  0  0  0  0
   -4.9235    3.0202   -0.7790 H   0  0  0  0  0  0  0  0  0  0  0  0
   -2.7847    2.6492   -0.6393 C   0  0  0  0  0  0  0  0  0  0  0  0
   -2.4838    3.6805   -0.8774 H   0  0  0  0  0  0  0  0  0  0  0  0
   -1.8059    1.6690   -0.3870 C   0  0  0  0  0  0  0  0  0  0  0  0
   -0.3676    1.9491   -0.4475 C   0  0  0  0  0  3  0  0  0  0  0  0
   -0.0482    2.9960   -0.6332 H   0  0  0  0  0  0  0  0  0  0  0  0
    0.4564    0.9668   -0.2853 N   0  0  0  0  0  2  0  0  0  0  0  0
    1.8434    1.0743   -0.2254 C   0  0  0  0  0  0  0  0  0  0  0  0
    2.5326    2.2806    0.0353 C   0  0  0  0  0  0  0  0  0  0  0  0
    1.9636    3.2069    0.2023 H   0  0  0  0  0  0  0  0  0  0  0  0
    3.9263    2.2954    0.1375 C   0  0  0  0  0  0  0  0  0  0  0  0
    4.4473    3.2400    0.3535 H   0  0  0  0  0  0  0  0  0  0  0  0
    4.6585    1.1042   -0.0115 C   0  0  0  0  0  0  0  0  0  0  0  0
    5.7549    1.1142    0.0794 H   0  0  0  0  0  0  0  0  0  0  0  0
    3.9911   -0.1021   -0.2678 C   0  0  0  0  0  0  0  0  0  0  0  0
    4.5510   -1.0418   -0.3814 H   0  0  0  0  0  0  0  0  0  0  0  0
    2.5920   -0.1292   -0.3844 C   0  0  0  0  0  0  0  0  0  0  0  0
    1.7534   -1.6885   -0.5981 S   0  0  0  0  0  0  0  0  0  0  0  0
    1.0480   -1.5495   -2.2811 C   0  0  0  0  0  0  0  0  0  0  0  0
    1.8101   -1.7954   -3.0439 H   0  0  0  0  0  0  0  0  0  0  0  0
    0.6399   -0.5348   -2.4452 H   0  0  0  0  0  0  0  0  0  0  0  0
    0.2101   -2.2755   -2.2851 H   0  0  0  0  0  0  0  0  0  0  0  0
  1  2  1  0  0  0  0
  2  3  1  0  0  0  0
  4  5  1  0  0  0  0
  4  2  1  0  0  0  0
  6  4  2  0  0  0  0
  7  6  1  0  0  0  0
  8  6  1  0  0  0  0
  8 10  2  0  0  0  0
  9  8  1  0  0  0  0
 10  1  1  0  0  0  0
 11 10  1  0  0  0  0
 11 13  1  0  0  0  0
 12 11  1  0  0  0  0
 13 14  1  0  0  0  0
 14 15  1  0  0  0  0
 15 17  2  0  0  0  0
 15 16  1  0  0  0  0
 17 18  1  0  0  0  0
 19 20  1  0  0  0  0
 19 17  1  0  0  0  0
 21 19  2  0  0  0  0
 22 21  1  0  0  0  0
 23 21  1  0  0  0  0
 23 14  2  0  0  0  0
 24 23  1  0  0  0  0
 25 24  1  0  0  0  0
 26 25  1  0  0  0  0
 27 25  1  0  0  0  0
 28 25  1  0  0  0  0
M  END
