1,2,3
q = -1.0

 27 27  0  0  1  0  0  0  0  0999 V2000
    2.4736   -0.6847   -0.5321 S   0  0  0  0  0  0  0  0  0  0  0  0
    0.1592    1.5148   -0.1954 N   0  0  0  0  0  2  0  0  0  0  0  0
   -1.8021   -0.2488    0.0241 N   0  0  0  0  0  2  0  0  0  0  0  0
    0.8093    3.6352    0.3860 O   0  0  0  0  0  0  0  0  0  0  0  0
   -2.2266    1.0280   -0.1740 C   0  0  2  0  0  3  0  0  0  0  0  0
   -3.5937    1.3391   -0.0860 C   0  0  0  0  0  0  0  0  0  0  0  0
   -3.9182    2.3774   -0.2463 H   0  0  0  0  0  0  0  0  0  0  0  0
   -4.5138    0.3282    0.2126 C   0  0  0  0  0  0  0  0  0  0  0  0
   -5.5866    0.5600    0.2919 H   0  0  0  0  0  0  0  0  0  0  0  0
   -4.0493   -0.9814    0.4157 C   0  0  0  0  0  0  0  0  0  0  0  0
   -4.7372   -1.8052    0.6524 H   0  0  0  0  0  0  0  0  0  0  0  0
   -2.6803   -1.2352    0.3121 C   0  0  0  0  0  0  0  0  0  0  0  0
   -2.2305   -2.2336    0.4415 H   0  0  0  0  0  0  0  0  0  0  0  0
   -1.1650    2.0332   -0.5062 C   0  0  0  0  0  0  0  0  0  0  0  0
   -1.3216    2.9921    0.0363 H   0  0  0  0  0  0  0  0  0  0  0  0
   -1.2613    2.2891   -1.5912 H   0  0  0  0  0  0  0  0  0  0  0  0
    1.0569    2.4231    0.2737 C   0  0  0  0  0  0  0  0  0  0  0  0
    2.4375    1.8893    0.6784 C   0  0  0  0  0  0  0  0  0  0  0  0
    3.0555    2.7879    0.8732 H   0  0  0  0  0  0  0  0  0  0  0  0
    2.3568    1.3430    1.6435 H   0  0  0  0  0  0  0  0  0  0  0  0
    3.1306    1.0251   -0.3676 C   0  0  0  0  0  0  0  0  0  0  0  0
    4.2159    0.9099   -0.1649 H   0  0  0  0  0  0  0  0  0  0  0  0
    3.0251    1.4577   -1.3831 H   0  0  0  0  0  0  0  0  0  0  0  0
    3.1283   -1.4522    0.9864 C   0  0  0  0  0  0  0  0  0  0  0  0
    4.2209   -1.5920    0.8748 H   0  0  0  0  0  0  0  0  0  0  0  0
    2.6047   -2.4241    1.0589 H   0  0  0  0  0  0  0  0  0  0  0  0
    2.8945   -0.8344    1.8736 H   0  0  0  0  0  0  0  0  0  0  0  0
  1 21  1  0  0  0  0
  1 24  1  0  0  0  0
  2 17  1  0  0  0  0
  3 12  1  0  0  0  0
  5 14  1  6  0  0  0
  5  6  1  0  0  0  0
  5  3  1  0  0  0  0
  6  8  2  0  0  0  0
  7  6  1  0  0  0  0
  8  9  1  0  0  0  0
  8 10  1  0  0  0  0
 10 11  1  0  0  0  0
 12 10  2  0  0  0  0
 12 13  1  0  0  0  0
 14  2  1  0  0  0  0
 14 15  1  0  0  0  0
 16 14  1  0  0  0  0
 17  4  2  0  0  0  0
 17 18  1  0  0  0  0
 18 19  1  0  0  0  0
 18 20  1  0  0  0  0
 21 22  1  0  0  0  0
 21 18  1  0  0  0  0
 23 21  1  0  0  0  0
 24 26  1  0  0  0  0
 24 27  1  0  0  0  0
 25 24  1  0  0  0  0
M  END
