1,2,3
q = -1.0

 28 28  0  0  0  0  0  0  0  0999 V2000
   -1.8506   -1.3916    0.0326 S   0  0  0  0  0  1  0  0  0  0  0  0
    2.0245   -0.1561   -0.0001 N   0  0  0  0  0  2  0  0  0  0  0  0
   -0.2676    0.9065   -0.0014 N   0  0  0  0  0  2  0  0  0  0  0  0
   -1.5458    1.3088   -0.0135 N   0  0  0  0  0  0  0  0  0  0  0  0
   -3.7364    0.5525   -0.0583 N   0  0  0  0  0  0  0  0  0  0  0  0
    3.1834   -0.8370   -0.0054 C   0  0  0  0  0  0  0  0  0  0  0  0
    4.4259   -0.1868   -0.0073 C   0  0  0  0  0  0  0  0  0  0  0  0
    4.4571    1.2167   -0.0059 C   0  0  0  0  0  0  0  0  0  0  0  0
    3.2511    1.9291   -0.0014 C   0  0  0  0  0  0  0  0  0  0  0  0
    2.0324    1.2210    0.0029 C   0  0  0  0  0  0  0  0  0  0  0  0
    0.7139    1.8166    0.0079 C   0  0  0  0  0  0  0  0  0  0  0  0
    0.4740    3.2905    0.0131 C   0  0  0  0  0  0  0  0  0  0  0  0
   -2.4025    0.2797   -0.0178 C   0  0  0  0  0  0  0  0  0  0  0  0
   -4.7309   -0.5024   -0.0137 C   0  0  0  0  0  0  0  0  0  0  0  0
   -4.2330    1.9171    0.0181 C   0  0  0  0  0  0  0  0  0  0  0  0
    3.0683   -1.9341   -0.0076 H   0  0  0  0  0  0  0  0  0  0  0  0
    5.3491   -0.7827   -0.0105 H   0  0  0  0  0  0  0  0  0  0  0  0
    5.4163    1.7557   -0.0089 H   0  0  0  0  0  0  0  0  0  0  0  0
    3.2403    3.0276   -0.0023 H   0  0  0  0  0  0  0  0  0  0  0  0
   -0.6087    3.4876    0.0998 H   0  0  0  0  0  0  0  0  0  0  0  0
    0.9996    3.7796    0.8599 H   0  0  0  0  0  0  0  0  0  0  0  0
    0.8459    3.7638   -0.9211 H   0  0  0  0  0  0  0  0  0  0  0  0
   -4.2987   -1.4461   -0.3963 H   0  0  0  0  0  0  0  0  0  0  0  0
   -5.1006   -0.6784    1.0218 H   0  0  0  0  0  0  0  0  0  0  0  0
   -5.5946   -0.2188   -0.6487 H   0  0  0  0  0  0  0  0  0  0  0  0
   -3.3891    2.6161   -0.1041 H   0  0  0  0  0  0  0  0  0  0  0  0
   -4.9833    2.0917   -0.7815 H   0  0  0  0  0  0  0  0  0  0  0  0
   -4.7229    2.1062    0.9995 H   0  0  0  0  0  0  0  0  0  0  0  0
  2 10  1  0  0  0  0
  3 11  1  0  0  0  0
  4  3  1  0  0  0  0
  5 13  1  0  0  0  0
  5 14  1  0  0  0  0
  5 15  1  0  0  0  0
  6  2  1  0  0  0  0
  7  8  1  0  0  0  0
  7  6  2  0  0  0  0
  8  9  2  0  0  0  0
  9 10  1  0  0  0  0
 10 11  2  0  0  0  0
 11 12  1  0  0  0  0
 12 20  1  0  0  0  0
 12 21  1  0  0  0  0
 13  4  2  0  0  0  0
 13  1  1  0  0  0  0
 14 24  1  0  0  0  0
 15 28  1  0  0  0  0
 16  6  1  0  0  0  0
 17  7  1  0  0  0  0
 18  8  1  0  0  0  0
 19  9  1  0  0  0  0
 22 12  1  0  0  0  0
 23 14  1  0  0  0  0
 25 14  1  0  0  0  0
 26 15  1  0  0  0  0
 27 15  1  0  0  0  0
M  END
