1,2,3
q = -1.0

 53 56  0  0  0  0  0  0  0  0999 V2000
   -1.3320   -1.5853    1.0500 S   0  0  0  0  0  0  0  0  0  0  0  0
   -0.9960    1.1419    0.3380 N   0  0  0  0  0  2  0  0  0  0  0  0
    1.6759    0.8716   -0.2098 N   0  0  0  0  0  2  0  0  0  0  0  0
    3.0302    0.5286    0.1251 C   0  0  0  0  0  0  0  0  0  0  0  0
    3.4085    0.5502    1.4881 C   0  0  0  0  0  0  0  0  0  0  0  0
    4.7482    0.2640    1.8039 C   0  0  0  0  0  0  0  0  0  0  0  0
    5.0610    0.2821    2.8596 H   0  0  0  0  0  0  0  0  0  0  0  0
    5.6745   -0.0512    0.8007 C   0  0  0  0  0  0  0  0  0  0  0  0
    6.7183   -0.2765    1.0663 H   0  0  0  0  0  0  0  0  0  0  0  0
    5.2660   -0.1005   -0.5384 C   0  0  0  0  0  0  0  0  0  0  0  0
    5.9842   -0.3814   -1.3245 H   0  0  0  0  0  0  0  0  0  0  0  0
    3.9378    0.1843   -0.9055 C   0  0  0  0  0  0  0  0  0  0  0  0
    2.3841    0.8041    2.5604 C   0  0  0  0  0  0  0  0  0  0  0  0
    1.7039   -0.0731    2.6435 H   0  0  0  0  0  0  0  0  0  0  0  0
    1.7430    1.6794    2.3346 H   0  0  0  0  0  0  0  0  0  0  0  0
    2.8633    0.9599    3.5458 H   0  0  0  0  0  0  0  0  0  0  0  0
    3.4756    0.0533   -2.3339 C   0  0  0  0  0  0  0  0  0  0  0  0
    4.2569   -0.4234   -2.9555 H   0  0  0  0  0  0  0  0  0  0  0  0
    3.2275    1.0295   -2.8005 H   0  0  0  0  0  0  0  0  0  0  0  0
    2.5597   -0.5721   -2.3786 H   0  0  0  0  0  0  0  0  0  0  0  0
    1.4985    2.0169   -0.8263 C   0  0  0  0  0  0  0  0  0  0  0  0
    2.4065    2.5977   -1.0801 H   0  0  0  0  0  0  0  0  0  0  0  0
    0.2389    2.5941   -1.1906 C   0  0  0  0  0  0  0  0  0  0  0  0
   -0.9950    2.1512   -0.5938 C   0  0  0  0  0  0  0  0  0  0  0  0
   -2.1911    2.7945   -1.0354 C   0  0  0  0  0  0  0  0  0  0  0  0
   -3.1555    2.4447   -0.6428 H   0  0  0  0  0  0  0  0  0  0  0  0
   -2.1653    3.8201   -1.9759 C   0  0  0  0  0  0  0  0  0  0  0  0
   -3.1167    4.2660   -2.3055 H   0  0  0  0  0  0  0  0  0  0  0  0
   -0.9455    4.2831   -2.5206 C   0  0  0  0  0  0  0  0  0  0  0  0
   -0.9330    5.1014   -3.2543 H   0  0  0  0  0  0  0  0  0  0  0  0
    0.2349    3.6677   -2.1208 C   0  0  0  0  0  3  0  0  0  0  0  0
    1.2006    3.9959   -2.5370 H   0  0  0  0  0  0  0  0  0  0  0  0
   -2.0189    1.0212    1.2785 C   0  0  0  0  0  0  0  0  0  0  0  0
   -2.3531   -0.2838    1.7253 C   0  0  0  0  0  0  0  0  0  0  0  0
   -3.3527   -0.5299    2.6729 C   0  0  0  0  0  0  0  0  0  0  0  0
   -3.5666   -1.5643    2.9811 H   0  0  0  0  0  0  0  0  0  0  0  0
   -4.0565    0.5522    3.2231 C   0  0  0  0  0  0  0  0  0  0  0  0
   -4.8386    0.3798    3.9762 H   0  0  0  0  0  0  0  0  0  0  0  0
   -3.7238    1.8594    2.8209 C   0  0  0  0  0  0  0  0  0  0  0  0
   -4.2444    2.7170    3.2743 H   0  0  0  0  0  0  0  0  0  0  0  0
   -2.7264    2.1009    1.8685 C   0  0  0  0  0  0  0  0  0  0  0  0
   -2.4692    3.1322    1.5898 H   0  0  0  0  0  0  0  0  0  0  0  0
   -2.1968   -2.0022   -0.4909 C   0  0  0  0  0  0  0  0  0  0  0  0
   -1.7236   -3.1223   -1.1980 C   0  0  0  0  0  0  0  0  0  0  0  0
   -0.8548   -3.6808   -0.8192 H   0  0  0  0  0  0  0  0  0  0  0  0
   -2.3471   -3.4829   -2.4005 C   0  0  0  0  0  0  0  0  0  0  0  0
   -1.9753   -4.3551   -2.9591 H   0  0  0  0  0  0  0  0  0  0  0  0
   -3.4353   -2.7416   -2.8892 C   0  0  0  0  0  0  0  0  0  0  0  0
   -3.9218   -3.0310   -3.8328 H   0  0  0  0  0  0  0  0  0  0  0  0
   -3.9008   -1.6306   -2.1692 C   0  0  0  0  0  0  0  0  0  0  0  0
   -4.7528   -1.0440   -2.5451 H   0  0  0  0  0  0  0  0  0  0  0  0
   -3.2846   -1.2532   -0.9666 C   0  0  0  0  0  0  0  0  0  0  0  0
   -3.6511   -0.3851   -0.4007 H   0  0  0  0  0  0  0  0  0  0  0  0
  1 34  1  0  0  0  0
  2 33  1  0  0  0  0
  3  4  1  0  0  0  0
  4  5  1  0  0  0  0
  5  6  2  0  0  0  0
  5 13  1  0  0  0  0
  6  7  1  0  0  0  0
  8  9  1  0  0  0  0
  8  6  1  0  0  0  0
 10  8  2  0  0  0  0
 11 10  1  0  0  0  0
 12 10  1  0  0  0  0
 12  4  2  0  0  0  0
 13 14  1  0  0  0  0
 13 16  1  0  0  0  0
 15 13  1  0  0  0  0
 17 12  1  0  0  0  0
 18 17  1  0  0  0  0
 19 17  1  0  0  0  0
 20 17  1  0  0  0  0
 21  3  1  0  0  0  0
 22 21  1  0  0  0  0
 23 21  2  0  0  0  0
 23 24  1  0  0  0  0
 24  2  1  0  0  0  0
 25 26  1  0  0  0  0
 25 24  2  0  0  0  0
 27 25  1  0  0  0  0
 28 27  1  0  0  0  0
 29 31  1  0  0  0  0
 29 27  2  0  0  0  0
 30 29  1  0  0  0  0
 31 23  1  0  0  0  0
 32 31  1  0  0  0  0
 33 34  2  0  0  0  0
 33 41  1  0  0  0  0
 34 35  1  0  0  0  0
 35 36  1  0  0  0  0
 35 37  2  0  0  0  0
 37 38  1  0  0  0  0
 39 37  1  0  0  0  0
 39 40  1  0  0  0  0
 41 39  2  0  0  0  0
 42 41  1  0  0  0  0
 43  1  1  0  0  0  0
 44 45  1  0  0  0  0
 44 43  2  0  0  0  0
 46 44  1  0  0  0  0
 47 46  1  0  0  0  0
 48 46  2  0  0  0  0
 48 50  1  0  0  0  0
 49 48  1  0  0  0  0
 50 52  2  0  0  0  0
 51 50  1  0  0  0  0
 52 43  1  0  0  0  0
 52 53  1  0  0  0  0
M  END
