1,2,3
q = -1.0, confidence = 0.0

 24 25  0  0  0  0  0  0  0  0999 V2000
    0.8832   -1.6289   -1.2948 S   0  0  0  0  0  1  0  0  0  0  0  0
    1.5843   -0.0447    1.0480 N   0  0  0  0  0  2  0  0  0  0  0  0
   -0.5812    1.3372    1.2842 N   0  0  0  0  0  2  0  0  0  0  0  0
    2.3981   -1.7191   -0.4556 C   0  0  0  0  0  0  0  0  0  0  0  0
    3.4217   -2.6076   -0.8747 C   0  0  0  0  0  0  0  0  0  0  0  0
    4.6233   -2.6702   -0.1756 C   0  0  0  0  0  0  0  0  0  0  0  0
    4.8469   -1.8548    0.9631 C   0  0  0  0  0  0  0  0  0  0  0  0
    3.8596   -0.9783    1.3960 C   0  0  0  0  0  0  0  0  0  0  0  0
    2.6278   -0.8986    0.6944 C   0  0  0  0  0  0  0  0  0  0  0  0
    1.5699    0.7861    2.0768 C   0  0  0  0  0  0  0  0  0  0  0  0
    0.3743    1.5727    2.2407 C   0  0  0  0  0  0  0  0  0  0  0  0
    0.1504    2.5066    3.2722 C   0  0  0  0  0  0  0  0  0  0  0  0
   -1.0701    3.1889    3.3181 C   0  0  0  0  0  0  0  0  0  0  0  0
   -2.0377    2.9286    2.3347 C   0  0  0  0  0  0  0  0  0  0  0  0
   -1.7508    1.9919    1.3306 C   0  0  0  0  0  0  0  0  0  0  0  0
    3.2494   -3.2451   -1.7542 H   0  0  0  0  0  0  0  0  0  0  0  0
    5.4087   -3.3641   -0.5101 H   0  0  0  0  0  0  0  0  0  0  0  0
    5.8009   -1.9175    1.5058 H   0  0  0  0  0  0  0  0  0  0  0  0
    4.0392   -0.3522    2.2814 H   0  0  0  0  0  0  0  0  0  0  0  0
    2.4111    0.8709    2.7818 H   0  0  0  0  0  0  0  0  0  0  0  0
    0.9315    2.6796    4.0260 H   0  0  0  0  0  0  0  0  0  0  0  0
   -1.2685    3.9173    4.1178 H   0  0  0  0  0  0  0  0  0  0  0  0
   -3.0109    3.4384    2.3383 H   0  0  0  0  0  0  0  0  0  0  0  0
   -2.4825    1.7528    0.5450 H   0  0  0  0  0  0  0  0  0  0  0  0
  1  4  1  0  0  0  0
  2 10  1  0  0  0  0
  3 15  1  0  0  0  0
  3 11  1  0  0  0  0
  4  9  1  0  0  0  0
  5  4  2  0  0  0  0
  5  6  1  0  0  0  0
  6  7  2  0  0  0  0
  7  8  1  0  0  0  0
  7 18  1  0  0  0  0
  8 19  1  0  0  0  0
  9  2  1  0  0  0  0
  9  8  2  0  0  0  0
 10 11  2  0  0  0  0
 10 20  1  0  0  0  0
 11 12  1  0  0  0  0
 12 13  2  0  0  0  0
 12 21  1  0  0  0  0
 13 22  1  0  0  0  0
 14 23  1  0  0  0  0
 14 13  1  0  0  0  0
 15 14  2  0  0  0  0
 16  5  1  0  0  0  0
 17  6  1  0  0  0  0
 24 15  1  0  0  0  0
M  END
