1,2,3
q = -1.0

 24 24  0  0  1  0  0  0  0  0999 V2000
   -2.2758   -1.5554   -0.2984 S   0  0  0  0  0  1  0  0  0  0  0  0
    1.9045   -0.2392   -0.0168 N   0  0  0  0  0  2  0  0  0  0  0  0
   -0.5091    0.6821   -0.0398 N   0  0  0  0  0  2  0  0  0  0  0  0
   -1.7830    1.1235   -0.0000 N   0  0  0  0  0  2  0  0  0  0  0  0
   -3.9875    0.4740   -0.0699 N   0  0  0  0  0  0  0  0  0  0  0  0
   -4.6547   -0.2941   -0.1224 H   0  0  0  0  0  0  0  0  0  0  0  0
    0.1197    2.9464    0.0772 N   0  0  0  0  0  0  0  0  0  0  0  0
   -0.8901    3.0836    0.2174 H   0  0  0  0  0  0  0  0  0  0  0  0
    0.7400    3.5719    0.5913 H   0  0  0  0  0  0  0  0  0  0  0  0
    3.1065   -0.8287   -0.0865 C   0  0  0  0  0  3  0  0  0  0  0  0
    3.0914   -1.9291   -0.1074 H   0  0  0  0  0  0  0  0  0  0  0  0
    4.2943   -0.0840   -0.1396 C   0  0  0  0  0  0  0  0  0  0  0  0
    5.2626   -0.6007   -0.1860 H   0  0  0  0  0  0  0  0  0  0  0  0
    4.2081    1.3168   -0.1458 C   0  0  0  0  0  0  0  0  0  0  0  0
    5.1189    1.9316   -0.2030 H   0  0  0  0  0  0  0  0  0  0  0  0
    2.9507    1.9301   -0.0945 C   0  0  0  0  0  0  0  0  0  0  0  0
    2.8530    3.0238   -0.1384 H   0  0  0  0  0  0  0  0  0  0  0  0
    1.8021    1.1174   -0.0186 C   0  0  0  0  0  0  0  0  0  0  0  0
    0.4298    1.6145    0.0347 C   0  0  2  0  0  3  0  0  0  0  0  0
   -2.6730    0.1321   -0.0971 C   0  0  1  0  0  3  0  0  0  0  0  0
   -4.4575    1.8383    0.0283 C   0  0  0  0  0  0  0  0  0  0  0  0
   -4.0898    2.4551   -0.8193 H   0  0  0  0  0  0  0  0  0  0  0  0
   -5.5631    1.8408    0.0186 H   0  0  0  0  0  0  0  0  0  0  0  0
   -4.1068    2.3214    0.9654 H   0  0  0  0  0  0  0  0  0  0  0  0
  3  4  1  0  0  0  0
  5 21  1  0  0  0  0
  6  5  1  0  0  0  0
  7  8  1  0  0  0  0
  7  9  1  0  0  0  0
 10  2  1  0  0  0  0
 11 10  1  0  0  0  0
 12 10  1  0  0  0  0
 13 12  1  0  0  0  0
 14 12  2  0  0  0  0
 14 16  1  0  0  0  0
 15 14  1  0  0  0  0
 16 18  2  0  0  0  0
 17 16  1  0  0  0  0
 18  2  1  0  0  0  0
 18 19  1  0  0  0  0
 19  3  1  6  0  0  0
 19  7  1  0  0  0  0
 20  1  1  6  0  0  0
 20  5  1  0  0  0  0
 20  4  1  0  0  0  0
 21 24  1  0  0  0  0
 22 21  1  0  0  0  0
 23 21  1  0  0  0  0
M  END
