1,2,4
q = 0.0, confidence = 1.0

 44 45  0  0  1  0  0  0  0  0999 V2000
    0.1004   -0.0287    1.5001 S   0  0  0  0  0  0  0  0  0  0  0  0
   -1.4902   -1.2481   -1.0698 N   0  0  0  0  0  2  0  0  0  0  0  0
   -2.5907   -1.2706   -0.2675 N   0  0  0  0  0  0  0  0  0  0  0  0
   -1.8358    1.5627   -0.4369 N   0  0  0  0  0  2  0  0  0  0  0  0
   -2.8240    1.0375    0.3399 N   0  0  0  0  0  0  0  0  0  0  0  0
   -4.7058   -2.5996    0.1064 C   0  0  0  0  0  0  0  0  0  0  0  0
   -5.4021   -1.7362    0.0645 H   0  0  0  0  0  0  0  0  0  0  0  0
   -4.5531   -2.8665    1.1730 H   0  0  0  0  0  0  0  0  0  0  0  0
   -5.2117   -3.4548   -0.3765 H   0  0  0  0  0  0  0  0  0  0  0  0
   -3.4205   -2.3175   -0.5962 C   0  0  1  0  0  3  0  0  0  0  0  0
   -2.8033   -2.9764   -1.6587 C   0  0  0  0  0  0  0  0  0  0  0  0
   -3.1876   -3.8566   -2.1841 H   0  0  0  0  0  0  0  0  0  0  0  0
   -1.5993   -2.2776   -1.9313 C   0  0  0  0  0  0  0  0  0  0  0  0
   -0.5511   -2.5408   -2.9593 C   0  0  0  0  0  0  0  0  0  0  0  0
    0.1399   -1.6810   -3.0518 H   0  0  0  0  0  0  0  0  0  0  0  0
   -1.0095   -2.7485   -3.9453 H   0  0  0  0  0  0  0  0  0  0  0  0
    0.0528   -3.4281   -2.6792 H   0  0  0  0  0  0  0  0  0  0  0  0
   -5.0528    1.6578    1.3550 C   0  0  0  0  0  0  0  0  0  0  0  0
   -4.8235    1.4066    2.4108 H   0  0  0  0  0  0  0  0  0  0  0  0
   -5.6327    0.8163    0.9212 H   0  0  0  0  0  0  0  0  0  0  0  0
   -5.7134    2.5432    1.3605 H   0  0  0  0  0  0  0  0  0  0  0  0
   -3.8247    1.9552    0.5615 C   0  0  2  0  0  3  0  0  0  0  0  0
   -3.4303    3.1173   -0.1014 C   0  0  0  0  0  0  0  0  0  0  0  0
   -3.9872    4.0590   -0.1429 H   0  0  0  0  0  0  0  0  0  0  0  0
   -2.1848    2.8335   -0.7184 C   0  0  0  0  0  0  0  0  0  0  0  0
   -1.3247    3.7007   -1.5759 C   0  0  0  0  0  0  0  0  0  0  0  0
   -0.2917    3.3037   -1.6336 H   0  0  0  0  0  0  0  0  0  0  0  0
   -1.2915    4.7343   -1.1817 H   0  0  0  0  0  0  0  0  0  0  0  0
   -1.7283    3.7567   -2.6082 H   0  0  0  0  0  0  0  0  0  0  0  0
   -2.7141   -0.3280    0.8319 C   0  0  2  0  0  0  0  0  0  0  0  0
   -3.6893   -0.5538    1.3024 H   0  0  0  0  0  0  0  0  0  0  0  0
   -1.6505   -0.5320    1.9748 C   0  0  0  0  0  0  0  0  0  0  0  0
   -1.5253   -2.0338    2.2672 C   0  0  0  0  0  0  0  0  0  0  0  0
   -1.0831   -2.5846    1.4140 H   0  0  0  0  0  0  0  0  0  0  0  0
   -2.5218   -2.4701    2.4863 H   0  0  0  0  0  0  0  0  0  0  0  0
   -0.8794   -2.1952    3.1504 H   0  0  0  0  0  0  0  0  0  0  0  0
   -2.0979    0.2438    3.2147 C   0  0  0  0  0  0  0  0  0  0  0  0
   -2.2387    1.3229    3.0122 H   0  0  0  0  0  0  0  0  0  0  0  0
   -1.3584    0.1351    4.0307 H   0  0  0  0  0  0  0  0  0  0  0  0
   -3.0602   -0.1672    3.5843 H   0  0  0  0  0  0  0  0  0  0  0  0
    0.3034    1.7115    1.9942 C   0  0  0  0  0  0  0  0  0  0  0  0
    1.2882    1.9971    1.5737 H   0  0  0  0  0  0  0  0  0  0  0  0
    0.3389    1.8034    3.0945 H   0  0  0  0  0  0  0  0  0  0  0  0
   -0.4746    2.3647    1.5584 H   0  0  0  0  0  0  0  0  0  0  0  0
  1 32  1  0  0  0  0
  1 41  1  0  0  0  0
  2  3  1  0  0  0  0
  3 30  1  0  0  0  0
  4  5  1  0  0  0  0
  5 22  1  0  0  0  0
  5 30  1  0  0  0  0
  6  8  1  0  0  0  0
  7  6  1  0  0  0  0
  9  6  1  0  0  0  0
 10  3  1  0  0  0  0
 10  6  1  6  0  0  0
 11 10  1  0  0  0  0
 12 11  1  0  0  0  0
 13 11  2  0  0  0  0
 13  2  1  0  0  0  0
 14 17  1  0  0  0  0
 14 13  1  0  0  0  0
 15 14  1  0  0  0  0
 16 14  1  0  0  0  0
 18 21  1  0  0  0  0
 18 19  1  0  0  0  0
 20 18  1  0  0  0  0
 22 18  1  6  0  0  0
 23 22  1  0  0  0  0
 24 23  1  0  0  0  0
 25  4  1  0  0  0  0
 25 23  2  0  0  0  0
 26 28  1  0  0  0  0
 26 25  1  0  0  0  0
 27 26  1  0  0  0  0
 29 26  1  0  0  0  0
 30 31  1  1  0  0  0
 30 32  1  0  0  0  0
 32 33  1  0  0  0  0
 32 37  1  0  0  0  0
 33 35  1  0  0  0  0
 33 36  1  0  0  0  0
 34 33  1  0  0  0  0
 37 40  1  0  0  0  0
 37 39  1  0  0  0  0
 38 37  1  0  0  0  0
 41 43  1  0  0  0  0
 42 41  1  0  0  0  0
 44 41  1  0  0  0  0
M  END
