1,2,3
q = -1.0, confidence = 0.002

 22 22  0  0  0  0  0  0  0  0999 V2000
   -0.2373    1.2270   -1.9576 S   0  0  0  0  0  1  0  0  0  0  0  0
    1.4207   -0.5762   -0.0204 N   0  0  0  0  0  2  0  0  0  0  0  0
    0.2197    1.5884    1.1376 N   0  0  0  0  0  0  0  0  0  0  0  0
   -0.4245    1.8519    1.8921 H   0  0  0  0  0  0  0  0  0  0  0  0
    2.0048   -1.4080   -0.9116 C   0  0  0  0  0  3  0  0  0  0  0  0
    1.3234   -1.9516   -1.5812 H   0  0  0  0  0  0  0  0  0  0  0  0
    3.3916   -1.5698   -0.9818 C   0  0  0  0  0  0  0  0  0  0  0  0
    3.8196   -2.2672   -1.7153 H   0  0  0  0  0  0  0  0  0  0  0  0
    4.2070   -0.8272   -0.1150 C   0  0  0  0  0  0  0  0  0  0  0  0
    5.3020   -0.9270   -0.1490 H   0  0  0  0  0  0  0  0  0  0  0  0
    3.6016    0.0578    0.7868 C   0  0  0  0  0  0  0  0  0  0  0  0
    4.2034    0.6781    1.4668 H   0  0  0  0  0  0  0  0  0  0  0  0
    2.2033    0.1597    0.8094 C   0  0  0  0  0  0  0  0  0  0  0  0
    1.4589    1.0650    1.7596 C   0  0  0  0  0  0  0  0  0  0  0  0
    2.1227    1.8849    2.1123 H   0  0  0  0  0  0  0  0  0  0  0  0
    1.1536    0.4695    2.6472 H   0  0  0  0  0  0  0  0  0  0  0  0
    0.4211    2.7780    0.2562 C   0  0  0  0  0  0  0  0  0  0  0  0
    1.1197    3.4897    0.7565 H   0  0  0  0  0  0  0  0  0  0  0  0
   -0.5683    3.2673    0.1565 H   0  0  0  0  0  0  0  0  0  0  0  0
    0.9182    2.3885   -1.1282 C   0  0  0  0  0  0  0  0  0  0  0  0
    1.9459    1.9660   -1.0700 H   0  0  0  0  0  0  0  0  0  0  0  0
    0.9918    3.3060   -1.7478 H   0  0  0  0  0  0  0  0  0  0  0  0
  1 20  1  0  0  0  0
  2 13  1  0  0  0  0
  3 14  1  0  0  0  0
  3  4  1  0  0  0  0
  5  2  1  0  0  0  0
  6  5  1  0  0  0  0
  7  5  1  0  0  0  0
  7  9  2  0  0  0  0
  8  7  1  0  0  0  0
  9 11  1  0  0  0  0
 10  9  1  0  0  0  0
 11 13  2  0  0  0  0
 11 12  1  0  0  0  0
 13 14  1  0  0  0  0
 14 15  1  0  0  0  0
 14 16  1  0  0  0  0
 17 18  1  0  0  0  0
 17  3  1  0  0  0  0
 19 17  1  0  0  0  0
 20 21  1  0  0  0  0
 20 17  1  0  0  0  0
 22 20  1  0  0  0  0
M  END
