1,2,3
q = -1.0

 28 28  0  0  0  0  0  0  0  0999 V2000
    0.0787   -0.4840    2.3500 S   0  0  0  0  0  1  0  0  0  0  0  0
   -1.5424   -0.5053   -0.3096 N   0  0  0  0  0  2  0  0  0  0  0  0
    0.0534    1.7481    0.0604 N   0  0  0  0  0  0  0  0  0  0  0  0
   -2.3245   -1.5881   -0.1009 C   0  0  0  0  0  3  0  0  0  0  0  0
   -1.7980   -2.5269    0.1209 H   0  0  0  0  0  0  0  0  0  0  0  0
   -3.7194   -1.5216   -0.1603 C   0  0  0  0  0  0  0  0  0  0  0  0
   -4.3130   -2.4314    0.0050 H   0  0  0  0  0  0  0  0  0  0  0  0
   -4.3301   -0.2863   -0.4234 C   0  0  0  0  0  0  0  0  0  0  0  0
   -5.4256   -0.1991   -0.4714 H   0  0  0  0  0  0  0  0  0  0  0  0
   -3.5186    0.8402   -0.6089 C   0  0  0  0  0  0  0  0  0  0  0  0
   -3.9550    1.8328   -0.7916 H   0  0  0  0  0  0  0  0  0  0  0  0
   -2.1245    0.6976   -0.5446 C   0  0  0  0  0  0  0  0  0  0  0  0
   -1.1761    1.8459   -0.7711 C   0  0  0  0  0  0  0  0  0  0  0  0
   -0.8511    1.8197   -1.8342 H   0  0  0  0  0  0  0  0  0  0  0  0
   -1.7055    2.8101   -0.6079 H   0  0  0  0  0  0  0  0  0  0  0  0
   -0.2058    2.1425    1.4844 C   0  0  0  0  0  0  0  0  0  0  0  0
   -0.7930    3.0902    1.4961 H   0  0  0  0  0  0  0  0  0  0  0  0
    0.7857    2.3441    1.9362 H   0  0  0  0  0  0  0  0  0  0  0  0
   -0.8956    1.0688    2.3134 C   0  0  0  0  0  0  0  0  0  0  0  0
   -1.9337    0.8926    1.9581 H   0  0  0  0  0  0  0  0  0  0  0  0
   -0.9861    1.4463    3.3533 H   0  0  0  0  0  0  0  0  0  0  0  0
    1.1391    2.6048   -0.5223 C   0  0  0  0  0  0  0  0  0  0  0  0
    1.3439    2.2120   -1.5371 H   0  0  0  0  0  0  0  0  0  0  0  0
    2.0462    2.4032    0.0791 H   0  0  0  0  0  0  0  0  0  0  0  0
    0.8618    4.1066   -0.5791 C   0  0  0  0  0  0  0  0  0  0  0  0
   -0.0209    4.3558   -1.2018 H   0  0  0  0  0  0  0  0  0  0  0  0
    1.7343    4.6114   -1.0388 H   0  0  0  0  0  0  0  0  0  0  0  0
    0.7165    4.5529    0.4242 H   0  0  0  0  0  0  0  0  0  0  0  0
  2  4  1  0  0  0  0
  3 16  1  0  0  0  0
  4  5  1  0  0  0  0
  6  4  1  0  0  0  0
  6  7  1  0  0  0  0
  8  6  2  0  0  0  0
  9  8  1  0  0  0  0
 10 12  2  0  0  0  0
 10  8  1  0  0  0  0
 11 10  1  0  0  0  0
 12  2  1  0  0  0  0
 13 15  1  0  0  0  0
 13 12  1  0  0  0  0
 13  3  1  0  0  0  0
 14 13  1  0  0  0  0
 16 17  1  0  0  0  0
 16 18  1  0  0  0  0
 16 19  1  0  0  0  0
 19  1  1  0  0  0  0
 19 21  1  0  0  0  0
 20 19  1  0  0  0  0
 22  3  1  0  0  0  0
 22 24  1  0  0  0  0
 23 22  1  0  0  0  0
 25 22  1  0  0  0  0
 25 28  1  0  0  0  0
 26 25  1  0  0  0  0
 27 25  1  0  0  0  0
M  END
