1,2,3
q = -1.0

 38 39  0  0  0  0  0  0  0  0999 V2000
    1.6902   -1.8988   -0.5212 S   0  0  0  0  0  1  0  0  0  0  0  0
   -1.0182    0.7814    1.5601 N   0  0  0  0  0  2  0  0  0  0  0  0
    1.5329    0.6153    0.9113 N   0  0  0  0  0  2  0  0  0  0  0  0
    2.7959    0.3883    0.5495 N   0  0  0  0  0  0  0  0  0  0  0  0
    4.2531   -1.0161   -0.5499 N   0  0  0  0  0  0  0  0  0  0  0  0
   -2.3201    0.7825    1.8778 C   0  0  0  0  0  0  0  0  0  0  0  0
   -2.8617   -0.1478    1.6442 H   0  0  0  0  0  0  0  0  0  0  0  0
   -2.9447    1.8937    2.4609 C   0  0  0  0  0  0  0  0  0  0  0  0
   -4.0161    1.8528    2.7012 H   0  0  0  0  0  0  0  0  0  0  0  0
   -2.1732    3.0404    2.7077 C   0  0  0  0  0  0  0  0  0  0  0  0
   -2.6318    3.9385    3.1479 H   0  0  0  0  0  0  0  0  0  0  0  0
   -0.8119    3.0362    2.3872 C   0  0  0  0  0  0  0  0  0  0  0  0
   -0.1890    3.9223    2.5656 H   0  0  0  0  0  0  0  0  0  0  0  0
   -0.2323    1.8810    1.8172 C   0  0  0  0  0  0  0  0  0  0  0  0
    1.1761    1.7732    1.4714 C   0  0  0  0  0  0  0  0  0  0  0  0
    2.1456    2.8848    1.7140 C   0  0  0  0  0  0  0  0  0  0  0  0
    3.1556    2.5651    1.4045 H   0  0  0  0  0  0  0  0  0  0  0  0
    2.1693    3.1758    2.7850 H   0  0  0  0  0  0  0  0  0  0  0  0
    1.8638    3.7819    1.1242 H   0  0  0  0  0  0  0  0  0  0  0  0
    2.9822   -0.7553   -0.1260 C   0  0  0  0  0  0  0  0  0  0  0  0
    4.5947   -2.2768   -1.2037 C   0  0  0  0  0  0  0  0  0  0  0  0
    4.5967   -2.1484   -2.3109 H   0  0  0  0  0  0  0  0  0  0  0  0
    3.7740   -2.9865   -0.9741 H   0  0  0  0  0  0  0  0  0  0  0  0
    5.9301   -2.8727   -0.7373 C   0  0  0  0  0  0  0  0  0  0  0  0
    6.7812   -2.3828   -1.2589 H   0  0  0  0  0  0  0  0  0  0  0  0
    5.9402   -3.9256   -1.0884 H   0  0  0  0  0  0  0  0  0  0  0  0
    6.1709   -2.8144    0.7819 C   0  0  0  0  0  0  0  0  0  0  0  0
    6.8460   -3.6477    1.0673 H   0  0  0  0  0  0  0  0  0  0  0  0
    5.2149   -2.9967    1.3216 H   0  0  0  0  0  0  0  0  0  0  0  0
    6.8102   -1.4988    1.2572 C   0  0  0  0  0  0  0  0  0  0  0  0
    7.7578   -1.3538    0.6898 H   0  0  0  0  0  0  0  0  0  0  0  0
    7.1108   -1.6017    2.3215 H   0  0  0  0  0  0  0  0  0  0  0  0
    5.9436   -0.2423    1.1124 C   0  0  0  0  0  0  0  0  0  0  0  0
    5.1099   -0.2524    1.8460 H   0  0  0  0  0  0  0  0  0  0  0  0
    6.5552    0.6540    1.3520 H   0  0  0  0  0  0  0  0  0  0  0  0
    5.3181   -0.0465   -0.2758 C   0  0  0  0  0  0  0  0  0  0  0  0
    4.8749    0.9637   -0.3501 H   0  0  0  0  0  0  0  0  0  0  0  0
    6.0813   -0.1441   -1.0762 H   0  0  0  0  0  0  0  0  0  0  0  0
  1 20  1  0  0  0  0
  2 14  1  0  0  0  0
  2  6  1  0  0  0  0
  3 15  1  0  0  0  0
  4  3  1  0  0  0  0
  5 36  1  0  0  0  0
  5 20  1  0  0  0  0
  6  8  2  0  0  0  0
  7  6  1  0  0  0  0
  8  9  1  0  0  0  0
  8 10  1  0  0  0  0
 10 11  1  0  0  0  0
 12 13  1  0  0  0  0
 12 10  2  0  0  0  0
 14 12  1  0  0  0  0
 15 16  1  0  0  0  0
 15 14  2  0  0  0  0
 16 18  1  0  0  0  0
 17 16  1  0  0  0  0
 19 16  1  0  0  0  0
 20  4  2  0  0  0  0
 21 23  1  0  0  0  0
 21 24  1  0  0  0  0
 21  5  1  0  0  0  0
 22 21  1  0  0  0  0
 24 27  1  0  0  0  0
 25 24  1  0  0  0  0
 26 24  1  0  0  0  0
 27 28  1  0  0  0  0
 27 30  1  0  0  0  0
 27 29  1  0  0  0  0
 30 32  1  0  0  0  0
 31 30  1  0  0  0  0
 33 30  1  0  0  0  0
 33 35  1  0  0  0  0
 33 34  1  0  0  0  0
 36 33  1  0  0  0  0
 37 36  1  0  0  0  0
 38 36  1  0  0  0  0
M  END
