1,3,4
q = -1.0

 41 43  0  0  1  0  0  0  0  0999 V2000
   -0.8709   -2.4393    0.2691 S   0  0  0  0  0  0  0  0  0  0  0  0
    1.8675    3.3413   -0.4857 O   0  0  0  0  0  0  0  0  0  0  0  0
    1.5300    1.1227   -0.3919 N   0  0  0  0  0  2  0  0  0  0  0  0
   -1.2491    0.4564   -0.0931 N   0  0  0  0  0  2  0  0  0  0  0  0
   -1.3548    1.7325    0.4122 C   0  0  1  0  0  3  0  0  0  0  0  0
   -2.5583    2.1901    1.0331 C   0  0  0  0  0  0  0  0  0  0  0  0
   -3.3925    1.4833    1.1369 H   0  0  0  0  0  0  0  0  0  0  0  0
   -2.6890    3.4830    1.5291 C   0  0  0  0  0  0  0  0  0  0  0  0
   -3.6323    3.7760    2.0159 H   0  0  0  0  0  0  0  0  0  0  0  0
   -1.6261    4.4068    1.4348 C   0  0  0  0  0  0  0  0  0  0  0  0
   -1.7320    5.4300    1.8222 H   0  0  0  0  0  0  0  0  0  0  0  0
   -0.4289    3.9869    0.8639 C   0  0  0  0  0  0  0  0  0  0  0  0
    0.4261    4.6734    0.7946 H   0  0  0  0  0  0  0  0  0  0  0  0
   -0.2599    2.6668    0.3728 C   0  0  0  0  0  0  0  0  0  0  0  0
   -3.4991    0.3250   -1.1531 C   0  0  0  0  0  0  0  0  0  0  0  0
   -3.5255    1.4129   -1.3058 H   0  0  0  0  0  0  0  0  0  0  0  0
   -2.3654   -0.2617   -0.5300 C   0  0  0  0  0  0  0  0  0  0  0  0
   -3.4165   -2.4707   -0.8715 C   0  0  0  0  0  0  0  0  0  0  0  0
   -3.3500   -3.5656   -0.7735 H   0  0  0  0  0  0  0  0  0  0  0  0
   -2.3537   -1.6776   -0.4228 C   0  0  0  0  0  0  0  0  0  0  0  0
   -1.3397   -2.4381    2.0410 C   0  0  0  0  0  0  0  0  0  0  0  0
   -2.2077   -3.1135    2.1622 H   0  0  0  0  0  0  0  0  0  0  0  0
   -1.5928   -1.4113    2.3604 H   0  0  0  0  0  0  0  0  0  0  0  0
   -0.4500   -2.8220    2.5690 H   0  0  0  0  0  0  0  0  0  0  0  0
    1.0345    2.3168   -0.1806 C   0  0  0  0  0  0  0  0  0  0  0  0
    2.9989    2.7691   -1.1749 C   0  0  0  0  0  0  0  0  0  0  0  0
    3.9180    3.2694   -0.8143 H   0  0  0  0  0  0  0  0  0  0  0  0
    2.8736    2.9666   -2.2617 H   0  0  0  0  0  0  0  0  0  0  0  0
    2.9472    1.2561   -0.8449 C   0  0  0  0  0  0  0  0  0  0  0  0
    3.8771    0.9080    0.3283 C   0  0  0  0  0  0  0  0  0  0  0  0
    3.6974   -0.1379    0.6357 H   0  0  0  0  0  0  0  0  0  0  0  0
    3.6858    1.5776    1.1910 H   0  0  0  0  0  0  0  0  0  0  0  0
    4.9368    1.0223    0.0217 H   0  0  0  0  0  0  0  0  0  0  0  0
    3.2313    0.3931   -2.0753 C   0  0  0  0  0  0  0  0  0  0  0  0
    3.1520   -0.6760   -1.8052 H   0  0  0  0  0  0  0  0  0  0  0  0
    4.2549    0.5962   -2.4512 H   0  0  0  0  0  0  0  0  0  0  0  0
    2.5082    0.6163   -2.8845 H   0  0  0  0  0  0  0  0  0  0  0  0
   -4.5619   -0.4684   -1.5992 C   0  0  0  0  0  0  0  0  0  0  0  0
   -5.4189    0.0176   -2.0908 H   0  0  0  0  0  0  0  0  0  0  0  0
   -4.5407   -1.8674   -1.4554 C   0  0  0  0  0  0  0  0  0  0  0  0
   -5.3764   -2.4825   -1.8190 H   0  0  0  0  0  0  0  0  0  0  0  0
  1 21  1  0  0  0  0
  2 25  1  0  0  0  0
  3 25  1  0  0  0  0
  5  4  1  1  0  0  0
  5  6  1  0  0  0  0
  6  7  1  0  0  0  0
  6  8  2  0  0  0  0
  8  9  1  0  0  0  0
 10  8  1  0  0  0  0
 10 11  1  0  0  0  0
 12 10  2  0  0  0  0
 13 12  1  0  0  0  0
 14  5  1  0  0  0  0
 14 12  1  0  0  0  0
 15 17  1  0  0  0  0
 16 15  1  0  0  0  0
 17 20  2  0  0  0  0
 17  4  1  0  0  0  0
 18 19  1  0  0  0  0
 18 20  1  0  0  0  0
 20  1  1  0  0  0  0
 21 22  1  0  0  0  0
 21 23  1  0  0  0  0
 21 24  1  0  0  0  0
 25 14  2  0  0  0  0
 26 29  1  0  0  0  0
 26 27  1  0  0  0  0
 26  2  1  0  0  0  0
 28 26  1  0  0  0  0
 29  3  1  0  0  0  0
 29 30  1  0  0  0  0
 30 31  1  0  0  0  0
 30 32  1  0  0  0  0
 33 30  1  0  0  0  0
 34 35  1  0  0  0  0
 34 29  1  0  0  0  0
 36 34  1  0  0  0  0
 37 34  1  0  0  0  0
 38 40  1  0  0  0  0
 38 15  2  0  0  0  0
 39 38  1  0  0  0  0
 40 18  2  0  0  0  0
 41 40  1  0  0  0  0
M  END
