1,6,13
q = -1.0, confidence = 0.0

 24 24  0  0  1  0  0  0  0  0999 V2000
   -1.6186   -1.7454   -0.3931 S   0  0  0  0  0  5  0  0  0  0  0  0
   -2.6039   -1.9185    0.7052 O   0  0  0  0  0  0  0  0  0  0  0  0
   -1.0164   -2.9759   -1.0543 O   0  0  0  0  0  0  0  0  0  0  0  0
   -2.5391   -0.9393   -1.7845 C   0  0  0  0  0  0  0  0  0  0  0  0
   -1.5101   -0.4642   -2.7857 C   0  0  0  0  0  0  0  0  0  0  0  0
   -0.4684    0.3716   -2.1166 N   0  0  0  0  0  0  0  0  0  0  0  0
   -0.8512    1.7884   -1.8957 C   0  0  0  0  0  0  0  0  0  0  0  0
   -1.6106    1.9370   -0.6035 C   0  0  1  0  0  3  0  0  0  0  0  0
   -2.5731    2.9282   -0.3846 C   0  0  0  0  0  0  0  0  0  0  0  0
   -3.2393    2.9717    0.8493 C   0  0  0  0  0  0  0  0  0  0  0  0
   -2.9428    1.9976    1.8115 C   0  0  0  0  0  0  0  0  0  0  0  0
   -1.9772    1.0271    1.5297 C   0  0  0  0  0  0  0  0  0  0  0  0
   -1.2989    1.0236    0.3565 N   0  0  0  0  0  2  0  0  0  0  0  0
    0.3606    0.3774   -2.7231 H   0  0  0  0  0  0  0  0  0  0  0  0
   -3.1612   -0.1329   -1.3515 H   0  0  0  0  0  0  0  0  0  0  0  0
   -3.1976   -1.7311   -2.1911 H   0  0  0  0  0  0  0  0  0  0  0  0
   -1.9814    0.0996   -3.6206 H   0  0  0  0  0  0  0  0  0  0  0  0
   -0.9981   -1.3475   -3.2170 H   0  0  0  0  0  0  0  0  0  0  0  0
   -1.4427    2.1924   -2.7453 H   0  0  0  0  0  0  0  0  0  0  0  0
    0.0856    2.3819   -1.8425 H   0  0  0  0  0  0  0  0  0  0  0  0
   -2.8042    3.6488   -1.1824 H   0  0  0  0  0  0  0  0  0  0  0  0
   -3.9980    3.7435    1.0453 H   0  0  0  0  0  0  0  0  0  0  0  0
   -3.4627    1.9674    2.7789 H   0  0  0  0  0  0  0  0  0  0  0  0
   -1.7539    0.2160    2.2391 H   0  0  0  0  0  0  0  0  0  0  0  0
  1  2  2  0  0  0  0
  3  1  2  0  0  0  0
  4 15  1  0  0  0  0
  4  1  1  0  0  0  0
  5  6  1  0  0  0  0
  5  4  1  0  0  0  0
  6  7  1  0  0  0  0
  7 20  1  0  0  0  0
  8  7  1  6  0  0  0
  8  9  1  0  0  0  0
  8 13  1  0  0  0  0
  9 10  2  0  0  0  0
 10 22  1  0  0  0  0
 10 11  1  0  0  0  0
 11 23  1  0  0  0  0
 12 11  2  0  0  0  0
 12 24  1  0  0  0  0
 13 12  1  0  0  0  0
 14  6  1  0  0  0  0
 16  4  1  0  0  0  0
 17  5  1  0  0  0  0
 18  5  1  0  0  0  0
 19  7  1  0  0  0  0
 21  9  1  0  0  0  0
M  END
