1,2,3
q = -1.0, confidence = 0.0

 35 37  0  0  0  0  0  0  0  0999 V2000
   -1.0371   -1.4435    1.2476 S   0  0  0  0  0  1  0  0  0  0  0  0
    0.5587    1.5053   -1.3620 N   0  0  0  0  0  2  0  0  0  0  0  0
   -1.4830   -0.1061   -1.1861 N   0  0  0  0  0  2  0  0  0  0  0  0
   -2.4982   -0.9372   -0.9826 N   0  0  0  0  0  0  0  0  0  0  0  0
   -2.4058   -1.6117    0.1684 C   0  0  0  0  0  0  0  0  0  0  0  0
    1.6192    2.3819   -1.3761 C   0  0  0  0  0  0  0  0  0  0  0  0
   -3.3735   -2.4841    0.5429 N   0  0  0  0  0  0  0  0  0  0  0  0
   -3.1753   -2.9616    1.4264 H   0  0  0  0  0  0  0  0  0  0  0  0
   -1.3756    0.5399   -2.3370 C   0  0  0  0  0  3  0  0  0  0  0  0
   -2.1168    0.3875   -3.1354 H   0  0  0  0  0  0  0  0  0  0  0  0
   -4.5988   -2.8605   -0.0496 C   0  0  0  0  0  0  0  0  0  0  0  0
   -0.2703    1.4478   -2.4396 C   0  0  0  0  0  0  0  0  0  0  0  0
    2.5011    2.4982   -0.2678 C   0  0  0  0  0  0  0  0  0  0  0  0
    2.3353    1.8760    0.6125 H   0  0  0  0  0  0  0  0  0  0  0  0
    1.8633    3.2233   -2.5294 C   0  0  0  0  0  0  0  0  0  0  0  0
    3.5663    3.3875   -0.2963 C   0  0  0  0  0  0  0  0  0  0  0  0
    4.2329    3.4540    0.5765 H   0  0  0  0  0  0  0  0  0  0  0  0
   -0.0771    2.2490   -3.6003 C   0  0  0  0  0  0  0  0  0  0  0  0
   -0.7813    2.1496   -4.4377 H   0  0  0  0  0  0  0  0  0  0  0  0
   -5.3532   -3.8351    0.6429 C   0  0  0  0  0  0  0  0  0  0  0  0
   -4.9697   -4.2536    1.5876 H   0  0  0  0  0  0  0  0  0  0  0  0
   -5.0890   -2.3251   -1.2593 C   0  0  0  0  0  0  0  0  0  0  0  0
   -4.5008   -1.5720   -1.7944 H   0  0  0  0  0  0  0  0  0  0  0  0
    0.9852    3.1254   -3.6442 C   0  0  0  0  0  0  0  0  0  0  0  0
    1.1633    3.7555   -4.5286 H   0  0  0  0  0  0  0  0  0  0  0  0
    2.9654    4.1220   -2.5243 C   0  0  0  0  0  3  0  0  0  0  0  0
    3.1321    4.7495   -3.4129 H   0  0  0  0  0  0  0  0  0  0  0  0
    3.8087    4.2073   -1.4273 C   0  0  0  0  0  0  0  0  0  0  0  0
    4.6591    4.9043   -1.4315 H   0  0  0  0  0  0  0  0  0  0  0  0
   -6.5806   -4.2698    0.1337 C   0  0  0  0  0  0  0  0  0  0  0  0
   -7.1560   -5.0290    0.6834 H   0  0  0  0  0  0  0  0  0  0  0  0
   -6.3207   -2.7730   -1.7556 C   0  0  0  0  0  0  0  0  0  0  0  0
   -6.6981   -2.3535   -2.7002 H   0  0  0  0  0  0  0  0  0  0  0  0
   -7.0721   -3.7405   -1.0705 C   0  0  0  0  0  0  0  0  0  0  0  0
   -8.0371   -4.0816   -1.4726 H   0  0  0  0  0  0  0  0  0  0  0  0
  3  4  1  0  0  0  0
  4  5  2  0  0  0  0
  5  7  1  0  0  0  0
  5  1  1  0  0  0  0
  6  2  1  0  0  0  0
  6 13  2  0  0  0  0
  7  8  1  0  0  0  0
  9  3  1  0  0  0  0
 10  9  1  0  0  0  0
 11  7  1  0  0  0  0
 11 20  1  0  0  0  0
 12  9  1  0  0  0  0
 12  2  1  0  0  0  0
 13 14  1  0  0  0  0
 15 26  1  0  0  0  0
 15  6  1  0  0  0  0
 16 13  1  0  0  0  0
 16 17  1  0  0  0  0
 18 12  2  0  0  0  0
 19 18  1  0  0  0  0
 20 21  1  0  0  0  0
 22 11  2  0  0  0  0
 23 22  1  0  0  0  0
 24 18  1  0  0  0  0
 24 15  2  0  0  0  0
 25 24  1  0  0  0  0
 26 28  1  0  0  0  0
 27 26  1  0  0  0  0
 28 16  2  0  0  0  0
 29 28  1  0  0  0  0
 30 20  2  0  0  0  0
 30 31  1  0  0  0  0
 32 22  1  0  0  0  0
 32 34  2  0  0  0  0
 33 32  1  0  0  0  0
 34 30  1  0  0  0  0
 35 34  1  0  0  0  0
M  END
