1,2,3
q = -1.0

 26 26  0  0  1  0  0  0  0  0999 V2000
   -2.2661   -1.4431   -0.3853 S   0  0  0  0  0  1  0  0  0  0  0  0
    1.7715    0.0753    0.0368 N   0  0  0  0  0  2  0  0  0  0  0  0
   -0.7795    0.6261   -0.1181 N   0  0  0  0  0  2  0  0  0  0  0  0
    3.0151   -0.4193   -0.0528 N   0  0  0  0  0  0  0  0  0  0  0  0
    3.0933   -1.4326   -0.1999 H   0  0  0  0  0  0  0  0  0  0  0  0
   -0.5171    1.9380   -0.0087 N   0  0  0  0  0  0  0  0  0  0  0  0
   -3.0467    1.1842   -0.4257 N   0  0  0  0  0  0  0  0  0  0  0  0
   -2.7094    2.1477   -0.2955 H   0  0  0  0  0  0  0  0  0  0  0  0
    5.4248    0.2606   -0.1400 C   0  0  0  0  0  0  0  0  0  0  0  0
    5.6629   -0.3116   -1.0601 H   0  0  0  0  0  0  0  0  0  0  0  0
    5.7769   -0.3366    0.7265 H   0  0  0  0  0  0  0  0  0  0  0  0
    6.0040    1.2012   -0.1634 H   0  0  0  0  0  0  0  0  0  0  0  0
    3.9658    0.5583   -0.0420 C   0  0  1  0  0  3  0  0  0  0  0  0
    3.2690    1.7640    0.0717 C   0  0  0  0  0  0  0  0  0  0  0  0
    3.7027    2.7685    0.1043 H   0  0  0  0  0  0  0  0  0  0  0  0
    1.8858    1.4230    0.1090 C   0  0  0  0  0  0  0  0  0  0  0  0
    0.7308    2.3016    0.1302 C   0  0  0  0  0  0  0  0  0  0  0  0
    0.9158    3.3832    0.2232 H   0  0  0  0  0  0  0  0  0  0  0  0
   -2.0744    0.2702   -0.3095 C   0  0  1  0  0  3  0  0  0  0  0  0
   -4.4667    0.8843   -0.5095 C   0  0  0  0  0  0  0  0  0  0  0  0
   -4.5698   -0.0673   -1.0714 H   0  0  0  0  0  0  0  0  0  0  0  0
   -4.9446    1.6759   -1.1231 H   0  0  0  0  0  0  0  0  0  0  0  0
   -5.1421    0.7668    0.8580 C   0  0  0  0  0  0  0  0  0  0  0  0
   -6.2210    0.5427    0.7381 H   0  0  0  0  0  0  0  0  0  0  0  0
   -5.0487    1.7075    1.4376 H   0  0  0  0  0  0  0  0  0  0  0  0
   -4.6814   -0.0524    1.4450 H   0  0  0  0  0  0  0  0  0  0  0  0
  2 16  1  0  0  0  0
  3  6  1  0  0  0  0
  4 13  1  0  0  0  0
  4  2  1  0  0  0  0
  5  4  1  0  0  0  0
  6 17  2  0  0  0  0
  7 19  1  0  0  0  0
  7  8  1  0  0  0  0
  9 11  1  0  0  0  0
 10  9  1  0  0  0  0
 12  9  1  0  0  0  0
 13  9  1  6  0  0  0
 13 14  1  0  0  0  0
 14 15  1  0  0  0  0
 14 16  2  0  0  0  0
 16 17  1  0  0  0  0
 17 18  1  0  0  0  0
 19  1  1  6  0  0  0
 19  3  1  0  0  0  0
 20  7  1  0  0  0  0
 20 23  1  0  0  0  0
 21 20  1  0  0  0  0
 22 20  1  0  0  0  0
 23 25  1  0  0  0  0
 23 26  1  0  0  0  0
 24 23  1  0  0  0  0
M  END
