1,2,4
q = -1.0

 23 23  0  0  1  0  0  0  0  0999 V2000
    2.6363   -1.2756   -0.2455 S   0  0  0  0  0  1  0  0  0  0  0  0
    1.0449    0.7132    0.0243 N   0  0  0  0  0  2  0  0  0  0  0  0
    0.7167    2.0073    0.1600 N   0  0  0  0  0  0  0  0  0  0  0  0
   -1.4827    0.0455    0.0221 N   0  0  0  0  0  2  0  0  0  0  0  0
   -2.6962   -0.5001   -0.1479 N   0  0  0  0  0  0  0  0  0  0  0  0
   -2.7205   -1.5098   -0.3330 H   0  0  0  0  0  0  0  0  0  0  0  0
    3.2926    1.3875   -0.1062 N   0  0  0  0  0  0  0  0  0  0  0  0
    2.8851    2.3279   -0.0094 H   0  0  0  0  0  0  0  0  0  0  0  0
   -5.1275    0.0746   -0.3339 C   0  0  0  0  0  0  0  0  0  0  0  0
   -5.4947   -0.5651    0.4951 H   0  0  0  0  0  0  0  0  0  0  0  0
   -5.2928   -0.4778   -1.2817 H   0  0  0  0  0  0  0  0  0  0  0  0
   -5.7474    0.9888   -0.3589 H   0  0  0  0  0  0  0  0  0  0  0  0
   -3.6905    0.4333   -0.1521 C   0  0  2  0  0  3  0  0  0  0  0  0
   -3.0566    1.6638    0.0382 C   0  0  0  0  0  0  0  0  0  0  0  0
   -3.5373    2.6461    0.0833 H   0  0  0  0  0  0  0  0  0  0  0  0
   -1.6627    1.3834    0.1346 C   0  0  0  0  0  0  0  0  0  0  0  0
   -0.5521    2.3110    0.2437 C   0  0  0  0  0  0  0  0  0  0  0  0
   -0.7908    3.3799    0.3581 H   0  0  0  0  0  0  0  0  0  0  0  0
    2.3645    0.4216   -0.1038 C   0  0  1  0  0  3  0  0  0  0  0  0
    4.7188    1.1937   -0.2175 C   0  0  0  0  0  0  0  0  0  0  0  0
    5.2515    1.6679    0.6328 H   0  0  0  0  0  0  0  0  0  0  0  0
    5.1157    1.6188   -1.1639 H   0  0  0  0  0  0  0  0  0  0  0  0
    4.9327    0.1075   -0.2050 H   0  0  0  0  0  0  0  0  0  0  0  0
  2  3  1  0  0  0  0
  3 17  2  0  0  0  0
  4 16  1  0  0  0  0
  5  4  1  0  0  0  0
  6  5  1  0  0  0  0
  7 19  1  0  0  0  0
  7  8  1  0  0  0  0
  9 10  1  0  0  0  0
 11  9  1  0  0  0  0
 12  9  1  0  0  0  0
 13  9  1  6  0  0  0
 13  5  1  0  0  0  0
 13 14  1  0  0  0  0
 14 15  1  0  0  0  0
 14 16  2  0  0  0  0
 16 17  1  0  0  0  0
 17 18  1  0  0  0  0
 19  1  1  1  0  0  0
 19  2  1  0  0  0  0
 20 23  1  0  0  0  0
 20  7  1  0  0  0  0
 20 21  1  0  0  0  0
 22 20  1  0  0  0  0
M  END
