1,3,4
q = -1.0

 24 24  0  0  1  0  0  0  0  0999 V2000
   -0.2134    2.0049   -0.8509 S   0  0  0  0  0  1  0  0  0  0  0  0
   -1.9842    4.2100    0.0748 S   0  0  0  0  0  0  0  0  0  0  0  0
    0.1887   -1.5376    1.3302 N   0  0  0  0  0  2  0  0  0  0  0  0
   -1.0563    0.7105    1.4468 N   0  0  0  0  0  2  0  0  0  0  0  0
   -1.6710    1.9141    1.4120 N   0  0  0  0  0  0  0  0  0  0  0  0
    0.9100   -2.6861    1.2380 C   0  0  2  0  0  3  0  0  0  0  0  0
    1.8580   -2.8735    0.0942 C   0  0  0  0  0  0  0  0  0  0  0  0
    0.7781   -3.7025    2.2028 C   0  0  0  0  0  0  0  0  0  0  0  0
   -0.0757   -3.5371    3.3069 C   0  0  0  0  0  0  0  0  0  0  0  0
   -0.7860   -2.3480    3.4261 C   0  0  0  0  0  0  0  0  0  0  0  0
   -0.6461   -1.3608    2.4231 C   0  0  0  0  0  0  0  0  0  0  0  0
   -1.3256   -0.1116    2.4580 C   0  0  0  0  0  3  0  0  0  0  0  0
   -1.3201    2.6073    0.3457 C   0  0  0  0  0  0  0  0  0  0  0  0
   -3.0812    4.3791    1.5159 C   0  0  0  0  0  0  0  0  0  0  0  0
    2.5651   -2.0236    0.0413 H   0  0  0  0  0  0  0  0  0  0  0  0
    2.4306   -3.8106    0.2161 H   0  0  0  0  0  0  0  0  0  0  0  0
    1.3161   -2.9127   -0.8706 H   0  0  0  0  0  0  0  0  0  0  0  0
    1.3584   -4.6264    2.0732 H   0  0  0  0  0  0  0  0  0  0  0  0
   -0.1712   -4.3293    4.0643 H   0  0  0  0  0  0  0  0  0  0  0  0
   -1.4503   -2.1509    4.2793 H   0  0  0  0  0  0  0  0  0  0  0  0
   -2.0278    0.1911    3.2487 H   0  0  0  0  0  0  0  0  0  0  0  0
   -3.8762    3.6108    1.4924 H   0  0  0  0  0  0  0  0  0  0  0  0
   -2.5025    4.2786    2.4527 H   0  0  0  0  0  0  0  0  0  0  0  0
   -3.5231    5.3909    1.4410 H   0  0  0  0  0  0  0  0  0  0  0  0
  1 13  1  0  0  0  0
  2 13  1  0  0  0  0
  2 14  1  0  0  0  0
  3 11  1  0  0  0  0
  4 12  1  0  0  0  0
  5  4  1  0  0  0  0
  6  7  1  6  0  0  0
  6  3  1  0  0  0  0
  6  8  1  0  0  0  0
  7 16  1  0  0  0  0
  8  9  2  0  0  0  0
  9 10  1  0  0  0  0
  9 19  1  0  0  0  0
 10 20  1  0  0  0  0
 11 12  1  0  0  0  0
 11 10  2  0  0  0  0
 12 21  1  0  0  0  0
 13  5  2  0  0  0  0
 14 23  1  0  0  0  0
 15  7  1  0  0  0  0
 17  7  1  0  0  0  0
 18  8  1  0  0  0  0
 22 14  1  0  0  0  0
 24 14  1  0  0  0  0
M  END
