3,5,8
q = -1.0

 28 28  0  0  0  0  0  0  0  0999 V2000
   -2.7842   -3.9976    0.0602 N   0  0  0  0  0  0  0  0  0  0  0  0
   -2.3064   -2.8320   -0.1399 C   0  0  0  0  0  0  0  0  0  0  0  0
   -0.5959   -2.4446   -0.3982 S   0  0  0  0  0  1  0  0  0  0  0  0
   -3.2070   -1.7522   -0.2396 N   0  0  0  0  0  0  0  0  0  0  0  0
   -2.7245   -0.5134   -0.2665 N   0  0  0  0  0  2  0  0  0  0  0  0
   -3.4519    0.5750   -0.4244 C   0  0  0  0  0  0  0  0  0  0  0  0
   -2.6840    1.8205   -0.3097 C   0  0  0  0  0  0  0  0  0  0  0  0
   -1.3400    1.6619   -0.1296 N   0  0  0  0  0  2  0  0  0  0  0  0
   -0.5239    2.7067    0.0356 C   0  0  0  0  0  0  0  0  0  0  0  0
   -0.9909    4.0397    0.0109 C   0  0  0  0  0  0  0  0  0  0  0  0
   -2.3750    4.2179   -0.1853 C   0  0  0  0  0  0  0  0  0  0  0  0
   -3.2264    3.1167   -0.3418 C   0  0  0  0  0  0  0  0  0  0  0  0
   -0.0395    5.1891    0.1641 C   0  0  0  0  0  0  0  0  0  0  0  0
   -4.9248    0.5109   -0.6663 C   0  0  0  0  0  0  0  0  0  0  0  0
   -2.0012   -5.1802    0.2993 C   0  0  0  0  0  0  0  0  0  0  0  0
   -4.1994   -1.9351   -0.0478 H   0  0  0  0  0  0  0  0  0  0  0  0
    0.5374    2.4654    0.2107 H   0  0  0  0  0  0  0  0  0  0  0  0
   -2.7964    5.2347   -0.2050 H   0  0  0  0  0  0  0  0  0  0  0  0
   -4.3074    3.2659   -0.4676 H   0  0  0  0  0  0  0  0  0  0  0  0
   -0.5049    6.0271    0.7183 H   0  0  0  0  0  0  0  0  0  0  0  0
    0.8854    4.8853    0.6901 H   0  0  0  0  0  0  0  0  0  0  0  0
    0.2574    5.5822   -0.8319 H   0  0  0  0  0  0  0  0  0  0  0  0
   -5.1640   -0.2951   -1.3910 H   0  0  0  0  0  0  0  0  0  0  0  0
   -5.3133    1.4579   -1.0800 H   0  0  0  0  0  0  0  0  0  0  0  0
   -5.4826    0.3008    0.2730 H   0  0  0  0  0  0  0  0  0  0  0  0
   -1.0161   -4.9716    0.7738 H   0  0  0  0  0  0  0  0  0  0  0  0
   -1.8122   -5.7106   -0.6602 H   0  0  0  0  0  0  0  0  0  0  0  0
   -2.5842   -5.8771    0.9334 H   0  0  0  0  0  0  0  0  0  0  0  0
  1 15  1  0  0  0  0
  2  1  2  0  0  0  0
  3  2  1  0  0  0  0
  4  2  1  0  0  0  0
  4 16  1  0  0  0  0
  5  4  1  0  0  0  0
  6  7  2  0  0  0  0
  6  5  1  0  0  0  0
  7  8  1  0  0  0  0
  8  9  1  0  0  0  0
  9 17  1  0  0  0  0
 10  9  2  0  0  0  0
 10 13  1  0  0  0  0
 11 10  1  0  0  0  0
 12  7  1  0  0  0  0
 12 11  2  0  0  0  0
 13 21  1  0  0  0  0
 13 20  1  0  0  0  0
 14  6  1  0  0  0  0
 14 25  1  0  0  0  0
 15 26  1  0  0  0  0
 15 28  1  0  0  0  0
 18 11  1  0  0  0  0
 19 12  1  0  0  0  0
 22 13  1  0  0  0  0
 23 14  1  0  0  0  0
 24 14  1  0  0  0  0
 27 15  1  0  0  0  0
M  END
