1,2,3
q = 0.0, confidence = 1.0

 29 29  0  0  0  0  0  0  0  0999 V2000
    0.5644    1.6272    0.9471 N   0  0  0  0  0  0  0  0  0  0  0  0
    2.4182   -0.4866    0.1026 N   0  0  0  0  0  0  0  0  0  0  0  0
    0.3058    0.5794   -1.9930 S   0  0  0  0  0  0  0  0  0  0  0  0
    2.9511    0.0463   -1.1648 C   0  0  0  0  0  0  0  0  0  0  0  0
    1.9847   -0.0728   -2.3387 C   0  0  0  0  0  0  0  0  0  0  0  0
    0.6237    2.3227   -1.4830 C   0  0  0  0  0  0  0  0  0  0  0  0
    0.0883    2.5869   -0.0777 C   0  0  0  0  0  0  0  0  0  0  0  0
    2.0369    1.7305    1.1605 C   0  0  0  0  0  0  0  0  0  0  0  0
    2.7302    0.3738    1.2553 C   0  0  0  0  0  0  0  0  0  0  0  0
   -0.1571    1.8940    2.2144 C   0  0  0  0  0  0  0  0  0  0  0  0
    2.8668   -1.8687    0.3325 C   0  0  0  0  0  0  0  0  0  0  0  0
    3.9042   -0.4665   -1.4354 H   0  0  0  0  0  0  0  0  0  0  0  0
    3.2253    1.1120   -1.0301 H   0  0  0  0  0  0  0  0  0  0  0  0
    1.7545   -1.1329   -2.5697 H   0  0  0  0  0  0  0  0  0  0  0  0
    2.3966    0.4103   -3.2482 H   0  0  0  0  0  0  0  0  0  0  0  0
    1.7094    2.5250   -1.5706 H   0  0  0  0  0  0  0  0  0  0  0  0
    0.1122    2.9932   -2.2016 H   0  0  0  0  0  0  0  0  0  0  0  0
    0.3461    3.6333    0.2204 H   0  0  0  0  0  0  0  0  0  0  0  0
   -1.0155    2.5012   -0.0895 H   0  0  0  0  0  0  0  0  0  0  0  0
    2.2482    2.3108    2.0844 H   0  0  0  0  0  0  0  0  0  0  0  0
    2.4739    2.3240    0.3333 H   0  0  0  0  0  0  0  0  0  0  0  0
    2.3682   -0.1620    2.1555 H   0  0  0  0  0  0  0  0  0  0  0  0
    3.8316    0.5378    1.3713 H   0  0  0  0  0  0  0  0  0  0  0  0
    0.1730    1.1705    2.9807 H   0  0  0  0  0  0  0  0  0  0  0  0
    0.0262    2.9384    2.5588 H   0  0  0  0  0  0  0  0  0  0  0  0
   -1.2372    1.7294    2.0495 H   0  0  0  0  0  0  0  0  0  0  0  0
    2.3778   -2.2542    1.2475 H   0  0  0  0  0  0  0  0  0  0  0  0
    3.9769   -1.9260    0.4416 H   0  0  0  0  0  0  0  0  0  0  0  0
    2.5354   -2.5060   -0.5084 H   0  0  0  0  0  0  0  0  0  0  0  0
  1  8  1  0  0  0  0
  1 10  1  0  0  0  0
  2 11  1  0  0  0  0
  2  9  1  0  0  0  0
  3  6  1  0  0  0  0
  4 13  1  0  0  0  0
  4  2  1  0  0  0  0
  5  3  1  0  0  0  0
  5  4  1  0  0  0  0
  6  7  1  0  0  0  0
  7 18  1  0  0  0  0
  7  1  1  0  0  0  0
  8  9  1  0  0  0  0
  8 20  1  0  0  0  0
  9 23  1  0  0  0  0
  9 22  1  0  0  0  0
 10 25  1  0  0  0  0
 10 24  1  0  0  0  0
 11 28  1  0  0  0  0
 11 27  1  0  0  0  0
 12  4  1  0  0  0  0
 14  5  1  0  0  0  0
 15  5  1  0  0  0  0
 16  6  1  0  0  0  0
 17  6  1  0  0  0  0
 19  7  1  0  0  0  0
 21  8  1  0  0  0  0
 26 10  1  0  0  0  0
 29 11  1  0  0  0  0
M  END
