8,9,10
q = -1.0, confidence = 0.002

 32 33  0  0  0  0  0  0  0  0999 V2000
   -8.9766   -2.9848    0.3607 Cl  0  0  0  0  0  0  0  0  0  0  0  0
   -3.1160    1.7054    2.6454 C   0  0  0  0  0  0  0  0  0  0  0  0
   -3.3684    0.7034    3.0505 H   0  0  0  0  0  0  0  0  0  0  0  0
   -3.9543    1.9863    1.9741 H   0  0  0  0  0  0  0  0  0  0  0  0
   -3.0753    2.4255    3.4804 H   0  0  0  0  0  0  0  0  0  0  0  0
   -0.6444    2.4293    2.1575 C   0  0  0  0  0  0  0  0  0  0  0  0
   -3.0075   -2.2080   -1.8036 H   0  0  0  0  0  0  0  0  0  0  0  0
   -1.6812    0.8021    0.8616 N   0  0  0  0  0  2  0  0  0  0  0  0
    0.4174    2.1669    1.3255 N   0  0  0  0  0  2  0  0  0  0  0  0
   -0.8553   -0.7705   -1.3536 S   0  0  0  0  0  1  0  0  0  0  0  0
   -0.5173    3.3946    3.1782 C   0  0  0  0  0  0  0  0  0  0  0  0
   -1.3689    3.6043    3.8388 H   0  0  0  0  0  0  0  0  0  0  0  0
   -2.6981    0.0192    0.4971 N   0  0  0  0  0  0  0  0  0  0  0  0
   -5.3544   -2.8988   -1.3788 C   0  0  0  0  0  0  0  0  0  0  0  0
   -4.8424   -3.4165   -2.2058 H   0  0  0  0  0  0  0  0  0  0  0  0
    0.6952    4.0712    3.3411 C   0  0  0  0  0  0  0  0  0  0  0  0
    0.8047    4.8233    4.1361 H   0  0  0  0  0  0  0  0  0  0  0  0
   -3.3404   -1.6416   -1.0188 N   0  0  0  0  0  0  0  0  0  0  0  0
   -6.6757   -3.2340   -1.0777 C   0  0  0  0  0  0  0  0  0  0  0  0
   -7.2027   -4.0048   -1.6565 H   0  0  0  0  0  0  0  0  0  0  0  0
    1.7687    3.7753    2.4860 C   0  0  0  0  0  0  0  0  0  0  0  0
    2.7412    4.2764    2.5864 H   0  0  0  0  0  0  0  0  0  0  0  0
   -7.3333   -2.5765   -0.0227 C   0  0  0  0  0  0  0  0  0  0  0  0
    1.5847    2.8112    1.4879 C   0  0  0  0  0  0  0  0  0  0  0  0
    2.3980    2.5316    0.8027 H   0  0  0  0  0  0  0  0  0  0  0  0
   -6.6629   -1.5909    0.7215 C   0  0  0  0  0  0  0  0  0  0  0  0
   -7.1872   -1.0859    1.5448 H   0  0  0  0  0  0  0  0  0  0  0  0
   -1.8333    1.6407    1.8860 C   0  0  0  0  0  0  0  0  0  0  0  0
   -5.3386   -1.2541    0.4207 C   0  0  0  0  0  0  0  0  0  0  0  0
   -4.8110   -0.4886    0.9995 H   0  0  0  0  0  0  0  0  0  0  0  0
   -2.4097   -0.7750   -0.5416 C   0  0  0  0  0  0  0  0  0  0  0  0
   -4.6707   -1.9081   -0.6370 C   0  0  0  0  0  0  0  0  0  0  0  0
  2  3  1  0  0  0  0
  2  5  1  0  0  0  0
  4  2  1  0  0  0  0
  6 11  1  0  0  0  0
  7 18  1  0  0  0  0
  8 28  1  0  0  0  0
  9 24  1  0  0  0  0
  9  6  1  0  0  0  0
 10 31  1  0  0  0  0
 11 16  2  0  0  0  0
 11 12  1  0  0  0  0
 13  8  1  0  0  0  0
 14 19  2  0  0  0  0
 14 32  1  0  0  0  0
 15 14  1  0  0  0  0
 16 17  1  0  0  0  0
 18 32  1  0  0  0  0
 18 31  1  0  0  0  0
 19 23  1  0  0  0  0
 20 19  1  0  0  0  0
 21 22  1  0  0  0  0
 21 16  1  0  0  0  0
 23  1  1  0  0  0  0
 23 26  2  0  0  0  0
 24 21  2  0  0  0  0
 25 24  1  0  0  0  0
 26 27  1  0  0  0  0
 28  6  2  0  0  0  0
 28  2  1  0  0  0  0
 29 26  1  0  0  0  0
 29 30  1  0  0  0  0
 31 13  2  0  0  0  0
 32 29  2  0  0  0  0
M  END
