1,2,3
q = -1.0, confidence = 0.02

 41 43  0  0  1  0  0  0  0  0999 V2000
   -1.0460   -1.0493    1.8789 S   0  0  0  0  0  1  0  0  0  0  0  0
    0.7399    1.7066   -0.7843 N   0  0  0  0  0  2  0  0  0  0  0  0
    1.7555   -1.4639   -0.1528 N   0  0  0  0  0  2  0  0  0  0  0  0
   -0.5641   -0.5822   -1.4794 N   0  0  0  0  0  0  0  0  0  0  0  0
   -0.0523    1.7839   -1.8730 C   0  0  2  0  0  3  0  0  0  0  0  0
    0.0380    2.8688   -2.7612 C   0  0  0  0  0  0  0  0  0  0  0  0
   -0.6160    2.9059   -3.6451 H   0  0  0  0  0  0  0  0  0  0  0  0
    0.9658    3.8853   -2.5014 C   0  0  0  0  0  0  0  0  0  0  0  0
    1.0495    4.7475   -3.1803 H   0  0  0  0  0  0  0  0  0  0  0  0
    1.7967    3.7800   -1.3757 C   0  0  0  0  0  0  0  0  0  0  0  0
    2.5515    4.5448   -1.1450 H   0  0  0  0  0  0  0  0  0  0  0  0
    1.6518    2.6667   -0.5414 C   0  0  0  0  0  0  0  0  0  0  0  0
    2.2914    2.5015    0.3390 H   0  0  0  0  0  0  0  0  0  0  0  0
    1.4497   -2.0112   -1.3461 C   0  0  2  0  0  3  0  0  0  0  0  0
    1.9974   -3.2390   -1.7480 C   0  0  0  0  0  0  0  0  0  0  0  0
    1.7215   -3.6715   -2.7213 H   0  0  0  0  0  0  0  0  0  0  0  0
    2.8906   -3.8956   -0.8889 C   0  0  0  0  0  0  0  0  0  0  0  0
    3.3310   -4.8614   -1.1792 H   0  0  0  0  0  0  0  0  0  0  0  0
    3.2069   -3.3094    0.3453 C   0  0  0  0  0  0  0  0  0  0  0  0
    3.9013   -3.7923    1.0475 H   0  0  0  0  0  0  0  0  0  0  0  0
    2.6081   -2.0880    0.6798 C   0  0  0  0  0  0  0  0  0  0  0  0
    2.8022   -1.5659    1.6315 H   0  0  0  0  0  0  0  0  0  0  0  0
   -2.7496   -1.0089   -0.3546 C   0  0  0  0  0  0  0  0  0  0  0  0
   -4.0050   -0.7787   -0.9531 C   0  0  0  0  0  0  0  0  0  0  0  0
   -4.1340   -1.0181   -2.0221 H   0  0  0  0  0  0  0  0  0  0  0  0
   -5.0840   -0.2698   -0.2180 C   0  0  0  0  0  0  0  0  0  0  0  0
   -6.0573   -0.1015   -0.7023 H   0  0  0  0  0  0  0  0  0  0  0  0
   -4.9020    0.0157    1.1465 C   0  0  0  0  0  0  0  0  0  0  0  0
   -5.7368    0.4166    1.7425 H   0  0  0  0  0  0  0  0  0  0  0  0
   -3.6618   -0.2028    1.7568 C   0  0  0  0  0  0  0  0  0  0  0  0
   -3.5139    0.0244    2.8229 H   0  0  0  0  0  0  0  0  0  0  0  0
   -2.5595   -0.7140    1.0282 C   0  0  0  0  0  0  0  0  0  0  0  0
   -1.0470    0.6591   -2.0659 C   0  0  0  0  0  0  0  0  0  0  0  0
   -1.9902    0.9255   -1.5397 H   0  0  0  0  0  0  0  0  0  0  0  0
   -1.3069    0.5679   -3.1499 H   0  0  0  0  0  0  0  0  0  0  0  0
    0.5352   -1.1855   -2.2286 C   0  0  0  0  0  0  0  0  0  0  0  0
    1.1489   -0.3691   -2.6678 H   0  0  0  0  0  0  0  0  0  0  0  0
    0.1673   -1.8048   -3.0828 H   0  0  0  0  0  0  0  0  0  0  0  0
   -1.6193   -1.5742   -1.1664 C   0  0  0  0  0  0  0  0  0  0  0  0
   -1.1222   -2.3738   -0.5734 H   0  0  0  0  0  0  0  0  0  0  0  0
   -2.0105   -2.0197   -2.1143 H   0  0  0  0  0  0  0  0  0  0  0  0
  2 12  1  0  0  0  0
  3 21  1  0  0  0  0
  4 39  1  0  0  0  0
  5 33  1  1  0  0  0
  5  2  1  0  0  0  0
  6  8  2  0  0  0  0
  6  5  1  0  0  0  0
  7  6  1  0  0  0  0
  8 10  1  0  0  0  0
  9  8  1  0  0  0  0
 10 11  1  0  0  0  0
 10 12  2  0  0  0  0
 12 13  1  0  0  0  0
 14 36  1  6  0  0  0
 14  3  1  0  0  0  0
 15 14  1  0  0  0  0
 15 17  2  0  0  0  0
 16 15  1  0  0  0  0
 17 19  1  0  0  0  0
 18 17  1  0  0  0  0
 19 21  2  0  0  0  0
 19 20  1  0  0  0  0
 21 22  1  0  0  0  0
 23 32  1  0  0  0  0
 24 23  2  0  0  0  0
 24 26  1  0  0  0  0
 25 24  1  0  0  0  0
 26 28  2  0  0  0  0
 27 26  1  0  0  0  0
 28 29  1  0  0  0  0
 28 30  1  0  0  0  0
 30 31  1  0  0  0  0
 32 30  2  0  0  0  0
 32  1  1  0  0  0  0
 33 34  1  0  0  0  0
 33  4  1  0  0  0  0
 35 33  1  0  0  0  0
 36  4  1  0  0  0  0
 37 36  1  0  0  0  0
 38 36  1  0  0  0  0
 39 40  1  0  0  0  0
 39 23  1  0  0  0  0
 41 39  1  0  0  0  0
M  END
