1,2,5
q = -1.0, confidence = 0.0

 29 29  0  0  0  0  0  0  0  0999 V2000
    1.3767   -0.9408    1.2480 S   0  0  0  0  0  1  0  0  0  0  0  0
    2.1706    1.2542   -0.6953 N   0  0  0  0  0  2  0  0  0  0  0  0
    4.3963   -3.3679    0.2217 C   0  0  0  0  0  0  0  0  0  0  0  0
    4.7198   -4.3714    0.5387 H   0  0  0  0  0  0  0  0  0  0  0  0
   -0.1271    2.6642   -0.3261 N   0  0  0  0  0  0  0  0  0  0  0  0
    3.2642   -2.8005    0.7970 C   0  0  0  0  0  0  0  0  0  0  0  0
    2.6948   -3.3502    1.5621 H   0  0  0  0  0  0  0  0  0  0  0  0
    5.1320   -2.6663   -0.7646 C   0  0  0  0  0  0  0  0  0  0  0  0
    6.0264   -3.1165   -1.2190 H   0  0  0  0  0  0  0  0  0  0  0  0
    2.8021   -1.5072    0.4198 C   0  0  0  0  0  0  0  0  0  0  0  0
    4.7077   -1.4020   -1.1467 C   0  0  0  0  0  3  0  0  0  0  0  0
    5.2688   -0.8378   -1.9094 H   0  0  0  0  0  0  0  0  0  0  0  0
    3.2140    0.5223   -1.0261 C   0  0  0  0  0  0  0  0  0  0  0  0
    3.9360    0.9747   -1.7363 H   0  0  0  0  0  0  0  0  0  0  0  0
    3.5490   -0.7940   -0.5753 C   0  0  0  0  0  0  0  0  0  0  0  0
    2.1406    2.6186   -1.2353 C   0  0  0  0  0  0  0  0  0  0  0  0
    2.7532    2.7079   -2.1589 H   0  0  0  0  0  0  0  0  0  0  0  0
    2.5789    3.3201   -0.4906 H   0  0  0  0  0  0  0  0  0  0  0  0
   -1.5508    2.5826   -0.7074 C   0  0  0  0  0  0  0  0  0  0  0  0
   -1.7001    1.7553   -1.4256 H   0  0  0  0  0  0  0  0  0  0  0  0
   -1.8823    3.5425   -1.1658 H   0  0  0  0  0  0  0  0  0  0  0  0
   -2.1512    2.3671    0.1936 H   0  0  0  0  0  0  0  0  0  0  0  0
    0.6954    2.9725   -1.5184 C   0  0  0  0  0  0  0  0  0  0  0  0
    0.5788    4.0396   -1.8192 H   0  0  0  0  0  0  0  0  0  0  0  0
    0.3217    2.3398   -2.3481 H   0  0  0  0  0  0  0  0  0  0  0  0
    0.0414    3.6711    0.7415 C   0  0  0  0  0  0  0  0  0  0  0  0
   -0.5527    3.3423    1.6155 H   0  0  0  0  0  0  0  0  0  0  0  0
   -0.3084    4.6733    0.4001 H   0  0  0  0  0  0  0  0  0  0  0  0
    1.1025    3.7418    1.0445 H   0  0  0  0  0  0  0  0  0  0  0  0
  3  4  1  0  0  0  0
  3  6  1  0  0  0  0
  5 26  1  0  0  0  0
  6  7  1  0  0  0  0
  8  3  2  0  0  0  0
  9  8  1  0  0  0  0
 10  6  2  0  0  0  0
 10  1  1  0  0  0  0
 11  8  1  0  0  0  0
 11 15  1  0  0  0  0
 12 11  1  0  0  0  0
 13  2  1  0  0  0  0
 13 15  2  0  0  0  0
 14 13  1  0  0  0  0
 15 10  1  0  0  0  0
 16  2  1  0  0  0  0
 16 18  1  0  0  0  0
 17 16  1  0  0  0  0
 19  5  1  0  0  0  0
 19 22  1  0  0  0  0
 20 19  1  0  0  0  0
 21 19  1  0  0  0  0
 23 16  1  0  0  0  0
 23  5  1  0  0  0  0
 24 23  1  0  0  0  0
 25 23  1  0  0  0  0
 26 29  1  0  0  0  0
 26 27  1  0  0  0  0
 28 26  1  0  0  0  0
M  END
