1,3,4
q = -1.0

 24 24  0  0  1  0  0  0  0  0999 V2000
   -1.8061   -1.5054   -0.8115 S   0  0  0  0  0  1  0  0  0  0  0  0
   -4.4061   -0.3517   -0.0680 S   0  0  0  0  0  0  0  0  0  0  0  0
    1.7447    0.9840   -0.4278 N   0  0  0  0  0  2  0  0  0  0  0  0
   -0.8346    1.1296   -0.1631 N   0  0  0  0  0  2  0  0  0  0  0  0
   -2.1623    1.0727    0.0050 N   0  0  0  0  0  0  0  0  0  0  0  0
    3.0624    0.7597   -0.5375 C   0  0  0  0  0  3  0  0  0  0  0  0
    3.3678   -0.2281   -0.9217 H   0  0  0  0  0  0  0  0  0  0  0  0
    3.9979    1.7271   -0.1433 C   0  0  0  0  0  0  0  0  0  0  0  0
    5.0714    1.5152   -0.2403 H   0  0  0  0  0  0  0  0  0  0  0  0
    3.5295    2.9439    0.3736 C   0  0  0  0  0  0  0  0  0  0  0  0
    4.2375    3.7232    0.6923 H   0  0  0  0  0  0  0  0  0  0  0  0
    2.1512    3.1589    0.4944 C   0  0  0  0  0  0  0  0  0  0  0  0
    1.7617    4.0955    0.9144 H   0  0  0  0  0  0  0  0  0  0  0  0
    1.2594    2.1472    0.0858 C   0  0  0  0  0  0  0  0  0  0  0  0
   -0.1925    2.2221    0.2140 C   0  0  2  0  0  3  0  0  0  0  0  0
   -0.8754    3.4116    0.8068 C   0  0  0  0  0  0  0  0  0  0  0  0
   -1.9635    3.3352    0.6398 H   0  0  0  0  0  0  0  0  0  0  0  0
   -0.4952    4.3544    0.3661 H   0  0  0  0  0  0  0  0  0  0  0  0
   -0.6959    3.4552    1.9026 H   0  0  0  0  0  0  0  0  0  0  0  0
   -2.6848   -0.1118   -0.2673 C   0  0  0  0  0  0  0  0  0  0  0  0
   -4.9368    1.2648    0.5729 C   0  0  0  0  0  0  0  0  0  0  0  0
   -6.0258    1.1708    0.7450 H   0  0  0  0  0  0  0  0  0  0  0  0
   -4.7342    2.0615   -0.1663 H   0  0  0  0  0  0  0  0  0  0  0  0
   -4.4171    1.4910    1.5221 H   0  0  0  0  0  0  0  0  0  0  0  0
  1 20  1  0  0  0  0
  2 21  1  0  0  0  0
  3 14  1  0  0  0  0
  4  5  1  0  0  0  0
  6  3  1  0  0  0  0
  6  8  1  0  0  0  0
  7  6  1  0  0  0  0
  8 10  2  0  0  0  0
  9  8  1  0  0  0  0
 10 12  1  0  0  0  0
 10 11  1  0  0  0  0
 12 13  1  0  0  0  0
 14 15  1  0  0  0  0
 14 12  2  0  0  0  0
 15  4  1  1  0  0  0
 15 16  1  0  0  0  0
 16 19  1  0  0  0  0
 17 16  1  0  0  0  0
 18 16  1  0  0  0  0
 20  2  1  0  0  0  0
 20  5  2  0  0  0  0
 21 22  1  0  0  0  0
 21 24  1  0  0  0  0
 23 21  1  0  0  0  0
M  END
