1,2,3
q = -1.0

 33 34  0  0  1  0  0  0  0  0999 V2000
    1.1186   -1.7671   -0.4647 S   0  0  0  0  0  1  0  0  0  0  0  0
   -2.8936   -0.1561    0.0255 N   0  0  0  0  0  2  0  0  0  0  0  0
   -0.4343    0.6309   -0.1706 N   0  0  0  0  0  2  0  0  0  0  0  0
    0.8534    0.9486   -0.2548 N   0  0  0  0  0  2  0  0  0  0  0  0
    3.0032    0.1556   -0.4617 N   0  0  0  0  0  0  0  0  0  0  0  0
    5.6162    0.6793    0.4913 O   0  0  0  0  0  0  0  0  0  0  0  0
   -4.1299   -0.6780    0.0603 C   0  0  0  0  0  3  0  0  0  0  0  0
   -5.2751    0.1277    0.0789 C   0  0  0  0  0  0  0  0  0  0  0  0
   -5.1071    1.5218    0.0506 C   0  0  0  0  0  0  0  0  0  0  0  0
   -3.8191    2.0624   -0.0022 C   0  0  0  0  0  0  0  0  0  0  0  0
   -2.7022    1.1960   -0.0170 C   0  0  0  0  0  0  0  0  0  0  0  0
   -1.3124    1.6244   -0.0965 C   0  0  2  0  0  3  0  0  0  0  0  0
   -0.8652    3.0507   -0.1126 C   0  0  0  0  0  0  0  0  0  0  0  0
    1.6715   -0.1186   -0.3718 C   0  0  2  0  0  3  0  0  0  0  0  0
    4.0376   -0.8677   -0.5486 C   0  0  0  0  0  0  0  0  0  0  0  0
    5.0826   -0.6331    0.5471 C   0  0  0  0  0  0  0  0  0  0  0  0
    4.5922    1.6470    0.6458 C   0  0  0  0  0  0  0  0  0  0  0  0
    3.5273    1.5215   -0.4468 C   0  0  0  0  0  0  0  0  0  0  0  0
    3.9861    1.7394   -1.4379 H   0  0  0  0  0  0  0  0  0  0  0  0
   -6.2712   -0.3341    0.1131 H   0  0  0  0  0  0  0  0  0  0  0  0
    5.0764    2.6428    0.5947 H   0  0  0  0  0  0  0  0  0  0  0  0
   -3.6716    3.1496   -0.0383 H   0  0  0  0  0  0  0  0  0  0  0  0
    2.6846    2.2154   -0.2799 H   0  0  0  0  0  0  0  0  0  0  0  0
    4.6109   -0.8234    1.5430 H   0  0  0  0  0  0  0  0  0  0  0  0
    3.5692   -1.8650   -0.4445 H   0  0  0  0  0  0  0  0  0  0  0  0
   -0.2799    3.2548   -1.0333 H   0  0  0  0  0  0  0  0  0  0  0  0
   -4.1761   -1.7777    0.0694 H   0  0  0  0  0  0  0  0  0  0  0  0
    5.9308   -1.3350    0.4213 H   0  0  0  0  0  0  0  0  0  0  0  0
    4.1020    1.5436    1.6459 H   0  0  0  0  0  0  0  0  0  0  0  0
   -5.9819    2.1893    0.0642 H   0  0  0  0  0  0  0  0  0  0  0  0
    4.5241   -0.8091   -1.5485 H   0  0  0  0  0  0  0  0  0  0  0  0
   -0.1698    3.2360    0.7324 H   0  0  0  0  0  0  0  0  0  0  0  0
   -1.7033    3.7661   -0.0503 H   0  0  0  0  0  0  0  0  0  0  0  0
  2  7  1  0  0  0  0
  4  3  1  0  0  0  0
  5 18  1  0  0  0  0
  5 14  1  0  0  0  0
  6 16  1  0  0  0  0
  6 17  1  0  0  0  0
  7 27  1  0  0  0  0
  7  8  1  0  0  0  0
  8 20  1  0  0  0  0
  9 30  1  0  0  0  0
  9  8  2  0  0  0  0
 10  9  1  0  0  0  0
 11 10  2  0  0  0  0
 11  2  1  0  0  0  0
 12  3  1  6  0  0  0
 12 11  1  0  0  0  0
 13 12  1  0  0  0  0
 13 33  1  0  0  0  0
 13 32  1  0  0  0  0
 14  1  1  6  0  0  0
 14  4  1  0  0  0  0
 15  5  1  0  0  0  0
 15 25  1  0  0  0  0
 15 16  1  0  0  0  0
 16 24  1  0  0  0  0
 17 29  1  0  0  0  0
 18 23  1  0  0  0  0
 18 17  1  0  0  0  0
 19 18  1  0  0  0  0
 21 17  1  0  0  0  0
 22 10  1  0  0  0  0
 26 13  1  0  0  0  0
 28 16  1  0  0  0  0
 31 15  1  0  0  0  0
M  END
