1,5,6
q = -1.0, confidence = 0.004

 50 51  0  0  1  0  0  0  0  0999 V2000
   -0.0699   -2.5310    0.7995 S   0  0  0  0  0  0  0  0  0  0  0  0
    0.9929    2.1202    1.7245 O   0  0  0  0  0  0  0  0  0  0  0  0
    3.9800   -0.8920   -0.6124 O   0  0  0  0  0  0  0  0  0  0  0  0
    4.9862    1.1595   -0.2474 O   0  0  0  0  0  0  0  0  0  0  0  0
   -2.7301    0.4876   -0.8622 N   0  0  0  0  0  2  0  0  0  0  0  0
   -0.6686    0.8127    0.7687 N   0  0  0  0  0  2  0  0  0  0  0  0
    2.9133    0.8086    0.4905 N   0  0  0  0  0  0  0  0  0  0  0  0
    2.9643    1.7422    0.9105 H   0  0  0  0  0  0  0  0  0  0  0  0
   -3.6659    0.2718   -1.7937 C   0  0  0  0  0  0  0  0  0  0  0  0
   -3.6121   -0.7020   -2.3049 H   0  0  0  0  0  0  0  0  0  0  0  0
   -4.6749    1.2257   -2.0539 C   0  0  0  0  0  0  0  0  0  0  0  0
   -5.4250    1.0071   -2.8267 H   0  0  0  0  0  0  0  0  0  0  0  0
   -4.7099    2.4052   -1.3239 C   0  0  0  0  0  0  0  0  0  0  0  0
   -5.4971    3.1547   -1.4990 H   0  0  0  0  0  0  0  0  0  0  0  0
   -3.7174    2.6616   -0.3368 C   0  0  0  0  0  0  0  0  0  0  0  0
   -3.6606    3.8419    0.4548 C   0  0  0  0  0  0  0  0  0  0  0  0
   -4.4324    4.6147    0.3254 H   0  0  0  0  0  0  0  0  0  0  0  0
   -2.6317    3.9933    1.3755 C   0  0  0  0  0  0  0  0  0  0  0  0
   -2.5874    4.9022    1.9949 H   0  0  0  0  0  0  0  0  0  0  0  0
   -1.6176    3.0184    1.5454 C   0  0  0  0  0  0  0  0  0  0  0  0
   -0.7985    3.1830    2.2514 H   0  0  0  0  0  0  0  0  0  0  0  0
   -1.6317    1.8366    0.7858 C   0  0  0  0  0  0  0  0  0  0  0  0
   -2.7118    1.6594   -0.1404 C   0  0  2  0  0  3  0  0  0  0  0  0
    0.6280    1.0905    1.1371 C   0  0  0  0  0  0  0  0  0  0  0  0
    1.7072    0.0583    0.7562 C   0  0  2  0  0  0  0  0  0  0  0  0
    1.4199   -0.4851   -0.1692 H   0  0  0  0  0  0  0  0  0  0  0  0
    1.9384   -0.9674    1.8893 C   0  0  0  0  0  0  0  0  0  0  0  0
    2.7452   -1.6472    1.5476 H   0  0  0  0  0  0  0  0  0  0  0  0
    2.3059   -0.4189    2.7822 H   0  0  0  0  0  0  0  0  0  0  0  0
    0.7019   -1.7621    2.2828 C   0  0  0  0  0  0  0  0  0  0  0  0
   -0.0712   -1.1345    2.7707 H   0  0  0  0  0  0  0  0  0  0  0  0
    0.9620   -2.5998    2.9609 H   0  0  0  0  0  0  0  0  0  0  0  0
   -1.2818   -3.6051    1.6415 C   0  0  0  0  0  0  0  0  0  0  0  0
   -0.7280   -4.4172    2.1506 H   0  0  0  0  0  0  0  0  0  0  0  0
   -1.9303   -4.0011    0.8387 H   0  0  0  0  0  0  0  0  0  0  0  0
   -1.8822   -3.0153    2.3589 H   0  0  0  0  0  0  0  0  0  0  0  0
    3.9725    0.2536   -0.1675 C   0  0  0  0  0  0  0  0  0  0  0  0
    6.2429    0.8126   -0.9214 C   0  0  0  0  0  0  0  0  0  0  0  0
    6.9202   -0.3592   -0.2004 C   0  0  0  0  0  0  0  0  0  0  0  0
    6.3091   -1.2758   -0.2869 H   0  0  0  0  0  0  0  0  0  0  0  0
    7.0609   -0.1195    0.8728 H   0  0  0  0  0  0  0  0  0  0  0  0
    7.9179   -0.5480   -0.6449 H   0  0  0  0  0  0  0  0  0  0  0  0
    7.0707    2.0918   -0.7749 C   0  0  0  0  0  0  0  0  0  0  0  0
    7.2221    2.3369    0.2949 H   0  0  0  0  0  0  0  0  0  0  0  0
    6.5552    2.9453   -1.2574 H   0  0  0  0  0  0  0  0  0  0  0  0
    8.0624    1.9631   -1.2513 H   0  0  0  0  0  0  0  0  0  0  0  0
    5.9772    0.5021   -2.3992 C   0  0  0  0  0  0  0  0  0  0  0  0
    5.3546   -0.4053   -2.5011 H   0  0  0  0  0  0  0  0  0  0  0  0
    6.9377    0.3420   -2.9285 H   0  0  0  0  0  0  0  0  0  0  0  0
    5.4545    1.3522   -2.8815 H   0  0  0  0  0  0  0  0  0  0  0  0
  1 33  1  0  0  0  0
  1 30  1  0  0  0  0
  3 37  2  0  0  0  0
  4 37  1  0  0  0  0
  6 22  1  0  0  0  0
  6 24  1  0  0  0  0
  7 25  1  0  0  0  0
  7  8  1  0  0  0  0
  9  5  1  0  0  0  0
 10  9  1  0  0  0  0
 11  9  2  0  0  0  0
 11 13  1  0  0  0  0
 12 11  1  0  0  0  0
 13 15  2  0  0  0  0
 14 13  1  0  0  0  0
 15 23  1  0  0  0  0
 15 16  1  0  0  0  0
 16 18  2  0  0  0  0
 17 16  1  0  0  0  0
 18 20  1  0  0  0  0
 18 19  1  0  0  0  0
 20 21  1  0  0  0  0
 22 20  2  0  0  0  0
 23  5  1  6  0  0  0
 23 22  1  0  0  0  0
 24  2  2  0  0  0  0
 25 26  1  6  0  0  0
 25 24  1  0  0  0  0
 25 27  1  0  0  0  0
 27 30  1  0  0  0  0
 27 29  1  0  0  0  0
 28 27  1  0  0  0  0
 30 31  1  0  0  0  0
 30 32  1  0  0  0  0
 33 34  1  0  0  0  0
 33 36  1  0  0  0  0
 35 33  1  0  0  0  0
 37  7  1  0  0  0  0
 38 43  1  0  0  0  0
 38  4  1  0  0  0  0
 38 39  1  0  0  0  0
 39 41  1  0  0  0  0
 40 39  1  0  0  0  0
 42 39  1  0  0  0  0
 43 44  1  0  0  0  0
 45 43  1  0  0  0  0
 46 43  1  0  0  0  0
 47 38  1  0  0  0  0
 48 47  1  0  0  0  0
 49 47  1  0  0  0  0
 50 47  1  0  0  0  0
M  END
