2,4,5
q = -1.0, confidence = 0.02

 41 43  0  0  0  0  0  0  0  0999 V2000
    4.4469   -1.6994   -1.2029 S   0  0  0  0  0  0  0  0  0  0  0  0
    1.5395   -1.9804   -1.3871 S   0  0  0  0  0  1  0  0  0  0  0  0
    2.8538    0.2623   -0.4340 N   0  0  0  0  0  0  0  0  0  0  0  0
    1.6467    0.8094   -0.2784 N   0  0  0  0  0  2  0  0  0  0  0  0
   -0.8529    1.6353    0.1873 N   0  0  0  0  0  2  0  0  0  0  0  0
    7.4289   -1.4941    0.5395 C   0  0  0  0  0  0  0  0  0  0  0  0
    6.7382   -1.5560    1.3952 H   0  0  0  0  0  0  0  0  0  0  0  0
    8.7211   -2.0277    0.6383 C   0  0  0  0  0  0  0  0  0  0  0  0
    9.0469   -2.5032    1.5761 H   0  0  0  0  0  0  0  0  0  0  0  0
    9.5992   -1.9558   -0.4559 C   0  0  0  0  0  0  0  0  0  0  0  0
   10.6143   -2.3742   -0.3786 H   0  0  0  0  0  0  0  0  0  0  0  0
    9.1754   -1.3486   -1.6481 C   0  0  0  0  0  0  0  0  0  0  0  0
    9.8571   -1.2901   -2.5104 H   0  0  0  0  0  0  0  0  0  0  0  0
    7.8814   -0.8153   -1.7448 C   0  0  0  0  0  0  0  0  0  0  0  0
    7.5487   -0.3422   -2.6823 H   0  0  0  0  0  0  0  0  0  0  0  0
    6.9946   -0.8744   -0.6509 C   0  0  0  0  0  0  0  0  0  0  0  0
    5.6005   -0.3210   -0.7573 C   0  0  0  0  0  0  0  0  0  0  0  0
    5.5239    0.4589   -1.5396 H   0  0  0  0  0  0  0  0  0  0  0  0
    5.2365    0.1153    0.1922 H   0  0  0  0  0  0  0  0  0  0  0  0
    2.8579   -0.9778   -0.9527 C   0  0  0  0  0  0  0  0  0  0  0  0
    1.5341    1.9825    0.3221 C   0  0  0  0  0  0  0  0  0  0  0  0
    2.6984    2.7380    0.8491 C   0  0  0  0  0  0  0  0  0  0  0  0
    2.7187    3.1651    2.1957 C   0  0  0  0  0  0  0  0  0  0  0  0
    1.8580    2.9441    2.8456 H   0  0  0  0  0  0  0  0  0  0  0  0
    3.8306    3.8452    2.7140 C   0  0  0  0  0  0  0  0  0  0  0  0
    3.8341    4.1633    3.7677 H   0  0  0  0  0  0  0  0  0  0  0  0
    4.9366    4.1134    1.8928 C   0  0  0  0  0  0  0  0  0  0  0  0
    5.8097    4.6471    2.2980 H   0  0  0  0  0  0  0  0  0  0  0  0
    4.9255    3.6950    0.5514 C   0  0  0  0  0  0  0  0  0  0  0  0
    5.7900    3.9028   -0.0973 H   0  0  0  0  0  0  0  0  0  0  0  0
    3.8204    3.0078    0.0338 C   0  0  0  0  0  0  0  0  0  0  0  0
    3.8157    2.6714   -1.0116 H   0  0  0  0  0  0  0  0  0  0  0  0
    0.1590    2.4963    0.4712 C   0  0  0  0  0  0  0  0  0  0  0  0
   -0.1158    3.8287    0.8591 C   0  0  0  0  0  0  0  0  0  0  0  0
    0.7133    4.5219    1.0549 H   0  0  0  0  0  0  0  0  0  0  0  0
   -1.4463    4.2475    0.9663 C   0  0  0  0  0  0  0  0  0  0  0  0
   -1.6752    5.2826    1.2624 H   0  0  0  0  0  0  0  0  0  0  0  0
   -2.4782    3.3411    0.6803 C   0  0  0  0  0  0  0  0  0  0  0  0
   -3.5396    3.6171    0.7452 H   0  0  0  0  0  0  0  0  0  0  0  0
   -2.1251    2.0431    0.2824 C   0  0  0  0  0  0  0  0  0  0  0  0
   -2.9027    1.3040    0.0266 H   0  0  0  0  0  0  0  0  0  0  0  0
  1 20  1  0  0  0  0
  1 17  1  0  0  0  0
  2 20  1  0  0  0  0
  3  4  1  0  0  0  0
  4 21  1  0  0  0  0
  5 40  1  0  0  0  0
  5 33  1  0  0  0  0
  6  8  1  0  0  0  0
  6  7  1  0  0  0  0
  8  9  1  0  0  0  0
 10 11  1  0  0  0  0
 10  8  2  0  0  0  0
 12 10  1  0  0  0  0
 13 12  1  0  0  0  0
 14 12  2  0  0  0  0
 14 16  1  0  0  0  0
 15 14  1  0  0  0  0
 16  6  2  0  0  0  0
 17 16  1  0  0  0  0
 17 19  1  0  0  0  0
 18 17  1  0  0  0  0
 20  3  2  0  0  0  0
 21 33  2  0  0  0  0
 21 22  1  0  0  0  0
 22 23  1  0  0  0  0
 23 25  2  0  0  0  0
 23 24  1  0  0  0  0
 25 26  1  0  0  0  0
 27 28  1  0  0  0  0
 27 25  1  0  0  0  0
 29 27  2  0  0  0  0
 30 29  1  0  0  0  0
 31 29  1  0  0  0  0
 31 22  2  0  0  0  0
 32 31  1  0  0  0  0
 33 34  1  0  0  0  0
 34 36  2  0  0  0  0
 34 35  1  0  0  0  0
 36 37  1  0  0  0  0
 38 39  1  0  0  0  0
 38 36  1  0  0  0  0
 40 38  2  0  0  0  0
 41 40  1  0  0  0  0
M  END
