2,4,5
q = -1.0, confidence = 0.014

 41 43  0  0  1  0  0  0  0  0999 V2000
   -4.0102    0.0866   -3.4563 S   0  0  0  0  0  0  0  0  0  0  0  0
   -1.1496    0.1963   -2.8528 S   0  0  0  0  0  1  0  0  0  0  0  0
   -3.0664   -0.9328   -1.2068 N   0  0  0  0  0  2  0  0  0  0  0  0
   -2.0768   -1.1482   -0.3389 N   0  0  0  0  0  2  0  0  0  0  0  0
   -0.0605   -1.1845    1.4048 N   0  0  0  0  0  2  0  0  0  0  0  0
   -5.8126    2.1369   -1.6170 C   0  0  0  0  0  0  0  0  0  0  0  0
   -5.6708    2.4893   -2.6506 H   0  0  0  0  0  0  0  0  0  0  0  0
   -6.0414    3.0598   -0.5866 C   0  0  0  0  0  0  0  0  0  0  0  0
   -6.1024    4.1341   -0.8200 H   0  0  0  0  0  0  0  0  0  0  0  0
   -6.1901    2.6165    0.7395 C   0  0  0  0  0  0  0  0  0  0  0  0
   -6.3690    3.3407    1.5493 H   0  0  0  0  0  0  0  0  0  0  0  0
   -6.1079    1.2441    1.0228 C   0  0  0  0  0  0  0  0  0  0  0  0
   -6.2136    0.8815    2.0568 H   0  0  0  0  0  0  0  0  0  0  0  0
   -5.8881    0.3213   -0.0116 C   0  0  0  0  0  0  0  0  0  0  0  0
   -5.8213   -0.7518    0.2137 H   0  0  0  0  0  0  0  0  0  0  0  0
   -5.7420    0.7555   -1.3434 C   0  0  0  0  0  0  0  0  0  0  0  0
   -5.5168   -0.2473   -2.4493 C   0  0  0  0  0  0  0  0  0  0  0  0
   -6.3308   -0.2047   -3.2032 H   0  0  0  0  0  0  0  0  0  0  0  0
   -5.4549   -1.2763   -2.0503 H   0  0  0  0  0  0  0  0  0  0  0  0
   -2.7019   -0.2971   -2.3340 C   0  0  2  0  0  3  0  0  0  0  0  0
   -2.3250   -1.7618    0.8054 C   0  0  0  0  0  0  0  0  0  0  0  0
   -3.6651   -2.2875    1.1659 C   0  0  0  0  0  0  0  0  0  0  0  0
   -4.3550   -3.1586    0.2936 C   0  0  0  0  0  0  0  0  0  0  0  0
   -3.8742   -3.4694   -0.6441 H   0  0  0  0  0  0  0  0  0  0  0  0
   -5.6401   -3.6139    0.6157 C   0  0  0  0  0  0  0  0  0  0  0  0
   -6.1654   -4.2943   -0.0715 H   0  0  0  0  0  0  0  0  0  0  0  0
   -6.2609   -3.2017    1.8077 C   0  0  0  0  0  0  0  0  0  0  0  0
   -7.2738   -3.5545    2.0538 H   0  0  0  0  0  0  0  0  0  0  0  0
   -5.5835   -2.3374    2.6822 C   0  0  0  0  0  0  0  0  0  0  0  0
   -6.0653   -2.0059    3.6147 H   0  0  0  0  0  0  0  0  0  0  0  0
   -4.2940   -1.8852    2.3649 C   0  0  0  0  0  0  0  0  0  0  0  0
   -3.7742   -1.1881    3.0397 H   0  0  0  0  0  0  0  0  0  0  0  0
   -1.1848   -1.8713    1.7339 C   0  0  0  0  0  0  0  0  0  0  0  0
   -1.2258   -2.6670    2.9035 C   0  0  0  0  0  0  0  0  0  0  0  0
   -2.1295   -3.2444    3.1405 H   0  0  0  0  0  0  0  0  0  0  0  0
   -0.1009   -2.7192    3.7327 C   0  0  0  0  0  0  0  0  0  0  0  0
   -0.1164   -3.3364    4.6437 H   0  0  0  0  0  0  0  0  0  0  0  0
    1.0466   -1.9902    3.3829 C   0  0  0  0  0  0  0  0  0  0  0  0
    1.9528   -2.0063    4.0046 H   0  0  0  0  0  0  0  0  0  0  0  0
    1.0176   -1.2455    2.1948 C   0  0  0  0  0  0  0  0  0  0  0  0
    1.9011   -0.6791    1.8547 H   0  0  0  0  0  0  0  0  0  0  0  0
  1 17  1  0  0  0  0
  1 20  1  0  0  0  0
  3  4  1  0  0  0  0
  4 21  1  0  0  0  0
  5 33  1  0  0  0  0
  5 40  1  0  0  0  0
  6 16  2  0  0  0  0
  6  8  1  0  0  0  0
  7  6  1  0  0  0  0
  8 10  2  0  0  0  0
  9  8  1  0  0  0  0
 10 12  1  0  0  0  0
 10 11  1  0  0  0  0
 12 13  1  0  0  0  0
 14 15  1  0  0  0  0
 14 12  2  0  0  0  0
 16 14  1  0  0  0  0
 17 19  1  0  0  0  0
 17 16  1  0  0  0  0
 18 17  1  0  0  0  0
 20  2  1  6  0  0  0
 20  3  1  0  0  0  0
 21 22  1  0  0  0  0
 21 33  2  0  0  0  0
 22 31  1  0  0  0  0
 23 25  1  0  0  0  0
 23 22  2  0  0  0  0
 24 23  1  0  0  0  0
 25 27  2  0  0  0  0
 26 25  1  0  0  0  0
 27 28  1  0  0  0  0
 27 29  1  0  0  0  0
 29 30  1  0  0  0  0
 31 29  2  0  0  0  0
 31 32  1  0  0  0  0
 33 34  1  0  0  0  0
 34 35  1  0  0  0  0
 34 36  2  0  0  0  0
 36 37  1  0  0  0  0
 38 36  1  0  0  0  0
 38 39  1  0  0  0  0
 40 38  2  0  0  0  0
 41 40  1  0  0  0  0
M  END
