1,2,3
q = -1.0

 37 39  0  0  0  0  0  0  0  0999 V2000
   -1.2732   -2.3251    0.0092 S   0  0  0  0  0  1  0  0  0  0  0  0
    2.6542   -0.5116    0.0004 N   0  0  0  0  0  2  0  0  0  0  0  0
    0.1270    0.1873   -0.0261 N   0  0  0  0  0  2  0  0  0  0  0  0
   -1.1952    0.3995   -0.0112 N   0  0  0  0  0  0  0  0  0  0  0  0
    1.0433    3.5300    0.9423 C   0  0  0  0  0  0  0  0  0  0  0  0
    1.7521    3.1697    1.7031 H   0  0  0  0  0  0  0  0  0  0  0  0
    0.6216    4.8670    0.9586 C   0  0  0  0  0  0  0  0  0  0  0  0
    1.0162    5.5537    1.7227 H   0  0  0  0  0  0  0  0  0  0  0  0
   -0.3080    5.3237    0.0118 C   0  0  0  0  0  0  0  0  0  0  0  0
   -0.6376    6.3736    0.0236 H   0  0  0  0  0  0  0  0  0  0  0  0
   -0.8199    4.4345   -0.9482 C   0  0  0  0  0  0  0  0  0  0  0  0
   -1.5490    4.7876   -1.6931 H   0  0  0  0  0  0  0  0  0  0  0  0
   -0.4083    3.0964   -0.9642 C   0  0  0  0  0  0  0  0  0  0  0  0
   -0.8137    2.4002   -1.7106 H   0  0  0  0  0  0  0  0  0  0  0  0
    0.5357    2.6285   -0.0213 C   0  0  0  0  0  0  0  0  0  0  0  0
    0.9831    1.2192   -0.0304 C   0  0  0  0  0  0  0  0  0  0  0  0
    2.3979    0.8370   -0.0529 C   0  0  0  0  0  0  0  0  0  0  0  0
    3.4717    1.7437   -0.1645 C   0  0  0  0  0  0  0  0  0  0  0  0
    3.2642    2.8187   -0.2452 H   0  0  0  0  0  0  0  0  0  0  0  0
    4.7858    1.2568   -0.1865 C   0  0  0  0  0  0  0  0  0  0  0  0
    5.6281    1.9594   -0.2730 H   0  0  0  0  0  0  0  0  0  0  0  0
    5.0152   -0.1238   -0.1068 C   0  0  0  0  0  0  0  0  0  0  0  0
    6.0311   -0.5423   -0.1199 H   0  0  0  0  0  0  0  0  0  0  0  0
    3.9081   -0.9825   -0.0236 C   0  0  0  0  0  0  0  0  0  0  0  0
    3.9866   -2.0830    0.0200 H   0  0  0  0  0  0  0  0  0  0  0  0
   -1.9348   -0.7066    0.0066 C   0  0  0  0  0  0  0  0  0  0  0  0
   -3.4022   -0.5224    0.0308 C   0  0  0  0  0  0  0  0  0  0  0  0
   -4.2839   -1.6260   -0.0351 C   0  0  0  0  0  0  0  0  0  0  0  0
   -3.8688   -2.6425   -0.1083 H   0  0  0  0  0  0  0  0  0  0  0  0
   -5.6692   -1.4310   -0.0117 C   0  0  0  0  0  0  0  0  0  0  0  0
   -6.3424   -2.2997   -0.0651 H   0  0  0  0  0  0  0  0  0  0  0  0
   -6.1987   -0.1325    0.0784 C   0  0  0  0  0  0  0  0  0  0  0  0
   -7.2888    0.0187    0.0975 H   0  0  0  0  0  0  0  0  0  0  0  0
   -5.3319    0.9715    0.1445 C   0  0  0  0  0  0  0  0  0  0  0  0
   -5.7418    1.9903    0.2175 H   0  0  0  0  0  0  0  0  0  0  0  0
   -3.9458    0.7826    0.1206 C   0  0  0  0  0  0  0  0  0  0  0  0
   -3.2552    1.6354    0.1753 H   0  0  0  0  0  0  0  0  0  0  0  0
  3  4  1  0  0  0  0
  4 26  2  0  0  0  0
  5  7  1  0  0  0  0
  5  6  1  0  0  0  0
  7  8  1  0  0  0  0
  9 10  1  0  0  0  0
  9  7  2  0  0  0  0
 11  9  1  0  0  0  0
 12 11  1  0  0  0  0
 13 11  2  0  0  0  0
 13 15  1  0  0  0  0
 14 13  1  0  0  0  0
 15  5  2  0  0  0  0
 16  3  1  0  0  0  0
 16 15  1  0  0  0  0
 17 16  2  0  0  0  0
 17  2  1  0  0  0  0
 18 17  1  0  0  0  0
 19 18  1  0  0  0  0
 20 18  2  0  0  0  0
 20 22  1  0  0  0  0
 21 20  1  0  0  0  0
 22 24  2  0  0  0  0
 23 22  1  0  0  0  0
 24  2  1  0  0  0  0
 24 25  1  0  0  0  0
 26  1  1  0  0  0  0
 26 27  1  0  0  0  0
 27 36  1  0  0  0  0
 28 30  1  0  0  0  0
 28 27  2  0  0  0  0
 29 28  1  0  0  0  0
 30 32  2  0  0  0  0
 31 30  1  0  0  0  0
 32 33  1  0  0  0  0
 32 34  1  0  0  0  0
 34 35  1  0  0  0  0
 36 34  2  0  0  0  0
 36 37  1  0  0  0  0
M  END
