1,5,6
q = -1.0, confidence = 0.0

 45 47  0  0  0  0  0  0  0  0999 V2000
    0.2152   -2.8815   -0.0144 S   0  0  0  0  0  1  0  0  0  0  0  0
   -2.3358   -2.0887   -0.1569 N   0  0  0  0  0  0  0  0  0  0  0  0
   -2.4909   -3.0931   -0.0493 H   0  0  0  0  0  0  0  0  0  0  0  0
   -0.8538   -0.3381   -0.1655 N   0  0  0  0  0  0  0  0  0  0  0  0
    0.4304    0.0134   -0.1256 N   0  0  0  0  0  2  0  0  0  0  0  0
    3.0179    0.4173    0.0113 N   0  0  0  0  0  2  0  0  0  0  0  0
   -4.7100   -1.9343   -0.7606 C   0  0  0  0  0  0  0  0  0  0  0  0
   -4.4670   -2.3359   -1.7666 H   0  0  0  0  0  0  0  0  0  0  0  0
   -4.9389   -2.8095   -0.1090 H   0  0  0  0  0  0  0  0  0  0  0  0
   -5.9351   -1.0120   -0.8215 C   0  0  0  0  0  0  0  0  0  0  0  0
   -6.8122   -1.5736   -1.2044 H   0  0  0  0  0  0  0  0  0  0  0  0
   -5.7383   -0.2014   -1.5585 H   0  0  0  0  0  0  0  0  0  0  0  0
   -6.2456   -0.3866    0.5451 C   0  0  0  0  0  0  0  0  0  0  0  0
   -7.1069    0.3086    0.4618 H   0  0  0  0  0  0  0  0  0  0  0  0
   -6.5588   -1.1890    1.2507 H   0  0  0  0  0  0  0  0  0  0  0  0
   -5.0211    0.3379    1.1193 C   0  0  0  0  0  0  0  0  0  0  0  0
   -5.2463    0.7499    2.1247 H   0  0  0  0  0  0  0  0  0  0  0  0
   -4.7708    1.2113    0.4755 H   0  0  0  0  0  0  0  0  0  0  0  0
   -3.8032   -0.5906    1.1926 C   0  0  0  0  0  0  0  0  0  0  0  0
   -3.9968   -1.4193    1.9102 H   0  0  0  0  0  0  0  0  0  0  0  0
   -2.9073   -0.0443    1.5495 H   0  0  0  0  0  0  0  0  0  0  0  0
   -3.4935   -1.1975   -0.1879 C   0  0  0  0  0  0  0  0  0  0  0  0
   -3.2243   -0.3605   -0.8675 H   0  0  0  0  0  0  0  0  0  0  0  0
   -1.0518   -1.6645   -0.1170 C   0  0  0  0  0  0  0  0  0  0  0  0
    0.7879    1.3058   -0.1251 C   0  0  0  0  0  0  0  0  0  0  0  0
   -0.2093    2.4003   -0.1435 C   0  0  0  0  0  0  0  0  0  0  0  0
   -1.2245    2.4443   -1.1258 C   0  0  0  0  0  0  0  0  0  0  0  0
   -1.2611    1.6608   -1.8947 H   0  0  0  0  0  0  0  0  0  0  0  0
   -2.1737    3.4739   -1.1198 C   0  0  0  0  0  0  0  0  0  0  0  0
   -2.9545    3.4988   -1.8953 H   0  0  0  0  0  0  0  0  0  0  0  0
   -2.1314    4.4728   -0.1322 C   0  0  0  0  0  0  0  0  0  0  0  0
   -2.8811    5.2785   -0.1282 H   0  0  0  0  0  0  0  0  0  0  0  0
   -1.1301    4.4370    0.8501 C   0  0  0  0  0  0  0  0  0  0  0  0
   -1.0955    5.2097    1.6331 H   0  0  0  0  0  0  0  0  0  0  0  0
   -0.1757    3.4093    0.8455 C   0  0  0  0  0  0  0  0  0  0  0  0
    0.5921    3.3703    1.6331 H   0  0  0  0  0  0  0  0  0  0  0  0
    2.2294    1.5397   -0.0864 C   0  0  0  0  0  0  0  0  0  0  0  0
    2.8390    2.8093   -0.1774 C   0  0  0  0  0  0  0  0  0  0  0  0
    2.2088    3.7016   -0.2882 H   0  0  0  0  0  0  0  0  0  0  0  0
    4.2348    2.9092   -0.1394 C   0  0  0  0  0  0  0  0  0  0  0  0
    4.7150    3.8967   -0.2104 H   0  0  0  0  0  0  0  0  0  0  0  0
    5.0111    1.7463   -0.0184 C   0  0  0  0  0  0  0  0  0  0  0  0
    6.1086    1.7854    0.0167 H   0  0  0  0  0  0  0  0  0  0  0  0
    4.3560    0.5087    0.0461 C   0  0  0  0  0  0  0  0  0  0  0  0
    4.8793   -0.4602    0.1247 H   0  0  0  0  0  0  0  0  0  0  0  0
  2 24  1  0  0  0  0
  2  3  1  0  0  0  0
  4  5  1  0  0  0  0
  4 24  2  0  0  0  0
  5 25  1  0  0  0  0
  6 44  1  0  0  0  0
  7 22  1  0  0  0  0
  7  9  1  0  0  0  0
  8  7  1  0  0  0  0
 10  7  1  0  0  0  0
 10 13  1  0  0  0  0
 11 10  1  0  0  0  0
 12 10  1  0  0  0  0
 13 16  1  0  0  0  0
 13 15  1  0  0  0  0
 14 13  1  0  0  0  0
 16 19  1  0  0  0  0
 16 17  1  0  0  0  0
 18 16  1  0  0  0  0
 19 21  1  0  0  0  0
 19 20  1  0  0  0  0
 22  2  1  0  0  0  0
 22 19  1  0  0  0  0
 23 22  1  0  0  0  0
 24  1  1  0  0  0  0
 25 37  2  0  0  0  0
 26 25  1  0  0  0  0
 26 35  1  0  0  0  0
 27 29  1  0  0  0  0
 27 26  2  0  0  0  0
 28 27  1  0  0  0  0
 29 31  2  0  0  0  0
 30 29  1  0  0  0  0
 31 32  1  0  0  0  0
 31 33  1  0  0  0  0
 33 34  1  0  0  0  0
 35 33  2  0  0  0  0
 35 36  1  0  0  0  0
 37  6  1  0  0  0  0
 38 40  2  0  0  0  0
 38 37  1  0  0  0  0
 39 38  1  0  0  0  0
 40 42  1  0  0  0  0
 41 40  1  0  0  0  0
 42 43  1  0  0  0  0
 42 44  2  0  0  0  0
 44 45  1  0  0  0  0
M  END
