1,6,7
q = -1.0, confidence = 0.0

 28 29  0  0  1  0  0  0  0  0999 V2000
    1.6064   -1.4529    1.1125 S   0  0  0  0  0  1  0  0  0  0  0  0
    2.7818   -0.2932   -0.9756 N   0  0  0  0  0  0  0  0  0  0  0  0
    3.5593   -0.0654   -1.6210 H   0  0  0  0  0  0  0  0  0  0  0  0
    2.7763    1.5096   -2.9071 O   0  0  0  0  0  0  0  0  0  0  0  0
    4.1586   -1.9438    0.0897 C   0  0  0  0  0  0  0  0  0  0  0  0
    1.6683    0.4372   -1.1793 N   0  0  0  0  0  2  0  0  0  0  0  0
   -0.5126    1.8475   -1.4995 N   0  0  0  0  0  2  0  0  0  0  0  0
    2.8824   -1.1932    0.0177 C   0  0  2  0  0  3  0  0  0  0  0  0
    6.5994   -3.3595    0.2647 C   0  0  0  0  0  0  0  0  0  0  0  0
    7.5488   -3.9117    0.3330 H   0  0  0  0  0  0  0  0  0  0  0  0
    4.9530   -2.1580   -1.0616 C   0  0  0  0  0  0  0  0  0  0  0  0
    4.6070   -1.8110   -2.0478 H   0  0  0  0  0  0  0  0  0  0  0  0
    0.4935    2.1136   -2.3612 C   0  0  1  0  0  3  0  0  0  0  0  0
    1.7696    1.3338   -2.1942 C   0  0  0  0  0  0  0  0  0  0  0  0
   -0.8335    3.7737   -3.4971 C   0  0  0  0  0  0  0  0  0  0  0  0
   -0.9638    4.5333   -4.2832 H   0  0  0  0  0  0  0  0  0  0  0  0
    0.3743    3.0743   -3.3787 C   0  0  0  0  0  0  0  0  0  0  0  0
    1.2338    3.2395   -4.0436 H   0  0  0  0  0  0  0  0  0  0  0  0
   -1.8769    3.4914   -2.6010 C   0  0  0  0  0  0  0  0  0  0  0  0
   -2.8408    4.0169   -2.6612 H   0  0  0  0  0  0  0  0  0  0  0  0
    4.6008   -2.4659    1.3256 C   0  0  0  0  0  0  0  0  0  0  0  0
    3.9702   -2.3080    2.2130 H   0  0  0  0  0  0  0  0  0  0  0  0
    6.1635   -2.8577   -0.9718 C   0  0  0  0  0  0  0  0  0  0  0  0
    6.7632   -3.0247   -1.8793 H   0  0  0  0  0  0  0  0  0  0  0  0
   -1.6681    2.5141   -1.6151 C   0  0  0  0  0  0  0  0  0  0  0  0
   -2.4535    2.2507   -0.8868 H   0  0  0  0  0  0  0  0  0  0  0  0
    5.8112   -3.1632    1.4111 C   0  0  0  0  0  0  0  0  0  0  0  0
    6.1438   -3.5577    2.3832 H   0  0  0  0  0  0  0  0  0  0  0  0
  2  8  1  0  0  0  0
  3  2  1  0  0  0  0
  4 14  2  0  0  0  0
  5 21  1  0  0  0  0
  6  2  1  0  0  0  0
  8  5  1  0  0  0  0
  8  1  1  6  0  0  0
  9 10  1  0  0  0  0
  9 27  1  0  0  0  0
 11 23  1  0  0  0  0
 11  5  2  0  0  0  0
 12 11  1  0  0  0  0
 13 14  1  6  0  0  0
 13  7  1  0  0  0  0
 14  6  1  0  0  0  0
 15 17  2  0  0  0  0
 15 19  1  0  0  0  0
 16 15  1  0  0  0  0
 17 13  1  0  0  0  0
 18 17  1  0  0  0  0
 19 25  2  0  0  0  0
 20 19  1  0  0  0  0
 21 27  2  0  0  0  0
 21 22  1  0  0  0  0
 23  9  2  0  0  0  0
 24 23  1  0  0  0  0
 25  7  1  0  0  0  0
 25 26  1  0  0  0  0
 27 28  1  0  0  0  0
M  END
