1,14,15
q = 0.0, confidence = 1.0

 28 28  0  0  1  0  0  0  0  0999 V2000
   -2.3607   -1.5988   -1.5284 S   0  0  0  0  0  1  0  0  0  0  0  0
   -3.0892   -0.2507   -0.8487 C   0  0  2  0  0  3  0  0  0  0  0  0
   -0.4987    2.1668   -0.5329 C   0  0  1  0  0  3  0  0  0  0  0  0
   -1.2248    3.4698   -0.3485 C   0  0  0  0  0  0  0  0  0  0  0  0
    0.9786    2.0630   -0.4278 C   0  0  1  0  0  3  0  0  0  0  0  0
    1.8414    3.1319   -0.7626 C   0  0  0  0  0  0  0  0  0  0  0  0
    3.2226    2.9360   -0.6698 C   0  0  0  0  0  0  0  0  0  0  0  0
    3.7147    1.7003   -0.2228 C   0  0  0  0  0  0  0  0  0  0  0  0
    2.7927    0.6989    0.1349 C   0  0  0  0  0  0  0  0  0  0  0  0
    3.2080   -0.5972    0.8266 C   0  0  0  0  0  0  0  0  0  0  0  0
    4.4900   -1.2656    0.4090 C   0  0  0  0  0  0  0  0  0  0  0  0
   -4.3651   -0.2143   -0.3887 N   0  0  0  0  0  0  0  0  0  0  0  0
   -2.4479    0.9839   -0.7223 N   0  0  0  0  0  0  0  0  0  0  0  0
   -1.1110    1.0353   -0.7328 N   0  0  0  0  0  2  0  0  0  0  0  0
    1.4686    0.8898    0.0180 N   0  0  0  0  0  2  0  0  0  0  0  0
    2.4676   -1.0572    1.6824 O   0  0  0  0  0  0  0  0  0  0  0  0
   -4.5502    0.4370    0.3940 H   0  0  0  0  0  0  0  0  0  0  0  0
   -4.8387   -1.1183   -0.3730 H   0  0  0  0  0  0  0  0  0  0  0  0
   -2.9490    1.6909   -0.1514 H   0  0  0  0  0  0  0  0  0  0  0  0
   -1.8760    3.3986    0.5508 H   0  0  0  0  0  0  0  0  0  0  0  0
   -0.5404    4.3229   -0.2007 H   0  0  0  0  0  0  0  0  0  0  0  0
   -1.8849    3.6843   -1.2158 H   0  0  0  0  0  0  0  0  0  0  0  0
    1.4349    4.0881   -1.1204 H   0  0  0  0  0  0  0  0  0  0  0  0
    3.9163    3.7449   -0.9441 H   0  0  0  0  0  0  0  0  0  0  0  0
    4.7953    1.5295   -0.1225 H   0  0  0  0  0  0  0  0  0  0  0  0
    4.8170   -1.9673    1.1972 H   0  0  0  0  0  0  0  0  0  0  0  0
    4.2218   -1.8557   -0.4950 H   0  0  0  0  0  0  0  0  0  0  0  0
    5.3038   -0.5670    0.1377 H   0  0  0  0  0  0  0  0  0  0  0  0
  2  1  1  6  0  0  0
  2 13  1  0  0  0  0
  2 12  1  0  0  0  0
  3 14  1  1  0  0  0
  3  4  1  0  0  0  0
  4 21  1  0  0  0  0
  4 20  1  0  0  0  0
  5  3  1  1  0  0  0
  5 15  1  0  0  0  0
  6  7  2  0  0  0  0
  6  5  1  0  0  0  0
  7  8  1  0  0  0  0
  8 25  1  0  0  0  0
  8  9  2  0  0  0  0
  9 10  1  0  0  0  0
 10 16  2  0  0  0  0
 11 10  1  0  0  0  0
 11 26  1  0  0  0  0
 12 18  1  0  0  0  0
 12 17  1  0  0  0  0
 13 19  1  0  0  0  0
 14 13  1  0  0  0  0
 15  9  1  0  0  0  0
 22  4  1  0  0  0  0
 23  6  1  0  0  0  0
 24  7  1  0  0  0  0
 27 11  1  0  0  0  0
 28 11  1  0  0  0  0
M  END
