1,11,21
q = -1.0, confidence = 0.0

 25 25  0  0  0  0  0  0  0  0999 V2000
   -1.9524   -0.1894    0.0021 N   0  0  0  0  0  2  0  0  0  0  0  0
   -3.0185   -1.0068    0.0870 C   0  0  0  0  0  3  0  0  0  0  0  0
   -2.8937   -2.0952    0.0312 H   0  0  0  0  0  0  0  0  0  0  0  0
   -4.1972   -0.2274    0.2516 C   0  0  0  0  0  0  0  0  0  0  0  0
   -5.2158   -0.6222    0.3445 H   0  0  0  0  0  0  0  0  0  0  0  0
   -3.8069    1.1222    0.2699 C   0  0  0  0  0  0  0  0  0  0  0  0
   -4.4508    2.0029    0.3796 H   0  0  0  0  0  0  0  0  0  0  0  0
   -2.3947    1.1253    0.1125 C   0  0  0  0  0  0  0  0  0  0  0  0
   -1.3745    2.0983    0.0465 C   0  0  0  0  0  0  0  0  0  0  0  0
   -1.5944    3.1799    0.1204 H   0  0  0  0  0  0  0  0  0  0  0  0
   -0.1238    1.6885   -0.1072 N   0  0  0  0  0  2  0  0  0  0  0  0
    0.9582    2.6438   -0.2275 C   0  0  0  0  0  0  0  0  0  0  0  0
    0.6328    3.6190    0.1990 H   0  0  0  0  0  0  0  0  0  0  0  0
    1.1804    2.8285   -1.3063 H   0  0  0  0  0  0  0  0  0  0  0  0
    2.2549    2.2047    0.4650 C   0  0  0  0  0  0  0  0  0  0  0  0
    2.0304    1.8639    1.4982 H   0  0  0  0  0  0  0  0  0  0  0  0
    2.9057    3.0998    0.5649 H   0  0  0  0  0  0  0  0  0  0  0  0
    3.0552    1.1493   -0.2976 C   0  0  0  0  0  0  0  0  0  0  0  0
    4.0751    1.0290    0.1210 H   0  0  0  0  0  0  0  0  0  0  0  0
    3.1707    1.4422   -1.3619 H   0  0  0  0  0  0  0  0  0  0  0  0
    2.3413   -0.5433   -0.3656 S   0  0  0  0  0  0  0  0  0  0  0  0
    2.8151   -1.1785    1.2785 C   0  0  0  0  0  0  0  0  0  0  0  0
    3.9120   -1.3266    1.3090 H   0  0  0  0  0  0  0  0  0  0  0  0
    2.2804   -2.1439    1.3615 H   0  0  0  0  0  0  0  0  0  0  0  0
    2.4788   -0.4958    2.0809 H   0  0  0  0  0  0  0  0  0  0  0  0
  1  2  1  0  0  0  0
  1  8  1  0  0  0  0
  2  4  1  0  0  0  0
  3  2  1  0  0  0  0
  4  6  2  0  0  0  0
  4  5  1  0  0  0  0
  6  7  1  0  0  0  0
  8  6  1  0  0  0  0
  9  8  2  0  0  0  0
  9 10  1  0  0  0  0
 11  9  1  0  0  0  0
 12 11  1  0  0  0  0
 12 13  1  0  0  0  0
 12 15  1  0  0  0  0
 14 12  1  0  0  0  0
 15 17  1  0  0  0  0
 15 16  1  0  0  0  0
 18 19  1  0  0  0  0
 18 15  1  0  0  0  0
 20 18  1  0  0  0  0
 21 18  1  0  0  0  0
 21 22  1  0  0  0  0
 22 23  1  0  0  0  0
 22 24  1  0  0  0  0
 22 25  1  0  0  0  0
M  END
