1,3,4
q = -1.0

 26 25  0  0  0  0  0  0  0  0999 V2000
   -1.7743   -1.0564   -0.2064 S   0  0  0  0  0  1  0  0  0  0  0  0
    3.4937   -0.6820    0.1630 O   0  0  0  0  0  0  0  0  0  0  0  0
    2.3694    0.0522    0.0936 N   0  0  0  0  0  2  0  0  0  0  0  0
    0.0637    1.1852   -0.0717 N   0  0  0  0  0  2  0  0  0  0  0  0
   -1.1858    1.6527   -0.1640 N   0  0  0  0  0  0  0  0  0  0  0  0
   -3.3908    1.0933   -0.3565 N   0  0  0  0  0  0  0  0  0  0  0  0
   -3.5162    2.1073   -0.3086 H   0  0  0  0  0  0  0  0  0  0  0  0
    2.4178    1.3697    0.1039 C   0  0  0  0  0  0  0  0  0  0  0  0
    1.1055    2.0141    0.0135 C   0  0  0  0  0  0  0  0  0  0  0  0
   -2.1067    0.6801   -0.2394 C   0  0  0  0  0  0  0  0  0  0  0  0
   -4.5609    0.2301   -0.3594 C   0  0  0  0  0  0  0  0  0  0  0  0
   -5.3499    0.7414   -0.9486 H   0  0  0  0  0  0  0  0  0  0  0  0
   -4.2907   -0.6937   -0.9126 H   0  0  0  0  0  0  0  0  0  0  0  0
   -5.0672   -0.1226    1.0414 C   0  0  0  0  0  0  0  0  0  0  0  0
   -4.2823   -0.6622    1.6074 H   0  0  0  0  0  0  0  0  0  0  0  0
   -5.9579   -0.7789    0.9741 H   0  0  0  0  0  0  0  0  0  0  0  0
   -5.3511    0.7861    1.6100 H   0  0  0  0  0  0  0  0  0  0  0  0
    0.8961    3.4949    0.0098 C   0  0  0  0  0  0  0  0  0  0  0  0
    0.3499    3.8045   -0.9052 H   0  0  0  0  0  0  0  0  0  0  0  0
    1.8506    4.0472    0.0647 H   0  0  0  0  0  0  0  0  0  0  0  0
    0.2547    3.7973    0.8637 H   0  0  0  0  0  0  0  0  0  0  0  0
    3.7060    2.1261    0.1976 C   0  0  0  0  0  0  0  0  0  0  0  0
    4.5549    1.4238    0.2641 H   0  0  0  0  0  0  0  0  0  0  0  0
    3.7167    2.7826    1.0918 H   0  0  0  0  0  0  0  0  0  0  0  0
    3.8510    2.7746   -0.6909 H   0  0  0  0  0  0  0  0  0  0  0  0
    3.1091   -1.6225    0.1353 H   0  0  0  0  0  0  0  0  0  0  0  0
  3  8  1  0  0  0  0
  3  2  1  0  0  0  0
  4  9  1  0  0  0  0
  5  4  1  0  0  0  0
  6  7  1  0  0  0  0
  6 10  1  0  0  0  0
  8 22  1  0  0  0  0
  9  8  2  0  0  0  0
 10  1  1  0  0  0  0
 10  5  2  0  0  0  0
 11  6  1  0  0  0  0
 11 14  1  0  0  0  0
 12 11  1  0  0  0  0
 13 11  1  0  0  0  0
 14 15  1  0  0  0  0
 14 17  1  0  0  0  0
 16 14  1  0  0  0  0
 18  9  1  0  0  0  0
 18 20  1  0  0  0  0
 18 21  1  0  0  0  0
 19 18  1  0  0  0  0
 22 23  1  0  0  0  0
 22 24  1  0  0  0  0
 25 22  1  0  0  0  0
 26  2  1  0  0  0  0
M  END
