1,2,3
q = -1.0, confidence = 0.01

 22 22  0  0  0  0  0  0  0  0999 V2000
    1.5080   -1.2179    0.3285 S   0  0  0  0  0  0  0  0  0  0  0  0
    0.2611    0.6348   -1.3606 N   0  0  0  0  0  2  0  0  0  0  0  0
    0.2108    1.5341    0.9169 N   0  0  0  0  0  0  0  0  0  0  0  0
    2.3140   -0.6789   -1.2584 C   0  0  0  0  0  0  0  0  0  0  0  0
    1.2202   -0.0828   -2.1654 C   0  0  0  0  0  0  0  0  0  0  0  0
    0.0822    2.0666   -1.4561 C   0  0  0  0  0  0  0  0  0  0  0  0
   -0.1355    2.6213   -0.0186 C   0  0  0  0  0  0  0  0  0  0  0  0
    1.6717    1.4440    1.1648 C   0  0  0  0  0  0  0  0  0  0  0  0
    2.1520    0.0423    1.5129 C   0  0  0  0  0  0  0  0  0  0  0  0
   -0.3311    1.5612    1.7941 H   0  0  0  0  0  0  0  0  0  0  0  0
    3.1082    0.0559   -1.0179 H   0  0  0  0  0  0  0  0  0  0  0  0
    2.7877   -1.5707   -1.7116 H   0  0  0  0  0  0  0  0  0  0  0  0
    1.6668    0.5642   -2.9519 H   0  0  0  0  0  0  0  0  0  0  0  0
    0.6622   -0.9282   -2.6391 H   0  0  0  0  0  0  0  0  0  0  0  0
    0.9353    2.5454   -1.9863 H   0  0  0  0  0  0  0  0  0  0  0  0
   -0.8508    2.2610   -2.0395 H   0  0  0  0  0  0  0  0  0  0  0  0
   -1.2066    2.8424    0.1289 H   0  0  0  0  0  0  0  0  0  0  0  0
    0.4694    3.5351    0.1707 H   0  0  0  0  0  0  0  0  0  0  0  0
    2.1800    1.7886    0.2407 H   0  0  0  0  0  0  0  0  0  0  0  0
    1.9722    2.1567    1.9652 H   0  0  0  0  0  0  0  0  0  0  0  0
    3.2586   -0.0078    1.5621 H   0  0  0  0  0  0  0  0  0  0  0  0
    1.7211   -0.3089    2.4712 H   0  0  0  0  0  0  0  0  0  0  0  0
  1  9  1  0  0  0  0
  3  8  1  0  0  0  0
  3 10  1  0  0  0  0
  4 11  1  0  0  0  0
  4  1  1  0  0  0  0
  5  2  1  0  0  0  0
  5  4  1  0  0  0  0
  6  2  1  0  0  0  0
  6  7  1  0  0  0  0
  7 17  1  0  0  0  0
  7 18  1  0  0  0  0
  7  3  1  0  0  0  0
  8  9  1  0  0  0  0
  8 20  1  0  0  0  0
  9 21  1  0  0  0  0
  9 22  1  0  0  0  0
 12  4  1  0  0  0  0
 13  5  1  0  0  0  0
 14  5  1  0  0  0  0
 15  6  1  0  0  0  0
 16  6  1  0  0  0  0
 19  8  1  0  0  0  0
M  END
