13,16,24
q = -1.0

 24 23  0  0  1  0  0  0  0  0999 V2000
    2.5133    0.4570   -0.1150 C   0  0  1  0  0  0  0  0  0  0  0  0
    2.8738   -0.4194   -0.6936 H   0  0  0  0  0  0  0  0  0  0  0  0
    1.8134    1.4325   -1.0682 C   0  0  0  0  0  0  0  0  0  0  0  0
    2.4875    1.6930   -1.9049 H   0  0  0  0  0  0  0  0  0  0  0  0
    1.5383    2.3651   -0.5334 H   0  0  0  0  0  0  0  0  0  0  0  0
   -0.9826    2.0171   -1.2642 C   0  0  0  0  0  0  0  0  0  0  0  0
   -0.7415    2.9718   -1.7681 H   0  0  0  0  0  0  0  0  0  0  0  0
   -1.9200    1.6163   -1.7033 H   0  0  0  0  0  0  0  0  0  0  0  0
   -1.1171    2.1897    0.2265 C   0  0  1  0  0  0  0  0  0  0  0  0
   -0.2710    2.7671    0.6524 H   0  0  0  0  0  0  0  0  0  0  0  0
   -2.4943    3.0218    0.4661 C   0  0  0  0  0  0  0  0  0  0  0  0
    3.7194    1.1373    0.5431 C   0  0  0  0  0  0  0  0  0  0  0  0
    1.5795   -0.0325    0.9210 N   0  0  0  0  0  0  0  0  0  0  0  0
    1.3963    0.7474    1.5754 H   0  0  0  0  0  0  0  0  0  0  0  0
    2.0662   -0.7330    1.4987 H   0  0  0  0  0  0  0  0  0  0  0  0
   -1.3042    0.8820    0.9069 N   0  0  0  0  0  0  0  0  0  0  0  0
   -2.3934    0.9418    0.9551 H   0  0  0  0  0  0  0  0  0  0  0  0
   -1.0593    1.0085    1.9003 H   0  0  0  0  0  0  0  0  0  0  0  0
    3.7837    1.3832    1.7313 O   0  0  0  0  0  0  0  0  0  0  0  0
    4.6699    1.4379   -0.3587 O   0  0  0  0  0  0  0  0  0  0  0  0
    5.3965    1.8884    0.1273 H   0  0  0  0  0  0  0  0  0  0  0  0
   -2.4475    4.2245    0.2001 O   0  5  0  0  0  0  0  0  0  0  0  0
   -3.4138    2.2405    0.8491 O   0  0  0  0  0  0  0  0  0  0  0  0
    0.2599    0.7138   -1.7655 S   0  0  0  0  0  0  0  0  0  0  0  0
  1  2  1  6  0  0  0
  1 12  1  0  0  0  0
  1 13  1  0  0  0  0
  3  5  1  0  0  0  0
  3  1  1  0  0  0  0
  4  3  1  0  0  0  0
  6  9  1  0  0  0  0
  7  6  1  0  0  0  0
  8  6  1  0  0  0  0
  9 11  1  0  0  0  0
  9 10  1  1  0  0  0
  9 16  1  0  0  0  0
 11 23  2  0  0  0  0
 12 19  2  0  0  0  0
 13 15  1  0  0  0  0
 13 14  1  0  0  0  0
 16 17  1  0  0  0  0
 16 18  1  0  0  0  0
 20 21  1  0  0  0  0
 20 12  1  0  0  0  0
 22 11  1  0  0  0  0
 24  6  1  0  0  0  0
 24  3  1  0  0  0  0
M  CHG  1  22  -1
M  END
