1,2,3
q = 0.0, confidence = 0.994

 21 20  0  0  0  0  0  0  0  0999 V2000
    1.7111   -0.1192    1.2450 S   0  0  0  0  0  0  0  0  0  0  0  0
    0.7098    1.3880   -1.2024 N   0  0  0  0  0  2  0  0  0  0  0  0
    0.2192   -1.7361   -0.9122 N   0  0  0  0  0  2  0  0  0  0  0  0
    0.4630    1.6338   -2.4393 C   0  0  0  0  0  3  0  0  0  0  0  0
   -0.5433   -2.5334   -1.5729 C   0  0  0  0  0  3  0  0  0  0  0  0
    1.6506   -2.0447   -0.7887 C   0  0  0  0  0  0  0  0  0  0  0  0
    2.1531   -1.7974    0.6264 C   0  0  0  0  0  0  0  0  0  0  0  0
    2.7364    0.9699    0.1435 C   0  0  0  0  0  0  0  0  0  0  0  0
    1.8643    2.0157   -0.5437 C   0  0  0  0  0  0  0  0  0  0  0  0
    3.2495    0.3237   -0.5958 H   0  0  0  0  0  0  0  0  0  0  0  0
    3.5050    1.4506    0.7788 H   0  0  0  0  0  0  0  0  0  0  0  0
    1.4669    2.7323    0.2072 H   0  0  0  0  0  0  0  0  0  0  0  0
    2.4759    2.5989   -1.2659 H   0  0  0  0  0  0  0  0  0  0  0  0
   -0.4431    1.1849   -2.8872 H   0  0  0  0  0  0  0  0  0  0  0  0
    1.1179    2.2978   -3.0389 H   0  0  0  0  0  0  0  0  0  0  0  0
   -0.1506   -3.4656   -2.0268 H   0  0  0  0  0  0  0  0  0  0  0  0
   -1.6052   -2.2564   -1.7039 H   0  0  0  0  0  0  0  0  0  0  0  0
    2.1901   -1.3872   -1.5055 H   0  0  0  0  0  0  0  0  0  0  0  0
    1.8648   -3.0935   -1.0889 H   0  0  0  0  0  0  0  0  0  0  0  0
    1.6785   -2.4835    1.3570 H   0  0  0  0  0  0  0  0  0  0  0  0
    3.2510   -1.9252    0.7039 H   0  0  0  0  0  0  0  0  0  0  0  0
  2  9  1  0  0  0  0
  3  6  1  0  0  0  0
  4  2  1  0  0  0  0
  5  3  1  0  0  0  0
  6  7  1  0  0  0  0
  7 21  1  0  0  0  0
  7  1  1  0  0  0  0
  7 20  1  0  0  0  0
  8 11  1  0  0  0  0
  8  1  1  0  0  0  0
  9  8  1  0  0  0  0
  9 12  1  0  0  0  0
 10  8  1  0  0  0  0
 13  9  1  0  0  0  0
 14  4  1  0  0  0  0
 15  4  1  0  0  0  0
 16  5  1  0  0  0  0
 17  5  1  0  0  0  0
 18  6  1  0  0  0  0
 19  6  1  0  0  0  0
M  END
