1,3,15
q = -1.0, confidence = 0.0

 26 26  0  0  0  0  0  0  0  0999 V2000
   -2.0662   -1.6036   -0.1043 S   0  0  0  0  0  1  0  0  0  0  0  0
   -1.8254    1.1483   -0.2437 N   0  0  0  0  0  0  0  0  0  0  0  0
   -0.5303    0.8402   -0.1553 N   0  0  0  0  0  2  0  0  0  0  0  0
    1.7659    1.3454   -0.0518 C   0  0  0  0  0  0  0  0  0  0  0  0
    0.3987    1.7882   -0.1554 C   0  0  0  0  0  0  0  0  0  0  0  0
    0.1131    2.8468   -0.2325 H   0  0  0  0  0  0  0  0  0  0  0  0
    2.6259    3.5527   -0.1293 O   0  0  0  0  0  0  0  0  0  0  0  0
    2.8832    2.2249   -0.0385 C   0  0  0  0  0  0  0  0  0  0  0  0
   -2.6177    0.0654   -0.2361 C   0  0  0  0  0  0  0  0  0  0  0  0
   -3.9520    0.2682   -0.3462 N   0  0  0  0  0  0  0  0  0  0  0  0
   -4.5385   -0.5639   -0.2659 H   0  0  0  0  0  0  0  0  0  0  0  0
   -4.5825    1.5824   -0.3618 C   0  0  0  0  0  0  0  0  0  0  0  0
   -5.5537    1.4772   -0.8877 H   0  0  0  0  0  0  0  0  0  0  0  0
   -3.9413    2.2479   -0.9726 H   0  0  0  0  0  0  0  0  0  0  0  0
    1.9674   -0.0071    0.0368 N   0  0  0  0  0  2  0  0  0  0  0  0
    3.1968   -0.5339    0.1372 C   0  0  0  0  0  0  0  0  0  0  0  0
    4.1723    1.6783    0.0666 C   0  0  0  0  0  0  0  0  0  0  0  0
    5.0483    2.3474    0.0784 H   0  0  0  0  0  0  0  0  0  0  0  0
    4.3325    0.2873    0.1554 C   0  0  0  0  0  0  0  0  0  0  0  0
   -4.7775    2.1798    1.0331 C   0  0  0  0  0  0  0  0  0  0  0  0
   -5.2693    3.1710    0.9634 H   0  0  0  0  0  0  0  0  0  0  0  0
   -3.7965    2.3134    1.5299 H   0  0  0  0  0  0  0  0  0  0  0  0
   -5.4078    1.5272    1.6706 H   0  0  0  0  0  0  0  0  0  0  0  0
    3.4689    4.0433   -0.1102 H   0  0  0  0  0  0  0  0  0  0  0  0
    5.3323   -0.1605    0.2383 H   0  0  0  0  0  0  0  0  0  0  0  0
    3.2272   -1.6344    0.2015 H   0  0  0  0  0  0  0  0  0  0  0  0
  2  9  2  0  0  0  0
  2  3  1  0  0  0  0
  4  8  1  0  0  0  0
  4 15  1  0  0  0  0
  5  3  1  0  0  0  0
  5  4  2  0  0  0  0
  6  5  1  0  0  0  0
  7 24  1  0  0  0  0
  7  8  1  0  0  0  0
  8 17  2  0  0  0  0
  9  1  1  0  0  0  0
 10 11  1  0  0  0  0
 10  9  1  0  0  0  0
 12 10  1  0  0  0  0
 12 20  1  0  0  0  0
 13 12  1  0  0  0  0
 14 12  1  0  0  0  0
 15 16  1  0  0  0  0
 16 19  2  0  0  0  0
 16 26  1  0  0  0  0
 17 18  1  0  0  0  0
 17 19  1  0  0  0  0
 19 25  1  0  0  0  0
 20 22  1  0  0  0  0
 20 23  1  0  0  0  0
 21 20  1  0  0  0  0
M  END
