1,2,22
q = -1.0

 28 29  0  0  0  0  0  0  0  0999 V2000
   -1.0674   -1.7245    1.1319 S   0  0  0  0  0  0  0  0  0  0  0  0
   -1.5270    0.0069   -1.1714 N   0  0  0  0  0  2  0  0  0  0  0  0
   -2.5054   -1.8128    0.0587 C   0  0  0  0  0  0  0  0  0  0  0  0
   -3.4990   -2.7776    0.2776 C   0  0  0  0  0  0  0  0  0  0  0  0
   -3.3963   -3.4951    1.1053 H   0  0  0  0  0  0  0  0  0  0  0  0
   -4.6166   -2.8188   -0.5667 C   0  0  0  0  0  0  0  0  0  0  0  0
   -5.4023   -3.5696   -0.4009 H   0  0  0  0  0  0  0  0  0  0  0  0
   -0.2633    1.7366   -2.0558 C   0  0  0  0  0  0  0  0  0  0  0  0
    0.3545    2.8066   -2.7512 C   0  0  0  0  0  0  0  0  0  0  0  0
   -0.0630    3.4117   -3.5626 H   0  0  0  0  0  0  0  0  0  0  0  0
   -1.4712    0.9993   -2.0483 C   0  0  0  0  0  3  0  0  0  0  0  0
   -2.3094    1.2232   -2.7275 H   0  0  0  0  0  0  0  0  0  0  0  0
   -2.5900   -0.8920   -1.0142 C   0  0  0  0  0  0  0  0  0  0  0  0
   -3.7178   -0.9571   -1.8633 C   0  0  0  0  0  0  0  0  0  0  0  0
   -3.8136   -0.2678   -2.7137 H   0  0  0  0  0  0  0  0  0  0  0  0
   -4.7184   -1.9062   -1.6321 C   0  0  0  0  0  0  0  0  0  0  0  0
   -5.5899   -1.9418   -2.3021 H   0  0  0  0  0  0  0  0  0  0  0  0
   -1.8002   -1.0289    2.6547 C   0  0  0  0  0  0  0  0  0  0  0  0
   -2.4261   -1.8128    3.1202 H   0  0  0  0  0  0  0  0  0  0  0  0
   -2.3887   -0.1262    2.4099 H   0  0  0  0  0  0  0  0  0  0  0  0
   -0.9564   -0.7752    3.3236 H   0  0  0  0  0  0  0  0  0  0  0  0
    0.6579    1.2869   -1.1256 N   0  0  0  0  0  2  0  0  0  0  0  0
    1.7711    1.9669   -1.1651 N   0  0  0  0  0  0  0  0  0  0  0  0
    1.6253    2.9142   -2.1617 C   0  0  0  0  0  0  0  0  0  0  0  0
    2.7365    3.8646   -2.4688 C   0  0  0  0  0  0  0  0  0  0  0  0
    2.9930    4.4752   -1.5792 H   0  0  0  0  0  0  0  0  0  0  0  0
    2.4550    4.5491   -3.2898 H   0  0  0  0  0  0  0  0  0  0  0  0
    3.6578    3.3240   -2.7669 H   0  0  0  0  0  0  0  0  0  0  0  0
  1 18  1  0  0  0  0
  2 13  1  0  0  0  0
  3  4  1  0  0  0  0
  3  1  1  0  0  0  0
  4  5  1  0  0  0  0
  6  7  1  0  0  0  0
  6  4  2  0  0  0  0
  8 11  1  0  0  0  0
  8 22  1  0  0  0  0
  9 24  1  0  0  0  0
  9  8  2  0  0  0  0
 10  9  1  0  0  0  0
 11  2  1  0  0  0  0
 12 11  1  0  0  0  0
 13  3  2  0  0  0  0
 14 16  2  0  0  0  0
 14 13  1  0  0  0  0
 15 14  1  0  0  0  0
 16  6  1  0  0  0  0
 17 16  1  0  0  0  0
 18 19  1  0  0  0  0
 18 21  1  0  0  0  0
 20 18  1  0  0  0  0
 23 22  1  0  0  0  0
 24 23  2  0  0  0  0
 25 24  1  0  0  0  0
 25 26  1  0  0  0  0
 27 25  1  0  0  0  0
 28 25  1  0  0  0  0
M  END
