1,3,4
q = -1.0

 40 40  0  0  1  0  0  0  0  0999 V2000
   -0.9744    1.5474    0.6315 S   0  0  0  0  0  1  0  0  0  0  0  0
   -2.4906    4.1123    0.5631 S   0  0  0  0  0  0  0  0  0  0  0  0
   -3.1436   -0.5953   -0.4181 N   0  0  0  0  0  2  0  0  0  0  0  0
   -1.3475   -2.7702   -0.2964 N   0  0  0  0  0  0  0  0  0  0  0  0
   -2.4406    2.3630    0.2647 C   0  0  1  0  0  3  0  0  0  0  0  0
   -0.8331    4.5039    1.1861 C   0  0  0  0  0  0  0  0  0  0  0  0
   -3.6318    1.8314   -0.2490 C   0  0  0  0  0  0  0  0  0  0  0  0
   -4.8612    2.6922   -0.5006 C   0  0  0  0  0  0  0  0  0  0  0  0
   -5.7723    1.7983   -1.3565 C   0  0  0  0  0  0  0  0  0  0  0  0
   -5.4000    0.3663   -0.9472 C   0  0  0  0  0  0  0  0  0  0  0  0
   -3.9364    0.4643   -0.5284 C   0  0  0  0  0  0  0  0  0  0  0  0
   -3.7042   -1.9382   -0.5816 C   0  0  0  0  0  0  0  0  0  0  0  0
   -2.6284   -2.9134   -1.0422 C   0  0  0  0  0  0  0  0  0  0  0  0
   -0.1998   -3.2303   -1.1472 C   0  0  0  0  0  0  0  0  0  0  0  0
    0.1267   -2.3495   -2.3448 C   0  0  0  0  0  0  0  0  0  0  0  0
   -1.3061   -3.5695    0.9703 C   0  0  0  0  0  0  0  0  0  0  0  0
   -2.3636   -3.2415    2.0139 C   0  0  0  0  0  0  0  0  0  0  0  0
   -0.8496    5.5945    1.3755 H   0  0  0  0  0  0  0  0  0  0  0  0
   -0.0553    4.2625    0.4364 H   0  0  0  0  0  0  0  0  0  0  0  0
   -0.6202    3.9617    2.1274 H   0  0  0  0  0  0  0  0  0  0  0  0
   -4.6151    3.6504   -1.0047 H   0  0  0  0  0  0  0  0  0  0  0  0
   -5.3475    2.9667    0.4646 H   0  0  0  0  0  0  0  0  0  0  0  0
   -5.5281    1.9426   -2.4293 H   0  0  0  0  0  0  0  0  0  0  0  0
   -6.8500    2.0186   -1.2294 H   0  0  0  0  0  0  0  0  0  0  0  0
   -5.5732   -0.3696   -1.7577 H   0  0  0  0  0  0  0  0  0  0  0  0
   -5.9992    0.0179   -0.0746 H   0  0  0  0  0  0  0  0  0  0  0  0
   -4.5176   -1.9529   -1.3371 H   0  0  0  0  0  0  0  0  0  0  0  0
   -4.1641   -2.2666    0.3743 H   0  0  0  0  0  0  0  0  0  0  0  0
   -2.9929   -3.9638   -0.9737 H   0  0  0  0  0  0  0  0  0  0  0  0
   -2.4090   -2.7054   -2.1063 H   0  0  0  0  0  0  0  0  0  0  0  0
   -0.4210   -4.2750   -1.4705 H   0  0  0  0  0  0  0  0  0  0  0  0
    0.6781   -3.2797   -0.4759 H   0  0  0  0  0  0  0  0  0  0  0  0
    0.9834   -2.7951   -2.8886 H   0  0  0  0  0  0  0  0  0  0  0  0
   -0.7096   -2.2643   -3.0674 H   0  0  0  0  0  0  0  0  0  0  0  0
    0.4207   -1.3311   -2.0225 H   0  0  0  0  0  0  0  0  0  0  0  0
   -0.3060   -3.3656    1.4032 H   0  0  0  0  0  0  0  0  0  0  0  0
   -1.3569   -4.6481    0.6893 H   0  0  0  0  0  0  0  0  0  0  0  0
   -2.0918   -3.7519    2.9588 H   0  0  0  0  0  0  0  0  0  0  0  0
   -2.3897   -2.1513    2.2194 H   0  0  0  0  0  0  0  0  0  0  0  0
   -3.3808   -3.5826    1.7387 H   0  0  0  0  0  0  0  0  0  0  0  0
  2  6  1  0  0  0  0
  4 16  1  0  0  0  0
  5  2  1  0  0  0  0
  5  1  1  6  0  0  0
  6 18  1  0  0  0  0
  6 20  1  0  0  0  0
  7  5  1  0  0  0  0
  8  7  1  0  0  0  0
  8 22  1  0  0  0  0
  9 24  1  0  0  0  0
  9 10  1  0  0  0  0
  9  8  1  0  0  0  0
 10 11  1  0  0  0  0
 10 26  1  0  0  0  0
 11  3  1  0  0  0  0
 11  7  2  0  0  0  0
 12  3  1  0  0  0  0
 12 28  1  0  0  0  0
 13 29  1  0  0  0  0
 13 12  1  0  0  0  0
 13  4  1  0  0  0  0
 14 32  1  0  0  0  0
 14  4  1  0  0  0  0
 15 35  1  0  0  0  0
 15 14  1  0  0  0  0
 16 36  1  0  0  0  0
 16 17  1  0  0  0  0
 17 39  1  0  0  0  0
 17 38  1  0  0  0  0
 19  6  1  0  0  0  0
 21  8  1  0  0  0  0
 23  9  1  0  0  0  0
 25 10  1  0  0  0  0
 27 12  1  0  0  0  0
 30 13  1  0  0  0  0
 31 14  1  0  0  0  0
 33 15  1  0  0  0  0
 34 15  1  0  0  0  0
 37 16  1  0  0  0  0
 40 17  1  0  0  0  0
M  END
