1,3,5
q = -2.0, confidence = 0.824

 28 30  0  0  1  0  0  0  0  0999 V2000
   -2.1664    1.3250   -0.0671 S   0  0  0  0  0  1  0  0  0  0  0  0
    2.3491   -3.2171    0.3395 S   0  0  0  0  0  0  0  0  0  0  0  0
   -1.1612   -1.5281    0.1515 N   0  0  0  0  0  2  0  0  0  0  0  0
   -0.2845   -2.5707    0.3235 N   0  0  0  0  0  0  0  0  0  0  0  0
    1.2727   -0.8446   -0.0642 N   0  0  0  0  0  2  0  0  0  0  0  0
   -2.4356   -1.8910    0.1505 C   0  0  0  0  0  0  0  0  0  0  0  0
   -3.6059   -1.0824    0.0018 C   0  0  0  0  0  0  0  0  0  0  0  0
   -3.6011    0.3448   -0.1132 C   0  0  1  0  0  3  0  0  0  0  0  0
   -4.8401    1.0244   -0.2459 C   0  0  0  0  0  0  0  0  0  0  0  0
   -6.0488    0.3306   -0.2732 C   0  0  0  0  0  0  0  0  0  0  0  0
   -6.0634   -1.0778   -0.1584 C   0  0  0  0  0  0  0  0  0  0  0  0
   -4.8614   -1.7612   -0.0207 C   0  0  0  0  0  0  0  0  0  0  0  0
    0.9517   -2.1444    0.2044 C   0  0  0  0  0  0  0  0  0  0  0  0
    3.4024   -1.8573   -0.0518 C   0  0  0  0  0  0  0  0  0  0  0  0
    4.7947   -1.8793   -0.1867 C   0  0  0  0  0  0  0  0  0  0  0  0
    5.4552   -0.6978   -0.5624 C   0  0  0  0  0  0  0  0  0  0  0  0
    4.7149    0.4699   -0.8185 C   0  0  0  0  0  0  0  0  0  0  0  0
    3.3189    0.4942   -0.6822 C   0  0  0  0  0  0  0  0  0  0  0  0
    2.6358   -0.6688   -0.2656 C   0  0  0  0  0  0  0  0  0  0  0  0
   -2.5866   -2.9763    0.2834 H   0  0  0  0  0  0  0  0  0  0  0  0
   -4.8281    2.1219   -0.3285 H   0  0  0  0  0  0  0  0  0  0  0  0
   -6.9922    0.8872   -0.3815 H   0  0  0  0  0  0  0  0  0  0  0  0
   -7.0154   -1.6283   -0.1759 H   0  0  0  0  0  0  0  0  0  0  0  0
   -4.8580   -2.8587    0.0715 H   0  0  0  0  0  0  0  0  0  0  0  0
    2.7634    1.4066   -0.9270 H   0  0  0  0  0  0  0  0  0  0  0  0
    5.2339    1.3842   -1.1439 H   0  0  0  0  0  0  0  0  0  0  0  0
    6.5494   -0.6964   -0.6735 H   0  0  0  0  0  0  0  0  0  0  0  0
    5.3569   -2.8086   -0.0129 H   0  0  0  0  0  0  0  0  0  0  0  0
  3  4  1  0  0  0  0
  5 13  1  0  0  0  0
  6  3  1  0  0  0  0
  6 20  1  0  0  0  0
  7  6  2  0  0  0  0
  8  1  1  1  0  0  0
  8  7  1  0  0  0  0
  9  8  1  0  0  0  0
 10  9  2  0  0  0  0
 10 11  1  0  0  0  0
 11 12  2  0  0  0  0
 12  7  1  0  0  0  0
 12 24  1  0  0  0  0
 13  4  2  0  0  0  0
 13  2  1  0  0  0  0
 14  2  1  0  0  0  0
 15 14  1  0  0  0  0
 15 28  1  0  0  0  0
 16 15  2  0  0  0  0
 17 18  2  0  0  0  0
 17 16  1  0  0  0  0
 18 19  1  0  0  0  0
 19  5  1  0  0  0  0
 19 14  2  0  0  0  0
 21  9  1  0  0  0  0
 22 10  1  0  0  0  0
 23 11  1  0  0  0  0
 25 18  1  0  0  0  0
 26 17  1  0  0  0  0
 27 16  1  0  0  0  0
M  END
