1,2,3
q = -1.0, confidence = 0.0

 28 28  0  0  0  0  0  0  0  0999 V2000
   -0.0528    1.5032   -0.7908 S   0  0  0  0  0  1  0  0  0  0  0  0
   -2.9506   -1.4217    0.1528 N   0  0  0  0  0  0  0  0  0  0  0  0
   -2.9558    1.2008   -0.1711 N   0  0  0  0  0  0  0  0  0  0  0  0
   -2.7031   -2.8482   -0.1105 C   0  0  0  0  0  0  0  0  0  0  0  0
   -2.5115   -2.9965   -1.1891 H   0  0  0  0  0  0  0  0  0  0  0  0
   -3.5704   -3.4694    0.2125 H   0  0  0  0  0  0  0  0  0  0  0  0
   -1.7908   -3.1582    0.4351 H   0  0  0  0  0  0  0  0  0  0  0  0
   -3.0808   -1.2061    1.6208 C   0  0  0  0  0  0  0  0  0  0  0  0
   -2.0605   -1.3228    2.0391 H   0  0  0  0  0  0  0  0  0  0  0  0
   -3.7242   -2.0112    2.0549 H   0  0  0  0  0  0  0  0  0  0  0  0
   -3.6980    0.1442    1.9880 C   0  0  0  0  0  0  0  0  0  0  0  0
   -4.7903    0.1141    1.7909 H   0  0  0  0  0  0  0  0  0  0  0  0
   -3.6036    0.2788    3.0848 H   0  0  0  0  0  0  0  0  0  0  0  0
   -3.0899    1.3696    1.3040 C   0  0  0  0  0  0  0  0  0  0  0  0
   -2.0779    1.5810    1.6995 H   0  0  0  0  0  0  0  0  0  0  0  0
   -3.7367    2.2567    1.5167 H   0  0  0  0  0  0  0  0  0  0  0  0
   -4.1372   -0.9585   -0.6023 C   0  0  0  0  0  0  0  0  0  0  0  0
   -5.0749   -1.3344   -0.1266 H   0  0  0  0  0  0  0  0  0  0  0  0
   -4.0733   -1.4278   -1.6015 H   0  0  0  0  0  0  0  0  0  0  0  0
   -4.1594    0.5813   -0.7671 C   0  0  0  0  0  0  0  0  0  0  0  0
   -5.0876    1.0294   -0.3411 H   0  0  0  0  0  0  0  0  0  0  0  0
   -4.1465    0.8300   -1.8439 H   0  0  0  0  0  0  0  0  0  0  0  0
   -2.6116    2.4908   -0.8360 C   0  0  0  0  0  0  0  0  0  0  0  0
   -3.3771    3.2619   -0.5678 H   0  0  0  0  0  0  0  0  0  0  0  0
   -2.6597    2.3062   -1.9274 H   0  0  0  0  0  0  0  0  0  0  0  0
   -1.2009    2.9125   -0.4766 C   0  0  0  0  0  0  0  0  0  0  0  0
   -1.1433    3.2554    0.5804 H   0  0  0  0  0  0  0  0  0  0  0  0
   -0.8999    3.7755   -1.1061 H   0  0  0  0  0  0  0  0  0  0  0  0
  1 26  1  0  0  0  0
  2  8  1  0  0  0  0
  3 14  1  0  0  0  0
  4  2  1  0  0  0  0
  4  6  1  0  0  0  0
  4  7  1  0  0  0  0
  5  4  1  0  0  0  0
  8 11  1  0  0  0  0
  8  9  1  0  0  0  0
  8 10  1  0  0  0  0
 11 13  1  0  0  0  0
 12 11  1  0  0  0  0
 14 16  1  0  0  0  0
 14 15  1  0  0  0  0
 14 11  1  0  0  0  0
 17 18  1  0  0  0  0
 17  2  1  0  0  0  0
 19 17  1  0  0  0  0
 20 17  1  0  0  0  0
 20 21  1  0  0  0  0
 20  3  1  0  0  0  0
 22 20  1  0  0  0  0
 23 24  1  0  0  0  0
 23 26  1  0  0  0  0
 23  3  1  0  0  0  0
 25 23  1  0  0  0  0
 26 27  1  0  0  0  0
 28 26  1  0  0  0  0
M  END
