1,2,3
q = -1.0

 26 27  0  0  1  0  0  0  0  0999 V2000
    0.8352    2.1749    2.0701 S   0  0  0  0  0  1  0  0  0  0  0  0
   -2.2030    1.1867    0.3173 N   0  0  0  0  0  2  0  0  0  0  0  0
    0.2957    0.5953   -0.6132 N   0  0  0  0  0  0  0  0  0  0  0  0
    0.9959   -0.1882   -0.6971 H   0  0  0  0  0  0  0  0  0  0  0  0
   -2.1047    1.0449   -1.0180 C   0  0  2  0  0  3  0  0  0  0  0  0
   -3.1689    1.4010   -1.8642 C   0  0  0  0  0  0  0  0  0  0  0  0
   -3.0639    1.2830   -2.9527 H   0  0  0  0  0  0  0  0  0  0  0  0
   -4.3503    1.8935   -1.2994 C   0  0  0  0  0  0  0  0  0  0  0  0
   -5.1977    2.1756   -1.9424 H   0  0  0  0  0  0  0  0  0  0  0  0
   -4.4405    2.0252    0.0960 C   0  0  0  0  0  0  0  0  0  0  0  0
   -5.3506    2.4083    0.5788 H   0  0  0  0  0  0  0  0  0  0  0  0
   -3.3341    1.6589    0.8684 C   0  0  0  0  0  0  0  0  0  0  0  0
   -3.3419    1.7352    1.9678 H   0  0  0  0  0  0  0  0  0  0  0  0
   -0.8264    0.4218   -1.5424 C   0  0  0  0  0  0  0  0  0  0  0  0
   -1.0159   -0.6682   -1.6574 H   0  0  0  0  0  0  0  0  0  0  0  0
   -0.6152    0.8192   -2.5586 H   0  0  0  0  0  0  0  0  0  0  0  0
    1.3368    2.6095    0.4358 C   0  0  0  0  0  0  0  0  0  0  0  0
    1.0386    1.8433   -0.7314 C   0  0  0  0  0  0  0  0  0  0  0  0
    1.5412    2.2355   -1.9852 C   0  0  0  0  0  0  0  0  0  0  0  0
    1.3288    1.6077   -2.8651 H   0  0  0  0  0  0  0  0  0  0  0  0
    2.3219    3.3891   -2.1335 C   0  0  0  0  0  0  0  0  0  0  0  0
    2.7038    3.6777   -3.1237 H   0  0  0  0  0  0  0  0  0  0  0  0
    2.6106    4.1612   -0.9940 C   0  0  0  0  0  0  0  0  0  0  0  0
    3.2200    5.0739   -1.0837 H   0  0  0  0  0  0  0  0  0  0  0  0
    2.1284    3.7764    0.2597 C   0  0  0  0  0  0  0  0  0  0  0  0
    2.3594    4.3790    1.1510 H   0  0  0  0  0  0  0  0  0  0  0  0
  2 12  1  0  0  0  0
  4  3  1  0  0  0  0
  5 14  1  1  0  0  0
  5  2  1  0  0  0  0
  6  8  2  0  0  0  0
  6  5  1  0  0  0  0
  7  6  1  0  0  0  0
  8 10  1  0  0  0  0
  9  8  1  0  0  0  0
 10 11  1  0  0  0  0
 10 12  2  0  0  0  0
 12 13  1  0  0  0  0
 14  3  1  0  0  0  0
 15 14  1  0  0  0  0
 16 14  1  0  0  0  0
 17  1  1  0  0  0  0
 18  3  1  0  0  0  0
 18 17  2  0  0  0  0
 19 18  1  0  0  0  0
 20 19  1  0  0  0  0
 21 19  2  0  0  0  0
 21 23  1  0  0  0  0
 22 21  1  0  0  0  0
 23 25  2  0  0  0  0
 24 23  1  0  0  0  0
 25 17  1  0  0  0  0
 25 26  1  0  0  0  0
M  END
