1,2,4
q = -1.0

 23 24  0  0  0  0  0  0  0  0999 V2000
    1.2087   -1.0423   -1.9614 S   0  0  0  0  0  1  0  0  0  0  0  0
   -0.5502    1.4673    1.1225 N   0  0  0  0  0  2  0  0  0  0  0  0
    1.7108    2.0805    0.8685 N   0  0  0  0  0  2  0  0  0  0  0  0
    1.6557    1.0863    0.0080 N   0  0  0  0  0  2  0  0  0  0  0  0
   -1.7769    1.7112    1.6408 C   0  0  0  0  0  3  0  0  0  0  0  0
   -2.0175    2.7664    2.5216 C   0  0  0  0  0  0  0  0  0  0  0  0
   -0.9520    3.6177    2.8824 C   0  0  0  0  0  0  0  0  0  0  0  0
    0.3103    3.3891    2.3413 C   0  0  0  0  0  0  0  0  0  0  0  0
    0.4997    2.3113    1.4438 C   0  0  0  0  0  0  0  0  0  0  0  0
    2.8479    0.7244   -0.6339 C   0  0  0  0  0  0  0  0  0  0  0  0
    4.0883    1.3487   -0.3541 C   0  0  0  0  0  0  0  0  0  0  0  0
    5.2324    0.9414   -1.0333 C   0  0  0  0  0  0  0  0  0  0  0  0
    5.1496   -0.0890   -2.0031 C   0  0  0  0  0  0  0  0  0  0  0  0
    3.9343   -0.7091   -2.2865 C   0  0  0  0  0  0  0  0  0  0  0  0
    2.7516   -0.3224   -1.6035 C   0  0  0  0  0  0  0  0  0  0  0  0
   -2.5795    1.0257    1.3316 H   0  0  0  0  0  0  0  0  0  0  0  0
   -3.0309    2.9147    2.9192 H   0  0  0  0  0  0  0  0  0  0  0  0
   -1.1161    4.4556    3.5758 H   0  0  0  0  0  0  0  0  0  0  0  0
    1.1779    4.0221    2.5703 H   0  0  0  0  0  0  0  0  0  0  0  0
    4.1053    2.1482    0.3984 H   0  0  0  0  0  0  0  0  0  0  0  0
    6.1994    1.4202   -0.8198 H   0  0  0  0  0  0  0  0  0  0  0  0
    6.0567   -0.4067   -2.5399 H   0  0  0  0  0  0  0  0  0  0  0  0
    3.8716   -1.5085   -3.0397 H   0  0  0  0  0  0  0  0  0  0  0  0
  1 15  1  0  0  0  0
  2  9  1  0  0  0  0
  2  5  1  0  0  0  0
  3  9  1  0  0  0  0
  4  3  1  0  0  0  0
  5  6  1  0  0  0  0
  6  7  2  0  0  0  0
  6 17  1  0  0  0  0
  7 18  1  0  0  0  0
  8 19  1  0  0  0  0
  8  7  1  0  0  0  0
  9  8  2  0  0  0  0
 10 11  1  0  0  0  0
 10  4  1  0  0  0  0
 11 20  1  0  0  0  0
 12 21  1  0  0  0  0
 12 11  2  0  0  0  0
 13 12  1  0  0  0  0
 14 13  2  0  0  0  0
 14 15  1  0  0  0  0
 15 10  2  0  0  0  0
 16  5  1  0  0  0  0
 22 13  1  0  0  0  0
 23 14  1  0  0  0  0
M  END
