1,2,3
q = -1.0, confidence = 0.004

 33 35  0  0  0  0  0  0  0  0999 V2000
    1.6882    2.4516    0.2044 S   0  0  0  0  0  1  0  0  0  0  0  0
    1.0244   -1.8351   -0.1232 N   0  0  0  0  0  2  0  0  0  0  0  0
   -0.4461    0.3715   -0.1095 N   0  0  0  0  0  2  0  0  0  0  0  0
   -3.1065   -0.4616    1.2514 N   0  0  0  0  0  0  0  0  0  0  0  0
   -0.3393   -2.0087   -0.1114 C   0  0  0  0  0  0  0  0  0  0  0  0
   -0.8741   -3.3131   -0.1038 C   0  0  0  0  0  0  0  0  0  0  0  0
   -1.9622   -3.4519   -0.0619 H   0  0  0  0  0  0  0  0  0  0  0  0
   -0.0097   -4.4164   -0.1388 C   0  0  0  0  0  0  0  0  0  0  0  0
   -0.4220   -5.4363   -0.1339 H   0  0  0  0  0  0  0  0  0  0  0  0
    1.3754   -4.2064   -0.1706 C   0  0  0  0  0  0  0  0  0  0  0  0
    2.0860   -5.0442   -0.1944 H   0  0  0  0  0  0  0  0  0  0  0  0
    1.8563   -2.8881   -0.1537 C   0  0  0  0  0  0  0  0  0  0  0  0
    2.9285   -2.6285   -0.1438 H   0  0  0  0  0  0  0  0  0  0  0  0
   -1.1326   -0.7799   -0.0884 C   0  0  0  0  0  0  0  0  0  0  0  0
   -0.0199    2.7484   -0.0098 C   0  0  0  0  0  0  0  0  0  0  0  0
   -0.9633    1.6816   -0.1973 C   0  0  0  0  0  0  0  0  0  0  0  0
   -2.3116    2.0005   -0.5091 C   0  0  0  0  0  0  0  0  0  0  0  0
   -3.0296    1.2085   -0.7422 H   0  0  0  0  0  0  0  0  0  0  0  0
   -2.7371    3.3246   -0.5630 C   0  0  0  0  0  0  0  0  0  0  0  0
   -3.7834    3.5491   -0.8156 H   0  0  0  0  0  0  0  0  0  0  0  0
   -1.8245    4.3719   -0.3002 C   0  0  0  0  0  0  0  0  0  0  0  0
   -2.1639    5.4185   -0.3270 H   0  0  0  0  0  0  0  0  0  0  0  0
   -0.4883    4.0864   -0.0362 C   0  0  0  0  0  0  0  0  0  0  0  0
    0.2374    4.8962    0.1324 H   0  0  0  0  0  0  0  0  0  0  0  0
   -2.6131   -0.8880    0.0714 C   0  0  0  0  0  0  0  0  0  0  0  0
   -3.4224   -1.4366   -0.9462 C   0  0  0  0  0  0  0  0  0  0  0  0
   -2.9722   -1.7673   -1.8941 H   0  0  0  0  0  0  0  0  0  0  0  0
   -4.8051   -1.5183   -0.7295 C   0  0  0  0  0  0  0  0  0  0  0  0
   -5.4686   -1.9280   -1.5063 H   0  0  0  0  0  0  0  0  0  0  0  0
   -5.3243   -1.0597    0.4895 C   0  0  0  0  0  0  0  0  0  0  0  0
   -6.4029   -1.0994    0.7017 H   0  0  0  0  0  0  0  0  0  0  0  0
   -4.4289   -0.5463    1.4451 C   0  0  0  0  0  0  0  0  0  0  0  0
   -4.8024   -0.1853    2.4200 H   0  0  0  0  0  0  0  0  0  0  0  0
  2  5  1  0  0  0  0
  3 14  1  0  0  0  0
  4 32  1  0  0  0  0
  5  6  1  0  0  0  0
  5 14  2  0  0  0  0
  6  7  1  0  0  0  0
  8  9  1  0  0  0  0
  8  6  2  0  0  0  0
 10 12  2  0  0  0  0
 10  8  1  0  0  0  0
 11 10  1  0  0  0  0
 12 13  1  0  0  0  0
 12  2  1  0  0  0  0
 14 25  1  0  0  0  0
 15  1  1  0  0  0  0
 16  3  1  0  0  0  0
 16 15  2  0  0  0  0
 17 16  1  0  0  0  0
 18 17  1  0  0  0  0
 19 17  2  0  0  0  0
 19 21  1  0  0  0  0
 20 19  1  0  0  0  0
 21 23  2  0  0  0  0
 22 21  1  0  0  0  0
 23 15  1  0  0  0  0
 23 24  1  0  0  0  0
 25  4  2  0  0  0  0
 26 28  2  0  0  0  0
 26 25  1  0  0  0  0
 27 26  1  0  0  0  0
 28 30  1  0  0  0  0
 29 28  1  0  0  0  0
 30 31  1  0  0  0  0
 30 32  2  0  0  0  0
 32 33  1  0  0  0  0
M  END
