1,2,3
q = -1.0, confidence = 0.0

 34 36  0  0  0  0  0  0  0  0999 V2000
   -1.9613    2.4451    0.1923 S   0  0  0  0  0  1  0  0  0  0  0  0
   -1.2461   -1.8139   -0.1214 N   0  0  0  0  0  2  0  0  0  0  0  0
    0.2170    0.4114   -0.1168 N   0  0  0  0  0  2  0  0  0  0  0  0
    0.1150   -1.9703   -0.1077 C   0  0  0  0  0  0  0  0  0  0  0  0
    0.6711   -3.2660   -0.1020 C   0  0  0  0  0  0  0  0  0  0  0  0
    1.7618   -3.3866   -0.0671 H   0  0  0  0  0  0  0  0  0  0  0  0
   -0.1806   -4.3794   -0.1357 C   0  0  0  0  0  0  0  0  0  0  0  0
    0.2439   -5.3944   -0.1340 H   0  0  0  0  0  0  0  0  0  0  0  0
   -1.5684   -4.1872   -0.1641 C   0  0  0  0  0  0  0  0  0  0  0  0
   -2.2677   -5.0345   -0.1869 H   0  0  0  0  0  0  0  0  0  0  0  0
   -2.0648   -2.8733   -0.1481 C   0  0  0  0  0  0  0  0  0  0  0  0
   -3.1404   -2.6243   -0.1382 H   0  0  0  0  0  0  0  0  0  0  0  0
    0.9044   -0.7319   -0.0842 C   0  0  0  0  0  0  0  0  0  0  0  0
   -0.2572    2.7728   -0.0090 C   0  0  0  0  0  0  0  0  0  0  0  0
    0.7117    1.7270   -0.1909 C   0  0  0  0  0  0  0  0  0  0  0  0
    2.0607    2.0756   -0.4772 C   0  0  0  0  0  0  0  0  0  0  0  0
    2.7984    1.2964   -0.6908 H   0  0  0  0  0  0  0  0  0  0  0  0
    2.4573    3.4090   -0.5195 C   0  0  0  0  0  0  0  0  0  0  0  0
    3.5029    3.6571   -0.7525 H   0  0  0  0  0  0  0  0  0  0  0  0
    1.5176    4.4357   -0.2700 C   0  0  0  0  0  0  0  0  0  0  0  0
    1.8344    5.4897   -0.2900 H   0  0  0  0  0  0  0  0  0  0  0  0
    0.1845    4.1213   -0.0244 C   0  0  0  0  0  0  0  0  0  0  0  0
   -0.5598    4.9155    0.1381 H   0  0  0  0  0  0  0  0  0  0  0  0
    2.3813   -0.8455    0.0644 C   0  0  0  0  0  0  0  0  0  0  0  0
    3.1876   -1.3224   -0.9910 C   0  0  0  0  0  0  0  0  0  0  0  0
    2.7218   -1.5822   -1.9538 H   0  0  0  0  0  0  0  0  0  0  0  0
    4.5757   -1.4377   -0.8223 C   0  0  0  0  0  0  0  0  0  0  0  0
    5.1987   -1.7991   -1.6543 H   0  0  0  0  0  0  0  0  0  0  0  0
    5.1679   -1.0894    0.4021 C   0  0  0  0  0  0  0  0  0  0  0  0
    6.2568   -1.1793    0.5327 H   0  0  0  0  0  0  0  0  0  0  0  0
    4.3677   -0.6299    1.4615 C   0  0  0  0  0  0  0  0  0  0  0  0
    4.8276   -0.3630    2.4249 H   0  0  0  0  0  0  0  0  0  0  0  0
    2.9816   -0.5096    1.2971 C   0  0  0  0  0  0  0  0  0  0  0  0
    2.3513   -0.1420    2.1207 H   0  0  0  0  0  0  0  0  0  0  0  0
  2  4  1  0  0  0  0
  3 13  1  0  0  0  0
  4  5  1  0  0  0  0
  4 13  2  0  0  0  0
  5  6  1  0  0  0  0
  7  8  1  0  0  0  0
  7  5  2  0  0  0  0
  9 11  2  0  0  0  0
  9  7  1  0  0  0  0
 10  9  1  0  0  0  0
 11 12  1  0  0  0  0
 11  2  1  0  0  0  0
 13 24  1  0  0  0  0
 14  1  1  0  0  0  0
 15  3  1  0  0  0  0
 15 14  2  0  0  0  0
 16 15  1  0  0  0  0
 17 16  1  0  0  0  0
 18 16  2  0  0  0  0
 18 20  1  0  0  0  0
 19 18  1  0  0  0  0
 20 22  2  0  0  0  0
 21 20  1  0  0  0  0
 22 14  1  0  0  0  0
 22 23  1  0  0  0  0
 24 33  1  0  0  0  0
 25 27  1  0  0  0  0
 25 24  2  0  0  0  0
 26 25  1  0  0  0  0
 27 29  2  0  0  0  0
 28 27  1  0  0  0  0
 29 30  1  0  0  0  0
 29 31  1  0  0  0  0
 31 32  1  0  0  0  0
 33 31  2  0  0  0  0
 33 34  1  0  0  0  0
M  END
