1,2,5
q = -1.0

 28 28  0  0  1  0  0  0  0  0999 V2000
    0.5320   -1.5806   -1.6521 S   0  0  0  0  0  1  0  0  0  0  0  0
   -1.5390    0.3577   -1.0762 N   0  0  0  0  0  2  0  0  0  0  0  0
   -2.0974   -0.8280   -1.2990 N   0  0  0  0  0  2  0  0  0  0  0  0
   -1.7050   -3.0826   -1.6265 N   0  0  0  0  0  0  0  0  0  0  0  0
   -0.1975    2.5084   -0.3929 N   0  0  0  0  0  2  0  0  0  0  0  0
   -1.5731    2.6194   -0.4448 C   0  0  0  0  0  0  0  0  0  0  0  0
   -2.1793    3.8457   -0.0831 C   0  0  0  0  0  0  0  0  0  0  0  0
   -1.3870    4.9254    0.3156 C   0  0  0  0  0  0  0  0  0  0  0  0
    0.0103    4.7803    0.3592 C   0  0  0  0  0  0  0  0  0  0  0  0
    0.5609    3.5437    0.0012 C   0  0  0  0  0  0  0  0  0  0  0  0
   -2.3037    1.4276   -0.8349 C   0  0  0  0  0  0  0  0  0  0  0  0
   -3.7929    1.3193   -0.8926 C   0  0  0  0  0  0  0  0  0  0  0  0
   -1.2115   -1.8188   -1.5140 C   0  0  2  0  0  3  0  0  0  0  0  0
   -3.0838   -3.3808   -1.2633 C   0  0  0  0  0  0  0  0  0  0  0  0
   -0.8065   -4.2151   -1.7649 C   0  0  0  0  0  0  0  0  0  0  0  0
   -3.2729    3.9384   -0.1139 H   0  0  0  0  0  0  0  0  0  0  0  0
   -1.8591    5.8790    0.5959 H   0  0  0  0  0  0  0  0  0  0  0  0
    0.6682    5.6041    0.6682 H   0  0  0  0  0  0  0  0  0  0  0  0
    1.6457    3.3434    0.0266 H   0  0  0  0  0  0  0  0  0  0  0  0
   -4.0940    0.7428   -1.7891 H   0  0  0  0  0  0  0  0  0  0  0  0
   -4.1738    0.7561   -0.0130 H   0  0  0  0  0  0  0  0  0  0  0  0
   -4.2839    2.3087   -0.9202 H   0  0  0  0  0  0  0  0  0  0  0  0
   -3.6723   -2.4490   -1.2855 H   0  0  0  0  0  0  0  0  0  0  0  0
   -3.5097   -4.1159   -1.9762 H   0  0  0  0  0  0  0  0  0  0  0  0
   -3.1262   -3.8036   -0.2350 H   0  0  0  0  0  0  0  0  0  0  0  0
    0.0075   -3.9775   -2.4763 H   0  0  0  0  0  0  0  0  0  0  0  0
   -0.3451   -4.4921   -0.7901 H   0  0  0  0  0  0  0  0  0  0  0  0
   -1.3788   -5.0805   -2.1503 H   0  0  0  0  0  0  0  0  0  0  0  0
  2 11  1  0  0  0  0
  3  2  1  0  0  0  0
  4 13  1  0  0  0  0
  4 14  1  0  0  0  0
  5 10  1  0  0  0  0
  6  5  1  0  0  0  0
  6  7  1  0  0  0  0
  7  8  2  0  0  0  0
  8  9  1  0  0  0  0
  8 17  1  0  0  0  0
  9 18  1  0  0  0  0
 10 19  1  0  0  0  0
 10  9  2  0  0  0  0
 11  6  2  0  0  0  0
 12 11  1  0  0  0  0
 12 21  1  0  0  0  0
 13  1  1  1  0  0  0
 13  3  1  0  0  0  0
 14 25  1  0  0  0  0
 15  4  1  0  0  0  0
 15 27  1  0  0  0  0
 16  7  1  0  0  0  0
 20 12  1  0  0  0  0
 22 12  1  0  0  0  0
 23 14  1  0  0  0  0
 24 14  1  0  0  0  0
 26 15  1  0  0  0  0
 28 15  1  0  0  0  0
M  END
