1,3,4
q = -1.0, confidence = 0.0

 35 36  0  0  0  0  0  0  0  0999 V2000
    0.2866   -0.2039   -1.9334 S   0  0  0  0  0  1  0  0  0  0  0  0
    1.7066    0.5370    0.2814 N   0  0  0  0  0  0  0  0  0  0  0  0
    0.9847   -0.4429    0.8096 N   0  0  0  0  0  2  0  0  0  0  0  0
   -0.5376   -2.3779    1.5484 N   0  0  0  0  0  2  0  0  0  0  0  0
    2.0946    1.7447   -1.6434 N   0  0  0  0  0  0  0  0  0  0  0  0
    1.9154    1.8590   -2.6428 H   0  0  0  0  0  0  0  0  0  0  0  0
    1.4392    0.7452   -1.0228 C   0  0  0  0  0  0  0  0  0  0  0  0
    3.1420    2.5450   -1.0159 C   0  0  0  0  0  0  0  0  0  0  0  0
    3.2044    3.5081   -1.5597 H   0  0  0  0  0  0  0  0  0  0  0  0
    2.8268    2.7660    0.0220 H   0  0  0  0  0  0  0  0  0  0  0  0
    4.5168    1.8461   -0.9980 C   0  0  0  0  0  0  0  0  0  0  0  0
    4.8447    1.6487   -2.0396 H   0  0  0  0  0  0  0  0  0  0  0  0
    4.3909    0.8638   -0.4967 H   0  0  0  0  0  0  0  0  0  0  0  0
    5.5448    2.6768   -0.2665 C   0  0  0  0  0  0  0  0  0  0  0  0
    6.4372    3.5131   -0.9655 C   0  0  0  0  0  0  0  0  0  0  0  0
    6.4178    3.5273   -2.0672 H   0  0  0  0  0  0  0  0  0  0  0  0
    7.3559    4.3180   -0.2744 C   0  0  0  0  0  0  0  0  0  0  0  0
    8.0511    4.9603   -0.8357 H   0  0  0  0  0  0  0  0  0  0  0  0
    7.3911    4.3006    1.1283 C   0  0  0  0  0  0  0  0  0  0  0  0
    8.1127    4.9295    1.6708 H   0  0  0  0  0  0  0  0  0  0  0  0
    6.5044    3.4733    1.8366 C   0  0  0  0  0  0  0  0  0  0  0  0
    6.5307    3.4520    2.9366 H   0  0  0  0  0  0  0  0  0  0  0  0
    5.5884    2.6696    1.1432 C   0  0  0  0  0  0  0  0  0  0  0  0
    4.8959    2.0180    1.7012 H   0  0  0  0  0  0  0  0  0  0  0  0
    1.1194   -0.7797    2.0843 C   0  0  0  0  0  0  0  0  0  0  0  0
    1.8236   -0.2412    2.7358 H   0  0  0  0  0  0  0  0  0  0  0  0
    0.2788   -1.8611    2.5251 C   0  0  0  0  0  0  0  0  0  0  0  0
    0.2464   -2.3825    3.8353 C   0  0  0  0  0  0  0  0  0  0  0  0
    0.9081   -1.9557    4.6021 H   0  0  0  0  0  0  0  0  0  0  0  0
   -0.6318   -3.4287    4.1315 C   0  0  0  0  0  0  0  0  0  0  0  0
   -0.6726   -3.8458    5.1484 H   0  0  0  0  0  0  0  0  0  0  0  0
   -1.4642   -3.9362    3.1194 C   0  0  0  0  0  0  0  0  0  0  0  0
   -2.1734   -4.7523    3.3140 H   0  0  0  0  0  0  0  0  0  0  0  0
   -1.3855   -3.3791    1.8372 C   0  0  0  0  0  0  0  0  0  0  0  0
   -2.0254   -3.7340    1.0160 H   0  0  0  0  0  0  0  0  0  0  0  0
  1  7  1  0  0  0  0
  2  3  1  0  0  0  0
  3 25  1  0  0  0  0
  4 34  1  0  0  0  0
  4 27  1  0  0  0  0
  5  7  1  0  0  0  0
  5  8  1  0  0  0  0
  6  5  1  0  0  0  0
  7  2  2  0  0  0  0
  8 11  1  0  0  0  0
  8 10  1  0  0  0  0
  9  8  1  0  0  0  0
 11 13  1  0  0  0  0
 11 14  1  0  0  0  0
 12 11  1  0  0  0  0
 14 23  1  0  0  0  0
 15 17  1  0  0  0  0
 15 14  2  0  0  0  0
 16 15  1  0  0  0  0
 17 19  2  0  0  0  0
 18 17  1  0  0  0  0
 19 20  1  0  0  0  0
 19 21  1  0  0  0  0
 21 22  1  0  0  0  0
 23 24  1  0  0  0  0
 23 21  2  0  0  0  0
 25 27  2  0  0  0  0
 25 26  1  0  0  0  0
 27 28  1  0  0  0  0
 28 30  2  0  0  0  0
 28 29  1  0  0  0  0
 30 31  1  0  0  0  0
 32 33  1  0  0  0  0
 32 30  1  0  0  0  0
 34 32  2  0  0  0  0
 35 34  1  0  0  0  0
M  END
