1,4,5
q = -1.0, confidence = 0.004

 27 27  0  0  1  0  0  0  0  0999 V2000
   -0.9642    2.4659   -0.6282 S   0  0  0  0  0  1  0  0  0  0  0  0
    0.0139    5.0486    0.4583 S   0  0  0  0  0  0  0  0  0  0  0  0
   -1.5110   -2.9314   -0.1694 S   0  0  0  0  0  0  0  0  0  0  0  0
   -0.0751   -1.1494    1.2314 N   0  0  0  0  0  2  0  0  0  0  0  0
    0.3790    1.3572    1.5201 N   0  0  0  0  0  2  0  0  0  0  0  0
    0.1632   -3.4449    1.8291 N   0  0  0  0  0  0  0  0  0  0  0  0
    0.5413    2.6881    1.5936 N   0  0  0  0  0  0  0  0  0  0  0  0
   -0.3578   -2.4714    1.0845 C   0  0  1  0  0  3  0  0  0  0  0  0
   -1.5696   -4.7292    0.0689 C   0  0  0  0  0  0  0  0  0  0  0  0
   -2.2828   -5.0972   -0.6931 H   0  0  0  0  0  0  0  0  0  0  0  0
   -1.9317   -4.9754    1.0833 H   0  0  0  0  0  0  0  0  0  0  0  0
   -0.5717   -5.1769   -0.0875 H   0  0  0  0  0  0  0  0  0  0  0  0
    1.0001   -3.1348    2.8439 C   0  0  0  0  0  0  0  0  0  0  0  0
    1.5587   -4.2764    3.6374 C   0  0  0  0  0  0  0  0  0  0  0  0
    2.0945   -4.9762    2.9643 H   0  0  0  0  0  0  0  0  0  0  0  0
    0.7324   -4.8564    4.0971 H   0  0  0  0  0  0  0  0  0  0  0  0
    2.2473   -3.9370    4.4319 H   0  0  0  0  0  0  0  0  0  0  0  0
    1.3068   -1.7952    3.1187 C   0  0  0  0  0  0  0  0  0  0  0  0
    1.9655   -1.5073    3.9487 H   0  0  0  0  0  0  0  0  0  0  0  0
    0.7550   -0.8100    2.2792 C   0  0  0  0  0  0  0  0  0  0  0  0
    0.9823    0.5910    2.4219 C   0  0  0  0  0  3  0  0  0  0  0  0
    1.6080    1.0434    3.2042 H   0  0  0  0  0  0  0  0  0  0  0  0
   -0.0650    3.3156    0.6018 C   0  0  0  0  0  0  0  0  0  0  0  0
    1.0769    5.4783    1.8708 C   0  0  0  0  0  0  0  0  0  0  0  0
    1.1772    6.5795    1.8375 H   0  0  0  0  0  0  0  0  0  0  0  0
    2.0666    4.9978    1.7648 H   0  0  0  0  0  0  0  0  0  0  0  0
    0.6023    5.1637    2.8180 H   0  0  0  0  0  0  0  0  0  0  0  0
  1 23  1  0  0  0  0
  2 23  1  0  0  0  0
  2 24  1  0  0  0  0
  3  9  1  0  0  0  0
  4 20  1  0  0  0  0
  5  7  1  0  0  0  0
  5 21  1  0  0  0  0
  6 13  2  0  0  0  0
  8  3  1  1  0  0  0
  8  4  1  0  0  0  0
  8  6  1  0  0  0  0
  9 11  1  0  0  0  0
 10  9  1  0  0  0  0
 12  9  1  0  0  0  0
 13 18  1  0  0  0  0
 13 14  1  0  0  0  0
 14 16  1  0  0  0  0
 14 17  1  0  0  0  0
 15 14  1  0  0  0  0
 18 19  1  0  0  0  0
 20 21  1  0  0  0  0
 20 18  2  0  0  0  0
 21 22  1  0  0  0  0
 23  7  2  0  0  0  0
 24 27  1  0  0  0  0
 25 24  1  0  0  0  0
 26 24  1  0  0  0  0
M  END
