1,3,5
q = -1.0, confidence = 0.002

 56 58  0  0  1  0  0  0  0  0999 V2000
   -0.0419    0.5653   -1.1910 S   0  0  0  0  0  1  0  0  0  0  0  0
   -2.4407   -1.5094   -1.2273 N   0  0  0  0  0  0  0  0  0  0  0  0
   -1.3626   -2.3205   -1.0890 N   0  0  0  0  0  2  0  0  0  0  0  0
   -2.5797   -1.2619    1.1617 N   0  0  0  0  0  0  0  0  0  0  0  0
   -1.2939   -1.2561    1.5953 N   0  0  0  0  0  2  0  0  0  0  0  0
   -1.4231    1.4754   -0.5346 C   0  0  0  0  0  0  0  0  0  0  0  0
   -1.3621    2.9164   -0.4277 C   0  0  0  0  0  0  0  0  0  0  0  0
   -0.0839    3.7475   -0.7228 C   0  0  0  0  0  0  0  0  0  0  0  0
   -0.2932    5.2538   -0.4594 C   0  0  0  0  0  0  0  0  0  0  0  0
   -1.0679    5.6980   -1.1172 H   0  0  0  0  0  0  0  0  0  0  0  0
    0.6571    5.7845   -0.6674 H   0  0  0  0  0  0  0  0  0  0  0  0
   -0.5632    5.4647    0.5952 H   0  0  0  0  0  0  0  0  0  0  0  0
    0.3142    3.6176   -2.2127 C   0  0  0  0  0  0  0  0  0  0  0  0
   -0.4991    3.9981   -2.8645 H   0  0  0  0  0  0  0  0  0  0  0  0
    0.5284    2.5713   -2.4961 H   0  0  0  0  0  0  0  0  0  0  0  0
    1.2232    4.2227   -2.4112 H   0  0  0  0  0  0  0  0  0  0  0  0
    1.0645    3.2964    0.2097 C   0  0  0  0  0  0  0  0  0  0  0  0
    1.9877    3.8678   -0.0172 H   0  0  0  0  0  0  0  0  0  0  0  0
    1.2825    2.2210    0.0910 H   0  0  0  0  0  0  0  0  0  0  0  0
    0.8020    3.4818    1.2708 H   0  0  0  0  0  0  0  0  0  0  0  0
   -2.5150    3.6041   -0.0117 C   0  0  0  0  0  0  0  0  0  0  0  0
   -2.4761    4.6981    0.0676 H   0  0  0  0  0  0  0  0  0  0  0  0
   -3.7344    2.9832    0.3150 C   0  0  0  0  0  0  0  0  0  0  0  0
   -4.9312    3.7944    0.7408 C   0  0  0  0  0  0  0  0  0  0  0  0
   -5.8087    3.1517    0.9506 H   0  0  0  0  0  0  0  0  0  0  0  0
   -5.2269    4.5249   -0.0413 H   0  0  0  0  0  0  0  0  0  0  0  0
   -4.7166    4.3812    1.6587 H   0  0  0  0  0  0  0  0  0  0  0  0
   -3.7721    1.5920    0.2242 C   0  0  0  0  0  0  0  0  0  0  0  0
   -4.7120    1.0679    0.4695 H   0  0  0  0  0  0  0  0  0  0  0  0
   -2.6518    0.8364   -0.1814 C   0  0  0  0  0  0  0  0  0  0  0  0
   -2.9302   -0.6693   -0.1271 C   0  0  1  0  0  0  0  0  0  0  0  0
   -4.0312   -0.7617   -0.1725 H   0  0  0  0  0  0  0  0  0  0  0  0
   -2.9160   -1.4980   -2.5093 C   0  0  1  0  0  3  0  0  0  0  0  0
   -4.0720   -0.6553   -2.9310 C   0  0  0  0  0  0  0  0  0  0  0  0
   -3.8638    0.4214   -2.7622 H   0  0  0  0  0  0  0  0  0  0  0  0
   -4.9981   -0.9047   -2.3698 H   0  0  0  0  0  0  0  0  0  0  0  0
   -4.2794   -0.8084   -4.0054 H   0  0  0  0  0  0  0  0  0  0  0  0
   -2.1043   -2.3833   -3.2233 C   0  0  0  0  0  0  0  0  0  0  0  0
   -2.1962   -2.6377   -4.2842 H   0  0  0  0  0  0  0  0  0  0  0  0
   -1.1444   -2.8692   -2.3023 C   0  0  0  0  0  0  0  0  0  0  0  0
   -0.0145   -3.8219   -2.5235 C   0  0  0  0  0  0  0  0  0  0  0  0
    0.8926   -3.4904   -1.9758 H   0  0  0  0  0  0  0  0  0  0  0  0
    0.2244   -3.8995   -3.6004 H   0  0  0  0  0  0  0  0  0  0  0  0
   -0.2681   -4.8384   -2.1564 H   0  0  0  0  0  0  0  0  0  0  0  0
   -1.2976   -1.7216    2.8578 C   0  0  2  0  0  3  0  0  0  0  0  0
   -0.0295   -1.8616    3.6331 C   0  0  0  0  0  0  0  0  0  0  0  0
    0.3251   -0.8722    3.9876 H   0  0  0  0  0  0  0  0  0  0  0  0
    0.7746   -2.2764    2.9900 H   0  0  0  0  0  0  0  0  0  0  0  0
   -0.1776   -2.5150    4.5123 H   0  0  0  0  0  0  0  0  0  0  0  0
   -2.6310   -2.0185    3.2369 C   0  0  0  0  0  0  0  0  0  0  0  0
   -2.9722   -2.4135    4.1992 H   0  0  0  0  0  0  0  0  0  0  0  0
   -3.4327   -1.7165    2.1346 C   0  0  0  0  0  0  0  0  0  0  0  0
   -4.9115   -1.8173    1.9576 C   0  0  0  0  0  0  0  0  0  0  0  0
   -5.1846   -2.4220    1.0683 H   0  0  0  0  0  0  0  0  0  0  0  0
   -5.3867   -0.8198    1.8512 H   0  0  0  0  0  0  0  0  0  0  0  0
   -5.3573   -2.3046    2.8437 H   0  0  0  0  0  0  0  0  0  0  0  0
  1  6  1  0  0  0  0
  2  3  1  0  0  0  0
  2 31  1  0  0  0  0
  4  5  1  0  0  0  0
  4 52  1  0  0  0  0
  5 45  1  0  0  0  0
  6  7  2  0  0  0  0
  6 30  1  0  0  0  0
  7 21  1  0  0  0  0
  8  9  1  0  0  0  0
  8  7  1  0  0  0  0
  8 17  1  0  0  0  0
  9 12  1  0  0  0  0
 10  9  1  0  0  0  0
 11  9  1  0  0  0  0
 13  8  1  0  0  0  0
 14 13  1  0  0  0  0
 15 13  1  0  0  0  0
 16 13  1  0  0  0  0
 17 20  1  0  0  0  0
 18 17  1  0  0  0  0
 19 17  1  0  0  0  0
 21 22  1  0  0  0  0
 21 23  2  0  0  0  0
 23 24  1  0  0  0  0
 24 25  1  0  0  0  0
 24 27  1  0  0  0  0
 26 24  1  0  0  0  0
 28 23  1  0  0  0  0
 28 29  1  0  0  0  0
 30 31  1  0  0  0  0
 30 28  2  0  0  0  0
 31 32  1  6  0  0  0
 31  4  1  0  0  0  0
 33 34  1  6  0  0  0
 33  2  1  0  0  0  0
 34 35  1  0  0  0  0
 34 36  1  0  0  0  0
 37 34  1  0  0  0  0
 38 33  1  0  0  0  0
 38 40  2  0  0  0  0
 39 38  1  0  0  0  0
 40  3  1  0  0  0  0
 41 40  1  0  0  0  0
 41 44  1  0  0  0  0
 41 42  1  0  0  0  0
 43 41  1  0  0  0  0
 45 50  1  0  0  0  0
 45 46  1  6  0  0  0
 46 47  1  0  0  0  0
 46 49  1  0  0  0  0
 48 46  1  0  0  0  0
 50 51  1  0  0  0  0
 52 50  2  0  0  0  0
 53 52  1  0  0  0  0
 53 56  1  0  0  0  0
 54 53  1  0  0  0  0
 55 53  1  0  0  0  0
M  END
