1,20,21
q = -1.0

 25 26  0  0  1  0  0  0  0  0999 V2000
    1.7400    1.4464   -2.0681 S   0  0  0  0  0  1  0  0  0  0  0  0
   -1.3229   -1.3188    1.7759 C   0  0  0  0  0  0  0  0  0  0  0  0
   -0.2732   -1.6580    1.7744 H   0  0  0  0  0  0  0  0  0  0  0  0
   -2.3335   -2.0805    2.4094 C   0  0  0  0  0  0  0  0  0  0  0  0
   -2.0771   -3.0226    2.9149 H   0  0  0  0  0  0  0  0  0  0  0  0
   -3.6344   -1.6100    2.3611 C   0  0  0  0  0  0  0  0  0  0  0  0
   -4.4598   -2.1683    2.8305 H   0  0  0  0  0  0  0  0  0  0  0  0
   -3.9228   -0.3792    1.7068 C   0  0  0  0  0  0  0  0  0  0  0  0
   -5.2397    0.1580    1.6738 C   0  0  0  0  0  0  0  0  0  0  0  0
   -6.0593   -0.4068    2.1439 H   0  0  0  0  0  0  0  0  0  0  0  0
   -5.4669    1.3845    1.0666 C   0  0  0  0  0  0  0  0  0  0  0  0
   -6.4792    1.8150    1.0443 H   0  0  0  0  0  0  0  0  0  0  0  0
   -4.3996    2.0927    0.4778 C   0  0  0  0  0  0  0  0  0  0  0  0
   -4.5991    3.0706    0.0129 H   0  0  0  0  0  0  0  0  0  0  0  0
   -3.0792    1.6018    0.4410 C   0  0  0  0  0  0  0  0  0  0  0  0
   -2.8257    0.3267    1.0836 C   0  0  1  0  0  3  0  0  0  0  0  0
   -2.1058    2.4777   -0.1896 C   0  0  0  0  0  3  0  0  0  0  0  0
   -2.4443    3.5191   -0.3671 H   0  0  0  0  0  0  0  0  0  0  0  0
    0.9715    2.9620   -1.7036 C   0  0  0  0  0  0  0  0  0  0  0  0
   -1.5603   -0.1800    1.1321 N   0  0  0  0  0  2  0  0  0  0  0  0
   -0.8914    2.1918   -0.6046 N   0  0  0  0  0  2  0  0  0  0  0  0
   -0.2062    3.2208   -1.1129 N   0  0  0  0  0  0  0  0  0  0  0  0
    1.6464    4.0873   -2.0806 N   0  0  0  0  0  0  0  0  0  0  0  0
    1.1526    4.9778   -2.0038 H   0  0  0  0  0  0  0  0  0  0  0  0
    2.4521    3.9970   -2.6956 H   0  0  0  0  0  0  0  0  0  0  0  0
  1 19  1  0  0  0  0
  2  4  2  0  0  0  0
  3  2  1  0  0  0  0
  4  5  1  0  0  0  0
  6  4  1  0  0  0  0
  6  7  1  0  0  0  0
  8  6  2  0  0  0  0
  9  8  1  0  0  0  0
  9 10  1  0  0  0  0
 11  9  2  0  0  0  0
 12 11  1  0  0  0  0
 13 11  1  0  0  0  0
 14 13  1  0  0  0  0
 15 13  2  0  0  0  0
 16 15  1  1  0  0  0
 16 20  1  0  0  0  0
 16  8  1  0  0  0  0
 17 15  1  0  0  0  0
 18 17  1  0  0  0  0
 19 22  2  0  0  0  0
 20  2  1  0  0  0  0
 21 17  1  0  0  0  0
 22 21  1  0  0  0  0
 23 24  1  0  0  0  0
 23 19  1  0  0  0  0
 25 23  1  0  0  0  0
M  END
