1,4,5
q = -1.0

 21 21  0  0  0  0  0  0  0  0999 V2000
    1.0108    1.2607    2.0477 S   0  0  0  0  0  1  0  0  0  0  0  0
   -3.3902   -0.7875   -2.1958 S   0  0  0  0  0  0  0  0  0  0  0  0
   -1.2958    2.4474    1.1922 N   0  0  0  0  0  0  0  0  0  0  0  0
   -1.3365    1.3523    0.4425 N   0  0  0  0  0  2  0  0  0  0  0  0
   -1.1326   -0.8098   -0.8697 N   0  0  0  0  0  2  0  0  0  0  0  0
   -0.2204    2.4938    2.0000 C   0  0  0  0  0  0  0  0  0  0  0  0
   -0.1131    3.5671    2.8059 N   0  0  0  0  0  0  0  0  0  0  0  0
   -0.8540    4.2696    2.7998 H   0  0  0  0  0  0  0  0  0  0  0  0
    0.6526    3.6472    3.4729 H   0  0  0  0  0  0  0  0  0  0  0  0
   -3.4754    2.1344   -0.5523 C   0  0  0  0  0  0  0  0  0  0  0  0
   -3.0888    3.1459   -0.7927 H   0  0  0  0  0  0  0  0  0  0  0  0
   -4.0312    2.2349    0.4031 H   0  0  0  0  0  0  0  0  0  0  0  0
   -4.1775    1.8176   -1.3453 H   0  0  0  0  0  0  0  0  0  0  0  0
   -2.3526    1.1657   -0.4046 C   0  0  0  0  0  0  0  0  0  0  0  0
   -2.2098   -0.0890   -1.1057 C   0  0  0  0  0  0  0  0  0  0  0  0
   -1.1829   -2.1512   -1.4327 C   0  0  0  0  0  0  0  0  0  0  0  0
   -1.5298   -2.8482   -0.6342 H   0  0  0  0  0  0  0  0  0  0  0  0
   -0.1748   -2.4813   -1.7536 H   0  0  0  0  0  0  0  0  0  0  0  0
   -2.1638   -2.1114   -2.6153 C   0  0  0  0  0  0  0  0  0  0  0  0
   -2.7041   -3.0646   -2.7627 H   0  0  0  0  0  0  0  0  0  0  0  0
   -1.6692   -1.8234   -3.5644 H   0  0  0  0  0  0  0  0  0  0  0  0
  2 15  1  0  0  0  0
  3  6  2  0  0  0  0
  4  3  1  0  0  0  0
  6  1  1  0  0  0  0
  6  7  1  0  0  0  0
  7  9  1  0  0  0  0
  8  7  1  0  0  0  0
 10 14  1  0  0  0  0
 10 12  1  0  0  0  0
 11 10  1  0  0  0  0
 13 10  1  0  0  0  0
 14  4  1  0  0  0  0
 15  5  1  0  0  0  0
 15 14  2  0  0  0  0
 16  5  1  0  0  0  0
 16 17  1  0  0  0  0
 18 16  1  0  0  0  0
 19  2  1  0  0  0  0
 19 16  1  0  0  0  0
 20 19  1  0  0  0  0
 21 19  1  0  0  0  0
M  END
