1,2,3
q = -2.0, confidence = 0.88

 30 31  0  0  0  0  0  0  0  0999 V2000
   -1.4234    1.4007   -0.0936 S   0  0  0  0  0  1  0  0  0  0  0  0
    0.5446   -2.4399   -0.0013 N   0  0  0  0  0  2  0  0  0  0  0  0
   -1.8989   -1.4455    0.0104 N   0  0  0  0  0  2  0  0  0  0  0  0
   -3.0898   -0.7985    0.0041 N   0  0  0  0  0  0  0  0  0  0  0  0
   -4.0780    1.3315   -0.0541 N   0  0  0  0  0  0  0  0  0  0  0  0
   -3.8405    2.3241   -0.0928 H   0  0  0  0  0  0  0  0  0  0  0  0
    1.6897   -3.1675   -0.0337 C   0  0  0  0  0  3  0  0  0  0  0  0
    2.6728   -2.6830   -0.0850 H   0  0  0  0  0  0  0  0  0  0  0  0
    1.3844   -4.5477   -0.0026 C   0  0  0  0  0  0  0  0  0  0  0  0
    2.1111   -5.3683   -0.0181 H   0  0  0  0  0  0  0  0  0  0  0  0
   -0.0216   -4.6540    0.0457 C   0  0  0  0  0  0  0  0  0  0  0  0
   -0.6152   -5.5756    0.0723 H   0  0  0  0  0  0  0  0  0  0  0  0
   -0.5248   -3.3306    0.0445 C   0  0  0  0  0  0  0  0  0  0  0  0
   -1.8455   -2.7753    0.0514 C   0  0  0  0  0  0  0  0  0  0  0  0
   -3.0975   -3.5932    0.0938 C   0  0  0  0  0  0  0  0  0  0  0  0
   -3.7271   -3.3780   -0.7938 H   0  0  0  0  0  0  0  0  0  0  0  0
   -3.7058   -3.3172    0.9794 H   0  0  0  0  0  0  0  0  0  0  0  0
   -2.8715   -4.6735    0.1283 H   0  0  0  0  0  0  0  0  0  0  0  0
   -2.9763    0.5071   -0.0398 C   0  0  0  0  0  0  0  0  0  0  0  0
   -5.4476    1.0465   -0.0286 C   0  0  0  0  0  0  0  0  0  0  0  0
   -5.9758   -0.2642    0.0249 C   0  0  0  0  0  0  0  0  0  0  0  0
   -5.2806   -1.1114    0.0472 H   0  0  0  0  0  0  0  0  0  0  0  0
   -7.3653   -0.4489    0.0480 C   0  0  0  0  0  0  0  0  0  0  0  0
   -7.7625   -1.4750    0.0897 H   0  0  0  0  0  0  0  0  0  0  0  0
   -8.2488    0.6411    0.0187 C   0  0  0  0  0  0  0  0  0  0  0  0
   -9.3368    0.4802    0.0372 H   0  0  0  0  0  0  0  0  0  0  0  0
   -7.7225    1.9429   -0.0348 C   0  0  0  0  0  0  0  0  0  0  0  0
   -8.3960    2.8132   -0.0588 H   0  0  0  0  0  0  0  0  0  0  0  0
   -6.3396    2.1465   -0.0584 C   0  0  0  0  0  0  0  0  0  0  0  0
   -5.9339    3.1706   -0.1007 H   0  0  0  0  0  0  0  0  0  0  0  0
  1 19  1  0  0  0  0
  2 13  1  0  0  0  0
  3 14  1  0  0  0  0
  4  3  1  0  0  0  0
  5 19  1  0  0  0  0
  5 20  1  0  0  0  0
  6  5  1  0  0  0  0
  7  9  1  0  0  0  0
  7  2  1  0  0  0  0
  8  7  1  0  0  0  0
  9 11  2  0  0  0  0
 10  9  1  0  0  0  0
 11 12  1  0  0  0  0
 13 11  1  0  0  0  0
 13 14  2  0  0  0  0
 14 15  1  0  0  0  0
 15 18  1  0  0  0  0
 15 17  1  0  0  0  0
 16 15  1  0  0  0  0
 19  4  2  0  0  0  0
 20 21  1  0  0  0  0
 21 22  1  0  0  0  0
 21 23  2  0  0  0  0
 23 24  1  0  0  0  0
 25 26  1  0  0  0  0
 25 23  1  0  0  0  0
 27 25  2  0  0  0  0
 28 27  1  0  0  0  0
 29 27  1  0  0  0  0
 29 20  2  0  0  0  0
 30 29  1  0  0  0  0
M  END
