1,5,6
q = -2.0, confidence = 0.83

 29 31  0  0  1  0  0  0  0  0999 V2000
   -1.3880    0.6143   -2.3466 S   0  0  0  0  0  1  0  0  0  0  0  0
    2.7250   -2.7980    1.1594 S   0  0  0  0  0  0  0  0  0  0  0  0
   -2.3095   -3.4941   -0.7378 O   0  0  0  0  0  0  0  0  0  0  0  0
    0.4119   -3.9552   -0.5639 O   0  0  0  0  0  0  0  0  0  0  0  0
   -0.6940   -1.8401   -0.6998 N   0  0  0  0  0  2  0  0  0  0  0  0
    1.2579   -0.7159    0.6399 N   0  0  0  0  0  2  0  0  0  0  0  0
   -2.9229   -0.0221   -1.7766 C   0  0  0  0  0  0  0  0  0  0  0  0
   -4.0730    0.7855   -1.9796 C   0  0  0  0  0  0  0  0  0  0  0  0
   -3.9342    1.7726   -2.4466 H   0  0  0  0  0  0  0  0  0  0  0  0
   -5.3416    0.3618   -1.5755 C   0  0  0  0  0  0  0  0  0  0  0  0
   -6.2108    1.0214   -1.7293 H   0  0  0  0  0  0  0  0  0  0  0  0
   -5.4988   -0.8934   -0.9596 C   0  0  0  0  0  0  0  0  0  0  0  0
   -6.4914   -1.2338   -0.6264 H   0  0  0  0  0  0  0  0  0  0  0  0
   -4.3763   -1.7053   -0.7732 C   0  0  0  0  0  0  0  0  0  0  0  0
   -4.4571   -2.7028   -0.3168 H   0  0  0  0  0  0  0  0  0  0  0  0
   -3.0826   -1.2946   -1.1601 C   0  0  0  0  0  0  0  0  0  0  0  0
   -1.9919   -2.3098   -0.8889 C   0  0  0  0  0  0  0  0  0  0  0  0
    0.3275   -2.7438   -0.3889 C   0  0  0  0  0  0  0  0  0  0  0  0
    1.3797   -2.0061    0.3822 C   0  0  2  0  0  3  0  0  0  0  0  0
    3.1451   -1.2662    1.9135 C   0  0  0  0  0  0  0  0  0  0  0  0
    2.2158   -0.2538    1.5239 C   0  0  0  0  0  0  0  0  0  0  0  0
    2.3246    1.0457    2.0592 C   0  0  0  0  0  0  0  0  0  0  0  0
    1.6006    1.8146    1.7625 H   0  0  0  0  0  0  0  0  0  0  0  0
    3.3728    1.3187    2.9401 C   0  0  0  0  0  0  0  0  0  0  0  0
    3.4756    2.3329    3.3538 H   0  0  0  0  0  0  0  0  0  0  0  0
    4.3069    0.3204    3.2997 C   0  0  0  0  0  0  0  0  0  0  0  0
    5.1290    0.5663    3.9889 H   0  0  0  0  0  0  0  0  0  0  0  0
    4.2005   -0.9815    2.7948 C   0  0  0  0  0  0  0  0  0  0  0  0
    4.9204   -1.7616    3.0825 H   0  0  0  0  0  0  0  0  0  0  0  0
  1  7  1  0  0  0  0
  2 20  1  0  0  0  0
  4 18  2  0  0  0  0
  5 18  1  0  0  0  0
  6 21  1  0  0  0  0
  7 16  1  0  0  0  0
  8  7  2  0  0  0  0
  8 10  1  0  0  0  0
  9  8  1  0  0  0  0
 10 12  2  0  0  0  0
 11 10  1  0  0  0  0
 12 14  1  0  0  0  0
 12 13  1  0  0  0  0
 14 15  1  0  0  0  0
 16 17  1  0  0  0  0
 16 14  2  0  0  0  0
 17  3  2  0  0  0  0
 17  5  1  0  0  0  0
 19 18  1  1  0  0  0
 19  6  1  0  0  0  0
 19  2  1  0  0  0  0
 20 28  1  0  0  0  0
 21 20  2  0  0  0  0
 21 22  1  0  0  0  0
 22 24  2  0  0  0  0
 23 22  1  0  0  0  0
 24 26  1  0  0  0  0
 24 25  1  0  0  0  0
 26 27  1  0  0  0  0
 28 29  1  0  0  0  0
 28 26  2  0  0  0  0
M  END
