1,2,3
q = -1.0

 22 22  0  0  1  0  0  0  0  0999 V2000
   -0.4330   -1.5427   -1.9926 S   0  0  0  0  0  1  0  0  0  0  0  0
    0.6833    1.2078    0.9479 N   0  0  0  0  0  2  0  0  0  0  0  0
    1.7775   -0.6584   -0.4195 N   0  0  0  0  0  2  0  0  0  0  0  0
    2.1784   -1.6577   -1.2066 N   0  0  0  0  0  0  0  0  0  0  0  0
    1.5356   -3.1458   -2.8289 N   0  0  0  0  0  0  0  0  0  0  0  0
    0.0161    2.1745    1.5993 C   0  0  0  0  0  3  0  0  0  0  0  0
    0.6336    2.9803    2.5641 C   0  0  0  0  0  0  0  0  0  0  0  0
    1.9909    2.7674    2.8531 C   0  0  0  0  0  0  0  0  0  0  0  0
    2.6873    1.7653    2.1697 C   0  0  0  0  0  0  0  0  0  0  0  0
    2.0124    0.9877    1.2064 C   0  0  0  0  0  0  0  0  0  0  0  0
    2.6255   -0.0700    0.4219 C   0  0  2  0  0  3  0  0  0  0  0  0
    1.2063   -2.1393   -1.9947 C   0  0  0  0  0  0  0  0  0  0  0  0
    4.0632   -0.4544    0.5393 C   0  0  0  0  0  0  0  0  0  0  0  0
   -1.0405    2.3109    1.3266 H   0  0  0  0  0  0  0  0  0  0  0  0
    0.0528    3.7626    3.0716 H   0  0  0  0  0  0  0  0  0  0  0  0
    2.5052    3.3835    3.6051 H   0  0  0  0  0  0  0  0  0  0  0  0
    3.7510    1.5782    2.3694 H   0  0  0  0  0  0  0  0  0  0  0  0
    4.3049   -0.8013    1.5659 H   0  0  0  0  0  0  0  0  0  0  0  0
    4.7243    0.4098    0.3204 H   0  0  0  0  0  0  0  0  0  0  0  0
    4.2898   -1.2653   -0.1744 H   0  0  0  0  0  0  0  0  0  0  0  0
    0.8530   -3.5305   -3.4793 H   0  0  0  0  0  0  0  0  0  0  0  0
    2.5015   -3.4738   -2.8575 H   0  0  0  0  0  0  0  0  0  0  0  0
  2 10  1  0  0  0  0
  2  6  1  0  0  0  0
  4  3  1  0  0  0  0
  5 12  1  0  0  0  0
  6  7  1  0  0  0  0
  7  8  2  0  0  0  0
  7 15  1  0  0  0  0
  8 16  1  0  0  0  0
  9 17  1  0  0  0  0
  9  8  1  0  0  0  0
 10  9  2  0  0  0  0
 11  3  1  6  0  0  0
 11 13  1  0  0  0  0
 11 10  1  0  0  0  0
 12  1  1  0  0  0  0
 12  4  2  0  0  0  0
 13 18  1  0  0  0  0
 14  6  1  0  0  0  0
 19 13  1  0  0  0  0
 20 13  1  0  0  0  0
 21  5  1  0  0  0  0
 22  5  1  0  0  0  0
M  END
