1,2,3
q = -2.0, confidence = 0.872

 40 43  0  0  0  0  0  0  0  0999 V2000
    1.1711   -0.8055   -0.0512 S   0  0  0  0  0  1  0  0  0  0  0  0
   -3.1578   -1.0695    0.3444 N   0  0  0  0  0  0  0  0  0  0  0  0
   -0.8606   -2.9259   -0.0570 N   0  0  0  0  0  2  0  0  0  0  0  0
    0.3986   -3.4357   -0.1433 N   0  0  0  0  0  0  0  0  0  0  0  0
    4.7868    0.2772    0.4062 N   0  0  0  0  0  0  0  0  0  0  0  0
    3.8442   -0.1243    0.3320 H   0  0  0  0  0  0  0  0  0  0  0  0
    3.7025   -2.2354   -0.1519 N   0  0  0  0  0  0  0  0  0  0  0  0
    2.6476   -3.0458   -0.2356 N   0  0  0  0  0  0  0  0  0  0  0  0
    2.7424   -4.0675   -0.3436 H   0  0  0  0  0  0  0  0  0  0  0  0
   -4.1466   -0.1300    0.6184 C   0  0  0  0  0  3  0  0  0  0  0  0
   -3.8873    0.9196    0.7882 H   0  0  0  0  0  0  0  0  0  0  0  0
   -5.4065   -0.7073    0.6547 C   0  0  0  0  0  0  0  0  0  0  0  0
   -6.3530   -0.1932    0.8557 H   0  0  0  0  0  0  0  0  0  0  0  0
   -5.2115   -2.1047    0.3955 C   0  0  0  0  0  0  0  0  0  0  0  0
   -6.0650   -3.2194    0.3048 C   0  0  0  0  0  0  0  0  0  0  0  0
   -7.1516   -3.0981    0.4368 H   0  0  0  0  0  0  0  0  0  0  0  0
   -5.5181   -4.4900    0.0501 C   0  0  0  0  0  0  0  0  0  0  0  0
   -6.1806   -5.3654   -0.0221 H   0  0  0  0  0  0  0  0  0  0  0  0
   -4.1335   -4.6593   -0.1003 C   0  0  0  0  0  3  0  0  0  0  0  0
   -3.7212   -5.6645   -0.2792 H   0  0  0  0  0  0  0  0  0  0  0  0
   -3.2305   -3.5654   -0.0167 C   0  0  0  0  0  0  0  0  0  0  0  0
   -3.7886   -2.2769    0.2161 C   0  0  0  0  0  0  0  0  0  0  0  0
   -1.8283   -3.8221   -0.1247 C   0  0  0  0  0  0  0  0  0  0  0  0
   -1.4946   -4.8662   -0.2642 H   0  0  0  0  0  0  0  0  0  0  0  0
    1.3632   -2.5491   -0.1377 C   0  0  0  0  0  0  0  0  0  0  0  0
    5.1380    1.5743    0.7231 C   0  0  0  0  0  0  0  0  0  0  0  0
    4.3606    2.3133    0.9424 H   0  0  0  0  0  0  0  0  0  0  0  0
    6.5184    1.7020    0.6982 C   0  0  0  0  0  0  0  0  0  0  0  0
    7.0876    2.6136    0.9096 H   0  0  0  0  0  0  0  0  0  0  0  0
    7.0502    0.4097    0.3517 C   0  0  0  0  0  0  0  0  0  0  0  0
    8.3499   -0.1171    0.1753 C   0  0  0  0  0  0  0  0  0  0  0  0
    9.2337    0.5275    0.2984 H   0  0  0  0  0  0  0  0  0  0  0  0
    8.4979   -1.4712   -0.1525 C   0  0  0  0  0  0  0  0  0  0  0  0
    9.5060   -1.8905   -0.2897 H   0  0  0  0  0  0  0  0  0  0  0  0
    7.3775   -2.3154   -0.3049 C   0  0  0  0  0  0  0  0  0  0  0  0
    7.5263   -3.3781   -0.5533 H   0  0  0  0  0  0  0  0  0  0  0  0
    6.0595   -1.8365   -0.1438 C   0  0  0  0  0  0  0  0  0  0  0  0
    5.9227   -0.4596    0.1799 C   0  0  0  0  0  0  0  0  0  0  0  0
    4.9094   -2.7102   -0.2766 C   0  0  0  0  0  0  0  0  0  0  0  0
    5.0909   -3.7913   -0.4732 H   0  0  0  0  0  0  0  0  0  0  0  0
  2 10  1  0  0  0  0
  4 25  2  0  0  0  0
  4  3  1  0  0  0  0
  5 26  1  0  0  0  0
  6  5  1  0  0  0  0
  8  7  1  0  0  0  0
  8 25  1  0  0  0  0
  9  8  1  0  0  0  0
 10 12  1  0  0  0  0
 10 11  1  0  0  0  0
 12 13  1  0  0  0  0
 14 12  2  0  0  0  0
 15 14  1  0  0  0  0
 15 16  1  0  0  0  0
 17 15  2  0  0  0  0
 18 17  1  0  0  0  0
 19 21  1  0  0  0  0
 19 17  1  0  0  0  0
 20 19  1  0  0  0  0
 21 22  1  0  0  0  0
 22  2  2  0  0  0  0
 22 14  1  0  0  0  0
 23  3  1  0  0  0  0
 23 21  2  0  0  0  0
 24 23  1  0  0  0  0
 25  1  1  0  0  0  0
 26 27  1  0  0  0  0
 28 26  2  0  0  0  0
 28 29  1  0  0  0  0
 30 28  1  0  0  0  0
 31 32  1  0  0  0  0
 31 30  2  0  0  0  0
 33 31  1  0  0  0  0
 34 33  1  0  0  0  0
 35 33  2  0  0  0  0
 35 37  1  0  0  0  0
 36 35  1  0  0  0  0
 37 38  2  0  0  0  0
 38 30  1  0  0  0  0
 38  5  1  0  0  0  0
 39  7  2  0  0  0  0
 39 37  1  0  0  0  0
 40 39  1  0  0  0  0
M  END
