1,2,4
q = -1.0

 38 40  0  0  1  0  0  0  0  0999 V2000
   -1.6634   -2.3648   -0.1988 S   0  0  0  0  0  1  0  0  0  0  0  0
    2.4919   -1.1706   -0.0818 N   0  0  0  0  0  2  0  0  0  0  0  0
    1.7323    3.0562   -0.6798 N   0  0  0  0  0  0  0  0  0  0  0  0
    0.1395   -0.0904   -0.0322 N   0  0  0  0  0  2  0  0  0  0  0  0
   -1.1178    0.3254   -0.0199 N   0  0  0  0  0  2  0  0  0  0  0  0
   -3.3210   -0.2711   -0.1494 N   0  0  0  0  0  0  0  0  0  0  0  0
    3.6494   -1.8497   -0.1744 C   0  0  0  0  0  3  0  0  0  0  0  0
    3.5520   -2.9457   -0.1565 H   0  0  0  0  0  0  0  0  0  0  0  0
    4.8822   -1.1995   -0.2879 C   0  0  0  0  0  0  0  0  0  0  0  0
    5.8081   -1.7869   -0.3564 H   0  0  0  0  0  0  0  0  0  0  0  0
    4.8897    0.2042   -0.3167 C   0  0  0  0  0  0  0  0  0  0  0  0
    5.8378    0.7552   -0.4100 H   0  0  0  0  0  0  0  0  0  0  0  0
    3.6847    0.9079   -0.2402 C   0  0  0  0  0  0  0  0  0  0  0  0
    3.6409    2.0008   -0.3128 H   0  0  0  0  0  0  0  0  0  0  0  0
    2.4713    0.1938   -0.1194 C   0  0  0  0  0  0  0  0  0  0  0  0
    1.1362    0.7980   -0.0261 C   0  0  1  0  0  3  0  0  0  0  0  0
    0.9200    2.2670    0.0579 C   0  0  0  0  0  0  0  0  0  0  0  0
   -0.0879    2.8099    0.8910 C   0  0  0  0  0  0  0  0  0  0  0  0
   -0.7198    2.1417    1.4877 H   0  0  0  0  0  0  0  0  0  0  0  0
   -0.2540    4.1974    0.9353 C   0  0  0  0  0  0  0  0  0  0  0  0
   -1.0239    4.6419    1.5847 H   0  0  0  0  0  0  0  0  0  0  0  0
    0.5719    5.0103    0.1441 C   0  0  0  0  0  0  0  0  0  0  0  0
    0.4680    6.1054    0.1399 H   0  0  0  0  0  0  0  0  0  0  0  0
    1.5540    4.3838   -0.6380 C   0  0  0  0  0  0  0  0  0  0  0  0
    2.2373    4.9864   -1.2628 H   0  0  0  0  0  0  0  0  0  0  0  0
   -2.0297   -0.6698   -0.1032 C   0  0  1  0  0  3  0  0  0  0  0  0
   -4.4583   -1.1859   -0.2827 C   0  0  0  0  0  0  0  0  0  0  0  0
   -4.6101   -1.7439    0.6692 H   0  0  0  0  0  0  0  0  0  0  0  0
   -4.2566   -1.9412   -1.0693 H   0  0  0  0  0  0  0  0  0  0  0  0
   -5.6302   -0.2500   -0.6059 C   0  0  0  0  0  0  0  0  0  0  0  0
   -5.6834   -0.0762   -1.7011 H   0  0  0  0  0  0  0  0  0  0  0  0
   -6.6038   -0.6672   -0.2852 H   0  0  0  0  0  0  0  0  0  0  0  0
   -5.2499    1.0505    0.1176 C   0  0  0  0  0  0  0  0  0  0  0  0
   -5.4738    0.9636    1.2016 H   0  0  0  0  0  0  0  0  0  0  0  0
   -5.7838    1.9417   -0.2648 H   0  0  0  0  0  0  0  0  0  0  0  0
   -3.7339    1.1390   -0.0971 C   0  0  0  0  0  0  0  0  0  0  0  0
   -3.4690    1.6489   -1.0502 H   0  0  0  0  0  0  0  0  0  0  0  0
   -3.1930    1.6687    0.7102 H   0  0  0  0  0  0  0  0  0  0  0  0
  3 24  2  0  0  0  0
  3 17  1  0  0  0  0
  4  5  1  0  0  0  0
  6 26  1  0  0  0  0
  6 36  1  0  0  0  0
  7  8  1  0  0  0  0
  7  2  1  0  0  0  0
  9  7  1  0  0  0  0
 10  9  1  0  0  0  0
 11  9  2  0  0  0  0
 11 13  1  0  0  0  0
 12 11  1  0  0  0  0
 13 15  2  0  0  0  0
 14 13  1  0  0  0  0
 15  2  1  0  0  0  0
 15 16  1  0  0  0  0
 16  4  1  6  0  0  0
 16 17  1  0  0  0  0
 17 18  2  0  0  0  0
 18 20  1  0  0  0  0
 18 19  1  0  0  0  0
 20 21  1  0  0  0  0
 22 20  2  0  0  0  0
 23 22  1  0  0  0  0
 24 22  1  0  0  0  0
 25 24  1  0  0  0  0
 26  1  1  6  0  0  0
 26  5  1  0  0  0  0
 27  6  1  0  0  0  0
 27 28  1  0  0  0  0
 29 27  1  0  0  0  0
 30 32  1  0  0  0  0
 30 27  1  0  0  0  0
 30 33  1  0  0  0  0
 31 30  1  0  0  0  0
 33 34  1  0  0  0  0
 35 33  1  0  0  0  0
 36 33  1  0  0  0  0
 36 38  1  0  0  0  0
 37 36  1  0  0  0  0
M  END
