1,2,3
q = -1.0

 32 33  0  0  0  0  0  0  0  0999 V2000
    0.7029   -2.0342    0.0002 S   0  0  0  0  0  1  0  0  0  0  0  0
   -2.6759    0.7796   -0.0002 N   0  0  0  0  0  2  0  0  0  0  0  0
    0.0053    0.7476    0.0000 N   0  0  0  0  0  2  0  0  0  0  0  0
    1.3403    0.6431    0.0001 N   0  0  0  0  0  0  0  0  0  0  0  0
    3.0972   -0.9056    0.0002 N   0  0  0  0  0  0  0  0  0  0  0  0
    3.2933   -1.9098    0.0003 H   0  0  0  0  0  0  0  0  0  0  0  0
   -4.7552   -0.5418   -0.0012 C   0  0  0  0  0  0  0  0  0  0  0  0
   -4.4631   -1.1564   -0.8757 H   0  0  0  0  0  0  0  0  0  0  0  0
   -5.8489   -0.3831   -0.0002 H   0  0  0  0  0  0  0  0  0  0  0  0
   -4.4616   -1.1586    0.8713 H   0  0  0  0  0  0  0  0  0  0  0  0
   -4.0312    0.7651   -0.0003 C   0  0  0  0  0  0  0  0  0  0  0  0
   -4.7599    1.9777    0.0002 C   0  0  0  0  0  0  0  0  0  0  0  0
   -5.8576    1.9298    0.0001 H   0  0  0  0  0  0  0  0  0  0  0  0
   -4.0946    3.2067    0.0006 C   0  0  0  0  0  0  0  0  0  0  0  0
   -4.6604    4.1502    0.0010 H   0  0  0  0  0  0  0  0  0  0  0  0
   -2.6978    3.2147    0.0006 C   0  0  0  0  0  0  0  0  0  0  0  0
   -2.1259    4.1531    0.0009 H   0  0  0  0  0  0  0  0  0  0  0  0
   -2.0087    1.9868    0.0002 C   0  0  0  0  0  0  0  0  0  0  0  0
   -0.5673    1.9370    0.0002 C   0  0  0  0  0  0  0  0  0  0  0  0
    0.0557    2.8450    0.0004 H   0  0  0  0  0  0  0  0  0  0  0  0
    1.7618   -0.6225    0.0002 C   0  0  0  0  0  0  0  0  0  0  0  0
    4.2416   -0.0893    0.0000 C   0  0  0  0  0  0  0  0  0  0  0  0
    4.2050    1.3223   -0.0006 C   0  0  0  0  0  0  0  0  0  0  0  0
    3.2330    1.8282   -0.0008 H   0  0  0  0  0  0  0  0  0  0  0  0
    5.4079    2.0415   -0.0007 C   0  0  0  0  0  0  0  0  0  0  0  0
    5.3681    3.1416   -0.0012 H   0  0  0  0  0  0  0  0  0  0  0  0
    6.6494    1.3869   -0.0003 C   0  0  0  0  0  0  0  0  0  0  0  0
    7.5850    1.9652   -0.0005 H   0  0  0  0  0  0  0  0  0  0  0  0
    6.6828   -0.0172    0.0002 C   0  0  0  0  0  0  0  0  0  0  0  0
    7.6455   -0.5503    0.0005 H   0  0  0  0  0  0  0  0  0  0  0  0
    5.4925   -0.7507    0.0004 C   0  0  0  0  0  0  0  0  0  0  0  0
    5.5241   -1.8524    0.0008 H   0  0  0  0  0  0  0  0  0  0  0  0
  1 21  1  0  0  0  0
  2 18  1  0  0  0  0
  3  4  1  0  0  0  0
  3 19  1  0  0  0  0
  4 21  2  0  0  0  0
  5 21  1  0  0  0  0
  5  6  1  0  0  0  0
  7 11  1  0  0  0  0
  7  9  1  0  0  0  0
  7 10  1  0  0  0  0
  8  7  1  0  0  0  0
 11  2  1  0  0  0  0
 11 12  2  0  0  0  0
 12 14  1  0  0  0  0
 13 12  1  0  0  0  0
 14 15  1  0  0  0  0
 16 14  2  0  0  0  0
 16 17  1  0  0  0  0
 18 19  2  0  0  0  0
 18 16  1  0  0  0  0
 19 20  1  0  0  0  0
 22  5  1  0  0  0  0
 22 31  1  0  0  0  0
 23 22  2  0  0  0  0
 24 23  1  0  0  0  0
 25 23  1  0  0  0  0
 25 27  2  0  0  0  0
 26 25  1  0  0  0  0
 27 29  1  0  0  0  0
 28 27  1  0  0  0  0
 29 31  2  0  0  0  0
 29 30  1  0  0  0  0
 31 32  1  0  0  0  0
M  END
