1,2,4
q = -1.0

 35 36  0  0  0  0  0  0  0  0999 V2000
    0.6241   -1.9750    0.0001 S   0  0  0  0  0  1  0  0  0  0  0  0
   -2.8073    0.6709   -0.0001 N   0  0  0  0  0  2  0  0  0  0  0  0
    1.1402    0.7379    0.0001 N   0  0  0  0  0  0  0  0  0  0  0  0
   -0.2036    0.7994    0.0001 N   0  0  0  0  0  2  0  0  0  0  0  0
    5.4948   -1.9921   -0.0002 C   0  0  0  0  0  0  0  0  0  0  0  0
    6.5597   -2.2906   -0.0003 H   0  0  0  0  0  0  0  0  0  0  0  0
    5.0267   -2.4572   -0.8959 H   0  0  0  0  0  0  0  0  0  0  0  0
    5.0269   -2.4573    0.8955 H   0  0  0  0  0  0  0  0  0  0  0  0
    4.0706    0.1276    0.0001 C   0  0  0  0  0  0  0  0  0  0  0  0
    2.9600   -0.7337    0.0002 N   0  0  0  0  0  0  0  0  0  0  0  0
    3.1920   -1.7297    0.0002 H   0  0  0  0  0  0  0  0  0  0  0  0
   -2.2582    1.9390   -0.0000 C   0  0  0  0  0  0  0  0  0  0  0  0
    0.0114    3.2480   -0.0000 C   0  0  0  0  0  0  0  0  0  0  0  0
    0.6772    3.2765    0.8876 H   0  0  0  0  0  0  0  0  0  0  0  0
   -0.6171    4.1554   -0.0001 H   0  0  0  0  0  0  0  0  0  0  0  0
    0.6772    3.2765   -0.8876 H   0  0  0  0  0  0  0  0  0  0  0  0
   -5.0279    1.5748   -0.0001 C   0  0  0  0  0  0  0  0  0  0  0  0
   -6.1108    1.3894   -0.0001 H   0  0  0  0  0  0  0  0  0  0  0  0
   -4.5026    2.8759   -0.0000 C   0  0  0  0  0  0  0  0  0  0  0  0
   -5.1711    3.7495   -0.0000 H   0  0  0  0  0  0  0  0  0  0  0  0
   -0.8034    1.9961    0.0000 C   0  0  0  0  0  0  0  0  0  0  0  0
    1.6136   -0.5091    0.0001 C   0  0  0  0  0  0  0  0  0  0  0  0
   -3.1145    3.0590   -0.0000 C   0  0  0  0  0  0  0  0  0  0  0  0
   -2.6858    4.0698    0.0000 H   0  0  0  0  0  0  0  0  0  0  0  0
   -4.1393    0.4917   -0.0001 C   0  0  0  0  0  0  0  0  0  0  0  0
   -4.4589   -0.5645   -0.0001 H   0  0  0  0  0  0  0  0  0  0  0  0
    5.3564   -0.4904   -0.0001 C   0  0  0  0  0  0  0  0  0  0  0  0
    3.9579    1.5346    0.0002 C   0  0  0  0  0  0  0  0  0  0  0  0
    2.9567    1.9791    0.0003 H   0  0  0  0  0  0  0  0  0  0  0  0
    5.1124    2.3271    0.0001 C   0  0  0  0  0  0  0  0  0  0  0  0
    5.0102    3.4230    0.0001 H   0  0  0  0  0  0  0  0  0  0  0  0
    6.4904    0.3379   -0.0002 C   0  0  0  0  0  0  0  0  0  0  0  0
    7.4847   -0.1357   -0.0004 H   0  0  0  0  0  0  0  0  0  0  0  0
    6.3840    1.7369   -0.0001 C   0  0  0  0  0  0  0  0  0  0  0  0
    7.2909    2.3593   -0.0002 H   0  0  0  0  0  0  0  0  0  0  0  0
  1 22  1  0  0  0  0
  2 12  1  0  0  0  0
  3 22  2  0  0  0  0
  4  3  1  0  0  0  0
  5 27  1  0  0  0  0
  5  8  1  0  0  0  0
  6  5  1  0  0  0  0
  7  5  1  0  0  0  0
  9 28  1  0  0  0  0
  9 10  1  0  0  0  0
 10 11  1  0  0  0  0
 12 23  1  0  0  0  0
 12 21  2  0  0  0  0
 13 21  1  0  0  0  0
 13 14  1  0  0  0  0
 15 13  1  0  0  0  0
 16 13  1  0  0  0  0
 17 19  1  0  0  0  0
 18 17  1  0  0  0  0
 19 20  1  0  0  0  0
 19 23  2  0  0  0  0
 21  4  1  0  0  0  0
 22 10  1  0  0  0  0
 23 24  1  0  0  0  0
 25 17  2  0  0  0  0
 25  2  1  0  0  0  0
 26 25  1  0  0  0  0
 27  9  2  0  0  0  0
 28 29  1  0  0  0  0
 30 31  1  0  0  0  0
 30 28  2  0  0  0  0
 32 34  2  0  0  0  0
 32 27  1  0  0  0  0
 33 32  1  0  0  0  0
 34 30  1  0  0  0  0
 35 34  1  0  0  0  0
M  END
