1,2,5
q = -1.0, confidence = 0.018

 29 30  0  0  1  0  0  0  0  0999 V2000
   -0.6453   -2.0090   -0.9843 S   0  0  0  0  0  1  0  0  0  0  0  0
    0.1417    0.6540   -0.0731 N   0  0  0  0  0  2  0  0  0  0  0  0
   -2.9665   -0.8992   -0.4092 N   0  0  0  0  0  0  0  0  0  0  0  0
   -3.1973   -1.8440   -0.7268 H   0  0  0  0  0  0  0  0  0  0  0  0
    2.7547    0.5106   -0.5425 N   0  0  0  0  0  2  0  0  0  0  0  0
   -6.4270    1.2893    0.6516 C   0  0  0  0  0  0  0  0  0  0  0  0
   -7.3400    1.8394    0.9227 H   0  0  0  0  0  0  0  0  0  0  0  0
   -5.3477   -0.7130   -0.2044 C   0  0  0  0  0  0  0  0  0  0  0  0
   -5.4185   -1.7361   -0.6081 H   0  0  0  0  0  0  0  0  0  0  0  0
    0.7795    1.7961   -0.0724 C   0  0  0  0  0  3  0  0  0  0  0  0
    0.2490    2.7635   -0.0214 H   0  0  0  0  0  0  0  0  0  0  0  0
    4.4440    2.7134   -0.2048 C   0  0  0  0  0  0  0  0  0  0  0  0
    5.1091    3.5802   -0.0749 H   0  0  0  0  0  0  0  0  0  0  0  0
   -4.0743   -0.1171   -0.0390 C   0  0  0  0  0  0  0  0  0  0  0  0
   -1.6207   -0.6591   -0.4278 C   0  0  2  0  0  3  0  0  0  0  0  0
    4.0855    0.3744   -0.6631 C   0  0  0  0  0  3  0  0  0  0  0  0
    4.4549   -0.6334   -0.9067 H   0  0  0  0  0  0  0  0  0  0  0  0
    3.0602    2.8590   -0.0557 C   0  0  0  0  0  0  0  0  0  0  0  0
    2.6123    3.8311    0.1971 H   0  0  0  0  0  0  0  0  0  0  0  0
    4.9724    1.4494   -0.5076 C   0  0  0  0  0  0  0  0  0  0  0  0
    6.0529    1.2877   -0.6211 H   0  0  0  0  0  0  0  0  0  0  0  0
   -6.5098   -0.0156    0.1389 C   0  0  0  0  0  0  0  0  0  0  0  0
   -7.4892   -0.4985    0.0032 H   0  0  0  0  0  0  0  0  0  0  0  0
   -3.9891    1.1944    0.4795 C   0  0  0  0  0  0  0  0  0  0  0  0
   -3.0016    1.6514    0.6045 H   0  0  0  0  0  0  0  0  0  0  0  0
   -5.1645    1.8801    0.8154 C   0  0  0  0  0  0  0  0  0  0  0  0
   -5.0854    2.9015    1.2183 H   0  0  0  0  0  0  0  0  0  0  0  0
    2.2284    1.7317   -0.2156 C   0  0  0  0  0  0  0  0  0  0  0  0
   -1.1812    0.5657   -0.0858 N   0  0  0  0  0  2  0  0  0  0  0  0
  2 10  1  0  0  0  0
  3 14  1  0  0  0  0
  4  3  1  0  0  0  0
  5 28  1  0  0  0  0
  6 26  1  0  0  0  0
  6  7  1  0  0  0  0
  8 14  2  0  0  0  0
  8 22  1  0  0  0  0
  9  8  1  0  0  0  0
 10 11  1  0  0  0  0
 12 13  1  0  0  0  0
 12 18  1  0  0  0  0
 14 24  1  0  0  0  0
 15  1  1  6  0  0  0
 15  3  1  0  0  0  0
 15 29  1  0  0  0  0
 16  5  1  0  0  0  0
 16 20  1  0  0  0  0
 17 16  1  0  0  0  0
 18 19  1  0  0  0  0
 20 12  2  0  0  0  0
 21 20  1  0  0  0  0
 22  6  2  0  0  0  0
 23 22  1  0  0  0  0
 24 25  1  0  0  0  0
 24 26  2  0  0  0  0
 26 27  1  0  0  0  0
 28 10  1  0  0  0  0
 28 18  2  0  0  0  0
 29  2  1  0  0  0  0
M  END
