1,4,7
q = -1.0

 32 33  0  0  1  0  0  0  0  0999 V2000
    1.8190    0.5374    0.7468 S   0  0  0  0  0  1  0  0  0  0  0  0
    4.2573    1.2268   -0.9896 S   0  0  0  0  0  0  0  0  0  0  0  0
    1.9285   -2.2343   -3.5865 O   0  0  0  0  0  0  0  0  0  0  0  0
   -0.8435   -2.7551   -1.3568 N   0  0  0  0  0  2  0  0  0  0  0  0
    2.4436   -0.5426   -1.6156 N   0  0  0  0  0  0  0  0  0  0  0  0
    2.9912   -0.6739   -2.4861 H   0  0  0  0  0  0  0  0  0  0  0  0
    1.3409   -1.3254   -1.5380 N   0  0  0  0  0  2  0  0  0  0  0  0
    2.7614    0.3327   -0.6454 C   0  0  1  0  0  3  0  0  0  0  0  0
   -1.9779   -3.4483   -1.1940 C   0  0  0  0  0  3  0  0  0  0  0  0
   -2.5473   -3.2325   -0.2743 H   0  0  0  0  0  0  0  0  0  0  0  0
    5.5867    3.2076    0.3093 C   0  0  0  0  0  0  0  0  0  0  0  0
    1.1668   -2.1448   -2.6043 C   0  0  0  0  0  0  0  0  0  0  0  0
    4.3589    2.3495    0.4643 C   0  0  0  0  0  0  0  0  0  0  0  0
    3.4254    2.9445    0.4941 H   0  0  0  0  0  0  0  0  0  0  0  0
    4.3937    1.7200    1.3746 H   0  0  0  0  0  0  0  0  0  0  0  0
   -0.4605   -3.8799   -3.4552 C   0  0  0  0  0  0  0  0  0  0  0  0
    0.1959   -3.9924   -4.3296 H   0  0  0  0  0  0  0  0  0  0  0  0
   -1.6450   -4.6079   -3.2841 C   0  0  0  0  0  0  0  0  0  0  0  0
   -1.9647   -5.3389   -4.0425 H   0  0  0  0  0  0  0  0  0  0  0  0
    6.8259    2.7863    0.8320 C   0  0  0  0  0  0  0  0  0  0  0  0
    6.8859    1.8275    1.3707 H   0  0  0  0  0  0  0  0  0  0  0  0
    5.5218    4.4313   -0.3871 C   0  0  0  0  0  0  0  0  0  0  0  0
    4.5587    4.7631   -0.8058 H   0  0  0  0  0  0  0  0  0  0  0  0
   -2.4212   -4.3914   -2.1340 C   0  0  0  0  0  0  0  0  0  0  0  0
   -3.3582   -4.9410   -1.9641 H   0  0  0  0  0  0  0  0  0  0  0  0
   -0.0924   -2.9578   -2.4623 C   0  0  0  0  0  0  0  0  0  0  0  0
    7.8965    4.7980   -0.0152 C   0  0  0  0  0  0  0  0  0  0  0  0
    8.7961    5.4200   -0.1382 H   0  0  0  0  0  0  0  0  0  0  0  0
    7.9730    3.5772    0.6740 C   0  0  0  0  0  0  0  0  0  0  0  0
    8.9331    3.2391    1.0929 H   0  0  0  0  0  0  0  0  0  0  0  0
    6.6680    5.2233   -0.5458 C   0  0  0  0  0  0  0  0  0  0  0  0
    6.6018    6.1797   -1.0864 H   0  0  0  0  0  0  0  0  0  0  0  0
  2  8  1  0  0  0  0
  2 13  1  0  0  0  0
  3 12  2  0  0  0  0
  4  9  1  0  0  0  0
  5  7  1  0  0  0  0
  5  8  1  0  0  0  0
  6  5  1  0  0  0  0
  8  1  1  1  0  0  0
  9 10  1  0  0  0  0
 11 13  1  0  0  0  0
 11 20  1  0  0  0  0
 12 26  1  0  0  0  0
 12  7  1  0  0  0  0
 13 14  1  0  0  0  0
 13 15  1  0  0  0  0
 16 18  1  0  0  0  0
 16 26  2  0  0  0  0
 17 16  1  0  0  0  0
 18 24  2  0  0  0  0
 19 18  1  0  0  0  0
 20 21  1  0  0  0  0
 22 11  2  0  0  0  0
 23 22  1  0  0  0  0
 24 25  1  0  0  0  0
 24  9  1  0  0  0  0
 26  4  1  0  0  0  0
 27 29  1  0  0  0  0
 28 27  1  0  0  0  0
 29 20  2  0  0  0  0
 29 30  1  0  0  0  0
 31 22  1  0  0  0  0
 31 27  2  0  0  0  0
 32 31  1  0  0  0  0
M  END
