1,2,3
q = -2.0, confidence = 0.918

 27 27  0  0  0  0  0  0  0  0999 V2000
   -1.0767    1.8164    0.2321 S   0  0  0  0  0  1  0  0  0  0  0  0
    1.7247    1.6468    0.6553 N   0  0  0  0  0  2  0  0  0  0  0  0
    2.3760   -0.8630    0.0740 N   0  0  0  0  0  0  0  0  0  0  0  0
   -0.0654    3.3063    0.6871 C   0  0  0  0  0  0  0  0  0  0  0  0
    1.2110    2.8243    1.3589 C   0  0  0  0  0  0  0  0  0  0  0  0
    3.0893    1.2913    0.9988 C   0  0  0  0  0  0  0  0  0  0  0  0
    3.5077    0.1136    0.1331 C   0  0  0  0  0  0  0  0  0  0  0  0
    2.2844   -1.6526    1.3471 C   0  0  0  0  0  0  0  0  0  0  0  0
    3.3648   -2.7491    1.2365 C   0  0  0  0  0  0  0  0  0  0  0  0
    3.6134   -2.9096   -0.2885 C   0  0  0  0  0  0  0  0  0  0  0  0
    2.6152   -1.9367   -0.9423 C   0  0  0  0  0  0  0  0  0  0  0  0
    0.1614    3.8672   -0.2428 H   0  0  0  0  0  0  0  0  0  0  0  0
   -0.6668    3.9536    1.3557 H   0  0  0  0  0  0  0  0  0  0  0  0
    1.9823    3.6315    1.3507 H   0  0  0  0  0  0  0  0  0  0  0  0
    1.0143    2.5821    2.4334 H   0  0  0  0  0  0  0  0  0  0  0  0
    3.7907    2.1405    0.8164 H   0  0  0  0  0  0  0  0  0  0  0  0
    3.1919    1.0478    2.0888 H   0  0  0  0  0  0  0  0  0  0  0  0
    3.6866    0.4537   -0.9058 H   0  0  0  0  0  0  0  0  0  0  0  0
    4.4371   -0.3633    0.5132 H   0  0  0  0  0  0  0  0  0  0  0  0
    1.2657   -2.0846    1.3808 H   0  0  0  0  0  0  0  0  0  0  0  0
    2.3958   -0.9791    2.2170 H   0  0  0  0  0  0  0  0  0  0  0  0
    4.2952   -2.4617    1.7651 H   0  0  0  0  0  0  0  0  0  0  0  0
    3.0085   -3.6857    1.7066 H   0  0  0  0  0  0  0  0  0  0  0  0
    3.4420   -3.9440   -0.6422 H   0  0  0  0  0  0  0  0  0  0  0  0
    4.6577   -2.6488   -0.5521 H   0  0  0  0  0  0  0  0  0  0  0  0
    2.9478   -1.4805   -1.8931 H   0  0  0  0  0  0  0  0  0  0  0  0
    1.6363   -2.4237   -1.1213 H   0  0  0  0  0  0  0  0  0  0  0  0
  1  4  1  0  0  0  0
  2  6  1  0  0  0  0
  2  5  1  0  0  0  0
  3  7  1  0  0  0  0
  3  8  1  0  0  0  0
  4 13  1  0  0  0  0
  4  5  1  0  0  0  0
  5 15  1  0  0  0  0
  6 17  1  0  0  0  0
  7 19  1  0  0  0  0
  7  6  1  0  0  0  0
  8 20  1  0  0  0  0
  8 21  1  0  0  0  0
  9  8  1  0  0  0  0
  9 23  1  0  0  0  0
  9 22  1  0  0  0  0
 10  9  1  0  0  0  0
 11 10  1  0  0  0  0
 11  3  1  0  0  0  0
 12  4  1  0  0  0  0
 14  5  1  0  0  0  0
 16  6  1  0  0  0  0
 18  7  1  0  0  0  0
 24 10  1  0  0  0  0
 25 10  1  0  0  0  0
 26 11  1  0  0  0  0
 27 11  1  0  0  0  0
M  END
