1,2,4
q = 0.0, confidence = 0.996

 30 31  0  0  1  0  0  0  0  0999 V2000
   -1.5829   -1.4020   -0.2705 S   0  0  0  0  0  3  0  0  0  0  0  0
    0.0521    1.3776    0.0334 N   0  0  0  0  0  2  0  0  0  0  0  0
    1.1697    2.1541    0.1056 N   0  0  0  0  0  0  0  0  0  0  0  0
    2.4261    0.2128   -0.0273 N   0  0  0  0  0  2  0  0  0  0  0  0
   -2.7582   -0.0441   -0.1379 C   0  0  0  0  0  0  0  0  0  0  0  0
   -4.1011   -0.4460   -0.2509 C   0  0  0  0  0  0  0  0  0  0  0  0
   -5.1459    0.4856   -0.1840 C   0  0  0  0  0  0  0  0  0  0  0  0
   -4.8496    1.8482   -0.0271 C   0  0  0  0  0  0  0  0  0  0  0  0
   -3.5194    2.2590    0.0556 C   0  0  0  0  0  0  0  0  0  0  0  0
   -2.4342    1.3382    0.0028 C   0  0  0  0  0  0  0  0  0  0  0  0
   -1.1228    1.9539    0.0853 C   0  0  0  0  0  0  0  0  0  0  0  0
    2.4175    1.5665    0.0753 C   0  0  2  0  0  3  0  0  0  0  0  0
    3.6106    2.3116    0.1461 C   0  0  0  0  0  0  0  0  0  0  0  0
    4.8197    1.6149    0.1081 C   0  0  0  0  0  0  0  0  0  0  0  0
    4.8206    0.2110    0.0034 C   0  0  0  0  0  0  0  0  0  0  0  0
    3.6003   -0.4592   -0.0617 C   0  0  0  0  0  0  0  0  0  0  0  0
   -1.8430   -2.2561    1.3323 C   0  0  0  0  0  0  0  0  0  0  0  0
   -4.3344   -1.5111   -0.4030 H   0  0  0  0  0  0  0  0  0  0  0  0
   -6.1876    0.1435   -0.2681 H   0  0  0  0  0  0  0  0  0  0  0  0
   -5.6571    2.5928    0.0201 H   0  0  0  0  0  0  0  0  0  0  0  0
   -3.2921    3.3306    0.1630 H   0  0  0  0  0  0  0  0  0  0  0  0
   -1.1330    3.0554    0.1927 H   0  0  0  0  0  0  0  0  0  0  0  0
    3.5808    3.4072    0.2286 H   0  0  0  0  0  0  0  0  0  0  0  0
    5.7679    2.1698    0.1604 H   0  0  0  0  0  0  0  0  0  0  0  0
    5.7573   -0.3613   -0.0288 H   0  0  0  0  0  0  0  0  0  0  0  0
    3.5085   -1.5536   -0.1433 H   0  0  0  0  0  0  0  0  0  0  0  0
   -1.6867   -1.5562    2.1723 H   0  0  0  0  0  0  0  0  0  0  0  0
   -2.8668   -2.6739    1.3393 H   0  0  0  0  0  0  0  0  0  0  0  0
   -1.0862   -3.0632    1.3405 H   0  0  0  0  0  0  0  0  0  0  0  0
    1.0665    3.1704    0.1818 H   0  0  0  0  0  0  0  0  0  0  0  0
  1  5  2  0  0  0  0
  1 17  1  0  0  0  0
  2 11  1  0  0  0  0
  2  3  1  0  0  0  0
  3 30  1  0  0  0  0
  4 12  1  0  0  0  0
  5 10  1  0  0  0  0
  6  7  2  0  0  0  0
  6  5  1  0  0  0  0
  7  8  1  0  0  0  0
  8 20  1  0  0  0  0
  8  9  2  0  0  0  0
  9 21  1  0  0  0  0
 10  9  1  0  0  0  0
 10 11  2  0  0  0  0
 11 22  1  0  0  0  0
 12  3  1  1  0  0  0
 12 13  1  0  0  0  0
 13 23  1  0  0  0  0
 14 13  2  0  0  0  0
 14 24  1  0  0  0  0
 15 14  1  0  0  0  0
 16  4  1  0  0  0  0
 16 15  2  0  0  0  0
 17 28  1  0  0  0  0
 17 29  1  0  0  0  0
 17 27  1  0  0  0  0
 18  6  1  0  0  0  0
 19  7  1  0  0  0  0
 25 15  1  0  0  0  0
 26 16  1  0  0  0  0
M  END
