1,2,4
q = -1.0

 29 30  0  0  0  0  0  0  0  0999 V2000
    1.5735   -1.3801   -0.2928 S   0  0  0  0  0  3  0  0  0  0  0  0
   -0.1078    1.3991    0.0191 N   0  0  0  0  0  2  0  0  0  0  0  0
   -1.1514    2.2317    0.0923 N   0  0  0  0  0  0  0  0  0  0  0  0
   -2.4098    0.2321   -0.0289 N   0  0  0  0  0  2  0  0  0  0  0  0
    2.7574   -0.0413   -0.1433 C   0  0  0  0  0  0  0  0  0  0  0  0
    4.1045   -0.4385   -0.2441 C   0  0  0  0  0  0  0  0  0  0  0  0
    5.1463    0.4908   -0.1587 C   0  0  0  0  0  0  0  0  0  0  0  0
    4.8298    1.8519    0.0041 C   0  0  0  0  0  0  0  0  0  0  0  0
    3.4990    2.2547    0.0743 C   0  0  0  0  0  0  0  0  0  0  0  0
    2.4060    1.3355    0.0033 C   0  0  0  0  0  0  0  0  0  0  0  0
    1.0994    1.9446    0.0812 C   0  0  0  0  0  0  0  0  0  0  0  0
   -2.3461    1.6127    0.0672 C   0  0  0  0  0  0  0  0  0  0  0  0
   -3.5620    2.3522    0.1425 C   0  0  0  0  0  0  0  0  0  0  0  0
   -4.7766    1.6800    0.1217 C   0  0  0  0  0  0  0  0  0  0  0  0
   -4.8052    0.2689    0.0285 C   0  0  0  0  0  0  0  0  0  0  0  0
   -3.5942   -0.4158   -0.0433 C   0  0  0  0  0  0  0  0  0  0  0  0
    1.8149   -2.2436    1.3083 C   0  0  0  0  0  0  0  0  0  0  0  0
    4.3340   -1.5045   -0.3984 H   0  0  0  0  0  0  0  0  0  0  0  0
    6.1916    0.1575   -0.2318 H   0  0  0  0  0  0  0  0  0  0  0  0
    5.6301    2.6042    0.0669 H   0  0  0  0  0  0  0  0  0  0  0  0
    3.2616    3.3234    0.1886 H   0  0  0  0  0  0  0  0  0  0  0  0
    1.0813    3.0419    0.1957 H   0  0  0  0  0  0  0  0  0  0  0  0
   -3.4926    3.4451    0.2178 H   0  0  0  0  0  0  0  0  0  0  0  0
   -5.7170    2.2491    0.1790 H   0  0  0  0  0  0  0  0  0  0  0  0
   -5.7503   -0.2900    0.0100 H   0  0  0  0  0  0  0  0  0  0  0  0
   -3.5208   -1.5127   -0.1157 H   0  0  0  0  0  0  0  0  0  0  0  0
    1.6718   -1.5363    2.1447 H   0  0  0  0  0  0  0  0  0  0  0  0
    2.8288   -2.6851    1.3255 H   0  0  0  0  0  0  0  0  0  0  0  0
    1.0330   -3.0268    1.3170 H   0  0  0  0  0  0  0  0  0  0  0  0
  1  5  2  3  0  0  0
  1 17  1  0  0  0  0
  2 11  1  0  0  0  0
  2  3  1  0  0  0  0
  4 12  1  0  0  0  0
  5 10  1  0  0  0  0
  6  7  2  0  0  0  0
  6  5  1  0  0  0  0
  7  8  1  0  0  0  0
  8 20  1  0  0  0  0
  8  9  2  0  0  0  0
  9 21  1  0  0  0  0
 10  9  1  0  0  0  0
 10 11  2  0  0  0  0
 11 22  1  0  0  0  0
 12  3  2  0  0  0  0
 12 13  1  0  0  0  0
 13 23  1  0  0  0  0
 14 13  2  0  0  0  0
 14 24  1  0  0  0  0
 15 14  1  0  0  0  0
 16  4  1  0  0  0  0
 16 15  2  0  0  0  0
 17 29  1  0  0  0  0
 17 28  1  0  0  0  0
 17 27  1  0  0  0  0
 18  6  1  0  0  0  0
 19  7  1  0  0  0  0
 25 15  1  0  0  0  0
 26 16  1  0  0  0  0
M  END
