1,2,40
q = 0.0, confidence = 1.0

 79 84  0  0  1  0  0  0  0  0999 V2000
   -0.0074   -0.3086    3.0547 S   0  0  0  0  0  0  0  0  0  0  0  0
    1.4132   -0.0175    0.2696 N   0  0  0  0  0  2  0  0  0  0  0  0
    2.6575    0.2548   -0.2640 C   0  0  0  0  0  0  0  0  0  0  0  0
    3.2509   -0.9537   -0.6352 C   0  0  0  0  0  0  0  0  0  0  0  0
    2.3341   -1.9570   -0.2994 N   0  0  0  0  0  0  0  0  0  0  0  0
    1.2232   -1.3418    0.2385 C   0  0  1  0  0  3  0  0  0  0  0  0
    3.1783    1.6253   -0.4033 C   0  0  0  0  0  0  0  0  0  0  0  0
    3.0444    2.5482    0.6571 C   0  0  0  0  0  0  0  0  0  0  0  0
    2.5801    2.2214    1.5986 H   0  0  0  0  0  0  0  0  0  0  0  0
    3.5169    3.8609    0.5253 C   0  0  0  0  0  0  0  0  0  0  0  0
    3.4048    4.5690    1.3601 H   0  0  0  0  0  0  0  0  0  0  0  0
    4.1399    4.2667   -0.6654 C   0  0  0  0  0  0  0  0  0  0  0  0
    4.5130    5.2964   -0.7699 H   0  0  0  0  0  0  0  0  0  0  0  0
    4.2893    3.3525   -1.7214 C   0  0  0  0  0  0  0  0  0  0  0  0
    4.7754    3.6667   -2.6571 H   0  0  0  0  0  0  0  0  0  0  0  0
    3.8119    2.0413   -1.5949 C   0  0  0  0  0  0  0  0  0  0  0  0
    3.9171    1.3326   -2.4293 H   0  0  0  0  0  0  0  0  0  0  0  0
    4.5774   -1.2057   -1.2219 C   0  0  0  0  0  0  0  0  0  0  0  0
    5.7217   -0.6318   -0.6219 C   0  0  0  0  0  0  0  0  0  0  0  0
    5.6062   -0.0306    0.2919 H   0  0  0  0  0  0  0  0  0  0  0  0
    6.9894   -0.8243   -1.1849 C   0  0  0  0  0  0  0  0  0  0  0  0
    7.8719   -0.3734   -0.7073 H   0  0  0  0  0  0  0  0  0  0  0  0
    7.1357   -1.5936   -2.3509 C   0  0  0  0  0  0  0  0  0  0  0  0
    8.1327   -1.7447   -2.7906 H   0  0  0  0  0  0  0  0  0  0  0  0
    6.0061   -2.1659   -2.9569 C   0  0  0  0  0  0  0  0  0  0  0  0
    6.1144   -2.7596   -3.8768 H   0  0  0  0  0  0  0  0  0  0  0  0
    4.7343   -1.9712   -2.4006 C   0  0  0  0  0  0  0  0  0  0  0  0
    3.8502   -2.3954   -2.9002 H   0  0  0  0  0  0  0  0  0  0  0  0
    2.6407   -3.3838   -0.4157 C   0  0  0  0  0  0  0  0  0  0  0  0
    2.2361   -3.9353    0.4467 H   0  0  0  0  0  0  0  0  0  0  0  0
    3.7390   -3.4950   -0.4495 H   0  0  0  0  0  0  0  0  0  0  0  0
    2.2270   -3.8147   -1.3496 H   0  0  0  0  0  0  0  0  0  0  0  0
   -0.0565   -2.0211    0.7416 C   0  0  2  0  0  0  0  0  0  0  0  0
   -0.0690   -3.3932    0.3714 O   0  0  0  0  0  0  0  0  0  0  0  0
   -0.0755   -3.4435   -0.6029 H   0  0  0  0  0  0  0  0  0  0  0  0
   -1.2924   -1.3181    0.1702 C   0  0  1  0  0  3  0  0  0  0  0  0
   -2.4550   -1.9123   -0.2753 N   0  0  0  0  0  0  0  0  0  0  0  0
   -3.3604   -0.8875   -0.5794 C   0  0  0  0  0  0  0  0  0  0  0  0
   -2.7013    0.3102   -0.2986 C   0  0  0  0  0  0  0  0  0  0  0  0
   -1.4378    0.0090    0.1676 N   0  0  0  0  0  2  0  0  0  0  0  0
   -2.7284   -3.3229   -0.5478 C   0  0  0  0  0  0  0  0  0  0  0  0
   -2.5138   -3.9495    0.3340 H   0  0  0  0  0  0  0  0  0  0  0  0
   -2.1325   -3.6850   -1.4089 H   0  0  0  0  0  0  0  0  0  0  0  0
   -3.7942   -3.4177   -0.8175 H   0  0  0  0  0  0  0  0  0  0  0  0
   -4.7118   -1.1044   -1.1276 C   0  0  0  0  0  0  0  0  0  0  0  0
   -5.0621   -0.5258   -2.3678 C   0  0  0  0  0  0  0  0  0  0  0  0
   -4.3098    0.0541   -2.9227 H   0  0  0  0  0  0  0  0  0  0  0  0
   -6.3557   -0.6839   -2.8820 C   0  0  0  0  0  0  0  0  0  0  0  0
   -6.6175   -0.2283   -3.8486 H   0  0  0  0  0  0  0  0  0  0  0  0
   -7.3143   -1.4222   -2.1693 C   0  0  0  0  0  0  0  0  0  0  0  0
   -8.3291   -1.5457   -2.5758 H   0  0  0  0  0  0  0  0  0  0  0  0
   -6.9783   -1.9965   -0.9330 C   0  0  0  0  0  0  0  0  0  0  0  0
   -7.7307   -2.5635   -0.3646 H   0  0  0  0  0  0  0  0  0  0  0  0
   -5.6874   -1.8351   -0.4103 C   0  0  0  0  0  0  0  0  0  0  0  0
   -5.4387   -2.2564    0.5762 H   0  0  0  0  0  0  0  0  0  0  0  0
   -3.1669    1.6963   -0.4547 C   0  0  0  0  0  0  0  0  0  0  0  0
   -4.4883    2.0687   -0.1242 C   0  0  0  0  0  0  0  0  0  0  0  0
   -5.1860    1.3122    0.2637 H   0  0  0  0  0  0  0  0  0  0  0  0
   -4.9042    3.3987   -0.2701 C   0  0  0  0  0  0  0  0  0  0  0  0
   -5.9337    3.6794   -0.0021 H   0  0  0  0  0  0  0  0  0  0  0  0
   -4.0108    4.3731   -0.7449 C   0  0  0  0  0  0  0  0  0  0  0  0
   -4.3406    5.4169   -0.8548 H   0  0  0  0  0  0  0  0  0  0  0  0
   -2.6969    4.0105   -1.0818 C   0  0  0  0  0  0  0  0  0  0  0  0
   -1.9955    4.7675   -1.4636 H   0  0  0  0  0  0  0  0  0  0  0  0
   -2.2779    2.6806   -0.9431 C   0  0  0  0  0  0  0  0  0  0  0  0
   -1.2559    2.3889   -1.2291 H   0  0  0  0  0  0  0  0  0  0  0  0
   -0.1138   -2.0419    2.3431 C   0  0  0  0  0  0  0  0  0  0  0  0
    1.0083   -2.9237    2.8935 C   0  0  0  0  0  0  0  0  0  0  0  0
    0.8428   -3.9677    2.5660 H   0  0  0  0  0  0  0  0  0  0  0  0
    1.0025   -2.9116    4.0002 H   0  0  0  0  0  0  0  0  0  0  0  0
    2.0093   -2.6039    2.5466 H   0  0  0  0  0  0  0  0  0  0  0  0
   -1.4818   -2.5577    2.8113 C   0  0  0  0  0  0  0  0  0  0  0  0
   -1.6758   -3.5577    2.3759 H   0  0  0  0  0  0  0  0  0  0  0  0
   -2.3064   -1.8752    2.5259 H   0  0  0  0  0  0  0  0  0  0  0  0
   -1.4904   -2.6526    3.9134 H   0  0  0  0  0  0  0  0  0  0  0  0
    1.7360   -0.0772    3.5250 C   0  0  0  0  0  0  0  0  0  0  0  0
    2.0262   -0.7655    4.3394 H   0  0  0  0  0  0  0  0  0  0  0  0
    1.7842    0.9608    3.9073 H   0  0  0  0  0  0  0  0  0  0  0  0
    2.4186   -0.1736    2.6602 H   0  0  0  0  0  0  0  0  0  0  0  0
  1 76  1  0  0  0  0
  3  2  1  0  0  0  0
  4  5  1  0  0  0  0
  4  3  2  0  0  0  0
  5  6  1  0  0  0  0
  6  2  1  0  0  0  0
  6 33  1  1  0  0  0
  7  3  1  0  0  0  0
  7  8  1  0  0  0  0
  8  9  1  0  0  0  0
 10  8  2  0  0  0  0
 10 11  1  0  0  0  0
 12 10  1  0  0  0  0
 13 12  1  0  0  0  0
 14 16  1  0  0  0  0
 14 12  2  0  0  0  0
 15 14  1  0  0  0  0
 16  7  2  0  0  0  0
 17 16  1  0  0  0  0
 18  4  1  0  0  0  0
 18 19  1  0  0  0  0
 19 20  1  0  0  0  0
 21 22  1  0  0  0  0
 21 19  2  0  0  0  0
 23 21  1  0  0  0  0
 24 23  1  0  0  0  0
 25 27  1  0  0  0  0
 25 23  2  0  0  0  0
 26 25  1  0  0  0  0
 27 18  2  0  0  0  0
 28 27  1  0  0  0  0
 29  5  1  0  0  0  0
 29 30  1  0  0  0  0
 31 29  1  0  0  0  0
 32 29  1  0  0  0  0
 33 34  1  6  0  0  0
 33 67  1  0  0  0  0
 35 34  1  0  0  0  0
 36 33  1  1  0  0  0
 37 36  1  0  0  0  0
 38 39  2  0  0  0  0
 38 37  1  0  0  0  0
 39 40  1  0  0  0  0
 40 36  1  0  0  0  0
 41 37  1  0  0  0  0
 41 42  1  0  0  0  0
 43 41  1  0  0  0  0
 44 41  1  0  0  0  0
 45 38  1  0  0  0  0
 45 54  1  0  0  0  0
 46 45  2  0  0  0  0
 47 46  1  0  0  0  0
 48 46  1  0  0  0  0
 48 50  2  0  0  0  0
 49 48  1  0  0  0  0
 50 52  1  0  0  0  0
 51 50  1  0  0  0  0
 52 54  2  0  0  0  0
 52 53  1  0  0  0  0
 54 55  1  0  0  0  0
 56 39  1  0  0  0  0
 56 57  1  0  0  0  0
 57 58  1  0  0  0  0
 59 57  2  0  0  0  0
 59 60  1  0  0  0  0
 61 59  1  0  0  0  0
 62 61  1  0  0  0  0
 63 65  1  0  0  0  0
 63 61  2  0  0  0  0
 64 63  1  0  0  0  0
 65 56  2  0  0  0  0
 66 65  1  0  0  0  0
 67 72  1  0  0  0  0
 67 68  1  0  0  0  0
 67  1  1  0  0  0  0
 68 70  1  0  0  0  0
 69 68  1  0  0  0  0
 71 68  1  0  0  0  0
 72 75  1  0  0  0  0
 73 72  1  0  0  0  0
 74 72  1  0  0  0  0
 76 78  1  0  0  0  0
 76 77  1  0  0  0  0
 79 76  1  0  0  0  0
M  END
