1,2,3
q = -1.0, confidence = 0.0

 23 23  0  0  1  0  0  0  0  0999 V2000
    1.4240    2.1409    1.3208 S   0  0  0  0  0  1  0  0  0  0  0  0
   -0.3818   -1.0646   -1.5211 N   0  0  0  0  0  2  0  0  0  0  0  0
    1.8771    0.1773   -0.8638 N   0  0  0  0  0  2  0  0  0  0  0  0
    3.0125    0.8034   -0.5153 N   0  0  0  0  0  0  0  0  0  0  0  0
    4.0170    2.3740    0.8091 N   0  0  0  0  0  0  0  0  0  0  0  0
    3.9172    3.0835    1.5333 H   0  0  0  0  0  0  0  0  0  0  0  0
    3.1990   -1.0838   -2.3481 N   0  0  0  0  0  0  0  0  0  0  0  0
    3.9070   -0.3877   -2.0766 H   0  0  0  0  0  0  0  0  0  0  0  0
    3.2144   -1.3591   -3.3310 H   0  0  0  0  0  0  0  0  0  0  0  0
   -0.4650   -3.1090   -3.4299 N   0  0  0  0  0  0  0  0  0  0  0  0
   -1.5306   -1.6634   -1.8350 C   0  0  0  0  0  3  0  0  0  0  0  0
   -2.4317   -1.3178   -1.2992 H   0  0  0  0  0  0  0  0  0  0  0  0
   -1.5758   -2.6839   -2.8034 C   0  0  0  0  0  0  0  0  0  0  0  0
   -2.5293   -3.1715   -3.0684 H   0  0  0  0  0  0  0  0  0  0  0  0
    0.6832   -2.5051   -3.1100 C   0  0  0  0  0  0  0  0  0  0  0  0
    1.5971   -2.8766   -3.6062 H   0  0  0  0  0  0  0  0  0  0  0  0
    0.7475   -1.4524   -2.1611 C   0  0  0  0  0  0  0  0  0  0  0  0
    1.9791   -0.7467   -1.8029 C   0  0  1  0  0  3  0  0  0  0  0  0
    2.8710    1.7184    0.4641 C   0  0  0  0  0  0  0  0  0  0  0  0
    5.2993    2.1481    0.1818 C   0  0  0  0  0  0  0  0  0  0  0  0
    6.0522    2.8045    0.6570 H   0  0  0  0  0  0  0  0  0  0  0  0
    5.2702    2.3682   -0.9076 H   0  0  0  0  0  0  0  0  0  0  0  0
    5.6263    1.0918    0.2917 H   0  0  0  0  0  0  0  0  0  0  0  0
  3  4  1  0  0  0  0
  4 19  2  0  0  0  0
  5  6  1  0  0  0  0
  7  8  1  0  0  0  0
  7 18  1  0  0  0  0
  9  7  1  0  0  0  0
 10 15  1  0  0  0  0
 10 13  2  0  0  0  0
 11  2  1  0  0  0  0
 11 12  1  0  0  0  0
 13 11  1  0  0  0  0
 14 13  1  0  0  0  0
 15 17  2  0  0  0  0
 16 15  1  0  0  0  0
 17 18  1  0  0  0  0
 17  2  1  0  0  0  0
 18  3  1  1  0  0  0
 19  5  1  0  0  0  0
 19  1  1  0  0  0  0
 20 23  1  0  0  0  0
 20 21  1  0  0  0  0
 20  5  1  0  0  0  0
 22 20  1  0  0  0  0
M  END
