1,2,3
q = -1.0

 53 54  0  0  1  0  0  0  0  0999 V2000
   -0.0576    1.9844   -0.6074 S   0  0  0  0  0  1  0  0  0  0  0  0
    2.2952    0.1223   -0.4305 N   0  0  0  0  0  0  0  0  0  0  0  0
    0.6082   -1.7795   -1.4157 N   0  0  0  0  0  2  0  0  0  0  0  0
    1.6322    2.5668   -0.0283 C   0  0  0  0  0  0  0  0  0  0  0  0
    2.6264    1.5708   -0.6521 C   0  0  1  0  0  0  0  0  0  0  0  0
    4.3906    1.7783   -0.1489 S   0  0  0  0  0  0  0  0  0  0  0  0
    2.9886   -0.3180    0.8311 C   0  0  0  0  0  0  0  0  0  0  0  0
    4.4172    0.2708    0.9605 C   0  0  0  0  0  0  0  0  0  0  0  0
    2.7387   -0.6845   -1.6169 C   0  0  0  0  0  0  0  0  0  0  0  0
    2.0407   -2.0279   -1.6011 C   0  0  0  0  0  0  0  0  0  0  0  0
    1.8820    3.9499   -0.6430 C   0  0  0  0  0  0  0  0  0  0  0  0
    1.6304    2.6604    1.4984 C   0  0  0  0  0  0  0  0  0  0  0  0
    4.6834    0.6753    2.4182 C   0  0  0  0  0  0  0  0  0  0  0  0
    5.5318   -0.6773    0.4891 C   0  0  0  0  0  0  0  0  0  0  0  0
   -0.2586   -2.8202   -1.9480 C   0  0  0  0  0  0  0  0  0  0  0  0
   -0.5527   -3.9291   -0.9210 C   0  0  0  0  0  0  0  0  0  0  0  0
   -1.4008   -3.4079    0.2038 N   0  3  0  0  0  0  0  0  0  0  0  0
   -2.8868   -3.6106    0.0791 C   0  0  0  0  0  0  0  0  0  0  0  0
   -3.4091   -3.1200    1.4300 C   0  0  0  0  0  0  0  0  0  0  0  0
   -4.3581   -3.6211    1.6956 H   0  0  0  0  0  0  0  0  0  0  0  0
   -3.6120   -2.0322    1.3736 H   0  0  0  0  0  0  0  0  0  0  0  0
   -2.2597   -3.4106    2.4408 C   0  0  0  0  0  0  0  0  0  0  0  0
   -1.9831   -2.4920    2.9911 H   0  0  0  0  0  0  0  0  0  0  0  0
   -2.5365   -4.1760    3.1893 H   0  0  0  0  0  0  0  0  0  0  0  0
   -1.0757   -3.8962    1.5892 C   0  0  0  0  0  0  0  0  0  0  0  0
    2.5866    1.7440   -1.7446 H   0  0  0  0  0  0  0  0  0  0  0  0
    2.3730    0.0219    1.6792 H   0  0  0  0  0  0  0  0  0  0  0  0
    3.0024   -1.4244    0.8581 H   0  0  0  0  0  0  0  0  0  0  0  0
    2.4059   -0.1297   -2.5151 H   0  0  0  0  0  0  0  0  0  0  0  0
    3.8416   -0.7606   -1.6459 H   0  0  0  0  0  0  0  0  0  0  0  0
    2.4680   -2.6993   -0.8151 H   0  0  0  0  0  0  0  0  0  0  0  0
    2.2318   -2.5337   -2.5737 H   0  0  0  0  0  0  0  0  0  0  0  0
    1.1223    4.6721   -0.2867 H   0  0  0  0  0  0  0  0  0  0  0  0
    2.8816    4.3236   -0.3372 H   0  0  0  0  0  0  0  0  0  0  0  0
    1.8383    3.9204   -1.7499 H   0  0  0  0  0  0  0  0  0  0  0  0
    1.3284    1.7122    1.9833 H   0  0  0  0  0  0  0  0  0  0  0  0
    0.9056    3.4332    1.8193 H   0  0  0  0  0  0  0  0  0  0  0  0
    2.6358    2.9567    1.8613 H   0  0  0  0  0  0  0  0  0  0  0  0
    3.9281    1.3923    2.7897 H   0  0  0  0  0  0  0  0  0  0  0  0
    4.6664   -0.2223    3.0721 H   0  0  0  0  0  0  0  0  0  0  0  0
    5.6825    1.1417    2.5194 H   0  0  0  0  0  0  0  0  0  0  0  0
    6.5189   -0.1804    0.5642 H   0  0  0  0  0  0  0  0  0  0  0  0
    5.4087   -1.0070   -0.5592 H   0  0  0  0  0  0  0  0  0  0  0  0
    5.5634   -1.5778    1.1380 H   0  0  0  0  0  0  0  0  0  0  0  0
    0.2075   -3.3060   -2.8335 H   0  0  0  0  0  0  0  0  0  0  0  0
   -1.2132   -2.3750   -2.3023 H   0  0  0  0  0  0  0  0  0  0  0  0
   -1.0825   -4.7886   -1.3776 H   0  0  0  0  0  0  0  0  0  0  0  0
    0.3920   -4.3007   -0.4790 H   0  0  0  0  0  0  0  0  0  0  0  0
   -1.2568   -2.3599    0.2174 H   0  0  0  0  0  0  0  0  0  0  0  0
   -3.2554   -3.0382   -0.7920 H   0  0  0  0  0  0  0  0  0  0  0  0
   -3.0511   -4.6952   -0.0828 H   0  0  0  0  0  0  0  0  0  0  0  0
   -1.0068   -5.0007    1.5340 H   0  0  0  0  0  0  0  0  0  0  0  0
   -0.0965   -3.4773    1.8850 H   0  0  0  0  0  0  0  0  0  0  0  0
  1  4  1  0  0  0  0
  2  7  1  0  0  0  0
  4 12  1  0  0  0  0
  5 26  1  6  0  0  0
  5  2  1  0  0  0  0
  5  6  1  0  0  0  0
  5  4  1  0  0  0  0
  6  8  1  0  0  0  0
  7 28  1  0  0  0  0
  7  8  1  0  0  0  0
  7 27  1  0  0  0  0
  8 13  1  0  0  0  0
  9 10  1  0  0  0  0
  9  2  1  0  0  0  0
 10  3  1  0  0  0  0
 10 31  1  0  0  0  0
 11 34  1  0  0  0  0
 11 33  1  0  0  0  0
 11  4  1  0  0  0  0
 12 37  1  0  0  0  0
 12 38  1  0  0  0  0
 12 36  1  0  0  0  0
 13 41  1  0  0  0  0
 13 39  1  0  0  0  0
 13 40  1  0  0  0  0
 14 42  1  0  0  0  0
 14  8  1  0  0  0  0
 14 44  1  0  0  0  0
 15  3  1  0  0  0  0
 15 16  1  0  0  0  0
 16 48  1  0  0  0  0
 16 17  1  0  0  0  0
 17 49  1  0  0  0  0
 17 25  1  0  0  0  0
 18 17  1  0  0  0  0
 18 19  1  0  0  0  0
 19 20  1  0  0  0  0
 19 22  1  0  0  0  0
 21 19  1  0  0  0  0
 22 23  1  0  0  0  0
 22 24  1  0  0  0  0
 25 53  1  0  0  0  0
 25 22  1  0  0  0  0
 29  9  1  0  0  0  0
 30  9  1  0  0  0  0
 32 10  1  0  0  0  0
 35 11  1  0  0  0  0
 43 14  1  0  0  0  0
 45 15  1  0  0  0  0
 46 15  1  0  0  0  0
 47 16  1  0  0  0  0
 50 18  1  0  0  0  0
 51 18  1  0  0  0  0
 52 25  1  0  0  0  0
M  CHG  1  17   1
M  END
