1,2,4
q = -1.0

 34 35  0  0  1  0  0  0  0  0999 V2000
   -0.8076   -1.0768   -1.3803 S   0  0  0  0  0  1  0  0  0  0  0  0
    0.3744    1.8541    1.3278 N   0  0  0  0  0  2  0  0  0  0  0  0
    0.5997    3.8432    3.2342 N   0  0  0  0  0  0  0  0  0  0  0  0
   -1.6959    0.4881    0.8291 N   0  0  0  0  0  2  0  0  0  0  0  0
   -2.6895   -0.3126    0.4429 N   0  0  0  0  0  0  0  0  0  0  0  0
   -3.2770   -1.9963   -1.0678 N   0  0  0  0  0  0  0  0  0  0  0  0
   -2.9134   -2.5812   -1.8250 H   0  0  0  0  0  0  0  0  0  0  0  0
    1.5375    2.4989    1.4951 C   0  0  0  0  0  3  0  0  0  0  0  0
    2.3772    2.2150    0.8451 H   0  0  0  0  0  0  0  0  0  0  0  0
    1.6479    3.4817    2.4853 C   0  0  0  0  0  0  0  0  0  0  0  0
    2.6075    3.9961    2.6605 H   0  0  0  0  0  0  0  0  0  0  0  0
   -0.5769    3.2176    3.0741 C   0  0  0  0  0  0  0  0  0  0  0  0
   -0.7036    2.1445    2.1288 C   0  0  0  0  0  0  0  0  0  0  0  0
   -1.7089    3.7449    3.9117 C   0  0  0  0  0  0  0  0  0  0  0  0
   -1.9282    3.0759    4.7698 H   0  0  0  0  0  0  0  0  0  0  0  0
   -2.6440    3.8722    3.3351 H   0  0  0  0  0  0  0  0  0  0  0  0
   -1.3959    4.7204    4.3250 H   0  0  0  0  0  0  0  0  0  0  0  0
   -1.8654    1.3030    1.8766 C   0  0  2  0  0  3  0  0  0  0  0  0
   -3.1324    1.2523    2.6691 C   0  0  0  0  0  0  0  0  0  0  0  0
   -3.9025    1.9455    2.2673 H   0  0  0  0  0  0  0  0  0  0  0  0
   -2.9672    1.5032    3.7294 H   0  0  0  0  0  0  0  0  0  0  0  0
   -3.5522    0.2311    2.6000 H   0  0  0  0  0  0  0  0  0  0  0  0
   -2.3713   -1.1084   -0.5856 C   0  0  0  0  0  0  0  0  0  0  0  0
   -4.6135   -2.2769   -0.7122 C   0  0  0  0  0  0  0  0  0  0  0  0
   -5.3606   -1.5203    0.2168 C   0  0  0  0  0  0  0  0  0  0  0  0
   -4.8966   -0.6592    0.7089 H   0  0  0  0  0  0  0  0  0  0  0  0
   -6.6849   -1.8752    0.4975 C   0  0  0  0  0  0  0  0  0  0  0  0
   -7.2845   -1.2992    1.2165 H   0  0  0  0  0  0  0  0  0  0  0  0
   -7.2639   -2.9772   -0.1451 C   0  0  0  0  0  0  0  0  0  0  0  0
   -6.5392   -3.7369   -1.0741 C   0  0  0  0  0  0  0  0  0  0  0  0
   -7.0179   -4.5954   -1.5654 H   0  0  0  0  0  0  0  0  0  0  0  0
   -5.2174   -3.3835   -1.3532 C   0  0  0  0  0  0  0  0  0  0  0  0
   -4.6415   -3.9782   -2.0800 H   0  0  0  0  0  0  0  0  0  0  0  0
   -8.5309   -3.3095    0.1301 F   0  0  0  0  0  0  0  0  0  0  0  0
  1 23  1  0  0  0  0
  2  8  1  0  0  0  0
  2 13  1  0  0  0  0
  5  4  1  0  0  0  0
  6 24  1  0  0  0  0
  6 23  1  0  0  0  0
  7  6  1  0  0  0  0
  8 10  1  0  0  0  0
  9  8  1  0  0  0  0
 10 11  1  0  0  0  0
 10  3  2  0  0  0  0
 12  3  1  0  0  0  0
 12 14  1  0  0  0  0
 13 12  2  0  0  0  0
 14 17  1  0  0  0  0
 14 15  1  0  0  0  0
 16 14  1  0  0  0  0
 18  4  1  1  0  0  0
 18 13  1  0  0  0  0
 18 19  1  0  0  0  0
 19 21  1  0  0  0  0
 20 19  1  0  0  0  0
 22 19  1  0  0  0  0
 23  5  2  0  0  0  0
 24 25  1  0  0  0  0
 25 27  2  0  0  0  0
 25 26  1  0  0  0  0
 27 28  1  0  0  0  0
 29 34  1  0  0  0  0
 29 27  1  0  0  0  0
 30 29  2  0  0  0  0
 31 30  1  0  0  0  0
 32 30  1  0  0  0  0
 32 24  2  0  0  0  0
 33 32  1  0  0  0  0
M  END
