1,5,6
q = -1.0, confidence = 0.0

 22 22  0  0  0  0  0  0  0  0999 V2000
   -1.5444    1.6888    0.4311 S   0  0  0  0  0  1  0  0  0  0  0  0
   -3.1435    2.5237   -1.5485 N   0  0  0  0  0  0  0  0  0  0  0  0
   -3.4391    2.4750   -2.5267 H   0  0  0  0  0  0  0  0  0  0  0  0
   -1.6639    0.8901   -2.1816 N   0  0  0  0  0  0  0  0  0  0  0  0
   -0.6712    0.1146   -1.7724 N   0  0  0  0  0  2  0  0  0  0  0  0
    1.2108   -1.2617   -0.6873 N   0  0  0  0  0  2  0  0  0  0  0  0
   -3.7809    3.4562   -0.6416 C   0  0  0  0  0  0  0  0  0  0  0  0
   -4.5282    4.0487   -1.1984 H   0  0  0  0  0  0  0  0  0  0  0  0
   -3.0346    4.1473   -0.1954 H   0  0  0  0  0  0  0  0  0  0  0  0
   -4.2918    2.9242    0.1891 H   0  0  0  0  0  0  0  0  0  0  0  0
   -2.1451    1.6889   -1.2063 C   0  0  0  0  0  0  0  0  0  0  0  0
   -0.0783   -0.7372   -2.5988 C   0  0  0  0  0  0  0  0  0  0  0  0
   -0.3902   -0.8071   -3.6514 H   0  0  0  0  0  0  0  0  0  0  0  0
    0.9779   -1.5203   -2.0168 C   0  0  0  0  0  0  0  0  0  0  0  0
    1.7473   -2.4838   -2.7030 C   0  0  0  0  0  0  0  0  0  0  0  0
    1.5451   -2.6773   -3.7659 H   0  0  0  0  0  0  0  0  0  0  0  0
    2.7536   -3.1686   -2.0168 C   0  0  0  0  0  0  0  0  0  0  0  0
    3.3642   -3.9211   -2.5370 H   0  0  0  0  0  0  0  0  0  0  0  0
    2.9797   -2.8822   -0.6595 C   0  0  0  0  0  0  0  0  0  0  0  0
    3.7655   -3.3937   -0.0871 H   0  0  0  0  0  0  0  0  0  0  0  0
    2.1832   -1.9172   -0.0315 C   0  0  0  0  0  0  0  0  0  0  0  0
    2.3302   -1.6501    1.0253 H   0  0  0  0  0  0  0  0  0  0  0  0
  2 11  1  0  0  0  0
  2  7  1  0  0  0  0
  3  2  1  0  0  0  0
  4  5  1  0  0  0  0
  4 11  2  0  0  0  0
  6 21  1  0  0  0  0
  7  9  1  0  0  0  0
  7 10  1  0  0  0  0
  8  7  1  0  0  0  0
 11  1  1  0  0  0  0
 12 14  2  0  0  0  0
 12  5  1  0  0  0  0
 13 12  1  0  0  0  0
 14  6  1  0  0  0  0
 15 17  2  0  0  0  0
 15 14  1  0  0  0  0
 16 15  1  0  0  0  0
 17 19  1  0  0  0  0
 18 17  1  0  0  0  0
 19 20  1  0  0  0  0
 19 21  2  0  0  0  0
 21 22  1  0  0  0  0
M  END
