1,4,7
q = 0.0, confidence = 0.998

 25 25  0  0  1  0  0  0  0  0999 V2000
   -2.3009    0.8782   -1.0739 S   0  0  0  0  0  1  0  0  0  0  0  0
   -3.7906   -1.2029   -0.3064 N   0  0  0  0  0  0  0  0  0  0  0  0
   -3.8311   -2.2031   -0.0963 H   0  0  0  0  0  0  0  0  0  0  0  0
   -0.2748   -1.1168   -0.4955 N   0  0  0  0  0  2  0  0  0  0  0  0
   -1.5349   -1.5889   -0.1522 N   0  0  0  0  0  0  0  0  0  0  0  0
   -1.5455   -1.6203    0.9041 H   0  0  0  0  0  0  0  0  0  0  0  0
    1.9916    0.1574   -0.1356 N   0  0  0  0  0  2  0  0  0  0  0  0
    0.6889   -3.1650    0.2377 N   0  0  0  0  0  0  0  0  0  0  0  0
   -0.2388   -3.5759    0.3490 H   0  0  0  0  0  0  0  0  0  0  0  0
    1.4250   -3.5279    0.8425 H   0  0  0  0  0  0  0  0  0  0  0  0
   -2.5656   -0.6816   -0.5198 C   0  0  2  0  0  3  0  0  0  0  0  0
    2.0596   -1.1826   -0.2788 C   0  0  1  0  0  3  0  0  0  0  0  0
    4.3636    0.3201   -0.4241 C   0  0  0  0  0  0  0  0  0  0  0  0
    5.2605    0.9541   -0.4726 H   0  0  0  0  0  0  0  0  0  0  0  0
    3.1012    0.9017   -0.2210 C   0  0  0  0  0  0  0  0  0  0  0  0
    2.9276    1.9891   -0.1190 H   0  0  0  0  0  0  0  0  0  0  0  0
    3.2796   -1.8443   -0.4954 C   0  0  0  0  0  0  0  0  0  0  0  0
    3.3050   -2.9342   -0.6407 H   0  0  0  0  0  0  0  0  0  0  0  0
    0.7430   -1.8656   -0.1733 C   0  0  2  0  0  3  0  0  0  0  0  0
   -5.0236   -0.4550   -0.4404 C   0  0  0  0  0  0  0  0  0  0  0  0
   -5.8483   -1.0345    0.0144 H   0  0  0  0  0  0  0  0  0  0  0  0
   -5.2644   -0.2506   -1.5058 H   0  0  0  0  0  0  0  0  0  0  0  0
   -4.9273    0.5241    0.0705 H   0  0  0  0  0  0  0  0  0  0  0  0
    4.4500   -1.0730   -0.5623 C   0  0  0  0  0  0  0  0  0  0  0  0
    5.4223   -1.5585   -0.7350 H   0  0  0  0  0  0  0  0  0  0  0  0
  2  3  1  0  0  0  0
  4  5  1  0  0  0  0
  5  6  1  0  0  0  0
  8  9  1  0  0  0  0
  8 10  1  0  0  0  0
 11  1  1  1  0  0  0
 11  2  1  0  0  0  0
 11  5  1  0  0  0  0
 12 19  1  1  0  0  0
 12  7  1  0  0  0  0
 13 15  2  0  0  0  0
 14 13  1  0  0  0  0
 15  7  1  0  0  0  0
 15 16  1  0  0  0  0
 17 12  1  0  0  0  0
 18 17  1  0  0  0  0
 19  4  1  1  0  0  0
 19  8  1  0  0  0  0
 20  2  1  0  0  0  0
 20 21  1  0  0  0  0
 20 23  1  0  0  0  0
 22 20  1  0  0  0  0
 24 17  2  0  0  0  0
 24 13  1  0  0  0  0
 25 24  1  0  0  0  0
M  END
