1,2,7,32
q = -2.0, confidence = 0.92

 79 83  0  0  1  0  0  0  0  0999 V2000
   -0.7527    2.4913    0.0115 O   0  5  0  0  0  0  0  0  0  0  0  0
   -0.5073   -0.3490   -0.4616 N   0  0  0  0  0  2  0  0  0  0  0  0
   -1.9722    2.3120   -0.4083 C   0  0  0  0  0  0  0  0  0  0  0  0
   -2.4148   -1.4982   -0.6368 N   0  0  0  0  0  0  0  0  0  0  0  0
   -2.8073    3.4735   -0.5057 C   0  0  0  0  0  0  0  0  0  0  0  0
   -2.3605    4.4190   -0.1648 H   0  0  0  0  0  0  0  0  0  0  0  0
    2.2309    2.4657    0.3164 N   0  0  0  0  0  2  0  0  0  0  0  0
   -4.0881    3.4291   -1.0348 C   0  0  0  0  0  0  0  0  0  0  0  0
   -4.6831    4.3531   -1.1065 H   0  0  0  0  0  0  0  0  0  0  0  0
   -4.6149    2.2056   -1.5101 C   0  0  0  0  0  0  0  0  0  0  0  0
   -5.6060    2.1639   -1.9846 H   0  0  0  0  0  0  0  0  0  0  0  0
   -3.8551    1.0494   -1.3836 C   0  0  0  0  0  3  0  0  0  0  0  0
   -4.2634    0.1175   -1.7900 H   0  0  0  0  0  0  0  0  0  0  0  0
   -2.5585    1.0360   -0.7903 C   0  0  0  0  0  0  0  0  0  0  0  0
   -1.8514   -0.2202   -0.6157 C   0  0  0  0  0  0  0  0  0  0  0  0
   -1.3776   -2.4300   -0.5513 C   0  0  0  0  0  0  0  0  0  0  0  0
   -1.3872   -3.8305   -0.5457 C   0  0  0  0  0  0  0  0  0  0  0  0
   -2.3139   -4.4153   -0.6227 H   0  0  0  0  0  0  0  0  0  0  0  0
   -0.1363   -4.4592   -0.4432 C   0  0  0  0  0  0  0  0  0  0  0  0
   -0.0884   -5.5583   -0.4354 H   0  0  0  0  0  0  0  0  0  0  0  0
    1.0604   -3.7262   -0.3503 C   0  0  0  0  0  0  0  0  0  0  0  0
    1.9975   -4.2914   -0.2627 H   0  0  0  0  0  0  0  0  0  0  0  0
    1.1024   -2.3103   -0.3480 C   0  0  0  0  0  0  0  0  0  0  0  0
   -0.1726   -1.6896   -0.4470 C   0  0  0  0  0  0  0  0  0  0  0  0
    2.3587   -1.5360   -0.2328 C   0  0  0  0  0  0  0  0  0  0  0  0
    3.6083   -2.2093   -0.2531 C   0  0  0  0  0  0  0  0  0  0  0  0
    3.6107   -3.2947   -0.4082 H   0  0  0  0  0  0  0  0  0  0  0  0
    4.8438   -1.5623   -0.0938 C   0  0  0  0  0  0  0  0  0  0  0  0
    4.8227   -0.1679    0.1083 C   0  0  0  0  0  3  0  0  0  0  0  0
    5.7698    0.3735    0.2566 H   0  0  0  0  0  0  0  0  0  0  0  0
    3.6114    0.5393    0.1177 C   0  0  0  0  0  0  0  0  0  0  0  0
    2.3541   -0.1215   -0.0788 C   0  0  0  0  0  3  0  0  0  0  0  0
    3.5196    1.9833    0.3409 C   0  0  0  0  0  0  0  0  0  0  0  0
    4.5840    2.8738    0.5766 C   0  0  0  0  0  0  0  0  0  0  0  0
    5.6129    2.4896    0.5956 H   0  0  0  0  0  0  0  0  0  0  0  0
    4.3275    4.2325    0.7840 C   0  0  0  0  0  0  0  0  0  0  0  0
    5.1584    4.9299    0.9677 H   0  0  0  0  0  0  0  0  0  0  0  0
    3.0001    4.6950    0.7547 C   0  0  0  0  0  0  0  0  0  0  0  0
    2.7556    5.7544    0.9132 H   0  0  0  0  0  0  0  0  0  0  0  0
    1.9754    3.7772    0.5161 C   0  0  0  0  0  0  0  0  0  0  0  0
    0.9090    4.0506    0.4709 H   0  0  0  0  0  0  0  0  0  0  0  0
    6.1889   -2.3108   -0.1268 C   0  0  0  0  0  0  0  0  0  0  0  0
    6.9180   -2.1085    1.2210 C   0  0  0  0  0  0  0  0  0  0  0  0
    7.1132   -1.0371    1.4271 H   0  0  0  0  0  0  0  0  0  0  0  0
    7.8961   -2.6331    1.2175 H   0  0  0  0  0  0  0  0  0  0  0  0
    6.3143   -2.5077    2.0610 H   0  0  0  0  0  0  0  0  0  0  0  0
    6.0097   -3.8213   -0.3571 C   0  0  0  0  0  0  0  0  0  0  0  0
    7.0005   -4.3183   -0.3758 H   0  0  0  0  0  0  0  0  0  0  0  0
    5.5113   -4.0347   -1.3242 H   0  0  0  0  0  0  0  0  0  0  0  0
    5.4151   -4.2943    0.4504 H   0  0  0  0  0  0  0  0  0  0  0  0
    7.0576   -1.7448   -1.2732 C   0  0  0  0  0  0  0  0  0  0  0  0
    7.2556   -0.6621   -1.1433 H   0  0  0  0  0  0  0  0  0  0  0  0
    6.5559   -1.8793   -2.2527 H   0  0  0  0  0  0  0  0  0  0  0  0
    8.0381   -2.2636   -1.3121 H   0  0  0  0  0  0  0  0  0  0  0  0
   -3.8046   -1.8797   -0.3713 C   0  0  0  0  0  0  0  0  0  0  0  0
   -3.8148   -2.9853   -0.3107 H   0  0  0  0  0  0  0  0  0  0  0  0
   -4.4498   -1.6199   -1.2306 H   0  0  0  0  0  0  0  0  0  0  0  0
   -4.3649   -1.3075    0.9445 C   0  0  2  0  0  0  0  0  0  0  0  0
   -4.2527   -0.2017    0.9071 H   0  0  0  0  0  0  0  0  0  0  0  0
   -3.5577   -1.8234    2.1510 C   0  0  0  0  0  0  0  0  0  0  0  0
   -2.4744   -1.7651    1.9120 H   0  0  0  0  0  0  0  0  0  0  0  0
   -3.7763   -2.9059    2.2949 H   0  0  0  0  0  0  0  0  0  0  0  0
   -3.8097   -1.0546    3.4486 C   0  0  0  0  0  0  0  0  0  0  0  0
   -3.1907   -1.4537    4.2767 H   0  0  0  0  0  0  0  0  0  0  0  0
   -4.8687   -1.1115    3.7739 H   0  0  0  0  0  0  0  0  0  0  0  0
   -3.5550    0.0188    3.3282 H   0  0  0  0  0  0  0  0  0  0  0  0
   -5.8678   -1.6202    1.0568 C   0  0  0  0  0  0  0  0  0  0  0  0
   -6.0248   -2.7180    0.9411 H   0  0  0  0  0  0  0  0  0  0  0  0
   -6.1981   -1.3833    2.0905 H   0  0  0  0  0  0  0  0  0  0  0  0
   -6.7705   -0.8594    0.0793 C   0  0  0  0  0  0  0  0  0  0  0  0
   -6.5697    0.2313    0.1719 H   0  0  0  0  0  0  0  0  0  0  0  0
   -6.5112   -1.1170   -0.9723 H   0  0  0  0  0  0  0  0  0  0  0  0
   -8.2638   -1.1250    0.2918 C   0  0  0  0  0  0  0  0  0  0  0  0
   -8.5344   -0.8583    1.3379 H   0  0  0  0  0  0  0  0  0  0  0  0
   -8.4577   -2.2175    0.2038 H   0  0  0  0  0  0  0  0  0  0  0  0
   -9.1593   -0.3608   -0.6837 C   0  0  0  0  0  0  0  0  0  0  0  0
  -10.2339   -0.5670   -0.5055 H   0  0  0  0  0  0  0  0  0  0  0  0
   -8.9363   -0.6361   -1.7360 H   0  0  0  0  0  0  0  0  0  0  0  0
   -9.0089    0.7353   -0.5928 H   0  0  0  0  0  0  0  0  0  0  0  0
  2 24  1  0  0  0  0
  3  1  1  0  0  0  0
  4 15  1  0  0  0  0
  4 16  1  0  0  0  0
  4 55  1  0  0  0  0
  5  3  2  0  0  0  0
  5  6  1  0  0  0  0
  7 33  1  0  0  0  0
  7 40  1  0  0  0  0
  8  5  1  0  0  0  0
  9  8  1  0  0  0  0
 10 12  1  0  0  0  0
 10  8  2  0  0  0  0
 11 10  1  0  0  0  0
 12 14  1  0  0  0  0
 13 12  1  0  0  0  0
 14 15  2  0  0  0  0
 14  3  1  0  0  0  0
 15  2  1  0  0  0  0
 16 17  2  0  0  0  0
 16 24  1  0  0  0  0
 17 19  1  0  0  0  0
 18 17  1  0  0  0  0
 19 20  1  0  0  0  0
 19 21  2  0  0  0  0
 21 23  1  0  0  0  0
 21 22  1  0  0  0  0
 23 25  1  0  0  0  0
 24 23  2  0  0  0  0
 25 32  2  0  0  0  0
 26 25  1  0  0  0  0
 26 28  2  0  0  0  0
 27 26  1  0  0  0  0
 28 29  1  0  0  0  0
 29 31  1  0  0  0  0
 29 30  1  0  0  0  0
 31 33  2  0  0  0  0
 32 31  1  0  0  0  0
 33 34  1  0  0  0  0
 34 35  1  0  0  0  0
 34 36  2  0  0  0  0
 36 37  1  0  0  0  0
 38 36  1  0  0  0  0
 38 39  1  0  0  0  0
 40 38  2  0  0  0  0
 41 40  1  0  0  0  0
 42 28  1  0  0  0  0
 42 43  1  0  0  0  0
 43 44  1  0  0  0  0
 43 46  1  0  0  0  0
 45 43  1  0  0  0  0
 47 42  1  0  0  0  0
 47 50  1  0  0  0  0
 48 47  1  0  0  0  0
 49 47  1  0  0  0  0
 51 52  1  0  0  0  0
 51 42  1  0  0  0  0
 53 51  1  0  0  0  0
 54 51  1  0  0  0  0
 55 56  1  0  0  0  0
 55 58  1  0  0  0  0
 57 55  1  0  0  0  0
 58 59  1  6  0  0  0
 58 67  1  0  0  0  0
 58 60  1  0  0  0  0
 60 62  1  0  0  0  0
 60 63  1  0  0  0  0
 61 60  1  0  0  0  0
 63 65  1  0  0  0  0
 63 64  1  0  0  0  0
 66 63  1  0  0  0  0
 67 69  1  0  0  0  0
 68 67  1  0  0  0  0
 70 71  1  0  0  0  0
 70 73  1  0  0  0  0
 70 67  1  0  0  0  0
 72 70  1  0  0  0  0
 73 74  1  0  0  0  0
 75 73  1  0  0  0  0
 76 79  1  0  0  0  0
 76 77  1  0  0  0  0
 76 73  1  0  0  0  0
 78 76  1  0  0  0  0
M  CHG  1   1  -1
M  END
