1,5,6,7
q = -1.0, confidence = 0.086

 53 55  0  0  1  0  0  0  0  0999 V2000
    1.0642   -1.9575   -0.5550 O   0  0  0  0  0  1  0  0  0  0  0  0
    3.1497   -2.7950   -0.6784 O   0  0  0  0  0  0  0  0  0  0  0  0
   -1.4933   -1.3008    1.6391 O   0  0  0  0  0  0  0  0  0  0  0  0
   -3.6227   -2.0752    1.5558 O   0  0  0  0  0  0  0  0  0  0  0  0
    2.0316    0.5367    0.2097 N   0  0  0  0  0  0  0  0  0  0  0  0
   -2.0866    0.3075   -0.6866 N   0  0  0  0  0  0  0  0  0  0  0  0
   -0.1609    2.0151   -0.0825 C   0  0  0  0  0  3  0  0  0  0  0  0
    1.0249    2.7704   -0.0137 C   0  0  0  0  0  0  0  0  0  0  0  0
    0.9045    4.1607    0.1606 C   0  0  0  0  0  0  0  0  0  0  0  0
    1.8009    4.7970    0.2272 H   0  0  0  0  0  0  0  0  0  0  0  0
   -0.3751    4.7441    0.2411 C   0  0  0  0  0  0  0  0  0  0  0  0
   -0.4610    5.8332    0.3675 H   0  0  0  0  0  0  0  0  0  0  0  0
   -1.5464    3.9657    0.1686 C   0  0  0  0  0  0  0  0  0  0  0  0
   -2.5321    4.4514    0.2408 H   0  0  0  0  0  0  0  0  0  0  0  0
   -1.4443    2.5714    0.0172 C   0  0  0  0  0  0  0  0  0  0  0  0
    2.2947    1.9754   -0.1965 C   0  0  0  0  0  0  0  0  0  0  0  0
    2.5796    1.9577   -1.2695 H   0  0  0  0  0  0  0  0  0  0  0  0
    3.1575    2.3892    0.3682 H   0  0  0  0  0  0  0  0  0  0  0  0
    2.2453    0.3444    1.6869 C   0  0  0  0  0  0  0  0  0  0  0  0
    1.6779   -0.5582    1.9888 H   0  0  0  0  0  0  0  0  0  0  0  0
    1.8124    1.2047    2.2302 H   0  0  0  0  0  0  0  0  0  0  0  0
    3.7617    0.1472    1.8598 C   0  0  0  0  0  0  0  0  0  0  0  0
    3.9755   -0.5313    2.7070 H   0  0  0  0  0  0  0  0  0  0  0  0
    4.2675    1.1058    2.0861 H   0  0  0  0  0  0  0  0  0  0  0  0
    4.2466   -0.4264    0.5019 C   0  0  0  0  0  0  0  0  0  0  0  0
    4.6760   -1.4411    0.5835 H   0  0  0  0  0  0  0  0  0  0  0  0
    5.0240    0.2155    0.0473 H   0  0  0  0  0  0  0  0  0  0  0  0
    2.9845   -0.4383   -0.3972 C   0  0  1  0  0  0  0  0  0  0  0  0
    3.2064   -0.1267   -1.4398 H   0  0  0  0  0  0  0  0  0  0  0  0
    2.2888   -1.8013   -0.5298 C   0  0  1  0  0  3  0  0  0  0  0  0
    2.6024   -4.1156   -0.9004 C   0  0  0  0  0  0  0  0  0  0  0  0
    1.9844   -4.4204   -0.0343 H   0  0  0  0  0  0  0  0  0  0  0  0
    3.4731   -4.7823   -1.0157 H   0  0  0  0  0  0  0  0  0  0  0  0
    1.9790   -4.1200   -1.8151 H   0  0  0  0  0  0  0  0  0  0  0  0
   -2.5546    1.5524    0.0194 C   0  0  0  0  0  0  0  0  0  0  0  0
   -2.7872    1.2642    1.0665 H   0  0  0  0  0  0  0  0  0  0  0  0
   -3.4995    1.9145   -0.4438 H   0  0  0  0  0  0  0  0  0  0  0  0
   -2.2608    0.3880   -2.1701 C   0  0  0  0  0  0  0  0  0  0  0  0
   -1.5644    1.1327   -2.5958 H   0  0  0  0  0  0  0  0  0  0  0  0
   -3.3032    0.7225   -2.3787 H   0  0  0  0  0  0  0  0  0  0  0  0
   -2.0428   -1.0513   -2.6415 C   0  0  0  0  0  0  0  0  0  0  0  0
   -0.9707   -1.2290   -2.8567 H   0  0  0  0  0  0  0  0  0  0  0  0
   -2.6088   -1.2603   -3.5686 H   0  0  0  0  0  0  0  0  0  0  0  0
   -2.5083   -1.9247   -1.4440 C   0  0  0  0  0  0  0  0  0  0  0  0
   -3.3813   -2.5613   -1.6771 H   0  0  0  0  0  0  0  0  0  0  0  0
   -1.6907   -2.5874   -1.1000 H   0  0  0  0  0  0  0  0  0  0  0  0
   -2.8723   -0.9034   -0.3352 C   0  0  1  0  0  0  0  0  0  0  0  0
   -3.9567   -0.6579   -0.3864 H   0  0  0  0  0  0  0  0  0  0  0  0
   -2.5640   -1.4190    1.0656 C   0  0  0  0  0  0  0  0  0  0  0  0
   -3.4432   -2.7055    2.8400 C   0  0  0  0  0  0  0  0  0  0  0  0
   -2.6239   -3.4494    2.7942 H   0  0  0  0  0  0  0  0  0  0  0  0
   -4.4033   -3.1970    3.0716 H   0  0  0  0  0  0  0  0  0  0  0  0
   -3.1963   -1.9485    3.6097 H   0  0  0  0  0  0  0  0  0  0  0  0
  2 30  1  0  0  0  0
  4 50  1  0  0  0  0
  5 19  1  0  0  0  0
  6 47  1  0  0  0  0
  6 35  1  0  0  0  0
  7  8  2  0  0  0  0
  7 15  1  0  0  0  0
  8  9  1  0  0  0  0
  9 10  1  0  0  0  0
  9 11  2  0  0  0  0
 11 12  1  0  0  0  0
 13 14  1  0  0  0  0
 13 11  1  0  0  0  0
 15 35  1  0  0  0  0
 15 13  2  0  0  0  0
 16  8  1  0  0  0  0
 16  5  1  0  0  0  0
 16 18  1  0  0  0  0
 17 16  1  0  0  0  0
 19 22  1  0  0  0  0
 19 20  1  0  0  0  0
 19 21  1  0  0  0  0
 22 24  1  0  0  0  0
 22 23  1  0  0  0  0
 25 26  1  0  0  0  0
 25 22  1  0  0  0  0
 27 25  1  0  0  0  0
 28 29  1  6  0  0  0
 28  5  1  0  0  0  0
 28 25  1  0  0  0  0
 30  1  1  6  0  0  0
 30 28  1  0  0  0  0
 31  2  1  0  0  0  0
 31 32  1  0  0  0  0
 33 31  1  0  0  0  0
 34 31  1  0  0  0  0
 35 36  1  0  0  0  0
 37 35  1  0  0  0  0
 38  6  1  0  0  0  0
 39 38  1  0  0  0  0
 40 38  1  0  0  0  0
 41 38  1  0  0  0  0
 41 44  1  0  0  0  0
 42 41  1  0  0  0  0
 43 41  1  0  0  0  0
 44 46  1  0  0  0  0
 44 47  1  0  0  0  0
 45 44  1  0  0  0  0
 47 48  1  6  0  0  0
 47 49  1  0  0  0  0
 49  4  1  0  0  0  0
 49  3  2  0  0  0  0
 50 52  1  0  0  0  0
 50 53  1  0  0  0  0
 51 50  1  0  0  0  0
M  END
