3,4,5,28
q = -2.0, confidence = 0.906

 64 68  0  0  1  0  0  0  0  0999 V2000
    1.6182    4.5432    0.5633 F   0  0  0  0  0  0  0  0  0  0  0  0
    5.7329    2.2519    0.2654 F   0  0  0  0  0  0  0  0  0  0  0  0
   -0.1929    0.5728    0.0431 N   0  0  0  0  0  2  0  0  0  0  0  0
    3.2808   -1.3826   -0.2117 N   0  0  0  0  0  2  0  0  0  0  0  0
    0.2334   -2.4291   -0.3511 O   0  0  0  0  0  1  0  0  0  0  0  0
   -1.0781   -2.4110   -0.3494 C   0  0  2  0  0  3  0  0  0  0  0  0
   -1.8292   -3.6194   -0.5093 C   0  0  0  0  0  0  0  0  0  0  0  0
   -1.2626   -4.5542   -0.6326 H   0  0  0  0  0  0  0  0  0  0  0  0
   -3.2254   -3.6209   -0.5102 C   0  0  0  0  0  0  0  0  0  0  0  0
   -3.7516   -4.5805   -0.6374 H   0  0  0  0  0  0  0  0  0  0  0  0
   -3.9905   -2.4350   -0.3538 C   0  0  0  0  0  0  0  0  0  0  0  0
   -5.0900   -2.4739   -0.3593 H   0  0  0  0  0  0  0  0  0  0  0  0
   -3.3007   -1.2376   -0.1954 C   0  0  0  0  0  0  0  0  0  0  0  0
   -1.8787   -1.2278   -0.1937 C   0  0  0  0  0  0  0  0  0  0  0  0
   -1.4600    0.1357   -0.0139 C   0  0  0  0  0  0  0  0  0  0  0  0
   -2.5709    1.0088    0.1012 C   0  0  0  0  0  0  0  0  0  0  0  0
   -2.3211    2.3666    0.2780 C   0  0  0  0  0  0  0  0  0  0  0  0
   -3.1451    3.0908    0.3721 H   0  0  0  0  0  0  0  0  0  0  0  0
   -0.9783    2.8253    0.3377 C   0  0  0  0  0  0  0  0  0  0  0  0
   -0.7535    3.8902    0.4766 H   0  0  0  0  0  0  0  0  0  0  0  0
    0.0878    1.9236    0.2199 C   0  0  0  0  0  0  0  0  0  0  0  0
    1.5352    2.1758    0.2532 C   0  0  0  0  0  0  0  0  0  0  0  0
    2.2623    3.3688    0.4098 C   0  0  0  0  0  0  0  0  0  0  0  0
    3.6692    3.3851    0.4127 C   0  0  0  0  0  0  0  0  0  0  0  0
    4.2067    4.3338    0.5372 H   0  0  0  0  0  0  0  0  0  0  0  0
    4.3840    2.1878    0.2563 C   0  0  0  0  0  3  0  0  0  0  0  0
    3.7266    0.9512    0.0940 C   0  0  0  0  0  0  0  0  0  0  0  0
    2.3117    0.9945    0.0989 C   0  0  0  0  0  3  0  0  0  0  0  0
    4.2596   -0.4022   -0.0827 C   0  0  0  0  0  0  0  0  0  0  0  0
    5.6171   -0.7712   -0.1296 C   0  0  0  0  0  0  0  0  0  0  0  0
    6.3780    0.0124   -0.0266 H   0  0  0  0  0  0  0  0  0  0  0  0
    5.9705   -2.1138   -0.3047 C   0  0  0  0  0  0  0  0  0  0  0  0
    7.0315   -2.4023   -0.3413 H   0  0  0  0  0  0  0  0  0  0  0  0
    4.9631   -3.0845   -0.4324 C   0  0  0  0  0  0  0  0  0  0  0  0
    5.2015   -4.1481   -0.5711 H   0  0  0  0  0  0  0  0  0  0  0  0
    3.6278   -2.6754   -0.3803 C   0  0  0  0  0  0  0  0  0  0  0  0
    2.7831   -3.3764   -0.4726 H   0  0  0  0  0  0  0  0  0  0  0  0
   -3.8539    0.1861   -0.0049 C   0  0  0  0  0  0  0  0  0  0  0  0
   -4.7005    0.2951    1.2911 C   0  0  0  0  0  0  0  0  0  0  0  0
   -5.0599    1.3447    1.3844 H   0  0  0  0  0  0  0  0  0  0  0  0
   -5.6122   -0.3271    1.1534 H   0  0  0  0  0  0  0  0  0  0  0  0
   -3.9847   -0.1231    2.5760 C   0  0  0  0  0  0  0  0  0  0  0  0
   -3.6265   -1.1704    2.4719 H   0  0  0  0  0  0  0  0  0  0  0  0
   -3.0712    0.4970    2.7132 H   0  0  0  0  0  0  0  0  0  0  0  0
   -4.8653   -0.0072    3.8236 C   0  0  0  0  0  0  0  0  0  0  0  0
   -5.2280    1.0408    3.9217 H   0  0  0  0  0  0  0  0  0  0  0  0
   -5.7795   -0.6267    3.6841 H   0  0  0  0  0  0  0  0  0  0  0  0
   -4.1504   -0.4271    5.1084 C   0  0  0  0  0  0  0  0  0  0  0  0
   -3.8082   -1.4814    5.0510 H   0  0  0  0  0  0  0  0  0  0  0  0
   -4.8088   -0.3357    5.9958 H   0  0  0  0  0  0  0  0  0  0  0  0
   -3.2519    0.1987    5.2914 H   0  0  0  0  0  0  0  0  0  0  0  0
   -4.7106    0.6352   -1.2184 C   0  0  0  0  0  0  0  0  0  0  0  0
   -5.6249    0.0017   -1.2432 H   0  0  0  0  0  0  0  0  0  0  0  0
   -5.0625    1.6711   -1.0197 H   0  0  0  0  0  0  0  0  0  0  0  0
   -4.0033    0.5617   -2.5738 C   0  0  0  0  0  0  0  0  0  0  0  0
   -3.0867    1.1922   -2.5480 H   0  0  0  0  0  0  0  0  0  0  0  0
   -3.6522   -0.4792   -2.7360 H   0  0  0  0  0  0  0  0  0  0  0  0
   -4.8773    0.9917   -3.7602 C   0  0  0  0  0  0  0  0  0  0  0  0
   -4.3282    0.7701   -4.7005 H   0  0  0  0  0  0  0  0  0  0  0  0
   -5.7908    0.3560   -3.7906 H   0  0  0  0  0  0  0  0  0  0  0  0
   -5.2803    2.4687   -3.7531 C   0  0  0  0  0  0  0  0  0  0  0  0
   -5.9096    2.7265   -2.8765 H   0  0  0  0  0  0  0  0  0  0  0  0
   -5.8599    2.7361   -4.6597 H   0  0  0  0  0  0  0  0  0  0  0  0
   -4.3862    3.1269   -3.7223 H   0  0  0  0  0  0  0  0  0  0  0  0
  3 21  1  0  0  0  0
  4 29  1  0  0  0  0
  6  5  1  6  0  0  0
  6 14  1  0  0  0  0
  7  6  1  0  0  0  0
  8  7  1  0  0  0  0
  9  7  2  0  0  0  0
  9 11  1  0  0  0  0
 10  9  1  0  0  0  0
 11 13  2  0  0  0  0
 12 11  1  0  0  0  0
 13 14  1  0  0  0  0
 13 38  1  0  0  0  0
 14 15  2  0  0  0  0
 15  3  1  0  0  0  0
 15 16  1  0  0  0  0
 16 17  2  0  0  0  0
 17 19  1  0  0  0  0
 17 18  1  0  0  0  0
 19 20  1  0  0  0  0
 21 22  1  0  0  0  0
 21 19  2  0  0  0  0
 22 23  1  0  0  0  0
 23 24  2  0  0  0  0
 23  1  1  0  0  0  0
 24 25  1  0  0  0  0
 26  2  1  0  0  0  0
 26 24  1  0  0  0  0
 27 28  1  0  0  0  0
 27 26  1  0  0  0  0
 28 22  2  0  0  0  0
 29 27  2  0  0  0  0
 30 29  1  0  0  0  0
 30 31  1  0  0  0  0
 32 30  2  0  0  0  0
 33 32  1  0  0  0  0
 34 36  2  0  0  0  0
 34 32  1  0  0  0  0
 35 34  1  0  0  0  0
 36  4  1  0  0  0  0
 37 36  1  0  0  0  0
 38 16  1  0  0  0  0
 38 39  1  0  0  0  0
 39 40  1  0  0  0  0
 39 42  1  0  0  0  0
 41 39  1  0  0  0  0
 42 44  1  0  0  0  0
 42 45  1  0  0  0  0
 43 42  1  0  0  0  0
 45 46  1  0  0  0  0
 45 48  1  0  0  0  0
 47 45  1  0  0  0  0
 48 51  1  0  0  0  0
 48 50  1  0  0  0  0
 49 48  1  0  0  0  0
 52 54  1  0  0  0  0
 52 38  1  0  0  0  0
 53 52  1  0  0  0  0
 55 56  1  0  0  0  0
 55 52  1  0  0  0  0
 57 55  1  0  0  0  0
 58 61  1  0  0  0  0
 58 55  1  0  0  0  0
 59 58  1  0  0  0  0
 60 58  1  0  0  0  0
 61 64  1  0  0  0  0
 61 62  1  0  0  0  0
 63 61  1  0  0  0  0
M  END
