2,3,4,21
q = -2.0, confidence = 0.846

 64 68  0  0  1  0  0  0  0  0999 V2000
    4.4993    4.5243    0.0012 F   0  0  0  0  0  0  0  0  0  0  0  0
    0.1887   -2.3746   -0.0008 O   0  0  0  0  0  1  0  0  0  0  0  0
    3.2883   -1.3992   -0.0006 N   0  0  0  0  0  2  0  0  0  0  0  0
   -0.1232    0.6717    0.0001 N   0  0  0  0  0  2  0  0  0  0  0  0
    3.6088   -2.7103   -0.0009 C   0  0  0  0  0  0  0  0  0  0  0  0
    2.7505   -3.4006   -0.0011 H   0  0  0  0  0  0  0  0  0  0  0  0
    4.9351   -3.1511   -0.0010 C   0  0  0  0  0  0  0  0  0  0  0  0
    5.1502   -4.2286   -0.0013 H   0  0  0  0  0  0  0  0  0  0  0  0
    5.9650   -2.1949   -0.0008 C   0  0  0  0  0  0  0  0  0  0  0  0
    7.0192   -2.5092   -0.0009 H   0  0  0  0  0  0  0  0  0  0  0  0
    5.6367   -0.8350   -0.0004 C   0  0  0  0  0  0  0  0  0  0  0  0
    6.4220   -0.0662   -0.0002 H   0  0  0  0  0  0  0  0  0  0  0  0
    4.2897   -0.4324   -0.0003 C   0  0  0  0  0  0  0  0  0  0  0  0
    3.7973    0.9510    0.0001 C   0  0  0  0  0  0  0  0  0  0  0  0
    4.5250    2.1604    0.0005 C   0  0  0  0  0  3  0  0  0  0  0  0
    5.6242    2.2057    0.0005 H   0  0  0  0  0  0  0  0  0  0  0  0
    3.8046    3.3658    0.0008 C   0  0  0  0  0  0  0  0  0  0  0  0
    2.3982    3.4386    0.0009 C   0  0  0  0  0  0  0  0  0  0  0  0
    1.9245    4.4316    0.0012 H   0  0  0  0  0  0  0  0  0  0  0  0
    1.6632    2.2385    0.0005 C   0  0  0  0  0  0  0  0  0  0  0  0
    2.3865    1.0150    0.0001 C   0  0  0  0  0  3  0  0  0  0  0  0
    0.2057    2.0236    0.0005 C   0  0  0  0  0  0  0  0  0  0  0  0
   -0.8275    2.9681    0.0008 C   0  0  0  0  0  0  0  0  0  0  0  0
   -0.5728    4.0371    0.0011 H   0  0  0  0  0  0  0  0  0  0  0  0
   -2.1869    2.5573    0.0008 C   0  0  0  0  0  0  0  0  0  0  0  0
   -2.9848    3.3160    0.0010 H   0  0  0  0  0  0  0  0  0  0  0  0
   -2.4842    1.1974    0.0004 C   0  0  0  0  0  0  0  0  0  0  0  0
   -1.4061    0.2763    0.0000 C   0  0  0  0  0  0  0  0  0  0  0  0
   -1.8752   -1.0824   -0.0004 C   0  0  0  0  0  0  0  0  0  0  0  0
   -1.1193   -2.3060   -0.0007 C   0  0  1  0  0  3  0  0  0  0  0  0
   -1.9176   -3.4957   -0.0010 C   0  0  0  0  0  0  0  0  0  0  0  0
   -1.3869   -4.4593   -0.0013 H   0  0  0  0  0  0  0  0  0  0  0  0
   -3.3124   -3.4447   -0.0010 C   0  0  0  0  0  0  0  0  0  0  0  0
   -3.8749   -4.3920   -0.0012 H   0  0  0  0  0  0  0  0  0  0  0  0
   -4.0321   -2.2202   -0.0006 C   0  0  0  0  0  0  0  0  0  0  0  0
   -5.1322   -2.2178   -0.0005 H   0  0  0  0  0  0  0  0  0  0  0  0
   -3.2969   -1.0398   -0.0003 C   0  0  0  0  0  0  0  0  0  0  0  0
   -3.7968    0.4161    0.0003 C   0  0  0  0  0  0  0  0  0  0  0  0
   -4.6368    0.7272    1.2673 C   0  0  0  0  0  0  0  0  0  0  0  0
   -4.9565    1.7926    1.2202 H   0  0  0  0  0  0  0  0  0  0  0  0
   -5.5716    0.1268    1.2099 H   0  0  0  0  0  0  0  0  0  0  0  0
   -3.9349    0.4550    2.5982 C   0  0  0  0  0  0  0  0  0  0  0  0
   -3.6183   -0.6101    2.6343 H   0  0  0  0  0  0  0  0  0  0  0  0
   -2.9971    1.0513    2.6545 H   0  0  0  0  0  0  0  0  0  0  0  0
   -4.8069    0.7696    3.8172 C   0  0  0  0  0  0  0  0  0  0  0  0
   -5.7453    0.1739    3.7584 H   0  0  0  0  0  0  0  0  0  0  0  0
   -5.1275    1.8349    3.7751 H   0  0  0  0  0  0  0  0  0  0  0  0
   -4.1059    0.4950    5.1481 C   0  0  0  0  0  0  0  0  0  0  0  0
   -4.7577    0.7289    6.0139 H   0  0  0  0  0  0  0  0  0  0  0  0
   -3.1826    1.1031    5.2493 H   0  0  0  0  0  0  0  0  0  0  0  0
   -3.8061   -0.5704    5.2314 H   0  0  0  0  0  0  0  0  0  0  0  0
   -4.6374    0.7281   -1.2660 C   0  0  0  0  0  0  0  0  0  0  0  0
   -5.5720    0.1276   -1.2087 H   0  0  0  0  0  0  0  0  0  0  0  0
   -4.9572    1.7934   -1.2179 H   0  0  0  0  0  0  0  0  0  0  0  0
   -3.9360    0.4572   -2.5975 C   0  0  0  0  0  0  0  0  0  0  0  0
   -3.6192   -0.6078   -2.6345 H   0  0  0  0  0  0  0  0  0  0  0  0
   -2.9984    1.0537   -2.6536 H   0  0  0  0  0  0  0  0  0  0  0  0
   -4.8085    0.7725   -3.8159 C   0  0  0  0  0  0  0  0  0  0  0  0
   -5.7468    0.1765   -3.7571 H   0  0  0  0  0  0  0  0  0  0  0  0
   -5.1294    1.8377   -3.7727 H   0  0  0  0  0  0  0  0  0  0  0  0
   -4.1080    0.4992   -5.1472 C   0  0  0  0  0  0  0  0  0  0  0  0
   -4.7603    0.7337   -6.0126 H   0  0  0  0  0  0  0  0  0  0  0  0
   -3.8080   -0.5661   -5.2315 H   0  0  0  0  0  0  0  0  0  0  0  0
   -3.1849    1.1076   -5.2483 H   0  0  0  0  0  0  0  0  0  0  0  0
  3 13  1  0  0  0  0
  4 22  1  0  0  0  0
  5  3  1  0  0  0  0
  6  5  1  0  0  0  0
  7  5  2  0  0  0  0
  7  9  1  0  0  0  0
  8  7  1  0  0  0  0
  9 11  2  0  0  0  0
 10  9  1  0  0  0  0
 11 13  1  0  0  0  0
 11 12  1  0  0  0  0
 13 14  2  0  0  0  0
 14 21  1  0  0  0  0
 14 15  1  0  0  0  0
 15 16  1  0  0  0  0
 15 17  1  0  0  0  0
 17 18  2  0  0  0  0
 17  1  1  0  0  0  0
 18 19  1  0  0  0  0
 20 18  1  0  0  0  0
 21 20  2  0  0  0  0
 22 20  1  0  0  0  0
 22 23  2  0  0  0  0
 23 24  1  0  0  0  0
 25 23  1  0  0  0  0
 25 26  1  0  0  0  0
 27 25  2  0  0  0  0
 28  4  1  0  0  0  0
 28 27  1  0  0  0  0
 29 37  1  0  0  0  0
 29 28  2  0  0  0  0
 30  2  1  6  0  0  0
 30 29  1  0  0  0  0
 31 33  2  0  0  0  0
 31 30  1  0  0  0  0
 32 31  1  0  0  0  0
 33 35  1  0  0  0  0
 34 33  1  0  0  0  0
 35 36  1  0  0  0  0
 35 37  2  0  0  0  0
 37 38  1  0  0  0  0
 38 27  1  0  0  0  0
 38 39  1  0  0  0  0
 39 42  1  0  0  0  0
 40 39  1  0  0  0  0
 41 39  1  0  0  0  0
 42 43  1  0  0  0  0
 42 44  1  0  0  0  0
 42 45  1  0  0  0  0
 45 48  1  0  0  0  0
 46 45  1  0  0  0  0
 47 45  1  0  0  0  0
 48 51  1  0  0  0  0
 48 50  1  0  0  0  0
 48 49  1  0  0  0  0
 52 54  1  0  0  0  0
 52 53  1  0  0  0  0
 52 38  1  0  0  0  0
 55 52  1  0  0  0  0
 56 55  1  0  0  0  0
 57 55  1  0  0  0  0
 58 60  1  0  0  0  0
 58 59  1  0  0  0  0
 58 55  1  0  0  0  0
 61 58  1  0  0  0  0
 62 61  1  0  0  0  0
 63 61  1  0  0  0  0
 64 61  1  0  0  0  0
M  END
