1,15,26,29
q = -2.0, confidence = 0.684

 37 39  0  0  1  0  0  0  0  0999 V2000
    1.5336   -1.2913   -0.0001 O   0  0  0  0  0  1  0  0  0  0  0  0
    2.6696   -0.6252   -0.0000 C   0  0  1  0  0  3  0  0  0  0  0  0
    3.8300   -1.4853   -0.0001 C   0  0  0  0  0  0  0  0  0  0  0  0
    5.1206   -0.9633   -0.0000 C   0  0  0  0  0  0  0  0  0  0  0  0
    5.9704   -1.6615   -0.0001 H   0  0  0  0  0  0  0  0  0  0  0  0
    5.3192    0.4400    0.0001 C   0  0  0  0  0  0  0  0  0  0  0  0
    6.3422    0.8432    0.0002 H   0  0  0  0  0  0  0  0  0  0  0  0
    4.2312    1.2966    0.0002 C   0  0  0  0  0  0  0  0  0  0  0  0
    4.3823    2.3871    0.0003 H   0  0  0  0  0  0  0  0  0  0  0  0
    2.8825    0.8017    0.0001 C   0  0  0  0  0  0  0  0  0  0  0  0
    3.5880   -2.8123   -0.0002 O   0  0  0  0  0  0  0  0  0  0  0  0
    2.5977   -2.8565   -0.0003 H   0  0  0  0  0  0  0  0  0  0  0  0
    1.8412    1.7866    0.0002 C   0  0  0  0  0  0  0  0  0  0  0  0
    2.1848    2.8404    0.0003 H   0  0  0  0  0  0  0  0  0  0  0  0
    0.5513    1.5331   -0.0000 N   0  0  0  0  0  2  0  0  0  0  0  0
   -0.4749    2.5053   -0.0000 C   0  0  0  0  0  0  0  0  0  0  0  0
   -0.2861    3.9013   -0.0001 C   0  0  0  0  0  0  0  0  0  0  0  0
    0.7290    4.3217   -0.0001 H   0  0  0  0  0  0  0  0  0  0  0  0
   -1.3906    4.7654   -0.0001 C   0  0  0  0  0  0  0  0  0  0  0  0
   -1.2215    5.8527   -0.0001 H   0  0  0  0  0  0  0  0  0  0  0  0
   -2.7049    4.2616   -0.0000 C   0  0  0  0  0  0  0  0  0  0  0  0
   -3.5611    4.9518   -0.0000 H   0  0  0  0  0  0  0  0  0  0  0  0
   -2.9215    2.8791   -0.0000 C   0  0  0  0  0  0  0  0  0  0  0  0
   -3.9294    2.4421   -0.0000 H   0  0  0  0  0  0  0  0  0  0  0  0
   -1.8182    2.0100   -0.0000 C   0  0  0  0  0  0  0  0  0  0  0  0
   -1.9369    0.6020   -0.0000 N   0  0  0  0  0  2  0  0  0  0  0  0
   -3.0692    0.0008    0.0000 N   0  0  0  0  0  0  0  0  0  0  0  0
   -2.8889   -1.3737    0.0000 C   0  0  0  0  0  0  0  0  0  0  0  0
   -1.5367   -1.8900   -0.0000 C   0  0  0  0  0  2  0  0  0  0  0  0
   -1.3771   -3.2798    0.0000 C   0  0  0  0  0  0  0  0  0  0  0  0
   -0.3644   -3.7129    0.0000 H   0  0  0  0  0  0  0  0  0  0  0  0
   -2.5011   -4.1318    0.0001 C   0  0  0  0  0  0  0  0  0  0  0  0
   -2.3527   -5.2234    0.0001 H   0  0  0  0  0  0  0  0  0  0  0  0
   -3.8123   -3.6136    0.0001 C   0  0  0  0  0  0  0  0  0  0  0  0
   -4.6739   -4.2974    0.0002 H   0  0  0  0  0  0  0  0  0  0  0  0
   -4.0142   -2.2307    0.0001 C   0  0  0  0  0  0  0  0  0  0  0  0
   -5.0222   -1.7911    0.0001 H   0  0  0  0  0  0  0  0  0  0  0  0
  2  1  1  6  0  0  0
  2 10  1  0  0  0  0
  3  2  1  0  0  0  0
  3  4  2  0  0  0  0
  4  6  1  0  0  0  0
  5  4  1  0  0  0  0
  6  8  2  0  0  0  0
  6  7  1  0  0  0  0
  8  9  1  0  0  0  0
 10 13  2  0  0  0  0
 10  8  1  0  0  0  0
 11  3  1  0  0  0  0
 12 11  1  0  0  0  0
 13 14  1  0  0  0  0
 15 13  1  0  0  0  0
 16 15  1  0  0  0  0
 17 16  2  0  0  0  0
 18 17  1  0  0  0  0
 19 17  1  0  0  0  0
 19 21  2  0  0  0  0
 20 19  1  0  0  0  0
 21 23  1  0  0  0  0
 22 21  1  0  0  0  0
 23 25  2  0  0  0  0
 23 24  1  0  0  0  0
 25 16  1  0  0  0  0
 26 25  1  0  0  0  0
 26 27  1  0  0  0  0
 27 28  2  0  0  0  0
 28 36  1  0  0  0  0
 29 28  1  0  0  0  0
 29 30  1  0  0  0  0
 30 32  2  0  0  0  0
 31 30  1  0  0  0  0
 32 34  1  0  0  0  0
 32 33  1  0  0  0  0
 34 35  1  0  0  0  0
 36 37  1  0  0  0  0
 36 34  2  0  0  0  0
M  END
