1,6,16,21
q = -2.0, confidence = 0.686

 37 36  0  0  0  0  0  0  0  0999 V2000
   -1.5292   -2.2052   -0.1831 S   0  0  0  0  0  1  0  0  0  0  0  0
   -3.1078   -1.2893   -0.4365 C   0  0  0  0  0  0  0  0  0  0  0  0
   -3.3327   -1.1948   -1.5217 H   0  0  0  0  0  0  0  0  0  0  0  0
   -3.9225   -1.8931    0.0182 H   0  0  0  0  0  0  0  0  0  0  0  0
   -3.1106    0.1051    0.2019 C   0  0  0  0  0  0  0  0  0  0  0  0
   -1.5841    0.8546   -0.6382 S   0  0  0  0  0  0  0  0  0  0  0  0
   -1.2369    2.3618    0.3574 C   0  0  0  0  0  0  0  0  0  0  0  0
   -2.1088    3.0356    0.2325 H   0  0  0  0  0  0  0  0  0  0  0  0
   -1.1598    2.0792    1.4262 H   0  0  0  0  0  0  0  0  0  0  0  0
    0.0441    3.0585   -0.1090 C   0  0  0  0  0  0  0  0  0  0  0  0
    0.0151    3.2222   -1.2081 H   0  0  0  0  0  0  0  0  0  0  0  0
    0.0613    4.0686    0.3535 H   0  0  0  0  0  0  0  0  0  0  0  0
    1.3413    2.3527    0.2911 C   0  0  0  0  0  0  0  0  0  0  0  0
    1.3353    2.1170    1.3734 H   0  0  0  0  0  0  0  0  0  0  0  0
    2.2154    3.0005    0.0752 H   0  0  0  0  0  0  0  0  0  0  0  0
    1.5794    0.7928   -0.6572 S   0  0  0  0  0  0  0  0  0  0  0  0
    3.1498    0.0406    0.1032 C   0  0  0  0  0  0  0  0  0  0  0  0
    2.9668   -1.4378   -0.2704 C   0  0  0  0  0  0  0  0  0  0  0  0
    3.8037   -2.0260    0.1651 H   0  0  0  0  0  0  0  0  0  0  0  0
    3.0278   -1.5519   -1.3749 H   0  0  0  0  0  0  0  0  0  0  0  0
    1.4007   -2.1451    0.3724 S   0  0  0  0  0  1  0  0  0  0  0  0
   -4.3347    0.9266   -0.2079 C   0  0  0  0  0  0  0  0  0  0  0  0
   -5.2511    0.4567    0.2060 H   0  0  0  0  0  0  0  0  0  0  0  0
   -4.4378    0.9757   -1.3098 H   0  0  0  0  0  0  0  0  0  0  0  0
   -4.2899    1.9615    0.1891 H   0  0  0  0  0  0  0  0  0  0  0  0
   -2.9346    0.0390    1.7162 C   0  0  0  0  0  0  0  0  0  0  0  0
   -3.7966   -0.5099    2.1502 H   0  0  0  0  0  0  0  0  0  0  0  0
   -2.9152    1.0433    2.1835 H   0  0  0  0  0  0  0  0  0  0  0  0
   -2.0119   -0.5209    1.9668 H   0  0  0  0  0  0  0  0  0  0  0  0
    4.3542    0.6719   -0.5991 C   0  0  0  0  0  0  0  0  0  0  0  0
    4.4205    1.7618   -0.4028 H   0  0  0  0  0  0  0  0  0  0  0  0
    4.3093    0.5168   -1.6950 H   0  0  0  0  0  0  0  0  0  0  0  0
    5.2902    0.2109   -0.2200 H   0  0  0  0  0  0  0  0  0  0  0  0
    3.1927    0.2386    1.6155 C   0  0  0  0  0  0  0  0  0  0  0  0
    2.2785   -0.1808    2.0802 H   0  0  0  0  0  0  0  0  0  0  0  0
    3.3239    1.3007    1.9003 H   0  0  0  0  0  0  0  0  0  0  0  0
    4.0630   -0.3202    2.0192 H   0  0  0  0  0  0  0  0  0  0  0  0
  2  1  1  0  0  0  0
  2  4  1  0  0  0  0
  2  5  1  0  0  0  0
  3  2  1  0  0  0  0
  5 26  1  0  0  0  0
  6  5  1  0  0  0  0
  6  7  1  0  0  0  0
  7  9  1  0  0  0  0
  8  7  1  0  0  0  0
 10 13  1  0  0  0  0
 10 12  1  0  0  0  0
 10  7  1  0  0  0  0
 11 10  1  0  0  0  0
 13 14  1  0  0  0  0
 15 13  1  0  0  0  0
 16 17  1  0  0  0  0
 16 13  1  0  0  0  0
 17 34  1  0  0  0  0
 18 17  1  0  0  0  0
 18 19  1  0  0  0  0
 18 21  1  0  0  0  0
 20 18  1  0  0  0  0
 22 25  1  0  0  0  0
 22  5  1  0  0  0  0
 22 23  1  0  0  0  0
 24 22  1  0  0  0  0
 26 29  1  0  0  0  0
 26 27  1  0  0  0  0
 26 28  1  0  0  0  0
 30 31  1  0  0  0  0
 30 33  1  0  0  0  0
 30 17  1  0  0  0  0
 32 30  1  0  0  0  0
 34 36  1  0  0  0  0
 34 37  1  0  0  0  0
 34 35  1  0  0  0  0
M  END
