1,2,3,4
q = -1.0, confidence = 0.002

 34 35  0  0  0  0  0  0  0  0999 V2000
   -0.9354   -0.8700    1.7866 S   0  0  0  0  0  0  0  0  0  0  0  0
   -2.8451   -0.4115   -0.8816 S   0  0  0  0  0  0  0  0  0  0  0  0
    0.3210   -1.8702   -1.0454 S   0  0  0  0  0  0  0  0  0  0  0  0
   -1.4544    2.1935    0.5512 S   0  0  0  0  0  1  0  0  0  0  0  0
    0.0660   -3.8005   -3.4002 Cl  0  0  0  0  0  0  0  0  0  0  0  0
   -3.7849    1.0800   -0.5273 C   0  0  0  0  0  0  0  0  0  0  0  0
   -5.1390    1.1194   -0.9061 C   0  0  0  0  0  0  0  0  0  0  0  0
   -5.9162    2.2446   -0.6094 C   0  0  0  0  0  0  0  0  0  0  0  0
   -5.3156    3.3323    0.0578 C   0  0  0  0  0  0  0  0  0  0  0  0
   -3.9661    3.3004    0.4128 C   0  0  0  0  0  0  0  0  0  0  0  0
   -3.1539    2.1700    0.1212 C   0  0  0  0  0  0  0  0  0  0  0  0
   -0.6612   -2.4345   -2.4951 C   0  0  0  0  0  0  0  0  0  0  0  0
   -2.7828   -0.9782    1.8595 C   0  0  0  0  0  0  0  0  0  0  0  0
   -3.3829   -1.4539    0.5556 C   0  0  0  0  0  0  0  0  0  0  0  0
   -0.5801   -2.6210    1.4852 C   0  0  0  0  0  0  0  0  0  0  0  0
   -0.7614   -3.5386    2.5370 C   0  0  0  0  0  0  0  0  0  0  0  0
   -0.5236   -4.9037    2.3327 C   0  0  0  0  0  0  0  0  0  0  0  0
   -0.0726   -5.3563    1.0805 C   0  0  0  0  0  0  0  0  0  0  0  0
    0.1571   -4.4453    0.0416 C   0  0  0  0  0  0  0  0  0  0  0  0
   -0.1118   -3.0752    0.2347 C   0  0  0  0  0  0  0  0  0  0  0  0
   -0.6897   -1.5378   -3.1467 H   0  0  0  0  0  0  0  0  0  0  0  0
   -1.6822   -2.7148   -2.1773 H   0  0  0  0  0  0  0  0  0  0  0  0
   -3.0929    0.0595    2.1008 H   0  0  0  0  0  0  0  0  0  0  0  0
   -3.0531   -1.6407    2.7068 H   0  0  0  0  0  0  0  0  0  0  0  0
   -3.0661   -2.4899    0.3125 H   0  0  0  0  0  0  0  0  0  0  0  0
   -4.4906   -1.4213    0.5803 H   0  0  0  0  0  0  0  0  0  0  0  0
   -5.5746    0.2595   -1.4394 H   0  0  0  0  0  0  0  0  0  0  0  0
   -6.9744    2.2819   -0.9060 H   0  0  0  0  0  0  0  0  0  0  0  0
   -5.9121    4.2278    0.2916 H   0  0  0  0  0  0  0  0  0  0  0  0
   -3.5009    4.1615    0.9166 H   0  0  0  0  0  0  0  0  0  0  0  0
   -1.0898   -3.1685    3.5205 H   0  0  0  0  0  0  0  0  0  0  0  0
   -0.6757   -5.6153    3.1579 H   0  0  0  0  0  0  0  0  0  0  0  0
    0.1250   -6.4262    0.9169 H   0  0  0  0  0  0  0  0  0  0  0  0
    0.5397   -4.7870   -0.9310 H   0  0  0  0  0  0  0  0  0  0  0  0
  1 13  1  0  0  0  0
  2  6  1  0  0  0  0
  2 14  1  0  0  0  0
  3 20  1  0  0  0  0
  5 12  1  0  0  0  0
  6 11  1  0  0  0  0
  7  8  1  0  0  0  0
  7  6  2  0  0  0  0
  8  9  2  0  0  0  0
  9 29  1  0  0  0  0
  9 10  1  0  0  0  0
 10 30  1  0  0  0  0
 11 10  2  0  0  0  0
 11  4  1  0  0  0  0
 12 22  1  0  0  0  0
 12  3  1  0  0  0  0
 13 23  1  0  0  0  0
 13 24  1  0  0  0  0
 14 26  1  0  0  0  0
 14 13  1  0  0  0  0
 15  1  1  0  0  0  0
 15 16  1  0  0  0  0
 16 31  1  0  0  0  0
 17 16  2  0  0  0  0
 17 32  1  0  0  0  0
 18 17  1  0  0  0  0
 19 20  1  0  0  0  0
 19 18  2  0  0  0  0
 20 15  2  0  0  0  0
 21 12  1  0  0  0  0
 25 14  1  0  0  0  0
 27  7  1  0  0  0  0
 28  8  1  0  0  0  0
 33 18  1  0  0  0  0
 34 19  1  0  0  0  0
M  END
