1,2,3,4
q = 0.0, confidence = 1.0

 41 42  0  0  0  0  0  0  0  0999 V2000
   -0.0935    1.9563   -1.0270 S   0  0  0  0  0  0  0  0  0  0  0  0
    2.1878    1.1054    1.3953 S   0  0  0  0  0  0  0  0  0  0  0  0
    2.3189   -1.0919   -1.2227 S   0  0  0  0  0  0  0  0  0  0  0  0
   -0.2848   -2.0308    0.8164 S   0  0  0  0  0  0  0  0  0  0  0  0
   -2.8767   -0.0270   -1.0465 S   0  0  0  0  0  0  0  0  0  0  0  0
   -2.7257    2.6975   -0.3764 C   0  0  0  0  0  0  0  0  0  0  0  0
   -3.3567    3.4226    0.1790 H   0  0  0  0  0  0  0  0  0  0  0  0
   -2.9499    2.8399   -1.4535 H   0  0  0  0  0  0  0  0  0  0  0  0
   -1.2601    3.0532   -0.0951 C   0  0  0  0  0  0  0  0  0  0  0  0
   -1.0468    2.9637    0.9885 H   0  0  0  0  0  0  0  0  0  0  0  0
   -1.0335    4.0867   -0.4292 H   0  0  0  0  0  0  0  0  0  0  0  0
    1.4577    2.8735   -0.6932 C   0  0  0  0  0  0  0  0  0  0  0  0
    2.2009    2.4337   -1.3893 H   0  0  0  0  0  0  0  0  0  0  0  0
    1.3138    3.9300   -1.0023 H   0  0  0  0  0  0  0  0  0  0  0  0
    1.9331    2.8064    0.7558 C   0  0  0  0  0  0  0  0  0  0  0  0
    1.1982    3.2598    1.4502 H   0  0  0  0  0  0  0  0  0  0  0  0
    2.8820    3.3667    0.8857 H   0  0  0  0  0  0  0  0  0  0  0  0
    3.7168    0.6444    0.4664 C   0  0  0  0  0  0  0  0  0  0  0  0
    3.8328    1.3490   -0.3817 H   0  0  0  0  0  0  0  0  0  0  0  0
    4.5818    0.7882    1.1449 H   0  0  0  0  0  0  0  0  0  0  0  0
    3.6895   -0.7940   -0.0245 C   0  0  0  0  0  0  0  0  0  0  0  0
    3.5725   -1.4969    0.8247 H   0  0  0  0  0  0  0  0  0  0  0  0
    4.6467   -1.0309   -0.5322 H   0  0  0  0  0  0  0  0  0  0  0  0
    1.9036   -2.8289   -0.8080 C   0  0  0  0  0  0  0  0  0  0  0  0
    1.2424   -3.1609   -1.6332 H   0  0  0  0  0  0  0  0  0  0  0  0
    2.8325   -3.4320   -0.8785 H   0  0  0  0  0  0  0  0  0  0  0  0
    1.2412   -3.0136    0.5539 C   0  0  0  0  0  0  0  0  0  0  0  0
    1.9149   -2.7131    1.3822 H   0  0  0  0  0  0  0  0  0  0  0  0
    0.9947   -4.0837    0.7171 H   0  0  0  0  0  0  0  0  0  0  0  0
   -1.3783   -2.8712   -0.4238 C   0  0  0  0  0  0  0  0  0  0  0  0
   -1.1621   -2.4504   -1.4262 H   0  0  0  0  0  0  0  0  0  0  0  0
   -1.1100   -3.9475   -0.4182 H   0  0  0  0  0  0  0  0  0  0  0  0
   -2.8492   -2.6553   -0.0431 C   0  0  0  0  0  0  0  0  0  0  0  0
   -3.4831   -3.0624   -0.8601 H   0  0  0  0  0  0  0  0  0  0  0  0
   -3.0922   -3.2290    0.8738 H   0  0  0  0  0  0  0  0  0  0  0  0
   -3.1177   -1.2053    0.2185 C   0  0  0  0  0  0  0  0  0  0  0  0
   -3.3549   -0.5797    1.4301 C   0  0  0  0  0  0  0  0  0  0  0  0
   -3.5299   -1.1386    2.3601 H   0  0  0  0  0  0  0  0  0  0  0  0
   -3.3198    0.8448    1.3436 C   0  0  0  0  0  0  0  0  0  0  0  0
   -3.4745    1.5176    2.1992 H   0  0  0  0  0  0  0  0  0  0  0  0
   -3.0487    1.3038    0.0673 C   0  0  0  0  0  0  0  0  0  0  0  0
  1 12  1  0  0  0  0
  1  9  1  0  0  0  0
  3 24  1  0  0  0  0
  3 21  1  0  0  0  0
  5 41  1  0  0  0  0
  5 36  1  0  0  0  0
  6  9  1  0  0  0  0
  6 41  1  0  0  0  0
  6  7  1  0  0  0  0
  8  6  1  0  0  0  0
  9 10  1  0  0  0  0
 11  9  1  0  0  0  0
 12 15  1  0  0  0  0
 13 12  1  0  0  0  0
 14 12  1  0  0  0  0
 15 17  1  0  0  0  0
 15  2  1  0  0  0  0
 15 16  1  0  0  0  0
 18 20  1  0  0  0  0
 18  2  1  0  0  0  0
 19 18  1  0  0  0  0
 21 18  1  0  0  0  0
 21 22  1  0  0  0  0
 23 21  1  0  0  0  0
 24 27  1  0  0  0  0
 25 24  1  0  0  0  0
 26 24  1  0  0  0  0
 27 29  1  0  0  0  0
 27  4  1  0  0  0  0
 27 28  1  0  0  0  0
 30 32  1  0  0  0  0
 30 33  1  0  0  0  0
 30  4  1  0  0  0  0
 31 30  1  0  0  0  0
 33 36  1  0  0  0  0
 33 35  1  0  0  0  0
 34 33  1  0  0  0  0
 36 37  2  0  0  0  0
 37 38  1  0  0  0  0
 39 37  1  0  0  0  0
 39 40  1  0  0  0  0
 41 39  2  0  0  0  0
M  END
