1,2,3,4
q = 0.0, confidence = 0.988

 46 46  0  0  0  0  0  0  0  0999 V2000
    1.5538   -1.6946    0.2460 S   0  0  0  0  0  0  0  0  0  0  0  0
   -1.6488   -1.5962    0.5114 S   0  0  0  0  0  0  0  0  0  0  0  0
   -1.6488    1.5962    0.5114 S   0  0  0  0  0  0  0  0  0  0  0  0
    1.5538    1.6946    0.2460 S   0  0  0  0  0  0  0  0  0  0  0  0
    0.5337   -2.9588   -0.6612 C   0  0  0  0  0  0  0  0  0  0  0  0
   -0.7644   -3.1773    0.0958 C   0  0  0  0  0  0  0  0  0  0  0  0
   -2.6349   -1.3064   -1.0275 C   0  0  0  0  0  0  0  0  0  0  0  0
   -3.4748    0.0000   -0.9703 C   0  0  0  0  0  0  0  0  0  0  0  0
   -2.6349    1.3064   -1.0275 C   0  0  0  0  0  0  0  0  0  0  0  0
   -0.7644    3.1773    0.0958 C   0  0  0  0  0  0  0  0  0  0  0  0
    0.5337    2.9588   -0.6612 C   0  0  0  0  0  0  0  0  0  0  0  0
    2.7207    1.2856   -1.1222 C   0  0  0  0  0  0  0  0  0  0  0  0
    3.5488   -0.0000   -0.8725 C   0  0  0  0  0  0  0  0  0  0  0  0
    2.7207   -1.2856   -1.1222 C   0  0  0  0  0  0  0  0  0  0  0  0
   -4.3865   -0.0000    0.2717 C   0  0  0  0  0  0  0  0  0  0  0  0
   -4.3475    0.0000   -2.2452 C   0  0  0  0  0  0  0  0  0  0  0  0
    4.1595    0.0000    0.5412 C   0  0  0  0  0  0  0  0  0  0  0  0
    4.6779   -0.0000   -1.9267 C   0  0  0  0  0  0  0  0  0  0  0  0
    1.1149   -3.9029   -0.7278 H   0  0  0  0  0  0  0  0  0  0  0  0
    0.3488   -2.5597   -1.6791 H   0  0  0  0  0  0  0  0  0  0  0  0
   -0.5781   -3.6390    1.0868 H   0  0  0  0  0  0  0  0  0  0  0  0
   -1.4623   -3.8315   -0.4648 H   0  0  0  0  0  0  0  0  0  0  0  0
   -3.3336   -2.1640   -1.1385 H   0  0  0  0  0  0  0  0  0  0  0  0
   -1.9298   -1.2796   -1.8814 H   0  0  0  0  0  0  0  0  0  0  0  0
   -3.3336    2.1640   -1.1385 H   0  0  0  0  0  0  0  0  0  0  0  0
   -1.9298    1.2796   -1.8814 H   0  0  0  0  0  0  0  0  0  0  0  0
   -0.5781    3.6390    1.0868 H   0  0  0  0  0  0  0  0  0  0  0  0
   -1.4623    3.8315   -0.4648 H   0  0  0  0  0  0  0  0  0  0  0  0
    1.1149    3.9029   -0.7278 H   0  0  0  0  0  0  0  0  0  0  0  0
    0.3488    2.5598   -1.6791 H   0  0  0  0  0  0  0  0  0  0  0  0
    3.4109    2.1503   -1.2226 H   0  0  0  0  0  0  0  0  0  0  0  0
    2.1231    1.1851   -2.0513 H   0  0  0  0  0  0  0  0  0  0  0  0
    3.4109   -2.1503   -1.2226 H   0  0  0  0  0  0  0  0  0  0  0  0
    2.1231   -1.1852   -2.0513 H   0  0  0  0  0  0  0  0  0  0  0  0
   -3.8025    0.0000    1.2138 H   0  0  0  0  0  0  0  0  0  0  0  0
   -5.0375    0.8978    0.2774 H   0  0  0  0  0  0  0  0  0  0  0  0
   -5.0375   -0.8978    0.2774 H   0  0  0  0  0  0  0  0  0  0  0  0
   -5.0006   -0.8959   -2.2741 H   0  0  0  0  0  0  0  0  0  0  0  0
   -5.0006    0.8959   -2.2741 H   0  0  0  0  0  0  0  0  0  0  0  0
   -3.7233    0.0000   -3.1622 H   0  0  0  0  0  0  0  0  0  0  0  0
    3.3773   -0.0000    1.3295 H   0  0  0  0  0  0  0  0  0  0  0  0
    4.7924   -0.8977    0.6929 H   0  0  0  0  0  0  0  0  0  0  0  0
    4.7924    0.8977    0.6929 H   0  0  0  0  0  0  0  0  0  0  0  0
    5.3208    0.8963   -1.8130 H   0  0  0  0  0  0  0  0  0  0  0  0
    5.3208   -0.8963   -1.8130 H   0  0  0  0  0  0  0  0  0  0  0  0
    4.2691    0.0000   -2.9583 H   0  0  0  0  0  0  0  0  0  0  0  0
  5  6  1  0  0  0  0
  5  1  1  0  0  0  0
  6  2  1  0  0  0  0
  6 21  1  0  0  0  0
  7  8  1  0  0  0  0
  7  2  1  0  0  0  0
  8 15  1  0  0  0  0
  9  8  1  0  0  0  0
  9  3  1  0  0  0  0
 10  3  1  0  0  0  0
 10 27  1  0  0  0  0
 11 10  1  0  0  0  0
 11  4  1  0  0  0  0
 12 13  1  0  0  0  0
 12  4  1  0  0  0  0
 13 17  1  0  0  0  0
 14 13  1  0  0  0  0
 14  1  1  0  0  0  0
 15 36  1  0  0  0  0
 15 37  1  0  0  0  0
 15 35  1  0  0  0  0
 16  8  1  0  0  0  0
 17 42  1  0  0  0  0
 17 43  1  0  0  0  0
 17 41  1  0  0  0  0
 18 45  1  0  0  0  0
 18 44  1  0  0  0  0
 18 13  1  0  0  0  0
 19  5  1  0  0  0  0
 20  5  1  0  0  0  0
 22  6  1  0  0  0  0
 23  7  1  0  0  0  0
 24  7  1  0  0  0  0
 25  9  1  0  0  0  0
 26  9  1  0  0  0  0
 28 10  1  0  0  0  0
 29 11  1  0  0  0  0
 30 11  1  0  0  0  0
 31 12  1  0  0  0  0
 32 12  1  0  0  0  0
 33 14  1  0  0  0  0
 34 14  1  0  0  0  0
 38 16  1  0  0  0  0
 39 16  1  0  0  0  0
 40 16  1  0  0  0  0
 46 18  1  0  0  0  0
M  END
