1,2,3,4
q = 0.0, confidence = 1.0

 42 42  0  0  1  0  0  0  0  0999 V2000
    1.6802   -1.7696   -0.4891 S   0  0  0  0  0  0  0  0  0  0  0  0
    1.6860    1.7646   -0.4765 S   0  0  0  0  0  0  0  0  0  0  0  0
   -1.6962   -1.7202    0.2895 S   0  0  0  0  0  0  0  0  0  0  0  0
   -1.6917    1.7250    0.3010 S   0  0  0  0  0  0  0  0  0  0  0  0
    3.8828   -0.0730   -1.3783 O   0  0  0  0  0  0  0  0  0  0  0  0
   -3.9349    0.0826    1.1899 O   0  0  0  0  0  0  0  0  0  0  0  0
   -3.1863    1.3044   -0.6843 C   0  0  0  0  0  0  0  0  0  0  0  0
   -3.8499    0.0075   -0.2157 C   0  0  1  0  0  0  0  0  0  0  0  0
   -3.1810   -1.2901   -0.7036 C   0  0  0  0  0  0  0  0  0  0  0  0
   -1.1463   -3.1730   -0.7100 C   0  0  0  0  0  0  0  0  0  0  0  0
   -0.0281   -3.9440   -0.0032 C   0  0  0  0  0  0  0  0  0  0  0  0
    1.0732   -3.0977    0.6378 C   0  0  0  0  0  0  0  0  0  0  0  0
    3.1431   -1.2959    0.5128 C   0  0  0  0  0  0  0  0  0  0  0  0
    3.8057   -0.0061    0.0311 C   0  0  2  0  0  0  0  0  0  0  0  0
    3.1343    1.2796    0.5388 C   0  0  0  0  0  0  0  0  0  0  0  0
    1.0746    3.1022    0.6386 C   0  0  0  0  0  0  0  0  0  0  0  0
   -0.0246    3.9442   -0.0110 C   0  0  0  0  0  0  0  0  0  0  0  0
   -1.1435    3.1683   -0.7113 C   0  0  0  0  0  0  0  0  0  0  0  0
    4.4025    0.6827   -1.7114 H   0  0  0  0  0  0  0  0  0  0  0  0
   -4.4304   -0.6854    1.5318 H   0  0  0  0  0  0  0  0  0  0  0  0
   -4.8606    0.0122   -0.6968 H   0  0  0  0  0  0  0  0  0  0  0  0
    4.8208   -0.0120    0.5013 H   0  0  0  0  0  0  0  0  0  0  0  0
   -2.9056    1.2529   -1.7548 H   0  0  0  0  0  0  0  0  0  0  0  0
   -3.8881    2.1465   -0.5227 H   0  0  0  0  0  0  0  0  0  0  0  0
   -2.8930   -1.2264   -1.7730 H   0  0  0  0  0  0  0  0  0  0  0  0
   -3.8816   -2.1418   -0.5769 H   0  0  0  0  0  0  0  0  0  0  0  0
   -0.8274   -2.7807   -1.6975 H   0  0  0  0  0  0  0  0  0  0  0  0
   -2.0302   -3.8242   -0.8616 H   0  0  0  0  0  0  0  0  0  0  0  0
    0.4081   -4.6393   -0.7503 H   0  0  0  0  0  0  0  0  0  0  0  0
   -0.4574   -4.5747    0.8027 H   0  0  0  0  0  0  0  0  0  0  0  0
    1.9470   -3.7322    0.8861 H   0  0  0  0  0  0  0  0  0  0  0  0
    0.7354   -2.5826    1.5627 H   0  0  0  0  0  0  0  0  0  0  0  0
    3.8487   -2.1426    0.3997 H   0  0  0  0  0  0  0  0  0  0  0  0
    2.8132   -1.2040    1.5665 H   0  0  0  0  0  0  0  0  0  0  0  0
    3.8369    2.1357    0.4673 H   0  0  0  0  0  0  0  0  0  0  0  0
    2.7904    1.1687    1.5877 H   0  0  0  0  0  0  0  0  0  0  0  0
    1.9473    3.7371    0.8896 H   0  0  0  0  0  0  0  0  0  0  0  0
    0.7318    2.5895    1.5630 H   0  0  0  0  0  0  0  0  0  0  0  0
    0.4130    4.6351   -0.7613 H   0  0  0  0  0  0  0  0  0  0  0  0
   -0.4541    4.5796    0.7913 H   0  0  0  0  0  0  0  0  0  0  0  0
   -0.8280    2.7728   -1.6987 H   0  0  0  0  0  0  0  0  0  0  0  0
   -2.0279    3.8189   -0.8625 H   0  0  0  0  0  0  0  0  0  0  0  0
  1 13  1  0  0  0  0
  1 12  1  0  0  0  0
  2 15  1  0  0  0  0
  2 16  1  0  0  0  0
  5 14  1  0  0  0  0
  6 20  1  0  0  0  0
  7 24  1  0  0  0  0
  7  8  1  0  0  0  0
  7  4  1  0  0  0  0
  8 21  1  6  0  0  0
  8  6  1  0  0  0  0
  9 26  1  0  0  0  0
  9  8  1  0  0  0  0
  9  3  1  0  0  0  0
 10 11  1  0  0  0  0
 10  3  1  0  0  0  0
 11 12  1  0  0  0  0
 11 30  1  0  0  0  0
 12 31  1  0  0  0  0
 12 32  1  0  0  0  0
 13 34  1  0  0  0  0
 14 22  1  1  0  0  0
 14 13  1  0  0  0  0
 14 15  1  0  0  0  0
 15 36  1  0  0  0  0
 16 37  1  0  0  0  0
 16 38  1  0  0  0  0
 17 16  1  0  0  0  0
 17 40  1  0  0  0  0
 18 17  1  0  0  0  0
 18  4  1  0  0  0  0
 19  5  1  0  0  0  0
 23  7  1  0  0  0  0
 25  9  1  0  0  0  0
 27 10  1  0  0  0  0
 28 10  1  0  0  0  0
 29 11  1  0  0  0  0
 33 13  1  0  0  0  0
 35 15  1  0  0  0  0
 39 17  1  0  0  0  0
 41 18  1  0  0  0  0
 42 18  1  0  0  0  0
M  END
