1,2,3,4
 OpenBabel05122313063D

 30 31  0  0  0  0  0  0  0  0999 V2000
    1.9184    0.9621   -1.3863 S   0  0  0  0  0  1  0  0  0  0  0  0
   -1.9183    0.9621    1.3864 S   0  0  0  0  0  1  0  0  0  0  0  0
    1.0055   -0.5542    1.4165 S   0  0  0  0  0  0  0  0  0  0  0  0
   -1.0057   -0.5542   -1.4168 S   0  0  0  0  0  0  0  0  0  0  0  0
    2.9810   -0.1365   -0.4968 C   0  0  0  0  0  0  0  0  0  0  0  0
    4.2754   -0.3650   -1.0239 C   0  0  0  0  0  0  0  0  0  0  0  0
    5.1606   -1.2479   -0.3964 C   0  0  0  0  0  0  0  0  0  0  0  0
    4.7866   -1.9258    0.7773 C   0  0  0  0  0  0  0  0  0  0  0  0
    3.5138   -1.7065    1.3185 C   0  0  0  0  0  0  0  0  0  0  0  0
    2.6142   -0.8296    0.6841 C   0  0  0  0  0  0  0  0  0  0  0  0
    0.0758   -1.9951    0.7557 C   0  0  0  0  0  0  0  0  0  0  0  0
   -0.0760   -1.9951   -0.7559 C   0  0  0  0  0  0  0  0  0  0  0  0
   -2.9808   -0.1365    0.4969 C   0  0  0  0  0  0  0  0  0  0  0  0
   -4.2751   -0.3651    1.0242 C   0  0  0  0  0  0  0  0  0  0  0  0
   -5.1605   -1.2478    0.3968 C   0  0  0  0  0  0  0  0  0  0  0  0
   -4.7868   -1.9255   -0.7771 C   0  0  0  0  0  0  0  0  0  0  0  0
   -3.5141   -1.7061   -1.3185 C   0  0  0  0  0  0  0  0  0  0  0  0
   -2.6143   -0.8294   -0.6841 C   0  0  0  0  0  0  0  0  0  0  0  0
    4.5755    0.1686   -1.9380 H   0  0  0  0  0  0  0  0  0  0  0  0
    6.1617   -1.4029   -0.8267 H   0  0  0  0  0  0  0  0  0  0  0  0
    5.4882   -2.6096    1.2768 H   0  0  0  0  0  0  0  0  0  0  0  0
    3.2060   -2.2074    2.2492 H   0  0  0  0  0  0  0  0  0  0  0  0
    0.6027   -2.9104    1.0951 H   0  0  0  0  0  0  0  0  0  0  0  0
   -0.9070   -1.9500    1.2687 H   0  0  0  0  0  0  0  0  0  0  0  0
   -0.6030   -2.9105   -1.0952 H   0  0  0  0  0  0  0  0  0  0  0  0
    0.9067   -1.9502   -1.2690 H   0  0  0  0  0  0  0  0  0  0  0  0
   -4.5750    0.1683    1.9385 H   0  0  0  0  0  0  0  0  0  0  0  0
   -6.1615   -1.4029    0.8273 H   0  0  0  0  0  0  0  0  0  0  0  0
   -5.4886   -2.6091   -1.2766 H   0  0  0  0  0  0  0  0  0  0  0  0
   -3.2065   -2.2069   -2.2493 H   0  0  0  0  0  0  0  0  0  0  0  0
  1  5  1  0  0  0  0
  4 12  1  0  0  0  0
  4 18  1  0  0  0  0
  5 10  1  0  0  0  0
  6  5  2  0  0  0  0
  6  7  1  0  0  0  0
  7  8  2  0  0  0  0
  8 21  1  0  0  0  0
  8  9  1  0  0  0  0
  9 22  1  0  0  0  0
 10  9  2  0  0  0  0
 10  3  1  0  0  0  0
 11 23  1  0  0  0  0
 11 24  1  0  0  0  0
 11  3  1  0  0  0  0
 12 11  1  0  0  0  0
 13 14  1  0  0  0  0
 13  2  1  0  0  0  0
 14 27  1  0  0  0  0
 15 28  1  0  0  0  0
 15 14  2  0  0  0  0
 16 15  1  0  0  0  0
 17 16  2  0  0  0  0
 17 18  1  0  0  0  0
 18 13  2  0  0  0  0
 19  6  1  0  0  0  0
 20  7  1  0  0  0  0
 25 12  1  0  0  0  0
 26 12  1  0  0  0  0
 29 16  1  0  0  0  0
 30 17  1  0  0  0  0
M  END
