1,2,3,4
 OpenBabel05122313063D

 34 34  0  0  0  0  0  0  0  0999 V2000
   -1.6733    1.5965   -0.5348 S   0  0  0  0  0  0  0  0  0  0  0  0
   -1.6733   -1.5965   -0.5348 S   0  0  0  0  0  0  0  0  0  0  0  0
    1.5418   -1.6811   -0.4239 S   0  0  0  0  0  0  0  0  0  0  0  0
    1.5418    1.6811   -0.4240 S   0  0  0  0  0  0  0  0  0  0  0  0
   -2.4500    1.3127    1.1258 C   0  0  0  0  0  0  0  0  0  0  0  0
   -3.2429    0.0000    1.1398 C   0  0  0  0  0  0  0  0  0  0  0  0
   -2.4501   -1.3127    1.1258 C   0  0  0  0  0  0  0  0  0  0  0  0
   -0.7609   -3.1880   -0.2823 C   0  0  0  0  0  0  0  0  0  0  0  0
    0.5664   -3.0118    0.4293 C   0  0  0  0  0  0  0  0  0  0  0  0
    2.7645   -1.2983    0.9054 C   0  0  0  0  0  0  0  0  0  0  0  0
    3.5287   -0.0000    0.6349 C   0  0  0  0  0  0  0  0  0  0  0  0
    2.7645    1.2983    0.9054 C   0  0  0  0  0  0  0  0  0  0  0  0
    0.5665    3.0118    0.4294 C   0  0  0  0  0  0  0  0  0  0  0  0
   -0.7609    3.1880   -0.2823 C   0  0  0  0  0  0  0  0  0  0  0  0
   -3.1380    2.1656    1.2989 H   0  0  0  0  0  0  0  0  0  0  0  0
   -1.6589    1.3198    1.9021 H   0  0  0  0  0  0  0  0  0  0  0  0
   -3.9851    0.0000    0.3122 H   0  0  0  0  0  0  0  0  0  0  0  0
   -3.8407    0.0000    2.0763 H   0  0  0  0  0  0  0  0  0  0  0  0
   -3.1381   -2.1656    1.2989 H   0  0  0  0  0  0  0  0  0  0  0  0
   -1.6589   -1.3198    1.9021 H   0  0  0  0  0  0  0  0  0  0  0  0
   -0.6279   -3.5859   -1.3088 H   0  0  0  0  0  0  0  0  0  0  0  0
   -1.4307   -3.8822    0.2644 H   0  0  0  0  0  0  0  0  0  0  0  0
    1.1616   -3.9478    0.3957 H   0  0  0  0  0  0  0  0  0  0  0  0
    0.4306   -2.7094    1.4871 H   0  0  0  0  0  0  0  0  0  0  0  0
    3.4664   -2.1563    0.9318 H   0  0  0  0  0  0  0  0  0  0  0  0
    2.2225   -1.2516    1.8720 H   0  0  0  0  0  0  0  0  0  0  0  0
    3.9499   -0.0000   -0.3937 H   0  0  0  0  0  0  0  0  0  0  0  0
    4.4096   -0.0000    1.3114 H   0  0  0  0  0  0  0  0  0  0  0  0
    3.4664    2.1562    0.9318 H   0  0  0  0  0  0  0  0  0  0  0  0
    2.2225    1.2516    1.8720 H   0  0  0  0  0  0  0  0  0  0  0  0
    1.1616    3.9478    0.3957 H   0  0  0  0  0  0  0  0  0  0  0  0
    0.4306    2.7093    1.4871 H   0  0  0  0  0  0  0  0  0  0  0  0
   -0.6278    3.5859   -1.3088 H   0  0  0  0  0  0  0  0  0  0  0  0
   -1.4307    3.8822    0.2644 H   0  0  0  0  0  0  0  0  0  0  0  0
  1 14  1  0  0  0  0
  1  5  1  0  0  0  0
  2  8  1  0  0  0  0
  2  7  1  0  0  0  0
  3  9  1  0  0  0  0
  3 10  1  0  0  0  0
  4 13  1  0  0  0  0
  4 12  1  0  0  0  0
  5  6  1  0  0  0  0
  5 15  1  0  0  0  0
  5 16  1  0  0  0  0
  6 18  1  0  0  0  0
  7  6  1  0  0  0  0
  7 19  1  0  0  0  0
  7 20  1  0  0  0  0
  8 22  1  0  0  0  0
  8  9  1  0  0  0  0
  9 24  1  0  0  0  0
 10 25  1  0  0  0  0
 10 26  1  0  0  0  0
 11 10  1  0  0  0  0
 11 12  1  0  0  0  0
 11 28  1  0  0  0  0
 12 29  1  0  0  0  0
 12 30  1  0  0  0  0
 13 32  1  0  0  0  0
 14 34  1  0  0  0  0
 14 13  1  0  0  0  0
 17  6  1  0  0  0  0
 21  8  1  0  0  0  0
 23  9  1  0  0  0  0
 27 11  1  0  0  0  0
 31 13  1  0  0  0  0
 33 14  1  0  0  0  0
M  END
