9,14,26,31
 OpenBabel05122313063D

 44 44  0  0  0  0  0  0  0  0999 V2000
    0.8302    3.1940    1.7344 C   0  0  0  0  0  0  0  0  0  0  0  0
    1.3298    2.2674    2.0785 H   0  0  0  0  0  0  0  0  0  0  0  0
   -0.1434    3.3202    2.2462 H   0  0  0  0  0  0  0  0  0  0  0  0
    1.4699    4.0531    2.0273 H   0  0  0  0  0  0  0  0  0  0  0  0
   -0.0518    4.4081   -0.3144 C   0  0  0  0  0  0  0  0  0  0  0  0
    0.4940    5.3298   -0.0230 H   0  0  0  0  0  0  0  0  0  0  0  0
   -1.0740    4.4865    0.1105 H   0  0  0  0  0  0  0  0  0  0  0  0
   -0.1346    4.3856   -1.4187 H   0  0  0  0  0  0  0  0  0  0  0  0
    2.8574    1.4092   -0.0224 S   0  0  0  0  0  1  0  0  0  0  0  0
    2.0536    2.9946   -0.4738 C   0  0  0  0  0  0  0  0  0  0  0  0
    2.7347    3.8160   -0.1613 H   0  0  0  0  0  0  0  0  0  0  0  0
    1.9293    3.0727   -1.5759 H   0  0  0  0  0  0  0  0  0  0  0  0
    0.6952    3.1814    0.2134 C   0  0  0  0  0  0  0  0  0  0  0  0
   -0.2345    1.6353   -0.3864 S   0  0  0  0  0  0  0  0  0  0  0  0
   -1.6213    1.5386    0.8531 C   0  0  0  0  0  0  0  0  0  0  0  0
   -1.2040    1.1821    1.8140 H   0  0  0  0  0  0  0  0  0  0  0  0
   -1.9780    2.5779    0.9877 H   0  0  0  0  0  0  0  0  0  0  0  0
    1.3452   -2.7711    1.7614 C   0  0  0  0  0  0  0  0  0  0  0  0
    0.5039   -2.7178    2.4805 H   0  0  0  0  0  0  0  0  0  0  0  0
    1.9143   -1.8205    1.7753 H   0  0  0  0  0  0  0  0  0  0  0  0
    2.0208   -3.5852    2.0991 H   0  0  0  0  0  0  0  0  0  0  0  0
    0.0707   -4.3739    0.2566 C   0  0  0  0  0  0  0  0  0  0  0  0
    0.7173   -5.2254    0.5541 H   0  0  0  0  0  0  0  0  0  0  0  0
   -0.2931   -4.5576   -0.7735 H   0  0  0  0  0  0  0  0  0  0  0  0
   -0.7997   -4.3740    0.9447 H   0  0  0  0  0  0  0  0  0  0  0  0
    2.8302   -1.3967   -0.8124 S   0  0  0  0  0  1  0  0  0  0  0  0
    2.0260   -3.0507   -0.6685 C   0  0  0  0  0  0  0  0  0  0  0  0
    1.6513   -3.3854   -1.6604 H   0  0  0  0  0  0  0  0  0  0  0  0
    2.8030   -3.7759   -0.3437 H   0  0  0  0  0  0  0  0  0  0  0  0
    0.8734   -3.0742    0.3414 C   0  0  0  0  0  0  0  0  0  0  0  0
   -0.1943   -1.6614   -0.3335 S   0  0  0  0  0  0  0  0  0  0  0  0
   -1.4678   -1.4451    1.0031 C   0  0  0  0  0  0  0  0  0  0  0  0
   -1.7343   -2.4641    1.3450 H   0  0  0  0  0  0  0  0  0  0  0  0
   -1.0027   -0.8981    1.8447 H   0  0  0  0  0  0  0  0  0  0  0  0
   -2.7327    0.6679    0.3422 C   0  0  0  0  0  0  0  0  0  0  0  0
   -2.6686   -0.7467    0.4305 C   0  0  0  0  0  0  0  0  0  0  0  0
   -3.7312   -1.5145   -0.0866 C   0  0  0  0  0  0  0  0  0  0  0  0
   -3.6735   -2.6125   -0.0231 H   0  0  0  0  0  0  0  0  0  0  0  0
   -4.8454   -0.9082   -0.6798 C   0  0  0  0  0  0  0  0  0  0  0  0
   -5.6645   -1.5282   -1.0736 H   0  0  0  0  0  0  0  0  0  0  0  0
   -4.9077    0.4909   -0.7703 C   0  0  0  0  0  0  0  0  0  0  0  0
   -5.7761    0.9801   -1.2362 H   0  0  0  0  0  0  0  0  0  0  0  0
   -3.8564    1.2650   -0.2638 C   0  0  0  0  0  0  0  0  0  0  0  0
   -3.9001    2.3631   -0.3364 H   0  0  0  0  0  0  0  0  0  0  0  0
  1  4  1  0  0  0  0
  1  2  1  0  0  0  0
  1  3  1  0  0  0  0
  5  6  1  0  0  0  0
  5  7  1  0  0  0  0
  5 13  1  0  0  0  0
  8  5  1  0  0  0  0
 10 11  1  0  0  0  0
 10  9  1  0  0  0  0
 10 13  1  0  0  0  0
 12 10  1  0  0  0  0
 13  1  1  0  0  0  0
 14 13  1  0  0  0  0
 14 15  1  0  0  0  0
 15 17  1  0  0  0  0
 15 16  1  0  0  0  0
 18 20  1  0  0  0  0
 18 21  1  0  0  0  0
 18 19  1  0  0  0  0
 22 30  1  0  0  0  0
 22 23  1  0  0  0  0
 22 25  1  0  0  0  0
 24 22  1  0  0  0  0
 26 27  1  0  0  0  0
 27 29  1  0  0  0  0
 27 30  1  0  0  0  0
 28 27  1  0  0  0  0
 30 18  1  0  0  0  0
 31 30  1  0  0  0  0
 31 32  1  0  0  0  0
 32 33  1  0  0  0  0
 32 34  1  0  0  0  0
 35 36  1  0  0  0  0
 35 15  1  0  0  0  0
 36 32  1  0  0  0  0
 37 38  1  0  0  0  0
 37 36  2  0  0  0  0
 39 37  1  0  0  0  0
 40 39  1  0  0  0  0
 41 39  2  0  0  0  0
 41 43  1  0  0  0  0
 42 41  1  0  0  0  0
 43 35  2  0  0  0  0
 44 43  1  0  0  0  0
M  END
