1,2,3,4
 OpenBabel05122313063D

 25 24  0  0  0  0  0  0  0  0999 V2000
    0.4814    0.1255    2.6786 S   0  0  0  0  0  1  0  0  0  0  0  0
    2.5773   -1.8329    1.0586 S   0  0  0  0  0  0  0  0  0  0  0  0
    0.6763   -1.7262   -1.8226 S   0  0  0  0  0  0  0  0  0  0  0  0
   -0.7573   -2.5871    1.0285 S   0  0  0  0  0  1  0  0  0  0  0  0
    1.9903   -0.6364    3.4446 C   0  0  0  0  0  0  0  0  0  0  0  0
    3.1467   -0.7846    2.4745 C   0  0  0  0  0  0  0  0  0  0  0  0
    3.9242   -1.4966   -0.1599 C   0  0  0  0  0  0  0  0  0  0  0  0
    3.4495   -1.5419   -1.6220 C   0  0  0  0  0  0  0  0  0  0  0  0
    2.3341   -2.5466   -1.9434 C   0  0  0  0  0  0  0  0  0  0  0  0
   -0.3990   -3.2009   -1.6694 C   0  0  0  0  0  0  0  0  0  0  0  0
   -0.3283   -3.8038   -0.2739 C   0  0  0  0  0  0  0  0  0  0  0  0
    1.7143   -1.6178    3.8861 H   0  0  0  0  0  0  0  0  0  0  0  0
    2.2971    0.0339    4.2736 H   0  0  0  0  0  0  0  0  0  0  0  0
    3.4498    0.1903    2.0391 H   0  0  0  0  0  0  0  0  0  0  0  0
    4.0158   -1.2982    2.9361 H   0  0  0  0  0  0  0  0  0  0  0  0
    4.7014   -2.2642    0.0324 H   0  0  0  0  0  0  0  0  0  0  0  0
    4.3290   -0.4932    0.0803 H   0  0  0  0  0  0  0  0  0  0  0  0
    4.3337   -1.7840   -2.2478 H   0  0  0  0  0  0  0  0  0  0  0  0
    3.1253   -0.5293   -1.9405 H   0  0  0  0  0  0  0  0  0  0  0  0
    2.4090   -2.9081   -2.9882 H   0  0  0  0  0  0  0  0  0  0  0  0
    2.3547   -3.4276   -1.2687 H   0  0  0  0  0  0  0  0  0  0  0  0
   -0.0975   -3.9099   -2.4701 H   0  0  0  0  0  0  0  0  0  0  0  0
   -1.4163   -2.8259   -1.8963 H   0  0  0  0  0  0  0  0  0  0  0  0
   -1.0461   -4.6478   -0.2010 H   0  0  0  0  0  0  0  0  0  0  0  0
    0.6839   -4.2198   -0.0742 H   0  0  0  0  0  0  0  0  0  0  0  0
  1  5  1  0  0  0  0
  2  6  1  0  0  0  0
  3 10  1  0  0  0  0
  5 12  1  0  0  0  0
  5 13  1  0  0  0  0
  6 15  1  0  0  0  0
  6  5  1  0  0  0  0
  7 16  1  0  0  0  0
  7 17  1  0  0  0  0
  7  2  1  0  0  0  0
  8  7  1  0  0  0  0
  9  3  1  0  0  0  0
  9  8  1  0  0  0  0
  9 21  1  0  0  0  0
 10 11  1  0  0  0  0
 11 24  1  0  0  0  0
 11 25  1  0  0  0  0
 11  4  1  0  0  0  0
 14  6  1  0  0  0  0
 18  8  1  0  0  0  0
 19  8  1  0  0  0  0
 20  9  1  0  0  0  0
 22 10  1  0  0  0  0
 23 10  1  0  0  0  0
M  END
