1,2,20,23
 OpenBabel05122313063D

 38 39  0  0  0  0  0  0  0  0999 V2000
   -1.7564   -0.4589    1.3252 S   0  0  0  0  0  0  0  0  0  0  0  0
   -1.0064    1.2782   -1.2012 S   0  0  0  0  0  0  0  0  0  0  0  0
   -2.6141    1.5406   -0.3987 C   0  0  0  0  0  0  0  0  0  0  0  0
   -3.5396    2.4509   -0.9369 C   0  0  0  0  0  0  0  0  0  0  0  0
   -4.7858    2.6210   -0.3189 C   0  0  0  0  0  0  0  0  0  0  0  0
   -5.1161    1.8609    0.8172 C   0  0  0  0  0  0  0  0  0  0  0  0
   -4.2037    0.9318    1.3352 C   0  0  0  0  0  0  0  0  0  0  0  0
   -2.9413    0.7787    0.7344 C   0  0  0  0  0  0  0  0  0  0  0  0
   -0.1923    2.9005   -0.7288 C   0  0  0  0  0  0  0  0  0  0  0  0
   -1.4951    0.1906    3.0255 C   0  0  0  0  0  0  0  0  0  0  0  0
   -4.4743    0.3143    2.2052 H   0  0  0  0  0  0  0  0  0  0  0  0
   -6.1016    1.9793    1.2921 H   0  0  0  0  0  0  0  0  0  0  0  0
   -5.5111    3.3353   -0.7363 H   0  0  0  0  0  0  0  0  0  0  0  0
   -3.2820    3.0182   -1.8449 H   0  0  0  0  0  0  0  0  0  0  0  0
    0.6997    2.9614   -1.3860 H   0  0  0  0  0  0  0  0  0  0  0  0
   -0.8849    3.7236   -0.9958 H   0  0  0  0  0  0  0  0  0  0  0  0
   -2.4110    0.0251    3.6229 H   0  0  0  0  0  0  0  0  0  0  0  0
   -0.6611   -0.4182    3.4266 H   0  0  0  0  0  0  0  0  0  0  0  0
   -1.2202    1.2618    3.0206 H   0  0  0  0  0  0  0  0  0  0  0  0
    1.7564   -0.4589   -1.3252 S   0  0  0  0  0  0  0  0  0  0  0  0
    2.9413    0.7787   -0.7344 C   0  0  0  0  0  0  0  0  0  0  0  0
    2.6141    1.5406    0.3987 C   0  0  0  0  0  0  0  0  0  0  0  0
    1.0064    1.2782    1.2012 S   0  0  0  0  0  0  0  0  0  0  0  0
    0.1922    2.9005    0.7287 C   0  0  0  0  0  0  0  0  0  0  0  0
   -0.6997    2.9614    1.3859 H   0  0  0  0  0  0  0  0  0  0  0  0
    0.8849    3.7236    0.9957 H   0  0  0  0  0  0  0  0  0  0  0  0
    3.5396    2.4509    0.9369 C   0  0  0  0  0  0  0  0  0  0  0  0
    4.7858    2.6210    0.3189 C   0  0  0  0  0  0  0  0  0  0  0  0
    5.1161    1.8609   -0.8172 C   0  0  0  0  0  0  0  0  0  0  0  0
    4.2037    0.9318   -1.3352 C   0  0  0  0  0  0  0  0  0  0  0  0
    4.4743    0.3142   -2.2052 H   0  0  0  0  0  0  0  0  0  0  0  0
    6.1016    1.9793   -1.2921 H   0  0  0  0  0  0  0  0  0  0  0  0
    5.5110    3.3354    0.7363 H   0  0  0  0  0  0  0  0  0  0  0  0
    3.2820    3.0182    1.8449 H   0  0  0  0  0  0  0  0  0  0  0  0
    1.4951    0.1906   -3.0255 C   0  0  0  0  0  0  0  0  0  0  0  0
    2.4110    0.0250   -3.6229 H   0  0  0  0  0  0  0  0  0  0  0  0
    0.6611   -0.4182   -3.4266 H   0  0  0  0  0  0  0  0  0  0  0  0
    1.2203    1.2618   -3.0206 H   0  0  0  0  0  0  0  0  0  0  0  0
  1 10  1  0  0  0  0
  2  9  1  0  0  0  0
  2  3  1  0  0  0  0
  3  8  1  0  0  0  0
  4  3  2  0  0  0  0
  4  5  1  0  0  0  0
  5  6  2  0  0  0  0
  6 12  1  0  0  0  0
  6  7  1  0  0  0  0
  7 11  1  0  0  0  0
  8  1  1  0  0  0  0
  8  7  2  0  0  0  0
  9 24  1  0  0  0  0
 10 18  1  0  0  0  0
 10 17  1  0  0  0  0
 13  5  1  0  0  0  0
 14  4  1  0  0  0  0
 15  9  1  0  0  0  0
 16  9  1  0  0  0  0
 19 10  1  0  0  0  0
 20 21  1  0  0  0  0
 21 22  1  0  0  0  0
 22 27  2  0  0  0  0
 22 23  1  0  0  0  0
 24 26  1  0  0  0  0
 24 23  1  0  0  0  0
 24 25  1  0  0  0  0
 27 34  1  0  0  0  0
 28 33  1  0  0  0  0
 28 27  1  0  0  0  0
 29 28  2  0  0  0  0
 30 29  1  0  0  0  0
 30 21  2  0  0  0  0
 31 30  1  0  0  0  0
 32 29  1  0  0  0  0
 35 38  1  0  0  0  0
 35 20  1  0  0  0  0
 36 35  1  0  0  0  0
 37 35  1  0  0  0  0
M  END
