1,4,10,13
 OpenBabel05122313063D

 44 44  0  0  0  0  0  0  0  0999 V2000
   -1.7106    1.1094   -1.5717 S   0  0  0  0  0  0  0  0  0  0  0  0
   -3.3227    0.9394   -0.7297 C   0  0  0  0  0  0  0  0  0  0  0  0
   -3.3353    0.9813    0.8010 C   0  0  0  0  0  0  0  0  0  0  0  0
   -2.2112   -0.1275    1.7238 S   0  0  0  0  0  0  0  0  0  0  0  0
   -2.8208   -1.8047    1.2967 C   0  0  0  0  0  0  0  0  0  0  0  0
   -2.2639   -2.4460    0.0225 C   0  0  0  0  0  0  0  0  0  0  0  0
   -0.8075   -2.5045    0.0171 N   0  0  0  0  0  0  0  0  0  0  0  0
   -0.2221   -3.0781   -1.1908 C   0  0  0  0  0  0  0  0  0  0  0  0
    1.2922   -2.8732   -1.2597 C   0  0  0  0  0  0  0  0  0  0  0  0
    1.7106   -1.1094   -1.5717 S   0  0  0  0  0  0  0  0  0  0  0  0
    3.3228   -0.9394   -0.7298 C   0  0  0  0  0  0  0  0  0  0  0  0
    3.3355   -0.9812    0.8009 C   0  0  0  0  0  0  0  0  0  0  0  0
    2.2113    0.1275    1.7238 S   0  0  0  0  0  0  0  0  0  0  0  0
    2.8208    1.8048    1.2967 C   0  0  0  0  0  0  0  0  0  0  0  0
    2.2638    2.4461    0.0226 C   0  0  0  0  0  0  0  0  0  0  0  0
    0.8074    2.5045    0.0170 N   0  0  0  0  0  0  0  0  0  0  0  0
    0.2221    3.0780   -1.1909 C   0  0  0  0  0  0  0  0  0  0  0  0
   -1.2922    2.8731   -1.2599 C   0  0  0  0  0  0  0  0  0  0  0  0
   -3.7226   -0.0239   -1.1043 H   0  0  0  0  0  0  0  0  0  0  0  0
   -4.0037    1.7255   -1.1182 H   0  0  0  0  0  0  0  0  0  0  0  0
   -3.0542    1.9882    1.1739 H   0  0  0  0  0  0  0  0  0  0  0  0
   -4.3698    0.7949    1.1596 H   0  0  0  0  0  0  0  0  0  0  0  0
   -3.9289   -1.7756    1.2637 H   0  0  0  0  0  0  0  0  0  0  0  0
   -2.5505   -2.4174    2.1826 H   0  0  0  0  0  0  0  0  0  0  0  0
   -2.5797   -1.8714   -0.8730 H   0  0  0  0  0  0  0  0  0  0  0  0
   -2.7387   -3.4552   -0.0729 H   0  0  0  0  0  0  0  0  0  0  0  0
   -0.4754   -3.0208    0.8431 H   0  0  0  0  0  0  0  0  0  0  0  0
   -0.4276   -4.1722   -1.2910 H   0  0  0  0  0  0  0  0  0  0  0  0
   -0.7022   -2.5954   -2.0695 H   0  0  0  0  0  0  0  0  0  0  0  0
    1.7698   -3.1956   -0.3112 H   0  0  0  0  0  0  0  0  0  0  0  0
    1.7182   -3.4844   -2.0798 H   0  0  0  0  0  0  0  0  0  0  0  0
    3.7226    0.0239   -1.1045 H   0  0  0  0  0  0  0  0  0  0  0  0
    4.0037   -1.7255   -1.1183 H   0  0  0  0  0  0  0  0  0  0  0  0
    3.0545   -1.9881    1.1738 H   0  0  0  0  0  0  0  0  0  0  0  0
    4.3699   -0.7946    1.1594 H   0  0  0  0  0  0  0  0  0  0  0  0
    3.9288    1.7758    1.2638 H   0  0  0  0  0  0  0  0  0  0  0  0
    2.5503    2.4174    2.1827 H   0  0  0  0  0  0  0  0  0  0  0  0
    2.5797    1.8716   -0.8730 H   0  0  0  0  0  0  0  0  0  0  0  0
    2.7385    3.4554   -0.0728 H   0  0  0  0  0  0  0  0  0  0  0  0
    0.4752    3.0207    0.8431 H   0  0  0  0  0  0  0  0  0  0  0  0
    0.4276    4.1721   -1.2911 H   0  0  0  0  0  0  0  0  0  0  0  0
    0.7022    2.5953   -2.0696 H   0  0  0  0  0  0  0  0  0  0  0  0
   -1.7699    3.1956   -0.3115 H   0  0  0  0  0  0  0  0  0  0  0  0
   -1.7181    3.4843   -2.0800 H   0  0  0  0  0  0  0  0  0  0  0  0
  1 18  1  0  0  0  0
  1  2  1  0  0  0  0
  2  3  1  0  0  0  0
  3 22  1  0  0  0  0
  3 21  1  0  0  0  0
  3  4  1  0  0  0  0
  5  4  1  0  0  0  0
  5 24  1  0  0  0  0
  6  5  1  0  0  0  0
  7  6  1  0  0  0  0
  7 27  1  0  0  0  0
  8  7  1  0  0  0  0
  9  8  1  0  0  0  0
  9 30  1  0  0  0  0
 10  9  1  0  0  0  0
 10 11  1  0  0  0  0
 11 12  1  0  0  0  0
 12 35  1  0  0  0  0
 12 34  1  0  0  0  0
 12 13  1  0  0  0  0
 14 13  1  0  0  0  0
 14 37  1  0  0  0  0
 15 14  1  0  0  0  0
 16 15  1  0  0  0  0
 16 40  1  0  0  0  0
 17 16  1  0  0  0  0
 18 17  1  0  0  0  0
 18 43  1  0  0  0  0
 19  2  1  0  0  0  0
 20  2  1  0  0  0  0
 23  5  1  0  0  0  0
 25  6  1  0  0  0  0
 26  6  1  0  0  0  0
 28  8  1  0  0  0  0
 29  8  1  0  0  0  0
 31  9  1  0  0  0  0
 32 11  1  0  0  0  0
 33 11  1  0  0  0  0
 36 14  1  0  0  0  0
 38 15  1  0  0  0  0
 39 15  1  0  0  0  0
 41 17  1  0  0  0  0
 42 17  1  0  0  0  0
 44 18  1  0  0  0  0
M  END
