1,2,3,4
 OpenBabel05122313063D

 33 34  0  0  0  0  0  0  0  0999 V2000
    1.5013   -1.8605    0.2283 S   0  0  0  0  0  1  0  0  0  0  0  0
    1.5369    1.1707   -0.6208 S   0  0  0  0  0  0  0  0  0  0  0  0
   -1.5370    1.1710   -0.6203 S   0  0  0  0  0  0  0  0  0  0  0  0
   -1.5014   -1.8604    0.2287 S   0  0  0  0  0  1  0  0  0  0  0  0
    3.0923    0.3485   -0.3040 C   0  0  0  0  0  0  0  0  0  0  0  0
    4.3083    1.0328   -0.4642 C   0  0  0  0  0  0  0  0  0  0  0  0
    5.5111    0.3614   -0.2116 C   0  0  0  0  0  0  0  0  0  0  0  0
    5.4734   -0.9922    0.1819 C   0  0  0  0  0  0  0  0  0  0  0  0
    4.2605   -1.6726    0.3216 C   0  0  0  0  0  0  0  0  0  0  0  0
    3.0287   -1.0131    0.0740 C   0  0  0  0  0  0  0  0  0  0  0  0
   -3.0924    0.3486   -0.3038 C   0  0  0  0  0  0  0  0  0  0  0  0
   -4.3084    1.0329   -0.4642 C   0  0  0  0  0  0  0  0  0  0  0  0
   -5.5112    0.3614   -0.2118 C   0  0  0  0  0  0  0  0  0  0  0  0
   -5.4735   -0.9921    0.1815 C   0  0  0  0  0  0  0  0  0  0  0  0
   -4.2606   -1.6726    0.3215 C   0  0  0  0  0  0  0  0  0  0  0  0
   -3.0288   -1.0131    0.0741 C   0  0  0  0  0  0  0  0  0  0  0  0
    1.2994    2.0928    0.9831 C   0  0  0  0  0  0  0  0  0  0  0  0
    0.0002    2.8958    0.9900 C   0  0  0  0  0  0  0  0  0  0  0  0
   -1.2988    2.0923    0.9840 C   0  0  0  0  0  0  0  0  0  0  0  0
    4.3056    2.0851   -0.7890 H   0  0  0  0  0  0  0  0  0  0  0  0
    6.4716    0.8833   -0.3298 H   0  0  0  0  0  0  0  0  0  0  0  0
    6.4146   -1.5290    0.3767 H   0  0  0  0  0  0  0  0  0  0  0  0
    4.2444   -2.7312    0.6216 H   0  0  0  0  0  0  0  0  0  0  0  0
   -4.3055    2.0852   -0.7889 H   0  0  0  0  0  0  0  0  0  0  0  0
   -6.4717    0.8833   -0.3302 H   0  0  0  0  0  0  0  0  0  0  0  0
   -6.4147   -1.5290    0.3762 H   0  0  0  0  0  0  0  0  0  0  0  0
   -4.2446   -2.7312    0.6214 H   0  0  0  0  0  0  0  0  0  0  0  0
    2.1753    2.7655    1.0757 H   0  0  0  0  0  0  0  0  0  0  0  0
    1.3371    1.3408    1.7964 H   0  0  0  0  0  0  0  0  0  0  0  0
   -0.0003    3.6167    0.1436 H   0  0  0  0  0  0  0  0  0  0  0  0
    0.0004    3.5086    1.9175 H   0  0  0  0  0  0  0  0  0  0  0  0
   -1.3355    1.3399    1.7969 H   0  0  0  0  0  0  0  0  0  0  0  0
   -2.1749    2.7646    1.0776 H   0  0  0  0  0  0  0  0  0  0  0  0
  2  5  1  0  0  0  0
  2 17  1  0  0  0  0
  3 11  1  0  0  0  0
  3 19  1  0  0  0  0
  5 10  1  0  0  0  0
  6  5  2  0  0  0  0
  6  7  1  0  0  0  0
  7  8  2  0  0  0  0
  8  9  1  0  0  0  0
  8 22  1  0  0  0  0
  9 23  1  0  0  0  0
 10  1  1  0  0  0  0
 10  9  2  0  0  0  0
 11 16  1  0  0  0  0
 12 11  2  0  0  0  0
 12 13  1  0  0  0  0
 13 14  2  0  0  0  0
 14 15  1  0  0  0  0
 14 26  1  0  0  0  0
 15 27  1  0  0  0  0
 16  4  1  0  0  0  0
 16 15  2  0  0  0  0
 17 18  1  0  0  0  0
 17 28  1  0  0  0  0
 17 29  1  0  0  0  0
 18 31  1  0  0  0  0
 19 18  1  0  0  0  0
 19 33  1  0  0  0  0
 19 32  1  0  0  0  0
 20  6  1  0  0  0  0
 21  7  1  0  0  0  0
 24 12  1  0  0  0  0
 25 13  1  0  0  0  0
 30 18  1  0  0  0  0
M  END
