1,2,3,4
 OpenBabel05122313063D

 34 35  0  0  0  0  0  0  0  0999 V2000
   -1.4347   -1.7417   -1.7486 S   0  0  0  0  0  1  0  0  0  0  0  0
    0.2043   -1.6997    1.0649 S   0  0  0  0  0  0  0  0  0  0  0  0
    1.8544   -1.9032   -1.7556 S   0  0  0  0  0  0  0  0  0  0  0  0
    2.1113    0.9594   -0.2985 S   0  0  0  0  0  0  0  0  0  0  0  0
    2.2325    1.3913    1.5085 C   0  0  0  0  0  0  0  0  0  0  0  0
    1.2052    1.7191    1.7528 H   0  0  0  0  0  0  0  0  0  0  0  0
    2.6681    0.0423    2.5952 Cl  0  0  0  0  0  0  0  0  0  0  0  0
    3.2945    2.8146    1.7964 Cl  0  0  0  0  0  0  0  0  0  0  0  0
   -1.2113   -2.7946    0.8268 C   0  0  0  0  0  0  0  0  0  0  0  0
   -1.6306   -3.5952    1.9021 C   0  0  0  0  0  0  0  0  0  0  0  0
   -1.0936   -3.5318    2.8618 H   0  0  0  0  0  0  0  0  0  0  0  0
   -2.7277   -4.4522    1.7504 C   0  0  0  0  0  0  0  0  0  0  0  0
   -3.0617   -5.0805    2.5889 H   0  0  0  0  0  0  0  0  0  0  0  0
   -3.4053   -4.4813    0.5146 C   0  0  0  0  0  0  0  0  0  0  0  0
   -4.2739   -5.1451    0.3821 H   0  0  0  0  0  0  0  0  0  0  0  0
   -2.9994   -3.6688   -0.5471 C   0  0  0  0  0  0  0  0  0  0  0  0
   -3.5435   -3.6865   -1.5039 H   0  0  0  0  0  0  0  0  0  0  0  0
   -1.8891   -2.7921   -0.4160 C   0  0  0  0  0  0  0  0  0  0  0  0
    3.4663   -1.2908   -1.2045 C   0  0  0  0  0  0  0  0  0  0  0  0
    4.6192   -2.0414   -1.5021 C   0  0  0  0  0  0  0  0  0  0  0  0
    4.5192   -2.9834   -2.0632 H   0  0  0  0  0  0  0  0  0  0  0  0
    5.8799   -1.5921   -1.0906 C   0  0  0  0  0  0  0  0  0  0  0  0
    6.7751   -2.1899   -1.3180 H   0  0  0  0  0  0  0  0  0  0  0  0
    5.9977   -0.3686   -0.4097 C   0  0  0  0  0  0  0  0  0  0  0  0
    6.9863   -0.0035   -0.0940 H   0  0  0  0  0  0  0  0  0  0  0  0
    4.8616    0.4075   -0.1500 C   0  0  0  0  0  0  0  0  0  0  0  0
    4.9540    1.3764    0.3599 H   0  0  0  0  0  0  0  0  0  0  0  0
    3.5888   -0.0594   -0.5310 C   0  0  0  0  0  0  0  0  0  0  0  0
    1.5695   -2.9416    0.8157 C   0  0  0  0  0  0  0  0  0  0  0  0
    1.3409   -3.7995    1.4793 H   0  0  0  0  0  0  0  0  0  0  0  0
    2.4865   -2.4356    1.1810 H   0  0  0  0  0  0  0  0  0  0  0  0
    1.6932   -3.3647   -0.6285 C   0  0  0  0  0  0  0  0  0  0  0  0
    2.5623   -4.0313   -0.7999 H   0  0  0  0  0  0  0  0  0  0  0  0
    0.7751   -3.8702   -0.9928 H   0  0  0  0  0  0  0  0  0  0  0  0
  1 18  1  0  0  0  0
  3 19  1  0  0  0  0
  3 32  1  0  0  0  0
  4  5  1  0  0  0  0
  5  6  1  0  0  0  0
  5  8  1  0  0  0  0
  5  7  1  0  0  0  0
  9  2  1  0  0  0  0
  9 10  1  0  0  0  0
 10 11  1  0  0  0  0
 12 10  2  0  0  0  0
 12 13  1  0  0  0  0
 14 12  1  0  0  0  0
 15 14  1  0  0  0  0
 16 18  1  0  0  0  0
 16 14  2  0  0  0  0
 17 16  1  0  0  0  0
 18  9  2  0  0  0  0
 19 28  1  0  0  0  0
 20 19  2  0  0  0  0
 20 22  1  0  0  0  0
 21 20  1  0  0  0  0
 22 24  2  0  0  0  0
 23 22  1  0  0  0  0
 24 26  1  0  0  0  0
 24 25  1  0  0  0  0
 26 27  1  0  0  0  0
 28  4  1  0  0  0  0
 28 26  2  0  0  0  0
 29  2  1  0  0  0  0
 29 31  1  0  0  0  0
 29 30  1  0  0  0  0
 32 29  1  0  0  0  0
 33 32  1  0  0  0  0
 34 32  1  0  0  0  0
M  END
