1,2,3,4
 OpenBabel05122313063D

 42 42  0  0  0  0  0  0  0  0999 V2000
    1.4535   -1.9238   -0.3390 S   0  0  0  0  0  0  0  0  0  0  0  0
   -1.7502   -1.6998    0.5243 S   0  0  0  0  0  0  0  0  0  0  0  0
   -1.6322    1.8142    0.5255 S   0  0  0  0  0  0  0  0  0  0  0  0
    1.5474    1.8839   -0.3169 S   0  0  0  0  0  0  0  0  0  0  0  0
    3.9592   -0.1103   -1.5066 S   0  0  0  0  0  0  0  0  0  0  0  0
   -4.3134    0.2547    0.1054 S   0  0  0  0  0  0  0  0  0  0  0  0
    0.6254   -3.1142    0.8022 C   0  0  0  0  0  0  0  0  0  0  0  0
   -0.8062   -3.2943    0.3602 C   0  0  0  0  0  0  0  0  0  0  0  0
   -2.9698   -2.0352   -0.8324 C   0  0  0  0  0  0  0  0  0  0  0  0
   -4.3393   -1.4673   -0.4910 C   0  0  0  0  0  0  0  0  0  0  0  0
   -3.5819    1.1004   -1.3469 C   0  0  0  0  0  0  0  0  0  0  0  0
   -2.7211    2.2689   -0.9012 C   0  0  0  0  0  0  0  0  0  0  0  0
   -0.6129    3.3706    0.5004 C   0  0  0  0  0  0  0  0  0  0  0  0
    0.8155    3.0767    0.8897 C   0  0  0  0  0  0  0  0  0  0  0  0
    3.1380    1.6414    0.5772 C   0  0  0  0  0  0  0  0  0  0  0  0
    4.2643    1.3002   -0.3884 C   0  0  0  0  0  0  0  0  0  0  0  0
    4.1930   -1.5098   -0.3568 C   0  0  0  0  0  0  0  0  0  0  0  0
    3.0340   -1.7870    0.5921 C   0  0  0  0  0  0  0  0  0  0  0  0
    1.1765   -4.0741    0.7328 H   0  0  0  0  0  0  0  0  0  0  0  0
    0.6985   -2.7038    1.8307 H   0  0  0  0  0  0  0  0  0  0  0  0
   -1.3278   -4.0359    0.9980 H   0  0  0  0  0  0  0  0  0  0  0  0
   -0.8572   -3.6262   -0.6964 H   0  0  0  0  0  0  0  0  0  0  0  0
   -3.0335   -3.1368   -0.9382 H   0  0  0  0  0  0  0  0  0  0  0  0
   -2.5453   -1.6291   -1.7718 H   0  0  0  0  0  0  0  0  0  0  0  0
   -4.3779    1.4682   -2.0270 H   0  0  0  0  0  0  0  0  0  0  0  0
   -2.9542    0.3829   -1.9104 H   0  0  0  0  0  0  0  0  0  0  0  0
   -4.8015   -2.0282    0.3461 H   0  0  0  0  0  0  0  0  0  0  0  0
   -5.0148   -1.5660   -1.3669 H   0  0  0  0  0  0  0  0  0  0  0  0
   -3.3299    3.1185   -0.5294 H   0  0  0  0  0  0  0  0  0  0  0  0
   -2.0807    2.6194   -1.7354 H   0  0  0  0  0  0  0  0  0  0  0  0
   -1.0812    4.0667    1.2246 H   0  0  0  0  0  0  0  0  0  0  0  0
   -0.6728    3.8153   -0.5132 H   0  0  0  0  0  0  0  0  0  0  0  0
    0.8847    2.6120    1.8951 H   0  0  0  0  0  0  0  0  0  0  0  0
    1.4281    4.0004    0.8516 H   0  0  0  0  0  0  0  0  0  0  0  0
    2.9582    0.8935    1.3735 H   0  0  0  0  0  0  0  0  0  0  0  0
    3.3482    2.6110    1.0741 H   0  0  0  0  0  0  0  0  0  0  0  0
    5.2013    1.1192    0.1800 H   0  0  0  0  0  0  0  0  0  0  0  0
    4.4572    2.1543   -1.0689 H   0  0  0  0  0  0  0  0  0  0  0  0
    4.3621   -2.3832   -1.0188 H   0  0  0  0  0  0  0  0  0  0  0  0
    5.1273   -1.3554    0.2237 H   0  0  0  0  0  0  0  0  0  0  0  0
    2.8843   -1.0329    1.3889 H   0  0  0  0  0  0  0  0  0  0  0  0
    3.1752   -2.7692    1.0886 H   0  0  0  0  0  0  0  0  0  0  0  0
  1 18  1  0  0  0  0
  1  7  1  0  0  0  0
  4 15  1  0  0  0  0
  4 14  1  0  0  0  0
  5 16  1  0  0  0  0
  5 17  1  0  0  0  0
  7 20  1  0  0  0  0
  8  2  1  0  0  0  0
  8  7  1  0  0  0  0
  8 21  1  0  0  0  0
  9 10  1  0  0  0  0
  9  2  1  0  0  0  0
 10  6  1  0  0  0  0
 10 27  1  0  0  0  0
 11 12  1  0  0  0  0
 11  6  1  0  0  0  0
 12 29  1  0  0  0  0
 12  3  1  0  0  0  0
 13  3  1  0  0  0  0
 13 14  1  0  0  0  0
 13 31  1  0  0  0  0
 14 33  1  0  0  0  0
 15 36  1  0  0  0  0
 15 35  1  0  0  0  0
 16 37  1  0  0  0  0
 16 15  1  0  0  0  0
 17 40  1  0  0  0  0
 17 18  1  0  0  0  0
 18 42  1  0  0  0  0
 18 41  1  0  0  0  0
 19  7  1  0  0  0  0
 22  8  1  0  0  0  0
 23  9  1  0  0  0  0
 24  9  1  0  0  0  0
 25 11  1  0  0  0  0
 26 11  1  0  0  0  0
 28 10  1  0  0  0  0
 30 12  1  0  0  0  0
 32 13  1  0  0  0  0
 34 14  1  0  0  0  0
 38 16  1  0  0  0  0
 39 17  1  0  0  0  0
M  END
