1,8,15,16
 OpenBabel05122313063D

 28 28  0  0  0  0  0  0  0  0999 V2000
    2.2314   -0.0001   -0.3822 S   0  0  0  0  0  0  0  0  0  0  0  0
    2.3949    1.4573   -1.4927 C   0  0  0  0  0  0  0  0  0  0  0  0
    3.4654    1.6224   -1.7291 H   0  0  0  0  0  0  0  0  0  0  0  0
    1.8161    1.2224   -2.4095 H   0  0  0  0  0  0  0  0  0  0  0  0
    1.8146    2.6581   -0.7619 C   0  0  0  0  0  0  0  0  0  0  0  0
    1.7172    3.5167   -1.4548 H   0  0  0  0  0  0  0  0  0  0  0  0
    2.4456    2.9772    0.0913 H   0  0  0  0  0  0  0  0  0  0  0  0
    0.0911    2.3522   -0.0781 S   0  0  0  0  0  0  0  0  0  0  0  0
    0.3896    2.6384    1.7399 C   0  0  0  0  0  0  0  0  0  0  0  0
    0.9625    3.5817    1.8446 H   0  0  0  0  0  0  0  0  0  0  0  0
   -0.6280    2.8175    2.1451 H   0  0  0  0  0  0  0  0  0  0  0  0
    1.0666    1.4768    2.4576 C   0  0  0  0  0  0  0  0  0  0  0  0
    1.1125    1.6709    3.5485 H   0  0  0  0  0  0  0  0  0  0  0  0
    2.0895    1.2765    2.0779 H   0  0  0  0  0  0  0  0  0  0  0  0
   -0.0093   -0.0001    2.1582 S   0  0  0  0  0  0  0  0  0  0  0  0
    0.0909   -2.3522   -0.0783 S   0  0  0  0  0  0  0  0  0  0  0  0
    1.8145   -2.6582   -0.7621 C   0  0  0  0  0  0  0  0  0  0  0  0
    2.3949   -1.4573   -1.4928 C   0  0  0  0  0  0  0  0  0  0  0  0
    3.4654   -1.6226   -1.7291 H   0  0  0  0  0  0  0  0  0  0  0  0
    1.8161   -1.2224   -2.4096 H   0  0  0  0  0  0  0  0  0  0  0  0
    1.7170   -3.5167   -1.4550 H   0  0  0  0  0  0  0  0  0  0  0  0
    2.4453   -2.9774    0.0912 H   0  0  0  0  0  0  0  0  0  0  0  0
    0.3893   -2.6385    1.7397 C   0  0  0  0  0  0  0  0  0  0  0  0
    0.9621   -3.5819    1.8443 H   0  0  0  0  0  0  0  0  0  0  0  0
   -0.6284   -2.8176    2.1448 H   0  0  0  0  0  0  0  0  0  0  0  0
    1.0664   -1.4771    2.4575 C   0  0  0  0  0  0  0  0  0  0  0  0
    1.1123   -1.6713    3.5484 H   0  0  0  0  0  0  0  0  0  0  0  0
    2.0894   -1.2769    2.0779 H   0  0  0  0  0  0  0  0  0  0  0  0
  2  5  1  0  0  0  0
  2  1  1  0  0  0  0
  3  2  1  0  0  0  0
  4  2  1  0  0  0  0
  5  8  1  0  0  0  0
  5  7  1  0  0  0  0
  6  5  1  0  0  0  0
  8  9  1  0  0  0  0
  9 10  1  0  0  0  0
  9 11  1  0  0  0  0
  9 12  1  0  0  0  0
 12 13  1  0  0  0  0
 14 12  1  0  0  0  0
 15 26  1  0  0  0  0
 15 12  1  0  0  0  0
 16 23  1  0  0  0  0
 17 16  1  0  0  0  0
 17 22  1  0  0  0  0
 18 17  1  0  0  0  0
 18  1  1  0  0  0  0
 19 18  1  0  0  0  0
 20 18  1  0  0  0  0
 21 17  1  0  0  0  0
 23 24  1  0  0  0  0
 23 25  1  0  0  0  0
 23 26  1  0  0  0  0
 26 27  1  0  0  0  0
 28 26  1  0  0  0  0
M  END
