1,2,3,4
 OpenBabel05122313063D

 68 68  0  0  0  0  0  0  0  0999 V2000
    2.2204   -0.0003    0.2415 S   0  0  0  0  0  3  0  0  0  0  0  0
   -0.0728    2.4696    0.2905 S   0  0  0  0  0  0  0  0  0  0  0  0
   -2.5401    0.0001    0.3930 S   0  0  0  0  0  0  0  0  0  0  0  0
   -0.0732   -2.4697    0.2906 S   0  0  0  0  0  0  0  0  0  0  0  0
    3.1285    1.3743   -0.6564 C   0  0  0  0  0  0  0  0  0  0  0  0
    2.6865    2.8287   -0.3886 C   0  0  0  0  0  0  0  0  0  0  0  0
    1.2360    3.0941   -0.8482 C   0  0  0  0  0  0  0  0  0  0  0  0
   -1.4749    3.1681   -0.6847 C   0  0  0  0  0  0  0  0  0  0  0  0
   -2.8835    2.7909   -0.1806 C   0  0  0  0  0  0  0  0  0  0  0  0
   -3.2704    1.3602   -0.6111 C   0  0  0  0  0  0  0  0  0  0  0  0
   -3.2708   -1.3598   -0.6110 C   0  0  0  0  0  0  0  0  0  0  0  0
   -2.8840   -2.7905   -0.1805 C   0  0  0  0  0  0  0  0  0  0  0  0
   -1.4755   -3.1679   -0.6846 C   0  0  0  0  0  0  0  0  0  0  0  0
    1.2354   -3.0945   -0.8481 C   0  0  0  0  0  0  0  0  0  0  0  0
    2.6859   -2.8293   -0.3885 C   0  0  0  0  0  0  0  0  0  0  0  0
    3.1282   -1.3751   -0.6565 C   0  0  0  0  0  0  0  0  0  0  0  0
    3.1470   -0.0004    1.8292 C   0  0  0  0  0  0  0  0  0  0  0  0
    3.6012    3.6844   -1.2980 C   0  0  0  0  0  0  0  0  0  0  0  0
    2.8892    3.2645    1.0730 C   0  0  0  0  0  0  0  0  0  0  0  0
   -3.8668    3.7370   -0.9068 C   0  0  0  0  0  0  0  0  0  0  0  0
   -3.0112    2.9805    1.3403 C   0  0  0  0  0  0  0  0  0  0  0  0
   -3.8674   -3.7366   -0.9067 C   0  0  0  0  0  0  0  0  0  0  0  0
   -3.0118   -2.9801    1.3404 C   0  0  0  0  0  0  0  0  0  0  0  0
    3.6005   -3.6853   -1.2981 C   0  0  0  0  0  0  0  0  0  0  0  0
    2.8887   -3.2652    1.0730 C   0  0  0  0  0  0  0  0  0  0  0  0
    4.2080    1.2422   -0.4380 H   0  0  0  0  0  0  0  0  0  0  0  0
    2.9500    1.1191   -1.7204 H   0  0  0  0  0  0  0  0  0  0  0  0
    1.0539    2.6620   -1.8544 H   0  0  0  0  0  0  0  0  0  0  0  0
    1.0798    4.1914   -0.9087 H   0  0  0  0  0  0  0  0  0  0  0  0
   -1.3455    4.2689   -0.6268 H   0  0  0  0  0  0  0  0  0  0  0  0
   -1.3446    2.8566   -1.7421 H   0  0  0  0  0  0  0  0  0  0  0  0
   -3.0003    1.1867   -1.6737 H   0  0  0  0  0  0  0  0  0  0  0  0
   -4.3677    1.2302   -0.5072 H   0  0  0  0  0  0  0  0  0  0  0  0
   -4.3680   -1.2296   -0.5070 H   0  0  0  0  0  0  0  0  0  0  0  0
   -3.0008   -1.1864   -1.6736 H   0  0  0  0  0  0  0  0  0  0  0  0
   -1.3451   -2.8563   -1.7420 H   0  0  0  0  0  0  0  0  0  0  0  0
   -1.3463   -4.2688   -0.6268 H   0  0  0  0  0  0  0  0  0  0  0  0
    1.0789   -4.1918   -0.9086 H   0  0  0  0  0  0  0  0  0  0  0  0
    1.0532   -2.6624   -1.8543 H   0  0  0  0  0  0  0  0  0  0  0  0
    2.9496   -1.1199   -1.7205 H   0  0  0  0  0  0  0  0  0  0  0  0
    4.2077   -1.2432   -0.4382 H   0  0  0  0  0  0  0  0  0  0  0  0
    4.6690    3.5366   -1.0388 H   0  0  0  0  0  0  0  0  0  0  0  0
    3.4680    3.4298   -2.3689 H   0  0  0  0  0  0  0  0  0  0  0  0
    3.3690    4.7606   -1.1706 H   0  0  0  0  0  0  0  0  0  0  0  0
    2.7046    4.3525    1.1716 H   0  0  0  0  0  0  0  0  0  0  0  0
    2.1847    2.7602    1.7632 H   0  0  0  0  0  0  0  0  0  0  0  0
    3.9268    3.0689    1.4101 H   0  0  0  0  0  0  0  0  0  0  0  0
   -3.8021    3.6252   -2.0084 H   0  0  0  0  0  0  0  0  0  0  0  0
   -4.9110    3.5248   -0.6016 H   0  0  0  0  0  0  0  0  0  0  0  0
   -3.6492    4.7945   -0.6564 H   0  0  0  0  0  0  0  0  0  0  0  0
   -4.0425    2.7544    1.6771 H   0  0  0  0  0  0  0  0  0  0  0  0
   -2.3219    2.3170    1.9021 H   0  0  0  0  0  0  0  0  0  0  0  0
   -2.7798    4.0263    1.6246 H   0  0  0  0  0  0  0  0  0  0  0  0
   -3.8027   -3.6248   -2.0084 H   0  0  0  0  0  0  0  0  0  0  0  0
   -3.6500   -4.7941   -0.6563 H   0  0  0  0  0  0  0  0  0  0  0  0
   -4.9116   -3.5242   -0.6016 H   0  0  0  0  0  0  0  0  0  0  0  0
   -4.0430   -2.7539    1.6772 H   0  0  0  0  0  0  0  0  0  0  0  0
   -2.7805   -4.0260    1.6246 H   0  0  0  0  0  0  0  0  0  0  0  0
   -2.3224   -2.3168    1.9022 H   0  0  0  0  0  0  0  0  0  0  0  0
    4.6683   -3.5377   -1.0388 H   0  0  0  0  0  0  0  0  0  0  0  0
    3.3680   -4.7614   -1.1706 H   0  0  0  0  0  0  0  0  0  0  0  0
    3.4672   -3.4307   -2.3689 H   0  0  0  0  0  0  0  0  0  0  0  0
    2.1844   -2.7607    1.7632 H   0  0  0  0  0  0  0  0  0  0  0  0
    2.7038   -4.3531    1.1717 H   0  0  0  0  0  0  0  0  0  0  0  0
    3.9264   -3.0698    1.4100 H   0  0  0  0  0  0  0  0  0  0  0  0
    2.8332    0.9003    2.3808 H   0  0  0  0  0  0  0  0  0  0  0  0
    2.8329   -0.9010    2.3809 H   0  0  0  0  0  0  0  0  0  0  0  0
    4.2374   -0.0006    1.6454 H   0  0  0  0  0  0  0  0  0  0  0  0
  1 17  1  0  0  0  0
  5 26  1  0  0  0  0
  5  6  1  0  0  0  0
  5  1  1  0  0  0  0
  6 19  1  0  0  0  0
  7  6  1  0  0  0  0
  7  2  1  0  0  0  0
  8 30  1  0  0  0  0
  8  9  1  0  0  0  0
  8  2  1  0  0  0  0
  9 21  1  0  0  0  0
 10 33  1  0  0  0  0
 10  9  1  0  0  0  0
 10  3  1  0  0  0  0
 11 34  1  0  0  0  0
 11 12  1  0  0  0  0
 11  3  1  0  0  0  0
 12 23  1  0  0  0  0
 13 37  1  0  0  0  0
 13 12  1  0  0  0  0
 13  4  1  0  0  0  0
 14 15  1  0  0  0  0
 14  4  1  0  0  0  0
 15 25  1  0  0  0  0
 16 41  1  0  0  0  0
 16 15  1  0  0  0  0
 16  1  1  0  0  0  0
 17 66  1  0  0  0  0
 17 67  1  0  0  0  0
 18 44  1  0  0  0  0
 18 42  1  0  0  0  0
 18  6  1  0  0  0  0
 19 45  1  0  0  0  0
 19 47  1  0  0  0  0
 19 46  1  0  0  0  0
 20 50  1  0  0  0  0
 20 49  1  0  0  0  0
 20  9  1  0  0  0  0
 21 53  1  0  0  0  0
 21 51  1  0  0  0  0
 21 52  1  0  0  0  0
 22 55  1  0  0  0  0
 22 56  1  0  0  0  0
 22 12  1  0  0  0  0
 23 58  1  0  0  0  0
 23 57  1  0  0  0  0
 23 59  1  0  0  0  0
 24 61  1  0  0  0  0
 24 60  1  0  0  0  0
 24 15  1  0  0  0  0
 25 64  1  0  0  0  0
 25 65  1  0  0  0  0
 25 63  1  0  0  0  0
 27  5  1  0  0  0  0
 28  7  1  0  0  0  0
 29  7  1  0  0  0  0
 31  8  1  0  0  0  0
 32 10  1  0  0  0  0
 35 11  1  0  0  0  0
 36 13  1  0  0  0  0
 38 14  1  0  0  0  0
 39 14  1  0  0  0  0
 40 16  1  0  0  0  0
 43 18  1  0  0  0  0
 48 20  1  0  0  0  0
 54 22  1  0  0  0  0
 62 24  1  0  0  0  0
 68 17  1  0  0  0  0
M  END
