1,2,3,4
 OpenBabel05122313063D

 33 34  0  0  1  0  0  0  0  0999 V2000
    1.8546    1.0136   -1.4710 S   0  0  0  0  0  1  0  0  0  0  0  0
    1.0539   -0.6830    1.2597 S   0  0  0  0  0  0  0  0  0  0  0  0
   -1.0826   -0.4619   -1.4586 S   0  0  0  0  0  0  0  0  0  0  0  0
   -1.9575    0.6904    1.5221 S   0  0  0  0  0  1  0  0  0  0  0  0
    2.6548   -0.8587    0.4744 C   0  0  0  0  0  0  0  0  0  0  0  0
    3.6037   -1.7107    1.0736 C   0  0  0  0  0  0  0  0  0  0  0  0
    3.3443   -2.2282    2.0094 H   0  0  0  0  0  0  0  0  0  0  0  0
    4.8629   -1.8862    0.4877 C   0  0  0  0  0  0  0  0  0  0  0  0
    5.6027   -2.5515    0.9558 H   0  0  0  0  0  0  0  0  0  0  0  0
    5.1702   -1.1879   -0.6954 C   0  0  0  0  0  0  0  0  0  0  0  0
    6.1584   -1.3109   -1.1645 H   0  0  0  0  0  0  0  0  0  0  0  0
    4.2418   -0.3192   -1.2756 C   0  0  0  0  0  0  0  0  0  0  0  0
    4.4973    0.2413   -2.1873 H   0  0  0  0  0  0  0  0  0  0  0  0
    2.9596   -0.1209   -0.7006 C   0  0  0  0  0  0  0  0  0  0  0  0
   -2.6707   -0.8572   -0.7209 C   0  0  0  0  0  0  0  0  0  0  0  0
   -3.5592   -1.6686   -1.4513 C   0  0  0  0  0  0  0  0  0  0  0  0
   -3.2629   -2.0277   -2.4493 H   0  0  0  0  0  0  0  0  0  0  0  0
   -4.8060   -2.0068   -0.9125 C   0  0  0  0  0  0  0  0  0  0  0  0
   -5.5013   -2.6406   -1.4817 H   0  0  0  0  0  0  0  0  0  0  0  0
   -5.1598   -1.5106    0.3568 C   0  0  0  0  0  0  0  0  0  0  0  0
   -6.1406   -1.7606    0.7896 H   0  0  0  0  0  0  0  0  0  0  0  0
   -4.2857   -0.6899    1.0748 C   0  0  0  0  0  0  0  0  0  0  0  0
   -4.5739   -0.2967    2.0612 H   0  0  0  0  0  0  0  0  0  0  0  0
   -3.0139   -0.3351    0.5537 C   0  0  0  0  0  0  0  0  0  0  0  0
    0.0832   -2.1096    0.5289 C   0  0  2  0  0  0  0  0  0  0  0  0
   -0.8913   -1.9812    1.0471 H   0  0  0  0  0  0  0  0  0  0  0  0
    0.7068   -3.4528    0.8938 C   0  0  0  0  0  0  0  0  0  0  0  0
    0.8442   -3.5425    1.9888 H   0  0  0  0  0  0  0  0  0  0  0  0
    1.6902   -3.5923    0.4022 H   0  0  0  0  0  0  0  0  0  0  0  0
    0.0380   -4.2737    0.5640 H   0  0  0  0  0  0  0  0  0  0  0  0
   -0.0991   -1.9438   -0.9733 C   0  0  0  0  0  0  0  0  0  0  0  0
    0.8714   -1.8308   -1.5001 H   0  0  0  0  0  0  0  0  0  0  0  0
   -0.6322   -2.8192   -1.3978 H   0  0  0  0  0  0  0  0  0  0  0  0
  1 14  1  0  0  0  0
  3 31  1  0  0  0  0
  3 15  1  0  0  0  0
  5  6  1  0  0  0  0
  5  2  1  0  0  0  0
  6  7  1  0  0  0  0
  8  9  1  0  0  0  0
  8  6  2  0  0  0  0
 10  8  1  0  0  0  0
 11 10  1  0  0  0  0
 12 14  1  0  0  0  0
 12 10  2  0  0  0  0
 13 12  1  0  0  0  0
 14  5  2  0  0  0  0
 15 24  1  0  0  0  0
 16 18  1  0  0  0  0
 16 15  2  0  0  0  0
 17 16  1  0  0  0  0
 18 20  2  0  0  0  0
 19 18  1  0  0  0  0
 20 21  1  0  0  0  0
 20 22  1  0  0  0  0
 22 23  1  0  0  0  0
 24 22  2  0  0  0  0
 24  4  1  0  0  0  0
 25 27  1  0  0  0  0
 25 26  1  1  0  0  0
 25  2  1  0  0  0  0
 27 28  1  0  0  0  0
 29 27  1  0  0  0  0
 30 27  1  0  0  0  0
 31 25  1  0  0  0  0
 32 31  1  0  0  0  0
 33 31  1  0  0  0  0
M  END
