1,2,3,4
 OpenBabel05122313063D

 42 43  0  0  0  0  0  0  0  0999 V2000
   -2.1981   -0.7114   -0.8685 S   0  0  0  0  0  1  0  0  0  0  0  0
   -0.4260    1.5751    0.5859 S   0  0  0  0  0  0  0  0  0  0  0  0
    0.4267   -1.5739    0.5921 S   0  0  0  0  0  0  0  0  0  0  0  0
    2.1980    0.7068   -0.8727 S   0  0  0  0  0  1  0  0  0  0  0  0
   -2.2021    1.4725    0.8495 C   0  0  0  0  0  0  0  0  0  0  0  0
   -2.7870    2.4410    1.6762 C   0  0  0  0  0  0  0  0  0  0  0  0
   -4.1635    2.4021    1.9387 C   0  0  0  0  0  0  0  0  0  0  0  0
   -4.9297    1.3896    1.3522 C   0  0  0  0  0  0  0  0  0  0  0  0
   -4.3618    0.4166    0.5046 C   0  0  0  0  0  0  0  0  0  0  0  0
   -2.9532    0.4424    0.2105 C   0  0  0  0  0  0  0  0  0  0  0  0
    2.2027   -1.4690    0.8555 C   0  0  0  0  0  0  0  0  0  0  0  0
    2.7879   -2.4334    1.6869 C   0  0  0  0  0  0  0  0  0  0  0  0
    4.1644   -2.3924    1.9497 C   0  0  0  0  0  0  0  0  0  0  0  0
    4.9302   -1.3823    1.3585 C   0  0  0  0  0  0  0  0  0  0  0  0
    4.3620   -0.4136    0.5062 C   0  0  0  0  0  0  0  0  0  0  0  0
    2.9534   -0.4415    0.2119 C   0  0  0  0  0  0  0  0  0  0  0  0
    0.1825    0.7365    2.1136 C   0  0  0  0  0  0  0  0  0  0  0  0
   -0.1823   -0.7295    2.1164 C   0  0  0  0  0  0  0  0  0  0  0  0
   -5.2311   -0.6431   -0.0764 C   0  0  0  0  0  0  0  0  0  0  0  0
   -4.8475   -1.5888   -0.7455 O   0  0  0  0  0  0  0  0  0  0  0  0
   -6.5475   -0.4527    0.2275 O   0  0  0  0  0  0  0  0  0  0  0  0
   -7.4347   -1.4443   -0.2941 C   0  0  0  0  0  0  0  0  0  0  0  0
    5.2308    0.6437   -0.0798 C   0  0  0  0  0  0  0  0  0  0  0  0
    4.8469    1.5856   -0.7541 O   0  0  0  0  0  0  0  0  0  0  0  0
    6.5472    0.4558    0.2260 O   0  0  0  0  0  0  0  0  0  0  0  0
    7.4340    1.4453   -0.3005 C   0  0  0  0  0  0  0  0  0  0  0  0
   -2.1535    3.2295    2.1124 H   0  0  0  0  0  0  0  0  0  0  0  0
   -4.6309    3.1575    2.5861 H   0  0  0  0  0  0  0  0  0  0  0  0
   -6.0106    1.3330    1.5379 H   0  0  0  0  0  0  0  0  0  0  0  0
    2.1548   -3.2202    2.1266 H   0  0  0  0  0  0  0  0  0  0  0  0
    4.6320   -3.1445    2.6007 H   0  0  0  0  0  0  0  0  0  0  0  0
    6.0110   -1.3242    1.5442 H   0  0  0  0  0  0  0  0  0  0  0  0
   -8.4487   -1.1504    0.0311 H   0  0  0  0  0  0  0  0  0  0  0  0
   -7.3793   -1.4832   -1.4011 H   0  0  0  0  0  0  0  0  0  0  0  0
   -7.1798   -2.4510    0.0956 H   0  0  0  0  0  0  0  0  0  0  0  0
    1.2801    0.8959    2.1043 H   0  0  0  0  0  0  0  0  0  0  0  0
   -0.2548    1.2782    2.9769 H   0  0  0  0  0  0  0  0  0  0  0  0
    7.1792    2.4537    0.0850 H   0  0  0  0  0  0  0  0  0  0  0  0
    7.3781    1.4793   -1.4076 H   0  0  0  0  0  0  0  0  0  0  0  0
    8.4482    1.1529    0.0255 H   0  0  0  0  0  0  0  0  0  0  0  0
   -1.2799   -0.8891    2.1075 H   0  0  0  0  0  0  0  0  0  0  0  0
    0.2548   -1.2677    2.9819 H   0  0  0  0  0  0  0  0  0  0  0  0
  1 10  1  0  0  0  0
  2  5  1  0  0  0  0
  2 17  1  0  0  0  0
  3 11  1  0  0  0  0
  3 18  1  0  0  0  0
  4 16  1  0  0  0  0
  5  6  1  0  0  0  0
  6  7  2  0  0  0  0
  6 27  1  0  0  0  0
  7 28  1  0  0  0  0
  8 29  1  0  0  0  0
  8  7  1  0  0  0  0
  9  8  2  0  0  0  0
 10  9  1  0  0  0  0
 10  5  2  0  0  0  0
 11 12  1  0  0  0  0
 12 13  2  0  0  0  0
 12 30  1  0  0  0  0
 13 31  1  0  0  0  0
 14 32  1  0  0  0  0
 14 13  1  0  0  0  0
 15 14  2  0  0  0  0
 16 15  1  0  0  0  0
 16 11  2  0  0  0  0
 17 18  1  0  0  0  0
 17 37  1  0  0  0  0
 18 42  1  0  0  0  0
 19 21  1  0  0  0  0
 19  9  1  0  0  0  0
 20 19  2  0  0  0  0
 22 33  1  0  0  0  0
 22 35  1  0  0  0  0
 22 21  1  0  0  0  0
 23 25  1  0  0  0  0
 23 15  1  0  0  0  0
 24 23  2  0  0  0  0
 26 40  1  0  0  0  0
 26 38  1  0  0  0  0
 26 25  1  0  0  0  0
 34 22  1  0  0  0  0
 36 17  1  0  0  0  0
 39 26  1  0  0  0  0
 41 18  1  0  0  0  0
M  END
