1,2,3,4
 OpenBabel05122313063D

 39 40  0  0  0  0  0  0  0  0999 V2000
    1.5035   -2.1364    0.3799 S   0  0  0  0  0  1  0  0  0  0  0  0
    1.5294    0.7756   -0.8154 S   0  0  0  0  0  0  0  0  0  0  0  0
   -1.5295    0.7762   -0.8149 S   0  0  0  0  0  0  0  0  0  0  0  0
   -1.5046   -2.1400    0.3704 S   0  0  0  0  0  1  0  0  0  0  0  0
    3.0870    0.0088   -0.3858 C   0  0  0  0  0  0  0  0  0  0  0  0
    4.2999    0.6799   -0.6105 C   0  0  0  0  0  0  0  0  0  0  0  0
    5.5044    0.0504   -0.2717 C   0  0  0  0  0  0  0  0  0  0  0  0
    5.4712   -1.2507    0.2706 C   0  0  0  0  0  0  0  0  0  0  0  0
    4.2611   -1.9201    0.4742 C   0  0  0  0  0  0  0  0  0  0  0  0
    3.0277   -1.3017    0.1429 C   0  0  0  0  0  0  0  0  0  0  0  0
   -3.0870    0.0098   -0.3848 C   0  0  0  0  0  0  0  0  0  0  0  0
   -4.2998    0.6824   -0.6061 C   0  0  0  0  0  0  0  0  0  0  0  0
   -5.5043    0.0530   -0.2674 C   0  0  0  0  0  0  0  0  0  0  0  0
   -5.4714   -1.2497    0.2713 C   0  0  0  0  0  0  0  0  0  0  0  0
   -4.2616   -1.9207    0.4712 C   0  0  0  0  0  0  0  0  0  0  0  0
   -3.0281   -1.3023    0.1400 C   0  0  0  0  0  0  0  0  0  0  0  0
    1.2838    1.8775    0.6678 C   0  0  0  0  0  0  0  0  0  0  0  0
    0.0007    2.7314    0.6081 C   0  0  0  0  0  0  0  0  0  0  0  0
   -1.2820    1.8769    0.6688 C   0  0  0  0  0  0  0  0  0  0  0  0
    0.0001    3.6310   -0.6409 C   0  0  0  0  0  0  0  0  0  0  0  0
    0.0011    3.6085    1.8799 C   0  0  0  0  0  0  0  0  0  0  0  0
    4.2937    1.6887   -1.0521 H   0  0  0  0  0  0  0  0  0  0  0  0
    6.4627    0.5633   -0.4382 H   0  0  0  0  0  0  0  0  0  0  0  0
    6.4138   -1.7553    0.5334 H   0  0  0  0  0  0  0  0  0  0  0  0
    4.2486   -2.9386    0.8909 H   0  0  0  0  0  0  0  0  0  0  0  0
   -4.2933    1.6925   -1.0448 H   0  0  0  0  0  0  0  0  0  0  0  0
   -6.4623    0.5672   -0.4309 H   0  0  0  0  0  0  0  0  0  0  0  0
   -6.4141   -1.7541    0.5341 H   0  0  0  0  0  0  0  0  0  0  0  0
   -4.2495   -2.9403    0.8851 H   0  0  0  0  0  0  0  0  0  0  0  0
    2.1747    2.5375    0.6979 H   0  0  0  0  0  0  0  0  0  0  0  0
    1.2986    1.2189    1.5588 H   0  0  0  0  0  0  0  0  0  0  0  0
   -1.2955    1.2180    1.5595 H   0  0  0  0  0  0  0  0  0  0  0  0
   -2.1730    2.5367    0.7005 H   0  0  0  0  0  0  0  0  0  0  0  0
    0.0001    3.0383   -1.5772 H   0  0  0  0  0  0  0  0  0  0  0  0
    0.8967    4.2830   -0.6527 H   0  0  0  0  0  0  0  0  0  0  0  0
   -0.8971    4.2822   -0.6523 H   0  0  0  0  0  0  0  0  0  0  0  0
   -0.8948    4.2611    1.9048 H   0  0  0  0  0  0  0  0  0  0  0  0
    0.8970    4.2611    1.9042 H   0  0  0  0  0  0  0  0  0  0  0  0
    0.0014    2.9887    2.7991 H   0  0  0  0  0  0  0  0  0  0  0  0
  2  5  1  0  0  0  0
  2 17  1  0  0  0  0
  3 11  1  0  0  0  0
  3 19  1  0  0  0  0
  5 10  1  0  0  0  0
  6  5  2  0  0  0  0
  6  7  1  0  0  0  0
  7  8  2  0  0  0  0
  8  9  1  0  0  0  0
  8 24  1  0  0  0  0
  9 25  1  0  0  0  0
 10  1  1  0  0  0  0
 10  9  2  0  0  0  0
 11 16  1  0  0  0  0
 12 11  2  0  0  0  0
 12 13  1  0  0  0  0
 13 14  2  0  0  0  0
 14 15  1  0  0  0  0
 14 28  1  0  0  0  0
 15 29  1  0  0  0  0
 16  4  1  0  0  0  0
 16 15  2  0  0  0  0
 17 30  1  0  0  0  0
 17 31  1  0  0  0  0
 18 17  1  0  0  0  0
 18 19  1  0  0  0  0
 18 21  1  0  0  0  0
 19 33  1  0  0  0  0
 19 32  1  0  0  0  0
 20 18  1  0  0  0  0
 21 38  1  0  0  0  0
 21 37  1  0  0  0  0
 21 39  1  0  0  0  0
 22  6  1  0  0  0  0
 23  7  1  0  0  0  0
 26 12  1  0  0  0  0
 27 13  1  0  0  0  0
 34 20  1  0  0  0  0
 35 20  1  0  0  0  0
 36 20  1  0  0  0  0
M  END
