1,2,3,4
 OpenBabel05122313063D

 56 57  0  0  0  0  0  0  0  0999 V2000
    2.0591   -0.0491    0.6240 S   0  0  0  0  0  0  0  0  0  0  0  0
    1.1906   -3.1787   -0.0009 S   0  0  0  0  0  0  0  0  0  0  0  0
   -1.9591   -2.3061   -0.4334 S   0  0  0  0  0  0  0  0  0  0  0  0
   -1.3043    0.7858    0.5316 S   0  0  0  0  0  0  0  0  0  0  0  0
    3.2393   -0.5473   -0.6973 C   0  0  0  0  0  0  0  0  0  0  0  0
    3.6078   -2.0298   -0.6817 C   0  0  0  0  0  0  0  0  0  0  0  0
    2.5388   -2.9817   -1.2249 C   0  0  0  0  0  0  0  0  0  0  0  0
   -0.0261   -4.1820   -0.9556 C   0  0  0  0  0  0  0  0  0  0  0  0
   -1.3852   -4.0537   -0.2873 C   0  0  0  0  0  0  0  0  0  0  0  0
   -3.1128   -2.1834    0.9865 C   0  0  0  0  0  0  0  0  0  0  0  0
   -3.6827   -0.7678    1.0860 C   0  0  0  0  0  0  0  0  0  0  0  0
   -2.7309    0.3176    1.5870 C   0  0  0  0  0  0  0  0  0  0  0  0
    1.8261    1.7203    0.1066 C   0  0  0  0  0  0  0  0  0  0  0  0
    3.1155    2.4851    0.1697 C   0  0  0  0  0  0  0  0  0  0  0  0
    3.6994    2.8018    1.4149 C   0  0  0  0  0  0  0  0  0  0  0  0
    4.9120    3.5011    1.4700 C   0  0  0  0  0  0  0  0  0  0  0  0
    5.5556    3.8912    0.2831 C   0  0  0  0  0  0  0  0  0  0  0  0
    4.9823    3.5794   -0.9595 C   0  0  0  0  0  0  0  0  0  0  0  0
    3.7702    2.8751   -1.0167 C   0  0  0  0  0  0  0  0  0  0  0  0
   -2.1349    1.3015   -1.0420 C   0  0  0  0  0  0  0  0  0  0  0  0
   -3.0891    2.4323   -0.7835 C   0  0  0  0  0  0  0  0  0  0  0  0
   -2.6155    3.6779   -0.3176 C   0  0  0  0  0  0  0  0  0  0  0  0
   -3.5085    4.7268   -0.0634 C   0  0  0  0  0  0  0  0  0  0  0  0
   -4.8864    4.5460   -0.2721 C   0  0  0  0  0  0  0  0  0  0  0  0
   -5.3666    3.3132   -0.7395 C   0  0  0  0  0  0  0  0  0  0  0  0
   -4.4728    2.2606   -0.9896 C   0  0  0  0  0  0  0  0  0  0  0  0
    4.1353    0.0757   -0.5053 H   0  0  0  0  0  0  0  0  0  0  0  0
    2.7878   -0.2520   -1.6658 H   0  0  0  0  0  0  0  0  0  0  0  0
    4.4972   -2.1420   -1.3373 H   0  0  0  0  0  0  0  0  0  0  0  0
    3.9400   -2.3467    0.3305 H   0  0  0  0  0  0  0  0  0  0  0  0
    2.0905   -2.6030   -2.1657 H   0  0  0  0  0  0  0  0  0  0  0  0
    2.9563   -3.9969   -1.3803 H   0  0  0  0  0  0  0  0  0  0  0  0
    0.3211   -5.2349   -0.9382 H   0  0  0  0  0  0  0  0  0  0  0  0
   -0.0405   -3.8103   -2.0010 H   0  0  0  0  0  0  0  0  0  0  0  0
   -2.1350   -4.6947   -0.7931 H   0  0  0  0  0  0  0  0  0  0  0  0
   -1.3425   -4.3138    0.7905 H   0  0  0  0  0  0  0  0  0  0  0  0
   -2.5499   -2.4688    1.8985 H   0  0  0  0  0  0  0  0  0  0  0  0
   -3.9201   -2.9159    0.7844 H   0  0  0  0  0  0  0  0  0  0  0  0
   -4.1527   -0.4680    0.1264 H   0  0  0  0  0  0  0  0  0  0  0  0
   -4.5176   -0.8088    1.8184 H   0  0  0  0  0  0  0  0  0  0  0  0
   -3.2762    1.2710    1.7365 H   0  0  0  0  0  0  0  0  0  0  0  0
   -2.2446    0.0297    2.5398 H   0  0  0  0  0  0  0  0  0  0  0  0
    1.0707    2.0971    0.8232 H   0  0  0  0  0  0  0  0  0  0  0  0
    1.3869    1.6909   -0.9107 H   0  0  0  0  0  0  0  0  0  0  0  0
    3.1975    2.4957    2.3465 H   0  0  0  0  0  0  0  0  0  0  0  0
    5.3573    3.7479    2.4453 H   0  0  0  0  0  0  0  0  0  0  0  0
    6.5061    4.4434    0.3283 H   0  0  0  0  0  0  0  0  0  0  0  0
    5.4799    3.8887   -1.8907 H   0  0  0  0  0  0  0  0  0  0  0  0
    3.3183    2.6347   -1.9921 H   0  0  0  0  0  0  0  0  0  0  0  0
   -2.6178    0.4173   -1.5008 H   0  0  0  0  0  0  0  0  0  0  0  0
   -1.2812    1.5741   -1.6930 H   0  0  0  0  0  0  0  0  0  0  0  0
   -1.5359    3.8248   -0.1552 H   0  0  0  0  0  0  0  0  0  0  0  0
   -3.1278    5.6949    0.2945 H   0  0  0  0  0  0  0  0  0  0  0  0
   -5.5865    5.3713   -0.0746 H   0  0  0  0  0  0  0  0  0  0  0  0
   -6.4432    3.1701   -0.9151 H   0  0  0  0  0  0  0  0  0  0  0  0
   -4.8524    1.2996   -1.3720 H   0  0  0  0  0  0  0  0  0  0  0  0
  3  9  1  0  0  0  0
  3 10  1  0  0  0  0
  4 12  1  0  0  0  0
  5  6  1  0  0  0  0
  5 27  1  0  0  0  0
  5  1  1  0  0  0  0
  6 30  1  0  0  0  0
  7  6  1  0  0  0  0
  7  2  1  0  0  0  0
  8 33  1  0  0  0  0
  8  9  1  0  0  0  0
  8  2  1  0  0  0  0
  9 36  1  0  0  0  0
 10 11  1  0  0  0  0
 10 37  1  0  0  0  0
 11 12  1  0  0  0  0
 11 40  1  0  0  0  0
 12 41  1  0  0  0  0
 12 42  1  0  0  0  0
 13 14  1  0  0  0  0
 13  1  1  0  0  0  0
 13 43  1  0  0  0  0
 14 15  1  0  0  0  0
 15 16  2  0  0  0  0
 15 45  1  0  0  0  0
 16 46  1  0  0  0  0
 17 47  1  0  0  0  0
 17 16  1  0  0  0  0
 18 17  2  0  0  0  0
 19 18  1  0  0  0  0
 19 14  2  0  0  0  0
 20 21  1  0  0  0  0
 20  4  1  0  0  0  0
 21 22  1  0  0  0  0
 22 52  1  0  0  0  0
 22 23  2  0  0  0  0
 23 53  1  0  0  0  0
 24 54  1  0  0  0  0
 24 23  1  0  0  0  0
 25 24  2  0  0  0  0
 26 21  2  0  0  0  0
 26 25  1  0  0  0  0
 28  5  1  0  0  0  0
 29  6  1  0  0  0  0
 31  7  1  0  0  0  0
 32  7  1  0  0  0  0
 34  8  1  0  0  0  0
 35  9  1  0  0  0  0
 38 10  1  0  0  0  0
 39 11  1  0  0  0  0
 44 13  1  0  0  0  0
 48 18  1  0  0  0  0
 49 19  1  0  0  0  0
 50 20  1  0  0  0  0
 51 20  1  0  0  0  0
 55 25  1  0  0  0  0
 56 26  1  0  0  0  0
M  END
