1,2,3,4
 OpenBabel05122313063D

 68 71  0  0  0  0  0  0  0  0999 V2000
    1.2992    0.8833   -0.7281 S   0  0  0  0  0  1  0  0  0  0  0  0
    0.9961   -2.2534   -1.1993 S   0  0  0  0  0  0  0  0  0  0  0  0
   -0.9963   -2.2535    1.1990 S   0  0  0  0  0  0  0  0  0  0  0  0
   -1.2994    0.8829    0.7289 S   0  0  0  0  0  1  0  0  0  0  0  0
    3.0700    0.3046   -0.5225 C   0  0  0  0  0  0  0  0  0  0  0  0
    3.3918   -0.8393   -1.5163 C   0  0  0  0  0  0  0  0  0  0  0  0
    2.8337   -2.2027   -1.1299 C   0  0  0  0  0  0  0  0  0  0  0  0
    0.7165   -3.8234   -0.2490 C   0  0  0  0  0  0  0  0  0  0  0  0
   -0.7163   -3.8236    0.2488 C   0  0  0  0  0  0  0  0  0  0  0  0
   -2.8339   -2.2031    1.1293 C   0  0  0  0  0  0  0  0  0  0  0  0
   -3.3922   -0.8399    1.5159 C   0  0  0  0  0  0  0  0  0  0  0  0
   -3.0702    0.3043    0.5226 C   0  0  0  0  0  0  0  0  0  0  0  0
    3.4202   -0.1718    0.8991 C   0  0  0  0  0  0  0  0  0  0  0  0
    2.4592   -0.4100    1.8974 C   0  0  0  0  0  0  0  0  0  0  0  0
    2.8297   -0.9378    3.1459 C   0  0  0  0  0  0  0  0  0  0  0  0
    4.1729   -1.2270    3.4237 C   0  0  0  0  0  0  0  0  0  0  0  0
    5.1477   -0.9702    2.4441 C   0  0  0  0  0  0  0  0  0  0  0  0
    4.7737   -0.4475    1.1986 C   0  0  0  0  0  0  0  0  0  0  0  0
    3.8559    1.5794   -0.8507 C   0  0  0  0  0  0  0  0  0  0  0  0
    3.8375    2.6364    0.0874 C   0  0  0  0  0  0  0  0  0  0  0  0
    4.5173    3.8333   -0.1629 C   0  0  0  0  0  0  0  0  0  0  0  0
    5.2318    4.0041   -1.3613 C   0  0  0  0  0  0  0  0  0  0  0  0
    5.2522    2.9664   -2.3028 C   0  0  0  0  0  0  0  0  0  0  0  0
    4.5684    1.7647   -2.0511 C   0  0  0  0  0  0  0  0  0  0  0  0
   -3.4199   -0.1716   -0.8993 C   0  0  0  0  0  0  0  0  0  0  0  0
   -2.4586   -0.4092   -1.8975 C   0  0  0  0  0  0  0  0  0  0  0  0
   -2.8288   -0.9366   -3.1462 C   0  0  0  0  0  0  0  0  0  0  0  0
   -4.1719   -1.2260   -3.4244 C   0  0  0  0  0  0  0  0  0  0  0  0
   -5.1469   -0.9698   -2.4449 C   0  0  0  0  0  0  0  0  0  0  0  0
   -4.7733   -0.4476   -1.1991 C   0  0  0  0  0  0  0  0  0  0  0  0
   -3.8561    1.5790    0.8510 C   0  0  0  0  0  0  0  0  0  0  0  0
   -3.8376    2.6363   -0.0868 C   0  0  0  0  0  0  0  0  0  0  0  0
   -4.5175    3.8331    0.1637 C   0  0  0  0  0  0  0  0  0  0  0  0
   -5.2323    4.0035    1.3620 C   0  0  0  0  0  0  0  0  0  0  0  0
   -5.2529    2.9655    2.3032 C   0  0  0  0  0  0  0  0  0  0  0  0
   -4.5689    1.7639    2.0513 C   0  0  0  0  0  0  0  0  0  0  0  0
    4.4952   -0.9681   -1.5810 H   0  0  0  0  0  0  0  0  0  0  0  0
    3.0379   -0.5513   -2.5264 H   0  0  0  0  0  0  0  0  0  0  0  0
    3.1377   -2.4753   -0.0988 H   0  0  0  0  0  0  0  0  0  0  0  0
    3.1885   -2.9854   -1.8308 H   0  0  0  0  0  0  0  0  0  0  0  0
    1.4389   -3.8450    0.5932 H   0  0  0  0  0  0  0  0  0  0  0  0
    0.9128   -4.6874   -0.9159 H   0  0  0  0  0  0  0  0  0  0  0  0
   -0.9124   -4.6875    0.9158 H   0  0  0  0  0  0  0  0  0  0  0  0
   -1.4387   -3.8454   -0.5934 H   0  0  0  0  0  0  0  0  0  0  0  0
   -3.1887   -2.9861    1.8298 H   0  0  0  0  0  0  0  0  0  0  0  0
   -3.1376   -2.4754    0.0979 H   0  0  0  0  0  0  0  0  0  0  0  0
   -3.0386   -0.5522    2.5262 H   0  0  0  0  0  0  0  0  0  0  0  0
   -4.4956   -0.9688    1.5803 H   0  0  0  0  0  0  0  0  0  0  0  0
    1.4053   -0.1539    1.6938 H   0  0  0  0  0  0  0  0  0  0  0  0
    2.0542   -1.1114    3.9082 H   0  0  0  0  0  0  0  0  0  0  0  0
    4.4647   -1.6361    4.4031 H   0  0  0  0  0  0  0  0  0  0  0  0
    6.2092   -1.1729    2.6543 H   0  0  0  0  0  0  0  0  0  0  0  0
    5.5482   -0.2343    0.4448 H   0  0  0  0  0  0  0  0  0  0  0  0
    3.2675    2.5067    1.0191 H   0  0  0  0  0  0  0  0  0  0  0  0
    4.4881    4.6423    0.5831 H   0  0  0  0  0  0  0  0  0  0  0  0
    5.7678    4.9448   -1.5598 H   0  0  0  0  0  0  0  0  0  0  0  0
    5.8040    3.0883   -3.2476 H   0  0  0  0  0  0  0  0  0  0  0  0
    4.5961    0.9738   -2.8130 H   0  0  0  0  0  0  0  0  0  0  0  0
   -1.4049   -0.1529   -1.6936 H   0  0  0  0  0  0  0  0  0  0  0  0
   -2.0531   -1.1097   -3.9085 H   0  0  0  0  0  0  0  0  0  0  0  0
   -4.4634   -1.6348   -4.4041 H   0  0  0  0  0  0  0  0  0  0  0  0
   -6.2084   -1.1728   -2.6554 H   0  0  0  0  0  0  0  0  0  0  0  0
   -5.5480   -0.2349   -0.4454 H   0  0  0  0  0  0  0  0  0  0  0  0
   -3.2674    2.5069   -1.0184 H   0  0  0  0  0  0  0  0  0  0  0  0
   -4.4882    4.6423   -0.5820 H   0  0  0  0  0  0  0  0  0  0  0  0
   -5.7683    4.9441    1.5607 H   0  0  0  0  0  0  0  0  0  0  0  0
   -5.8049    3.0871    3.2479 H   0  0  0  0  0  0  0  0  0  0  0  0
   -4.5969    0.9727    2.8129 H   0  0  0  0  0  0  0  0  0  0  0  0
  1  5  1  0  0  0  0
  2  7  1  0  0  0  0
  2  8  1  0  0  0  0
  5 13  1  0  0  0  0
  6  7  1  0  0  0  0
  6  5  1  0  0  0  0
  7 39  1  0  0  0  0
  8  9  1  0  0  0  0
  8 41  1  0  0  0  0
  9 43  1  0  0  0  0
  9  3  1  0  0  0  0
 10  3  1  0  0  0  0
 10 11  1  0  0  0  0
 10 45  1  0  0  0  0
 11 48  1  0  0  0  0
 11 47  1  0  0  0  0
 12  4  1  0  0  0  0
 12 31  1  0  0  0  0
 12 11  1  0  0  0  0
 13 18  2  0  0  0  0
 13 14  1  0  0  0  0
 14 15  2  0  0  0  0
 15 16  1  0  0  0  0
 15 50  1  0  0  0  0
 16 51  1  0  0  0  0
 17 52  1  0  0  0  0
 17 16  2  0  0  0  0
 18 17  1  0  0  0  0
 19  5  1  0  0  0  0
 19 20  1  0  0  0  0
 20 54  1  0  0  0  0
 21 20  2  0  0  0  0
 21 55  1  0  0  0  0
 22 21  1  0  0  0  0
 23 24  1  0  0  0  0
 23 22  2  0  0  0  0
 24 19  2  0  0  0  0
 25 12  1  0  0  0  0
 26 59  1  0  0  0  0
 26 25  2  0  0  0  0
 27 26  1  0  0  0  0
 28 27  2  0  0  0  0
 28 29  1  0  0  0  0
 29 30  2  0  0  0  0
 30 25  1  0  0  0  0
 30 63  1  0  0  0  0
 31 36  1  0  0  0  0
 32 33  1  0  0  0  0
 32 31  2  0  0  0  0
 33 34  2  0  0  0  0
 34 66  1  0  0  0  0
 34 35  1  0  0  0  0
 35 67  1  0  0  0  0
 36 35  2  0  0  0  0
 36 68  1  0  0  0  0
 37  6  1  0  0  0  0
 38  6  1  0  0  0  0
 40  7  1  0  0  0  0
 42  8  1  0  0  0  0
 44  9  1  0  0  0  0
 46 10  1  0  0  0  0
 49 14  1  0  0  0  0
 53 18  1  0  0  0  0
 56 22  1  0  0  0  0
 57 23  1  0  0  0  0
 58 24  1  0  0  0  0
 60 27  1  0  0  0  0
 61 28  1  0  0  0  0
 62 29  1  0  0  0  0
 64 32  1  0  0  0  0
 65 33  1  0  0  0  0
M  END
