1,2,3,4
 OpenBabel05122313063D

 30 29  0  0  0  0  0  0  0  0999 V2000
   -1.4818   -1.3652   -0.6394 S   0  0  0  0  0  0  0  0  0  0  0  0
   -1.5770    1.7633   -0.6062 S   0  0  0  0  0  1  0  0  0  0  0  0
    1.5399   -1.2832   -0.8454 S   0  0  0  0  0  0  0  0  0  0  0  0
    1.4756    1.7935   -0.3636 S   0  0  0  0  0  1  0  0  0  0  0  0
   -4.8487   -1.0209    1.3254 F   0  0  0  0  0  0  0  0  0  0  0  0
   -3.5972   -2.7009    0.7037 F   0  0  0  0  0  0  0  0  0  0  0  0
   -4.8775   -1.7017   -0.7459 F   0  0  0  0  0  0  0  0  0  0  0  0
   -5.2938    1.1342   -0.2866 F   0  0  0  0  0  0  0  0  0  0  0  0
   -4.3450    1.6879    1.6058 F   0  0  0  0  0  0  0  0  0  0  0  0
   -4.0596    2.9197   -0.1645 F   0  0  0  0  0  0  0  0  0  0  0  0
    4.9098   -1.4391   -0.9877 F   0  0  0  0  0  0  0  0  0  0  0  0
    4.9202   -1.0470    1.1578 F   0  0  0  0  0  0  0  0  0  0  0  0
    3.7428   -2.6996    0.3475 F   0  0  0  0  0  0  0  0  0  0  0  0
    5.2152    1.3281   -0.1638 F   0  0  0  0  0  0  0  0  0  0  0  0
    4.2901    1.5506    1.8066 F   0  0  0  0  0  0  0  0  0  0  0  0
    3.8915    3.0050    0.2399 F   0  0  0  0  0  0  0  0  0  0  0  0
   -2.9234   -0.5548    0.0154 C   0  0  0  0  0  0  0  0  0  0  0  0
   -2.9383    0.8192   -0.0970 C   0  0  0  0  0  0  0  0  0  0  0  0
    2.9280   -0.5196   -0.0222 C   0  0  0  0  0  0  0  0  0  0  0  0
    2.8848    0.8566    0.0242 C   0  0  0  0  0  0  0  0  0  0  0  0
   -0.5747   -2.0315    0.8440 C   0  0  0  0  0  0  0  0  0  0  0  0
   -0.5013   -1.2158    1.5885 H   0  0  0  0  0  0  0  0  0  0  0  0
   -1.1740   -2.8641    1.2647 H   0  0  0  0  0  0  0  0  0  0  0  0
    0.7941   -2.5044    0.3651 C   0  0  0  0  0  0  0  0  0  0  0  0
    0.7389   -3.4586   -0.1940 H   0  0  0  0  0  0  0  0  0  0  0  0
    1.5088   -2.6283    1.1991 H   0  0  0  0  0  0  0  0  0  0  0  0
   -4.0781   -1.4779    0.3211 C   0  0  0  0  0  0  0  0  0  0  0  0
   -4.1767    1.6507    0.2686 C   0  0  0  0  0  0  0  0  0  0  0  0
    4.1398   -1.4073    0.1232 C   0  0  0  0  0  0  0  0  0  0  0  0
    4.0871    1.6954    0.4810 C   0  0  0  0  0  0  0  0  0  0  0  0
  1 17  1  0  0  0  0
  1 21  1  0  0  0  0
  2 18  1  0  0  0  0
  3 19  1  0  0  0  0
  3 24  1  0  0  0  0
  4 20  1  0  0  0  0
  7 27  1  0  0  0  0
  8 28  1  0  0  0  0
 10 28  1  0  0  0  0
 11 29  1  0  0  0  0
 14 30  1  0  0  0  0
 16 30  1  0  0  0  0
 17 27  1  0  0  0  0
 18 17  2  0  0  0  0
 18 28  1  0  0  0  0
 19 20  2  0  0  0  0
 19 29  1  0  0  0  0
 20 30  1  0  0  0  0
 21 23  1  0  0  0  0
 21 22  1  0  0  0  0
 24 21  1  0  0  0  0
 24 26  1  0  0  0  0
 25 24  1  0  0  0  0
 27  6  1  0  0  0  0
 27  5  1  0  0  0  0
 28  9  1  0  0  0  0
 29 13  1  0  0  0  0
 29 12  1  0  0  0  0
 30 15  1  0  0  0  0
M  END
