1,2,4,5
q = 0.0, confidence = 1.0

 42 42  0  0  0  0  0  0  0  0999 V2000
    0.2591   -1.7885   -1.3665 S   0  0  0  0  0  0  0  0  0  0  0  0
   -1.2852   -1.2335    1.6585 S   0  0  0  0  0  0  0  0  0  0  0  0
   -2.8571    0.2215   -0.7017 O   0  0  0  0  0  0  0  0  0  0  0  0
   -0.2591    1.7887   -1.3665 S   0  0  0  0  0  0  0  0  0  0  0  0
    1.2856    1.2335    1.6582 S   0  0  0  0  0  0  0  0  0  0  0  0
    2.8574   -0.2222   -0.7019 O   0  0  0  0  0  0  0  0  0  0  0  0
   -0.8744   -2.9702   -0.5507 C   0  0  0  0  0  0  0  0  0  0  0  0
   -0.8980   -2.8910    0.9726 C   0  0  0  0  0  0  0  0  0  0  0  0
   -3.0873   -1.0761    1.2857 C   0  0  0  0  0  0  0  0  0  0  0  0
   -3.4037    0.2422    0.6033 C   0  0  0  0  0  0  0  0  0  0  0  0
   -4.5122    0.3736    0.5626 H   0  0  0  0  0  0  0  0  0  0  0  0
   -2.9970    1.0871    1.2108 H   0  0  0  0  0  0  0  0  0  0  0  0
   -2.9737    1.4434   -1.4116 C   0  0  0  0  0  0  0  0  0  0  0  0
   -1.9216    2.4883   -1.0208 C   0  0  0  0  0  0  0  0  0  0  0  0
    0.8735    2.9710   -0.5502 C   0  0  0  0  0  0  0  0  0  0  0  0
    0.8973    2.8911    0.9730 C   0  0  0  0  0  0  0  0  0  0  0  0
    3.0875    1.0768    1.2845 C   0  0  0  0  0  0  0  0  0  0  0  0
    3.4042   -0.2419    0.6030 C   0  0  0  0  0  0  0  0  0  0  0  0
    2.9739   -1.4447   -1.4109 C   0  0  0  0  0  0  0  0  0  0  0  0
    1.9211   -2.4888   -1.0199 C   0  0  0  0  0  0  0  0  0  0  0  0
   -1.8636   -2.7114   -0.9806 H   0  0  0  0  0  0  0  0  0  0  0  0
   -0.6256   -3.9980   -0.8876 H   0  0  0  0  0  0  0  0  0  0  0  0
    0.0900   -3.1413    1.4101 H   0  0  0  0  0  0  0  0  0  0  0  0
   -1.6246   -3.6180    1.3913 H   0  0  0  0  0  0  0  0  0  0  0  0
   -3.6358   -1.1540    2.2446 H   0  0  0  0  0  0  0  0  0  0  0  0
   -3.3929   -1.9204    0.6364 H   0  0  0  0  0  0  0  0  0  0  0  0
   -3.9869    1.8896   -1.2782 H   0  0  0  0  0  0  0  0  0  0  0  0
   -2.8628    1.1866   -2.4851 H   0  0  0  0  0  0  0  0  0  0  0  0
   -1.9995    2.7688    0.0492 H   0  0  0  0  0  0  0  0  0  0  0  0
   -2.0631    3.4026   -1.6328 H   0  0  0  0  0  0  0  0  0  0  0  0
    0.6237    3.9987   -0.8866 H   0  0  0  0  0  0  0  0  0  0  0  0
    1.8629    2.7134   -0.9804 H   0  0  0  0  0  0  0  0  0  0  0  0
    1.6236    3.6183    1.3920 H   0  0  0  0  0  0  0  0  0  0  0  0
   -0.0908    3.1405    1.4107 H   0  0  0  0  0  0  0  0  0  0  0  0
    3.3923    1.9207    0.6342 H   0  0  0  0  0  0  0  0  0  0  0  0
    3.6366    1.1558    2.2430 H   0  0  0  0  0  0  0  0  0  0  0  0
    2.9977   -1.0865    1.2112 H   0  0  0  0  0  0  0  0  0  0  0  0
    4.5127   -0.3730    0.5623 H   0  0  0  0  0  0  0  0  0  0  0  0
    2.8635   -1.1885   -2.4847 H   0  0  0  0  0  0  0  0  0  0  0  0
    3.9869   -1.8912   -1.2768 H   0  0  0  0  0  0  0  0  0  0  0  0
    1.9986   -2.7687    0.0504 H   0  0  0  0  0  0  0  0  0  0  0  0
    2.0624   -3.4035   -1.6313 H   0  0  0  0  0  0  0  0  0  0  0  0
  1 20  1  0  0  0  0
  1  7  1  0  0  0  0
  3 10  1  0  0  0  0
  4 14  1  0  0  0  0
  4 15  1  0  0  0  0
  6 18  1  0  0  0  0
  7  8  1  0  0  0  0
  8 24  1  0  0  0  0
  8 23  1  0  0  0  0
  8  2  1  0  0  0  0
  9  2  1  0  0  0  0
  9 25  1  0  0  0  0
 10 12  1  0  0  0  0
 10  9  1  0  0  0  0
 11 10  1  0  0  0  0
 13 27  1  0  0  0  0
 13 14  1  0  0  0  0
 13  3  1  0  0  0  0
 14 29  1  0  0  0  0
 15 16  1  0  0  0  0
 16 33  1  0  0  0  0
 16 34  1  0  0  0  0
 16  5  1  0  0  0  0
 17  5  1  0  0  0  0
 17 36  1  0  0  0  0
 18 37  1  0  0  0  0
 18 17  1  0  0  0  0
 19 40  1  0  0  0  0
 19 20  1  0  0  0  0
 19  6  1  0  0  0  0
 20 41  1  0  0  0  0
 21  7  1  0  0  0  0
 22  7  1  0  0  0  0
 26  9  1  0  0  0  0
 28 13  1  0  0  0  0
 30 14  1  0  0  0  0
 31 15  1  0  0  0  0
 32 15  1  0  0  0  0
 35 17  1  0  0  0  0
 38 18  1  0  0  0  0
 39 19  1  0  0  0  0
 42 20  1  0  0  0  0
M  END
