1,2,3,4
q = -2.0, confidence = 0.856

 33 34  0  0  1  0  0  0  0  0999 V2000
    1.7752   -1.7105   -0.9143 S   0  0  0  0  0  1  0  0  0  0  0  0
    2.7897    0.3290    1.4890 S   0  0  0  0  0  0  0  0  0  0  0  0
    0.9207    1.4427   -1.0564 S   0  0  0  0  0  0  0  0  0  0  0  0
   -0.2771    1.4900    2.0291 S   0  0  0  0  0  1  0  0  0  0  0  0
    3.9388   -0.7306    0.5940 C   0  0  0  0  0  0  0  0  0  0  0  0
    5.2973   -0.6948    0.9599 C   0  0  0  0  0  0  0  0  0  0  0  0
    6.2309   -1.4832    0.2777 C   0  0  0  0  0  0  0  0  0  0  0  0
    5.7843   -2.3215   -0.7638 C   0  0  0  0  0  0  0  0  0  0  0  0
    4.4331   -2.3753   -1.1111 C   0  0  0  0  0  0  0  0  0  0  0  0
    3.4640   -1.5832   -0.4363 C   0  0  0  0  0  0  0  0  0  0  0  0
    0.0925    2.8832   -0.3839 C   0  0  0  0  0  0  0  0  0  0  0  0
   -0.1157    3.9913   -1.2282 C   0  0  0  0  0  0  0  0  0  0  0  0
   -0.7543    5.1395   -0.7468 C   0  0  0  0  0  0  0  0  0  0  0  0
   -1.2048    5.1596    0.5881 C   0  0  0  0  0  0  0  0  0  0  0  0
   -1.0345    4.0497    1.4179 C   0  0  0  0  0  0  0  0  0  0  0  0
   -0.3915    2.8701    0.9527 C   0  0  0  0  0  0  0  0  0  0  0  0
    3.0975    1.9309    0.6302 C   0  0  0  0  0  0  0  0  0  0  0  0
    2.7283    1.8819   -0.8412 C   0  0  2  0  0  0  0  0  0  0  0  0
    3.0981    3.1569   -1.5913 C   0  0  0  0  0  0  0  0  0  0  0  0
    5.6141   -0.0411    1.7882 H   0  0  0  0  0  0  0  0  0  0  0  0
    7.2931   -1.4551    0.5607 H   0  0  0  0  0  0  0  0  0  0  0  0
    6.5050   -2.9534   -1.3058 H   0  0  0  0  0  0  0  0  0  0  0  0
    4.0907   -3.0434   -1.9161 H   0  0  0  0  0  0  0  0  0  0  0  0
    0.2213    3.9353   -2.2739 H   0  0  0  0  0  0  0  0  0  0  0  0
   -0.9129    6.0041   -1.4074 H   0  0  0  0  0  0  0  0  0  0  0  0
   -1.7134    6.0531    0.9825 H   0  0  0  0  0  0  0  0  0  0  0  0
   -1.4136    4.0630    2.4511 H   0  0  0  0  0  0  0  0  0  0  0  0
    2.4961    2.6816    1.1847 H   0  0  0  0  0  0  0  0  0  0  0  0
    4.1737    2.1634    0.7661 H   0  0  0  0  0  0  0  0  0  0  0  0
    3.2142    1.0032   -1.3184 H   0  0  0  0  0  0  0  0  0  0  0  0
    2.7955    3.0947   -2.6549 H   0  0  0  0  0  0  0  0  0  0  0  0
    4.1968    3.3044   -1.5565 H   0  0  0  0  0  0  0  0  0  0  0  0
    2.6170    4.0479   -1.1413 H   0  0  0  0  0  0  0  0  0  0  0  0
  1 10  1  0  0  0  0
  3 18  1  0  0  0  0
  3 11  1  0  0  0  0
  5  6  1  0  0  0  0
  5  2  1  0  0  0  0
  6 20  1  0  0  0  0
  7 21  1  0  0  0  0
  7  6  2  0  0  0  0
  8  7  1  0  0  0  0
  9  8  2  0  0  0  0
  9 10  1  0  0  0  0
 10  5  2  0  0  0  0
 11 16  1  0  0  0  0
 12 13  1  0  0  0  0
 12 11  2  0  0  0  0
 13 14  2  0  0  0  0
 14 26  1  0  0  0  0
 14 15  1  0  0  0  0
 15 27  1  0  0  0  0
 16 15  2  0  0  0  0
 16  4  1  0  0  0  0
 17 29  1  0  0  0  0
 17 28  1  0  0  0  0
 17  2  1  0  0  0  0
 18 30  1  6  0  0  0
 18 17  1  0  0  0  0
 19 32  1  0  0  0  0
 19 33  1  0  0  0  0
 19 18  1  0  0  0  0
 22  8  1  0  0  0  0
 23  9  1  0  0  0  0
 24 12  1  0  0  0  0
 25 13  1  0  0  0  0
 31 19  1  0  0  0  0
M  END
