2,3
q = 0.0, confidence = 0.998

 33 35  0  0  1  0  0  0  0  0999 V2000
   -2.8407   -0.4973   -1.1714 N   0  0  0  0  0  0  0  0  0  0  0  0
    1.9915    0.5426   -0.3137 N   0  0  0  0  0  2  0  0  0  0  0  0
   -0.3205    0.8477   -0.6771 B   0  0  0  0  0  0  0  0  0  0  0  0
   -0.4888   -0.2405   -1.7679 C   0  0  0  0  0  0  0  0  0  0  0  0
    0.2532   -0.5137   -2.5335 H   0  0  0  0  0  0  0  0  0  0  0  0
   -1.7416   -0.8181   -1.9120 C   0  0  0  0  0  0  0  0  0  0  0  0
   -1.9343   -1.6040   -2.6611 H   0  0  0  0  0  0  0  0  0  0  0  0
   -2.8443    0.5653   -0.2389 C   0  0  0  0  0  0  0  0  0  0  0  0
   -4.0416    0.9035    0.4375 C   0  0  0  0  0  0  0  0  0  0  0  0
   -4.9692    0.3431    0.2668 H   0  0  0  0  0  0  0  0  0  0  0  0
   -4.0578    1.9693    1.3420 C   0  0  0  0  0  0  0  0  0  0  0  0
   -4.9960    2.2197    1.8602 H   0  0  0  0  0  0  0  0  0  0  0  0
   -2.8902    2.7128    1.5914 C   0  0  0  0  0  0  0  0  0  0  0  0
   -2.9077    3.5470    2.3087 H   0  0  0  0  0  0  0  0  0  0  0  0
   -1.7083    2.3691    0.9297 C   0  0  0  0  0  0  0  0  0  0  0  0
   -0.7842    2.9313    1.1375 H   0  0  0  0  0  0  0  0  0  0  0  0
   -1.6418    1.2957    0.0111 C   0  0  0  0  0  0  0  0  0  0  0  0
    1.1020    1.5480   -0.5820 C   0  0  2  0  0  3  0  0  0  0  0  0
    1.5503    2.8674   -0.7386 C   0  0  0  0  0  0  0  0  0  0  0  0
    0.8274    3.6711   -0.9430 H   0  0  0  0  0  0  0  0  0  0  0  0
    2.9271    3.1307   -0.6480 C   0  0  0  0  0  0  0  0  0  0  0  0
    3.3103    4.1556   -0.7726 H   0  0  0  0  0  0  0  0  0  0  0  0
    3.8160    2.0741   -0.4134 C   0  0  0  0  0  0  0  0  0  0  0  0
    4.9007    2.2514   -0.3629 H   0  0  0  0  0  0  0  0  0  0  0  0
    3.3217    0.7643   -0.2401 C   0  0  0  0  0  0  0  0  0  0  0  0
   -4.0611   -1.2728   -1.3664 C   0  0  0  0  0  0  0  0  0  0  0  0
   -3.8700   -2.0602   -2.1159 H   0  0  0  0  0  0  0  0  0  0  0  0
   -4.8915   -0.6317   -1.7265 H   0  0  0  0  0  0  0  0  0  0  0  0
   -4.3716   -1.7593   -0.4200 H   0  0  0  0  0  0  0  0  0  0  0  0
    4.2242   -0.4069    0.0239 C   0  0  0  0  0  0  0  0  0  0  0  0
    4.3112   -0.6020    1.1127 H   0  0  0  0  0  0  0  0  0  0  0  0
    5.2419   -0.2258   -0.3713 H   0  0  0  0  0  0  0  0  0  0  0  0
    3.8022   -1.3233   -0.4315 H   0  0  0  0  0  0  0  0  0  0  0  0
  1  8  1  0  0  0  0
  2 25  1  0  0  0  0
  3 17  1  0  0  0  0
  4  3  1  0  0  0  0
  5  4  1  0  0  0  0
  6  4  2  0  0  0  0
  6  1  1  0  0  0  0
  7  6  1  0  0  0  0
  8 17  2  0  0  0  0
  8  9  1  0  0  0  0
  9 11  2  0  0  0  0
 10  9  1  0  0  0  0
 11 13  1  0  0  0  0
 11 12  1  0  0  0  0
 13 14  1  0  0  0  0
 15 16  1  0  0  0  0
 15 13  2  0  0  0  0
 17 15  1  0  0  0  0
 18  3  1  6  0  0  0
 18  2  1  0  0  0  0
 19 21  2  0  0  0  0
 19 18  1  0  0  0  0
 20 19  1  0  0  0  0
 21 23  1  0  0  0  0
 22 21  1  0  0  0  0
 23 24  1  0  0  0  0
 23 25  2  0  0  0  0
 25 30  1  0  0  0  0
 26  1  1  0  0  0  0
 26 29  1  0  0  0  0
 27 26  1  0  0  0  0
 28 26  1  0  0  0  0
 30 31  1  0  0  0  0
 32 30  1  0  0  0  0
 33 30  1  0  0  0  0
M  END
