3,4
q = -1.0, confidence = 0.004

 13 13  0  0  1  0  0  0  0  0999 V2000
    0.1125    0.9406    3.6914 Cl  0  0  0  0  0  0  0  0  0  0  0  0
    0.0134    2.5328    1.5773 O   0  0  0  0  0  0  0  0  0  0  0  0
   -0.0679    1.8155   -0.6165 N   0  0  0  0  0  2  0  0  0  0  0  0
    0.0503    1.1343    1.9107 B   0  0  0  0  0  2  0  0  0  0  0  0
   -0.0760    2.8382    0.2759 C   0  0  1  0  0  3  0  0  0  0  0  0
   -0.1799    4.1825   -0.1219 C   0  0  0  0  0  0  0  0  0  0  0  0
   -0.1886    4.9607    0.6524 H   0  0  0  0  0  0  0  0  0  0  0  0
   -0.2678    4.4670   -1.4855 C   0  0  0  0  0  0  0  0  0  0  0  0
   -0.3527    5.5097   -1.8269 H   0  0  0  0  0  0  0  0  0  0  0  0
   -0.2429    3.4098   -2.4106 C   0  0  0  0  0  0  0  0  0  0  0  0
   -0.3043    3.5892   -3.4920 H   0  0  0  0  0  0  0  0  0  0  0  0
   -0.1418    2.1021   -1.9380 C   0  0  0  0  0  0  0  0  0  0  0  0
   -0.1130    1.2261   -2.6064 H   0  0  0  0  0  0  0  0  0  0  0  0
  2  4  1  0  0  0  0
  3  5  1  0  0  0  0
  4  1  1  0  0  0  0
  5  2  1  1  0  0  0
  6  5  1  0  0  0  0
  6  7  1  0  0  0  0
  8  6  2  0  0  0  0
  9  8  1  0  0  0  0
 10 12  2  0  0  0  0
 10  8  1  0  0  0  0
 11 10  1  0  0  0  0
 12  3  1  0  0  0  0
 13 12  1  0  0  0  0
M  END
