2,13
 OpenBabel05122313053D

 35 40  0  0  1  0  0  0  0  0999 V2000
   -0.3568   -2.3101   -0.1263 N   0  0  0  0  0  2  0  0  0  0  0  0
    0.4444   -1.3006   -0.1484 N   0  0  0  0  0  2  0  0  0  0  0  0
    5.8242   -2.6448    0.0078 F   0  0  0  0  0  0  0  0  0  0  0  0
   -1.7173   -1.9197   -0.0332 C   0  0  1  0  0  0  0  0  0  0  0  0
   -2.4304   -1.1936   -1.3148 C   0  0  2  0  0  0  0  0  0  0  0  0
   -1.7885   -1.0740   -2.2001 H   0  0  0  0  0  0  0  0  0  0  0  0
   -2.8990   -2.7993   -0.9200 B   0  0  0  0  0  0  0  0  0  0  0  0
   -2.5142   -3.6901   -1.6304 H   0  0  0  0  0  0  0  0  0  0  0  0
   -2.8467   -2.8372    0.8555 B   0  0  2  0  0  0  0  0  0  0  0  0
   -2.4535   -3.8417    1.3934 H   0  0  0  0  0  0  0  0  0  0  0  0
   -2.2606   -1.2434    1.4244 B   0  0  2  0  0  0  0  0  0  0  0  0
   -1.4835   -1.2217    2.3453 H   0  0  0  0  0  0  0  0  0  0  0  0
   -1.9140   -0.1730    0.0104 B   0  0  0  0  0  1  0  0  0  0  0  0
   -3.4723    0.0415   -0.8376 B   0  0  2  0  0  0  0  0  0  0  0  0
   -3.5917    1.0083   -1.5478 H   0  0  0  0  0  0  0  0  0  0  0  0
   -4.0724   -1.5483   -1.4087 B   0  0  1  0  0  0  0  0  0  0  0  0
   -4.5737   -1.6473   -2.5006 H   0  0  0  0  0  0  0  0  0  0  0  0
   -4.3934   -2.5781    0.0097 B   0  0  0  0  0  0  0  0  0  0  0  0
   -5.2512   -3.4281   -0.0149 H   0  0  0  0  0  0  0  0  0  0  0  0
   -3.9934   -1.6208    1.4674 B   0  0  1  0  0  0  0  0  0  0  0  0
   -4.5538   -1.7852    2.5263 H   0  0  0  0  0  0  0  0  0  0  0  0
   -3.4301    0.0018    0.9422 B   0  0  1  0  0  0  0  0  0  0  0  0
   -3.6262    0.9872    1.6143 H   0  0  0  0  0  0  0  0  0  0  0  0
   -4.7547   -0.8188    0.0660 B   0  0  1  0  0  0  0  0  0  0  0  0
   -5.8888   -0.4015    0.0834 H   0  0  0  0  0  0  0  0  0  0  0  0
    1.8281   -1.6755   -0.1209 C   0  0  0  0  0  0  0  0  0  0  0  0
    2.7246   -1.0264   -0.9885 C   0  0  0  0  0  0  0  0  0  0  0  0
    2.3298   -0.2893   -1.7036 H   0  0  0  0  0  0  0  0  0  0  0  0
    4.0824   -1.3639   -0.9532 C   0  0  0  0  0  0  0  0  0  0  0  0
    4.8091   -0.8922   -1.6297 H   0  0  0  0  0  0  0  0  0  0  0  0
    4.5199   -2.3349   -0.0406 C   0  0  0  0  0  0  0  0  0  0  0  0
    3.6306   -2.9958    0.8206 C   0  0  0  0  0  0  0  0  0  0  0  0
    4.0176   -3.7506    1.5195 H   0  0  0  0  0  0  0  0  0  0  0  0
    2.2708   -2.6736    0.7677 C   0  0  0  0  0  0  0  0  0  0  0  0
    1.5395   -3.1723    1.4185 H   0  0  0  0  0  0  0  0  0  0  0  0
  2  1  1  0  0  0  0
  2 26  1  0  0  0  0
  4  1  1  6  0  0  0
  4  9  1  0  0  0  0
  4 11  1  0  0  0  0
  5  6  1  6  0  0  0
  5 14  1  0  0  0  0
  5  4  1  0  0  0  0
  7 18  1  0  0  0  0
  7  9  1  0  0  0  0
  8  7  1  0  0  0  0
  9 10  1  1  0  0  0
  9 20  1  0  0  0  0
 11 20  1  0  0  0  0
 11 12  1  1  0  0  0
 14 15  1  6  0  0  0
 14 13  1  0  0  0  0
 14 22  1  0  0  0  0
 16 17  1  6  0  0  0
 16  5  1  0  0  0  0
 16 18  1  0  0  0  0
 16 24  1  0  0  0  0
 19 18  1  0  0  0  0
 20 21  1  1  0  0  0
 22 11  1  0  0  0  0
 22 23  1  1  0  0  0
 24 25  1  1  0  0  0
 24 22  1  0  0  0  0
 24 20  1  0  0  0  0
 26 34  1  0  0  0  0
 27 29  1  0  0  0  0
 27 26  2  0  0  0  0
 28 27  1  0  0  0  0
 29 31  2  0  0  0  0
 30 29  1  0  0  0  0
 31  3  1  0  0  0  0
 31 32  1  0  0  0  0
 32 33  1  0  0  0  0
 34 32  2  0  0  0  0
 34 35  1  0  0  0  0
M  END
