2,4,5,6,7
q = -3.0

 67 69  0  0  0  0  0  0  0  0999 V2000
    4.0516   -0.1599    1.3664 S   0  0  0  0  0  0  0  0  0  0  0  0
   -1.4137   -2.2171   -1.1912 S   0  0  0  0  0  0  0  0  0  0  0  0
   -2.1129    1.6192   -0.9484 S   0  0  0  0  0  0  0  0  0  0  0  0
    1.3704   -1.4530    0.7885 N   0  0  0  0  0  2  0  0  0  0  0  0
   -2.2156   -0.7659    1.2405 N   0  0  0  0  0  2  0  0  0  0  0  0
    0.1638    1.9389    1.0158 N   0  0  0  0  0  2  0  0  0  0  0  0
    0.0024   -0.1264    2.6887 N   0  0  0  0  0  0  0  0  0  0  0  0
    0.3403   -1.5216    3.0170 C   0  0  0  0  0  0  0  0  0  0  0  0
   -0.5672   -2.1258    2.8216 H   0  0  0  0  0  0  0  0  0  0  0  0
    0.5941   -1.6340    4.0983 H   0  0  0  0  0  0  0  0  0  0  0  0
    1.4927   -2.0127    2.1364 C   0  0  0  0  0  0  0  0  0  0  0  0
    2.4729   -1.7532    2.6051 H   0  0  0  0  0  0  0  0  0  0  0  0
    1.4637   -3.1291    2.1200 H   0  0  0  0  0  0  0  0  0  0  0  0
    2.4245   -1.8400   -0.0789 C   0  0  0  0  0  0  0  0  0  0  0  0
    3.7665   -1.3658    0.0891 C   0  0  0  0  0  0  0  0  0  0  0  0
    4.7863   -1.7847   -0.7878 C   0  0  0  0  0  0  0  0  0  0  0  0
    5.8156   -1.4276   -0.6507 H   0  0  0  0  0  0  0  0  0  0  0  0
    4.5027   -2.6338   -1.8671 C   0  0  0  0  0  0  0  0  0  0  0  0
    5.3126   -2.9391   -2.5465 H   0  0  0  0  0  0  0  0  0  0  0  0
    3.1886   -3.0701   -2.0772 C   0  0  0  0  0  0  0  0  0  0  0  0
    2.9420   -3.7165   -2.9326 H   0  0  0  0  0  0  0  0  0  0  0  0
    2.1807   -2.6796   -1.1857 C   0  0  0  0  0  0  0  0  0  0  0  0
    1.1498   -3.0124   -1.3560 H   0  0  0  0  0  0  0  0  0  0  0  0
    5.7728    0.3406    1.1018 C   0  0  0  0  0  0  0  0  0  0  0  0
    5.9626    1.1364    1.8470 H   0  0  0  0  0  0  0  0  0  0  0  0
    5.9217    0.7562    0.0856 H   0  0  0  0  0  0  0  0  0  0  0  0
    6.4828   -0.4912    1.2801 H   0  0  0  0  0  0  0  0  0  0  0  0
   -1.2860    0.3165    3.2443 C   0  0  0  0  0  0  0  0  0  0  0  0
   -1.3791    1.3907    2.9939 H   0  0  0  0  0  0  0  0  0  0  0  0
   -1.2921    0.2286    4.3575 H   0  0  0  0  0  0  0  0  0  0  0  0
   -2.4618   -0.4445    2.6375 C   0  0  0  0  0  0  0  0  0  0  0  0
   -2.6771   -1.3751    3.2212 H   0  0  0  0  0  0  0  0  0  0  0  0
   -3.3618    0.1998    2.7821 H   0  0  0  0  0  0  0  0  0  0  0  0
   -3.3016   -1.2442    0.5441 C   0  0  0  0  0  0  0  0  0  0  0  0
   -3.1035   -1.8534   -0.7399 C   0  0  0  0  0  0  0  0  0  0  0  0
   -4.1625   -2.2711   -1.5536 C   0  0  0  0  0  0  0  0  0  0  0  0
   -3.9341   -2.7290   -2.5282 H   0  0  0  0  0  0  0  0  0  0  0  0
   -5.4890   -2.1309   -1.1145 C   0  0  0  0  0  0  0  0  0  0  0  0
   -6.3261   -2.4476   -1.7529 H   0  0  0  0  0  0  0  0  0  0  0  0
   -5.7151   -1.6147    0.1720 C   0  0  0  0  0  0  0  0  0  0  0  0
   -6.7453   -1.5328    0.5533 H   0  0  0  0  0  0  0  0  0  0  0  0
   -4.6584   -1.1970    0.9921 C   0  0  0  0  0  0  0  0  0  0  0  0
   -4.8922   -0.8025    1.9898 H   0  0  0  0  0  0  0  0  0  0  0  0
   -1.1793   -3.6434   -0.0573 C   0  0  0  0  0  0  0  0  0  0  0  0
   -0.1200   -3.9540   -0.1038 H   0  0  0  0  0  0  0  0  0  0  0  0
   -1.8410   -4.4665   -0.3845 H   0  0  0  0  0  0  0  0  0  0  0  0
   -1.4305   -3.3230    0.9708 H   0  0  0  0  0  0  0  0  0  0  0  0
    1.0830    0.8195    3.0049 C   0  0  0  0  0  0  0  0  0  0  0  0
    2.0300    0.3526    2.6851 H   0  0  0  0  0  0  0  0  0  0  0  0
    1.1506    0.9920    4.1055 H   0  0  0  0  0  0  0  0  0  0  0  0
    0.8940    2.1460    2.2568 C   0  0  0  0  0  0  0  0  0  0  0  0
    0.3677    2.8957    2.8984 H   0  0  0  0  0  0  0  0  0  0  0  0
    1.9148    2.5660    2.0859 H   0  0  0  0  0  0  0  0  0  0  0  0
   -0.0559    3.0633    0.2490 C   0  0  0  0  0  0  0  0  0  0  0  0
   -1.0397    3.0419   -0.7958 C   0  0  0  0  0  0  0  0  0  0  0  0
   -1.2323    4.1307   -1.6568 C   0  0  0  0  0  0  0  0  0  0  0  0
   -1.9901    4.0463   -2.4508 H   0  0  0  0  0  0  0  0  0  0  0  0
   -0.4849    5.3085   -1.4996 C   0  0  0  0  0  0  0  0  0  0  0  0
   -0.6351    6.1599   -2.1789 H   0  0  0  0  0  0  0  0  0  0  0  0
    0.4410    5.3787   -0.4459 C   0  0  0  0  0  0  0  0  0  0  0  0
    1.0277    6.2984   -0.2932 H   0  0  0  0  0  0  0  0  0  0  0  0
    0.6460    4.2941    0.4153 C   0  0  0  0  0  0  0  0  0  0  0  0
    1.3969    4.3854    1.2112 H   0  0  0  0  0  0  0  0  0  0  0  0
   -3.4252    2.1115    0.2259 C   0  0  0  0  0  0  0  0  0  0  0  0
   -4.1560    1.2816    0.2666 H   0  0  0  0  0  0  0  0  0  0  0  0
   -3.9150    3.0326   -0.1408 H   0  0  0  0  0  0  0  0  0  0  0  0
   -2.9882    2.2841    1.2277 H   0  0  0  0  0  0  0  0  0  0  0  0
  2 35  1  0  0  0  0
  2 44  1  0  0  0  0
  3 55  1  0  0  0  0
  3 64  1  0  0  0  0
  4 11  1  0  0  0  0
  5 31  1  0  0  0  0
  6 51  1  0  0  0  0
  7 48  1  0  0  0  0
  7  8  1  0  0  0  0
  7 28  1  0  0  0  0
  8 10  1  0  0  0  0
  9  8  1  0  0  0  0
 11 12  1  0  0  0  0
 11  8  1  0  0  0  0
 13 11  1  0  0  0  0
 14 15  1  0  0  0  0
 14  4  1  0  0  0  0
 15  1  1  0  0  0  0
 16 17  1  0  0  0  0
 16 15  2  0  0  0  0
 18 16  1  0  0  0  0
 19 18  1  0  0  0  0
 20 18  2  0  0  0  0
 20 22  1  0  0  0  0
 21 20  1  0  0  0  0
 22 14  2  0  0  0  0
 23 22  1  0  0  0  0
 24 27  1  0  0  0  0
 24  1  1  0  0  0  0
 24 25  1  0  0  0  0
 26 24  1  0  0  0  0
 28 30  1  0  0  0  0
 29 28  1  0  0  0  0
 31 33  1  0  0  0  0
 31 32  1  0  0  0  0
 31 28  1  0  0  0  0
 34 42  1  0  0  0  0
 34  5  1  0  0  0  0
 35 34  2  0  0  0  0
 36 38  2  0  0  0  0
 36 35  1  0  0  0  0
 37 36  1  0  0  0  0
 38 40  1  0  0  0  0
 39 38  1  0  0  0  0
 40 41  1  0  0  0  0
 40 42  2  0  0  0  0
 42 43  1  0  0  0  0
 44 47  1  0  0  0  0
 45 44  1  0  0  0  0
 46 44  1  0  0  0  0
 48 50  1  0  0  0  0
 49 48  1  0  0  0  0
 51 52  1  0  0  0  0
 51 48  1  0  0  0  0
 53 51  1  0  0  0  0
 54 62  1  0  0  0  0
 54  6  1  0  0  0  0
 55 54  2  0  0  0  0
 56 58  2  0  0  0  0
 56 55  1  0  0  0  0
 57 56  1  0  0  0  0
 58 60  1  0  0  0  0
 59 58  1  0  0  0  0
 60 61  1  0  0  0  0
 60 62  2  0  0  0  0
 62 63  1  0  0  0  0
 64 65  1  0  0  0  0
 64 67  1  0  0  0  0
 66 64  1  0  0  0  0
M  END
