1,3,4,5,6
q = -1.0

 60 60  0  0  0  0  0  0  0  0999 V2000
    0.0806   -0.2424    2.1284 S   0  0  0  0  0  1  0  0  0  0  0  0
    4.9759    0.0830    0.4486 S   0  0  0  0  0  0  0  0  0  0  0  0
   -2.4058    0.5705    0.6977 N   0  0  0  0  0  0  0  0  0  0  0  0
   -1.4364   -1.9195   -0.7431 N   0  0  0  0  0  0  0  0  0  0  0  0
    1.0764   -0.5089   -0.9134 N   0  0  0  0  0  0  0  0  0  0  0  0
   -0.3395    2.1736   -0.5738 N   0  0  0  0  0  0  0  0  0  0  0  0
   -3.5501    0.2767   -0.2248 C   0  0  0  0  0  0  0  0  0  0  0  0
   -3.8225   -1.1771   -0.5896 C   0  0  0  0  0  0  0  0  0  0  0  0
   -2.7422   -1.8509   -1.4270 C   0  0  0  0  0  0  0  0  0  0  0  0
   -0.3780   -2.3627   -1.6671 C   0  0  0  0  0  0  0  0  0  0  0  0
    0.9768   -1.9855   -1.1070 C   0  0  0  0  0  0  0  0  0  0  0  0
    1.1777    0.1326   -2.2649 C   0  0  0  0  0  0  0  0  0  0  0  0
    1.3797    1.6412   -2.3079 C   0  0  0  0  0  0  0  0  0  0  0  0
    0.1388    2.4463   -1.9411 C   0  0  0  0  0  0  0  0  0  0  0  0
   -1.7041    2.6894   -0.3813 C   0  0  0  0  0  0  0  0  0  0  0  0
   -2.3238    2.0564    0.8454 C   0  0  0  0  0  0  0  0  0  0  0  0
   -2.6652   -0.0333    2.0507 C   0  0  0  0  0  0  0  0  0  0  0  0
   -1.4893    0.1423    2.9955 C   0  0  0  0  0  0  0  0  0  0  0  0
   -1.4823   -2.8512    0.4065 C   0  0  0  0  0  0  0  0  0  0  0  0
    2.2721   -0.2059   -0.0615 C   0  0  0  0  0  0  0  0  0  0  0  0
    3.6495   -0.5518   -0.6338 C   0  0  0  0  0  0  0  0  0  0  0  0
    4.7412   -0.9546    1.9275 C   0  0  0  0  0  0  0  0  0  0  0  0
    0.5628    2.7743    0.4341 C   0  0  0  0  0  0  0  0  0  0  0  0
   -3.3727    0.8489   -1.1562 H   0  0  0  0  0  0  0  0  0  0  0  0
   -4.4664    0.7030    0.2431 H   0  0  0  0  0  0  0  0  0  0  0  0
   -4.0676   -1.7779    0.3093 H   0  0  0  0  0  0  0  0  0  0  0  0
   -4.7566   -1.1787   -1.1880 H   0  0  0  0  0  0  0  0  0  0  0  0
   -3.0812   -2.8740   -1.7199 H   0  0  0  0  0  0  0  0  0  0  0  0
   -2.5927   -1.2769   -2.3653 H   0  0  0  0  0  0  0  0  0  0  0  0
   -0.5480   -1.8894   -2.6537 H   0  0  0  0  0  0  0  0  0  0  0  0
   -0.4234   -3.4645   -1.8351 H   0  0  0  0  0  0  0  0  0  0  0  0
    1.7843   -2.3456   -1.7803 H   0  0  0  0  0  0  0  0  0  0  0  0
    1.1327   -2.4569   -0.1175 H   0  0  0  0  0  0  0  0  0  0  0  0
    0.2498   -0.1147   -2.8169 H   0  0  0  0  0  0  0  0  0  0  0  0
    2.0101   -0.3616   -2.8123 H   0  0  0  0  0  0  0  0  0  0  0  0
    2.2578    1.9478   -1.7041 H   0  0  0  0  0  0  0  0  0  0  0  0
    1.6479    1.9001   -3.3526 H   0  0  0  0  0  0  0  0  0  0  0  0
    0.3381    3.5366   -2.0764 H   0  0  0  0  0  0  0  0  0  0  0  0
   -0.6827    2.1790   -2.6383 H   0  0  0  0  0  0  0  0  0  0  0  0
   -2.2949    2.4632   -1.2909 H   0  0  0  0  0  0  0  0  0  0  0  0
   -1.7078    3.8000   -0.2701 H   0  0  0  0  0  0  0  0  0  0  0  0
   -3.3376    2.4714    1.0380 H   0  0  0  0  0  0  0  0  0  0  0  0
   -1.7046    2.2746    1.7333 H   0  0  0  0  0  0  0  0  0  0  0  0
   -2.8487   -1.1090    1.8976 H   0  0  0  0  0  0  0  0  0  0  0  0
   -3.6046    0.4097    2.4587 H   0  0  0  0  0  0  0  0  0  0  0  0
   -1.6204   -0.5427    3.8578 H   0  0  0  0  0  0  0  0  0  0  0  0
   -1.4539    1.1678    3.4206 H   0  0  0  0  0  0  0  0  0  0  0  0
   -0.6417   -2.6487    1.0980 H   0  0  0  0  0  0  0  0  0  0  0  0
   -1.4729   -3.9076    0.0551 H   0  0  0  0  0  0  0  0  0  0  0  0
   -2.4075   -2.7014    0.9862 H   0  0  0  0  0  0  0  0  0  0  0  0
    2.1146   -0.7524    0.8877 H   0  0  0  0  0  0  0  0  0  0  0  0
    2.2508    0.8634    0.2004 H   0  0  0  0  0  0  0  0  0  0  0  0
    3.8405   -0.0528   -1.6059 H   0  0  0  0  0  0  0  0  0  0  0  0
    3.7866   -1.6430   -0.7888 H   0  0  0  0  0  0  0  0  0  0  0  0
    3.7956   -0.7325    2.4606 H   0  0  0  0  0  0  0  0  0  0  0  0
    5.5856   -0.7152    2.6019 H   0  0  0  0  0  0  0  0  0  0  0  0
    4.7940   -2.0322    1.6717 H   0  0  0  0  0  0  0  0  0  0  0  0
    1.6150    2.6573    0.1237 H   0  0  0  0  0  0  0  0  0  0  0  0
    0.4535    2.2513    1.4060 H   0  0  0  0  0  0  0  0  0  0  0  0
    0.3659    3.8649    0.5397 H   0  0  0  0  0  0  0  0  0  0  0  0
  1 18  1  0  0  0  0
  2 22  1  0  0  0  0
  3 16  1  0  0  0  0
  3 17  1  0  0  0  0
  4 19  1  0  0  0  0
  5 20  1  0  0  0  0
  6 15  1  0  0  0  0
  6 23  1  0  0  0  0
  7 25  1  0  0  0  0
  7  3  1  0  0  0  0
  8  7  1  0  0  0  0
  8 26  1  0  0  0  0
  9  4  1  0  0  0  0
  9  8  1  0  0  0  0
 10 11  1  0  0  0  0
 10  4  1  0  0  0  0
 11  5  1  0  0  0  0
 11 33  1  0  0  0  0
 12  5  1  0  0  0  0
 13 12  1  0  0  0  0
 13 14  1  0  0  0  0
 13 36  1  0  0  0  0
 14  6  1  0  0  0  0
 15 41  1  0  0  0  0
 15 16  1  0  0  0  0
 16 42  1  0  0  0  0
 16 43  1  0  0  0  0
 17 45  1  0  0  0  0
 17 18  1  0  0  0  0
 18 47  1  0  0  0  0
 18 46  1  0  0  0  0
 19 50  1  0  0  0  0
 19 48  1  0  0  0  0
 20 52  1  0  0  0  0
 20 51  1  0  0  0  0
 21 20  1  0  0  0  0
 21  2  1  0  0  0  0
 22 55  1  0  0  0  0
 22 56  1  0  0  0  0
 23 60  1  0  0  0  0
 23 59  1  0  0  0  0
 24  7  1  0  0  0  0
 27  8  1  0  0  0  0
 28  9  1  0  0  0  0
 29  9  1  0  0  0  0
 30 10  1  0  0  0  0
 31 10  1  0  0  0  0
 32 11  1  0  0  0  0
 34 12  1  0  0  0  0
 35 12  1  0  0  0  0
 37 13  1  0  0  0  0
 38 14  1  0  0  0  0
 39 14  1  0  0  0  0
 40 15  1  0  0  0  0
 44 17  1  0  0  0  0
 49 19  1  0  0  0  0
 53 21  1  0  0  0  0
 54 21  1  0  0  0  0
 57 22  1  0  0  0  0
 58 23  1  0  0  0  0
M  END
