3,4
 OpenBabel05122313063D

 69 72  0  0  1  0  0  0  0  0999 V2000
   -2.9308   -0.7984    1.2161 Si  0  0  0  0  0  0  0  0  0  0  0  0
   -2.1908    0.0277    2.6011 N   0  0  0  0  0  2  0  0  0  0  0  0
   -0.9774    0.5887   -1.5460 N   0  0  0  0  0  2  0  0  0  0  0  0
    1.9464    0.5704   -0.0384 C   0  0  0  0  0  3  0  0  0  0  0  0
    0.9395    0.1505    0.6765 C   0  0  0  0  0  0  0  0  0  0  0  0
   -0.3336   -0.0672    1.0913 C   0  0  0  0  0  0  0  0  0  0  0  0
   -1.2079   -1.0480    0.2531 C   0  0  2  0  0  0  0  0  0  0  0  0
   -1.4358   -0.5632   -1.1738 C   0  0  0  0  0  0  0  0  0  0  0  0
   -0.9353    0.2962    2.4196 C   0  0  2  0  0  3  0  0  0  0  0  0
    3.3048    0.0891   -0.2721 C   0  0  0  0  0  0  0  0  0  0  0  0
    3.6411   -1.2509    0.0547 C   0  0  0  0  0  0  0  0  0  0  0  0
    2.8668   -1.9098    0.4774 H   0  0  0  0  0  0  0  0  0  0  0  0
    4.9304   -1.7341   -0.1727 C   0  0  0  0  0  0  0  0  0  0  0  0
    5.1681   -2.7792    0.0840 H   0  0  0  0  0  0  0  0  0  0  0  0
    5.9366   -0.9084   -0.7250 C   0  0  0  0  0  0  0  0  0  0  0  0
    7.3228   -1.4470   -0.9682 C   0  0  0  0  0  0  0  0  0  0  0  0
    7.7604   -1.8681   -0.0392 H   0  0  0  0  0  0  0  0  0  0  0  0
    8.0074   -0.6624   -1.3433 H   0  0  0  0  0  0  0  0  0  0  0  0
    7.3085   -2.2693   -1.7145 H   0  0  0  0  0  0  0  0  0  0  0  0
    5.5970    0.4215   -1.0419 C   0  0  0  0  0  0  0  0  0  0  0  0
    6.3641    1.0868   -1.4687 H   0  0  0  0  0  0  0  0  0  0  0  0
    4.3036    0.9160   -0.8283 C   0  0  0  0  0  0  0  0  0  0  0  0
    4.0578    1.9615   -1.0769 H   0  0  0  0  0  0  0  0  0  0  0  0
   -0.5339   -2.4139    0.3629 C   0  0  0  0  0  0  0  0  0  0  0  0
    0.2190   -2.9435   -0.7061 C   0  0  0  0  0  0  0  0  0  0  0  0
    0.2426   -2.4168   -1.6716 H   0  0  0  0  0  0  0  0  0  0  0  0
    0.9624   -4.1216   -0.5554 C   0  0  0  0  0  0  0  0  0  0  0  0
    1.5440   -4.5021   -1.4101 H   0  0  0  0  0  0  0  0  0  0  0  0
    0.9972   -4.8161    0.6704 C   0  0  0  0  0  0  0  0  0  0  0  0
    0.2633   -4.2734    1.7450 C   0  0  0  0  0  0  0  0  0  0  0  0
    0.2865   -4.7763    2.7249 H   0  0  0  0  0  0  0  0  0  0  0  0
   -0.4844   -3.0982    1.5965 C   0  0  0  0  0  0  0  0  0  0  0  0
   -1.0075   -2.6849    2.4717 H   0  0  0  0  0  0  0  0  0  0  0  0
    1.7765   -6.0974    0.8220 C   0  0  0  0  0  0  0  0  0  0  0  0
    1.1511   -6.9782    0.5597 H   0  0  0  0  0  0  0  0  0  0  0  0
    2.1239   -6.2444    1.8637 H   0  0  0  0  0  0  0  0  0  0  0  0
    2.6610   -6.1185    0.1549 H   0  0  0  0  0  0  0  0  0  0  0  0
   -0.0691    0.8292    3.5773 C   0  0  0  0  0  0  0  0  0  0  0  0
    0.7061    2.1147    3.2208 C   0  0  0  0  0  0  0  0  0  0  0  0
    1.2866    2.4436    4.1069 H   0  0  0  0  0  0  0  0  0  0  0  0
    0.0193    2.9328    2.9310 H   0  0  0  0  0  0  0  0  0  0  0  0
    1.4274    1.9606    2.3955 H   0  0  0  0  0  0  0  0  0  0  0  0
    0.9373   -0.2900    3.9443 C   0  0  0  0  0  0  0  0  0  0  0  0
    1.5385    0.0268    4.8208 H   0  0  0  0  0  0  0  0  0  0  0  0
    1.6362   -0.5100    3.1132 H   0  0  0  0  0  0  0  0  0  0  0  0
    0.4129   -1.2298    4.2121 H   0  0  0  0  0  0  0  0  0  0  0  0
   -0.9731    1.1146    4.7875 C   0  0  0  0  0  0  0  0  0  0  0  0
   -1.7251    1.8901    4.5445 H   0  0  0  0  0  0  0  0  0  0  0  0
   -0.3587    1.4697    5.6394 H   0  0  0  0  0  0  0  0  0  0  0  0
   -1.5283    0.2090    5.0967 H   0  0  0  0  0  0  0  0  0  0  0  0
   -3.8437   -2.3522    1.7619 C   0  0  0  0  0  0  0  0  0  0  0  0
   -3.1790   -3.1645    2.1097 H   0  0  0  0  0  0  0  0  0  0  0  0
   -4.4780   -2.7405    0.9408 H   0  0  0  0  0  0  0  0  0  0  0  0
   -4.5110   -2.0673    2.6016 H   0  0  0  0  0  0  0  0  0  0  0  0
   -4.1089    0.3217    0.2779 C   0  0  0  0  0  0  0  0  0  0  0  0
   -4.8797    0.7088    0.9752 H   0  0  0  0  0  0  0  0  0  0  0  0
   -4.6179   -0.2294   -0.5378 H   0  0  0  0  0  0  0  0  0  0  0  0
   -3.5773    1.1880   -0.1617 H   0  0  0  0  0  0  0  0  0  0  0  0
   -2.2716   -1.3826   -2.1051 C   0  0  0  0  0  0  0  0  0  0  0  0
   -2.5130   -0.8761   -3.4028 C   0  0  0  0  0  0  0  0  0  0  0  0
   -2.0526    0.0868   -3.6700 H   0  0  0  0  0  0  0  0  0  0  0  0
   -3.3220   -1.5743   -4.3049 C   0  0  0  0  0  0  0  0  0  0  0  0
   -3.5002   -1.1651   -5.3108 H   0  0  0  0  0  0  0  0  0  0  0  0
   -3.9116   -2.7925   -3.9252 C   0  0  0  0  0  0  0  0  0  0  0  0
   -4.5518   -3.3414   -4.6326 H   0  0  0  0  0  0  0  0  0  0  0  0
   -3.6822   -3.3070   -2.6386 C   0  0  0  0  0  0  0  0  0  0  0  0
   -4.1388   -4.2612   -2.3354 H   0  0  0  0  0  0  0  0  0  0  0  0
   -2.8668   -2.6115   -1.7365 C   0  0  0  0  0  0  0  0  0  0  0  0
   -2.6827   -3.0397   -0.7421 H   0  0  0  0  0  0  0  0  0  0  0  0
  1 51  1  0  0  0  0
  1  2  1  0  0  0  0
  3  8  2  0  0  0  0
  4  5  2  0  0  0  0
  5  6  2  0  0  0  0
  6  9  1  0  0  0  0
  7  8  1  6  0  0  0
  7 24  1  0  0  0  0
  7  6  1  0  0  0  0
  7  1  1  0  0  0  0
  9  2  1  0  0  0  0
  9 38  1  1  0  0  0
 10  4  1  0  0  0  0
 10 11  1  0  0  0  0
 11 12  1  0  0  0  0
 13 11  2  0  0  0  0
 13 14  1  0  0  0  0
 15 13  1  0  0  0  0
 16 15  1  0  0  0  0
 16 17  1  0  0  0  0
 18 16  1  0  0  0  0
 19 16  1  0  0  0  0
 20 22  1  0  0  0  0
 20 15  2  0  0  0  0
 21 20  1  0  0  0  0
 22 10  2  0  0  0  0
 23 22  1  0  0  0  0
 24 32  1  0  0  0  0
 25 27  1  0  0  0  0
 25 24  2  0  0  0  0
 26 25  1  0  0  0  0
 27 29  2  0  0  0  0
 28 27  1  0  0  0  0
 29 34  1  0  0  0  0
 29 30  1  0  0  0  0
 30 31  1  0  0  0  0
 32 30  2  0  0  0  0
 32 33  1  0  0  0  0
 34 36  1  0  0  0  0
 35 34  1  0  0  0  0
 37 34  1  0  0  0  0
 38 43  1  0  0  0  0
 38 47  1  0  0  0  0
 39 38  1  0  0  0  0
 39 40  1  0  0  0  0
 41 39  1  0  0  0  0
 42 39  1  0  0  0  0
 43 46  1  0  0  0  0
 43 44  1  0  0  0  0
 45 43  1  0  0  0  0
 47 50  1  0  0  0  0
 47 49  1  0  0  0  0
 48 47  1  0  0  0  0
 51 52  1  0  0  0  0
 51 54  1  0  0  0  0
 53 51  1  0  0  0  0
 55 56  1  0  0  0  0
 55  1  1  0  0  0  0
 57 55  1  0  0  0  0
 58 55  1  0  0  0  0
 59 68  1  0  0  0  0
 59  8  1  0  0  0  0
 60 59  2  0  0  0  0
 61 60  1  0  0  0  0
 62 64  2  0  0  0  0
 62 60  1  0  0  0  0
 63 62  1  0  0  0  0
 64 66  1  0  0  0  0
 65 64  1  0  0  0  0
 66 67  1  0  0  0  0
 66 68  2  0  0  0  0
 68 69  1  0  0  0  0
M  END
