1,2
 OpenBabel05122313063D

 28 28  0  0  0  0  0  0  0  0999 V2000
   -0.1386    1.3292   -0.7641 N   0  0  0  0  0  1  0  0  0  0  0  0
    0.2158    0.2204    1.7094 C   0  0  0  0  0  2  0  0  0  0  0  0
    0.4096   -0.7479    2.2368 H   0  0  0  0  0  0  0  0  0  0  0  0
    0.1814    1.3894    2.6659 C   0  0  0  0  0  0  0  0  0  0  0  0
   -0.1604    2.7155    1.9485 C   0  0  0  0  0  0  0  0  0  0  0  0
   -0.3542    3.4832    2.7270 H   0  0  0  0  0  0  0  0  0  0  0  0
   -1.1278    2.5681    1.4254 H   0  0  0  0  0  0  0  0  0  0  0  0
    0.9090    3.2507    0.9572 C   0  0  0  0  0  0  0  0  0  0  0  0
    1.4489    4.1148    1.3910 H   0  0  0  0  0  0  0  0  0  0  0  0
    1.6760    2.4690    0.7719 H   0  0  0  0  0  0  0  0  0  0  0  0
   -0.2368    2.6238   -1.1984 C   0  0  0  0  0  0  0  0  0  0  0  0
   -0.8590    2.9409   -2.4285 C   0  0  0  0  0  0  0  0  0  0  0  0
   -1.2906    2.1304   -3.0323 H   0  0  0  0  0  0  0  0  0  0  0  0
   -0.9253    4.2727   -2.8493 C   0  0  0  0  0  0  0  0  0  0  0  0
   -1.4098    4.5207   -3.8053 H   0  0  0  0  0  0  0  0  0  0  0  0
   -0.3781    5.2880   -2.0468 C   0  0  0  0  0  0  0  0  0  0  0  0
   -0.4293    6.3367   -2.3758 H   0  0  0  0  0  0  0  0  0  0  0  0
    0.2276    4.9704   -0.8195 C   0  0  0  0  0  0  0  0  0  0  0  0
    0.6461    5.7714   -0.1902 H   0  0  0  0  0  0  0  0  0  0  0  0
    0.3134    3.6460   -0.3650 C   0  0  0  0  0  0  0  0  0  0  0  0
    1.5443    1.4742    3.3931 C   0  0  0  0  0  0  0  0  0  0  0  0
    1.5246    2.3108    4.1226 H   0  0  0  0  0  0  0  0  0  0  0  0
    2.3810    1.6341    2.6877 H   0  0  0  0  0  0  0  0  0  0  0  0
    1.7568    0.5376    3.9461 H   0  0  0  0  0  0  0  0  0  0  0  0
   -0.9290    1.1031    3.7066 C   0  0  0  0  0  0  0  0  0  0  0  0
   -0.9639    1.9243    4.4521 H   0  0  0  0  0  0  0  0  0  0  0  0
   -0.7328    0.1563    4.2489 H   0  0  0  0  0  0  0  0  0  0  0  0
   -1.9205    1.0157    3.2247 H   0  0  0  0  0  0  0  0  0  0  0  0
  2  3  1  0  0  0  0
  2  4  1  0  0  0  0
  4 21  1  0  0  0  0
  4 25  1  0  0  0  0
  5  4  1  0  0  0  0
  5  6  1  0  0  0  0
  7  5  1  0  0  0  0
  8  9  1  0  0  0  0
  8  5  1  0  0  0  0
 10  8  1  0  0  0  0
 11  1  1  0  0  0  0
 11 20  1  0  0  0  0
 12 11  2  0  0  0  0
 13 12  1  0  0  0  0
 14 12  1  0  0  0  0
 14 16  2  0  0  0  0
 15 14  1  0  0  0  0
 16 18  1  0  0  0  0
 17 16  1  0  0  0  0
 18 20  2  0  0  0  0
 18 19  1  0  0  0  0
 20  8  1  0  0  0  0
 21 24  1  0  0  0  0
 21 22  1  0  0  0  0
 23 21  1  0  0  0  0
 25 27  1  0  0  0  0
 25 26  1  0  0  0  0
 28 25  1  0  0  0  0
M  END
