1,2
 OpenBabel05122313063D

 23 24  0  0  0  0  0  0  0  0999 V2000
    1.1091   -0.3577   -0.9815 N   0  0  0  0  0  2  0  0  0  0  0  0
    0.1935   -1.3342    1.0501 C   0  0  0  0  0  3  0  0  0  0  0  0
   -0.4140   -1.9280    2.1708 C   0  0  0  0  0  0  0  0  0  0  0  0
   -1.5098   -1.9892    2.2513 H   0  0  0  0  0  0  0  0  0  0  0  0
    0.3675   -2.4720    3.2061 C   0  0  0  0  0  0  0  0  0  0  0  0
   -0.1327   -2.9240    4.0764 H   0  0  0  0  0  0  0  0  0  0  0  0
    1.7728   -2.4682    3.1341 C   0  0  0  0  0  0  0  0  0  0  0  0
    2.3678   -2.9251    3.9382 H   0  0  0  0  0  0  0  0  0  0  0  0
    2.4105   -1.8938    2.0287 C   0  0  0  0  0  0  0  0  0  0  0  0
    3.5068   -1.9170    1.9436 H   0  0  0  0  0  0  0  0  0  0  0  0
    1.6381   -1.2985    1.0116 C   0  0  0  0  0  0  0  0  0  0  0  0
    2.1107   -0.5409   -0.1517 C   0  0  0  0  0  0  0  0  0  0  0  0
    3.4255    0.0710   -0.3883 C   0  0  0  0  0  0  0  0  0  0  0  0
    3.8197    0.3597   -1.7184 C   0  0  0  0  0  0  0  0  0  0  0  0
    3.1615    0.0537   -2.5448 H   0  0  0  0  0  0  0  0  0  0  0  0
    5.0381    0.9968   -1.9737 C   0  0  0  0  0  0  0  0  0  0  0  0
    5.3390    1.2062   -3.0110 H   0  0  0  0  0  0  0  0  0  0  0  0
    5.8831    1.3560   -0.9096 C   0  0  0  0  0  0  0  0  0  0  0  0
    6.8445    1.8511   -1.1118 H   0  0  0  0  0  0  0  0  0  0  0  0
    5.4990    1.0799    0.4132 C   0  0  0  0  0  0  0  0  0  0  0  0
    6.1536    1.3694    1.2487 H   0  0  0  0  0  0  0  0  0  0  0  0
    4.2801    0.4429    0.6771 C   0  0  0  0  0  0  0  0  0  0  0  0
    3.9751    0.2642    1.7177 H   0  0  0  0  0  0  0  0  0  0  0  0
  1 12  2  0  0  0  0
  2  3  1  0  0  0  0
  3  4  1  0  0  0  0
  3  5  2  0  0  0  0
  5  6  1  0  0  0  0
  7  5  1  0  0  0  0
  7  8  1  0  0  0  0
  9  7  2  0  0  0  0
 10  9  1  0  0  0  0
 11  2  2  0  0  0  0
 11  9  1  0  0  0  0
 12 11  1  0  0  0  0
 13 12  1  0  0  0  0
 13 22  1  0  0  0  0
 14 13  2  0  0  0  0
 15 14  1  0  0  0  0
 16 14  1  0  0  0  0
 16 18  2  0  0  0  0
 17 16  1  0  0  0  0
 18 20  1  0  0  0  0
 19 18  1  0  0  0  0
 20 22  2  0  0  0  0
 20 21  1  0  0  0  0
 22 23  1  0  0  0  0
M  END
