1
q = -1.0, confidence = 0.0

 12 12  0  0  0  0  0  0  0  0999 V2000
   -1.1264    0.3450   -1.9467 Se  0  0  0  0  0  1  0  0  0  0  0  0
   -2.8572    0.4790   -1.1484 C   0  0  0  0  0  0  0  0  0  0  0  0
   -3.0338    0.6387    0.2476 C   0  0  0  0  0  0  0  0  0  0  0  0
   -2.1310    0.6752    0.8770 H   0  0  0  0  0  0  0  0  0  0  0  0
   -4.3122    0.7293    0.8166 C   0  0  0  0  0  0  0  0  0  0  0  0
   -4.4137    0.8517    1.9077 H   0  0  0  0  0  0  0  0  0  0  0  0
   -5.4576    0.6661    0.0052 C   0  0  0  0  0  0  0  0  0  0  0  0
   -6.4625    0.7361    0.4480 H   0  0  0  0  0  0  0  0  0  0  0  0
   -5.2973    0.5126   -1.3840 C   0  0  0  0  0  0  0  0  0  0  0  0
   -6.1843    0.4605   -2.0356 H   0  0  0  0  0  0  0  0  0  0  0  0
   -4.0204    0.4208   -1.9551 C   0  0  0  0  0  0  0  0  0  0  0  0
   -3.9097    0.2962   -3.0434 H   0  0  0  0  0  0  0  0  0  0  0  0
  1  2  1  0  0  0  0
  2  3  1  0  0  0  0
  3  5  2  0  0  0  0
  3  4  1  0  0  0  0
  5  6  1  0  0  0  0
  7  8  1  0  0  0  0
  7  5  1  0  0  0  0
  9  7  2  0  0  0  0
 10  9  1  0  0  0  0
 11  9  1  0  0  0  0
 11  2  2  0  0  0  0
 12 11  1  0  0  0  0
M  END
