1
q = 0.0, confidence = 0.998

 16 16  0  0  1  0  0  0  0  0999 V2000
   -2.3065    1.3799   -0.5796 Se  0  0  0  0  0  1  0  0  0  0  0  0
   -3.2636   -1.3930   -0.4022 N   0  0  0  0  0  0  0  0  0  0  0  0
   -3.4296   -0.0455   -0.1762 C   0  0  2  0  0  3  0  0  0  0  0  0
   -2.1142   -1.9913   -1.0577 C   0  0  0  0  0  0  0  0  0  0  0  0
   -1.2016   -1.4160   -0.7843 H   0  0  0  0  0  0  0  0  0  0  0  0
   -2.2299   -1.9583   -2.1592 H   0  0  0  0  0  0  0  0  0  0  0  0
   -2.0106   -3.0386   -0.7209 H   0  0  0  0  0  0  0  0  0  0  0  0
   -4.3681   -2.0907    0.0655 C   0  0  0  0  0  0  0  0  0  0  0  0
   -4.4364   -3.1794   -0.0105 H   0  0  0  0  0  0  0  0  0  0  0  0
   -4.6582    0.0751    0.4381 N   0  0  0  0  0  0  0  0  0  0  0  0
   -5.2246    1.3409    0.8616 C   0  0  0  0  0  0  0  0  0  0  0  0
   -4.4249    1.9550    1.3217 H   0  0  0  0  0  0  0  0  0  0  0  0
   -5.6291    1.9050   -0.0037 H   0  0  0  0  0  0  0  0  0  0  0  0
   -6.0325    1.1502    1.5916 H   0  0  0  0  0  0  0  0  0  0  0  0
   -5.2421   -1.1744    0.5886 C   0  0  0  0  0  0  0  0  0  0  0  0
   -6.2210   -1.3069    1.0578 H   0  0  0  0  0  0  0  0  0  0  0  0
  2  3  1  0  0  0  0
  2  8  1  0  0  0  0
  3  1  1  6  0  0  0
  3 10  1  0  0  0  0
  4  5  1  0  0  0  0
  4  7  1  0  0  0  0
  4  2  1  0  0  0  0
  6  4  1  0  0  0  0
  8 15  2  0  0  0  0
  9  8  1  0  0  0  0
 10 15  1  0  0  0  0
 10 11  1  0  0  0  0
 11 12  1  0  0  0  0
 11 14  1  0  0  0  0
 13 11  1  0  0  0  0
 15 16  1  0  0  0  0
M  END
