1
q = -1.0, confidence = 0.008

 10 10  0  0  0  0  0  0  0  0999 V2000
   -2.9545   -1.7707   -0.0487 Se  0  0  0  0  0  1  0  0  0  0  0  0
   -5.1655   -0.1199    0.0408 N   0  0  0  0  0  0  0  0  0  0  0  0
   -3.0775    1.0705    0.0507 N   0  0  0  0  0  0  0  0  0  0  0  0
   -3.8163   -0.0684    0.0215 C   0  0  0  0  0  0  0  0  0  0  0  0
   -3.7551    2.2234    0.1140 C   0  0  0  0  0  0  0  0  0  0  0  0
   -3.1471    3.1474    0.1427 H   0  0  0  0  0  0  0  0  0  0  0  0
   -5.8175    1.0452    0.1000 C   0  0  0  0  0  0  0  0  0  0  0  0
   -6.9222    0.9916    0.1138 H   0  0  0  0  0  0  0  0  0  0  0  0
   -5.1562    2.2840    0.1438 C   0  0  0  0  0  0  0  0  0  0  0  0
   -5.6991    3.2380    0.1963 H   0  0  0  0  0  0  0  0  0  0  0  0
  1  4  1  0  0  0  0
  2  7  1  0  0  0  0
  3  5  2  0  0  0  0
  4  2  2  0  0  0  0
  4  3  1  0  0  0  0
  5  6  1  0  0  0  0
  5  9  1  0  0  0  0
  7  8  1  0  0  0  0
  7  9  2  0  0  0  0
  9 10  1  0  0  0  0
M  END
