1
q = -1.0, confidence = 0.02

 14 13  0  0  0  0  0  0  0  0999 V2000
   -3.0878   -0.1559    0.1812 Se  0  0  0  0  0  1  0  0  0  0  0  0
   -3.9366   -1.9394    0.3212 C   0  0  0  0  0  0  0  0  0  0  0  0
   -3.5009   -2.5838   -0.4641 H   0  0  0  0  0  0  0  0  0  0  0  0
   -3.6587   -2.3829    1.2973 H   0  0  0  0  0  0  0  0  0  0  0  0
   -5.4506   -1.7890    0.1800 C   0  0  0  0  0  0  0  0  0  0  0  0
   -5.6882   -1.3527   -0.8163 H   0  0  0  0  0  0  0  0  0  0  0  0
   -5.8213   -1.0557    0.9295 H   0  0  0  0  0  0  0  0  0  0  0  0
   -6.2140   -3.1131    0.3550 C   0  0  0  0  0  0  0  0  0  0  0  0
   -6.0080   -3.5180    1.3711 H   0  0  0  0  0  0  0  0  0  0  0  0
   -7.3045   -2.8961    0.3314 H   0  0  0  0  0  0  0  0  0  0  0  0
   -5.8858   -4.1777   -0.6946 C   0  0  0  0  0  0  0  0  0  0  0  0
   -6.0722   -3.7984   -1.7218 H   0  0  0  0  0  0  0  0  0  0  0  0
   -6.5046   -5.0877   -0.5566 H   0  0  0  0  0  0  0  0  0  0  0  0
   -4.8228   -4.4898   -0.6461 H   0  0  0  0  0  0  0  0  0  0  0  0
  1  2  1  0  0  0  0
  2  4  1  0  0  0  0
  3  2  1  0  0  0  0
  5  2  1  0  0  0  0
  5  8  1  0  0  0  0
  5  7  1  0  0  0  0
  6  5  1  0  0  0  0
  8  9  1  0  0  0  0
 10  8  1  0  0  0  0
 11 14  1  0  0  0  0
 11 13  1  0  0  0  0
 11  8  1  0  0  0  0
 12 11  1  0  0  0  0
M  END
