1
 OpenBabel05122313063D

 39 39  0  0  0  0  0  0  0  0999 V2000
    0.2097   -0.7468   -1.5247 Se  0  0  0  0  0  1  0  0  0  0  0  0
    1.9739   -0.4075   -0.7683 C   0  0  0  0  0  0  0  0  0  0  0  0
    2.6847   -1.4782   -0.1517 C   0  0  0  0  0  0  0  0  0  0  0  0
    3.9920   -1.2490    0.3101 C   0  0  0  0  0  0  0  0  0  0  0  0
    4.5374   -2.0799    0.7853 H   0  0  0  0  0  0  0  0  0  0  0  0
    4.6156    0.0072    0.2032 C   0  0  0  0  0  0  0  0  0  0  0  0
    3.8812    1.0534   -0.3725 C   0  0  0  0  0  0  0  0  0  0  0  0
    4.3465    2.0521   -0.4392 H   0  0  0  0  0  0  0  0  0  0  0  0
    2.5703    0.8769   -0.8587 C   0  0  0  0  0  0  0  0  0  0  0  0
    2.0517   -2.8550    0.0181 C   0  0  0  0  0  0  0  0  0  0  0  0
    0.9536   -2.6833    0.0362 H   0  0  0  0  0  0  0  0  0  0  0  0
    2.3440   -3.7408   -1.2048 C   0  0  0  0  0  0  0  0  0  0  0  0
    1.8498   -4.7308   -1.1065 H   0  0  0  0  0  0  0  0  0  0  0  0
    3.4364   -3.9093   -1.3212 H   0  0  0  0  0  0  0  0  0  0  0  0
    1.9665   -3.2611   -2.1301 H   0  0  0  0  0  0  0  0  0  0  0  0
    2.4385   -3.5516    1.3284 C   0  0  0  0  0  0  0  0  0  0  0  0
    2.2498   -2.8892    2.1965 H   0  0  0  0  0  0  0  0  0  0  0  0
    3.5073   -3.8561    1.3499 H   0  0  0  0  0  0  0  0  0  0  0  0
    1.8366   -4.4745    1.4610 H   0  0  0  0  0  0  0  0  0  0  0  0
    6.0281    0.2343    0.7240 C   0  0  0  0  0  0  0  0  0  0  0  0
    6.2829    1.2959    0.5081 H   0  0  0  0  0  0  0  0  0  0  0  0
    6.1082    0.0388    2.2479 C   0  0  0  0  0  0  0  0  0  0  0  0
    5.3867    0.6967    2.7719 H   0  0  0  0  0  0  0  0  0  0  0  0
    7.1275    0.2609    2.6302 H   0  0  0  0  0  0  0  0  0  0  0  0
    5.8639   -1.0073    2.5272 H   0  0  0  0  0  0  0  0  0  0  0  0
    7.0571   -0.6469   -0.0042 C   0  0  0  0  0  0  0  0  0  0  0  0
    7.0225   -0.4797   -1.0995 H   0  0  0  0  0  0  0  0  0  0  0  0
    6.8545   -1.7238    0.1738 H   0  0  0  0  0  0  0  0  0  0  0  0
    8.0894   -0.4368    0.3485 H   0  0  0  0  0  0  0  0  0  0  0  0
    1.8241    2.0832   -1.4128 C   0  0  0  0  0  0  0  0  0  0  0  0
    0.8524    1.7064   -1.7969 H   0  0  0  0  0  0  0  0  0  0  0  0
    1.5057    3.0820   -0.2892 C   0  0  0  0  0  0  0  0  0  0  0  0
    0.9329    3.9464   -0.6849 H   0  0  0  0  0  0  0  0  0  0  0  0
    2.4317    3.4703    0.1873 H   0  0  0  0  0  0  0  0  0  0  0  0
    0.8848    2.6002    0.4925 H   0  0  0  0  0  0  0  0  0  0  0  0
    2.5647    2.7471   -2.5820 C   0  0  0  0  0  0  0  0  0  0  0  0
    1.9596    3.5779   -3.0022 H   0  0  0  0  0  0  0  0  0  0  0  0
    2.7582    2.0190   -3.3960 H   0  0  0  0  0  0  0  0  0  0  0  0
    3.5430    3.1728   -2.2704 H   0  0  0  0  0  0  0  0  0  0  0  0
  1  2  1  0  0  0  0
  2  3  1  0  0  0  0
  3 10  1  0  0  0  0
  3  4  2  0  0  0  0
  4  5  1  0  0  0  0
  6  4  1  0  0  0  0
  6 20  1  0  0  0  0
  7  6  2  0  0  0  0
  8  7  1  0  0  0  0
  9  2  2  0  0  0  0
  9  7  1  0  0  0  0
 10 11  1  0  0  0  0
 10 16  1  0  0  0  0
 12 13  1  0  0  0  0
 12 10  1  0  0  0  0
 14 12  1  0  0  0  0
 15 12  1  0  0  0  0
 16 18  1  0  0  0  0
 16 19  1  0  0  0  0
 16 17  1  0  0  0  0
 20 22  1  0  0  0  0
 21 20  1  0  0  0  0
 22 25  1  0  0  0  0
 22 24  1  0  0  0  0
 22 23  1  0  0  0  0
 26 28  1  0  0  0  0
 26 29  1  0  0  0  0
 26 20  1  0  0  0  0
 27 26  1  0  0  0  0
 30  9  1  0  0  0  0
 30 32  1  0  0  0  0
 31 30  1  0  0  0  0
 32 34  1  0  0  0  0
 32 35  1  0  0  0  0
 33 32  1  0  0  0  0
 36 39  1  0  0  0  0
 36 30  1  0  0  0  0
 37 36  1  0  0  0  0
 38 36  1  0  0  0  0
M  END
