1
 OpenBabel05122313063D

 14 14  0  0  0  0  0  0  0  0999 V2000
   -1.5311   -0.4960   -1.5541 Se  0  0  0  0  0  1  0  0  0  0  0  0
   -2.1689   -0.7054    1.1405 O   0  0  0  0  0  0  0  0  0  0  0  0
   -2.5013   -1.0663    0.0032 C   0  0  0  0  0  0  0  0  0  0  0  0
   -3.6768   -1.9782   -0.1895 C   0  0  0  0  0  0  0  0  0  0  0  0
   -4.1411   -2.3863   -1.4568 C   0  0  0  0  0  0  0  0  0  0  0  0
   -3.6186   -2.0296   -2.3577 H   0  0  0  0  0  0  0  0  0  0  0  0
   -5.2503   -3.2349   -1.5657 C   0  0  0  0  0  0  0  0  0  0  0  0
   -5.6046   -3.5467   -2.5600 H   0  0  0  0  0  0  0  0  0  0  0  0
   -5.9072   -3.6899   -0.4097 C   0  0  0  0  0  0  0  0  0  0  0  0
   -6.7770   -4.3592   -0.4972 H   0  0  0  0  0  0  0  0  0  0  0  0
   -5.4495   -3.2909    0.8575 C   0  0  0  0  0  0  0  0  0  0  0  0
   -5.9592   -3.6488    1.7654 H   0  0  0  0  0  0  0  0  0  0  0  0
   -4.3432   -2.4400    0.9668 C   0  0  0  0  0  0  0  0  0  0  0  0
   -3.9612   -2.1135    1.9450 H   0  0  0  0  0  0  0  0  0  0  0  0
  1  3  1  0  0  0  0
  3  2  2  0  0  0  0
  4  3  1  0  0  0  0
  4 13  1  0  0  0  0
  5  4  2  0  0  0  0
  6  5  1  0  0  0  0
  7  5  1  0  0  0  0
  7  9  2  0  0  0  0
  8  7  1  0  0  0  0
  9 11  1  0  0  0  0
 10  9  1  0  0  0  0
 11 13  2  0  0  0  0
 11 12  1  0  0  0  0
 13 14  1  0  0  0  0
M  END
