1
 OpenBabel05122313063D

 46 47  0  0  1  0  0  0  0  0999 V2000
   -1.4991    1.0872   -1.3773 Se  0  0  0  0  0  1  0  0  0  0  0  0
    0.1253    1.1532    0.9864 N   0  0  0  0  0  2  0  0  0  0  0  0
   -0.8532    3.1629    0.4394 N   0  0  0  0  0  0  0  0  0  0  0  0
   -0.6926    1.8345    0.1888 C   0  0  1  0  0  3  0  0  0  0  0  0
   -1.2423   -0.6659    1.9531 C   0  0  0  0  0  0  0  0  0  0  0  0
   -3.4305   -0.3515    2.9780 C   0  0  0  0  0  0  0  0  0  0  0  0
   -4.1975    0.3177    3.3958 H   0  0  0  0  0  0  0  0  0  0  0  0
   -1.4685   -2.0606    1.9086 C   0  0  0  0  0  0  0  0  0  0  0  0
   -0.7476   -2.7241    1.4008 H   0  0  0  0  0  0  0  0  0  0  0  0
   -3.6489   -1.7385    2.9405 C   0  0  0  0  0  0  0  0  0  0  0  0
   -4.5925   -2.1576    3.3217 H   0  0  0  0  0  0  0  0  0  0  0  0
   -2.6684   -2.5879    2.4030 C   0  0  0  0  0  0  0  0  0  0  0  0
   -2.8478   -3.6715    2.3405 H   0  0  0  0  0  0  0  0  0  0  0  0
   -0.1551    3.7618    1.5868 C   0  0  0  0  0  0  0  0  0  0  0  0
   -0.2416    3.0606    2.4413 H   0  0  0  0  0  0  0  0  0  0  0  0
   -0.7116    4.6821    1.8575 H   0  0  0  0  0  0  0  0  0  0  0  0
   -2.2347    0.1838    2.4848 C   0  0  0  0  0  0  0  0  0  0  0  0
   -2.0577    1.2684    2.5203 H   0  0  0  0  0  0  0  0  0  0  0  0
   -1.5925    4.0430   -0.4691 C   0  0  0  0  0  0  0  0  0  0  0  0
   -2.0273    4.8539    0.1509 H   0  0  0  0  0  0  0  0  0  0  0  0
   -2.4449    3.4634   -0.8794 H   0  0  0  0  0  0  0  0  0  0  0  0
   -0.7563    4.6247   -1.6106 C   0  0  0  0  0  0  0  0  0  0  0  0
    0.0570    5.2768   -1.2361 H   0  0  0  0  0  0  0  0  0  0  0  0
   -1.4000    5.2320   -2.2781 H   0  0  0  0  0  0  0  0  0  0  0  0
   -0.3097    3.8110   -2.2153 H   0  0  0  0  0  0  0  0  0  0  0  0
    1.3209    4.0744    1.3303 C   0  0  0  0  0  0  0  0  0  0  0  0
    1.4487    4.8121    0.5145 H   0  0  0  0  0  0  0  0  0  0  0  0
    1.8704    3.1511    1.0630 H   0  0  0  0  0  0  0  0  0  0  0  0
    1.7810    4.4957    2.2468 H   0  0  0  0  0  0  0  0  0  0  0  0
    4.8553   -0.7943    1.4640 C   0  0  0  0  0  0  0  0  0  0  0  0
    5.7018   -1.1631    2.0640 H   0  0  0  0  0  0  0  0  0  0  0  0
    3.9916    0.3336   -0.4871 C   0  0  0  0  0  0  0  0  0  0  0  0
    4.1548    0.8461   -1.4482 H   0  0  0  0  0  0  0  0  0  0  0  0
    5.1054   -0.1108    0.2584 C   0  0  0  0  0  0  0  0  0  0  0  0
    2.6800    0.1185   -0.0553 C   0  0  0  0  0  0  0  0  0  0  0  0
    1.8304    0.4281   -0.6779 H   0  0  0  0  0  0  0  0  0  0  0  0
    3.5485   -1.0111    1.9179 C   0  0  0  0  0  0  0  0  0  0  0  0
    3.3748   -1.5389    2.8687 H   0  0  0  0  0  0  0  0  0  0  0  0
    2.4521   -0.5511    1.1653 C   0  0  0  0  0  0  0  0  0  0  0  0
    6.5084    0.1248   -0.2388 C   0  0  0  0  0  0  0  0  0  0  0  0
    7.2651   -0.2588    0.4724 H   0  0  0  0  0  0  0  0  0  0  0  0
    6.7052    1.2058   -0.3962 H   0  0  0  0  0  0  0  0  0  0  0  0
    6.6768   -0.3760   -1.2152 H   0  0  0  0  0  0  0  0  0  0  0  0
    1.1510   -0.8106    1.6488 N   0  0  0  0  0  0  0  0  0  0  0  0
    1.0311   -1.6637    2.1987 H   0  0  0  0  0  0  0  0  0  0  0  0
    0.0295   -0.0756    1.4508 C   0  0  2  0  0  3  0  0  0  0  0  0
  3 14  1  0  0  0  0
  4  1  1  6  0  0  0
  4  3  1  0  0  0  0
  4  2  1  0  0  0  0
  5 17  1  0  0  0  0
  6  7  1  0  0  0  0
  8  5  2  0  0  0  0
  8 12  1  0  0  0  0
  9  8  1  0  0  0  0
 10  6  1  0  0  0  0
 10 11  1  0  0  0  0
 12 10  2  0  0  0  0
 13 12  1  0  0  0  0
 14 16  1  0  0  0  0
 14 15  1  0  0  0  0
 17 18  1  0  0  0  0
 17  6  2  0  0  0  0
 19 20  1  0  0  0  0
 19  3  1  0  0  0  0
 21 19  1  0  0  0  0
 22 23  1  0  0  0  0
 22 19  1  0  0  0  0
 24 22  1  0  0  0  0
 25 22  1  0  0  0  0
 26 14  1  0  0  0  0
 26 29  1  0  0  0  0
 27 26  1  0  0  0  0
 28 26  1  0  0  0  0
 30 37  1  0  0  0  0
 30 31  1  0  0  0  0
 32 35  2  0  0  0  0
 32 34  1  0  0  0  0
 33 32  1  0  0  0  0
 34 30  2  0  0  0  0
 35 39  1  0  0  0  0
 36 35  1  0  0  0  0
 37 38  1  0  0  0  0
 39 44  1  0  0  0  0
 39 37  2  0  0  0  0
 40 34  1  0  0  0  0
 40 41  1  0  0  0  0
 42 40  1  0  0  0  0
 43 40  1  0  0  0  0
 44 45  1  0  0  0  0
 46  2  1  1  0  0  0
 46 44  1  0  0  0  0
 46  5  1  0  0  0  0
M  END
