1
 OpenBabel05122313063D

 35 37  0  0  0  0  0  0  0  0999 V2000
    0.1497    0.1108   -1.7055 Se  0  0  0  0  0  1  0  0  0  0  0  0
    1.6824    0.0016   -0.1609 P   0  0  0  0  0  4  0  0  0  0  0  0
    1.7422    1.4729    0.9266 C   0  0  0  0  0  0  0  0  0  0  0  0
    2.6492    1.5142    2.0063 C   0  0  0  0  0  0  0  0  0  0  0  0
    3.3067    0.6573    2.2178 H   0  0  0  0  0  0  0  0  0  0  0  0
    2.7118    2.6577    2.8142 C   0  0  0  0  0  0  0  0  0  0  0  0
    3.4149    2.6897    3.6601 H   0  0  0  0  0  0  0  0  0  0  0  0
    1.8810    3.7583    2.5443 C   0  0  0  0  0  0  0  0  0  0  0  0
    1.9293    4.6515    3.1853 H   0  0  0  0  0  0  0  0  0  0  0  0
    0.9937    3.7212    1.4579 C   0  0  0  0  0  0  0  0  0  0  0  0
    0.3429    4.5813    1.2412 H   0  0  0  0  0  0  0  0  0  0  0  0
    0.9262    2.5820    0.6433 C   0  0  0  0  0  0  0  0  0  0  0  0
    0.2339    2.5354   -0.2109 H   0  0  0  0  0  0  0  0  0  0  0  0
    3.3370   -0.0846   -0.9442 C   0  0  0  0  0  0  0  0  0  0  0  0
    3.5624    0.6267   -2.1396 C   0  0  0  0  0  0  0  0  0  0  0  0
    2.7302    1.1688   -2.6153 H   0  0  0  0  0  0  0  0  0  0  0  0
    4.8385    0.6284   -2.7191 C   0  0  0  0  0  0  0  0  0  0  0  0
    5.0102    1.1805   -3.6553 H   0  0  0  0  0  0  0  0  0  0  0  0
    5.8917   -0.0737   -2.1102 C   0  0  0  0  0  0  0  0  0  0  0  0
    6.8919   -0.0723   -2.5692 H   0  0  0  0  0  0  0  0  0  0  0  0
    5.6678   -0.7813   -0.9189 C   0  0  0  0  0  0  0  0  0  0  0  0
    6.4897   -1.3365   -0.4423 H   0  0  0  0  0  0  0  0  0  0  0  0
    4.3934   -0.7894   -0.3319 C   0  0  0  0  0  0  0  0  0  0  0  0
    4.2188   -1.3548    0.5957 H   0  0  0  0  0  0  0  0  0  0  0  0
    1.5338   -1.4848    0.8850 C   0  0  0  0  0  0  0  0  0  0  0  0
    1.1390   -1.4200    2.2352 C   0  0  0  0  0  0  0  0  0  0  0  0
    0.9540   -0.4500    2.7164 H   0  0  0  0  0  0  0  0  0  0  0  0
    0.9591   -2.6071    2.9618 C   0  0  0  0  0  0  0  0  0  0  0  0
    0.6394   -2.5544    4.0132 H   0  0  0  0  0  0  0  0  0  0  0  0
    1.1720   -3.8506    2.3496 C   0  0  0  0  0  0  0  0  0  0  0  0
    1.0225   -4.7783    2.9220 H   0  0  0  0  0  0  0  0  0  0  0  0
    1.5595   -3.9141    1.0003 C   0  0  0  0  0  0  0  0  0  0  0  0
    1.7110   -4.8890    0.5136 H   0  0  0  0  0  0  0  0  0  0  0  0
    1.7329   -2.7369    0.2639 C   0  0  0  0  0  0  0  0  0  0  0  0
    2.0069   -2.7845   -0.8013 H   0  0  0  0  0  0  0  0  0  0  0  0
  1  2  1  0  0  0  0
  2 25  1  0  0  0  0
  2  3  1  0  0  0  0
  3  4  1  0  0  0  0
  4  5  1  0  0  0  0
  4  6  2  0  0  0  0
  6  7  1  0  0  0  0
  8  6  1  0  0  0  0
  8  9  1  0  0  0  0
 10  8  2  0  0  0  0
 11 10  1  0  0  0  0
 12  3  2  0  0  0  0
 12 10  1  0  0  0  0
 13 12  1  0  0  0  0
 14 23  1  0  0  0  0
 14  2  1  0  0  0  0
 15 14  2  0  0  0  0
 16 15  1  0  0  0  0
 17 15  1  0  0  0  0
 17 19  2  0  0  0  0
 18 17  1  0  0  0  0
 19 21  1  0  0  0  0
 20 19  1  0  0  0  0
 21 22  1  0  0  0  0
 21 23  2  0  0  0  0
 23 24  1  0  0  0  0
 25 26  1  0  0  0  0
 26 27  1  0  0  0  0
 26 28  2  0  0  0  0
 28 29  1  0  0  0  0
 30 31  1  0  0  0  0
 30 28  1  0  0  0  0
 32 30  2  0  0  0  0
 33 32  1  0  0  0  0
 34 25  2  0  0  0  0
 34 32  1  0  0  0  0
 35 34  1  0  0  0  0
M  END
