1
 OpenBabel05122313063D

 35 35  0  0  1  0  0  0  0  0999 V2000
    0.5874   -1.9488    0.0561 Se  0  0  0  0  0  1  0  0  0  0  0  0
   -1.2629   -1.8032    0.1389 C   0  0  1  0  0  3  0  0  0  0  0  0
   -2.0586   -2.8510   -0.1463 N   0  0  0  0  0  0  0  0  0  0  0  0
   -1.8986   -0.5315    0.5831 C   0  0  0  0  0  0  0  0  0  0  0  0
   -2.3250    0.3432   -0.3709 C   0  0  0  0  0  0  0  0  0  0  0  0
   -1.9181   -0.3262    2.0773 C   0  0  0  0  0  0  0  0  0  0  0  0
   -3.5242   -2.7895   -0.0082 C   0  0  0  0  0  0  0  0  0  0  0  0
   -4.2426   -2.5437   -1.3329 C   0  0  0  0  0  0  0  0  0  0  0  0
   -1.5139   -4.1442   -0.5812 C   0  0  0  0  0  0  0  0  0  0  0  0
   -1.1614   -5.0602    0.5899 C   0  0  0  0  0  0  0  0  0  0  0  0
   -2.9524    1.6591   -0.1956 C   0  0  0  0  0  0  0  0  0  0  0  0
   -3.8482    1.9594    0.8585 C   0  0  0  0  0  0  0  0  0  0  0  0
   -4.4097    3.2374    0.9787 C   0  0  0  0  0  0  0  0  0  0  0  0
   -4.0913    4.2415    0.0506 C   0  0  0  0  0  0  0  0  0  0  0  0
   -3.2208    3.9526   -1.0132 C   0  0  0  0  0  0  0  0  0  0  0  0
   -2.6667    2.6737   -1.1421 C   0  0  0  0  0  0  0  0  0  0  0  0
   -2.1051    0.0715   -1.4175 H   0  0  0  0  0  0  0  0  0  0  0  0
   -2.7131   -0.9300    2.5684 H   0  0  0  0  0  0  0  0  0  0  0  0
   -2.0703    0.7357    2.3406 H   0  0  0  0  0  0  0  0  0  0  0  0
   -0.9510   -0.6601    2.5051 H   0  0  0  0  0  0  0  0  0  0  0  0
   -3.8488   -3.7511    0.4428 H   0  0  0  0  0  0  0  0  0  0  0  0
   -3.7733   -1.9908    0.7141 H   0  0  0  0  0  0  0  0  0  0  0  0
   -5.3393   -2.5806   -1.1795 H   0  0  0  0  0  0  0  0  0  0  0  0
   -3.9827   -3.3083   -2.0923 H   0  0  0  0  0  0  0  0  0  0  0  0
   -3.9835   -1.5470   -1.7394 H   0  0  0  0  0  0  0  0  0  0  0  0
   -0.6132   -3.9359   -1.1953 H   0  0  0  0  0  0  0  0  0  0  0  0
   -2.2713   -4.6156   -1.2398 H   0  0  0  0  0  0  0  0  0  0  0  0
   -0.7667   -6.0233    0.2106 H   0  0  0  0  0  0  0  0  0  0  0  0
   -2.0484   -5.2795    1.2183 H   0  0  0  0  0  0  0  0  0  0  0  0
   -0.3821   -4.5978    1.2268 H   0  0  0  0  0  0  0  0  0  0  0  0
   -4.1324    1.1748    1.5738 H   0  0  0  0  0  0  0  0  0  0  0  0
   -5.1083    3.4499    1.8023 H   0  0  0  0  0  0  0  0  0  0  0  0
   -4.5295    5.2460    0.1505 H   0  0  0  0  0  0  0  0  0  0  0  0
   -2.9721    4.7312   -1.7501 H   0  0  0  0  0  0  0  0  0  0  0  0
   -1.9810    2.4504   -1.9736 H   0  0  0  0  0  0  0  0  0  0  0  0
  2  1  1  1  0  0  0
  2  4  1  0  0  0  0
  3  7  1  0  0  0  0
  3  2  1  0  0  0  0
  4  6  1  0  0  0  0
  5 11  1  0  0  0  0
  5  4  2  0  0  0  0
  6 19  1  0  0  0  0
  6 20  1  0  0  0  0
  6 18  1  0  0  0  0
  7 21  1  0  0  0  0
  7 22  1  0  0  0  0
  8 23  1  0  0  0  0
  8  7  1  0  0  0  0
  9  3  1  0  0  0  0
  9 10  1  0  0  0  0
 10 29  1  0  0  0  0
 10 30  1  0  0  0  0
 11 12  1  0  0  0  0
 12 13  2  0  0  0  0
 12 31  1  0  0  0  0
 13 32  1  0  0  0  0
 14 33  1  0  0  0  0
 14 13  1  0  0  0  0
 15 14  2  0  0  0  0
 16 15  1  0  0  0  0
 16 11  2  0  0  0  0
 17  5  1  0  0  0  0
 24  8  1  0  0  0  0
 25  8  1  0  0  0  0
 26  9  1  0  0  0  0
 27  9  1  0  0  0  0
 28 10  1  0  0  0  0
 34 15  1  0  0  0  0
 35 16  1  0  0  0  0
M  END
