1
 OpenBabel05122313063D

 40 41  0  0  0  0  0  0  0  0999 V2000
    1.9102    0.3204   -2.2538 Se  0  0  0  0  0  1  0  0  0  0  0  0
    3.9119   -1.1673   -0.7872 N   0  0  0  0  0  0  0  0  0  0  0  0
    3.9950    1.0090   -0.3835 N   0  0  0  0  0  0  0  0  0  0  0  0
    3.3340    0.0396   -1.0933 C   0  0  0  0  0  3  0  0  0  0  0  0
    4.9414   -0.9697    0.1267 C   0  0  0  0  0  0  0  0  0  0  0  0
    5.8264   -1.8652    0.7443 C   0  0  0  0  0  0  0  0  0  0  0  0
    5.7793   -2.9449    0.5483 H   0  0  0  0  0  0  0  0  0  0  0  0
    6.7665   -1.3229    1.6320 C   0  0  0  0  0  0  0  0  0  0  0  0
    7.4754   -1.9938    2.1388 H   0  0  0  0  0  0  0  0  0  0  0  0
    6.8182    0.0645    1.8941 C   0  0  0  0  0  0  0  0  0  0  0  0
    7.5662    0.4512    2.6016 H   0  0  0  0  0  0  0  0  0  0  0  0
    5.9365    0.9615    1.2747 C   0  0  0  0  0  0  0  0  0  0  0  0
    5.9817    2.0394    1.4793 H   0  0  0  0  0  0  0  0  0  0  0  0
    4.9975    0.4231    0.3835 C   0  0  0  0  0  0  0  0  0  0  0  0
    3.4365   -2.4690   -1.2485 C   0  0  0  0  0  0  0  0  0  0  0  0
    4.3201   -3.0537   -1.5820 H   0  0  0  0  0  0  0  0  0  0  0  0
    2.8026   -2.2677   -2.1360 H   0  0  0  0  0  0  0  0  0  0  0  0
    2.6395   -3.2236   -0.1816 C   0  0  0  0  0  0  0  0  0  0  0  0
    3.2833   -3.4206    0.7031 H   0  0  0  0  0  0  0  0  0  0  0  0
    1.8187   -2.5699    0.1826 H   0  0  0  0  0  0  0  0  0  0  0  0
    2.0560   -4.5336   -0.7147 C   0  0  0  0  0  0  0  0  0  0  0  0
    1.3749   -4.3010   -1.5625 H   0  0  0  0  0  0  0  0  0  0  0  0
    2.8736   -5.1643   -1.1327 H   0  0  0  0  0  0  0  0  0  0  0  0
    1.2860   -5.3103    0.3530 C   0  0  0  0  0  0  0  0  0  0  0  0
    0.4321   -4.7107    0.7293 H   0  0  0  0  0  0  0  0  0  0  0  0
    1.9346   -5.5622    1.2183 H   0  0  0  0  0  0  0  0  0  0  0  0
    0.8780   -6.2585   -0.0509 H   0  0  0  0  0  0  0  0  0  0  0  0
    3.6211    2.4227   -0.3711 C   0  0  0  0  0  0  0  0  0  0  0  0
    3.9244    2.8239    0.6162 H   0  0  0  0  0  0  0  0  0  0  0  0
    2.5144    2.4532   -0.4142 H   0  0  0  0  0  0  0  0  0  0  0  0
    4.2278    3.2250   -1.5239 C   0  0  0  0  0  0  0  0  0  0  0  0
    3.8565    2.7943   -2.4793 H   0  0  0  0  0  0  0  0  0  0  0  0
    3.8050    4.2519   -1.4684 H   0  0  0  0  0  0  0  0  0  0  0  0
    5.7574    3.2935   -1.5333 C   0  0  0  0  0  0  0  0  0  0  0  0
    6.1742    2.2628   -1.5588 H   0  0  0  0  0  0  0  0  0  0  0  0
    6.1126    3.7380   -0.5765 H   0  0  0  0  0  0  0  0  0  0  0  0
    6.3097    4.0967   -2.7112 C   0  0  0  0  0  0  0  0  0  0  0  0
    5.9995    3.6521   -3.6796 H   0  0  0  0  0  0  0  0  0  0  0  0
    7.4174    4.1332   -2.6987 H   0  0  0  0  0  0  0  0  0  0  0  0
    5.9392    5.1430   -2.6960 H   0  0  0  0  0  0  0  0  0  0  0  0
  1  4  1  0  0  0  0
  2  5  1  0  0  0  0
  3 28  1  0  0  0  0
  3 14  1  0  0  0  0
  4  2  1  0  0  0  0
  4  3  1  0  0  0  0
  5 14  2  0  0  0  0
  5  6  1  0  0  0  0
  6  8  2  0  0  0  0
  7  6  1  0  0  0  0
  8 10  1  0  0  0  0
  8  9  1  0  0  0  0
 10 11  1  0  0  0  0
 12 13  1  0  0  0  0
 12 10  2  0  0  0  0
 14 12  1  0  0  0  0
 15  2  1  0  0  0  0
 15 18  1  0  0  0  0
 16 15  1  0  0  0  0
 17 15  1  0  0  0  0
 18 20  1  0  0  0  0
 18 19  1  0  0  0  0
 21 18  1  0  0  0  0
 21 24  1  0  0  0  0
 22 21  1  0  0  0  0
 23 21  1  0  0  0  0
 24 25  1  0  0  0  0
 24 26  1  0  0  0  0
 27 24  1  0  0  0  0
 28 29  1  0  0  0  0
 30 28  1  0  0  0  0
 31 33  1  0  0  0  0
 31 28  1  0  0  0  0
 32 31  1  0  0  0  0
 34 31  1  0  0  0  0
 34 36  1  0  0  0  0
 35 34  1  0  0  0  0
 37 39  1  0  0  0  0
 37 40  1  0  0  0  0
 37 34  1  0  0  0  0
 38 37  1  0  0  0  0
M  END
