1
 OpenBabel05122313063D

 17 17  0  0  0  0  0  0  0  0999 V2000
   -1.1322   -1.9317   -1.5670 Se  0  0  0  0  0  1  0  0  0  0  0  0
   -1.4594   -1.9338    1.2052 O   0  0  0  0  0  0  0  0  0  0  0  0
   -1.7036   -2.5467    0.1650 C   0  0  0  0  0  0  0  0  0  0  0  0
   -2.4883   -3.8349    0.2202 C   0  0  0  0  0  0  0  0  0  0  0  0
   -2.8121   -4.6103   -0.9120 C   0  0  0  0  0  0  0  0  0  0  0  0
   -2.4755   -4.2640   -1.9017 H   0  0  0  0  0  0  0  0  0  0  0  0
   -3.5446   -5.7947   -0.7787 C   0  0  0  0  0  0  0  0  0  0  0  0
   -3.7875   -6.3862   -1.6770 H   0  0  0  0  0  0  0  0  0  0  0  0
   -3.9788   -6.2483    0.4862 C   0  0  0  0  0  0  0  0  0  0  0  0
   -3.6515   -5.4691    1.6140 C   0  0  0  0  0  0  0  0  0  0  0  0
   -3.9800   -5.8033    2.6122 H   0  0  0  0  0  0  0  0  0  0  0  0
   -2.9191   -4.2825    1.4855 C   0  0  0  0  0  0  0  0  0  0  0  0
   -2.6571   -3.6649    2.3575 H   0  0  0  0  0  0  0  0  0  0  0  0
   -4.7652   -7.5295    0.6155 C   0  0  0  0  0  0  0  0  0  0  0  0
   -4.1816   -8.4022    0.2519 H   0  0  0  0  0  0  0  0  0  0  0  0
   -5.6972   -7.4970    0.0120 H   0  0  0  0  0  0  0  0  0  0  0  0
   -5.0499   -7.7293    1.6673 H   0  0  0  0  0  0  0  0  0  0  0  0
  1  3  1  0  0  0  0
  3  4  1  0  0  0  0
  3  2  2  0  0  0  0
  4 12  1  0  0  0  0
  5  7  1  0  0  0  0
  5  4  2  0  0  0  0
  6  5  1  0  0  0  0
  7  9  2  0  0  0  0
  8  7  1  0  0  0  0
  9 14  1  0  0  0  0
  9 10  1  0  0  0  0
 10 11  1  0  0  0  0
 12 10  2  0  0  0  0
 12 13  1  0  0  0  0
 14 17  1  0  0  0  0
 15 14  1  0  0  0  0
 16 14  1  0  0  0  0
M  END
