1
 OpenBabel05122313063D

 28 28  0  0  1  0  0  0  0  0999 V2000
   -0.6855   -1.7000   -0.9192 Se  0  0  0  0  0  1  0  0  0  0  0  0
   -3.3138   -0.6894   -0.2220 N   0  0  0  0  0  0  0  0  0  0  0  0
   -2.1185    0.8043   -1.2763 N   0  0  0  0  0  0  0  0  0  0  0  0
   -2.1034   -0.4849   -0.8203 C   0  0  1  0  0  3  0  0  0  0  0  0
   -3.6516   -1.9061    0.5087 C   0  0  0  0  0  0  0  0  0  0  0  0
   -4.3566   -1.6230    1.3135 H   0  0  0  0  0  0  0  0  0  0  0  0
   -2.7115   -2.2407    0.9939 H   0  0  0  0  0  0  0  0  0  0  0  0
   -4.2254   -3.0013   -0.3851 C   0  0  0  0  0  0  0  0  0  0  0  0
   -5.1548   -2.6702   -0.8914 H   0  0  0  0  0  0  0  0  0  0  0  0
   -4.4614   -3.9002    0.2185 H   0  0  0  0  0  0  0  0  0  0  0  0
   -3.4848   -3.2898   -1.1571 H   0  0  0  0  0  0  0  0  0  0  0  0
   -4.0833    0.4746   -0.2801 C   0  0  0  0  0  0  0  0  0  0  0  0
   -5.4140    0.5930    0.3764 C   0  0  0  0  0  0  0  0  0  0  0  0
   -5.8918    1.5517    0.1018 H   0  0  0  0  0  0  0  0  0  0  0  0
   -5.3148    0.5775    1.4832 H   0  0  0  0  0  0  0  0  0  0  0  0
   -6.1050   -0.2243    0.0841 H   0  0  0  0  0  0  0  0  0  0  0  0
   -3.3280    1.4178   -0.9422 C   0  0  0  0  0  0  0  0  0  0  0  0
   -3.5949    2.8600   -1.1940 C   0  0  0  0  0  0  0  0  0  0  0  0
   -3.3994    3.1516   -2.2466 H   0  0  0  0  0  0  0  0  0  0  0  0
   -2.9649    3.4971   -0.5359 H   0  0  0  0  0  0  0  0  0  0  0  0
   -4.6512    3.0985   -0.9698 H   0  0  0  0  0  0  0  0  0  0  0  0
   -0.9388    1.4729   -1.8098 C   0  0  0  0  0  0  0  0  0  0  0  0
   -0.0815    1.1004   -1.2105 H   0  0  0  0  0  0  0  0  0  0  0  0
   -1.0459    2.5528   -1.5928 H   0  0  0  0  0  0  0  0  0  0  0  0
   -0.7154    1.2155   -3.2962 C   0  0  0  0  0  0  0  0  0  0  0  0
   -0.5831    0.1297   -3.4747 H   0  0  0  0  0  0  0  0  0  0  0  0
    0.2018    1.7364   -3.6371 H   0  0  0  0  0  0  0  0  0  0  0  0
   -1.5671    1.5750   -3.9082 H   0  0  0  0  0  0  0  0  0  0  0  0
  2  5  1  0  0  0  0
  3 17  1  0  0  0  0
  3  4  1  0  0  0  0
  4  1  1  1  0  0  0
  4  2  1  0  0  0  0
  5  7  1  0  0  0  0
  5  6  1  0  0  0  0
  8 10  1  0  0  0  0
  8  5  1  0  0  0  0
  9  8  1  0  0  0  0
 11  8  1  0  0  0  0
 12  2  1  0  0  0  0
 12 13  1  0  0  0  0
 13 15  1  0  0  0  0
 14 13  1  0  0  0  0
 16 13  1  0  0  0  0
 17 12  2  0  0  0  0
 18 21  1  0  0  0  0
 18 17  1  0  0  0  0
 18 20  1  0  0  0  0
 19 18  1  0  0  0  0
 22 24  1  0  0  0  0
 22  3  1  0  0  0  0
 22 23  1  0  0  0  0
 25 22  1  0  0  0  0
 26 25  1  0  0  0  0
 27 25  1  0  0  0  0
 28 25  1  0  0  0  0
M  END
