1
 OpenBabel05122313063D

 12 12  0  0  0  0  0  0  0  0999 V2000
   -1.8880   -2.1901   -0.1664 Se  0  0  0  0  0  1  0  0  0  0  0  0
   -7.2525    1.4411    0.3795 Cl  0  0  0  0  0  0  0  0  0  0  0  0
   -3.4265   -1.0570   -0.0553 C   0  0  0  0  0  0  0  0  0  0  0  0
   -3.3664    0.3174    0.2752 C   0  0  0  0  0  0  0  0  0  0  0  0
   -2.3866    0.7954    0.4139 H   0  0  0  0  0  0  0  0  0  0  0  0
   -4.5310    1.0839    0.4073 C   0  0  0  0  0  0  0  0  0  0  0  0
   -4.4671    2.1514    0.6639 H   0  0  0  0  0  0  0  0  0  0  0  0
   -5.7848    0.4830    0.2132 C   0  0  0  0  0  0  0  0  0  0  0  0
   -5.8772   -0.8785   -0.1162 C   0  0  0  0  0  0  0  0  0  0  0  0
   -6.8647   -1.3378   -0.2710 H   0  0  0  0  0  0  0  0  0  0  0  0
   -4.7050   -1.6340   -0.2521 C   0  0  0  0  0  0  0  0  0  0  0  0
   -4.7778   -2.7005   -0.5176 H   0  0  0  0  0  0  0  0  0  0  0  0
  1  3  1  0  0  0  0
  3  4  1  0  0  0  0
  4  6  2  0  0  0  0
  4  5  1  0  0  0  0
  6  7  1  0  0  0  0
  8  2  1  0  0  0  0
  8  6  1  0  0  0  0
  9  8  2  0  0  0  0
 10  9  1  0  0  0  0
 11  9  1  0  0  0  0
 11  3  2  0  0  0  0
 12 11  1  0  0  0  0
M  END
