1
 OpenBabel05122313063D

 66 68  0  0  1  0  0  0  0  0999 V2000
    0.5166    0.0174   -1.2861 Se  0  0  0  0  0  1  0  0  0  0  0  0
    0.0560   -0.0087    1.6454 N   0  0  0  0  0  0  0  0  0  0  0  0
    2.1592    0.0058    1.0407 N   0  0  0  0  0  0  0  0  0  0  0  0
    0.8766    0.0042    0.5452 C   0  0  1  0  0  3  0  0  0  0  0  0
    0.8249   -0.0146    2.8087 C   0  0  0  0  0  0  0  0  0  0  0  0
    2.1394   -0.0054    2.4314 C   0  0  0  0  0  0  0  0  0  0  0  0
   -1.3845   -0.0246    1.6640 C   0  0  0  0  0  0  0  0  0  0  0  0
   -2.0407   -1.2784    1.6758 C   0  0  0  0  0  0  0  0  0  0  0  0
   -3.4443   -1.2646    1.7504 C   0  0  0  0  0  0  0  0  0  0  0  0
   -4.1522   -0.0584    1.8026 C   0  0  0  0  0  0  0  0  0  0  0  0
   -3.4718    1.1646    1.7923 C   0  0  0  0  0  0  0  0  0  0  0  0
   -2.0688    1.2126    1.7189 C   0  0  0  0  0  0  0  0  0  0  0  0
   -1.2781   -2.5934    1.5778 C   0  0  0  0  0  0  0  0  0  0  0  0
   -1.4444   -3.4317    2.8566 C   0  0  0  0  0  0  0  0  0  0  0  0
   -1.6778   -3.3813    0.3189 C   0  0  0  0  0  0  0  0  0  0  0  0
   -1.3364    2.5471    1.6640 C   0  0  0  0  0  0  0  0  0  0  0  0
   -1.5361    3.3485    2.9614 C   0  0  0  0  0  0  0  0  0  0  0  0
   -1.7417    3.3573    0.4210 C   0  0  0  0  0  0  0  0  0  0  0  0
    3.3413    0.0076    0.2226 C   0  0  0  0  0  0  0  0  0  0  0  0
    3.8886   -1.2376   -0.1677 C   0  0  0  0  0  0  0  0  0  0  0  0
    5.0448   -1.2068   -0.9690 C   0  0  0  0  0  0  0  0  0  0  0  0
    5.6178    0.0093   -1.3622 C   0  0  0  0  0  0  0  0  0  0  0  0
    5.0457    1.2245   -0.9652 C   0  0  0  0  0  0  0  0  0  0  0  0
    3.8892    1.2535   -0.1640 C   0  0  0  0  0  0  0  0  0  0  0  0
    3.2574   -2.5640    0.2366 C   0  0  0  0  0  0  0  0  0  0  0  0
    4.2260   -3.4153    1.0744 C   0  0  0  0  0  0  0  0  0  0  0  0
    2.7354   -3.3300   -0.9915 C   0  0  0  0  0  0  0  0  0  0  0  0
    3.2595    2.5788    0.2455 C   0  0  0  0  0  0  0  0  0  0  0  0
    4.2242    3.4176    1.1005 C   0  0  0  0  0  0  0  0  0  0  0  0
    2.7535    3.3582   -0.9806 C   0  0  0  0  0  0  0  0  0  0  0  0
    0.3506   -0.0247    3.7934 H   0  0  0  0  0  0  0  0  0  0  0  0
    3.0649   -0.0060    3.0130 H   0  0  0  0  0  0  0  0  0  0  0  0
   -3.9942   -2.2172    1.7365 H   0  0  0  0  0  0  0  0  0  0  0  0
   -5.2513   -0.0713    1.8297 H   0  0  0  0  0  0  0  0  0  0  0  0
   -4.0431    2.1044    1.8105 H   0  0  0  0  0  0  0  0  0  0  0  0
   -0.1992   -2.3528    1.4795 H   0  0  0  0  0  0  0  0  0  0  0  0
   -2.5052   -3.7149    3.0164 H   0  0  0  0  0  0  0  0  0  0  0  0
   -1.1082   -2.8751    3.7551 H   0  0  0  0  0  0  0  0  0  0  0  0
   -0.8539   -4.3685    2.7906 H   0  0  0  0  0  0  0  0  0  0  0  0
   -1.5471   -2.7616   -0.5912 H   0  0  0  0  0  0  0  0  0  0  0  0
   -2.7399   -3.6986    0.3578 H   0  0  0  0  0  0  0  0  0  0  0  0
   -1.0548   -4.2938    0.2188 H   0  0  0  0  0  0  0  0  0  0  0  0
   -0.2510    2.3339    1.5721 H   0  0  0  0  0  0  0  0  0  0  0  0
   -1.1979    2.7769    3.8497 H   0  0  0  0  0  0  0  0  0  0  0  0
   -2.6045    3.6045    3.1156 H   0  0  0  0  0  0  0  0  0  0  0  0
   -0.9660    4.2994    2.9260 H   0  0  0  0  0  0  0  0  0  0  0  0
   -2.8129    3.6428    0.4538 H   0  0  0  0  0  0  0  0  0  0  0  0
   -1.5821    2.7668   -0.5037 H   0  0  0  0  0  0  0  0  0  0  0  0
   -1.1439    4.2895    0.3541 H   0  0  0  0  0  0  0  0  0  0  0  0
    5.4998   -2.1543   -1.2953 H   0  0  0  0  0  0  0  0  0  0  0  0
    6.5206    0.0100   -1.9916 H   0  0  0  0  0  0  0  0  0  0  0  0
    5.5013    2.1727   -1.2882 H   0  0  0  0  0  0  0  0  0  0  0  0
    2.3791   -2.3396    0.8761 H   0  0  0  0  0  0  0  0  0  0  0  0
    4.5709   -2.8707    1.9766 H   0  0  0  0  0  0  0  0  0  0  0  0
    5.1253   -3.7009    0.4907 H   0  0  0  0  0  0  0  0  0  0  0  0
    3.7329   -4.3519    1.4052 H   0  0  0  0  0  0  0  0  0  0  0  0
    3.5632   -3.6144   -1.6735 H   0  0  0  0  0  0  0  0  0  0  0  0
    2.0116   -2.7143   -1.5613 H   0  0  0  0  0  0  0  0  0  0  0  0
    2.2232   -4.2619   -0.6761 H   0  0  0  0  0  0  0  0  0  0  0  0
    2.3739    2.3523    0.8740 H   0  0  0  0  0  0  0  0  0  0  0  0
    3.7333    4.3544    1.4339 H   0  0  0  0  0  0  0  0  0  0  0  0
    5.1313    3.7021    0.5284 H   0  0  0  0  0  0  0  0  0  0  0  0
    4.5564    2.8636    2.0017 H   0  0  0  0  0  0  0  0  0  0  0  0
    3.5892    3.6455   -1.6517 H   0  0  0  0  0  0  0  0  0  0  0  0
    2.2421    4.2894   -0.6619 H   0  0  0  0  0  0  0  0  0  0  0  0
    2.0328    2.7509   -1.5632 H   0  0  0  0  0  0  0  0  0  0  0  0
  2  7  1  0  0  0  0
  2  5  1  0  0  0  0
  3  6  1  0  0  0  0
  4  1  1  6  0  0  0
  4  3  1  0  0  0  0
  4  2  1  0  0  0  0
  5 31  1  0  0  0  0
  6  5  2  0  0  0  0
  6 32  1  0  0  0  0
  7  8  2  0  0  0  0
  7 12  1  0  0  0  0
  8  9  1  0  0  0  0
  9 10  2  0  0  0  0
 10 34  1  0  0  0  0
 11 10  1  0  0  0  0
 11 35  1  0  0  0  0
 12 11  2  0  0  0  0
 13  8  1  0  0  0  0
 13 14  1  0  0  0  0
 14 37  1  0  0  0  0
 14 38  1  0  0  0  0
 15 41  1  0  0  0  0
 15 13  1  0  0  0  0
 16 12  1  0  0  0  0
 16 17  1  0  0  0  0
 17 45  1  0  0  0  0
 17 44  1  0  0  0  0
 18 47  1  0  0  0  0
 18 16  1  0  0  0  0
 19  3  1  0  0  0  0
 20 19  2  0  0  0  0
 20 25  1  0  0  0  0
 21 20  1  0  0  0  0
 22 21  2  0  0  0  0
 22 23  1  0  0  0  0
 23 24  2  0  0  0  0
 24 19  1  0  0  0  0
 24 28  1  0  0  0  0
 25 53  1  0  0  0  0
 25 26  1  0  0  0  0
 26 56  1  0  0  0  0
 26 54  1  0  0  0  0
 27 59  1  0  0  0  0
 27 25  1  0  0  0  0
 28 60  1  0  0  0  0
 28 29  1  0  0  0  0
 29 61  1  0  0  0  0
 29 63  1  0  0  0  0
 30 65  1  0  0  0  0
 30 28  1  0  0  0  0
 33  9  1  0  0  0  0
 36 13  1  0  0  0  0
 39 14  1  0  0  0  0
 40 15  1  0  0  0  0
 42 15  1  0  0  0  0
 43 16  1  0  0  0  0
 46 17  1  0  0  0  0
 48 18  1  0  0  0  0
 49 18  1  0  0  0  0
 50 21  1  0  0  0  0
 51 22  1  0  0  0  0
 52 23  1  0  0  0  0
 55 26  1  0  0  0  0
 57 27  1  0  0  0  0
 58 27  1  0  0  0  0
 62 29  1  0  0  0  0
 64 30  1  0  0  0  0
 66 30  1  0  0  0  0
M  END
