1
 OpenBabel05122313063D

 48 50  0  0  1  0  0  0  0  0999 V2000
    0.7664   -1.0167   -0.1029 Se  0  0  0  0  0  1  0  0  0  0  0  0
    0.0846    1.8671    0.0739 N   0  0  0  0  0  0  0  0  0  0  0  0
    2.2294    1.4176    0.0703 N   0  0  0  0  0  0  0  0  0  0  0  0
    0.9858    0.8332    0.0203 C   0  0  2  0  0  3  0  0  0  0  0  0
    0.7668    3.0810    0.1577 C   0  0  0  0  0  0  0  0  0  0  0  0
    2.1055    2.8015    0.1550 C   0  0  0  0  0  0  0  0  0  0  0  0
   -1.3521    1.7773    0.0401 C   0  0  0  0  0  0  0  0  0  0  0  0
   -2.0538    1.7171    1.2637 C   0  0  0  0  0  0  0  0  0  0  0  0
   -3.4539    1.6478    1.2008 C   0  0  0  0  0  0  0  0  0  0  0  0
   -4.1437    1.6239   -0.0255 C   0  0  0  0  0  0  0  0  0  0  0  0
   -3.4005    1.7090   -1.2172 C   0  0  0  0  0  0  0  0  0  0  0  0
   -1.9988    1.7810   -1.2146 C   0  0  0  0  0  0  0  0  0  0  0  0
   -1.3137    1.6396    2.5727 C   0  0  0  0  0  0  0  0  0  0  0  0
   -5.6317    1.4107   -0.0627 C   0  0  0  0  0  0  0  0  0  0  0  0
   -1.2015    1.7775   -2.4918 C   0  0  0  0  0  0  0  0  0  0  0  0
    3.4724    0.6963    0.0415 C   0  0  0  0  0  0  0  0  0  0  0  0
    4.0352    0.2707    1.2646 C   0  0  0  0  0  0  0  0  0  0  0  0
    5.2576   -0.4183    1.2089 C   0  0  0  0  0  0  0  0  0  0  0  0
    5.9045   -0.6903   -0.0127 C   0  0  0  0  0  0  0  0  0  0  0  0
    5.2976   -0.2555   -1.2055 C   0  0  0  0  0  0  0  0  0  0  0  0
    4.0746    0.4379   -1.2076 C   0  0  0  0  0  0  0  0  0  0  0  0
    3.3201    0.5185    2.5664 C   0  0  0  0  0  0  0  0  0  0  0  0
    7.2004   -1.4603   -0.0369 C   0  0  0  0  0  0  0  0  0  0  0  0
    3.4030    0.8603   -2.4877 C   0  0  0  0  0  0  0  0  0  0  0  0
    0.2221    4.0275    0.2089 H   0  0  0  0  0  0  0  0  0  0  0  0
    2.9848    3.4492    0.2053 H   0  0  0  0  0  0  0  0  0  0  0  0
   -4.0220    1.5647    2.1402 H   0  0  0  0  0  0  0  0  0  0  0  0
   -3.9267    1.6785   -2.1840 H   0  0  0  0  0  0  0  0  0  0  0  0
   -0.5589    2.4455    2.6817 H   0  0  0  0  0  0  0  0  0  0  0  0
   -0.7721    0.6716    2.6463 H   0  0  0  0  0  0  0  0  0  0  0  0
   -2.0119    1.7008    3.4281 H   0  0  0  0  0  0  0  0  0  0  0  0
   -6.1345    1.8303    0.8305 H   0  0  0  0  0  0  0  0  0  0  0  0
   -5.8217    0.3158   -0.0766 H   0  0  0  0  0  0  0  0  0  0  0  0
   -6.0925    1.8479   -0.9699 H   0  0  0  0  0  0  0  0  0  0  0  0
   -0.4282    2.5729   -2.5091 H   0  0  0  0  0  0  0  0  0  0  0  0
   -1.8580    1.9125   -3.3714 H   0  0  0  0  0  0  0  0  0  0  0  0
   -0.6738    0.8058   -2.6077 H   0  0  0  0  0  0  0  0  0  0  0  0
    5.7156   -0.7588    2.1513 H   0  0  0  0  0  0  0  0  0  0  0  0
    5.7871   -0.4673   -2.1693 H   0  0  0  0  0  0  0  0  0  0  0  0
    3.9320    0.1909    3.4273 H   0  0  0  0  0  0  0  0  0  0  0  0
    2.3608   -0.0419    2.5920 H   0  0  0  0  0  0  0  0  0  0  0  0
    3.0702    1.5903    2.7066 H   0  0  0  0  0  0  0  0  0  0  0  0
    7.0157   -2.5458    0.1113 H   0  0  0  0  0  0  0  0  0  0  0  0
    7.8818   -1.1361    0.7749 H   0  0  0  0  0  0  0  0  0  0  0  0
    7.7296   -1.3432   -1.0021 H   0  0  0  0  0  0  0  0  0  0  0  0
    3.1663    1.9442   -2.4956 H   0  0  0  0  0  0  0  0  0  0  0  0
    2.4406    0.3199   -2.6161 H   0  0  0  0  0  0  0  0  0  0  0  0
    4.0397    0.6397   -3.3645 H   0  0  0  0  0  0  0  0  0  0  0  0
  2  5  1  0  0  0  0
  3  6  1  0  0  0  0
  4  1  1  6  0  0  0
  4  3  1  0  0  0  0
  4  2  1  0  0  0  0
  5 25  1  0  0  0  0
  6  5  2  0  0  0  0
  6 26  1  0  0  0  0
  7  2  1  0  0  0  0
  7  8  1  0  0  0  0
  8 13  1  0  0  0  0
  9  8  2  0  0  0  0
  9 27  1  0  0  0  0
 10  9  1  0  0  0  0
 11 12  1  0  0  0  0
 11 10  2  0  0  0  0
 12  7  2  0  0  0  0
 13 30  1  0  0  0  0
 13 29  1  0  0  0  0
 13 31  1  0  0  0  0
 14 10  1  0  0  0  0
 14 32  1  0  0  0  0
 15 12  1  0  0  0  0
 16  3  1  0  0  0  0
 16 17  1  0  0  0  0
 17 22  1  0  0  0  0
 18 17  2  0  0  0  0
 18 38  1  0  0  0  0
 19 18  1  0  0  0  0
 20 19  2  0  0  0  0
 21 20  1  0  0  0  0
 21 16  2  0  0  0  0
 22 41  1  0  0  0  0
 22 42  1  0  0  0  0
 22 40  1  0  0  0  0
 23 19  1  0  0  0  0
 23 43  1  0  0  0  0
 23 44  1  0  0  0  0
 24 21  1  0  0  0  0
 28 11  1  0  0  0  0
 33 14  1  0  0  0  0
 34 14  1  0  0  0  0
 35 15  1  0  0  0  0
 36 15  1  0  0  0  0
 37 15  1  0  0  0  0
 39 20  1  0  0  0  0
 45 23  1  0  0  0  0
 46 24  1  0  0  0  0
 47 24  1  0  0  0  0
 48 24  1  0  0  0  0
M  END
