1
 OpenBabel05122313063D

 18 18  0  0  0  0  0  0  0  0999 V2000
   -1.2055   -2.3049   -1.8118 Se  0  0  0  0  0  1  0  0  0  0  0  0
   -3.5543   -2.6653   -0.2008 N   0  0  0  0  0  0  0  0  0  0  0  0
   -3.5377   -0.7000   -1.2244 N   0  0  0  0  0  0  0  0  0  0  0  0
   -2.8647   -1.8500   -1.0248 C   0  0  0  0  0  3  0  0  0  0  0  0
   -4.8509   -2.0769    0.1588 C   0  0  0  0  0  0  0  0  0  0  0  0
   -5.0062   -2.1300    1.2552 H   0  0  0  0  0  0  0  0  0  0  0  0
   -5.6731   -2.6431   -0.3318 H   0  0  0  0  0  0  0  0  0  0  0  0
   -4.7248   -0.6322   -0.3620 C   0  0  0  0  0  0  0  0  0  0  0  0
   -5.6082   -0.3002   -0.9429 H   0  0  0  0  0  0  0  0  0  0  0  0
   -4.5466    0.1054    0.4510 H   0  0  0  0  0  0  0  0  0  0  0  0
   -3.1896   -4.0008    0.2170 C   0  0  0  0  0  0  0  0  0  0  0  0
   -2.1471   -4.1983   -0.0960 H   0  0  0  0  0  0  0  0  0  0  0  0
   -3.8580   -4.7591   -0.2438 H   0  0  0  0  0  0  0  0  0  0  0  0
   -3.2656   -4.0841    1.3208 H   0  0  0  0  0  0  0  0  0  0  0  0
   -3.0900    0.4520   -1.9764 C   0  0  0  0  0  0  0  0  0  0  0  0
   -2.3221    0.1308   -2.7040 H   0  0  0  0  0  0  0  0  0  0  0  0
   -2.6532    1.2234   -1.3071 H   0  0  0  0  0  0  0  0  0  0  0  0
   -3.9513    0.8919   -2.5175 H   0  0  0  0  0  0  0  0  0  0  0  0
  1  4  1  0  0  0  0
  2  5  1  0  0  0  0
  2 11  1  0  0  0  0
  3  4  1  0  0  0  0
  3  8  1  0  0  0  0
  4  2  1  0  0  0  0
  5  6  1  0  0  0  0
  7  5  1  0  0  0  0
  8  5  1  0  0  0  0
  8 10  1  0  0  0  0
  9  8  1  0  0  0  0
 11 14  1  0  0  0  0
 12 11  1  0  0  0  0
 13 11  1  0  0  0  0
 15 17  1  0  0  0  0
 15  3  1  0  0  0  0
 16 15  1  0  0  0  0
 18 15  1  0  0  0  0
M  END
