1
 OpenBabel05122313063D

 15 15  0  0  0  0  0  0  0  0999 V2000
    0.4722    1.9995   -0.8719 Se  0  0  0  0  0  1  0  0  0  0  0  0
    1.3904    4.6129   -1.5039 O   0  0  0  0  0  0  0  0  0  0  0  0
    1.8158    1.6709    1.5586 N   0  0  0  0  0  0  0  0  0  0  0  0
    3.4233    5.4878   -0.9583 N   0  0  0  0  0  0  0  0  0  0  0  0
    3.3819    6.0448   -1.8128 H   0  0  0  0  0  0  0  0  0  0  0  0
    4.3452    5.2968   -0.5688 H   0  0  0  0  0  0  0  0  0  0  0  0
    1.7070    2.5043    0.4996 C   0  0  0  0  0  0  0  0  0  0  0  0
    2.6514    1.9679    2.5596 C   0  0  0  0  0  0  0  0  0  0  0  0
    2.6882    1.2388    3.3892 H   0  0  0  0  0  0  0  0  0  0  0  0
    3.4352    3.1319    2.5950 C   0  0  0  0  0  0  0  0  0  0  0  0
    4.0889    3.3512    3.4510 H   0  0  0  0  0  0  0  0  0  0  0  0
    3.3363    4.0035    1.5035 C   0  0  0  0  0  0  0  0  0  0  0  0
    3.9072    4.9455    1.5010 H   0  0  0  0  0  0  0  0  0  0  0  0
    2.4871    3.7054    0.4225 C   0  0  0  0  0  0  0  0  0  0  0  0
    2.3719    4.6185   -0.7597 C   0  0  0  0  0  0  0  0  0  0  0  0
  1  7  1  0  0  0  0
  2 15  2  0  0  0  0
  3  8  1  0  0  0  0
  4 15  1  0  0  0  0
  4  6  1  0  0  0  0
  5  4  1  0  0  0  0
  7  3  2  0  0  0  0
  8 10  2  0  0  0  0
  8  9  1  0  0  0  0
 10 11  1  0  0  0  0
 12 10  1  0  0  0  0
 13 12  1  0  0  0  0
 14  7  1  0  0  0  0
 14 12  2  0  0  0  0
 15 14  1  0  0  0  0
M  END
