1
 OpenBabel05122313063D

  5  4  0  0  0  0  0  0  0  0999 V2000
   -0.0342   -1.6361   -1.3638 Se  0  0  0  0  0  1  0  0  0  0  0  0
    0.6970   -3.3255   -0.6450 C   0  0  0  0  0  0  0  0  0  0  0  0
    1.7635   -3.2203   -0.3626 H   0  0  0  0  0  0  0  0  0  0  0  0
    0.1247   -3.6841    0.2313 H   0  0  0  0  0  0  0  0  0  0  0  0
    0.6202   -4.0735   -1.4576 H   0  0  0  0  0  0  0  0  0  0  0  0
  1  2  1  0  0  0  0
  2  3  1  0  0  0  0
  2  4  1  0  0  0  0
  5  2  1  0  0  0  0
M  END
