1
 OpenBabel05122313063D

 41 42  0  0  1  0  0  0  0  0999 V2000
   -1.8929    0.6867   -1.9460 Se  0  0  0  0  0  1  0  0  0  0  0  0
    0.4560    0.6707    1.8341 Se  0  0  0  0  0  1  0  0  0  0  0  0
   -1.7052    3.0811   -0.3370 N   0  0  0  0  0  0  0  0  0  0  0  0
   -2.9032    1.5363    0.6434 N   0  0  0  0  0  0  0  0  0  0  0  0
    2.3225    2.5222    0.6294 N   0  0  0  0  0  0  0  0  0  0  0  0
    3.3080    0.6806    1.2802 N   0  0  0  0  0  0  0  0  0  0  0  0
   -5.6106    1.3046    1.6530 O   0  0  0  0  0  0  0  0  0  0  0  0
   -6.5405    1.4781    1.4250 H   0  0  0  0  0  0  0  0  0  0  0  0
    0.6597    3.1896   -1.0911 C   0  0  0  0  0  0  0  0  0  0  0  0
    0.6422    2.0947   -1.2747 H   0  0  0  0  0  0  0  0  0  0  0  0
    1.2977    3.6198   -1.8902 H   0  0  0  0  0  0  0  0  0  0  0  0
    2.0934    1.3096    1.2295 C   0  0  2  0  0  3  0  0  0  0  0  0
    1.2606    3.4623    0.2940 C   0  0  0  0  0  0  0  0  0  0  0  0
    1.6704    4.4890    0.3807 H   0  0  0  0  0  0  0  0  0  0  0  0
    0.4877    3.3265    1.0790 H   0  0  0  0  0  0  0  0  0  0  0  0
   -2.1668    1.7963   -0.4847 C   0  0  1  0  0  3  0  0  0  0  0  0
   -0.7667    3.7224   -1.2566 C   0  0  0  0  0  0  0  0  0  0  0  0
   -0.8332    4.8156   -1.0827 H   0  0  0  0  0  0  0  0  0  0  0  0
   -1.1151    3.5093   -2.2868 H   0  0  0  0  0  0  0  0  0  0  0  0
   -2.9126    2.6437    1.4749 C   0  0  0  0  0  0  0  0  0  0  0  0
   -3.4761    2.6442    2.4105 H   0  0  0  0  0  0  0  0  0  0  0  0
   -2.1592    3.6123    0.8642 C   0  0  0  0  0  0  0  0  0  0  0  0
   -1.9158    4.6317    1.1766 H   0  0  0  0  0  0  0  0  0  0  0  0
   -3.5899    0.2776    0.9179 C   0  0  0  0  0  0  0  0  0  0  0  0
   -3.3645   -0.0164    1.9622 H   0  0  0  0  0  0  0  0  0  0  0  0
   -3.1591   -0.4927    0.2481 H   0  0  0  0  0  0  0  0  0  0  0  0
    3.6630    2.6442    0.3032 C   0  0  0  0  0  0  0  0  0  0  0  0
    4.0623    3.5288   -0.2002 H   0  0  0  0  0  0  0  0  0  0  0  0
    4.2795    1.4920    0.7176 C   0  0  0  0  0  0  0  0  0  0  0  0
    5.3221    1.1729    0.6399 H   0  0  0  0  0  0  0  0  0  0  0  0
   -5.0913    0.3797    0.7109 C   0  0  0  0  0  0  0  0  0  0  0  0
   -5.2869    0.6912   -0.3430 H   0  0  0  0  0  0  0  0  0  0  0  0
   -5.5160   -0.6447    0.8408 H   0  0  0  0  0  0  0  0  0  0  0  0
    3.5493   -0.6778    1.7759 C   0  0  0  0  0  0  0  0  0  0  0  0
    4.4769   -1.0229    1.2806 H   0  0  0  0  0  0  0  0  0  0  0  0
    2.7195   -1.3219    1.4186 H   0  0  0  0  0  0  0  0  0  0  0  0
    2.4727   -0.8873    3.9999 O   0  0  0  0  0  0  0  0  0  0  0  0
    1.7871   -0.3523    3.5326 H   0  0  0  0  0  0  0  0  0  0  0  0
    3.6810   -0.7808    3.3025 C   0  0  0  0  0  0  0  0  0  0  0  0
    4.2714   -1.6995    3.5172 H   0  0  0  0  0  0  0  0  0  0  0  0
    4.3138    0.0814    3.6467 H   0  0  0  0  0  0  0  0  0  0  0  0
  3 22  1  0  0  0  0
  4 24  1  0  0  0  0
  4 20  1  0  0  0  0
  5 12  1  0  0  0  0
  6 34  1  0  0  0  0
  8  7  1  0  0  0  0
  9 13  1  0  0  0  0
 10  9  1  0  0  0  0
 11  9  1  0  0  0  0
 12  6  1  0  0  0  0
 12  2  1  6  0  0  0
 13 14  1  0  0  0  0
 13  5  1  0  0  0  0
 13 15  1  0  0  0  0
 16  1  1  6  0  0  0
 16  3  1  0  0  0  0
 16  4  1  0  0  0  0
 17  9  1  0  0  0  0
 17 18  1  0  0  0  0
 17  3  1  0  0  0  0
 19 17  1  0  0  0  0
 20 21  1  0  0  0  0
 22 23  1  0  0  0  0
 22 20  2  0  0  0  0
 24 25  1  0  0  0  0
 26 24  1  0  0  0  0
 27  5  1  0  0  0  0
 27 29  2  0  0  0  0
 28 27  1  0  0  0  0
 29  6  1  0  0  0  0
 30 29  1  0  0  0  0
 31 33  1  0  0  0  0
 31 24  1  0  0  0  0
 31  7  1  0  0  0  0
 32 31  1  0  0  0  0
 34 39  1  0  0  0  0
 35 34  1  0  0  0  0
 36 34  1  0  0  0  0
 38 37  1  0  0  0  0
 39 40  1  0  0  0  0
 39 41  1  0  0  0  0
 39 37  1  0  0  0  0
M  END
