1
 OpenBabel05122313063D

 41 44  0  0  1  0  0  0  0  0999 V2000
    1.3772   -2.0442   -0.0996 Se  0  0  0  0  0  1  0  0  0  0  0  0
   -2.7418    0.0587   -0.0390 N   0  0  0  0  0  0  0  0  0  0  0  0
   -0.3665    0.1608   -0.0853 N   0  0  0  0  0  0  0  0  0  0  0  0
   -0.2671   -1.2004   -0.1124 C   0  0  0  0  0  0  0  0  0  0  0  0
   -1.4732   -1.9698   -0.1556 C   0  0  0  0  0  0  0  0  0  0  0  0
   -1.4319   -3.0671   -0.1751 H   0  0  0  0  0  0  0  0  0  0  0  0
   -2.7018   -1.3477   -0.0807 C   0  0  1  0  0  3  0  0  0  0  0  0
   -1.5305    0.7618   -0.0908 C   0  0  0  0  0  0  0  0  0  0  0  0
   -3.9531   -2.1398   -0.0038 C   0  0  0  0  0  0  0  0  0  0  0  0
   -4.1847   -3.1456   -0.9677 C   0  0  0  0  0  0  0  0  0  0  0  0
   -3.4629   -3.2835   -1.7868 H   0  0  0  0  0  0  0  0  0  0  0  0
   -5.3324   -3.9477   -0.8975 C   0  0  0  0  0  0  0  0  0  0  0  0
   -5.5037   -4.7210   -1.6611 H   0  0  0  0  0  0  0  0  0  0  0  0
   -6.2594   -3.7611    0.1392 C   0  0  0  0  0  0  0  0  0  0  0  0
   -7.1606   -4.3899    0.1945 H   0  0  0  0  0  0  0  0  0  0  0  0
   -6.0302   -2.7713    1.1093 C   0  0  0  0  0  0  0  0  0  0  0  0
   -6.7461   -2.6289    1.9326 H   0  0  0  0  0  0  0  0  0  0  0  0
   -4.8889   -1.9638    1.0407 C   0  0  0  0  0  0  0  0  0  0  0  0
   -4.7158   -1.1982    1.8098 H   0  0  0  0  0  0  0  0  0  0  0  0
   -1.5292    2.2456   -0.1825 C   0  0  0  0  0  0  0  0  0  0  0  0
   -2.3455    2.9518   -1.0927 C   0  0  0  0  0  0  0  0  0  0  0  0
   -3.0526    2.4131   -1.7379 H   0  0  0  0  0  0  0  0  0  0  0  0
   -2.2382    4.3438   -1.1975 C   0  0  0  0  0  0  0  0  0  0  0  0
   -2.8666    4.8835   -1.9215 H   0  0  0  0  0  0  0  0  0  0  0  0
   -1.3294    5.0464   -0.3898 C   0  0  0  0  0  0  0  0  0  0  0  0
   -1.2526    6.1412   -0.4712 H   0  0  0  0  0  0  0  0  0  0  0  0
   -0.5115    4.3479    0.5125 C   0  0  0  0  0  0  0  0  0  0  0  0
    0.2098    4.8905    1.1414 H   0  0  0  0  0  0  0  0  0  0  0  0
   -0.5992    2.9539    0.6086 C   0  0  0  0  0  0  0  0  0  0  0  0
    0.0491    2.3989    1.3001 H   0  0  0  0  0  0  0  0  0  0  0  0
   -3.9985    0.7530    0.0800 C   0  0  0  0  0  0  0  0  0  0  0  0
   -4.9741    0.6128   -0.9215 C   0  0  0  0  0  0  0  0  0  0  0  0
   -4.7735   -0.0269   -1.7925 H   0  0  0  0  0  0  0  0  0  0  0  0
   -6.1934    1.2913   -0.7954 C   0  0  0  0  0  0  0  0  0  0  0  0
   -6.9583    1.1819   -1.5784 H   0  0  0  0  0  0  0  0  0  0  0  0
   -6.4357    2.1100    0.3196 C   0  0  0  0  0  0  0  0  0  0  0  0
   -7.3927    2.6443    0.4129 H   0  0  0  0  0  0  0  0  0  0  0  0
   -5.4549    2.2454    1.3152 C   0  0  0  0  0  0  0  0  0  0  0  0
   -5.6394    2.8847    2.1912 H   0  0  0  0  0  0  0  0  0  0  0  0
   -4.2358    1.5636    1.2025 C   0  0  0  0  0  0  0  0  0  0  0  0
   -3.4611    1.6619    1.9763 H   0  0  0  0  0  0  0  0  0  0  0  0
  2 31  1  0  0  0  0
  4  1  1  0  0  0  0
  4  3  1  0  0  0  0
  5  4  2  0  0  0  0
  5  7  1  0  0  0  0
  6  5  1  0  0  0  0
  7  2  1  0  0  0  0
  7  9  1  1  0  0  0
  8  3  2  0  0  0  0
  8  2  1  0  0  0  0
  9 18  1  0  0  0  0
 10 12  1  0  0  0  0
 10  9  2  0  0  0  0
 11 10  1  0  0  0  0
 12 14  2  0  0  0  0
 13 12  1  0  0  0  0
 14 15  1  0  0  0  0
 14 16  1  0  0  0  0
 16 17  1  0  0  0  0
 18 16  2  0  0  0  0
 18 19  1  0  0  0  0
 20  8  1  0  0  0  0
 20 29  1  0  0  0  0
 21 20  2  0  0  0  0
 22 21  1  0  0  0  0
 23 21  1  0  0  0  0
 23 25  2  0  0  0  0
 24 23  1  0  0  0  0
 25 27  1  0  0  0  0
 26 25  1  0  0  0  0
 27 29  2  0  0  0  0
 27 28  1  0  0  0  0
 29 30  1  0  0  0  0
 31 40  1  0  0  0  0
 32 34  1  0  0  0  0
 32 31  2  0  0  0  0
 33 32  1  0  0  0  0
 34 36  2  0  0  0  0
 35 34  1  0  0  0  0
 36 37  1  0  0  0  0
 36 38  1  0  0  0  0
 38 39  1  0  0  0  0
 40 38  2  0  0  0  0
 40 41  1  0  0  0  0
M  END
