1
 OpenBabel05122313063D

 53 55  0  0  0  0  0  0  0  0999 V2000
   -0.2931   -0.6823   -1.7989 Se  0  0  0  0  0  1  0  0  0  0  0  0
   -1.2993    0.0922    0.0067 P   0  0  0  0  0  4  0  0  0  0  0  0
   -3.1074   -0.3130   -0.1327 C   0  0  0  0  0  0  0  0  0  0  0  0
   -3.5748    0.1803    0.7502 H   0  0  0  0  0  0  0  0  0  0  0  0
   -3.3820   -1.8268   -0.0527 C   0  0  0  0  0  0  0  0  0  0  0  0
   -2.8111   -2.3362   -0.8594 H   0  0  0  0  0  0  0  0  0  0  0  0
   -3.0057   -2.2368    0.9053 H   0  0  0  0  0  0  0  0  0  0  0  0
   -4.8807   -2.1295   -0.1939 C   0  0  0  0  0  0  0  0  0  0  0  0
   -5.4205   -1.7150    0.6873 H   0  0  0  0  0  0  0  0  0  0  0  0
   -5.0396   -3.2275   -0.1679 H   0  0  0  0  0  0  0  0  0  0  0  0
   -5.4682   -1.5271   -1.4745 C   0  0  0  0  0  0  0  0  0  0  0  0
   -5.0047   -2.0205   -2.3578 H   0  0  0  0  0  0  0  0  0  0  0  0
   -6.5571   -1.7324   -1.5357 H   0  0  0  0  0  0  0  0  0  0  0  0
   -5.2015   -0.0196   -1.5433 C   0  0  0  0  0  0  0  0  0  0  0  0
   -5.7511    0.4911   -0.7205 H   0  0  0  0  0  0  0  0  0  0  0  0
   -5.5921    0.4057   -2.4908 H   0  0  0  0  0  0  0  0  0  0  0  0
   -3.7036    0.2917   -1.4211 C   0  0  0  0  0  0  0  0  0  0  0  0
   -3.5372    1.3877   -1.4581 H   0  0  0  0  0  0  0  0  0  0  0  0
   -3.1612   -0.1335   -2.2934 H   0  0  0  0  0  0  0  0  0  0  0  0
   -0.5831   -0.5971    1.5803 C   0  0  0  0  0  0  0  0  0  0  0  0
    0.3624   -0.0124    1.6568 H   0  0  0  0  0  0  0  0  0  0  0  0
   -0.1735   -2.0793    1.5134 C   0  0  0  0  0  0  0  0  0  0  0  0
   -1.0737   -2.7209    1.4075 H   0  0  0  0  0  0  0  0  0  0  0  0
    0.4550   -2.2523    0.6166 H   0  0  0  0  0  0  0  0  0  0  0  0
    0.5891   -2.4654    2.7871 C   0  0  0  0  0  0  0  0  0  0  0  0
    0.8718   -3.5372    2.7402 H   0  0  0  0  0  0  0  0  0  0  0  0
    1.5429   -1.8931    2.8190 H   0  0  0  0  0  0  0  0  0  0  0  0
   -0.2359   -2.1792    4.0480 C   0  0  0  0  0  0  0  0  0  0  0  0
    0.3447   -2.4308    4.9598 H   0  0  0  0  0  0  0  0  0  0  0  0
   -1.1328   -2.8394    4.0567 H   0  0  0  0  0  0  0  0  0  0  0  0
   -0.6901   -0.7157    4.0991 C   0  0  0  0  0  0  0  0  0  0  0  0
   -1.3318   -0.5328    4.9862 H   0  0  0  0  0  0  0  0  0  0  0  0
    0.2004   -0.0584    4.2133 H   0  0  0  0  0  0  0  0  0  0  0  0
   -1.4443   -0.3042    2.8238 C   0  0  0  0  0  0  0  0  0  0  0  0
   -1.7173    0.7690    2.8789 H   0  0  0  0  0  0  0  0  0  0  0  0
   -2.3983   -0.8732    2.7576 H   0  0  0  0  0  0  0  0  0  0  0  0
   -1.1738    1.9618    0.0722 C   0  0  0  0  0  0  0  0  0  0  0  0
   -1.2610    2.2139   -1.0092 H   0  0  0  0  0  0  0  0  0  0  0  0
    0.2045    2.4469    0.5563 C   0  0  0  0  0  0  0  0  0  0  0  0
    1.0184    1.9156    0.0159 H   0  0  0  0  0  0  0  0  0  0  0  0
    0.3249    2.1968    1.6337 H   0  0  0  0  0  0  0  0  0  0  0  0
    0.3388    3.9643    0.3776 C   0  0  0  0  0  0  0  0  0  0  0  0
    1.3318    4.2926    0.7468 H   0  0  0  0  0  0  0  0  0  0  0  0
    0.3147    4.2039   -0.7088 H   0  0  0  0  0  0  0  0  0  0  0  0
   -0.7866    4.7179    1.0958 C   0  0  0  0  0  0  0  0  0  0  0  0
   -0.7021    5.8100    0.9174 H   0  0  0  0  0  0  0  0  0  0  0  0
   -0.6811    4.5717    2.1945 H   0  0  0  0  0  0  0  0  0  0  0  0
   -2.1645    4.2122    0.6527 C   0  0  0  0  0  0  0  0  0  0  0  0
   -2.3219    4.4628   -0.4204 H   0  0  0  0  0  0  0  0  0  0  0  0
   -2.9719    4.7259    1.2151 H   0  0  0  0  0  0  0  0  0  0  0  0
   -2.3026    2.6909    0.8298 C   0  0  0  0  0  0  0  0  0  0  0  0
   -2.2483    2.4447    1.9122 H   0  0  0  0  0  0  0  0  0  0  0  0
   -3.3028    2.3658    0.4798 H   0  0  0  0  0  0  0  0  0  0  0  0
  1  2  1  0  0  0  0
  2 37  1  0  0  0  0
  2 20  1  0  0  0  0
  3  5  1  0  0  0  0
  3  2  1  0  0  0  0
  3  4  1  0  0  0  0
  5  7  1  0  0  0  0
  6  5  1  0  0  0  0
  8 10  1  0  0  0  0
  8  5  1  0  0  0  0
  8  9  1  0  0  0  0
 11  8  1  0  0  0  0
 12 11  1  0  0  0  0
 13 11  1  0  0  0  0
 14 11  1  0  0  0  0
 14 17  1  0  0  0  0
 14 15  1  0  0  0  0
 16 14  1  0  0  0  0
 17  3  1  0  0  0  0
 18 17  1  0  0  0  0
 19 17  1  0  0  0  0
 20 21  1  0  0  0  0
 20 34  1  0  0  0  0
 22 20  1  0  0  0  0
 22 25  1  0  0  0  0
 23 22  1  0  0  0  0
 24 22  1  0  0  0  0
 25 27  1  0  0  0  0
 25 28  1  0  0  0  0
 26 25  1  0  0  0  0
 28 30  1  0  0  0  0
 28 31  1  0  0  0  0
 28 29  1  0  0  0  0
 31 33  1  0  0  0  0
 31 32  1  0  0  0  0
 34 35  1  0  0  0  0
 34 31  1  0  0  0  0
 36 34  1  0  0  0  0
 37 39  1  0  0  0  0
 37 51  1  0  0  0  0
 38 37  1  0  0  0  0
 39 41  1  0  0  0  0
 40 39  1  0  0  0  0
 42 39  1  0  0  0  0
 42 43  1  0  0  0  0
 42 45  1  0  0  0  0
 44 42  1  0  0  0  0
 45 47  1  0  0  0  0
 46 45  1  0  0  0  0
 48 51  1  0  0  0  0
 48 45  1  0  0  0  0
 48 50  1  0  0  0  0
 49 48  1  0  0  0  0
 51 52  1  0  0  0  0
 53 51  1  0  0  0  0
M  END
