1
 OpenBabel05122313063D

 46 46  0  0  1  0  0  0  0  0999 V2000
   -0.0524   -0.5433   -1.5702 Se  0  0  0  0  0  1  0  0  0  0  0  0
   -1.6717   -0.4948   -0.6672 C   0  0  2  0  0  3  0  0  0  0  0  0
   -1.7297   -0.2060    0.7978 C   0  0  0  0  0  0  0  0  0  0  0  0
   -1.7120    1.0824    1.2808 C   0  0  0  0  0  0  0  0  0  0  0  0
   -1.2968    3.4974    1.4069 C   0  0  0  0  0  0  0  0  0  0  0  0
   -1.1179    4.7710    0.8596 C   0  0  0  0  0  0  0  0  0  0  0  0
   -1.2455    4.9701   -0.5246 C   0  0  0  0  0  0  0  0  0  0  0  0
   -1.5641    3.8750   -1.3426 C   0  0  0  0  0  0  0  0  0  0  0  0
   -1.7416    2.5981   -0.7966 C   0  0  0  0  0  0  0  0  0  0  0  0
   -1.5965    2.3674    0.5975 C   0  0  0  0  0  0  0  0  0  0  0  0
   -2.8848   -1.0471   -2.7335 C   0  0  0  0  0  0  0  0  0  0  0  0
   -2.7264   -2.5434   -3.0010 C   0  0  0  0  0  0  0  0  0  0  0  0
   -4.1406   -0.6728   -0.6117 C   0  0  0  0  0  0  0  0  0  0  0  0
   -4.8300    0.6843   -0.7318 C   0  0  0  0  0  0  0  0  0  0  0  0
   -1.3892   -2.6484    1.1948 C   0  0  0  0  0  0  0  0  0  0  0  0
   -2.4864   -3.7048    1.0686 C   0  0  0  0  0  0  0  0  0  0  0  0
   -2.2294   -1.1758    3.0189 C   0  0  0  0  0  0  0  0  0  0  0  0
   -3.6863   -0.7694    3.2491 C   0  0  0  0  0  0  0  0  0  0  0  0
   -2.8378   -0.7294   -1.3002 N   0  0  0  0  0  0  0  0  0  0  0  0
   -1.8792   -1.3316    1.6082 N   0  0  0  0  0  0  0  0  0  0  0  0
   -1.7210    1.1766    2.3763 H   0  0  0  0  0  0  0  0  0  0  0  0
   -1.1824    3.3517    2.4927 H   0  0  0  0  0  0  0  0  0  0  0  0
   -0.8705    5.6165    1.5194 H   0  0  0  0  0  0  0  0  0  0  0  0
   -1.1000    5.9693   -0.9614 H   0  0  0  0  0  0  0  0  0  0  0  0
   -1.6750    4.0144   -2.4291 H   0  0  0  0  0  0  0  0  0  0  0  0
   -1.9934    1.7733   -1.4730 H   0  0  0  0  0  0  0  0  0  0  0  0
   -3.8533   -0.6723   -3.1213 H   0  0  0  0  0  0  0  0  0  0  0  0
   -2.0793   -0.4738   -3.2371 H   0  0  0  0  0  0  0  0  0  0  0  0
   -3.5277   -3.1300   -2.5078 H   0  0  0  0  0  0  0  0  0  0  0  0
   -1.7459   -2.9036   -2.6327 H   0  0  0  0  0  0  0  0  0  0  0  0
   -2.7774   -2.7426   -4.0895 H   0  0  0  0  0  0  0  0  0  0  0  0
   -4.7673   -1.4753   -1.0545 H   0  0  0  0  0  0  0  0  0  0  0  0
   -3.9815   -0.9391    0.4479 H   0  0  0  0  0  0  0  0  0  0  0  0
   -5.8215    0.6410   -0.2387 H   0  0  0  0  0  0  0  0  0  0  0  0
   -4.9920    0.9755   -1.7893 H   0  0  0  0  0  0  0  0  0  0  0  0
   -4.2314    1.4759   -0.2419 H   0  0  0  0  0  0  0  0  0  0  0  0
   -0.8537   -2.5378    0.2332 H   0  0  0  0  0  0  0  0  0  0  0  0
   -0.6160   -2.9832    1.9230 H   0  0  0  0  0  0  0  0  0  0  0  0
   -2.0451   -4.6873    0.8060 H   0  0  0  0  0  0  0  0  0  0  0  0
   -3.2145   -3.4345    0.2773 H   0  0  0  0  0  0  0  0  0  0  0  0
   -3.0468   -3.8335    2.0174 H   0  0  0  0  0  0  0  0  0  0  0  0
   -2.0311   -2.1496    3.5088 H   0  0  0  0  0  0  0  0  0  0  0  0
   -1.5356   -0.4566    3.5065 H   0  0  0  0  0  0  0  0  0  0  0  0
   -3.8806   -0.6160    4.3295 H   0  0  0  0  0  0  0  0  0  0  0  0
   -4.3808   -1.5521    2.8831 H   0  0  0  0  0  0  0  0  0  0  0  0
   -3.9272    0.1788    2.7276 H   0  0  0  0  0  0  0  0  0  0  0  0
  2  1  1  1  0  0  0
  2  3  1  0  0  0  0
  3  4  2  0  0  0  0
  3 20  1  0  0  0  0
  4 21  1  0  0  0  0
  5 22  1  0  0  0  0
  6  5  1  0  0  0  0
  6 23  1  0  0  0  0
  7  6  2  0  0  0  0
  8  9  2  0  0  0  0
  8  7  1  0  0  0  0
  9 10  1  0  0  0  0
 10  4  1  0  0  0  0
 10  5  2  0  0  0  0
 11 19  1  0  0  0  0
 12 11  1  0  0  0  0
 12 30  1  0  0  0  0
 12 29  1  0  0  0  0
 13 33  1  0  0  0  0
 14 13  1  0  0  0  0
 14 36  1  0  0  0  0
 14 34  1  0  0  0  0
 15 20  1  0  0  0  0
 15 38  1  0  0  0  0
 16 15  1  0  0  0  0
 16 41  1  0  0  0  0
 17 18  1  0  0  0  0
 17 43  1  0  0  0  0
 17 42  1  0  0  0  0
 18 44  1  0  0  0  0
 19  2  1  0  0  0  0
 19 13  1  0  0  0  0
 20 17  1  0  0  0  0
 24  7  1  0  0  0  0
 25  8  1  0  0  0  0
 26  9  1  0  0  0  0
 27 11  1  0  0  0  0
 28 11  1  0  0  0  0
 31 12  1  0  0  0  0
 32 13  1  0  0  0  0
 35 14  1  0  0  0  0
 37 15  1  0  0  0  0
 39 16  1  0  0  0  0
 40 16  1  0  0  0  0
 45 18  1  0  0  0  0
 46 18  1  0  0  0  0
M  END
