1
 OpenBabel05122313063D

 26 27  0  0  0  0  0  0  0  0999 V2000
   -2.4901   -0.0381   -1.7756 Se  0  0  0  0  0  1  0  0  0  0  0  0
   -2.0430    2.9259    1.8402 O   0  0  0  0  0  0  0  0  0  0  0  0
   -0.6529    1.7214    0.5278 N   0  0  0  0  0  0  0  0  0  0  0  0
   -3.2453   -0.0342   -0.0057 C   0  0  0  0  0  0  0  0  0  0  0  0
   -4.3230   -0.9363    0.1662 C   0  0  0  0  0  0  0  0  0  0  0  0
   -5.0547   -0.9982    1.3566 C   0  0  0  0  0  0  0  0  0  0  0  0
   -4.7285   -0.1474    2.4250 C   0  0  0  0  0  0  0  0  0  0  0  0
   -3.6758    0.7583    2.2753 C   0  0  0  0  0  0  0  0  0  0  0  0
   -2.9158    0.8283    1.0817 C   0  0  0  0  0  0  0  0  0  0  0  0
   -1.8158    1.8120    1.0818 C   0  0  0  0  0  0  0  0  0  0  0  0
   -0.9054    3.7908    1.6329 C   0  0  0  0  0  0  0  0  0  0  0  0
    0.1638    2.8782    0.9671 C   0  0  0  0  0  0  0  0  0  0  0  0
    0.8497    3.5440   -0.2282 C   0  0  0  0  0  0  0  0  0  0  0  0
    1.1927    2.3792    1.9943 C   0  0  0  0  0  0  0  0  0  0  0  0
   -4.5762   -1.6073   -0.6683 H   0  0  0  0  0  0  0  0  0  0  0  0
   -5.8810   -1.7197    1.4496 H   0  0  0  0  0  0  0  0  0  0  0  0
   -5.2919   -0.1873    3.3687 H   0  0  0  0  0  0  0  0  0  0  0  0
   -3.4116    1.4391    3.0965 H   0  0  0  0  0  0  0  0  0  0  0  0
   -0.5931    4.2022    2.6124 H   0  0  0  0  0  0  0  0  0  0  0  0
   -1.2230    4.6245    0.9699 H   0  0  0  0  0  0  0  0  0  0  0  0
    1.5618    2.8414   -0.7071 H   0  0  0  0  0  0  0  0  0  0  0  0
    1.4124    4.4428    0.0972 H   0  0  0  0  0  0  0  0  0  0  0  0
    0.1033    3.8499   -0.9878 H   0  0  0  0  0  0  0  0  0  0  0  0
    1.8550    1.6175    1.5436 H   0  0  0  0  0  0  0  0  0  0  0  0
    0.6848    1.9236    2.8681 H   0  0  0  0  0  0  0  0  0  0  0  0
    1.8219    3.2198    2.3511 H   0  0  0  0  0  0  0  0  0  0  0  0
  1  4  1  0  0  0  0
  3 12  1  0  0  0  0
  3 10  2  0  0  0  0
  4  5  2  0  0  0  0
  4  9  1  0  0  0  0
  5  6  1  0  0  0  0
  6 16  1  0  0  0  0
  6  7  2  0  0  0  0
  7 17  1  0  0  0  0
  8  7  1  0  0  0  0
  8 18  1  0  0  0  0
  9 10  1  0  0  0  0
  9  8  2  0  0  0  0
 10  2  1  0  0  0  0
 11  2  1  0  0  0  0
 11 19  1  0  0  0  0
 12 11  1  0  0  0  0
 12 14  1  0  0  0  0
 13 22  1  0  0  0  0
 13 12  1  0  0  0  0
 14 26  1  0  0  0  0
 14 25  1  0  0  0  0
 15  5  1  0  0  0  0
 20 11  1  0  0  0  0
 21 13  1  0  0  0  0
 23 13  1  0  0  0  0
 24 14  1  0  0  0  0
M  END
