1
 OpenBabel05122313063D

 49 52  0  0  0  0  0  0  0  0999 V2000
   -1.1810   -1.6728   -1.8829 Se  0  0  0  0  0  1  0  0  0  0  0  0
   -0.2057    1.2118    1.6117 Se  0  0  0  0  0  1  0  0  0  0  0  0
   -2.5872   -1.1852   -0.2151 P   0  0  0  0  0  4  0  0  0  0  0  0
   -1.8846    1.5706    0.2885 P   0  0  0  0  0  4  0  0  0  0  0  0
   -2.9878    0.3618    0.0714 N   0  0  0  0  0  2  0  0  0  0  0  0
   -1.9881   -2.0093    1.3196 C   0  0  0  0  0  0  0  0  0  0  0  0
   -2.4237   -1.4901    2.5543 C   0  0  0  0  0  0  0  0  0  0  0  0
   -3.0747   -0.6040    2.5672 H   0  0  0  0  0  0  0  0  0  0  0  0
   -1.9948   -2.0834    3.7495 C   0  0  0  0  0  0  0  0  0  0  0  0
   -2.3253   -1.6672    4.7132 H   0  0  0  0  0  0  0  0  0  0  0  0
   -1.1311   -3.1910    3.7181 C   0  0  0  0  0  0  0  0  0  0  0  0
   -0.7943   -3.6536    4.6589 H   0  0  0  0  0  0  0  0  0  0  0  0
   -0.6940   -3.7062    2.4865 C   0  0  0  0  0  0  0  0  0  0  0  0
   -0.0101   -4.5683    2.4583 H   0  0  0  0  0  0  0  0  0  0  0  0
   -1.1202   -3.1161    1.2861 C   0  0  0  0  0  0  0  0  0  0  0  0
   -0.7604   -3.4895    0.3144 H   0  0  0  0  0  0  0  0  0  0  0  0
   -4.1580   -2.0112   -0.6507 C   0  0  0  0  0  0  0  0  0  0  0  0
   -5.3098   -1.2375   -0.8819 C   0  0  0  0  0  0  0  0  0  0  0  0
   -5.2419   -0.1443   -0.7763 H   0  0  0  0  0  0  0  0  0  0  0  0
   -6.5117   -1.8684   -1.2376 C   0  0  0  0  0  0  0  0  0  0  0  0
   -7.4133   -1.2635   -1.4190 H   0  0  0  0  0  0  0  0  0  0  0  0
   -6.5650   -3.2657   -1.3617 C   0  0  0  0  0  0  0  0  0  0  0  0
   -7.5092   -3.7582   -1.6402 H   0  0  0  0  0  0  0  0  0  0  0  0
   -5.4134   -4.0370   -1.1298 C   0  0  0  0  0  0  0  0  0  0  0  0
   -5.4540   -5.1326   -1.2256 H   0  0  0  0  0  0  0  0  0  0  0  0
   -4.2092   -3.4133   -0.7759 C   0  0  0  0  0  0  0  0  0  0  0  0
   -3.3051   -4.0153   -0.5965 H   0  0  0  0  0  0  0  0  0  0  0  0
   -2.9035    2.9646    0.9040 C   0  0  0  0  0  0  0  0  0  0  0  0
   -4.2796    2.7963    1.1403 C   0  0  0  0  0  0  0  0  0  0  0  0
   -4.7331    1.8127    0.9465 H   0  0  0  0  0  0  0  0  0  0  0  0
   -5.0421    3.8728    1.6211 C   0  0  0  0  0  0  0  0  0  0  0  0
   -6.1185    3.7390    1.8099 H   0  0  0  0  0  0  0  0  0  0  0  0
   -4.4356    5.1156    1.8605 C   0  0  0  0  0  0  0  0  0  0  0  0
   -5.0355    5.9588    2.2359 H   0  0  0  0  0  0  0  0  0  0  0  0
   -3.0597    5.2823    1.6243 C   0  0  0  0  0  0  0  0  0  0  0  0
   -2.5813    6.2552    1.8149 H   0  0  0  0  0  0  0  0  0  0  0  0
   -2.2927    4.2095    1.1515 C   0  0  0  0  0  0  0  0  0  0  0  0
   -1.2106    4.3271    0.9833 H   0  0  0  0  0  0  0  0  0  0  0  0
   -1.2967    2.1142   -1.3728 C   0  0  0  0  0  0  0  0  0  0  0  0
   -0.0017    2.6330   -1.5450 C   0  0  0  0  0  0  0  0  0  0  0  0
    0.6613    2.7152   -0.6713 H   0  0  0  0  0  0  0  0  0  0  0  0
    0.4450    3.0036   -2.8220 C   0  0  0  0  0  0  0  0  0  0  0  0
    1.4665    3.3955   -2.9454 H   0  0  0  0  0  0  0  0  0  0  0  0
   -0.4044    2.8549   -3.9304 C   0  0  0  0  0  0  0  0  0  0  0  0
   -0.0536    3.1345   -4.9358 H   0  0  0  0  0  0  0  0  0  0  0  0
   -1.7000    2.3385   -3.7586 C   0  0  0  0  0  0  0  0  0  0  0  0
   -2.3618    2.2104   -4.6288 H   0  0  0  0  0  0  0  0  0  0  0  0
   -2.1490    1.9662   -2.4835 C   0  0  0  0  0  0  0  0  0  0  0  0
   -3.1502    1.5321   -2.3443 H   0  0  0  0  0  0  0  0  0  0  0  0
  1  3  1  0  0  0  0
  3  5  1  0  0  0  0
  3  6  1  0  0  0  0
  4 28  1  0  0  0  0
  4  2  1  0  0  0  0
  5  4  1  0  0  0  0
  6  7  1  0  0  0  0
  7  8  1  0  0  0  0
  7  9  2  0  0  0  0
  9 10  1  0  0  0  0
 11  9  1  0  0  0  0
 11 12  1  0  0  0  0
 13 11  2  0  0  0  0
 14 13  1  0  0  0  0
 15  6  2  0  0  0  0
 15 13  1  0  0  0  0
 16 15  1  0  0  0  0
 17  3  1  0  0  0  0
 18 19  1  0  0  0  0
 18 17  2  0  0  0  0
 20 18  1  0  0  0  0
 21 20  1  0  0  0  0
 22 20  2  0  0  0  0
 22 24  1  0  0  0  0
 23 22  1  0  0  0  0
 24 26  2  0  0  0  0
 25 24  1  0  0  0  0
 26 17  1  0  0  0  0
 26 27  1  0  0  0  0
 28 29  2  0  0  0  0
 28 37  1  0  0  0  0
 29 31  1  0  0  0  0
 30 29  1  0  0  0  0
 31 32  1  0  0  0  0
 31 33  2  0  0  0  0
 33 34  1  0  0  0  0
 35 36  1  0  0  0  0
 35 33  1  0  0  0  0
 37 35  2  0  0  0  0
 38 37  1  0  0  0  0
 39  4  1  0  0  0  0
 40 39  1  0  0  0  0
 40 41  1  0  0  0  0
 42 40  2  0  0  0  0
 43 42  1  0  0  0  0
 44 46  2  0  0  0  0
 44 42  1  0  0  0  0
 45 44  1  0  0  0  0
 46 48  1  0  0  0  0
 47 46  1  0  0  0  0
 48 49  1  0  0  0  0
 48 39  2  0  0  0  0
M  END
