1
 OpenBabel05122313063D

 11 11  0  0  0  0  0  0  0  0999 V2000
    0.1443    1.3687   -1.5874 Se  0  0  0  0  0  1  0  0  0  0  0  0
   -0.8071    2.5225    0.9356 C   0  0  0  0  0  0  0  0  0  0  0  0
   -0.3271    1.6778    1.4500 H   0  0  0  0  0  0  0  0  0  0  0  0
   -2.0849    4.5787    1.1158 N   0  0  0  0  0  0  0  0  0  0  0  0
   -0.7336    2.6393   -0.4689 C   0  0  0  0  0  0  0  0  0  0  0  0
   -1.3349    3.7754   -1.0514 C   0  0  0  0  0  0  0  0  0  0  0  0
   -1.3200    3.9253   -2.1415 H   0  0  0  0  0  0  0  0  0  0  0  0
   -1.4912    3.5048    1.6642 C   0  0  0  0  0  0  0  0  0  0  0  0
   -1.5605    3.4104    2.7638 H   0  0  0  0  0  0  0  0  0  0  0  0
   -1.9860    4.6971   -0.2203 C   0  0  0  0  0  0  0  0  0  0  0  0
   -2.4735    5.5813   -0.6713 H   0  0  0  0  0  0  0  0  0  0  0  0
  1  5  1  0  0  0  0
  2  3  1  0  0  0  0
  2  8  1  0  0  0  0
  4  8  2  0  0  0  0
  5  2  2  0  0  0  0
  6  5  1  0  0  0  0
  6 10  2  0  0  0  0
  7  6  1  0  0  0  0
  8  9  1  0  0  0  0
 10  4  1  0  0  0  0
 11 10  1  0  0  0  0
M  END
