1
 OpenBabel05122313063D

 34 34  0  0  1  0  0  0  0  0999 V2000
    0.0228   -0.9477   -0.9718 Se  0  0  0  0  0  1  0  0  0  0  0  0
    1.4240   -0.7489    0.1941 C   0  0  2  0  0  3  0  0  0  0  0  0
    1.1021   -0.0456    1.7375 S   0  0  0  0  0  0  0  0  0  0  0  0
    2.7108    0.0192    2.5875 C   0  0  0  0  0  0  0  0  0  0  0  0
    2.7909   -1.1750   -0.1828 C   0  0  0  0  0  0  0  0  0  0  0  0
    3.0660   -2.7037   -0.2313 C   0  0  0  0  0  0  0  0  0  0  0  0
    2.6360   -3.2592   -1.6085 C   0  0  0  0  0  0  0  0  0  0  0  0
    4.5633   -3.0034   -0.0279 C   0  0  0  0  0  0  0  0  0  0  0  0
    2.2727   -3.4258    0.8794 C   0  0  0  0  0  0  0  0  0  0  0  0
    3.7607   -0.2530   -0.4570 C   0  0  0  0  0  0  0  0  0  0  0  0
    3.7026    1.2147   -0.4652 C   0  0  0  0  0  0  0  0  0  0  0  0
    2.5176    1.9784   -0.6170 C   0  0  0  0  0  0  0  0  0  0  0  0
    2.5512    3.3761   -0.5483 C   0  0  0  0  0  0  0  0  0  0  0  0
    3.7657    4.0510   -0.3430 C   0  0  0  0  0  0  0  0  0  0  0  0
    4.9560    3.3146   -0.2247 C   0  0  0  0  0  0  0  0  0  0  0  0
    4.9237    1.9170   -0.2922 C   0  0  0  0  0  0  0  0  0  0  0  0
    2.4681    0.3193    3.6248 H   0  0  0  0  0  0  0  0  0  0  0  0
    3.2041   -0.9703    2.5881 H   0  0  0  0  0  0  0  0  0  0  0  0
    3.3662    0.7773    2.1188 H   0  0  0  0  0  0  0  0  0  0  0  0
    1.5544   -3.1075   -1.7910 H   0  0  0  0  0  0  0  0  0  0  0  0
    3.1940   -2.7603   -2.4256 H   0  0  0  0  0  0  0  0  0  0  0  0
    2.8407   -4.3489   -1.6567 H   0  0  0  0  0  0  0  0  0  0  0  0
    4.9453   -2.5689    0.9182 H   0  0  0  0  0  0  0  0  0  0  0  0
    4.7136   -4.1007    0.0153 H   0  0  0  0  0  0  0  0  0  0  0  0
    5.1875   -2.6259   -0.8617 H   0  0  0  0  0  0  0  0  0  0  0  0
    2.5617   -3.0683    1.8890 H   0  0  0  0  0  0  0  0  0  0  0  0
    1.1803   -3.2844    0.7665 H   0  0  0  0  0  0  0  0  0  0  0  0
    2.4778   -4.5142    0.8391 H   0  0  0  0  0  0  0  0  0  0  0  0
    4.7647   -0.6524   -0.6690 H   0  0  0  0  0  0  0  0  0  0  0  0
    1.5615    1.4777   -0.8137 H   0  0  0  0  0  0  0  0  0  0  0  0
    1.6129    3.9406   -0.6545 H   0  0  0  0  0  0  0  0  0  0  0  0
    3.7860    5.1499   -0.2872 H   0  0  0  0  0  0  0  0  0  0  0  0
    5.9158    3.8335   -0.0803 H   0  0  0  0  0  0  0  0  0  0  0  0
    5.8594    1.3431   -0.1975 H   0  0  0  0  0  0  0  0  0  0  0  0
  2  1  1  6  0  0  0
  2  3  1  0  0  0  0
  3  4  1  0  0  0  0
  4 18  1  0  0  0  0
  4 17  1  0  0  0  0
  5  2  1  0  0  0  0
  6  5  1  0  0  0  0
  6  8  1  0  0  0  0
  6  9  1  0  0  0  0
  7  6  1  0  0  0  0
  8 24  1  0  0  0  0
  8 23  1  0  0  0  0
  9 26  1  0  0  0  0
 10  5  2  0  0  0  0
 11 10  1  0  0  0  0
 11 16  1  0  0  0  0
 12 13  1  0  0  0  0
 12 11  2  0  0  0  0
 13 14  2  0  0  0  0
 14 32  1  0  0  0  0
 14 15  1  0  0  0  0
 15 33  1  0  0  0  0
 16 15  2  0  0  0  0
 16 34  1  0  0  0  0
 19  4  1  0  0  0  0
 20  7  1  0  0  0  0
 21  7  1  0  0  0  0
 22  7  1  0  0  0  0
 25  8  1  0  0  0  0
 27  9  1  0  0  0  0
 28  9  1  0  0  0  0
 29 10  1  0  0  0  0
 30 12  1  0  0  0  0
 31 13  1  0  0  0  0
M  END
