2,54
q = -1.0, confidence = 0.1

 59 60  0  0  0  0  0  0  0  0999 V2000
   -1.8993    0.3740    0.1853 P   0  0  0  0  0  0  0  0  0  0  0  0
    0.4597   -1.2422   -1.1190 Si  0  0  1  0  0  3  0  0  0  0  0  0
    1.7904   -1.3634    1.7885 N   0  0  0  0  0  0  0  0  0  0  0  0
    0.6434   -1.2519   -3.0224 C   0  0  0  0  0  0  0  0  0  0  0  0
   -0.0716   -0.5437   -3.4834 H   0  0  0  0  0  0  0  0  0  0  0  0
    0.4406   -2.2561   -3.4502 H   0  0  0  0  0  0  0  0  0  0  0  0
    1.6688   -0.9499   -3.3192 H   0  0  0  0  0  0  0  0  0  0  0  0
   -1.1812   -2.1625   -0.7174 C   0  0  0  0  0  0  0  0  0  0  0  0
   -2.2339   -1.4349   -0.1086 C   0  0  0  0  0  0  0  0  0  0  0  0
   -3.4439   -2.0881    0.2130 C   0  0  0  0  0  0  0  0  0  0  0  0
   -4.2701   -1.5370    0.6839 H   0  0  0  0  0  0  0  0  0  0  0  0
   -3.6101   -3.4545   -0.0566 C   0  0  0  0  0  0  0  0  0  0  0  0
   -4.5546   -3.9537    0.2097 H   0  0  0  0  0  0  0  0  0  0  0  0
   -2.5716   -4.1811   -0.6622 C   0  0  0  0  0  0  0  0  0  0  0  0
   -2.6987   -5.2549   -0.8717 H   0  0  0  0  0  0  0  0  0  0  0  0
   -1.3717   -3.5338   -0.9899 C   0  0  0  0  0  0  0  0  0  0  0  0
   -0.5538   -4.1120   -1.4517 H   0  0  0  0  0  0  0  0  0  0  0  0
    1.8584   -2.3723   -0.4805 C   0  0  0  0  0  0  0  0  0  0  0  0
    2.3376   -2.2995    0.8566 C   0  0  0  0  0  0  0  0  0  0  0  0
    3.3711   -3.1659    1.2842 C   0  0  0  0  0  0  0  0  0  0  0  0
    3.7598   -3.1198    2.3087 H   0  0  0  0  0  0  0  0  0  0  0  0
    3.9387   -4.0957    0.4022 C   0  0  0  0  0  0  0  0  0  0  0  0
    4.7460   -4.7530    0.7597 H   0  0  0  0  0  0  0  0  0  0  0  0
    3.4845   -4.1790   -0.9187 C   0  0  0  0  0  0  0  0  0  0  0  0
    3.9260   -4.9037   -1.6194 H   0  0  0  0  0  0  0  0  0  0  0  0
    2.4562   -3.3194   -1.3369 C   0  0  0  0  0  0  0  0  0  0  0  0
    2.1045   -3.3874   -2.3781 H   0  0  0  0  0  0  0  0  0  0  0  0
   -2.5804    0.7443    1.9646 C   0  0  0  0  0  0  0  0  0  0  0  0
   -2.1702   -0.4333    2.8683 C   0  0  0  0  0  0  0  0  0  0  0  0
   -2.7787   -1.3361    2.6729 H   0  0  0  0  0  0  0  0  0  0  0  0
   -2.3126   -0.1467    3.9324 H   0  0  0  0  0  0  0  0  0  0  0  0
   -1.1090   -0.7144    2.7283 H   0  0  0  0  0  0  0  0  0  0  0  0
   -4.0955    0.9616    2.1055 C   0  0  0  0  0  0  0  0  0  0  0  0
   -4.6865    0.0775    1.8002 H   0  0  0  0  0  0  0  0  0  0  0  0
   -4.4563    1.8365    1.5327 H   0  0  0  0  0  0  0  0  0  0  0  0
   -4.3303    1.1527    3.1753 H   0  0  0  0  0  0  0  0  0  0  0  0
   -1.8574    2.0231    2.4328 C   0  0  0  0  0  0  0  0  0  0  0  0
   -2.0952    2.8948    1.7930 H   0  0  0  0  0  0  0  0  0  0  0  0
   -0.7567    1.8978    2.4198 H   0  0  0  0  0  0  0  0  0  0  0  0
   -2.1655    2.2683    3.4721 H   0  0  0  0  0  0  0  0  0  0  0  0
   -3.0429    1.2113   -1.1298 C   0  0  0  0  0  0  0  0  0  0  0  0
   -3.0707    2.7259   -0.8678 C   0  0  0  0  0  0  0  0  0  0  0  0
   -2.0497    3.1281   -0.7274 H   0  0  0  0  0  0  0  0  0  0  0  0
   -3.6743    2.9874    0.0233 H   0  0  0  0  0  0  0  0  0  0  0  0
   -3.5270    3.2449   -1.7378 H   0  0  0  0  0  0  0  0  0  0  0  0
   -2.3568    0.9328   -2.4797 C   0  0  0  0  0  0  0  0  0  0  0  0
   -2.3349   -0.1528   -2.7019 H   0  0  0  0  0  0  0  0  0  0  0  0
   -1.3157    1.3059   -2.4918 H   0  0  0  0  0  0  0  0  0  0  0  0
   -2.9246    1.4343   -3.2924 H   0  0  0  0  0  0  0  0  0  0  0  0
   -4.4749    0.6598   -1.2128 C   0  0  0  0  0  0  0  0  0  0  0  0
   -4.4849   -0.4154   -1.4747 H   0  0  0  0  0  0  0  0  0  0  0  0
   -5.0154    1.2000   -2.0200 H   0  0  0  0  0  0  0  0  0  0  0  0
   -5.0538    0.7999   -0.2828 H   0  0  0  0  0  0  0  0  0  0  0  0
    1.0022   -0.3041    1.4448 C   0  0  0  0  0  2  0  0  0  0  0  0
    0.7261    0.2273    2.3898 H   0  0  0  0  0  0  0  0  0  0  0  0
    2.1663   -1.5316    3.1942 C   0  0  0  0  0  0  0  0  0  0  0  0
    1.5607   -0.8402    3.8058 H   0  0  0  0  0  0  0  0  0  0  0  0
    3.2392   -1.2989    3.3624 H   0  0  0  0  0  0  0  0  0  0  0  0
    1.9752   -2.5695    3.5331 H   0  0  0  0  0  0  0  0  0  0  0  0
  1 28  1  0  0  0  0
  2  4  1  6  0  0  0
  2  8  1  0  0  0  0
  2 18  1  0  0  0  0
  3 56  1  0  0  0  0
  5  4  1  0  0  0  0
  6  4  1  0  0  0  0
  7  4  1  0  0  0  0
  8  9  1  0  0  0  0
  9  1  1  0  0  0  0
  9 10  2  0  0  0  0
 10 11  1  0  0  0  0
 12 13  1  0  0  0  0
 12 10  1  0  0  0  0
 14 12  2  0  0  0  0
 15 14  1  0  0  0  0
 16  8  2  0  0  0  0
 16 14  1  0  0  0  0
 17 16  1  0  0  0  0
 18 19  1  0  0  0  0
 19 20  2  0  0  0  0
 19  3  1  0  0  0  0
 20 21  1  0  0  0  0
 22 23  1  0  0  0  0
 22 20  1  0  0  0  0
 24 22  2  0  0  0  0
 25 24  1  0  0  0  0
 26 24  1  0  0  0  0
 26 18  2  0  0  0  0
 27 26  1  0  0  0  0
 28 33  1  0  0  0  0
 28 37  1  0  0  0  0
 28 29  1  0  0  0  0
 29 31  1  0  0  0  0
 30 29  1  0  0  0  0
 32 29  1  0  0  0  0
 33 36  1  0  0  0  0
 34 33  1  0  0  0  0
 35 33  1  0  0  0  0
 37 40  1  0  0  0  0
 38 37  1  0  0  0  0
 39 37  1  0  0  0  0
 41 42  1  0  0  0  0
 41  1  1  0  0  0  0
 42 43  1  0  0  0  0
 42 44  1  0  0  0  0
 45 42  1  0  0  0  0
 46 41  1  0  0  0  0
 47 46  1  0  0  0  0
 48 46  1  0  0  0  0
 49 46  1  0  0  0  0
 50 41  1  0  0  0  0
 50 53  1  0  0  0  0
 51 50  1  0  0  0  0
 52 50  1  0  0  0  0
 54  3  1  0  0  0  0
 54 55  1  0  0  0  0
 56 58  1  0  0  0  0
 56 59  1  0  0  0  0
 56 57  1  0  0  0  0
M  END
