1,8
q = 0.0, confidence = 0.842

 36 38  0  0  0  0  0  0  0  0999 V2000
    1.8721    0.2389    0.2718 Si  0  0  0  0  0  3  0  0  0  0  0  0
    1.5431   -0.6228    1.9336 C   0  0  0  0  0  0  0  0  0  0  0  0
    1.0224   -1.9781    1.5210 C   0  0  0  0  0  0  0  0  0  0  0  0
    1.1203   -3.0835    2.3920 C   0  0  0  0  0  0  0  0  0  0  0  0
    0.5932   -4.3351    2.0473 C   0  0  0  0  0  0  0  0  0  0  0  0
   -0.0352   -4.4883    0.8015 C   0  0  0  0  0  0  0  0  0  0  0  0
   -0.1163   -3.3998   -0.0842 C   0  0  0  0  0  0  0  0  0  0  0  0
    0.4059   -2.1205    0.2376 C   0  0  0  0  0  3  0  0  0  0  0  0
    3.6545   -0.3020   -0.1707 C   0  0  0  0  0  0  0  0  0  0  0  0
    4.7461    0.5942   -0.2003 C   0  0  0  0  0  0  0  0  0  0  0  0
    6.0536    0.1448   -0.4554 C   0  0  0  0  0  0  0  0  0  0  0  0
    6.3000   -1.2179   -0.6777 C   0  0  0  0  0  0  0  0  0  0  0  0
    5.2305   -2.1290   -0.6396 C   0  0  0  0  0  0  0  0  0  0  0  0
    3.9270   -1.6749   -0.3925 C   0  0  0  0  0  0  0  0  0  0  0  0
    1.8799    2.1357    0.4219 C   0  0  0  0  0  0  0  0  0  0  0  0
    1.3412    2.7818    1.5576 C   0  0  0  0  0  0  0  0  0  0  0  0
    1.2437    4.1810    1.6262 C   0  0  0  0  0  0  0  0  0  0  0  0
    1.6926    4.9723    0.5576 C   0  0  0  0  0  0  0  0  0  0  0  0
    2.2498    4.3542   -0.5750 C   0  0  0  0  0  0  0  0  0  0  0  0
    2.3383    2.9552   -0.6385 C   0  0  0  0  0  0  0  0  0  0  0  0
    0.7753   -0.0829    2.5278 H   0  0  0  0  0  0  0  0  0  0  0  0
    2.4525   -0.6939    2.5650 H   0  0  0  0  0  0  0  0  0  0  0  0
    1.6123   -2.9441    3.3682 H   0  0  0  0  0  0  0  0  0  0  0  0
    0.6752   -5.1850    2.7423 H   0  0  0  0  0  0  0  0  0  0  0  0
   -0.4572   -5.4625    0.5067 H   0  0  0  0  0  0  0  0  0  0  0  0
   -0.6168   -3.5623   -1.0500 H   0  0  0  0  0  0  0  0  0  0  0  0
    4.5782    1.6658   -0.0101 H   0  0  0  0  0  0  0  0  0  0  0  0
    6.8856    0.8664   -0.4759 H   0  0  0  0  0  0  0  0  0  0  0  0
    7.3233   -1.5717   -0.8778 H   0  0  0  0  0  0  0  0  0  0  0  0
    5.4146   -3.2023   -0.8043 H   0  0  0  0  0  0  0  0  0  0  0  0
    3.0981   -2.4008   -0.3687 H   0  0  0  0  0  0  0  0  0  0  0  0
    0.9865    2.1795    2.4082 H   0  0  0  0  0  0  0  0  0  0  0  0
    0.8145    4.6577    2.5215 H   0  0  0  0  0  0  0  0  0  0  0  0
    1.6153    6.0692    0.6086 H   0  0  0  0  0  0  0  0  0  0  0  0
    2.6183    4.9675   -1.4125 H   0  0  0  0  0  0  0  0  0  0  0  0
    2.7788    2.4888   -1.5352 H   0  0  0  0  0  0  0  0  0  0  0  0
  1 15  1  0  0  0  0
  1  2  1  0  0  0  0
  2 21  1  0  0  0  0
  2 22  1  0  0  0  0
  3  2  1  0  0  0  0
  3  4  1  0  0  0  0
  4 23  1  0  0  0  0
  5  4  2  0  0  0  0
  5 24  1  0  0  0  0
  6  5  1  0  0  0  0
  7  8  1  0  0  0  0
  7  6  2  0  0  0  0
  8  3  2  0  0  0  0
  9  1  1  0  0  0  0
 10  9  1  0  0  0  0
 10 27  1  0  0  0  0
 11 10  2  0  0  0  0
 12 13  2  0  0  0  0
 12 11  1  0  0  0  0
 13 14  1  0  0  0  0
 14 31  1  0  0  0  0
 14  9  2  0  0  0  0
 15 16  1  0  0  0  0
 16 17  2  0  0  0  0
 16 32  1  0  0  0  0
 17 33  1  0  0  0  0
 18 34  1  0  0  0  0
 18 17  1  0  0  0  0
 19 18  2  0  0  0  0
 20 19  1  0  0  0  0
 20 15  2  0  0  0  0
 25  6  1  0  0  0  0
 26  7  1  0  0  0  0
 28 11  1  0  0  0  0
 29 12  1  0  0  0  0
 30 13  1  0  0  0  0
 35 19  1  0  0  0  0
 36 20  1  0  0  0  0
M  END
