1,4
q = 0.0, confidence = 0.942

 32 33  0  0  0  0  0  0  0  0999 V2000
    1.2389    0.1468    1.0213 Si  0  0  0  0  0  3  0  0  0  0  0  0
    1.3257    0.2917    2.9359 C   0  0  0  0  0  0  0  0  0  0  0  0
   -0.0468   -0.1494    3.4602 C   0  0  0  0  0  0  0  0  0  0  0  0
   -1.1850    0.4582    2.6245 C   0  0  0  0  0  3  0  0  0  0  0  0
    2.0660   -1.4767    0.4430 C   0  0  0  0  0  0  0  0  0  0  0  0
    1.7227   -2.6920    1.0849 C   0  0  0  0  0  0  0  0  0  0  0  0
    2.1947   -3.9279    0.6187 C   0  0  0  0  0  0  0  0  0  0  0  0
    3.0273   -3.9839   -0.5127 C   0  0  0  0  0  0  0  0  0  0  0  0
    3.3891   -2.7931   -1.1616 C   0  0  0  0  0  0  0  0  0  0  0  0
    2.9150   -1.5582   -0.6857 C   0  0  0  0  0  0  0  0  0  0  0  0
    2.1954    1.5900    0.2137 C   0  0  0  0  0  0  0  0  0  0  0  0
    3.6082    1.6599    0.2271 C   0  0  0  0  0  0  0  0  0  0  0  0
    4.2904    2.7512   -0.3349 C   0  0  0  0  0  0  0  0  0  0  0  0
    3.5705    3.8051   -0.9215 C   0  0  0  0  0  0  0  0  0  0  0  0
    2.1670    3.7629   -0.9368 C   0  0  0  0  0  0  0  0  0  0  0  0
    1.4931    2.6665   -0.3748 C   0  0  0  0  0  0  0  0  0  0  0  0
    1.4931    1.3678    3.1627 H   0  0  0  0  0  0  0  0  0  0  0  0
    2.1720   -0.2693    3.3861 H   0  0  0  0  0  0  0  0  0  0  0  0
   -0.1629    0.1161    4.5397 H   0  0  0  0  0  0  0  0  0  0  0  0
   -0.1171   -1.2596    3.4207 H   0  0  0  0  0  0  0  0  0  0  0  0
   -2.1708    0.0923    2.9875 H   0  0  0  0  0  0  0  0  0  0  0  0
   -1.1937    1.5670    2.7461 H   0  0  0  0  0  0  0  0  0  0  0  0
    1.0581   -2.6702    1.9644 H   0  0  0  0  0  0  0  0  0  0  0  0
    1.9097   -4.8564    1.1383 H   0  0  0  0  0  0  0  0  0  0  0  0
    3.3959   -4.9530   -0.8834 H   0  0  0  0  0  0  0  0  0  0  0  0
    4.0485   -2.8245   -2.0436 H   0  0  0  0  0  0  0  0  0  0  0  0
    3.2182   -0.6339   -1.2042 H   0  0  0  0  0  0  0  0  0  0  0  0
    4.1898    0.8431    0.6857 H   0  0  0  0  0  0  0  0  0  0  0  0
    5.3913    2.7817   -0.3139 H   0  0  0  0  0  0  0  0  0  0  0  0
    4.1043    4.6610   -1.3631 H   0  0  0  0  0  0  0  0  0  0  0  0
    1.5962    4.5902   -1.3880 H   0  0  0  0  0  0  0  0  0  0  0  0
    0.3893    2.6323   -0.3831 H   0  0  0  0  0  0  0  0  0  0  0  0
  1  2  1  0  0  0  0
  2 17  1  0  0  0  0
  2 18  1  0  0  0  0
  2  3  1  0  0  0  0
  3 19  1  0  0  0  0
  4 22  1  0  0  0  0
  4 21  1  0  0  0  0
  4  3  1  0  0  0  0
  5  1  1  0  0  0  0
  5  6  1  0  0  0  0
  6 23  1  0  0  0  0
  7  6  2  0  0  0  0
  7 24  1  0  0  0  0
  8  7  1  0  0  0  0
  9 10  1  0  0  0  0
  9  8  2  0  0  0  0
 10  5  2  0  0  0  0
 11 12  1  0  0  0  0
 11  1  1  0  0  0  0
 12 28  1  0  0  0  0
 13 29  1  0  0  0  0
 13 12  2  0  0  0  0
 14 13  1  0  0  0  0
 15 14  2  0  0  0  0
 15 16  1  0  0  0  0
 16 11  2  0  0  0  0
 20  3  1  0  0  0  0
 25  8  1  0  0  0  0
 26  9  1  0  0  0  0
 27 10  1  0  0  0  0
 30 14  1  0  0  0  0
 31 15  1  0  0  0  0
 32 16  1  0  0  0  0
M  END
