1,9
q = nan, confidence = 0.0

  9  8  0  0  0  0  0  0  0  0999 V2000
   -1.7356    1.3467    0.2797 Si  0  0  0  0  0  0  0  0  0  0  0  0
   -1.7145    2.4072   -0.8070 H   0  0  0  0  0  0  0  0  0  0  0  0
   -2.0892    2.1122    1.5393 H   0  0  0  0  0  0  0  0  0  0  0  0
   -3.6674    0.0315   -0.0604 Si  0  0  0  0  0  0  0  0  0  0  0  0
   -3.7413   -1.0418    0.9976 H   0  0  0  0  0  0  0  0  0  0  0  0
   -4.9396    0.8408    0.0136 H   0  0  0  0  0  0  0  0  0  0  0  0
   -3.6875   -0.6799   -1.3942 H   0  0  0  0  0  0  0  0  0  0  0  0
    1.2066    2.4064    2.0208 O   0  0  0  0  0  1  0  0  0  0  0  0
    0.7814    1.5135    1.3993 C   0  0  0  0  0  2  0  0  0  0  0  0
  1  3  1  0  0  0  0
  1  9  1  0  0  0  0
  2  1  1  0  0  0  0
  4  6  1  0  0  0  0
  4  1  1  0  0  0  0
  4  5  1  0  0  0  0
  7  4  1  0  0  0  0
  9  8  1  0  0  0  0
M  HYD  2   8   0   9   0
M  ZBO  1   2   0
M  END
