1,3
q = -1.0, confidence = 0.002

 40 41  0  0  0  0  0  0  0  0999 V2000
    2.2472   -1.0546   -0.8063 C   0  0  0  0  0  2  0  0  0  0  0  0
    2.5303   -2.1212   -1.1911 O   0  0  0  0  0  1  0  0  0  0  0  0
   -0.3342   -0.2555    0.0110 Si  0  0  0  0  0  0  0  0  0  0  0  0
   -1.5493    1.2124    0.2319 C   0  0  0  0  0  0  0  0  0  0  0  0
   -2.4085    1.3131    1.3506 C   0  0  0  0  0  0  0  0  0  0  0  0
   -3.3237    2.3712    1.4814 C   0  0  0  0  0  0  0  0  0  0  0  0
   -3.4026    3.3602    0.4898 C   0  0  0  0  0  0  0  0  0  0  0  0
   -2.5617    3.2800   -0.6328 C   0  0  0  0  0  0  0  0  0  0  0  0
   -1.6493    2.2212   -0.7571 C   0  0  0  0  0  0  0  0  0  0  0  0
   -1.2752   -1.5038   -1.7854 Si  0  0  0  0  0  0  0  0  0  0  0  0
   -3.1623   -1.3463   -1.6144 C   0  0  0  0  0  0  0  0  0  0  0  0
   -0.7861   -0.8713   -3.5086 C   0  0  0  0  0  0  0  0  0  0  0  0
   -0.7796   -3.3393   -1.7072 C   0  0  0  0  0  0  0  0  0  0  0  0
   -0.4882   -1.7103    1.8896 Si  0  0  0  0  0  0  0  0  0  0  0  0
   -2.2014   -2.5437    1.9441 C   0  0  0  0  0  0  0  0  0  0  0  0
    0.8304   -3.0725    1.7409 C   0  0  0  0  0  0  0  0  0  0  0  0
   -0.2346   -0.8860    3.5953 C   0  0  0  0  0  0  0  0  0  0  0  0
   -2.3725    0.5455    2.1391 H   0  0  0  0  0  0  0  0  0  0  0  0
   -3.9798    2.4208    2.3645 H   0  0  0  0  0  0  0  0  0  0  0  0
   -4.1183    4.1906    0.5892 H   0  0  0  0  0  0  0  0  0  0  0  0
   -2.6191    4.0475   -1.4205 H   0  0  0  0  0  0  0  0  0  0  0  0
   -1.0049    2.1796   -1.6490 H   0  0  0  0  0  0  0  0  0  0  0  0
   -3.4715   -0.2858   -1.7121 H   0  0  0  0  0  0  0  0  0  0  0  0
   -3.5166   -1.7090   -0.6291 H   0  0  0  0  0  0  0  0  0  0  0  0
   -3.6749   -1.9341   -2.4050 H   0  0  0  0  0  0  0  0  0  0  0  0
   -1.0357    0.1985   -3.6502 H   0  0  0  0  0  0  0  0  0  0  0  0
   -1.3341   -1.4577   -4.2766 H   0  0  0  0  0  0  0  0  0  0  0  0
    0.2989   -0.9943   -3.6979 H   0  0  0  0  0  0  0  0  0  0  0  0
   -1.1196   -3.8255   -0.7713 H   0  0  0  0  0  0  0  0  0  0  0  0
    0.3205   -3.4572   -1.7764 H   0  0  0  0  0  0  0  0  0  0  0  0
   -1.2380   -3.8856   -2.5586 H   0  0  0  0  0  0  0  0  0  0  0  0
   -2.3873   -3.1507    1.0358 H   0  0  0  0  0  0  0  0  0  0  0  0
   -3.0194   -1.7993    2.0222 H   0  0  0  0  0  0  0  0  0  0  0  0
   -2.2674   -3.2185    2.8238 H   0  0  0  0  0  0  0  0  0  0  0  0
    0.7494   -3.6215    0.7827 H   0  0  0  0  0  0  0  0  0  0  0  0
    0.7139   -3.8024    2.5695 H   0  0  0  0  0  0  0  0  0  0  0  0
    1.8560   -2.6552    1.7965 H   0  0  0  0  0  0  0  0  0  0  0  0
    0.8036   -0.5291    3.7450 H   0  0  0  0  0  0  0  0  0  0  0  0
   -0.4415   -1.6389    4.3855 H   0  0  0  0  0  0  0  0  0  0  0  0
   -0.9159   -0.0285    3.7679 H   0  0  0  0  0  0  0  0  0  0  0  0
  2  1  1  0  0  0  0
  3  4  1  0  0  0  0
  3 14  1  0  0  0  0
  3  1  1  0  0  0  0
  3  9  1  0  0  0  0
  4  5  1  0  0  0  0
  5  6  2  0  0  0  0
  5 18  1  0  0  0  0
  6 19  1  0  0  0  0
  7 20  1  0  0  0  0
  7  6  1  0  0  0  0
  8  7  2  0  0  0  0
  9  8  1  0  0  0  0
  9  4  2  0  0  0  0
 10 13  1  0  0  0  0
 10 11  1  0  0  0  0
 10  3  1  0  0  0  0
 11 24  1  0  0  0  0
 12 10  1  0  0  0  0
 13 29  1  0  0  0  0
 14 15  1  0  0  0  0
 14 17  1  0  0  0  0
 15 33  1  0  0  0  0
 15 34  1  0  0  0  0
 16 37  1  0  0  0  0
 16 14  1  0  0  0  0
 16 36  1  0  0  0  0
 17 38  1  0  0  0  0
 17 40  1  0  0  0  0
 17 39  1  0  0  0  0
 21  8  1  0  0  0  0
 22  9  1  0  0  0  0
 23 11  1  0  0  0  0
 25 11  1  0  0  0  0
 26 12  1  0  0  0  0
 27 12  1  0  0  0  0
 28 12  1  0  0  0  0
 30 13  1  0  0  0  0
 31 13  1  0  0  0  0
 32 15  1  0  0  0  0
 35 16  1  0  0  0  0
M  HYD  2   1   0   2   0
M  ZBO  2   4   0   5   0
M  END
