1,6
q = -1.0

 13 12  0  0  0  0  0  0  0  0999 V2000
   -0.0001    2.3715    0.7943 Si  0  0  0  0  0  0  0  0  0  0  0  0
    1.4914    3.5453    0.7225 C   0  0  0  0  0  0  0  0  0  0  0  0
    1.4082    4.2720    1.5574 H   0  0  0  0  0  0  0  0  0  0  0  0
    1.4861    4.1251   -0.2241 H   0  0  0  0  0  0  0  0  0  0  0  0
    2.4726    3.0446    0.8107 H   0  0  0  0  0  0  0  0  0  0  0  0
    0.0000    0.9619    1.9518 C   0  0  0  0  0  3  0  0  0  0  0  0
    0.0001    1.6866   -0.7983 H   0  0  0  0  0  0  0  0  0  0  0  0
    0.9115    0.7636    2.5484 H   0  0  0  0  0  0  0  0  0  0  0  0
   -1.4917    3.5451    0.7226 C   0  0  0  0  0  0  0  0  0  0  0  0
   -1.4086    4.2719    1.5574 H   0  0  0  0  0  0  0  0  0  0  0  0
   -1.4866    4.1248   -0.2241 H   0  0  0  0  0  0  0  0  0  0  0  0
   -2.4728    3.0443    0.8108 H   0  0  0  0  0  0  0  0  0  0  0  0
   -0.9114    0.7635    2.5484 H   0  0  0  0  0  0  0  0  0  0  0  0
  1  6  1  0  0  0  0
  2  1  1  0  0  0  0
  2  5  1  0  0  0  0
  2  3  1  0  0  0  0
  4  2  1  0  0  0  0
  6  8  1  0  0  0  0
  6 13  1  0  0  0  0
  7  1  1  0  0  0  0
  9  1  1  0  0  0  0
  9 12  1  0  0  0  0
  9 10  1  0  0  0  0
 11  9  1  0  0  0  0
M  END
