1,2,3
q = 0.0, confidence = 0.98

 70 74  0  0  0  0  0  0  0  0999 V2000
    1.3572    1.2225   -1.1910 P   0  0  0  0  0  0  0  0  0  0  0  0
   -0.6584   -0.8741   -2.0080 P   0  0  0  0  0  0  0  0  0  0  0  0
   -2.3301    0.3616    0.1379 P   0  0  0  0  0  0  0  0  0  0  0  0
    1.2305    0.8612   -3.0305 C   0  0  0  0  0  0  0  0  0  0  0  0
    0.5502    1.6443   -3.4247 H   0  0  0  0  0  0  0  0  0  0  0  0
    2.2107    1.0016   -3.5303 H   0  0  0  0  0  0  0  0  0  0  0  0
    0.6580   -0.5402   -3.2736 C   0  0  0  0  0  0  0  0  0  0  0  0
    1.4115   -1.3332   -3.0899 H   0  0  0  0  0  0  0  0  0  0  0  0
    0.2552   -0.6555   -4.3013 H   0  0  0  0  0  0  0  0  0  0  0  0
   -2.1777    0.0460   -2.6080 C   0  0  0  0  0  0  0  0  0  0  0  0
   -1.8776    1.0950   -2.8125 H   0  0  0  0  0  0  0  0  0  0  0  0
   -2.5554   -0.4037   -3.5500 H   0  0  0  0  0  0  0  0  0  0  0  0
   -3.2040   -0.0344   -1.4758 C   0  0  0  0  0  0  0  0  0  0  0  0
   -3.5805   -1.0731   -1.3711 H   0  0  0  0  0  0  0  0  0  0  0  0
   -4.0812    0.6248   -1.6316 H   0  0  0  0  0  0  0  0  0  0  0  0
    3.5309    1.2322    0.5487 C   0  0  0  0  0  0  0  0  0  0  0  0
    2.9399    1.9677    1.1148 H   0  0  0  0  0  0  0  0  0  0  0  0
    4.7284    0.7384    1.0819 C   0  0  0  0  0  0  0  0  0  0  0  0
    5.0670    1.0820    2.0698 H   0  0  0  0  0  0  0  0  0  0  0  0
    5.4647   -0.2319    0.3830 C   0  0  0  0  0  0  0  0  0  0  0  0
    6.3845   -0.6430    0.8242 H   0  0  0  0  0  0  0  0  0  0  0  0
    5.0064   -0.6963   -0.8590 C   0  0  0  0  0  0  0  0  0  0  0  0
    5.5732   -1.4624   -1.4090 H   0  0  0  0  0  0  0  0  0  0  0  0
    3.8008   -0.2162   -1.3932 C   0  0  0  0  0  0  0  0  0  0  0  0
    3.4387   -0.6274   -2.3455 H   0  0  0  0  0  0  0  0  0  0  0  0
    3.0509    0.7486   -0.6906 C   0  0  0  0  0  0  0  0  0  0  0  0
    2.4563    3.8059   -1.6169 C   0  0  0  0  0  0  0  0  0  0  0  0
    3.3390    3.2901   -2.0264 H   0  0  0  0  0  0  0  0  0  0  0  0
    2.4156    5.2068   -1.5744 C   0  0  0  0  0  0  0  0  0  0  0  0
    3.2629    5.7905   -1.9656 H   0  0  0  0  0  0  0  0  0  0  0  0
    1.3010    5.8644   -1.0249 C   0  0  0  0  0  0  0  0  0  0  0  0
    1.2770    6.9643   -0.9869 H   0  0  0  0  0  0  0  0  0  0  0  0
    0.2271    5.1194   -0.5142 C   0  0  0  0  0  0  0  0  0  0  0  0
   -0.6442    5.6236   -0.0696 H   0  0  0  0  0  0  0  0  0  0  0  0
    0.2640    3.7173   -0.5567 C   0  0  0  0  0  0  0  0  0  0  0  0
   -0.5634    3.1232   -0.1442 H   0  0  0  0  0  0  0  0  0  0  0  0
    1.3724    3.0552   -1.1153 C   0  0  0  0  0  0  0  0  0  0  0  0
   -1.4884   -3.1710   -3.4326 C   0  0  0  0  0  0  0  0  0  0  0  0
   -1.2678   -2.6111   -4.3552 H   0  0  0  0  0  0  0  0  0  0  0  0
   -2.0101   -4.4715   -3.5219 C   0  0  0  0  0  0  0  0  0  0  0  0
   -2.1881   -4.9214   -4.5105 H   0  0  0  0  0  0  0  0  0  0  0  0
   -2.3058   -5.1932   -2.3549 C   0  0  0  0  0  0  0  0  0  0  0  0
   -2.7190   -6.2106   -2.4282 H   0  0  0  0  0  0  0  0  0  0  0  0
   -2.0696   -4.6186   -1.0948 C   0  0  0  0  0  0  0  0  0  0  0  0
   -2.2940   -5.1823   -0.1769 H   0  0  0  0  0  0  0  0  0  0  0  0
   -1.5277   -3.3307   -1.0002 C   0  0  0  0  0  0  0  0  0  0  0  0
   -1.3057   -2.8822   -0.0217 H   0  0  0  0  0  0  0  0  0  0  0  0
   -1.2394   -2.6002   -2.1691 C   0  0  0  0  0  0  0  0  0  0  0  0
   -4.5812   -0.5595    1.6083 C   0  0  0  0  0  0  0  0  0  0  0  0
   -5.1771    0.1660    1.0321 H   0  0  0  0  0  0  0  0  0  0  0  0
   -5.2053   -1.3858    2.5537 C   0  0  0  0  0  0  0  0  0  0  0  0
   -6.2928   -1.3166    2.7088 H   0  0  0  0  0  0  0  0  0  0  0  0
   -4.4426   -2.2956    3.3064 C   0  0  0  0  0  0  0  0  0  0  0  0
   -4.9348   -2.9388    4.0517 H   0  0  0  0  0  0  0  0  0  0  0  0
   -3.0546   -2.3789    3.1149 C   0  0  0  0  0  0  0  0  0  0  0  0
   -2.4535   -3.0816    3.7112 H   0  0  0  0  0  0  0  0  0  0  0  0
   -2.4261   -1.5599    2.1642 C   0  0  0  0  0  0  0  0  0  0  0  0
   -1.3372   -1.6063    2.0062 H   0  0  0  0  0  0  0  0  0  0  0  0
   -3.1890   -0.6516    1.4058 C   0  0  0  0  0  0  0  0  0  0  0  0
   -2.7878    2.5018    1.8933 C   0  0  0  0  0  0  0  0  0  0  0  0
   -2.5122    1.7847    2.6810 H   0  0  0  0  0  0  0  0  0  0  0  0
   -3.0655    3.8361    2.2217 C   0  0  0  0  0  0  0  0  0  0  0  0
   -3.0095    4.1591    3.2722 H   0  0  0  0  0  0  0  0  0  0  0  0
   -3.4131    4.7559    1.2186 C   0  0  0  0  0  0  0  0  0  0  0  0
   -3.6333    5.8019    1.4804 H   0  0  0  0  0  0  0  0  0  0  0  0
   -3.4796    4.3357   -0.1196 C   0  0  0  0  0  0  0  0  0  0  0  0
   -3.7498    5.0505   -0.9117 H   0  0  0  0  0  0  0  0  0  0  0  0
   -3.1942    3.0037   -0.4548 C   0  0  0  0  0  0  0  0  0  0  0  0
   -3.2288    2.6981   -1.5115 H   0  0  0  0  0  0  0  0  0  0  0  0
   -2.8525    2.0731    0.5491 C   0  0  0  0  0  0  0  0  0  0  0  0
  1 37  1  0  0  0  0
  1 26  1  0  0  0  0
  3 70  1  0  0  0  0
  3 59  1  0  0  0  0
  4  1  1  0  0  0  0
  5  4  1  0  0  0  0
  6  4  1  0  0  0  0
  7  8  1  0  0  0  0
  7  4  1  0  0  0  0
  7  2  1  0  0  0  0
  9  7  1  0  0  0  0
 10  2  1  0  0  0  0
 10 13  1  0  0  0  0
 11 10  1  0  0  0  0
 12 10  1  0  0  0  0
 13 14  1  0  0  0  0
 13  3  1  0  0  0  0
 15 13  1  0  0  0  0
 16 18  1  0  0  0  0
 16 17  1  0  0  0  0
 18 19  1  0  0  0  0
 20 21  1  0  0  0  0
 20 18  2  0  0  0  0
 22 20  1  0  0  0  0
 23 22  1  0  0  0  0
 24 22  2  0  0  0  0
 24 26  1  0  0  0  0
 25 24  1  0  0  0  0
 26 16  2  0  0  0  0
 27 29  2  0  0  0  0
 27 37  1  0  0  0  0
 28 27  1  0  0  0  0
 29 31  1  0  0  0  0
 30 29  1  0  0  0  0
 31 32  1  0  0  0  0
 31 33  2  0  0  0  0
 33 34  1  0  0  0  0
 35 33  1  0  0  0  0
 35 36  1  0  0  0  0
 37 35  2  0  0  0  0
 38 48  1  0  0  0  0
 39 38  1  0  0  0  0
 40 38  2  0  0  0  0
 40 42  1  0  0  0  0
 41 40  1  0  0  0  0
 42 44  2  0  0  0  0
 43 42  1  0  0  0  0
 44 46  1  0  0  0  0
 44 45  1  0  0  0  0
 46 47  1  0  0  0  0
 48  2  1  0  0  0  0
 48 46  2  0  0  0  0
 49 51  1  0  0  0  0
 50 49  1  0  0  0  0
 51 52  1  0  0  0  0
 51 53  2  0  0  0  0
 53 54  1  0  0  0  0
 55 53  1  0  0  0  0
 55 56  1  0  0  0  0
 57 55  2  0  0  0  0
 58 57  1  0  0  0  0
 59 49  2  0  0  0  0
 59 57  1  0  0  0  0
 60 62  1  0  0  0  0
 60 61  1  0  0  0  0
 62 63  1  0  0  0  0
 64 65  1  0  0  0  0
 64 62  2  0  0  0  0
 66 64  1  0  0  0  0
 67 66  1  0  0  0  0
 68 66  2  0  0  0  0
 68 70  1  0  0  0  0
 69 68  1  0  0  0  0
 70 60  2  0  0  0  0
M  END
