1,2,3
q = 0.0, confidence = 0.986

 79 85  0  0  0  0  0  0  0  0999 V2000
    2.2541   -0.2491    0.3417 P   0  0  0  0  0  0  0  0  0  0  0  0
    0.0292    1.7784    0.9839 P   0  0  0  0  0  0  0  0  0  0  0  0
   -2.2943   -0.2021    0.1996 P   0  0  0  0  0  0  0  0  0  0  0  0
    1.2864    2.9295    0.6757 N   0  0  0  0  0  0  0  0  0  0  0  0
   -1.2287    2.9125    0.6704 N   0  0  0  0  0  0  0  0  0  0  0  0
    3.2538   -1.3144   -0.7601 C   0  0  0  0  0  0  0  0  0  0  0  0
    3.2338   -1.0181   -2.1389 C   0  0  0  0  0  0  0  0  0  0  0  0
    3.9872   -1.8035   -3.0195 C   0  0  0  0  0  0  0  0  0  0  0  0
    4.7467   -2.8834   -2.5365 C   0  0  0  0  0  0  0  0  0  0  0  0
    4.7532   -3.1804   -1.1653 C   0  0  0  0  0  0  0  0  0  0  0  0
    4.0067   -2.3968   -0.2707 C   0  0  0  0  0  0  0  0  0  0  0  0
    2.4365   -0.9406    2.0420 C   0  0  0  0  0  0  0  0  0  0  0  0
    3.3571   -0.4215    2.9756 C   0  0  0  0  0  0  0  0  0  0  0  0
    3.3930   -0.9309    4.2844 C   0  0  0  0  0  0  0  0  0  0  0  0
    2.5201   -1.9611    4.6667 C   0  0  0  0  0  0  0  0  0  0  0  0
    1.6088   -2.4867    3.7346 C   0  0  0  0  0  0  0  0  0  0  0  0
    1.5602   -1.9775    2.4306 C   0  0  0  0  0  0  0  0  0  0  0  0
    3.2080    1.3225    0.3748 C   0  0  0  0  0  0  0  0  0  0  0  0
    4.6085    1.1845    0.2138 C   0  0  0  0  0  0  0  0  0  0  0  0
    5.4705    2.2799    0.1461 C   0  0  0  0  0  0  0  0  0  0  0  0
    4.9189    3.5670    0.2164 C   0  0  0  0  0  0  0  0  0  0  0  0
    3.5434    3.7358    0.3706 C   0  0  0  0  0  0  0  0  0  0  0  0
    2.6480    2.6358    0.4758 C   0  0  0  0  0  0  0  0  0  0  0  0
    0.7381    4.1821    0.1299 C   0  0  0  0  0  0  0  0  0  0  0  0
   -0.7131    4.2771    0.5835 C   0  0  0  0  0  0  0  0  0  0  0  0
   -2.6064    2.6686    0.6073 C   0  0  0  0  0  0  0  0  0  0  0  0
   -3.4779    3.7817    0.7703 C   0  0  0  0  0  0  0  0  0  0  0  0
   -4.8651    3.6569    0.6786 C   0  0  0  0  0  0  0  0  0  0  0  0
   -5.4479    2.4079    0.4229 C   0  0  0  0  0  0  0  0  0  0  0  0
   -4.6101    1.3000    0.2754 C   0  0  0  0  0  0  0  0  0  0  0  0
   -3.2026    1.3900    0.3717 C   0  0  0  0  0  0  0  0  0  0  0  0
   -3.2692   -1.1034   -1.0620 C   0  0  0  0  0  0  0  0  0  0  0  0
   -3.0458   -0.7557   -2.4099 C   0  0  0  0  0  0  0  0  0  0  0  0
   -3.7860   -1.3901   -3.4152 C   0  0  0  0  0  0  0  0  0  0  0  0
   -4.7350   -2.3730   -3.0862 C   0  0  0  0  0  0  0  0  0  0  0  0
   -4.9477   -2.7220   -1.7439 C   0  0  0  0  0  0  0  0  0  0  0  0
   -4.2174   -2.0876   -0.7261 C   0  0  0  0  0  0  0  0  0  0  0  0
   -2.6062   -1.0367    1.8141 C   0  0  0  0  0  0  0  0  0  0  0  0
   -3.1782   -0.3507    2.9063 C   0  0  0  0  0  0  0  0  0  0  0  0
   -3.2968   -0.9841    4.1545 C   0  0  0  0  0  0  0  0  0  0  0  0
   -2.8637   -2.3078    4.3207 C   0  0  0  0  0  0  0  0  0  0  0  0
   -2.3076   -2.9992    3.2301 C   0  0  0  0  0  0  0  0  0  0  0  0
   -2.1684   -2.3693    1.9866 C   0  0  0  0  0  0  0  0  0  0  0  0
    0.0563    1.5985    2.8109 C   0  0  0  0  0  0  0  0  0  0  0  0
    2.6073   -0.1901   -2.5147 H   0  0  0  0  0  0  0  0  0  0  0  0
    3.9674   -1.5778   -4.0963 H   0  0  0  0  0  0  0  0  0  0  0  0
    5.3303   -3.5021   -3.2353 H   0  0  0  0  0  0  0  0  0  0  0  0
    5.3394   -4.0310   -0.7854 H   0  0  0  0  0  0  0  0  0  0  0  0
    4.0045   -2.6323    0.8040 H   0  0  0  0  0  0  0  0  0  0  0  0
    4.0386    0.3909    2.6833 H   0  0  0  0  0  0  0  0  0  0  0  0
    4.1087   -0.5148    5.0099 H   0  0  0  0  0  0  0  0  0  0  0  0
    2.5465   -2.3525    5.6951 H   0  0  0  0  0  0  0  0  0  0  0  0
    0.9145   -3.2886    4.0281 H   0  0  0  0  0  0  0  0  0  0  0  0
    0.8349   -2.3710    1.6999 H   0  0  0  0  0  0  0  0  0  0  0  0
    5.0245    0.1710    0.1179 H   0  0  0  0  0  0  0  0  0  0  0  0
    6.5524    2.1292    0.0219 H   0  0  0  0  0  0  0  0  0  0  0  0
    5.5628    4.4569    0.1480 H   0  0  0  0  0  0  0  0  0  0  0  0
    3.1513    4.7576    0.4245 H   0  0  0  0  0  0  0  0  0  0  0  0
    0.8101    4.1504   -0.9805 H   0  0  0  0  0  0  0  0  0  0  0  0
    1.2899    5.0585    0.5191 H   0  0  0  0  0  0  0  0  0  0  0  0
   -1.2969    4.8463   -0.1664 H   0  0  0  0  0  0  0  0  0  0  0  0
   -0.7995    4.8034    1.5636 H   0  0  0  0  0  0  0  0  0  0  0  0
   -3.0568    4.7706    0.9878 H   0  0  0  0  0  0  0  0  0  0  0  0
   -5.4931    4.5508    0.8124 H   0  0  0  0  0  0  0  0  0  0  0  0
   -6.5382    2.2950    0.3397 H   0  0  0  0  0  0  0  0  0  0  0  0
   -5.0563    0.3160    0.0699 H   0  0  0  0  0  0  0  0  0  0  0  0
   -2.2753   -0.0063   -2.6647 H   0  0  0  0  0  0  0  0  0  0  0  0
   -3.6061   -1.1227   -4.4674 H   0  0  0  0  0  0  0  0  0  0  0  0
   -5.3069   -2.8751   -3.8816 H   0  0  0  0  0  0  0  0  0  0  0  0
   -5.6848   -3.4967   -1.4827 H   0  0  0  0  0  0  0  0  0  0  0  0
   -4.3809   -2.3660    0.3256 H   0  0  0  0  0  0  0  0  0  0  0  0
   -3.5376    0.6813    2.7799 H   0  0  0  0  0  0  0  0  0  0  0  0
   -3.7403   -0.4369    5.0005 H   0  0  0  0  0  0  0  0  0  0  0  0
   -2.9624   -2.8030    5.2986 H   0  0  0  0  0  0  0  0  0  0  0  0
   -1.9711   -4.0408    3.3488 H   0  0  0  0  0  0  0  0  0  0  0  0
   -1.7030   -2.9006    1.1390 H   0  0  0  0  0  0  0  0  0  0  0  0
    0.9915    1.0798    3.1008 H   0  0  0  0  0  0  0  0  0  0  0  0
   -0.0014    2.5878    3.3038 H   0  0  0  0  0  0  0  0  0  0  0  0
   -0.7970    0.9578    3.1110 H   0  0  0  0  0  0  0  0  0  0  0  0
  1 18  1  0  0  0  0
  1 12  1  0  0  0  0
  2 44  1  0  0  0  0
  3 31  1  0  0  0  0
  3 38  1  0  0  0  0
  4  2  1  0  0  0  0
  5  2  1  0  0  0  0
  6 11  1  0  0  0  0
  6  1  1  0  0  0  0
  7  6  2  0  0  0  0
  8  9  2  0  0  0  0
  8  7  1  0  0  0  0
  9 10  1  0  0  0  0
 10 48  1  0  0  0  0
 10 11  2  0  0  0  0
 11 49  1  0  0  0  0
 12 17  2  0  0  0  0
 12 13  1  0  0  0  0
 13 14  2  0  0  0  0
 14 15  1  0  0  0  0
 14 51  1  0  0  0  0
 15 52  1  0  0  0  0
 16 53  1  0  0  0  0
 16 15  2  0  0  0  0
 17 16  1  0  0  0  0
 18 23  1  0  0  0  0
 19 18  2  0  0  0  0
 20 19  1  0  0  0  0
 20 21  2  0  0  0  0
 21 22  1  0  0  0  0
 22 58  1  0  0  0  0
 22 23  2  0  0  0  0
 23  4  1  0  0  0  0
 24 60  1  0  0  0  0
 24 25  1  0  0  0  0
 24  4  1  0  0  0  0
 25  5  1  0  0  0  0
 25 62  1  0  0  0  0
 26  5  1  0  0  0  0
 26 27  1  0  0  0  0
 27 63  1  0  0  0  0
 28 27  2  0  0  0  0
 28 64  1  0  0  0  0
 29 28  1  0  0  0  0
 30 31  1  0  0  0  0
 30 29  2  0  0  0  0
 31 26  2  0  0  0  0
 32 37  1  0  0  0  0
 32  3  1  0  0  0  0
 33 32  2  0  0  0  0
 34 35  2  0  0  0  0
 34 33  1  0  0  0  0
 35 36  1  0  0  0  0
 36 70  1  0  0  0  0
 36 37  2  0  0  0  0
 37 71  1  0  0  0  0
 38 43  2  0  0  0  0
 38 39  1  0  0  0  0
 39 40  2  0  0  0  0
 40 41  1  0  0  0  0
 40 73  1  0  0  0  0
 41 74  1  0  0  0  0
 42 75  1  0  0  0  0
 42 41  2  0  0  0  0
 43 42  1  0  0  0  0
 44 77  1  0  0  0  0
 44 79  1  0  0  0  0
 44 78  1  0  0  0  0
 45  7  1  0  0  0  0
 46  8  1  0  0  0  0
 47  9  1  0  0  0  0
 50 13  1  0  0  0  0
 54 17  1  0  0  0  0
 55 19  1  0  0  0  0
 56 20  1  0  0  0  0
 57 21  1  0  0  0  0
 59 24  1  0  0  0  0
 61 25  1  0  0  0  0
 65 29  1  0  0  0  0
 66 30  1  0  0  0  0
 67 33  1  0  0  0  0
 68 34  1  0  0  0  0
 69 35  1  0  0  0  0
 72 39  1  0  0  0  0
 76 43  1  0  0  0  0
M  END
