1,16,31
q = 0.0, confidence = 0.996

 47 46  0  0  0  0  0  0  0  0999 V2000
    1.2509   -1.9606    1.0639 P   0  0  0  0  0  0  0  0  0  0  0  0
    2.9603   -2.5750    0.6445 C   0  0  0  0  0  0  0  0  0  0  0  0
    3.1218   -3.5522    1.1543 H   0  0  0  0  0  0  0  0  0  0  0  0
    2.9530   -2.7822   -0.4478 H   0  0  0  0  0  0  0  0  0  0  0  0
    4.0759   -1.5904    1.0044 C   0  0  0  0  0  0  0  0  0  0  0  0
    5.0589   -2.1013    0.9004 H   0  0  0  0  0  0  0  0  0  0  0  0
    4.0174   -1.3116    2.0798 H   0  0  0  0  0  0  0  0  0  0  0  0
    1.3228   -2.0331    2.9215 C   0  0  0  0  0  0  0  0  0  0  0  0
    0.2918   -1.9358    3.3133 H   0  0  0  0  0  0  0  0  0  0  0  0
    1.9158   -1.1804    3.3059 H   0  0  0  0  0  0  0  0  0  0  0  0
    1.7631   -2.9841    3.2901 H   0  0  0  0  0  0  0  0  0  0  0  0
    0.2749   -3.5062    0.7370 C   0  0  0  0  0  0  0  0  0  0  0  0
    0.6609   -4.3806    1.3026 H   0  0  0  0  0  0  0  0  0  0  0  0
    0.3177   -3.7298   -0.3476 H   0  0  0  0  0  0  0  0  0  0  0  0
   -0.7835   -3.3286    1.0129 H   0  0  0  0  0  0  0  0  0  0  0  0
    1.2519    0.0583   -2.2287 P   0  0  0  0  0  0  0  0  0  0  0  0
    2.9620    0.7275   -2.5500 C   0  0  0  0  0  0  0  0  0  0  0  0
    3.1241    0.7748   -3.6510 H   0  0  0  0  0  0  0  0  0  0  0  0
    2.9545    1.7769   -2.1830 H   0  0  0  0  0  0  0  0  0  0  0  0
    4.0773   -0.0768   -1.8763 C   0  0  0  0  0  0  0  0  0  0  0  0
    5.0604    0.2687   -2.2664 H   0  0  0  0  0  0  0  0  0  0  0  0
    4.0192   -1.1477   -2.1721 H   0  0  0  0  0  0  0  0  0  0  0  0
    1.3234   -1.5144   -3.2198 C   0  0  0  0  0  0  0  0  0  0  0  0
    1.7627   -1.3584   -4.2281 H   0  0  0  0  0  0  0  0  0  0  0  0
    0.2924   -1.9026   -3.3302 H   0  0  0  0  0  0  0  0  0  0  0  0
    1.9172   -2.2733   -2.6735 H   0  0  0  0  0  0  0  0  0  0  0  0
    0.2779    1.1153   -3.4046 C   0  0  0  0  0  0  0  0  0  0  0  0
    0.3209    2.1662   -3.0555 H   0  0  0  0  0  0  0  0  0  0  0  0
   -0.7807    0.7882   -3.3908 H   0  0  0  0  0  0  0  0  0  0  0  0
    0.6655    1.0629   -4.4441 H   0  0  0  0  0  0  0  0  0  0  0  0
    1.2500    1.9013    1.1639 P   0  0  0  0  0  0  0  0  0  0  0  0
    2.9599    1.8476    1.9050 C   0  0  0  0  0  0  0  0  0  0  0  0
    3.1216    2.7794    2.4936 H   0  0  0  0  0  0  0  0  0  0  0  0
    2.9526    1.0075    2.6330 H   0  0  0  0  0  0  0  0  0  0  0  0
    4.0754    1.6636    0.8725 C   0  0  0  0  0  0  0  0  0  0  0  0
    5.0583    1.8309    1.3664 H   0  0  0  0  0  0  0  0  0  0  0  0
    4.0163    2.4529    0.0907 H   0  0  0  0  0  0  0  0  0  0  0  0
    1.3210    3.5451    0.2960 C   0  0  0  0  0  0  0  0  0  0  0  0
    1.7613    4.3410    0.9339 H   0  0  0  0  0  0  0  0  0  0  0  0
    0.2897    3.8348    0.0165 H   0  0  0  0  0  0  0  0  0  0  0  0
    1.9134    3.4508   -0.6350 H   0  0  0  0  0  0  0  0  0  0  0  0
    0.2755    2.3928    2.6661 C   0  0  0  0  0  0  0  0  0  0  0  0
    0.3180    1.5661    3.4031 H   0  0  0  0  0  0  0  0  0  0  0  0
   -0.7829    2.5436    2.3747 H   0  0  0  0  0  0  0  0  0  0  0  0
    0.6626    3.3200    3.1392 H   0  0  0  0  0  0  0  0  0  0  0  0
    4.3784   -0.0012    0.0014 Si  0  0  0  0  0  0  0  0  0  0  0  0
    6.0589   -0.0009    0.0029 F   0  0  0  0  0  0  0  0  0  0  0  0
  1  8  1  0  0  0  0
  2  5  1  0  0  0  0
  2  1  1  0  0  0  0
  2  3  1  0  0  0  0
  4  2  1  0  0  0  0
  5  7  1  0  0  0  0
  6  5  1  0  0  0  0
  8 11  1  0  0  0  0
  8 10  1  0  0  0  0
  8  9  1  0  0  0  0
 12 15  1  0  0  0  0
 12  1  1  0  0  0  0
 12 13  1  0  0  0  0
 14 12  1  0  0  0  0
 17 16  1  0  0  0  0
 17 19  1  0  0  0  0
 17 20  1  0  0  0  0
 18 17  1  0  0  0  0
 20 46  1  0  0  0  0
 21 20  1  0  0  0  0
 22 20  1  0  0  0  0
 23 26  1  0  0  0  0
 23 16  1  0  0  0  0
 24 23  1  0  0  0  0
 25 23  1  0  0  0  0
 27 29  1  0  0  0  0
 27 28  1  0  0  0  0
 27 16  1  0  0  0  0
 30 27  1  0  0  0  0
 31 32  1  0  0  0  0
 31 42  1  0  0  0  0
 32 33  1  0  0  0  0
 32 34  1  0  0  0  0
 35 36  1  0  0  0  0
 35 32  1  0  0  0  0
 37 35  1  0  0  0  0
 38 39  1  0  0  0  0
 38 31  1  0  0  0  0
 40 38  1  0  0  0  0
 41 38  1  0  0  0  0
 42 45  1  0  0  0  0
 42 43  1  0  0  0  0
 44 42  1  0  0  0  0
 46 47  1  0  0  0  0
 46 35  1  0  0  0  0
 46  5  1  0  0  0  0
M  END
