1,2,3
q = 0.0, confidence = 0.986

 64 67  0  0  0  0  0  0  0  0999 V2000
   -2.3309   -0.3125    0.3435 P   0  0  0  0  0  0  0  0  0  0  0  0
    0.0152   -0.6116    2.3388 P   0  0  0  0  0  0  0  0  0  0  0  0
    2.2556    0.0325    0.3085 P   0  0  0  0  0  0  0  0  0  0  0  0
   -2.7246   -0.6758    2.1360 C   0  0  0  0  0  0  0  0  0  0  0  0
   -3.7292   -0.2929    2.4082 H   0  0  0  0  0  0  0  0  0  0  0  0
   -2.7843   -1.7821    2.2010 H   0  0  0  0  0  0  0  0  0  0  0  0
   -1.6236   -0.1187    3.0520 C   0  0  0  0  0  0  0  0  0  0  0  0
   -1.7248   -0.4784    4.0973 H   0  0  0  0  0  0  0  0  0  0  0  0
   -1.6451    0.9911    3.0739 H   0  0  0  0  0  0  0  0  0  0  0  0
    0.3496   -2.3622    2.9269 C   0  0  0  0  0  0  0  0  0  0  0  0
    0.5346   -2.3248    4.0219 H   0  0  0  0  0  0  0  0  0  0  0  0
   -0.5840   -2.9507    2.7626 H   0  0  0  0  0  0  0  0  0  0  0  0
    1.4861   -2.9103    2.3164 O   0  0  0  0  0  0  0  0  0  0  0  0
    1.2860   -3.0706    1.3720 H   0  0  0  0  0  0  0  0  0  0  0  0
    1.4200    0.4165    2.9650 C   0  0  0  0  0  0  0  0  0  0  0  0
    1.1342    1.4795    2.8152 H   0  0  0  0  0  0  0  0  0  0  0  0
    1.5831    0.2537    4.0507 H   0  0  0  0  0  0  0  0  0  0  0  0
    2.6627    0.0503    2.1391 C   0  0  0  0  0  0  0  0  0  0  0  0
    2.9951   -0.9774    2.3878 H   0  0  0  0  0  0  0  0  0  0  0  0
    3.4951    0.7575    2.3274 H   0  0  0  0  0  0  0  0  0  0  0  0
    2.4316    1.7730   -0.2294 C   0  0  0  0  0  0  0  0  0  0  0  0
    3.6740    2.2657   -0.6779 C   0  0  0  0  0  0  0  0  0  0  0  0
    4.5427    1.5938   -0.7518 H   0  0  0  0  0  0  0  0  0  0  0  0
    3.7947    3.6142   -1.0448 C   0  0  0  0  0  0  0  0  0  0  0  0
    4.7634    3.9961   -1.4001 H   0  0  0  0  0  0  0  0  0  0  0  0
    2.6842    4.4708   -0.9703 C   0  0  0  0  0  0  0  0  0  0  0  0
    2.7843    5.5257   -1.2666 H   0  0  0  0  0  0  0  0  0  0  0  0
    1.4444    3.9789   -0.5314 C   0  0  0  0  0  0  0  0  0  0  0  0
    0.5663    4.6406   -0.4870 H   0  0  0  0  0  0  0  0  0  0  0  0
    1.3140    2.6322   -0.1653 C   0  0  0  0  0  0  0  0  0  0  0  0
    0.3317    2.2412    0.1458 H   0  0  0  0  0  0  0  0  0  0  0  0
    3.5734   -0.9225   -0.5026 C   0  0  0  0  0  0  0  0  0  0  0  0
    4.7726   -1.2670    0.1580 C   0  0  0  0  0  0  0  0  0  0  0  0
    4.9460   -0.9838    1.2062 H   0  0  0  0  0  0  0  0  0  0  0  0
    5.7665   -1.9774   -0.5315 C   0  0  0  0  0  0  0  0  0  0  0  0
    6.7012   -2.2435   -0.0159 H   0  0  0  0  0  0  0  0  0  0  0  0
    5.5700   -2.3451   -1.8720 C   0  0  0  0  0  0  0  0  0  0  0  0
    6.3527   -2.9026   -2.4079 H   0  0  0  0  0  0  0  0  0  0  0  0
    4.3753   -2.0045   -2.5277 C   0  0  0  0  0  0  0  0  0  0  0  0
    4.2180   -2.2958   -3.5769 H   0  0  0  0  0  0  0  0  0  0  0  0
    3.3735   -1.2962   -1.8506 C   0  0  0  0  0  0  0  0  0  0  0  0
    2.4285   -1.0365   -2.3553 H   0  0  0  0  0  0  0  0  0  0  0  0
   -2.7328    1.4554    0.0914 C   0  0  0  0  0  0  0  0  0  0  0  0
   -2.2902    2.0590   -1.1080 C   0  0  0  0  0  0  0  0  0  0  0  0
   -1.7209    1.4642   -1.8415 H   0  0  0  0  0  0  0  0  0  0  0  0
   -2.5625    3.4125   -1.3479 C   0  0  0  0  0  0  0  0  0  0  0  0
   -2.2184    3.8751   -2.2851 H   0  0  0  0  0  0  0  0  0  0  0  0
   -3.2658    4.1742   -0.3993 C   0  0  0  0  0  0  0  0  0  0  0  0
   -3.4749    5.2375   -0.5902 H   0  0  0  0  0  0  0  0  0  0  0  0
   -3.7052    3.5775    0.7926 C   0  0  0  0  0  0  0  0  0  0  0  0
   -4.2613    4.1687    1.5353 H   0  0  0  0  0  0  0  0  0  0  0  0
   -3.4425    2.2210    1.0408 C   0  0  0  0  0  0  0  0  0  0  0  0
   -3.8075    1.7711    1.9759 H   0  0  0  0  0  0  0  0  0  0  0  0
   -3.4842   -1.2984   -0.6537 C   0  0  0  0  0  0  0  0  0  0  0  0
   -4.8149   -0.8725   -0.8488 C   0  0  0  0  0  0  0  0  0  0  0  0
   -5.1589    0.0873   -0.4332 H   0  0  0  0  0  0  0  0  0  0  0  0
   -5.6936   -1.6742   -1.5901 C   0  0  0  0  0  0  0  0  0  0  0  0
   -6.7319   -1.3459   -1.7463 H   0  0  0  0  0  0  0  0  0  0  0  0
   -5.2470   -2.8877   -2.1401 C   0  0  0  0  0  0  0  0  0  0  0  0
   -5.9390   -3.5095   -2.7275 H   0  0  0  0  0  0  0  0  0  0  0  0
   -3.9183   -3.3029   -1.9559 C   0  0  0  0  0  0  0  0  0  0  0  0
   -3.5663   -4.2441   -2.4032 H   0  0  0  0  0  0  0  0  0  0  0  0
   -3.0304   -2.5084   -1.2170 C   0  0  0  0  0  0  0  0  0  0  0  0
   -1.9785   -2.8091   -1.0963 H   0  0  0  0  0  0  0  0  0  0  0  0
  1  4  1  0  0  0  0
  2 10  1  0  0  0  0
  2 15  1  0  0  0  0
  2  7  1  0  0  0  0
  3 18  1  0  0  0  0
  4  6  1  0  0  0  0
  4  5  1  0  0  0  0
  4  7  1  0  0  0  0
  7  9  1  0  0  0  0
  7  8  1  0  0  0  0
 10 11  1  0  0  0  0
 12 10  1  0  0  0  0
 13 10  1  0  0  0  0
 14 13  1  0  0  0  0
 15 17  1  0  0  0  0
 16 15  1  0  0  0  0
 18 20  1  0  0  0  0
 18 19  1  0  0  0  0
 18 15  1  0  0  0  0
 21 30  1  0  0  0  0
 21  3  1  0  0  0  0
 22 21  2  0  0  0  0
 23 22  1  0  0  0  0
 24 26  2  0  0  0  0
 24 22  1  0  0  0  0
 25 24  1  0  0  0  0
 26 28  1  0  0  0  0
 27 26  1  0  0  0  0
 28 29  1  0  0  0  0
 28 30  2  0  0  0  0
 30 31  1  0  0  0  0
 32 33  1  0  0  0  0
 32  3  1  0  0  0  0
 33 34  1  0  0  0  0
 35 36  1  0  0  0  0
 35 33  2  0  0  0  0
 37 35  1  0  0  0  0
 38 37  1  0  0  0  0
 39 37  2  0  0  0  0
 39 41  1  0  0  0  0
 40 39  1  0  0  0  0
 41 32  2  0  0  0  0
 42 41  1  0  0  0  0
 43  1  1  0  0  0  0
 43 52  1  0  0  0  0
 44 43  2  0  0  0  0
 45 44  1  0  0  0  0
 46 44  1  0  0  0  0
 46 48  2  0  0  0  0
 47 46  1  0  0  0  0
 48 50  1  0  0  0  0
 49 48  1  0  0  0  0
 50 52  2  0  0  0  0
 50 51  1  0  0  0  0
 52 53  1  0  0  0  0
 54  1  1  0  0  0  0
 55 54  1  0  0  0  0
 55 56  1  0  0  0  0
 57 55  2  0  0  0  0
 58 57  1  0  0  0  0
 59 61  2  0  0  0  0
 59 57  1  0  0  0  0
 60 59  1  0  0  0  0
 61 63  1  0  0  0  0
 62 61  1  0  0  0  0
 63 64  1  0  0  0  0
 63 54  2  0  0  0  0
M  END
