1,2,3
q = 0.0, confidence = 0.998

 67 68  0  0  0  0  0  0  0  0999 V2000
    0.1588    1.1925   -1.2697 P   0  0  0  0  0  0  0  0  0  0  0  0
    1.7845   -0.9242    0.4457 P   0  0  0  0  0  0  0  0  0  0  0  0
   -2.1733   -0.4450    0.1498 P   0  0  0  0  0  0  0  0  0  0  0  0
   -0.9522    2.0751   -0.0474 C   0  0  0  0  0  0  0  0  0  0  0  0
    1.8947    1.6209   -0.7591 C   0  0  0  0  0  0  0  0  0  0  0  0
   -2.0397    1.3606    0.5315 C   0  0  0  0  0  0  0  0  0  0  0  0
   -0.7473    3.4236    0.2970 C   0  0  0  0  0  0  0  0  0  0  0  0
    0.1035    3.9747   -0.1337 H   0  0  0  0  0  0  0  0  0  0  0  0
    2.9571   -2.3158    0.0222 C   0  0  0  0  0  0  0  0  0  0  0  0
    3.9257   -2.1475    0.5440 H   0  0  0  0  0  0  0  0  0  0  0  0
    2.6526    0.6245   -0.0839 C   0  0  0  0  0  0  0  0  0  0  0  0
   -0.0655    2.2715   -2.7681 C   0  0  0  0  0  0  0  0  0  0  0  0
    0.0135    3.3580   -2.5623 H   0  0  0  0  0  0  0  0  0  0  0  0
   -1.0697    2.0640   -3.1831 H   0  0  0  0  0  0  0  0  0  0  0  0
    0.6916    1.9795   -3.5221 H   0  0  0  0  0  0  0  0  0  0  0  0
    2.5279    2.8235   -1.1374 C   0  0  0  0  0  0  0  0  0  0  0  0
    1.9639    3.5998   -1.6755 H   0  0  0  0  0  0  0  0  0  0  0  0
   -3.0350    0.0405   -2.4723 C   0  0  0  0  0  0  0  0  0  0  0  0
   -3.7733   -0.1507   -3.2786 H   0  0  0  0  0  0  0  0  0  0  0  0
   -2.0641   -0.3971   -2.7793 H   0  0  0  0  0  0  0  0  0  0  0  0
   -2.9303    1.1416   -2.3726 H   0  0  0  0  0  0  0  0  0  0  0  0
    1.7973   -0.7664    2.3277 C   0  0  0  0  0  0  0  0  0  0  0  0
    1.1175   -1.5920    2.6342 H   0  0  0  0  0  0  0  0  0  0  0  0
    4.6381    2.0496   -0.2173 C   0  0  0  0  0  0  0  0  0  0  0  0
    5.7093    2.2056   -0.0186 H   0  0  0  0  0  0  0  0  0  0  0  0
    4.0216    0.8483    0.1646 C   0  0  0  0  0  0  0  0  0  0  0  0
    4.6231    0.0651    0.6493 H   0  0  0  0  0  0  0  0  0  0  0  0
   -2.6800    3.3752    1.7660 C   0  0  0  0  0  0  0  0  0  0  0  0
   -3.3538    3.8785    2.4762 H   0  0  0  0  0  0  0  0  0  0  0  0
   -3.5143   -0.5893   -1.1627 C   0  0  0  0  0  0  0  0  0  0  0  0
   -3.5399   -1.6901   -1.3214 H   0  0  0  0  0  0  0  0  0  0  0  0
   -1.5998    4.0725    1.2034 C   0  0  0  0  0  0  0  0  0  0  0  0
   -1.4174    5.1238    1.4734 H   0  0  0  0  0  0  0  0  0  0  0  0
    3.1721   -2.3279   -1.4969 C   0  0  0  0  0  0  0  0  0  0  0  0
    3.8483   -3.1628   -1.7759 H   0  0  0  0  0  0  0  0  0  0  0  0
    3.6275   -1.3844   -1.8596 H   0  0  0  0  0  0  0  0  0  0  0  0
    2.2008   -2.4788   -2.0146 H   0  0  0  0  0  0  0  0  0  0  0  0
    3.8857    3.0427   -0.8613 C   0  0  0  0  0  0  0  0  0  0  0  0
    4.3609    3.9871   -1.1678 H   0  0  0  0  0  0  0  0  0  0  0  0
   -2.8990    2.0314    1.4268 C   0  0  0  0  0  0  0  0  0  0  0  0
   -3.7456    1.4918    1.8781 H   0  0  0  0  0  0  0  0  0  0  0  0
   -2.9513   -1.2545    1.6503 C   0  0  0  0  0  0  0  0  0  0  0  0
   -3.9188   -0.7582    1.8845 H   0  0  0  0  0  0  0  0  0  0  0  0
    2.3147   -3.6246    0.5060 C   0  0  0  0  0  0  0  0  0  0  0  0
    1.3255   -3.7550    0.0169 H   0  0  0  0  0  0  0  0  0  0  0  0
    2.1763   -3.6501    1.6065 H   0  0  0  0  0  0  0  0  0  0  0  0
    2.9539   -4.4885    0.2288 H   0  0  0  0  0  0  0  0  0  0  0  0
    1.1458    0.5671    2.7109 C   0  0  0  0  0  0  0  0  0  0  0  0
    0.9200    0.5938    3.7969 H   0  0  0  0  0  0  0  0  0  0  0  0
    0.2012    0.7353    2.1581 H   0  0  0  0  0  0  0  0  0  0  0  0
    1.8211    1.4167    2.4822 H   0  0  0  0  0  0  0  0  0  0  0  0
   -2.0185   -1.1313    2.8575 C   0  0  0  0  0  0  0  0  0  0  0  0
   -2.4598   -1.6415    3.7388 H   0  0  0  0  0  0  0  0  0  0  0  0
   -1.8255   -0.0764    3.1341 H   0  0  0  0  0  0  0  0  0  0  0  0
   -1.0423   -1.6102    2.6393 H   0  0  0  0  0  0  0  0  0  0  0  0
    3.1468   -0.9627    3.0206 C   0  0  0  0  0  0  0  0  0  0  0  0
    3.8577   -0.1530    2.7598 H   0  0  0  0  0  0  0  0  0  0  0  0
    3.6180   -1.9339    2.7713 H   0  0  0  0  0  0  0  0  0  0  0  0
    3.0126   -0.9332    4.1228 H   0  0  0  0  0  0  0  0  0  0  0  0
   -4.8886   -0.0751   -0.7347 C   0  0  0  0  0  0  0  0  0  0  0  0
   -4.8613    1.0150   -0.5259 H   0  0  0  0  0  0  0  0  0  0  0  0
   -5.2768   -0.5873    0.1684 H   0  0  0  0  0  0  0  0  0  0  0  0
   -5.6287   -0.2366   -1.5468 H   0  0  0  0  0  0  0  0  0  0  0  0
   -3.2038   -2.7266    1.2815 C   0  0  0  0  0  0  0  0  0  0  0  0
   -2.3067   -3.1716    0.7993 H   0  0  0  0  0  0  0  0  0  0  0  0
   -4.0484   -2.8419    0.5742 H   0  0  0  0  0  0  0  0  0  0  0  0
   -3.4457   -3.3153    2.1903 H   0  0  0  0  0  0  0  0  0  0  0  0
  1  5  1  0  0  0  0
  1  4  1  0  0  0  0
  2 22  1  0  0  0  0
  3  6  1  0  0  0  0
  3 42  1  0  0  0  0
  4  7  2  0  0  0  0
  4  6  1  0  0  0  0
  5 11  1  0  0  0  0
  6 40  2  0  0  0  0
  7 32  1  0  0  0  0
  8  7  1  0  0  0  0
  9  2  1  0  0  0  0
  9 44  1  0  0  0  0
  9 10  1  0  0  0  0
 11 26  2  0  0  0  0
 11  2  1  0  0  0  0
 12 13  1  0  0  0  0
 12  1  1  0  0  0  0
 14 12  1  0  0  0  0
 15 12  1  0  0  0  0
 16 38  1  0  0  0  0
 16  5  2  0  0  0  0
 17 16  1  0  0  0  0
 18 21  1  0  0  0  0
 18 30  1  0  0  0  0
 19 18  1  0  0  0  0
 20 18  1  0  0  0  0
 22 23  1  0  0  0  0
 22 48  1  0  0  0  0
 22 56  1  0  0  0  0
 24 25  1  0  0  0  0
 24 26  1  0  0  0  0
 26 27  1  0  0  0  0
 28 29  1  0  0  0  0
 30 60  1  0  0  0  0
 30  3  1  0  0  0  0
 31 30  1  0  0  0  0
 32 33  1  0  0  0  0
 32 28  2  0  0  0  0
 34  9  1  0  0  0  0
 35 34  1  0  0  0  0
 36 34  1  0  0  0  0
 37 34  1  0  0  0  0
 38 24  2  0  0  0  0
 39 38  1  0  0  0  0
 40 28  1  0  0  0  0
 40 41  1  0  0  0  0
 42 43  1  0  0  0  0
 42 52  1  0  0  0  0
 44 46  1  0  0  0  0
 45 44  1  0  0  0  0
 47 44  1  0  0  0  0
 48 49  1  0  0  0  0
 50 48  1  0  0  0  0
 51 48  1  0  0  0  0
 52 54  1  0  0  0  0
 52 53  1  0  0  0  0
 55 52  1  0  0  0  0
 56 59  1  0  0  0  0
 57 56  1  0  0  0  0
 58 56  1  0  0  0  0
 60 61  1  0  0  0  0
 60 62  1  0  0  0  0
 63 60  1  0  0  0  0
 64 42  1  0  0  0  0
 64 67  1  0  0  0  0
 65 64  1  0  0  0  0
 66 64  1  0  0  0  0
M  END
