1,2,3
q = 0.0, confidence = 0.982

 74 76  0  0  0  0  0  0  0  0999 V2000
    2.1453   -0.7839   -0.2173 P   0  0  0  0  0  0  0  0  0  0  0  0
   -0.2078    0.9749    0.1749 P   0  0  0  0  0  0  0  0  0  0  0  0
   -1.6333   -1.5692   -0.3208 P   0  0  0  0  0  0  0  0  0  0  0  0
    3.6000   -0.8777   -1.4064 C   0  0  0  0  0  0  0  0  0  0  0  0
    4.5237   -0.8550   -0.7876 H   0  0  0  0  0  0  0  0  0  0  0  0
   -2.0078   -0.7746    1.3262 C   0  0  0  0  0  0  0  0  0  0  0  0
    3.5417   -2.1983   -2.1807 C   0  0  0  0  0  0  0  0  0  0  0  0
    3.6141   -3.0829   -1.5157 H   0  0  0  0  0  0  0  0  0  0  0  0
    4.3731   -2.2577   -2.9137 H   0  0  0  0  0  0  0  0  0  0  0  0
    2.5833   -2.2717   -2.7340 H   0  0  0  0  0  0  0  0  0  0  0  0
   -2.8381   -1.3037    2.3317 C   0  0  0  0  0  0  0  0  0  0  0  0
   -3.3806   -2.2463    2.1624 H   0  0  0  0  0  0  0  0  0  0  0  0
   -1.4512    1.0961    2.8048 C   0  0  0  0  0  0  0  0  0  0  0  0
   -0.8993    2.0281    2.9993 H   0  0  0  0  0  0  0  0  0  0  0  0
   -2.2637    0.5437    3.8102 C   0  0  0  0  0  0  0  0  0  0  0  0
   -2.3457    1.0452    4.7866 H   0  0  0  0  0  0  0  0  0  0  0  0
    4.0163   -2.3094    1.4551 C   0  0  0  0  0  0  0  0  0  0  0  0
    4.6455   -2.5731    0.5826 H   0  0  0  0  0  0  0  0  0  0  0  0
    4.1073   -3.1393    2.1881 H   0  0  0  0  0  0  0  0  0  0  0  0
    4.4487   -1.4090    1.9368 H   0  0  0  0  0  0  0  0  0  0  0  0
   -2.5495    4.4028   -0.3459 C   0  0  0  0  0  0  0  0  0  0  0  0
   -3.4150    4.8903    0.1287 H   0  0  0  0  0  0  0  0  0  0  0  0
   -1.3175    0.4403    1.5687 C   0  0  0  0  0  0  0  0  0  0  0  0
   -0.9453    2.5667   -0.4123 C   0  0  0  0  0  0  0  0  0  0  0  0
   -2.9571   -0.6523    3.5722 C   0  0  0  0  0  0  0  0  0  0  0  0
   -3.5884   -1.0893    4.3611 H   0  0  0  0  0  0  0  0  0  0  0  0
   -0.8583    4.3382   -2.0881 C   0  0  0  0  0  0  0  0  0  0  0  0
   -0.3941    4.7742   -2.9859 H   0  0  0  0  0  0  0  0  0  0  0  0
   -1.9555    4.9733   -1.4815 C   0  0  0  0  0  0  0  0  0  0  0  0
   -2.3523    5.9105   -1.9008 H   0  0  0  0  0  0  0  0  0  0  0  0
   -1.7753   -4.1678   -1.3355 C   0  0  0  0  0  0  0  0  0  0  0  0
   -2.6232   -3.9143   -2.0019 H   0  0  0  0  0  0  0  0  0  0  0  0
   -1.8023   -5.2635   -1.1600 H   0  0  0  0  0  0  0  0  0  0  0  0
   -0.8359   -3.9293   -1.8772 H   0  0  0  0  0  0  0  0  0  0  0  0
   -2.0473    3.2046    0.1888 C   0  0  0  0  0  0  0  0  0  0  0  0
   -2.5265    2.7597    1.0735 H   0  0  0  0  0  0  0  0  0  0  0  0
    3.7413    1.2098    1.2051 C   0  0  0  0  0  0  0  0  0  0  0  0
    4.6418    0.6089    1.0086 H   0  0  0  0  0  0  0  0  0  0  0  0
    1.3541    1.5993    0.9566 C   0  0  0  0  0  0  0  0  0  0  0  0
    1.4764    2.8173    1.6499 C   0  0  0  0  0  0  0  0  0  0  0  0
    0.5979    3.4692    1.7776 H   0  0  0  0  0  0  0  0  0  0  0  0
   -1.8277   -3.4141   -0.0014 C   0  0  0  0  0  0  0  0  0  0  0  0
   -2.8288   -3.5614    0.4581 H   0  0  0  0  0  0  0  0  0  0  0  0
   -3.3291    0.3059   -1.5760 C   0  0  0  0  0  0  0  0  0  0  0  0
   -3.5292    0.8557   -0.6334 H   0  0  0  0  0  0  0  0  0  0  0  0
   -4.1748    0.5106   -2.2651 H   0  0  0  0  0  0  0  0  0  0  0  0
   -2.4098    0.7249   -2.0257 H   0  0  0  0  0  0  0  0  0  0  0  0
    2.4860    0.7861    0.7273 C   0  0  0  0  0  0  0  0  0  0  0  0
    3.6021    0.3331   -2.3444 C   0  0  0  0  0  0  0  0  0  0  0  0
    2.6950    0.3448   -2.9797 H   0  0  0  0  0  0  0  0  0  0  0  0
    4.4879    0.2963   -3.0126 H   0  0  0  0  0  0  0  0  0  0  0  0
    3.6378    1.2894   -1.7848 H   0  0  0  0  0  0  0  0  0  0  0  0
   -3.2027   -1.1977   -1.3261 C   0  0  0  0  0  0  0  0  0  0  0  0
   -2.9692   -1.6878   -2.2976 H   0  0  0  0  0  0  0  0  0  0  0  0
    2.7293    3.2200    2.1377 C   0  0  0  0  0  0  0  0  0  0  0  0
    2.8285    4.1744    2.6770 H   0  0  0  0  0  0  0  0  0  0  0  0
    2.5453   -2.0997    1.0898 C   0  0  0  0  0  0  0  0  0  0  0  0
    2.1640   -3.0242    0.6028 H   0  0  0  0  0  0  0  0  0  0  0  0
    3.8603    2.4184    1.9113 C   0  0  0  0  0  0  0  0  0  0  0  0
    4.8472    2.7449    2.2735 H   0  0  0  0  0  0  0  0  0  0  0  0
   -0.3598    3.1395   -1.5613 C   0  0  0  0  0  0  0  0  0  0  0  0
    0.4815    2.6261   -2.0529 H   0  0  0  0  0  0  0  0  0  0  0  0
    1.6921   -1.8149    2.3304 C   0  0  0  0  0  0  0  0  0  0  0  0
    2.1004   -0.9552    2.9002 H   0  0  0  0  0  0  0  0  0  0  0  0
    1.6709   -2.6939    3.0072 H   0  0  0  0  0  0  0  0  0  0  0  0
    0.6502   -1.5665    2.0495 H   0  0  0  0  0  0  0  0  0  0  0  0
   -4.5014   -1.7767   -0.7590 C   0  0  0  0  0  0  0  0  0  0  0  0
   -4.4782   -2.8792   -0.6534 H   0  0  0  0  0  0  0  0  0  0  0  0
   -5.3515   -1.5311   -1.4301 H   0  0  0  0  0  0  0  0  0  0  0  0
   -4.7344   -1.3389    0.2339 H   0  0  0  0  0  0  0  0  0  0  0  0
   -0.7587   -3.9192    0.9663 C   0  0  0  0  0  0  0  0  0  0  0  0
    0.2502   -3.7499    0.5413 H   0  0  0  0  0  0  0  0  0  0  0  0
   -0.8806   -5.0084    1.1431 H   0  0  0  0  0  0  0  0  0  0  0  0
   -0.8050   -3.4053    1.9459 H   0  0  0  0  0  0  0  0  0  0  0  0
  1 48  1  0  0  0  0
  1 57  1  0  0  0  0
  2 39  1  0  0  0  0
  2 23  1  0  0  0  0
  3 42  1  0  0  0  0
  3  6  1  0  0  0  0
  4  5  1  0  0  0  0
  4  1  1  0  0  0  0
  6 23  2  0  0  0  0
  6 11  1  0  0  0  0
  7  8  1  0  0  0  0
  7  4  1  0  0  0  0
  9  7  1  0  0  0  0
 10  7  1  0  0  0  0
 11 25  2  0  0  0  0
 12 11  1  0  0  0  0
 13 14  1  0  0  0  0
 13 15  2  0  0  0  0
 15 16  1  0  0  0  0
 17 20  1  0  0  0  0
 17 19  1  0  0  0  0
 18 17  1  0  0  0  0
 21 22  1  0  0  0  0
 21 35  1  0  0  0  0
 23 13  1  0  0  0  0
 24  2  1  0  0  0  0
 24 35  2  0  0  0  0
 25 15  1  0  0  0  0
 25 26  1  0  0  0  0
 27 61  2  0  0  0  0
 27 29  1  0  0  0  0
 28 27  1  0  0  0  0
 29 21  2  0  0  0  0
 30 29  1  0  0  0  0
 31 33  1  0  0  0  0
 31 42  1  0  0  0  0
 32 31  1  0  0  0  0
 34 31  1  0  0  0  0
 35 36  1  0  0  0  0
 37 59  1  0  0  0  0
 38 37  1  0  0  0  0
 39 40  2  0  0  0  0
 40 41  1  0  0  0  0
 40 55  1  0  0  0  0
 42 43  1  0  0  0  0
 42 71  1  0  0  0  0
 44 53  1  0  0  0  0
 44 45  1  0  0  0  0
 46 44  1  0  0  0  0
 47 44  1  0  0  0  0
 48 39  1  0  0  0  0
 48 37  2  0  0  0  0
 49 52  1  0  0  0  0
 49  4  1  0  0  0  0
 50 49  1  0  0  0  0
 51 49  1  0  0  0  0
 53 67  1  0  0  0  0
 53  3  1  0  0  0  0
 54 53  1  0  0  0  0
 55 56  1  0  0  0  0
 57 17  1  0  0  0  0
 57 63  1  0  0  0  0
 58 57  1  0  0  0  0
 59 55  2  0  0  0  0
 59 60  1  0  0  0  0
 61 24  1  0  0  0  0
 62 61  1  0  0  0  0
 63 64  1  0  0  0  0
 63 65  1  0  0  0  0
 66 63  1  0  0  0  0
 67 68  1  0  0  0  0
 67 70  1  0  0  0  0
 69 67  1  0  0  0  0
 71 73  1  0  0  0  0
 71 74  1  0  0  0  0
 72 71  1  0  0  0  0
M  END
