1,2,3
q = 0.0, confidence = 0.99

 76 80  0  0  0  0  0  0  0  0999 V2000
   -0.0001   -1.2096   -1.9988 P   0  0  0  0  0  0  0  0  0  0  0  0
   -2.3425    0.4502   -0.3211 P   0  0  0  0  0  0  0  0  0  0  0  0
    2.3426    0.4498   -0.3210 P   0  0  0  0  0  0  0  0  0  0  0  0
   -1.4371   -1.2897   -3.1586 C   0  0  0  0  0  0  0  0  0  0  0  0
   -1.3951   -0.3756   -3.7888 H   0  0  0  0  0  0  0  0  0  0  0  0
   -1.2524   -2.1543   -3.8296 H   0  0  0  0  0  0  0  0  0  0  0  0
   -2.8004   -1.4362   -2.4752 C   0  0  0  0  0  0  0  0  0  0  0  0
   -3.5450   -1.7111   -3.2511 H   0  0  0  0  0  0  0  0  0  0  0  0
   -2.7683   -2.2940   -1.7708 H   0  0  0  0  0  0  0  0  0  0  0  0
   -3.3067   -0.1706   -1.7741 C   0  0  0  0  0  0  0  0  0  0  0  0
   -4.3546   -0.2937   -1.4297 H   0  0  0  0  0  0  0  0  0  0  0  0
   -3.3184    0.6871   -2.4796 H   0  0  0  0  0  0  0  0  0  0  0  0
    1.4369   -1.2900   -3.1585 C   0  0  0  0  0  0  0  0  0  0  0  0
    1.2521   -2.1546   -3.8296 H   0  0  0  0  0  0  0  0  0  0  0  0
    1.3952   -0.3759   -3.7887 H   0  0  0  0  0  0  0  0  0  0  0  0
    2.8001   -1.4369   -2.4751 C   0  0  0  0  0  0  0  0  0  0  0  0
    2.7678   -2.2946   -1.7707 H   0  0  0  0  0  0  0  0  0  0  0  0
    3.5447   -1.7119   -3.2509 H   0  0  0  0  0  0  0  0  0  0  0  0
    3.3067   -0.1713   -1.7739 C   0  0  0  0  0  0  0  0  0  0  0  0
    3.3187    0.6863   -2.4795 H   0  0  0  0  0  0  0  0  0  0  0  0
    4.3546   -0.2947   -1.4295 H   0  0  0  0  0  0  0  0  0  0  0  0
   -0.0003   -2.8199   -1.1250 C   0  0  0  0  0  0  0  0  0  0  0  0
   -0.0005   -4.0337   -1.8477 C   0  0  0  0  0  0  0  0  0  0  0  0
   -0.0005   -4.0361   -2.9494 H   0  0  0  0  0  0  0  0  0  0  0  0
   -0.0006   -5.2568   -1.1631 C   0  0  0  0  0  0  0  0  0  0  0  0
   -0.0007   -6.1997   -1.7300 H   0  0  0  0  0  0  0  0  0  0  0  0
   -0.0006   -5.2786    0.2426 C   0  0  0  0  0  0  0  0  0  0  0  0
   -0.0007   -6.2418    0.7747 H   0  0  0  0  0  0  0  0  0  0  0  0
   -0.0004   -4.0757    0.9641 C   0  0  0  0  0  0  0  0  0  0  0  0
   -0.0003   -4.0827    2.0639 H   0  0  0  0  0  0  0  0  0  0  0  0
   -0.0002   -2.8488    0.2845 C   0  0  0  0  0  0  0  0  0  0  0  0
   -0.0001   -1.9053    0.8495 H   0  0  0  0  0  0  0  0  0  0  0  0
   -2.6843   -0.6789    1.0789 C   0  0  0  0  0  0  0  0  0  0  0  0
   -3.5337   -1.7977    0.9695 C   0  0  0  0  0  0  0  0  0  0  0  0
   -4.0857   -2.0012    0.0412 H   0  0  0  0  0  0  0  0  0  0  0  0
   -3.6863   -2.6724    2.0572 C   0  0  0  0  0  0  0  0  0  0  0  0
   -4.3478   -3.5464    1.9629 H   0  0  0  0  0  0  0  0  0  0  0  0
   -3.0021   -2.4318    3.2579 C   0  0  0  0  0  0  0  0  0  0  0  0
   -3.1240   -3.1202    4.1076 H   0  0  0  0  0  0  0  0  0  0  0  0
   -2.1708   -1.3045    3.3769 C   0  0  0  0  0  0  0  0  0  0  0  0
   -1.6451   -1.1028    4.3224 H   0  0  0  0  0  0  0  0  0  0  0  0
   -2.0061   -0.4311    2.2944 C   0  0  0  0  0  0  0  0  0  0  0  0
   -1.3532    0.4526    2.3789 H   0  0  0  0  0  0  0  0  0  0  0  0
   -3.1743    2.0322    0.0418 C   0  0  0  0  0  0  0  0  0  0  0  0
   -2.8052    3.1753   -0.6963 C   0  0  0  0  0  0  0  0  0  0  0  0
   -1.9700    3.1221   -1.4120 H   0  0  0  0  0  0  0  0  0  0  0  0
   -3.4856    4.3826   -0.4937 C   0  0  0  0  0  0  0  0  0  0  0  0
   -3.1950    5.2763   -1.0657 H   0  0  0  0  0  0  0  0  0  0  0  0
   -4.5232    4.4562    0.4509 C   0  0  0  0  0  0  0  0  0  0  0  0
   -5.0496    5.4083    0.6150 H   0  0  0  0  0  0  0  0  0  0  0  0
   -4.8831    3.3203    1.1920 C   0  0  0  0  0  0  0  0  0  0  0  0
   -5.6911    3.3791    1.9365 H   0  0  0  0  0  0  0  0  0  0  0  0
   -4.2124    2.1041    0.9902 C   0  0  0  0  0  0  0  0  0  0  0  0
   -4.4919    1.2156    1.5761 H   0  0  0  0  0  0  0  0  0  0  0  0
    2.6841   -0.6794    1.0791 C   0  0  0  0  0  0  0  0  0  0  0  0
    2.0061   -0.4312    2.2946 C   0  0  0  0  0  0  0  0  0  0  0  0
    1.3536    0.4528    2.3790 H   0  0  0  0  0  0  0  0  0  0  0  0
    2.1705   -1.3046    3.3771 C   0  0  0  0  0  0  0  0  0  0  0  0
    1.6450   -1.1026    4.3227 H   0  0  0  0  0  0  0  0  0  0  0  0
    3.0014   -2.4322    3.2581 C   0  0  0  0  0  0  0  0  0  0  0  0
    3.1230   -3.1206    4.1079 H   0  0  0  0  0  0  0  0  0  0  0  0
    3.6854   -2.6732    2.0574 C   0  0  0  0  0  0  0  0  0  0  0  0
    4.3466   -3.5474    1.9631 H   0  0  0  0  0  0  0  0  0  0  0  0
    3.5331   -1.7985    0.9697 C   0  0  0  0  0  0  0  0  0  0  0  0
    4.0849   -2.0022    0.0413 H   0  0  0  0  0  0  0  0  0  0  0  0
    3.1748    2.0316    0.0418 C   0  0  0  0  0  0  0  0  0  0  0  0
    2.8056    3.1749   -0.6960 C   0  0  0  0  0  0  0  0  0  0  0  0
    1.9701    3.1220   -1.4113 H   0  0  0  0  0  0  0  0  0  0  0  0
    3.4863    4.3820   -0.4934 C   0  0  0  0  0  0  0  0  0  0  0  0
    3.1957    5.2758   -1.0651 H   0  0  0  0  0  0  0  0  0  0  0  0
    4.5244    4.4552    0.4507 C   0  0  0  0  0  0  0  0  0  0  0  0
    5.0510    5.4072    0.6147 H   0  0  0  0  0  0  0  0  0  0  0  0
    4.8844    3.3191    1.1915 C   0  0  0  0  0  0  0  0  0  0  0  0
    5.6927    3.3775    1.9356 H   0  0  0  0  0  0  0  0  0  0  0  0
    4.2132    2.1031    0.9897 C   0  0  0  0  0  0  0  0  0  0  0  0
    4.4928    1.2144    1.5753 H   0  0  0  0  0  0  0  0  0  0  0  0
  1 22  1  0  0  0  0
  2 44  1  0  0  0  0
  2 33  1  0  0  0  0
  3 66  1  0  0  0  0
  3 55  1  0  0  0  0
  4  7  1  0  0  0  0
  4  1  1  0  0  0  0
  5  4  1  0  0  0  0
  6  4  1  0  0  0  0
  7 10  1  0  0  0  0
  7  9  1  0  0  0  0
  8  7  1  0  0  0  0
 10 11  1  0  0  0  0
 10  2  1  0  0  0  0
 12 10  1  0  0  0  0
 13 16  1  0  0  0  0
 13  1  1  0  0  0  0
 14 13  1  0  0  0  0
 15 13  1  0  0  0  0
 16 19  1  0  0  0  0
 16 17  1  0  0  0  0
 18 16  1  0  0  0  0
 19 21  1  0  0  0  0
 19  3  1  0  0  0  0
 20 19  1  0  0  0  0
 22 31  1  0  0  0  0
 23 25  1  0  0  0  0
 23 22  2  0  0  0  0
 24 23  1  0  0  0  0
 25 27  2  0  0  0  0
 26 25  1  0  0  0  0
 27 28  1  0  0  0  0
 27 29  1  0  0  0  0
 29 30  1  0  0  0  0
 31 32  1  0  0  0  0
 31 29  2  0  0  0  0
 33 42  1  0  0  0  0
 34 33  2  0  0  0  0
 34 36  1  0  0  0  0
 35 34  1  0  0  0  0
 36 38  2  0  0  0  0
 37 36  1  0  0  0  0
 38 40  1  0  0  0  0
 38 39  1  0  0  0  0
 40 41  1  0  0  0  0
 42 43  1  0  0  0  0
 42 40  2  0  0  0  0
 44 53  1  0  0  0  0
 45 47  1  0  0  0  0
 45 44  2  0  0  0  0
 46 45  1  0  0  0  0
 47 49  2  0  0  0  0
 48 47  1  0  0  0  0
 49 50  1  0  0  0  0
 49 51  1  0  0  0  0
 51 52  1  0  0  0  0
 53 51  2  0  0  0  0
 53 54  1  0  0  0  0
 55 56  1  0  0  0  0
 56 57  1  0  0  0  0
 56 58  2  0  0  0  0
 58 59  1  0  0  0  0
 60 58  1  0  0  0  0
 60 61  1  0  0  0  0
 62 60  2  0  0  0  0
 63 62  1  0  0  0  0
 64 55  2  0  0  0  0
 64 62  1  0  0  0  0
 65 64  1  0  0  0  0
 66 75  1  0  0  0  0
 67 69  1  0  0  0  0
 67 66  2  0  0  0  0
 68 67  1  0  0  0  0
 69 71  2  0  0  0  0
 70 69  1  0  0  0  0
 71 72  1  0  0  0  0
 71 73  1  0  0  0  0
 73 74  1  0  0  0  0
 75 73  2  0  0  0  0
 75 76  1  0  0  0  0
M  END
