1,2,3
q = 0.0, confidence = 0.984

 41 40  0  0  0  0  0  0  0  0999 V2000
    0.0000    1.7423    0.1992 P   0  0  0  0  0  0  0  0  0  0  0  0
    2.3224   -0.6131    0.0087 P   0  0  0  0  0  0  0  0  0  0  0  0
   -2.3223   -0.6130    0.0088 P   0  0  0  0  0  0  0  0  0  0  0  0
    3.2036    0.8272   -0.7686 C   0  0  0  0  0  0  0  0  0  0  0  0
    4.2957    0.6582   -0.6501 H   0  0  0  0  0  0  0  0  0  0  0  0
    2.9796    0.7759   -1.8557 H   0  0  0  0  0  0  0  0  0  0  0  0
    2.8159    2.2057   -0.2133 C   0  0  0  0  0  0  0  0  0  0  0  0
    2.9403    2.2194    0.8925 H   0  0  0  0  0  0  0  0  0  0  0  0
    3.5479    2.9498   -0.5947 H   0  0  0  0  0  0  0  0  0  0  0  0
    1.4069    2.6829   -0.5897 C   0  0  0  0  0  0  0  0  0  0  0  0
    1.2590    2.5840   -1.6866 H   0  0  0  0  0  0  0  0  0  0  0  0
    1.2895    3.7598   -0.3385 H   0  0  0  0  0  0  0  0  0  0  0  0
   -1.4067    2.6828   -0.5900 C   0  0  0  0  0  0  0  0  0  0  0  0
   -1.2893    3.7598   -0.3389 H   0  0  0  0  0  0  0  0  0  0  0  0
   -1.2586    2.5838   -1.6869 H   0  0  0  0  0  0  0  0  0  0  0  0
   -2.8158    2.2058   -0.2137 C   0  0  0  0  0  0  0  0  0  0  0  0
   -2.9403    2.2196    0.8920 H   0  0  0  0  0  0  0  0  0  0  0  0
   -3.5477    2.9498   -0.5953 H   0  0  0  0  0  0  0  0  0  0  0  0
   -3.2035    0.8272   -0.7689 C   0  0  0  0  0  0  0  0  0  0  0  0
   -2.9793    0.7757   -1.8560 H   0  0  0  0  0  0  0  0  0  0  0  0
   -4.2955    0.6582   -0.6505 H   0  0  0  0  0  0  0  0  0  0  0  0
    3.1152   -0.6971    1.6751 C   0  0  0  0  0  0  0  0  0  0  0  0
    4.2215   -0.7337    1.6047 H   0  0  0  0  0  0  0  0  0  0  0  0
    2.7420   -1.6001    2.1955 H   0  0  0  0  0  0  0  0  0  0  0  0
    2.8069    0.1825    2.2723 H   0  0  0  0  0  0  0  0  0  0  0  0
    3.1179   -2.0320   -0.8612 C   0  0  0  0  0  0  0  0  0  0  0  0
    4.2253   -1.9877   -0.8122 H   0  0  0  0  0  0  0  0  0  0  0  0
    2.7852   -2.0305   -1.9173 H   0  0  0  0  0  0  0  0  0  0  0  0
    2.7569   -2.9683   -0.3936 H   0  0  0  0  0  0  0  0  0  0  0  0
   -0.0001    2.4970    1.8998 C   0  0  0  0  0  0  0  0  0  0  0  0
   -0.0004    3.6080    1.8835 H   0  0  0  0  0  0  0  0  0  0  0  0
    0.8892    2.1330    2.4501 H   0  0  0  0  0  0  0  0  0  0  0  0
   -0.8892    2.1325    2.4501 H   0  0  0  0  0  0  0  0  0  0  0  0
   -3.1153   -0.6966    1.6752 C   0  0  0  0  0  0  0  0  0  0  0  0
   -2.8066    0.1829    2.2724 H   0  0  0  0  0  0  0  0  0  0  0  0
   -2.7424   -1.5997    2.1956 H   0  0  0  0  0  0  0  0  0  0  0  0
   -4.2216   -0.7327    1.6047 H   0  0  0  0  0  0  0  0  0  0  0  0
   -3.1179   -2.0321   -0.8608 C   0  0  0  0  0  0  0  0  0  0  0  0
   -4.2253   -1.9879   -0.8116 H   0  0  0  0  0  0  0  0  0  0  0  0
   -2.7567   -2.9683   -0.3931 H   0  0  0  0  0  0  0  0  0  0  0  0
   -2.7854   -2.0307   -1.9170 H   0  0  0  0  0  0  0  0  0  0  0  0
  1 30  1  0  0  0  0
  2 22  1  0  0  0  0
  3 34  1  0  0  0  0
  4  5  1  0  0  0  0
  4  7  1  0  0  0  0
  4  2  1  0  0  0  0
  6  4  1  0  0  0  0
  7  8  1  0  0  0  0
  9  7  1  0  0  0  0
 10 12  1  0  0  0  0
 10  7  1  0  0  0  0
 10  1  1  0  0  0  0
 11 10  1  0  0  0  0
 13 14  1  0  0  0  0
 13 16  1  0  0  0  0
 13  1  1  0  0  0  0
 15 13  1  0  0  0  0
 16 17  1  0  0  0  0
 18 16  1  0  0  0  0
 19 21  1  0  0  0  0
 19 16  1  0  0  0  0
 19  3  1  0  0  0  0
 20 19  1  0  0  0  0
 22 24  1  0  0  0  0
 22 25  1  0  0  0  0
 23 22  1  0  0  0  0
 26 27  1  0  0  0  0
 26 29  1  0  0  0  0
 26  2  1  0  0  0  0
 28 26  1  0  0  0  0
 30 32  1  0  0  0  0
 30 33  1  0  0  0  0
 31 30  1  0  0  0  0
 34 36  1  0  0  0  0
 34 35  1  0  0  0  0
 37 34  1  0  0  0  0
 38 39  1  0  0  0  0
 38 40  1  0  0  0  0
 38  3  1  0  0  0  0
 41 38  1  0  0  0  0
M  END
