1,16,25
q = 0.0, confidence = 0.996

 72 77  0  0  1  0  0  0  0  0999 V2000
   -0.2314   -1.6150   -0.5274 P   0  0  1  0  0  0  0  0  0  0  0  0
    0.2099   -2.0748    1.2621 C   0  0  1  0  0  0  0  0  0  0  0  0
   -0.0137   -3.5765    1.3261 C   0  0  0  0  0  0  0  0  0  0  0  0
    0.3484   -4.1575    0.1474 C   0  0  0  0  0  0  0  0  0  0  0  0
    0.9308   -3.1118   -0.7871 C   0  0  2  0  0  0  0  0  0  0  0  0
   -0.5150   -4.2225    2.5786 C   0  0  0  0  0  0  0  0  0  0  0  0
    0.3054   -5.5994   -0.2400 C   0  0  0  0  0  0  0  0  0  0  0  0
    2.2279   -2.5909   -0.0964 C   0  0  0  0  0  0  0  0  0  0  0  0
    1.7438   -1.7791    1.1476 C   0  0  1  0  0  0  0  0  0  0  0  0
   -1.9011   -2.2602   -0.9183 C   0  0  0  0  0  0  0  0  0  0  0  0
   -2.7989   -2.7678    0.0408 C   0  0  0  0  0  0  0  0  0  0  0  0
   -4.0679   -3.2199   -0.3505 C   0  0  0  0  0  0  0  0  0  0  0  0
   -4.4526   -3.1697   -1.6995 C   0  0  0  0  0  0  0  0  0  0  0  0
   -3.5657   -2.6544   -2.6593 C   0  0  0  0  0  0  0  0  0  0  0  0
   -2.2990   -2.1953   -2.2709 C   0  0  0  0  0  0  0  0  0  0  0  0
    1.9957    0.0471    0.7552 P   0  0  2  0  0  0  0  0  0  0  0  0
    3.8312    0.2072    0.7791 C   0  0  0  0  0  0  0  0  0  0  0  0
    4.4868    0.6496   -0.3860 C   0  0  0  0  0  0  0  0  0  0  0  0
    5.8861    0.7631   -0.4096 C   0  0  0  0  0  0  0  0  0  0  0  0
    6.6388    0.4358    0.7281 C   0  0  0  0  0  0  0  0  0  0  0  0
    5.9911   -0.0081    1.8939 C   0  0  0  0  0  0  0  0  0  0  0  0
    4.5942   -0.1232    1.9197 C   0  0  0  0  0  0  0  0  0  0  0  0
    1.4347    0.9120    2.3389 C   0  0  0  0  0  0  0  0  0  0  0  0
    0.5418    2.1158    2.0272 C   0  0  0  0  0  0  0  0  0  0  0  0
   -0.6650    1.7682    0.6349 P   0  0  0  0  0  0  0  0  0  0  0  0
   -1.4271    3.4354    0.3872 C   0  0  0  0  0  0  0  0  0  0  0  0
   -2.1631    4.0468    1.4246 C   0  0  0  0  0  0  0  0  0  0  0  0
   -2.7169    5.3210    1.2410 C   0  0  0  0  0  0  0  0  0  0  0  0
   -2.5493    5.9913    0.0170 C   0  0  0  0  0  0  0  0  0  0  0  0
   -1.8294    5.3818   -1.0211 C   0  0  0  0  0  0  0  0  0  0  0  0
   -1.2695    4.1070   -0.8391 C   0  0  0  0  0  0  0  0  0  0  0  0
   -2.0776    0.8851    1.4352 C   0  0  0  0  0  0  0  0  0  0  0  0
   -2.1046    0.4873    2.7867 C   0  0  0  0  0  0  0  0  0  0  0  0
   -3.2183   -0.1972    3.3043 C   0  0  0  0  0  0  0  0  0  0  0  0
   -4.3216   -0.4712    2.4824 C   0  0  0  0  0  0  0  0  0  0  0  0
   -4.3033   -0.0713    1.1353 C   0  0  0  0  0  0  0  0  0  0  0  0
   -3.1853    0.5891    0.6113 C   0  0  0  0  0  0  0  0  0  0  0  0
   -0.3070   -1.4917    2.0462 H   0  0  0  0  0  0  0  0  0  0  0  0
    1.0731   -3.4232   -1.8378 H   0  0  0  0  0  0  0  0  0  0  0  0
   -1.4783   -3.7748    2.9091 H   0  0  0  0  0  0  0  0  0  0  0  0
   -0.6708   -5.3116    2.4563 H   0  0  0  0  0  0  0  0  0  0  0  0
    0.1971   -4.0756    3.4207 H   0  0  0  0  0  0  0  0  0  0  0  0
   -0.3201   -5.7380   -1.1486 H   0  0  0  0  0  0  0  0  0  0  0  0
    1.3174   -5.9832   -0.4953 H   0  0  0  0  0  0  0  0  0  0  0  0
   -0.1100   -6.2410    0.5609 H   0  0  0  0  0  0  0  0  0  0  0  0
    2.8338   -1.9693   -0.7853 H   0  0  0  0  0  0  0  0  0  0  0  0
    2.8575   -3.4503    0.2090 H   0  0  0  0  0  0  0  0  0  0  0  0
    2.2749   -2.0599    2.0798 H   0  0  0  0  0  0  0  0  0  0  0  0
    3.8864    0.9045   -1.2723 H   0  0  0  0  0  0  0  0  0  0  0  0
    6.3884    1.1117   -1.3246 H   0  0  0  0  0  0  0  0  0  0  0  0
    7.7357    0.5259    0.7092 H   0  0  0  0  0  0  0  0  0  0  0  0
    6.5792   -0.2676    2.7876 H   0  0  0  0  0  0  0  0  0  0  0  0
    4.0975   -0.4773    2.8375 H   0  0  0  0  0  0  0  0  0  0  0  0
    2.3289    1.2193    2.9170 H   0  0  0  0  0  0  0  0  0  0  0  0
    0.8937    0.1603    2.9491 H   0  0  0  0  0  0  0  0  0  0  0  0
    1.1496    2.9565    1.6324 H   0  0  0  0  0  0  0  0  0  0  0  0
    0.0149    2.4906    2.9295 H   0  0  0  0  0  0  0  0  0  0  0  0
   -2.3176    3.5158    2.3773 H   0  0  0  0  0  0  0  0  0  0  0  0
   -3.2893    5.7917    2.0551 H   0  0  0  0  0  0  0  0  0  0  0  0
   -2.9889    6.9901   -0.1280 H   0  0  0  0  0  0  0  0  0  0  0  0
   -1.7026    5.8980   -1.9847 H   0  0  0  0  0  0  0  0  0  0  0  0
   -0.7104    3.6203   -1.6509 H   0  0  0  0  0  0  0  0  0  0  0  0
   -1.2593    0.7158    3.4529 H   0  0  0  0  0  0  0  0  0  0  0  0
   -3.2256   -0.5057    4.3612 H   0  0  0  0  0  0  0  0  0  0  0  0
   -5.1964   -1.0002    2.8903 H   0  0  0  0  0  0  0  0  0  0  0  0
   -5.1578   -0.2949    0.4797 H   0  0  0  0  0  0  0  0  0  0  0  0
   -3.1636    0.8747   -0.4522 H   0  0  0  0  0  0  0  0  0  0  0  0
   -2.5199   -2.7884    1.1025 H   0  0  0  0  0  0  0  0  0  0  0  0
   -4.7645   -3.6062    0.4094 H   0  0  0  0  0  0  0  0  0  0  0  0
   -5.4493   -3.5246   -2.0034 H   0  0  0  0  0  0  0  0  0  0  0  0
   -3.8644   -2.5993   -3.7170 H   0  0  0  0  0  0  0  0  0  0  0  0
   -1.6130   -1.7700   -3.0199 H   0  0  0  0  0  0  0  0  0  0  0  0
  1 10  1  1  0  0  0
  1  2  1  0  0  0  0
  2  3  1  0  0  0  0
  2 38  1  1  0  0  0
  3  6  1  0  0  0  0
  4  3  2  0  0  0  0
  5 39  1  6  0  0  0
  5  1  1  0  0  0  0
  5  8  1  0  0  0  0
  5  4  1  0  0  0  0
  6 40  1  0  0  0  0
  6 42  1  0  0  0  0
  7  4  1  0  0  0  0
  7 45  1  0  0  0  0
  8 47  1  0  0  0  0
  8  9  1  0  0  0  0
  9  2  1  0  0  0  0
  9 48  1  1  0  0  0
 10 11  1  0  0  0  0
 11 68  1  0  0  0  0
 12 11  2  0  0  0  0
 12 69  1  0  0  0  0
 13 12  1  0  0  0  0
 14 15  1  0  0  0  0
 14 13  2  0  0  0  0
 15 10  2  0  0  0  0
 16 17  1  0  0  0  0
 16  9  1  0  0  0  0
 16 23  1  1  0  0  0
 17 22  1  0  0  0  0
 18 17  2  0  0  0  0
 19 18  1  0  0  0  0
 19 20  2  0  0  0  0
 20 21  1  0  0  0  0
 21 22  2  0  0  0  0
 21 52  1  0  0  0  0
 22 53  1  0  0  0  0
 23 54  1  0  0  0  0
 23 55  1  0  0  0  0
 24 23  1  0  0  0  0
 24 57  1  0  0  0  0
 25 32  1  0  0  0  0
 25 24  1  0  0  0  0
 26 25  1  0  0  0  0
 26 27  1  0  0  0  0
 27 58  1  0  0  0  0
 28 27  2  0  0  0  0
 28 59  1  0  0  0  0
 29 28  1  0  0  0  0
 30 31  1  0  0  0  0
 30 29  2  0  0  0  0
 31 26  2  0  0  0  0
 32 33  1  0  0  0  0
 33 34  2  0  0  0  0
 33 63  1  0  0  0  0
 34 64  1  0  0  0  0
 35 65  1  0  0  0  0
 35 34  1  0  0  0  0
 36 35  2  0  0  0  0
 37 36  1  0  0  0  0
 37 32  2  0  0  0  0
 41  6  1  0  0  0  0
 43  7  1  0  0  0  0
 44  7  1  0  0  0  0
 46  8  1  0  0  0  0
 49 18  1  0  0  0  0
 50 19  1  0  0  0  0
 51 20  1  0  0  0  0
 56 24  1  0  0  0  0
 60 29  1  0  0  0  0
 61 30  1  0  0  0  0
 62 31  1  0  0  0  0
 66 36  1  0  0  0  0
 67 37  1  0  0  0  0
 70 13  1  0  0  0  0
 71 14  1  0  0  0  0
 72 15  1  0  0  0  0
M  END
