1,2,3
q = 0.0, confidence = 1.0

 41 40  0  0  0  0  0  0  0  0999 V2000
   -1.4060   -1.6018   -0.1596 P   0  0  0  0  0  0  0  0  0  0  0  0
   -0.5979    0.8530    1.6070 P   0  0  0  0  0  0  0  0  0  0  0  0
   -0.3109    1.0100   -1.4875 P   0  0  0  0  0  0  0  0  0  0  0  0
   -4.3406    1.4113   -0.2770 C   0  0  0  0  0  0  0  0  0  0  0  0
   -4.8644    0.9682   -1.1479 H   0  0  0  0  0  0  0  0  0  0  0  0
   -4.3406    2.5130   -0.4030 H   0  0  0  0  0  0  0  0  0  0  0  0
   -4.9290    1.1718    0.6317 H   0  0  0  0  0  0  0  0  0  0  0  0
   -2.9038    0.8657   -0.1613 C   0  0  0  0  0  0  0  0  0  0  0  0
   -2.9863   -0.6541    0.1398 C   0  0  0  0  0  0  0  0  0  0  0  0
   -3.7651   -1.1175   -0.5009 H   0  0  0  0  0  0  0  0  0  0  0  0
   -3.3138   -0.8116    1.1877 H   0  0  0  0  0  0  0  0  0  0  0  0
   -2.1926    1.6132    0.9900 C   0  0  0  0  0  0  0  0  0  0  0  0
   -2.8657    1.6658    1.8709 H   0  0  0  0  0  0  0  0  0  0  0  0
   -1.9975    2.6635    0.6906 H   0  0  0  0  0  0  0  0  0  0  0  0
   -2.1774    1.1337   -1.5035 C   0  0  0  0  0  0  0  0  0  0  0  0
   -2.4149    2.1605   -1.8527 H   0  0  0  0  0  0  0  0  0  0  0  0
   -2.5607    0.4465   -2.2849 H   0  0  0  0  0  0  0  0  0  0  0  0
   -1.7322   -2.3457   -1.8126 C   0  0  0  0  0  0  0  0  0  0  0  0
   -1.8178   -1.5753   -2.5999 H   0  0  0  0  0  0  0  0  0  0  0  0
   -2.6828   -2.9127   -1.7581 H   0  0  0  0  0  0  0  0  0  0  0  0
   -0.8950   -3.0178   -2.0712 H   0  0  0  0  0  0  0  0  0  0  0  0
   -1.4998   -3.0783    0.9158 C   0  0  0  0  0  0  0  0  0  0  0  0
   -0.6686   -3.7484    0.6240 H   0  0  0  0  0  0  0  0  0  0  0  0
   -2.4732   -3.5866    0.7678 H   0  0  0  0  0  0  0  0  0  0  0  0
   -1.3470   -2.8092    1.9753 H   0  0  0  0  0  0  0  0  0  0  0  0
   -1.1804   -0.0382    3.1116 C   0  0  0  0  0  0  0  0  0  0  0  0
   -1.8024   -0.9115    2.8479 H   0  0  0  0  0  0  0  0  0  0  0  0
   -1.7775    0.6653    3.7254 H   0  0  0  0  0  0  0  0  0  0  0  0
   -0.3010   -0.4027    3.6701 H   0  0  0  0  0  0  0  0  0  0  0  0
    0.2085    2.2996    2.4075 C   0  0  0  0  0  0  0  0  0  0  0  0
    0.5807    3.0285    1.6665 H   0  0  0  0  0  0  0  0  0  0  0  0
    1.0540    1.9443    3.0242 H   0  0  0  0  0  0  0  0  0  0  0  0
   -0.5311    2.7957    3.0672 H   0  0  0  0  0  0  0  0  0  0  0  0
    0.1575    2.7936   -1.3578 C   0  0  0  0  0  0  0  0  0  0  0  0
   -0.2456    3.2391   -0.4304 H   0  0  0  0  0  0  0  0  0  0  0  0
   -0.2558    3.3478   -2.2241 H   0  0  0  0  0  0  0  0  0  0  0  0
    1.2559    2.9121   -1.3532 H   0  0  0  0  0  0  0  0  0  0  0  0
    0.0762    0.6331   -3.2419 C   0  0  0  0  0  0  0  0  0  0  0  0
   -0.0492   -0.4493   -3.4236 H   0  0  0  0  0  0  0  0  0  0  0  0
    1.1319    0.8824   -3.4502 H   0  0  0  0  0  0  0  0  0  0  0  0
   -0.5811    1.2315   -3.9034 H   0  0  0  0  0  0  0  0  0  0  0  0
  1  9  1  0  0  0  0
  1 22  1  0  0  0  0
  2 30  1  0  0  0  0
  2 26  1  0  0  0  0
  3 34  1  0  0  0  0
  4  8  1  0  0  0  0
  4  7  1  0  0  0  0
  5  4  1  0  0  0  0
  6  4  1  0  0  0  0
  8  9  1  0  0  0  0
  8 12  1  0  0  0  0
  9 11  1  0  0  0  0
 10  9  1  0  0  0  0
 12  2  1  0  0  0  0
 12 13  1  0  0  0  0
 14 12  1  0  0  0  0
 15  3  1  0  0  0  0
 15  8  1  0  0  0  0
 16 15  1  0  0  0  0
 17 15  1  0  0  0  0
 18 20  1  0  0  0  0
 18  1  1  0  0  0  0
 19 18  1  0  0  0  0
 21 18  1  0  0  0  0
 22 25  1  0  0  0  0
 23 22  1  0  0  0  0
 24 22  1  0  0  0  0
 26 29  1  0  0  0  0
 26 28  1  0  0  0  0
 27 26  1  0  0  0  0
 30 32  1  0  0  0  0
 30 33  1  0  0  0  0
 31 30  1  0  0  0  0
 34 37  1  0  0  0  0
 34 35  1  0  0  0  0
 36 34  1  0  0  0  0
 38  3  1  0  0  0  0
 39 38  1  0  0  0  0
 40 38  1  0  0  0  0
 41 38  1  0  0  0  0
M  END
