1,2,3
q = 0.0, confidence = 0.992

 66 69  0  0  0  0  0  0  0  0999 V2000
    1.9250   -0.3799   -0.6131 P   0  0  0  0  0  0  0  0  0  0  0  0
   -0.5655   -1.6707   -1.7315 P   0  0  0  0  0  0  0  0  0  0  0  0
   -2.0246    0.5045   -0.3236 P   0  0  0  0  0  0  0  0  0  0  0  0
    2.1780   -1.6176   -1.9844 C   0  0  0  0  0  0  0  0  0  0  0  0
    0.9224   -1.5543   -2.8554 C   0  0  0  0  0  0  0  0  0  0  0  0
   -2.0047   -0.9229   -2.6603 C   0  0  0  0  0  0  0  0  0  0  0  0
   -2.2385    0.5063   -2.1763 C   0  0  0  0  0  0  0  0  0  0  0  0
    2.2686    1.2378   -1.4179 C   0  0  0  0  0  0  0  0  0  0  0  0
    3.4632    1.4620   -2.1350 C   0  0  0  0  0  0  0  0  0  0  0  0
    3.6929    2.7031   -2.7454 C   0  0  0  0  0  0  0  0  0  0  0  0
    2.7430    3.7333   -2.6307 C   0  0  0  0  0  0  0  0  0  0  0  0
    1.5625    3.5200   -1.9035 C   0  0  0  0  0  0  0  0  0  0  0  0
    1.3243    2.2747   -1.3029 C   0  0  0  0  0  0  0  0  0  0  0  0
    3.2870   -0.6032    0.5745 C   0  0  0  0  0  0  0  0  0  0  0  0
    3.8939    0.5257    1.1662 C   0  0  0  0  0  0  0  0  0  0  0  0
    4.8671    0.3541    2.1600 C   0  0  0  0  0  0  0  0  0  0  0  0
    5.2405   -0.9355    2.5697 C   0  0  0  0  0  0  0  0  0  0  0  0
    4.6256   -2.0582    1.9922 C   0  0  0  0  0  0  0  0  0  0  0  0
    3.6442   -1.8991    1.0046 C   0  0  0  0  0  0  0  0  0  0  0  0
   -0.9330   -3.4802   -1.7285 C   0  0  0  0  0  0  0  0  0  0  0  0
   -2.1668   -3.9063   -0.9375 C   0  0  0  0  0  0  0  0  0  0  0  0
   -3.5562   -0.2652    0.3377 C   0  0  0  0  0  0  0  0  0  0  0  0
   -4.8406    0.2134    0.0037 C   0  0  0  0  0  0  0  0  0  0  0  0
   -5.9771   -0.4135    0.5319 C   0  0  0  0  0  0  0  0  0  0  0  0
   -5.8357   -1.5073    1.4051 C   0  0  0  0  0  0  0  0  0  0  0  0
   -4.5581   -1.9719    1.7514 C   0  0  0  0  0  0  0  0  0  0  0  0
   -3.4139   -1.3556    1.2180 C   0  0  0  0  0  0  0  0  0  0  0  0
   -2.1490    2.2524    0.1878 C   0  0  0  0  0  0  0  0  0  0  0  0
   -2.0551    3.3261   -0.7214 C   0  0  0  0  0  0  0  0  0  0  0  0
   -2.0404    4.6481   -0.2488 C   0  0  0  0  0  0  0  0  0  0  0  0
   -2.1013    4.9055    1.1286 C   0  0  0  0  0  0  0  0  0  0  0  0
   -2.1953    3.8385    2.0367 C   0  0  0  0  0  0  0  0  0  0  0  0
   -2.2286    2.5187    1.5716 C   0  0  0  0  0  0  0  0  0  0  0  0
    2.2860   -2.6142   -1.5056 H   0  0  0  0  0  0  0  0  0  0  0  0
    3.1028   -1.4080   -2.5584 H   0  0  0  0  0  0  0  0  0  0  0  0
    0.8618   -0.5793   -3.3842 H   0  0  0  0  0  0  0  0  0  0  0  0
    0.8848   -2.3619   -3.6156 H   0  0  0  0  0  0  0  0  0  0  0  0
   -2.8855   -1.5573   -2.4306 H   0  0  0  0  0  0  0  0  0  0  0  0
   -1.8240   -0.9844   -3.7533 H   0  0  0  0  0  0  0  0  0  0  0  0
   -1.4565    1.1864   -2.5729 H   0  0  0  0  0  0  0  0  0  0  0  0
   -3.2284    0.9032   -2.4811 H   0  0  0  0  0  0  0  0  0  0  0  0
    4.2256    0.6701   -2.2032 H   0  0  0  0  0  0  0  0  0  0  0  0
    4.6250    2.8722   -3.3059 H   0  0  0  0  0  0  0  0  0  0  0  0
    2.9328    4.7096   -3.1024 H   0  0  0  0  0  0  0  0  0  0  0  0
    0.8228    4.3262   -1.7845 H   0  0  0  0  0  0  0  0  0  0  0  0
    0.4118    2.1006   -0.7161 H   0  0  0  0  0  0  0  0  0  0  0  0
    3.5897    1.5413    0.8743 H   0  0  0  0  0  0  0  0  0  0  0  0
    5.3231    1.2406    2.6257 H   0  0  0  0  0  0  0  0  0  0  0  0
    6.0022   -1.0659    3.3537 H   0  0  0  0  0  0  0  0  0  0  0  0
    4.8916   -3.0734    2.3232 H   0  0  0  0  0  0  0  0  0  0  0  0
    3.1424   -2.7966    0.6079 H   0  0  0  0  0  0  0  0  0  0  0  0
   -0.0300   -3.9910   -1.3248 H   0  0  0  0  0  0  0  0  0  0  0  0
   -1.0196   -3.7536   -2.8037 H   0  0  0  0  0  0  0  0  0  0  0  0
   -2.3043   -5.0022   -1.0237 H   0  0  0  0  0  0  0  0  0  0  0  0
   -2.0418   -3.6639    0.1332 H   0  0  0  0  0  0  0  0  0  0  0  0
   -3.0975   -3.4213   -1.2961 H   0  0  0  0  0  0  0  0  0  0  0  0
   -4.9522    1.0863   -0.6593 H   0  0  0  0  0  0  0  0  0  0  0  0
   -6.9799   -0.0432    0.2693 H   0  0  0  0  0  0  0  0  0  0  0  0
   -6.7306   -1.9941    1.8220 H   0  0  0  0  0  0  0  0  0  0  0  0
   -4.4456   -2.8217    2.4416 H   0  0  0  0  0  0  0  0  0  0  0  0
   -2.4018   -1.7115    1.4774 H   0  0  0  0  0  0  0  0  0  0  0  0
   -1.9878    3.1440   -1.8037 H   0  0  0  0  0  0  0  0  0  0  0  0
   -1.9736    5.4810   -0.9655 H   0  0  0  0  0  0  0  0  0  0  0  0
   -2.0668    5.9415    1.4976 H   0  0  0  0  0  0  0  0  0  0  0  0
   -2.2252    4.0330    3.1185 H   0  0  0  0  0  0  0  0  0  0  0  0
   -2.2843    1.6846    2.2865 H   0  0  0  0  0  0  0  0  0  0  0  0
  1 14  1  0  0  0  0
  2 20  1  0  0  0  0
  3 28  1  0  0  0  0
  3 22  1  0  0  0  0
  4 34  1  0  0  0  0
  4  1  1  0  0  0  0
  5  4  1  0  0  0  0
  5  2  1  0  0  0  0
  6 38  1  0  0  0  0
  6  7  1  0  0  0  0
  6  2  1  0  0  0  0
  7  3  1  0  0  0  0
  8 13  1  0  0  0  0
  8  1  1  0  0  0  0
  9  8  2  0  0  0  0
 10 11  2  0  0  0  0
 10  9  1  0  0  0  0
 11 12  1  0  0  0  0
 12 45  1  0  0  0  0
 12 13  2  0  0  0  0
 13 46  1  0  0  0  0
 14 19  2  0  0  0  0
 14 15  1  0  0  0  0
 15 16  2  0  0  0  0
 16 17  1  0  0  0  0
 16 48  1  0  0  0  0
 17 49  1  0  0  0  0
 18 50  1  0  0  0  0
 18 17  2  0  0  0  0
 19 18  1  0  0  0  0
 20 52  1  0  0  0  0
 20 21  1  0  0  0  0
 21 55  1  0  0  0  0
 22 27  1  0  0  0  0
 23 22  2  0  0  0  0
 23 24  1  0  0  0  0
 24 25  2  0  0  0  0
 25 26  1  0  0  0  0
 25 59  1  0  0  0  0
 26 60  1  0  0  0  0
 27 61  1  0  0  0  0
 27 26  2  0  0  0  0
 28 33  1  0  0  0  0
 29 30  1  0  0  0  0
 29 28  2  0  0  0  0
 30 31  2  0  0  0  0
 31 64  1  0  0  0  0
 31 32  1  0  0  0  0
 32 65  1  0  0  0  0
 33 32  2  0  0  0  0
 33 66  1  0  0  0  0
 35  4  1  0  0  0  0
 36  5  1  0  0  0  0
 37  5  1  0  0  0  0
 39  6  1  0  0  0  0
 40  7  1  0  0  0  0
 41  7  1  0  0  0  0
 42  9  1  0  0  0  0
 43 10  1  0  0  0  0
 44 11  1  0  0  0  0
 47 15  1  0  0  0  0
 51 19  1  0  0  0  0
 53 20  1  0  0  0  0
 54 21  1  0  0  0  0
 56 21  1  0  0  0  0
 57 23  1  0  0  0  0
 58 24  1  0  0  0  0
 62 29  1  0  0  0  0
 63 30  1  0  0  0  0
M  END
