1,2,4
q = 0.0, confidence = 1.0

 69 70  0  0  0  0  0  0  0  0999 V2000
    0.2639    1.0488   -0.9608 P   0  0  1  0  0  0  0  0  0  0  0  0
    2.7217   -0.9469   -1.2404 P   0  0  0  0  0  0  0  0  0  0  0  0
   -2.8959    1.0474   -0.6723 P   0  0  2  0  0  0  0  0  0  0  0  0
   -0.1089   -0.7396    2.0234 P   0  0  0  0  0  0  0  0  0  0  0  0
   -1.3798    0.5837   -1.6802 C   0  0  0  0  0  0  0  0  0  0  0  0
   -1.3074   -0.5134   -1.8284 H   0  0  0  0  0  0  0  0  0  0  0  0
   -1.5187    1.0524   -2.6776 H   0  0  0  0  0  0  0  0  0  0  0  0
    1.3515    1.1221   -2.4951 C   0  0  0  0  0  0  0  0  0  0  0  0
    0.7789    1.5199   -3.3588 H   0  0  0  0  0  0  0  0  0  0  0  0
    2.1459    1.8621   -2.2623 H   0  0  0  0  0  0  0  0  0  0  0  0
    1.9574   -0.2533   -2.7906 C   0  0  0  0  0  0  0  0  0  0  0  0
    2.7049   -0.2094   -3.6103 H   0  0  0  0  0  0  0  0  0  0  0  0
    1.1736   -0.9814   -3.0875 H   0  0  0  0  0  0  0  0  0  0  0  0
    3.1488   -2.6902   -1.6729 C   0  0  0  0  0  0  0  0  0  0  0  0
    2.1836   -3.1642   -1.9446 H   0  0  0  0  0  0  0  0  0  0  0  0
    3.7941   -2.6837   -2.5770 H   0  0  0  0  0  0  0  0  0  0  0  0
    3.8063   -3.4310   -0.5082 C   0  0  0  0  0  0  0  0  0  0  0  0
    4.7719   -2.9724   -0.2126 H   0  0  0  0  0  0  0  0  0  0  0  0
    4.0043   -4.4877   -0.7769 H   0  0  0  0  0  0  0  0  0  0  0  0
    3.1435   -3.4224    0.3802 H   0  0  0  0  0  0  0  0  0  0  0  0
    4.3385   -0.0650   -1.0605 C   0  0  0  0  0  0  0  0  0  0  0  0
    4.0753    1.0001   -0.8946 H   0  0  0  0  0  0  0  0  0  0  0  0
    4.7497   -0.3929   -0.0841 H   0  0  0  0  0  0  0  0  0  0  0  0
    5.3418   -0.2396   -2.1984 C   0  0  0  0  0  0  0  0  0  0  0  0
    5.6668   -1.2938   -2.3090 H   0  0  0  0  0  0  0  0  0  0  0  0
    6.2517    0.3636   -2.0037 H   0  0  0  0  0  0  0  0  0  0  0  0
    4.9348    0.0910   -3.1760 H   0  0  0  0  0  0  0  0  0  0  0  0
   -2.3666    0.7537    1.1116 C   0  0  0  0  0  0  0  0  0  0  0  0
   -1.6141    1.5453    1.3191 H   0  0  0  0  0  0  0  0  0  0  0  0
   -3.2658    1.0630    1.6841 H   0  0  0  0  0  0  0  0  0  0  0  0
   -1.9044   -0.6372    1.5830 C   0  0  0  0  0  0  0  0  0  0  0  0
   -2.0736   -1.4229    0.8196 H   0  0  0  0  0  0  0  0  0  0  0  0
   -2.4767   -0.9530    2.4804 H   0  0  0  0  0  0  0  0  0  0  0  0
    0.0074   -2.3705    2.8890 C   0  0  0  0  0  0  0  0  0  0  0  0
   -0.6818   -2.3623    3.7607 H   0  0  0  0  0  0  0  0  0  0  0  0
   -0.3899   -3.1043    2.1566 H   0  0  0  0  0  0  0  0  0  0  0  0
    1.4377   -2.7259    3.2928 C   0  0  0  0  0  0  0  0  0  0  0  0
    2.0989   -2.7127    2.4034 H   0  0  0  0  0  0  0  0  0  0  0  0
    1.4802   -3.7344    3.7505 H   0  0  0  0  0  0  0  0  0  0  0  0
    1.8573   -2.0027    4.0206 H   0  0  0  0  0  0  0  0  0  0  0  0
    0.1227    0.5472    3.3352 C   0  0  0  0  0  0  0  0  0  0  0  0
    1.1657    0.4218    3.6893 H   0  0  0  0  0  0  0  0  0  0  0  0
    0.1294    1.5201    2.7999 H   0  0  0  0  0  0  0  0  0  0  0  0
   -0.8897    0.5391    4.4785 C   0  0  0  0  0  0  0  0  0  0  0  0
   -1.9205    0.7479    4.1277 H   0  0  0  0  0  0  0  0  0  0  0  0
   -0.6333    1.3198    5.2230 H   0  0  0  0  0  0  0  0  0  0  0  0
   -0.9059   -0.4307    5.0163 H   0  0  0  0  0  0  0  0  0  0  0  0
    0.1391    2.8273   -0.5147 C   0  0  0  0  0  0  0  0  0  0  0  0
   -0.8128    3.7099   -1.0683 C   0  0  0  0  0  0  0  0  0  0  0  0
   -1.5443    3.3493   -1.8063 H   0  0  0  0  0  0  0  0  0  0  0  0
   -0.8458    5.0541   -0.6659 C   0  0  0  0  0  0  0  0  0  0  0  0
   -1.5972    5.7329   -1.0976 H   0  0  0  0  0  0  0  0  0  0  0  0
    0.0735    5.5312    0.2820 C   0  0  0  0  0  0  0  0  0  0  0  0
    0.0440    6.5861    0.5953 H   0  0  0  0  0  0  0  0  0  0  0  0
    1.0263    4.6588    0.8328 C   0  0  0  0  0  0  0  0  0  0  0  0
    1.7473    5.0247    1.5798 H   0  0  0  0  0  0  0  0  0  0  0  0
    1.0582    3.3106    0.4448 C   0  0  0  0  0  0  0  0  0  0  0  0
    1.7950    2.6250    0.8957 H   0  0  0  0  0  0  0  0  0  0  0  0
   -4.0174   -0.4056   -0.9335 C   0  0  0  0  0  0  0  0  0  0  0  0
   -3.6127   -1.7228   -1.2435 C   0  0  0  0  0  0  0  0  0  0  0  0
   -2.5501   -1.9905   -1.3676 H   0  0  0  0  0  0  0  0  0  0  0  0
   -4.5692   -2.7426   -1.3786 C   0  0  0  0  0  0  0  0  0  0  0  0
   -4.2334   -3.7638   -1.6158 H   0  0  0  0  0  0  0  0  0  0  0  0
   -5.9348   -2.4681   -1.2067 C   0  0  0  0  0  0  0  0  0  0  0  0
   -6.6791   -3.2720   -1.3153 H   0  0  0  0  0  0  0  0  0  0  0  0
   -6.3477   -1.1614   -0.9011 C   0  0  0  0  0  0  0  0  0  0  0  0
   -7.4173   -0.9341   -0.7723 H   0  0  0  0  0  0  0  0  0  0  0  0
   -5.3961   -0.1389   -0.7740 C   0  0  0  0  0  0  0  0  0  0  0  0
   -5.7216    0.8912   -0.5538 H   0  0  0  0  0  0  0  0  0  0  0  0
  1  8  1  6  0  0  0
  1 48  1  0  0  0  0
  2 21  1  0  0  0  0
  3  5  1  6  0  0  0
  3 28  1  0  0  0  0
  4 34  1  0  0  0  0
  4 41  1  0  0  0  0
  5  1  1  0  0  0  0
  6  5  1  0  0  0  0
  7  5  1  0  0  0  0
  8 10  1  0  0  0  0
  9  8  1  0  0  0  0
 11  8  1  0  0  0  0
 11  2  1  0  0  0  0
 12 11  1  0  0  0  0
 13 11  1  0  0  0  0
 14  2  1  0  0  0  0
 14 17  1  0  0  0  0
 15 14  1  0  0  0  0
 16 14  1  0  0  0  0
 17 18  1  0  0  0  0
 17 20  1  0  0  0  0
 19 17  1  0  0  0  0
 21 22  1  0  0  0  0
 21 23  1  0  0  0  0
 24 26  1  0  0  0  0
 24 21  1  0  0  0  0
 25 24  1  0  0  0  0
 27 24  1  0  0  0  0
 28 29  1  0  0  0  0
 28 31  1  0  0  0  0
 28 30  1  0  0  0  0
 31  4  1  0  0  0  0
 31 33  1  0  0  0  0
 32 31  1  0  0  0  0
 34 37  1  0  0  0  0
 34 35  1  0  0  0  0
 36 34  1  0  0  0  0
 37 39  1  0  0  0  0
 37 40  1  0  0  0  0
 38 37  1  0  0  0  0
 41 42  1  0  0  0  0
 41 44  1  0  0  0  0
 43 41  1  0  0  0  0
 44 47  1  0  0  0  0
 44 46  1  0  0  0  0
 45 44  1  0  0  0  0
 48 57  1  0  0  0  0
 49 51  1  0  0  0  0
 49 48  2  0  0  0  0
 50 49  1  0  0  0  0
 51 53  2  0  0  0  0
 52 51  1  0  0  0  0
 53 54  1  0  0  0  0
 53 55  1  0  0  0  0
 55 56  1  0  0  0  0
 57 55  2  0  0  0  0
 57 58  1  0  0  0  0
 59 68  1  0  0  0  0
 59  3  1  0  0  0  0
 60 59  2  0  0  0  0
 61 60  1  0  0  0  0
 62 60  1  0  0  0  0
 62 64  2  0  0  0  0
 63 62  1  0  0  0  0
 64 66  1  0  0  0  0
 65 64  1  0  0  0  0
 66 68  2  0  0  0  0
 66 67  1  0  0  0  0
 68 69  1  0  0  0  0
M  END
