1,2,3
q = 0.0, confidence = 1.0

 60 60  0  0  0  0  0  0  0  0999 V2000
   -0.1908    1.8793    0.5739 P   0  0  1  0  0  0  0  0  0  0  0  0
    1.8782   -0.6952    0.4813 P   0  0  2  0  0  0  0  0  0  0  0  0
   -1.3771   -1.3834    0.5767 P   0  0  2  0  0  0  0  0  0  0  0  0
    1.4841    2.4763    1.1037 C   0  0  0  0  0  0  0  0  0  0  0  0
    2.2310    1.6383    2.1580 C   0  0  0  0  0  0  0  0  0  0  0  0
    2.0203    0.1158    2.1445 C   0  0  0  0  0  0  0  0  0  0  0  0
    1.9036   -2.4828    0.9443 C   0  0  0  0  0  0  0  0  0  0  0  0
    0.7372   -2.9342    1.8293 C   0  0  0  0  0  0  0  0  0  0  0  0
   -0.6168   -2.9895    1.1172 C   0  0  0  0  0  0  0  0  0  0  0  0
   -1.9510   -0.6787    2.2018 C   0  0  0  0  0  0  0  0  0  0  0  0
   -2.3193    0.8137    2.2101 C   0  0  0  0  0  0  0  0  0  0  0  0
   -1.1193    1.7706    2.1859 C   0  0  0  0  0  0  0  0  0  0  0  0
   -0.9627    3.3185   -0.3662 C   0  0  0  0  0  0  0  0  0  0  0  0
   -2.4839    3.3647   -0.1897 C   0  0  0  0  0  0  0  0  0  0  0  0
   -0.3162    4.6742   -0.0693 C   0  0  0  0  0  0  0  0  0  0  0  0
    3.5243   -0.4054   -0.3573 C   0  0  0  0  0  0  0  0  0  0  0  0
    3.6533   -1.2536   -1.6273 C   0  0  0  0  0  0  0  0  0  0  0  0
    4.7207   -0.5793    0.5849 C   0  0  0  0  0  0  0  0  0  0  0  0
   -2.9465   -1.9352   -0.3172 C   0  0  0  0  0  0  0  0  0  0  0  0
   -4.1009   -0.9446   -0.1338 C   0  0  0  0  0  0  0  0  0  0  0  0
   -3.3927   -3.3614    0.0236 C   0  0  0  0  0  0  0  0  0  0  0  0
    2.0306    2.4989    0.1369 H   0  0  0  0  0  0  0  0  0  0  0  0
    1.3994    3.5194    1.4636 H   0  0  0  0  0  0  0  0  0  0  0  0
    1.9687    2.0021    3.1744 H   0  0  0  0  0  0  0  0  0  0  0  0
    3.3134    1.8552    2.0414 H   0  0  0  0  0  0  0  0  0  0  0  0
    1.0661   -0.1413    2.6475 H   0  0  0  0  0  0  0  0  0  0  0  0
    2.8213   -0.3854    2.7262 H   0  0  0  0  0  0  0  0  0  0  0  0
    1.8850   -3.0310   -0.0196 H   0  0  0  0  0  0  0  0  0  0  0  0
    2.8731   -2.6819    1.4464 H   0  0  0  0  0  0  0  0  0  0  0  0
    0.6759   -2.3141    2.7510 H   0  0  0  0  0  0  0  0  0  0  0  0
    0.9617   -3.9601    2.1919 H   0  0  0  0  0  0  0  0  0  0  0  0
   -1.3622   -3.4959    1.7629 H   0  0  0  0  0  0  0  0  0  0  0  0
   -0.5175   -3.5704    0.1787 H   0  0  0  0  0  0  0  0  0  0  0  0
   -2.8205   -1.2911    2.5217 H   0  0  0  0  0  0  0  0  0  0  0  0
   -1.1462   -0.8764    2.9429 H   0  0  0  0  0  0  0  0  0  0  0  0
   -2.9998    1.0410    1.3673 H   0  0  0  0  0  0  0  0  0  0  0  0
   -2.9020    1.0181    3.1336 H   0  0  0  0  0  0  0  0  0  0  0  0
   -0.3902    1.4810    2.9709 H   0  0  0  0  0  0  0  0  0  0  0  0
   -1.4447    2.8022    2.4354 H   0  0  0  0  0  0  0  0  0  0  0  0
   -0.7399    3.0227   -1.4129 H   0  0  0  0  0  0  0  0  0  0  0  0
   -2.9413    2.4009   -0.4829 H   0  0  0  0  0  0  0  0  0  0  0  0
   -2.8991    4.1419   -0.8638 H   0  0  0  0  0  0  0  0  0  0  0  0
   -2.7865    3.6333    0.8441 H   0  0  0  0  0  0  0  0  0  0  0  0
    0.7522    4.7033   -0.3552 H   0  0  0  0  0  0  0  0  0  0  0  0
   -0.4074    4.9679    0.9989 H   0  0  0  0  0  0  0  0  0  0  0  0
   -0.8357    5.4550   -0.6628 H   0  0  0  0  0  0  0  0  0  0  0  0
    3.4358    0.6547   -0.6786 H   0  0  0  0  0  0  0  0  0  0  0  0
    2.7709   -1.1307   -2.2830 H   0  0  0  0  0  0  0  0  0  0  0  0
    3.7666   -2.3317   -1.3906 H   0  0  0  0  0  0  0  0  0  0  0  0
    4.5576   -0.9358   -2.1860 H   0  0  0  0  0  0  0  0  0  0  0  0
    4.6994    0.1092    1.4527 H   0  0  0  0  0  0  0  0  0  0  0  0
    5.6557   -0.3697    0.0251 H   0  0  0  0  0  0  0  0  0  0  0  0
    4.8055   -1.6171    0.9701 H   0  0  0  0  0  0  0  0  0  0  0  0
   -2.6102   -1.8894   -1.3745 H   0  0  0  0  0  0  0  0  0  0  0  0
   -3.8010    0.0718   -0.4495 H   0  0  0  0  0  0  0  0  0  0  0  0
   -4.4818   -0.9275    0.9089 H   0  0  0  0  0  0  0  0  0  0  0  0
   -4.9446   -1.2540   -0.7845 H   0  0  0  0  0  0  0  0  0  0  0  0
   -2.6419   -4.1265   -0.2473 H   0  0  0  0  0  0  0  0  0  0  0  0
   -4.3138   -3.5900   -0.5516 H   0  0  0  0  0  0  0  0  0  0  0  0
   -3.6476   -3.4825    1.0983 H   0  0  0  0  0  0  0  0  0  0  0  0
  1 13  1  6  0  0  0
  1  4  1  0  0  0  0
  1 12  1  0  0  0  0
  2 16  1  6  0  0  0
  2  7  1  0  0  0  0
  2  6  1  0  0  0  0
  3 19  1  6  0  0  0
  3  9  1  0  0  0  0
  3 10  1  0  0  0  0
  4 23  1  0  0  0  0
  4  5  1  0  0  0  0
  5 24  1  0  0  0  0
  6  5  1  0  0  0  0
  6 26  1  0  0  0  0
  6 27  1  0  0  0  0
  7 29  1  0  0  0  0
  7  8  1  0  0  0  0
  8 31  1  0  0  0  0
  8 30  1  0  0  0  0
  9 32  1  0  0  0  0
  9  8  1  0  0  0  0
 10 11  1  0  0  0  0
 10 34  1  0  0  0  0
 10 35  1  0  0  0  0
 11 37  1  0  0  0  0
 12 11  1  0  0  0  0
 12 39  1  0  0  0  0
 12 38  1  0  0  0  0
 13 14  1  0  0  0  0
 13 15  1  0  0  0  0
 14 43  1  0  0  0  0
 15 45  1  0  0  0  0
 16 18  1  0  0  0  0
 17 49  1  0  0  0  0
 17 16  1  0  0  0  0
 18 53  1  0  0  0  0
 18 51  1  0  0  0  0
 19 20  1  0  0  0  0
 19 21  1  0  0  0  0
 20 56  1  0  0  0  0
 21 60  1  0  0  0  0
 22  4  1  0  0  0  0
 25  5  1  0  0  0  0
 28  7  1  0  0  0  0
 33  9  1  0  0  0  0
 36 11  1  0  0  0  0
 40 13  1  0  0  0  0
 41 14  1  0  0  0  0
 42 14  1  0  0  0  0
 44 15  1  0  0  0  0
 46 15  1  0  0  0  0
 47 16  1  0  0  0  0
 48 17  1  0  0  0  0
 50 17  1  0  0  0  0
 52 18  1  0  0  0  0
 54 19  1  0  0  0  0
 55 20  1  0  0  0  0
 57 20  1  0  0  0  0
 58 21  1  0  0  0  0
 59 21  1  0  0  0  0
M  END
