1,2,3
q = 0.0, confidence = 0.998

 71 73  0  0  0  0  0  0  0  0999 V2000
    0.9799   -1.8492    0.3570 P   0  0  1  0  0  0  0  0  0  0  0  0
   -2.1279   -0.6538    0.6200 P   0  0  2  0  0  0  0  0  0  0  0  0
    0.3980    1.4199    0.3883 P   0  0  2  0  0  0  0  0  0  0  0  0
    0.5065   -1.7275    2.1726 C   0  0  0  0  0  0  0  0  0  0  0  0
    1.4060   -1.9937    2.7647 H   0  0  0  0  0  0  0  0  0  0  0  0
   -0.2446   -2.5195    2.3762 H   0  0  0  0  0  0  0  0  0  0  0  0
   -1.5568   -0.2073    2.3551 C   0  0  0  0  0  0  0  0  0  0  0  0
   -2.1390   -0.8263    3.0704 H   0  0  0  0  0  0  0  0  0  0  0  0
   -1.8495    0.8456    2.5449 H   0  0  0  0  0  0  0  0  0  0  0  0
    0.7849    0.8366    2.1218 C   0  0  0  0  0  0  0  0  0  0  0  0
    0.6803    1.6962    2.8161 H   0  0  0  0  0  0  0  0  0  0  0  0
    1.8586    0.5565    2.1251 H   0  0  0  0  0  0  0  0  0  0  0  0
   -0.0451   -0.3625    2.6672 C   0  0  0  0  0  0  0  0  0  0  0  0
    0.1019   -0.3464    4.2048 C   0  0  0  0  0  0  0  0  0  0  0  0
   -0.3686    0.5596    4.6399 H   0  0  0  0  0  0  0  0  0  0  0  0
    1.1715   -0.3519    4.4989 H   0  0  0  0  0  0  0  0  0  0  0  0
   -0.3827   -1.2349    4.6596 H   0  0  0  0  0  0  0  0  0  0  0  0
    3.6122   -2.4172    1.3157 C   0  0  0  0  0  0  0  0  0  0  0  0
    4.9920   -2.1981    1.4315 C   0  0  0  0  0  0  0  0  0  0  0  0
    5.6005   -1.1460    0.7250 C   0  0  0  0  0  0  0  0  0  0  0  0
    4.8230   -0.3252   -0.1038 C   0  0  0  0  0  0  0  0  0  0  0  0
    3.4425   -0.5531   -0.2265 C   0  0  0  0  0  0  0  0  0  0  0  0
    2.8193   -1.5920    0.4871 C   0  0  0  0  0  0  0  0  0  0  0  0
    3.1541   -3.2458    1.8793 H   0  0  0  0  0  0  0  0  0  0  0  0
    5.5970   -2.8525    2.0778 H   0  0  0  0  0  0  0  0  0  0  0  0
    6.6831   -0.9714    0.8210 H   0  0  0  0  0  0  0  0  0  0  0  0
    5.2834    0.5035   -0.6624 H   0  0  0  0  0  0  0  0  0  0  0  0
    2.8385    0.0871   -0.8810 H   0  0  0  0  0  0  0  0  0  0  0  0
    0.8831   -3.6925    0.0853 C   0  0  0  0  0  0  0  0  0  0  0  0
   -0.2026   -3.9259    0.0723 H   0  0  0  0  0  0  0  0  0  0  0  0
    1.3254   -4.2253    0.9546 H   0  0  0  0  0  0  0  0  0  0  0  0
    1.5412   -4.1123   -1.2278 C   0  0  0  0  0  0  0  0  0  0  0  0
    1.4031   -5.1972   -1.4090 H   0  0  0  0  0  0  0  0  0  0  0  0
    2.6299   -3.9036   -1.2159 H   0  0  0  0  0  0  0  0  0  0  0  0
    1.1011   -3.5646   -2.0842 H   0  0  0  0  0  0  0  0  0  0  0  0
   -4.2311    0.5072   -0.8206 C   0  0  0  0  0  0  0  0  0  0  0  0
   -5.4403    1.1942   -1.0017 C   0  0  0  0  0  0  0  0  0  0  0  0
   -6.1322    1.7081    0.1062 C   0  0  0  0  0  0  0  0  0  0  0  0
   -5.6165    1.5175    1.3977 C   0  0  0  0  0  0  0  0  0  0  0  0
   -4.4127    0.8192    1.5819 C   0  0  0  0  0  0  0  0  0  0  0  0
   -3.7007    0.3166    0.4720 C   0  0  0  0  0  0  0  0  0  0  0  0
   -3.6785    0.1168   -1.6879 H   0  0  0  0  0  0  0  0  0  0  0  0
   -5.8364    1.3374   -2.0183 H   0  0  0  0  0  0  0  0  0  0  0  0
   -7.0749    2.2582   -0.0361 H   0  0  0  0  0  0  0  0  0  0  0  0
   -6.1562    1.9130    2.2719 H   0  0  0  0  0  0  0  0  0  0  0  0
   -4.0365    0.6690    2.6046 H   0  0  0  0  0  0  0  0  0  0  0  0
   -2.8553   -2.3548    0.9535 C   0  0  0  0  0  0  0  0  0  0  0  0
   -3.4408   -2.2708    1.8948 H   0  0  0  0  0  0  0  0  0  0  0  0
   -1.9930   -3.0222    1.1629 H   0  0  0  0  0  0  0  0  0  0  0  0
   -3.7151   -2.9212   -0.1726 C   0  0  0  0  0  0  0  0  0  0  0  0
   -4.1183   -3.9133    0.1163 H   0  0  0  0  0  0  0  0  0  0  0  0
   -3.1404   -3.0507   -1.1084 H   0  0  0  0  0  0  0  0  0  0  0  0
   -4.5786   -2.2616   -0.3909 H   0  0  0  0  0  0  0  0  0  0  0  0
    2.8798    2.8193    0.8724 C   0  0  0  0  0  0  0  0  0  0  0  0
    3.9906    3.5644    0.4437 C   0  0  0  0  0  0  0  0  0  0  0  0
    4.1179    3.9317   -0.9044 C   0  0  0  0  0  0  0  0  0  0  0  0
    3.1266    3.5536   -1.8256 C   0  0  0  0  0  0  0  0  0  0  0  0
    2.0225    2.8013   -1.4018 C   0  0  0  0  0  0  0  0  0  0  0  0
    1.8891    2.4238   -0.0486 C   0  0  0  0  0  0  0  0  0  0  0  0
    2.8017    2.5414    1.9332 H   0  0  0  0  0  0  0  0  0  0  0  0
    4.7627    3.8575    1.1716 H   0  0  0  0  0  0  0  0  0  0  0  0
    4.9914    4.5117   -1.2390 H   0  0  0  0  0  0  0  0  0  0  0  0
    3.2193    3.8336   -2.8857 H   0  0  0  0  0  0  0  0  0  0  0  0
    1.2612    2.4777   -2.1289 H   0  0  0  0  0  0  0  0  0  0  0  0
   -0.8589    2.7919    0.6044 C   0  0  0  0  0  0  0  0  0  0  0  0
   -1.8443    2.3041    0.7543 H   0  0  0  0  0  0  0  0  0  0  0  0
   -0.9128    3.2397   -0.4101 H   0  0  0  0  0  0  0  0  0  0  0  0
   -0.5769    3.8520    1.6633 C   0  0  0  0  0  0  0  0  0  0  0  0
   -1.3307    4.6640    1.6122 H   0  0  0  0  0  0  0  0  0  0  0  0
    0.4225    4.3128    1.5252 H   0  0  0  0  0  0  0  0  0  0  0  0
   -0.6189    3.4375    2.6918 H   0  0  0  0  0  0  0  0  0  0  0  0
  1 29  1  1  0  0  0
  1 23  1  0  0  0  0
  1  4  1  0  0  0  0
  2 47  1  1  0  0  0
  2  7  1  0  0  0  0
  3 65  1  1  0  0  0
  3 10  1  0  0  0  0
  4  6  1  0  0  0  0
  4 13  1  0  0  0  0
  4  5  1  0  0  0  0
  7  9  1  0  0  0  0
  7 13  1  0  0  0  0
  7  8  1  0  0  0  0
 10 12  1  0  0  0  0
 10 13  1  0  0  0  0
 10 11  1  0  0  0  0
 13 14  1  0  0  0  0
 14 16  1  0  0  0  0
 14 15  1  0  0  0  0
 14 17  1  0  0  0  0
 18 19  1  0  0  0  0
 18 24  1  0  0  0  0
 19 25  1  0  0  0  0
 20 26  1  0  0  0  0
 20 19  2  0  0  0  0
 21 20  1  0  0  0  0
 22 21  2  0  0  0  0
 22 23  1  0  0  0  0
 23 18  2  0  0  0  0
 27 21  1  0  0  0  0
 28 22  1  0  0  0  0
 29 31  1  0  0  0  0
 30 29  1  0  0  0  0
 32 34  1  0  0  0  0
 32 29  1  0  0  0  0
 33 32  1  0  0  0  0
 35 32  1  0  0  0  0
 36 41  1  0  0  0  0
 37 36  2  0  0  0  0
 37 38  1  0  0  0  0
 38 39  2  0  0  0  0
 39 40  1  0  0  0  0
 39 45  1  0  0  0  0
 40 46  1  0  0  0  0
 41  2  1  0  0  0  0
 41 40  2  0  0  0  0
 42 36  1  0  0  0  0
 43 37  1  0  0  0  0
 44 38  1  0  0  0  0
 47 49  1  0  0  0  0
 47 48  1  0  0  0  0
 50 51  1  0  0  0  0
 50 47  1  0  0  0  0
 52 50  1  0  0  0  0
 53 50  1  0  0  0  0
 54 60  1  0  0  0  0
 55 54  1  0  0  0  0
 55 61  1  0  0  0  0
 56 55  2  0  0  0  0
 57 58  2  0  0  0  0
 57 56  1  0  0  0  0
 58 59  1  0  0  0  0
 59  3  1  0  0  0  0
 59 54  2  0  0  0  0
 62 56  1  0  0  0  0
 63 57  1  0  0  0  0
 64 58  1  0  0  0  0
 65 66  1  0  0  0  0
 65 68  1  0  0  0  0
 67 65  1  0  0  0  0
 68 71  1  0  0  0  0
 69 68  1  0  0  0  0
 70 68  1  0  0  0  0
M  END
