1,2,3
q = 0.0, confidence = 1.0

 33 33  0  0  0  0  0  0  0  0999 V2000
   -1.9173   -0.0047    0.3751 P   0  0  0  0  0  0  0  0  0  0  0  0
    0.8127   -1.6571   -0.5606 P   0  0  0  0  0  0  0  0  0  0  0  0
    0.8067    1.6643   -0.5466 P   0  0  0  0  0  0  0  0  0  0  0  0
   -2.6483   -1.4744   -0.5247 C   0  0  0  0  0  0  0  0  0  0  0  0
   -1.7875   -2.0642   -1.6504 C   0  0  0  0  0  0  0  0  0  0  0  0
   -0.5348   -2.8016   -1.1538 C   0  0  0  0  0  0  0  0  0  0  0  0
    1.6602   -1.2646   -2.1867 C   0  0  0  0  0  0  0  0  0  0  0  0
    2.5081    0.0134   -2.1707 C   0  0  0  0  0  0  0  0  0  0  0  0
    1.6562    1.2889   -2.1756 C   0  0  0  0  0  0  0  0  0  0  0  0
   -0.5443    2.8094   -1.1306 C   0  0  0  0  0  0  0  0  0  0  0  0
   -1.7949    2.0720   -1.6330 C   0  0  0  0  0  0  0  0  0  0  0  0
   -2.6531    1.4706   -0.5115 C   0  0  0  0  0  0  0  0  0  0  0  0
   -2.8397   -0.0111    1.4771 H   0  0  0  0  0  0  0  0  0  0  0  0
    1.7287   -2.6539   -0.0779 H   0  0  0  0  0  0  0  0  0  0  0  0
    1.7191    2.6602   -0.0551 H   0  0  0  0  0  0  0  0  0  0  0  0
   -2.8130   -2.2478    0.2559 H   0  0  0  0  0  0  0  0  0  0  0  0
   -3.6510   -1.1861   -0.9047 H   0  0  0  0  0  0  0  0  0  0  0  0
   -2.4112   -2.7785   -2.2294 H   0  0  0  0  0  0  0  0  0  0  0  0
   -1.5034   -1.2689   -2.3771 H   0  0  0  0  0  0  0  0  0  0  0  0
   -0.1171   -3.4528   -1.9502 H   0  0  0  0  0  0  0  0  0  0  0  0
   -0.7946   -3.4598   -0.2979 H   0  0  0  0  0  0  0  0  0  0  0  0
    2.2711   -2.1465   -2.4685 H   0  0  0  0  0  0  0  0  0  0  0  0
    0.8629   -1.1689   -2.9562 H   0  0  0  0  0  0  0  0  0  0  0  0
    3.1592    0.0183   -3.0708 H   0  0  0  0  0  0  0  0  0  0  0  0
    3.1968    0.0106   -1.2972 H   0  0  0  0  0  0  0  0  0  0  0  0
    0.8597    1.1975   -2.9464 H   0  0  0  0  0  0  0  0  0  0  0  0
    2.2646    2.1751   -2.4492 H   0  0  0  0  0  0  0  0  0  0  0  0
   -0.8062    3.4600   -0.2695 H   0  0  0  0  0  0  0  0  0  0  0  0
   -0.1288    3.4683   -1.9218 H   0  0  0  0  0  0  0  0  0  0  0  0
   -2.4211    2.7889   -2.2059 H   0  0  0  0  0  0  0  0  0  0  0  0
   -1.5087    1.2832   -2.3660 H   0  0  0  0  0  0  0  0  0  0  0  0
   -3.6554    1.1829   -0.8929 H   0  0  0  0  0  0  0  0  0  0  0  0
   -2.8189    2.2369    0.2758 H   0  0  0  0  0  0  0  0  0  0  0  0
  1 13  1  0  0  0  0
  2 14  1  0  0  0  0
  3 15  1  0  0  0  0
  4 16  1  0  0  0  0
  4  1  1  0  0  0  0
  5  6  1  0  0  0  0
  5  4  1  0  0  0  0
  6  2  1  0  0  0  0
  6 21  1  0  0  0  0
  7  8  1  0  0  0  0
  7  2  1  0  0  0  0
  8 25  1  0  0  0  0
  9  8  1  0  0  0  0
  9  3  1  0  0  0  0
 10  3  1  0  0  0  0
 10 28  1  0  0  0  0
 11 10  1  0  0  0  0
 11 12  1  0  0  0  0
 12 33  1  0  0  0  0
 12  1  1  0  0  0  0
 17  4  1  0  0  0  0
 18  5  1  0  0  0  0
 19  5  1  0  0  0  0
 20  6  1  0  0  0  0
 22  7  1  0  0  0  0
 23  7  1  0  0  0  0
 24  8  1  0  0  0  0
 26  9  1  0  0  0  0
 27  9  1  0  0  0  0
 29 10  1  0  0  0  0
 30 11  1  0  0  0  0
 31 11  1  0  0  0  0
 32 12  1  0  0  0  0
M  END
