1,2,3
q = 0.0, confidence = 0.994

 78 81  0  0  0  0  0  0  0  0999 V2000
    2.3241    0.2575   -0.2313 P   0  0  0  0  0  0  0  0  0  0  0  0
    0.0056   -1.7393   -1.6284 P   0  0  0  0  0  0  0  0  0  0  0  0
   -2.3148    0.2419   -0.2264 P   0  0  0  0  0  0  0  0  0  0  0  0
    3.0227    1.9401    0.0473 C   0  0  0  0  0  0  0  0  0  0  0  0
    2.4589    3.0356   -0.6387 C   0  0  0  0  0  0  0  0  0  0  0  0
    3.0190    4.3112   -0.4894 C   0  0  0  0  0  0  0  0  0  0  0  0
    4.1290    4.5089    0.3485 C   0  0  0  0  0  0  0  0  0  0  0  0
    4.6835    3.4207    1.0384 C   0  0  0  0  0  0  0  0  0  0  0  0
    4.1341    2.1371    0.8896 C   0  0  0  0  0  0  0  0  0  0  0  0
    3.1123   -0.7486    1.0907 C   0  0  0  0  0  0  0  0  0  0  0  0
    4.2685   -1.5279    0.8912 C   0  0  0  0  0  0  0  0  0  0  0  0
    4.8006   -2.2867    1.9471 C   0  0  0  0  0  0  0  0  0  0  0  0
    4.1922   -2.2584    3.2109 C   0  0  0  0  0  0  0  0  0  0  0  0
    3.0521   -1.4633    3.4204 C   0  0  0  0  0  0  0  0  0  0  0  0
    2.5087   -0.7154    2.3674 C   0  0  0  0  0  0  0  0  0  0  0  0
    3.1584   -0.2072   -1.8168 C   0  0  0  0  0  0  0  0  0  0  0  0
    2.8556   -1.6109   -2.3511 C   0  0  0  0  0  0  0  0  0  0  0  0
    1.4180   -1.8287   -2.8407 C   0  0  0  0  0  0  0  0  0  0  0  0
   -0.0523   -3.4466   -0.7658 C   0  0  0  0  0  0  0  0  0  0  0  0
    1.3037   -3.7040   -0.0873 C   0  0  0  0  0  0  0  0  0  0  0  0
   -0.3500   -4.5634   -1.7798 C   0  0  0  0  0  0  0  0  0  0  0  0
   -1.1377   -3.4344    0.3219 C   0  0  0  0  0  0  0  0  0  0  0  0
   -1.3736   -1.7504   -2.8766 C   0  0  0  0  0  0  0  0  0  0  0  0
   -2.8162   -1.6297   -2.3717 C   0  0  0  0  0  0  0  0  0  0  0  0
   -3.1721   -0.2553   -1.7926 C   0  0  0  0  0  0  0  0  0  0  0  0
   -3.0953   -0.7288    1.1258 C   0  0  0  0  0  0  0  0  0  0  0  0
   -2.5133   -0.6209    2.4080 C   0  0  0  0  0  0  0  0  0  0  0  0
   -3.0522   -1.3370    3.4850 C   0  0  0  0  0  0  0  0  0  0  0  0
   -4.1658   -2.1737    3.2949 C   0  0  0  0  0  0  0  0  0  0  0  0
   -4.7512   -2.2775    2.0243 C   0  0  0  0  0  0  0  0  0  0  0  0
   -4.2232   -1.5514    0.9434 C   0  0  0  0  0  0  0  0  0  0  0  0
   -3.0225    1.9276    0.0177 C   0  0  0  0  0  0  0  0  0  0  0  0
   -4.1649    2.1249    0.8179 C   0  0  0  0  0  0  0  0  0  0  0  0
   -4.7242    3.4069    0.9400 C   0  0  0  0  0  0  0  0  0  0  0  0
   -4.1487    4.4938    0.2655 C   0  0  0  0  0  0  0  0  0  0  0  0
   -3.0088    4.2960   -0.5309 C   0  0  0  0  0  0  0  0  0  0  0  0
   -2.4391    3.0216   -0.6537 C   0  0  0  0  0  0  0  0  0  0  0  0
    1.5783    2.8761   -1.2814 H   0  0  0  0  0  0  0  0  0  0  0  0
    2.5727    5.1630   -1.0251 H   0  0  0  0  0  0  0  0  0  0  0  0
    4.5587    5.5153    0.4693 H   0  0  0  0  0  0  0  0  0  0  0  0
    5.5485    3.5681    1.7031 H   0  0  0  0  0  0  0  0  0  0  0  0
    4.5697    1.2909    1.4411 H   0  0  0  0  0  0  0  0  0  0  0  0
    4.7654   -1.5493   -0.0897 H   0  0  0  0  0  0  0  0  0  0  0  0
    5.6984   -2.9011    1.7791 H   0  0  0  0  0  0  0  0  0  0  0  0
    4.6101   -2.8539    4.0369 H   0  0  0  0  0  0  0  0  0  0  0  0
    2.5788   -1.4280    4.4135 H   0  0  0  0  0  0  0  0  0  0  0  0
    1.6156   -0.0859    2.5174 H   0  0  0  0  0  0  0  0  0  0  0  0
    4.2495   -0.0499   -1.6926 H   0  0  0  0  0  0  0  0  0  0  0  0
    2.7928    0.5658   -2.5257 H   0  0  0  0  0  0  0  0  0  0  0  0
    3.1384   -2.3746   -1.6002 H   0  0  0  0  0  0  0  0  0  0  0  0
    3.5249   -1.7897   -3.2204 H   0  0  0  0  0  0  0  0  0  0  0  0
    1.1626   -1.0315   -3.5700 H   0  0  0  0  0  0  0  0  0  0  0  0
    1.3386   -2.8003   -3.3721 H   0  0  0  0  0  0  0  0  0  0  0  0
    1.6049   -2.8614    0.5649 H   0  0  0  0  0  0  0  0  0  0  0  0
    2.1128   -3.8907   -0.8195 H   0  0  0  0  0  0  0  0  0  0  0  0
    1.2244   -4.6091    0.5508 H   0  0  0  0  0  0  0  0  0  0  0  0
   -1.3720   -4.4878   -2.2005 H   0  0  0  0  0  0  0  0  0  0  0  0
   -0.2790   -5.5469   -1.2687 H   0  0  0  0  0  0  0  0  0  0  0  0
    0.3733   -4.5816   -2.6205 H   0  0  0  0  0  0  0  0  0  0  0  0
   -2.1525   -3.2630   -0.0822 H   0  0  0  0  0  0  0  0  0  0  0  0
   -0.9446   -2.6500    1.0781 H   0  0  0  0  0  0  0  0  0  0  0  0
   -1.1469   -4.4182    0.8368 H   0  0  0  0  0  0  0  0  0  0  0  0
   -1.2545   -2.6577   -3.5029 H   0  0  0  0  0  0  0  0  0  0  0  0
   -1.1346   -0.8698   -3.5096 H   0  0  0  0  0  0  0  0  0  0  0  0
   -3.4876   -1.8097   -3.2388 H   0  0  0  0  0  0  0  0  0  0  0  0
   -3.0537   -2.4355   -1.6463 H   0  0  0  0  0  0  0  0  0  0  0  0
   -2.8678    0.5435   -2.5014 H   0  0  0  0  0  0  0  0  0  0  0  0
   -4.2652   -0.1498   -1.6354 H   0  0  0  0  0  0  0  0  0  0  0  0
   -1.6392    0.0388    2.5427 H   0  0  0  0  0  0  0  0  0  0  0  0
   -2.5962   -1.2439    4.4826 H   0  0  0  0  0  0  0  0  0  0  0  0
   -4.5806   -2.7428    4.1408 H   0  0  0  0  0  0  0  0  0  0  0  0
   -5.6276   -2.9255    1.8704 H   0  0  0  0  0  0  0  0  0  0  0  0
   -4.7014   -1.6341   -0.0438 H   0  0  0  0  0  0  0  0  0  0  0  0
   -4.6171    1.2798    1.3577 H   0  0  0  0  0  0  0  0  0  0  0  0
   -5.6136    3.5541    1.5719 H   0  0  0  0  0  0  0  0  0  0  0  0
   -4.5860    5.4992    0.3657 H   0  0  0  0  0  0  0  0  0  0  0  0
   -2.5466    5.1466   -1.0550 H   0  0  0  0  0  0  0  0  0  0  0  0
   -1.5380    2.8619   -1.2668 H   0  0  0  0  0  0  0  0  0  0  0  0
  1  4  1  0  0  0  0
  1 10  1  0  0  0  0
  2 19  1  0  0  0  0
  3 32  1  0  0  0  0
  3 26  1  0  0  0  0
  4  9  1  0  0  0  0
  5  6  1  0  0  0  0
  5  4  2  0  0  0  0
  6  7  2  0  0  0  0
  7 40  1  0  0  0  0
  7  8  1  0  0  0  0
  8 41  1  0  0  0  0
  9  8  2  0  0  0  0
  9 42  1  0  0  0  0
 10 15  1  0  0  0  0
 11 10  2  0  0  0  0
 11 12  1  0  0  0  0
 12 13  2  0  0  0  0
 13 14  1  0  0  0  0
 13 45  1  0  0  0  0
 14 46  1  0  0  0  0
 15 47  1  0  0  0  0
 15 14  2  0  0  0  0
 16 48  1  0  0  0  0
 16  1  1  0  0  0  0
 17 16  1  0  0  0  0
 17 50  1  0  0  0  0
 18 17  1  0  0  0  0
 18  2  1  0  0  0  0
 19 20  1  0  0  0  0
 19 22  1  0  0  0  0
 20 56  1  0  0  0  0
 20 54  1  0  0  0  0
 21 58  1  0  0  0  0
 21 19  1  0  0  0  0
 22 62  1  0  0  0  0
 22 61  1  0  0  0  0
 23 24  1  0  0  0  0
 23  2  1  0  0  0  0
 24 25  1  0  0  0  0
 24 66  1  0  0  0  0
 25 68  1  0  0  0  0
 25  3  1  0  0  0  0
 26 27  1  0  0  0  0
 27 69  1  0  0  0  0
 27 28  2  0  0  0  0
 28 70  1  0  0  0  0
 29 28  1  0  0  0  0
 29 71  1  0  0  0  0
 30 29  2  0  0  0  0
 31 26  2  0  0  0  0
 31 30  1  0  0  0  0
 32 33  1  0  0  0  0
 33 34  2  0  0  0  0
 33 74  1  0  0  0  0
 34 75  1  0  0  0  0
 35 76  1  0  0  0  0
 35 34  1  0  0  0  0
 36 35  2  0  0  0  0
 37 36  1  0  0  0  0
 37 32  2  0  0  0  0
 38  5  1  0  0  0  0
 39  6  1  0  0  0  0
 43 11  1  0  0  0  0
 44 12  1  0  0  0  0
 49 16  1  0  0  0  0
 51 17  1  0  0  0  0
 52 18  1  0  0  0  0
 53 18  1  0  0  0  0
 55 20  1  0  0  0  0
 57 21  1  0  0  0  0
 59 21  1  0  0  0  0
 60 22  1  0  0  0  0
 63 23  1  0  0  0  0
 64 23  1  0  0  0  0
 65 24  1  0  0  0  0
 67 25  1  0  0  0  0
 72 30  1  0  0  0  0
 73 31  1  0  0  0  0
 77 36  1  0  0  0  0
 78 37  1  0  0  0  0
M  END
