1,2,4
 OpenBabel05122313063D

 43 43  0  0  0  0  0  0  0  0999 V2000
    0.9482    1.3129   -0.0269 P   0  0  0  0  0  0  0  0  0  0  0  0
   -2.2360    0.3753   -1.1767 P   0  0  0  0  0  0  0  0  0  0  0  0
   -2.8485   -0.1032   -2.3840 H   0  0  0  0  0  0  0  0  0  0  0  0
   -1.0239   -0.8278    1.8792 P   0  0  0  0  0  0  0  0  0  0  0  0
   -0.9807   -2.0808    2.5795 H   0  0  0  0  0  0  0  0  0  0  0  0
    3.9469    0.3045    0.5674 O   0  0  0  0  0  0  0  0  0  0  0  0
    0.0765    2.8839   -0.5520 C   0  0  0  0  0  0  0  0  0  0  0  0
   -0.5678    3.2021    0.2961 H   0  0  0  0  0  0  0  0  0  0  0  0
    0.8571    3.6667   -0.6614 H   0  0  0  0  0  0  0  0  0  0  0  0
   -0.7681    2.7699   -1.8304 C   0  0  0  0  0  0  0  0  0  0  0  0
   -0.8732    3.7805   -2.2793 H   0  0  0  0  0  0  0  0  0  0  0  0
   -0.2402    2.1536   -2.5917 H   0  0  0  0  0  0  0  0  0  0  0  0
   -2.1739    2.2091   -1.5828 C   0  0  0  0  0  0  0  0  0  0  0  0
   -2.8275    2.3809   -2.4620 H   0  0  0  0  0  0  0  0  0  0  0  0
   -2.6400    2.7504   -0.7308 H   0  0  0  0  0  0  0  0  0  0  0  0
   -3.7381    0.3107   -0.0715 C   0  0  0  0  0  0  0  0  0  0  0  0
   -4.5162    0.9761   -0.5011 H   0  0  0  0  0  0  0  0  0  0  0  0
   -4.1323   -0.7260   -0.1266 H   0  0  0  0  0  0  0  0  0  0  0  0
   -3.4473    0.6926    1.3902 C   0  0  0  0  0  0  0  0  0  0  0  0
   -4.4059    0.9839    1.8702 H   0  0  0  0  0  0  0  0  0  0  0  0
   -2.8130    1.6076    1.4277 H   0  0  0  0  0  0  0  0  0  0  0  0
   -2.8179   -0.4256    2.2363 C   0  0  0  0  0  0  0  0  0  0  0  0
   -3.3756   -1.3714    2.0673 H   0  0  0  0  0  0  0  0  0  0  0  0
   -2.9105   -0.1913    3.3179 H   0  0  0  0  0  0  0  0  0  0  0  0
   -0.0777    0.1705    3.1428 C   0  0  0  0  0  0  0  0  0  0  0  0
   -0.6506    0.1518    4.0939 H   0  0  0  0  0  0  0  0  0  0  0  0
    0.8628   -0.3936    3.3207 H   0  0  0  0  0  0  0  0  0  0  0  0
    0.2581    1.6165    2.7454 C   0  0  0  0  0  0  0  0  0  0  0  0
    0.5576    2.1607    3.6666 H   0  0  0  0  0  0  0  0  0  0  0  0
   -0.6585    2.1391    2.3884 H   0  0  0  0  0  0  0  0  0  0  0  0
    1.3947    1.7615    1.7229 C   0  0  0  0  0  0  0  0  0  0  0  0
    2.2546    1.1097    1.9792 H   0  0  0  0  0  0  0  0  0  0  0  0
    1.7751    2.8058    1.7137 H   0  0  0  0  0  0  0  0  0  0  0  0
    2.5681    1.5773   -0.9191 C   0  0  0  0  0  0  0  0  0  0  0  0
    2.3039    1.6960   -1.9906 H   0  0  0  0  0  0  0  0  0  0  0  0
    3.0136    2.5338   -0.5689 H   0  0  0  0  0  0  0  0  0  0  0  0
    3.5746    0.4468   -0.7907 C   0  0  0  0  0  0  0  0  0  0  0  0
    3.1361   -0.5002   -1.1857 H   0  0  0  0  0  0  0  0  0  0  0  0
    4.4744    0.6778   -1.4164 H   0  0  0  0  0  0  0  0  0  0  0  0
    4.9061   -0.7114    0.7701 C   0  0  0  0  0  0  0  0  0  0  0  0
    5.1440   -0.7336    1.8514 H   0  0  0  0  0  0  0  0  0  0  0  0
    5.8470   -0.5070    0.2027 H   0  0  0  0  0  0  0  0  0  0  0  0
    4.5193   -1.7117    0.4710 H   0  0  0  0  0  0  0  0  0  0  0  0
  1 31  1  0  0  0  0
  2 16  1  0  0  0  0
  3  2  1  0  0  0  0
  4 22  1  0  0  0  0
  4  5  1  0  0  0  0
  4 25  1  0  0  0  0
  6 40  1  0  0  0  0
  7  1  1  0  0  0  0
  7  8  1  0  0  0  0
  9  7  1  0  0  0  0
 10 13  1  0  0  0  0
 10  7  1  0  0  0  0
 11 10  1  0  0  0  0
 12 10  1  0  0  0  0
 13  2  1  0  0  0  0
 13 15  1  0  0  0  0
 14 13  1  0  0  0  0
 16 19  1  0  0  0  0
 17 16  1  0  0  0  0
 18 16  1  0  0  0  0
 19 21  1  0  0  0  0
 19 20  1  0  0  0  0
 19 22  1  0  0  0  0
 22 24  1  0  0  0  0
 23 22  1  0  0  0  0
 25 27  1  0  0  0  0
 25 26  1  0  0  0  0
 28 25  1  0  0  0  0
 28 29  1  0  0  0  0
 30 28  1  0  0  0  0
 31 32  1  0  0  0  0
 31 28  1  0  0  0  0
 33 31  1  0  0  0  0
 34 37  1  0  0  0  0
 34 36  1  0  0  0  0
 34  1  1  0  0  0  0
 35 34  1  0  0  0  0
 37  6  1  0  0  0  0
 38 37  1  0  0  0  0
 39 37  1  0  0  0  0
 40 41  1  0  0  0  0
 42 40  1  0  0  0  0
 43 40  1  0  0  0  0
M  END
