1,2,3
 OpenBabel05122313063D

 64 68  0  0  0  0  0  0  0  0999 V2000
    0.8426    1.6167    0.4974 P   0  0  2  0  0  0  0  0  0  0  0  0
    0.8043   -1.5612    0.6836 P   0  0  1  0  0  0  0  0  0  0  0  0
   -2.2766    0.0618    0.9288 P   0  0  1  0  0  0  0  0  0  0  0  0
   -0.0732    2.7677    1.6396 C   0  0  0  0  0  0  0  0  0  0  0  0
   -0.9692    2.0298    2.6464 C   0  0  0  0  0  0  0  0  0  0  0  0
   -2.3119    1.5329    2.0894 C   0  0  0  0  0  0  0  0  0  0  0  0
   -2.3861   -1.3989    2.0960 C   0  0  0  0  0  0  0  0  0  0  0  0
   -1.0922   -1.8567    2.7882 C   0  0  0  0  0  0  0  0  0  0  0  0
   -0.1122   -2.6358    1.9000 C   0  0  0  0  0  0  0  0  0  0  0  0
    1.9540   -0.6273    1.8050 C   0  0  0  0  0  0  0  0  0  0  0  0
    1.9936    0.7790    1.6984 C   0  0  0  0  0  0  0  0  0  0  0  0
    2.8788    1.5171    2.5097 C   0  0  0  0  0  0  0  0  0  0  0  0
    3.7050    0.8634    3.4340 C   0  0  0  0  0  0  0  0  0  0  0  0
    3.6565   -0.5367    3.5513 C   0  0  0  0  0  0  0  0  0  0  0  0
    2.7886   -1.2778    2.7376 C   0  0  0  0  0  0  0  0  0  0  0  0
    1.9977    2.7338   -0.4023 C   0  0  0  0  0  0  0  0  0  0  0  0
    1.7193    4.0966   -0.6254 C   0  0  0  0  0  0  0  0  0  0  0  0
    2.5907    4.8786   -1.4008 C   0  0  0  0  0  0  0  0  0  0  0  0
    3.7448    4.3093   -1.9586 C   0  0  0  0  0  0  0  0  0  0  0  0
    4.0249    2.9493   -1.7431 C   0  0  0  0  0  0  0  0  0  0  0  0
    3.1561    2.1648   -0.9745 C   0  0  0  0  0  0  0  0  0  0  0  0
    1.9117   -2.7693   -0.1594 C   0  0  0  0  0  0  0  0  0  0  0  0
    1.3264   -3.8758   -0.8119 C   0  0  0  0  0  0  0  0  0  0  0  0
    2.1187   -4.7555   -1.5621 C   0  0  0  0  0  0  0  0  0  0  0  0
    3.5000   -4.5335   -1.6856 C   0  0  0  0  0  0  0  0  0  0  0  0
    4.0834   -3.4220   -1.0596 C   0  0  0  0  0  0  0  0  0  0  0  0
    3.2955   -2.5426   -0.3008 C   0  0  0  0  0  0  0  0  0  0  0  0
   -4.0402    0.0964    0.3455 C   0  0  0  0  0  0  0  0  0  0  0  0
   -4.3220    0.0248   -1.0317 C   0  0  0  0  0  0  0  0  0  0  0  0
   -5.6490    0.0448   -1.4892 C   0  0  0  0  0  0  0  0  0  0  0  0
   -6.7097    0.1379   -0.5763 C   0  0  0  0  0  0  0  0  0  0  0  0
   -6.4394    0.2108    0.8002 C   0  0  0  0  0  0  0  0  0  0  0  0
   -5.1142    0.1896    1.2579 C   0  0  0  0  0  0  0  0  0  0  0  0
   -0.6884    3.4341    0.9992 H   0  0  0  0  0  0  0  0  0  0  0  0
    0.6660    3.4052    2.1672 H   0  0  0  0  0  0  0  0  0  0  0  0
   -1.1924    2.7319    3.4778 H   0  0  0  0  0  0  0  0  0  0  0  0
   -0.4023    1.1948    3.1130 H   0  0  0  0  0  0  0  0  0  0  0  0
   -2.7997    2.3448    1.5091 H   0  0  0  0  0  0  0  0  0  0  0  0
   -2.9977    1.2892    2.9278 H   0  0  0  0  0  0  0  0  0  0  0  0
   -2.7965   -2.2254    1.4772 H   0  0  0  0  0  0  0  0  0  0  0  0
   -3.1581   -1.1623    2.8579 H   0  0  0  0  0  0  0  0  0  0  0  0
   -1.3797   -2.5184    3.6330 H   0  0  0  0  0  0  0  0  0  0  0  0
   -0.5703   -0.9944    3.2583 H   0  0  0  0  0  0  0  0  0  0  0  0
   -0.6555   -3.3975    1.3028 H   0  0  0  0  0  0  0  0  0  0  0  0
    0.6308   -3.1805    2.5181 H   0  0  0  0  0  0  0  0  0  0  0  0
    2.9305    2.6124    2.4054 H   0  0  0  0  0  0  0  0  0  0  0  0
    4.3946    1.4466    4.0632 H   0  0  0  0  0  0  0  0  0  0  0  0
    4.3066   -1.0532    4.2739 H   0  0  0  0  0  0  0  0  0  0  0  0
    2.7747   -2.3764    2.8135 H   0  0  0  0  0  0  0  0  0  0  0  0
    0.8143    4.5589   -0.2052 H   0  0  0  0  0  0  0  0  0  0  0  0
    2.3610    5.9415   -1.5715 H   0  0  0  0  0  0  0  0  0  0  0  0
    4.4247    4.9235   -2.5681 H   0  0  0  0  0  0  0  0  0  0  0  0
    4.9231    2.4926   -2.1854 H   0  0  0  0  0  0  0  0  0  0  0  0
    3.3705    1.0954   -0.8252 H   0  0  0  0  0  0  0  0  0  0  0  0
    0.2386   -4.0375   -0.7638 H   0  0  0  0  0  0  0  0  0  0  0  0
    1.6493   -5.6143   -2.0656 H   0  0  0  0  0  0  0  0  0  0  0  0
    4.1192   -5.2212   -2.2812 H   0  0  0  0  0  0  0  0  0  0  0  0
    5.1625   -3.2320   -1.1644 H   0  0  0  0  0  0  0  0  0  0  0  0
    3.7624   -1.6703    0.1805 H   0  0  0  0  0  0  0  0  0  0  0  0
   -3.4863   -0.0459   -1.7431 H   0  0  0  0  0  0  0  0  0  0  0  0
   -5.8512   -0.0119   -2.5696 H   0  0  0  0  0  0  0  0  0  0  0  0
   -7.7500    0.1545   -0.9356 H   0  0  0  0  0  0  0  0  0  0  0  0
   -7.2665    0.2846    1.5231 H   0  0  0  0  0  0  0  0  0  0  0  0
   -4.9251    0.2477    2.3413 H   0  0  0  0  0  0  0  0  0  0  0  0
  1 16  1  6  0  0  0
  1  4  1  0  0  0  0
  1 11  1  0  0  0  0
  2 22  1  6  0  0  0
  2 10  1  0  0  0  0
  2  9  1  0  0  0  0
  3 28  1  6  0  0  0
  3  6  1  0  0  0  0
  3  7  1  0  0  0  0
  4 35  1  0  0  0  0
  4  5  1  0  0  0  0
  5 37  1  0  0  0  0
  5 36  1  0  0  0  0
  6  5  1  0  0  0  0
  6 39  1  0  0  0  0
  7  8  1  0  0  0  0
  7 41  1  0  0  0  0
  8 43  1  0  0  0  0
  8 42  1  0  0  0  0
  9 45  1  0  0  0  0
  9  8  1  0  0  0  0
 10 15  1  0  0  0  0
 11 10  2  0  0  0  0
 11 12  1  0  0  0  0
 12 13  2  0  0  0  0
 13 14  1  0  0  0  0
 13 47  1  0  0  0  0
 14 48  1  0  0  0  0
 15 49  1  0  0  0  0
 15 14  2  0  0  0  0
 17 16  1  0  0  0  0
 17 50  1  0  0  0  0
 18 17  2  0  0  0  0
 19 20  2  0  0  0  0
 19 18  1  0  0  0  0
 20 21  1  0  0  0  0
 21 54  1  0  0  0  0
 21 16  2  0  0  0  0
 23 55  1  0  0  0  0
 23 22  2  0  0  0  0
 24 23  1  0  0  0  0
 25 24  2  0  0  0  0
 25 26  1  0  0  0  0
 26 27  2  0  0  0  0
 27 22  1  0  0  0  0
 27 59  1  0  0  0  0
 28 33  1  0  0  0  0
 29 28  2  0  0  0  0
 30 29  1  0  0  0  0
 30 31  2  0  0  0  0
 31 32  1  0  0  0  0
 32 33  2  0  0  0  0
 32 63  1  0  0  0  0
 33 64  1  0  0  0  0
 34  4  1  0  0  0  0
 38  6  1  0  0  0  0
 40  7  1  0  0  0  0
 44  9  1  0  0  0  0
 46 12  1  0  0  0  0
 51 18  1  0  0  0  0
 52 19  1  0  0  0  0
 53 20  1  0  0  0  0
 56 24  1  0  0  0  0
 57 25  1  0  0  0  0
 58 26  1  0  0  0  0
 60 29  1  0  0  0  0
 61 30  1  0  0  0  0
 62 31  1  0  0  0  0
M  END
