1,2,3
 OpenBabel05122313063D

 72 76  0  0  1  0  0  0  0  0999 V2000
   -1.8179    0.5064    0.4760 P   0  0  2  0  0  0  0  0  0  0  0  0
   -0.6553   -1.8817    0.0280 P   0  0  2  0  0  0  0  0  0  0  0  0
    1.4464   -0.3490    0.7402 P   0  0  2  0  0  0  0  0  0  0  0  0
    0.3836    2.3831    0.5568 P   0  0  1  0  0  0  0  0  0  0  0  0
   -1.1714    1.9308   -0.2651 N   0  0  2  0  0  0  0  0  0  0  0  0
   -1.7511   -0.7709   -0.7289 N   0  0  2  0  0  0  0  0  0  0  0  0
    0.9923   -1.5526   -0.4319 N   0  0  2  0  0  0  0  0  0  0  0  0
    1.5019    1.1810   -0.0617 N   0  0  2  0  0  0  0  0  0  0  0  0
   -3.6010    0.9929    0.5335 C   0  0  0  0  0  0  0  0  0  0  0  0
   -4.1723    0.1143    0.8902 H   0  0  0  0  0  0  0  0  0  0  0  0
   -3.6592    1.7661    1.3329 H   0  0  0  0  0  0  0  0  0  0  0  0
   -4.0741    1.5079   -0.8058 C   0  0  0  0  0  0  0  0  0  0  0  0
   -3.3346    2.4689   -1.4229 C   0  0  0  0  0  0  0  0  0  0  0  0
   -2.0871    2.9909   -0.7314 C   0  0  0  0  0  0  0  0  0  0  0  0
   -1.5381    3.6446   -1.4389 H   0  0  0  0  0  0  0  0  0  0  0  0
   -2.3990    3.6515    0.1193 H   0  0  0  0  0  0  0  0  0  0  0  0
   -5.3135    0.8596   -1.3571 C   0  0  0  0  0  0  0  0  0  0  0  0
   -5.6004    1.2325   -2.3575 H   0  0  0  0  0  0  0  0  0  0  0  0
   -6.1753    1.0168   -0.6728 H   0  0  0  0  0  0  0  0  0  0  0  0
   -5.1767   -0.2420   -1.4273 H   0  0  0  0  0  0  0  0  0  0  0  0
   -3.6354    3.0816   -2.7616 C   0  0  0  0  0  0  0  0  0  0  0  0
   -4.5856    2.7283   -3.2024 H   0  0  0  0  0  0  0  0  0  0  0  0
   -2.8197    2.8597   -3.4858 H   0  0  0  0  0  0  0  0  0  0  0  0
   -3.6916    4.1898   -2.6897 H   0  0  0  0  0  0  0  0  0  0  0  0
   -1.0953   -3.3580   -0.9774 C   0  0  0  0  0  0  0  0  0  0  0  0
   -0.3555   -4.1585   -0.7663 H   0  0  0  0  0  0  0  0  0  0  0  0
   -2.0668   -3.7227   -0.5776 H   0  0  0  0  0  0  0  0  0  0  0  0
   -1.1714   -3.0711   -2.4711 C   0  0  0  0  0  0  0  0  0  0  0  0
   -1.5210   -1.8591   -2.9858 C   0  0  0  0  0  0  0  0  0  0  0  0
   -1.9153   -0.6459   -2.1655 C   0  0  0  0  0  0  0  0  0  0  0  0
   -1.3420    0.2405   -2.5374 H   0  0  0  0  0  0  0  0  0  0  0  0
   -2.9795   -0.4160   -2.4038 H   0  0  0  0  0  0  0  0  0  0  0  0
   -0.8140   -4.2755   -3.3063 C   0  0  0  0  0  0  0  0  0  0  0  0
   -1.4389   -5.1469   -3.0139 H   0  0  0  0  0  0  0  0  0  0  0  0
    0.2405   -4.5818   -3.1236 H   0  0  0  0  0  0  0  0  0  0  0  0
   -0.9339   -4.1229   -4.3935 H   0  0  0  0  0  0  0  0  0  0  0  0
   -1.5752   -1.5491   -4.4612 C   0  0  0  0  0  0  0  0  0  0  0  0
   -0.7830   -0.8178   -4.7347 H   0  0  0  0  0  0  0  0  0  0  0  0
   -2.5420   -1.0690   -4.7258 H   0  0  0  0  0  0  0  0  0  0  0  0
   -1.4525   -2.4338   -5.1098 H   0  0  0  0  0  0  0  0  0  0  0  0
    3.2152   -0.8471    0.9154 C   0  0  0  0  0  0  0  0  0  0  0  0
    3.7777    0.0441    1.2697 H   0  0  0  0  0  0  0  0  0  0  0  0
    3.2313   -1.5645    1.7666 H   0  0  0  0  0  0  0  0  0  0  0  0
    3.9086   -1.4617   -0.2908 C   0  0  0  0  0  0  0  0  0  0  0  0
    3.2699   -1.9197   -1.4032 C   0  0  0  0  0  0  0  0  0  0  0  0
    1.7654   -1.8905   -1.6078 C   0  0  0  0  0  0  0  0  0  0  0  0
    1.5370   -1.2119   -2.4701 H   0  0  0  0  0  0  0  0  0  0  0  0
    1.4573   -2.9003   -1.9601 H   0  0  0  0  0  0  0  0  0  0  0  0
    5.4039   -1.5226   -0.0967 C   0  0  0  0  0  0  0  0  0  0  0  0
    5.9418   -2.0630   -0.8958 H   0  0  0  0  0  0  0  0  0  0  0  0
    5.6436   -2.0203    0.8675 H   0  0  0  0  0  0  0  0  0  0  0  0
    5.8309   -0.4976   -0.0267 H   0  0  0  0  0  0  0  0  0  0  0  0
    3.9700   -2.5096   -2.6023 C   0  0  0  0  0  0  0  0  0  0  0  0
    5.0645   -2.3654   -2.5962 H   0  0  0  0  0  0  0  0  0  0  0  0
    3.5794   -2.0567   -3.5393 H   0  0  0  0  0  0  0  0  0  0  0  0
    3.7717   -3.6015   -2.6810 H   0  0  0  0  0  0  0  0  0  0  0  0
    0.9324    3.7287   -0.6606 C   0  0  0  0  0  0  0  0  0  0  0  0
    0.5497    3.4370   -1.6646 H   0  0  0  0  0  0  0  0  0  0  0  0
    0.4361    4.6745   -0.3684 H   0  0  0  0  0  0  0  0  0  0  0  0
    2.4358    3.8713   -0.6885 C   0  0  0  0  0  0  0  0  0  0  0  0
    3.1562    2.7627   -1.0083 C   0  0  0  0  0  0  0  0  0  0  0  0
    2.3708    1.4823   -1.2173 C   0  0  0  0  0  0  0  0  0  0  0  0
    1.7470    1.5529   -2.1417 H   0  0  0  0  0  0  0  0  0  0  0  0
    3.0599    0.6305   -1.3720 H   0  0  0  0  0  0  0  0  0  0  0  0
    2.9976    5.2184   -0.3322 C   0  0  0  0  0  0  0  0  0  0  0  0
    2.6905    5.5059    0.6970 H   0  0  0  0  0  0  0  0  0  0  0  0
    2.6010    6.0076   -1.0074 H   0  0  0  0  0  0  0  0  0  0  0  0
    4.1017    5.2554   -0.3762 H   0  0  0  0  0  0  0  0  0  0  0  0
    4.6497    2.6679   -1.1267 C   0  0  0  0  0  0  0  0  0  0  0  0
    5.1620    3.6392   -0.9970 H   0  0  0  0  0  0  0  0  0  0  0  0
    4.9455    2.2599   -2.1178 H   0  0  0  0  0  0  0  0  0  0  0  0
    5.0610    1.9634   -0.3695 H   0  0  0  0  0  0  0  0  0  0  0  0
  1  9  1  6  0  0  0
  2 25  1  6  0  0  0
  3 41  1  6  0  0  0
  4 57  1  6  0  0  0
  5 14  1  1  0  0  0
  5  1  1  0  0  0  0
  5  4  1  0  0  0  0
  6 30  1  6  0  0  0
  6  2  1  0  0  0  0
  6  1  1  0  0  0  0
  7 46  1  6  0  0  0
  7  2  1  0  0  0  0
  7  3  1  0  0  0  0
  8 62  1  6  0  0  0
  8  4  1  0  0  0  0
  8  3  1  0  0  0  0
  9 10  1  0  0  0  0
  9 11  1  0  0  0  0
 12  9  1  0  0  0  0
 13 12  2  0  0  0  0
 13 14  1  0  0  0  0
 14 16  1  0  0  0  0
 15 14  1  0  0  0  0
 17 12  1  0  0  0  0
 17 19  1  0  0  0  0
 18 17  1  0  0  0  0
 20 17  1  0  0  0  0
 21 24  1  0  0  0  0
 21 13  1  0  0  0  0
 22 21  1  0  0  0  0
 23 21  1  0  0  0  0
 25 26  1  0  0  0  0
 25 27  1  0  0  0  0
 28 25  1  0  0  0  0
 29 28  2  0  0  0  0
 29 30  1  0  0  0  0
 31 30  1  0  0  0  0
 32 30  1  0  0  0  0
 33 35  1  0  0  0  0
 33 34  1  0  0  0  0
 33 28  1  0  0  0  0
 36 33  1  0  0  0  0
 37 29  1  0  0  0  0
 38 37  1  0  0  0  0
 39 37  1  0  0  0  0
 40 37  1  0  0  0  0
 41 42  1  0  0  0  0
 41 43  1  0  0  0  0
 44 49  1  0  0  0  0
 44 41  1  0  0  0  0
 45 44  2  0  0  0  0
 46 45  1  0  0  0  0
 47 46  1  0  0  0  0
 48 46  1  0  0  0  0
 49 52  1  0  0  0  0
 49 51  1  0  0  0  0
 50 49  1  0  0  0  0
 53 54  1  0  0  0  0
 53 45  1  0  0  0  0
 55 53  1  0  0  0  0
 56 53  1  0  0  0  0
 57 59  1  0  0  0  0
 58 57  1  0  0  0  0
 60 57  1  0  0  0  0
 60 65  1  0  0  0  0
 61 60  2  0  0  0  0
 62 61  1  0  0  0  0
 63 62  1  0  0  0  0
 64 62  1  0  0  0  0
 65 66  1  0  0  0  0
 67 65  1  0  0  0  0
 68 65  1  0  0  0  0
 69 61  1  0  0  0  0
 69 70  1  0  0  0  0
 69 72  1  0  0  0  0
 71 69  1  0  0  0  0
M  END
