2,3,4
 OpenBabel05122313063D

 41 40  0  0  0  0  0  0  0  0999 V2000
   -3.2011   -0.1929    0.2024 Si  0  0  0  0  0  0  0  0  0  0  0  0
   -0.5341   -0.1632    1.8482 P   0  0  0  0  0  0  0  0  0  0  0  0
   -0.8914    1.6822   -0.6702 P   0  0  0  0  0  0  0  0  0  0  0  0
   -0.7321   -1.3349   -1.3152 P   0  0  0  0  0  0  0  0  0  0  0  0
   -2.3232   -0.7724    1.7823 C   0  0  0  0  0  0  0  0  0  0  0  0
   -2.8982   -0.4871    2.6925 H   0  0  0  0  0  0  0  0  0  0  0  0
   -2.2830   -1.8837    1.7662 H   0  0  0  0  0  0  0  0  0  0  0  0
   -2.7028    1.5964   -0.1456 C   0  0  0  0  0  0  0  0  0  0  0  0
   -2.8262    2.2084    0.7720 H   0  0  0  0  0  0  0  0  0  0  0  0
   -3.3458    2.0526   -0.9284 H   0  0  0  0  0  0  0  0  0  0  0  0
   -2.6082   -1.1266   -1.3362 C   0  0  0  0  0  0  0  0  0  0  0  0
   -3.0971   -2.1147   -1.4668 H   0  0  0  0  0  0  0  0  0  0  0  0
   -2.9018   -0.5111   -2.2140 H   0  0  0  0  0  0  0  0  0  0  0  0
   -0.7661   -3.1640   -0.8975 C   0  0  0  0  0  0  0  0  0  0  0  0
   -1.4691   -3.7055   -1.5628 H   0  0  0  0  0  0  0  0  0  0  0  0
   -1.0945   -3.2879    0.1529 H   0  0  0  0  0  0  0  0  0  0  0  0
    0.2350   -3.6209   -1.0037 H   0  0  0  0  0  0  0  0  0  0  0  0
   -0.4349   -1.5354   -3.1606 C   0  0  0  0  0  0  0  0  0  0  0  0
   -1.1503   -2.2436   -3.6310 H   0  0  0  0  0  0  0  0  0  0  0  0
    0.5987   -1.8964   -3.3230 H   0  0  0  0  0  0  0  0  0  0  0  0
   -0.5201   -0.5472   -3.6504 H   0  0  0  0  0  0  0  0  0  0  0  0
   -1.1143    2.0282   -2.4968 C   0  0  0  0  0  0  0  0  0  0  0  0
   -1.7087    2.9480   -2.6780 H   0  0  0  0  0  0  0  0  0  0  0  0
   -1.6251    1.1720   -2.9756 H   0  0  0  0  0  0  0  0  0  0  0  0
   -0.1150    2.1296   -2.9617 H   0  0  0  0  0  0  0  0  0  0  0  0
   -0.6253    3.4630   -0.1462 C   0  0  0  0  0  0  0  0  0  0  0  0
   -1.4701    4.0757   -0.5188 H   0  0  0  0  0  0  0  0  0  0  0  0
    0.3170    3.8797   -0.5463 H   0  0  0  0  0  0  0  0  0  0  0  0
   -0.5978    3.5294    0.9573 H   0  0  0  0  0  0  0  0  0  0  0  0
   -0.7923    1.3424    2.9395 C   0  0  0  0  0  0  0  0  0  0  0  0
   -1.3331    1.0947    3.8777 H   0  0  0  0  0  0  0  0  0  0  0  0
   -1.3632    2.1204    2.3989 H   0  0  0  0  0  0  0  0  0  0  0  0
    0.2002    1.7646    3.1923 H   0  0  0  0  0  0  0  0  0  0  0  0
    0.0505   -1.2788    3.2327 C   0  0  0  0  0  0  0  0  0  0  0  0
   -0.6086   -1.1922    4.1216 H   0  0  0  0  0  0  0  0  0  0  0  0
    1.0843   -0.9998    3.5211 H   0  0  0  0  0  0  0  0  0  0  0  0
    0.0512   -2.3301    2.8912 H   0  0  0  0  0  0  0  0  0  0  0  0
   -5.0777   -0.3524    0.3975 C   0  0  0  0  0  0  0  0  0  0  0  0
   -5.4452    0.2696    1.2398 H   0  0  0  0  0  0  0  0  0  0  0  0
   -5.3664   -1.4041    0.6032 H   0  0  0  0  0  0  0  0  0  0  0  0
   -5.6056   -0.0284   -0.5231 H   0  0  0  0  0  0  0  0  0  0  0  0
  1 38  1  0  0  0  0
  1  5  1  0  0  0  0
  2 30  1  0  0  0  0
  2 34  1  0  0  0  0
  3 26  1  0  0  0  0
  3  8  1  0  0  0  0
  4 14  1  0  0  0  0
  5  2  1  0  0  0  0
  5  6  1  0  0  0  0
  7  5  1  0  0  0  0
  8  1  1  0  0  0  0
  8  9  1  0  0  0  0
 10  8  1  0  0  0  0
 11  4  1  0  0  0  0
 11  1  1  0  0  0  0
 12 11  1  0  0  0  0
 13 11  1  0  0  0  0
 14 16  1  0  0  0  0
 15 14  1  0  0  0  0
 17 14  1  0  0  0  0
 18  4  1  0  0  0  0
 19 18  1  0  0  0  0
 20 18  1  0  0  0  0
 21 18  1  0  0  0  0
 22  3  1  0  0  0  0
 23 22  1  0  0  0  0
 24 22  1  0  0  0  0
 25 22  1  0  0  0  0
 26 29  1  0  0  0  0
 27 26  1  0  0  0  0
 28 26  1  0  0  0  0
 30 33  1  0  0  0  0
 30 31  1  0  0  0  0
 32 30  1  0  0  0  0
 34 36  1  0  0  0  0
 34 35  1  0  0  0  0
 37 34  1  0  0  0  0
 38 40  1  0  0  0  0
 38 39  1  0  0  0  0
 41 38  1  0  0  0  0
M  END
