1,2,3
 OpenBabel05122313063D

 68 69  0  0  0  0  0  0  0  0999 V2000
   -0.0829    1.1869   -0.9138 P   0  0  0  0  0  0  0  0  0  0  0  0
   -1.7235   -0.9762    0.4215 P   0  0  0  0  0  0  0  0  0  0  0  0
    2.0829   -0.6760    0.0708 P   0  0  0  0  0  0  0  0  0  0  0  0
    0.1884    2.3313   -2.1459 O   0  0  0  0  0  0  0  0  0  0  0  0
   -0.3906    2.0120   -3.4054 C   0  0  0  0  0  0  0  0  0  0  0  0
    0.1227    2.6209   -4.1760 H   0  0  0  0  0  0  0  0  0  0  0  0
   -1.4795    2.2477   -3.4297 H   0  0  0  0  0  0  0  0  0  0  0  0
   -0.2663    0.9319   -3.6498 H   0  0  0  0  0  0  0  0  0  0  0  0
   -1.6610   -1.0924    2.3155 C   0  0  0  0  0  0  0  0  0  0  0  0
   -1.0151   -1.9838    2.4747 H   0  0  0  0  0  0  0  0  0  0  0  0
   -2.5734    0.6688    0.1972 C   0  0  0  0  0  0  0  0  0  0  0  0
    1.1082    1.9233    0.3013 C   0  0  0  0  0  0  0  0  0  0  0  0
    2.1211    1.0483    0.7717 C   0  0  0  0  0  0  0  0  0  0  0  0
   -1.7694    1.6978   -0.3484 C   0  0  0  0  0  0  0  0  0  0  0  0
    2.8795   -1.7519    1.3947 C   0  0  0  0  0  0  0  0  0  0  0  0
    3.8849   -1.3348    1.6206 H   0  0  0  0  0  0  0  0  0  0  0  0
   -3.9156    0.9463    0.5195 C   0  0  0  0  0  0  0  0  0  0  0  0
   -4.5662    0.1535    0.9186 H   0  0  0  0  0  0  0  0  0  0  0  0
    3.4517   -0.5936   -1.2435 C   0  0  0  0  0  0  0  0  0  0  0  0
    3.5018   -1.6485   -1.5941 H   0  0  0  0  0  0  0  0  0  0  0  0
   -2.9895   -1.3167    3.0403 C   0  0  0  0  0  0  0  0  0  0  0  0
   -2.8090   -1.4149    4.1320 H   0  0  0  0  0  0  0  0  0  0  0  0
   -3.5129   -2.2358    2.7113 H   0  0  0  0  0  0  0  0  0  0  0  0
   -3.6756   -0.4565    2.9035 H   0  0  0  0  0  0  0  0  0  0  0  0
   -4.4470    2.2303    0.3093 C   0  0  0  0  0  0  0  0  0  0  0  0
   -5.5005    2.4330    0.5560 H   0  0  0  0  0  0  0  0  0  0  0  0
   -3.6430    3.2475   -0.2310 C   0  0  0  0  0  0  0  0  0  0  0  0
   -4.0658    4.2486   -0.4077 H   0  0  0  0  0  0  0  0  0  0  0  0
   -2.3069    2.9805   -0.5668 C   0  0  0  0  0  0  0  0  0  0  0  0
   -1.6786    3.7558   -1.0331 H   0  0  0  0  0  0  0  0  0  0  0  0
    1.0523    3.2503    0.7598 C   0  0  0  0  0  0  0  0  0  0  0  0
    0.2660    3.9252    0.3906 H   0  0  0  0  0  0  0  0  0  0  0  0
    3.0377   -3.1701    0.8317 C   0  0  0  0  0  0  0  0  0  0  0  0
    3.4218   -3.8570    1.6142 H   0  0  0  0  0  0  0  0  0  0  0  0
    3.7402   -3.2124   -0.0240 H   0  0  0  0  0  0  0  0  0  0  0  0
    2.0569   -3.5572    0.4828 H   0  0  0  0  0  0  0  0  0  0  0  0
    3.0567    1.5239    1.7097 C   0  0  0  0  0  0  0  0  0  0  0  0
    3.8479    0.8589    2.0877 H   0  0  0  0  0  0  0  0  0  0  0  0
    1.9848    3.7096    1.7037 C   0  0  0  0  0  0  0  0  0  0  0  0
    1.9283    4.7449    2.0732 H   0  0  0  0  0  0  0  0  0  0  0  0
    2.9961    0.2715   -2.4223 C   0  0  0  0  0  0  0  0  0  0  0  0
    3.7632    0.2576   -3.2247 H   0  0  0  0  0  0  0  0  0  0  0  0
    2.8395    1.3278   -2.1206 H   0  0  0  0  0  0  0  0  0  0  0  0
    2.0400   -0.0983   -2.8381 H   0  0  0  0  0  0  0  0  0  0  0  0
    2.9822    2.8453    2.1817 C   0  0  0  0  0  0  0  0  0  0  0  0
    3.7088    3.2012    2.9282 H   0  0  0  0  0  0  0  0  0  0  0  0
    2.0421   -1.7558    2.6741 C   0  0  0  0  0  0  0  0  0  0  0  0
    2.5082   -2.4125    3.4380 H   0  0  0  0  0  0  0  0  0  0  0  0
    1.0248   -2.1444    2.4669 H   0  0  0  0  0  0  0  0  0  0  0  0
    1.9360   -0.7442    3.1111 H   0  0  0  0  0  0  0  0  0  0  0  0
    4.8270   -0.1666   -0.7271 C   0  0  0  0  0  0  0  0  0  0  0  0
    5.5704   -0.2037   -1.5511 H   0  0  0  0  0  0  0  0  0  0  0  0
    5.2071   -0.8191    0.0841 H   0  0  0  0  0  0  0  0  0  0  0  0
    4.8070    0.8765   -0.3499 H   0  0  0  0  0  0  0  0  0  0  0  0
   -0.9307    0.1414    2.8547 C   0  0  0  0  0  0  0  0  0  0  0  0
   -0.6558    0.0001    3.9205 H   0  0  0  0  0  0  0  0  0  0  0  0
   -1.5743    1.0420    2.7849 H   0  0  0  0  0  0  0  0  0  0  0  0
   -0.0057    0.3499    2.2845 H   0  0  0  0  0  0  0  0  0  0  0  0
   -3.0554   -2.2103   -0.0627 C   0  0  0  0  0  0  0  0  0  0  0  0
   -3.9403   -2.0117    0.5801 H   0  0  0  0  0  0  0  0  0  0  0  0
   -3.4535   -2.0143   -1.5287 C   0  0  0  0  0  0  0  0  0  0  0  0
   -4.2543   -2.7314   -1.8064 H   0  0  0  0  0  0  0  0  0  0  0  0
   -2.5908   -2.1888   -2.2012 H   0  0  0  0  0  0  0  0  0  0  0  0
   -3.8304   -0.9899   -1.7204 H   0  0  0  0  0  0  0  0  0  0  0  0
   -2.5438   -3.6298    0.2077 C   0  0  0  0  0  0  0  0  0  0  0  0
   -3.2992   -4.3814   -0.1031 H   0  0  0  0  0  0  0  0  0  0  0  0
   -2.3206   -3.8018    1.2804 H   0  0  0  0  0  0  0  0  0  0  0  0
   -1.6138   -3.8220   -0.3659 H   0  0  0  0  0  0  0  0  0  0  0  0
  1 14  1  0  0  0  0
  1 12  1  0  0  0  0
  2  9  1  0  0  0  0
  3 13  1  0  0  0  0
  3 15  1  0  0  0  0
  4  1  1  0  0  0  0
  5  4  1  0  0  0  0
  6  5  1  0  0  0  0
  7  5  1  0  0  0  0
  8  5  1  0  0  0  0
  9 10  1  0  0  0  0
  9 55  1  0  0  0  0
  9 21  1  0  0  0  0
 11  2  1  0  0  0  0
 11 17  1  0  0  0  0
 12 31  2  0  0  0  0
 12 13  1  0  0  0  0
 13 37  2  0  0  0  0
 14 11  2  0  0  0  0
 15 16  1  0  0  0  0
 15 47  1  0  0  0  0
 17 18  1  0  0  0  0
 19 51  1  0  0  0  0
 19  3  1  0  0  0  0
 20 19  1  0  0  0  0
 21 22  1  0  0  0  0
 23 21  1  0  0  0  0
 24 21  1  0  0  0  0
 25 17  2  0  0  0  0
 25 26  1  0  0  0  0
 27 25  1  0  0  0  0
 28 27  1  0  0  0  0
 29 14  1  0  0  0  0
 29 27  2  0  0  0  0
 30 29  1  0  0  0  0
 31 39  1  0  0  0  0
 32 31  1  0  0  0  0
 33 15  1  0  0  0  0
 33 34  1  0  0  0  0
 35 33  1  0  0  0  0
 36 33  1  0  0  0  0
 37 38  1  0  0  0  0
 37 45  1  0  0  0  0
 39 40  1  0  0  0  0
 39 45  2  0  0  0  0
 41 43  1  0  0  0  0
 41 19  1  0  0  0  0
 42 41  1  0  0  0  0
 44 41  1  0  0  0  0
 45 46  1  0  0  0  0
 47 50  1  0  0  0  0
 47 48  1  0  0  0  0
 49 47  1  0  0  0  0
 51 54  1  0  0  0  0
 51 53  1  0  0  0  0
 52 51  1  0  0  0  0
 55 56  1  0  0  0  0
 57 55  1  0  0  0  0
 58 55  1  0  0  0  0
 59 65  1  0  0  0  0
 59  2  1  0  0  0  0
 59 60  1  0  0  0  0
 61 59  1  0  0  0  0
 62 61  1  0  0  0  0
 63 61  1  0  0  0  0
 64 61  1  0  0  0  0
 65 67  1  0  0  0  0
 66 65  1  0  0  0  0
 68 65  1  0  0  0  0
M  END
