1,2,3
 OpenBabel05122313063D

 75 77  0  0  0  0  0  0  0  0999 V2000
    0.0882    2.2180   -0.3801 P   0  0  0  0  0  0  0  0  0  0  0  0
    0.5991   -0.5763    0.6213 P   0  0  0  0  0  0  0  0  0  0  0  0
   -2.1552   -0.9072   -0.5607 P   0  0  0  0  0  0  0  0  0  0  0  0
    1.6346   -1.9240    0.9556 O   0  0  0  0  0  0  0  0  0  0  0  0
    4.2655   -3.9379   -0.5896 C   0  0  0  0  0  0  0  0  0  0  0  0
    4.6754   -4.9547   -0.4893 H   0  0  0  0  0  0  0  0  0  0  0  0
    2.6664   -2.2435    0.1102 C   0  0  0  0  0  0  0  0  0  0  0  0
    4.8059   -3.0499   -1.5362 C   0  0  0  0  0  0  0  0  0  0  0  0
    5.6408   -3.3643   -2.1798 H   0  0  0  0  0  0  0  0  0  0  0  0
    3.1984   -3.5435    0.2270 C   0  0  0  0  0  0  0  0  0  0  0  0
    2.7547   -4.2256    0.9669 H   0  0  0  0  0  0  0  0  0  0  0  0
    4.2687   -1.7591   -1.6522 C   0  0  0  0  0  0  0  0  0  0  0  0
    4.6796   -1.0537   -2.3908 H   0  0  0  0  0  0  0  0  0  0  0  0
    3.2064   -1.3451   -0.8334 C   0  0  0  0  0  0  0  0  0  0  0  0
    2.7845   -0.3352   -0.9362 H   0  0  0  0  0  0  0  0  0  0  0  0
    1.3840    2.0551    0.9504 C   0  0  0  0  0  0  0  0  0  0  0  0
    2.1780    3.1062    1.4479 C   0  0  0  0  0  0  0  0  0  0  0  0
    2.0738    4.1223    1.0388 H   0  0  0  0  0  0  0  0  0  0  0  0
   -0.4974   -1.3405    3.1835 C   0  0  0  0  0  0  0  0  0  0  0  0
    0.5121   -1.2274    3.6058 H   0  0  0  0  0  0  0  0  0  0  0  0
   -0.7167   -1.0990    1.8169 C   0  0  0  0  0  0  0  0  0  0  0  0
    3.1317    2.8634    2.4508 C   0  0  0  0  0  0  0  0  0  0  0  0
    3.7536    3.6908    2.8254 H   0  0  0  0  0  0  0  0  0  0  0  0
    1.5659    0.7510    1.4690 C   0  0  0  0  0  0  0  0  0  0  0  0
   -2.0150   -1.2463    1.2641 C   0  0  0  0  0  0  0  0  0  0  0  0
    3.3070    1.5660    2.9594 C   0  0  0  0  0  0  0  0  0  0  0  0
    4.0679    1.3749    3.7315 H   0  0  0  0  0  0  0  0  0  0  0  0
   -3.0780   -1.6249    2.1052 C   0  0  0  0  0  0  0  0  0  0  0  0
   -4.0928   -1.7419    1.6956 H   0  0  0  0  0  0  0  0  0  0  0  0
    2.5307    0.5075    2.4644 C   0  0  0  0  0  0  0  0  0  0  0  0
    2.6956   -0.5211    2.8200 H   0  0  0  0  0  0  0  0  0  0  0  0
   -1.5685   -1.7075    4.0137 C   0  0  0  0  0  0  0  0  0  0  0  0
   -1.3971   -1.8809    5.0871 H   0  0  0  0  0  0  0  0  0  0  0  0
   -2.8577   -1.8441    3.4757 C   0  0  0  0  0  0  0  0  0  0  0  0
   -3.7001   -2.1234    4.1270 H   0  0  0  0  0  0  0  0  0  0  0  0
   -3.9369   -0.3583   -0.8114 C   0  0  0  0  0  0  0  0  0  0  0  0
   -4.6016   -1.1395   -0.3830 H   0  0  0  0  0  0  0  0  0  0  0  0
   -2.1640   -2.6608   -1.2874 C   0  0  0  0  0  0  0  0  0  0  0  0
   -2.3096   -2.4618   -2.3727 H   0  0  0  0  0  0  0  0  0  0  0  0
   -0.7891   -3.3133   -1.1098 C   0  0  0  0  0  0  0  0  0  0  0  0
   -0.7692   -4.3025   -1.6128 H   0  0  0  0  0  0  0  0  0  0  0  0
   -0.5494   -3.4762   -0.0386 H   0  0  0  0  0  0  0  0  0  0  0  0
    0.0149   -2.6859   -1.5389 H   0  0  0  0  0  0  0  0  0  0  0  0
   -4.2017    0.9685   -0.0983 C   0  0  0  0  0  0  0  0  0  0  0  0
   -5.2487    1.2954   -0.2682 H   0  0  0  0  0  0  0  0  0  0  0  0
   -3.5304    1.7583   -0.4918 H   0  0  0  0  0  0  0  0  0  0  0  0
   -4.0383    0.8980    0.9945 H   0  0  0  0  0  0  0  0  0  0  0  0
   -3.2887   -3.5665   -0.7819 C   0  0  0  0  0  0  0  0  0  0  0  0
   -3.2407   -4.5515   -1.2923 H   0  0  0  0  0  0  0  0  0  0  0  0
   -4.2985   -3.1506   -0.9703 H   0  0  0  0  0  0  0  0  0  0  0  0
   -3.1909   -3.7567    0.3067 H   0  0  0  0  0  0  0  0  0  0  0  0
   -4.2027   -0.2444   -2.3178 C   0  0  0  0  0  0  0  0  0  0  0  0
   -5.2188    0.1623   -2.5014 H   0  0  0  0  0  0  0  0  0  0  0  0
   -4.1350   -1.2212   -2.8359 H   0  0  0  0  0  0  0  0  0  0  0  0
   -3.4671    0.4404   -2.7905 H   0  0  0  0  0  0  0  0  0  0  0  0
   -1.6351    2.5342    1.7909 C   0  0  0  0  0  0  0  0  0  0  0  0
   -2.5633    2.9740    2.2108 H   0  0  0  0  0  0  0  0  0  0  0  0
   -0.8409    2.6144    2.5609 H   0  0  0  0  0  0  0  0  0  0  0  0
   -1.8146    1.4572    1.6104 H   0  0  0  0  0  0  0  0  0  0  0  0
    0.8890    3.4100   -1.5920 C   0  0  0  0  0  0  0  0  0  0  0  0
    1.1503    4.3293   -1.0240 H   0  0  0  0  0  0  0  0  0  0  0  0
   -1.2238    3.2620    0.5070 C   0  0  0  0  0  0  0  0  0  0  0  0
   -2.0750    3.2264   -0.2081 H   0  0  0  0  0  0  0  0  0  0  0  0
    2.1726    2.7990   -2.1636 C   0  0  0  0  0  0  0  0  0  0  0  0
    2.6653    3.5179   -2.8510 H   0  0  0  0  0  0  0  0  0  0  0  0
    1.9526    1.8771   -2.7372 H   0  0  0  0  0  0  0  0  0  0  0  0
    2.8974    2.5392   -1.3660 H   0  0  0  0  0  0  0  0  0  0  0  0
   -0.8745    4.7263    0.7806 C   0  0  0  0  0  0  0  0  0  0  0  0
   -1.7408    5.2363    1.2530 H   0  0  0  0  0  0  0  0  0  0  0  0
   -0.6238    5.2908   -0.1389 H   0  0  0  0  0  0  0  0  0  0  0  0
   -0.0245    4.8147    1.4870 H   0  0  0  0  0  0  0  0  0  0  0  0
   -0.1164    3.7656   -2.6927 C   0  0  0  0  0  0  0  0  0  0  0  0
    0.3454    4.4505   -3.4341 H   0  0  0  0  0  0  0  0  0  0  0  0
   -1.0223    4.2650   -2.2930 H   0  0  0  0  0  0  0  0  0  0  0  0
   -0.4434    2.8518   -3.2301 H   0  0  0  0  0  0  0  0  0  0  0  0
  1 62  1  0  0  0  0
  1 16  1  0  0  0  0
  2  4  1  0  0  0  0
  2 24  1  0  0  0  0
  2 21  1  0  0  0  0
  3 25  1  0  0  0  0
  5  6  1  0  0  0  0
  5 10  1  0  0  0  0
  7 10  2  0  0  0  0
  7  4  1  0  0  0  0
  8  5  2  0  0  0  0
  9  8  1  0  0  0  0
 10 11  1  0  0  0  0
 12  8  1  0  0  0  0
 12 14  2  0  0  0  0
 13 12  1  0  0  0  0
 14  7  1  0  0  0  0
 15 14  1  0  0  0  0
 16 17  2  0  0  0  0
 16 24  1  0  0  0  0
 17 22  1  0  0  0  0
 18 17  1  0  0  0  0
 19 20  1  0  0  0  0
 19 32  1  0  0  0  0
 21 19  2  0  0  0  0
 22 23  1  0  0  0  0
 22 26  2  0  0  0  0
 24 30  2  0  0  0  0
 25 21  1  0  0  0  0
 25 28  2  0  0  0  0
 26 27  1  0  0  0  0
 28 34  1  0  0  0  0
 29 28  1  0  0  0  0
 30 31  1  0  0  0  0
 30 26  1  0  0  0  0
 32 33  1  0  0  0  0
 34 32  2  0  0  0  0
 34 35  1  0  0  0  0
 36  3  1  0  0  0  0
 36 37  1  0  0  0  0
 36 44  1  0  0  0  0
 38 40  1  0  0  0  0
 38 48  1  0  0  0  0
 38  3  1  0  0  0  0
 39 38  1  0  0  0  0
 40 42  1  0  0  0  0
 41 40  1  0  0  0  0
 43 40  1  0  0  0  0
 44 47  1  0  0  0  0
 45 44  1  0  0  0  0
 46 44  1  0  0  0  0
 48 51  1  0  0  0  0
 49 48  1  0  0  0  0
 50 48  1  0  0  0  0
 52 36  1  0  0  0  0
 53 52  1  0  0  0  0
 54 52  1  0  0  0  0
 55 52  1  0  0  0  0
 56 57  1  0  0  0  0
 56 58  1  0  0  0  0
 59 56  1  0  0  0  0
 60 61  1  0  0  0  0
 60  1  1  0  0  0  0
 62 68  1  0  0  0  0
 62 56  1  0  0  0  0
 63 62  1  0  0  0  0
 64 60  1  0  0  0  0
 64 67  1  0  0  0  0
 65 64  1  0  0  0  0
 66 64  1  0  0  0  0
 68 69  1  0  0  0  0
 68 71  1  0  0  0  0
 70 68  1  0  0  0  0
 72 74  1  0  0  0  0
 72 60  1  0  0  0  0
 73 72  1  0  0  0  0
 75 72  1  0  0  0  0
M  END
