1,2,3
q = 0.0, confidence = 0.996

 54 57  0  0  0  0  0  0  0  0999 V2000
   -1.5942    0.8793   -0.7761 P   0  0  2  0  0  0  0  0  0  0  0  0
    1.5581    0.9411   -0.7768 P   0  0  1  0  0  0  0  0  0  0  0  0
    0.0358   -1.8193   -0.7783 P   0  0  1  0  0  0  0  0  0  0  0  0
   -0.7218    1.8544   -2.1492 C   0  0  0  0  0  0  0  0  0  0  0  0
   -0.6641    1.1910   -3.0379 H   0  0  0  0  0  0  0  0  0  0  0  0
   -1.3499    2.7210   -2.4371 H   0  0  0  0  0  0  0  0  0  0  0  0
    0.6768    2.3046   -1.7199 C   0  0  0  0  0  0  0  0  0  0  0  0
    0.6177    3.1484   -1.0012 H   0  0  0  0  0  0  0  0  0  0  0  0
    1.2816    2.6444   -2.5875 H   0  0  0  0  0  0  0  0  0  0  0  0
    1.9659   -0.3005   -2.1514 C   0  0  0  0  0  0  0  0  0  0  0  0
    1.3627   -0.0177   -3.0399 H   0  0  0  0  0  0  0  0  0  0  0  0
    3.0305   -0.1898   -2.4391 H   0  0  0  0  0  0  0  0  0  0  0  0
    1.6561   -1.7372   -1.7235 C   0  0  0  0  0  0  0  0  0  0  0  0
    2.4172   -2.1095   -1.0065 H   0  0  0  0  0  0  0  0  0  0  0  0
    1.6462   -2.4297   -2.5919 H   0  0  0  0  0  0  0  0  0  0  0  0
   -1.2450   -1.5513   -2.1508 C   0  0  0  0  0  0  0  0  0  0  0  0
   -0.6998   -1.1706   -3.0403 H   0  0  0  0  0  0  0  0  0  0  0  0
   -1.6821   -2.5287   -2.4377 H   0  0  0  0  0  0  0  0  0  0  0  0
   -2.3338   -0.5647   -1.7213 C   0  0  0  0  0  0  0  0  0  0  0  0
   -3.0356   -1.0380   -1.0034 H   0  0  0  0  0  0  0  0  0  0  0  0
   -2.9298   -0.2098   -2.5888 H   0  0  0  0  0  0  0  0  0  0  0  0
   -3.0799    1.8922   -0.3778 C   0  0  0  0  0  0  0  0  0  0  0  0
   -3.3699    2.1611    0.9739 C   0  0  0  0  0  0  0  0  0  0  0  0
   -2.6952    1.7730    1.7518 H   0  0  0  0  0  0  0  0  0  0  0  0
   -4.5031    2.9156    1.3163 C   0  0  0  0  0  0  0  0  0  0  0  0
   -4.7198    3.1217    2.3754 H   0  0  0  0  0  0  0  0  0  0  0  0
   -5.3531    3.4062    0.3135 C   0  0  0  0  0  0  0  0  0  0  0  0
   -6.2405    3.9990    0.5832 H   0  0  0  0  0  0  0  0  0  0  0  0
   -5.0704    3.1407   -1.0372 C   0  0  0  0  0  0  0  0  0  0  0  0
   -5.7361    3.5227   -1.8264 H   0  0  0  0  0  0  0  0  0  0  0  0
   -3.9395    2.3868   -1.3820 C   0  0  0  0  0  0  0  0  0  0  0  0
   -3.7303    2.1826   -2.4446 H   0  0  0  0  0  0  0  0  0  0  0  0
    3.1784    1.7208   -0.3784 C   0  0  0  0  0  0  0  0  0  0  0  0
    3.5563    1.8371    0.9732 C   0  0  0  0  0  0  0  0  0  0  0  0
    2.8830    1.4463    1.7511 H   0  0  0  0  0  0  0  0  0  0  0  0
    4.7763    2.4412    1.3158 C   0  0  0  0  0  0  0  0  0  0  0  0
    5.0632    2.5255    2.3749 H   0  0  0  0  0  0  0  0  0  0  0  0
    5.6261    2.9324    0.3131 C   0  0  0  0  0  0  0  0  0  0  0  0
    6.5831    3.4046    0.5828 H   0  0  0  0  0  0  0  0  0  0  0  0
    5.2548    2.8206   -1.0376 C   0  0  0  0  0  0  0  0  0  0  0  0
    5.9184    3.2064   -1.8268 H   0  0  0  0  0  0  0  0  0  0  0  0
    4.0365    2.2183   -1.3825 C   0  0  0  0  0  0  0  0  0  0  0  0
    3.7548    2.1395   -2.4451 H   0  0  0  0  0  0  0  0  0  0  0  0
   -0.0986   -3.6124   -0.3795 C   0  0  0  0  0  0  0  0  0  0  0  0
   -0.1851   -3.9971    0.9725 C   0  0  0  0  0  0  0  0  0  0  0  0
   -0.1853   -3.2181    1.7498 H   0  0  0  0  0  0  0  0  0  0  0  0
   -0.2722   -5.3554    1.3161 C   0  0  0  0  0  0  0  0  0  0  0  0
   -0.3413   -5.6453    2.3755 H   0  0  0  0  0  0  0  0  0  0  0  0
   -0.2738   -6.3375    0.3140 C   0  0  0  0  0  0  0  0  0  0  0  0
   -0.3437   -7.4023    0.5844 H   0  0  0  0  0  0  0  0  0  0  0  0
   -0.1867   -5.9609   -1.0371 C   0  0  0  0  0  0  0  0  0  0  0  0
   -0.1861   -6.7290   -1.8258 H   0  0  0  0  0  0  0  0  0  0  0  0
   -0.0989   -4.6049   -1.3830 C   0  0  0  0  0  0  0  0  0  0  0  0
   -0.0279   -4.3225   -2.4460 H   0  0  0  0  0  0  0  0  0  0  0  0
  1 22  1  6  0  0  0
  2 33  1  6  0  0  0
  3 44  1  6  0  0  0
  4  7  1  0  0  0  0
  4  1  1  0  0  0  0
  5  4  1  0  0  0  0
  6  4  1  0  0  0  0
  7  8  1  0  0  0  0
  7  2  1  0  0  0  0
  9  7  1  0  0  0  0
 10 13  1  0  0  0  0
 10  2  1  0  0  0  0
 11 10  1  0  0  0  0
 12 10  1  0  0  0  0
 13 14  1  0  0  0  0
 13  3  1  0  0  0  0
 15 13  1  0  0  0  0
 16 19  1  0  0  0  0
 16  3  1  0  0  0  0
 17 16  1  0  0  0  0
 18 16  1  0  0  0  0
 19 20  1  0  0  0  0
 19  1  1  0  0  0  0
 21 19  1  0  0  0  0
 22 23  1  0  0  0  0
 23 25  2  0  0  0  0
 23 24  1  0  0  0  0
 25 26  1  0  0  0  0
 27 28  1  0  0  0  0
 27 25  1  0  0  0  0
 29 27  2  0  0  0  0
 30 29  1  0  0  0  0
 31 29  1  0  0  0  0
 31 22  2  0  0  0  0
 32 31  1  0  0  0  0
 33 34  1  0  0  0  0
 34 36  2  0  0  0  0
 34 35  1  0  0  0  0
 36 37  1  0  0  0  0
 38 39  1  0  0  0  0
 38 36  1  0  0  0  0
 40 38  2  0  0  0  0
 41 40  1  0  0  0  0
 42 40  1  0  0  0  0
 42 33  2  0  0  0  0
 43 42  1  0  0  0  0
 44 45  1  0  0  0  0
 45 47  2  0  0  0  0
 45 46  1  0  0  0  0
 47 48  1  0  0  0  0
 49 50  1  0  0  0  0
 49 47  1  0  0  0  0
 51 49  2  0  0  0  0
 52 51  1  0  0  0  0
 53 51  1  0  0  0  0
 53 44  2  0  0  0  0
 54 53  1  0  0  0  0
M  END
