1,2,3
 OpenBabel05122313063D

 78 78  0  0  0  0  0  0  0  0999 V2000
   -0.5136    1.9075   -0.3766 P   0  0  0  0  0  0  0  0  0  0  0  0
   -1.1025   -0.9882   -0.8068 P   0  0  0  0  0  0  0  0  0  0  0  0
    1.9353   -1.0709   -0.4208 P   0  0  0  0  0  0  0  0  0  0  0  0
   -0.5785    1.4124   -2.1839 C   0  0  0  0  0  0  0  0  0  0  0  0
   -0.9739    2.2229   -2.8279 H   0  0  0  0  0  0  0  0  0  0  0  0
    0.4737    1.2323   -2.4769 H   0  0  0  0  0  0  0  0  0  0  0  0
   -1.3988    0.1241   -2.3167 C   0  0  0  0  0  0  0  0  0  0  0  0
   -1.1306   -0.4348   -3.2365 H   0  0  0  0  0  0  0  0  0  0  0  0
   -2.4819    0.3460   -2.3804 H   0  0  0  0  0  0  0  0  0  0  0  0
   -0.1950   -2.4135   -1.6205 C   0  0  0  0  0  0  0  0  0  0  0  0
   -0.2419   -3.2721   -0.9214 H   0  0  0  0  0  0  0  0  0  0  0  0
   -0.7426   -2.7138   -2.5382 H   0  0  0  0  0  0  0  0  0  0  0  0
    1.2340   -1.9827   -1.9056 C   0  0  0  0  0  0  0  0  0  0  0  0
    1.2469   -1.2601   -2.7460 H   0  0  0  0  0  0  0  0  0  0  0  0
    1.8812   -2.8326   -2.1989 H   0  0  0  0  0  0  0  0  0  0  0  0
    0.6113    3.4792   -0.3158 C   0  0  0  0  0  0  0  0  0  0  0  0
    1.9629    3.0543   -0.9019 C   0  0  0  0  0  0  0  0  0  0  0  0
    1.9091    2.8872   -1.9958 H   0  0  0  0  0  0  0  0  0  0  0  0
    2.3283    2.1397   -0.4041 H   0  0  0  0  0  0  0  0  0  0  0  0
    2.7053    3.8614   -0.7296 H   0  0  0  0  0  0  0  0  0  0  0  0
    0.8444    3.9292    1.1383 C   0  0  0  0  0  0  0  0  0  0  0  0
    1.2416    3.1007    1.7557 H   0  0  0  0  0  0  0  0  0  0  0  0
   -0.0650    4.3240    1.6205 H   0  0  0  0  0  0  0  0  0  0  0  0
    1.5983    4.7455    1.1271 H   0  0  0  0  0  0  0  0  0  0  0  0
    0.0762    4.6580   -1.1467 C   0  0  0  0  0  0  0  0  0  0  0  0
    0.8669    5.4378   -1.1793 H   0  0  0  0  0  0  0  0  0  0  0  0
   -0.8187    5.1280   -0.6989 H   0  0  0  0  0  0  0  0  0  0  0  0
   -0.1510    4.3812   -2.1960 H   0  0  0  0  0  0  0  0  0  0  0  0
   -2.3577    2.5113   -0.0685 C   0  0  0  0  0  0  0  0  0  0  0  0
   -2.4084    3.4141    1.1768 C   0  0  0  0  0  0  0  0  0  0  0  0
   -3.4736    3.6108    1.4225 H   0  0  0  0  0  0  0  0  0  0  0  0
   -1.9264    4.3955    1.0136 H   0  0  0  0  0  0  0  0  0  0  0  0
   -1.9486    2.9136    2.0510 H   0  0  0  0  0  0  0  0  0  0  0  0
   -2.9064    3.2704   -1.2951 C   0  0  0  0  0  0  0  0  0  0  0  0
   -3.0365    2.6074   -2.1732 H   0  0  0  0  0  0  0  0  0  0  0  0
   -2.3015    4.1395   -1.6021 H   0  0  0  0  0  0  0  0  0  0  0  0
   -3.9172    3.6496   -1.0334 H   0  0  0  0  0  0  0  0  0  0  0  0
   -3.3106    1.3301    0.1821 C   0  0  0  0  0  0  0  0  0  0  0  0
   -4.3127    1.7493    0.4153 H   0  0  0  0  0  0  0  0  0  0  0  0
   -2.9876    0.7202    1.0445 H   0  0  0  0  0  0  0  0  0  0  0  0
   -3.4435    0.6806   -0.7005 H   0  0  0  0  0  0  0  0  0  0  0  0
   -2.7140   -1.8330   -0.4957 C   0  0  0  0  0  0  0  0  0  0  0  0
   -3.5474   -2.2529   -1.5536 C   0  0  0  0  0  0  0  0  0  0  0  0
   -3.2746   -2.0370   -2.5991 H   0  0  0  0  0  0  0  0  0  0  0  0
   -4.7342   -2.9501   -1.2828 C   0  0  0  0  0  0  0  0  0  0  0  0
   -5.3823   -3.2716   -2.1127 H   0  0  0  0  0  0  0  0  0  0  0  0
   -5.0932   -3.2378    0.0446 C   0  0  0  0  0  0  0  0  0  0  0  0
   -6.0252   -3.7839    0.2559 H   0  0  0  0  0  0  0  0  0  0  0  0
   -4.2651   -2.8223    1.0989 C   0  0  0  0  0  0  0  0  0  0  0  0
   -4.5487   -3.0352    2.1409 H   0  0  0  0  0  0  0  0  0  0  0  0
   -3.0789   -2.1193    0.8348 C   0  0  0  0  0  0  0  0  0  0  0  0
   -2.4470   -1.7452    1.6576 H   0  0  0  0  0  0  0  0  0  0  0  0
    2.2210   -2.5081    0.8643 C   0  0  0  0  0  0  0  0  0  0  0  0
    0.9326   -2.5759    1.7153 C   0  0  0  0  0  0  0  0  0  0  0  0
    2.4582   -3.8782    0.2097 C   0  0  0  0  0  0  0  0  0  0  0  0
    3.3642   -3.9011   -0.4238 H   0  0  0  0  0  0  0  0  0  0  0  0
    1.5987   -4.2198   -0.3994 H   0  0  0  0  0  0  0  0  0  0  0  0
    2.6005   -4.6316    1.0141 H   0  0  0  0  0  0  0  0  0  0  0  0
    3.3847   -2.1822    1.8163 C   0  0  0  0  0  0  0  0  0  0  0  0
    3.3870   -2.9336    2.6348 H   0  0  0  0  0  0  0  0  0  0  0  0
    3.2617   -1.1795    2.2718 H   0  0  0  0  0  0  0  0  0  0  0  0
    4.3702   -2.2416    1.3174 H   0  0  0  0  0  0  0  0  0  0  0  0
    3.6532   -0.5339   -1.1275 C   0  0  0  0  0  0  0  0  0  0  0  0
    4.5450   -1.7304   -1.5047 C   0  0  0  0  0  0  0  0  0  0  0  0
    5.4705   -1.3417   -1.9820 H   0  0  0  0  0  0  0  0  0  0  0  0
    4.0639   -2.4100   -2.2361 H   0  0  0  0  0  0  0  0  0  0  0  0
    4.8586   -2.3233   -0.6261 H   0  0  0  0  0  0  0  0  0  0  0  0
    4.3964    0.3579   -0.1145 C   0  0  0  0  0  0  0  0  0  0  0  0
    5.2207    0.8911   -0.6340 H   0  0  0  0  0  0  0  0  0  0  0  0
    4.8444   -0.2394    0.6992 H   0  0  0  0  0  0  0  0  0  0  0  0
    3.7354    1.0952    0.3766 H   0  0  0  0  0  0  0  0  0  0  0  0
    3.3716    0.2583   -2.4211 C   0  0  0  0  0  0  0  0  0  0  0  0
    2.5928    1.0273   -2.2801 H   0  0  0  0  0  0  0  0  0  0  0  0
    3.0682   -0.4014   -3.2573 H   0  0  0  0  0  0  0  0  0  0  0  0
    4.2992    0.7802   -2.7364 H   0  0  0  0  0  0  0  0  0  0  0  0
    0.7039   -1.6090    2.2273 H   0  0  0  0  0  0  0  0  0  0  0  0
    1.0807   -3.2986    2.5477 H   0  0  0  0  0  0  0  0  0  0  0  0
    0.0431   -2.9098    1.1506 H   0  0  0  0  0  0  0  0  0  0  0  0
  1 16  1  0  0  0  0
  1 29  1  0  0  0  0
  2 42  1  0  0  0  0
  3 53  1  0  0  0  0
  4  1  1  0  0  0  0
  5  4  1  0  0  0  0
  6  4  1  0  0  0  0
  7  4  1  0  0  0  0
  7  2  1  0  0  0  0
  8  7  1  0  0  0  0
  9  7  1  0  0  0  0
 10 11  1  0  0  0  0
 10  2  1  0  0  0  0
 12 10  1  0  0  0  0
 13 10  1  0  0  0  0
 13  3  1  0  0  0  0
 14 13  1  0  0  0  0
 15 13  1  0  0  0  0
 16 21  1  0  0  0  0
 17 20  1  0  0  0  0
 17 19  1  0  0  0  0
 17 16  1  0  0  0  0
 18 17  1  0  0  0  0
 21 23  1  0  0  0  0
 21 22  1  0  0  0  0
 24 21  1  0  0  0  0
 25 27  1  0  0  0  0
 25 16  1  0  0  0  0
 26 25  1  0  0  0  0
 28 25  1  0  0  0  0
 29 38  1  0  0  0  0
 29 30  1  0  0  0  0
 30 31  1  0  0  0  0
 30 33  1  0  0  0  0
 32 30  1  0  0  0  0
 34 37  1  0  0  0  0
 34 29  1  0  0  0  0
 35 34  1  0  0  0  0
 36 34  1  0  0  0  0
 38 39  1  0  0  0  0
 38 40  1  0  0  0  0
 41 38  1  0  0  0  0
 42 51  1  0  0  0  0
 43 45  1  0  0  0  0
 43 42  2  0  0  0  0
 44 43  1  0  0  0  0
 45 47  2  0  0  0  0
 46 45  1  0  0  0  0
 47 48  1  0  0  0  0
 47 49  1  0  0  0  0
 49 50  1  0  0  0  0
 51 49  2  0  0  0  0
 51 52  1  0  0  0  0
 53 54  1  0  0  0  0
 53 59  1  0  0  0  0
 54 76  1  0  0  0  0
 54 77  1  0  0  0  0
 55 53  1  0  0  0  0
 55 58  1  0  0  0  0
 56 55  1  0  0  0  0
 57 55  1  0  0  0  0
 59 61  1  0  0  0  0
 59 60  1  0  0  0  0
 62 59  1  0  0  0  0
 63  3  1  0  0  0  0
 63 68  1  0  0  0  0
 64 63  1  0  0  0  0
 64 67  1  0  0  0  0
 65 64  1  0  0  0  0
 66 64  1  0  0  0  0
 68 71  1  0  0  0  0
 68 70  1  0  0  0  0
 69 68  1  0  0  0  0
 72 73  1  0  0  0  0
 72 63  1  0  0  0  0
 74 72  1  0  0  0  0
 75 72  1  0  0  0  0
 78 54  1  0  0  0  0
M  END
