1,2,3
 OpenBabel05122313063D

 82 86  0  0  1  0  0  0  0  0999 V2000
   -2.2914    0.5828   -0.3119 P   0  0  0  0  0  0  0  0  0  0  0  0
    0.0121   -1.0636   -1.8399 P   0  0  2  0  0  0  0  0  0  0  0  0
    2.2059    0.3080   -0.0482 P   0  0  0  0  0  0  0  0  0  0  0  0
   -3.3115   -0.2217   -1.6449 C   0  0  0  0  0  0  0  0  0  0  0  0
   -2.7822   -1.5397   -2.2390 C   0  0  2  0  0  0  0  0  0  0  0  0
   -1.4407   -1.3565   -2.9670 C   0  0  0  0  0  0  0  0  0  0  0  0
   -3.8293   -2.1403   -3.1876 C   0  0  0  0  0  0  0  0  0  0  0  0
    1.4011   -1.1358   -3.0951 C   0  0  0  0  0  0  0  0  0  0  0  0
    2.7252   -0.4714   -2.6730 C   0  0  1  0  0  0  0  0  0  0  0  0
    3.1042   -0.8297   -1.2202 C   0  0  0  0  0  0  0  0  0  0  0  0
    3.8451   -0.8366   -3.6542 C   0  0  0  0  0  0  0  0  0  0  0  0
   -3.2726    2.1241   -0.0730 C   0  0  0  0  0  0  0  0  0  0  0  0
   -2.8388    3.2991   -0.7176 C   0  0  0  0  0  0  0  0  0  0  0  0
   -3.6002    4.4729   -0.6217 C   0  0  0  0  0  0  0  0  0  0  0  0
   -4.7874    4.4844    0.1287 C   0  0  0  0  0  0  0  0  0  0  0  0
   -5.2144    3.3182    0.7840 C   0  0  0  0  0  0  0  0  0  0  0  0
   -4.4598    2.1390    0.6840 C   0  0  0  0  0  0  0  0  0  0  0  0
   -2.6390   -0.4154    1.2039 C   0  0  0  0  0  0  0  0  0  0  0  0
   -3.4831   -1.5432    1.2244 C   0  0  0  0  0  0  0  0  0  0  0  0
   -3.5911   -2.3288    2.3851 C   0  0  0  0  0  0  0  0  0  0  0  0
   -2.8673   -1.9890    3.5369 C   0  0  0  0  0  0  0  0  0  0  0  0
   -2.0421   -0.8500    3.5301 C   0  0  0  0  0  0  0  0  0  0  0  0
   -1.9236   -0.0690    2.3737 C   0  0  0  0  0  0  0  0  0  0  0  0
    0.1130   -2.7113   -0.9796 C   0  0  0  0  0  0  0  0  0  0  0  0
   -0.0145   -2.7289    0.4238 C   0  0  0  0  0  0  0  0  0  0  0  0
    0.0232   -3.9418    1.1292 C   0  0  0  0  0  0  0  0  0  0  0  0
    0.1889   -5.1511    0.4378 C   0  0  0  0  0  0  0  0  0  0  0  0
    0.3131   -5.1453   -0.9628 C   0  0  0  0  0  0  0  0  0  0  0  0
    0.2733   -3.9331   -1.6676 C   0  0  0  0  0  0  0  0  0  0  0  0
    2.4295   -0.4568    1.6145 C   0  0  0  0  0  0  0  0  0  0  0  0
    3.0266   -1.7179    1.8121 C   0  0  0  0  0  0  0  0  0  0  0  0
    3.0814   -2.2827    3.0974 C   0  0  0  0  0  0  0  0  0  0  0  0
    2.5491   -1.5920    4.1956 C   0  0  0  0  0  0  0  0  0  0  0  0
    1.9621   -0.3284    4.0046 C   0  0  0  0  0  0  0  0  0  0  0  0
    1.8959    0.2363    2.7247 C   0  0  0  0  0  0  0  0  0  0  0  0
    3.3501    1.7542   -0.0321 C   0  0  0  0  0  0  0  0  0  0  0  0
    4.5858    1.7092    0.6438 C   0  0  0  0  0  0  0  0  0  0  0  0
    5.4634    2.8013    0.5770 C   0  0  0  0  0  0  0  0  0  0  0  0
    5.1126    3.9415   -0.1655 C   0  0  0  0  0  0  0  0  0  0  0  0
    3.8795    3.9911   -0.8344 C   0  0  0  0  0  0  0  0  0  0  0  0
    2.9948    2.9039   -0.7637 C   0  0  0  0  0  0  0  0  0  0  0  0
   -3.3856    0.5476   -2.4438 H   0  0  0  0  0  0  0  0  0  0  0  0
   -4.3425   -0.3538   -1.2527 H   0  0  0  0  0  0  0  0  0  0  0  0
   -2.6194   -2.2659   -1.4110 H   0  0  0  0  0  0  0  0  0  0  0  0
   -1.2143   -2.2576   -3.5765 H   0  0  0  0  0  0  0  0  0  0  0  0
   -1.4901   -0.4915   -3.6638 H   0  0  0  0  0  0  0  0  0  0  0  0
   -3.4909   -3.1156   -3.5931 H   0  0  0  0  0  0  0  0  0  0  0  0
   -4.7956   -2.3039   -2.6679 H   0  0  0  0  0  0  0  0  0  0  0  0
   -4.0210   -1.4628   -4.0464 H   0  0  0  0  0  0  0  0  0  0  0  0
    1.0140   -0.6480   -4.0138 H   0  0  0  0  0  0  0  0  0  0  0  0
    1.5796   -2.2037   -3.3481 H   0  0  0  0  0  0  0  0  0  0  0  0
    2.5738    0.6309   -2.7226 H   0  0  0  0  0  0  0  0  0  0  0  0
    2.8276   -1.8818   -0.9985 H   0  0  0  0  0  0  0  0  0  0  0  0
    4.1942   -0.7227   -1.0466 H   0  0  0  0  0  0  0  0  0  0  0  0
    3.5620   -0.5909   -4.6984 H   0  0  0  0  0  0  0  0  0  0  0  0
    4.7778   -0.2864   -3.4154 H   0  0  0  0  0  0  0  0  0  0  0  0
    4.0712   -1.9233   -3.6129 H   0  0  0  0  0  0  0  0  0  0  0  0
   -1.8862    3.2859   -1.2691 H   0  0  0  0  0  0  0  0  0  0  0  0
   -3.2547    5.3903   -1.1221 H   0  0  0  0  0  0  0  0  0  0  0  0
   -5.3779    5.4098    0.2117 H   0  0  0  0  0  0  0  0  0  0  0  0
   -6.1392    3.3271    1.3813 H   0  0  0  0  0  0  0  0  0  0  0  0
   -4.7889    1.2269    1.2065 H   0  0  0  0  0  0  0  0  0  0  0  0
   -4.0593   -1.8296    0.3328 H   0  0  0  0  0  0  0  0  0  0  0  0
   -4.2434   -3.2155    2.3830 H   0  0  0  0  0  0  0  0  0  0  0  0
   -2.9460   -2.6109    4.4419 H   0  0  0  0  0  0  0  0  0  0  0  0
   -1.4703   -0.5751    4.4297 H   0  0  0  0  0  0  0  0  0  0  0  0
   -1.2579    0.8099    2.3505 H   0  0  0  0  0  0  0  0  0  0  0  0
   -0.1407   -1.7700    0.9519 H   0  0  0  0  0  0  0  0  0  0  0  0
   -0.0756   -3.9312    2.2251 H   0  0  0  0  0  0  0  0  0  0  0  0
    0.2215   -6.1042    0.9880 H   0  0  0  0  0  0  0  0  0  0  0  0
    0.4413   -6.0925   -1.5092 H   0  0  0  0  0  0  0  0  0  0  0  0
    0.3682   -3.9483   -2.7657 H   0  0  0  0  0  0  0  0  0  0  0  0
    3.4452   -2.2795    0.9651 H   0  0  0  0  0  0  0  0  0  0  0  0
    3.5431   -3.2724    3.2363 H   0  0  0  0  0  0  0  0  0  0  0  0
    2.5910   -2.0373    5.2014 H   0  0  0  0  0  0  0  0  0  0  0  0
    1.5438    0.2215    4.8620 H   0  0  0  0  0  0  0  0  0  0  0  0
    1.4077    1.2120    2.5603 H   0  0  0  0  0  0  0  0  0  0  0  0
    4.8559    0.8197    1.2350 H   0  0  0  0  0  0  0  0  0  0  0  0
    6.4250    2.7649    1.1119 H   0  0  0  0  0  0  0  0  0  0  0  0
    5.8010    4.7993   -0.2139 H   0  0  0  0  0  0  0  0  0  0  0  0
    3.5959    4.8893   -1.4039 H   0  0  0  0  0  0  0  0  0  0  0  0
    2.0072    2.9408   -1.2488 H   0  0  0  0  0  0  0  0  0  0  0  0
  1 12  1  0  0  0  0
  1 18  1  0  0  0  0
  2  8  1  6  0  0  0
  2 24  1  0  0  0  0
  3 36  1  0  0  0  0
  3 30  1  0  0  0  0
  4 43  1  0  0  0  0
  4  1  1  0  0  0  0
  5  4  1  0  0  0  0
  5 44  1  1  0  0  0
  6  5  1  0  0  0  0
  6  2  1  0  0  0  0
  7 48  1  0  0  0  0
  7  5  1  0  0  0  0
  8  9  1  0  0  0  0
  9 52  1  6  0  0  0
  9 10  1  0  0  0  0
 10 54  1  0  0  0  0
 10 53  1  0  0  0  0
 10  3  1  0  0  0  0
 11 57  1  0  0  0  0
 11 56  1  0  0  0  0
 11  9  1  0  0  0  0
 12 17  1  0  0  0  0
 13 14  1  0  0  0  0
 13 12  2  0  0  0  0
 14 15  2  0  0  0  0
 15 60  1  0  0  0  0
 15 16  1  0  0  0  0
 16 61  1  0  0  0  0
 17 16  2  0  0  0  0
 17 62  1  0  0  0  0
 18 19  2  0  0  0  0
 18 23  1  0  0  0  0
 19 20  1  0  0  0  0
 20 21  2  0  0  0  0
 21 65  1  0  0  0  0
 22 21  1  0  0  0  0
 22 66  1  0  0  0  0
 23 22  2  0  0  0  0
 24 25  1  0  0  0  0
 25 68  1  0  0  0  0
 25 26  2  0  0  0  0
 26 69  1  0  0  0  0
 27 70  1  0  0  0  0
 27 26  1  0  0  0  0
 28 27  2  0  0  0  0
 29 24  2  0  0  0  0
 29 28  1  0  0  0  0
 30 31  2  0  0  0  0
 30 35  1  0  0  0  0
 31 32  1  0  0  0  0
 32 74  1  0  0  0  0
 32 33  2  0  0  0  0
 33 75  1  0  0  0  0
 34 33  1  0  0  0  0
 34 76  1  0  0  0  0
 35 34  2  0  0  0  0
 36 37  1  0  0  0  0
 37 78  1  0  0  0  0
 38 37  2  0  0  0  0
 38 79  1  0  0  0  0
 39 38  1  0  0  0  0
 40 41  1  0  0  0  0
 40 39  2  0  0  0  0
 41 36  2  0  0  0  0
 42  4  1  0  0  0  0
 45  6  1  0  0  0  0
 46  6  1  0  0  0  0
 47  7  1  0  0  0  0
 49  7  1  0  0  0  0
 50  8  1  0  0  0  0
 51  8  1  0  0  0  0
 55 11  1  0  0  0  0
 58 13  1  0  0  0  0
 59 14  1  0  0  0  0
 63 19  1  0  0  0  0
 64 20  1  0  0  0  0
 67 23  1  0  0  0  0
 71 28  1  0  0  0  0
 72 29  1  0  0  0  0
 73 31  1  0  0  0  0
 77 35  1  0  0  0  0
 80 39  1  0  0  0  0
 81 40  1  0  0  0  0
 82 41  1  0  0  0  0
M  END
