2,3,4
 OpenBabel05122313063D

 76 82  0  0  0  0  0  0  0  0999 V2000
    0.0311   -1.4760   -4.2631 Cl  0  0  0  0  0  0  0  0  0  0  0  0
   -2.2619   -0.1602    0.5425 P   0  0  0  0  0  0  0  0  0  0  0  0
   -0.1150   -1.0578   -2.0963 P   0  0  0  0  0  0  0  0  0  0  0  0
    2.2813   -0.4059    0.4413 P   0  0  0  0  0  0  0  0  0  0  0  0
    0.8125   -2.3686   -1.4595 N   0  0  0  0  0  0  0  0  0  0  0  0
   -1.5553   -1.9214   -1.6995 N   0  0  0  0  0  0  0  0  0  0  0  0
   -3.2843    0.8997    1.6364 C   0  0  0  0  0  0  0  0  0  0  0  0
   -4.0345    0.3696    2.7066 C   0  0  0  0  0  0  0  0  0  0  0  0
   -4.7923    1.2242    3.5215 C   0  0  0  0  0  0  0  0  0  0  0  0
   -4.8101    2.6055    3.2711 C   0  0  0  0  0  0  0  0  0  0  0  0
   -4.0610    3.1326    2.2068 C   0  0  0  0  0  0  0  0  0  0  0  0
   -3.2889    2.2911    1.3924 C   0  0  0  0  0  0  0  0  0  0  0  0
   -2.3271   -1.8373    1.3024 C   0  0  0  0  0  0  0  0  0  0  0  0
   -3.4205   -2.7076    1.1122 C   0  0  0  0  0  0  0  0  0  0  0  0
   -3.4128   -3.9837    1.6966 C   0  0  0  0  0  0  0  0  0  0  0  0
   -2.3202   -4.3979    2.4775 C   0  0  0  0  0  0  0  0  0  0  0  0
   -1.2353   -3.5295    2.6791 C   0  0  0  0  0  0  0  0  0  0  0  0
   -1.2396   -2.2551    2.0918 C   0  0  0  0  0  0  0  0  0  0  0  0
   -3.2965   -0.3873   -0.9669 C   0  0  0  0  0  0  0  0  0  0  0  0
   -4.5122    0.2817   -1.1872 C   0  0  0  0  0  0  0  0  0  0  0  0
   -5.2579    0.0221   -2.3485 C   0  0  0  0  0  0  0  0  0  0  0  0
   -4.7920   -0.9015   -3.2966 C   0  0  0  0  0  0  0  0  0  0  0  0
   -3.5678   -1.5585   -3.0989 C   0  0  0  0  0  0  0  0  0  0  0  0
   -2.8158   -1.3027   -1.9398 C   0  0  0  0  0  0  0  0  0  0  0  0
   -1.3559   -3.3698   -1.8068 C   0  0  0  0  0  0  0  0  0  0  0  0
    0.0470   -3.6089   -1.2287 C   0  0  0  0  0  0  0  0  0  0  0  0
    2.2210   -2.3567   -1.6319 C   0  0  0  0  0  0  0  0  0  0  0  0
    2.8263   -3.2034   -2.5833 C   0  0  0  0  0  0  0  0  0  0  0  0
    4.2091   -3.1660   -2.7985 C   0  0  0  0  0  0  0  0  0  0  0  0
    5.0048   -2.2573   -2.0840 C   0  0  0  0  0  0  0  0  0  0  0  0
    4.4144   -1.4033   -1.1423 C   0  0  0  0  0  0  0  0  0  0  0  0
    3.0287   -1.4506   -0.8893 C   0  0  0  0  0  0  0  0  0  0  0  0
    2.3524   -1.5044    1.9163 C   0  0  0  0  0  0  0  0  0  0  0  0
    2.7197   -2.8617    1.8510 C   0  0  0  0  0  0  0  0  0  0  0  0
    2.6923   -3.6549    3.0105 C   0  0  0  0  0  0  0  0  0  0  0  0
    2.3062   -3.0997    4.2399 C   0  0  0  0  0  0  0  0  0  0  0  0
    1.9400   -1.7434    4.3094 C   0  0  0  0  0  0  0  0  0  0  0  0
    1.9550   -0.9509    3.1543 C   0  0  0  0  0  0  0  0  0  0  0  0
    3.5554    0.8679    0.7824 C   0  0  0  0  0  0  0  0  0  0  0  0
    4.6374    0.6418    1.6600 C   0  0  0  0  0  0  0  0  0  0  0  0
    5.5869    1.6521    1.8711 C   0  0  0  0  0  0  0  0  0  0  0  0
    5.4609    2.8857    1.2104 C   0  0  0  0  0  0  0  0  0  0  0  0
    4.3814    3.1119    0.3424 C   0  0  0  0  0  0  0  0  0  0  0  0
    3.4228    2.1100    0.1275 C   0  0  0  0  0  0  0  0  0  0  0  0
   -4.0253   -0.7120    2.9065 H   0  0  0  0  0  0  0  0  0  0  0  0
   -5.3728    0.8053    4.3577 H   0  0  0  0  0  0  0  0  0  0  0  0
   -5.4053    3.2738    3.9121 H   0  0  0  0  0  0  0  0  0  0  0  0
   -4.0618    4.2150    2.0083 H   0  0  0  0  0  0  0  0  0  0  0  0
   -2.6932    2.7250    0.5730 H   0  0  0  0  0  0  0  0  0  0  0  0
   -4.2746   -2.3874    0.4961 H   0  0  0  0  0  0  0  0  0  0  0  0
   -4.2676   -4.6598    1.5409 H   0  0  0  0  0  0  0  0  0  0  0  0
   -2.3163   -5.4011    2.9304 H   0  0  0  0  0  0  0  0  0  0  0  0
   -0.3716   -3.8393    3.2862 H   0  0  0  0  0  0  0  0  0  0  0  0
   -0.3793   -1.5846    2.2319 H   0  0  0  0  0  0  0  0  0  0  0  0
   -4.8814    0.9997   -0.4402 H   0  0  0  0  0  0  0  0  0  0  0  0
   -6.2115    0.5464   -2.5102 H   0  0  0  0  0  0  0  0  0  0  0  0
   -5.3760   -1.0998   -4.2079 H   0  0  0  0  0  0  0  0  0  0  0  0
   -3.1703   -2.2502   -3.8552 H   0  0  0  0  0  0  0  0  0  0  0  0
   -2.1341   -3.8951   -1.2182 H   0  0  0  0  0  0  0  0  0  0  0  0
   -1.4083   -3.7080   -2.8673 H   0  0  0  0  0  0  0  0  0  0  0  0
    0.5317   -4.4801   -1.7149 H   0  0  0  0  0  0  0  0  0  0  0  0
   -0.0026   -3.8023   -0.1348 H   0  0  0  0  0  0  0  0  0  0  0  0
    2.1863   -3.8669   -3.1824 H   0  0  0  0  0  0  0  0  0  0  0  0
    4.6627   -3.8301   -3.5497 H   0  0  0  0  0  0  0  0  0  0  0  0
    6.0894   -2.2078   -2.2615 H   0  0  0  0  0  0  0  0  0  0  0  0
    5.0395   -0.6920   -0.5828 H   0  0  0  0  0  0  0  0  0  0  0  0
    3.0352   -3.2985    0.8920 H   0  0  0  0  0  0  0  0  0  0  0  0
    2.9816   -4.7153    2.9502 H   0  0  0  0  0  0  0  0  0  0  0  0
    2.2896   -3.7223    5.1472 H   0  0  0  0  0  0  0  0  0  0  0  0
    1.6335   -1.3014    5.2695 H   0  0  0  0  0  0  0  0  0  0  0  0
    1.6509    0.1073    3.2070 H   0  0  0  0  0  0  0  0  0  0  0  0
    4.7322   -0.3226    2.1821 H   0  0  0  0  0  0  0  0  0  0  0  0
    6.4282    1.4759    2.5587 H   0  0  0  0  0  0  0  0  0  0  0  0
    6.2045    3.6789    1.3826 H   0  0  0  0  0  0  0  0  0  0  0  0
    4.2640    4.0820   -0.1615 H   0  0  0  0  0  0  0  0  0  0  0  0
    2.5631    2.2996   -0.5365 H   0  0  0  0  0  0  0  0  0  0  0  0
  1  3  1  0  0  0  0
  2 13  1  0  0  0  0
  2  7  1  0  0  0  0
  3  6  1  0  0  0  0
  3  5  1  0  0  0  0
  4 39  1  0  0  0  0
  4 33  1  0  0  0  0
  5 26  1  0  0  0  0
  7  8  1  0  0  0  0
  8 45  1  0  0  0  0
  8  9  2  0  0  0  0
  9 46  1  0  0  0  0
 10  9  1  0  0  0  0
 10 47  1  0  0  0  0
 11 10  2  0  0  0  0
 12  7  2  0  0  0  0
 12 11  1  0  0  0  0
 13 18  1  0  0  0  0
 14 13  2  0  0  0  0
 14 15  1  0  0  0  0
 15 16  2  0  0  0  0
 16 17  1  0  0  0  0
 16 52  1  0  0  0  0
 17 53  1  0  0  0  0
 18 54  1  0  0  0  0
 18 17  2  0  0  0  0
 19  2  1  0  0  0  0
 20 19  1  0  0  0  0
 20 55  1  0  0  0  0
 21 20  2  0  0  0  0
 22 23  2  0  0  0  0
 22 21  1  0  0  0  0
 23 24  1  0  0  0  0
 24  6  1  0  0  0  0
 24 19  2  0  0  0  0
 25  6  1  0  0  0  0
 25 26  1  0  0  0  0
 25 59  1  0  0  0  0
 26 62  1  0  0  0  0
 27  5  1  0  0  0  0
 27 32  1  0  0  0  0
 28 27  2  0  0  0  0
 29 28  1  0  0  0  0
 29 30  2  0  0  0  0
 30 31  1  0  0  0  0
 31 32  2  0  0  0  0
 31 66  1  0  0  0  0
 32  4  1  0  0  0  0
 33 38  1  0  0  0  0
 34 33  2  0  0  0  0
 34 35  1  0  0  0  0
 35 36  2  0  0  0  0
 36 37  1  0  0  0  0
 36 69  1  0  0  0  0
 37 70  1  0  0  0  0
 38 71  1  0  0  0  0
 38 37  2  0  0  0  0
 39 40  1  0  0  0  0
 40 41  2  0  0  0  0
 40 72  1  0  0  0  0
 41 73  1  0  0  0  0
 42 74  1  0  0  0  0
 42 41  1  0  0  0  0
 43 42  2  0  0  0  0
 44 43  1  0  0  0  0
 44 39  2  0  0  0  0
 48 11  1  0  0  0  0
 49 12  1  0  0  0  0
 50 14  1  0  0  0  0
 51 15  1  0  0  0  0
 56 21  1  0  0  0  0
 57 22  1  0  0  0  0
 58 23  1  0  0  0  0
 60 25  1  0  0  0  0
 61 26  1  0  0  0  0
 63 28  1  0  0  0  0
 64 29  1  0  0  0  0
 65 30  1  0  0  0  0
 67 34  1  0  0  0  0
 68 35  1  0  0  0  0
 75 43  1  0  0  0  0
 76 44  1  0  0  0  0
M  END
