1,2,3
 OpenBabel05122313063D

 64 65  0  0  0  0  0  0  0  0999 V2000
   -2.0181   -0.5425   -0.0030 P   0  0  0  0  0  0  0  0  0  0  0  0
    0.1904    1.0961   -1.3223 P   0  0  0  0  0  0  0  0  0  0  0  0
    1.8385   -0.7789    0.4369 P   0  0  0  0  0  0  0  0  0  0  0  0
   -3.0811    3.3506    1.1560 C   0  0  0  0  0  0  0  0  0  0  0  0
   -3.8604    3.8516    1.7506 H   0  0  0  0  0  0  0  0  0  0  0  0
    1.8190    1.7669   -0.7522 C   0  0  0  0  0  0  0  0  0  0  0  0
   -2.1098    1.2952    0.2589 C   0  0  0  0  0  0  0  0  0  0  0  0
    3.8222    1.3277    0.5596 C   0  0  0  0  0  0  0  0  0  0  0  0
    4.4169    0.6654    1.2089 H   0  0  0  0  0  0  0  0  0  0  0  0
   -3.1099    1.9555    1.0014 C   0  0  0  0  0  0  0  0  0  0  0  0
   -3.9183    1.3779    1.4745 H   0  0  0  0  0  0  0  0  0  0  0  0
    2.5700    0.9028    0.0766 C   0  0  0  0  0  0  0  0  0  0  0  0
    2.3416    3.0235   -1.1165 C   0  0  0  0  0  0  0  0  0  0  0  0
    1.7720    3.6818   -1.7911 H   0  0  0  0  0  0  0  0  0  0  0  0
    3.5961    3.4321   -0.6389 C   0  0  0  0  0  0  0  0  0  0  0  0
    4.0029    4.4124   -0.9307 H   0  0  0  0  0  0  0  0  0  0  0  0
   -2.0622    4.1043    0.5531 C   0  0  0  0  0  0  0  0  0  0  0  0
   -2.0370    5.1981    0.6745 H   0  0  0  0  0  0  0  0  0  0  0  0
   -1.0835    2.0618   -0.3495 C   0  0  0  0  0  0  0  0  0  0  0  0
    4.3326    2.5869    0.2076 C   0  0  0  0  0  0  0  0  0  0  0  0
    5.3163    2.9058    0.5850 H   0  0  0  0  0  0  0  0  0  0  0  0
   -1.0710    3.4600   -0.2043 C   0  0  0  0  0  0  0  0  0  0  0  0
   -0.2722    4.0548   -0.6726 H   0  0  0  0  0  0  0  0  0  0  0  0
   -2.9324   -1.2727    1.4755 C   0  0  0  0  0  0  0  0  0  0  0  0
   -3.9635   -0.8590    1.4614 H   0  0  0  0  0  0  0  0  0  0  0  0
   -3.0043   -2.7936    1.2868 C   0  0  0  0  0  0  0  0  0  0  0  0
   -3.4794   -3.2734    2.1677 H   0  0  0  0  0  0  0  0  0  0  0  0
   -1.9852   -3.2187    1.1692 H   0  0  0  0  0  0  0  0  0  0  0  0
   -3.5903   -3.0822    0.3916 H   0  0  0  0  0  0  0  0  0  0  0  0
   -4.7371   -0.4118   -1.0505 C   0  0  0  0  0  0  0  0  0  0  0  0
   -5.3979   -0.6038   -1.9221 H   0  0  0  0  0  0  0  0  0  0  0  0
   -4.8158    0.6697   -0.8136 H   0  0  0  0  0  0  0  0  0  0  0  0
   -5.1524   -0.9839   -0.1975 H   0  0  0  0  0  0  0  0  0  0  0  0
   -3.2976   -0.8015   -1.3918 C   0  0  0  0  0  0  0  0  0  0  0  0
   -3.2404   -1.9005   -1.5581 H   0  0  0  0  0  0  0  0  0  0  0  0
   -2.2799   -0.9050    2.8091 C   0  0  0  0  0  0  0  0  0  0  0  0
   -2.8851   -1.3050    3.6496 H   0  0  0  0  0  0  0  0  0  0  0  0
   -2.1881    0.1900    2.9482 H   0  0  0  0  0  0  0  0  0  0  0  0
   -1.2670   -1.3405    2.8913 H   0  0  0  0  0  0  0  0  0  0  0  0
   -2.8259   -0.1087   -2.6740 C   0  0  0  0  0  0  0  0  0  0  0  0
   -3.5041   -0.3575   -3.5167 H   0  0  0  0  0  0  0  0  0  0  0  0
   -1.7990   -0.4225   -2.9426 H   0  0  0  0  0  0  0  0  0  0  0  0
   -2.8308    0.9958   -2.5566 H   0  0  0  0  0  0  0  0  0  0  0  0
    1.9081   -0.7303    2.3277 C   0  0  0  0  0  0  0  0  0  0  0  0
    2.9736   -0.5958    2.6186 H   0  0  0  0  0  0  0  0  0  0  0  0
    3.2900   -1.8825   -0.0709 C   0  0  0  0  0  0  0  0  0  0  0  0
    4.1370   -1.6262    0.6051 H   0  0  0  0  0  0  0  0  0  0  0  0
    1.3835   -2.0399    2.9287 C   0  0  0  0  0  0  0  0  0  0  0  0
    1.1581   -1.9125    4.0081 H   0  0  0  0  0  0  0  0  0  0  0  0
    2.1153   -2.8648    2.8382 H   0  0  0  0  0  0  0  0  0  0  0  0
    0.4529   -2.3631    2.4173 H   0  0  0  0  0  0  0  0  0  0  0  0
    2.9509   -3.3700    0.0791 C   0  0  0  0  0  0  0  0  0  0  0  0
    3.8086   -3.9877   -0.2606 H   0  0  0  0  0  0  0  0  0  0  0  0
    2.0759   -3.6389   -0.5454 H   0  0  0  0  0  0  0  0  0  0  0  0
    2.7239   -3.6595    1.1219 H   0  0  0  0  0  0  0  0  0  0  0  0
    1.1012    0.4915    2.7871 C   0  0  0  0  0  0  0  0  0  0  0  0
    0.9465    0.4708    3.8859 H   0  0  0  0  0  0  0  0  0  0  0  0
    0.1049    0.5078    2.3004 H   0  0  0  0  0  0  0  0  0  0  0  0
    1.6093    1.4401    2.5273 H   0  0  0  0  0  0  0  0  0  0  0  0
    3.6785   -1.5669   -1.5210 C   0  0  0  0  0  0  0  0  0  0  0  0
    4.4956   -2.2405   -1.8534 H   0  0  0  0  0  0  0  0  0  0  0  0
    4.0219   -0.5219   -1.6475 H   0  0  0  0  0  0  0  0  0  0  0  0
    2.8107   -1.7236   -2.1944 H   0  0  0  0  0  0  0  0  0  0  0  0
    0.0872    1.8482   -2.5544 H   0  0  0  0  0  0  0  0  0  0  0  0
  1  7  1  0  0  0  0
  1 24  1  0  0  0  0
  2  6  1  0  0  0  0
  2 19  1  0  0  0  0
  3 44  1  0  0  0  0
  4  5  1  0  0  0  0
  6 12  1  0  0  0  0
  7 10  2  0  0  0  0
  8  9  1  0  0  0  0
 10  4  1  0  0  0  0
 10 11  1  0  0  0  0
 12  3  1  0  0  0  0
 12  8  2  0  0  0  0
 13  6  2  0  0  0  0
 13 15  1  0  0  0  0
 14 13  1  0  0  0  0
 15 20  2  0  0  0  0
 16 15  1  0  0  0  0
 17 18  1  0  0  0  0
 17  4  2  0  0  0  0
 19 22  2  0  0  0  0
 19  7  1  0  0  0  0
 20  8  1  0  0  0  0
 20 21  1  0  0  0  0
 22 17  1  0  0  0  0
 23 22  1  0  0  0  0
 24 36  1  0  0  0  0
 25 24  1  0  0  0  0
 26 24  1  0  0  0  0
 26 27  1  0  0  0  0
 28 26  1  0  0  0  0
 29 26  1  0  0  0  0
 30 32  1  0  0  0  0
 30 33  1  0  0  0  0
 31 30  1  0  0  0  0
 34 30  1  0  0  0  0
 34  1  1  0  0  0  0
 35 34  1  0  0  0  0
 36 39  1  0  0  0  0
 36 38  1  0  0  0  0
 36 37  1  0  0  0  0
 40 43  1  0  0  0  0
 40 34  1  0  0  0  0
 41 40  1  0  0  0  0
 42 40  1  0  0  0  0
 44 45  1  0  0  0  0
 44 56  1  0  0  0  0
 44 48  1  0  0  0  0
 46 52  1  0  0  0  0
 46  3  1  0  0  0  0
 46 47  1  0  0  0  0
 48 49  1  0  0  0  0
 50 48  1  0  0  0  0
 51 48  1  0  0  0  0
 52 55  1  0  0  0  0
 53 52  1  0  0  0  0
 54 52  1  0  0  0  0
 56 57  1  0  0  0  0
 58 56  1  0  0  0  0
 59 56  1  0  0  0  0
 60 46  1  0  0  0  0
 61 60  1  0  0  0  0
 62 60  1  0  0  0  0
 63 60  1  0  0  0  0
 64  2  1  0  0  0  0
M  END
