1,2,3
 OpenBabel05122313063D

 62 64  0  0  1  0  0  0  0  0999 V2000
   -2.2454   -0.4171    0.0633 P   0  0  1  0  0  0  0  0  0  0  0  0
    0.0572    1.2434    1.0714 P   0  0  1  0  0  0  0  0  0  0  0  0
    2.2215   -0.6500    0.1555 P   0  0  2  0  0  0  0  0  0  0  0  0
   -2.9347   -2.0200    0.7627 C   0  0  2  0  0  0  0  0  0  0  0  0
   -4.3623   -2.1147    0.2022 C   0  0  0  0  0  0  0  0  0  0  0  0
   -4.2945   -1.6321   -1.2522 C   0  0  0  0  0  0  0  0  0  0  0  0
   -3.5775   -0.2669   -1.2703 C   0  0  2  0  0  0  0  0  0  0  0  0
   -2.7727   -2.1960    2.2674 C   0  0  0  0  0  0  0  0  0  0  0  0
   -2.9937    0.1367   -2.6234 C   0  0  0  0  0  0  0  0  0  0  0  0
   -2.6672    0.9669    1.2737 C   0  0  0  0  0  0  0  0  0  0  0  0
   -1.4605    1.2916    2.1661 C   0  0  0  0  0  0  0  0  0  0  0  0
    0.0962    2.9338    0.3161 C   0  0  0  0  0  0  0  0  0  0  0  0
    0.1364    4.1160    1.0835 C   0  0  0  0  0  0  0  0  0  0  0  0
    0.1625    5.3685    0.4514 C   0  0  0  0  0  0  0  0  0  0  0  0
    0.1484    5.4490   -0.9516 C   0  0  0  0  0  0  0  0  0  0  0  0
    0.1081    4.2756   -1.7216 C   0  0  0  0  0  0  0  0  0  0  0  0
    0.0823    3.0218   -1.0904 C   0  0  0  0  0  0  0  0  0  0  0  0
    2.7815   -2.2055    1.0785 C   0  0  2  0  0  0  0  0  0  0  0  0
    3.6326   -2.9600    0.0389 C   0  0  0  0  0  0  0  0  0  0  0  0
    4.4680   -1.9260   -0.7247 C   0  0  0  0  0  0  0  0  0  0  0  0
    3.4980   -0.8384   -1.2167 C   0  0  2  0  0  0  0  0  0  0  0  0
    1.6351   -3.0207    1.6728 C   0  0  0  0  0  0  0  0  0  0  0  0
    4.1304    0.4561   -1.7145 C   0  0  0  0  0  0  0  0  0  0  0  0
    2.7596    0.7885    1.2465 C   0  0  0  0  0  0  0  0  0  0  0  0
    1.5886    1.2100    2.1480 C   0  0  0  0  0  0  0  0  0  0  0  0
   -2.2992   -2.7678    0.2369 H   0  0  0  0  0  0  0  0  0  0  0  0
   -4.7584   -3.1497    0.2826 H   0  0  0  0  0  0  0  0  0  0  0  0
   -5.0468   -1.4627    0.7923 H   0  0  0  0  0  0  0  0  0  0  0  0
   -3.6968   -2.3555   -1.8484 H   0  0  0  0  0  0  0  0  0  0  0  0
   -5.2962   -1.5640   -1.7263 H   0  0  0  0  0  0  0  0  0  0  0  0
   -4.2858    0.5127   -0.9096 H   0  0  0  0  0  0  0  0  0  0  0  0
   -3.1435   -3.1917    2.5888 H   0  0  0  0  0  0  0  0  0  0  0  0
   -1.7046   -2.1258    2.5584 H   0  0  0  0  0  0  0  0  0  0  0  0
   -3.3414   -1.4335    2.8404 H   0  0  0  0  0  0  0  0  0  0  0  0
   -3.7820    0.1616   -3.4051 H   0  0  0  0  0  0  0  0  0  0  0  0
   -2.5248    1.1405   -2.5780 H   0  0  0  0  0  0  0  0  0  0  0  0
   -2.2072   -0.5830   -2.9305 H   0  0  0  0  0  0  0  0  0  0  0  0
   -2.9166    1.8451    0.6399 H   0  0  0  0  0  0  0  0  0  0  0  0
   -3.5747    0.7244    1.8656 H   0  0  0  0  0  0  0  0  0  0  0  0
   -1.3122    0.5044    2.9341 H   0  0  0  0  0  0  0  0  0  0  0  0
   -1.5743    2.2670    2.6837 H   0  0  0  0  0  0  0  0  0  0  0  0
    0.1471    4.0643    2.1848 H   0  0  0  0  0  0  0  0  0  0  0  0
    0.1940    6.2882    1.0559 H   0  0  0  0  0  0  0  0  0  0  0  0
    0.1688    6.4327   -1.4452 H   0  0  0  0  0  0  0  0  0  0  0  0
    0.0968    4.3363   -2.8207 H   0  0  0  0  0  0  0  0  0  0  0  0
    0.0504    2.0796   -1.6662 H   0  0  0  0  0  0  0  0  0  0  0  0
    3.4539   -1.8409    1.8881 H   0  0  0  0  0  0  0  0  0  0  0  0
    4.2588   -3.7371    0.5261 H   0  0  0  0  0  0  0  0  0  0  0  0
    2.9484   -3.4794   -0.6672 H   0  0  0  0  0  0  0  0  0  0  0  0
    5.2272   -1.4731   -0.0471 H   0  0  0  0  0  0  0  0  0  0  0  0
    5.0242   -2.3803   -1.5723 H   0  0  0  0  0  0  0  0  0  0  0  0
    2.8702   -1.2753   -2.0248 H   0  0  0  0  0  0  0  0  0  0  0  0
    2.0215   -3.9416    2.1588 H   0  0  0  0  0  0  0  0  0  0  0  0
    1.0726   -2.4400    2.4316 H   0  0  0  0  0  0  0  0  0  0  0  0
    0.9175   -3.3039    0.8761 H   0  0  0  0  0  0  0  0  0  0  0  0
    4.7621    0.2651   -2.6069 H   0  0  0  0  0  0  0  0  0  0  0  0
    3.3589    1.1984   -2.0060 H   0  0  0  0  0  0  0  0  0  0  0  0
    4.7806    0.9206   -0.9442 H   0  0  0  0  0  0  0  0  0  0  0  0
    3.6676    0.5376    1.8338 H   0  0  0  0  0  0  0  0  0  0  0  0
    3.0239    1.6232    0.5635 H   0  0  0  0  0  0  0  0  0  0  0  0
    1.7736    2.1864    2.6425 H   0  0  0  0  0  0  0  0  0  0  0  0
    1.4000    0.4518    2.9372 H   0  0  0  0  0  0  0  0  0  0  0  0
  1  4  1  0  0  0  0
  1 10  1  1  0  0  0
  2 25  1  1  0  0  0
  2 11  1  0  0  0  0
  3 18  1  0  0  0  0
  3 24  1  1  0  0  0
  4 26  1  6  0  0  0
  4  8  1  0  0  0  0
  5 27  1  0  0  0  0
  5  4  1  0  0  0  0
  5 28  1  0  0  0  0
  6  5  1  0  0  0  0
  7  6  1  0  0  0  0
  7 31  1  1  0  0  0
  7  1  1  0  0  0  0
  8 33  1  0  0  0  0
  8 32  1  0  0  0  0
  8 34  1  0  0  0  0
  9 36  1  0  0  0  0
  9  7  1  0  0  0  0
 10 39  1  0  0  0  0
 10 11  1  0  0  0  0
 11 41  1  0  0  0  0
 11 40  1  0  0  0  0
 12  2  1  0  0  0  0
 12 13  1  0  0  0  0
 13 42  1  0  0  0  0
 14 43  1  0  0  0  0
 14 13  2  0  0  0  0
 15 14  1  0  0  0  0
 16 17  1  0  0  0  0
 16 15  2  0  0  0  0
 17 12  2  0  0  0  0
 18 22  1  0  0  0  0
 18 47  1  1  0  0  0
 19 48  1  0  0  0  0
 19 18  1  0  0  0  0
 20 50  1  0  0  0  0
 20 19  1  0  0  0  0
 21 52  1  6  0  0  0
 21 20  1  0  0  0  0
 21  3  1  0  0  0  0
 22 53  1  0  0  0  0
 22 54  1  0  0  0  0
 23 21  1  0  0  0  0
 23 58  1  0  0  0  0
 24 59  1  0  0  0  0
 24 25  1  0  0  0  0
 25 61  1  0  0  0  0
 25 62  1  0  0  0  0
 29  6  1  0  0  0  0
 30  6  1  0  0  0  0
 35  9  1  0  0  0  0
 37  9  1  0  0  0  0
 38 10  1  0  0  0  0
 44 15  1  0  0  0  0
 45 16  1  0  0  0  0
 46 17  1  0  0  0  0
 49 19  1  0  0  0  0
 51 20  1  0  0  0  0
 55 22  1  0  0  0  0
 56 23  1  0  0  0  0
 57 23  1  0  0  0  0
 60 24  1  0  0  0  0
M  END
