2,3,4
q = 0.0, confidence = 0.998

 44 43  0  0  0  0  0  0  0  0999 V2000
   -2.6932    0.0027    0.0000 Si  0  0  0  0  0  0  0  0  0  0  0  0
    0.5135   -1.1850   -1.6379 P   0  0  0  0  0  0  0  0  0  0  0  0
    0.5164   -0.8322    1.8441 P   0  0  0  0  0  0  0  0  0  0  0  0
    0.5127    2.0126   -0.2042 P   0  0  0  0  0  0  0  0  0  0  0  0
    0.5790   -3.0329   -1.4770 C   0  0  0  0  0  0  0  0  0  0  0  0
   -1.2771   -0.9765   -2.1717 C   0  0  0  0  0  0  0  0  0  0  0  0
    1.3250   -0.9436   -3.2881 C   0  0  0  0  0  0  0  0  0  0  0  0
   -1.2761   -1.3925    1.9256 C   0  0  0  0  0  0  0  0  0  0  0  0
    0.5851    0.2245    3.3683 C   0  0  0  0  0  0  0  0  0  0  0  0
    1.3251   -2.3860    2.4530 C   0  0  0  0  0  0  0  0  0  0  0  0
   -1.2780    2.3683    0.2447 C   0  0  0  0  0  0  0  0  0  0  0  0
    1.3218    3.3198    0.8333 C   0  0  0  0  0  0  0  0  0  0  0  0
    0.5805    2.7997   -1.8834 C   0  0  0  0  0  0  0  0  0  0  0  0
   -4.5525   -0.0044    0.0019 C   0  0  0  0  0  0  0  0  0  0  0  0
   -2.1748   -1.1560   -1.0963 O   0  0  0  0  0  0  0  0  0  0  0  0
   -2.1663   -0.3622    1.5505 O   0  0  0  0  0  0  0  0  0  0  0  0
   -2.1774    1.5327   -0.4538 O   0  0  0  0  0  0  0  0  0  0  0  0
    1.6042   -3.3333   -1.1848 H   0  0  0  0  0  0  0  0  0  0  0  0
    0.2912   -3.5546   -2.4136 H   0  0  0  0  0  0  0  0  0  0  0  0
   -0.1161   -3.3372   -0.6696 H   0  0  0  0  0  0  0  0  0  0  0  0
   -1.5256   -1.7214   -2.9611 H   0  0  0  0  0  0  0  0  0  0  0  0
   -1.3641    0.0400   -2.6205 H   0  0  0  0  0  0  0  0  0  0  0  0
    2.3959   -1.2099   -3.1930 H   0  0  0  0  0  0  0  0  0  0  0  0
    1.2691    0.1279   -3.5633 H   0  0  0  0  0  0  0  0  0  0  0  0
    0.8651   -1.5570   -4.0915 H   0  0  0  0  0  0  0  0  0  0  0  0
   -1.5272   -1.7110    2.9626 H   0  0  0  0  0  0  0  0  0  0  0  0
   -1.3667   -2.2829    1.2615 H   0  0  0  0  0  0  0  0  0  0  0  0
   -0.1085    1.0776    3.2320 H   0  0  0  0  0  0  0  0  0  0  0  0
    1.6112    0.6252    3.4831 H   0  0  0  0  0  0  0  0  0  0  0  0
    0.2970   -0.3290    4.2864 H   0  0  0  0  0  0  0  0  0  0  0  0
    2.3960   -2.1724    2.6379 H   0  0  0  0  0  0  0  0  0  0  0  0
    1.2690   -3.1566    1.6593 H   0  0  0  0  0  0  0  0  0  0  0  0
    0.8641   -2.7786    3.3839 H   0  0  0  0  0  0  0  0  0  0  0  0
   -1.5259    3.4264    0.0027 H   0  0  0  0  0  0  0  0  0  0  0  0
   -1.3630    2.2387    1.3483 H   0  0  0  0  0  0  0  0  0  0  0  0
    2.3923    3.3744    0.5542 H   0  0  0  0  0  0  0  0  0  0  0  0
    1.2678    3.0195    1.8982 H   0  0  0  0  0  0  0  0  0  0  0  0
    0.8591    4.3213    0.7067 H   0  0  0  0  0  0  0  0  0  0  0  0
   -0.1108    2.2510   -2.5532 H   0  0  0  0  0  0  0  0  0  0  0  0
    1.6073    2.6999   -2.2863 H   0  0  0  0  0  0  0  0  0  0  0  0
    0.2896    3.8708   -1.8666 H   0  0  0  0  0  0  0  0  0  0  0  0
   -4.9440    0.5947    0.8477 H   0  0  0  0  0  0  0  0  0  0  0  0
   -4.9364   -1.0393    0.0992 H   0  0  0  0  0  0  0  0  0  0  0  0
   -4.9433    0.4256   -0.9415 H   0  0  0  0  0  0  0  0  0  0  0  0
  1 14  1  0  0  0  0
  1 16  1  0  0  0  0
  2  5  1  0  0  0  0
  3  8  1  0  0  0  0
  3 10  1  0  0  0  0
  3  9  1  0  0  0  0
  4 11  1  0  0  0  0
  4 12  1  0  0  0  0
  5 18  1  0  0  0  0
  5 20  1  0  0  0  0
  6  2  1  0  0  0  0
  6 15  1  0  0  0  0
  7 23  1  0  0  0  0
  7  2  1  0  0  0  0
  8 26  1  0  0  0  0
  9 29  1  0  0  0  0
  9 30  1  0  0  0  0
 10 31  1  0  0  0  0
 10 33  1  0  0  0  0
 11 35  1  0  0  0  0
 12 37  1  0  0  0  0
 13 41  1  0  0  0  0
 13  4  1  0  0  0  0
 14 43  1  0  0  0  0
 14 42  1  0  0  0  0
 15  1  1  0  0  0  0
 16  8  1  0  0  0  0
 17  1  1  0  0  0  0
 17 11  1  0  0  0  0
 19  5  1  0  0  0  0
 21  6  1  0  0  0  0
 22  6  1  0  0  0  0
 24  7  1  0  0  0  0
 25  7  1  0  0  0  0
 27  8  1  0  0  0  0
 28  9  1  0  0  0  0
 32 10  1  0  0  0  0
 34 11  1  0  0  0  0
 36 12  1  0  0  0  0
 38 12  1  0  0  0  0
 39 13  1  0  0  0  0
 40 13  1  0  0  0  0
 44 14  1  0  0  0  0
M  END
