2,54
q = 0.0, confidence = 0.95

 60 61  0  0  0  0  0  0  0  0999 V2000
    1.7774    0.1922    0.1790 P   0  0  0  0  0  0  0  0  0  0  0  0
   -1.0718    0.7234   -0.9778 Si  0  0  1  0  0  3  0  0  0  0  0  0
   -2.4186   -0.5914    1.6204 N   0  0  0  0  0  0  0  0  0  0  0  0
   -1.2658    1.0003   -2.8651 C   0  0  0  0  0  0  0  0  0  0  0  0
   -0.3216    0.8023   -3.4061 H   0  0  0  0  0  0  0  0  0  0  0  0
   -1.5646    2.0451   -3.0906 H   0  0  0  0  0  0  0  0  0  0  0  0
   -2.0510    0.3320   -3.2744 H   0  0  0  0  0  0  0  0  0  0  0  0
   -0.0621    2.2148   -0.3228 C   0  0  0  0  0  0  0  0  0  0  0  0
    1.2143    1.9637    0.2350 C   0  0  0  0  0  0  0  0  0  0  0  0
    1.9811    3.0330    0.7488 C   0  0  0  0  0  0  0  0  0  0  0  0
    2.9744    2.8545    1.1829 H   0  0  0  0  0  0  0  0  0  0  0  0
    1.4849    4.3438    0.7120 C   0  0  0  0  0  0  0  0  0  0  0  0
    2.0895    5.1682    1.1205 H   0  0  0  0  0  0  0  0  0  0  0  0
    0.2193    4.6007    0.1582 C   0  0  0  0  0  0  0  0  0  0  0  0
   -0.1735    5.6293    0.1343 H   0  0  0  0  0  0  0  0  0  0  0  0
   -0.5431    3.5410   -0.3521 C   0  0  0  0  0  0  0  0  0  0  0  0
   -1.5455    3.7419   -0.7650 H   0  0  0  0  0  0  0  0  0  0  0  0
   -2.8519    0.8604   -0.3068 C   0  0  0  0  0  0  0  0  0  0  0  0
   -3.3066    0.1406    0.8498 C   0  0  0  0  0  0  0  0  0  0  0  0
   -4.6886    0.1866    1.1935 C   0  0  0  0  0  0  0  0  0  0  0  0
   -5.0578   -0.3512    2.0764 H   0  0  0  0  0  0  0  0  0  0  0  0
   -5.5958    0.9348    0.4371 C   0  0  0  0  0  0  0  0  0  0  0  0
   -6.6548    0.9566    0.7391 H   0  0  0  0  0  0  0  0  0  0  0  0
   -5.1648    1.6557   -0.6863 C   0  0  0  0  0  0  0  0  0  0  0  0
   -5.8736    2.2501   -1.2818 H   0  0  0  0  0  0  0  0  0  0  0  0
   -3.8082    1.5951   -1.0406 C   0  0  0  0  0  0  0  0  0  0  0  0
   -3.4812    2.1402   -1.9403 H   0  0  0  0  0  0  0  0  0  0  0  0
    2.7260   -0.1095    1.8651 C   0  0  0  0  0  0  0  0  0  0  0  0
    1.9267    0.5561    3.0025 C   0  0  0  0  0  0  0  0  0  0  0  0
    0.8784    0.2143    3.0408 H   0  0  0  0  0  0  0  0  0  0  0  0
    1.9160    1.6589    2.9222 H   0  0  0  0  0  0  0  0  0  0  0  0
    2.4021    0.2916    3.9716 H   0  0  0  0  0  0  0  0  0  0  0  0
    2.7427   -1.6300    2.1008 C   0  0  0  0  0  0  0  0  0  0  0  0
    3.3255   -2.1655    1.3256 H   0  0  0  0  0  0  0  0  0  0  0  0
    1.7168   -2.0451    2.0989 H   0  0  0  0  0  0  0  0  0  0  0  0
    3.2133   -1.8448    3.0839 H   0  0  0  0  0  0  0  0  0  0  0  0
    4.1745    0.4036    1.9472 C   0  0  0  0  0  0  0  0  0  0  0  0
    4.8458   -0.0746    1.2104 H   0  0  0  0  0  0  0  0  0  0  0  0
    4.5727    0.1585    2.9557 H   0  0  0  0  0  0  0  0  0  0  0  0
    4.2551    1.5008    1.8316 H   0  0  0  0  0  0  0  0  0  0  0  0
    3.0991    0.2671   -1.2476 C   0  0  0  0  0  0  0  0  0  0  0  0
    2.2982    0.4386   -2.5493 C   0  0  0  0  0  0  0  0  0  0  0  0
    1.7476    1.3998   -2.5550 H   0  0  0  0  0  0  0  0  0  0  0  0
    1.5633   -0.3733   -2.6918 H   0  0  0  0  0  0  0  0  0  0  0  0
    2.9990    0.4455   -3.4112 H   0  0  0  0  0  0  0  0  0  0  0  0
    3.8810   -1.0555   -1.2940 C   0  0  0  0  0  0  0  0  0  0  0  0
    4.5674   -1.1737   -0.4337 H   0  0  0  0  0  0  0  0  0  0  0  0
    4.5009   -1.0866   -2.2156 H   0  0  0  0  0  0  0  0  0  0  0  0
    3.2041   -1.9282   -1.3140 H   0  0  0  0  0  0  0  0  0  0  0  0
    4.0762    1.4526   -1.1666 C   0  0  0  0  0  0  0  0  0  0  0  0
    3.5450    2.4225   -1.2005 H   0  0  0  0  0  0  0  0  0  0  0  0
    4.7446    1.4132   -2.0536 H   0  0  0  0  0  0  0  0  0  0  0  0
    4.7220    1.4372   -0.2725 H   0  0  0  0  0  0  0  0  0  0  0  0
   -0.9872   -0.3835    1.4948 C   0  0  0  0  0  3  0  0  0  0  0  0
   -0.5164   -0.9121    2.3444 H   0  0  0  0  0  0  0  0  0  0  0  0
   -0.7691    0.6999    1.6282 H   0  0  0  0  0  0  0  0  0  0  0  0
   -2.9071   -1.3710    2.7355 C   0  0  0  0  0  0  0  0  0  0  0  0
   -3.2720   -0.7430    3.5848 H   0  0  0  0  0  0  0  0  0  0  0  0
   -2.0880   -2.0080    3.1193 H   0  0  0  0  0  0  0  0  0  0  0  0
   -3.7452   -2.0375    2.4350 H   0  0  0  0  0  0  0  0  0  0  0  0
  1  9  1  0  0  0  0
  1 28  1  0  0  0  0
  2  4  1  6  0  0  0
  2  8  1  0  0  0  0
  2 18  1  0  0  0  0
  3 57  1  0  0  0  0
  5  4  1  0  0  0  0
  6  4  1  0  0  0  0
  7  4  1  0  0  0  0
  8  9  1  0  0  0  0
  9 10  2  0  0  0  0
 10 11  1  0  0  0  0
 12 10  1  0  0  0  0
 12 13  1  0  0  0  0
 14 12  2  0  0  0  0
 15 14  1  0  0  0  0
 16  8  2  0  0  0  0
 16 14  1  0  0  0  0
 17 16  1  0  0  0  0
 18 19  1  0  0  0  0
 19 20  2  0  0  0  0
 19  3  1  0  0  0  0
 20 21  1  0  0  0  0
 22 23  1  0  0  0  0
 22 20  1  0  0  0  0
 24 22  2  0  0  0  0
 25 24  1  0  0  0  0
 26 24  1  0  0  0  0
 26 18  2  0  0  0  0
 27 26  1  0  0  0  0
 28 37  1  0  0  0  0
 28 33  1  0  0  0  0
 28 29  1  0  0  0  0
 29 30  1  0  0  0  0
 29 32  1  0  0  0  0
 31 29  1  0  0  0  0
 33 36  1  0  0  0  0
 34 33  1  0  0  0  0
 35 33  1  0  0  0  0
 37 39  1  0  0  0  0
 38 37  1  0  0  0  0
 40 37  1  0  0  0  0
 41 50  1  0  0  0  0
 41  1  1  0  0  0  0
 42 41  1  0  0  0  0
 43 42  1  0  0  0  0
 44 42  1  0  0  0  0
 45 42  1  0  0  0  0
 46 41  1  0  0  0  0
 46 47  1  0  0  0  0
 48 46  1  0  0  0  0
 49 46  1  0  0  0  0
 50 53  1  0  0  0  0
 51 50  1  0  0  0  0
 52 50  1  0  0  0  0
 54  3  1  0  0  0  0
 54 56  1  0  0  0  0
 54 55  1  0  0  0  0
 57 59  1  0  0  0  0
 57 58  1  0  0  0  0
 60 57  1  0  0  0  0
M  END
