1,3
q = -1.0, confidence = 0.004

  9  8  0  0  0  0  0  0  0  0999 V2000
   -2.5825    1.3485    0.0905 C   0  0  0  0  0  5  0  0  0  0  0  0
   -3.1580    2.3558    0.0184 O   0  0  0  0  0  0  0  0  0  0  0  0
    0.1227    0.8831   -0.2912 Si  0  0  0  0  0  5  0  0  0  0  0  0
    0.2877    1.5202   -2.2970 Cl  0  0  0  0  0  0  0  0  0  0  0  0
    0.4964    2.5834    0.8885 Cl  0  0  0  0  0  0  0  0  0  0  0  0
    2.0925   -0.3655    0.0543 Si  0  0  0  0  0  0  0  0  0  0  0  0
    2.2839   -1.9119   -1.3442 Cl  0  0  0  0  0  0  0  0  0  0  0  0
    1.9925   -1.2830    1.9251 Cl  0  0  0  0  0  0  0  0  0  0  0  0
    3.8225    0.7666   -0.0275 Cl  0  0  0  0  0  0  0  0  0  0  0  0
  2  1  1  0  0  0  0
  3  6  1  0  0  0  0
  3  5  1  0  0  0  0
  3  1  1  0  0  0  0
  4  3  1  0  0  0  0
  6  8  1  0  0  0  0
  7  6  1  0  0  0  0
  9  6  1  0  0  0  0
M  HYD  1   3   1
M  ZBO  1   4   0
M  END
