1,9
 OpenBabel05122313053D

 50 50  0  0  0  0  0  0  0  0999 V2000
    1.4720    0.0380    0.0555 Si  0  0  0  0  0  0  0  0  0  0  0  0
    2.7876    2.0627   -0.1304 Si  0  0  0  0  0  0  0  0  0  0  0  0
    2.4236   -1.1570   -1.8110 Si  0  0  0  0  0  0  0  0  0  0  0  0
    2.5346   -0.8951    1.9871 Si  0  0  0  0  0  0  0  0  0  0  0  0
   -2.4031   -2.0779    1.3675 C   0  0  0  0  0  0  0  0  0  0  0  0
   -1.0022   -2.1810    1.5608 C   0  0  0  0  0  0  0  0  0  0  0  0
   -0.4243   -2.6699    0.3456 C   0  0  0  0  0  0  0  0  0  0  0  0
   -1.4694   -2.8537   -0.5948 C   0  0  0  0  0  0  0  0  0  0  0  0
   -2.6947   -2.4548    0.0204 C   0  0  0  0  0  3  0  0  0  0  0  0
    3.0617    2.9968    1.5180 C   0  0  0  0  0  0  0  0  0  0  0  0
    4.5647    1.6992   -0.7319 C   0  0  0  0  0  0  0  0  0  0  0  0
    2.1531    3.3524   -1.3890 C   0  0  0  0  0  0  0  0  0  0  0  0
    4.2019   -1.7593   -1.4700 C   0  0  0  0  0  0  0  0  0  0  0  0
    1.5217   -2.7289   -2.4049 C   0  0  0  0  0  0  0  0  0  0  0  0
    2.4121   -0.0044   -3.3278 C   0  0  0  0  0  0  0  0  0  0  0  0
    2.4629   -2.8011    2.1316 C   0  0  0  0  0  0  0  0  0  0  0  0
    1.7453   -0.1697    3.5697 C   0  0  0  0  0  0  0  0  0  0  0  0
    4.4008   -0.5225    2.1198 C   0  0  0  0  0  0  0  0  0  0  0  0
   -3.1326   -1.7672    2.1204 H   0  0  0  0  0  0  0  0  0  0  0  0
   -0.4588   -1.9444    2.4823 H   0  0  0  0  0  0  0  0  0  0  0  0
    0.6349   -2.8777    0.1797 H   0  0  0  0  0  0  0  0  0  0  0  0
   -1.3523   -3.2006   -1.6262 H   0  0  0  0  0  0  0  0  0  0  0  0
   -3.6880   -2.4847   -0.4446 H   0  0  0  0  0  0  0  0  0  0  0  0
    3.8390    3.7726    1.3499 H   0  0  0  0  0  0  0  0  0  0  0  0
    2.1564    3.5076    1.8961 H   0  0  0  0  0  0  0  0  0  0  0  0
    3.4304    2.3262    2.3190 H   0  0  0  0  0  0  0  0  0  0  0  0
    5.1158    2.6640   -0.7416 H   0  0  0  0  0  0  0  0  0  0  0  0
    5.1088    1.0054   -0.0646 H   0  0  0  0  0  0  0  0  0  0  0  0
    4.5936    1.2860   -1.7582 H   0  0  0  0  0  0  0  0  0  0  0  0
    2.9618    4.0929   -1.5662 H   0  0  0  0  0  0  0  0  0  0  0  0
    1.9036    2.8838   -2.3619 H   0  0  0  0  0  0  0  0  0  0  0  0
    1.2637    3.9117   -1.0405 H   0  0  0  0  0  0  0  0  0  0  0  0
    4.6097   -2.2275   -2.3913 H   0  0  0  0  0  0  0  0  0  0  0  0
    4.8886   -0.9502   -1.1620 H   0  0  0  0  0  0  0  0  0  0  0  0
    4.2026   -2.5317   -0.6737 H   0  0  0  0  0  0  0  0  0  0  0  0
    2.0752   -3.1089   -3.2901 H   0  0  0  0  0  0  0  0  0  0  0  0
    1.5015   -3.5456   -1.6562 H   0  0  0  0  0  0  0  0  0  0  0  0
    0.4874   -2.5000   -2.7251 H   0  0  0  0  0  0  0  0  0  0  0  0
    2.7814   -0.5525   -4.2204 H   0  0  0  0  0  0  0  0  0  0  0  0
    1.3744    0.3277   -3.5353 H   0  0  0  0  0  0  0  0  0  0  0  0
    3.0437    0.8947   -3.1936 H   0  0  0  0  0  0  0  0  0  0  0  0
    3.1262   -3.1096    2.9677 H   0  0  0  0  0  0  0  0  0  0  0  0
    1.4552   -3.2070    2.3410 H   0  0  0  0  0  0  0  0  0  0  0  0
    2.8431   -3.2906    1.2114 H   0  0  0  0  0  0  0  0  0  0  0  0
    2.2328   -0.5842    4.4774 H   0  0  0  0  0  0  0  0  0  0  0  0
    1.8611    0.9332    3.5966 H   0  0  0  0  0  0  0  0  0  0  0  0
    0.6607   -0.3920    3.6363 H   0  0  0  0  0  0  0  0  0  0  0  0
    4.7807   -0.9740    3.0613 H   0  0  0  0  0  0  0  0  0  0  0  0
    4.9611   -0.9733    1.2773 H   0  0  0  0  0  0  0  0  0  0  0  0
    4.6316    0.5594    2.1471 H   0  0  0  0  0  0  0  0  0  0  0  0
  1  4  1  0  0  0  0
  1  7  1  0  0  0  0
  2  1  1  0  0  0  0
  2 10  1  0  0  0  0
  3 13  1  0  0  0  0
  3  1  1  0  0  0  0
  4 18  1  0  0  0  0
  4 16  1  0  0  0  0
  4 17  1  0  0  0  0
  5  6  2  0  0  0  0
  5 19  1  0  0  0  0
  6 20  1  0  0  0  0
  7  6  1  0  0  0  0
  8  9  1  0  0  0  0
  8  7  2  0  0  0  0
  9  5  1  0  0  0  0
 10 25  1  0  0  0  0
 10 26  1  0  0  0  0
 11  2  1  0  0  0  0
 11 28  1  0  0  0  0
 12 32  1  0  0  0  0
 12  2  1  0  0  0  0
 13 34  1  0  0  0  0
 13 35  1  0  0  0  0
 14  3  1  0  0  0  0
 14 37  1  0  0  0  0
 15 41  1  0  0  0  0
 15  3  1  0  0  0  0
 16 43  1  0  0  0  0
 16 42  1  0  0  0  0
 17 46  1  0  0  0  0
 17 47  1  0  0  0  0
 17 45  1  0  0  0  0
 18 50  1  0  0  0  0
 18 48  1  0  0  0  0
 21  7  1  0  0  0  0
 22  8  1  0  0  0  0
 23  9  1  0  0  0  0
 24 10  1  0  0  0  0
 27 11  1  0  0  0  0
 29 11  1  0  0  0  0
 30 12  1  0  0  0  0
 31 12  1  0  0  0  0
 33 13  1  0  0  0  0
 36 14  1  0  0  0  0
 38 14  1  0  0  0  0
 39 15  1  0  0  0  0
 40 15  1  0  0  0  0
 44 16  1  0  0  0  0
 49 18  1  0  0  0  0
M  HYD  1   9   0
M  ZBO  1   2   0
M  END
