1,4
 OpenBabel05122313053D

 30 30  0  0  0  0  0  0  0  0999 V2000
    1.9291   -1.4253    0.8310 Si  0  0  0  0  0  3  0  0  0  0  0  0
    1.6342    1.5581   -0.2840 Si  0  0  0  0  0  0  0  0  0  0  0  0
    1.3081   -0.5997   -2.3069 O   0  0  0  0  0  0  0  0  0  0  0  0
    0.8269   -0.2886   -1.2649 C   0  0  0  0  0  3  0  0  0  0  0  0
    3.4935   -0.4617    0.2639 C   0  0  0  0  0  0  0  0  0  0  0  0
    4.7772   -1.0362    0.3614 C   0  0  0  0  0  0  0  0  0  0  0  0
    5.9128   -0.3536   -0.1066 C   0  0  0  0  0  0  0  0  0  0  0  0
    5.7809    0.9196   -0.6826 C   0  0  0  0  0  0  0  0  0  0  0  0
    4.5116    1.5123   -0.7813 C   0  0  0  0  0  0  0  0  0  0  0  0
    3.3715    0.8347   -0.3073 C   0  0  0  0  0  0  0  0  0  0  0  0
    1.9403   -3.1254    0.0010 C   0  0  0  0  0  0  0  0  0  0  0  0
    2.0765   -1.6902    2.7109 C   0  0  0  0  0  0  0  0  0  0  0  0
    1.4247    3.1103   -1.3104 C   0  0  0  0  0  0  0  0  0  0  0  0
    1.1050    1.5871    1.5431 C   0  0  0  0  0  0  0  0  0  0  0  0
    4.9011   -2.0414    0.7982 H   0  0  0  0  0  0  0  0  0  0  0  0
    6.9064   -0.8218   -0.0288 H   0  0  0  0  0  0  0  0  0  0  0  0
    6.6691    1.4516   -1.0568 H   0  0  0  0  0  0  0  0  0  0  0  0
    4.4165    2.5134   -1.2329 H   0  0  0  0  0  0  0  0  0  0  0  0
    1.0531   -3.7118    0.3142 H   0  0  0  0  0  0  0  0  0  0  0  0
    2.8482   -3.6943    0.2894 H   0  0  0  0  0  0  0  0  0  0  0  0
    1.9273   -3.0258   -1.1016 H   0  0  0  0  0  0  0  0  0  0  0  0
    2.0472   -0.7385    3.2775 H   0  0  0  0  0  0  0  0  0  0  0  0
    3.0418   -2.1895    2.9376 H   0  0  0  0  0  0  0  0  0  0  0  0
    1.2553   -2.3383    3.0768 H   0  0  0  0  0  0  0  0  0  0  0  0
    2.1608    3.8843   -1.0106 H   0  0  0  0  0  0  0  0  0  0  0  0
    0.4062    3.5277   -1.2136 H   0  0  0  0  0  0  0  0  0  0  0  0
    1.6038    2.8617   -2.3761 H   0  0  0  0  0  0  0  0  0  0  0  0
    0.3918    0.7596    1.9158 H   0  0  0  0  0  0  0  0  0  0  0  0
    0.6006    2.5308    1.8213 H   0  0  0  0  0  0  0  0  0  0  0  0
    2.0047    1.4186    2.1676 H   0  0  0  0  0  0  0  0  0  0  0  0
  1 12  1  0  0  0  0
  2 14  1  0  0  0  0
  3  4  2  0  0  0  0
  4  2  1  0  0  0  0
  5  6  1  0  0  0  0
  5  1  1  0  0  0  0
  6 15  1  0  0  0  0
  7 16  1  0  0  0  0
  7  6  2  0  0  0  0
  8  7  1  0  0  0  0
  9  8  2  0  0  0  0
  9 10  1  0  0  0  0
 10  2  1  0  0  0  0
 10  5  2  0  0  0  0
 11 20  1  0  0  0  0
 11 19  1  0  0  0  0
 11  1  1  0  0  0  0
 12 23  1  0  0  0  0
 12 24  1  0  0  0  0
 12 22  1  0  0  0  0
 13 26  1  0  0  0  0
 13 25  1  0  0  0  0
 13  2  1  0  0  0  0
 14 29  1  0  0  0  0
 14 28  1  0  0  0  0
 14 30  1  0  0  0  0
 17  8  1  0  0  0  0
 18  9  1  0  0  0  0
 21 11  1  0  0  0  0
 27 13  1  0  0  0  0
M  END
