1,34
 OpenBabel05122313053D

 35 35  0  0  0  0  0  0  0  0999 V2000
    0.0028    0.4120   -0.0020 Si  0  0  1  0  0  0  0  0  0  0  0  0
    1.2672    1.6511    0.0581 N   0  0  0  0  0  0  0  0  0  0  0  0
    0.6978    2.9226    0.0244 C   0  0  0  0  0  0  0  0  0  0  0  0
    1.3244    3.8212    0.0366 H   0  0  0  0  0  0  0  0  0  0  0  0
    2.7595    1.5377    0.0740 C   0  0  0  0  0  0  0  0  0  0  0  0
    3.1965    0.0878    0.3116 C   0  0  0  0  0  0  0  0  0  0  0  0
    2.7726   -0.3190    1.2494 H   0  0  0  0  0  0  0  0  0  0  0  0
    4.3008    0.0549    0.3888 H   0  0  0  0  0  0  0  0  0  0  0  0
    2.8997   -0.5768   -0.5193 H   0  0  0  0  0  0  0  0  0  0  0  0
    3.2987    2.0128   -1.2890 C   0  0  0  0  0  0  0  0  0  0  0  0
    3.0152    3.0637   -1.4965 H   0  0  0  0  0  0  0  0  0  0  0  0
    2.8943    1.3780   -2.1026 H   0  0  0  0  0  0  0  0  0  0  0  0
    4.4047    1.9462   -1.3116 H   0  0  0  0  0  0  0  0  0  0  0  0
    3.3224    2.4033    1.2191 C   0  0  0  0  0  0  0  0  0  0  0  0
    2.8937    2.0868    2.1906 H   0  0  0  0  0  0  0  0  0  0  0  0
    3.1122    3.4816    1.0826 H   0  0  0  0  0  0  0  0  0  0  0  0
    4.4225    2.2851    1.2694 H   0  0  0  0  0  0  0  0  0  0  0  0
   -0.6660    2.9298   -0.0248 C   0  0  0  0  0  0  0  0  0  0  0  0
   -1.2486    1.6643   -0.0605 N   0  0  0  0  0  0  0  0  0  0  0  0
   -2.7421    1.5664   -0.0748 C   0  0  0  0  0  0  0  0  0  0  0  0
   -3.1943    0.1225   -0.3206 C   0  0  0  0  0  0  0  0  0  0  0  0
   -2.7742   -0.2837   -1.2605 H   0  0  0  0  0  0  0  0  0  0  0  0
   -4.2989    0.1017   -0.3985 H   0  0  0  0  0  0  0  0  0  0  0  0
   -2.9049   -0.5500    0.5066 H   0  0  0  0  0  0  0  0  0  0  0  0
   -3.2741    2.0386    1.2920 C   0  0  0  0  0  0  0  0  0  0  0  0
   -2.9790    3.0852    1.5052 H   0  0  0  0  0  0  0  0  0  0  0  0
   -2.8749    1.3946    2.1010 H   0  0  0  0  0  0  0  0  0  0  0  0
   -4.3806    1.9835    1.3163 H   0  0  0  0  0  0  0  0  0  0  0  0
   -3.2982    2.4445   -1.2136 C   0  0  0  0  0  0  0  0  0  0  0  0
   -2.8738    2.1302   -2.1878 H   0  0  0  0  0  0  0  0  0  0  0  0
   -3.0780    3.5199   -1.0707 H   0  0  0  0  0  0  0  0  0  0  0  0
   -4.3994    2.3369   -1.2631 H   0  0  0  0  0  0  0  0  0  0  0  0
   -1.2831    3.8349   -0.0362 H   0  0  0  0  0  0  0  0  0  0  0  0
    0.6564   -1.4844   -1.6272 C   0  0  0  0  0  3  0  0  0  0  0  0
    1.1104   -1.2934   -2.6868 O   0  0  0  0  0  1  0  0  0  0  0  0
  1  2  1  0  0  0  0
  1 34  2  6  0  0  0
  2  5  1  0  0  0  0
  3  4  1  0  0  0  0
  3  2  1  0  0  0  0
  5  6  1  0  0  0  0
  5 14  1  0  0  0  0
  6  8  1  0  0  0  0
  6  7  1  0  0  0  0
  9  6  1  0  0  0  0
 10  5  1  0  0  0  0
 11 10  1  0  0  0  0
 12 10  1  0  0  0  0
 13 10  1  0  0  0  0
 14 17  1  0  0  0  0
 14 15  1  0  0  0  0
 16 14  1  0  0  0  0
 18  3  2  0  0  0  0
 19 18  1  0  0  0  0
 19  1  1  0  0  0  0
 20 19  1  0  0  0  0
 20 25  1  0  0  0  0
 21 20  1  0  0  0  0
 21 24  1  0  0  0  0
 22 21  1  0  0  0  0
 23 21  1  0  0  0  0
 25 28  1  0  0  0  0
 25 26  1  0  0  0  0
 25 27  1  0  0  0  0
 29 31  1  0  0  0  0
 29 20  1  0  0  0  0
 30 29  1  0  0  0  0
 32 29  1  0  0  0  0
 33 18  1  0  0  0  0
 35 34  1  0  0  0  0
M  HYD  2  34   0  35   0
M  ZBO  1   2   0
M  END
