1,6
 OpenBabel05122313053D

 12 11  0  0  0  0  0  0  0  0999 V2000
   -1.3370    0.0198    0.1950 Si  0  0  0  0  0  3  0  0  0  0  0  0
   -2.3463   -1.8078    0.0077 Cl  0  0  0  0  0  0  0  0  0  0  0  0
   -2.3207    1.3202   -1.1307 Cl  0  0  0  0  0  0  0  0  0  0  0  0
   -1.4981    0.7185    1.9425 C   0  0  0  0  0  0  0  0  0  0  0  0
   -0.3138    1.6817    2.0862 C   0  0  0  0  0  0  0  0  0  0  0  0
    1.0196    1.0196    1.7407 C   0  0  0  0  0  3  0  0  0  0  0  0
   -1.4135   -0.1340    2.6510 H   0  0  0  0  0  0  0  0  0  0  0  0
   -2.4821    1.2024    2.1031 H   0  0  0  0  0  0  0  0  0  0  0  0
   -0.2590    2.0775    3.1265 H   0  0  0  0  0  0  0  0  0  0  0  0
   -0.4825    2.5661    1.4338 H   0  0  0  0  0  0  0  0  0  0  0  0
    1.8406    1.7566    1.6613 H   0  0  0  0  0  0  0  0  0  0  0  0
    1.3110    0.2870    2.5180 H   0  0  0  0  0  0  0  0  0  0  0  0
  1  4  1  0  0  0  0
  2  1  1  0  0  0  0
  3  1  1  0  0  0  0
  4  5  1  0  0  0  0
  4  8  1  0  0  0  0
  4  7  1  0  0  0  0
  5  9  1  0  0  0  0
  6  5  1  0  0  0  0
  6 12  1  0  0  0  0
 10  5  1  0  0  0  0
 11  6  1  0  0  0  0
M  END
