1,2
 OpenBabel05122313053D

 18 17  0  0  0  0  0  0  0  0999 V2000
    2.3494    0.2242   -0.5650 Si  0  0  0  0  0  3  0  0  0  0  0  0
   -0.0786    0.0618   -2.4227 C   0  0  0  0  0  3  0  0  0  0  0  0
   -1.0572    0.2482   -2.9048 H   0  0  0  0  0  0  0  0  0  0  0  0
    0.7226    0.6375   -2.9193 H   0  0  0  0  0  0  0  0  0  0  0  0
    0.2464   -1.3228   -2.0266 C   0  0  0  0  0  3  0  0  0  0  0  0
   -0.5284   -2.0878   -2.2086 H   0  0  0  0  0  0  0  0  0  0  0  0
    1.6323   -1.8125   -2.2735 C   0  0  0  0  0  0  0  0  0  0  0  0
    1.7326   -2.6764   -2.9621 H   0  0  0  0  0  0  0  0  0  0  0  0
    2.7239   -1.1921   -1.7651 C   0  0  0  0  0  0  0  0  0  0  0  0
    3.7341   -1.5076   -2.0847 H   0  0  0  0  0  0  0  0  0  0  0  0
    2.9336    1.8469   -1.4179 C   0  0  0  0  0  0  0  0  0  0  0  0
    3.9698    1.7108   -1.7947 H   0  0  0  0  0  0  0  0  0  0  0  0
    2.9488    2.7211   -0.7338 H   0  0  0  0  0  0  0  0  0  0  0  0
    2.2924    2.1018   -2.2853 H   0  0  0  0  0  0  0  0  0  0  0  0
    3.6205    0.0534    0.8702 C   0  0  0  0  0  0  0  0  0  0  0  0
    4.6366    0.1517    0.4312 H   0  0  0  0  0  0  0  0  0  0  0  0
    3.5803   -0.9298    1.3790 H   0  0  0  0  0  0  0  0  0  0  0  0
    3.5195    0.8431    1.6418 H   0  0  0  0  0  0  0  0  0  0  0  0
  1 15  1  0  0  0  0
  2  5  1  0  0  0  0
  3  2  1  0  0  0  0
  4  2  1  0  0  0  0
  6  5  1  0  0  0  0
  7  5  1  0  0  0  0
  7  9  2  0  0  0  0
  8  7  1  0  0  0  0
  9  1  1  0  0  0  0
 10  9  1  0  0  0  0
 11 13  1  0  0  0  0
 11  1  1  0  0  0  0
 12 11  1  0  0  0  0
 14 11  1  0  0  0  0
 15 17  1  0  0  0  0
 15 18  1  0  0  0  0
 16 15  1  0  0  0  0
M  END
