1,4
q = -1.0, confidence = 0.0

 52 53  0  0  1  0  0  0  0  0999 V2000
    0.0729   -0.8132    0.3259 Si  0  0  1  0  0  3  0  0  0  0  0  0
   -0.2088   -2.7411    1.2326 Cl  0  0  0  0  0  0  0  0  0  0  0  0
   -1.7035    1.6842    0.6591 C   0  0  2  0  0  3  0  0  0  0  0  0
   -1.5091    0.5322    1.5129 C   0  0  1  0  0  3  0  0  0  0  0  0
    0.0118    0.4485    1.8003 C   0  0  2  0  0  0  0  0  0  0  0  0
    0.5646    1.7167    1.2338 C   0  0  0  0  0  0  0  0  0  0  0  0
   -0.4075    2.3722    0.5079 C   0  0  0  0  0  0  0  0  0  0  0  0
   -2.9790    2.4873    0.5544 C   0  0  0  0  0  0  0  0  0  0  0  0
   -3.8777    1.8829    0.7732 H   0  0  0  0  0  0  0  0  0  0  0  0
   -3.1097    2.9330   -0.4514 H   0  0  0  0  0  0  0  0  0  0  0  0
   -2.9516    3.3287    1.2835 H   0  0  0  0  0  0  0  0  0  0  0  0
   -2.4935   -0.0289    2.5038 C   0  0  0  0  0  0  0  0  0  0  0  0
   -2.3794    0.4728    3.4910 H   0  0  0  0  0  0  0  0  0  0  0  0
   -2.3280   -1.1131    2.6604 H   0  0  0  0  0  0  0  0  0  0  0  0
   -3.5384    0.1080    2.1670 H   0  0  0  0  0  0  0  0  0  0  0  0
    0.4834    0.0029    3.1756 C   0  0  0  0  0  0  0  0  0  0  0  0
    1.5891   -0.0637    3.2052 H   0  0  0  0  0  0  0  0  0  0  0  0
    0.0887   -0.9965    3.4399 H   0  0  0  0  0  0  0  0  0  0  0  0
    0.1668    0.7240    3.9599 H   0  0  0  0  0  0  0  0  0  0  0  0
    1.9695    2.1527    1.4927 C   0  0  0  0  0  0  0  0  0  0  0  0
    2.2852    2.9709    0.8190 H   0  0  0  0  0  0  0  0  0  0  0  0
    2.6824    1.3137    1.3746 H   0  0  0  0  0  0  0  0  0  0  0  0
    2.0712    2.5200    2.5381 H   0  0  0  0  0  0  0  0  0  0  0  0
   -0.2492    3.6139   -0.3132 C   0  0  0  0  0  0  0  0  0  0  0  0
   -0.8322    4.4643    0.1020 H   0  0  0  0  0  0  0  0  0  0  0  0
   -0.6204    3.4521   -1.3479 H   0  0  0  0  0  0  0  0  0  0  0  0
    0.8082    3.9335   -0.3823 H   0  0  0  0  0  0  0  0  0  0  0  0
    1.6359   -1.0226   -0.8383 C   0  0  2  0  0  0  0  0  0  0  0  0
    2.8809   -1.2620   -0.0086 C   0  0  0  0  0  0  0  0  0  0  0  0
    3.7489   -0.2132   -0.2222 C   0  0  0  0  0  0  0  0  0  0  0  0
    3.1473    0.7441   -1.1621 C   0  0  0  0  0  0  0  0  0  0  0  0
    1.9014    0.2982   -1.5334 C   0  0  0  0  0  0  0  0  0  0  0  0
    1.3371   -2.1682   -1.8260 C   0  0  0  0  0  0  0  0  0  0  0  0
    0.4674   -1.9315   -2.4697 H   0  0  0  0  0  0  0  0  0  0  0  0
    1.1215   -3.1173   -1.2967 H   0  0  0  0  0  0  0  0  0  0  0  0
    2.2181   -2.3233   -2.4832 H   0  0  0  0  0  0  0  0  0  0  0  0
    3.1386   -2.4955    0.7991 C   0  0  0  0  0  0  0  0  0  0  0  0
    4.1775   -2.5136    1.1811 H   0  0  0  0  0  0  0  0  0  0  0  0
    2.9889   -3.4169    0.1955 H   0  0  0  0  0  0  0  0  0  0  0  0
    2.4522   -2.5919    1.6658 H   0  0  0  0  0  0  0  0  0  0  0  0
    5.1153   -0.0169    0.3617 C   0  0  0  0  0  0  0  0  0  0  0  0
    5.4212   -0.8602    1.0096 H   0  0  0  0  0  0  0  0  0  0  0  0
    5.1663    0.9097    0.9749 H   0  0  0  0  0  0  0  0  0  0  0  0
    5.8836    0.0965   -0.4328 H   0  0  0  0  0  0  0  0  0  0  0  0
    3.8482    1.9902   -1.6094 C   0  0  0  0  0  0  0  0  0  0  0  0
    4.7808    1.7548   -2.1666 H   0  0  0  0  0  0  0  0  0  0  0  0
    4.1545    2.6191   -0.7460 H   0  0  0  0  0  0  0  0  0  0  0  0
    3.2139    2.6122   -2.2697 H   0  0  0  0  0  0  0  0  0  0  0  0
    0.9542    0.9301   -2.4999 C   0  0  0  0  0  0  0  0  0  0  0  0
    1.3153    1.9205   -2.8373 H   0  0  0  0  0  0  0  0  0  0  0  0
   -0.0528    1.0603   -2.0453 H   0  0  0  0  0  0  0  0  0  0  0  0
    0.8095    0.3033   -3.4084 H   0  0  0  0  0  0  0  0  0  0  0  0
  1  2  1  1  0  0  0
  1  5  1  0  0  0  0
  3  8  1  1  0  0  0
  3  4  1  0  0  0  0
  4  5  1  0  0  0  0
  4 12  1  1  0  0  0
  5 16  1  1  0  0  0
  6 20  1  0  0  0  0
  6  5  1  0  0  0  0
  7  3  1  0  0  0  0
  7  6  2  0  0  0  0
  8  9  1  0  0  0  0
  8 11  1  0  0  0  0
 10  8  1  0  0  0  0
 12 14  1  0  0  0  0
 12 13  1  0  0  0  0
 15 12  1  0  0  0  0
 16 17  1  0  0  0  0
 16 18  1  0  0  0  0
 16 19  1  0  0  0  0
 20 23  1  0  0  0  0
 21 20  1  0  0  0  0
 22 20  1  0  0  0  0
 24 25  1  0  0  0  0
 24  7  1  0  0  0  0
 26 24  1  0  0  0  0
 27 24  1  0  0  0  0
 28 33  1  6  0  0  0
 28 29  1  0  0  0  0
 28  1  1  0  0  0  0
 29 37  1  0  0  0  0
 30 29  2  0  0  0  0
 30 41  1  0  0  0  0
 31 30  1  0  0  0  0
 32 31  2  0  0  0  0
 32 28  1  0  0  0  0
 33 35  1  0  0  0  0
 34 33  1  0  0  0  0
 36 33  1  0  0  0  0
 37 38  1  0  0  0  0
 37 40  1  0  0  0  0
 39 37  1  0  0  0  0
 41 43  1  0  0  0  0
 41 42  1  0  0  0  0
 44 41  1  0  0  0  0
 45 31  1  0  0  0  0
 45 47  1  0  0  0  0
 46 45  1  0  0  0  0
 48 45  1  0  0  0  0
 49 51  1  0  0  0  0
 49 32  1  0  0  0  0
 50 49  1  0  0  0  0
 52 49  1  0  0  0  0
M  END
