1,4,31
 OpenBabel05122313063D

 54 54  0  0  0  0  0  0  0  0999 V2000
   -1.0844   -1.9719   -0.6594 C   0  0  0  0  0  3  0  0  0  0  0  0
   -1.1760   -3.1449   -0.9083 O   0  0  0  0  0  0  0  0  0  0  0  0
    0.5179    1.8885    0.3832 N   0  0  0  0  0  0  0  0  0  0  0  0
   -0.2211    0.7234    0.0706 B   0  0  0  0  0  2  0  0  0  0  0  0
    0.2431    3.4250   -0.5248 Si  0  0  0  0  0  0  0  0  0  0  0  0
   -0.8259    3.0908   -2.0423 C   0  0  0  0  0  0  0  0  0  0  0  0
   -0.4378    2.2535   -2.6552 H   0  0  0  0  0  0  0  0  0  0  0  0
   -0.8291    4.0036   -2.6742 H   0  0  0  0  0  0  0  0  0  0  0  0
   -1.8753    2.8608   -1.7771 H   0  0  0  0  0  0  0  0  0  0  0  0
    1.9283    4.0474   -1.1192 C   0  0  0  0  0  0  0  0  0  0  0  0
    2.6205    4.2802   -0.2862 H   0  0  0  0  0  0  0  0  0  0  0  0
    1.7914    4.9768   -1.7098 H   0  0  0  0  0  0  0  0  0  0  0  0
    2.4167    3.2961   -1.7723 H   0  0  0  0  0  0  0  0  0  0  0  0
   -0.5998    4.7432    0.5317 C   0  0  0  0  0  0  0  0  0  0  0  0
   -1.5391    4.3445    0.9620 H   0  0  0  0  0  0  0  0  0  0  0  0
   -0.8530    5.6167   -0.1052 H   0  0  0  0  0  0  0  0  0  0  0  0
    0.0413    5.1004    1.3598 H   0  0  0  0  0  0  0  0  0  0  0  0
    1.7975    1.7531    1.6532 Si  0  0  0  0  0  0  0  0  0  0  0  0
    1.2800    0.4216    2.8825 C   0  0  0  0  0  0  0  0  0  0  0  0
    0.2523    0.6016    3.2584 H   0  0  0  0  0  0  0  0  0  0  0  0
    1.9715    0.4271    3.7505 H   0  0  0  0  0  0  0  0  0  0  0  0
    1.3173   -0.5844    2.4259 H   0  0  0  0  0  0  0  0  0  0  0  0
    3.4886    1.3524    0.9241 C   0  0  0  0  0  0  0  0  0  0  0  0
    3.4895    0.3497    0.4539 H   0  0  0  0  0  0  0  0  0  0  0  0
    4.2520    1.3593    1.7301 H   0  0  0  0  0  0  0  0  0  0  0  0
    3.7929    2.0962    0.1613 H   0  0  0  0  0  0  0  0  0  0  0  0
    1.8982    3.3889    2.6000 C   0  0  0  0  0  0  0  0  0  0  0  0
    2.2232    4.2439    1.9752 H   0  0  0  0  0  0  0  0  0  0  0  0
    2.6443    3.2716    3.4135 H   0  0  0  0  0  0  0  0  0  0  0  0
    0.9262    3.6474    3.0654 H   0  0  0  0  0  0  0  0  0  0  0  0
    0.0565   -0.9028   -0.2700 B   0  0  0  0  0  0  0  0  0  0  0  0
    1.5031   -1.5113   -0.3684 C   0  0  0  0  0  0  0  0  0  0  0  0
    1.9058   -2.5235    0.5442 C   0  0  0  0  0  0  0  0  0  0  0  0
    3.2151   -3.0576    0.4678 C   0  0  0  0  0  0  0  0  0  0  0  0
    4.0870   -2.5816   -0.5260 C   0  0  0  0  0  0  0  0  0  0  0  0
    5.1060   -2.9986   -0.5845 H   0  0  0  0  0  0  0  0  0  0  0  0
    3.7015   -1.6002   -1.4538 C   0  0  0  0  0  0  0  0  0  0  0  0
    2.3945   -1.0582   -1.3778 C   0  0  0  0  0  0  0  0  0  0  0  0
    0.9495   -3.0514    1.5887 C   0  0  0  0  0  0  0  0  0  0  0  0
    0.0680   -2.3920    1.7097 H   0  0  0  0  0  0  0  0  0  0  0  0
    1.4292   -3.1493    2.5838 H   0  0  0  0  0  0  0  0  0  0  0  0
    0.5693   -4.0578    1.3100 H   0  0  0  0  0  0  0  0  0  0  0  0
    3.6684   -4.1335    1.4227 C   0  0  0  0  0  0  0  0  0  0  0  0
    4.7059   -4.4528    1.2052 H   0  0  0  0  0  0  0  0  0  0  0  0
    3.0185   -5.0326    1.3679 H   0  0  0  0  0  0  0  0  0  0  0  0
    3.6358   -3.7904    2.4792 H   0  0  0  0  0  0  0  0  0  0  0  0
    4.6704   -1.1184   -2.5031 C   0  0  0  0  0  0  0  0  0  0  0  0
    4.2807   -1.2795   -3.5308 H   0  0  0  0  0  0  0  0  0  0  0  0
    5.6438   -1.6397   -2.4240 H   0  0  0  0  0  0  0  0  0  0  0  0
    4.8619   -0.0274   -2.4124 H   0  0  0  0  0  0  0  0  0  0  0  0
    1.9761   -0.0077   -2.3763 C   0  0  0  0  0  0  0  0  0  0  0  0
    2.6141    0.8995   -2.3073 H   0  0  0  0  0  0  0  0  0  0  0  0
    0.9267    0.3059   -2.2239 H   0  0  0  0  0  0  0  0  0  0  0  0
    2.0657   -0.3774   -3.4197 H   0  0  0  0  0  0  0  0  0  0  0  0
  1 31  1  0  0  0  0
  2  1  2  0  0  0  0
  3 18  1  0  0  0  0
  4  3  1  0  0  0  0
  5  3  1  0  0  0  0
  5 14  1  0  0  0  0
  6  9  1  0  0  0  0
  6  5  1  0  0  0  0
  7  6  1  0  0  0  0
  8  6  1  0  0  0  0
 10  5  1  0  0  0  0
 10 11  1  0  0  0  0
 12 10  1  0  0  0  0
 13 10  1  0  0  0  0
 14 15  1  0  0  0  0
 14 17  1  0  0  0  0
 16 14  1  0  0  0  0
 18 27  1  0  0  0  0
 18 19  1  0  0  0  0
 19 20  1  0  0  0  0
 19 21  1  0  0  0  0
 22 19  1  0  0  0  0
 23 18  1  0  0  0  0
 23 25  1  0  0  0  0
 24 23  1  0  0  0  0
 26 23  1  0  0  0  0
 27 30  1  0  0  0  0
 27 29  1  0  0  0  0
 28 27  1  0  0  0  0
 31  4  1  0  0  0  0
 32 31  1  0  0  0  0
 32 33  1  0  0  0  0
 33 39  1  0  0  0  0
 34 33  2  0  0  0  0
 34 43  1  0  0  0  0
 35 34  1  0  0  0  0
 36 35  1  0  0  0  0
 37 38  1  0  0  0  0
 37 35  2  0  0  0  0
 38 32  2  0  0  0  0
 39 40  1  0  0  0  0
 39 41  1  0  0  0  0
 42 39  1  0  0  0  0
 43 46  1  0  0  0  0
 44 43  1  0  0  0  0
 45 43  1  0  0  0  0
 47 49  1  0  0  0  0
 47 50  1  0  0  0  0
 47 37  1  0  0  0  0
 48 47  1  0  0  0  0
 51 52  1  0  0  0  0
 51 53  1  0  0  0  0
 51 38  1  0  0  0  0
 54 51  1  0  0  0  0
M  END
