1,3,8
q = 0.0, confidence = 0.546

 58 62  0  0  0  0  0  0  0  0999 V2000
    1.4953   -1.4467    1.8846 S   0  0  0  0  0  1  0  0  0  0  0  0
    2.2578   -0.4237    0.2597 P   0  0  0  0  0  4  0  0  0  0  0  0
    0.8672   -0.4600   -0.7508 C   0  0  0  0  0  2  0  0  0  0  0  0
    3.5975   -2.0088   -1.5995 C   0  0  0  0  0  0  0  0  0  0  0  0
    2.5997   -2.0708   -2.0644 H   0  0  0  0  0  0  0  0  0  0  0  0
    3.7488   -1.2367   -0.4324 C   0  0  0  0  0  0  0  0  0  0  0  0
    0.5395    0.3548   -1.8882 C   0  0  0  0  0  0  0  0  0  0  0  0
   -1.7169    0.1625   -0.5465 P   0  0  0  0  0  0  0  0  0  0  0  0
    4.7053   -2.6788   -2.1406 C   0  0  0  0  0  0  0  0  0  0  0  0
    4.5907   -3.2767   -3.0578 H   0  0  0  0  0  0  0  0  0  0  0  0
    1.4261    0.8635   -2.8848 C   0  0  0  0  0  0  0  0  0  0  0  0
    2.5103    0.7040   -2.7796 H   0  0  0  0  0  0  0  0  0  0  0  0
    5.9576   -2.5878   -1.5113 C   0  0  0  0  0  0  0  0  0  0  0  0
    6.8260   -3.1147   -1.9357 H   0  0  0  0  0  0  0  0  0  0  0  0
    0.9228    1.5157   -4.0140 C   0  0  0  0  0  0  0  0  0  0  0  0
    1.6274    1.8763   -4.7806 H   0  0  0  0  0  0  0  0  0  0  0  0
    5.0036   -1.1482    0.2017 C   0  0  0  0  0  0  0  0  0  0  0  0
    5.1154   -0.5439    1.1157 H   0  0  0  0  0  0  0  0  0  0  0  0
   -1.3568    1.2781   -3.2102 C   0  0  0  0  0  0  0  0  0  0  0  0
   -2.4412    1.4430   -3.3211 H   0  0  0  0  0  0  0  0  0  0  0  0
    2.8388    1.2373    0.7752 C   0  0  0  0  0  0  0  0  0  0  0  0
   -0.8551    0.6334   -2.0727 C   0  0  0  0  0  0  0  0  0  0  0  0
    2.3053    1.8445    1.9304 C   0  0  0  0  0  0  0  0  0  0  0  0
    1.6720    1.2389    2.5974 H   0  0  0  0  0  0  0  0  0  0  0  0
   -1.9285    1.7381    0.3902 C   0  0  0  0  0  0  0  0  0  0  0  0
    2.5916    3.1847    2.2180 C   0  0  0  0  0  0  0  0  0  0  0  0
    2.1747    3.6499    3.1247 H   0  0  0  0  0  0  0  0  0  0  0  0
   -1.3688    1.8307    1.6793 C   0  0  0  0  0  0  0  0  0  0  0  0
   -0.8549    0.9458    2.0905 H   0  0  0  0  0  0  0  0  0  0  0  0
    3.4108    3.9341    1.3552 C   0  0  0  0  0  0  0  0  0  0  0  0
    3.6348    4.9875    1.5823 H   0  0  0  0  0  0  0  0  0  0  0  0
   -1.4390    3.0339    2.3978 C   0  0  0  0  0  0  0  0  0  0  0  0
   -0.9880    3.0994    3.3999 H   0  0  0  0  0  0  0  0  0  0  0  0
   -2.0736    4.1510    1.8340 C   0  0  0  0  0  0  0  0  0  0  0  0
   -2.1280    5.0969    2.3944 H   0  0  0  0  0  0  0  0  0  0  0  0
   -3.4147   -0.3175   -1.0529 C   0  0  0  0  0  0  0  0  0  0  0  0
   -4.5808    0.1974   -0.4529 C   0  0  0  0  0  0  0  0  0  0  0  0
   -4.5002    0.9831    0.3136 H   0  0  0  0  0  0  0  0  0  0  0  0
   -5.8435   -0.2861   -0.8315 C   0  0  0  0  0  0  0  0  0  0  0  0
   -6.7490    0.1253   -0.3596 H   0  0  0  0  0  0  0  0  0  0  0  0
   -5.9523   -1.2884   -1.8077 C   0  0  0  0  0  0  0  0  0  0  0  0
   -6.9428   -1.6671   -2.1023 H   0  0  0  0  0  0  0  0  0  0  0  0
   -4.7924   -1.8044   -2.4119 C   0  0  0  0  0  0  0  0  0  0  0  0
   -4.8728   -2.5865   -3.1824 H   0  0  0  0  0  0  0  0  0  0  0  0
   -2.5551    2.8666   -0.1773 C   0  0  0  0  0  0  0  0  0  0  0  0
   -2.9712    2.8116   -1.1947 H   0  0  0  0  0  0  0  0  0  0  0  0
   -2.6315    4.0651    0.5463 C   0  0  0  0  0  0  0  0  0  0  0  0
   -3.1189    4.9440    0.0972 H   0  0  0  0  0  0  0  0  0  0  0  0
   -3.5304   -1.3244   -2.0362 C   0  0  0  0  0  0  0  0  0  0  0  0
   -2.6191   -1.7272   -2.5067 H   0  0  0  0  0  0  0  0  0  0  0  0
    3.9465    3.3337    0.2047 C   0  0  0  0  0  0  0  0  0  0  0  0
    4.5915    3.9151   -0.4719 H   0  0  0  0  0  0  0  0  0  0  0  0
    3.6650    1.9908   -0.0882 C   0  0  0  0  0  0  0  0  0  0  0  0
    4.0955    1.5239   -0.9873 H   0  0  0  0  0  0  0  0  0  0  0  0
    6.1055   -1.8254   -0.3393 C   0  0  0  0  0  0  0  0  0  0  0  0
    7.0877   -1.7569    0.1532 H   0  0  0  0  0  0  0  0  0  0  0  0
   -0.4635    1.7143   -4.2026 C   0  0  0  0  0  0  0  0  0  0  0  0
   -0.8365    2.2161   -5.1074 H   0  0  0  0  0  0  0  0  0  0  0  0
  2 21  1  0  0  0  0
  2  1  1  0  0  0  0
  3  2  1  0  0  0  0
  4  6  1  0  0  0  0
  5  4  1  0  0  0  0
  6 17  2  0  0  0  0
  6  2  1  0  0  0  0
  7  3  1  0  0  0  0
  8 25  1  0  0  0  0
  9  4  2  0  0  0  0
  9 13  1  0  0  0  0
 10  9  1  0  0  0  0
 11 12  1  0  0  0  0
 11  7  2  0  0  0  0
 13 55  2  0  0  0  0
 14 13  1  0  0  0  0
 15 11  1  0  0  0  0
 16 15  1  0  0  0  0
 17 18  1  0  0  0  0
 19 22  2  0  0  0  0
 20 19  1  0  0  0  0
 21 23  1  0  0  0  0
 22  7  1  0  0  0  0
 22  8  1  0  0  0  0
 23 26  2  0  0  0  0
 23 24  1  0  0  0  0
 25 28  1  0  0  0  0
 26 27  1  0  0  0  0
 28 29  1  0  0  0  0
 28 32  2  0  0  0  0
 30 31  1  0  0  0  0
 30 26  1  0  0  0  0
 32 33  1  0  0  0  0
 34 35  1  0  0  0  0
 34 32  1  0  0  0  0
 36  8  1  0  0  0  0
 36 37  1  0  0  0  0
 37 38  1  0  0  0  0
 39 37  2  0  0  0  0
 39 40  1  0  0  0  0
 41 39  1  0  0  0  0
 42 41  1  0  0  0  0
 43 49  1  0  0  0  0
 43 41  2  0  0  0  0
 44 43  1  0  0  0  0
 45 25  2  0  0  0  0
 45 47  1  0  0  0  0
 46 45  1  0  0  0  0
 47 34  2  0  0  0  0
 48 47  1  0  0  0  0
 49 36  2  0  0  0  0
 50 49  1  0  0  0  0
 51 30  2  0  0  0  0
 52 51  1  0  0  0  0
 53 51  1  0  0  0  0
 53 21  2  0  0  0  0
 54 53  1  0  0  0  0
 55 56  1  0  0  0  0
 55 17  1  0  0  0  0
 57 15  2  0  0  0  0
 57 19  1  0  0  0  0
 58 57  1  0  0  0  0
M  END
