1,2,3,4,5
q = -1.0

 43 45  0  0  1  0  0  0  0  0999 V2000
   -1.6650   -1.0534    0.7055 S   0  0  0  0  0  0  0  0  0  0  0  0
   -1.2093    0.9868   -1.7754 S   0  0  0  0  0  0  0  0  0  0  0  0
    1.7035   -1.4677    0.8538 S   0  0  0  0  0  0  0  0  0  0  0  0
    2.0610    0.3440   -1.8329 S   0  0  0  0  0  1  0  0  0  0  0  0
    0.4259    1.1840    0.6653 N   0  0  0  0  0  2  0  0  0  0  0  0
   -3.7899   -3.2395    0.9037 Cl  0  0  0  0  0  0  0  0  0  0  0  0
   -2.3770   -2.6189    0.0193 C   0  0  0  0  0  0  0  0  0  0  0  0
   -2.6593   -2.4509   -1.0372 H   0  0  0  0  0  0  0  0  0  0  0  0
   -1.5542   -3.3548    0.0995 H   0  0  0  0  0  0  0  0  0  0  0  0
   -2.9657    0.1080    0.2304 C   0  0  0  0  0  0  0  0  0  0  0  0
   -4.1718    0.1377    0.9537 C   0  0  0  0  0  0  0  0  0  0  0  0
   -4.3143   -0.5458    1.8022 H   0  0  0  0  0  0  0  0  0  0  0  0
   -5.1812    1.0363    0.5789 C   0  0  0  0  0  0  0  0  0  0  0  0
   -6.1256    1.0568    1.1422 H   0  0  0  0  0  0  0  0  0  0  0  0
   -4.9881    1.9072   -0.5059 C   0  0  0  0  0  0  0  0  0  0  0  0
   -5.7822    2.6094   -0.7993 H   0  0  0  0  0  0  0  0  0  0  0  0
   -3.7820    1.8860   -1.2213 C   0  0  0  0  0  0  0  0  0  0  0  0
   -3.6296    2.5602   -2.0782 H   0  0  0  0  0  0  0  0  0  0  0  0
   -2.7630    0.9960   -0.8412 C   0  0  0  0  0  0  0  0  0  0  0  0
   -0.4425    2.5642   -1.1608 C   0  0  0  0  0  0  0  0  0  0  0  0
    0.4151    2.6920   -1.8561 H   0  0  0  0  0  0  0  0  0  0  0  0
   -1.1441    3.4104   -1.2921 H   0  0  0  0  0  0  0  0  0  0  0  0
    3.4480   -0.1062   -0.8303 C   0  0  0  0  0  0  0  0  0  0  0  0
    4.7502    0.2936   -1.2187 C   0  0  0  0  0  0  0  0  0  0  0  0
    4.8691    0.9017   -2.1280 H   0  0  0  0  0  0  0  0  0  0  0  0
    5.8668   -0.0755   -0.4629 C   0  0  0  0  0  0  0  0  0  0  0  0
    6.8668    0.2508   -0.7856 H   0  0  0  0  0  0  0  0  0  0  0  0
    5.7271   -0.8630    0.6966 C   0  0  0  0  0  0  0  0  0  0  0  0
    6.6096   -1.1580    1.2820 H   0  0  0  0  0  0  0  0  0  0  0  0
    4.4516   -1.2798    1.0919 C   0  0  0  0  0  0  0  0  0  0  0  0
    4.3214   -1.9154    1.9820 H   0  0  0  0  0  0  0  0  0  0  0  0
    3.3276   -0.8832    0.3432 C   0  0  0  0  0  0  0  0  0  0  0  0
    1.3408   -0.3742    2.3121 C   0  0  0  0  0  0  0  0  0  0  0  0
    0.4710   -0.8655    2.7988 H   0  0  0  0  0  0  0  0  0  0  0  0
    2.1945   -0.4083    3.0158 H   0  0  0  0  0  0  0  0  0  0  0  0
    0.0602    2.4333    0.2462 C   0  0  2  0  0  3  0  0  0  0  0  0
    0.2104    3.5505    1.0786 C   0  0  0  0  0  0  0  0  0  0  0  0
   -0.1150    4.5378    0.7218 H   0  0  0  0  0  0  0  0  0  0  0  0
    0.8056    3.3994    2.3368 C   0  0  0  0  0  0  0  0  0  0  0  0
    0.9525    4.2684    2.9941 H   0  0  0  0  0  0  0  0  0  0  0  0
    1.2206    2.1233    2.7391 C   0  0  0  0  0  0  0  0  0  0  0  0
    1.7031    1.9665    3.7141 H   0  0  0  0  0  0  0  0  0  0  0  0
    0.9993    1.0266    1.8967 C   0  0  0  0  0  0  0  0  0  0  0  0
  2 20  1  0  0  0  0
  2 19  1  0  0  0  0
  3 33  1  0  0  0  0
  4 23  1  0  0  0  0
  5 43  1  0  0  0  0
  7  9  1  0  0  0  0
  7  1  1  0  0  0  0
  7  6  1  0  0  0  0
  8  7  1  0  0  0  0
 10  1  1  0  0  0  0
 10 11  1  0  0  0  0
 11 12  1  0  0  0  0
 13 11  2  0  0  0  0
 13 14  1  0  0  0  0
 15 13  1  0  0  0  0
 16 15  1  0  0  0  0
 17 19  1  0  0  0  0
 17 15  2  0  0  0  0
 18 17  1  0  0  0  0
 19 10  2  0  0  0  0
 21 20  1  0  0  0  0
 22 20  1  0  0  0  0
 23 32  1  0  0  0  0
 24 23  2  0  0  0  0
 24 26  1  0  0  0  0
 25 24  1  0  0  0  0
 26 28  2  0  0  0  0
 27 26  1  0  0  0  0
 28 30  1  0  0  0  0
 28 29  1  0  0  0  0
 30 31  1  0  0  0  0
 32  3  1  0  0  0  0
 32 30  2  0  0  0  0
 33 34  1  0  0  0  0
 33 35  1  0  0  0  0
 36 20  1  6  0  0  0
 36  5  1  0  0  0  0
 36 37  1  0  0  0  0
 37 39  2  0  0  0  0
 38 37  1  0  0  0  0
 39 41  1  0  0  0  0
 39 40  1  0  0  0  0
 41 42  1  0  0  0  0
 43 33  1  0  0  0  0
 43 41  2  0  0  0  0
M  END
