1,2,3,4,6
q = -2.0, confidence = 0.86

 43 45  0  0  1  0  0  0  0  0999 V2000
    1.6233   -1.0055   -1.7494 S   0  0  0  0  0  1  0  0  0  0  0  0
    1.6807   -1.0996    1.4713 S   0  0  0  0  0  0  0  0  0  0  0  0
   -1.5556   -1.0062   -1.5598 S   0  0  0  0  0  0  0  0  0  0  0  0
   -1.4885   -1.3819    1.6391 S   0  0  0  0  0  1  0  0  0  0  0  0
   -0.1225    4.8979    0.4794 O   0  0  0  0  0  0  0  0  0  0  0  0
   -0.0126    0.7668    0.0906 N   0  0  0  0  0  2  0  0  0  0  0  0
    3.0650   -0.5542   -0.8689 C   0  0  0  0  0  0  0  0  0  0  0  0
    3.1378   -0.5876    0.5469 C   0  0  0  0  0  0  0  0  0  0  0  0
    4.3278   -0.3059    1.2403 C   0  0  0  0  0  0  0  0  0  0  0  0
    4.3476   -0.3841    2.3391 H   0  0  0  0  0  0  0  0  0  0  0  0
    5.4751    0.0731    0.5334 C   0  0  0  0  0  0  0  0  0  0  0  0
    6.4052    0.3085    1.0708 H   0  0  0  0  0  0  0  0  0  0  0  0
    5.4214    0.1341   -0.8743 C   0  0  0  0  0  0  0  0  0  0  0  0
    6.3182    0.4238   -1.4436 H   0  0  0  0  0  0  0  0  0  0  0  0
    4.2478   -0.1792   -1.5630 C   0  0  0  0  0  0  0  0  0  0  0  0
    4.2199   -0.1428   -2.6626 H   0  0  0  0  0  0  0  0  0  0  0  0
    1.1525    0.5139    2.2015 C   0  0  0  0  0  0  0  0  0  0  0  0
    0.3654    0.2259    2.9314 H   0  0  0  0  0  0  0  0  0  0  0  0
    2.0025    0.9830    2.7330 H   0  0  0  0  0  0  0  0  0  0  0  0
    0.5573    1.4014    1.1501 C   0  0  2  0  0  3  0  0  0  0  0  0
    0.5390    2.7890    1.2737 C   0  0  0  0  0  0  0  0  0  0  0  0
    1.0121    3.2915    2.1281 H   0  0  0  0  0  0  0  0  0  0  0  0
   -0.1211    3.5627    0.2953 C   0  0  0  0  0  0  0  0  0  0  0  0
   -0.7253    2.8965   -0.7896 C   0  0  0  0  0  0  0  0  0  0  0  0
   -1.2507    3.4387   -1.5854 H   0  0  0  0  0  0  0  0  0  0  0  0
   -0.6318    1.5004   -0.8627 C   0  0  0  0  0  0  0  0  0  0  0  0
   -1.1626    0.7352   -2.0380 C   0  0  0  0  0  0  0  0  0  0  0  0
   -0.3597    0.6234   -2.7985 H   0  0  0  0  0  0  0  0  0  0  0  0
   -2.0513    1.2084   -2.4982 H   0  0  0  0  0  0  0  0  0  0  0  0
   -3.0442   -0.7536   -0.5800 C   0  0  0  0  0  0  0  0  0  0  0  0
   -2.9661   -0.9222    0.8259 C   0  0  0  0  0  0  0  0  0  0  0  0
   -4.1712   -0.7474    1.5601 C   0  0  0  0  0  0  0  0  0  0  0  0
   -4.1401   -0.8696    2.6535 H   0  0  0  0  0  0  0  0  0  0  0  0
   -5.3698   -0.4315    0.9175 C   0  0  0  0  0  0  0  0  0  0  0  0
   -6.2836   -0.3004    1.5177 H   0  0  0  0  0  0  0  0  0  0  0  0
   -5.4268   -0.2907   -0.4845 C   0  0  0  0  0  0  0  0  0  0  0  0
   -6.3760   -0.0553   -0.9873 H   0  0  0  0  0  0  0  0  0  0  0  0
   -4.2569   -0.4697   -1.2321 C   0  0  0  0  0  0  0  0  0  0  0  0
   -4.2765   -0.3890   -2.3309 H   0  0  0  0  0  0  0  0  0  0  0  0
   -0.7773    5.7175   -0.4796 C   0  0  0  0  0  0  0  0  0  0  0  0
   -0.3176    5.6144   -1.4867 H   0  0  0  0  0  0  0  0  0  0  0  0
   -0.6555    6.7588   -0.1309 H   0  0  0  0  0  0  0  0  0  0  0  0
   -1.8613    5.4801   -0.5473 H   0  0  0  0  0  0  0  0  0  0  0  0
  1  7  1  0  0  0  0
  2 17  1  0  0  0  0
  3 30  1  0  0  0  0
  6 20  1  0  0  0  0
  7  8  1  0  0  0  0
  8  9  2  0  0  0  0
  8  2  1  0  0  0  0
  9 10  1  0  0  0  0
 11 12  1  0  0  0  0
 11  9  1  0  0  0  0
 13 11  2  0  0  0  0
 14 13  1  0  0  0  0
 15 13  1  0  0  0  0
 15  7  2  0  0  0  0
 16 15  1  0  0  0  0
 17 19  1  0  0  0  0
 17 18  1  0  0  0  0
 20 21  1  0  0  0  0
 20 17  1  1  0  0  0
 21 22  1  0  0  0  0
 23  5  1  0  0  0  0
 23 21  2  0  0  0  0
 24 23  1  0  0  0  0
 25 24  1  0  0  0  0
 26 24  2  0  0  0  0
 26  6  1  0  0  0  0
 27  3  1  0  0  0  0
 27 26  1  0  0  0  0
 28 27  1  0  0  0  0
 29 27  1  0  0  0  0
 30 31  1  0  0  0  0
 31 32  2  0  0  0  0
 31  4  1  0  0  0  0
 32 33  1  0  0  0  0
 34 35  1  0  0  0  0
 34 32  1  0  0  0  0
 36 34  2  0  0  0  0
 37 36  1  0  0  0  0
 38 30  2  0  0  0  0
 38 36  1  0  0  0  0
 39 38  1  0  0  0  0
 40 42  1  0  0  0  0
 40  5  1  0  0  0  0
 41 40  1  0  0  0  0
 43 40  1  0  0  0  0
M  END
