1,2,3,4,5
q = -2.0, confidence = 0.77

 39 41  0  0  1  0  0  0  0  0999 V2000
    1.5641   -0.8257    1.6974 S   0  0  0  0  0  1  0  0  0  0  0  0
   -1.5642   -0.8257   -1.6974 S   0  0  0  0  0  1  0  0  0  0  0  0
    1.6139   -0.6924   -1.5224 S   0  0  0  0  0  0  0  0  0  0  0  0
   -1.6139   -0.6923    1.5224 S   0  0  0  0  0  0  0  0  0  0  0  0
    0.0001    1.1400   -0.0000 N   0  0  0  0  0  2  0  0  0  0  0  0
    3.0247   -0.3816    0.8442 C   0  0  0  0  0  0  0  0  0  0  0  0
    4.2245   -0.1137    1.5582 C   0  0  0  0  0  0  0  0  0  0  0  0
    5.4108    0.1921    0.8882 C   0  0  0  0  0  0  0  0  0  0  0  0
    5.4600    0.2295   -0.5205 C   0  0  0  0  0  0  0  0  0  0  0  0
    4.2955   -0.0430   -1.2477 C   0  0  0  0  0  0  0  0  0  0  0  0
    3.0942   -0.3169   -0.5705 C   0  0  0  0  0  0  0  0  0  0  0  0
    1.1547    0.9919   -2.1271 C   0  0  0  0  0  0  0  0  0  0  0  0
   -3.0248   -0.3816   -0.8441 C   0  0  0  0  0  0  0  0  0  0  0  0
   -4.2246   -0.1137   -1.5581 C   0  0  0  0  0  0  0  0  0  0  0  0
   -5.4108    0.1921   -0.8881 C   0  0  0  0  0  0  0  0  0  0  0  0
   -5.4600    0.2296    0.5206 C   0  0  0  0  0  0  0  0  0  0  0  0
   -4.2955   -0.0429    1.2478 C   0  0  0  0  0  0  0  0  0  0  0  0
   -3.0942   -0.3169    0.5706 C   0  0  0  0  0  0  0  0  0  0  0  0
   -1.1546    0.9921    2.1270 C   0  0  0  0  0  0  0  0  0  0  0  0
    0.5947    1.8215   -1.0123 C   0  0  1  0  0  3  0  0  0  0  0  0
    0.6290    3.2231   -1.0291 C   0  0  0  0  0  0  0  0  0  0  0  0
    0.0001    3.9349   -0.0001 C   0  0  0  0  0  0  0  0  0  0  0  0
   -0.6289    3.2231    1.0289 C   0  0  0  0  0  0  0  0  0  0  0  0
   -0.5946    1.8215    1.0122 C   0  0  0  0  0  0  0  0  0  0  0  0
    4.1998   -0.1546    2.6577 H   0  0  0  0  0  0  0  0  0  0  0  0
    6.3210    0.3977    1.4727 H   0  0  0  0  0  0  0  0  0  0  0  0
    6.3998    0.4582   -1.0437 H   0  0  0  0  0  0  0  0  0  0  0  0
    4.3104   -0.0435   -2.3494 H   0  0  0  0  0  0  0  0  0  0  0  0
    2.0246    1.4651   -2.6221 H   0  0  0  0  0  0  0  0  0  0  0  0
    0.3593    0.7936   -2.8778 H   0  0  0  0  0  0  0  0  0  0  0  0
   -4.1999   -0.1546   -2.6576 H   0  0  0  0  0  0  0  0  0  0  0  0
   -6.3211    0.3977   -1.4726 H   0  0  0  0  0  0  0  0  0  0  0  0
   -6.3998    0.4583    1.0438 H   0  0  0  0  0  0  0  0  0  0  0  0
   -4.3103   -0.0433    2.3495 H   0  0  0  0  0  0  0  0  0  0  0  0
   -0.3592    0.7938    2.8777 H   0  0  0  0  0  0  0  0  0  0  0  0
   -2.0245    1.4654    2.6220 H   0  0  0  0  0  0  0  0  0  0  0  0
    1.1329    3.7437   -1.8557 H   0  0  0  0  0  0  0  0  0  0  0  0
    0.0001    5.0348   -0.0002 H   0  0  0  0  0  0  0  0  0  0  0  0
   -1.1327    3.7438    1.8555 H   0  0  0  0  0  0  0  0  0  0  0  0
  2 13  1  0  0  0  0
  3 11  1  0  0  0  0
  4 19  1  0  0  0  0
  5 24  1  0  0  0  0
  6  7  1  0  0  0  0
  6  1  1  0  0  0  0
  7 25  1  0  0  0  0
  8 26  1  0  0  0  0
  8  7  2  0  0  0  0
  9  8  1  0  0  0  0
 10 11  1  0  0  0  0
 10  9  2  0  0  0  0
 11  6  2  0  0  0  0
 12  3  1  0  0  0  0
 13 18  1  0  0  0  0
 14 15  1  0  0  0  0
 14 13  2  0  0  0  0
 15 16  2  0  0  0  0
 16 33  1  0  0  0  0
 16 17  1  0  0  0  0
 17 34  1  0  0  0  0
 18 17  2  0  0  0  0
 18  4  1  0  0  0  0
 19 36  1  0  0  0  0
 19 35  1  0  0  0  0
 20 12  1  6  0  0  0
 20  5  1  0  0  0  0
 21 20  1  0  0  0  0
 21 22  2  0  0  0  0
 22 23  1  0  0  0  0
 23 39  1  0  0  0  0
 24 23  2  0  0  0  0
 24 19  1  0  0  0  0
 27  9  1  0  0  0  0
 28 10  1  0  0  0  0
 29 12  1  0  0  0  0
 30 12  1  0  0  0  0
 31 14  1  0  0  0  0
 32 15  1  0  0  0  0
 37 21  1  0  0  0  0
 38 22  1  0  0  0  0
M  END
