1,2,3,4,5
q = 0.0, confidence = 0.518

 63 65  0  0  1  0  0  0  0  0999 V2000
   -1.5903    1.6332   -0.6848 S   0  0  0  0  0  1  0  0  0  0  0  0
   -1.5755   -1.5452   -0.5888 S   0  0  0  0  0  0  0  0  0  0  0  0
    1.5755    1.5452   -0.5889 S   0  0  0  0  0  0  0  0  0  0  0  0
    1.5903   -1.6333   -0.6849 S   0  0  0  0  0  1  0  0  0  0  0  0
    0.0000   -0.0000    1.2549 N   0  0  0  0  0  2  0  0  0  0  0  0
   -5.6118    3.4468    0.1783 O   0  0  0  0  0  0  0  0  0  0  0  0
   -3.3831    3.7290   -0.0982 O   0  0  0  0  0  0  0  0  0  0  0  0
   -5.6259   -3.2781   -0.5677 O   0  0  0  0  0  0  0  0  0  0  0  0
   -3.4965   -3.6024    0.1127 O   0  0  0  0  0  0  0  0  0  0  0  0
    5.6118   -3.4468    0.1783 O   0  0  0  0  0  0  0  0  0  0  0  0
    3.3831   -3.7290   -0.0981 O   0  0  0  0  0  0  0  0  0  0  0  0
    5.6259    3.2781   -0.5678 O   0  0  0  0  0  0  0  0  0  0  0  0
    3.4965    3.6024    0.1128 O   0  0  0  0  0  0  0  0  0  0  0  0
   -3.0664    0.7876   -0.3167 C   0  0  0  0  0  0  0  0  0  0  0  0
   -4.3059    1.4908   -0.0944 C   0  0  0  0  0  0  0  0  0  0  0  0
   -5.5052    0.7719    0.0647 C   0  0  0  0  0  0  0  0  0  0  0  0
   -6.4299    1.3413    0.2245 H   0  0  0  0  0  0  0  0  0  0  0  0
   -5.5400   -0.6199    0.0126 C   0  0  0  0  0  0  0  0  0  0  0  0
   -6.4854   -1.1670    0.1146 H   0  0  0  0  0  0  0  0  0  0  0  0
   -4.3400   -1.3437   -0.1560 C   0  0  0  0  0  0  0  0  0  0  0  0
   -3.1173   -0.6428   -0.2808 C   0  0  0  0  0  0  0  0  0  0  0  0
   -1.1285   -2.1376    1.1009 C   0  0  0  0  0  0  0  0  0  0  0  0
   -1.9938   -2.6637    1.5409 H   0  0  0  0  0  0  0  0  0  0  0  0
   -0.3252   -2.8793    0.8978 H   0  0  0  0  0  0  0  0  0  0  0  0
    3.0664   -0.7876   -0.3167 C   0  0  0  0  0  0  0  0  0  0  0  0
    4.3059   -1.4908   -0.0944 C   0  0  0  0  0  0  0  0  0  0  0  0
    5.5052   -0.7719    0.0647 C   0  0  0  0  0  0  0  0  0  0  0  0
    6.4299   -1.3412    0.2245 H   0  0  0  0  0  0  0  0  0  0  0  0
    5.5400    0.6199    0.0126 C   0  0  0  0  0  0  0  0  0  0  0  0
    6.4853    1.1670    0.1146 H   0  0  0  0  0  0  0  0  0  0  0  0
    4.3400    1.3437   -0.1560 C   0  0  0  0  0  0  0  0  0  0  0  0
    3.1173    0.6428   -0.2808 C   0  0  0  0  0  0  0  0  0  0  0  0
    1.1285    2.1376    1.1009 C   0  0  0  0  0  0  0  0  0  0  0  0
    1.9938    2.6637    1.5409 H   0  0  0  0  0  0  0  0  0  0  0  0
    0.3252    2.8792    0.8978 H   0  0  0  0  0  0  0  0  0  0  0  0
   -0.5834   -1.0207    1.9323 C   0  0  1  0  0  3  0  0  0  0  0  0
   -0.6168   -1.0376    3.3343 C   0  0  0  0  0  0  0  0  0  0  0  0
   -1.1095   -1.8715    3.8538 H   0  0  0  0  0  0  0  0  0  0  0  0
    0.0000   -0.0000    4.0448 C   0  0  0  0  0  0  0  0  0  0  0  0
    0.0000   -0.0000    5.1449 H   0  0  0  0  0  0  0  0  0  0  0  0
    0.6168    1.0376    3.3343 C   0  0  0  0  0  0  0  0  0  0  0  0
    1.1096    1.8715    3.8538 H   0  0  0  0  0  0  0  0  0  0  0  0
    0.5835    1.0207    1.9322 C   0  0  0  0  0  0  0  0  0  0  0  0
   -4.3410    2.9781   -0.0154 C   0  0  0  0  0  0  0  0  0  0  0  0
   -5.7190    4.8675    0.2662 C   0  0  0  0  0  0  0  0  0  0  0  0
   -6.7930    5.0869    0.4049 H   0  0  0  0  0  0  0  0  0  0  0  0
   -5.3409    5.3535   -0.6565 H   0  0  0  0  0  0  0  0  0  0  0  0
   -5.1315    5.2601    1.1215 H   0  0  0  0  0  0  0  0  0  0  0  0
   -4.4044   -2.8379   -0.1817 C   0  0  0  0  0  0  0  0  0  0  0  0
   -5.7832   -4.7014   -0.5882 C   0  0  0  0  0  0  0  0  0  0  0  0
   -6.8190   -4.8886   -0.9220 H   0  0  0  0  0  0  0  0  0  0  0  0
   -5.6149   -5.1325    0.4195 H   0  0  0  0  0  0  0  0  0  0  0  0
   -5.0595   -5.1662   -1.2874 H   0  0  0  0  0  0  0  0  0  0  0  0
    4.3411   -2.9781   -0.0154 C   0  0  0  0  0  0  0  0  0  0  0  0
    5.7190   -4.8675    0.2662 C   0  0  0  0  0  0  0  0  0  0  0  0
    6.7930   -5.0869    0.4047 H   0  0  0  0  0  0  0  0  0  0  0  0
    5.3407   -5.3535   -0.6564 H   0  0  0  0  0  0  0  0  0  0  0  0
    5.1316   -5.2601    1.1217 H   0  0  0  0  0  0  0  0  0  0  0  0
    4.4044    2.8379   -0.1816 C   0  0  0  0  0  0  0  0  0  0  0  0
    5.7832    4.7015   -0.5882 C   0  0  0  0  0  0  0  0  0  0  0  0
    6.8189    4.8886   -0.9222 H   0  0  0  0  0  0  0  0  0  0  0  0
    5.6150    5.1325    0.4195 H   0  0  0  0  0  0  0  0  0  0  0  0
    5.0594    5.1662   -1.2873 H   0  0  0  0  0  0  0  0  0  0  0  0
  1 14  1  0  0  0  0
  2 21  1  0  0  0  0
  2 22  1  0  0  0  0
  3 32  1  0  0  0  0
  3 33  1  0  0  0  0
  4 25  1  0  0  0  0
  5 43  1  0  0  0  0
  5 36  1  0  0  0  0
  6 45  1  0  0  0  0
  7 44  2  0  0  0  0
  8 49  1  0  0  0  0
 10 55  1  0  0  0  0
 11 54  2  0  0  0  0
 12 59  1  0  0  0  0
 14 21  2  0  0  0  0
 14 15  1  0  0  0  0
 15 44  1  0  0  0  0
 15 16  2  0  0  0  0
 16 17  1  0  0  0  0
 18 16  1  0  0  0  0
 18 19  1  0  0  0  0
 20 18  2  0  0  0  0
 21 20  1  0  0  0  0
 22 23  1  0  0  0  0
 24 22  1  0  0  0  0
 25 32  2  0  0  0  0
 25 26  1  0  0  0  0
 26 54  1  0  0  0  0
 26 27  2  0  0  0  0
 27 28  1  0  0  0  0
 29 27  1  0  0  0  0
 29 30  1  0  0  0  0
 31 29  2  0  0  0  0
 32 31  1  0  0  0  0
 33 34  1  0  0  0  0
 33 43  1  0  0  0  0
 35 33  1  0  0  0  0
 36 22  1  1  0  0  0
 36 37  1  0  0  0  0
 37 38  1  0  0  0  0
 37 39  2  0  0  0  0
 39 40  1  0  0  0  0
 41 42  1  0  0  0  0
 41 39  1  0  0  0  0
 43 41  2  0  0  0  0
 44  6  1  0  0  0  0
 45 46  1  0  0  0  0
 45 48  1  0  0  0  0
 47 45  1  0  0  0  0
 49 20  1  0  0  0  0
 49  9  2  0  0  0  0
 50  8  1  0  0  0  0
 50 52  1  0  0  0  0
 51 50  1  0  0  0  0
 53 50  1  0  0  0  0
 54 10  1  0  0  0  0
 55 56  1  0  0  0  0
 55 58  1  0  0  0  0
 57 55  1  0  0  0  0
 59 31  1  0  0  0  0
 59 13  2  0  0  0  0
 60 12  1  0  0  0  0
 60 62  1  0  0  0  0
 61 60  1  0  0  0  0
 63 60  1  0  0  0  0
M  END
