1,2,3,4,5
q = -2.0, confidence = 0.904

 53 55  0  0  1  0  0  0  0  0999 V2000
   -1.4122    1.7646    1.7713 S   0  0  0  0  0  1  0  0  0  0  0  0
   -1.3183    1.8071   -1.4239 S   0  0  0  0  0  0  0  0  0  0  0  0
   -1.6478   -1.4074    1.5715 S   0  0  0  0  0  0  0  0  0  0  0  0
   -1.9197   -1.3188   -1.6016 S   0  0  0  0  0  1  0  0  0  0  0  0
    0.2931   -0.0377    0.0236 N   0  0  0  0  0  2  0  0  0  0  0  0
    4.4956   -0.5962   -0.1051 N   0  0  0  0  0  0  0  0  0  0  0  0
   -0.7887    3.1740    0.9271 C   0  0  0  0  0  0  0  0  0  0  0  0
   -0.3620    4.3249    1.6404 C   0  0  0  0  0  0  0  0  0  0  0  0
    0.1099    5.4566    0.9696 C   0  0  0  0  0  0  0  0  0  0  0  0
    0.1638    5.4920   -0.4384 C   0  0  0  0  0  0  0  0  0  0  0  0
   -0.2668    4.3735   -1.1639 C   0  0  0  0  0  0  0  0  0  0  0  0
   -0.7142    3.2260   -0.4879 C   0  0  0  0  0  0  0  0  0  0  0  0
    0.2729    1.1321   -2.0954 C   0  0  0  0  0  0  0  0  0  0  0  0
   -1.6880   -2.8534   -0.7842 C   0  0  0  0  0  0  0  0  0  0  0  0
   -1.6625   -4.0755   -1.5078 C   0  0  0  0  0  0  0  0  0  0  0  0
   -1.4874   -5.2983   -0.8551 C   0  0  0  0  0  0  0  0  0  0  0  0
   -1.3427   -5.3568    0.5467 C   0  0  0  0  0  0  0  0  0  0  0  0
   -1.3820   -4.1668    1.2843 C   0  0  0  0  0  0  0  0  0  0  0  0
   -1.5326   -2.9355    0.6239 C   0  0  0  0  0  0  0  0  0  0  0  0
    0.0977   -1.1780    2.1502 C   0  0  0  0  0  0  0  0  0  0  0  0
    1.0451    0.4607   -1.0018 C   0  0  2  0  0  3  0  0  0  0  0  0
    2.4296    0.3156   -1.0628 C   0  0  0  0  0  0  0  0  0  0  0  0
    3.1302   -0.4154   -0.0635 C   0  0  0  0  0  0  0  0  0  0  0  0
    2.3248   -0.9474    0.9817 C   0  0  0  0  0  0  0  0  0  0  0  0
    0.9497   -0.7245    1.0044 C   0  0  0  0  0  0  0  0  0  0  0  0
    5.3156    0.0347   -1.1325 C   0  0  0  0  0  0  0  0  0  0  0  0
    5.4334   -0.7869   -2.4196 C   0  0  0  0  0  0  0  0  0  0  0  0
    5.1835   -1.4261    0.8766 C   0  0  0  0  0  0  0  0  0  0  0  0
    5.5868   -0.6732    2.1479 C   0  0  0  0  0  0  0  0  0  0  0  0
   -0.4063    4.3053    2.7401 H   0  0  0  0  0  0  0  0  0  0  0  0
    0.4388    6.3314    1.5523 H   0  0  0  0  0  0  0  0  0  0  0  0
    0.5285    6.3870   -0.9636 H   0  0  0  0  0  0  0  0  0  0  0  0
   -0.2595    4.3842   -2.2658 H   0  0  0  0  0  0  0  0  0  0  0  0
    0.8474    1.9234   -2.6148 H   0  0  0  0  0  0  0  0  0  0  0  0
   -0.0730    0.3763   -2.8326 H   0  0  0  0  0  0  0  0  0  0  0  0
   -1.7770   -4.0378   -2.6020 H   0  0  0  0  0  0  0  0  0  0  0  0
   -1.4658   -6.2271   -1.4464 H   0  0  0  0  0  0  0  0  0  0  0  0
   -1.2108   -6.3222    1.0572 H   0  0  0  0  0  0  0  0  0  0  0  0
   -1.2962   -4.1858    2.3828 H   0  0  0  0  0  0  0  0  0  0  0  0
    0.4744   -2.0948    2.6437 H   0  0  0  0  0  0  0  0  0  0  0  0
   -0.0007   -0.3600    2.8955 H   0  0  0  0  0  0  0  0  0  0  0  0
    2.9526    0.7496   -1.9236 H   0  0  0  0  0  0  0  0  0  0  0  0
    2.7673   -1.5099    1.8127 H   0  0  0  0  0  0  0  0  0  0  0  0
    4.9137    1.0461   -1.3500 H   0  0  0  0  0  0  0  0  0  0  0  0
    6.3230    0.2069   -0.6984 H   0  0  0  0  0  0  0  0  0  0  0  0
    6.0777   -0.2700   -3.1594 H   0  0  0  0  0  0  0  0  0  0  0  0
    5.8782   -1.7822   -2.2167 H   0  0  0  0  0  0  0  0  0  0  0  0
    4.4400   -0.9522   -2.8821 H   0  0  0  0  0  0  0  0  0  0  0  0
    4.5467   -2.3004    1.1259 H   0  0  0  0  0  0  0  0  0  0  0  0
    6.0839   -1.8505    0.3848 H   0  0  0  0  0  0  0  0  0  0  0  0
    6.2618    0.1741    1.9108 H   0  0  0  0  0  0  0  0  0  0  0  0
    4.6997   -0.2590    2.6670 H   0  0  0  0  0  0  0  0  0  0  0  0
    6.1177   -1.3452    2.8523 H   0  0  0  0  0  0  0  0  0  0  0  0
  2 12  1  0  0  0  0
  3 20  1  0  0  0  0
  4 14  1  0  0  0  0
  5 25  1  0  0  0  0
  6 23  1  0  0  0  0
  6 28  1  0  0  0  0
  7  8  1  0  0  0  0
  7  1  1  0  0  0  0
  8 30  1  0  0  0  0
  9 31  1  0  0  0  0
  9  8  2  0  0  0  0
 10  9  1  0  0  0  0
 11 12  1  0  0  0  0
 11 10  2  0  0  0  0
 12  7  2  0  0  0  0
 13  2  1  0  0  0  0
 14 19  1  0  0  0  0
 15 16  1  0  0  0  0
 15 14  2  0  0  0  0
 16 17  2  0  0  0  0
 17 38  1  0  0  0  0
 17 18  1  0  0  0  0
 18 39  1  0  0  0  0
 19 18  2  0  0  0  0
 19  3  1  0  0  0  0
 20 40  1  0  0  0  0
 20 41  1  0  0  0  0
 21 13  1  6  0  0  0
 21  5  1  0  0  0  0
 22 21  1  0  0  0  0
 22 23  2  0  0  0  0
 23 24  1  0  0  0  0
 24 25  2  0  0  0  0
 24 43  1  0  0  0  0
 25 20  1  0  0  0  0
 26 45  1  0  0  0  0
 26  6  1  0  0  0  0
 27 47  1  0  0  0  0
 27 26  1  0  0  0  0
 28 49  1  0  0  0  0
 28 29  1  0  0  0  0
 29 52  1  0  0  0  0
 29 53  1  0  0  0  0
 32 10  1  0  0  0  0
 33 11  1  0  0  0  0
 34 13  1  0  0  0  0
 35 13  1  0  0  0  0
 36 15  1  0  0  0  0
 37 16  1  0  0  0  0
 42 22  1  0  0  0  0
 44 26  1  0  0  0  0
 46 27  1  0  0  0  0
 48 27  1  0  0  0  0
 50 28  1  0  0  0  0
 51 29  1  0  0  0  0
M  END
