1,2,3,4,37
q = -2.0, confidence = 0.848

 41 42  0  0  0  0  0  0  0  0999 V2000
   -1.5867   -1.4203    1.0554 S   0  0  0  0  0  1  0  0  0  0  0  0
   -1.5990    0.8539   -1.2072 S   0  0  0  0  0  0  0  0  0  0  0  0
    1.5989    0.8538   -1.2073 S   0  0  0  0  0  0  0  0  0  0  0  0
    1.5867   -1.4204    1.0552 S   0  0  0  0  0  1  0  0  0  0  0  0
   -3.1444    0.1114   -0.6650 C   0  0  0  0  0  0  0  0  0  0  0  0
   -4.3517    0.5138   -1.2618 C   0  0  0  0  0  0  0  0  0  0  0  0
   -4.3351    1.2706   -2.0621 H   0  0  0  0  0  0  0  0  0  0  0  0
   -5.5596   -0.0514   -0.8354 C   0  0  0  0  0  0  0  0  0  0  0  0
   -6.5094    0.2579   -1.2953 H   0  0  0  0  0  0  0  0  0  0  0  0
   -5.5368   -1.0323    0.1774 C   0  0  0  0  0  0  0  0  0  0  0  0
   -6.4794   -1.4905    0.5150 H   0  0  0  0  0  0  0  0  0  0  0  0
   -4.3330   -1.4475    0.7516 C   0  0  0  0  0  0  0  0  0  0  0  0
   -4.3247   -2.2253    1.5302 H   0  0  0  0  0  0  0  0  0  0  0  0
   -3.0945   -0.8864    0.3394 C   0  0  0  0  0  0  0  0  0  0  0  0
    3.1444    0.1114   -0.6650 C   0  0  0  0  0  0  0  0  0  0  0  0
    4.3518    0.5138   -1.2617 C   0  0  0  0  0  0  0  0  0  0  0  0
    4.3352    1.2707   -2.0620 H   0  0  0  0  0  0  0  0  0  0  0  0
    5.5596   -0.0514   -0.8353 C   0  0  0  0  0  0  0  0  0  0  0  0
    6.5094    0.2580   -1.2951 H   0  0  0  0  0  0  0  0  0  0  0  0
    5.5368   -1.0323    0.1775 C   0  0  0  0  0  0  0  0  0  0  0  0
    6.4793   -1.4904    0.5151 H   0  0  0  0  0  0  0  0  0  0  0  0
    4.3330   -1.4475    0.7516 C   0  0  0  0  0  0  0  0  0  0  0  0
    4.3247   -2.2253    1.5301 H   0  0  0  0  0  0  0  0  0  0  0  0
    3.0945   -0.8864    0.3393 C   0  0  0  0  0  0  0  0  0  0  0  0
   -1.6341    2.4202   -0.2194 C   0  0  0  0  0  0  0  0  0  0  0  0
   -2.6610    2.8308   -0.2759 H   0  0  0  0  0  0  0  0  0  0  0  0
   -0.9614    3.1284   -0.7386 H   0  0  0  0  0  0  0  0  0  0  0  0
   -1.2486    2.1341    1.2198 C   0  0  0  0  0  0  0  0  0  0  0  0
   -2.0598    1.5302    1.6732 H   0  0  0  0  0  0  0  0  0  0  0  0
   -1.1823    3.0875    1.7975 H   0  0  0  0  0  0  0  0  0  0  0  0
    1.6340    2.4202   -0.2197 C   0  0  0  0  0  0  0  0  0  0  0  0
    0.9612    3.1282   -0.7389 H   0  0  0  0  0  0  0  0  0  0  0  0
    2.6609    2.8308   -0.2763 H   0  0  0  0  0  0  0  0  0  0  0  0
    1.2487    2.1342    1.2197 C   0  0  0  0  0  0  0  0  0  0  0  0
    1.1824    3.0877    1.7972 H   0  0  0  0  0  0  0  0  0  0  0  0
    2.0600    1.5304    1.6730 H   0  0  0  0  0  0  0  0  0  0  0  0
    0.0001    1.3465    1.3998 N   0  0  0  0  0  0  0  0  0  0  0  0
    0.0002    0.8380    2.7919 C   0  0  0  0  0  0  0  0  0  0  0  0
    0.8950    0.2050    2.9398 H   0  0  0  0  0  0  0  0  0  0  0  0
   -0.8946    0.2049    2.9399 H   0  0  0  0  0  0  0  0  0  0  0  0
    0.0002    1.6824    3.5176 H   0  0  0  0  0  0  0  0  0  0  0  0
  2  5  1  0  0  0  0
  2 25  1  0  0  0  0
  3 15  1  0  0  0  0
  3 31  1  0  0  0  0
  5 14  1  0  0  0  0
  6  8  1  0  0  0  0
  6  5  2  0  0  0  0
  7  6  1  0  0  0  0
  8 10  2  0  0  0  0
  9  8  1  0  0  0  0
 10 11  1  0  0  0  0
 10 12  1  0  0  0  0
 12 13  1  0  0  0  0
 14 12  2  0  0  0  0
 14  1  1  0  0  0  0
 15 24  1  0  0  0  0
 16 18  1  0  0  0  0
 16 15  2  0  0  0  0
 17 16  1  0  0  0  0
 18 20  2  0  0  0  0
 19 18  1  0  0  0  0
 20 21  1  0  0  0  0
 20 22  1  0  0  0  0
 22 23  1  0  0  0  0
 24 22  2  0  0  0  0
 24  4  1  0  0  0  0
 25 28  1  0  0  0  0
 26 25  1  0  0  0  0
 27 25  1  0  0  0  0
 28 37  1  0  0  0  0
 28 29  1  0  0  0  0
 28 30  1  0  0  0  0
 31 34  1  0  0  0  0
 32 31  1  0  0  0  0
 33 31  1  0  0  0  0
 34 37  1  0  0  0  0
 34 36  1  0  0  0  0
 34 35  1  0  0  0  0
 37 38  1  0  0  0  0
 38 39  1  0  0  0  0
 38 40  1  0  0  0  0
 38 41  1  0  0  0  0
M  END
