3,4,8
 OpenBabel05122313063D

 68 68  0  0  1  0  0  0  0  0999 V2000
   -1.9177   -0.3063    2.6291 Cl  0  0  0  0  0  0  0  0  0  0  0  0
    1.9182   -0.3071    2.6280 Cl  0  0  0  0  0  0  0  0  0  0  0  0
   -1.1455   -0.1629    0.6504 Si  0  0  2  0  0  0  0  0  0  0  0  0
    1.1449   -0.1623    0.6498 Si  0  0  1  0  0  0  0  0  0  0  0  0
   -2.7333    1.0708   -0.6288 Si  0  0  0  0  0  0  0  0  0  0  0  0
    2.7334    1.0708   -0.6290 Si  0  0  0  0  0  0  0  0  0  0  0  0
    0.0017   -1.1427   -2.7442 O   0  0  0  0  0  1  0  0  0  0  0  0
    0.0008   -1.5324   -1.6467 C   0  0  2  0  0  3  0  0  0  0  0  0
   -1.8789    1.7064   -2.2007 C   0  0  0  0  0  0  0  0  0  0  0  0
   -2.6387    2.1523   -2.8756 H   0  0  0  0  0  0  0  0  0  0  0  0
   -1.1394    2.4941   -1.9577 H   0  0  0  0  0  0  0  0  0  0  0  0
   -1.3578    0.9056   -2.7566 H   0  0  0  0  0  0  0  0  0  0  0  0
   -3.2160    2.6260    0.4472 C   0  0  0  0  0  0  0  0  0  0  0  0
   -1.9337    3.1784    1.1006 C   0  0  0  0  0  0  0  0  0  0  0  0
   -1.5094    2.4759    1.8463 H   0  0  0  0  0  0  0  0  0  0  0  0
   -1.1429    3.3981    0.3538 H   0  0  0  0  0  0  0  0  0  0  0  0
   -2.1577    4.1306    1.6311 H   0  0  0  0  0  0  0  0  0  0  0  0
   -3.7987    3.7085   -0.4864 C   0  0  0  0  0  0  0  0  0  0  0  0
   -4.0753    4.6041    0.1136 H   0  0  0  0  0  0  0  0  0  0  0  0
   -3.0692    4.0417   -1.2518 H   0  0  0  0  0  0  0  0  0  0  0  0
   -4.7136    3.3709   -1.0122 H   0  0  0  0  0  0  0  0  0  0  0  0
   -4.2429    2.2920    1.5440 C   0  0  0  0  0  0  0  0  0  0  0  0
   -4.4481    3.2000    2.1538 H   0  0  0  0  0  0  0  0  0  0  0  0
   -5.2121    1.9588    1.1217 H   0  0  0  0  0  0  0  0  0  0  0  0
   -3.8751    1.5039    2.2288 H   0  0  0  0  0  0  0  0  0  0  0  0
   -4.1870   -0.1180   -1.1285 C   0  0  0  0  0  0  0  0  0  0  0  0
   -5.3886    0.6978   -1.6442 C   0  0  0  0  0  0  0  0  0  0  0  0
   -5.8447    1.3243   -0.8522 H   0  0  0  0  0  0  0  0  0  0  0  0
   -5.1152    1.3614   -2.4909 H   0  0  0  0  0  0  0  0  0  0  0  0
   -6.1803    0.0081   -2.0130 H   0  0  0  0  0  0  0  0  0  0  0  0
   -4.6216   -0.9893    0.0647 C   0  0  0  0  0  0  0  0  0  0  0  0
   -5.4407   -1.6761   -0.2443 H   0  0  0  0  0  0  0  0  0  0  0  0
   -3.7913   -1.6186    0.4440 H   0  0  0  0  0  0  0  0  0  0  0  0
   -4.9924   -0.3864    0.9163 H   0  0  0  0  0  0  0  0  0  0  0  0
   -3.6876   -1.0277   -2.2680 C   0  0  0  0  0  0  0  0  0  0  0  0
   -4.4789   -1.7607   -2.5402 H   0  0  0  0  0  0  0  0  0  0  0  0
   -3.4366   -0.4547   -3.1830 H   0  0  0  0  0  0  0  0  0  0  0  0
   -2.7919   -1.6103   -1.9793 H   0  0  0  0  0  0  0  0  0  0  0  0
    1.8800    1.7062   -2.2015 C   0  0  0  0  0  0  0  0  0  0  0  0
    1.1398    2.4935   -1.9590 H   0  0  0  0  0  0  0  0  0  0  0  0
    2.6400    2.1527   -2.8758 H   0  0  0  0  0  0  0  0  0  0  0  0
    1.3598    0.9052   -2.7580 H   0  0  0  0  0  0  0  0  0  0  0  0
    3.2153    2.6262    0.4471 C   0  0  0  0  0  0  0  0  0  0  0  0
    3.7978    3.7089   -0.4864 C   0  0  0  0  0  0  0  0  0  0  0  0
    4.0741    4.6045    0.1136 H   0  0  0  0  0  0  0  0  0  0  0  0
    4.7130    3.3716   -1.0119 H   0  0  0  0  0  0  0  0  0  0  0  0
    3.0685    4.0419   -1.2519 H   0  0  0  0  0  0  0  0  0  0  0  0
    1.9325    3.1782    1.1000 C   0  0  0  0  0  0  0  0  0  0  0  0
    2.1560    4.1307    1.6303 H   0  0  0  0  0  0  0  0  0  0  0  0
    1.1418    3.3973    0.3530 H   0  0  0  0  0  0  0  0  0  0  0  0
    1.5084    2.4757    1.8458 H   0  0  0  0  0  0  0  0  0  0  0  0
    4.2419    2.2927    1.5442 C   0  0  0  0  0  0  0  0  0  0  0  0
    3.8742    1.5045    2.2289 H   0  0  0  0  0  0  0  0  0  0  0  0
    5.2114    1.9598    1.1223 H   0  0  0  0  0  0  0  0  0  0  0  0
    4.4466    3.2009    2.1540 H   0  0  0  0  0  0  0  0  0  0  0  0
    4.1875   -0.1179   -1.1277 C   0  0  0  0  0  0  0  0  0  0  0  0
    3.6887   -1.0283   -2.2670 C   0  0  0  0  0  0  0  0  0  0  0  0
    3.4374   -0.4558   -3.1822 H   0  0  0  0  0  0  0  0  0  0  0  0
    4.4806   -1.7608   -2.5389 H   0  0  0  0  0  0  0  0  0  0  0  0
    2.7935   -1.6115   -1.9780 H   0  0  0  0  0  0  0  0  0  0  0  0
    4.6223   -0.9885    0.0659 C   0  0  0  0  0  0  0  0  0  0  0  0
    3.7922   -1.6181    0.4452 H   0  0  0  0  0  0  0  0  0  0  0  0
    5.4417   -1.6751   -0.2427 H   0  0  0  0  0  0  0  0  0  0  0  0
    4.9927   -0.3852    0.9173 H   0  0  0  0  0  0  0  0  0  0  0  0
    5.3888    0.6983   -1.6435 C   0  0  0  0  0  0  0  0  0  0  0  0
    5.8444    1.3253   -0.8516 H   0  0  0  0  0  0  0  0  0  0  0  0
    6.1809    0.0088   -2.0119 H   0  0  0  0  0  0  0  0  0  0  0  0
    5.1153    1.3613   -2.4906 H   0  0  0  0  0  0  0  0  0  0  0  0
  3  1  1  1  0  0  0
  3  8  1  0  0  0  0
  4  3  1  0  0  0  0
  4  2  1  1  0  0  0
  4  8  1  0  0  0  0
  5 13  1  0  0  0  0
  5  3  1  0  0  0  0
  6 43  1  0  0  0  0
  6  4  1  0  0  0  0
  8  7  1  6  0  0  0
  9 11  1  0  0  0  0
  9  5  1  0  0  0  0
 10  9  1  0  0  0  0
 12  9  1  0  0  0  0
 13 14  1  0  0  0  0
 13 22  1  0  0  0  0
 14 17  1  0  0  0  0
 14 15  1  0  0  0  0
 16 14  1  0  0  0  0
 18 19  1  0  0  0  0
 18 13  1  0  0  0  0
 20 18  1  0  0  0  0
 21 18  1  0  0  0  0
 22 23  1  0  0  0  0
 22 25  1  0  0  0  0
 24 22  1  0  0  0  0
 26  5  1  0  0  0  0
 26 31  1  0  0  0  0
 27 26  1  0  0  0  0
 27 28  1  0  0  0  0
 29 27  1  0  0  0  0
 30 27  1  0  0  0  0
 31 33  1  0  0  0  0
 31 34  1  0  0  0  0
 32 31  1  0  0  0  0
 35 38  1  0  0  0  0
 35 26  1  0  0  0  0
 36 35  1  0  0  0  0
 37 35  1  0  0  0  0
 39 40  1  0  0  0  0
 39  6  1  0  0  0  0
 41 39  1  0  0  0  0
 42 39  1  0  0  0  0
 43 48  1  0  0  0  0
 43 52  1  0  0  0  0
 44 45  1  0  0  0  0
 44 43  1  0  0  0  0
 46 44  1  0  0  0  0
 47 44  1  0  0  0  0
 48 49  1  0  0  0  0
 48 51  1  0  0  0  0
 50 48  1  0  0  0  0
 52 55  1  0  0  0  0
 52 53  1  0  0  0  0
 54 52  1  0  0  0  0
 56  6  1  0  0  0  0
 56 61  1  0  0  0  0
 57 60  1  0  0  0  0
 57 56  1  0  0  0  0
 58 57  1  0  0  0  0
 59 57  1  0  0  0  0
 61 62  1  0  0  0  0
 61 64  1  0  0  0  0
 63 61  1  0  0  0  0
 65 56  1  0  0  0  0
 65 66  1  0  0  0  0
 67 65  1  0  0  0  0
 68 65  1  0  0  0  0
M  HYD  2   7   0   8   0
M  ZBO  2   2   0   5   0
M  END
