1,2,3,16
 OpenBabel05122313063D

 71 71  0  0  1  0  0  0  0  0999 V2000
   -2.4285    0.0255   -0.1003 P   0  0  0  0  0  0  0  0  0  0  0  0
    2.4302    0.5158   -0.1988 P   0  0  0  0  0  0  0  0  0  0  0  0
   -0.2754   -0.0555    1.6960 O   0  5  0  0  0  0  0  0  0  0  0  0
   -1.2999    0.9019    3.4725 O   0  0  0  0  0  0  0  0  0  0  0  0
   -1.2046    0.6825    2.2782 C   0  0  0  0  0  0  0  0  0  0  0  0
   -2.1465    1.3379    1.2206 C   0  0  1  0  0  0  0  0  0  0  0  0
   -3.0539    1.7403    1.7057 H   0  0  0  0  0  0  0  0  0  0  0  0
   -1.2617    2.3931    0.5906 C   0  0  0  0  0  0  0  0  0  0  0  0
   -1.4377    3.7752    0.7581 C   0  0  0  0  0  0  0  0  0  0  0  0
   -2.3180    4.1635    1.2934 H   0  0  0  0  0  0  0  0  0  0  0  0
   -0.4674    4.6593    0.2501 C   0  0  0  0  0  0  0  0  0  0  0  0
   -0.6053    5.7449    0.3678 H   0  0  0  0  0  0  0  0  0  0  0  0
    0.6989    4.1694   -0.3584 C   0  0  0  0  0  0  0  0  0  0  0  0
    1.4758    4.8738   -0.6959 H   0  0  0  0  0  0  0  0  0  0  0  0
    0.8961    2.7799   -0.5051 C   0  0  0  0  0  0  0  0  0  0  0  0
   -0.1201    1.8866   -0.0881 C   0  0  0  0  0  3  0  0  0  0  0  0
    2.1960    2.1961   -1.0116 C   0  0  0  0  0  0  0  0  0  0  0  0
    3.0581    2.8745   -0.8476 H   0  0  0  0  0  0  0  0  0  0  0  0
    2.1484    1.9809   -2.1017 H   0  0  0  0  0  0  0  0  0  0  0  0
   -3.4969   -1.3689    0.6696 C   0  0  0  0  0  0  0  0  0  0  0  0
   -2.8698   -1.7657    2.0212 C   0  0  0  0  0  0  0  0  0  0  0  0
   -3.4201   -2.6531    2.3990 H   0  0  0  0  0  0  0  0  0  0  0  0
   -2.9630   -0.9712    2.7854 H   0  0  0  0  0  0  0  0  0  0  0  0
   -1.8044   -2.0472    1.9252 H   0  0  0  0  0  0  0  0  0  0  0  0
   -3.4180   -2.5908   -0.2677 C   0  0  0  0  0  0  0  0  0  0  0  0
   -3.9096   -2.4265   -1.2425 H   0  0  0  0  0  0  0  0  0  0  0  0
   -3.9299   -3.4446    0.2247 H   0  0  0  0  0  0  0  0  0  0  0  0
   -2.3649   -2.8897   -0.4437 H   0  0  0  0  0  0  0  0  0  0  0  0
   -4.9551   -0.9506    0.9189 C   0  0  0  0  0  0  0  0  0  0  0  0
   -5.0264   -0.0596    1.5749 H   0  0  0  0  0  0  0  0  0  0  0  0
   -5.4739   -1.7825    1.4410 H   0  0  0  0  0  0  0  0  0  0  0  0
   -5.5175   -0.7503   -0.0124 H   0  0  0  0  0  0  0  0  0  0  0  0
   -3.3878    0.9194   -1.5179 C   0  0  0  0  0  0  0  0  0  0  0  0
   -4.0392   -0.1294   -2.4379 C   0  0  0  0  0  0  0  0  0  0  0  0
   -3.2917   -0.8429   -2.8379 H   0  0  0  0  0  0  0  0  0  0  0  0
   -4.4922    0.3985   -3.3033 H   0  0  0  0  0  0  0  0  0  0  0  0
   -4.8462   -0.7009   -1.9439 H   0  0  0  0  0  0  0  0  0  0  0  0
   -4.4524    1.8621   -0.9245 C   0  0  0  0  0  0  0  0  0  0  0  0
   -5.1773    1.3488   -0.2681 H   0  0  0  0  0  0  0  0  0  0  0  0
   -5.0236    2.3204   -1.7599 H   0  0  0  0  0  0  0  0  0  0  0  0
   -3.9858    2.6897   -0.3558 H   0  0  0  0  0  0  0  0  0  0  0  0
   -2.4319    1.7609   -2.3880 C   0  0  0  0  0  0  0  0  0  0  0  0
   -1.9516    2.5798   -1.8251 H   0  0  0  0  0  0  0  0  0  0  0  0
   -3.0360    2.2179   -3.2004 H   0  0  0  0  0  0  0  0  0  0  0  0
   -1.6420    1.1443   -2.8528 H   0  0  0  0  0  0  0  0  0  0  0  0
    3.1183    0.8457    1.5557 C   0  0  0  0  0  0  0  0  0  0  0  0
    2.3084    1.9796    2.2134 C   0  0  0  0  0  0  0  0  0  0  0  0
    2.4187    2.9463    1.6860 H   0  0  0  0  0  0  0  0  0  0  0  0
    2.6979    2.1134    3.2445 H   0  0  0  0  0  0  0  0  0  0  0  0
    1.2348    1.7399    2.2956 H   0  0  0  0  0  0  0  0  0  0  0  0
    4.5948    1.2745    1.5145 C   0  0  0  0  0  0  0  0  0  0  0  0
    5.2666    0.4766    1.1476 H   0  0  0  0  0  0  0  0  0  0  0  0
    4.9122    1.5203    2.5497 H   0  0  0  0  0  0  0  0  0  0  0  0
    4.7533    2.1841    0.9006 H   0  0  0  0  0  0  0  0  0  0  0  0
    2.9420   -0.4396    2.3875 C   0  0  0  0  0  0  0  0  0  0  0  0
    1.8737   -0.7132    2.4775 H   0  0  0  0  0  0  0  0  0  0  0  0
    3.3370   -0.2514    3.4082 H   0  0  0  0  0  0  0  0  0  0  0  0
    3.4889   -1.3026    1.9669 H   0  0  0  0  0  0  0  0  0  0  0  0
    3.6946   -0.3854   -1.3207 C   0  0  0  0  0  0  0  0  0  0  0  0
    4.8197    0.5628   -1.7772 C   0  0  0  0  0  0  0  0  0  0  0  0
    4.4352    1.4053   -2.3847 H   0  0  0  0  0  0  0  0  0  0  0  0
    5.5180   -0.0102   -2.4235 H   0  0  0  0  0  0  0  0  0  0  0  0
    5.4093    0.9768   -0.9402 H   0  0  0  0  0  0  0  0  0  0  0  0
    4.2682   -1.6116   -0.5902 C   0  0  0  0  0  0  0  0  0  0  0  0
    4.9248   -1.3378    0.2573 H   0  0  0  0  0  0  0  0  0  0  0  0
    4.8824   -2.1944   -1.3087 H   0  0  0  0  0  0  0  0  0  0  0  0
    3.4594   -2.2746   -0.2210 H   0  0  0  0  0  0  0  0  0  0  0  0
    2.9288   -0.8785   -2.5634 C   0  0  0  0  0  0  0  0  0  0  0  0
    2.1767   -1.6464   -2.3007 H   0  0  0  0  0  0  0  0  0  0  0  0
    3.6593   -1.3349   -3.2638 H   0  0  0  0  0  0  0  0  0  0  0  0
    2.4132   -0.0606   -3.1049 H   0  0  0  0  0  0  0  0  0  0  0  0
  1 20  1  0  0  0  0
  1  6  1  0  0  0  0
  2 46  1  0  0  0  0
  3  5  1  0  0  0  0
  5  4  2  0  0  0  0
  6  7  1  1  0  0  0
  6  5  1  0  0  0  0
  8  9  1  0  0  0  0
  8  6  1  0  0  0  0
  9 10  1  0  0  0  0
 11 12  1  0  0  0  0
 11  9  2  0  0  0  0
 13 11  1  0  0  0  0
 14 13  1  0  0  0  0
 15 13  2  0  0  0  0
 15 16  1  0  0  0  0
 16  8  2  0  0  0  0
 17 18  1  0  0  0  0
 17 15  1  0  0  0  0
 17  2  1  0  0  0  0
 19 17  1  0  0  0  0
 20 29  1  0  0  0  0
 20 21  1  0  0  0  0
 21 22  1  0  0  0  0
 21 23  1  0  0  0  0
 24 21  1  0  0  0  0
 25 27  1  0  0  0  0
 25 20  1  0  0  0  0
 26 25  1  0  0  0  0
 28 25  1  0  0  0  0
 29 31  1  0  0  0  0
 29 30  1  0  0  0  0
 32 29  1  0  0  0  0
 33 38  1  0  0  0  0
 33  1  1  0  0  0  0
 34 37  1  0  0  0  0
 34 33  1  0  0  0  0
 35 34  1  0  0  0  0
 36 34  1  0  0  0  0
 38 41  1  0  0  0  0
 38 39  1  0  0  0  0
 40 38  1  0  0  0  0
 42 43  1  0  0  0  0
 42 33  1  0  0  0  0
 44 42  1  0  0  0  0
 45 42  1  0  0  0  0
 46 47  1  0  0  0  0
 46 55  1  0  0  0  0
 47 50  1  0  0  0  0
 47 49  1  0  0  0  0
 48 47  1  0  0  0  0
 51 46  1  0  0  0  0
 51 53  1  0  0  0  0
 52 51  1  0  0  0  0
 54 51  1  0  0  0  0
 55 56  1  0  0  0  0
 55 57  1  0  0  0  0
 58 55  1  0  0  0  0
 59 64  1  0  0  0  0
 59  2  1  0  0  0  0
 60 59  1  0  0  0  0
 60 63  1  0  0  0  0
 61 60  1  0  0  0  0
 62 60  1  0  0  0  0
 64 67  1  0  0  0  0
 64 65  1  0  0  0  0
 66 64  1  0  0  0  0
 68 69  1  0  0  0  0
 68 59  1  0  0  0  0
 70 68  1  0  0  0  0
 71 68  1  0  0  0  0
M  CHG  1   3  -1
M  END
