1,2
q = -1.0, confidence = 0.032

 31 32  0  0  0  0  0  0  0  0999 V2000
    0.9228   -2.8363   -0.0820 S   0  0  0  0  0  1  0  0  0  0  0  0
    0.8169    0.0006   -0.5757 S   0  0  0  0  0  1  0  0  0  0  0  0
    3.1463   -1.3932   -0.6925 N   0  0  0  0  0  0  0  0  0  0  0  0
    5.8231   -1.1258    0.2057 N   0  0  0  0  0  0  0  0  0  0  0  0
    1.8173   -1.4170   -0.4773 C   0  0  0  0  0  3  0  0  0  0  0  0
    3.8878   -0.1633   -0.9602 C   0  0  0  0  0  0  0  0  0  0  0  0
    3.1767    0.6847   -0.9819 H   0  0  0  0  0  0  0  0  0  0  0  0
    4.3676   -0.2488   -1.9597 H   0  0  0  0  0  0  0  0  0  0  0  0
    4.9574    0.0440    0.1116 C   0  0  0  0  0  0  0  0  0  0  0  0
    5.5727    0.9280   -0.1515 H   0  0  0  0  0  0  0  0  0  0  0  0
    4.4514    0.2651    1.0900 H   0  0  0  0  0  0  0  0  0  0  0  0
    5.0578   -2.3243    0.5206 C   0  0  0  0  0  0  0  0  0  0  0  0
    4.5530   -2.2548    1.5217 H   0  0  0  0  0  0  0  0  0  0  0  0
    5.7462   -3.1939    0.5578 H   0  0  0  0  0  0  0  0  0  0  0  0
    3.9922   -2.5749   -0.5477 C   0  0  0  0  0  0  0  0  0  0  0  0
    4.4820   -2.7807   -1.5246 H   0  0  0  0  0  0  0  0  0  0  0  0
    3.3530   -3.4383   -0.2808 H   0  0  0  0  0  0  0  0  0  0  0  0
    6.9628   -0.9176    1.0897 C   0  0  0  0  0  0  0  0  0  0  0  0
    7.4836   -1.8958    1.1902 H   0  0  0  0  0  0  0  0  0  0  0  0
    6.6477   -0.6280    2.1276 H   0  0  0  0  0  0  0  0  0  0  0  0
    7.9411    0.1103    0.5559 C   0  0  0  0  0  0  0  0  0  0  0  0
    8.2941    0.1093   -0.8089 C   0  0  0  0  0  0  0  0  0  0  0  0
    7.8139   -0.6239   -1.4750 H   0  0  0  0  0  0  0  0  0  0  0  0
    9.2220    1.0346   -1.3060 C   0  0  0  0  0  0  0  0  0  0  0  0
    9.4878    1.0235   -2.3744 H   0  0  0  0  0  0  0  0  0  0  0  0
    9.8141    1.9738   -0.4447 C   0  0  0  0  0  0  0  0  0  0  0  0
   10.5429    2.7003   -0.8349 H   0  0  0  0  0  0  0  0  0  0  0  0
    9.4664    1.9843    0.9146 C   0  0  0  0  0  0  0  0  0  0  0  0
    9.9196    2.7216    1.5948 H   0  0  0  0  0  0  0  0  0  0  0  0
    8.5317    1.0604    1.4089 C   0  0  0  0  0  0  0  0  0  0  0  0
    8.2525    1.0772    2.4748 H   0  0  0  0  0  0  0  0  0  0  0  0
  2  5  1  0  0  0  0
  3 15  1  0  0  0  0
  3  5  1  0  0  0  0
  4 12  1  0  0  0  0
  4 18  1  0  0  0  0
  5  1  1  0  0  0  0
  6  3  1  0  0  0  0
  6  9  1  0  0  0  0
  7  6  1  0  0  0  0
  8  6  1  0  0  0  0
  9  4  1  0  0  0  0
  9 11  1  0  0  0  0
 10  9  1  0  0  0  0
 12 14  1  0  0  0  0
 12 13  1  0  0  0  0
 15 17  1  0  0  0  0
 15 12  1  0  0  0  0
 16 15  1  0  0  0  0
 18 19  1  0  0  0  0
 18 20  1  0  0  0  0
 21 18  1  0  0  0  0
 21 30  1  0  0  0  0
 22 21  2  0  0  0  0
 23 22  1  0  0  0  0
 24 22  1  0  0  0  0
 24 26  2  0  0  0  0
 25 24  1  0  0  0  0
 26 28  1  0  0  0  0
 27 26  1  0  0  0  0
 28 30  2  0  0  0  0
 28 29  1  0  0  0  0
 30 31  1  0  0  0  0
M  END
