1,2
q = -1.0, confidence = 0.0

 37 38  0  0  1  0  0  0  0  0999 V2000
    1.3234    1.9488    1.1891 S   0  0  0  0  0  1  0  0  0  0  0  0
    1.2650    2.1333   -1.9528 S   0  0  0  0  0  1  0  0  0  0  0  0
    3.7448    0.3280    1.7888 P   0  0  0  0  0  0  0  0  0  0  0  0
    1.3748   -0.5121   -2.5890 N   0  0  0  0  0  0  0  0  0  0  0  0
    2.2520    0.0320   -0.5293 N   0  0  0  0  0  2  0  0  0  0  0  0
    2.3315    0.6966    0.5950 C   0  0  2  0  0  3  0  0  0  0  0  0
    1.6195    0.4317   -1.6484 C   0  0  1  0  0  3  0  0  0  0  0  0
    0.7413   -0.2317   -3.8652 C   0  0  0  0  0  0  0  0  0  0  0  0
    1.4257   -0.5088   -4.6956 H   0  0  0  0  0  0  0  0  0  0  0  0
    0.4954    0.8427   -3.9241 H   0  0  0  0  0  0  0  0  0  0  0  0
   -0.1922   -0.8253   -3.9554 H   0  0  0  0  0  0  0  0  0  0  0  0
    1.6560   -1.9187   -2.3302 C   0  0  0  0  0  0  0  0  0  0  0  0
    0.7073   -2.4727   -2.1693 H   0  0  0  0  0  0  0  0  0  0  0  0
    2.2762   -2.0083   -1.4216 H   0  0  0  0  0  0  0  0  0  0  0  0
    2.1818   -2.3553   -3.2041 H   0  0  0  0  0  0  0  0  0  0  0  0
    3.7904   -1.5145    1.5776 C   0  0  0  0  0  0  0  0  0  0  0  0
    4.3113   -2.1633    0.4384 C   0  0  0  0  0  0  0  0  0  0  0  0
    4.7589   -1.5638   -0.3675 H   0  0  0  0  0  0  0  0  0  0  0  0
    4.2571   -3.5610    0.3353 C   0  0  0  0  0  0  0  0  0  0  0  0
    4.6670   -4.0594   -0.5569 H   0  0  0  0  0  0  0  0  0  0  0  0
    3.6816   -4.3260    1.3647 C   0  0  0  0  0  0  0  0  0  0  0  0
    3.6444   -5.4232    1.2816 H   0  0  0  0  0  0  0  0  0  0  0  0
    3.1638   -3.6883    2.5031 C   0  0  0  0  0  0  0  0  0  0  0  0
    2.7185   -4.2821    3.3162 H   0  0  0  0  0  0  0  0  0  0  0  0
    3.2225   -2.2890    2.6101 C   0  0  0  0  0  0  0  0  0  0  0  0
    2.8249   -1.7859    3.5063 H   0  0  0  0  0  0  0  0  0  0  0  0
    5.1434    0.8680    0.7029 C   0  0  0  0  0  0  0  0  0  0  0  0
    4.9748    1.8199   -0.3249 C   0  0  0  0  0  0  0  0  0  0  0  0
    3.9740    2.2118   -0.5670 H   0  0  0  0  0  0  0  0  0  0  0  0
    6.0843    2.2698   -1.0580 C   0  0  0  0  0  0  0  0  0  0  0  0
    5.9364    3.0085   -1.8608 H   0  0  0  0  0  0  0  0  0  0  0  0
    7.3694    1.7803   -0.7783 C   0  0  0  0  0  0  0  0  0  0  0  0
    8.2355    2.1335   -1.3584 H   0  0  0  0  0  0  0  0  0  0  0  0
    7.5443    0.8376    0.2484 C   0  0  0  0  0  0  0  0  0  0  0  0
    8.5486    0.4489    0.4775 H   0  0  0  0  0  0  0  0  0  0  0  0
    6.4413    0.3901    0.9891 C   0  0  0  0  0  0  0  0  0  0  0  0
    6.5884   -0.3483    1.7937 H   0  0  0  0  0  0  0  0  0  0  0  0
  4 12  1  0  0  0  0
  4  7  1  0  0  0  0
  5  6  1  0  0  0  0
  6  1  1  6  0  0  0
  6  3  1  0  0  0  0
  7  2  1  6  0  0  0
  7  5  1  0  0  0  0
  8  4  1  0  0  0  0
  9  8  1  0  0  0  0
 10  8  1  0  0  0  0
 11  8  1  0  0  0  0
 12 13  1  0  0  0  0
 12 14  1  0  0  0  0
 15 12  1  0  0  0  0
 16  3  1  0  0  0  0
 16 25  1  0  0  0  0
 17 16  2  0  0  0  0
 18 17  1  0  0  0  0
 19 17  1  0  0  0  0
 19 21  2  0  0  0  0
 20 19  1  0  0  0  0
 21 23  1  0  0  0  0
 22 21  1  0  0  0  0
 23 25  2  0  0  0  0
 23 24  1  0  0  0  0
 25 26  1  0  0  0  0
 27 36  1  0  0  0  0
 27  3  1  0  0  0  0
 28 27  2  0  0  0  0
 29 28  1  0  0  0  0
 30 32  2  0  0  0  0
 30 28  1  0  0  0  0
 31 30  1  0  0  0  0
 32 34  1  0  0  0  0
 33 32  1  0  0  0  0
 34 35  1  0  0  0  0
 34 36  2  0  0  0  0
 36 37  1  0  0  0  0
M  END
