1,2
q = -2.0, confidence = 0.522

 12 12  0  0  0  0  0  0  0  0999 V2000
   -1.9976   -1.0136   -1.4298 S   0  0  0  0  0  1  0  0  0  0  0  0
   -1.9961   -0.3237    1.7319 S   0  0  0  0  0  1  0  0  0  0  0  0
   -3.4826   -0.2236    0.7912 C   0  0  0  0  0  0  0  0  0  0  0  0
   -3.4838   -0.5321   -0.6168 C   0  0  0  0  0  0  0  0  0  0  0  0
   -5.9110    0.0605    0.7157 C   0  0  0  0  0  0  0  0  0  0  0  0
   -6.8554    0.2948    1.2299 H   0  0  0  0  0  0  0  0  0  0  0  0
   -4.7155   -0.5373   -1.3166 C   0  0  0  0  0  0  0  0  0  0  0  0
   -4.7070   -0.7716   -2.3916 H   0  0  0  0  0  0  0  0  0  0  0  0
   -5.9123   -0.2433   -0.6634 C   0  0  0  0  0  0  0  0  0  0  0  0
   -6.8575   -0.2462   -1.2270 H   0  0  0  0  0  0  0  0  0  0  0  0
   -4.7131    0.0671    1.4301 C   0  0  0  0  0  0  0  0  0  0  0  0
   -4.7026    0.3055    2.5042 H   0  0  0  0  0  0  0  0  0  0  0  0
  1  4  1  0  0  0  0
  3 11  1  0  0  0  0
  3  2  1  0  0  0  0
  4  3  2  0  0  0  0
  5  6  1  0  0  0  0
  5 11  2  0  0  0  0
  7  9  2  0  0  0  0
  7  4  1  0  0  0  0
  8  7  1  0  0  0  0
  9  5  1  0  0  0  0
 10  9  1  0  0  0  0
 11 12  1  0  0  0  0
M  END
