1,2
q = 0.0, confidence = 0.626

 11 10  0  0  0  0  0  0  0  0999 V2000
    1.6377    2.0415   -0.2794 S   0  0  0  0  0  1  0  0  0  0  0  0
   -1.6382    2.0408    0.2813 S   0  0  0  0  0  1  0  0  0  0  0  0
    1.0736    3.4975    0.6934 C   0  0  0  0  0  0  0  0  0  0  0  0
    0.6836    3.1149    1.6573 H   0  0  0  0  0  0  0  0  0  0  0  0
    1.9741    4.1089    0.9084 H   0  0  0  0  0  0  0  0  0  0  0  0
   -0.0009    4.3384    0.0001 C   0  0  0  0  0  0  0  0  0  0  0  0
   -0.4674    5.0009    0.7630 H   0  0  0  0  0  0  0  0  0  0  0  0
    0.4655    5.0004   -0.7634 H   0  0  0  0  0  0  0  0  0  0  0  0
   -1.0752    3.4966   -0.6924 C   0  0  0  0  0  0  0  0  0  0  0  0
   -0.6854    3.1137   -1.6563 H   0  0  0  0  0  0  0  0  0  0  0  0
   -1.9761    4.1074   -0.9075 H   0  0  0  0  0  0  0  0  0  0  0  0
  1  3  1  0  0  0  0
  3  5  1  0  0  0  0
  3  4  1  0  0  0  0
  6  3  1  0  0  0  0
  6  7  1  0  0  0  0
  8  6  1  0  0  0  0
  9  6  1  0  0  0  0
  9  2  1  0  0  0  0
 10  9  1  0  0  0  0
 11  9  1  0  0  0  0
M  END
