1,4
q = 0.0, confidence = 0.568

  4  3  0  0  0  0  0  0  0  0999 V2000
    3.1519    1.0393    1.0123 S   0  0  0  0  0  0  0  0  0  0  0  0
    5.4309   -0.0018   -0.0016 O   0  0  0  0  0  0  0  0  0  0  0  0
    4.2247   -0.0018   -0.0006 C   0  0  0  0  0  0  0  0  0  0  0  0
    3.1505   -1.0433   -1.0119 S   0  0  0  0  0  0  0  0  0  0  0  0
  2  3  2  0  0  0  0
  3  1  1  0  0  0  0
  4  3  1  0  0  0  0
M  END
