1,2
q = -1.0, confidence = 0.0

 30 31  0  0  0  0  0  0  0  0999 V2000
    1.2568    0.8396   -1.1407 S   0  0  0  0  0  1  0  0  0  0  0  0
    1.1508   -2.5755   -1.1019 S   0  0  0  0  0  1  0  0  0  0  0  0
    2.9298    0.2188   -0.1408 P   0  0  0  0  0  4  0  0  0  0  0  0
    3.5509   -1.2725   -0.4613 N   0  0  0  0  0  0  0  0  0  0  0  0
    3.6162   -3.4213   -1.2342 N   0  0  0  0  0  0  0  0  0  0  0  0
    2.8800   -2.3285   -0.8894 C   0  0  0  0  0  0  0  0  0  0  0  0
    2.6764    0.3450    1.6692 C   0  0  0  0  0  0  0  0  0  0  0  0
    3.2226   -0.6356    2.5180 C   0  0  0  0  0  0  0  0  0  0  0  0
    3.0182   -0.5441    3.9030 C   0  0  0  0  0  0  0  0  0  0  0  0
    2.2785    0.5218    4.4386 C   0  0  0  0  0  0  0  0  0  0  0  0
    1.7393    1.5020    3.5882 C   0  0  0  0  0  0  0  0  0  0  0  0
    1.9369    1.4169    2.2044 C   0  0  0  0  0  0  0  0  0  0  0  0
    4.2847    1.3742   -0.5554 C   0  0  0  0  0  0  0  0  0  0  0  0
    5.5982    0.8956   -0.7215 C   0  0  0  0  0  0  0  0  0  0  0  0
    6.6366    1.7949   -1.0056 C   0  0  0  0  0  0  0  0  0  0  0  0
    6.3690    3.1682   -1.1242 C   0  0  0  0  0  0  0  0  0  0  0  0
    5.0575    3.6444   -0.9627 C   0  0  0  0  0  0  0  0  0  0  0  0
    4.0146    2.7515   -0.6787 C   0  0  0  0  0  0  0  0  0  0  0  0
    4.6317   -3.3413   -1.2662 H   0  0  0  0  0  0  0  0  0  0  0  0
    3.1537   -4.2737   -1.5430 H   0  0  0  0  0  0  0  0  0  0  0  0
    3.7885   -1.4715    2.0812 H   0  0  0  0  0  0  0  0  0  0  0  0
    3.4332   -1.3169    4.5679 H   0  0  0  0  0  0  0  0  0  0  0  0
    2.1124    0.5851    5.5248 H   0  0  0  0  0  0  0  0  0  0  0  0
    1.1439    2.3286    4.0042 H   0  0  0  0  0  0  0  0  0  0  0  0
    1.4811    2.1547    1.5256 H   0  0  0  0  0  0  0  0  0  0  0  0
    5.7826   -0.1848   -0.6331 H   0  0  0  0  0  0  0  0  0  0  0  0
    7.6629    1.4197   -1.1384 H   0  0  0  0  0  0  0  0  0  0  0  0
    7.1859    3.8712   -1.3479 H   0  0  0  0  0  0  0  0  0  0  0  0
    4.8438    4.7194   -1.0633 H   0  0  0  0  0  0  0  0  0  0  0  0
    2.9819    3.1168   -0.5674 H   0  0  0  0  0  0  0  0  0  0  0  0
  1  3  1  0  0  0  0
  2  6  1  0  0  0  0
  3  7  1  0  0  0  0
  4  3  1  0  0  0  0
  5  6  1  0  0  0  0
  6  4  2  0  0  0  0
  7 12  2  0  0  0  0
  7  8  1  0  0  0  0
  8  9  2  0  0  0  0
  9 10  1  0  0  0  0
  9 22  1  0  0  0  0
 10 23  1  0  0  0  0
 11 24  1  0  0  0  0
 11 10  2  0  0  0  0
 12 11  1  0  0  0  0
 13  3  1  0  0  0  0
 14 26  1  0  0  0  0
 14 13  2  0  0  0  0
 15 14  1  0  0  0  0
 16 15  2  0  0  0  0
 16 17  1  0  0  0  0
 17 18  2  0  0  0  0
 18 30  1  0  0  0  0
 18 13  1  0  0  0  0
 19  5  1  0  0  0  0
 20  5  1  0  0  0  0
 21  8  1  0  0  0  0
 25 12  1  0  0  0  0
 27 15  1  0  0  0  0
 28 16  1  0  0  0  0
 29 17  1  0  0  0  0
M  END
