1,2
q = 0.0, confidence = 0.994

 32 31  0  0  0  0  0  0  0  0999 V2000
    1.6119   -0.4301   -0.8984 S   0  0  0  0  0  0  0  0  0  0  0  0
   -1.6119   -0.4302   -0.8986 S   0  0  0  0  0  0  0  0  0  0  0  0
    0.6747   -1.7811   -1.5607 C   0  0  0  0  0  0  0  0  0  0  0  0
   -0.6746   -1.7811   -1.5608 C   0  0  0  0  0  0  0  0  0  0  0  0
   -2.7810   -1.3449    0.2997 C   0  0  0  0  0  0  0  0  0  0  0  0
   -3.7872   -2.1087   -0.5682 C   0  0  0  0  0  0  0  0  0  0  0  0
   -3.4760   -0.2305    1.0865 C   0  0  0  0  0  0  0  0  0  0  0  0
   -1.9977   -2.2790    1.2184 C   0  0  0  0  0  0  0  0  0  0  0  0
    2.7811   -1.3448    0.2997 C   0  0  0  0  0  0  0  0  0  0  0  0
    3.7874   -2.1084   -0.5683 C   0  0  0  0  0  0  0  0  0  0  0  0
    1.9980   -2.2790    1.2184 C   0  0  0  0  0  0  0  0  0  0  0  0
    3.4761   -0.2303    1.0866 C   0  0  0  0  0  0  0  0  0  0  0  0
    1.2420   -2.5912   -2.0471 H   0  0  0  0  0  0  0  0  0  0  0  0
   -1.2418   -2.5912   -2.0473 H   0  0  0  0  0  0  0  0  0  0  0  0
   -3.3045   -2.9066   -1.1671 H   0  0  0  0  0  0  0  0  0  0  0  0
   -4.3251   -1.4284   -1.2569 H   0  0  0  0  0  0  0  0  0  0  0  0
   -4.5359   -2.6004    0.0878 H   0  0  0  0  0  0  0  0  0  0  0  0
   -2.7715    0.3023    1.7520 H   0  0  0  0  0  0  0  0  0  0  0  0
   -4.2715   -0.6789    1.7170 H   0  0  0  0  0  0  0  0  0  0  0  0
   -3.9496    0.5144    0.4164 H   0  0  0  0  0  0  0  0  0  0  0  0
   -1.4595   -3.0622    0.6491 H   0  0  0  0  0  0  0  0  0  0  0  0
   -2.7046   -2.7855    1.9091 H   0  0  0  0  0  0  0  0  0  0  0  0
   -1.2646   -1.7263    1.8335 H   0  0  0  0  0  0  0  0  0  0  0  0
    3.3047   -2.9062   -1.1673 H   0  0  0  0  0  0  0  0  0  0  0  0
    4.5361   -2.6001    0.0877 H   0  0  0  0  0  0  0  0  0  0  0  0
    4.3253   -1.4279   -1.2569 H   0  0  0  0  0  0  0  0  0  0  0  0
    1.2648   -1.7265    1.8335 H   0  0  0  0  0  0  0  0  0  0  0  0
    2.7050   -2.7855    1.9090 H   0  0  0  0  0  0  0  0  0  0  0  0
    1.4599   -3.0623    0.6491 H   0  0  0  0  0  0  0  0  0  0  0  0
    2.7717    0.3023    1.7523 H   0  0  0  0  0  0  0  0  0  0  0  0
    3.9494    0.5148    0.4165 H   0  0  0  0  0  0  0  0  0  0  0  0
    4.2718   -0.6787    1.7168 H   0  0  0  0  0  0  0  0  0  0  0  0
  1  9  1  0  0  0  0
  2  5  1  0  0  0  0
  3  1  1  0  0  0  0
  4  3  2  0  0  0  0
  4  2  1  0  0  0  0
  5  7  1  0  0  0  0
  5  8  1  0  0  0  0
  6 17  1  0  0  0  0
  6  5  1  0  0  0  0
  7 19  1  0  0  0  0
  7 18  1  0  0  0  0
  8 23  1  0  0  0  0
  8 22  1  0  0  0  0
  9 12  1  0  0  0  0
  9 11  1  0  0  0  0
 10 25  1  0  0  0  0
 10  9  1  0  0  0  0
 11 27  1  0  0  0  0
 11 28  1  0  0  0  0
 12 32  1  0  0  0  0
 12 30  1  0  0  0  0
 13  3  1  0  0  0  0
 14  4  1  0  0  0  0
 15  6  1  0  0  0  0
 16  6  1  0  0  0  0
 20  7  1  0  0  0  0
 21  8  1  0  0  0  0
 24 10  1  0  0  0  0
 26 10  1  0  0  0  0
 29 11  1  0  0  0  0
 31 12  1  0  0  0  0
M  END
