1,2
q = -1.0, confidence = 0.002

 18 18  0  0  0  0  0  0  0  0999 V2000
   -1.5272   -1.9213   -0.4898 S   0  0  0  0  0  1  0  0  0  0  0  0
   -1.1295   -0.8516    2.2076 S   0  0  0  0  0  1  0  0  0  0  0  0
   -3.4339   -0.6949    0.9792 O   0  0  0  0  0  0  0  0  0  0  0  0
   -2.1771   -1.1244    0.8833 C   0  0  0  0  0  3  0  0  0  0  0  0
   -4.3452   -0.8800   -0.1497 C   0  0  0  0  0  0  0  0  0  0  0  0
   -4.1463    0.2504   -1.1676 C   0  0  0  0  0  0  0  0  0  0  0  0
   -4.9653    1.4025   -0.5731 C   0  0  0  0  0  0  0  0  0  0  0  0
   -6.2469    0.7021   -0.0869 C   0  0  0  0  0  0  0  0  0  0  0  0
   -5.7740   -0.6932    0.4028 C   0  0  0  0  0  0  0  0  0  0  0  0
   -4.1461   -1.8878   -0.5683 H   0  0  0  0  0  0  0  0  0  0  0  0
   -3.0774    0.4745   -1.3459 H   0  0  0  0  0  0  0  0  0  0  0  0
   -4.5824   -0.0761   -2.1368 H   0  0  0  0  0  0  0  0  0  0  0  0
   -4.4101    1.8318    0.2872 H   0  0  0  0  0  0  0  0  0  0  0  0
   -5.1538    2.2257   -1.2906 H   0  0  0  0  0  0  0  0  0  0  0  0
   -6.7826    1.2712    0.6982 H   0  0  0  0  0  0  0  0  0  0  0  0
   -6.9521    0.5868   -0.9369 H   0  0  0  0  0  0  0  0  0  0  0  0
   -6.4394   -1.5074    0.0555 H   0  0  0  0  0  0  0  0  0  0  0  0
   -5.7315   -0.7596    1.5074 H   0  0  0  0  0  0  0  0  0  0  0  0
  1  4  1  0  0  0  0
  4  3  1  0  0  0  0
  4  2  1  0  0  0  0
  5  9  1  0  0  0  0
  5  3  1  0  0  0  0
  6  7  1  0  0  0  0
  6  5  1  0  0  0  0
  7  8  1  0  0  0  0
  7 13  1  0  0  0  0
  8  9  1  0  0  0  0
  8 15  1  0  0  0  0
  9 18  1  0  0  0  0
 10  5  1  0  0  0  0
 11  6  1  0  0  0  0
 12  6  1  0  0  0  0
 14  7  1  0  0  0  0
 16  8  1  0  0  0  0
 17  9  1  0  0  0  0
M  END
