1,2
q = 0.0, confidence = 1.0

 56 58  0  0  0  0  0  0  0  0999 V2000
    2.1772   -0.1269   -1.9845 S   0  0  0  0  0  0  0  0  0  0  0  0
   -1.5225    0.9109    0.9058 S   0  0  0  0  0  0  0  0  0  0  0  0
   -2.4838   -1.5005   -0.4189 O   0  0  0  0  0  0  0  0  0  0  0  0
    0.2112   -2.4659   -0.0143 O   0  0  0  0  0  0  0  0  0  0  0  0
    2.8222    2.1283    0.0750 O   0  0  0  0  0  0  0  0  0  0  0  0
    0.3417    3.4722    0.3060 O   0  0  0  0  0  0  0  0  0  0  0  0
   -2.1662   -2.8476   -0.0829 C   0  0  0  0  0  0  0  0  0  0  0  0
   -2.0365   -3.4483   -1.0098 H   0  0  0  0  0  0  0  0  0  0  0  0
   -2.9784   -3.3061    0.5194 H   0  0  0  0  0  0  0  0  0  0  0  0
   -0.9103   -2.8815    0.7608 C   0  0  0  0  0  0  0  0  0  0  0  0
   -1.0392   -2.2169    1.6443 H   0  0  0  0  0  0  0  0  0  0  0  0
   -0.7575   -3.9230    1.1232 H   0  0  0  0  0  0  0  0  0  0  0  0
    1.4579   -2.6372    0.5206 C   0  0  0  0  0  0  0  0  0  0  0  0
    1.6935   -3.0159    1.8558 C   0  0  0  0  0  0  0  0  0  0  0  0
    0.8590   -3.1735    2.5510 H   0  0  0  0  0  0  0  0  0  0  0  0
    3.0091   -3.2022    2.3106 C   0  0  0  0  0  0  0  0  0  0  0  0
    3.1770   -3.5004    3.3562 H   0  0  0  0  0  0  0  0  0  0  0  0
    4.0962   -3.0290    1.4444 C   0  0  0  0  0  0  0  0  0  0  0  0
    5.1236   -3.2004    1.7954 H   0  0  0  0  0  0  0  0  0  0  0  0
    3.8571   -2.6438    0.1169 C   0  0  0  0  0  0  0  0  0  0  0  0
    4.7028   -2.5293   -0.5797 H   0  0  0  0  0  0  0  0  0  0  0  0
    2.5515   -2.4260   -0.3638 C   0  0  0  0  0  0  0  0  0  0  0  0
    2.3109   -1.9772   -1.7681 C   0  0  0  0  0  0  0  0  0  0  0  0
    1.3456   -2.3420   -2.1668 H   0  0  0  0  0  0  0  0  0  0  0  0
    3.1240   -2.2914   -2.4510 H   0  0  0  0  0  0  0  0  0  0  0  0
    3.7910    0.4211   -1.2924 C   0  0  0  0  0  0  0  0  0  0  0  0
    3.9975   -0.1820   -0.3853 H   0  0  0  0  0  0  0  0  0  0  0  0
    4.5724    0.2180   -2.0515 H   0  0  0  0  0  0  0  0  0  0  0  0
    3.7774    1.8989   -0.9472 C   0  0  0  0  0  0  0  0  0  0  0  0
    4.7995    2.1836   -0.6007 H   0  0  0  0  0  0  0  0  0  0  0  0
    3.5471    2.5223   -1.8447 H   0  0  0  0  0  0  0  0  0  0  0  0
    2.7088    3.4931    0.4592 C   0  0  0  0  0  0  0  0  0  0  0  0
    2.6998    4.1484   -0.4425 H   0  0  0  0  0  0  0  0  0  0  0  0
    3.5703    3.7950    1.0997 H   0  0  0  0  0  0  0  0  0  0  0  0
    1.4142    3.6830    1.2169 C   0  0  0  0  0  0  0  0  0  0  0  0
    1.3739    2.9710    2.0755 H   0  0  0  0  0  0  0  0  0  0  0  0
    1.3796    4.7181    1.6303 H   0  0  0  0  0  0  0  0  0  0  0  0
   -0.9509    3.7083    0.8272 C   0  0  0  0  0  0  0  0  0  0  0  0
   -1.6073    3.8777   -0.0510 H   0  0  0  0  0  0  0  0  0  0  0  0
   -0.9682    4.6464    1.4314 H   0  0  0  0  0  0  0  0  0  0  0  0
   -1.5017    2.5706    1.6901 C   0  0  0  0  0  0  0  0  0  0  0  0
   -2.5393    2.7984    2.0105 H   0  0  0  0  0  0  0  0  0  0  0  0
   -0.9044    2.4244    2.6133 H   0  0  0  0  0  0  0  0  0  0  0  0
   -2.7187    1.1874   -0.5144 C   0  0  0  0  0  0  0  0  0  0  0  0
   -2.9760    2.2629   -0.5209 H   0  0  0  0  0  0  0  0  0  0  0  0
   -2.1468    0.9627   -1.4348 H   0  0  0  0  0  0  0  0  0  0  0  0
   -3.9411    0.3331   -0.4019 C   0  0  0  0  0  0  0  0  0  0  0  0
   -5.2351    0.8757   -0.3456 C   0  0  0  0  0  0  0  0  0  0  0  0
   -5.3569    1.9704   -0.3430 H   0  0  0  0  0  0  0  0  0  0  0  0
   -6.3644    0.0432   -0.3077 C   0  0  0  0  0  0  0  0  0  0  0  0
   -7.3721    0.4804   -0.2670 H   0  0  0  0  0  0  0  0  0  0  0  0
   -6.1951   -1.3478   -0.3348 C   0  0  0  0  0  0  0  0  0  0  0  0
   -7.0732   -2.0105   -0.3229 H   0  0  0  0  0  0  0  0  0  0  0  0
   -4.9110   -1.9165   -0.3845 C   0  0  0  0  0  0  0  0  0  0  0  0
   -4.8039   -3.0090   -0.4250 H   0  0  0  0  0  0  0  0  0  0  0  0
   -3.7854   -1.0765   -0.4008 C   0  0  0  0  0  0  0  0  0  0  0  0
  1 23  1  0  0  0  0
  1 26  1  0  0  0  0
  2 41  1  0  0  0  0
  3 56  1  0  0  0  0
  3  7  1  0  0  0  0
  4 13  1  0  0  0  0
  4 10  1  0  0  0  0
  5 32  1  0  0  0  0
  6 38  1  0  0  0  0
  6 35  1  0  0  0  0
  7  9  1  0  0  0  0
  7 10  1  0  0  0  0
  8  7  1  0  0  0  0
 10 12  1  0  0  0  0
 10 11  1  0  0  0  0
 13 14  1  0  0  0  0
 14 16  2  0  0  0  0
 14 15  1  0  0  0  0
 16 17  1  0  0  0  0
 18 19  1  0  0  0  0
 18 16  1  0  0  0  0
 20 18  2  0  0  0  0
 21 20  1  0  0  0  0
 22 20  1  0  0  0  0
 22 13  2  0  0  0  0
 23 22  1  0  0  0  0
 24 23  1  0  0  0  0
 25 23  1  0  0  0  0
 26 29  1  0  0  0  0
 26 27  1  0  0  0  0
 28 26  1  0  0  0  0
 29 30  1  0  0  0  0
 29  5  1  0  0  0  0
 31 29  1  0  0  0  0
 32 34  1  0  0  0  0
 32 35  1  0  0  0  0
 33 32  1  0  0  0  0
 35 37  1  0  0  0  0
 35 36  1  0  0  0  0
 38 40  1  0  0  0  0
 38 41  1  0  0  0  0
 39 38  1  0  0  0  0
 41 42  1  0  0  0  0
 41 43  1  0  0  0  0
 44 47  1  0  0  0  0
 44  2  1  0  0  0  0
 45 44  1  0  0  0  0
 46 44  1  0  0  0  0
 47 56  2  0  0  0  0
 47 48  1  0  0  0  0
 48 49  1  0  0  0  0
 48 50  2  0  0  0  0
 50 51  1  0  0  0  0
 52 53  1  0  0  0  0
 52 50  1  0  0  0  0
 54 52  2  0  0  0  0
 55 54  1  0  0  0  0
 56 54  1  0  0  0  0
M  END
