1,2
q = -1.0, confidence = 0.01

 19 19  0  0  0  0  0  0  0  0999 V2000
   -1.7684    0.0309   -1.3687 S   0  0  0  0  0  1  0  0  0  0  0  0
    0.7880   -1.1961   -1.7175 S   0  0  0  0  0  1  0  0  0  0  0  0
   -0.7676   -0.9121   -2.4171 C   0  0  0  0  0  3  0  0  0  0  0  0
   -1.1508   -1.3663   -3.6285 N   0  0  0  0  0  0  0  0  0  0  0  0
   -0.2328   -2.0667   -4.5261 C   0  0  0  0  0  0  0  0  0  0  0  0
   -2.4373   -1.0090   -4.2254 C   0  0  0  0  0  0  0  0  0  0  0  0
    0.0413   -1.2181   -5.7738 C   0  0  0  0  0  0  0  0  0  0  0  0
   -0.7017   -3.0356   -4.8128 H   0  0  0  0  0  0  0  0  0  0  0  0
    0.6954   -2.2920   -3.9661 H   0  0  0  0  0  0  0  0  0  0  0  0
   -2.2228   -0.1317   -5.4649 C   0  0  0  0  0  0  0  0  0  0  0  0
   -2.9622   -1.9509   -4.5047 H   0  0  0  0  0  0  0  0  0  0  0  0
   -3.0466   -0.4969   -3.4558 H   0  0  0  0  0  0  0  0  0  0  0  0
   -1.2697   -0.8089   -6.4594 C   0  0  0  0  0  0  0  0  0  0  0  0
    0.6934   -1.7865   -6.4688 H   0  0  0  0  0  0  0  0  0  0  0  0
    0.6073   -0.3136   -5.4629 H   0  0  0  0  0  0  0  0  0  0  0  0
   -3.2037    0.0834   -5.9371 H   0  0  0  0  0  0  0  0  0  0  0  0
   -1.8003    0.8416   -5.1344 H   0  0  0  0  0  0  0  0  0  0  0  0
   -1.7621   -1.7160   -6.8779 H   0  0  0  0  0  0  0  0  0  0  0  0
   -1.0656   -0.1391   -7.3200 H   0  0  0  0  0  0  0  0  0  0  0  0
  3  2  1  0  0  0  0
  3  1  1  0  0  0  0
  4  3  1  0  0  0  0
  5  9  1  0  0  0  0
  5  4  1  0  0  0  0
  6  4  1  0  0  0  0
  6 12  1  0  0  0  0
  7 15  1  0  0  0  0
  7  5  1  0  0  0  0
  8  5  1  0  0  0  0
 10 17  1  0  0  0  0
 10  6  1  0  0  0  0
 11  6  1  0  0  0  0
 13  7  1  0  0  0  0
 13 10  1  0  0  0  0
 14  7  1  0  0  0  0
 16 10  1  0  0  0  0
 18 13  1  0  0  0  0
 19 13  1  0  0  0  0
M  END
