1,2
q = 0.0, confidence = 0.998

 16 15  0  0  0  0  0  0  0  0999 V2000
   -1.2104   -1.2839   -0.5261 S   0  0  0  0  0  0  0  0  0  0  0  0
   -0.4202    1.9017   -0.4722 S   0  0  0  0  0  0  0  0  0  0  0  0
   -2.4814    0.1830    1.3259 F   0  0  0  0  0  0  0  0  0  0  0  0
   -3.7164   -0.4149   -0.3768 F   0  0  0  0  0  0  0  0  0  0  0  0
   -2.1524    1.3324   -0.7286 C   0  0  0  0  0  0  0  0  0  0  0  0
   -0.5060    2.6461    1.1954 C   0  0  0  0  0  0  0  0  0  0  0  0
   -2.4793    0.0216   -0.0271 C   0  0  0  0  0  0  0  0  0  0  0  0
   -1.4249   -2.4812    0.8320 C   0  0  0  0  0  0  0  0  0  0  0  0
   -2.2717    1.1937   -1.8212 H   0  0  0  0  0  0  0  0  0  0  0  0
   -2.8584    2.1164   -0.3896 H   0  0  0  0  0  0  0  0  0  0  0  0
   -0.9660    1.9457    1.9134 H   0  0  0  0  0  0  0  0  0  0  0  0
   -1.0545    3.6058    1.1364 H   0  0  0  0  0  0  0  0  0  0  0  0
    0.5586    2.8104    1.4515 H   0  0  0  0  0  0  0  0  0  0  0  0
   -0.4721   -3.0481    0.8227 H   0  0  0  0  0  0  0  0  0  0  0  0
   -2.2982   -3.1228    0.6145 H   0  0  0  0  0  0  0  0  0  0  0  0
   -1.5278   -1.9415    1.7898 H   0  0  0  0  0  0  0  0  0  0  0  0
  1  7  1  0  0  0  0
  1  8  1  0  0  0  0
  2  6  1  0  0  0  0
  4  7  1  0  0  0  0
  5  2  1  0  0  0  0
  5 10  1  0  0  0  0
  5  7  1  0  0  0  0
  6 13  1  0  0  0  0
  6 11  1  0  0  0  0
  7  3  1  0  0  0  0
  8 16  1  0  0  0  0
  9  5  1  0  0  0  0
 12  6  1  0  0  0  0
 14  8  1  0  0  0  0
 15  8  1  0  0  0  0
M  END
