1,2
q = -2.0, confidence = 0.592

 19 20  0  0  1  0  0  0  0  0999 V2000
    0.2729   -0.3903   -1.5645 S   0  0  0  0  0  1  0  0  0  0  0  0
    0.2729   -0.3902    1.5645 S   0  0  0  0  0  1  0  0  0  0  0  0
    1.9784   -0.7900   -0.7619 C   0  0  2  0  0  0  0  0  0  0  0  0
    2.2476   -1.7740   -1.1955 H   0  0  0  0  0  0  0  0  0  0  0  0
    1.9784   -0.7900    0.7619 C   0  0  1  0  0  0  0  0  0  0  0  0
    2.2476   -1.7740    1.1955 H   0  0  0  0  0  0  0  0  0  0  0  0
    2.9974    0.3126    1.1273 C   0  0  1  0  0  0  0  0  0  0  0  0
    2.8845    0.6843    2.1654 H   0  0  0  0  0  0  0  0  0  0  0  0
    4.4141   -0.2084    0.7810 C   0  0  0  0  0  0  0  0  0  0  0  0
    5.1942    0.4721    1.1844 H   0  0  0  0  0  0  0  0  0  0  0  0
    4.6009   -1.2135    1.2132 H   0  0  0  0  0  0  0  0  0  0  0  0
    4.4141   -0.2084   -0.7810 C   0  0  0  0  0  0  0  0  0  0  0  0
    4.6009   -1.2135   -1.2132 H   0  0  0  0  0  0  0  0  0  0  0  0
    5.1943    0.4720   -1.1844 H   0  0  0  0  0  0  0  0  0  0  0  0
    2.9974    0.3126   -1.1273 C   0  0  2  0  0  0  0  0  0  0  0  0
    2.8845    0.6843   -2.1654 H   0  0  0  0  0  0  0  0  0  0  0  0
    2.7507    1.3353   -0.0000 C   0  0  0  0  0  0  0  0  0  0  0  0
    3.4778    2.1750   -0.0000 H   0  0  0  0  0  0  0  0  0  0  0  0
    1.7173    1.7354   -0.0000 H   0  0  0  0  0  0  0  0  0  0  0  0
  1  3  1  0  0  0  0
  3  4  1  6  0  0  0
  3  5  1  0  0  0  0
  5  7  1  0  0  0  0
  5  6  1  1  0  0  0
  5  2  1  0  0  0  0
  7  8  1  1  0  0  0
  9  7  1  0  0  0  0
  9 10  1  0  0  0  0
  9 11  1  0  0  0  0
 12  9  1  0  0  0  0
 13 12  1  0  0  0  0
 14 12  1  0  0  0  0
 15 16  1  6  0  0  0
 15 12  1  0  0  0  0
 15  3  1  0  0  0  0
 15 17  1  0  0  0  0
 17  7  1  0  0  0  0
 18 17  1  0  0  0  0
 19 17  1  0  0  0  0
M  END
