1,2
q = -1.0, confidence = 0.0

 34 34  0  0  0  0  0  0  0  0999 V2000
    0.8310    1.0132    0.3565 S   0  0  0  0  0  1  0  0  0  0  0  0
    1.5637   -0.9025   -1.6281 S   0  0  0  0  0  1  0  0  0  0  0  0
    3.3855    0.8362   -0.5729 N   0  0  0  0  0  0  0  0  0  0  0  0
    2.1228    0.3764   -0.6157 C   0  0  0  0  0  3  0  0  0  0  0  0
    3.7961    1.8837    0.3666 C   0  0  0  0  0  0  0  0  0  0  0  0
    4.7394    1.5436    0.8445 H   0  0  0  0  0  0  0  0  0  0  0  0
    3.0238    1.9355    1.1612 H   0  0  0  0  0  0  0  0  0  0  0  0
    3.9895    3.2574   -0.2859 C   0  0  0  0  0  0  0  0  0  0  0  0
    4.3470    3.9497    0.5078 H   0  0  0  0  0  0  0  0  0  0  0  0
    4.8187    3.2083   -1.0275 H   0  0  0  0  0  0  0  0  0  0  0  0
    2.7353    3.8303   -0.9528 C   0  0  0  0  0  0  0  0  0  0  0  0
    1.9108    3.8696   -0.2088 H   0  0  0  0  0  0  0  0  0  0  0  0
    2.3840    3.1264   -1.7382 H   0  0  0  0  0  0  0  0  0  0  0  0
    2.9645    5.2123   -1.5640 C   0  0  0  0  0  0  0  0  0  0  0  0
    3.2775    5.9495   -0.7950 H   0  0  0  0  0  0  0  0  0  0  0  0
    2.0448    5.6016   -2.0445 H   0  0  0  0  0  0  0  0  0  0  0  0
    3.7600    5.1869   -2.3382 H   0  0  0  0  0  0  0  0  0  0  0  0
    4.4335    0.2544   -1.4235 C   0  0  0  0  0  0  0  0  0  0  0  0
    4.9979    1.0852   -1.8944 H   0  0  0  0  0  0  0  0  0  0  0  0
    3.9193   -0.3031   -2.2331 H   0  0  0  0  0  0  0  0  0  0  0  0
    5.3705   -0.6468   -0.6492 C   0  0  0  0  0  0  0  0  0  0  0  0
    6.7192   -0.3022   -0.4566 C   0  0  0  0  0  0  0  0  0  0  0  0
    7.1098    0.6316   -0.8928 H   0  0  0  0  0  0  0  0  0  0  0  0
    7.5748   -1.1373    0.2796 C   0  0  0  0  0  0  0  0  0  0  0  0
    8.6293   -0.8500    0.4170 H   0  0  0  0  0  0  0  0  0  0  0  0
    7.1061   -2.3362    0.8483 C   0  0  0  0  0  0  0  0  0  0  0  0
    5.7476   -2.6728    0.6542 C   0  0  0  0  0  0  0  0  0  0  0  0
    5.3562   -3.6074    1.0867 H   0  0  0  0  0  0  0  0  0  0  0  0
    4.8918   -1.8466   -0.0807 C   0  0  0  0  0  0  0  0  0  0  0  0
    3.8365   -2.1280   -0.2269 H   0  0  0  0  0  0  0  0  0  0  0  0
    8.0173   -3.2444    1.6343 C   0  0  0  0  0  0  0  0  0  0  0  0
    7.6113   -3.4452    2.6474 H   0  0  0  0  0  0  0  0  0  0  0  0
    9.0284   -2.8092    1.7518 H   0  0  0  0  0  0  0  0  0  0  0  0
    8.1291   -4.2296    1.1346 H   0  0  0  0  0  0  0  0  0  0  0  0
  2  4  1  0  0  0  0
  3  5  1  0  0  0  0
  4  3  1  0  0  0  0
  4  1  1  0  0  0  0
  5  6  1  0  0  0  0
  5  7  1  0  0  0  0
  8  5  1  0  0  0  0
  8  9  1  0  0  0  0
 10  8  1  0  0  0  0
 11  8  1  0  0  0  0
 11 12  1  0  0  0  0
 13 11  1  0  0  0  0
 14 11  1  0  0  0  0
 14 15  1  0  0  0  0
 16 14  1  0  0  0  0
 17 14  1  0  0  0  0
 18 21  1  0  0  0  0
 18  3  1  0  0  0  0
 19 18  1  0  0  0  0
 20 18  1  0  0  0  0
 21 22  2  0  0  0  0
 21 29  1  0  0  0  0
 22 24  1  0  0  0  0
 23 22  1  0  0  0  0
 24 25  1  0  0  0  0
 24 26  2  0  0  0  0
 26 31  1  0  0  0  0
 27 26  1  0  0  0  0
 27 28  1  0  0  0  0
 29 27  2  0  0  0  0
 30 29  1  0  0  0  0
 31 33  1  0  0  0  0
 31 32  1  0  0  0  0
 34 31  1  0  0  0  0
M  END
