1,2
q = -1.0, confidence = 0.0

 32 33  0  0  0  0  0  0  0  0999 V2000
   -1.2155   -2.1946   -0.9332 S   0  0  0  0  0  1  0  0  0  0  0  0
   -0.9896    0.5997   -0.4102 S   0  0  0  0  0  1  0  0  0  0  0  0
   -4.5271   -2.2900    1.1501 O   0  0  0  0  0  0  0  0  0  0  0  0
   -2.0693   -0.7075   -0.7954 C   0  0  0  0  0  3  0  0  0  0  0  0
   -3.3962   -0.5372   -0.9690 N   0  0  0  0  0  0  0  0  0  0  0  0
   -3.9892    0.8023   -0.7728 C   0  0  0  0  0  0  0  0  0  0  0  0
   -3.1848    1.5116   -1.0713 H   0  0  0  0  0  0  0  0  0  0  0  0
   -5.1427   -2.0209   -0.0411 C   0  0  0  0  0  0  0  0  0  0  0  0
   -4.3284    1.0889    0.7020 C   0  0  0  0  0  0  0  0  0  0  0  0
   -5.1267    0.3940    1.0392 H   0  0  0  0  0  0  0  0  0  0  0  0
   -3.4304    0.8915    1.3215 H   0  0  0  0  0  0  0  0  0  0  0  0
   -5.1903    1.0703   -1.6880 C   0  0  0  0  0  0  0  0  0  0  0  0
   -4.9173    0.8665   -2.7447 H   0  0  0  0  0  0  0  0  0  0  0  0
   -6.0262    0.3885   -1.4214 H   0  0  0  0  0  0  0  0  0  0  0  0
   -5.9888    2.8464   -0.0569 C   0  0  0  0  0  0  0  0  0  0  0  0
   -6.2940    3.9089    0.0423 H   0  0  0  0  0  0  0  0  0  0  0  0
   -6.8636    2.2372    0.2641 H   0  0  0  0  0  0  0  0  0  0  0  0
   -4.2576   -1.7040   -1.1989 C   0  0  0  0  0  0  0  0  0  0  0  0
   -4.8862   -1.5407   -2.0953 H   0  0  0  0  0  0  0  0  0  0  0  0
   -3.5773   -2.5544   -1.4195 H   0  0  0  0  0  0  0  0  0  0  0  0
   -4.7997    2.5395    0.8629 C   0  0  0  0  0  0  0  0  0  0  0  0
   -5.0645    2.7368    1.9223 H   0  0  0  0  0  0  0  0  0  0  0  0
   -3.9564    3.2240    0.6182 H   0  0  0  0  0  0  0  0  0  0  0  0
   -6.5114   -2.0798    0.1175 C   0  0  0  0  0  0  0  0  0  0  0  0
   -7.2610   -1.9076   -0.6629 H   0  0  0  0  0  0  0  0  0  0  0  0
   -5.6620    2.5227   -1.5211 C   0  0  0  0  0  0  0  0  0  0  0  0
   -4.8625    3.2088   -1.8797 H   0  0  0  0  0  0  0  0  0  0  0  0
   -6.5443    2.7069   -2.1683 H   0  0  0  0  0  0  0  0  0  0  0  0
   -6.7458   -2.4064    1.4962 C   0  0  0  0  0  0  0  0  0  0  0  0
   -7.7122   -2.5426    1.9934 H   0  0  0  0  0  0  0  0  0  0  0  0
   -5.5029   -2.5160    2.0746 C   0  0  0  0  0  0  0  0  0  0  0  0
   -5.1565   -2.7473    3.0868 H   0  0  0  0  0  0  0  0  0  0  0  0
  1  4  1  0  0  0  0
  3 31  1  0  0  0  0
  4  2  1  0  0  0  0
  5  4  1  0  0  0  0
  5  6  1  0  0  0  0
  6  9  1  0  0  0  0
  7  6  1  0  0  0  0
  8 24  2  0  0  0  0
  8  3  1  0  0  0  0
  9 21  1  0  0  0  0
  9 10  1  0  0  0  0
  9 11  1  0  0  0  0
 12 26  1  0  0  0  0
 12 14  1  0  0  0  0
 12  6  1  0  0  0  0
 13 12  1  0  0  0  0
 15 16  1  0  0  0  0
 15 17  1  0  0  0  0
 15 21  1  0  0  0  0
 18  5  1  0  0  0  0
 18  8  1  0  0  0  0
 19 18  1  0  0  0  0
 20 18  1  0  0  0  0
 21 22  1  0  0  0  0
 23 21  1  0  0  0  0
 24 29  1  0  0  0  0
 25 24  1  0  0  0  0
 26 15  1  0  0  0  0
 27 26  1  0  0  0  0
 28 26  1  0  0  0  0
 29 30  1  0  0  0  0
 29 31  2  0  0  0  0
 31 32  1  0  0  0  0
M  END
