1,2
q = -1.0, confidence = 0.0

 29 31  0  0  1  0  0  0  0  0999 V2000
   -0.7097    1.1682   -1.5564 S   0  0  0  0  0  1  0  0  0  0  0  0
   -0.2539   -2.1713   -0.7893 S   0  0  0  0  0  1  0  0  0  0  0  0
    2.6609   -2.4048   -1.2302 S   0  0  0  0  0  0  0  0  0  0  0  0
    0.5220    3.4734   -0.7017 N   0  0  0  0  0  0  0  0  0  0  0  0
    0.7653    1.7782    0.6899 N   0  0  0  0  0  0  0  0  0  0  0  0
    1.7095   -0.6027    0.3916 N   0  0  0  0  0  0  0  0  0  0  0  0
    0.2211    2.1498   -0.5055 C   0  0  1  0  0  3  0  0  0  0  0  0
    1.2527    3.9401    0.3869 C   0  0  0  0  0  0  0  0  0  0  0  0
    1.5898    4.9781    0.4558 H   0  0  0  0  0  0  0  0  0  0  0  0
    1.3896    2.8845    1.2505 C   0  0  0  0  0  0  0  0  0  0  0  0
    1.8631    2.8374    2.2347 H   0  0  0  0  0  0  0  0  0  0  0  0
    0.1013    4.2480   -1.8538 C   0  0  0  0  0  0  0  0  0  0  0  0
    0.8696    4.2277   -2.6535 H   0  0  0  0  0  0  0  0  0  0  0  0
   -0.0845    5.2945   -1.5486 H   0  0  0  0  0  0  0  0  0  0  0  0
   -0.8313    3.7998   -2.2490 H   0  0  0  0  0  0  0  0  0  0  0  0
    1.3046   -1.5958   -0.4487 C   0  0  2  0  0  3  0  0  0  0  0  0
    3.1074   -0.4810    0.4653 C   0  0  0  0  0  0  0  0  0  0  0  0
    3.8436    0.4130    1.2649 C   0  0  0  0  0  0  0  0  0  0  0  0
    3.3293    1.1108    1.9341 H   0  0  0  0  0  0  0  0  0  0  0  0
    5.2433    0.3846    1.2057 C   0  0  0  0  0  0  0  0  0  0  0  0
    5.8189    1.0810    1.8330 H   0  0  0  0  0  0  0  0  0  0  0  0
    5.9208   -0.5183    0.3646 C   0  0  0  0  0  0  0  0  0  0  0  0
    7.0202   -0.5211    0.3322 H   0  0  0  0  0  0  0  0  0  0  0  0
    5.2026   -1.4224   -0.4303 C   0  0  0  0  0  0  0  0  0  0  0  0
    5.7203   -2.1397   -1.0831 H   0  0  0  0  0  0  0  0  0  0  0  0
    3.8026   -1.3941   -0.3689 C   0  0  0  0  0  0  0  0  0  0  0  0
    0.7966    0.3341    1.2525 B   0  0  0  0  0  0  0  0  0  0  0  0
    1.2291    0.3835    2.3957 H   0  0  0  0  0  0  0  0  0  0  0  0
   -0.3436   -0.1792    1.4813 H   0  0  0  0  0  0  0  0  0  0  0  0
  3 16  1  0  0  0  0
  3 26  1  0  0  0  0
  4  7  1  0  0  0  0
  4  8  1  0  0  0  0
  5 10  1  0  0  0  0
  5 27  1  0  0  0  0
  6 17  1  0  0  0  0
  6 27  1  0  0  0  0
  7  1  1  1  0  0  0
  7  5  1  0  0  0  0
  8  9  1  0  0  0  0
  8 10  2  0  0  0  0
 10 11  1  0  0  0  0
 12 14  1  0  0  0  0
 12  4  1  0  0  0  0
 13 12  1  0  0  0  0
 15 12  1  0  0  0  0
 16  2  1  1  0  0  0
 16  6  1  0  0  0  0
 17 18  1  0  0  0  0
 18 19  1  0  0  0  0
 20 18  2  0  0  0  0
 20 21  1  0  0  0  0
 22 20  1  0  0  0  0
 23 22  1  0  0  0  0
 24 26  1  0  0  0  0
 24 22  2  0  0  0  0
 25 24  1  0  0  0  0
 26 17  2  0  0  0  0
 27 29  1  0  0  0  0
 27 28  1  0  0  0  0
M  END
