1,2
q = -1.0, confidence = 0.0

 20 19  0  0  0  0  0  0  0  0999 V2000
   -2.2782   -0.0254   -1.4305 S   0  0  0  0  0  1  0  0  0  0  0  0
   -1.8488   -1.4190    1.2213 S   0  0  0  0  0  1  0  0  0  0  0  0
   -4.1123   -1.5443   -0.2087 N   0  0  0  0  0  0  0  0  0  0  0  0
   -4.6990   -2.3391    0.8786 C   0  0  0  0  0  0  0  0  0  0  0  0
   -5.7552   -2.0188    1.0046 H   0  0  0  0  0  0  0  0  0  0  0  0
   -4.1393   -2.0884    1.8037 H   0  0  0  0  0  0  0  0  0  0  0  0
   -4.6124   -3.8141    0.5991 C   0  0  0  0  0  0  0  0  0  0  0  0
   -3.5864   -4.2131    0.5106 H   0  0  0  0  0  0  0  0  0  0  0  0
   -5.6764   -4.6208    0.4454 C   0  0  0  0  0  0  0  0  0  0  0  0
   -6.7062   -4.2329    0.5315 H   0  0  0  0  0  0  0  0  0  0  0  0
   -5.5624   -5.6973    0.2434 H   0  0  0  0  0  0  0  0  0  0  0  0
   -4.9877   -1.3351   -1.3699 C   0  0  0  0  0  0  0  0  0  0  0  0
   -5.5469   -2.2774   -1.5492 H   0  0  0  0  0  0  0  0  0  0  0  0
   -4.3304   -1.1397   -2.2428 H   0  0  0  0  0  0  0  0  0  0  0  0
   -5.9271   -0.1810   -1.1523 C   0  0  0  0  0  0  0  0  0  0  0  0
   -5.4360    0.8001   -1.0235 H   0  0  0  0  0  0  0  0  0  0  0  0
   -7.2654   -0.2903   -1.0939 C   0  0  0  0  0  0  0  0  0  0  0  0
   -7.7661   -1.2654   -1.2228 H   0  0  0  0  0  0  0  0  0  0  0  0
   -7.9122    0.5864   -0.9324 H   0  0  0  0  0  0  0  0  0  0  0  0
   -2.8501   -1.0341   -0.1481 C   0  0  0  0  0  3  0  0  0  0  0  0
  1 20  1  0  0  0  0
  3 20  1  0  0  0  0
  3  4  1  0  0  0  0
  4  5  1  0  0  0  0
  4  6  1  0  0  0  0
  7  4  1  0  0  0  0
  8  7  1  0  0  0  0
  9 10  1  0  0  0  0
  9  7  2  0  0  0  0
 11  9  1  0  0  0  0
 12 15  1  0  0  0  0
 12  3  1  0  0  0  0
 13 12  1  0  0  0  0
 14 12  1  0  0  0  0
 15 17  2  0  0  0  0
 15 16  1  0  0  0  0
 17 19  1  0  0  0  0
 18 17  1  0  0  0  0
 20  2  1  0  0  0  0
M  END
