1,2
q = 0.0, confidence = 0.998

 19 18  0  0  1  0  0  0  0  0999 V2000
    1.1630   -0.9653    0.7043 S   0  0  0  0  0  0  0  0  0  0  0  0
    0.0517    1.8393   -0.8626 S   0  0  0  0  0  0  0  0  0  0  0  0
    4.1211   -1.1937   -0.1690 F   0  0  0  0  0  0  0  0  0  0  0  0
    4.4000    0.8797   -0.7913 F   0  0  0  0  0  0  0  0  0  0  0  0
    3.9320    0.4191    1.2920 F   0  0  0  0  0  0  0  0  0  0  0  0
    1.3910   -2.5636   -0.1238 C   0  0  0  0  0  0  0  0  0  0  0  0
   -0.6119    3.2561    0.0544 C   0  0  0  0  0  0  0  0  0  0  0  0
    2.1902    0.1960   -0.3197 C   0  0  2  0  0  0  0  0  0  0  0  0
    3.6804    0.0687    0.0161 C   0  0  0  0  0  0  0  0  0  0  0  0
    1.6908    1.6193   -0.0585 C   0  0  0  0  0  0  0  0  0  0  0  0
    0.5958   -3.1938    0.3205 H   0  0  0  0  0  0  0  0  0  0  0  0
    2.4001   -2.9428    0.1141 H   0  0  0  0  0  0  0  0  0  0  0  0
    1.1977   -2.4495   -1.2072 H   0  0  0  0  0  0  0  0  0  0  0  0
   -1.6528    3.3483   -0.3098 H   0  0  0  0  0  0  0  0  0  0  0  0
   -0.6213    3.0228    1.1367 H   0  0  0  0  0  0  0  0  0  0  0  0
   -0.0157    4.1514   -0.2040 H   0  0  0  0  0  0  0  0  0  0  0  0
    2.0385   -0.0932   -1.3826 H   0  0  0  0  0  0  0  0  0  0  0  0
    2.3922    2.3567   -0.4967 H   0  0  0  0  0  0  0  0  0  0  0  0
    1.5748    1.8060    1.0294 H   0  0  0  0  0  0  0  0  0  0  0  0
  2 10  1  0  0  0  0
  2  7  1  0  0  0  0
  3  9  1  0  0  0  0
  4  9  1  0  0  0  0
  6 12  1  0  0  0  0
  6 11  1  0  0  0  0
  6  1  1  0  0  0  0
  7 15  1  0  0  0  0
  8 17  1  6  0  0  0
  8 10  1  0  0  0  0
  8  9  1  0  0  0  0
  8  1  1  0  0  0  0
  9  5  1  0  0  0  0
 10 19  1  0  0  0  0
 13  6  1  0  0  0  0
 14  7  1  0  0  0  0
 16  7  1  0  0  0  0
 18 10  1  0  0  0  0
M  END
