1,2
q = 0.0, confidence = 1.0

 37 36  0  0  0  0  0  0  0  0999 V2000
   -1.7122    0.4613    0.9040 S   0  0  0  0  0  0  0  0  0  0  0  0
    1.9048    0.5542    1.2888 S   0  0  0  0  0  0  0  0  0  0  0  0
    0.8945    1.3989    2.5598 C   0  0  0  0  0  0  0  0  0  0  0  0
    0.3730    0.5469    3.0436 H   0  0  0  0  0  0  0  0  0  0  0  0
    1.5846    1.8295    3.3134 H   0  0  0  0  0  0  0  0  0  0  0  0
   -2.9647    0.6817   -0.4227 C   0  0  0  0  0  0  0  0  0  0  0  0
   -2.4354    1.0940   -1.3068 H   0  0  0  0  0  0  0  0  0  0  0  0
   -3.2547   -0.3578   -0.6753 H   0  0  0  0  0  0  0  0  0  0  0  0
   -0.9362    2.1301    0.8514 C   0  0  0  0  0  0  0  0  0  0  0  0
   -0.3410    2.1576   -0.0836 H   0  0  0  0  0  0  0  0  0  0  0  0
   -1.7660    2.8571    0.7557 H   0  0  0  0  0  0  0  0  0  0  0  0
   -0.0981    2.4629    2.0834 C   0  0  0  0  0  0  0  0  0  0  0  0
   -0.7632    2.6947    2.9430 H   0  0  0  0  0  0  0  0  0  0  0  0
    0.4437    3.4051    1.8530 H   0  0  0  0  0  0  0  0  0  0  0  0
   -4.1638    1.5207    0.0046 C   0  0  0  0  0  0  0  0  0  0  0  0
   -4.6321    1.0647    0.9034 H   0  0  0  0  0  0  0  0  0  0  0  0
   -3.8392    2.5406    0.3097 H   0  0  0  0  0  0  0  0  0  0  0  0
   -5.2017    1.6438   -1.1192 C   0  0  0  0  0  0  0  0  0  0  0  0
   -4.7171    2.0879   -2.0164 H   0  0  0  0  0  0  0  0  0  0  0  0
   -5.5256    0.6252   -1.4262 H   0  0  0  0  0  0  0  0  0  0  0  0
    2.5764    1.9292    0.2846 C   0  0  0  0  0  0  0  0  0  0  0  0
    1.7608    2.3714   -0.3238 H   0  0  0  0  0  0  0  0  0  0  0  0
    2.9594    2.6976    0.9875 H   0  0  0  0  0  0  0  0  0  0  0  0
    3.6799    1.3884   -0.6279 C   0  0  0  0  0  0  0  0  0  0  0  0
    4.5277    1.0315   -0.0035 H   0  0  0  0  0  0  0  0  0  0  0  0
    3.2931    0.4985   -1.1672 H   0  0  0  0  0  0  0  0  0  0  0  0
    4.1702    2.4209   -1.6527 C   0  0  0  0  0  0  0  0  0  0  0  0
    3.3181    2.7044   -2.3095 H   0  0  0  0  0  0  0  0  0  0  0  0
    4.9065    1.9213   -2.3173 H   0  0  0  0  0  0  0  0  0  0  0  0
   -6.4190    2.4776   -0.7191 C   0  0  0  0  0  0  0  0  0  0  0  0
   -7.1523    2.5489   -1.5468 H   0  0  0  0  0  0  0  0  0  0  0  0
   -6.1270    3.5117   -0.4406 H   0  0  0  0  0  0  0  0  0  0  0  0
   -6.9415    2.0349    0.1542 H   0  0  0  0  0  0  0  0  0  0  0  0
    4.8023    3.6752   -1.0456 C   0  0  0  0  0  0  0  0  0  0  0  0
    5.1926    4.3515   -1.8324 H   0  0  0  0  0  0  0  0  0  0  0  0
    5.6508    3.4160   -0.3778 H   0  0  0  0  0  0  0  0  0  0  0  0
    4.0760    4.2619   -0.4455 H   0  0  0  0  0  0  0  0  0  0  0  0
  2  3  1  0  0  0  0
  3  4  1  0  0  0  0
  3  5  1  0  0  0  0
  6 15  1  0  0  0  0
  6  1  1  0  0  0  0
  7  6  1  0  0  0  0
  8  6  1  0  0  0  0
  9  1  1  0  0  0  0
  9 12  1  0  0  0  0
 10  9  1  0  0  0  0
 11  9  1  0  0  0  0
 12  3  1  0  0  0  0
 12 13  1  0  0  0  0
 14 12  1  0  0  0  0
 15 17  1  0  0  0  0
 15 16  1  0  0  0  0
 18 30  1  0  0  0  0
 18 15  1  0  0  0  0
 19 18  1  0  0  0  0
 20 18  1  0  0  0  0
 21 23  1  0  0  0  0
 21  2  1  0  0  0  0
 22 21  1  0  0  0  0
 24 25  1  0  0  0  0
 24 21  1  0  0  0  0
 26 24  1  0  0  0  0
 27 34  1  0  0  0  0
 27 24  1  0  0  0  0
 28 27  1  0  0  0  0
 29 27  1  0  0  0  0
 30 32  1  0  0  0  0
 30 33  1  0  0  0  0
 31 30  1  0  0  0  0
 34 37  1  0  0  0  0
 34 36  1  0  0  0  0
 35 34  1  0  0  0  0
M  END
