1,14
q = -2.0, confidence = 0.746

 25 26  0  0  0  0  0  0  0  0999 V2000
    1.6717   -1.5994    1.2002 S   0  0  0  0  0  1  0  0  0  0  0  0
    2.7154   -0.1552   -0.0039 Si  0  0  0  0  0  0  0  0  0  0  0  0
    4.5813   -0.4157   -0.0797 C   0  0  0  0  0  0  0  0  0  0  0  0
    5.4878    0.4852    0.5207 C   0  0  0  0  0  0  0  0  0  0  0  0
    5.1045    1.3805    1.0366 H   0  0  0  0  0  0  0  0  0  0  0  0
    6.8719    0.2551    0.4651 C   0  0  0  0  0  0  0  0  0  0  0  0
    7.5678    0.9660    0.9377 H   0  0  0  0  0  0  0  0  0  0  0  0
    7.3680   -0.8795   -0.1964 C   0  0  0  0  0  0  0  0  0  0  0  0
    8.4534   -1.0603   -0.2422 H   0  0  0  0  0  0  0  0  0  0  0  0
    6.4783   -1.7830   -0.8025 C   0  0  0  0  0  0  0  0  0  0  0  0
    6.8666   -2.6716   -1.3244 H   0  0  0  0  0  0  0  0  0  0  0  0
    5.0963   -1.5520   -0.7435 C   0  0  0  0  0  0  0  0  0  0  0  0
    4.3977   -2.2564   -1.2236 H   0  0  0  0  0  0  0  0  0  0  0  0
    1.7266   -0.4880   -1.8777 S   0  0  0  0  0  1  0  0  0  0  0  0
    2.3496    1.6028    0.6287 C   0  0  0  0  0  0  0  0  0  0  0  0
    2.2607    2.6861   -0.2741 C   0  0  0  0  0  0  0  0  0  0  0  0
    2.4255    2.5038   -1.3485 H   0  0  0  0  0  0  0  0  0  0  0  0
    1.9295    3.9757    0.1718 C   0  0  0  0  0  0  0  0  0  0  0  0
    1.8585    4.8053   -0.5493 H   0  0  0  0  0  0  0  0  0  0  0  0
    1.6782    4.2057    1.5351 C   0  0  0  0  0  0  0  0  0  0  0  0
    1.4162    5.2160    1.8868 H   0  0  0  0  0  0  0  0  0  0  0  0
    1.7644    3.1407    2.4477 C   0  0  0  0  0  0  0  0  0  0  0  0
    1.5685    3.3147    3.5177 H   0  0  0  0  0  0  0  0  0  0  0  0
    2.0982    1.8536    1.9956 C   0  0  0  0  0  0  0  0  0  0  0  0
    2.1479    1.0152    2.7094 H   0  0  0  0  0  0  0  0  0  0  0  0
  2 15  1  0  0  0  0
  2  1  1  0  0  0  0
  3  2  1  0  0  0  0
  3  4  1  0  0  0  0
  4  5  1  0  0  0  0
  6  4  2  0  0  0  0
  6  7  1  0  0  0  0
  8  6  1  0  0  0  0
  9  8  1  0  0  0  0
 10 12  1  0  0  0  0
 10  8  2  0  0  0  0
 11 10  1  0  0  0  0
 12  3  2  0  0  0  0
 13 12  1  0  0  0  0
 14  2  1  0  0  0  0
 15 24  1  0  0  0  0
 16 18  1  0  0  0  0
 16 15  2  0  0  0  0
 17 16  1  0  0  0  0
 18 20  2  0  0  0  0
 19 18  1  0  0  0  0
 20 21  1  0  0  0  0
 20 22  1  0  0  0  0
 22 23  1  0  0  0  0
 24 22  2  0  0  0  0
 24 25  1  0  0  0  0
M  END
