1,2
q = -1.0, confidence = 0.0

 15 15  0  0  0  0  0  0  0  0999 V2000
   -1.1726    1.7078    0.2847 S   0  0  0  0  0  1  0  0  0  0  0  0
    0.2378    1.0516   -2.1297 S   0  0  0  0  0  1  0  0  0  0  0  0
   -1.7517    3.3063   -2.2967 S   0  0  0  0  0  0  0  0  0  0  0  0
   -0.9269    2.0364   -1.3672 C   0  0  0  0  0  3  0  0  0  0  0  0
   -2.5710    4.1720   -0.9820 C   0  0  0  0  0  0  0  0  0  0  0  0
   -1.8332    4.9205   -0.0414 C   0  0  0  0  0  0  0  0  0  0  0  0
   -0.4989    4.9826   -0.1126 F   0  0  0  0  0  0  0  0  0  0  0  0
   -2.4901    5.5830    1.0062 C   0  0  0  0  0  0  0  0  0  0  0  0
   -1.7656    6.2660    1.9020 F   0  0  0  0  0  0  0  0  0  0  0  0
   -3.8845    5.5391    1.1114 C   0  0  0  0  0  0  0  0  0  0  0  0
   -4.3955    6.0664    1.9281 H   0  0  0  0  0  0  0  0  0  0  0  0
   -4.6213    4.8104    0.1735 C   0  0  0  0  0  0  0  0  0  0  0  0
   -5.9555    4.7521    0.2615 F   0  0  0  0  0  0  0  0  0  0  0  0
   -3.9742    4.1244   -0.8703 C   0  0  0  0  0  0  0  0  0  0  0  0
   -4.7016    3.4203   -1.7374 F   0  0  0  0  0  0  0  0  0  0  0  0
  2  4  1  0  0  0  0
  3  4  1  0  0  0  0
  3  5  1  0  0  0  0
  4  1  1  0  0  0  0
  5 14  2  0  0  0  0
  5  6  1  0  0  0  0
  6  8  2  0  0  0  0
  7  6  1  0  0  0  0
  8 10  1  0  0  0  0
  8  9  1  0  0  0  0
 10 11  1  0  0  0  0
 12 13  1  0  0  0  0
 12 10  2  0  0  0  0
 14 12  1  0  0  0  0
 15 14  1  0  0  0  0
M  END
