1,2
q = -2.0, confidence = 0.808

 36 36  0  0  0  0  0  0  0  0999 V2000
    1.6767   -1.5637    0.0582 S   0  0  0  0  0  1  0  0  0  0  0  0
    1.5741    1.6171   -0.0263 S   0  0  0  0  0  1  0  0  0  0  0  0
    3.1948   -0.6580   -0.1415 C   0  0  0  0  0  0  0  0  0  0  0  0
    4.4720   -1.2864   -0.2985 C   0  0  0  0  0  0  0  0  0  0  0  0
    5.5961   -0.4543   -0.4791 C   0  0  0  0  0  0  0  0  0  0  0  0
    6.5739   -0.9310   -0.5963 H   0  0  0  0  0  0  0  0  0  0  0  0
    5.5333    0.9531   -0.5116 C   0  0  0  0  0  0  0  0  0  0  0  0
    4.2723    1.5444   -0.3524 C   0  0  0  0  0  0  0  0  0  0  0  0
    4.1514    2.6394   -0.3625 H   0  0  0  0  0  0  0  0  0  0  0  0
    3.1161    0.7621   -0.1729 C   0  0  0  0  0  0  0  0  0  0  0  0
    4.6666   -2.8230   -0.2767 C   0  0  0  0  0  0  0  0  0  0  0  0
    6.1416   -3.2307   -0.4673 C   0  0  0  0  0  0  0  0  0  0  0  0
    6.2167   -4.3373   -0.4431 H   0  0  0  0  0  0  0  0  0  0  0  0
    6.7933   -2.8349    0.3381 H   0  0  0  0  0  0  0  0  0  0  0  0
    6.5483   -2.8903   -1.4414 H   0  0  0  0  0  0  0  0  0  0  0  0
    4.2152   -3.3935    1.0885 C   0  0  0  0  0  0  0  0  0  0  0  0
    4.3347   -4.4979    1.1011 H   0  0  0  0  0  0  0  0  0  0  0  0
    3.1548   -3.1550    1.2975 H   0  0  0  0  0  0  0  0  0  0  0  0
    4.8325   -2.9686    1.9065 H   0  0  0  0  0  0  0  0  0  0  0  0
    3.8700   -3.4744   -1.4316 C   0  0  0  0  0  0  0  0  0  0  0  0
    3.9984   -4.5778   -1.4116 H   0  0  0  0  0  0  0  0  0  0  0  0
    4.2348   -3.1007   -2.4104 H   0  0  0  0  0  0  0  0  0  0  0  0
    2.7881   -3.2510   -1.3619 H   0  0  0  0  0  0  0  0  0  0  0  0
    6.7782    1.8393   -0.7056 C   0  0  0  0  0  0  0  0  0  0  0  0
    8.0665    1.0121   -0.8603 C   0  0  0  0  0  0  0  0  0  0  0  0
    8.2638    0.3885    0.0350 H   0  0  0  0  0  0  0  0  0  0  0  0
    8.9356    1.6884   -0.9983 H   0  0  0  0  0  0  0  0  0  0  0  0
    8.0195    0.3400   -1.7409 H   0  0  0  0  0  0  0  0  0  0  0  0
    6.6009    2.6994   -1.9774 C   0  0  0  0  0  0  0  0  0  0  0  0
    5.7006    3.3415   -1.9107 H   0  0  0  0  0  0  0  0  0  0  0  0
    6.4856    2.0556   -2.8729 H   0  0  0  0  0  0  0  0  0  0  0  0
    7.4809    3.3598   -2.1337 H   0  0  0  0  0  0  0  0  0  0  0  0
    6.9437    2.7661    0.5200 C   0  0  0  0  0  0  0  0  0  0  0  0
    6.0546    3.4112    0.6640 H   0  0  0  0  0  0  0  0  0  0  0  0
    7.8294    3.4264    0.3993 H   0  0  0  0  0  0  0  0  0  0  0  0
    7.0771    2.1709    1.4462 H   0  0  0  0  0  0  0  0  0  0  0  0
  3  1  1  0  0  0  0
  4 11  1  0  0  0  0
  4  3  2  0  0  0  0
  5  4  1  0  0  0  0
  6  5  1  0  0  0  0
  7  5  2  0  0  0  0
  7  8  1  0  0  0  0
  8 10  2  0  0  0  0
  9  8  1  0  0  0  0
 10  3  1  0  0  0  0
 10  2  1  0  0  0  0
 11 16  1  0  0  0  0
 12 13  1  0  0  0  0
 12 11  1  0  0  0  0
 12 14  1  0  0  0  0
 15 12  1  0  0  0  0
 16 17  1  0  0  0  0
 16 18  1  0  0  0  0
 16 19  1  0  0  0  0
 20 21  1  0  0  0  0
 20 23  1  0  0  0  0
 20 11  1  0  0  0  0
 22 20  1  0  0  0  0
 24  7  1  0  0  0  0
 24 33  1  0  0  0  0
 25 24  1  0  0  0  0
 25 26  1  0  0  0  0
 27 25  1  0  0  0  0
 28 25  1  0  0  0  0
 29 30  1  0  0  0  0
 29 24  1  0  0  0  0
 31 29  1  0  0  0  0
 32 29  1  0  0  0  0
 33 34  1  0  0  0  0
 33 36  1  0  0  0  0
 35 33  1  0  0  0  0
M  END
