1,2
q = -2.0, confidence = 0.612

 24 26  0  0  0  0  0  0  0  0999 V2000
   -1.9201   -1.4290    0.0002 S   0  0  0  0  0  1  0  0  0  0  0  0
   -1.9200    1.4291   -0.0000 S   0  0  0  0  0  1  0  0  0  0  0  0
   -4.9608   -2.5611   -0.0001 C   0  0  0  0  0  0  0  0  0  0  0  0
   -3.9263   -2.9330   -0.0003 H   0  0  0  0  0  0  0  0  0  0  0  0
   -6.0306   -3.4701    0.0001 C   0  0  0  0  0  3  0  0  0  0  0  0
   -5.8179   -4.5508    0.0001 H   0  0  0  0  0  0  0  0  0  0  0  0
   -7.3678   -3.0233    0.0002 C   0  0  0  0  0  0  0  0  0  0  0  0
   -8.1909   -3.7550    0.0004 H   0  0  0  0  0  0  0  0  0  0  0  0
   -7.6504   -1.6486    0.0001 C   0  0  0  0  0  0  0  0  0  0  0  0
   -8.6931   -1.2929    0.0002 H   0  0  0  0  0  0  0  0  0  0  0  0
   -6.5895   -0.7297   -0.0001 C   0  0  0  0  0  0  0  0  0  0  0  0
   -6.5896    0.7295   -0.0004 C   0  0  0  0  0  0  0  0  0  0  0  0
   -7.6507    1.6481   -0.0005 C   0  0  0  0  0  0  0  0  0  0  0  0
   -8.6934    1.2923   -0.0003 H   0  0  0  0  0  0  0  0  0  0  0  0
   -7.3684    3.0229   -0.0008 C   0  0  0  0  0  0  0  0  0  0  0  0
   -8.1916    3.7544   -0.0009 H   0  0  0  0  0  0  0  0  0  0  0  0
   -6.0313    3.4700   -0.0011 C   0  0  0  0  0  0  0  0  0  0  0  0
   -5.8188    4.5507   -0.0014 H   0  0  0  0  0  0  0  0  0  0  0  0
   -4.9613    2.5612   -0.0010 C   0  0  0  0  0  0  0  0  0  0  0  0
   -3.9268    2.9333   -0.0012 H   0  0  0  0  0  0  0  0  0  0  0  0
   -5.2257    1.1764   -0.0006 C   0  0  0  0  0  0  0  0  0  0  0  0
   -4.3424    0.0001   -0.0004 C   0  0  0  0  0  0  0  0  0  0  0  0
   -5.2255   -1.1764   -0.0002 C   0  0  0  0  0  0  0  0  0  0  0  0
   -2.9541    0.0001   -0.0002 C   0  0  0  0  0  3  0  0  0  0  0  0
  3  5  1  0  0  0  0
  4  3  1  0  0  0  0
  5  6  1  0  0  0  0
  5  7  1  0  0  0  0
  7  8  1  0  0  0  0
  9 10  1  0  0  0  0
  9  7  2  0  0  0  0
 11  9  1  0  0  0  0
 12 11  2  0  0  0  0
 13 12  1  0  0  0  0
 13 14  1  0  0  0  0
 15 13  2  0  0  0  0
 16 15  1  0  0  0  0
 17 19  2  0  0  0  0
 17 15  1  0  0  0  0
 18 17  1  0  0  0  0
 19 21  1  0  0  0  0
 20 19  1  0  0  0  0
 21 22  2  0  0  0  0
 21 12  1  0  0  0  0
 22 23  1  0  0  0  0
 22 24  1  0  0  0  0
 23  3  2  0  0  0  0
 23 11  1  0  0  0  0
 24  2  1  0  0  0  0
 24  1  1  0  0  0  0
M  END
