1,2
q = nan, confidence = 0.0

 18 18  0  0  0  0  0  0  0  0999 V2000
   -1.8563   -0.9290    0.8362 S   0  0  0  0  0  1  0  0  0  0  0  0
    0.1481   -2.0503   -0.8936 S   0  0  0  0  0  1  0  0  0  0  0  0
   -1.3171   -2.2999   -0.0471 C   0  0  0  0  0  3  0  0  0  0  0  0
   -1.9337   -3.4695   -0.1072 O   0  0  0  0  0  0  0  0  0  0  0  0
   -3.1821   -3.6253    0.6326 C   0  0  0  0  0  0  0  0  0  0  0  0
   -3.7007   -5.0137    0.3980 C   0  0  0  0  0  0  0  0  0  0  0  0
   -3.8901   -2.8484    0.2751 H   0  0  0  0  0  0  0  0  0  0  0  0
   -2.9721   -3.4333    1.7056 H   0  0  0  0  0  0  0  0  0  0  0  0
   -4.5026   -5.2932   -0.7259 C   0  0  0  0  0  0  0  0  0  0  0  0
   -3.3619   -6.0608    1.2765 C   0  0  0  0  0  0  0  0  0  0  0  0
   -4.9608   -6.5962   -0.9657 C   0  0  0  0  0  0  0  0  0  0  0  0
   -4.7684   -4.4786   -1.4179 H   0  0  0  0  0  0  0  0  0  0  0  0
   -3.8204   -7.3646    1.0393 C   0  0  0  0  0  0  0  0  0  0  0  0
   -2.7325   -5.8483    2.1551 H   0  0  0  0  0  0  0  0  0  0  0  0
   -4.6201   -7.6337   -0.0828 C   0  0  0  0  0  0  0  0  0  0  0  0
   -5.5887   -6.8038   -1.8453 H   0  0  0  0  0  0  0  0  0  0  0  0
   -3.5527   -8.1751    1.7338 H   0  0  0  0  0  0  0  0  0  0  0  0
   -4.9819   -8.6563   -0.2689 H   0  0  0  0  0  0  0  0  0  0  0  0
  2  3  1  0  0  0  0
  3  1  1  0  0  0  0
  4  3  1  0  0  0  0
  4  5  1  0  0  0  0
  5  8  1  0  0  0  0
  6  5  1  0  0  0  0
  6 10  1  0  0  0  0
  7  5  1  0  0  0  0
  9  6  2  0  0  0  0
 10 14  1  0  0  0  0
 11  9  1  0  0  0  0
 11 15  2  0  0  0  0
 12  9  1  0  0  0  0
 13 10  2  0  0  0  0
 13 17  1  0  0  0  0
 15 13  1  0  0  0  0
 16 11  1  0  0  0  0
 18 15  1  0  0  0  0
M  END
