1,2
q = 0.0, confidence = 1.0

 41 41  0  0  0  0  0  0  0  0999 V2000
   -0.4844   -0.9266   -0.7605 S   0  0  0  0  0  0  0  0  0  0  0  0
   -3.6543   -0.9612   -0.0584 S   0  0  0  0  0  0  0  0  0  0  0  0
    2.1519    0.2939   -1.1702 O   0  0  0  0  0  0  0  0  0  0  0  0
   -4.8455   -3.0534    1.9241 O   0  0  0  0  0  0  0  0  0  0  0  0
   -5.5915   -3.6445    2.1285 H   0  0  0  0  0  0  0  0  0  0  0  0
    7.3972   -1.3313    1.2168 O   0  0  0  0  0  0  0  0  0  0  0  0
    6.5068   -2.1893   -0.5901 O   0  0  0  0  0  0  0  0  0  0  0  0
    2.0027    1.9615    0.8468 N   0  0  0  0  0  0  0  0  0  0  0  0
    1.3053    1.8918    0.0896 H   0  0  0  0  0  0  0  0  0  0  0  0
    6.4987   -1.4053    0.3702 N   0  0  0  0  0  0  0  0  0  0  0  0
    3.2233    0.2531   -0.3196 C   0  0  0  0  0  0  0  0  0  0  0  0
    3.1154    1.1885    0.7703 C   0  0  0  0  0  0  0  0  0  0  0  0
    4.1801    1.2284    1.7092 C   0  0  0  0  0  0  0  0  0  0  0  0
    4.1279    1.9304    2.5521 H   0  0  0  0  0  0  0  0  0  0  0  0
    5.2860    0.3837    1.5809 C   0  0  0  0  0  0  0  0  0  0  0  0
    6.1135    0.4018    2.3019 H   0  0  0  0  0  0  0  0  0  0  0  0
    5.3513   -0.5159    0.5088 C   0  0  0  0  0  0  0  0  0  0  0  0
    4.3204   -0.5841   -0.4544 C   0  0  0  0  0  0  0  0  0  0  0  0
    4.4303   -1.2972   -1.2809 H   0  0  0  0  0  0  0  0  0  0  0  0
    1.9059   -0.7626   -2.0742 C   0  0  0  0  0  0  0  0  0  0  0  0
    2.1942   -1.7425   -1.6288 H   0  0  0  0  0  0  0  0  0  0  0  0
    2.4859   -0.6322   -3.0180 H   0  0  0  0  0  0  0  0  0  0  0  0
    0.4140   -0.7033   -2.3612 C   0  0  0  0  0  0  0  0  0  0  0  0
    0.0814   -1.4782   -3.0783 H   0  0  0  0  0  0  0  0  0  0  0  0
    0.1300    0.3074   -2.7173 H   0  0  0  0  0  0  0  0  0  0  0  0
   -1.5547   -2.3931   -1.1122 C   0  0  0  0  0  0  0  0  0  0  0  0
   -2.0199   -2.2703   -2.1116 H   0  0  0  0  0  0  0  0  0  0  0  0
   -0.9107   -3.2964   -1.1195 H   0  0  0  0  0  0  0  0  0  0  0  0
   -2.6001   -2.4844   -0.0146 C   0  0  0  0  0  0  0  0  0  0  0  0
   -2.1378   -2.5570    0.9901 H   0  0  0  0  0  0  0  0  0  0  0  0
   -3.2724   -3.3538   -0.1430 H   0  0  0  0  0  0  0  0  0  0  0  0
   -4.1588   -0.7813    1.6991 C   0  0  0  0  0  0  0  0  0  0  0  0
   -3.2619   -0.9363    2.3321 H   0  0  0  0  0  0  0  0  0  0  0  0
   -4.4549    0.2875    1.7511 H   0  0  0  0  0  0  0  0  0  0  0  0
   -5.2923   -1.7148    2.0706 C   0  0  0  0  0  0  0  0  0  0  0  0
   -5.5838   -1.4805    3.1242 H   0  0  0  0  0  0  0  0  0  0  0  0
   -6.1768   -1.4935    1.4264 H   0  0  0  0  0  0  0  0  0  0  0  0
    1.7605    2.9469    1.8693 C   0  0  0  0  0  0  0  0  0  0  0  0
    0.7760    3.4102    1.6720 H   0  0  0  0  0  0  0  0  0  0  0  0
    2.5313    3.7510    1.8753 H   0  0  0  0  0  0  0  0  0  0  0  0
    1.7368    2.4969    2.8873 H   0  0  0  0  0  0  0  0  0  0  0  0
  2 29  1  0  0  0  0
  2 32  1  0  0  0  0
  3 11  1  0  0  0  0
  4 35  1  0  0  0  0
  4  5  1  0  0  0  0
  7 10  2  0  0  0  0
  8 38  1  0  0  0  0
  9  8  1  0  0  0  0
 10 17  1  0  0  0  0
 10  6  2  0  0  0  0
 11 12  1  0  0  0  0
 12  8  1  0  0  0  0
 12 13  2  0  0  0  0
 13 14  1  0  0  0  0
 15 13  1  0  0  0  0
 15 16  1  0  0  0  0
 17 15  2  0  0  0  0
 18 11  2  0  0  0  0
 18 17  1  0  0  0  0
 19 18  1  0  0  0  0
 20 21  1  0  0  0  0
 20  3  1  0  0  0  0
 22 20  1  0  0  0  0
 23 20  1  0  0  0  0
 23  1  1  0  0  0  0
 24 23  1  0  0  0  0
 25 23  1  0  0  0  0
 26  1  1  0  0  0  0
 26 29  1  0  0  0  0
 27 26  1  0  0  0  0
 28 26  1  0  0  0  0
 29 30  1  0  0  0  0
 31 29  1  0  0  0  0
 32 34  1  0  0  0  0
 32 35  1  0  0  0  0
 32 33  1  0  0  0  0
 35 36  1  0  0  0  0
 37 35  1  0  0  0  0
 38 40  1  0  0  0  0
 38 41  1  0  0  0  0
 39 38  1  0  0  0  0
M  END
