1,2
q = -1.0, confidence = 0.0

 26 27  0  0  0  0  0  0  0  0999 V2000
    1.8247    0.6674   -1.2689 S   0  0  0  0  0  1  0  0  0  0  0  0
    1.1101    1.9427    1.1799 S   0  0  0  0  0  1  0  0  0  0  0  0
    6.6832    1.3622   -0.0059 O   0  0  0  0  0  0  0  0  0  0  0  0
    3.5008    2.4249   -0.0418 N   0  0  0  0  0  0  0  0  0  0  0  0
    5.4427    0.9664   -0.4476 C   0  0  0  0  0  0  0  0  0  0  0  0
    2.3066    1.7799   -0.0432 C   0  0  0  0  0  3  0  0  0  0  0  0
    3.8085    5.5356    0.3569 O   0  0  0  0  0  0  0  0  0  0  0  0
    4.6028    4.4901    0.7489 C   0  0  0  0  0  0  0  0  0  0  0  0
    4.5447    2.0284   -0.9960 C   0  0  0  0  0  0  0  0  0  0  0  0
    5.1445    2.9238   -1.2529 H   0  0  0  0  0  0  0  0  0  0  0  0
    4.0350    1.6759   -1.9141 H   0  0  0  0  0  0  0  0  0  0  0  0
    3.9270    3.2171    1.1207 C   0  0  0  0  0  0  0  0  0  0  0  0
    3.0198    3.4214    1.7246 H   0  0  0  0  0  0  0  0  0  0  0  0
    4.6196    2.6132    1.7470 H   0  0  0  0  0  0  0  0  0  0  0  0
    5.9461    6.2222    0.2193 C   0  0  0  0  0  0  0  0  0  0  0  0
    6.8218    6.8568    0.0448 H   0  0  0  0  0  0  0  0  0  0  0  0
    6.4717   -0.8330    0.4354 C   0  0  0  0  0  0  0  0  0  0  0  0
    6.7005   -1.8484    0.7775 H   0  0  0  0  0  0  0  0  0  0  0  0
    5.2642   -0.3768   -0.1917 C   0  0  0  0  0  0  0  0  0  0  0  0
    4.3530   -0.9453   -0.4116 H   0  0  0  0  0  0  0  0  0  0  0  0
    5.9293    4.8626    0.6787 C   0  0  0  0  0  0  0  0  0  0  0  0
    6.7844    4.2188    0.9125 H   0  0  0  0  0  0  0  0  0  0  0  0
    4.6287    6.5755    0.0405 C   0  0  0  0  0  0  0  0  0  0  0  0
    4.1307    7.4934   -0.2878 H   0  0  0  0  0  0  0  0  0  0  0  0
    7.2981    0.2632    0.5198 C   0  0  0  0  0  0  0  0  0  0  0  0
    8.3117    0.4198    0.9022 H   0  0  0  0  0  0  0  0  0  0  0  0
  1  6  1  0  0  0  0
  3 25  1  0  0  0  0
  4 12  1  0  0  0  0
  5 19  2  0  0  0  0
  5  3  1  0  0  0  0
  6  4  1  0  0  0  0
  6  2  1  0  0  0  0
  7  8  1  0  0  0  0
  8 12  1  0  0  0  0
  9  5  1  0  0  0  0
  9  4  1  0  0  0  0
 10  9  1  0  0  0  0
 11  9  1  0  0  0  0
 12 13  1  0  0  0  0
 12 14  1  0  0  0  0
 15 21  1  0  0  0  0
 16 15  1  0  0  0  0
 17 25  2  0  0  0  0
 17 18  1  0  0  0  0
 19 17  1  0  0  0  0
 20 19  1  0  0  0  0
 21  8  2  0  0  0  0
 21 22  1  0  0  0  0
 23 15  2  0  0  0  0
 23  7  1  0  0  0  0
 24 23  1  0  0  0  0
 25 26  1  0  0  0  0
M  END
