1,2
q = -1.0, confidence = 0.002

 11 10  0  0  0  0  0  0  0  0999 V2000
   -1.8665    1.7442   -0.0001 S   0  0  0  0  0  1  0  0  0  0  0  0
   -1.8960   -1.1546   -0.0004 S   0  0  0  0  0  1  0  0  0  0  0  0
   -2.7878    0.3086   -0.0001 C   0  0  0  0  0  3  0  0  0  0  0  0
   -4.1166    0.3849    0.0000 O   0  0  0  0  0  0  0  0  0  0  0  0
   -4.8611   -0.8337    0.0000 C   0  0  0  0  0  0  0  0  0  0  0  0
   -6.3400   -0.4714    0.0003 C   0  0  0  0  0  0  0  0  0  0  0  0
   -6.6764    0.2416   -1.0905 F   0  0  0  0  0  0  0  0  0  0  0  0
   -6.6760    0.2417    1.0911 F   0  0  0  0  0  0  0  0  0  0  0  0
   -7.0594   -1.6163    0.0004 F   0  0  0  0  0  0  0  0  0  0  0  0
   -4.6296   -1.4366   -0.9027 H   0  0  0  0  0  0  0  0  0  0  0  0
   -4.6293   -1.4367    0.9026 H   0  0  0  0  0  0  0  0  0  0  0  0
  1  3  1  0  0  0  0
  2  3  1  0  0  0  0
  3  4  1  0  0  0  0
  5  4  1  0  0  0  0
  5  6  1  0  0  0  0
  5 11  1  0  0  0  0
  6  9  1  0  0  0  0
  6  8  1  0  0  0  0
  7  6  1  0  0  0  0
 10  5  1  0  0  0  0
M  END
