1,2
q = 0.0, confidence = 0.988

 32 35  0  0  1  0  0  0  0  0999 V2000
   -1.6011    0.8227   -1.0872 S   0  0  0  0  0  0  0  0  0  0  0  0
    1.4746   -0.1469   -1.4456 S   0  0  0  0  0  0  0  0  0  0  0  0
   -1.2126   -0.7621   -2.0211 C   0  0  2  0  0  0  0  0  0  0  0  0
   -2.4634   -1.6410   -1.8106 C   0  0  0  0  0  0  0  0  0  0  0  0
   -2.9815   -1.3556   -0.4183 C   0  0  0  0  0  0  0  0  0  0  0  0
   -3.7881   -2.1820    0.3765 C   0  0  0  0  0  0  0  0  0  0  0  0
   -4.1842   -1.7466    1.6536 C   0  0  0  0  0  0  0  0  0  0  0  0
   -3.7767   -0.4922    2.1405 C   0  0  0  0  0  0  0  0  0  0  0  0
   -2.9699    0.3537    1.3615 C   0  0  0  0  0  0  0  0  0  0  0  0
   -2.5884   -0.1033    0.0959 C   0  0  0  0  0  0  0  0  0  0  0  0
    0.0854   -1.4118   -1.5370 C   0  0  2  0  0  0  0  0  0  0  0  0
    0.0957   -2.0947   -0.1601 C   0  0  0  0  0  0  0  0  0  0  0  0
    1.5364   -2.1913    0.2669 C   0  0  0  0  0  0  0  0  0  0  0  0
    2.1010   -3.0905    1.1818 C   0  0  0  0  0  0  0  0  0  0  0  0
    3.4544   -2.9584    1.5378 C   0  0  0  0  0  0  0  0  0  0  0  0
    4.2431   -1.9298    0.9944 C   0  0  0  0  0  0  0  0  0  0  0  0
    3.6988   -1.0216    0.0725 C   0  0  0  0  0  0  0  0  0  0  0  0
    2.3554   -1.1850   -0.2823 C   0  0  0  0  0  0  0  0  0  0  0  0
   -1.0989   -0.4536   -3.0786 H   0  0  0  0  0  0  0  0  0  0  0  0
   -3.2340   -1.3687   -2.5644 H   0  0  0  0  0  0  0  0  0  0  0  0
   -2.2303   -2.7145   -1.9667 H   0  0  0  0  0  0  0  0  0  0  0  0
   -4.1014   -3.1695    0.0035 H   0  0  0  0  0  0  0  0  0  0  0  0
   -4.8116   -2.3988    2.2792 H   0  0  0  0  0  0  0  0  0  0  0  0
   -4.0825   -0.1680    3.1464 H   0  0  0  0  0  0  0  0  0  0  0  0
   -2.6061    1.3301    1.7201 H   0  0  0  0  0  0  0  0  0  0  0  0
    0.4199   -2.1385   -2.3106 H   0  0  0  0  0  0  0  0  0  0  0  0
   -0.4476   -1.4634    0.5775 H   0  0  0  0  0  0  0  0  0  0  0  0
   -0.4141   -3.0782   -0.1946 H   0  0  0  0  0  0  0  0  0  0  0  0
    1.4829   -3.8860    1.6254 H   0  0  0  0  0  0  0  0  0  0  0  0
    3.8984   -3.6644    2.2554 H   0  0  0  0  0  0  0  0  0  0  0  0
    5.2972   -1.8299    1.2926 H   0  0  0  0  0  0  0  0  0  0  0  0
    4.2929   -0.1977   -0.3441 H   0  0  0  0  0  0  0  0  0  0  0  0
  1 10  1  0  0  0  0
  2 18  1  0  0  0  0
  3 19  1  6  0  0  0
  3  4  1  0  0  0  0
  3 11  1  0  0  0  0
  3  1  1  0  0  0  0
  4  5  1  0  0  0  0
  5 10  2  0  0  0  0
  5  6  1  0  0  0  0
  6  7  2  0  0  0  0
  7  8  1  0  0  0  0
  7 23  1  0  0  0  0
  8 24  1  0  0  0  0
  9 25  1  0  0  0  0
  9  8  2  0  0  0  0
 10  9  1  0  0  0  0
 11 26  1  6  0  0  0
 11  2  1  0  0  0  0
 11 12  1  0  0  0  0
 12 13  1  0  0  0  0
 12 27  1  0  0  0  0
 13 14  1  0  0  0  0
 14 15  2  0  0  0  0
 14 29  1  0  0  0  0
 15 30  1  0  0  0  0
 16 31  1  0  0  0  0
 16 15  1  0  0  0  0
 17 16  2  0  0  0  0
 18 17  1  0  0  0  0
 18 13  2  0  0  0  0
 20  4  1  0  0  0  0
 21  4  1  0  0  0  0
 22  6  1  0  0  0  0
 28 12  1  0  0  0  0
 32 17  1  0  0  0  0
M  END
