1,2
q = -2.0, confidence = 0.562

 15 15  0  0  0  0  0  0  0  0999 V2000
   -0.9349    1.9276    0.7745 S   0  0  0  0  0  1  0  0  0  0  0  0
   -1.9667   -0.8890   -0.4730 S   0  0  0  0  0  1  0  0  0  0  0  0
   -2.5902    1.6156    0.4129 C   0  0  0  0  0  0  0  0  0  0  0  0
   -3.2740    2.4616    0.5991 H   0  0  0  0  0  0  0  0  0  0  0  0
   -3.0862    0.3970   -0.0167 C   0  0  0  0  0  0  0  0  0  0  0  0
   -4.5301    0.1279   -0.1099 C   0  0  0  0  0  0  0  0  0  0  0  0
   -5.0380   -1.1920   -0.2289 C   0  0  0  0  0  0  0  0  0  0  0  0
   -4.3324   -2.0356   -0.2640 H   0  0  0  0  0  0  0  0  0  0  0  0
   -6.4191   -1.4082   -0.2886 C   0  0  0  0  0  0  0  0  0  0  0  0
   -6.8000   -2.4439   -0.3710 H   0  0  0  0  0  0  0  0  0  0  0  0
   -6.8711    0.8202   -0.1578 C   0  0  0  0  0  0  0  0  0  0  0  0
   -7.6257    1.6296   -0.1410 H   0  0  0  0  0  0  0  0  0  0  0  0
   -5.5146    1.1515   -0.0841 C   0  0  0  0  0  0  0  0  0  0  0  0
   -5.2233    2.2103   -0.0245 H   0  0  0  0  0  0  0  0  0  0  0  0
   -7.3491   -0.4353   -0.2576 N   0  0  0  0  0  0  0  0  0  0  0  0
  2  5  1  0  0  0  0
  3  4  1  0  0  0  0
  3  1  1  0  0  0  0
  5  3  2  0  0  0  0
  6 13  1  0  0  0  0
  6  5  1  0  0  0  0
  7  6  2  0  0  0  0
  8  7  1  0  0  0  0
  9 15  2  0  0  0  0
  9  7  1  0  0  0  0
 10  9  1  0  0  0  0
 11 12  1  0  0  0  0
 11 13  2  0  0  0  0
 13 14  1  0  0  0  0
 15 11  1  0  0  0  0
M  END
