1,11
q = -1.0, confidence = 0.0

 23 22  0  0  0  0  0  0  0  0999 V2000
   -1.1851   -1.8974   -0.0652 S   0  0  0  0  0  1  0  0  0  0  0  0
   -3.7538   -1.2884   -0.7656 N   0  0  0  0  0  0  0  0  0  0  0  0
   -2.4930   -0.8708   -0.5308 C   0  0  0  0  0  3  0  0  0  0  0  0
   -4.7793   -0.3283   -1.1546 C   0  0  0  0  0  0  0  0  0  0  0  0
   -4.3043    0.4692   -1.7598 H   0  0  0  0  0  0  0  0  0  0  0  0
   -5.5436   -0.8365   -1.7753 H   0  0  0  0  0  0  0  0  0  0  0  0
   -4.1515   -2.6787   -0.5870 C   0  0  0  0  0  0  0  0  0  0  0  0
   -3.3788   -3.2054    0.0042 H   0  0  0  0  0  0  0  0  0  0  0  0
   -5.1164   -2.7052   -0.0460 H   0  0  0  0  0  0  0  0  0  0  0  0
   -4.2627   -3.1885   -1.5684 H   0  0  0  0  0  0  0  0  0  0  0  0
   -1.9864    0.7821   -0.6598 S   0  0  0  0  0  1  0  0  0  0  0  0
   -5.4857    0.3142    0.0473 C   0  0  0  0  0  0  0  0  0  0  0  0
   -4.7154    0.7021    0.7676 H   0  0  0  0  0  0  0  0  0  0  0  0
   -6.2755   -0.6689    0.6439 O   0  0  0  0  0  0  0  0  0  0  0  0
   -6.3078    1.3806   -0.3841 O   0  0  0  0  0  0  0  0  0  0  0  0
   -5.6700    2.6446   -0.3741 C   0  0  0  0  0  0  0  0  0  0  0  0
   -4.7822    2.6837   -1.0469 H   0  0  0  0  0  0  0  0  0  0  0  0
   -6.4116    3.3879   -0.7242 H   0  0  0  0  0  0  0  0  0  0  0  0
   -5.3292    2.9292    0.6495 H   0  0  0  0  0  0  0  0  0  0  0  0
   -6.8471   -0.2685    1.8800 C   0  0  0  0  0  0  0  0  0  0  0  0
   -7.5127    0.6115    1.7502 H   0  0  0  0  0  0  0  0  0  0  0  0
   -7.4398   -1.1220    2.2590 H   0  0  0  0  0  0  0  0  0  0  0  0
   -6.0592   -0.0135    2.6274 H   0  0  0  0  0  0  0  0  0  0  0  0
  2  7  1  0  0  0  0
  2  3  1  0  0  0  0
  3  1  1  0  0  0  0
  4  2  1  0  0  0  0
  4 12  1  0  0  0  0
  5  4  1  0  0  0  0
  6  4  1  0  0  0  0
  7  9  1  0  0  0  0
  7  8  1  0  0  0  0
 10  7  1  0  0  0  0
 11  3  1  0  0  0  0
 12 14  1  0  0  0  0
 12 13  1  0  0  0  0
 14 20  1  0  0  0  0
 15 16  1  0  0  0  0
 15 12  1  0  0  0  0
 16 19  1  0  0  0  0
 17 16  1  0  0  0  0
 18 16  1  0  0  0  0
 20 22  1  0  0  0  0
 20 23  1  0  0  0  0
 21 20  1  0  0  0  0
M  END
