1,2
q = 0.0, confidence = 0.996

 28 27  0  0  0  0  0  0  0  0999 V2000
    1.7500   -0.4710    0.5144 S   0  0  0  0  0  0  0  0  0  0  0  0
   -1.4919   -0.5634    1.3782 S   0  0  0  0  0  0  0  0  0  0  0  0
    4.8746   -1.1524   -0.2707 C   0  0  0  0  0  0  0  0  0  0  0  0
    5.8004   -1.7493   -0.1540 H   0  0  0  0  0  0  0  0  0  0  0  0
    4.6321   -0.7030    0.7137 H   0  0  0  0  0  0  0  0  0  0  0  0
    5.0916   -0.3164   -0.9666 H   0  0  0  0  0  0  0  0  0  0  0  0
    3.7233   -2.0139   -0.7898 C   0  0  0  0  0  0  0  0  0  0  0  0
    3.5441   -2.8752   -0.1082 H   0  0  0  0  0  0  0  0  0  0  0  0
    3.9975   -2.4655   -1.7685 H   0  0  0  0  0  0  0  0  0  0  0  0
    2.4200   -1.2483   -1.0101 C   0  0  0  0  0  0  0  0  0  0  0  0
    1.6250   -1.8797   -1.4557 H   0  0  0  0  0  0  0  0  0  0  0  0
    2.5573   -0.3588   -1.6623 H   0  0  0  0  0  0  0  0  0  0  0  0
    0.9877   -1.9225    1.3617 C   0  0  0  0  0  0  0  0  0  0  0  0
    0.6329   -2.6371    0.5907 H   0  0  0  0  0  0  0  0  0  0  0  0
    1.7703   -2.4254    1.9660 H   0  0  0  0  0  0  0  0  0  0  0  0
   -0.1382   -1.4472    2.2657 C   0  0  0  0  0  0  0  0  0  0  0  0
    0.2168   -0.6820    2.9856 H   0  0  0  0  0  0  0  0  0  0  0  0
   -0.5989   -2.2884    2.8228 H   0  0  0  0  0  0  0  0  0  0  0  0
   -2.2322   -1.9521    0.4190 C   0  0  0  0  0  0  0  0  0  0  0  0
   -1.4717   -2.3602   -0.2773 H   0  0  0  0  0  0  0  0  0  0  0  0
   -2.4983   -2.7411    1.1540 H   0  0  0  0  0  0  0  0  0  0  0  0
   -3.4673   -1.4692   -0.3411 C   0  0  0  0  0  0  0  0  0  0  0  0
   -4.2324   -1.1272    0.3878 H   0  0  0  0  0  0  0  0  0  0  0  0
   -3.2002   -0.5787   -0.9482 H   0  0  0  0  0  0  0  0  0  0  0  0
   -4.0380   -2.5565   -1.2529 C   0  0  0  0  0  0  0  0  0  0  0  0
   -4.9478   -2.1985   -1.7736 H   0  0  0  0  0  0  0  0  0  0  0  0
   -4.3139   -3.4673   -0.6822 H   0  0  0  0  0  0  0  0  0  0  0  0
   -3.3019   -2.8501   -2.0293 H   0  0  0  0  0  0  0  0  0  0  0  0
  1 13  1  0  0  0  0
  2 16  1  0  0  0  0
  3  4  1  0  0  0  0
  3  5  1  0  0  0  0
  6  3  1  0  0  0  0
  7  3  1  0  0  0  0
  7  8  1  0  0  0  0
  9  7  1  0  0  0  0
 10  7  1  0  0  0  0
 10  1  1  0  0  0  0
 11 10  1  0  0  0  0
 12 10  1  0  0  0  0
 13 15  1  0  0  0  0
 13 16  1  0  0  0  0
 14 13  1  0  0  0  0
 16 18  1  0  0  0  0
 16 17  1  0  0  0  0
 19 21  1  0  0  0  0
 19  2  1  0  0  0  0
 20 19  1  0  0  0  0
 22 23  1  0  0  0  0
 22 19  1  0  0  0  0
 24 22  1  0  0  0  0
 25 27  1  0  0  0  0
 25 22  1  0  0  0  0
 26 25  1  0  0  0  0
 28 25  1  0  0  0  0
M  END
