1,2
q = -2.0, confidence = 0.62

 30 33  0  0  0  0  0  0  0  0999 V2000
    0.0830    0.9929   -0.2149 S   0  0  0  0  0  1  0  0  0  0  0  0
    0.9082   -2.0625    0.1925 S   0  0  0  0  0  1  0  0  0  0  0  0
   -1.1613   -0.2457   -0.0743 C   0  0  0  0  0  0  0  0  0  0  0  0
   -2.5128    0.1137   -0.1317 C   0  0  0  0  0  0  0  0  0  0  0  0
   -2.7513    1.1688   -0.3130 H   0  0  0  0  0  0  0  0  0  0  0  0
   -3.5545   -0.8440   -0.0304 C   0  0  0  0  0  0  0  0  0  0  0  0
   -4.9733   -0.5071   -0.0505 C   0  0  0  0  0  0  0  0  0  0  0  0
   -5.5087    0.8240    0.2039 C   0  0  0  0  0  0  0  0  0  0  0  0
   -4.7782    1.8656    0.8506 C   0  0  0  0  0  0  0  0  0  0  0  0
   -3.7793    1.6539    1.2498 H   0  0  0  0  0  0  0  0  0  0  0  0
   -5.3216    3.1303    1.0525 C   0  0  0  0  0  0  0  0  0  0  0  0
   -4.7266    3.8983    1.5700 H   0  0  0  0  0  0  0  0  0  0  0  0
   -6.6357    3.4260    0.6204 C   0  0  0  0  0  0  0  0  0  0  0  0
   -7.0547    4.4335    0.7639 H   0  0  0  0  0  0  0  0  0  0  0  0
   -7.4073    2.4160    0.0621 C   0  0  0  0  0  0  0  0  0  0  0  0
   -8.4543    2.6059   -0.2225 H   0  0  0  0  0  0  0  0  0  0  0  0
   -6.8880    1.1041   -0.1215 C   0  0  0  0  0  0  0  0  0  0  0  0
   -7.7423    0.0436   -0.5616 C   0  0  0  0  0  0  0  0  0  0  0  0
   -8.7892    0.2761   -0.8112 H   0  0  0  0  0  0  0  0  0  0  0  0
   -7.2776   -1.2488   -0.6009 C   0  0  0  0  0  0  0  0  0  0  0  0
   -7.9524   -2.0790   -0.8624 H   0  0  0  0  0  0  0  0  0  0  0  0
   -5.9039   -1.5550   -0.3332 C   0  0  0  0  0  0  0  0  0  0  0  0
   -5.4718   -2.9236   -0.3505 C   0  0  0  0  0  0  0  0  0  0  0  0
   -6.2272   -3.7049   -0.5266 H   0  0  0  0  0  0  0  0  0  0  0  0
   -4.1594   -3.2572   -0.1242 C   0  0  0  0  0  0  0  0  0  0  0  0
   -3.8422   -4.3112   -0.0951 H   0  0  0  0  0  0  0  0  0  0  0  0
   -3.1617   -2.2377    0.0066 C   0  0  0  0  0  0  0  0  0  0  0  0
   -1.7925   -2.5855    0.0938 C   0  0  0  0  0  0  0  0  0  0  0  0
   -1.5155   -3.6506    0.1376 H   0  0  0  0  0  0  0  0  0  0  0  0
   -0.7894   -1.6133    0.0822 C   0  0  0  0  0  0  0  0  0  0  0  0
  1  3  1  0  0  0  0
  3 30  1  0  0  0  0
  4  3  2  0  0  0  0
  4  6  1  0  0  0  0
  5  4  1  0  0  0  0
  6 27  1  0  0  0  0
  7  6  2  0  0  0  0
  7  8  1  0  0  0  0
  8  9  1  0  0  0  0
  9 11  2  0  0  0  0
  9 10  1  0  0  0  0
 11 12  1  0  0  0  0
 13 14  1  0  0  0  0
 13 11  1  0  0  0  0
 15 13  2  0  0  0  0
 16 15  1  0  0  0  0
 17 15  1  0  0  0  0
 17  8  2  0  0  0  0
 18 17  1  0  0  0  0
 19 18  1  0  0  0  0
 20 18  2  0  0  0  0
 20 22  1  0  0  0  0
 21 20  1  0  0  0  0
 22  7  1  0  0  0  0
 23 22  2  0  0  0  0
 23 25  1  0  0  0  0
 24 23  1  0  0  0  0
 25 26  1  0  0  0  0
 25 27  2  0  0  0  0
 27 28  1  0  0  0  0
 28 29  1  0  0  0  0
 30 28  2  0  0  0  0
 30  2  1  0  0  0  0
M  END
