1,2
q = -1.0, confidence = 0.0

 16 16  0  0  0  0  0  0  0  0999 V2000
   -2.4860   -1.2915   -0.0568 S   0  0  0  0  0  1  0  0  0  0  0  0
   -1.3755    1.3201    0.0855 S   0  0  0  0  0  1  0  0  0  0  0  0
   -2.8328    0.3818    0.0255 C   0  0  0  0  0  3  0  0  0  0  0  0
   -4.0350    1.0052    0.0530 N   0  0  0  0  0  0  0  0  0  0  0  0
   -3.9541    2.0266    0.1065 H   0  0  0  0  0  0  0  0  0  0  0  0
   -5.3595    0.5309    0.0245 C   0  0  0  0  0  0  0  0  0  0  0  0
   -5.7045   -0.8365   -0.0384 C   0  0  0  0  0  0  0  0  0  0  0  0
   -4.9199   -1.6031   -0.0677 H   0  0  0  0  0  0  0  0  0  0  0  0
   -7.0563   -1.2061   -0.0620 C   0  0  0  0  0  0  0  0  0  0  0  0
   -7.3120   -2.2753   -0.1110 H   0  0  0  0  0  0  0  0  0  0  0  0
   -8.0746   -0.2415   -0.0241 C   0  0  0  0  0  0  0  0  0  0  0  0
   -9.1312   -0.5462   -0.0433 H   0  0  0  0  0  0  0  0  0  0  0  0
   -7.7292    1.1185    0.0388 C   0  0  0  0  0  0  0  0  0  0  0  0
   -8.5130    1.8901    0.0694 H   0  0  0  0  0  0  0  0  0  0  0  0
   -6.3854    1.5037    0.0630 C   0  0  0  0  0  0  0  0  0  0  0  0
   -6.1183    2.5718    0.1125 H   0  0  0  0  0  0  0  0  0  0  0  0
  1  3  1  0  0  0  0
  3  4  1  0  0  0  0
  3  2  1  0  0  0  0
  4  5  1  0  0  0  0
  6  4  1  0  0  0  0
  6 15  1  0  0  0  0
  7  6  2  0  0  0  0
  8  7  1  0  0  0  0
  9  7  1  0  0  0  0
  9 11  2  0  0  0  0
 10  9  1  0  0  0  0
 11 13  1  0  0  0  0
 12 11  1  0  0  0  0
 13 15  2  0  0  0  0
 13 14  1  0  0  0  0
 15 16  1  0  0  0  0
M  END
