2,4
q = 0.0, confidence = 1.0

 40 42  0  0  0  0  0  0  0  0999 V2000
    1.7853    0.2016    1.2213 P   0  0  1  0  0  4  0  0  0  0  0  0
    0.7117   -1.4683    1.5838 S   0  0  0  0  0  1  0  0  0  0  0  0
    0.0751    1.6699   -0.7625 P   0  0  2  0  0  4  0  0  0  0  0  0
    0.2779   -0.1188   -1.6807 S   0  0  0  0  0  1  0  0  0  0  0  0
    0.9055    1.6149    0.7422 N   0  0  0  0  0  0  0  0  0  0  0  0
    2.3217    0.9867    2.7983 C   0  0  0  0  0  0  0  0  0  0  0  0
    2.5108    0.2063    3.5592 H   0  0  0  0  0  0  0  0  0  0  0  0
    3.2608    1.5499    2.6153 H   0  0  0  0  0  0  0  0  0  0  0  0
    1.1366    1.9075    3.1258 C   0  0  0  0  0  0  0  0  0  0  0  0
    0.2861    1.2879    3.4764 H   0  0  0  0  0  0  0  0  0  0  0  0
    1.3843    2.6359    3.9229 H   0  0  0  0  0  0  0  0  0  0  0  0
    0.7467    2.6151    1.8195 C   0  0  0  0  0  0  0  0  0  0  0  0
   -0.3008    2.9786    1.8484 H   0  0  0  0  0  0  0  0  0  0  0  0
    1.4093    3.4903    1.6278 H   0  0  0  0  0  0  0  0  0  0  0  0
    3.1910    0.0276    0.0797 C   0  0  0  0  0  0  0  0  0  0  0  0
    3.5032   -1.2443   -0.4324 C   0  0  0  0  0  0  0  0  0  0  0  0
    2.8647   -2.1001   -0.1607 H   0  0  0  0  0  0  0  0  0  0  0  0
    4.5953   -1.3898   -1.2989 C   0  0  0  0  0  0  0  0  0  0  0  0
    4.8348   -2.3814   -1.7107 H   0  0  0  0  0  0  0  0  0  0  0  0
    5.3742   -0.2741   -1.6467 C   0  0  0  0  0  0  0  0  0  0  0  0
    6.2298   -0.3923   -2.3286 H   0  0  0  0  0  0  0  0  0  0  0  0
    5.0636    0.9951   -1.1289 C   0  0  0  0  0  0  0  0  0  0  0  0
    5.6754    1.8681   -1.4024 H   0  0  0  0  0  0  0  0  0  0  0  0
    3.9711    1.1509   -0.2644 C   0  0  0  0  0  0  0  0  0  0  0  0
    3.7191    2.1474    0.1322 H   0  0  0  0  0  0  0  0  0  0  0  0
   -1.5984    2.2625   -0.3814 C   0  0  0  0  0  0  0  0  0  0  0  0
   -2.4207    1.4745    0.4527 C   0  0  0  0  0  0  0  0  0  0  0  0
   -2.0409    0.5128    0.8470 H   0  0  0  0  0  0  0  0  0  0  0  0
   -3.7315    1.8868    0.7214 C   0  0  0  0  0  0  0  0  0  0  0  0
   -4.3725    1.2568    1.3555 H   0  0  0  0  0  0  0  0  0  0  0  0
   -4.2266    3.0777    0.1659 C   0  0  0  0  0  0  0  0  0  0  0  0
   -5.2606    3.3932    0.3723 H   0  0  0  0  0  0  0  0  0  0  0  0
   -3.4086    3.8633   -0.6621 C   0  0  0  0  0  0  0  0  0  0  0  0
   -3.7966    4.7941   -1.1023 H   0  0  0  0  0  0  0  0  0  0  0  0
   -2.0946    3.4599   -0.9399 C   0  0  0  0  0  0  0  0  0  0  0  0
   -1.4693    4.0817   -1.5968 H   0  0  0  0  0  0  0  0  0  0  0  0
    0.9221    2.9432   -1.7567 C   0  0  0  0  0  0  0  0  0  0  0  0
    0.9497    3.9139   -1.2243 H   0  0  0  0  0  0  0  0  0  0  0  0
    0.4094    3.0582   -2.7305 H   0  0  0  0  0  0  0  0  0  0  0  0
    1.9523    2.5781   -1.9303 H   0  0  0  0  0  0  0  0  0  0  0  0
  1  2  1  1  0  0  0
  1  6  1  0  0  0  0
  3  4  1  6  0  0  0
  3 26  1  0  0  0  0
  3  5  1  0  0  0  0
  5  1  1  0  0  0  0
  5 12  1  0  0  0  0
  6  9  1  0  0  0  0
  6  7  1  0  0  0  0
  8  6  1  0  0  0  0
  9 10  1  0  0  0  0
  9 11  1  0  0  0  0
 12 13  1  0  0  0  0
 12  9  1  0  0  0  0
 14 12  1  0  0  0  0
 15  1  1  0  0  0  0
 16 17  1  0  0  0  0
 16 15  2  0  0  0  0
 18 16  1  0  0  0  0
 19 18  1  0  0  0  0
 20 18  2  0  0  0  0
 20 22  1  0  0  0  0
 21 20  1  0  0  0  0
 22 24  2  0  0  0  0
 23 22  1  0  0  0  0
 24 15  1  0  0  0  0
 24 25  1  0  0  0  0
 26 27  1  0  0  0  0
 27 29  2  0  0  0  0
 27 28  1  0  0  0  0
 29 30  1  0  0  0  0
 31 32  1  0  0  0  0
 31 29  1  0  0  0  0
 33 31  2  0  0  0  0
 34 33  1  0  0  0  0
 35 33  1  0  0  0  0
 35 26  2  0  0  0  0
 36 35  1  0  0  0  0
 37 38  1  0  0  0  0
 37  3  1  0  0  0  0
 39 37  1  0  0  0  0
 40 37  1  0  0  0  0
M  END
