1,2
q = 0.0, confidence = 0.996

 46 47  0  0  1  0  0  0  0  0999 V2000
   -2.0819    2.1699   -1.6747 S   0  0  0  0  0  1  0  0  0  0  0  0
   -2.0802   -2.1712    1.6748 S   0  0  0  0  0  1  0  0  0  0  0  0
   -0.9002    3.0633   -0.8763 C   0  0  1  0  0  3  0  0  0  0  0  0
    1.6930    0.7298   -0.1269 C   0  0  0  0  0  0  0  0  0  0  0  0
    1.6939   -0.7279    0.1285 C   0  0  0  0  0  0  0  0  0  0  0  0
   -0.8972   -3.0638    0.8773 C   0  0  1  0  0  3  0  0  0  0  0  0
   -2.3421    5.0363   -0.5510 C   0  0  0  0  0  0  0  0  0  0  0  0
   -2.8255    4.8484   -1.5271 H   0  0  0  0  0  0  0  0  0  0  0  0
   -2.1735    6.1220   -0.4227 H   0  0  0  0  0  0  0  0  0  0  0  0
   -3.0097    4.6603    0.2553 H   0  0  0  0  0  0  0  0  0  0  0  0
   -2.3370   -5.0382    0.5507 C   0  0  0  0  0  0  0  0  0  0  0  0
   -2.8220   -4.8486    1.5256 H   0  0  0  0  0  0  0  0  0  0  0  0
   -2.1671   -6.1240    0.4250 H   0  0  0  0  0  0  0  0  0  0  0  0
   -3.0037   -4.6645   -0.2574 H   0  0  0  0  0  0  0  0  0  0  0  0
    2.9279    1.5235    0.1104 C   0  0  0  0  0  0  0  0  0  0  0  0
    3.3781    2.4742   -0.8364 C   0  0  0  0  0  0  0  0  0  0  0  0
    2.8148    2.6212   -1.7708 H   0  0  0  0  0  0  0  0  0  0  0  0
    4.5527    3.2035   -0.6064 C   0  0  0  0  0  0  0  0  0  0  0  0
    4.8991    3.9304   -1.3565 H   0  0  0  0  0  0  0  0  0  0  0  0
    5.2911    2.9995    0.5707 C   0  0  0  0  0  0  0  0  0  0  0  0
    6.2125    3.5737    0.7499 H   0  0  0  0  0  0  0  0  0  0  0  0
    4.8533    2.0575    1.5158 C   0  0  0  0  0  0  0  0  0  0  0  0
    5.4286    1.8942    2.4394 H   0  0  0  0  0  0  0  0  0  0  0  0
    3.6840    1.3211    1.2866 C   0  0  0  0  0  0  0  0  0  0  0  0
    3.3412    0.5823    2.0262 H   0  0  0  0  0  0  0  0  0  0  0  0
    2.9297   -1.5203   -0.1093 C   0  0  0  0  0  0  0  0  0  0  0  0
    3.6850   -1.3169   -1.2859 C   0  0  0  0  0  0  0  0  0  0  0  0
    3.3412   -0.5784   -2.0253 H   0  0  0  0  0  0  0  0  0  0  0  0
    4.8550   -2.0521   -1.5156 C   0  0  0  0  0  0  0  0  0  0  0  0
    5.4298   -1.8881   -2.4394 H   0  0  0  0  0  0  0  0  0  0  0  0
    5.2942   -2.9937   -0.5707 C   0  0  0  0  0  0  0  0  0  0  0  0
    6.2161   -3.5670   -0.7504 H   0  0  0  0  0  0  0  0  0  0  0  0
    4.5565   -3.1987    0.6066 C   0  0  0  0  0  0  0  0  0  0  0  0
    4.9039   -3.9253    1.3565 H   0  0  0  0  0  0  0  0  0  0  0  0
    3.3812   -2.4706    0.8371 C   0  0  0  0  0  0  0  0  0  0  0  0
    2.8185   -2.6183    1.7718 H   0  0  0  0  0  0  0  0  0  0  0  0
    0.3622    2.5492   -0.5777 N   0  0  0  0  0  0  0  0  0  0  0  0
    1.0387    3.1578   -0.0891 H   0  0  0  0  0  0  0  0  0  0  0  0
    0.5460    1.2313   -0.5115 N   0  0  0  0  0  0  0  0  0  0  0  0
    0.5477   -1.2307    0.5135 N   0  0  0  0  0  0  0  0  0  0  0  0
    0.3651   -2.5488    0.5800 N   0  0  0  0  0  0  0  0  0  0  0  0
    1.0425   -3.1568    0.0918 H   0  0  0  0  0  0  0  0  0  0  0  0
   -1.0570    4.3556   -0.5058 N   0  0  0  0  0  0  0  0  0  0  0  0
   -0.3911    4.7164    0.1832 H   0  0  0  0  0  0  0  0  0  0  0  0
   -1.0526   -4.3561    0.5063 N   0  0  0  0  0  0  0  0  0  0  0  0
   -0.3866   -4.7155   -0.1835 H   0  0  0  0  0  0  0  0  0  0  0  0
  3  1  1  6  0  0  0
  3 37  1  0  0  0  0
  3 43  1  0  0  0  0
  4 15  1  0  0  0  0
  4  5  1  0  0  0  0
  5 40  2  0  0  0  0
  6  2  1  1  0  0  0
  7 43  1  0  0  0  0
  7  9  1  0  0  0  0
  7 10  1  0  0  0  0
  8  7  1  0  0  0  0
 11 12  1  0  0  0  0
 13 11  1  0  0  0  0
 14 11  1  0  0  0  0
 15 24  1  0  0  0  0
 16 18  1  0  0  0  0
 16 15  2  0  0  0  0
 17 16  1  0  0  0  0
 18 20  2  0  0  0  0
 19 18  1  0  0  0  0
 20 21  1  0  0  0  0
 20 22  1  0  0  0  0
 22 23  1  0  0  0  0
 24 22  2  0  0  0  0
 24 25  1  0  0  0  0
 26  5  1  0  0  0  0
 26 35  1  0  0  0  0
 27 26  2  0  0  0  0
 28 27  1  0  0  0  0
 29 27  1  0  0  0  0
 29 31  2  0  0  0  0
 30 29  1  0  0  0  0
 31 33  1  0  0  0  0
 32 31  1  0  0  0  0
 33 35  2  0  0  0  0
 33 34  1  0  0  0  0
 35 36  1  0  0  0  0
 37 39  1  0  0  0  0
 37 38  1  0  0  0  0
 39  4  2  0  0  0  0
 40 41  1  0  0  0  0
 41  6  1  0  0  0  0
 42 41  1  0  0  0  0
 43 44  1  0  0  0  0
 45 11  1  0  0  0  0
 45  6  1  0  0  0  0
 46 45  1  0  0  0  0
M  END
