1,2
q = -1.0, confidence = 0.002

 21 21  0  0  0  0  0  0  0  0999 V2000
    2.0434    0.9082   -0.1663 S   0  0  0  0  0  1  0  0  0  0  0  0
    1.2589   -1.8525   -0.1908 S   0  0  0  0  0  1  0  0  0  0  0  0
    3.8043   -1.1650   -0.1955 O   0  0  0  0  0  0  0  0  0  0  0  0
    2.5548   -0.7355   -0.1814 C   0  0  0  0  0  3  0  0  0  0  0  0
    4.9008   -0.1998   -0.1682 C   0  0  0  0  0  0  0  0  0  0  0  0
    6.0868   -0.8512   -0.8699 C   0  0  0  0  0  0  0  0  0  0  0  0
    7.3111    0.0745   -0.8228 C   0  0  0  0  0  0  0  0  0  0  0  0
    7.6530    0.4843    0.6161 C   0  0  0  0  0  0  0  0  0  0  0  0
    6.4435    1.1171    1.3173 C   0  0  0  0  0  0  0  0  0  0  0  0
    5.2196    0.1908    1.2743 C   0  0  0  0  0  0  0  0  0  0  0  0
    4.5666    0.6985   -0.7350 H   0  0  0  0  0  0  0  0  0  0  0  0
    5.8107   -1.1012   -1.9145 H   0  0  0  0  0  0  0  0  0  0  0  0
    6.3128   -1.8102   -0.3548 H   0  0  0  0  0  0  0  0  0  0  0  0
    7.1034    0.9876   -1.4246 H   0  0  0  0  0  0  0  0  0  0  0  0
    8.1763   -0.4242   -1.3058 H   0  0  0  0  0  0  0  0  0  0  0  0
    7.9761   -0.4159    1.1855 H   0  0  0  0  0  0  0  0  0  0  0  0
    8.5138    1.1847    0.6229 H   0  0  0  0  0  0  0  0  0  0  0  0
    6.1905    2.0796    0.8189 H   0  0  0  0  0  0  0  0  0  0  0  0
    6.6859    1.3685    2.3702 H   0  0  0  0  0  0  0  0  0  0  0  0
    4.3336    0.6779    1.7294 H   0  0  0  0  0  0  0  0  0  0  0  0
    5.4221   -0.7391    1.8490 H   0  0  0  0  0  0  0  0  0  0  0  0
  2  4  1  0  0  0  0
  3  4  1  0  0  0  0
  3  5  1  0  0  0  0
  4  1  1  0  0  0  0
  5 10  1  0  0  0  0
  6  7  1  0  0  0  0
  6 13  1  0  0  0  0
  6  5  1  0  0  0  0
  7  8  1  0  0  0  0
  8 17  1  0  0  0  0
  8 16  1  0  0  0  0
  8  9  1  0  0  0  0
  9 19  1  0  0  0  0
 10  9  1  0  0  0  0
 10 20  1  0  0  0  0
 10 21  1  0  0  0  0
 11  5  1  0  0  0  0
 12  6  1  0  0  0  0
 14  7  1  0  0  0  0
 15  7  1  0  0  0  0
 18  9  1  0  0  0  0
M  END
