9,10
q = -2.0, confidence = 0.732

 10 10  0  0  0  0  0  0  0  0999 V2000
    3.1623    0.7211    0.0000 C   0  0  0  0  0  0  0  0  0  0  0  0
    5.4597    0.6993    0.0001 C   0  0  0  0  0  0  0  0  0  0  0  0
    6.4046    1.2733    0.0001 H   0  0  0  0  0  0  0  0  0  0  0  0
    5.4597   -0.6993    0.0001 C   0  0  0  0  0  0  0  0  0  0  0  0
    6.4046   -1.2733    0.0001 H   0  0  0  0  0  0  0  0  0  0  0  0
    3.1623   -0.7211    0.0000 C   0  0  0  0  0  0  0  0  0  0  0  0
    4.3128    1.4037    0.0000 N   0  0  0  0  0  0  0  0  0  0  0  0
    4.3128   -1.4037    0.0001 N   0  0  0  0  0  0  0  0  0  0  0  0
    1.6842   -1.6745    0.0000 S   0  0  0  0  0  1  0  0  0  0  0  0
    1.6842    1.6745   -0.0000 S   0  0  0  0  0  1  0  0  0  0  0  0
  1  6  2  0  0  0  0
  1  7  1  0  0  0  0
  2  3  1  0  0  0  0
  4  2  1  0  0  0  0
  4  5  1  0  0  0  0
  6  8  1  0  0  0  0
  7  2  2  0  0  0  0
  8  4  2  0  0  0  0
  9  6  1  0  0  0  0
 10  1  1  0  0  0  0
M  END
