1,2
q = 0.0, confidence = 0.718

 18 19  0  0  0  0  0  0  0  0999 V2000
   -1.2570    1.2848    0.4024 S   0  0  0  0  0  1  0  0  0  0  0  0
   -1.1197   -1.5227   -0.0588 S   0  0  0  0  0  1  0  0  0  0  0  0
   -2.2109   -0.1697    0.1860 C   0  0  0  0  0  0  0  0  0  0  0  0
   -3.5902   -0.2374    0.2008 C   0  0  0  0  0  0  0  0  0  0  0  0
   -4.4934    0.9180    0.3818 C   0  0  0  0  0  0  0  0  0  0  0  0
   -5.8911    0.3553    0.3249 C   0  0  0  0  0  0  0  0  0  0  0  0
   -7.1173    1.0152    0.4418 C   0  0  0  0  0  0  0  0  0  0  0  0
   -7.1444    2.1043    0.5989 H   0  0  0  0  0  0  0  0  0  0  0  0
   -8.2924    0.2455    0.3530 C   0  0  0  0  0  0  0  0  0  0  0  0
   -9.2750    0.7345    0.4414 H   0  0  0  0  0  0  0  0  0  0  0  0
   -8.2306   -1.1489    0.1520 C   0  0  0  0  0  0  0  0  0  0  0  0
   -9.1660   -1.7261    0.0864 H   0  0  0  0  0  0  0  0  0  0  0  0
   -4.1995    2.1018    0.5456 O   0  0  0  0  0  0  0  0  0  0  0  0
   -3.9914   -2.6226   -0.1400 O   0  0  0  0  0  0  0  0  0  0  0  0
   -6.9922   -1.8077    0.0352 C   0  0  0  0  0  0  0  0  0  0  0  0
   -6.9228   -2.8949   -0.1218 H   0  0  0  0  0  0  0  0  0  0  0  0
   -5.8293   -1.0380    0.1244 C   0  0  0  0  0  0  0  0  0  0  0  0
   -4.3873   -1.4710    0.0352 C   0  0  0  0  0  0  0  0  0  0  0  0
  2  3  1  0  0  0  0
  3  4  2  0  0  0  0
  3  1  1  0  0  0  0
  4  5  1  0  0  0  0
  5 13  2  0  0  0  0
  6  5  1  0  0  0  0
  6  7  1  0  0  0  0
  7  8  1  0  0  0  0
  9 10  1  0  0  0  0
  9  7  2  0  0  0  0
 11  9  1  0  0  0  0
 12 11  1  0  0  0  0
 14 18  2  0  0  0  0
 15 17  1  0  0  0  0
 15 11  2  0  0  0  0
 16 15  1  0  0  0  0
 17  6  2  0  0  0  0
 18 17  1  0  0  0  0
 18  4  1  0  0  0  0
M  END
