1,8
q = -2.0, confidence = 0.57

 19 20  0  0  1  0  0  0  0  0999 V2000
   -1.4268   -1.5143   -0.7388 S   0  0  0  0  0  1  0  0  0  0  0  0
   -2.8459   -0.5331   -1.0367 C   0  0  0  0  0  0  0  0  0  0  0  0
   -4.3316   -1.3606   -1.5270 S   0  0  0  0  0  0  0  0  0  0  0  0
   -5.3883   -0.8611   -0.0909 C   0  0  2  0  0  0  0  0  0  0  0  0
   -5.4370    0.6839    0.1772 C   0  0  2  0  0  0  0  0  0  0  0  0
   -4.4232    1.6920   -0.9988 S   0  0  0  0  0  0  0  0  0  0  0  0
   -2.8911    0.8205   -0.7726 C   0  0  0  0  0  0  0  0  0  0  0  0
   -1.5798    1.6668    0.0231 S   0  0  0  0  0  1  0  0  0  0  0  0
   -6.4705    1.0523    0.0057 H   0  0  0  0  0  0  0  0  0  0  0  0
   -5.0215    0.8585    1.6531 C   0  0  0  0  0  0  0  0  0  0  0  0
   -5.3698   -0.4846    2.3108 C   0  0  0  0  0  0  0  0  0  0  0  0
   -4.9302   -1.4933    1.2401 C   0  0  0  0  0  0  0  0  0  0  0  0
   -6.4012   -1.2173   -0.3753 H   0  0  0  0  0  0  0  0  0  0  0  0
   -3.8213   -1.5670    1.2333 H   0  0  0  0  0  0  0  0  0  0  0  0
   -5.3310   -2.5168    1.3800 H   0  0  0  0  0  0  0  0  0  0  0  0
   -6.4664   -0.5595    2.4902 H   0  0  0  0  0  0  0  0  0  0  0  0
   -4.8626   -0.6363    3.2859 H   0  0  0  0  0  0  0  0  0  0  0  0
   -5.5022    1.7393    2.1231 H   0  0  0  0  0  0  0  0  0  0  0  0
   -3.9220    1.0156    1.6957 H   0  0  0  0  0  0  0  0  0  0  0  0
  2  7  2  0  0  0  0
  2  1  1  0  0  0  0
  3  2  1  0  0  0  0
  3  4  1  0  0  0  0
  4 13  1  6  0  0  0
  4  5  1  0  0  0  0
  4 12  1  0  0  0  0
  5  9  1  6  0  0  0
  5 10  1  0  0  0  0
  6  7  1  0  0  0  0
  6  5  1  0  0  0  0
  7  8  1  0  0  0  0
 10 19  1  0  0  0  0
 10 18  1  0  0  0  0
 10 11  1  0  0  0  0
 11 16  1  0  0  0  0
 11 17  1  0  0  0  0
 12 15  1  0  0  0  0
 12 11  1  0  0  0  0
 14 12  1  0  0  0  0
M  END
