3,4
q = -1.0, confidence = 0.042

 65 67  0  0  1  0  0  0  0  0999 V2000
    0.8740    0.0459    0.0894 B   0  0  2  0  0  0  0  0  0  0  0  0
    0.1581   -0.0247   -0.9357 H   0  0  0  0  0  0  0  0  0  0  0  0
   -2.0916    0.8790    0.7749 S   0  0  0  0  0  1  0  0  0  0  0  0
   -1.5420   -2.0536   -0.6113 S   0  0  0  0  0  1  0  0  0  0  0  0
    4.0984    0.0544    1.3996 S   0  0  0  0  0  0  0  0  0  0  0  0
    0.5948    1.3188    0.9249 N   0  0  0  0  0  0  0  0  0  0  0  0
   -0.6666    1.7417    1.2300 C   0  0  2  0  0  3  0  0  0  0  0  0
   -0.5591    2.9175    1.9302 N   0  0  0  0  0  0  0  0  0  0  0  0
    1.5056    2.2334    1.4277 C   0  0  0  0  0  0  0  0  0  0  0  0
    2.5859    2.0558    1.3543 H   0  0  0  0  0  0  0  0  0  0  0  0
    0.7986    3.2203    2.0606 C   0  0  0  0  0  0  0  0  0  0  0  0
    1.1555    4.0999    2.5969 H   0  0  0  0  0  0  0  0  0  0  0  0
   -1.6973    3.8134    2.3149 C   0  0  0  0  0  0  0  0  0  0  0  0
   -1.1481    5.0371    3.0615 C   0  0  0  0  0  0  0  0  0  0  0  0
   -0.4800    5.6483    2.4238 H   0  0  0  0  0  0  0  0  0  0  0  0
   -0.6072    4.7521    3.9859 H   0  0  0  0  0  0  0  0  0  0  0  0
   -2.0020    5.6766    3.3560 H   0  0  0  0  0  0  0  0  0  0  0  0
   -2.4057    4.2699    1.0261 C   0  0  0  0  0  0  0  0  0  0  0  0
   -2.7774    3.4011    0.4493 H   0  0  0  0  0  0  0  0  0  0  0  0
   -1.7048    4.8338    0.3795 H   0  0  0  0  0  0  0  0  0  0  0  0
   -3.2614    4.9256    1.2813 H   0  0  0  0  0  0  0  0  0  0  0  0
   -2.6468    3.0439    3.2493 C   0  0  0  0  0  0  0  0  0  0  0  0
   -3.0731    2.1560    2.7445 H   0  0  0  0  0  0  0  0  0  0  0  0
   -3.4822    3.7044    3.5545 H   0  0  0  0  0  0  0  0  0  0  0  0
   -2.1125    2.7103    4.1613 H   0  0  0  0  0  0  0  0  0  0  0  0
    0.6227   -1.2522    0.9072 N   0  0  0  0  0  0  0  0  0  0  0  0
   -0.3668   -2.1675    0.6539 C   0  0  1  0  0  3  0  0  0  0  0  0
   -0.2569   -3.1684    1.5935 N   0  0  0  0  0  0  0  0  0  0  0  0
    1.3354   -1.6681    2.0226 C   0  0  0  0  0  0  0  0  0  0  0  0
    2.2080   -1.0941    2.3612 H   0  0  0  0  0  0  0  0  0  0  0  0
    0.8050   -2.8552    2.4435 C   0  0  0  0  0  0  0  0  0  0  0  0
    1.1066   -3.4982    3.2706 H   0  0  0  0  0  0  0  0  0  0  0  0
   -1.1543   -4.3615    1.7335 C   0  0  0  0  0  0  0  0  0  0  0  0
   -2.5852   -3.8748    2.0265 C   0  0  0  0  0  0  0  0  0  0  0  0
   -2.9562   -3.2299    1.2072 H   0  0  0  0  0  0  0  0  0  0  0  0
   -2.6096   -3.2951    2.9707 H   0  0  0  0  0  0  0  0  0  0  0  0
   -3.2615   -4.7460    2.1299 H   0  0  0  0  0  0  0  0  0  0  0  0
   -1.0850   -5.1928    0.4401 C   0  0  0  0  0  0  0  0  0  0  0  0
   -0.0490   -5.5433    0.2604 H   0  0  0  0  0  0  0  0  0  0  0  0
   -1.4128   -4.6024   -0.4366 H   0  0  0  0  0  0  0  0  0  0  0  0
   -1.7432   -6.0791    0.5322 H   0  0  0  0  0  0  0  0  0  0  0  0
   -0.6690   -5.2280    2.9050 C   0  0  0  0  0  0  0  0  0  0  0  0
    0.3622   -5.6015    2.7477 H   0  0  0  0  0  0  0  0  0  0  0  0
   -1.3349   -6.1084    2.9831 H   0  0  0  0  0  0  0  0  0  0  0  0
   -0.7159   -4.6883    3.8713 H   0  0  0  0  0  0  0  0  0  0  0  0
    2.2384    0.1208   -0.6555 N   0  0  0  0  0  0  0  0  0  0  0  0
    3.5536    0.0680   -0.2156 C   0  0  0  0  0  0  0  0  0  0  0  0
    2.2329    0.2252   -2.0453 C   0  0  0  0  0  0  0  0  0  0  0  0
    1.2983    0.3734   -2.5965 H   0  0  0  0  0  0  0  0  0  0  0  0
    4.3445    0.0985   -1.3588 N   0  0  0  0  0  0  0  0  0  0  0  0
    3.5240    0.2079   -2.4800 C   0  0  0  0  0  0  0  0  0  0  0  0
    3.9142    0.2777   -3.4953 H   0  0  0  0  0  0  0  0  0  0  0  0
    5.8425    0.0381   -1.4065 C   0  0  0  0  0  0  0  0  0  0  0  0
    6.3122   -1.2705   -0.7459 C   0  0  0  0  0  0  0  0  0  0  0  0
    5.9640   -1.3226    0.3033 H   0  0  0  0  0  0  0  0  0  0  0  0
    7.4192   -1.3181   -0.7619 H   0  0  0  0  0  0  0  0  0  0  0  0
    5.9158   -2.1454   -1.2996 H   0  0  0  0  0  0  0  0  0  0  0  0
    6.3077    0.0444   -2.8710 C   0  0  0  0  0  0  0  0  0  0  0  0
    5.9170   -0.8241   -3.4377 H   0  0  0  0  0  0  0  0  0  0  0  0
    7.4125   -0.0204   -2.8810 H   0  0  0  0  0  0  0  0  0  0  0  0
    6.0256    0.9776   -3.3977 H   0  0  0  0  0  0  0  0  0  0  0  0
    6.4199    1.2765   -0.6974 C   0  0  0  0  0  0  0  0  0  0  0  0
    6.0851    1.3098    0.3567 H   0  0  0  0  0  0  0  0  0  0  0  0
    6.0882    2.2028   -1.2086 H   0  0  0  0  0  0  0  0  0  0  0  0
    7.5271    1.2389   -0.7250 H   0  0  0  0  0  0  0  0  0  0  0  0
  1  2  1  6  0  0  0
  1 26  1  0  0  0  0
  1  6  1  0  0  0  0
  6  7  1  0  0  0  0
  6  9  1  0  0  0  0
  7  3  1  1  0  0  0
  7  8  1  0  0  0  0
  8 11  1  0  0  0  0
  8 13  1  0  0  0  0
  9 11  2  0  0  0  0
 10  9  1  0  0  0  0
 11 12  1  0  0  0  0
 13 14  1  0  0  0  0
 13 22  1  0  0  0  0
 14 17  1  0  0  0  0
 14 16  1  0  0  0  0
 15 14  1  0  0  0  0
 18 21  1  0  0  0  0
 18 13  1  0  0  0  0
 19 18  1  0  0  0  0
 20 18  1  0  0  0  0
 22 24  1  0  0  0  0
 22 25  1  0  0  0  0
 23 22  1  0  0  0  0
 26 29  1  0  0  0  0
 27  4  1  1  0  0  0
 27 26  1  0  0  0  0
 27 28  1  0  0  0  0
 28 33  1  0  0  0  0
 28 31  1  0  0  0  0
 29 30  1  0  0  0  0
 29 31  2  0  0  0  0
 31 32  1  0  0  0  0
 33 34  1  0  0  0  0
 33 42  1  0  0  0  0
 34 37  1  0  0  0  0
 34 36  1  0  0  0  0
 35 34  1  0  0  0  0
 38 41  1  0  0  0  0
 38 33  1  0  0  0  0
 39 38  1  0  0  0  0
 40 38  1  0  0  0  0
 42 44  1  0  0  0  0
 42 45  1  0  0  0  0
 43 42  1  0  0  0  0
 46 47  1  0  0  0  0
 46  1  1  0  0  0  0
 47  5  2  0  0  0  0
 48 46  1  0  0  0  0
 49 48  1  0  0  0  0
 50 47  1  0  0  0  0
 51 48  2  0  0  0  0
 51 50  1  0  0  0  0
 52 51  1  0  0  0  0
 53 50  1  0  0  0  0
 53 54  1  0  0  0  0
 53 62  1  0  0  0  0
 54 55  1  0  0  0  0
 56 54  1  0  0  0  0
 57 54  1  0  0  0  0
 58 53  1  0  0  0  0
 59 58  1  0  0  0  0
 60 58  1  0  0  0  0
 61 58  1  0  0  0  0
 62 63  1  0  0  0  0
 64 62  1  0  0  0  0
 65 62  1  0  0  0  0
M  END
