4,5
q = -1.0, confidence = 0.0

 39 42  0  0  1  0  0  0  0  0999 V2000
   -0.3589    0.0313   -1.2304 B   0  0  0  0  0  0  0  0  0  0  0  0
   -0.8591   -0.2573   -2.3125 H   0  0  0  0  0  0  0  0  0  0  0  0
    0.8252    0.3675   -1.4528 H   0  0  0  0  0  0  0  0  0  0  0  0
    1.0685   -0.1627    1.7280 S   0  0  0  0  0  1  0  0  0  0  0  0
    0.8565    3.0755   -0.2534 S   0  0  0  0  0  1  0  0  0  0  0  0
   -0.4103   -1.2360   -0.3249 N   0  0  0  0  0  0  0  0  0  0  0  0
   -0.1739   -2.5854    1.4432 N   0  0  0  0  0  0  0  0  0  0  0  0
   -1.1711    1.2046   -0.5957 N   0  0  0  0  0  0  0  0  0  0  0  0
   -1.8185    3.1794    0.2314 N   0  0  0  0  0  0  0  0  0  0  0  0
   -0.7269    2.4448   -0.2062 C   0  0  2  0  0  3  0  0  0  0  0  0
   -2.5525    1.1575   -0.4069 C   0  0  0  0  0  0  0  0  0  0  0  0
   -3.4922    0.1432   -0.6450 C   0  0  0  0  0  0  0  0  0  0  0  0
   -3.1923   -0.8312   -1.0501 H   0  0  0  0  0  0  0  0  0  0  0  0
   -4.8371    0.4176   -0.3435 C   0  0  0  0  0  0  0  0  0  0  0  0
   -5.5927   -0.3620   -0.5214 H   0  0  0  0  0  0  0  0  0  0  0  0
   -5.2398    1.6638    0.1796 C   0  0  0  0  0  0  0  0  0  0  0  0
   -6.3023    1.8410    0.4032 H   0  0  0  0  0  0  0  0  0  0  0  0
   -4.3063    2.6870    0.4177 C   0  0  0  0  0  0  0  0  0  0  0  0
   -4.6145    3.6633    0.8178 H   0  0  0  0  0  0  0  0  0  0  0  0
   -2.9670    2.4085    0.1177 C   0  0  0  0  0  0  0  0  0  0  0  0
   -1.7701    4.5300    0.7437 C   0  0  0  0  0  0  0  0  0  0  0  0
   -0.7063    4.8060    0.8724 H   0  0  0  0  0  0  0  0  0  0  0  0
   -2.2899    4.5845    1.7216 H   0  0  0  0  0  0  0  0  0  0  0  0
   -2.2499    5.2416    0.0398 H   0  0  0  0  0  0  0  0  0  0  0  0
    0.1404   -1.3359    0.9274 C   0  0  1  0  0  3  0  0  0  0  0  0
   -1.0476   -2.4398   -0.6230 C   0  0  0  0  0  0  0  0  0  0  0  0
   -1.7347   -2.8808   -1.7649 C   0  0  0  0  0  0  0  0  0  0  0  0
   -1.8290   -2.2319   -2.6455 H   0  0  0  0  0  0  0  0  0  0  0  0
   -2.2803   -4.1758   -1.7400 C   0  0  0  0  0  0  0  0  0  0  0  0
   -2.8229   -4.5439   -2.6234 H   0  0  0  0  0  0  0  0  0  0  0  0
   -2.1459   -5.0140   -0.6137 C   0  0  0  0  0  0  0  0  0  0  0  0
   -2.5872   -6.0215   -0.6311 H   0  0  0  0  0  0  0  0  0  0  0  0
   -1.4541   -4.5850    0.5320 C   0  0  0  0  0  0  0  0  0  0  0  0
   -1.3447   -5.2340    1.4125 H   0  0  0  0  0  0  0  0  0  0  0  0
   -0.9106   -3.2946    0.5032 C   0  0  0  0  0  0  0  0  0  0  0  0
    0.2266   -3.0794    2.7405 C   0  0  0  0  0  0  0  0  0  0  0  0
    0.8858   -2.3181    3.2001 H   0  0  0  0  0  0  0  0  0  0  0  0
    0.7787   -4.0360    2.6371 H   0  0  0  0  0  0  0  0  0  0  0  0
   -0.6566   -3.2429    3.3920 H   0  0  0  0  0  0  0  0  0  0  0  0
  1  8  1  0  0  0  0
  1  6  1  0  0  0  0
  2  1  1  0  0  0  0
  3  1  1  0  0  0  0
  6 25  1  0  0  0  0
  7 36  1  0  0  0  0
  8 11  1  0  0  0  0
  8 10  1  0  0  0  0
  9 21  1  0  0  0  0
 10  5  1  6  0  0  0
 10  9  1  0  0  0  0
 11 20  1  0  0  0  0
 12 11  2  0  0  0  0
 12 14  1  0  0  0  0
 13 12  1  0  0  0  0
 14 16  2  0  0  0  0
 15 14  1  0  0  0  0
 16 17  1  0  0  0  0
 16 18  1  0  0  0  0
 18 19  1  0  0  0  0
 20  9  1  0  0  0  0
 20 18  2  0  0  0  0
 21 22  1  0  0  0  0
 21 23  1  0  0  0  0
 24 21  1  0  0  0  0
 25  7  1  0  0  0  0
 25  4  1  6  0  0  0
 26  6  1  0  0  0  0
 26 35  1  0  0  0  0
 27 29  1  0  0  0  0
 27 26  2  0  0  0  0
 28 27  1  0  0  0  0
 29 31  2  0  0  0  0
 30 29  1  0  0  0  0
 31 33  1  0  0  0  0
 32 31  1  0  0  0  0
 33 34  1  0  0  0  0
 35 33  2  0  0  0  0
 35  7  1  0  0  0  0
 36 37  1  0  0  0  0
 36 39  1  0  0  0  0
 38 36  1  0  0  0  0
M  END
