1,2
q = 0.0, confidence = 0.98

 35 35  0  0  0  0  0  0  0  0999 V2000
   -1.6279    1.5554   -1.4571 S   0  0  0  0  0  0  0  0  0  0  0  0
   -1.6276   -1.5551   -1.4564 S   0  0  0  0  0  0  0  0  0  0  0  0
   -1.1675   -2.6517    1.4656 O   0  0  0  0  0  0  0  0  0  0  0  0
   -1.5969   -0.0004    2.7144 O   0  0  0  0  0  0  0  0  0  0  0  0
   -1.1680    2.6510    1.4651 O   0  0  0  0  0  0  0  0  0  0  0  0
   -5.2953    2.1479   -0.9976 N   0  0  0  0  0  0  0  0  0  0  0  0
   -5.2949   -2.1483   -0.9974 N   0  0  0  0  0  0  0  0  0  0  0  0
   -3.1600    0.6946   -1.2423 C   0  0  0  0  0  0  0  0  0  0  0  0
   -3.1598   -0.6946   -1.2421 C   0  0  0  0  0  0  0  0  0  0  0  0
   -1.9584   -3.2073   -0.7310 C   0  0  0  0  0  0  0  0  0  0  0  0
   -2.7849   -3.6764   -1.3000 H   0  0  0  0  0  0  0  0  0  0  0  0
   -1.0119   -3.7330   -0.9664 H   0  0  0  0  0  0  0  0  0  0  0  0
   -2.2558   -3.2141    0.7558 C   0  0  0  0  0  0  0  0  0  0  0  0
   -3.2029   -2.6651    0.9564 H   0  0  0  0  0  0  0  0  0  0  0  0
   -2.4286   -4.2734    1.0677 H   0  0  0  0  0  0  0  0  0  0  0  0
   -1.4420   -2.4029    2.8430 C   0  0  0  0  0  0  0  0  0  0  0  0
   -0.4553   -2.2615    3.3285 H   0  0  0  0  0  0  0  0  0  0  0  0
   -1.9335   -3.2869    3.3108 H   0  0  0  0  0  0  0  0  0  0  0  0
   -2.2959   -1.1731    3.0957 C   0  0  0  0  0  0  0  0  0  0  0  0
   -3.2746   -1.2388    2.5591 H   0  0  0  0  0  0  0  0  0  0  0  0
   -2.5372   -1.1464    4.1864 H   0  0  0  0  0  0  0  0  0  0  0  0
   -2.2962    1.1723    3.0952 C   0  0  0  0  0  0  0  0  0  0  0  0
   -2.5379    1.1457    4.1858 H   0  0  0  0  0  0  0  0  0  0  0  0
   -3.2747    1.2377    2.5581 H   0  0  0  0  0  0  0  0  0  0  0  0
   -1.4425    2.4021    2.8426 C   0  0  0  0  0  0  0  0  0  0  0  0
   -1.9341    3.2861    3.3102 H   0  0  0  0  0  0  0  0  0  0  0  0
   -0.4558    2.2609    3.3280 H   0  0  0  0  0  0  0  0  0  0  0  0
   -2.2562    3.2137    0.7554 C   0  0  0  0  0  0  0  0  0  0  0  0
   -2.4288    4.2730    1.0677 H   0  0  0  0  0  0  0  0  0  0  0  0
   -3.2034    2.6648    0.9559 H   0  0  0  0  0  0  0  0  0  0  0  0
   -1.9588    3.2074   -0.7313 C   0  0  0  0  0  0  0  0  0  0  0  0
   -1.0124    3.7332   -0.9666 H   0  0  0  0  0  0  0  0  0  0  0  0
   -2.7854    3.6766   -1.3002 H   0  0  0  0  0  0  0  0  0  0  0  0
   -4.3551    1.4520   -1.1242 C   0  0  0  0  0  0  0  0  0  0  0  0
   -4.3548   -1.4523   -1.1239 C   0  0  0  0  0  0  0  0  0  0  0  0
  1  8  1  0  0  0  0
  1 31  1  0  0  0  0
  2  9  1  0  0  0  0
  2 10  1  0  0  0  0
  3 16  1  0  0  0  0
  4 22  1  0  0  0  0
  4 19  1  0  0  0  0
  5 25  1  0  0  0  0
  8  9  2  0  0  0  0
  8 34  1  0  0  0  0
  9 35  1  0  0  0  0
 10 13  1  0  0  0  0
 11 10  1  0  0  0  0
 12 10  1  0  0  0  0
 13 14  1  0  0  0  0
 13 15  1  0  0  0  0
 13  3  1  0  0  0  0
 16 19  1  0  0  0  0
 16 18  1  0  0  0  0
 16 17  1  0  0  0  0
 19 21  1  0  0  0  0
 20 19  1  0  0  0  0
 22 23  1  0  0  0  0
 24 22  1  0  0  0  0
 25 22  1  0  0  0  0
 25 26  1  0  0  0  0
 25 27  1  0  0  0  0
 28 30  1  0  0  0  0
 28 29  1  0  0  0  0
 28  5  1  0  0  0  0
 31 28  1  0  0  0  0
 32 31  1  0  0  0  0
 33 31  1  0  0  0  0
 34  6  3  0  0  0  0
 35  7  3  0  0  0  0
M  END
