1,8
q = 0.0, confidence = 0.608

 22 22  0  0  0  0  0  0  0  0999 V2000
    1.6875    1.4001   -0.0001 S   0  0  0  0  0  1  0  0  0  0  0  0
    3.0111    0.3082   -0.0002 C   0  0  0  0  0  0  0  0  0  0  0  0
    4.3776    0.5205   -0.0003 N   0  0  0  0  0  0  0  0  0  0  0  0
    5.0496   -0.7068   -0.0001 C   0  0  0  0  0  0  0  0  0  0  0  0
    6.6950   -0.9635   -0.0000 S   0  0  0  0  0  0  0  0  0  0  0  0
    4.0493   -1.6826   -0.0000 N   0  0  0  0  0  0  0  0  0  0  0  0
    2.8070   -1.0845   -0.0001 C   0  0  0  0  0  0  0  0  0  0  0  0
    1.2540   -1.8010    0.0001 S   0  0  0  0  0  1  0  0  0  0  0  0
    4.2862   -3.1112   -0.0001 C   0  0  0  0  0  0  0  0  0  0  0  0
    3.8364   -3.5736   -0.9017 H   0  0  0  0  0  0  0  0  0  0  0  0
    5.3824   -3.2629   -0.0002 H   0  0  0  0  0  0  0  0  0  0  0  0
    3.8366   -3.5736    0.9016 H   0  0  0  0  0  0  0  0  0  0  0  0
    5.0701    1.8213   -0.0001 C   0  0  0  0  0  0  0  0  0  0  0  0
    4.7620    2.5978   -1.2829 C   0  0  0  0  0  0  0  0  0  0  0  0
    5.0372    2.0039   -2.1765 H   0  0  0  0  0  0  0  0  0  0  0  0
    5.3491    3.5370   -1.2985 H   0  0  0  0  0  0  0  0  0  0  0  0
    3.6879    2.8628   -1.3536 H   0  0  0  0  0  0  0  0  0  0  0  0
    4.7625    2.5970    1.2833 C   0  0  0  0  0  0  0  0  0  0  0  0
    5.0382    2.0027    2.1764 H   0  0  0  0  0  0  0  0  0  0  0  0
    3.6883    2.8619    1.3547 H   0  0  0  0  0  0  0  0  0  0  0  0
    5.3494    3.5364    1.2991 H   0  0  0  0  0  0  0  0  0  0  0  0
    6.1426    1.5332   -0.0004 H   0  0  0  0  0  0  0  0  0  0  0  0
  2  7  2  0  0  0  0
  2  1  1  0  0  0  0
  3  2  1  0  0  0  0
  3 13  1  0  0  0  0
  3  4  1  0  0  0  0
  4  6  1  0  0  0  0
  4  5  2  0  0  0  0
  7  6  1  0  0  0  0
  7  8  1  0  0  0  0
  9  6  1  0  0  0  0
  9 12  1  0  0  0  0
 10  9  1  0  0  0  0
 11  9  1  0  0  0  0
 13 18  1  0  0  0  0
 14 13  1  0  0  0  0
 15 14  1  0  0  0  0
 16 14  1  0  0  0  0
 17 14  1  0  0  0  0
 18 21  1  0  0  0  0
 18 20  1  0  0  0  0
 18 19  1  0  0  0  0
 22 13  1  0  0  0  0
M  END
