1,9
q = 0.0, confidence = 0.972

 14 14  0  0  0  0  0  0  0  0999 V2000
   -1.9623   -1.5024    0.0000 S   0  0  0  0  0  0  0  0  0  0  0  0
   -2.9565   -0.7709    1.3793 C   0  0  0  0  0  0  0  0  0  0  0  0
   -3.9801   -1.1896    1.2982 H   0  0  0  0  0  0  0  0  0  0  0  0
   -2.4868   -1.1764    2.2953 H   0  0  0  0  0  0  0  0  0  0  0  0
   -2.9566   -0.7709   -1.3792 C   0  0  0  0  0  0  0  0  0  0  0  0
   -2.4873   -1.1766   -2.2952 H   0  0  0  0  0  0  0  0  0  0  0  0
   -3.9803   -1.1894   -1.2977 H   0  0  0  0  0  0  0  0  0  0  0  0
   -2.9566    0.7709    1.3792 C   0  0  0  0  0  0  0  0  0  0  0  0
   -1.9622    1.5024   -0.0000 S   0  0  0  0  0  0  0  0  0  0  0  0
   -2.9565    0.7709   -1.3793 C   0  0  0  0  0  0  0  0  0  0  0  0
   -3.9800    1.1896   -1.2982 H   0  0  0  0  0  0  0  0  0  0  0  0
   -2.4867    1.1764   -2.2953 H   0  0  0  0  0  0  0  0  0  0  0  0
   -2.4872    1.1766    2.2953 H   0  0  0  0  0  0  0  0  0  0  0  0
   -3.9802    1.1895    1.2978 H   0  0  0  0  0  0  0  0  0  0  0  0
  1  2  1  0  0  0  0
  2  4  1  0  0  0  0
  3  2  1  0  0  0  0
  5  7  1  0  0  0  0
  5  1  1  0  0  0  0
  6  5  1  0  0  0  0
  8  2  1  0  0  0  0
  8 13  1  0  0  0  0
  9  8  1  0  0  0  0
 10  5  1  0  0  0  0
 10 11  1  0  0  0  0
 10  9  1  0  0  0  0
 12 10  1  0  0  0  0
 14  8  1  0  0  0  0
M  END
