1,2
q = 0.0, confidence = 0.972

 28 28  0  0  0  0  0  0  0  0999 V2000
   -0.0675    1.6636   -1.1245 S   0  0  0  0  0  0  0  0  0  0  0  0
    0.2321   -1.5277   -1.2334 S   0  0  0  0  0  0  0  0  0  0  0  0
    1.0750    1.3674    1.7399 O   0  0  0  0  0  0  0  0  0  0  0  0
    1.8073   -1.4199    1.4922 O   0  0  0  0  0  0  0  0  0  0  0  0
    3.9554   -1.7288   -1.3339 N   0  0  0  0  0  0  0  0  0  0  0  0
    3.5420    2.5625   -1.0312 N   0  0  0  0  0  0  0  0  0  0  0  0
    1.6919   -0.4759   -1.1240 C   0  0  0  0  0  0  0  0  0  0  0  0
    1.5601    0.8889   -1.0651 C   0  0  0  0  0  0  0  0  0  0  0  0
    0.0396    2.9047    0.2376 C   0  0  0  0  0  0  0  0  0  0  0  0
    0.9534    3.4972    0.0273 H   0  0  0  0  0  0  0  0  0  0  0  0
   -0.8582    3.5307    0.0711 H   0  0  0  0  0  0  0  0  0  0  0  0
    0.0181    2.2924    1.6226 C   0  0  0  0  0  0  0  0  0  0  0  0
    0.1110    3.1215    2.3691 H   0  0  0  0  0  0  0  0  0  0  0  0
   -0.9726    1.8034    1.7752 H   0  0  0  0  0  0  0  0  0  0  0  0
    0.9188    0.4610    2.8160 C   0  0  0  0  0  0  0  0  0  0  0  0
   -0.1205    0.0524    2.8231 H   0  0  0  0  0  0  0  0  0  0  0  0
    1.0736    0.9679    3.8004 H   0  0  0  0  0  0  0  0  0  0  0  0
    1.9456   -0.6514    2.6768 C   0  0  0  0  0  0  0  0  0  0  0  0
    2.9604   -0.2084    2.6254 H   0  0  0  0  0  0  0  0  0  0  0  0
    1.8988   -1.3018    3.5830 H   0  0  0  0  0  0  0  0  0  0  0  0
    0.6905   -2.2796    1.4451 C   0  0  0  0  0  0  0  0  0  0  0  0
   -0.2649   -1.7717    1.7123 H   0  0  0  0  0  0  0  0  0  0  0  0
    0.8194   -3.1460    2.1422 H   0  0  0  0  0  0  0  0  0  0  0  0
    0.5658   -2.8210    0.0383 C   0  0  0  0  0  0  0  0  0  0  0  0
   -0.3276   -3.4689   -0.0585 H   0  0  0  0  0  0  0  0  0  0  0  0
    1.4742   -3.3579   -0.3022 H   0  0  0  0  0  0  0  0  0  0  0  0
    2.6712    1.7731   -1.0641 C   0  0  0  0  0  0  0  0  0  0  0  0
    2.9481   -1.1311   -1.2368 C   0  0  0  0  0  0  0  0  0  0  0  0
  1  8  1  0  0  0  0
  1  9  1  0  0  0  0
  2  7  1  0  0  0  0
  2 24  1  0  0  0  0
  3 15  1  0  0  0  0
  4 18  1  0  0  0  0
  5 28  3  0  0  0  0
  7  8  2  0  0  0  0
  8 27  1  0  0  0  0
  9 12  1  0  0  0  0
 10  9  1  0  0  0  0
 11  9  1  0  0  0  0
 12  3  1  0  0  0  0
 12 14  1  0  0  0  0
 12 13  1  0  0  0  0
 15 16  1  0  0  0  0
 15 17  1  0  0  0  0
 18 15  1  0  0  0  0
 18 20  1  0  0  0  0
 19 18  1  0  0  0  0
 21  4  1  0  0  0  0
 21 22  1  0  0  0  0
 21 23  1  0  0  0  0
 24 21  1  0  0  0  0
 25 24  1  0  0  0  0
 26 24  1  0  0  0  0
 27  6  3  0  0  0  0
 28  7  1  0  0  0  0
M  END
