1,8
q = 0.0, confidence = 0.666

 12 12  0  0  0  0  0  0  0  0999 V2000
   -1.4885   -1.5732    0.0780 S   0  0  0  0  0  1  0  0  0  0  0  0
   -2.9682   -0.7025    0.0237 C   0  0  0  0  0  0  0  0  0  0  0  0
   -4.1198   -1.4304    0.0181 O   0  0  0  0  0  0  0  0  0  0  0  0
   -5.2745   -0.6708   -0.3551 C   0  0  0  0  0  0  0  0  0  0  0  0
   -5.2734    0.6709    0.3569 C   0  0  0  0  0  0  0  0  0  0  0  0
   -4.1199    1.4304   -0.0200 O   0  0  0  0  0  0  0  0  0  0  0  0
   -2.9680    0.7027   -0.0249 C   0  0  0  0  0  0  0  0  0  0  0  0
   -1.4883    1.5733   -0.0780 S   0  0  0  0  0  1  0  0  0  0  0  0
   -6.1560    1.2774    0.0764 H   0  0  0  0  0  0  0  0  0  0  0  0
   -5.2753    0.5184    1.4602 H   0  0  0  0  0  0  0  0  0  0  0  0
   -6.1562   -1.2773   -0.0718 H   0  0  0  0  0  0  0  0  0  0  0  0
   -5.2798   -0.5182   -1.4583 H   0  0  0  0  0  0  0  0  0  0  0  0
  2  1  1  0  0  0  0
  3  2  1  0  0  0  0
  4 11  1  0  0  0  0
  4  3  1  0  0  0  0
  4  5  1  0  0  0  0
  5 10  1  0  0  0  0
  6  5  1  0  0  0  0
  7  6  1  0  0  0  0
  7  2  2  0  0  0  0
  8  7  1  0  0  0  0
  9  5  1  0  0  0  0
 12  4  1  0  0  0  0
M  END
