1,2
q = -1.0, confidence = 0.002

 23 24  0  0  0  0  0  0  0  0999 V2000
   -0.0610   -2.3579    1.0163 S   0  0  0  0  0  0  0  0  0  0  0  0
   -1.9028    0.1160   -0.0229 S   0  0  0  0  0  0  0  0  0  0  0  0
   -1.7878   -2.2029    1.4787 C   0  0  0  0  0  0  0  0  0  0  0  0
   -2.3571   -3.2013    2.2887 C   0  0  0  0  0  0  0  0  0  0  0  0
   -1.6321   -4.2470    2.6934 F   0  0  0  0  0  0  0  0  0  0  0  0
   -3.7032   -3.1198    2.6877 C   0  0  0  0  0  0  0  0  0  0  0  0
   -4.2340   -4.0700    3.4534 F   0  0  0  0  0  0  0  0  0  0  0  0
   -4.4944   -2.0268    2.2876 C   0  0  0  0  0  0  0  0  0  0  0  0
   -5.7683   -1.9526    2.6685 F   0  0  0  0  0  0  0  0  0  0  0  0
   -3.9347   -1.0347    1.4644 C   0  0  0  0  0  0  0  0  0  0  0  0
   -4.6931   -0.0035    1.0789 F   0  0  0  0  0  0  0  0  0  0  0  0
   -2.5895   -1.1180    1.0804 C   0  0  0  0  0  0  0  0  0  0  0  0
   -1.9851    1.5792    1.0036 C   0  0  0  0  0  0  0  0  0  0  0  0
   -2.4662    2.7636    0.4154 C   0  0  0  0  0  0  0  0  0  0  0  0
   -2.9117    2.7640   -0.8439 F   0  0  0  0  0  0  0  0  0  0  0  0
   -2.4825    3.9682    1.1362 C   0  0  0  0  0  0  0  0  0  0  0  0
   -2.9426    5.0859    0.5766 F   0  0  0  0  0  0  0  0  0  0  0  0
   -2.0093    3.9889    2.4604 C   0  0  0  0  0  0  0  0  0  0  0  0
   -2.0236    5.1256    3.1500 F   0  0  0  0  0  0  0  0  0  0  0  0
   -1.5252    2.8125    3.0615 C   0  0  0  0  0  0  0  0  0  0  0  0
   -1.0732    2.8446    4.3143 F   0  0  0  0  0  0  0  0  0  0  0  0
   -1.5014    1.6181    2.3256 C   0  0  0  0  0  0  0  0  0  0  0  0
   -1.0140    0.5196    2.9038 F   0  0  0  0  0  0  0  0  0  0  0  0
  1  3  1  0  0  0  0
  2 13  1  0  0  0  0
  2 12  1  0  0  0  0
  3  4  1  0  0  0  0
  4  6  2  0  0  0  0
  4  5  1  0  0  0  0
  6  7  1  0  0  0  0
  8  9  1  0  0  0  0
  8  6  1  0  0  0  0
 10  8  2  0  0  0  0
 11 10  1  0  0  0  0
 12 10  1  0  0  0  0
 12  3  2  0  0  0  0
 13 22  1  0  0  0  0
 14 13  2  0  0  0  0
 14 16  1  0  0  0  0
 15 14  1  0  0  0  0
 16 18  2  0  0  0  0
 17 16  1  0  0  0  0
 18 20  1  0  0  0  0
 18 19  1  0  0  0  0
 20 21  1  0  0  0  0
 22 23  1  0  0  0  0
 22 20  2  0  0  0  0
M  END
