1,28
q = 0.0, confidence = 1.0

 34 35  0  0  0  0  0  0  0  0999 V2000
    0.5561   -1.4134   -1.4921 S   0  0  0  0  0  0  0  0  0  0  0  0
   -2.9308   -1.7766   -0.9513 N   0  0  0  0  0  0  0  0  0  0  0  0
   -3.9434   -1.3328   -0.1851 C   0  0  0  0  0  0  0  0  0  0  0  0
   -4.4987   -2.1015    0.3807 H   0  0  0  0  0  0  0  0  0  0  0  0
   -4.2968    0.0198   -0.0781 C   0  0  0  0  0  0  0  0  0  0  0  0
   -5.1123    0.3337    0.5890 H   0  0  0  0  0  0  0  0  0  0  0  0
   -3.5721    0.9589   -0.8261 C   0  0  0  0  0  0  0  0  0  0  0  0
   -3.7987    2.0323   -0.7516 H   0  0  0  0  0  0  0  0  0  0  0  0
   -2.5191    0.5087   -1.6311 C   0  0  0  0  0  0  0  0  0  0  0  0
   -1.9046    1.2156   -2.2057 H   0  0  0  0  0  0  0  0  0  0  0  0
   -2.2199   -0.8705   -1.6498 C   0  0  0  0  0  0  0  0  0  0  0  0
   -1.0455   -1.3863   -2.4463 C   0  0  0  0  0  0  0  0  0  0  0  0
   -0.8093   -0.7223   -3.2990 H   0  0  0  0  0  0  0  0  0  0  0  0
   -1.2234   -2.4156   -2.8133 H   0  0  0  0  0  0  0  0  0  0  0  0
    0.5022   -3.0024   -0.5682 C   0  0  0  0  0  0  0  0  0  0  0  0
    0.3095   -3.8183   -1.2950 H   0  0  0  0  0  0  0  0  0  0  0  0
    1.5400   -3.0840   -0.1789 H   0  0  0  0  0  0  0  0  0  0  0  0
    2.9317   -1.7762    0.9516 N   0  0  0  0  0  0  0  0  0  0  0  0
    3.9443   -1.3323    0.1855 C   0  0  0  0  0  0  0  0  0  0  0  0
    4.5001   -2.1009   -0.3799 H   0  0  0  0  0  0  0  0  0  0  0  0
    4.2972    0.0205    0.0782 C   0  0  0  0  0  0  0  0  0  0  0  0
    5.1127    0.3345   -0.5888 H   0  0  0  0  0  0  0  0  0  0  0  0
    3.5719    0.9596    0.8257 C   0  0  0  0  0  0  0  0  0  0  0  0
    3.7980    2.0330    0.7509 H   0  0  0  0  0  0  0  0  0  0  0  0
    2.5189    0.5091    1.6306 C   0  0  0  0  0  0  0  0  0  0  0  0
    1.9040    1.2160    2.2048 H   0  0  0  0  0  0  0  0  0  0  0  0
    2.2203   -0.8702    1.6497 C   0  0  0  0  0  0  0  0  0  0  0  0
   -0.5555   -1.4133    1.4918 S   0  0  0  0  0  0  0  0  0  0  0  0
    1.0460   -1.3862    2.4461 C   0  0  0  0  0  0  0  0  0  0  0  0
    0.8098   -0.7224    3.2990 H   0  0  0  0  0  0  0  0  0  0  0  0
    1.2240   -2.4156    2.8129 H   0  0  0  0  0  0  0  0  0  0  0  0
   -0.5013   -3.0024    0.5680 C   0  0  0  0  0  0  0  0  0  0  0  0
   -0.3084   -3.8182    1.2950 H   0  0  0  0  0  0  0  0  0  0  0  0
   -1.5390   -3.0843    0.1788 H   0  0  0  0  0  0  0  0  0  0  0  0
  1 15  1  0  0  0  0
  2  3  1  0  0  0  0
  3  5  2  0  0  0  0
  3  4  1  0  0  0  0
  5  6  1  0  0  0  0
  7  8  1  0  0  0  0
  7  5  1  0  0  0  0
  9  7  2  0  0  0  0
 10  9  1  0  0  0  0
 11  9  1  0  0  0  0
 11  2  2  0  0  0  0
 12 11  1  0  0  0  0
 12  1  1  0  0  0  0
 13 12  1  0  0  0  0
 14 12  1  0  0  0  0
 15 17  1  0  0  0  0
 15 32  1  0  0  0  0
 16 15  1  0  0  0  0
 18 27  1  0  0  0  0
 19 18  2  0  0  0  0
 20 19  1  0  0  0  0
 21 19  1  0  0  0  0
 21 23  2  0  0  0  0
 22 21  1  0  0  0  0
 23 25  1  0  0  0  0
 24 23  1  0  0  0  0
 25 27  2  0  0  0  0
 25 26  1  0  0  0  0
 27 29  1  0  0  0  0
 28 29  1  0  0  0  0
 29 31  1  0  0  0  0
 29 30  1  0  0  0  0
 32 33  1  0  0  0  0
 32 28  1  0  0  0  0
 34 32  1  0  0  0  0
M  END
