1,14
q = 0.0, confidence = 1.0

 26 26  0  0  0  0  0  0  0  0999 V2000
    1.9502    0.9399    1.4344 S   0  0  0  0  0  0  0  0  0  0  0  0
    3.2392    3.4518   -0.8821 O   0  0  0  0  0  0  0  0  0  0  0  0
    1.2073    2.5675   -1.3200 O   0  0  0  0  0  0  0  0  0  0  0  0
    3.4419    0.3816    0.5988 C   0  0  0  0  0  0  0  0  0  0  0  0
    4.6723    0.7433    1.1852 C   0  0  0  0  0  0  0  0  0  0  0  0
    5.8868    0.3726    0.5961 C   0  0  0  0  0  0  0  0  0  0  0  0
    1.9755    2.7239    0.9809 C   0  0  0  0  0  0  0  0  0  0  0  0
    2.0675    2.9040   -0.5198 C   0  0  0  0  0  0  0  0  0  0  0  0
    3.2310    3.5220   -1.8638 H   0  0  0  0  0  0  0  0  0  0  0  0
    6.8352    0.6661    1.0696 H   0  0  0  0  0  0  0  0  0  0  0  0
    4.6658    1.3198    2.1224 H   0  0  0  0  0  0  0  0  0  0  0  0
    2.8046    3.2329    1.5054 H   0  0  0  0  0  0  0  0  0  0  0  0
    0.9916    3.0890    1.3374 H   0  0  0  0  0  0  0  0  0  0  0  0
    1.9508   -0.9380   -1.4347 S   0  0  0  0  0  0  0  0  0  0  0  0
    3.2373   -3.4562    0.8792 O   0  0  0  0  0  0  0  0  0  0  0  0
    1.2081   -2.5662    1.3181 O   0  0  0  0  0  0  0  0  0  0  0  0
    3.4421   -0.3808   -0.5977 C   0  0  0  0  0  0  0  0  0  0  0  0
    4.6729   -0.7435   -1.1830 C   0  0  0  0  0  0  0  0  0  0  0  0
    5.8871   -0.3737   -0.5926 C   0  0  0  0  0  0  0  0  0  0  0  0
    1.9758   -2.7224   -0.9830 C   0  0  0  0  0  0  0  0  0  0  0  0
    2.0673   -2.9043    0.5175 C   0  0  0  0  0  0  0  0  0  0  0  0
    3.2289   -3.5277    1.8607 H   0  0  0  0  0  0  0  0  0  0  0  0
    6.8357   -0.6679   -1.0652 H   0  0  0  0  0  0  0  0  0  0  0  0
    4.6668   -1.3199   -2.1202 H   0  0  0  0  0  0  0  0  0  0  0  0
    2.8047   -3.2312   -1.5079 H   0  0  0  0  0  0  0  0  0  0  0  0
    0.9919   -3.0871   -1.3400 H   0  0  0  0  0  0  0  0  0  0  0  0
  2  8  1  0  0  0  0
  3  8  2  0  0  0  0
  4  5  1  0  0  0  0
  4  1  1  0  0  0  0
  5 11  1  0  0  0  0
  6 10  1  0  0  0  0
  6  5  2  0  0  0  0
  7 13  1  0  0  0  0
  7  1  1  0  0  0  0
  7 12  1  0  0  0  0
  8  7  1  0  0  0  0
  9  2  1  0  0  0  0
 14 20  1  0  0  0  0
 14 17  1  0  0  0  0
 15 22  1  0  0  0  0
 17  4  2  0  0  0  0
 18 17  1  0  0  0  0
 18 19  2  0  0  0  0
 19  6  1  0  0  0  0
 20 21  1  0  0  0  0
 21 15  1  0  0  0  0
 21 16  2  0  0  0  0
 23 19  1  0  0  0  0
 24 18  1  0  0  0  0
 25 20  1  0  0  0  0
 26 20  1  0  0  0  0
M  END
