1,2
q = 0.0, confidence = 0.54

 17 17  0  0  0  0  0  0  0  0999 V2000
    1.2787   -2.0243    0.0004 S   0  0  0  0  0  1  0  0  0  0  0  0
    1.9821    1.3495    0.0002 S   0  0  0  0  0  1  0  0  0  0  0  0
    4.3914   -2.2193    0.0001 S   0  0  0  0  0  0  0  0  0  0  0  0
    7.0588   -0.7276   -0.0006 S   0  0  0  0  0  0  0  0  0  0  0  0
    2.8730   -1.3054    0.0002 C   0  0  0  0  0  0  0  0  0  0  0  0
    3.1442    0.0393    0.0001 C   0  0  0  0  0  0  0  0  0  0  0  0
    4.5211    0.3275   -0.0001 N   0  0  0  0  0  0  0  0  0  0  0  0
    5.3876   -0.7497   -0.0004 C   0  0  0  0  0  0  0  0  0  0  0  0
    4.9098    1.6635   -0.0004 N   0  0  0  0  0  0  0  0  0  0  0  0
    5.5231    2.1057   -1.2440 C   0  0  0  0  0  0  0  0  0  0  0  0
    6.5439    1.6904   -1.4094 H   0  0  0  0  0  0  0  0  0  0  0  0
    5.5751    3.2136   -1.2238 H   0  0  0  0  0  0  0  0  0  0  0  0
    4.8672    1.8123   -2.0870 H   0  0  0  0  0  0  0  0  0  0  0  0
    5.5235    2.1061    1.2429 C   0  0  0  0  0  0  0  0  0  0  0  0
    4.8680    1.8128    2.0862 H   0  0  0  0  0  0  0  0  0  0  0  0
    5.5755    3.2139    1.2224 H   0  0  0  0  0  0  0  0  0  0  0  0
    6.5444    1.6908    1.4080 H   0  0  0  0  0  0  0  0  0  0  0  0
  3  5  1  0  0  0  0
  4  8  2  0  0  0  0
  5  1  1  0  0  0  0
  6  5  2  0  0  0  0
  6  2  1  0  0  0  0
  7  6  1  0  0  0  0
  8  7  1  0  0  0  0
  8  3  1  0  0  0  0
  9  7  1  0  0  0  0
  9 14  1  0  0  0  0
 10 12  1  0  0  0  0
 10  9  1  0  0  0  0
 11 10  1  0  0  0  0
 13 10  1  0  0  0  0
 14 17  1  0  0  0  0
 14 15  1  0  0  0  0
 16 14  1  0  0  0  0
M  END
