1,2
q = 0.0, confidence = 0.622

 16 16  0  0  0  0  0  0  0  0999 V2000
    1.9430    1.2707   -0.5636 S   0  0  0  0  0  1  0  0  0  0  0  0
    1.3300   -1.9497    0.4343 S   0  0  0  0  0  1  0  0  0  0  0  0
    4.4200   -2.1582    0.2390 S   0  0  0  0  0  0  0  0  0  0  0  0
    7.0586   -0.7056   -0.2654 S   0  0  0  0  0  0  0  0  0  0  0  0
    4.5290    0.3130   -0.4103 N   0  0  0  0  0  0  0  0  0  0  0  0
    4.1490    2.4921    1.4659 O   0  0  0  0  0  0  0  0  0  0  0  0
    3.3062    2.4827    0.9565 H   0  0  0  0  0  0  0  0  0  0  0  0
    3.1650    0.0368   -0.2532 C   0  0  0  0  0  0  0  0  0  0  0  0
    2.9024   -1.2609    0.1096 C   0  0  0  0  0  0  0  0  0  0  0  0
    5.3908   -0.7353   -0.1782 C   0  0  0  0  0  0  0  0  0  0  0  0
    5.0134    1.6554   -0.7029 C   0  0  0  0  0  0  0  0  0  0  0  0
    5.9763    1.5431   -1.2439 H   0  0  0  0  0  0  0  0  0  0  0  0
    4.2678    2.1313   -1.3761 H   0  0  0  0  0  0  0  0  0  0  0  0
    5.2281    2.4944    0.5657 C   0  0  0  0  0  0  0  0  0  0  0  0
    5.5105    3.5250    0.2217 H   0  0  0  0  0  0  0  0  0  0  0  0
    6.1084    2.0835    1.1058 H   0  0  0  0  0  0  0  0  0  0  0  0
  1  8  1  0  0  0  0
  4 10  2  0  0  0  0
  5  8  1  0  0  0  0
  5 10  1  0  0  0  0
  7  6  1  0  0  0  0
  8  9  2  0  0  0  0
  9  3  1  0  0  0  0
  9  2  1  0  0  0  0
 10  3  1  0  0  0  0
 11  5  1  0  0  0  0
 11 14  1  0  0  0  0
 12 11  1  0  0  0  0
 13 11  1  0  0  0  0
 14 16  1  0  0  0  0
 14  6  1  0  0  0  0
 15 14  1  0  0  0  0
M  END
