1,2
q = -1.0, confidence = 0.0

 23 22  0  0  0  0  0  0  0  0999 V2000
   -1.5337    1.6189    0.8035 S   0  0  0  0  0  1  0  0  0  0  0  0
   -1.9310   -0.2709   -1.3490 S   0  0  0  0  0  1  0  0  0  0  0  0
   -3.8096    1.4929   -0.4902 O   0  0  0  0  0  0  0  0  0  0  0  0
   -2.5908    0.9965   -0.3897 C   0  0  0  0  0  3  0  0  0  0  0  0
   -4.7770    0.9209   -1.4116 C   0  0  0  0  0  0  0  0  0  0  0  0
   -4.9164    1.6751   -2.2129 H   0  0  0  0  0  0  0  0  0  0  0  0
   -4.3455    0.0065   -1.8669 H   0  0  0  0  0  0  0  0  0  0  0  0
   -6.0914    0.6474   -0.6998 C   0  0  0  0  0  0  0  0  0  0  0  0
   -6.4630    1.5947   -0.2522 H   0  0  0  0  0  0  0  0  0  0  0  0
   -6.8124    0.3883   -1.5069 H   0  0  0  0  0  0  0  0  0  0  0  0
   -6.1330   -0.4764    0.3719 C   0  0  0  0  0  0  0  0  0  0  0  0
   -5.5173   -1.7780   -0.1735 C   0  0  0  0  0  0  0  0  0  0  0  0
   -5.6509   -2.6025    0.5561 H   0  0  0  0  0  0  0  0  0  0  0  0
   -6.0013   -2.0903   -1.1230 H   0  0  0  0  0  0  0  0  0  0  0  0
   -4.4279   -1.6789   -0.3585 H   0  0  0  0  0  0  0  0  0  0  0  0
   -7.6172   -0.7199    0.7100 C   0  0  0  0  0  0  0  0  0  0  0  0
   -7.7197   -1.4946    1.4970 H   0  0  0  0  0  0  0  0  0  0  0  0
   -8.1011    0.2063    1.0841 H   0  0  0  0  0  0  0  0  0  0  0  0
   -8.1842   -1.0635   -0.1801 H   0  0  0  0  0  0  0  0  0  0  0  0
   -5.4000   -0.0566    1.6621 C   0  0  0  0  0  0  0  0  0  0  0  0
   -5.5351   -0.8307    2.4453 H   0  0  0  0  0  0  0  0  0  0  0  0
   -4.3116    0.0768    1.5136 H   0  0  0  0  0  0  0  0  0  0  0  0
   -5.8034    0.8977    2.0592 H   0  0  0  0  0  0  0  0  0  0  0  0
  2  4  1  0  0  0  0
  3  4  1  0  0  0  0
  4  1  1  0  0  0  0
  5  8  1  0  0  0  0
  5  3  1  0  0  0  0
  6  5  1  0  0  0  0
  7  5  1  0  0  0  0
  8  9  1  0  0  0  0
  8 11  1  0  0  0  0
 10  8  1  0  0  0  0
 11 16  1  0  0  0  0
 11 20  1  0  0  0  0
 12 11  1  0  0  0  0
 12 13  1  0  0  0  0
 14 12  1  0  0  0  0
 15 12  1  0  0  0  0
 16 18  1  0  0  0  0
 16 17  1  0  0  0  0
 19 16  1  0  0  0  0
 20 23  1  0  0  0  0
 20 21  1  0  0  0  0
 22 20  1  0  0  0  0
M  END
