1,2
q = -1.0, confidence = 0.002

 20 19  0  0  0  0  0  0  0  0999 V2000
    1.5144   -1.8293   -0.0003 S   0  0  0  0  0  1  0  0  0  0  0  0
    2.1540    0.9952   -0.0014 S   0  0  0  0  0  1  0  0  0  0  0  0
    4.0030   -0.9757   -0.0013 O   0  0  0  0  0  0  0  0  0  0  0  0
    2.7284   -0.6234   -0.0008 C   0  0  0  0  0  3  0  0  0  0  0  0
    5.0166    0.0595   -0.0019 C   0  0  0  0  0  0  0  0  0  0  0  0
    4.8655    0.7012    0.8937 H   0  0  0  0  0  0  0  0  0  0  0  0
    4.8671    0.6987   -0.8994 H   0  0  0  0  0  0  0  0  0  0  0  0
    6.3772   -0.6110    0.0002 C   0  0  0  0  0  0  0  0  0  0  0  0
    6.4524   -1.2738   -0.8884 H   0  0  0  0  0  0  0  0  0  0  0  0
    6.4511   -1.2711    0.8910 H   0  0  0  0  0  0  0  0  0  0  0  0
    7.5229    0.4047   -0.0005 C   0  0  0  0  0  0  0  0  0  0  0  0
    7.4291    1.0729    0.8854 H   0  0  0  0  0  0  0  0  0  0  0  0
    7.4306    1.0700   -0.8886 H   0  0  0  0  0  0  0  0  0  0  0  0
    8.9103   -0.2449    0.0018 C   0  0  0  0  0  0  0  0  0  0  0  0
    8.9978   -0.9105    0.8890 H   0  0  0  0  0  0  0  0  0  0  0  0
    8.9993   -0.9134   -0.8831 H   0  0  0  0  0  0  0  0  0  0  0  0
   10.0538    0.7695    0.0011 C   0  0  0  0  0  0  0  0  0  0  0  0
   11.0434    0.2705    0.0027 H   0  0  0  0  0  0  0  0  0  0  0  0
   10.0101    1.4279    0.8937 H   0  0  0  0  0  0  0  0  0  0  0  0
   10.0115    1.4250   -0.8938 H   0  0  0  0  0  0  0  0  0  0  0  0
  2  4  1  0  0  0  0
  3  4  1  0  0  0  0
  4  1  1  0  0  0  0
  5  3  1  0  0  0  0
  5  8  1  0  0  0  0
  5  6  1  0  0  0  0
  7  5  1  0  0  0  0
  8 10  1  0  0  0  0
  9  8  1  0  0  0  0
 11  8  1  0  0  0  0
 11 14  1  0  0  0  0
 11 12  1  0  0  0  0
 13 11  1  0  0  0  0
 14 15  1  0  0  0  0
 16 14  1  0  0  0  0
 17 14  1  0  0  0  0
 17 18  1  0  0  0  0
 17 19  1  0  0  0  0
 20 17  1  0  0  0  0
M  END
