1,2
q = 0.0, confidence = 0.794

 16 16  0  0  0  0  0  0  0  0999 V2000
    0.6571   -2.7219    0.0145 S   0  0  0  0  0  0  0  0  0  0  0  0
    0.7541    0.1509    2.6222 S   0  0  0  0  0  0  0  0  0  0  0  0
   -0.3319   -2.7303    2.9438 B   0  0  0  0  0  0  0  0  0  0  0  0
   -0.7816   -2.3858    1.2204 B   0  0  0  0  0  0  0  0  0  0  0  0
   -0.7403   -1.0345    2.4511 B   0  0  0  0  0  0  0  0  0  0  0  0
    1.3612   -3.0727    3.2659 B   0  0  0  0  0  0  0  0  0  0  0  0
    0.6316   -3.6107    1.6984 B   0  0  0  0  0  0  0  0  0  0  0  0
    0.6914   -1.4419    3.6737 B   0  0  0  0  0  0  0  0  0  0  0  0
   -1.1454   -3.3197    3.6193 H   0  0  0  0  0  0  0  0  0  0  0  0
   -1.8920   -2.7406    0.8915 H   0  0  0  0  0  0  0  0  0  0  0  0
   -1.8243   -0.6384    2.8240 H   0  0  0  0  0  0  0  0  0  0  0  0
    1.6193   -3.8713    4.1348 H   0  0  0  0  0  0  0  0  0  0  0  0
    0.5382   -4.8167    1.6173 H   0  0  0  0  0  0  0  0  0  0  0  0
    0.6433   -1.2328    4.8667 H   0  0  0  0  0  0  0  0  0  0  0  0
    1.9702   -3.3530    2.1644 H   0  0  0  0  0  0  0  0  0  0  0  0
    2.0105   -1.9719    3.4288 H   0  0  0  0  0  0  0  0  0  0  0  0
  1  4  1  0  0  0  0
  1  7  1  0  0  0  0
  2  8  1  0  0  0  0
  3  6  1  0  0  0  0
  3  9  1  0  0  0  0
  3  8  1  0  0  0  0
  4  5  1  0  0  0  0
  5  2  1  0  0  0  0
  5 11  1  0  0  0  0
  6 16  1  0  0  0  0
  6 12  1  0  0  0  0
  7  3  1  0  0  0  0
  8 14  1  0  0  0  0
 10  4  1  0  0  0  0
 13  7  1  0  0  0  0
 15  6  1  0  0  0  0
M  END
