1,8
q = 0.0, confidence = 0.728

 35 36  0  0  0  0  0  0  0  0999 V2000
   -0.9731    1.8075   -0.6344 S   0  0  0  0  0  1  0  0  0  0  0  0
   -2.6651    1.4766   -0.5589 C   0  0  0  0  0  0  0  0  0  0  0  0
   -3.5818    2.5885   -1.0071 C   0  0  0  0  0  0  0  0  0  0  0  0
   -3.6816    3.7547   -0.0074 C   0  0  0  0  0  0  0  0  0  0  0  0
   -4.6313    4.8620   -0.4696 C   0  0  0  0  0  0  0  0  0  0  0  0
   -4.7233    6.0290    0.5138 C   0  0  0  0  0  0  0  0  0  0  0  0
   -3.0894    0.2126   -0.1209 C   0  0  0  0  0  0  0  0  0  0  0  0
   -1.8941   -0.9669    0.3133 S   0  0  0  0  0  1  0  0  0  0  0  0
   -4.5022   -0.2210   -0.0234 C   0  0  0  0  0  0  0  0  0  0  0  0
   -4.8900   -1.4637   -0.5641 C   0  0  0  0  0  0  0  0  0  0  0  0
   -6.2295   -1.8848   -0.4632 C   0  0  0  0  0  0  0  0  0  0  0  0
   -7.1769   -1.0366    0.2027 C   0  0  0  0  0  0  0  0  0  0  0  0
   -8.4071   -1.6653    0.1675 N   0  0  0  0  0  0  0  0  0  0  0  0
   -9.6269   -1.1358    0.7341 C   0  0  0  0  0  0  0  0  0  0  0  0
   -8.2652   -2.8772   -0.4971 C   0  0  0  0  0  0  0  0  0  0  0  0
   -6.9537   -3.0497   -0.8994 C   0  0  0  0  0  0  0  0  0  0  0  0
   -6.8047    0.1985    0.7626 C   0  0  0  0  0  0  0  0  0  0  0  0
   -5.4698    0.5909    0.6427 C   0  0  0  0  0  0  0  0  0  0  0  0
   -4.5909    2.1710   -1.2029 H   0  0  0  0  0  0  0  0  0  0  0  0
   -3.2084    2.9862   -1.9757 H   0  0  0  0  0  0  0  0  0  0  0  0
   -4.0109    3.3680    0.9829 H   0  0  0  0  0  0  0  0  0  0  0  0
   -2.6636    4.1692    0.1603 H   0  0  0  0  0  0  0  0  0  0  0  0
   -5.6427    4.4279   -0.6354 H   0  0  0  0  0  0  0  0  0  0  0  0
   -4.2993    5.2331   -1.4648 H   0  0  0  0  0  0  0  0  0  0  0  0
   -5.4168    6.8159    0.1546 H   0  0  0  0  0  0  0  0  0  0  0  0
   -5.0858    5.6914    1.5074 H   0  0  0  0  0  0  0  0  0  0  0  0
   -3.7315    6.5021    0.6703 H   0  0  0  0  0  0  0  0  0  0  0  0
   -4.1408   -2.0887   -1.0725 H   0  0  0  0  0  0  0  0  0  0  0  0
  -10.4529   -1.8488    0.5576 H   0  0  0  0  0  0  0  0  0  0  0  0
   -9.8972   -0.1644    0.2686 H   0  0  0  0  0  0  0  0  0  0  0  0
   -9.5266   -0.9805    1.8292 H   0  0  0  0  0  0  0  0  0  0  0  0
   -9.1357   -3.5310   -0.6293 H   0  0  0  0  0  0  0  0  0  0  0  0
   -6.5530   -3.9121   -1.4423 H   0  0  0  0  0  0  0  0  0  0  0  0
   -7.5296    0.8344    1.2917 H   0  0  0  0  0  0  0  0  0  0  0  0
   -5.1447    1.5334    1.1048 H   0  0  0  0  0  0  0  0  0  0  0  0
  1  2  1  0  0  0  0
  2  7  2  0  0  0  0
  3  2  1  0  0  0  0
  3  4  1  0  0  0  0
  4 22  1  0  0  0  0
  4 21  1  0  0  0  0
  5  4  1  0  0  0  0
  5  6  1  0  0  0  0
  6 27  1  0  0  0  0
  6 26  1  0  0  0  0
  7  9  1  0  0  0  0
  7  8  1  0  0  0  0
  9 18  1  0  0  0  0
 10 11  1  0  0  0  0
 10  9  2  0  0  0  0
 11 12  2  0  0  0  0
 12 17  1  0  0  0  0
 13 12  1  0  0  0  0
 13 14  1  0  0  0  0
 14 31  1  0  0  0  0
 15 13  1  0  0  0  0
 16 15  2  0  0  0  0
 16 11  1  0  0  0  0
 17 34  1  0  0  0  0
 18 17  2  0  0  0  0
 18 35  1  0  0  0  0
 19  3  1  0  0  0  0
 20  3  1  0  0  0  0
 23  5  1  0  0  0  0
 24  5  1  0  0  0  0
 25  6  1  0  0  0  0
 28 10  1  0  0  0  0
 29 14  1  0  0  0  0
 30 14  1  0  0  0  0
 32 15  1  0  0  0  0
 33 16  1  0  0  0  0
M  END
