1,2
q = 0.0, confidence = 0.996

 30 29  0  0  0  0  0  0  0  0999 V2000
    1.5354   -0.7751    0.4575 S   0  0  1  0  0  3  0  0  0  0  0  0
   -1.6072   -0.6768    0.6232 S   0  0  2  0  0  3  0  0  0  0  0  0
    2.0827   -1.0267    1.8332 O   0  0  0  0  0  1  0  0  0  0  0  0
   -2.4718   -0.5571    1.8395 O   0  0  0  0  0  1  0  0  0  0  0  0
   -2.6820   -0.8991   -0.8439 C   0  0  0  0  0  0  0  0  0  0  0  0
   -3.8853   -1.7854   -0.5535 C   0  0  0  0  0  0  0  0  0  0  0  0
   -4.8781   -1.7883   -1.7187 C   0  0  0  0  0  0  0  0  0  0  0  0
    2.9102   -0.7262   -0.7471 C   0  0  0  0  0  0  0  0  0  0  0  0
    3.9853   -1.7558   -0.4257 C   0  0  0  0  0  0  0  0  0  0  0  0
    5.2258   -1.5639   -1.3018 C   0  0  0  0  0  0  0  0  0  0  0  0
   -0.6950   -2.3039    0.7528 C   0  0  0  0  0  0  0  0  0  0  0  0
    0.5881   -2.2956   -0.0481 C   0  0  0  0  0  0  0  0  0  0  0  0
   -2.0208   -1.2586   -1.6611 H   0  0  0  0  0  0  0  0  0  0  0  0
   -2.9579    0.1539   -1.0706 H   0  0  0  0  0  0  0  0  0  0  0  0
   -4.3693   -1.4114    0.3719 H   0  0  0  0  0  0  0  0  0  0  0  0
   -3.5561   -2.8253   -0.3360 H   0  0  0  0  0  0  0  0  0  0  0  0
   -5.7551   -2.4240   -1.4862 H   0  0  0  0  0  0  0  0  0  0  0  0
   -4.4175   -2.1764   -2.6505 H   0  0  0  0  0  0  0  0  0  0  0  0
   -5.2489   -0.7648   -1.9295 H   0  0  0  0  0  0  0  0  0  0  0  0
    3.2537    0.3273   -0.6571 H   0  0  0  0  0  0  0  0  0  0  0  0
    2.4426   -0.8314   -1.7482 H   0  0  0  0  0  0  0  0  0  0  0  0
    3.5842   -2.7842   -0.5585 H   0  0  0  0  0  0  0  0  0  0  0  0
    4.2464   -1.6576    0.6482 H   0  0  0  0  0  0  0  0  0  0  0  0
    6.0045   -2.3103   -1.0490 H   0  0  0  0  0  0  0  0  0  0  0  0
    5.6643   -0.5556   -1.1579 H   0  0  0  0  0  0  0  0  0  0  0  0
    4.9884   -1.6751   -2.3797 H   0  0  0  0  0  0  0  0  0  0  0  0
   -1.4001   -3.1038    0.4556 H   0  0  0  0  0  0  0  0  0  0  0  0
   -0.5013   -2.3700    1.8422 H   0  0  0  0  0  0  0  0  0  0  0  0
    1.2377   -3.1579    0.2029 H   0  0  0  0  0  0  0  0  0  0  0  0
    0.4252   -2.2418   -1.1437 H   0  0  0  0  0  0  0  0  0  0  0  0
  1  3  1  1  0  0  0
  2 11  1  0  0  0  0
  2  4  1  1  0  0  0
  5  6  1  0  0  0  0
  5  2  1  0  0  0  0
  6 16  1  0  0  0  0
  6 15  1  0  0  0  0
  7 17  1  0  0  0  0
  7  6  1  0  0  0  0
  8 20  1  0  0  0  0
  8  9  1  0  0  0  0
  8  1  1  0  0  0  0
  9 23  1  0  0  0  0
 10 25  1  0  0  0  0
 10 24  1  0  0  0  0
 10  9  1  0  0  0  0
 11 28  1  0  0  0  0
 12 29  1  0  0  0  0
 12  1  1  0  0  0  0
 12 11  1  0  0  0  0
 13  5  1  0  0  0  0
 14  5  1  0  0  0  0
 18  7  1  0  0  0  0
 19  7  1  0  0  0  0
 21  8  1  0  0  0  0
 22  9  1  0  0  0  0
 26 10  1  0  0  0  0
 27 11  1  0  0  0  0
 30 12  1  0  0  0  0
M  END
