1,3
q = -1.0, confidence = 0.002

 29 29  0  0  0  0  0  0  0  0999 V2000
    0.1921    1.3388   -1.5519 S   0  0  0  0  0  1  0  0  0  0  0  0
   -1.2087    1.4569   -0.0843 P   0  0  0  0  0  4  0  0  0  0  0  0
   -0.0663    1.1384    1.5924 S   0  0  0  0  0  1  0  0  0  0  0  0
   -5.6686   -2.4401   -0.7070 O   0  0  0  0  0  0  0  0  0  0  0  0
   -2.0036    2.8733   -0.0089 O   0  0  0  0  0  0  0  0  0  0  0  0
   -4.6832   -1.5457   -0.4958 C   0  0  0  0  0  0  0  0  0  0  0  0
   -2.5559    0.2847   -0.2579 C   0  0  0  0  0  0  0  0  0  0  0  0
   -3.4223    0.0602    0.8301 C   0  0  0  0  0  0  0  0  0  0  0  0
   -3.2655    0.5935    1.7802 H   0  0  0  0  0  0  0  0  0  0  0  0
   -4.4811   -0.8476    0.7190 C   0  0  0  0  0  0  0  0  0  0  0  0
   -5.1462   -1.0049    1.5780 H   0  0  0  0  0  0  0  0  0  0  0  0
   -3.8096   -1.3178   -1.5870 C   0  0  0  0  0  0  0  0  0  0  0  0
   -3.9903   -1.8682   -2.5212 H   0  0  0  0  0  0  0  0  0  0  0  0
   -2.7592   -0.4111   -1.4700 C   0  0  0  0  0  0  0  0  0  0  0  0
   -2.0785   -0.2345   -2.3170 H   0  0  0  0  0  0  0  0  0  0  0  0
   -1.2540    4.1294    0.1674 C   0  0  0  0  0  0  0  0  0  0  0  0
   -0.1878    3.8628    0.3465 H   0  0  0  0  0  0  0  0  0  0  0  0
   -1.8221    4.8182    1.3965 C   0  0  0  0  0  0  0  0  0  0  0  0
   -1.6955    4.1827    2.2945 H   0  0  0  0  0  0  0  0  0  0  0  0
   -2.9018    5.0284    1.2605 H   0  0  0  0  0  0  0  0  0  0  0  0
   -1.2997    5.7793    1.5723 H   0  0  0  0  0  0  0  0  0  0  0  0
   -1.3770    4.9236   -1.1224 C   0  0  0  0  0  0  0  0  0  0  0  0
   -0.9434    4.3579   -1.9699 H   0  0  0  0  0  0  0  0  0  0  0  0
   -0.8364    5.8867   -1.0319 H   0  0  0  0  0  0  0  0  0  0  0  0
   -2.4405    5.1399   -1.3470 H   0  0  0  0  0  0  0  0  0  0  0  0
   -6.6049   -2.6990    0.3322 C   0  0  0  0  0  0  0  0  0  0  0  0
   -7.3164   -3.4412   -0.0718 H   0  0  0  0  0  0  0  0  0  0  0  0
   -7.1604   -1.7799    0.6185 H   0  0  0  0  0  0  0  0  0  0  0  0
   -6.1092   -3.1224    1.2329 H   0  0  0  0  0  0  0  0  0  0  0  0
  1  2  1  0  0  0  0
  2  5  1  0  0  0  0
  2  3  1  0  0  0  0
  4  6  1  0  0  0  0
  4 26  1  0  0  0  0
  5 16  1  0  0  0  0
  6 10  1  0  0  0  0
  7  2  1  0  0  0  0
  7  8  1  0  0  0  0
  8  9  1  0  0  0  0
 10  8  2  0  0  0  0
 10 11  1  0  0  0  0
 12 14  1  0  0  0  0
 12  6  2  0  0  0  0
 13 12  1  0  0  0  0
 14  7  2  0  0  0  0
 15 14  1  0  0  0  0
 16 17  1  0  0  0  0
 16 18  1  0  0  0  0
 18 21  1  0  0  0  0
 18 19  1  0  0  0  0
 20 18  1  0  0  0  0
 22 24  1  0  0  0  0
 22 16  1  0  0  0  0
 23 22  1  0  0  0  0
 25 22  1  0  0  0  0
 26 28  1  0  0  0  0
 26 29  1  0  0  0  0
 27 26  1  0  0  0  0
M  END
