1,2
q = -2.0, confidence = 0.696

 11 11  0  0  1  0  0  0  0  0999 V2000
   -1.3377   -1.7881   -0.6374 S   0  0  0  0  0  1  0  0  0  0  0  0
   -1.7081    1.3981   -0.6598 S   0  0  0  0  0  1  0  0  0  0  0  0
   -3.5983   -1.9161    1.7045 O   0  0  0  0  0  0  0  0  0  0  0  0
   -4.4411    0.0585    0.9691 O   0  0  0  0  0  0  0  0  0  0  0  0
   -5.0620    1.8142   -0.3325 O   0  0  0  0  0  0  0  0  0  0  0  0
   -3.6634   -1.0969    0.8304 C   0  0  0  0  0  0  0  0  0  0  0  0
   -3.0518   -1.1000   -0.5737 C   0  0  1  0  0  0  0  0  0  0  0  0
   -3.6709   -1.7940   -1.1846 H   0  0  0  0  0  0  0  0  0  0  0  0
   -3.2238    0.3298   -1.0413 C   0  0  1  0  0  0  0  0  0  0  0  0
   -3.4537    0.4610   -2.1145 H   0  0  0  0  0  0  0  0  0  0  0  0
   -4.3375    0.8656   -0.1708 C   0  0  0  0  0  0  0  0  0  0  0  0
  1  7  1  0  0  0  0
  5 11  2  0  0  0  0
  6  4  1  0  0  0  0
  6  3  2  0  0  0  0
  7  8  1  6  0  0  0
  7  6  1  0  0  0  0
  9 10  1  6  0  0  0
  9  2  1  0  0  0  0
  9  7  1  0  0  0  0
  9 11  1  0  0  0  0
 11  4  1  0  0  0  0
M  END
