1,2
q = 0.0, confidence = 0.552

 22 23  0  0  1  0  0  0  0  0999 V2000
    1.6031    1.4216   -0.2785 S   0  0  0  0  0  1  0  0  0  0  0  0
    1.3563   -1.6684   -0.1283 S   0  0  0  0  0  1  0  0  0  0  0  0
    4.4357    1.3664   -0.9898 S   0  0  0  0  0  0  0  0  0  0  0  0
    4.2136   -2.0755   -0.7755 S   0  0  0  0  0  0  0  0  0  0  0  0
    2.9968    0.4412   -0.5850 C   0  0  0  0  0  0  0  0  0  0  0  0
    2.8845   -0.9553   -0.5020 C   0  0  0  0  0  0  0  0  0  0  0  0
    5.8647    0.1753   -0.9670 C   0  0  2  0  0  0  0  0  0  0  0  0
    5.6148   -1.0773   -0.1226 C   0  0  1  0  0  0  0  0  0  0  0  0
    5.5163   -0.7892    1.3789 C   0  0  0  0  0  0  0  0  0  0  0  0
    6.7620   -0.0341    1.8674 C   0  0  0  0  0  0  0  0  0  0  0  0
    7.0002    1.2476    1.0598 C   0  0  0  0  0  0  0  0  0  0  0  0
    7.0866    0.9553   -0.4429 C   0  0  0  0  0  0  0  0  0  0  0  0
    6.0236   -0.1259   -2.0211 H   0  0  0  0  0  0  0  0  0  0  0  0
    6.4788   -1.7548   -0.3069 H   0  0  0  0  0  0  0  0  0  0  0  0
    4.6045   -0.1860    1.5745 H   0  0  0  0  0  0  0  0  0  0  0  0
    5.3881   -1.7455    1.9245 H   0  0  0  0  0  0  0  0  0  0  0  0
    6.6581    0.2011    2.9467 H   0  0  0  0  0  0  0  0  0  0  0  0
    7.6512   -0.6984    1.7773 H   0  0  0  0  0  0  0  0  0  0  0  0
    7.9287    1.7537    1.3954 H   0  0  0  0  0  0  0  0  0  0  0  0
    6.1656    1.9585    1.2413 H   0  0  0  0  0  0  0  0  0  0  0  0
    7.2125    1.8919   -1.0262 H   0  0  0  0  0  0  0  0  0  0  0  0
    7.9847    0.3337   -0.6577 H   0  0  0  0  0  0  0  0  0  0  0  0
  3  7  1  0  0  0  0
  3  5  1  0  0  0  0
  4  6  1  0  0  0  0
  4  8  1  0  0  0  0
  5  6  2  0  0  0  0
  5  1  1  0  0  0  0
  6  2  1  0  0  0  0
  7 13  1  6  0  0  0
  7 12  1  0  0  0  0
  7  8  1  0  0  0  0
  8 14  1  6  0  0  0
  8  9  1  0  0  0  0
  9 15  1  0  0  0  0
  9 10  1  0  0  0  0
  9 16  1  0  0  0  0
 10 17  1  0  0  0  0
 11 20  1  0  0  0  0
 11 19  1  0  0  0  0
 11 10  1  0  0  0  0
 12 11  1  0  0  0  0
 18 10  1  0  0  0  0
 21 12  1  0  0  0  0
 22 12  1  0  0  0  0
M  END
