1,2
q = -2.0, confidence = 0.598

 21 21  0  0  0  0  0  0  0  0999 V2000
    0.0432   -2.0440   -0.4427 S   0  0  0  0  0  1  0  0  0  0  0  0
   -0.4348    0.6782   -1.0500 S   0  0  0  0  0  1  0  0  0  0  0  0
   -1.2148   -0.9255   -0.9984 C   0  0  0  0  0  0  0  0  0  0  0  0
   -2.4166   -1.3154   -1.2559 N   0  0  0  0  0  0  0  0  0  0  0  0
   -3.6148   -0.1828   -1.7103 S   0  0  0  0  0  0  0  0  0  0  0  0
   -4.5724   -0.9184   -2.5552 O   0  0  0  0  0  0  0  0  0  0  0  0
   -3.0250    1.0990   -2.1760 O   0  0  0  0  0  0  0  0  0  0  0  0
   -4.3806    0.1096   -0.1087 C   0  0  0  0  0  0  0  0  0  0  0  0
   -5.4177   -0.7342    0.3155 C   0  0  0  0  0  0  0  0  0  0  0  0
   -5.7568   -1.5434   -0.3474 H   0  0  0  0  0  0  0  0  0  0  0  0
   -5.9985   -0.5139    1.5693 C   0  0  0  0  0  0  0  0  0  0  0  0
   -6.8150   -1.1702    1.9108 H   0  0  0  0  0  0  0  0  0  0  0  0
   -5.5589    0.5372    2.4045 C   0  0  0  0  0  0  0  0  0  0  0  0
   -4.5168    1.3683    1.9448 C   0  0  0  0  0  0  0  0  0  0  0  0
   -4.1657    2.1948    2.5829 H   0  0  0  0  0  0  0  0  0  0  0  0
   -3.9232    1.1654    0.6912 C   0  0  0  0  0  0  0  0  0  0  0  0
   -3.1129    1.8116    0.3236 H   0  0  0  0  0  0  0  0  0  0  0  0
   -6.2062    0.7661    3.7468 C   0  0  0  0  0  0  0  0  0  0  0  0
   -5.6737    1.5405    4.3320 H   0  0  0  0  0  0  0  0  0  0  0  0
   -6.2278   -0.1656    4.3487 H   0  0  0  0  0  0  0  0  0  0  0  0
   -7.2602    1.0966    3.6310 H   0  0  0  0  0  0  0  0  0  0  0  0
  2  3  1  0  0  0  0
  3  1  1  0  0  0  0
  4  3  2  0  0  0  0
  5  4  1  0  0  0  0
  5  8  1  0  0  0  0
  6  5  2  0  0  0  0
  7  5  2  0  0  0  0
  8  9  2  0  0  0  0
  8 16  1  0  0  0  0
  9 11  1  0  0  0  0
 10  9  1  0  0  0  0
 11 12  1  0  0  0  0
 11 13  2  0  0  0  0
 13 18  1  0  0  0  0
 14 13  1  0  0  0  0
 14 15  1  0  0  0  0
 16 14  2  0  0  0  0
 17 16  1  0  0  0  0
 18 19  1  0  0  0  0
 18 20  1  0  0  0  0
 21 18  1  0  0  0  0
M  END
