1,2
q = -1.0, confidence = 0.0

 57 58  0  0  0  0  0  0  0  0999 V2000
    0.4660   -0.2037    1.7482 S   0  0  0  0  0  0  0  0  0  0  0  0
   -0.2632    2.0673   -0.4833 S   0  0  0  0  0  0  0  0  0  0  0  0
   -1.9566   -0.2017    0.2033 B   0  0  0  0  0  0  0  0  0  0  0  0
   -1.3484   -0.0128    1.7349 C   0  0  0  0  0  0  0  0  0  0  0  0
   -1.7423   -0.7683    2.4442 H   0  0  0  0  0  0  0  0  0  0  0  0
   -1.5950    0.9925    2.1363 H   0  0  0  0  0  0  0  0  0  0  0  0
   -1.8843    1.2370   -0.6122 C   0  0  0  0  0  0  0  0  0  0  0  0
   -2.6196    1.9559   -0.1979 H   0  0  0  0  0  0  0  0  0  0  0  0
   -2.1214    1.0857   -1.6854 H   0  0  0  0  0  0  0  0  0  0  0  0
   -4.2290   -1.3791   -0.5921 C   0  0  0  0  0  0  0  0  0  0  0  0
   -3.6393   -1.9018   -1.3626 H   0  0  0  0  0  0  0  0  0  0  0  0
   -5.6155   -1.5970   -0.5335 C   0  0  0  0  0  0  0  0  0  0  0  0
   -6.0945   -2.2779   -1.2557 H   0  0  0  0  0  0  0  0  0  0  0  0
   -6.3913   -0.9551    0.4445 C   0  0  0  0  0  0  0  0  0  0  0  0
   -7.4779   -1.1268    0.4975 H   0  0  0  0  0  0  0  0  0  0  0  0
   -5.7626   -0.0915    1.3559 C   0  0  0  0  0  0  0  0  0  0  0  0
   -6.3572    0.4199    2.1303 H   0  0  0  0  0  0  0  0  0  0  0  0
   -4.3765    0.1202    1.2813 C   0  0  0  0  0  0  0  0  0  0  0  0
   -3.9134    0.8101    2.0076 H   0  0  0  0  0  0  0  0  0  0  0  0
   -3.5651   -0.5166    0.3112 C   0  0  0  0  0  0  0  0  0  0  0  0
   -0.8426   -1.3461   -1.9640 C   0  0  0  0  0  0  0  0  0  0  0  0
   -0.9046   -0.3813   -2.4905 H   0  0  0  0  0  0  0  0  0  0  0  0
   -0.4233   -2.4740   -2.6918 C   0  0  0  0  0  0  0  0  0  0  0  0
   -0.1607   -2.3739   -3.7576 H   0  0  0  0  0  0  0  0  0  0  0  0
   -0.3497   -3.7274   -2.0658 C   0  0  0  0  0  0  0  0  0  0  0  0
   -0.0351   -4.6179   -2.6321 H   0  0  0  0  0  0  0  0  0  0  0  0
   -0.6768   -3.8283   -0.7022 C   0  0  0  0  0  0  0  0  0  0  0  0
   -0.6169   -4.8037   -0.1932 H   0  0  0  0  0  0  0  0  0  0  0  0
   -1.0943   -2.6924    0.0073 C   0  0  0  0  0  0  0  0  0  0  0  0
   -1.3751   -2.8058    1.0675 H   0  0  0  0  0  0  0  0  0  0  0  0
   -1.2202   -1.4179   -0.6022 C   0  0  0  0  0  0  0  0  0  0  0  0
    1.0465    0.8226    3.2275 C   0  0  0  0  0  0  0  0  0  0  0  0
    2.5296    0.4893    3.4185 C   0  0  0  0  0  0  0  0  0  0  0  0
    2.9262    1.0600    4.2842 H   0  0  0  0  0  0  0  0  0  0  0  0
    3.1262    0.7661    2.5275 H   0  0  0  0  0  0  0  0  0  0  0  0
    2.6799   -0.5897    3.6210 H   0  0  0  0  0  0  0  0  0  0  0  0
    0.2389    0.3715    4.4491 C   0  0  0  0  0  0  0  0  0  0  0  0
    0.6228    0.8878    5.3539 H   0  0  0  0  0  0  0  0  0  0  0  0
    0.3314   -0.7214    4.6104 H   0  0  0  0  0  0  0  0  0  0  0  0
   -0.8352    0.6189    4.3496 H   0  0  0  0  0  0  0  0  0  0  0  0
    0.8559    2.3133    2.9437 C   0  0  0  0  0  0  0  0  0  0  0  0
    1.1359    2.9048    3.8414 H   0  0  0  0  0  0  0  0  0  0  0  0
   -0.1950    2.5559    2.6905 H   0  0  0  0  0  0  0  0  0  0  0  0
    1.4878    2.6411    2.0950 H   0  0  0  0  0  0  0  0  0  0  0  0
   -0.1303    3.1685   -2.0102 C   0  0  0  0  0  0  0  0  0  0  0  0
   -0.0198    2.3342   -3.2852 C   0  0  0  0  0  0  0  0  0  0  0  0
    0.0677    3.0034   -4.1673 H   0  0  0  0  0  0  0  0  0  0  0  0
   -0.9189    1.7039   -3.4354 H   0  0  0  0  0  0  0  0  0  0  0  0
    0.8654    1.6720   -3.2584 H   0  0  0  0  0  0  0  0  0  0  0  0
    1.1217    4.0185   -1.7687 C   0  0  0  0  0  0  0  0  0  0  0  0
    1.2980    4.6871   -2.6370 H   0  0  0  0  0  0  0  0  0  0  0  0
    2.0177    3.3842   -1.6313 H   0  0  0  0  0  0  0  0  0  0  0  0
    1.0063    4.6474   -0.8636 H   0  0  0  0  0  0  0  0  0  0  0  0
   -1.3818    4.0537   -2.0333 C   0  0  0  0  0  0  0  0  0  0  0  0
   -1.2933    4.7924   -2.8574 H   0  0  0  0  0  0  0  0  0  0  0  0
   -1.4984    4.6108   -1.0821 H   0  0  0  0  0  0  0  0  0  0  0  0
   -2.3016    3.4626   -2.2066 H   0  0  0  0  0  0  0  0  0  0  0  0
  1 32  1  0  0  0  0
  3 20  1  0  0  0  0
  3  4  1  0  0  0  0
  4  1  1  0  0  0  0
  4  6  1  0  0  0  0
  4  5  1  0  0  0  0
  7  2  1  0  0  0  0
  7  8  1  0  0  0  0
  7  3  1  0  0  0  0
  9  7  1  0  0  0  0
 10 12  2  0  0  0  0
 10 20  1  0  0  0  0
 11 10  1  0  0  0  0
 12 14  1  0  0  0  0
 13 12  1  0  0  0  0
 14 15  1  0  0  0  0
 14 16  2  0  0  0  0
 16 17  1  0  0  0  0
 18 16  1  0  0  0  0
 18 19  1  0  0  0  0
 20 18  2  0  0  0  0
 21 31  1  0  0  0  0
 22 21  1  0  0  0  0
 23 25  1  0  0  0  0
 23 21  2  0  0  0  0
 24 23  1  0  0  0  0
 25 27  2  0  0  0  0
 26 25  1  0  0  0  0
 27 28  1  0  0  0  0
 27 29  1  0  0  0  0
 29 30  1  0  0  0  0
 31 29  2  0  0  0  0
 31  3  1  0  0  0  0
 32 33  1  0  0  0  0
 32 37  1  0  0  0  0
 33 36  1  0  0  0  0
 33 34  1  0  0  0  0
 35 33  1  0  0  0  0
 37 39  1  0  0  0  0
 37 38  1  0  0  0  0
 40 37  1  0  0  0  0
 41 32  1  0  0  0  0
 41 42  1  0  0  0  0
 43 41  1  0  0  0  0
 44 41  1  0  0  0  0
 45 50  1  0  0  0  0
 45  2  1  0  0  0  0
 46 49  1  0  0  0  0
 46 45  1  0  0  0  0
 47 46  1  0  0  0  0
 48 46  1  0  0  0  0
 50 52  1  0  0  0  0
 50 53  1  0  0  0  0
 51 50  1  0  0  0  0
 54 45  1  0  0  0  0
 54 56  1  0  0  0  0
 55 54  1  0  0  0  0
 57 54  1  0  0  0  0
M  END
