3,4
q = -2.0, confidence = 0.606

 19 19  0  0  0  0  0  0  0  0999 V2000
    4.3138    1.6865   -1.1924 S   0  0  0  0  0  0  0  0  0  0  0  0
    4.3140   -1.6857   -1.1928 S   0  0  0  0  0  0  0  0  0  0  0  0
    1.4262   -1.5487   -0.4813 S   0  0  0  0  0  1  0  0  0  0  0  0
    1.4261    1.5489   -0.4809 S   0  0  0  0  0  1  0  0  0  0  0  0
    4.8701   -0.0003    1.3965 O   0  0  0  0  0  0  0  0  0  0  0  0
    4.7389    2.2272    0.5198 C   0  0  0  0  0  0  0  0  0  0  0  0
    3.7893    2.4325    1.0534 H   0  0  0  0  0  0  0  0  0  0  0  0
    5.2886    3.1845    0.4133 H   0  0  0  0  0  0  0  0  0  0  0  0
    2.8780   -0.7018   -0.8548 C   0  0  0  0  0  0  0  0  0  0  0  0
    2.8779    0.7023   -0.8547 C   0  0  0  0  0  0  0  0  0  0  0  0
    4.7386   -2.2276    0.5191 C   0  0  0  0  0  0  0  0  0  0  0  0
    5.2882   -3.1848    0.4123 H   0  0  0  0  0  0  0  0  0  0  0  0
    3.7888   -2.4330    1.0524 H   0  0  0  0  0  0  0  0  0  0  0  0
    5.5915    1.2033    1.2564 C   0  0  0  0  0  0  0  0  0  0  0  0
    5.8773    1.6188    2.2562 H   0  0  0  0  0  0  0  0  0  0  0  0
    6.5353    1.0308    0.6875 H   0  0  0  0  0  0  0  0  0  0  0  0
    5.5911   -1.2041    1.2565 C   0  0  0  0  0  0  0  0  0  0  0  0
    6.5354   -1.0318    0.6883 H   0  0  0  0  0  0  0  0  0  0  0  0
    5.8762   -1.6200    2.2564 H   0  0  0  0  0  0  0  0  0  0  0  0
  1 10  1  0  0  0  0
  1  6  1  0  0  0  0
  2  9  1  0  0  0  0
  2 11  1  0  0  0  0
  6  7  1  0  0  0  0
  6 14  1  0  0  0  0
  8  6  1  0  0  0  0
  9 10  2  0  0  0  0
  9  3  1  0  0  0  0
 10  4  1  0  0  0  0
 11 13  1  0  0  0  0
 11 17  1  0  0  0  0
 12 11  1  0  0  0  0
 14  5  1  0  0  0  0
 14 15  1  0  0  0  0
 16 14  1  0  0  0  0
 17  5  1  0  0  0  0
 17 19  1  0  0  0  0
 18 17  1  0  0  0  0
M  END
