1,2
q = -2.0, confidence = 0.664

 17 17  0  0  0  0  0  0  0  0999 V2000
    0.7514   -1.8170    0.0114 S   0  0  0  0  0  1  0  0  0  0  0  0
    1.2277    1.0174   -0.0475 S   0  0  0  0  0  1  0  0  0  0  0  0
    3.9933    1.4721   -0.0523 O   0  0  0  0  0  0  0  0  0  0  0  0
    8.5917   -0.5598    0.0193 N   0  0  0  0  0  0  0  0  0  0  0  0
    1.9887   -0.5622   -0.0175 C   0  0  0  0  0  0  0  0  0  0  0  0
    3.3453   -0.8050   -0.0145 C   0  0  0  0  0  0  0  0  0  0  0  0
    3.6665   -1.8559    0.0004 H   0  0  0  0  0  0  0  0  0  0  0  0
    4.3173    0.2699   -0.0279 C   0  0  0  0  0  0  0  0  0  0  0  0
    5.7923   -0.0833   -0.0108 C   0  0  0  0  0  0  0  0  0  0  0  0
    6.7197    0.9764   -0.0345 C   0  0  0  0  0  0  0  0  0  0  0  0
    6.3324    2.0057   -0.0647 H   0  0  0  0  0  0  0  0  0  0  0  0
    8.0901    0.6879   -0.0185 C   0  0  0  0  0  0  0  0  0  0  0  0
    8.8287    1.5101   -0.0371 H   0  0  0  0  0  0  0  0  0  0  0  0
    7.7063   -1.5687    0.0423 C   0  0  0  0  0  0  0  0  0  0  0  0
    8.1284   -2.5900    0.0738 H   0  0  0  0  0  0  0  0  0  0  0  0
    6.3134   -1.3910    0.0288 C   0  0  0  0  0  0  0  0  0  0  0  0
    5.6564   -2.2723    0.0505 H   0  0  0  0  0  0  0  0  0  0  0  0
  2  5  1  0  0  0  0
  3  8  2  0  0  0  0
  4 14  1  0  0  0  0
  5  6  2  0  0  0  0
  5  1  1  0  0  0  0
  6  7  1  0  0  0  0
  8  6  1  0  0  0  0
  8  9  1  0  0  0  0
  9 16  1  0  0  0  0
 10 12  1  0  0  0  0
 10  9  2  0  0  0  0
 11 10  1  0  0  0  0
 12  4  2  0  0  0  0
 13 12  1  0  0  0  0
 14 15  1  0  0  0  0
 16 14  2  0  0  0  0
 16 17  1  0  0  0  0
M  END
