5,38
q = 0.0, confidence = 0.998

 42 45  0  0  0  0  0  0  0  0999 V2000
    1.4998   -1.7485   -2.8707 C   0  0  0  0  0  0  0  0  0  0  0  0
    2.4590   -1.2859   -3.1736 H   0  0  0  0  0  0  0  0  0  0  0  0
    0.8120   -1.8735   -3.7279 H   0  0  0  0  0  0  0  0  0  0  0  0
    1.7100   -2.7076   -2.3633 H   0  0  0  0  0  0  0  0  0  0  0  0
    0.8122   -0.5305   -1.7120 S   0  0  0  0  0  0  0  0  0  0  0  0
   -1.4914   -0.6214   -0.2264 C   0  0  0  0  0  0  0  0  0  0  0  0
   -0.6625   -1.3572   -1.0862 C   0  0  0  0  0  0  0  0  0  0  0  0
   -0.9941   -2.6925   -1.4481 C   0  0  0  0  0  0  0  0  0  0  0  0
   -0.3409   -3.2661   -2.1168 H   0  0  0  0  0  0  0  0  0  0  0  0
   -2.1487   -3.2787   -0.9599 C   0  0  0  0  0  0  0  0  0  0  0  0
   -2.4017   -4.3107   -1.2479 H   0  0  0  0  0  0  0  0  0  0  0  0
   -3.0209   -2.5755   -0.0820 C   0  0  0  0  0  0  0  0  0  0  0  0
   -2.6836   -1.2262    0.2984 C   0  0  0  0  0  0  0  0  0  0  0  0
   -3.5518   -0.5319    1.1934 C   0  0  0  0  0  0  0  0  0  0  0  0
   -3.2970    0.4947    1.4926 H   0  0  0  0  0  0  0  0  0  0  0  0
   -4.7001   -1.1383    1.6806 C   0  0  0  0  0  0  0  0  0  0  0  0
   -5.3578   -0.5873    2.3697 H   0  0  0  0  0  0  0  0  0  0  0  0
   -5.0351   -2.4650    1.2988 C   0  0  0  0  0  0  0  0  0  0  0  0
   -5.9498   -2.9330    1.6926 H   0  0  0  0  0  0  0  0  0  0  0  0
   -4.2093   -3.1680    0.4351 C   0  0  0  0  0  0  0  0  0  0  0  0
   -4.4573   -4.1985    0.1371 H   0  0  0  0  0  0  0  0  0  0  0  0
   -1.1226    0.7687    0.1801 C   0  0  0  0  0  0  0  0  0  0  0  0
   -0.1143    0.9577    1.1309 C   0  0  0  0  0  0  0  0  0  0  0  0
    0.2796    2.2542    1.5568 C   0  0  0  0  0  0  0  0  0  0  0  0
    1.1016    2.3742    2.2750 H   0  0  0  0  0  0  0  0  0  0  0  0
   -0.3621    3.3632    1.0344 C   0  0  0  0  0  0  0  0  0  0  0  0
   -0.0633    4.3720    1.3583 H   0  0  0  0  0  0  0  0  0  0  0  0
   -1.3924    3.2317    0.0578 C   0  0  0  0  0  0  0  0  0  0  0  0
   -1.7750    1.9133   -0.3874 C   0  0  0  0  0  0  0  0  0  0  0  0
   -2.7960    1.7911   -1.3757 C   0  0  0  0  0  0  0  0  0  0  0  0
   -3.0843    0.7875   -1.7206 H   0  0  0  0  0  0  0  0  0  0  0  0
   -3.4142    2.9177   -1.8977 C   0  0  0  0  0  0  0  0  0  0  0  0
   -4.1983    2.8063   -2.6617 H   0  0  0  0  0  0  0  0  0  0  0  0
   -3.0414    4.2155   -1.4567 C   0  0  0  0  0  0  0  0  0  0  0  0
   -3.5393    5.1005   -1.8802 H   0  0  0  0  0  0  0  0  0  0  0  0
   -2.0498    4.3666   -0.4990 C   0  0  0  0  0  0  0  0  0  0  0  0
   -1.7509    5.3692   -0.1562 H   0  0  0  0  0  0  0  0  0  0  0  0
    0.7469   -0.5350    1.6640 S   0  0  0  0  0  0  0  0  0  0  0  0
    1.3572   -0.0834    3.3150 C   0  0  0  0  0  0  0  0  0  0  0  0
    1.7469   -1.0233    3.7468 H   0  0  0  0  0  0  0  0  0  0  0  0
    0.5004    0.2882    3.9081 H   0  0  0  0  0  0  0  0  0  0  0  0
    2.1961    0.6337    3.2375 H   0  0  0  0  0  0  0  0  0  0  0  0
  1  4  1  0  0  0  0
  1  5  1  0  0  0  0
  2  1  1  0  0  0  0
  3  1  1  0  0  0  0
  5  7  1  0  0  0  0
  6 22  1  0  0  0  0
  6 13  1  0  0  0  0
  7  6  2  0  0  0  0
  8  7  1  0  0  0  0
  8 10  2  0  0  0  0
  9  8  1  0  0  0  0
 10 12  1  0  0  0  0
 11 10  1  0  0  0  0
 12 13  2  0  0  0  0
 12 20  1  0  0  0  0
 13 14  1  0  0  0  0
 14 15  1  0  0  0  0
 14 16  2  0  0  0  0
 16 17  1  0  0  0  0
 18 16  1  0  0  0  0
 18 19  1  0  0  0  0
 20 18  2  0  0  0  0
 21 20  1  0  0  0  0
 22 23  1  0  0  0  0
 23 24  2  0  0  0  0
 23 38  1  0  0  0  0
 24 25  1  0  0  0  0
 26 27  1  0  0  0  0
 26 24  1  0  0  0  0
 28 26  2  0  0  0  0
 29 28  1  0  0  0  0
 29 22  2  0  0  0  0
 30 29  1  0  0  0  0
 31 30  1  0  0  0  0
 32 34  1  0  0  0  0
 32 30  2  0  0  0  0
 33 32  1  0  0  0  0
 34 36  2  0  0  0  0
 35 34  1  0  0  0  0
 36 37  1  0  0  0  0
 36 28  1  0  0  0  0
 38 39  1  0  0  0  0
 39 40  1  0  0  0  0
 39 41  1  0  0  0  0
 42 39  1  0  0  0  0
M  END
