1,2
q = 0.0, confidence = 0.946

 29 29  0  0  1  0  0  0  0  0999 V2000
   -0.8475   -1.6010    0.0475 S   0  0  0  0  0  1  0  0  0  0  0  0
   -0.8279    1.5929   -0.2467 S   0  0  0  0  0  1  0  0  0  0  0  0
   -3.4985   -2.8750   -0.4042 C   0  0  0  0  0  0  0  0  0  0  0  0
   -2.5498   -3.3058   -0.7966 H   0  0  0  0  0  0  0  0  0  0  0  0
   -4.3172   -3.2483   -1.0496 H   0  0  0  0  0  0  0  0  0  0  0  0
   -5.4777    0.0032   -0.3009 C   0  0  0  0  0  0  0  0  0  0  0  0
   -6.1581   -0.6964    0.2277 H   0  0  0  0  0  0  0  0  0  0  0  0
   -6.1133    0.7033   -0.8824 H   0  0  0  0  0  0  0  0  0  0  0  0
   -3.4733    1.4184    0.1134 N   0  0  0  0  0  0  0  0  0  0  0  0
   -2.3104   -0.7265   -0.2241 C   0  0  2  0  0  3  0  0  0  0  0  0
   -4.5428   -0.7386   -1.2618 C   0  0  0  0  0  0  0  0  0  0  0  0
   -5.0934   -1.4939   -1.8548 H   0  0  0  0  0  0  0  0  0  0  0  0
   -4.1059   -0.0180   -1.9838 H   0  0  0  0  0  0  0  0  0  0  0  0
   -4.6220    0.7477    0.7286 C   0  0  0  0  0  0  0  0  0  0  0  0
   -5.2149    1.5100    1.2704 H   0  0  0  0  0  0  0  0  0  0  0  0
   -4.2486    0.0342    1.4921 H   0  0  0  0  0  0  0  0  0  0  0  0
   -3.4448   -1.4209   -0.5738 N   0  0  0  0  0  0  0  0  0  0  0  0
   -2.3113    0.7237   -0.1205 C   0  0  2  0  0  3  0  0  0  0  0  0
   -3.1902    3.6011    1.3232 C   0  0  0  0  0  0  0  0  0  0  0  0
   -3.8996    3.3262    2.1300 H   0  0  0  0  0  0  0  0  0  0  0  0
   -3.2541    4.6973    1.1756 H   0  0  0  0  0  0  0  0  0  0  0  0
   -2.1640    3.3582    1.6602 H   0  0  0  0  0  0  0  0  0  0  0  0
   -3.7110   -3.3098    1.0466 C   0  0  0  0  0  0  0  0  0  0  0  0
   -2.8897   -2.9433    1.6937 H   0  0  0  0  0  0  0  0  0  0  0  0
   -3.7233   -4.4156    1.1145 H   0  0  0  0  0  0  0  0  0  0  0  0
   -4.6727   -2.9282    1.4447 H   0  0  0  0  0  0  0  0  0  0  0  0
   -3.5203    2.8795    0.0145 C   0  0  0  0  0  0  0  0  0  0  0  0
   -4.5400    3.1496   -0.3343 H   0  0  0  0  0  0  0  0  0  0  0  0
   -2.8143    3.1864   -0.7837 H   0  0  0  0  0  0  0  0  0  0  0  0
  3 23  1  0  0  0  0
  4  3  1  0  0  0  0
  5  3  1  0  0  0  0
  6  7  1  0  0  0  0
  6 14  1  0  0  0  0
  8  6  1  0  0  0  0
  9 14  1  0  0  0  0
 10 18  1  0  0  0  0
 10  1  1  6  0  0  0
 11 17  1  0  0  0  0
 11  6  1  0  0  0  0
 12 11  1  0  0  0  0
 13 11  1  0  0  0  0
 14 15  1  0  0  0  0
 14 16  1  0  0  0  0
 17  3  1  0  0  0  0
 17 10  1  0  0  0  0
 18  2  1  1  0  0  0
 18  9  1  0  0  0  0
 19 22  1  0  0  0  0
 19 20  1  0  0  0  0
 21 19  1  0  0  0  0
 23 25  1  0  0  0  0
 23 26  1  0  0  0  0
 23 24  1  0  0  0  0
 27  9  1  0  0  0  0
 27 19  1  0  0  0  0
 28 27  1  0  0  0  0
 29 27  1  0  0  0  0
M  END
