1,2
q = 0.0, confidence = 0.616

 50 51  0  0  0  0  0  0  0  0999 V2000
   -0.7791   -1.5564   -0.2119 S   0  0  0  0  0  1  0  0  0  0  0  0
   -0.7399    1.4909    0.1715 S   0  0  0  0  0  1  0  0  0  0  0  0
    0.7459   -0.7544   -0.1261 C   0  0  0  0  0  0  0  0  0  0  0  0
    2.0330   -2.8622    0.2752 C   0  0  0  0  0  0  0  0  0  0  0  0
    3.0448   -1.0900   -1.0614 C   0  0  0  0  0  0  0  0  0  0  0  0
    1.9547   -1.5758   -0.3063 C   0  0  0  0  0  0  0  0  0  0  0  0
    3.3788   -4.8556    0.6922 O   0  0  0  0  0  0  0  0  0  0  0  0
    5.6013    3.5424    0.5803 O   0  0  0  0  0  0  0  0  0  0  0  0
    0.7597    0.6505    0.0780 C   0  0  0  0  0  0  0  0  0  0  0  0
    4.2204   -1.8430   -1.1938 C   0  0  0  0  0  0  0  0  0  0  0  0
    3.2017   -3.6273    0.1471 C   0  0  0  0  0  0  0  0  0  0  0  0
    3.5759    4.5816   -0.9470 O   0  0  0  0  0  0  0  0  0  0  0  0
    5.2919    1.2927    1.9436 O   0  0  0  0  0  0  0  0  0  0  0  0
    4.2267    1.6917    1.2027 C   0  0  0  0  0  0  0  0  0  0  0  0
    5.4118   -3.9245   -0.6176 O   0  0  0  0  0  0  0  0  0  0  0  0
    2.1340    2.6798   -0.4147 C   0  0  0  0  0  0  0  0  0  0  0  0
    3.0289    0.9698    1.0869 C   0  0  0  0  0  0  0  0  0  0  0  0
    4.3305   -3.1157   -0.5642 C   0  0  0  0  0  0  0  0  0  0  0  0
    3.3291    3.4116   -0.2966 C   0  0  0  0  0  0  0  0  0  0  0  0
    5.2973   -1.4291   -1.9205 O   0  0  0  0  0  0  0  0  0  0  0  0
    1.9887    1.4479    0.2600 C   0  0  0  0  0  0  0  0  0  0  0  0
    5.6267    4.8364    1.1836 C   0  0  0  0  0  0  0  0  0  0  0  0
    4.3964    2.9188    0.5028 C   0  0  0  0  0  0  0  0  0  0  0  0
    2.2943   -5.4340    1.3952 C   0  0  0  0  0  0  0  0  0  0  0  0
    5.2245    0.0231    2.5684 C   0  0  0  0  0  0  0  0  0  0  0  0
    5.3134   -0.0908   -2.3925 C   0  0  0  0  0  0  0  0  0  0  0  0
    2.5544    5.1216   -1.7681 C   0  0  0  0  0  0  0  0  0  0  0  0
    6.7304   -3.3825   -0.5750 C   0  0  0  0  0  0  0  0  0  0  0  0
    1.1802   -3.2319    0.8579 H   0  0  0  0  0  0  0  0  0  0  0  0
    2.9601   -0.1188   -1.5596 H   0  0  0  0  0  0  0  0  0  0  0  0
    1.3163    3.0309   -1.0562 H   0  0  0  0  0  0  0  0  0  0  0  0
    2.8893    0.0283    1.6290 H   0  0  0  0  0  0  0  0  0  0  0  0
    6.6887    5.1444    1.2142 H   0  0  0  0  0  0  0  0  0  0  0  0
    5.2331    4.7963    2.2232 H   0  0  0  0  0  0  0  0  0  0  0  0
    5.0441    5.5771    0.5982 H   0  0  0  0  0  0  0  0  0  0  0  0
    2.6347   -6.4330    1.7241 H   0  0  0  0  0  0  0  0  0  0  0  0
    1.3966   -5.5492    0.7480 H   0  0  0  0  0  0  0  0  0  0  0  0
    2.0124   -4.8345    2.2902 H   0  0  0  0  0  0  0  0  0  0  0  0
    6.2001   -0.1302    3.0657 H   0  0  0  0  0  0  0  0  0  0  0  0
    5.0564   -0.7934    1.8295 H   0  0  0  0  0  0  0  0  0  0  0  0
    4.4190   -0.0222    3.3353 H   0  0  0  0  0  0  0  0  0  0  0  0
    6.3037    0.0601   -2.8602 H   0  0  0  0  0  0  0  0  0  0  0  0
    5.1833    0.6405   -1.5637 H   0  0  0  0  0  0  0  0  0  0  0  0
    4.5252    0.0873   -3.1570 H   0  0  0  0  0  0  0  0  0  0  0  0
    2.9529    6.0675   -2.1782 H   0  0  0  0  0  0  0  0  0  0  0  0
    1.6285    5.3356   -1.1899 H   0  0  0  0  0  0  0  0  0  0  0  0
    2.3001    4.4402   -2.6101 H   0  0  0  0  0  0  0  0  0  0  0  0
    7.3876   -4.2146   -0.2571 H   0  0  0  0  0  0  0  0  0  0  0  0
    6.8029   -2.5572    0.1660 H   0  0  0  0  0  0  0  0  0  0  0  0
    7.0562   -3.0023   -1.5626 H   0  0  0  0  0  0  0  0  0  0  0  0
  1  3  1  0  0  0  0
  3  9  2  0  0  0  0
  4 29  1  0  0  0  0
  5  6  1  0  0  0  0
  6  3  1  0  0  0  0
  6  4  2  0  0  0  0
  7 24  1  0  0  0  0
  8 22  1  0  0  0  0
  9  2  1  0  0  0  0
  9 21  1  0  0  0  0
 10  5  2  0  0  0  0
 10 18  1  0  0  0  0
 11  4  1  0  0  0  0
 11  7  1  0  0  0  0
 12 19  1  0  0  0  0
 13 25  1  0  0  0  0
 14 13  1  0  0  0  0
 15 28  1  0  0  0  0
 15 18  1  0  0  0  0
 16 19  2  0  0  0  0
 16 21  1  0  0  0  0
 17 14  1  0  0  0  0
 17 32  1  0  0  0  0
 18 11  2  0  0  0  0
 19 23  1  0  0  0  0
 20 10  1  0  0  0  0
 21 17  2  0  0  0  0
 22 33  1  0  0  0  0
 22 34  1  0  0  0  0
 23  8  1  0  0  0  0
 23 14  2  0  0  0  0
 24 36  1  0  0  0  0
 24 38  1  0  0  0  0
 25 39  1  0  0  0  0
 25 41  1  0  0  0  0
 26 20  1  0  0  0  0
 26 43  1  0  0  0  0
 27 46  1  0  0  0  0
 27 12  1  0  0  0  0
 28 48  1  0  0  0  0
 28 49  1  0  0  0  0
 30  5  1  0  0  0  0
 31 16  1  0  0  0  0
 35 22  1  0  0  0  0
 37 24  1  0  0  0  0
 40 25  1  0  0  0  0
 42 26  1  0  0  0  0
 44 26  1  0  0  0  0
 45 27  1  0  0  0  0
 47 27  1  0  0  0  0
 50 28  1  0  0  0  0
M  END
