1,2
q = 0.0, confidence = 0.998

 21 21  0  0  0  0  0  0  0  0999 V2000
   -0.6807    1.5390   -0.9878 S   0  0  0  0  0  0  0  0  0  0  0  0
   -0.5760   -1.7561   -0.7389 S   0  0  0  0  0  0  0  0  0  0  0  0
   -1.2486    0.1603    1.7626 O   0  0  0  0  0  0  0  0  0  0  0  0
   -2.2057    0.5370   -1.3670 C   0  0  0  0  0  0  0  0  0  0  0  0
   -1.9011   -0.9154   -1.7180 C   0  0  0  0  0  0  0  0  0  0  0  0
   -1.3029   -2.1070    0.9180 C   0  0  0  0  0  0  0  0  0  0  0  0
   -2.0535   -0.9870    1.6313 C   0  0  0  0  0  0  0  0  0  0  0  0
   -1.8602    1.4222    1.6302 C   0  0  0  0  0  0  0  0  0  0  0  0
   -1.1102    2.3112    0.6378 C   0  0  0  0  0  0  0  0  0  0  0  0
   -2.8863    0.6131   -0.5006 H   0  0  0  0  0  0  0  0  0  0  0  0
   -2.7059    1.0329   -2.2233 H   0  0  0  0  0  0  0  0  0  0  0  0
   -1.4960   -0.9923   -2.7474 H   0  0  0  0  0  0  0  0  0  0  0  0
   -2.8207   -1.5366   -1.6801 H   0  0  0  0  0  0  0  0  0  0  0  0
   -1.9554   -2.9990    0.8205 H   0  0  0  0  0  0  0  0  0  0  0  0
   -0.3862   -2.3955    1.4753 H   0  0  0  0  0  0  0  0  0  0  0  0
   -2.3555   -1.3804    2.6330 H   0  0  0  0  0  0  0  0  0  0  0  0
   -3.0023   -0.7520    1.0914 H   0  0  0  0  0  0  0  0  0  0  0  0
   -2.9305    1.3104    1.3327 H   0  0  0  0  0  0  0  0  0  0  0  0
   -1.8690    1.9574    2.6091 H   0  0  0  0  0  0  0  0  0  0  0  0
   -0.0931    2.5762    0.9997 H   0  0  0  0  0  0  0  0  0  0  0  0
   -1.6820    3.2425    0.4466 H   0  0  0  0  0  0  0  0  0  0  0  0
  1  9  1  0  0  0  0
  2  6  1  0  0  0  0
  4  1  1  0  0  0  0
  4 10  1  0  0  0  0
  5 13  1  0  0  0  0
  5  4  1  0  0  0  0
  5  2  1  0  0  0  0
  6 15  1  0  0  0  0
  6  7  1  0  0  0  0
  7  3  1  0  0  0  0
  7 16  1  0  0  0  0
  8  3  1  0  0  0  0
  8 19  1  0  0  0  0
  9 20  1  0  0  0  0
  9  8  1  0  0  0  0
 11  4  1  0  0  0  0
 12  5  1  0  0  0  0
 14  6  1  0  0  0  0
 17  7  1  0  0  0  0
 18  8  1  0  0  0  0
 21  9  1  0  0  0  0
M  END
