1,2
q = -2.0, confidence = 0.59

 21 21  0  0  1  0  0  0  0  0999 V2000
    0.6122   -1.7544    0.1837 S   0  0  0  0  0  1  0  0  0  0  0  0
    0.8611    1.1475    0.3438 S   0  0  0  0  0  1  0  0  0  0  0  0
    3.0319   -0.5915    0.4820 N   0  0  0  0  0  0  0  0  0  0  0  0
    1.7792   -0.4133    0.3623 C   0  0  0  0  0  0  0  0  0  0  0  0
    3.9339    0.5355    0.6387 C   0  0  1  0  0  0  0  0  0  0  0  0
    3.5198    1.4442    0.1347 H   0  0  0  0  0  0  0  0  0  0  0  0
    4.0820    0.8651    2.1386 C   0  0  0  0  0  0  0  0  0  0  0  0
    3.0969    1.1495    2.5597 H   0  0  0  0  0  0  0  0  0  0  0  0
    4.7920    1.7022    2.2918 H   0  0  0  0  0  0  0  0  0  0  0  0
    4.4624   -0.0218    2.6835 H   0  0  0  0  0  0  0  0  0  0  0  0
    5.2917    0.2373    0.0130 C   0  0  0  0  0  0  0  0  0  0  0  0
    5.6931   -1.0811   -0.2689 C   0  0  0  0  0  0  0  0  0  0  0  0
    4.9753   -1.8903   -0.0698 H   0  0  0  0  0  0  0  0  0  0  0  0
    6.9650   -1.3405   -0.8030 C   0  0  0  0  0  0  0  0  0  0  0  0
    7.2643   -2.3781   -1.0201 H   0  0  0  0  0  0  0  0  0  0  0  0
    7.8528   -0.2856   -1.0663 C   0  0  0  0  0  0  0  0  0  0  0  0
    8.8491   -0.4895   -1.4884 H   0  0  0  0  0  0  0  0  0  0  0  0
    7.4571    1.0347   -0.7948 C   0  0  0  0  0  0  0  0  0  0  0  0
    8.1418    1.8708   -1.0066 H   0  0  0  0  0  0  0  0  0  0  0  0
    6.1860    1.2912   -0.2607 C   0  0  0  0  0  0  0  0  0  0  0  0
    5.8772    2.3300   -0.0571 H   0  0  0  0  0  0  0  0  0  0  0  0
  1  4  1  0  0  0  0
  2  4  1  0  0  0  0
  3  5  1  0  0  0  0
  4  3  2  0  0  0  0
  5  6  1  6  0  0  0
  5  7  1  0  0  0  0
  7  9  1  0  0  0  0
  7  8  1  0  0  0  0
  7 10  1  0  0  0  0
 11  5  1  0  0  0  0
 12 13  1  0  0  0  0
 12 11  2  0  0  0  0
 14 12  1  0  0  0  0
 15 14  1  0  0  0  0
 16 14  2  0  0  0  0
 16 18  1  0  0  0  0
 17 16  1  0  0  0  0
 18 20  2  0  0  0  0
 19 18  1  0  0  0  0
 20 21  1  0  0  0  0
 20 11  1  0  0  0  0
M  END
