1,2
q = -1.0, confidence = 0.0

 16 16  0  0  0  0  0  0  0  0999 V2000
    1.5500    1.5067    0.2667 S   0  0  0  0  0  0  0  0  0  0  0  0
    1.5007   -1.5445   -0.4328 S   0  0  0  0  0  1  0  0  0  0  0  0
    4.3658   -1.8804   -0.0190 S   0  0  0  0  0  0  0  0  0  0  0  0
    4.5273    1.5369    0.6238 S   0  0  0  0  0  0  0  0  0  0  0  0
    3.0724    0.5818    0.3243 C   0  0  0  0  0  0  0  0  0  0  0  0
    3.0064   -0.7575    0.0312 C   0  0  0  0  0  0  0  0  0  0  0  0
    5.8736   -0.8141    0.0120 C   0  0  0  0  0  0  0  0  0  0  0  0
    5.6585    0.6097   -0.4801 C   0  0  0  0  0  0  0  0  0  0  0  0
    1.6210    2.2503   -1.4115 C   0  0  0  0  0  0  0  0  0  0  0  0
    6.2795   -0.8046    1.0424 H   0  0  0  0  0  0  0  0  0  0  0  0
    6.5941   -1.3480   -0.6435 H   0  0  0  0  0  0  0  0  0  0  0  0
    5.2584    0.6331   -1.5140 H   0  0  0  0  0  0  0  0  0  0  0  0
    6.6180    1.1658   -0.4573 H   0  0  0  0  0  0  0  0  0  0  0  0
    2.4995    2.9231   -1.4425 H   0  0  0  0  0  0  0  0  0  0  0  0
    1.7023    1.4450   -2.1640 H   0  0  0  0  0  0  0  0  0  0  0  0
    0.6796    2.8166   -1.5416 H   0  0  0  0  0  0  0  0  0  0  0  0
  1  5  1  0  0  0  0
  2  6  1  0  0  0  0
  3  7  1  0  0  0  0
  3  6  1  0  0  0  0
  5  4  1  0  0  0  0
  6  5  2  0  0  0  0
  7 10  1  0  0  0  0
  8 13  1  0  0  0  0
  8  7  1  0  0  0  0
  8  4  1  0  0  0  0
  9  1  1  0  0  0  0
 11  7  1  0  0  0  0
 12  8  1  0  0  0  0
 14  9  1  0  0  0  0
 15  9  1  0  0  0  0
 16  9  1  0  0  0  0
M  END
