1,2
q = -2.0, confidence = 0.528

 16 16  0  0  0  0  0  0  0  0999 V2000
    1.4229   -1.5798    0.2613 S   0  0  0  0  0  5  0  0  0  0  0  0
    1.4229    1.5799    0.2606 S   0  0  0  0  0  5  0  0  0  0  0  0
    1.5012   -2.0772    1.6683 O   0  0  0  0  0  0  0  0  0  0  0  0
    1.3027   -2.6315   -0.8136 O   0  0  0  0  0  0  0  0  0  0  0  0
    1.5012    2.0780    1.6674 O   0  0  0  0  0  0  0  0  0  0  0  0
    1.3026    2.6311   -0.8148 O   0  0  0  0  0  0  0  0  0  0  0  0
    2.9826   -0.6964   -0.0836 C   0  0  0  0  0  0  0  0  0  0  0  0
    4.1643   -1.4166   -0.3062 C   0  0  0  0  0  0  0  0  0  0  0  0
    5.3520   -0.7045   -0.5245 C   0  0  0  0  0  0  0  0  0  0  0  0
    5.3520    0.7043   -0.5247 C   0  0  0  0  0  0  0  0  0  0  0  0
    4.1643    1.4165   -0.3067 C   0  0  0  0  0  0  0  0  0  0  0  0
    2.9826    0.6964   -0.0839 C   0  0  0  0  0  0  0  0  0  0  0  0
    4.1366   -2.5165   -0.3201 H   0  0  0  0  0  0  0  0  0  0  0  0
    6.2893   -1.2520   -0.7057 H   0  0  0  0  0  0  0  0  0  0  0  0
    6.2893    1.2518   -0.7062 H   0  0  0  0  0  0  0  0  0  0  0  0
    4.1366    2.5164   -0.3211 H   0  0  0  0  0  0  0  0  0  0  0  0
  1  3  2  0  0  0  0
  2  5  2  0  0  0  0
  4  1  2  0  0  0  0
  6  2  2  0  0  0  0
  7  1  1  0  0  0  0
  8  7  2  0  0  0  0
  9  8  1  0  0  0  0
 10  9  2  0  0  0  0
 10 11  1  0  0  0  0
 11 12  2  0  0  0  0
 12  7  1  0  0  0  0
 12  2  1  0  0  0  0
 13  8  1  0  0  0  0
 14  9  1  0  0  0  0
 15 10  1  0  0  0  0
 16 11  1  0  0  0  0
M  END
