1,2
q = -1.0, confidence = 0.002

 34 36  0  0  0  0  0  0  0  0999 V2000
   -0.4427   -0.1209    1.5138 S   0  0  0  0  0  1  0  0  0  0  0  0
   -0.5011   -0.3691   -1.4405 S   0  0  0  0  0  1  0  0  0  0  0  0
   -1.2638   -0.4970    0.0716 C   0  0  0  0  0  3  0  0  0  0  0  0
   -2.6825   -0.9714    0.0752 C   0  0  0  0  0  0  0  0  0  0  0  0
   -2.9456   -2.3608   -0.0748 C   0  0  0  0  0  0  0  0  0  0  0  0
   -4.2718   -2.8003   -0.2555 C   0  0  0  0  0  0  0  0  0  0  0  0
   -4.4606   -3.8791   -0.3651 H   0  0  0  0  0  0  0  0  0  0  0  0
   -5.3337   -1.8879   -0.2816 C   0  0  0  0  0  0  0  0  0  0  0  0
   -6.3660   -2.2431   -0.4203 H   0  0  0  0  0  0  0  0  0  0  0  0
   -5.0757   -0.5222   -0.1167 C   0  0  0  0  0  0  0  0  0  0  0  0
   -5.9029    0.2039   -0.1209 H   0  0  0  0  0  0  0  0  0  0  0  0
   -3.7613   -0.0452    0.0700 C   0  0  0  0  0  0  0  0  0  0  0  0
   -3.5633    1.4268    0.2112 C   0  0  0  0  0  0  0  0  0  0  0  0
   -3.0424    1.9909    1.3965 C   0  0  0  0  0  0  0  0  0  0  0  0
   -2.7193    1.3242    2.2081 H   0  0  0  0  0  0  0  0  0  0  0  0
   -2.9426    3.3830    1.5408 C   0  0  0  0  0  0  0  0  0  0  0  0
   -2.5442    3.8049    2.4766 H   0  0  0  0  0  0  0  0  0  0  0  0
   -3.3601    4.2360    0.5064 C   0  0  0  0  0  0  0  0  0  0  0  0
   -3.2829    5.3278    0.6227 H   0  0  0  0  0  0  0  0  0  0  0  0
   -3.8740    3.6866   -0.6788 C   0  0  0  0  0  0  0  0  0  0  0  0
   -4.1982    4.3462   -1.4985 H   0  0  0  0  0  0  0  0  0  0  0  0
   -3.9756    2.2947   -0.8236 C   0  0  0  0  0  0  0  0  0  0  0  0
   -4.3744    1.8628   -1.7541 H   0  0  0  0  0  0  0  0  0  0  0  0
   -1.8518   -3.3745   -0.0606 C   0  0  0  0  0  0  0  0  0  0  0  0
   -1.6248   -4.1924   -1.1877 C   0  0  0  0  0  0  0  0  0  0  0  0
   -2.2202   -4.0230   -2.0976 H   0  0  0  0  0  0  0  0  0  0  0  0
   -0.6447   -5.1957   -1.1610 C   0  0  0  0  0  0  0  0  0  0  0  0
   -0.4754   -5.8184   -2.0529 H   0  0  0  0  0  0  0  0  0  0  0  0
    0.1144   -5.4078    0.0008 C   0  0  0  0  0  0  0  0  0  0  0  0
    0.8766   -6.2016    0.0276 H   0  0  0  0  0  0  0  0  0  0  0  0
   -0.1045   -4.5994    1.1287 C   0  0  0  0  0  0  0  0  0  0  0  0
    0.4784   -4.7657    2.0477 H   0  0  0  0  0  0  0  0  0  0  0  0
   -1.0707   -3.5832    1.0966 C   0  0  0  0  0  0  0  0  0  0  0  0
   -1.2342   -2.9441    1.9764 H   0  0  0  0  0  0  0  0  0  0  0  0
  2  3  1  0  0  0  0
  3  4  1  0  0  0  0
  3  1  1  0  0  0  0
  5 24  1  0  0  0  0
  5  4  2  0  0  0  0
  6  5  1  0  0  0  0
  7  6  1  0  0  0  0
  8  6  2  0  0  0  0
  8 10  1  0  0  0  0
  9  8  1  0  0  0  0
 10 12  2  0  0  0  0
 11 10  1  0  0  0  0
 12  4  1  0  0  0  0
 12 13  1  0  0  0  0
 13 14  1  0  0  0  0
 14 16  2  0  0  0  0
 14 15  1  0  0  0  0
 16 17  1  0  0  0  0
 18 19  1  0  0  0  0
 18 16  1  0  0  0  0
 20 18  2  0  0  0  0
 21 20  1  0  0  0  0
 22 20  1  0  0  0  0
 22 13  2  0  0  0  0
 23 22  1  0  0  0  0
 24 33  1  0  0  0  0
 25 27  1  0  0  0  0
 25 24  2  0  0  0  0
 26 25  1  0  0  0  0
 27 29  2  0  0  0  0
 28 27  1  0  0  0  0
 29 30  1  0  0  0  0
 29 31  1  0  0  0  0
 31 32  1  0  0  0  0
 33 31  2  0  0  0  0
 33 34  1  0  0  0  0
M  END
