2,3
q = -2.0, confidence = 0.554

  7  6  0  0  0  0  0  0  0  0999 V2000
   -2.9030    0.0715   -0.0001 As  0  0  0  0  0  0  0  0  0  0  0  0
   -1.4934   -0.4714   -1.7462 S   0  0  0  0  0  1  0  0  0  0  0  0
   -1.4936   -0.4716    1.7461 S   0  0  0  0  0  1  0  0  0  0  0  0
   -3.8866   -1.6578   -0.0003 C   0  0  0  0  0  0  0  0  0  0  0  0
   -4.5225   -1.6849   -0.9073 H   0  0  0  0  0  0  0  0  0  0  0  0
   -4.5227   -1.6850    0.9067 H   0  0  0  0  0  0  0  0  0  0  0  0
   -3.1840   -2.5087   -0.0002 H   0  0  0  0  0  0  0  0  0  0  0  0
  1  3  1  0  0  0  0
  2  1  1  0  0  0  0
  4  7  1  0  0  0  0
  4  1  1  0  0  0  0
  4  6  1  0  0  0  0
  5  4  1  0  0  0  0
M  END
