1,2
q = 0.0, confidence = 0.998

 21 20  0  0  0  0  0  0  0  0999 V2000
   -0.1229    1.5713   -1.2475 S   0  0  2  0  0  3  0  0  0  0  0  0
   -2.2490   -0.6247    0.5643 S   0  0  1  0  0  3  0  0  0  0  0  0
    0.9112    1.4411   -2.3548 O   0  0  0  0  0  1  0  0  0  0  0  0
   -2.6086   -2.0910    0.5002 O   0  0  0  0  0  1  0  0  0  0  0  0
   -1.7471    1.6193   -2.0958 C   0  0  0  0  0  0  0  0  0  0  0  0
   -2.9485    1.5624   -1.1528 C   0  0  0  0  0  0  0  0  0  0  0  0
   -3.3161    0.1471   -0.7199 C   0  0  0  0  0  0  0  0  0  0  0  0
    0.0009    3.2803   -0.6550 C   0  0  0  0  0  0  0  0  0  0  0  0
   -2.9797    0.0031    2.0960 C   0  0  0  0  0  0  0  0  0  0  0  0
   -1.7159    2.5389   -2.7123 H   0  0  0  0  0  0  0  0  0  0  0  0
   -1.6841    0.7274   -2.7512 H   0  0  0  0  0  0  0  0  0  0  0  0
   -2.7988    2.2232   -0.2705 H   0  0  0  0  0  0  0  0  0  0  0  0
   -3.8233    1.9840   -1.6912 H   0  0  0  0  0  0  0  0  0  0  0  0
   -3.1901   -0.5828   -1.5444 H   0  0  0  0  0  0  0  0  0  0  0  0
   -4.3449    0.0659   -0.3170 H   0  0  0  0  0  0  0  0  0  0  0  0
   -0.0585    3.9236   -1.5525 H   0  0  0  0  0  0  0  0  0  0  0  0
   -0.7851    3.4775    0.0956 H   0  0  0  0  0  0  0  0  0  0  0  0
    0.9963    3.3205   -0.1714 H   0  0  0  0  0  0  0  0  0  0  0  0
   -4.0244   -0.3598    2.1067 H   0  0  0  0  0  0  0  0  0  0  0  0
   -2.3722   -0.4587    2.8962 H   0  0  0  0  0  0  0  0  0  0  0  0
   -2.8752    1.1017    2.1469 H   0  0  0  0  0  0  0  0  0  0  0  0
  1  3  1  6  0  0  0
  1  8  1  0  0  0  0
  2  4  1  1  0  0  0
  2  9  1  0  0  0  0
  5  1  1  0  0  0  0
  5  6  1  0  0  0  0
  6  7  1  0  0  0  0
  6 12  1  0  0  0  0
  7 15  1  0  0  0  0
  7  2  1  0  0  0  0
  8 18  1  0  0  0  0
  8 17  1  0  0  0  0
  9 19  1  0  0  0  0
  9 21  1  0  0  0  0
  9 20  1  0  0  0  0
 10  5  1  0  0  0  0
 11  5  1  0  0  0  0
 13  6  1  0  0  0  0
 14  7  1  0  0  0  0
 16  8  1  0  0  0  0
M  END
