1,2
q = -1.0, confidence = 0.0

 45 44  0  0  0  0  0  0  0  0999 V2000
    1.9033   -1.6745   -1.2974 S   0  0  0  0  0  1  0  0  0  0  0  0
    0.7909    1.6951   -0.4535 S   0  0  0  0  0  1  0  0  0  0  0  0
    3.1429   -1.1962    0.2650 P   0  0  0  0  0  4  0  0  0  0  0  0
    2.8497    1.6887   -0.1269 P   0  0  0  0  0  4  0  0  0  0  0  0
    3.5851    0.3663    0.4641 N   0  0  0  0  0  2  0  0  0  0  0  0
    2.3770   -1.7874    1.8569 C   0  0  0  0  0  0  0  0  0  0  0  0
    3.1348   -1.5004    2.6202 H   0  0  0  0  0  0  0  0  0  0  0  0
    1.0945   -1.0042    2.1316 C   0  0  0  0  0  0  0  0  0  0  0  0
    0.6746   -1.2622    3.1251 H   0  0  0  0  0  0  0  0  0  0  0  0
    0.2955   -1.2909    1.4003 H   0  0  0  0  0  0  0  0  0  0  0  0
    1.2446    0.0885    2.0887 H   0  0  0  0  0  0  0  0  0  0  0  0
    2.1468   -3.3006    1.8668 C   0  0  0  0  0  0  0  0  0  0  0  0
    1.6682   -3.6030    2.8210 H   0  0  0  0  0  0  0  0  0  0  0  0
    3.0895   -3.8748    1.7687 H   0  0  0  0  0  0  0  0  0  0  0  0
    1.4664   -3.5920    1.0399 H   0  0  0  0  0  0  0  0  0  0  0  0
    4.7106   -2.1679    0.0313 C   0  0  0  0  0  0  0  0  0  0  0  0
    4.3740   -3.2262   -0.0032 H   0  0  0  0  0  0  0  0  0  0  0  0
    5.6572   -1.9502    1.2178 C   0  0  0  0  0  0  0  0  0  0  0  0
    6.6136   -2.4851    1.0440 H   0  0  0  0  0  0  0  0  0  0  0  0
    5.2343   -2.3241    2.1712 H   0  0  0  0  0  0  0  0  0  0  0  0
    5.8802   -0.8708    1.3396 H   0  0  0  0  0  0  0  0  0  0  0  0
    5.3675   -1.8119   -1.3059 C   0  0  0  0  0  0  0  0  0  0  0  0
    6.2653   -2.4431   -1.4672 H   0  0  0  0  0  0  0  0  0  0  0  0
    5.6901   -0.7514   -1.3150 H   0  0  0  0  0  0  0  0  0  0  0  0
    4.6741   -1.9695   -2.1550 H   0  0  0  0  0  0  0  0  0  0  0  0
    3.6667    2.2804   -1.6980 C   0  0  0  0  0  0  0  0  0  0  0  0
    3.1920    3.2679   -1.8875 H   0  0  0  0  0  0  0  0  0  0  0  0
    3.3398    1.3486   -2.8669 C   0  0  0  0  0  0  0  0  0  0  0  0
    3.7970    1.7372   -3.8000 H   0  0  0  0  0  0  0  0  0  0  0  0
    2.2460    1.2679   -3.0165 H   0  0  0  0  0  0  0  0  0  0  0  0
    3.7215    0.3249   -2.6882 H   0  0  0  0  0  0  0  0  0  0  0  0
    5.1752    2.4574   -1.4889 C   0  0  0  0  0  0  0  0  0  0  0  0
    5.6590    2.7595   -2.4404 H   0  0  0  0  0  0  0  0  0  0  0  0
    5.6361    1.5055   -1.1563 H   0  0  0  0  0  0  0  0  0  0  0  0
    5.4133    3.2318   -0.7329 H   0  0  0  0  0  0  0  0  0  0  0  0
    3.1477    3.0310    1.1316 C   0  0  0  0  0  0  0  0  0  0  0  0
    4.2582    3.0868    1.1746 H   0  0  0  0  0  0  0  0  0  0  0  0
    2.6327    2.5834    2.5024 C   0  0  0  0  0  0  0  0  0  0  0  0
    2.8960    3.3367    3.2730 H   0  0  0  0  0  0  0  0  0  0  0  0
    3.0759    1.6118    2.7930 H   0  0  0  0  0  0  0  0  0  0  0  0
    1.5294    2.4729    2.4898 H   0  0  0  0  0  0  0  0  0  0  0  0
    2.5731    4.3833    0.6993 C   0  0  0  0  0  0  0  0  0  0  0  0
    2.7651    5.1447    1.4832 H   0  0  0  0  0  0  0  0  0  0  0  0
    1.4758    4.3141    0.5509 H   0  0  0  0  0  0  0  0  0  0  0  0
    3.0228    4.7557   -0.2423 H   0  0  0  0  0  0  0  0  0  0  0  0
  1  3  1  0  0  0  0
  2  4  1  0  0  0  0
  3  5  1  0  0  0  0
  3  6  1  0  0  0  0
  4  5  1  0  0  0  0
  4 36  1  0  0  0  0
  6 12  1  0  0  0  0
  6  8  1  0  0  0  0
  6  7  1  0  0  0  0
  8  9  1  0  0  0  0
 10  8  1  0  0  0  0
 11  8  1  0  0  0  0
 12 13  1  0  0  0  0
 14 12  1  0  0  0  0
 15 12  1  0  0  0  0
 16  3  1  0  0  0  0
 16 18  1  0  0  0  0
 17 16  1  0  0  0  0
 18 21  1  0  0  0  0
 18 20  1  0  0  0  0
 19 18  1  0  0  0  0
 22 16  1  0  0  0  0
 23 22  1  0  0  0  0
 24 22  1  0  0  0  0
 25 22  1  0  0  0  0
 26 32  1  0  0  0  0
 26  4  1  0  0  0  0
 27 26  1  0  0  0  0
 28 31  1  0  0  0  0
 28 26  1  0  0  0  0
 29 28  1  0  0  0  0
 30 28  1  0  0  0  0
 32 34  1  0  0  0  0
 32 35  1  0  0  0  0
 33 32  1  0  0  0  0
 36 37  1  0  0  0  0
 36 38  1  0  0  0  0
 38 40  1  0  0  0  0
 38 39  1  0  0  0  0
 41 38  1  0  0  0  0
 42 36  1  0  0  0  0
 42 43  1  0  0  0  0
 44 42  1  0  0  0  0
 45 42  1  0  0  0  0
M  END
