1,2
q = -1.0, confidence = 0.0

 24 23  0  0  0  0  0  0  0  0999 V2000
   -1.2972   -1.7215    0.6008 S   0  0  0  0  0  1  0  0  0  0  0  0
   -1.9999    0.7431   -0.6729 S   0  0  0  0  0  1  0  0  0  0  0  0
   -3.8724   -1.1449   -0.0805 N   0  0  0  0  0  0  0  0  0  0  0  0
   -2.5801   -0.7643   -0.0542 C   0  0  0  0  0  3  0  0  0  0  0  0
   -4.8928   -0.2790   -0.6715 C   0  0  0  0  0  0  0  0  0  0  0  0
   -4.4260    0.2658   -1.5193 H   0  0  0  0  0  0  0  0  0  0  0  0
   -5.6847   -0.9306   -1.0979 H   0  0  0  0  0  0  0  0  0  0  0  0
   -5.4860    0.7188    0.3280 C   0  0  0  0  0  0  0  0  0  0  0  0
   -4.6538    1.3313    0.7367 H   0  0  0  0  0  0  0  0  0  0  0  0
   -5.9260    0.1661    1.1878 H   0  0  0  0  0  0  0  0  0  0  0  0
   -6.5437    1.6275   -0.3031 C   0  0  0  0  0  0  0  0  0  0  0  0
   -6.0890    2.1680   -1.1627 H   0  0  0  0  0  0  0  0  0  0  0  0
   -7.3569    1.0030   -0.7367 H   0  0  0  0  0  0  0  0  0  0  0  0
   -7.1360    2.6346    0.6830 C   0  0  0  0  0  0  0  0  0  0  0  0
   -7.8946    3.2827    0.2003 H   0  0  0  0  0  0  0  0  0  0  0  0
   -7.6271    2.1225    1.5367 H   0  0  0  0  0  0  0  0  0  0  0  0
   -6.3489    3.2943    1.1032 H   0  0  0  0  0  0  0  0  0  0  0  0
   -4.2869   -2.4320    0.4838 C   0  0  0  0  0  0  0  0  0  0  0  0
   -3.6178   -2.6511    1.3418 H   0  0  0  0  0  0  0  0  0  0  0  0
   -5.3110   -2.3016    0.8913 H   0  0  0  0  0  0  0  0  0  0  0  0
   -4.2352   -3.5692   -0.5355 C   0  0  0  0  0  0  0  0  0  0  0  0
   -4.5675   -4.5191   -0.0711 H   0  0  0  0  0  0  0  0  0  0  0  0
   -4.8912   -3.3659   -1.4062 H   0  0  0  0  0  0  0  0  0  0  0  0
   -3.1982   -3.7049   -0.9004 H   0  0  0  0  0  0  0  0  0  0  0  0
  2  4  1  0  0  0  0
  3  4  1  0  0  0  0
  3 18  1  0  0  0  0
  4  1  1  0  0  0  0
  5  3  1  0  0  0  0
  5  8  1  0  0  0  0
  6  5  1  0  0  0  0
  7  5  1  0  0  0  0
  8  9  1  0  0  0  0
  8 10  1  0  0  0  0
 11  8  1  0  0  0  0
 11 14  1  0  0  0  0
 12 11  1  0  0  0  0
 13 11  1  0  0  0  0
 14 17  1  0  0  0  0
 14 16  1  0  0  0  0
 15 14  1  0  0  0  0
 18 20  1  0  0  0  0
 18 19  1  0  0  0  0
 21 22  1  0  0  0  0
 21 18  1  0  0  0  0
 23 21  1  0  0  0  0
 24 21  1  0  0  0  0
M  END
