77,78
q = 0.0, confidence = 0.992

 80 84  0  0  0  0  0  0  0  0999 V2000
   -3.5710   -0.3311    0.4621 C   0  0  0  0  0  0  0  0  0  0  0  0
   -4.4685    0.5974   -0.0909 C   0  0  0  0  0  0  0  0  0  0  0  0
   -4.3139    1.6731    0.0717 H   0  0  0  0  0  0  0  0  0  0  0  0
   -5.5563    0.1656   -0.8612 C   0  0  0  0  0  0  0  0  0  0  0  0
   -6.2457    0.9114   -1.2850 H   0  0  0  0  0  0  0  0  0  0  0  0
   -5.7695   -1.2052   -1.0896 C   0  0  0  0  0  0  0  0  0  0  0  0
   -6.6201   -1.5436   -1.6988 H   0  0  0  0  0  0  0  0  0  0  0  0
   -4.8991   -2.1334   -0.5152 C   0  0  0  0  0  0  0  0  0  0  0  0
   -5.0615   -3.2123   -0.6643 H   0  0  0  0  0  0  0  0  0  0  0  0
   -3.8028   -1.7226    0.2798 C   0  0  0  0  0  0  0  0  0  0  0  0
   -2.9642   -2.7500    0.8879 C   0  0  0  0  0  0  0  0  0  0  0  0
   -3.1669   -3.8005    0.5693 H   0  0  0  0  0  0  0  0  0  0  0  0
   -1.2853   -3.5203    2.3675 C   0  0  0  0  0  0  0  0  0  0  0  0
   -1.0537   -4.3483    1.6543 H   0  0  0  0  0  0  0  0  0  0  0  0
   -1.8985   -3.9778    3.1779 H   0  0  0  0  0  0  0  0  0  0  0  0
   -0.0143   -2.9967    3.0278 C   0  0  0  0  0  0  0  0  0  0  0  0
    0.4328   -3.7769    3.6758 H   0  0  0  0  0  0  0  0  0  0  0  0
   -0.2752   -2.1202    3.6549 H   0  0  0  0  0  0  0  0  0  0  0  0
    2.1832   -1.2777    2.8597 C   0  0  0  0  0  0  0  0  0  0  0  0
    2.3459   -1.7483    3.8499 H   0  0  0  0  0  0  0  0  0  0  0  0
    3.1712   -1.1595    2.3720 H   0  0  0  0  0  0  0  0  0  0  0  0
    1.4886    0.0806    2.9957 C   0  0  0  0  0  0  0  0  0  0  0  0
    0.4455   -0.0706    3.3603 H   0  0  0  0  0  0  0  0  0  0  0  0
    2.0102    0.6855    3.7753 H   0  0  0  0  0  0  0  0  0  0  0  0
    1.4930    2.0362    1.6642 C   0  0  0  0  0  0  0  0  0  0  0  0
    1.4857    2.6472    2.6001 H   0  0  0  0  0  0  0  0  0  0  0  0
    1.5701    2.8329    0.4323 C   0  0  0  0  0  0  0  0  0  0  0  0
    1.4763    4.2349    0.6060 C   0  0  0  0  0  0  0  0  0  0  0  0
    1.3468    4.6242    1.6279 H   0  0  0  0  0  0  0  0  0  0  0  0
    1.5255    5.1241   -0.4723 C   0  0  0  0  0  0  0  0  0  0  0  0
    1.4501    6.2072   -0.2972 H   0  0  0  0  0  0  0  0  0  0  0  0
    1.6717    4.6211   -1.7721 C   0  0  0  0  0  0  0  0  0  0  0  0
    1.7161    5.3033   -2.6343 H   0  0  0  0  0  0  0  0  0  0  0  0
    1.7987    3.2367   -1.9703 C   0  0  0  0  0  0  0  0  0  0  0  0
    1.9575    2.8446   -2.9868 H   0  0  0  0  0  0  0  0  0  0  0  0
    1.7670    2.3336   -0.8919 C   0  0  0  0  0  0  0  0  0  0  0  0
    3.4890   -0.0738   -0.4936 C   0  0  0  0  0  0  0  0  0  0  0  0
    4.2610    0.8628    0.2152 C   0  0  0  0  0  0  0  0  0  0  0  0
    3.9818    1.9247    0.2023 H   0  0  0  0  0  0  0  0  0  0  0  0
    5.3903    0.4588    0.9404 C   0  0  0  0  0  0  0  0  0  0  0  0
    5.9759    1.2135    1.4868 H   0  0  0  0  0  0  0  0  0  0  0  0
    5.7789   -0.8921    0.9669 C   0  0  0  0  0  0  0  0  0  0  0  0
    6.6633   -1.2083    1.5383 H   0  0  0  0  0  0  0  0  0  0  0  0
    5.0393   -1.8236    0.2350 C   0  0  0  0  0  0  0  0  0  0  0  0
    5.3415   -2.8825    0.2181 H   0  0  0  0  0  0  0  0  0  0  0  0
    3.8973   -1.4392   -0.5078 C   0  0  0  0  0  0  0  0  0  0  0  0
    3.2020   -2.4591   -1.2850 C   0  0  0  0  0  0  0  0  0  0  0  0
    3.6280   -3.4906   -1.2459 H   0  0  0  0  0  0  0  0  0  0  0  0
    1.5261   -3.2190   -2.7646 C   0  0  0  0  0  0  0  0  0  0  0  0
    1.3776   -2.8425   -3.7994 H   0  0  0  0  0  0  0  0  0  0  0  0
    2.1560   -4.1389   -2.8442 H   0  0  0  0  0  0  0  0  0  0  0  0
    0.1705   -3.6510   -2.1891 C   0  0  0  0  0  0  0  0  0  0  0  0
    0.3143   -4.1933   -1.2320 H   0  0  0  0  0  0  0  0  0  0  0  0
   -0.3233   -4.3448   -2.9002 H   0  0  0  0  0  0  0  0  0  0  0  0
   -0.8846   -1.2044   -3.1953 C   0  0  0  0  0  0  0  0  0  0  0  0
    0.1562   -0.8273   -3.2611 H   0  0  0  0  0  0  0  0  0  0  0  0
   -1.1212   -1.7764   -4.1152 H   0  0  0  0  0  0  0  0  0  0  0  0
   -1.8748   -0.0476   -3.0377 C   0  0  0  0  0  0  0  0  0  0  0  0
   -2.9089   -0.4537   -3.1206 H   0  0  0  0  0  0  0  0  0  0  0  0
   -1.7303    0.6644   -3.8891 H   0  0  0  0  0  0  0  0  0  0  0  0
   -1.7762    1.8686   -1.6726 C   0  0  0  0  0  0  0  0  0  0  0  0
   -1.7541    2.4914   -2.6026 H   0  0  0  0  0  0  0  0  0  0  0  0
   -1.8312    2.6556   -0.4304 C   0  0  0  0  0  0  0  0  0  0  0  0
   -1.7644    4.0590   -0.6001 C   0  0  0  0  0  0  0  0  0  0  0  0
   -1.6604    4.4534   -1.6230 H   0  0  0  0  0  0  0  0  0  0  0  0
   -1.8130    4.9457    0.4807 C   0  0  0  0  0  0  0  0  0  0  0  0
   -1.7607    6.0302    0.3059 H   0  0  0  0  0  0  0  0  0  0  0  0
   -1.9286    4.4381    1.7814 C   0  0  0  0  0  0  0  0  0  0  0  0
   -1.9744    5.1176    2.6457 H   0  0  0  0  0  0  0  0  0  0  0  0
   -2.0179    3.0507    1.9787 C   0  0  0  0  0  0  0  0  0  0  0  0
   -2.1463    2.6527    2.9972 H   0  0  0  0  0  0  0  0  0  0  0  0
   -1.9852    2.1502    0.8975 C   0  0  0  0  0  0  0  0  0  0  0  0
   -2.0554   -2.4596    1.7513 N   0  0  0  0  0  0  0  0  0  0  0  0
    1.4611    0.7518    1.7155 N   0  0  0  0  0  0  0  0  0  0  0  0
    2.1671   -2.1802   -1.9953 N   0  0  0  0  0  0  0  0  0  0  0  0
   -1.7859    0.5872   -1.7432 N   0  0  0  0  0  0  0  0  0  0  0  0
    1.2657   -2.4735    1.8147 S   0  0  0  0  0  0  0  0  0  0  0  0
   -1.0073   -2.3208   -1.7465 S   0  0  0  0  0  0  0  0  0  0  0  0
   -2.0323    0.2796    1.4565 Se  0  0  0  0  0  0  0  0  0  0  0  0
    1.9036    0.4661   -1.4560 Se  0  0  0  0  0  0  0  0  0  0  0  0
  1 79  1  0  0  0  0
  2  3  1  0  0  0  0
  2  1  2  0  0  0  0
  4  2  1  0  0  0  0
  5  4  1  0  0  0  0
  6  4  2  0  0  0  0
  6  8  1  0  0  0  0
  7  6  1  0  0  0  0
  8 10  2  0  0  0  0
  9  8  1  0  0  0  0
 10  1  1  0  0  0  0
 10 11  1  0  0  0  0
 11 73  2  0  0  0  0
 12 11  1  0  0  0  0
 13 16  1  0  0  0  0
 13 15  1  0  0  0  0
 14 13  1  0  0  0  0
 16 18  1  0  0  0  0
 16 17  1  0  0  0  0
 19 22  1  0  0  0  0
 19 20  1  0  0  0  0
 21 19  1  0  0  0  0
 22 23  1  0  0  0  0
 22 24  1  0  0  0  0
 25 74  2  0  0  0  0
 25 26  1  0  0  0  0
 27 28  1  0  0  0  0
 27 25  1  0  0  0  0
 28 29  1  0  0  0  0
 30 31  1  0  0  0  0
 30 28  2  0  0  0  0
 32 30  1  0  0  0  0
 33 32  1  0  0  0  0
 34 32  2  0  0  0  0
 34 36  1  0  0  0  0
 35 34  1  0  0  0  0
 36 27  2  0  0  0  0
 37 38  1  0  0  0  0
 38 40  2  0  0  0  0
 39 38  1  0  0  0  0
 40 42  1  0  0  0  0
 40 41  1  0  0  0  0
 42 43  1  0  0  0  0
 44 42  2  0  0  0  0
 45 44  1  0  0  0  0
 46 37  2  0  0  0  0
 46 44  1  0  0  0  0
 47 48  1  0  0  0  0
 47 46  1  0  0  0  0
 49 52  1  0  0  0  0
 49 75  1  0  0  0  0
 50 49  1  0  0  0  0
 51 49  1  0  0  0  0
 52 78  1  0  0  0  0
 52 53  1  0  0  0  0
 54 52  1  0  0  0  0
 55 58  1  0  0  0  0
 55 78  1  0  0  0  0
 56 55  1  0  0  0  0
 57 55  1  0  0  0  0
 58 76  1  0  0  0  0
 59 58  1  0  0  0  0
 60 58  1  0  0  0  0
 61 63  1  0  0  0  0
 62 61  1  0  0  0  0
 63 72  1  0  0  0  0
 64 63  2  0  0  0  0
 64 66  1  0  0  0  0
 65 64  1  0  0  0  0
 66 68  2  0  0  0  0
 67 66  1  0  0  0  0
 68 70  1  0  0  0  0
 68 69  1  0  0  0  0
 70 71  1  0  0  0  0
 72 79  1  0  0  0  0
 72 70  2  0  0  0  0
 73 13  1  0  0  0  0
 74 22  1  0  0  0  0
 75 47  2  0  0  0  0
 76 61  2  0  0  0  0
 77 19  1  0  0  0  0
 77 16  1  0  0  0  0
 80 36  1  0  0  0  0
 80 37  1  0  0  0  0
M  END
