1,2
q = 0.0, confidence = 0.996

 28 29  0  0  0  0  0  0  0  0999 V2000
   -2.1922   -2.7696    0.4535 S   0  0  0  0  0  0  0  0  0  0  0  0
   -1.0662   -0.7733   -2.2693 S   0  0  0  0  0  0  0  0  0  0  0  0
   -2.2391    3.4544   -1.4553 S   0  0  0  0  0  0  0  0  0  0  0  0
   -2.0733    0.7757    1.4222 S   0  0  0  0  0  0  0  0  0  0  0  0
   -3.3718   -0.3893    1.4512 C   0  0  0  0  0  0  0  0  0  0  0  0
   -3.1231   -1.8163    1.7734 C   0  0  0  0  0  0  0  0  0  0  0  0
   -4.0812   -2.3447    1.9439 H   0  0  0  0  0  0  0  0  0  0  0  0
   -2.4885   -1.9605    2.6705 H   0  0  0  0  0  0  0  0  0  0  0  0
   -3.1520   -2.3329   -1.0475 C   0  0  0  0  0  0  0  0  0  0  0  0
   -3.8719   -3.1537   -1.2424 H   0  0  0  0  0  0  0  0  0  0  0  0
   -3.7342   -1.4186   -0.8084 H   0  0  0  0  0  0  0  0  0  0  0  0
   -2.3037   -2.1260   -2.3024 C   0  0  0  0  0  0  0  0  0  0  0  0
   -2.9745   -1.9405   -3.1667 H   0  0  0  0  0  0  0  0  0  0  0  0
   -1.7075   -3.0292   -2.5459 H   0  0  0  0  0  0  0  0  0  0  0  0
   -2.1367    0.7184   -2.0800 C   0  0  0  0  0  0  0  0  0  0  0  0
   -2.6961    0.8598   -3.0266 H   0  0  0  0  0  0  0  0  0  0  0  0
   -2.8578    0.5347   -1.2622 H   0  0  0  0  0  0  0  0  0  0  0  0
   -1.2693    1.9367   -1.7693 C   0  0  0  0  0  0  0  0  0  0  0  0
   -0.5964    2.1716   -2.6188 H   0  0  0  0  0  0  0  0  0  0  0  0
   -0.6229    1.7345   -0.8898 H   0  0  0  0  0  0  0  0  0  0  0  0
   -2.5097    3.3358    0.3779 C   0  0  0  0  0  0  0  0  0  0  0  0
   -1.5493    3.5405    0.8942 H   0  0  0  0  0  0  0  0  0  0  0  0
   -3.1904    4.1840    0.5923 H   0  0  0  0  0  0  0  0  0  0  0  0
   -3.1118    2.0427    0.8168 C   0  0  0  0  0  0  0  0  0  0  0  0
   -4.4131    1.5817    0.6846 C   0  0  0  0  0  0  0  0  0  0  0  0
   -5.2305    2.2115    0.3074 H   0  0  0  0  0  0  0  0  0  0  0  0
   -4.5583    0.2080    1.0382 C   0  0  0  0  0  0  0  0  0  0  0  0
   -5.5114   -0.3393    0.9991 H   0  0  0  0  0  0  0  0  0  0  0  0
  1  6  1  0  0  0  0
  2 15  1  0  0  0  0
  3 21  1  0  0  0  0
  4  5  1  0  0  0  0
  5  6  1  0  0  0  0
  6  7  1  0  0  0  0
  6  8  1  0  0  0  0
  9 11  1  0  0  0  0
  9  1  1  0  0  0  0
 10  9  1  0  0  0  0
 12  2  1  0  0  0  0
 12  9  1  0  0  0  0
 13 12  1  0  0  0  0
 14 12  1  0  0  0  0
 15 18  1  0  0  0  0
 15 17  1  0  0  0  0
 16 15  1  0  0  0  0
 18  3  1  0  0  0  0
 18 20  1  0  0  0  0
 19 18  1  0  0  0  0
 21 23  1  0  0  0  0
 21 24  1  0  0  0  0
 21 22  1  0  0  0  0
 24  4  1  0  0  0  0
 25 24  2  0  0  0  0
 25 27  1  0  0  0  0
 26 25  1  0  0  0  0
 27  5  2  0  0  0  0
 28 27  1  0  0  0  0
M  END
