1,2
q = -2.0, confidence = 0.79

 14 14  0  0  0  0  0  0  0  0999 V2000
    2.7669   -0.0952   -0.1524 S   0  0  0  0  0  1  0  0  0  0  0  0
    1.5972    2.5396   -0.0687 S   0  0  0  0  0  1  0  0  0  0  0  0
    4.2718    2.2504   -0.1478 N   0  0  0  0  0  0  0  0  0  0  0  0
    6.4453    2.0167   -0.9509 N   0  0  0  0  0  0  0  0  0  0  0  0
    3.1396    1.6618   -0.1147 C   0  0  0  0  0  0  0  0  0  0  0  0
    5.5122    1.6291   -0.0562 C   0  0  0  0  0  0  0  0  0  0  0  0
    7.6700    1.4835   -0.8544 C   0  0  0  0  0  0  0  0  0  0  0  0
    8.4038    1.8173   -1.6122 H   0  0  0  0  0  0  0  0  0  0  0  0
    8.0564    0.5617    0.1318 C   0  0  0  0  0  0  0  0  0  0  0  0
    9.0832    0.1684    0.1635 H   0  0  0  0  0  0  0  0  0  0  0  0
    7.0876    0.1697    1.0712 C   0  0  0  0  0  0  0  0  0  0  0  0
    7.3351   -0.5497    1.8679 H   0  0  0  0  0  0  0  0  0  0  0  0
    5.7993    0.7007    0.9818 C   0  0  0  0  0  0  0  0  0  0  0  0
    5.0087    0.4149    1.6902 H   0  0  0  0  0  0  0  0  0  0  0  0
  1  5  1  0  0  0  0
  3  5  2  0  0  0  0
  3  6  1  0  0  0  0
  4  7  2  0  0  0  0
  4  6  1  0  0  0  0
  5  2  1  0  0  0  0
  6 13  2  0  0  0  0
  7  9  1  0  0  0  0
  8  7  1  0  0  0  0
  9 10  1  0  0  0  0
  9 11  2  0  0  0  0
 11 12  1  0  0  0  0
 13 11  1  0  0  0  0
 13 14  1  0  0  0  0
M  END
