1,2
q = -2.0, confidence = 0.802

 19 19  0  0  0  0  0  0  0  0999 V2000
    0.7765    0.5103    1.5321 S   0  0  0  0  0  1  0  0  0  0  0  0
    0.7766    0.5098   -1.5318 S   0  0  0  0  0  1  0  0  0  0  0  0
    2.2612    3.4319   -0.0004 S   0  0  0  0  0  1  0  0  0  0  0  0
    2.0525    1.4746   -0.0001 P   0  0  0  0  0  4  0  0  0  0  0  0
    7.3624   -1.3429    0.0006 O   0  0  0  0  0  0  0  0  0  0  0  0
    3.6669    0.6034   -0.0000 C   0  0  0  0  0  0  0  0  0  0  0  0
    4.8814    1.3195    0.0004 C   0  0  0  0  0  0  0  0  0  0  0  0
    4.8421    2.4210    0.0006 H   0  0  0  0  0  0  0  0  0  0  0  0
    6.1010    0.6419    0.0007 C   0  0  0  0  0  0  0  0  0  0  0  0
    7.0595    1.1814    0.0010 H   0  0  0  0  0  0  0  0  0  0  0  0
    6.1277   -0.7707    0.0004 C   0  0  0  0  0  0  0  0  0  0  0  0
    4.9148   -1.4946   -0.0001 C   0  0  0  0  0  0  0  0  0  0  0  0
    4.9097   -2.5928   -0.0002 H   0  0  0  0  0  0  0  0  0  0  0  0
    3.6949   -0.8051   -0.0003 C   0  0  0  0  0  0  0  0  0  0  0  0
    2.7505   -1.3720   -0.0006 H   0  0  0  0  0  0  0  0  0  0  0  0
    7.4514   -2.7544    0.0003 C   0  0  0  0  0  0  0  0  0  0  0  0
    8.5297   -3.0005    0.0005 H   0  0  0  0  0  0  0  0  0  0  0  0
    6.9792   -3.2010   -0.9036 H   0  0  0  0  0  0  0  0  0  0  0  0
    6.9788   -3.2015    0.9038 H   0  0  0  0  0  0  0  0  0  0  0  0
  2  4  1  0  0  0  0
  3  4  1  0  0  0  0
  4  6  1  0  0  0  0
  4  1  1  0  0  0  0
  6  7  1  0  0  0  0
  7  8  1  0  0  0  0
  7  9  2  0  0  0  0
  9 10  1  0  0  0  0
 11  5  1  0  0  0  0
 11  9  1  0  0  0  0
 12 11  2  0  0  0  0
 13 12  1  0  0  0  0
 14 12  1  0  0  0  0
 14  6  2  0  0  0  0
 15 14  1  0  0  0  0
 16 17  1  0  0  0  0
 16  5  1  0  0  0  0
 16 19  1  0  0  0  0
 18 16  1  0  0  0  0
M  END
