1,2
q = 0.0, confidence = 0.998

 23 23  0  0  0  0  0  0  0  0999 V2000
   -0.0602    0.5056   -1.4380 S   0  0  0  0  0  0  0  0  0  0  0  0
    2.9073    1.2281   -0.2797 S   0  0  0  0  0  0  0  0  0  0  0  0
   -2.5884   -0.5509   -2.4892 F   0  0  0  0  0  0  0  0  0  0  0  0
   -4.9656   -0.8704   -1.2136 F   0  0  0  0  0  0  0  0  0  0  0  0
   -5.2581   -0.0122    1.3653 F   0  0  0  0  0  0  0  0  0  0  0  0
   -3.1752    1.1804    2.6686 F   0  0  0  0  0  0  0  0  0  0  0  0
   -0.7853    1.4860    1.4270 F   0  0  0  0  0  0  0  0  0  0  0  0
   -1.6334    0.5073   -0.5831 C   0  0  0  0  0  0  0  0  0  0  0  0
   -2.7140   -0.1134   -1.2380 C   0  0  0  0  0  0  0  0  0  0  0  0
   -3.9452   -0.2892   -0.5852 C   0  0  0  0  0  0  0  0  0  0  0  0
   -4.0946    0.1458    0.7421 C   0  0  0  0  0  0  0  0  0  0  0  0
   -3.0226    0.7653    1.4118 C   0  0  0  0  0  0  0  0  0  0  0  0
   -1.7975    0.9242    0.7516 C   0  0  0  0  0  0  0  0  0  0  0  0
    0.4728    2.2843   -1.2709 C   0  0  0  0  0  0  0  0  0  0  0  0
   -0.0409    2.8584   -2.0680 H   0  0  0  0  0  0  0  0  0  0  0  0
    0.1447    2.6513   -0.2818 H   0  0  0  0  0  0  0  0  0  0  0  0
    1.9829    2.3491   -1.4280 C   0  0  0  0  0  0  0  0  0  0  0  0
    2.3558    3.3816   -1.2699 H   0  0  0  0  0  0  0  0  0  0  0  0
    2.3040    2.0224   -2.4382 H   0  0  0  0  0  0  0  0  0  0  0  0
    2.7228    2.0887    1.3213 C   0  0  0  0  0  0  0  0  0  0  0  0
    3.3136    3.0250    1.3100 H   0  0  0  0  0  0  0  0  0  0  0  0
    3.1413    1.3678    2.0500 H   0  0  0  0  0  0  0  0  0  0  0  0
    1.6588    2.2662    1.5604 H   0  0  0  0  0  0  0  0  0  0  0  0
  1 14  1  0  0  0  0
  1  8  1  0  0  0  0
  2 20  1  0  0  0  0
  3  9  1  0  0  0  0
  4 10  1  0  0  0  0
  8 13  1  0  0  0  0
  9 10  1  0  0  0  0
  9  8  2  0  0  0  0
 10 11  2  0  0  0  0
 11  5  1  0  0  0  0
 11 12  1  0  0  0  0
 12  6  1  0  0  0  0
 13 12  2  0  0  0  0
 13  7  1  0  0  0  0
 14 16  1  0  0  0  0
 15 14  1  0  0  0  0
 17 14  1  0  0  0  0
 17 18  1  0  0  0  0
 17  2  1  0  0  0  0
 19 17  1  0  0  0  0
 20 23  1  0  0  0  0
 20 22  1  0  0  0  0
 21 20  1  0  0  0  0
M  END
