1,2
q = -2.0, confidence = 0.736

 14 13  0  0  0  0  0  0  0  0999 V2000
    1.9612    0.0923    0.3758 S   0  0  0  0  0  1  0  0  0  0  0  0
    0.4850   -2.3450    0.0959 S   0  0  0  0  0  1  0  0  0  0  0  0
    4.7040   -1.7072    0.4398 S   0  0  0  0  0  0  0  0  0  0  0  0
    4.8013   -0.7071    1.5325 O   0  0  0  0  0  0  0  0  0  0  0  0
    5.1297   -1.3438   -0.9326 O   0  0  0  0  0  0  0  0  0  0  0  0
    3.1575   -2.4340    0.3720 N   0  0  0  0  0  0  0  0  0  0  0  0
    2.1151   -1.6749    0.3111 C   0  0  0  0  0  0  0  0  0  0  0  0
    5.6450   -3.1775    0.9461 C   0  0  0  0  0  0  0  0  0  0  0  0
    5.1992   -3.4949    1.9091 H   0  0  0  0  0  0  0  0  0  0  0  0
    5.4248   -3.9444    0.1784 H   0  0  0  0  0  0  0  0  0  0  0  0
    7.1226   -2.8302    1.0504 C   0  0  0  0  0  0  0  0  0  0  0  0
    7.7096   -3.7176    1.3590 H   0  0  0  0  0  0  0  0  0  0  0  0
    7.2790   -2.0260    1.7961 H   0  0  0  0  0  0  0  0  0  0  0  0
    7.5054   -2.4751    0.0735 H   0  0  0  0  0  0  0  0  0  0  0  0
  2  7  1  0  0  0  0
  3  8  1  0  0  0  0
  3  4  2  0  0  0  0
  5  3  2  0  0  0  0
  6  3  1  0  0  0  0
  7  6  2  0  0  0  0
  7  1  1  0  0  0  0
  8 11  1  0  0  0  0
  8  9  1  0  0  0  0
 10  8  1  0  0  0  0
 11 12  1  0  0  0  0
 11 13  1  0  0  0  0
 14 11  1  0  0  0  0
M  END
