2,3
q = 0.0, confidence = 0.996

 39 40  0  0  0  0  0  0  0  0999 V2000
    5.7840    0.7485   -0.3592 Br  0  0  0  0  0  0  0  0  0  0  0  0
   -2.8497   -1.9306   -0.7118 S   0  0  0  0  0  0  0  0  0  0  0  0
   -1.9123    2.3282    1.3019 S   0  0  0  0  0  0  0  0  0  0  0  0
    0.5454    1.5290   -0.6619 O   0  0  0  0  0  0  0  0  0  0  0  0
    0.0565   -0.8860   -1.5483 O   0  0  0  0  0  0  0  0  0  0  0  0
   -4.0987    1.0353   -0.7076 O   0  0  0  0  0  0  0  0  0  0  0  0
    0.6781    2.6207    0.2359 C   0  0  0  0  0  0  0  0  0  0  0  0
    1.6347    0.7166   -0.8309 C   0  0  0  0  0  0  0  0  0  0  0  0
    2.9493    1.1064   -0.5462 C   0  0  0  0  0  0  0  0  0  0  0  0
    4.0011    0.1944   -0.7424 C   0  0  0  0  0  0  0  0  0  0  0  0
    3.7560   -1.1033   -1.1955 C   0  0  0  0  0  0  0  0  0  0  0  0
    2.4332   -1.4932   -1.4685 C   0  0  0  0  0  0  0  0  0  0  0  0
    1.3711   -0.5963   -1.3056 C   0  0  0  0  0  0  0  0  0  0  0  0
   -0.2950   -2.2356   -1.8355 C   0  0  0  0  0  0  0  0  0  0  0  0
   -1.7756   -2.2713   -2.1713 C   0  0  0  0  0  0  0  0  0  0  0  0
   -4.2923   -1.1757   -1.5598 C   0  0  0  0  0  0  0  0  0  0  0  0
   -4.1356    0.2962   -1.9090 C   0  0  0  0  0  0  0  0  0  0  0  0
   -3.7599    2.3956   -0.8512 C   0  0  0  0  0  0  0  0  0  0  0  0
   -3.4485    2.9651    0.5250 C   0  0  0  0  0  0  0  0  0  0  0  0
   -0.6697    3.3098    0.3593 C   0  0  0  0  0  0  0  0  0  0  0  0
    1.4013    3.3712   -0.1599 H   0  0  0  0  0  0  0  0  0  0  0  0
    1.0548    2.2584    1.2188 H   0  0  0  0  0  0  0  0  0  0  0  0
    3.1702    2.1099   -0.1635 H   0  0  0  0  0  0  0  0  0  0  0  0
    4.5803   -1.8181   -1.3187 H   0  0  0  0  0  0  0  0  0  0  0  0
    2.2418   -2.5277   -1.7789 H   0  0  0  0  0  0  0  0  0  0  0  0
   -0.0388   -2.8780   -0.9633 H   0  0  0  0  0  0  0  0  0  0  0  0
    0.2646   -2.5979   -2.7285 H   0  0  0  0  0  0  0  0  0  0  0  0
   -2.0414   -3.2736   -2.5629 H   0  0  0  0  0  0  0  0  0  0  0  0
   -1.9922   -1.5132   -2.9514 H   0  0  0  0  0  0  0  0  0  0  0  0
   -4.5211   -1.7759   -2.4631 H   0  0  0  0  0  0  0  0  0  0  0  0
   -5.1361   -1.2996   -0.8518 H   0  0  0  0  0  0  0  0  0  0  0  0
   -3.2043    0.4646   -2.5053 H   0  0  0  0  0  0  0  0  0  0  0  0
   -4.9980    0.6154   -2.5467 H   0  0  0  0  0  0  0  0  0  0  0  0
   -4.6067    2.9725   -1.3012 H   0  0  0  0  0  0  0  0  0  0  0  0
   -2.8839    2.5161   -1.5361 H   0  0  0  0  0  0  0  0  0  0  0  0
   -4.2589    2.6950    1.2313 H   0  0  0  0  0  0  0  0  0  0  0  0
   -3.3861    4.0714    0.4913 H   0  0  0  0  0  0  0  0  0  0  0  0
   -1.0700    3.5024   -0.6567 H   0  0  0  0  0  0  0  0  0  0  0  0
   -0.5421    4.2796    0.8810 H   0  0  0  0  0  0  0  0  0  0  0  0
  4  7  1  0  0  0  0
  5 13  1  0  0  0  0
  7 20  1  0  0  0  0
  7 22  1  0  0  0  0
  8  4  1  0  0  0  0
  8  9  1  0  0  0  0
  9 23  1  0  0  0  0
 10  9  2  0  0  0  0
 10  1  1  0  0  0  0
 11 10  1  0  0  0  0
 12 13  1  0  0  0  0
 12 11  2  0  0  0  0
 13  8  2  0  0  0  0
 14  5  1  0  0  0  0
 14 26  1  0  0  0  0
 15 14  1  0  0  0  0
 15  2  1  0  0  0  0
 16 31  1  0  0  0  0
 16  2  1  0  0  0  0
 17 16  1  0  0  0  0
 17  6  1  0  0  0  0
 18  6  1  0  0  0  0
 18 19  1  0  0  0  0
 19 36  1  0  0  0  0
 19  3  1  0  0  0  0
 20 39  1  0  0  0  0
 20  3  1  0  0  0  0
 21  7  1  0  0  0  0
 24 11  1  0  0  0  0
 25 12  1  0  0  0  0
 27 14  1  0  0  0  0
 28 15  1  0  0  0  0
 29 15  1  0  0  0  0
 30 16  1  0  0  0  0
 32 17  1  0  0  0  0
 33 17  1  0  0  0  0
 34 18  1  0  0  0  0
 35 18  1  0  0  0  0
 37 19  1  0  0  0  0
 38 20  1  0  0  0  0
M  END
