70,71
q = 0.0, confidence = 0.998

 79 79  0  0  0  0  0  0  0  0999 V2000
    0.4913    1.8448    0.7051 C   0  0  0  0  0  0  0  0  0  0  0  0
    0.0036    2.2064   -0.5620 C   0  0  0  0  0  0  0  0  0  0  0  0
    1.1022    2.8118    1.5097 C   0  0  0  0  0  0  0  0  0  0  0  0
    1.4606    2.5455    2.5156 H   0  0  0  0  0  0  0  0  0  0  0  0
    1.2515    4.1254    1.0356 C   0  0  0  0  0  0  0  0  0  0  0  0
    1.7433    4.8756    1.6738 H   0  0  0  0  0  0  0  0  0  0  0  0
    0.7810    4.5013   -0.2357 C   0  0  0  0  0  0  0  0  0  0  0  0
    0.1562    3.5150   -1.0300 C   0  0  0  0  0  0  0  0  0  0  0  0
   -0.2002    3.7705   -2.0408 H   0  0  0  0  0  0  0  0  0  0  0  0
    0.9424    5.9064   -0.7559 C   0  0  0  0  0  0  0  0  0  0  0  0
   -0.0429    6.3726   -0.9655 H   0  0  0  0  0  0  0  0  0  0  0  0
    1.5129    5.9184   -1.7076 H   0  0  0  0  0  0  0  0  0  0  0  0
    1.4754    6.5511   -0.0315 H   0  0  0  0  0  0  0  0  0  0  0  0
   -2.5151    1.2466   -1.4745 C   0  0  0  0  0  0  0  0  0  0  0  0
   -2.7137    2.3025   -1.7504 H   0  0  0  0  0  0  0  0  0  0  0  0
   -2.9485    0.5794   -2.2412 H   0  0  0  0  0  0  0  0  0  0  0  0
   -2.9807    0.9885   -0.0371 C   0  0  0  0  0  0  0  0  0  0  0  0
   -4.4261   -0.0640    1.5671 C   0  0  0  0  0  0  0  0  0  0  0  0
   -3.4895   -0.2718    2.1229 H   0  0  0  0  0  0  0  0  0  0  0  0
   -5.0451   -0.9827    1.5923 H   0  0  0  0  0  0  0  0  0  0  0  0
   -5.1733    1.0947    2.2541 C   0  0  0  0  0  0  0  0  0  0  0  0
   -4.4854    1.9667    2.2289 H   0  0  0  0  0  0  0  0  0  0  0  0
   -6.4676    1.4694    1.5257 C   0  0  0  0  0  0  0  0  0  0  0  0
   -7.1859    0.6209    1.5166 H   0  0  0  0  0  0  0  0  0  0  0  0
   -6.2762    1.7643    0.4740 H   0  0  0  0  0  0  0  0  0  0  0  0
   -6.9707    2.3235    2.0230 H   0  0  0  0  0  0  0  0  0  0  0  0
   -5.4344    0.7305    3.7192 C   0  0  0  0  0  0  0  0  0  0  0  0
   -6.0989   -0.1569    3.7989 H   0  0  0  0  0  0  0  0  0  0  0  0
   -5.9275    1.5648    4.2577 H   0  0  0  0  0  0  0  0  0  0  0  0
   -4.4919    0.4930    4.2534 H   0  0  0  0  0  0  0  0  0  0  0  0
   -4.8653   -0.4436   -0.8907 C   0  0  0  0  0  0  0  0  0  0  0  0
   -5.0046    0.2745   -1.7264 H   0  0  0  0  0  0  0  0  0  0  0  0
   -5.8803   -0.6032   -0.4707 H   0  0  0  0  0  0  0  0  0  0  0  0
   -4.3133   -1.7746   -1.4306 C   0  0  0  0  0  0  0  0  0  0  0  0
   -3.3437   -1.5703   -1.9360 H   0  0  0  0  0  0  0  0  0  0  0  0
    1.9836   -0.3896    1.5056 C   0  0  0  0  0  0  0  0  0  0  0  0
    2.4176    0.1148    2.3926 H   0  0  0  0  0  0  0  0  0  0  0  0
    1.8516   -1.4687    1.7331 H   0  0  0  0  0  0  0  0  0  0  0  0
    2.8362   -0.1764    0.2449 C   0  0  0  0  0  0  0  0  0  0  0  0
    5.0295   -0.2076   -0.7919 C   0  0  0  0  0  0  0  0  0  0  0  0
    4.3825   -0.1375   -1.6883 H   0  0  0  0  0  0  0  0  0  0  0  0
    5.7271   -1.0572   -0.9441 H   0  0  0  0  0  0  0  0  0  0  0  0
    5.8314    1.0997   -0.6261 C   0  0  0  0  0  0  0  0  0  0  0  0
    6.4806    0.9891    0.2741 H   0  0  0  0  0  0  0  0  0  0  0  0
    6.7451    1.2882   -1.8426 C   0  0  0  0  0  0  0  0  0  0  0  0
    6.1453    1.4023   -2.7703 H   0  0  0  0  0  0  0  0  0  0  0  0
    7.4230    0.4217   -1.9867 H   0  0  0  0  0  0  0  0  0  0  0  0
    7.3733    2.1952   -1.7364 H   0  0  0  0  0  0  0  0  0  0  0  0
    4.9224    2.3152   -0.4093 C   0  0  0  0  0  0  0  0  0  0  0  0
    5.5233    3.2403   -0.2943 H   0  0  0  0  0  0  0  0  0  0  0  0
    4.2989    2.2056    0.5006 H   0  0  0  0  0  0  0  0  0  0  0  0
    4.2291    2.4523   -1.2637 H   0  0  0  0  0  0  0  0  0  0  0  0
    4.7654   -1.2319    1.4668 C   0  0  0  0  0  0  0  0  0  0  0  0
    4.1468   -1.0935    2.3756 H   0  0  0  0  0  0  0  0  0  0  0  0
    5.7447   -0.7549    1.6903 H   0  0  0  0  0  0  0  0  0  0  0  0
    4.9796   -2.7428    1.2257 C   0  0  0  0  0  0  0  0  0  0  0  0
    5.5971   -2.8423    0.3041 H   0  0  0  0  0  0  0  0  0  0  0  0
    3.6640   -3.4923    1.0004 C   0  0  0  0  0  0  0  0  0  0  0  0
    3.0409   -3.5013    1.9196 H   0  0  0  0  0  0  0  0  0  0  0  0
    3.8542   -4.5497    0.7284 H   0  0  0  0  0  0  0  0  0  0  0  0
    3.0477   -3.0528    0.1915 H   0  0  0  0  0  0  0  0  0  0  0  0
    5.7793   -3.3352    2.3914 C   0  0  0  0  0  0  0  0  0  0  0  0
    5.2151   -3.2460    3.3445 H   0  0  0  0  0  0  0  0  0  0  0  0
    6.7548   -2.8239    2.5278 H   0  0  0  0  0  0  0  0  0  0  0  0
    5.9816   -4.4125    2.2283 H   0  0  0  0  0  0  0  0  0  0  0  0
   -4.0680    0.1893    0.1661 N   0  0  0  0  0  0  0  0  0  0  0  0
    4.1625   -0.5174    0.3460 N   0  0  0  0  0  0  0  0  0  0  0  0
   -2.3741    1.5221    0.9026 O   0  0  0  0  0  0  0  0  0  0  0  0
    2.3576    0.3058   -0.7844 O   0  0  0  0  0  0  0  0  0  0  0  0
    0.2485    0.1678    1.3216 S   0  0  0  0  0  0  0  0  0  0  0  0
   -0.6961    0.9634   -1.6725 S   0  0  0  0  0  0  0  0  0  0  0  0
   -4.0102   -2.7911   -0.3275 C   0  0  0  0  0  0  0  0  0  0  0  0
   -4.9260   -3.0759    0.2356 H   0  0  0  0  0  0  0  0  0  0  0  0
   -3.2543   -2.4074    0.3860 H   0  0  0  0  0  0  0  0  0  0  0  0
   -3.5773   -3.7098   -0.7693 H   0  0  0  0  0  0  0  0  0  0  0  0
   -5.2793   -2.3347   -2.4788 C   0  0  0  0  0  0  0  0  0  0  0  0
   -4.8584   -3.2466   -2.9463 H   0  0  0  0  0  0  0  0  0  0  0  0
   -5.4781   -1.6042   -3.2912 H   0  0  0  0  0  0  0  0  0  0  0  0
   -6.2570   -2.6078   -2.0252 H   0  0  0  0  0  0  0  0  0  0  0  0
  1 70  1  0  0  0  0
  1  3  1  0  0  0  0
  2  1  2  0  0  0  0
  3  4  1  0  0  0  0
  5  3  2  0  0  0  0
  5  6  1  0  0  0  0
  7  5  1  0  0  0  0
  8  2  1  0  0  0  0
  8  7  2  0  0  0  0
  9  8  1  0  0  0  0
 10  7  1  0  0  0  0
 10 13  1  0  0  0  0
 11 10  1  0  0  0  0
 12 10  1  0  0  0  0
 14 17  1  0  0  0  0
 15 14  1  0  0  0  0
 16 14  1  0  0  0  0
 17 66  1  0  0  0  0
 17 68  2  0  0  0  0
 18 20  1  0  0  0  0
 18 19  1  0  0  0  0
 18 21  1  0  0  0  0
 21 27  1  0  0  0  0
 22 21  1  0  0  0  0
 23 26  1  0  0  0  0
 23 21  1  0  0  0  0
 24 23  1  0  0  0  0
 25 23  1  0  0  0  0
 27 28  1  0  0  0  0
 27 30  1  0  0  0  0
 27 29  1  0  0  0  0
 31 33  1  0  0  0  0
 31 66  1  0  0  0  0
 32 31  1  0  0  0  0
 34 31  1  0  0  0  0
 34 72  1  0  0  0  0
 35 34  1  0  0  0  0
 36 38  1  0  0  0  0
 36 37  1  0  0  0  0
 39 67  1  0  0  0  0
 39 36  1  0  0  0  0
 40 43  1  0  0  0  0
 40 67  1  0  0  0  0
 41 40  1  0  0  0  0
 42 40  1  0  0  0  0
 43 49  1  0  0  0  0
 43 44  1  0  0  0  0
 45 48  1  0  0  0  0
 45 43  1  0  0  0  0
 46 45  1  0  0  0  0
 47 45  1  0  0  0  0
 49 50  1  0  0  0  0
 49 51  1  0  0  0  0
 52 49  1  0  0  0  0
 53 55  1  0  0  0  0
 53 54  1  0  0  0  0
 56 53  1  0  0  0  0
 56 62  1  0  0  0  0
 57 56  1  0  0  0  0
 58 56  1  0  0  0  0
 58 59  1  0  0  0  0
 60 58  1  0  0  0  0
 61 58  1  0  0  0  0
 62 64  1  0  0  0  0
 62 63  1  0  0  0  0
 65 62  1  0  0  0  0
 66 18  1  0  0  0  0
 67 53  1  0  0  0  0
 69 39  2  0  0  0  0
 70 36  1  0  0  0  0
 71 14  1  0  0  0  0
 71  2  1  0  0  0  0
 72 73  1  0  0  0  0
 72 74  1  0  0  0  0
 75 72  1  0  0  0  0
 76 79  1  0  0  0  0
 76 34  1  0  0  0  0
 77 76  1  0  0  0  0
 78 76  1  0  0  0  0
M  END
