1,2
q = 0.0, confidence = 0.994

 72 71  0  0  0  0  0  0  0  0999 V2000
   -1.4383   -2.2784    1.1794 S   0  0  0  0  0  0  0  0  0  0  0  0
    1.5441   -1.3938    0.2043 S   0  0  0  0  0  0  0  0  0  0  0  0
   -0.0860   -1.9906    2.4243 C   0  0  0  0  0  0  0  0  0  0  0  0
   -0.1907   -0.9373    2.7505 H   0  0  0  0  0  0  0  0  0  0  0  0
   -0.2791   -2.6736    3.2772 H   0  0  0  0  0  0  0  0  0  0  0  0
    1.2732   -2.2623    1.8129 C   0  0  0  0  0  0  0  0  0  0  0  0
    1.4331   -3.3324    1.5694 H   0  0  0  0  0  0  0  0  0  0  0  0
    2.0811   -1.9184    2.4933 H   0  0  0  0  0  0  0  0  0  0  0  0
    1.6975    0.3518    0.7716 C   0  0  0  0  0  0  0  0  0  0  0  0
    1.5539    0.9327   -0.1551 H   0  0  0  0  0  0  0  0  0  0  0  0
    0.8745    0.5835    1.4742 H   0  0  0  0  0  0  0  0  0  0  0  0
    3.0447    0.5057    1.4632 C   0  0  0  0  0  0  0  0  0  0  0  0
    4.1339    0.7900    0.6758 N   0  0  0  0  0  0  0  0  0  0  0  0
   -2.7267   -1.0956    1.7446 C   0  0  0  0  0  0  0  0  0  0  0  0
   -3.5774   -1.3486    1.0884 H   0  0  0  0  0  0  0  0  0  0  0  0
   -2.9788   -1.3753    2.7884 H   0  0  0  0  0  0  0  0  0  0  0  0
   -2.3166    0.3816    1.7013 C   0  0  0  0  0  0  0  0  0  0  0  0
   -4.4802    0.8906    0.5395 C   0  0  0  0  0  0  0  0  0  0  0  0
   -4.3080    0.0500   -0.1663 H   0  0  0  0  0  0  0  0  0  0  0  0
   -4.7855    1.7448   -0.0989 H   0  0  0  0  0  0  0  0  0  0  0  0
   -5.6252    0.5670    1.5189 C   0  0  0  0  0  0  0  0  0  0  0  0
   -5.3182   -0.3205    2.1180 H   0  0  0  0  0  0  0  0  0  0  0  0
   -6.8731    0.1793    0.7177 C   0  0  0  0  0  0  0  0  0  0  0  0
   -7.7050   -0.1147    1.3884 H   0  0  0  0  0  0  0  0  0  0  0  0
   -6.6705   -0.6682    0.0315 H   0  0  0  0  0  0  0  0  0  0  0  0
   -7.2269    1.0321    0.1002 H   0  0  0  0  0  0  0  0  0  0  0  0
   -5.9075    1.7114    2.4974 C   0  0  0  0  0  0  0  0  0  0  0  0
   -6.7198    1.4404    3.2016 H   0  0  0  0  0  0  0  0  0  0  0  0
   -6.2274    2.6278    1.9570 H   0  0  0  0  0  0  0  0  0  0  0  0
   -5.0125    1.9654    3.1004 H   0  0  0  0  0  0  0  0  0  0  0  0
   -2.8466    2.6885    1.1567 C   0  0  0  0  0  0  0  0  0  0  0  0
   -2.0390    2.8216    1.9027 H   0  0  0  0  0  0  0  0  0  0  0  0
   -3.7313    3.2653    1.4982 H   0  0  0  0  0  0  0  0  0  0  0  0
   -2.3807    3.2178   -0.2136 C   0  0  0  0  0  0  0  0  0  0  0  0
   -3.2045    3.0437   -0.9436 H   0  0  0  0  0  0  0  0  0  0  0  0
   -1.1390    2.4823   -0.7202 C   0  0  0  0  0  0  0  0  0  0  0  0
   -0.2817    2.6455   -0.0351 H   0  0  0  0  0  0  0  0  0  0  0  0
   -0.8459    2.8355   -1.7288 H   0  0  0  0  0  0  0  0  0  0  0  0
   -1.3085    1.3905   -0.8038 H   0  0  0  0  0  0  0  0  0  0  0  0
   -2.1505    4.7304   -0.1171 C   0  0  0  0  0  0  0  0  0  0  0  0
   -1.8502    5.1486   -1.0985 H   0  0  0  0  0  0  0  0  0  0  0  0
   -1.3391    4.9604    0.6058 H   0  0  0  0  0  0  0  0  0  0  0  0
   -3.0617    5.2690    0.2169 H   0  0  0  0  0  0  0  0  0  0  0  0
    4.1008    0.9564   -0.7779 C   0  0  0  0  0  0  0  0  0  0  0  0
    3.2229    0.4333   -1.2072 H   0  0  0  0  0  0  0  0  0  0  0  0
    4.9844    0.4255   -1.1913 H   0  0  0  0  0  0  0  0  0  0  0  0
    4.1244    2.4181   -1.2728 C   0  0  0  0  0  0  0  0  0  0  0  0
    5.0370    2.8990   -0.8515 H   0  0  0  0  0  0  0  0  0  0  0  0
    2.9056    3.2195   -0.8046 C   0  0  0  0  0  0  0  0  0  0  0  0
    1.9732    2.8310   -1.2661 H   0  0  0  0  0  0  0  0  0  0  0  0
    2.9982    4.2846   -1.0980 H   0  0  0  0  0  0  0  0  0  0  0  0
    2.7877    3.1884    0.2978 H   0  0  0  0  0  0  0  0  0  0  0  0
    4.2392    2.4228   -2.8017 C   0  0  0  0  0  0  0  0  0  0  0  0
    3.3578    1.9259   -3.2595 H   0  0  0  0  0  0  0  0  0  0  0  0
    5.1463    1.8858   -3.1477 H   0  0  0  0  0  0  0  0  0  0  0  0
    4.2865    3.4573   -3.1968 H   0  0  0  0  0  0  0  0  0  0  0  0
    5.4430    0.8553    1.3239 C   0  0  0  0  0  0  0  0  0  0  0  0
    5.9865    1.7431    0.9358 H   0  0  0  0  0  0  0  0  0  0  0  0
    5.2569    1.0126    2.4046 H   0  0  0  0  0  0  0  0  0  0  0  0
    6.3100   -0.4069    1.1314 C   0  0  0  0  0  0  0  0  0  0  0  0
    6.5392   -0.5056    0.0452 H   0  0  0  0  0  0  0  0  0  0  0  0
    7.6393   -0.2229    1.8720 C   0  0  0  0  0  0  0  0  0  0  0  0
    7.4716   -0.1309    2.9660 H   0  0  0  0  0  0  0  0  0  0  0  0
    8.1738    0.6898    1.5365 H   0  0  0  0  0  0  0  0  0  0  0  0
    8.3129   -1.0878    1.7078 H   0  0  0  0  0  0  0  0  0  0  0  0
    5.5802   -1.6787    1.5770 C   0  0  0  0  0  0  0  0  0  0  0  0
    6.2198   -2.5728    1.4319 H   0  0  0  0  0  0  0  0  0  0  0  0
    4.6493   -1.8347    0.9944 H   0  0  0  0  0  0  0  0  0  0  0  0
    5.3006   -1.6187    2.6487 H   0  0  0  0  0  0  0  0  0  0  0  0
   -3.2057    1.2658    1.1611 N   0  0  0  0  0  0  0  0  0  0  0  0
    3.1211    0.3041    2.6828 O   0  0  0  0  0  0  0  0  0  0  0  0
   -1.2375    0.7391    2.2027 O   0  0  0  0  0  0  0  0  0  0  0  0
  1 14  1  0  0  0  0
  1  3  1  0  0  0  0
  2  9  1  0  0  0  0
  2  6  1  0  0  0  0
  3  4  1  0  0  0  0
  3  5  1  0  0  0  0
  6  3  1  0  0  0  0
  6  8  1  0  0  0  0
  7  6  1  0  0  0  0
  9 12  1  0  0  0  0
  9 11  1  0  0  0  0
 10  9  1  0  0  0  0
 12 71  2  0  0  0  0
 13 57  1  0  0  0  0
 13 12  1  0  0  0  0
 14 16  1  0  0  0  0
 15 14  1  0  0  0  0
 17 14  1  0  0  0  0
 17 72  2  0  0  0  0
 18 70  1  0  0  0  0
 18 21  1  0  0  0  0
 19 18  1  0  0  0  0
 20 18  1  0  0  0  0
 21 22  1  0  0  0  0
 21 27  1  0  0  0  0
 23 24  1  0  0  0  0
 23 21  1  0  0  0  0
 25 23  1  0  0  0  0
 26 23  1  0  0  0  0
 27 30  1  0  0  0  0
 27 28  1  0  0  0  0
 29 27  1  0  0  0  0
 31 70  1  0  0  0  0
 31 33  1  0  0  0  0
 31 32  1  0  0  0  0
 34 40  1  0  0  0  0
 34 31  1  0  0  0  0
 35 34  1  0  0  0  0
 36 34  1  0  0  0  0
 36 37  1  0  0  0  0
 38 36  1  0  0  0  0
 39 36  1  0  0  0  0
 40 43  1  0  0  0  0
 40 42  1  0  0  0  0
 41 40  1  0  0  0  0
 44 13  1  0  0  0  0
 45 44  1  0  0  0  0
 46 44  1  0  0  0  0
 47 48  1  0  0  0  0
 47 49  1  0  0  0  0
 47 44  1  0  0  0  0
 49 52  1  0  0  0  0
 50 49  1  0  0  0  0
 51 49  1  0  0  0  0
 53 47  1  0  0  0  0
 54 53  1  0  0  0  0
 55 53  1  0  0  0  0
 56 53  1  0  0  0  0
 57 59  1  0  0  0  0
 58 57  1  0  0  0  0
 60 57  1  0  0  0  0
 60 66  1  0  0  0  0
 60 62  1  0  0  0  0
 61 60  1  0  0  0  0
 62 63  1  0  0  0  0
 64 62  1  0  0  0  0
 65 62  1  0  0  0  0
 66 69  1  0  0  0  0
 67 66  1  0  0  0  0
 68 66  1  0  0  0  0
 70 17  1  0  0  0  0
M  END
