1,2
q = -1.0, confidence = 0.0

 37 39  0  0  1  0  0  0  0  0999 V2000
    1.3092   -0.4970    1.9077 S   0  0  0  0  0  1  0  0  0  0  0  0
    1.2198   -1.8652   -1.3328 S   0  0  0  0  0  1  0  0  0  0  0  0
   -1.3285    0.2772    1.5581 N   0  0  0  0  0  0  0  0  0  0  0  0
   -0.6857    0.1569    3.6663 N   0  0  0  0  0  0  0  0  0  0  0  0
   -1.3131   -1.5434   -0.1827 N   0  0  0  0  0  0  0  0  0  0  0  0
   -0.7183   -3.6246   -0.6154 N   0  0  0  0  0  0  0  0  0  0  0  0
   -0.2642    0.0009    2.3687 C   0  0  1  0  0  3  0  0  0  0  0  0
   -2.0309    0.5123    3.6688 C   0  0  0  0  0  0  0  0  0  0  0  0
   -2.5782    0.6999    4.5969 H   0  0  0  0  0  0  0  0  0  0  0  0
   -2.4228    0.5872    2.3574 C   0  0  0  0  0  0  0  0  0  0  0  0
   -3.3872    0.8565    1.9185 H   0  0  0  0  0  0  0  0  0  0  0  0
    0.1609   -0.0274    4.8290 C   0  0  0  0  0  0  0  0  0  0  0  0
   -0.1950    0.6215    5.6506 H   0  0  0  0  0  0  0  0  0  0  0  0
    1.1982    0.2464    4.5539 H   0  0  0  0  0  0  0  0  0  0  0  0
    0.1571   -1.0845    5.1659 H   0  0  0  0  0  0  0  0  0  0  0  0
   -0.3010   -2.3158   -0.6824 C   0  0  1  0  0  3  0  0  0  0  0  0
   -2.3535   -2.3811    0.2069 C   0  0  0  0  0  0  0  0  0  0  0  0
   -3.2696   -1.9825    0.6509 H   0  0  0  0  0  0  0  0  0  0  0  0
   -1.9933   -3.6738   -0.0658 C   0  0  0  0  0  0  0  0  0  0  0  0
   -2.5236   -4.6182    0.0851 H   0  0  0  0  0  0  0  0  0  0  0  0
    0.0810   -4.7520   -1.0543 C   0  0  0  0  0  0  0  0  0  0  0  0
    1.1181   -4.6299   -0.6840 H   0  0  0  0  0  0  0  0  0  0  0  0
    0.1169   -4.8071   -2.1615 H   0  0  0  0  0  0  0  0  0  0  0  0
   -0.3558   -5.6839   -0.6520 H   0  0  0  0  0  0  0  0  0  0  0  0
   -2.6213    0.7168   -0.6873 C   0  0  0  0  0  0  0  0  0  0  0  0
   -2.8466    2.0968   -0.4636 C   0  0  0  0  0  0  0  0  0  0  0  0
   -2.1788    2.6500    0.2176 H   0  0  0  0  0  0  0  0  0  0  0  0
   -3.8894    2.7838   -1.1009 C   0  0  0  0  0  0  0  0  0  0  0  0
   -4.0384    3.8576   -0.9080 H   0  0  0  0  0  0  0  0  0  0  0  0
   -4.7348    2.1052   -1.9946 C   0  0  0  0  0  0  0  0  0  0  0  0
   -5.5534    2.6412   -2.4991 H   0  0  0  0  0  0  0  0  0  0  0  0
   -4.5177    0.7432   -2.2500 C   0  0  0  0  0  0  0  0  0  0  0  0
   -5.1643    0.2060   -2.9613 H   0  0  0  0  0  0  0  0  0  0  0  0
   -3.4705    0.0631   -1.6061 C   0  0  0  0  0  0  0  0  0  0  0  0
   -3.3083   -1.0018   -1.8356 H   0  0  0  0  0  0  0  0  0  0  0  0
   -1.3721   -0.0025    0.0228 B   0  0  1  0  0  0  0  0  0  0  0  0
   -0.4142    0.5634   -0.6001 H   0  0  0  0  0  0  0  0  0  0  0  0
  3 10  1  0  0  0  0
  3  7  1  0  0  0  0
  4  8  1  0  0  0  0
  4 12  1  0  0  0  0
  5 36  1  0  0  0  0
  5 17  1  0  0  0  0
  6 19  1  0  0  0  0
  7  1  1  1  0  0  0
  7  4  1  0  0  0  0
  8  9  1  0  0  0  0
 10  8  2  0  0  0  0
 11 10  1  0  0  0  0
 12 15  1  0  0  0  0
 12 13  1  0  0  0  0
 14 12  1  0  0  0  0
 16  2  1  6  0  0  0
 16  6  1  0  0  0  0
 16  5  1  0  0  0  0
 17 18  1  0  0  0  0
 19 20  1  0  0  0  0
 19 17  2  0  0  0  0
 21 22  1  0  0  0  0
 21 24  1  0  0  0  0
 21  6  1  0  0  0  0
 23 21  1  0  0  0  0
 25 26  1  0  0  0  0
 25 36  1  0  0  0  0
 26 27  1  0  0  0  0
 28 29  1  0  0  0  0
 28 26  2  0  0  0  0
 30 28  1  0  0  0  0
 31 30  1  0  0  0  0
 32 30  2  0  0  0  0
 32 34  1  0  0  0  0
 33 32  1  0  0  0  0
 34 25  2  0  0  0  0
 35 34  1  0  0  0  0
 36 37  1  6  0  0  0
 36  3  1  0  0  0  0
M  END
