1,2
q = -2.0, confidence = 0.642

 14 14  0  0  0  0  0  0  0  0999 V2000
    0.2544   -2.4819   -0.6246 S   0  0  0  0  0  1  0  0  0  0  0  0
   -1.9348   -0.4888    0.4408 S   0  0  0  0  0  1  0  0  0  0  0  0
   -4.0023   -3.9517    0.1488 N   0  0  0  0  0  0  0  0  0  0  0  0
   -6.0184   -2.1508    0.9507 N   0  0  0  0  0  0  0  0  0  0  0  0
   -1.3468   -3.0411   -0.2725 C   0  0  0  0  0  0  0  0  0  0  0  0
   -1.5646   -4.1125   -0.4093 H   0  0  0  0  0  0  0  0  0  0  0  0
   -2.3386   -2.1878    0.1450 C   0  0  0  0  0  0  0  0  0  0  0  0
   -5.2655   -4.3421    0.3374 C   0  0  0  0  0  0  0  0  0  0  0  0
   -5.4916   -5.4113    0.1670 H   0  0  0  0  0  0  0  0  0  0  0  0
   -6.2792   -3.4514    0.7326 C   0  0  0  0  0  0  0  0  0  0  0  0
   -7.3183   -3.7971    0.8765 H   0  0  0  0  0  0  0  0  0  0  0  0
   -4.7545   -1.7551    0.7717 C   0  0  0  0  0  0  0  0  0  0  0  0
   -4.5230   -0.6908    0.9532 H   0  0  0  0  0  0  0  0  0  0  0  0
   -3.7187   -2.6416    0.3600 C   0  0  0  0  0  0  0  0  0  0  0  0
  1  5  1  0  0  0  0
  3  8  2  0  0  0  0
  3 14  1  0  0  0  0
  5  7  2  0  0  0  0
  6  5  1  0  0  0  0
  7 14  1  0  0  0  0
  7  2  1  0  0  0  0
  8 10  1  0  0  0  0
  9  8  1  0  0  0  0
 10 11  1  0  0  0  0
 10  4  2  0  0  0  0
 12  4  1  0  0  0  0
 12 13  1  0  0  0  0
 14 12  2  0  0  0  0
M  END
