1,2
q = 0.0, confidence = 1.0

 31 32  0  0  0  0  0  0  0  0999 V2000
   -0.1802   -0.3083    1.8493 S   0  0  0  0  0  0  0  0  0  0  0  0
   -0.1814   -0.3596   -1.8390 S   0  0  0  0  0  0  0  0  0  0  0  0
    1.7060   -2.2309    0.0301 O   0  0  0  0  0  0  0  0  0  0  0  0
    1.2252   -2.7535    1.2431 C   0  0  0  0  0  0  0  0  0  0  0  0
    1.9502   -3.4831    1.6816 H   0  0  0  0  0  0  0  0  0  0  0  0
    0.2777   -3.3238    1.0801 H   0  0  0  0  0  0  0  0  0  0  0  0
    1.0180   -1.6482    2.2752 C   0  0  0  0  0  0  0  0  0  0  0  0
    1.9475   -1.0646    2.4358 H   0  0  0  0  0  0  0  0  0  0  0  0
    0.6989   -2.0858    3.2438 H   0  0  0  0  0  0  0  0  0  0  0  0
   -1.7174   -1.3000    1.5087 C   0  0  0  0  0  0  0  0  0  0  0  0
   -1.4398   -2.2385    0.9937 H   0  0  0  0  0  0  0  0  0  0  0  0
   -2.1240   -1.5573    2.5067 H   0  0  0  0  0  0  0  0  0  0  0  0
   -2.6903   -0.4749    0.7167 C   0  0  0  0  0  0  0  0  0  0  0  0
   -3.5904    0.3725    1.3910 C   0  0  0  0  0  0  0  0  0  0  0  0
   -3.5846    0.3896    2.4920 H   0  0  0  0  0  0  0  0  0  0  0  0
   -4.4790    1.1937    0.6850 C   0  0  0  0  0  0  0  0  0  0  0  0
   -5.1709    1.8515    1.2316 H   0  0  0  0  0  0  0  0  0  0  0  0
   -4.4796    1.1736   -0.7175 C   0  0  0  0  0  0  0  0  0  0  0  0
   -5.1718    1.8155   -1.2822 H   0  0  0  0  0  0  0  0  0  0  0  0
   -3.5914    0.3326   -1.4003 C   0  0  0  0  0  0  0  0  0  0  0  0
   -3.5863    0.3181   -2.5014 H   0  0  0  0  0  0  0  0  0  0  0  0
   -2.6909   -0.4952   -0.7027 C   0  0  0  0  0  0  0  0  0  0  0  0
   -1.7181   -1.3422   -1.4714 C   0  0  0  0  0  0  0  0  0  0  0  0
   -2.1246   -1.6267   -2.4621 H   0  0  0  0  0  0  0  0  0  0  0  0
   -1.4410   -2.2664   -0.9308 H   0  0  0  0  0  0  0  0  0  0  0  0
    1.0171   -1.7098   -2.2298 C   0  0  0  0  0  0  0  0  0  0  0  0
    0.6975   -2.1735   -3.1861 H   0  0  0  0  0  0  0  0  0  0  0  0
    1.9462   -1.1302   -2.4068 H   0  0  0  0  0  0  0  0  0  0  0  0
    1.2256   -2.7867   -1.1684 C   0  0  0  0  0  0  0  0  0  0  0  0
    0.2788   -3.3533   -0.9899 H   0  0  0  0  0  0  0  0  0  0  0  0
    1.9515   -3.5270   -1.5870 H   0  0  0  0  0  0  0  0  0  0  0  0
  1  7  1  0  0  0  0
  2 23  1  0  0  0  0
  3  4  1  0  0  0  0
  4  5  1  0  0  0  0
  4  7  1  0  0  0  0
  6  4  1  0  0  0  0
  7  8  1  0  0  0  0
  7  9  1  0  0  0  0
 10  1  1  0  0  0  0
 10 12  1  0  0  0  0
 11 10  1  0  0  0  0
 13 14  1  0  0  0  0
 13 10  1  0  0  0  0
 14 15  1  0  0  0  0
 16 17  1  0  0  0  0
 16 14  2  0  0  0  0
 18 16  1  0  0  0  0
 19 18  1  0  0  0  0
 20 18  2  0  0  0  0
 20 22  1  0  0  0  0
 21 20  1  0  0  0  0
 22 13  2  0  0  0  0
 23 25  1  0  0  0  0
 23 22  1  0  0  0  0
 24 23  1  0  0  0  0
 26  2  1  0  0  0  0
 26 29  1  0  0  0  0
 27 26  1  0  0  0  0
 28 26  1  0  0  0  0
 29 30  1  0  0  0  0
 29  3  1  0  0  0  0
 31 29  1  0  0  0  0
M  END
