1,2
q = 0.0, confidence = 1.0

 45 47  0  0  0  0  0  0  0  0999 V2000
   -2.0252   -1.1113    0.8448 S   0  0  0  0  0  0  0  0  0  0  0  0
    1.5642   -1.2403    0.9505 S   0  0  0  0  0  0  0  0  0  0  0  0
    1.6689    2.6172   -0.0618 O   0  0  0  0  0  0  0  0  0  0  0  0
   -1.0284    2.4095   -0.9409 O   0  0  0  0  0  0  0  0  0  0  0  0
    1.1801    3.2431   -1.2455 C   0  0  0  0  0  0  0  0  0  0  0  0
    1.2702    2.5572   -2.1190 H   0  0  0  0  0  0  0  0  0  0  0  0
    1.7574    4.1683   -1.4769 H   0  0  0  0  0  0  0  0  0  0  0  0
   -0.2714    3.6102   -1.0196 C   0  0  0  0  0  0  0  0  0  0  0  0
   -0.3603    4.1912   -0.0738 H   0  0  0  0  0  0  0  0  0  0  0  0
   -0.6316    4.2483   -1.8587 H   0  0  0  0  0  0  0  0  0  0  0  0
   -2.3453    2.4615   -0.5729 C   0  0  0  0  0  0  0  0  0  0  0  0
   -3.0406    3.6629   -0.3349 C   0  0  0  0  0  0  0  0  0  0  0  0
   -2.5379    4.6325   -0.4466 H   0  0  0  0  0  0  0  0  0  0  0  0
   -4.3916    3.6252    0.0452 C   0  0  0  0  0  0  0  0  0  0  0  0
   -4.9235    4.5708    0.2293 H   0  0  0  0  0  0  0  0  0  0  0  0
   -5.0599    2.4006    0.1841 C   0  0  0  0  0  0  0  0  0  0  0  0
   -6.1193    2.3737    0.4773 H   0  0  0  0  0  0  0  0  0  0  0  0
   -4.3655    1.2076   -0.0636 C   0  0  0  0  0  0  0  0  0  0  0  0
   -4.8764    0.2373    0.0399 H   0  0  0  0  0  0  0  0  0  0  0  0
   -3.0108    1.2106   -0.4427 C   0  0  0  0  0  0  0  0  0  0  0  0
   -2.2692   -0.0649   -0.6890 C   0  0  0  0  0  0  0  0  0  0  0  0
   -1.2789    0.1140   -1.1403 H   0  0  0  0  0  0  0  0  0  0  0  0
   -2.8125   -0.7846   -1.3330 H   0  0  0  0  0  0  0  0  0  0  0  0
   -1.5072    0.1319    2.0900 C   0  0  0  0  0  0  0  0  0  0  0  0
   -2.3464    0.8568    2.1238 H   0  0  0  0  0  0  0  0  0  0  0  0
   -1.5303   -0.4418    3.0405 H   0  0  0  0  0  0  0  0  0  0  0  0
   -0.1816    0.8605    1.9032 C   0  0  0  0  0  0  0  0  0  0  0  0
   -0.1722    1.7060    2.6261 H   0  0  0  0  0  0  0  0  0  0  0  0
   -0.1253    1.3379    0.9065 H   0  0  0  0  0  0  0  0  0  0  0  0
    1.0777    0.0429    2.1696 C   0  0  0  0  0  0  0  0  0  0  0  0
    1.0081   -0.5196    3.1242 H   0  0  0  0  0  0  0  0  0  0  0  0
    1.9630    0.7078    2.2438 H   0  0  0  0  0  0  0  0  0  0  0  0
    1.9751   -0.1910   -0.5310 C   0  0  0  0  0  0  0  0  0  0  0  0
    2.1794   -0.9793   -1.2833 H   0  0  0  0  0  0  0  0  0  0  0  0
    1.0620    0.3604   -0.8194 H   0  0  0  0  0  0  0  0  0  0  0  0
    3.1423    0.7194   -0.3041 C   0  0  0  0  0  0  0  0  0  0  0  0
    4.4579    0.2118   -0.2613 C   0  0  0  0  0  0  0  0  0  0  0  0
    4.6080   -0.8712   -0.3938 H   0  0  0  0  0  0  0  0  0  0  0  0
    5.5538    1.0599   -0.0596 C   0  0  0  0  0  0  0  0  0  0  0  0
    6.5719    0.6441   -0.0351 H   0  0  0  0  0  0  0  0  0  0  0  0
    5.3506    2.4401    0.1110 C   0  0  0  0  0  0  0  0  0  0  0  0
    6.2077    3.1107    0.2741 H   0  0  0  0  0  0  0  0  0  0  0  0
    4.0512    2.9647    0.0854 C   0  0  0  0  0  0  0  0  0  0  0  0
    3.8672    4.0385    0.2396 H   0  0  0  0  0  0  0  0  0  0  0  0
    2.9537    2.1092   -0.1125 C   0  0  0  0  0  0  0  0  0  0  0  0
  1 24  1  0  0  0  0
  2 30  1  0  0  0  0
  4 11  1  0  0  0  0
  5  8  1  0  0  0  0
  5  3  1  0  0  0  0
  6  5  1  0  0  0  0
  7  5  1  0  0  0  0
  8  4  1  0  0  0  0
  8  9  1  0  0  0  0
 10  8  1  0  0  0  0
 11 20  2  0  0  0  0
 11 12  1  0  0  0  0
 12 14  2  0  0  0  0
 13 12  1  0  0  0  0
 14 16  1  0  0  0  0
 14 15  1  0  0  0  0
 16 17  1  0  0  0  0
 18 19  1  0  0  0  0
 18 16  2  0  0  0  0
 20 18  1  0  0  0  0
 21 20  1  0  0  0  0
 21  1  1  0  0  0  0
 22 21  1  0  0  0  0
 23 21  1  0  0  0  0
 24 25  1  0  0  0  0
 24 26  1  0  0  0  0
 27 24  1  0  0  0  0
 27 30  1  0  0  0  0
 27 28  1  0  0  0  0
 29 27  1  0  0  0  0
 30 32  1  0  0  0  0
 30 31  1  0  0  0  0
 33 36  1  0  0  0  0
 33  2  1  0  0  0  0
 34 33  1  0  0  0  0
 35 33  1  0  0  0  0
 36 37  2  0  0  0  0
 36 45  1  0  0  0  0
 37 39  1  0  0  0  0
 38 37  1  0  0  0  0
 39 40  1  0  0  0  0
 39 41  2  0  0  0  0
 41 42  1  0  0  0  0
 43 41  1  0  0  0  0
 43 44  1  0  0  0  0
 45  3  1  0  0  0  0
 45 43  2  0  0  0  0
M  END
