1,2
q = 0.0, confidence = 1.0

 45 47  0  0  0  0  0  0  0  0999 V2000
    1.9985   -1.0492   -0.9186 S   0  0  0  0  0  0  0  0  0  0  0  0
   -1.2678   -1.2656   -0.9882 S   0  0  0  0  0  0  0  0  0  0  0  0
    1.1109    2.5781    0.7509 O   0  0  0  0  0  0  0  0  0  0  0  0
   -2.0795    2.0431    0.7990 O   0  0  0  0  0  0  0  0  0  0  0  0
   -0.6922    3.6090    2.0181 C   0  0  0  0  0  0  0  0  0  0  0  0
   -0.8337    4.5304    2.6207 H   0  0  0  0  0  0  0  0  0  0  0  0
   -0.5349    2.7832    2.7431 H   0  0  0  0  0  0  0  0  0  0  0  0
    0.5739    3.8221    1.1967 C   0  0  0  0  0  0  0  0  0  0  0  0
    0.3564    4.4848    0.3255 H   0  0  0  0  0  0  0  0  0  0  0  0
    1.3386    4.3378    1.8202 H   0  0  0  0  0  0  0  0  0  0  0  0
    2.3684    2.5889    0.2056 C   0  0  0  0  0  0  0  0  0  0  0  0
    3.0163    3.7657   -0.2239 C   0  0  0  0  0  0  0  0  0  0  0  0
    2.5182    4.7402   -0.1421 H   0  0  0  0  0  0  0  0  0  0  0  0
    4.3059    3.6988   -0.7732 C   0  0  0  0  0  0  0  0  0  0  0  0
    4.7955    4.6263   -1.1065 H   0  0  0  0  0  0  0  0  0  0  0  0
    4.9655    2.4679   -0.8959 C   0  0  0  0  0  0  0  0  0  0  0  0
    5.9782    2.4166   -1.3210 H   0  0  0  0  0  0  0  0  0  0  0  0
    4.3210    1.3006   -0.4647 C   0  0  0  0  0  0  0  0  0  0  0  0
    4.8248    0.3254   -0.5546 H   0  0  0  0  0  0  0  0  0  0  0  0
    3.0284    1.3350    0.0910 C   0  0  0  0  0  0  0  0  0  0  0  0
    2.3470    0.0745    0.5239 C   0  0  0  0  0  0  0  0  0  0  0  0
    1.4030    0.2653    1.0635 H   0  0  0  0  0  0  0  0  0  0  0  0
    2.9762   -0.5892    1.1509 H   0  0  0  0  0  0  0  0  0  0  0  0
    0.9569    0.0351   -1.9901 C   0  0  0  0  0  0  0  0  0  0  0  0
    1.5255    0.9700   -2.1765 H   0  0  0  0  0  0  0  0  0  0  0  0
    0.8910   -0.5233   -2.9463 H   0  0  0  0  0  0  0  0  0  0  0  0
   -0.4082    0.3257   -1.3990 C   0  0  0  0  0  0  0  0  0  0  0  0
   -1.0482    0.8737   -2.1211 H   0  0  0  0  0  0  0  0  0  0  0  0
   -0.3339    0.9328   -0.4760 H   0  0  0  0  0  0  0  0  0  0  0  0
   -2.3313   -0.7113    0.4265 C   0  0  0  0  0  0  0  0  0  0  0  0
   -2.7197   -1.6811    0.7980 H   0  0  0  0  0  0  0  0  0  0  0  0
   -1.6626   -0.2841    1.1952 H   0  0  0  0  0  0  0  0  0  0  0  0
   -3.3931    0.2450   -0.0194 C   0  0  0  0  0  0  0  0  0  0  0  0
   -4.5566   -0.2168   -0.6605 C   0  0  0  0  0  0  0  0  0  0  0  0
   -4.6685   -1.3004   -0.8218 H   0  0  0  0  0  0  0  0  0  0  0  0
   -5.5611    0.6661   -1.0813 C   0  0  0  0  0  0  0  0  0  0  0  0
   -6.4651    0.2815   -1.5751 H   0  0  0  0  0  0  0  0  0  0  0  0
   -5.4033    2.0402   -0.8555 C   0  0  0  0  0  0  0  0  0  0  0  0
   -6.1840    2.7476   -1.1736 H   0  0  0  0  0  0  0  0  0  0  0  0
   -4.2521    2.5327   -0.2204 C   0  0  0  0  0  0  0  0  0  0  0  0
   -4.1505    3.6131   -0.0557 H   0  0  0  0  0  0  0  0  0  0  0  0
   -3.2391    1.6426    0.1890 C   0  0  0  0  0  0  0  0  0  0  0  0
   -1.9921    3.3880    1.2555 C   0  0  0  0  0  0  0  0  0  0  0  0
   -2.8599    3.6040    1.9195 H   0  0  0  0  0  0  0  0  0  0  0  0
   -2.0518    4.0954    0.3943 H   0  0  0  0  0  0  0  0  0  0  0  0
  1 21  1  0  0  0  0
  2 30  1  0  0  0  0
  3  8  1  0  0  0  0
  4 43  1  0  0  0  0
  5  6  1  0  0  0  0
  5  7  1  0  0  0  0
  8 10  1  0  0  0  0
  8  5  1  0  0  0  0
  9  8  1  0  0  0  0
 11  3  1  0  0  0  0
 12 13  1  0  0  0  0
 12 11  2  0  0  0  0
 14 12  1  0  0  0  0
 15 14  1  0  0  0  0
 16 14  2  0  0  0  0
 16 18  1  0  0  0  0
 17 16  1  0  0  0  0
 18 20  2  0  0  0  0
 19 18  1  0  0  0  0
 20 11  1  0  0  0  0
 20 21  1  0  0  0  0
 21 22  1  0  0  0  0
 21 23  1  0  0  0  0
 24 27  1  0  0  0  0
 24  1  1  0  0  0  0
 25 24  1  0  0  0  0
 26 24  1  0  0  0  0
 27  2  1  0  0  0  0
 27 29  1  0  0  0  0
 28 27  1  0  0  0  0
 30 31  1  0  0  0  0
 30 32  1  0  0  0  0
 33 42  1  0  0  0  0
 33 30  1  0  0  0  0
 34 33  2  0  0  0  0
 35 34  1  0  0  0  0
 36 38  2  0  0  0  0
 36 34  1  0  0  0  0
 37 36  1  0  0  0  0
 38 40  1  0  0  0  0
 39 38  1  0  0  0  0
 40 41  1  0  0  0  0
 40 42  2  0  0  0  0
 42  4  1  0  0  0  0
 43 44  1  0  0  0  0
 43  5  1  0  0  0  0
 45 43  1  0  0  0  0
M  END
