1,2
q = -2.0, confidence = 0.684

  8  7  0  0  0  0  0  0  0  0999 V2000
    1.7790    2.7550   -0.2107 S   0  0  0  0  0  1  0  0  0  0  0  0
   -1.0990    3.1253   -0.1559 S   0  0  0  0  0  1  0  0  0  0  0  0
    0.5478    5.2655   -0.1345 N   0  0  0  0  0  0  0  0  0  0  0  0
    0.4598    3.9989   -0.1579 C   0  0  0  0  0  0  0  0  0  0  0  0
    1.8282    5.9272   -0.1247 C   0  0  0  0  0  0  0  0  0  0  0  0
    1.9348    6.5548   -1.0371 H   0  0  0  0  0  0  0  0  0  0  0  0
    2.7058    5.2396   -0.0735 H   0  0  0  0  0  0  0  0  0  0  0  0
    1.8835    6.6251    0.7392 H   0  0  0  0  0  0  0  0  0  0  0  0
  1  4  1  0  0  0  0
  3  5  1  0  0  0  0
  4  2  1  0  0  0  0
  4  3  2  0  0  0  0
  5  7  1  0  0  0  0
  5  8  1  0  0  0  0
  6  5  1  0  0  0  0
M  END
