1,3
q = -2.0, confidence = 0.566

 39 41  0  0  1  0  0  0  0  0999 V2000
    1.6703    1.6935   -0.1810 S   0  0  0  0  0  1  0  0  0  0  0  0
    4.6887    1.4886   -0.1547 S   0  0  0  0  0  0  0  0  0  0  0  0
    1.6702   -1.6934   -0.1814 S   0  0  0  0  0  1  0  0  0  0  0  0
    4.6886   -1.4886   -0.1551 S   0  0  0  0  0  0  0  0  0  0  0  0
    5.6753    0.0002   -2.2435 O   0  0  0  0  0  0  0  0  0  0  0  0
    7.1428   -0.0002    1.0708 O   0  0  0  0  0  0  0  0  0  0  0  0
    8.5903   -0.0002    1.1744 N   0  0  2  0  0  0  0  0  0  0  0  0
    3.1071    0.6821   -0.0682 C   0  0  0  0  0  0  0  0  0  0  0  0
    4.4401    0.0004   -2.9543 C   0  0  0  0  0  0  0  0  0  0  0  0
    3.8417   -0.9033   -2.7083 H   0  0  0  0  0  0  0  0  0  0  0  0
    4.7012    0.0005   -4.0293 H   0  0  0  0  0  0  0  0  0  0  0  0
    3.8418    0.9039   -2.7081 H   0  0  0  0  0  0  0  0  0  0  0  0
    7.8643   -1.2542   -0.7573 C   0  0  0  0  0  0  0  0  0  0  0  0
    8.3557   -1.1440   -1.7420 H   0  0  0  0  0  0  0  0  0  0  0  0
    7.2234   -2.1566   -0.7936 H   0  0  0  0  0  0  0  0  0  0  0  0
    7.8644    1.2542   -0.7569 C   0  0  0  0  0  0  0  0  0  0  0  0
    7.2234    2.1567   -0.7930 H   0  0  0  0  0  0  0  0  0  0  0  0
    8.3558    1.1443   -1.7417 H   0  0  0  0  0  0  0  0  0  0  0  0
    8.4582    2.4028    1.4365 C   0  0  0  0  0  0  0  0  0  0  0  0
    7.4143    2.2511    1.7666 H   0  0  0  0  0  0  0  0  0  0  0  0
    8.5369    3.3978    0.9524 H   0  0  0  0  0  0  0  0  0  0  0  0
    9.1206    2.3821    2.3250 H   0  0  0  0  0  0  0  0  0  0  0  0
    8.8662    1.3000    0.4424 C   0  0  0  0  0  0  0  0  0  0  0  0
    5.5909    0.0001   -0.8544 C   0  0  1  0  0  0  0  0  0  0  0  0
    8.8662   -1.3003    0.4421 C   0  0  0  0  0  0  0  0  0  0  0  0
    7.0443   -0.0000   -0.3802 C   0  0  2  0  0  0  0  0  0  0  0  0
    8.4583   -2.4034    1.4358 C   0  0  0  0  0  0  0  0  0  0  0  0
    8.5369   -3.3982    0.9515 H   0  0  0  0  0  0  0  0  0  0  0  0
    7.4143   -2.2518    1.7660 H   0  0  0  0  0  0  0  0  0  0  0  0
    9.1206   -2.3828    2.3244 H   0  0  0  0  0  0  0  0  0  0  0  0
    3.1071   -0.6821   -0.0684 C   0  0  0  0  0  0  0  0  0  0  0  0
   10.3271   -1.5253    0.0451 C   0  0  0  0  0  0  0  0  0  0  0  0
   11.0065   -1.2722    0.8835 H   0  0  0  0  0  0  0  0  0  0  0  0
   10.6360   -0.9522   -0.8465 H   0  0  0  0  0  0  0  0  0  0  0  0
   10.4714   -2.5985   -0.1912 H   0  0  0  0  0  0  0  0  0  0  0  0
   10.3271    1.5251    0.0456 C   0  0  0  0  0  0  0  0  0  0  0  0
   11.0065    1.2718    0.8838 H   0  0  0  0  0  0  0  0  0  0  0  0
   10.4714    2.5985   -0.1905 H   0  0  0  0  0  0  0  0  0  0  0  0
   10.6361    0.9523   -0.8462 H   0  0  0  0  0  0  0  0  0  0  0  0
  1  8  1  0  0  0  0
  2  8  1  0  0  0  0
  3 31  1  0  0  0  0
  4 31  1  0  0  0  0
  7  6  1  6  0  0  0
  9 10  1  0  0  0  0
  9 12  1  0  0  0  0
  9  5  1  0  0  0  0
 11  9  1  0  0  0  0
 13 26  1  0  0  0  0
 13 25  1  0  0  0  0
 14 13  1  0  0  0  0
 15 13  1  0  0  0  0
 16 26  1  0  0  0  0
 16 23  1  0  0  0  0
 17 16  1  0  0  0  0
 18 16  1  0  0  0  0
 19 20  1  0  0  0  0
 19 22  1  0  0  0  0
 21 19  1  0  0  0  0
 23  7  1  0  0  0  0
 23 19  1  0  0  0  0
 24  5  1  6  0  0  0
 24 26  1  0  0  0  0
 24  4  1  0  0  0  0
 24  2  1  0  0  0  0
 25  7  1  0  0  0  0
 25 27  1  0  0  0  0
 26  6  1  1  0  0  0
 27 29  1  0  0  0  0
 27 30  1  0  0  0  0
 28 27  1  0  0  0  0
 31  8  2  0  0  0  0
 32 25  1  0  0  0  0
 32 33  1  0  0  0  0
 34 32  1  0  0  0  0
 35 32  1  0  0  0  0
 36 23  1  0  0  0  0
 36 37  1  0  0  0  0
 38 36  1  0  0  0  0
 39 36  1  0  0  0  0
M  END
