1,4
q = -1.0, confidence = 0.046

  4  3  0  0  0  0  0  0  0  0999 V2000
   -0.0000    1.4252    1.9379 S   0  0  0  0  0  1  0  0  0  0  0  0
   -0.0002   -0.0001    2.8456 C   0  0  0  0  0  3  0  0  0  0  0  0
   -0.0002   -0.0001    3.9538 H   0  0  0  0  0  0  0  0  0  0  0  0
   -0.0000   -1.4253    1.9379 S   0  0  0  0  0  1  0  0  0  0  0  0
  1  2  1  0  0  0  0
  2  3  1  0  0  0  0
  4  2  1  0  0  0  0
M  END
