1,2
q = -1.0, confidence = 0.0

 12 12  0  0  0  0  0  0  0  0999 V2000
    0.3537    1.8032   -1.4315 S   0  0  0  0  0  1  0  0  0  0  0  0
   -0.3565    1.8319    1.3598 S   0  0  0  0  0  1  0  0  0  0  0  0
   -0.0099    4.1106   -0.0335 N   0  0  0  0  0  0  0  0  0  0  0  0
   -0.0021    2.7306   -0.0452 C   0  0  0  0  0  3  0  0  0  0  0  0
   -0.3448    5.0079    1.1363 C   0  0  0  0  0  0  0  0  0  0  0  0
    0.3462    4.7692    1.9740 H   0  0  0  0  0  0  0  0  0  0  0  0
   -1.3688    4.7595    1.4909 H   0  0  0  0  0  0  0  0  0  0  0  0
   -0.2278    6.4146    0.6890 C   0  0  0  0  0  2  0  0  0  0  0  0
    0.2745    4.9453   -1.0643 C   0  0  0  0  0  0  0  0  0  0  0  0
    0.3445    7.1187   -1.3734 H   0  0  0  0  0  0  0  0  0  0  0  0
    0.5541    4.5095   -2.0375 H   0  0  0  0  0  0  0  0  0  0  0  0
    0.1540    6.2895   -0.6739 C   0  0  0  0  0  0  0  0  0  0  0  0
  1  4  1  0  0  0  0
  3  5  1  0  0  0  0
  4  3  1  0  0  0  0
  4  2  1  0  0  0  0
  5  7  1  0  0  0  0
  5  6  1  0  0  0  0
  8  5  1  0  0  0  0
  9 12  2  0  0  0  0
  9  3  1  0  0  0  0
 10 12  1  0  0  0  0
 11  9  1  0  0  0  0
 12  8  1  0  0  0  0
M  END
