1,2
q = -1.0, confidence = 0.006

 38 40  0  0  0  0  0  0  0  0999 V2000
   -1.6425    1.4796    0.2605 S   0  0  0  0  0  1  0  0  0  0  0  0
   -1.1574   -1.3862   -1.3212 S   0  0  0  0  0  1  0  0  0  0  0  0
   -2.8376   -1.1786   -0.1956 P   0  0  0  0  0  4  0  0  0  0  0  0
   -4.3962    0.9756    0.0672 N   0  0  0  0  0  0  0  0  0  0  0  0
   -3.1528    0.6250    0.0343 C   0  0  0  0  0  0  0  0  0  0  0  0
   -2.6879   -1.8717    1.4824 C   0  0  0  0  0  0  0  0  0  0  0  0
   -1.4813   -2.4458    1.9191 C   0  0  0  0  0  0  0  0  0  0  0  0
   -1.3821   -2.9191    3.2361 C   0  0  0  0  0  0  0  0  0  0  0  0
   -2.4771   -2.8131    4.1082 C   0  0  0  0  0  0  0  0  0  0  0  0
   -3.6782   -2.2292    3.6694 C   0  0  0  0  0  0  0  0  0  0  0  0
   -3.7894   -1.7526    2.3561 C   0  0  0  0  0  0  0  0  0  0  0  0
   -4.2709   -1.9615   -0.9861 C   0  0  0  0  0  0  0  0  0  0  0  0
   -4.7171   -3.2344   -0.5792 C   0  0  0  0  0  0  0  0  0  0  0  0
   -5.7863   -3.8448   -1.2514 C   0  0  0  0  0  0  0  0  0  0  0  0
   -6.4077   -3.1894   -2.3259 C   0  0  0  0  0  0  0  0  0  0  0  0
   -5.9584   -1.9223   -2.7347 C   0  0  0  0  0  0  0  0  0  0  0  0
   -4.8898   -1.3058   -2.0711 C   0  0  0  0  0  0  0  0  0  0  0  0
   -4.9441    2.2355    0.2902 C   0  0  0  0  0  0  0  0  0  0  0  0
   -4.2319    3.3914    0.7075 C   0  0  0  0  0  0  0  0  0  0  0  0
   -4.9098    4.6011    0.9076 C   0  0  0  0  0  0  0  0  0  0  0  0
   -6.2949    4.6943    0.6938 C   0  0  0  0  0  0  0  0  0  0  0  0
   -7.0107    3.5557    0.2827 C   0  0  0  0  0  0  0  0  0  0  0  0
   -6.3455    2.3419    0.0897 C   0  0  0  0  0  0  0  0  0  0  0  0
   -0.6247   -2.5040    1.2298 H   0  0  0  0  0  0  0  0  0  0  0  0
   -0.4380   -3.3661    3.5817 H   0  0  0  0  0  0  0  0  0  0  0  0
   -2.3936   -3.1823    5.1418 H   0  0  0  0  0  0  0  0  0  0  0  0
   -4.5322   -2.1370    4.3574 H   0  0  0  0  0  0  0  0  0  0  0  0
   -4.7191   -1.2761    2.0079 H   0  0  0  0  0  0  0  0  0  0  0  0
   -4.2301   -3.7449    0.2650 H   0  0  0  0  0  0  0  0  0  0  0  0
   -6.1348   -4.8387   -0.9328 H   0  0  0  0  0  0  0  0  0  0  0  0
   -7.2482   -3.6693   -2.8500 H   0  0  0  0  0  0  0  0  0  0  0  0
   -6.4461   -1.4086   -3.5767 H   0  0  0  0  0  0  0  0  0  0  0  0
   -4.5389   -0.3125   -2.3846 H   0  0  0  0  0  0  0  0  0  0  0  0
   -3.1490    3.3283    0.8817 H   0  0  0  0  0  0  0  0  0  0  0  0
   -4.3442    5.4872    1.2353 H   0  0  0  0  0  0  0  0  0  0  0  0
   -6.8163    5.6509    0.8500 H   0  0  0  0  0  0  0  0  0  0  0  0
   -8.0973    3.6170    0.1163 H   0  0  0  0  0  0  0  0  0  0  0  0
   -6.8832    1.4350   -0.2245 H   0  0  0  0  0  0  0  0  0  0  0  0
  2  3  1  0  0  0  0
  3  5  1  0  0  0  0
  3  6  1  0  0  0  0
  4 18  1  0  0  0  0
  5  4  2  0  0  0  0
  5  1  1  0  0  0  0
  6  7  2  0  0  0  0
  6 11  1  0  0  0  0
  7  8  1  0  0  0  0
  8 25  1  0  0  0  0
  8  9  2  0  0  0  0
  9 26  1  0  0  0  0
 10  9  1  0  0  0  0
 10 27  1  0  0  0  0
 11 10  2  0  0  0  0
 12 13  1  0  0  0  0
 12  3  1  0  0  0  0
 13 29  1  0  0  0  0
 14 30  1  0  0  0  0
 14 13  2  0  0  0  0
 15 14  1  0  0  0  0
 16 15  2  0  0  0  0
 16 17  1  0  0  0  0
 17 12  2  0  0  0  0
 18 19  1  0  0  0  0
 19 34  1  0  0  0  0
 19 20  2  0  0  0  0
 20 35  1  0  0  0  0
 21 36  1  0  0  0  0
 21 20  1  0  0  0  0
 22 21  2  0  0  0  0
 23 22  1  0  0  0  0
 23 18  2  0  0  0  0
 24  7  1  0  0  0  0
 28 11  1  0  0  0  0
 31 15  1  0  0  0  0
 32 16  1  0  0  0  0
 33 17  1  0  0  0  0
 37 22  1  0  0  0  0
 38 23  1  0  0  0  0
M  END
