1,2
q = -2.0, confidence = 0.904

 36 36  0  0  0  0  0  0  0  0999 V2000
    1.6063   -1.5769   -0.0001 S   0  0  0  0  0  1  0  0  0  0  0  0
    1.6063    1.5769   -0.0001 S   0  0  0  0  0  1  0  0  0  0  0  0
    3.1489   -0.7098   -0.0001 C   0  0  0  0  0  0  0  0  0  0  0  0
    3.1489    0.7098   -0.0001 C   0  0  0  0  0  0  0  0  0  0  0  0
    4.3691    1.4459   -0.0001 C   0  0  0  0  0  0  0  0  0  0  0  0
    5.5645    0.7035   -0.0001 C   0  0  0  0  0  0  0  0  0  0  0  0
    6.5311    1.2303   -0.0002 H   0  0  0  0  0  0  0  0  0  0  0  0
    5.5645   -0.7035   -0.0001 C   0  0  0  0  0  0  0  0  0  0  0  0
    6.5311   -1.2303   -0.0001 H   0  0  0  0  0  0  0  0  0  0  0  0
    4.3691   -1.4459   -0.0001 C   0  0  0  0  0  0  0  0  0  0  0  0
    4.4521   -3.3497    0.0001 Si  0  0  0  0  0  0  0  0  0  0  0  0
    3.6361   -4.0533    1.5594 C   0  0  0  0  0  0  0  0  0  0  0  0
    2.5775   -3.7354    1.6332 H   0  0  0  0  0  0  0  0  0  0  0  0
    4.1632   -3.6941    2.4670 H   0  0  0  0  0  0  0  0  0  0  0  0
    3.6748   -5.1627    1.5536 H   0  0  0  0  0  0  0  0  0  0  0  0
    6.2745   -3.8761   -0.0001 C   0  0  0  0  0  0  0  0  0  0  0  0
    6.3390   -4.9840   -0.0002 H   0  0  0  0  0  0  0  0  0  0  0  0
    6.8117   -3.5088    0.8982 H   0  0  0  0  0  0  0  0  0  0  0  0
    6.8115   -3.5087   -0.8984 H   0  0  0  0  0  0  0  0  0  0  0  0
    3.6358   -4.0538   -1.5588 C   0  0  0  0  0  0  0  0  0  0  0  0
    3.6747   -5.1632   -1.5526 H   0  0  0  0  0  0  0  0  0  0  0  0
    4.1625   -3.6948   -2.4666 H   0  0  0  0  0  0  0  0  0  0  0  0
    2.5770   -3.7363   -1.6323 H   0  0  0  0  0  0  0  0  0  0  0  0
    4.4521    3.3497   -0.0001 Si  0  0  0  0  0  0  0  0  0  0  0  0
    3.6360    4.0536   -1.5592 C   0  0  0  0  0  0  0  0  0  0  0  0
    2.5774    3.7357   -1.6330 H   0  0  0  0  0  0  0  0  0  0  0  0
    4.1631    3.6947   -2.4669 H   0  0  0  0  0  0  0  0  0  0  0  0
    3.6745    5.1630   -1.5531 H   0  0  0  0  0  0  0  0  0  0  0  0
    3.6359    4.0535    1.5590 C   0  0  0  0  0  0  0  0  0  0  0  0
    3.6750    5.1629    1.5532 H   0  0  0  0  0  0  0  0  0  0  0  0
    4.1626    3.6941    2.4667 H   0  0  0  0  0  0  0  0  0  0  0  0
    2.5771    3.7361    1.6324 H   0  0  0  0  0  0  0  0  0  0  0  0
    6.2745    3.8761   -0.0000 C   0  0  0  0  0  0  0  0  0  0  0  0
    6.8116    3.5087   -0.8982 H   0  0  0  0  0  0  0  0  0  0  0  0
    6.8115    3.5088    0.8983 H   0  0  0  0  0  0  0  0  0  0  0  0
    6.3390    4.9840   -0.0000 H   0  0  0  0  0  0  0  0  0  0  0  0
  1  3  1  0  0  0  0
  2  4  1  0  0  0  0
  4  3  2  0  0  0  0
  5  4  1  0  0  0  0
  5 24  1  0  0  0  0
  6  5  2  0  0  0  0
  6  8  1  0  0  0  0
  7  6  1  0  0  0  0
  8 10  2  0  0  0  0
  9  8  1  0  0  0  0
 10  3  1  0  0  0  0
 10 11  1  0  0  0  0
 11 12  1  0  0  0  0
 12 13  1  0  0  0  0
 12 14  1  0  0  0  0
 15 12  1  0  0  0  0
 16 11  1  0  0  0  0
 16 18  1  0  0  0  0
 17 16  1  0  0  0  0
 19 16  1  0  0  0  0
 20 21  1  0  0  0  0
 20 11  1  0  0  0  0
 22 20  1  0  0  0  0
 23 20  1  0  0  0  0
 24 33  1  0  0  0  0
 24 29  1  0  0  0  0
 25 28  1  0  0  0  0
 25 24  1  0  0  0  0
 26 25  1  0  0  0  0
 27 25  1  0  0  0  0
 29 32  1  0  0  0  0
 29 31  1  0  0  0  0
 30 29  1  0  0  0  0
 33 35  1  0  0  0  0
 34 33  1  0  0  0  0
 36 33  1  0  0  0  0
M  END
