1,2
 OpenBabel05122313063D

  8  7  0  0  0  0  0  0  0  0999 V2000
    0.9657    1.0814   -1.9999 S   0  0  0  0  0  0  0  0  0  0  0  0
   -1.7779    2.0638   -0.8495 S   0  0  0  0  0  0  0  0  0  0  0  0
    2.0923    4.2431   -3.6173 N   0  0  0  0  0  0  0  0  0  0  0  0
   -1.7289    5.5560   -2.1511 N   0  0  0  0  0  0  0  0  0  0  0  0
   -0.7852    3.1582   -1.7942 C   0  0  0  0  0  0  0  0  0  0  0  0
   -1.2910    4.4731   -2.0054 C   0  0  0  0  0  0  0  0  0  0  0  0
    0.4443    2.7386   -2.2850 C   0  0  0  0  0  0  0  0  0  0  0  0
    1.3276    3.5778   -3.0175 C   0  0  0  0  0  0  0  0  0  0  0  0
  3  8  3  0  0  0  0
  4  6  3  0  0  0  0
  5  2  1  0  0  0  0
  6  5  1  0  0  0  0
  7  1  1  0  0  0  0
  7  5  2  0  0  0  0
  8  7  1  0  0  0  0
M  END
