1,2
 OpenBabel05122313063D

 12 11  0  0  0  0  0  0  0  0999 V2000
    1.3201    1.2480   -1.5309 S   0  0  0  0  0  1  0  0  0  0  0  0
    0.6654    2.5975    0.9031 S   0  0  0  0  0  1  0  0  0  0  0  0
    2.0587    3.8334   -1.0762 N   0  0  0  0  0  0  0  0  0  0  0  0
    1.4413    2.7240   -0.6272 C   0  0  0  0  0  3  0  0  0  0  0  0
    2.6057    3.9177   -2.4231 C   0  0  0  0  0  0  0  0  0  0  0  0
    3.6392    4.3179   -2.3853 H   0  0  0  0  0  0  0  0  0  0  0  0
    1.9885    4.5918   -3.0548 H   0  0  0  0  0  0  0  0  0  0  0  0
    2.6240    2.9140   -2.8859 H   0  0  0  0  0  0  0  0  0  0  0  0
    2.0730    5.0557   -0.2835 C   0  0  0  0  0  0  0  0  0  0  0  0
    3.0464    5.5673   -0.4153 H   0  0  0  0  0  0  0  0  0  0  0  0
    1.9343    4.8109    0.7866 H   0  0  0  0  0  0  0  0  0  0  0  0
    1.2611    5.7461   -0.5985 H   0  0  0  0  0  0  0  0  0  0  0  0
  1  4  1  0  0  0  0
  3  4  1  0  0  0  0
  3  9  1  0  0  0  0
  4  2  1  0  0  0  0
  5  6  1  0  0  0  0
  5  3  1  0  0  0  0
  7  5  1  0  0  0  0
  8  5  1  0  0  0  0
  9 11  1  0  0  0  0
 10  9  1  0  0  0  0
 12  9  1  0  0  0  0
M  END
