1,2
 OpenBabel05122313063D

  8  7  0  0  0  0  0  0  0  0999 V2000
    1.5336   -0.4820    2.4395 S   0  0  0  0  0  1  0  0  0  0  0  0
   -1.5344    0.4833    2.4388 S   0  0  0  0  0  1  0  0  0  0  0  0
    0.7343    0.1796    3.9609 C   0  0  0  0  0  0  0  0  0  0  0  0
    1.2733   -0.2597    4.8293 H   0  0  0  0  0  0  0  0  0  0  0  0
    0.8599    1.2829    3.9923 H   0  0  0  0  0  0  0  0  0  0  0  0
   -0.7357   -0.1779    3.9607 C   0  0  0  0  0  0  0  0  0  0  0  0
   -1.2750    0.2616    4.8287 H   0  0  0  0  0  0  0  0  0  0  0  0
   -0.8614   -1.2813    3.9922 H   0  0  0  0  0  0  0  0  0  0  0  0
  1  3  1  0  0  0  0
  2  6  1  0  0  0  0
  3  5  1  0  0  0  0
  3  4  1  0  0  0  0
  6  3  1  0  0  0  0
  6  8  1  0  0  0  0
  6  7  1  0  0  0  0
M  END
