1,8
 OpenBabel05122313063D

 20 22  0  0  0  0  0  0  0  0999 V2000
   -1.2257   -1.7195   -0.2636 S   0  0  0  0  0  1  0  0  0  0  0  0
    1.7415   -1.5065   -0.8979 S   0  0  0  0  0  0  0  0  0  0  0  0
    5.0251   -1.4561   -0.5696 S   0  0  0  0  0  0  0  0  0  0  0  0
    7.5604   -1.6686    1.0462 S   0  0  0  0  0  0  0  0  0  0  0  0
    7.6523    1.6732    0.9419 S   0  0  0  0  0  0  0  0  0  0  0  0
    4.9866    1.5103   -0.5490 S   0  0  0  0  0  0  0  0  0  0  0  0
    1.7051    1.4749   -0.8951 S   0  0  0  0  0  0  0  0  0  0  0  0
   -1.2508    1.6195   -0.2203 S   0  0  0  0  0  1  0  0  0  0  0  0
    0.1896   -0.7247   -0.5231 C   0  0  0  0  0  0  0  0  0  0  0  0
    2.6744   -0.0045   -0.7722 C   0  0  0  0  0  0  0  0  0  0  0  0
    4.0342    0.0163   -0.6424 C   0  0  0  0  0  0  0  0  0  0  0  0
    6.3241   -0.6482    0.3416 C   0  0  0  0  0  0  0  0  0  0  0  0
    9.1335   -0.7102    0.7664 C   0  0  0  0  0  0  0  0  0  0  0  0
    9.5936   -0.6152    1.7694 H   0  0  0  0  0  0  0  0  0  0  0  0
    9.7878   -1.3458    0.1327 H   0  0  0  0  0  0  0  0  0  0  0  0
    8.9587    0.6541    0.1255 C   0  0  0  0  0  0  0  0  0  0  0  0
    8.6849    0.5767   -0.9453 H   0  0  0  0  0  0  0  0  0  0  0  0
    9.9021    1.2319    0.2076 H   0  0  0  0  0  0  0  0  0  0  0  0
    6.2998    0.7223    0.3591 C   0  0  0  0  0  0  0  0  0  0  0  0
    0.1804    0.6426   -0.5143 C   0  0  0  0  0  0  0  0  0  0  0  0
  2 10  1  0  0  0  0
  2  9  1  0  0  0  0
  3 12  1  0  0  0  0
  6 19  1  0  0  0  0
  7 10  1  0  0  0  0
  7 20  1  0  0  0  0
  9 20  2  0  0  0  0
  9  1  1  0  0  0  0
 10 11  2  0  0  0  0
 11  3  1  0  0  0  0
 11  6  1  0  0  0  0
 12 19  2  0  0  0  0
 12  4  1  0  0  0  0
 13  4  1  0  0  0  0
 13 14  1  0  0  0  0
 15 13  1  0  0  0  0
 16 18  1  0  0  0  0
 16 13  1  0  0  0  0
 16  5  1  0  0  0  0
 17 16  1  0  0  0  0
 19  5  1  0  0  0  0
 20  8  1  0  0  0  0
M  END
