2,3
 OpenBabel05122313063D

 33 32  0  0  0  0  0  0  0  0999 V2000
    3.1129    0.2678    0.2492 P   0  0  0  0  0  4  0  0  0  0  0  0
    1.7827    0.5076   -1.2693 S   0  0  0  0  0  1  0  0  0  0  0  0
    0.7098   -1.9858    0.7157 S   0  0  0  0  0  1  0  0  0  0  0  0
    3.4099   -1.2609    0.7170 N   0  0  0  0  0  0  0  0  0  0  0  0
    2.8503   -3.4531    1.0688 N   0  0  0  0  0  0  0  0  0  0  0  0
    2.1127   -4.1535    1.1440 H   0  0  0  0  0  0  0  0  0  0  0  0
    4.5438    0.8980   -0.2063 O   0  0  0  0  0  0  0  0  0  0  0  0
    2.7708    1.1311    1.5723 O   0  0  0  0  0  0  0  0  0  0  0  0
    2.4557   -2.1785    0.8102 C   0  0  0  0  0  0  0  0  0  0  0  0
    4.2355   -3.8318    1.2485 C   0  0  0  0  0  0  0  0  0  0  0  0
    4.8144   -3.7388    0.3039 H   0  0  0  0  0  0  0  0  0  0  0  0
    4.2813   -4.8817    1.5926 H   0  0  0  0  0  0  0  0  0  0  0  0
    4.7260   -3.1795    1.9998 H   0  0  0  0  0  0  0  0  0  0  0  0
    5.2488    0.2955   -1.3357 C   0  0  0  0  0  0  0  0  0  0  0  0
    4.5682   -0.4444   -1.8142 H   0  0  0  0  0  0  0  0  0  0  0  0
    6.4744   -0.4238   -0.7913 C   0  0  0  0  0  0  0  0  0  0  0  0
    6.1604   -1.1985   -0.0654 H   0  0  0  0  0  0  0  0  0  0  0  0
    7.1462    0.2925   -0.2764 H   0  0  0  0  0  0  0  0  0  0  0  0
    7.0399   -0.9078   -1.6130 H   0  0  0  0  0  0  0  0  0  0  0  0
    5.5534    1.4093   -2.3257 C   0  0  0  0  0  0  0  0  0  0  0  0
    4.6141    1.8886   -2.6636 H   0  0  0  0  0  0  0  0  0  0  0  0
    6.0839    1.0080   -3.2123 H   0  0  0  0  0  0  0  0  0  0  0  0
    6.1942    2.1818   -1.8539 H   0  0  0  0  0  0  0  0  0  0  0  0
    2.2725    2.5067    1.4949 C   0  0  0  0  0  0  0  0  0  0  0  0
    1.8964    2.6723    0.4605 H   0  0  0  0  0  0  0  0  0  0  0  0
    3.4308    3.4505    1.7850 C   0  0  0  0  0  0  0  0  0  0  0  0
    4.2495    3.2911    1.0569 H   0  0  0  0  0  0  0  0  0  0  0  0
    3.8297    3.2773    2.8052 H   0  0  0  0  0  0  0  0  0  0  0  0
    3.0938    4.5044    1.7154 H   0  0  0  0  0  0  0  0  0  0  0  0
    1.1102    2.6042    2.4678 C   0  0  0  0  0  0  0  0  0  0  0  0
    0.3070    1.9043    2.1632 H   0  0  0  0  0  0  0  0  0  0  0  0
    0.6920    3.6304    2.4604 H   0  0  0  0  0  0  0  0  0  0  0  0
    1.4393    2.3583    3.4976 H   0  0  0  0  0  0  0  0  0  0  0  0
  1  4  1  0  0  0  0
  1  8  1  0  0  0  0
  2  1  1  0  0  0  0
  3  9  1  0  0  0  0
  4  9  2  0  0  0  0
  5  6  1  0  0  0  0
  5 10  1  0  0  0  0
  7  1  1  0  0  0  0
  9  5  1  0  0  0  0
 10 12  1  0  0  0  0
 10 13  1  0  0  0  0
 11 10  1  0  0  0  0
 14 16  1  0  0  0  0
 14  7  1  0  0  0  0
 15 14  1  0  0  0  0
 16 18  1  0  0  0  0
 16 17  1  0  0  0  0
 19 16  1  0  0  0  0
 20 23  1  0  0  0  0
 20 14  1  0  0  0  0
 21 20  1  0  0  0  0
 22 20  1  0  0  0  0
 24  8  1  0  0  0  0
 24 26  1  0  0  0  0
 24 30  1  0  0  0  0
 25 24  1  0  0  0  0
 26 28  1  0  0  0  0
 27 26  1  0  0  0  0
 29 26  1  0  0  0  0
 30 33  1  0  0  0  0
 31 30  1  0  0  0  0
 32 30  1  0  0  0  0
M  END
