1,2
 OpenBabel05122313063D

 58 61  0  0  0  0  0  0  0  0999 V2000
    1.6753   -0.6387   -2.2253 S   0  0  0  0  0  0  0  0  0  0  0  0
    2.5994   -0.3110    2.5423 S   0  0  0  0  0  0  0  0  0  0  0  0
   -6.5073   -1.5411   -1.0695 S   0  0  0  0  0  0  0  0  0  0  0  0
   -0.1034    1.5511   -0.7465 O   0  0  0  0  0  0  0  0  0  0  0  0
    0.1727    1.7365    1.9821 O   0  0  0  0  0  0  0  0  0  0  0  0
    0.1621   -1.8752    0.5824 N   0  0  0  0  0  0  0  0  0  0  0  0
   -5.9980    0.3125    0.7191 N   0  0  0  0  0  0  0  0  0  0  0  0
    0.7767   -2.7284   -0.4373 C   0  0  0  0  0  0  0  0  0  0  0  0
    0.2971   -3.7384   -0.4601 H   0  0  0  0  0  0  0  0  0  0  0  0
    1.8290   -2.9193   -0.1549 H   0  0  0  0  0  0  0  0  0  0  0  0
    0.7390   -2.1895   -1.8730 C   0  0  0  0  0  0  0  0  0  0  0  0
   -0.2934   -2.0229   -2.2354 H   0  0  0  0  0  0  0  0  0  0  0  0
    1.2271   -2.9452   -2.5171 H   0  0  0  0  0  0  0  0  0  0  0  0
    0.3921    0.5253   -2.8460 C   0  0  0  0  0  0  0  0  0  0  0  0
    1.0213    1.3893   -3.1430 H   0  0  0  0  0  0  0  0  0  0  0  0
   -0.0469    0.0648   -3.7537 H   0  0  0  0  0  0  0  0  0  0  0  0
   -0.7018    0.9936   -1.8970 C   0  0  0  0  0  0  0  0  0  0  0  0
   -1.2939    1.7676   -2.4398 H   0  0  0  0  0  0  0  0  0  0  0  0
   -1.4024    0.1704   -1.6196 H   0  0  0  0  0  0  0  0  0  0  0  0
   -0.8897    2.4869   -0.0227 C   0  0  0  0  0  0  0  0  0  0  0  0
   -1.8714    2.0334    0.2430 H   0  0  0  0  0  0  0  0  0  0  0  0
   -1.0714    3.3951   -0.6420 H   0  0  0  0  0  0  0  0  0  0  0  0
   -0.1288    2.9047    1.2201 C   0  0  0  0  0  0  0  0  0  0  0  0
    0.8097    3.4177    0.9248 H   0  0  0  0  0  0  0  0  0  0  0  0
   -0.7616    3.6097    1.8099 H   0  0  0  0  0  0  0  0  0  0  0  0
    1.0340    1.9484    3.0803 C   0  0  0  0  0  0  0  0  0  0  0  0
    0.5213    2.5322    3.8839 H   0  0  0  0  0  0  0  0  0  0  0  0
    1.9365    2.5250    2.7664 H   0  0  0  0  0  0  0  0  0  0  0  0
    1.4230    0.5867    3.6428 C   0  0  0  0  0  0  0  0  0  0  0  0
    0.5182   -0.0330    3.8015 H   0  0  0  0  0  0  0  0  0  0  0  0
    1.9396    0.7079    4.6153 H   0  0  0  0  0  0  0  0  0  0  0  0
    1.9456   -2.0201    2.4538 C   0  0  0  0  0  0  0  0  0  0  0  0
    2.7075   -2.5354    1.8258 H   0  0  0  0  0  0  0  0  0  0  0  0
    2.0307   -2.4449    3.4744 H   0  0  0  0  0  0  0  0  0  0  0  0
    0.5133   -2.2478    1.9680 C   0  0  0  0  0  0  0  0  0  0  0  0
    0.3159   -3.3385    2.1149 H   0  0  0  0  0  0  0  0  0  0  0  0
   -0.1983   -1.7261    2.6353 H   0  0  0  0  0  0  0  0  0  0  0  0
   -1.2324   -1.6097    0.4273 C   0  0  0  0  0  0  0  0  0  0  0  0
   -2.0637   -2.3685   -0.4298 C   0  0  0  0  0  0  0  0  0  0  0  0
   -1.6638   -3.2234   -0.9895 H   0  0  0  0  0  0  0  0  0  0  0  0
   -3.4243   -2.0651   -0.5624 C   0  0  0  0  0  0  0  0  0  0  0  0
   -4.0421   -2.6781   -1.2374 H   0  0  0  0  0  0  0  0  0  0  0  0
   -4.0101   -1.0095    0.1644 C   0  0  0  0  0  0  0  0  0  0  0  0
   -3.1810   -0.2678    1.0409 C   0  0  0  0  0  0  0  0  0  0  0  0
   -3.6361    0.5588    1.6058 H   0  0  0  0  0  0  0  0  0  0  0  0
   -1.8248   -0.5578    1.1658 C   0  0  0  0  0  0  0  0  0  0  0  0
   -1.1894    0.0799    1.7961 H   0  0  0  0  0  0  0  0  0  0  0  0
   -5.4251   -0.6536    0.0458 C   0  0  0  0  0  0  0  0  0  0  0  0
   -7.8196   -0.5072   -0.5582 C   0  0  0  0  0  0  0  0  0  0  0  0
   -7.3352    0.4280    0.4128 C   0  0  0  0  0  0  0  0  0  0  0  0
   -8.2301    1.3687    0.9686 C   0  0  0  0  0  0  0  0  0  0  0  0
   -7.8550    2.0841    1.7142 H   0  0  0  0  0  0  0  0  0  0  0  0
   -9.5650    1.3634    0.5570 C   0  0  0  0  0  0  0  0  0  0  0  0
  -10.2692    2.0924    0.9848 H   0  0  0  0  0  0  0  0  0  0  0  0
  -10.0265    0.4336   -0.4026 C   0  0  0  0  0  0  0  0  0  0  0  0
  -11.0826    0.4494   -0.7106 H   0  0  0  0  0  0  0  0  0  0  0  0
   -9.1617   -0.5110   -0.9706 C   0  0  0  0  0  0  0  0  0  0  0  0
   -9.5259   -1.2323   -1.7163 H   0  0  0  0  0  0  0  0  0  0  0  0
  1 11  1  0  0  0  0
  2 29  1  0  0  0  0
  3 49  1  0  0  0  0
  3 48  1  0  0  0  0
  4 20  1  0  0  0  0
  5 26  1  0  0  0  0
  6 35  1  0  0  0  0
  8 10  1  0  0  0  0
  8  6  1  0  0  0  0
  9  8  1  0  0  0  0
 11  8  1  0  0  0  0
 12 11  1  0  0  0  0
 13 11  1  0  0  0  0
 14  1  1  0  0  0  0
 14 17  1  0  0  0  0
 15 14  1  0  0  0  0
 16 14  1  0  0  0  0
 17 19  1  0  0  0  0
 17  4  1  0  0  0  0
 18 17  1  0  0  0  0
 20 21  1  0  0  0  0
 20 23  1  0  0  0  0
 22 20  1  0  0  0  0
 23 25  1  0  0  0  0
 23  5  1  0  0  0  0
 24 23  1  0  0  0  0
 26 29  1  0  0  0  0
 26 27  1  0  0  0  0
 28 26  1  0  0  0  0
 29 30  1  0  0  0  0
 29 31  1  0  0  0  0
 32  2  1  0  0  0  0
 32 34  1  0  0  0  0
 33 32  1  0  0  0  0
 35 36  1  0  0  0  0
 35 32  1  0  0  0  0
 35 37  1  0  0  0  0
 38  6  1  0  0  0  0
 38 46  1  0  0  0  0
 39 38  2  0  0  0  0
 40 39  1  0  0  0  0
 41 39  1  0  0  0  0
 41 43  2  0  0  0  0
 42 41  1  0  0  0  0
 43 44  1  0  0  0  0
 44 46  2  0  0  0  0
 44 45  1  0  0  0  0
 46 47  1  0  0  0  0
 48 43  1  0  0  0  0
 48  7  2  0  0  0  0
 49 50  1  0  0  0  0
 50  7  1  0  0  0  0
 50 51  2  0  0  0  0
 51 52  1  0  0  0  0
 53 51  1  0  0  0  0
 53 54  1  0  0  0  0
 55 53  2  0  0  0  0
 56 55  1  0  0  0  0
 57 49  2  0  0  0  0
 57 55  1  0  0  0  0
 58 57  1  0  0  0  0
M  END
