1,2
 OpenBabel05122313063D

 15 15  0  0  0  0  0  0  0  0999 V2000
   -1.7076   -1.6530   -0.8906 S   0  0  0  0  0  1  0  0  0  0  0  0
   -1.8698    0.4257    1.5878 S   0  0  0  0  0  1  0  0  0  0  0  0
   -3.2354   -0.9028   -0.4442 C   0  0  0  0  0  0  0  0  0  0  0  0
   -3.3094    0.0235    0.6552 C   0  0  0  0  0  0  0  0  0  0  0  0
   -4.5728    0.5344    1.0407 C   0  0  0  0  0  0  0  0  0  0  0  0
   -4.6113    1.2453    1.8806 H   0  0  0  0  0  0  0  0  0  0  0  0
   -4.4373   -1.2719   -1.0978 C   0  0  0  0  0  0  0  0  0  0  0  0
   -4.3815   -1.9787   -1.9392 H   0  0  0  0  0  0  0  0  0  0  0  0
   -5.6630   -0.7484   -0.6967 C   0  0  0  0  0  0  0  0  0  0  0  0
   -6.5804   -1.0487   -1.2275 H   0  0  0  0  0  0  0  0  0  0  0  0
   -5.7523    0.1690    0.3835 C   0  0  0  0  0  0  0  0  0  0  0  0
   -7.0881    0.7322    0.7957 C   0  0  0  0  0  0  0  0  0  0  0  0
   -6.9985    1.3938    1.6786 H   0  0  0  0  0  0  0  0  0  0  0  0
   -7.8072   -0.0760    1.0450 H   0  0  0  0  0  0  0  0  0  0  0  0
   -7.5450    1.3231   -0.0263 H   0  0  0  0  0  0  0  0  0  0  0  0
  1  3  1  0  0  0  0
  3  4  1  0  0  0  0
  4  5  2  0  0  0  0
  4  2  1  0  0  0  0
  5  6  1  0  0  0  0
  7  9  1  0  0  0  0
  7  3  2  0  0  0  0
  8  7  1  0  0  0  0
  9 11  2  0  0  0  0
 10  9  1  0  0  0  0
 11 12  1  0  0  0  0
 11  5  1  0  0  0  0
 12 14  1  0  0  0  0
 12 13  1  0  0  0  0
 15 12  1  0  0  0  0
M  END
