1,2
 OpenBabel05122313063D

  8  8  0  0  0  0  0  0  0  0999 V2000
    2.2254    0.1149   -1.6197 S   0  0  0  0  0  0  0  0  0  0  0  0
    1.3337    1.4428    1.5415 S   0  0  0  0  0  0  0  0  0  0  0  0
    4.6014    3.1318    1.6325 O   0  0  0  0  0  0  0  0  0  0  0  0
    5.4340    1.8701   -1.3242 O   0  0  0  0  0  0  0  0  0  0  0  0
    3.1234    1.1334   -0.6008 C   0  0  0  0  0  0  0  0  0  0  0  0
    2.7702    1.6755    0.6633 C   0  0  0  0  0  0  0  0  0  0  0  0
    4.0804    2.4102    0.8103 C   0  0  0  0  0  0  0  0  0  0  0  0
    4.4732    1.8087   -0.5891 C   0  0  0  0  0  0  0  0  0  0  0  0
  1  5  1  0  0  0  0
  4  8  2  0  0  0  0
  5  8  1  0  0  0  0
  5  6  2  0  0  0  0
  6  7  1  0  0  0  0
  6  2  1  0  0  0  0
  7  3  2  0  0  0  0
  8  7  1  0  0  0  0
M  END
