1,2
 OpenBabel05122313063D

 17 16  0  0  0  0  0  0  0  0999 V2000
   -1.5670   -0.7797   -1.7739 S   0  0  0  0  0  1  0  0  0  0  0  0
   -1.9861    0.6612    0.8730 S   0  0  0  0  0  1  0  0  0  0  0  0
   -3.8439    0.1068   -0.9608 O   0  0  0  0  0  0  0  0  0  0  0  0
   -2.5510    0.0131   -0.6191 C   0  0  0  0  0  3  0  0  0  0  0  0
   -4.7756    0.7685   -0.0859 C   0  0  0  0  0  0  0  0  0  0  0  0
   -4.4256    1.8088    0.0941 H   0  0  0  0  0  0  0  0  0  0  0  0
   -4.7719    0.2558    0.9017 H   0  0  0  0  0  0  0  0  0  0  0  0
   -6.1438    0.7311   -0.7440 C   0  0  0  0  0  0  0  0  0  0  0  0
   -6.4226   -0.3277   -0.9368 H   0  0  0  0  0  0  0  0  0  0  0  0
   -6.0768    1.2203   -1.7398 H   0  0  0  0  0  0  0  0  0  0  0  0
   -7.2197    1.4129    0.1065 C   0  0  0  0  0  0  0  0  0  0  0  0
   -6.9197    2.4661    0.3032 H   0  0  0  0  0  0  0  0  0  0  0  0
   -7.2644    0.9233    1.1049 H   0  0  0  0  0  0  0  0  0  0  0  0
   -8.6040    1.3852   -0.5423 C   0  0  0  0  0  0  0  0  0  0  0  0
   -9.3633    1.8845    0.0924 H   0  0  0  0  0  0  0  0  0  0  0  0
   -8.9456    0.3439   -0.7183 H   0  0  0  0  0  0  0  0  0  0  0  0
   -8.5977    1.8999   -1.5256 H   0  0  0  0  0  0  0  0  0  0  0  0
  1  4  1  0  0  0  0
  3  4  1  0  0  0  0
  3  5  1  0  0  0  0
  4  2  1  0  0  0  0
  5  6  1  0  0  0  0
  5  7  1  0  0  0  0
  8  5  1  0  0  0  0
  8 11  1  0  0  0  0
  9  8  1  0  0  0  0
 10  8  1  0  0  0  0
 11 12  1  0  0  0  0
 11 13  1  0  0  0  0
 14 15  1  0  0  0  0
 14 11  1  0  0  0  0
 16 14  1  0  0  0  0
 17 14  1  0  0  0  0
M  END
