1,2
 OpenBabel05122313063D

  6  5  0  0  0  0  0  0  0  0999 V2000
   -2.8617    0.8178    0.7922 S   0  0  0  0  0  0  0  0  0  0  0  0
   -2.6095   -1.3045   -1.1636 S   0  0  0  0  0  0  0  0  0  0  0  0
   -3.7451   -0.3228   -0.2391 C   0  0  0  0  0  0  0  0  0  0  0  0
   -5.0286   -0.4684   -0.3482 N   0  0  0  0  0  0  0  0  0  0  0  0
   -5.9155    0.2413    0.3316 C   0  0  0  0  0  0  0  0  0  0  0  0
   -6.7994    0.8075    0.8773 N   0  0  0  0  0  0  0  0  0  0  0  0
  2  3  1  0  0  0  0
  3  1  1  0  0  0  0
  4  3  2  0  0  0  0
  4  5  1  0  0  0  0
  5  6  3  0  0  0  0
M  END
