1,2
q = -2.0, confidence = 0.79

 27 27  0  0  0  0  0  0  0  0999 V2000
   -1.8668    1.4805   -0.0650 S   0  0  0  0  0  1  0  0  0  0  0  0
   -1.4600   -1.8775   -0.0066 S   0  0  0  0  0  1  0  0  0  0  0  0
   -4.5149   -1.9241   -0.0694 S   0  0  0  0  0  0  0  0  0  0  0  0
   -3.0013   -1.0419   -0.0420 C   0  0  0  0  0  0  0  0  0  0  0  0
   -3.2201    0.3292   -0.0711 C   0  0  0  0  0  0  0  0  0  0  0  0
   -4.6263    0.6831   -0.1083 C   0  0  0  0  0  0  0  0  0  0  0  0
   -5.4522   -0.4358   -0.1211 C   0  0  0  0  0  0  0  0  0  0  0  0
   -5.1496    2.1090   -0.1158 C   0  0  0  0  0  0  0  0  0  0  0  0
   -6.2593    2.0509   -0.1445 H   0  0  0  0  0  0  0  0  0  0  0  0
   -4.7718    2.8561    1.1767 C   0  0  0  0  0  0  0  0  0  0  0  0
   -3.6693    2.9195    1.2864 H   0  0  0  0  0  0  0  0  0  0  0  0
   -5.1819    3.8884    1.1720 H   0  0  0  0  0  0  0  0  0  0  0  0
   -5.1666    2.3278    2.0684 H   0  0  0  0  0  0  0  0  0  0  0  0
   -4.7040    2.8755   -1.3745 C   0  0  0  0  0  0  0  0  0  0  0  0
   -5.0540    2.3619   -2.2927 H   0  0  0  0  0  0  0  0  0  0  0  0
   -5.1117    3.9087   -1.3738 H   0  0  0  0  0  0  0  0  0  0  0  0
   -3.5974    2.9381   -1.4279 H   0  0  0  0  0  0  0  0  0  0  0  0
   -6.9595   -0.5127   -0.0564 C   0  0  0  0  0  0  0  0  0  0  0  0
   -7.3426    0.4515   -0.4576 H   0  0  0  0  0  0  0  0  0  0  0  0
   -7.5338   -1.6356   -0.9350 C   0  0  0  0  0  0  0  0  0  0  0  0
   -7.1921   -2.6310   -0.5797 H   0  0  0  0  0  0  0  0  0  0  0  0
   -8.6436   -1.6356   -0.9073 H   0  0  0  0  0  0  0  0  0  0  0  0
   -7.2065   -1.5290   -1.9882 H   0  0  0  0  0  0  0  0  0  0  0  0
   -7.4551   -0.6389    1.3984 C   0  0  0  0  0  0  0  0  0  0  0  0
   -7.0882    0.2067    2.0137 H   0  0  0  0  0  0  0  0  0  0  0  0
   -8.5652   -0.6577    1.4522 H   0  0  0  0  0  0  0  0  0  0  0  0
   -7.0684   -1.5735    1.8552 H   0  0  0  0  0  0  0  0  0  0  0  0
  3  4  1  0  0  0  0
  4  2  1  0  0  0  0
  5  1  1  0  0  0  0
  5  4  2  0  0  0  0
  6  5  1  0  0  0  0
  7  6  2  0  0  0  0
  7  3  1  0  0  0  0
  7 18  1  0  0  0  0
  8  6  1  0  0  0  0
  8 10  1  0  0  0  0
  9  8  1  0  0  0  0
 10 11  1  0  0  0  0
 10 13  1  0  0  0  0
 12 10  1  0  0  0  0
 14 16  1  0  0  0  0
 14  8  1  0  0  0  0
 15 14  1  0  0  0  0
 17 14  1  0  0  0  0
 18 24  1  0  0  0  0
 19 18  1  0  0  0  0
 20 22  1  0  0  0  0
 20 21  1  0  0  0  0
 20 18  1  0  0  0  0
 23 20  1  0  0  0  0
 24 26  1  0  0  0  0
 24 27  1  0  0  0  0
 24 25  1  0  0  0  0
M  END
