1,2
 OpenBabel05122313063D

 31 32  0  0  1  0  0  0  0  0999 V2000
    1.8832    0.7985    1.4439 S   0  0  0  0  0  1  0  0  0  0  0  0
    0.2606    1.8798   -1.3784 S   0  0  0  0  0  1  0  0  0  0  0  0
    3.0232    0.1513   -0.0787 P   0  0  0  0  0  4  0  0  0  0  0  0
    2.8987    1.1592   -1.5129 N   0  0  0  0  0  0  0  0  0  0  0  0
    2.1765    2.8980   -2.8589 N   0  0  0  0  0  0  0  0  0  0  0  0
    1.8718    1.9672   -1.9266 C   0  0  1  0  0  3  0  0  0  0  0  0
    4.7947    0.3392    0.2751 C   0  0  0  0  0  0  0  0  0  0  0  0
    5.2261    1.4095    1.0881 C   0  0  0  0  0  0  0  0  0  0  0  0
    6.5936    1.5738    1.3422 C   0  0  0  0  0  0  0  0  0  0  0  0
    7.5264    0.6796    0.7887 C   0  0  0  0  0  0  0  0  0  0  0  0
    7.0954   -0.3849   -0.0188 C   0  0  0  0  0  0  0  0  0  0  0  0
    5.7281   -0.5631   -0.2781 C   0  0  0  0  0  0  0  0  0  0  0  0
    2.7214   -1.5477   -0.6220 C   0  0  0  0  0  0  0  0  0  0  0  0
    2.3411   -1.8480   -1.9454 C   0  0  0  0  0  0  0  0  0  0  0  0
    2.0726   -3.1774   -2.2960 C   0  0  0  0  0  0  0  0  0  0  0  0
    2.1845   -4.1969   -1.3364 C   0  0  0  0  0  0  0  0  0  0  0  0
    2.5707   -3.8927   -0.0208 C   0  0  0  0  0  0  0  0  0  0  0  0
    2.8411   -2.5682    0.3451 C   0  0  0  0  0  0  0  0  0  0  0  0
    3.8125    1.3123   -1.9557 H   0  0  0  0  0  0  0  0  0  0  0  0
    1.4316    3.5000   -3.2119 H   0  0  0  0  0  0  0  0  0  0  0  0
    3.1367    3.1172   -3.1263 H   0  0  0  0  0  0  0  0  0  0  0  0
    4.4890    2.0995    1.5279 H   0  0  0  0  0  0  0  0  0  0  0  0
    6.9341    2.4016    1.9818 H   0  0  0  0  0  0  0  0  0  0  0  0
    8.5992    0.8104    0.9953 H   0  0  0  0  0  0  0  0  0  0  0  0
    7.8266   -1.0887   -0.4431 H   0  0  0  0  0  0  0  0  0  0  0  0
    5.3866   -1.4080   -0.8956 H   0  0  0  0  0  0  0  0  0  0  0  0
    2.2330   -1.0440   -2.6874 H   0  0  0  0  0  0  0  0  0  0  0  0
    1.7647   -3.4174   -3.3242 H   0  0  0  0  0  0  0  0  0  0  0  0
    1.9637   -5.2377   -1.6156 H   0  0  0  0  0  0  0  0  0  0  0  0
    2.6519   -4.6915    0.7307 H   0  0  0  0  0  0  0  0  0  0  0  0
    3.1178   -2.3229    1.3818 H   0  0  0  0  0  0  0  0  0  0  0  0
  3  7  1  0  0  0  0
  3  1  1  0  0  0  0
  4  3  1  0  0  0  0
  5  6  1  0  0  0  0
  6  4  1  0  0  0  0
  6  2  1  6  0  0  0
  7  8  1  0  0  0  0
  8  9  2  0  0  0  0
  8 22  1  0  0  0  0
  9 23  1  0  0  0  0
 10 24  1  0  0  0  0
 10  9  1  0  0  0  0
 11 10  2  0  0  0  0
 12 11  1  0  0  0  0
 12  7  2  0  0  0  0
 13  3  1  0  0  0  0
 13 18  1  0  0  0  0
 14 13  2  0  0  0  0
 15 14  1  0  0  0  0
 15 16  2  0  0  0  0
 16 17  1  0  0  0  0
 17 18  2  0  0  0  0
 17 30  1  0  0  0  0
 18 31  1  0  0  0  0
 19  4  1  0  0  0  0
 20  5  1  0  0  0  0
 21  5  1  0  0  0  0
 25 11  1  0  0  0  0
 26 12  1  0  0  0  0
 27 14  1  0  0  0  0
 28 15  1  0  0  0  0
 29 16  1  0  0  0  0
M  END
