1,4
 OpenBabel05122313063D

 48 50  0  0  0  0  0  0  0  0999 V2000
   -1.7968    1.9867    0.4581 S   0  0  0  0  0  0  0  0  0  0  0  0
    5.5343    1.2401   -0.2149 S   0  0  0  0  0  0  0  0  0  0  0  0
    4.4852   -3.1139   -0.5869 S   0  0  0  0  0  0  0  0  0  0  0  0
   -2.5199   -0.8946    1.8518 S   0  0  0  0  0  0  0  0  0  0  0  0
   -0.3982    1.5886   -0.7028 C   0  0  0  0  0  0  0  0  0  0  0  0
   -0.2389    0.4934   -0.6976 H   0  0  0  0  0  0  0  0  0  0  0  0
   -0.8598    1.8599   -1.6740 H   0  0  0  0  0  0  0  0  0  0  0  0
    0.8421    2.3622   -0.3783 C   0  0  0  0  0  0  0  0  0  0  0  0
    1.9409    1.7153    0.2241 C   0  0  0  0  0  0  0  0  0  0  0  0
    1.8760    0.6345    0.4357 H   0  0  0  0  0  0  0  0  0  0  0  0
    3.1207    2.4179    0.5398 C   0  0  0  0  0  0  0  0  0  0  0  0
    3.1756    3.7994    0.2621 C   0  0  0  0  0  0  0  0  0  0  0  0
    4.0945    4.3598    0.4946 H   0  0  0  0  0  0  0  0  0  0  0  0
    2.0817    4.4571   -0.3161 C   0  0  0  0  0  0  0  0  0  0  0  0
    2.1387    5.5362   -0.5241 H   0  0  0  0  0  0  0  0  0  0  0  0
    0.9183    3.7448   -0.6391 C   0  0  0  0  0  0  0  0  0  0  0  0
    0.0599    4.2587   -1.0986 H   0  0  0  0  0  0  0  0  0  0  0  0
    4.3231    1.7064    1.0985 C   0  0  0  0  0  0  0  0  0  0  0  0
    4.0394    0.7974    1.6671 H   0  0  0  0  0  0  0  0  0  0  0  0
    4.8946    2.3625    1.7844 H   0  0  0  0  0  0  0  0  0  0  0  0
    4.7552   -0.2939   -0.8457 C   0  0  0  0  0  0  0  0  0  0  0  0
    3.6574   -0.1520   -0.9221 H   0  0  0  0  0  0  0  0  0  0  0  0
    5.1329   -0.4202   -1.8802 H   0  0  0  0  0  0  0  0  0  0  0  0
    5.1296   -1.5019    0.0115 C   0  0  0  0  0  0  0  0  0  0  0  0
    4.8007   -1.3715    1.0640 H   0  0  0  0  0  0  0  0  0  0  0  0
    6.2328   -1.6089    0.0362 H   0  0  0  0  0  0  0  0  0  0  0  0
    2.9793   -3.3318    0.4230 C   0  0  0  0  0  0  0  0  0  0  0  0
    2.8934   -4.4343    0.5363 H   0  0  0  0  0  0  0  0  0  0  0  0
    3.1841   -2.9441    1.4437 H   0  0  0  0  0  0  0  0  0  0  0  0
    1.6532   -2.8039   -0.0990 C   0  0  0  0  0  0  0  0  0  0  0  0
    0.5367   -2.8401    0.7635 C   0  0  0  0  0  0  0  0  0  0  0  0
    0.6727   -3.1698    1.8080 H   0  0  0  0  0  0  0  0  0  0  0  0
   -0.7559   -2.5085    0.3133 C   0  0  0  0  0  0  0  0  0  0  0  0
   -0.9330   -2.1139   -1.0325 C   0  0  0  0  0  0  0  0  0  0  0  0
   -1.9468   -1.8802   -1.3961 H   0  0  0  0  0  0  0  0  0  0  0  0
    0.1776   -2.0362   -1.8830 C   0  0  0  0  0  0  0  0  0  0  0  0
    0.0364   -1.7228   -2.9285 H   0  0  0  0  0  0  0  0  0  0  0  0
    1.4624   -2.3783   -1.4243 C   0  0  0  0  0  0  0  0  0  0  0  0
    2.3337   -2.3451   -2.0967 H   0  0  0  0  0  0  0  0  0  0  0  0
   -1.9204   -2.5589    1.2573 C   0  0  0  0  0  0  0  0  0  0  0  0
   -1.7032   -3.1495    2.1688 H   0  0  0  0  0  0  0  0  0  0  0  0
   -2.8467   -2.9315    0.7702 H   0  0  0  0  0  0  0  0  0  0  0  0
   -0.9264   -0.0325    2.2218 C   0  0  0  0  0  0  0  0  0  0  0  0
   -0.6180   -0.3056    3.2523 H   0  0  0  0  0  0  0  0  0  0  0  0
   -0.1661   -0.4230    1.5151 H   0  0  0  0  0  0  0  0  0  0  0  0
   -1.0946    1.4693    2.0847 C   0  0  0  0  0  0  0  0  0  0  0  0
   -0.1244    1.9938    2.2124 H   0  0  0  0  0  0  0  0  0  0  0  0
   -1.8081    1.8802    2.8275 H   0  0  0  0  0  0  0  0  0  0  0  0
  1 46  1  0  0  0  0
  2 18  1  0  0  0  0
  3 24  1  0  0  0  0
  3 27  1  0  0  0  0
  4 43  1  0  0  0  0
  5  6  1  0  0  0  0
  5  8  1  0  0  0  0
  5  1  1  0  0  0  0
  7  5  1  0  0  0  0
  8  9  1  0  0  0  0
  9 10  1  0  0  0  0
  9 11  2  0  0  0  0
 11 18  1  0  0  0  0
 12 13  1  0  0  0  0
 12 11  1  0  0  0  0
 14 12  2  0  0  0  0
 15 14  1  0  0  0  0
 16  8  2  0  0  0  0
 16 14  1  0  0  0  0
 17 16  1  0  0  0  0
 18 19  1  0  0  0  0
 18 20  1  0  0  0  0
 21  2  1  0  0  0  0
 21 24  1  0  0  0  0
 22 21  1  0  0  0  0
 23 21  1  0  0  0  0
 24 26  1  0  0  0  0
 24 25  1  0  0  0  0
 27 28  1  0  0  0  0
 27 29  1  0  0  0  0
 30 27  1  0  0  0  0
 30 31  1  0  0  0  0
 31 32  1  0  0  0  0
 33 31  2  0  0  0  0
 33 40  1  0  0  0  0
 34 33  1  0  0  0  0
 35 34  1  0  0  0  0
 36 38  1  0  0  0  0
 36 34  2  0  0  0  0
 37 36  1  0  0  0  0
 38 30  2  0  0  0  0
 39 38  1  0  0  0  0
 40  4  1  0  0  0  0
 40 41  1  0  0  0  0
 42 40  1  0  0  0  0
 43 44  1  0  0  0  0
 45 43  1  0  0  0  0
 46 47  1  0  0  0  0
 46 43  1  0  0  0  0
 46 48  1  0  0  0  0
M  END
