1,2
 OpenBabel05122313063D

 34 33  0  0  0  0  0  0  0  0999 V2000
    1.5497    1.0312   -0.8584 S   0  0  0  0  0  0  0  0  0  0  0  0
   -1.7786    0.7007   -0.9676 S   0  0  0  0  0  0  0  0  0  0  0  0
    0.4254    2.4862   -0.7367 C   0  0  0  0  0  0  0  0  0  0  0  0
   -0.8514    2.2015   -1.5127 C   0  0  0  0  0  0  0  0  0  0  0  0
   -3.0274    1.3956    0.2844 C   0  0  0  0  0  0  0  0  0  0  0  0
   -4.0998    2.1237   -0.5350 C   0  0  0  0  0  0  0  0  0  0  0  0
   -2.3760    2.3281    1.3048 C   0  0  0  0  0  0  0  0  0  0  0  0
   -3.6154    0.1556    0.9652 C   0  0  0  0  0  0  0  0  0  0  0  0
    2.9960    1.5254    0.2629 C   0  0  0  0  0  0  0  0  0  0  0  0
    3.5154    2.8880   -0.2096 C   0  0  0  0  0  0  0  0  0  0  0  0
    4.0399    0.4316    0.0027 C   0  0  0  0  0  0  0  0  0  0  0  0
    2.5812    1.5533    1.7308 C   0  0  0  0  0  0  0  0  0  0  0  0
    0.2176    2.6931    0.3309 H   0  0  0  0  0  0  0  0  0  0  0  0
    0.9409    3.3588   -1.1864 H   0  0  0  0  0  0  0  0  0  0  0  0
   -0.6259    2.0206   -2.5835 H   0  0  0  0  0  0  0  0  0  0  0  0
   -1.5448    3.0649   -1.4638 H   0  0  0  0  0  0  0  0  0  0  0  0
   -3.6874    2.9930   -1.0869 H   0  0  0  0  0  0  0  0  0  0  0  0
   -4.5780    1.4435   -1.2661 H   0  0  0  0  0  0  0  0  0  0  0  0
   -4.8855    2.5115    0.1468 H   0  0  0  0  0  0  0  0  0  0  0  0
   -1.5452    1.8327    1.8400 H   0  0  0  0  0  0  0  0  0  0  0  0
   -2.0041    3.2629    0.8402 H   0  0  0  0  0  0  0  0  0  0  0  0
   -3.1346    2.6215    2.0606 H   0  0  0  0  0  0  0  0  0  0  0  0
   -4.0011   -0.5750    0.2264 H   0  0  0  0  0  0  0  0  0  0  0  0
   -2.8632   -0.3565    1.5936 H   0  0  0  0  0  0  0  0  0  0  0  0
   -4.4597    0.4662    1.6146 H   0  0  0  0  0  0  0  0  0  0  0  0
    3.7098    2.8922   -1.3009 H   0  0  0  0  0  0  0  0  0  0  0  0
    2.8158    3.7122    0.0320 H   0  0  0  0  0  0  0  0  0  0  0  0
    4.4718    3.1091    0.3083 H   0  0  0  0  0  0  0  0  0  0  0  0
    3.6655   -0.5693    0.2900 H   0  0  0  0  0  0  0  0  0  0  0  0
    4.3402    0.4040   -1.0636 H   0  0  0  0  0  0  0  0  0  0  0  0
    4.9435    0.6434    0.6107 H   0  0  0  0  0  0  0  0  0  0  0  0
    1.7495    2.2607    1.9214 H   0  0  0  0  0  0  0  0  0  0  0  0
    2.2700    0.5507    2.0756 H   0  0  0  0  0  0  0  0  0  0  0  0
    3.4440    1.8797    2.3486 H   0  0  0  0  0  0  0  0  0  0  0  0
  1  3  1  0  0  0  0
  1  9  1  0  0  0  0
  2  5  1  0  0  0  0
  3 13  1  0  0  0  0
  4 16  1  0  0  0  0
  4  2  1  0  0  0  0
  4  3  1  0  0  0  0
  5  8  1  0  0  0  0
  5  7  1  0  0  0  0
  6 19  1  0  0  0  0
  6  5  1  0  0  0  0
  7 20  1  0  0  0  0
  7 22  1  0  0  0  0
  8 24  1  0  0  0  0
  8 25  1  0  0  0  0
  9 12  1  0  0  0  0
 10 27  1  0  0  0  0
 10  9  1  0  0  0  0
 10 28  1  0  0  0  0
 11  9  1  0  0  0  0
 11 29  1  0  0  0  0
 11 31  1  0  0  0  0
 12 32  1  0  0  0  0
 12 33  1  0  0  0  0
 12 34  1  0  0  0  0
 14  3  1  0  0  0  0
 15  4  1  0  0  0  0
 17  6  1  0  0  0  0
 18  6  1  0  0  0  0
 21  7  1  0  0  0  0
 23  8  1  0  0  0  0
 26 10  1  0  0  0  0
 30 11  1  0  0  0  0
M  END
