1,2
 OpenBabel05122313063D

 26 27  0  0  1  0  0  0  0  0999 V2000
    1.5900    1.4909   -0.0589 S   0  0  0  0  0  1  0  0  0  0  0  0
    1.3814   -1.6858   -0.0584 S   0  0  0  0  0  1  0  0  0  0  0  0
    2.9805    0.5026   -0.0647 C   0  0  0  0  0  0  0  0  0  0  0  0
    2.8894   -0.8887   -0.0625 C   0  0  0  0  0  0  0  0  0  0  0  0
    4.3025   -1.4201   -0.1576 C   0  0  1  0  0  0  0  0  0  0  0  0
    4.4428   -2.4740    0.1489 H   0  0  0  0  0  0  0  0  0  0  0  0
    4.7548   -1.0912   -1.6159 C   0  0  0  0  0  0  0  0  0  0  0  0
    5.7312   -1.5663   -1.8375 H   0  0  0  0  0  0  0  0  0  0  0  0
    4.0251   -1.4782   -2.3523 H   0  0  0  0  0  0  0  0  0  0  0  0
    4.8511    0.4606   -1.6140 C   0  0  0  0  0  0  0  0  0  0  0  0
    4.1735    0.9399   -2.3466 H   0  0  0  0  0  0  0  0  0  0  0  0
    5.8786    0.8130   -1.8380 H   0  0  0  0  0  0  0  0  0  0  0  0
    4.4545    0.8694   -0.1512 C   0  0  1  0  0  0  0  0  0  0  0  0
    4.8270    2.2853    0.2473 C   0  0  0  0  0  0  0  0  0  0  0  0
    5.9200    2.4495    0.1619 H   0  0  0  0  0  0  0  0  0  0  0  0
    4.5196    2.5056    1.2892 H   0  0  0  0  0  0  0  0  0  0  0  0
    4.3215    3.0224   -0.4092 H   0  0  0  0  0  0  0  0  0  0  0  0
    5.0681   -0.3357    0.6834 C   0  0  0  0  0  0  0  0  0  0  0  0
    4.6677   -0.3215    2.1647 C   0  0  0  0  0  0  0  0  0  0  0  0
    3.5736   -0.2379    2.3092 H   0  0  0  0  0  0  0  0  0  0  0  0
    5.1484    0.5285    2.6907 H   0  0  0  0  0  0  0  0  0  0  0  0
    5.0073   -1.2520    2.6640 H   0  0  0  0  0  0  0  0  0  0  0  0
    6.5957   -0.4429    0.6010 C   0  0  0  0  0  0  0  0  0  0  0  0
    6.9919   -0.4392   -0.4312 H   0  0  0  0  0  0  0  0  0  0  0  0
    6.9368   -1.3798    1.0874 H   0  0  0  0  0  0  0  0  0  0  0  0
    7.0710    0.3989    1.1448 H   0  0  0  0  0  0  0  0  0  0  0  0
  3  4  2  0  0  0  0
  3  1  1  0  0  0  0
  4  2  1  0  0  0  0
  5  4  1  0  0  0  0
  5  6  1  1  0  0  0
  5 18  1  0  0  0  0
  7 10  1  0  0  0  0
  7  5  1  0  0  0  0
  8  7  1  0  0  0  0
  9  7  1  0  0  0  0
 10 13  1  0  0  0  0
 11 10  1  0  0  0  0
 12 10  1  0  0  0  0
 13  3  1  0  0  0  0
 13 14  1  1  0  0  0
 13 18  1  0  0  0  0
 14 16  1  0  0  0  0
 15 14  1  0  0  0  0
 17 14  1  0  0  0  0
 18 19  1  0  0  0  0
 19 20  1  0  0  0  0
 19 22  1  0  0  0  0
 19 21  1  0  0  0  0
 23 18  1  0  0  0  0
 23 25  1  0  0  0  0
 23 26  1  0  0  0  0
 24 23  1  0  0  0  0
M  END
