1,2
 OpenBabel05122313063D

 36 35  0  0  0  0  0  0  0  0999 V2000
    2.0055   -0.8393   -2.0647 S   0  0  0  0  0  1  0  0  0  0  0  0
    0.9877    1.9026    0.7426 S   0  0  0  0  0  1  0  0  0  0  0  0
    3.1326   -0.5533   -0.4192 P   0  0  0  0  0  4  0  0  0  0  0  0
    3.4925    0.9734    0.0023 N   0  0  0  0  0  0  0  0  0  0  0  0
    3.3128    3.2032    0.5302 N   0  0  0  0  0  0  0  0  0  0  0  0
    2.4693   -1.4244    0.7849 O   0  0  0  0  0  0  0  0  0  0  0  0
    4.5827   -1.2806   -0.5767 O   0  0  0  0  0  0  0  0  0  0  0  0
    2.7047    1.9821    0.3696 C   0  0  0  0  0  0  0  0  0  0  0  0
    3.0207   -1.3559    2.1420 C   0  0  0  0  0  0  0  0  0  0  0  0
    3.7551   -0.5210    2.1715 H   0  0  0  0  0  0  0  0  0  0  0  0
    3.7279   -2.6753    2.4173 C   0  0  0  0  0  0  0  0  0  0  0  0
    4.5334   -2.8401    1.6761 H   0  0  0  0  0  0  0  0  0  0  0  0
    3.0086   -3.5162    2.3501 H   0  0  0  0  0  0  0  0  0  0  0  0
    4.1716   -2.6726    3.4334 H   0  0  0  0  0  0  0  0  0  0  0  0
    1.8658   -1.0495    3.0825 C   0  0  0  0  0  0  0  0  0  0  0  0
    1.3985   -0.0828    2.8102 H   0  0  0  0  0  0  0  0  0  0  0  0
    2.2280   -0.9933    4.1289 H   0  0  0  0  0  0  0  0  0  0  0  0
    1.0925   -1.8413    3.0141 H   0  0  0  0  0  0  0  0  0  0  0  0
    5.5563   -0.7498   -1.5247 C   0  0  0  0  0  0  0  0  0  0  0  0
    5.1510    0.1976   -1.9443 H   0  0  0  0  0  0  0  0  0  0  0  0
    5.7311   -1.7706   -2.6403 C   0  0  0  0  0  0  0  0  0  0  0  0
    4.7633   -1.9526   -3.1467 H   0  0  0  0  0  0  0  0  0  0  0  0
    6.0994   -2.7327   -2.2299 H   0  0  0  0  0  0  0  0  0  0  0  0
    6.4605   -1.4059   -3.3913 H   0  0  0  0  0  0  0  0  0  0  0  0
    6.8285   -0.4486   -0.7460 C   0  0  0  0  0  0  0  0  0  0  0  0
    6.6218    0.2859    0.0567 H   0  0  0  0  0  0  0  0  0  0  0  0
    7.6079   -0.0333   -1.4159 H   0  0  0  0  0  0  0  0  0  0  0  0
    7.2250   -1.3734   -0.2795 H   0  0  0  0  0  0  0  0  0  0  0  0
    4.7521    3.3490    0.3916 C   0  0  0  0  0  0  0  0  0  0  0  0
    5.1902    2.3671    0.1455 H   0  0  0  0  0  0  0  0  0  0  0  0
    5.1964    3.7292    1.3379 H   0  0  0  0  0  0  0  0  0  0  0  0
    4.9943    4.0732   -0.4165 H   0  0  0  0  0  0  0  0  0  0  0  0
    2.6050    4.4053    0.9292 C   0  0  0  0  0  0  0  0  0  0  0  0
    1.5244    4.2849    0.7324 H   0  0  0  0  0  0  0  0  0  0  0  0
    2.9939    5.2683    0.3496 H   0  0  0  0  0  0  0  0  0  0  0  0
    2.7462    4.6230    2.0121 H   0  0  0  0  0  0  0  0  0  0  0  0
  1  3  1  0  0  0  0
  3  4  1  0  0  0  0
  3  6  1  0  0  0  0
  4  8  2  0  0  0  0
  5 33  1  0  0  0  0
  6  9  1  0  0  0  0
  7  3  1  0  0  0  0
  8  5  1  0  0  0  0
  8  2  1  0  0  0  0
  9 10  1  0  0  0  0
  9 11  1  0  0  0  0
  9 15  1  0  0  0  0
 11 14  1  0  0  0  0
 12 11  1  0  0  0  0
 13 11  1  0  0  0  0
 15 17  1  0  0  0  0
 16 15  1  0  0  0  0
 18 15  1  0  0  0  0
 19 25  1  0  0  0  0
 19  7  1  0  0  0  0
 20 19  1  0  0  0  0
 21 23  1  0  0  0  0
 21 19  1  0  0  0  0
 22 21  1  0  0  0  0
 24 21  1  0  0  0  0
 25 28  1  0  0  0  0
 25 26  1  0  0  0  0
 27 25  1  0  0  0  0
 29  5  1  0  0  0  0
 29 31  1  0  0  0  0
 30 29  1  0  0  0  0
 32 29  1  0  0  0  0
 33 36  1  0  0  0  0
 34 33  1  0  0  0  0
 35 33  1  0  0  0  0
M  END
