1,2
 OpenBabel05122313063D

  5  4  0  0  0  0  0  0  0  0999 V2000
   -1.4422   -0.1915    2.9921 S   0  0  0  0  0  1  0  0  0  0  0  0
    1.4421    0.1872    2.9926 S   0  0  0  0  0  1  0  0  0  0  0  0
   -0.0001   -0.0030    4.1222 C   0  0  0  0  0  0  0  0  0  0  0  0
    0.1127   -0.8996    4.7653 H   0  0  0  0  0  0  0  0  0  0  0  0
   -0.1131    0.8928    4.7665 H   0  0  0  0  0  0  0  0  0  0  0  0
  1  3  1  0  0  0  0
  2  3  1  0  0  0  0
  3  4  1  0  0  0  0
  3  5  1  0  0  0  0
M  END
