1,2
 OpenBabel05122313063D

 31 31  0  0  0  0  0  0  0  0999 V2000
   -2.3237    0.7304   -0.8841 S   0  0  0  0  0  1  0  0  0  0  0  0
   -1.9631   -1.3194    1.2837 S   0  0  0  0  0  1  0  0  0  0  0  0
   -4.3680   -0.5386    0.3176 N   0  0  0  0  0  0  0  0  0  0  0  0
   -3.0195   -0.4009    0.2569 C   0  0  0  0  0  3  0  0  0  0  0  0
   -5.0779   -1.4540    1.2581 C   0  0  0  0  0  0  0  0  0  0  0  0
   -4.8020   -2.9335    0.9680 C   0  0  0  0  0  0  0  0  0  0  0  0
   -4.8927   -1.0590    2.7276 C   0  0  0  0  0  0  0  0  0  0  0  0
   -5.2444    0.2599   -0.5679 C   0  0  0  0  0  0  0  0  0  0  0  0
   -6.1150    1.2562    0.2142 C   0  0  0  0  0  0  0  0  0  0  0  0
   -6.9437    2.1194   -0.7473 C   0  0  0  0  0  0  0  0  0  0  0  0
   -7.7819    1.2562   -1.6982 C   0  0  0  0  0  0  0  0  0  0  0  0
   -6.9012    0.2679   -2.4728 C   0  0  0  0  0  0  0  0  0  0  0  0
   -6.0721   -0.6115   -1.5258 C   0  0  0  0  0  0  0  0  0  0  0  0
   -6.1467   -1.2843    1.0226 H   0  0  0  0  0  0  0  0  0  0  0  0
   -5.4588   -3.5600    1.6040 H   0  0  0  0  0  0  0  0  0  0  0  0
   -5.0167   -3.1721   -0.0921 H   0  0  0  0  0  0  0  0  0  0  0  0
   -3.7497   -3.2002    1.1805 H   0  0  0  0  0  0  0  0  0  0  0  0
   -3.8475   -1.2036    3.0595 H   0  0  0  0  0  0  0  0  0  0  0  0
   -5.1666    0.0023    2.8862 H   0  0  0  0  0  0  0  0  0  0  0  0
   -5.5527   -1.6855    3.3603 H   0  0  0  0  0  0  0  0  0  0  0  0
   -4.5517    0.8598   -1.1954 H   0  0  0  0  0  0  0  0  0  0  0  0
   -5.4601    1.8886    0.8480 H   0  0  0  0  0  0  0  0  0  0  0  0
   -6.8021    0.7114    0.8992 H   0  0  0  0  0  0  0  0  0  0  0  0
   -7.5922    2.8108   -0.1706 H   0  0  0  0  0  0  0  0  0  0  0  0
   -6.2567    2.7599   -1.3438 H   0  0  0  0  0  0  0  0  0  0  0  0
   -8.3523    1.8979   -2.4013 H   0  0  0  0  0  0  0  0  0  0  0  0
   -8.5378    0.6895   -1.1087 H   0  0  0  0  0  0  0  0  0  0  0  0
   -6.2127    0.8348   -3.1381 H   0  0  0  0  0  0  0  0  0  0  0  0
   -7.5194   -0.3714   -3.1363 H   0  0  0  0  0  0  0  0  0  0  0  0
   -6.7578   -1.2732   -0.9513 H   0  0  0  0  0  0  0  0  0  0  0  0
   -5.3889   -1.2726   -2.0975 H   0  0  0  0  0  0  0  0  0  0  0  0
  1  4  1  0  0  0  0
  3  5  1  0  0  0  0
  4  3  1  0  0  0  0
  4  2  1  0  0  0  0
  5  7  1  0  0  0  0
  6 17  1  0  0  0  0
  6  5  1  0  0  0  0
  6 15  1  0  0  0  0
  7 19  1  0  0  0  0
  7 18  1  0  0  0  0
  7 20  1  0  0  0  0
  8  9  1  0  0  0  0
  8  3  1  0  0  0  0
  9 22  1  0  0  0  0
  9 23  1  0  0  0  0
 10 24  1  0  0  0  0
 10  9  1  0  0  0  0
 11 27  1  0  0  0  0
 11 10  1  0  0  0  0
 12 11  1  0  0  0  0
 12 13  1  0  0  0  0
 13 30  1  0  0  0  0
 13  8  1  0  0  0  0
 14  5  1  0  0  0  0
 16  6  1  0  0  0  0
 21  8  1  0  0  0  0
 25 10  1  0  0  0  0
 26 11  1  0  0  0  0
 28 12  1  0  0  0  0
 29 12  1  0  0  0  0
 31 13  1  0  0  0  0
M  END
