1,2
 OpenBabel05122313063D

 17 17  0  0  0  0  0  0  0  0999 V2000
   -0.9261    0.9137    0.0206 S   0  0  0  0  0  1  0  0  0  0  0  0
   -0.3792   -1.8027   -0.0252 S   0  0  0  0  0  1  0  0  0  0  0  0
   -3.6072   -3.5310    0.0802 N   0  0  0  0  0  0  0  0  0  0  0  0
   -4.1984   -0.0474   -0.0433 C   0  0  0  0  0  0  0  0  0  0  0  0
   -4.0787    1.2901   -0.4942 C   0  0  0  0  0  0  0  0  0  0  0  0
   -3.1156    1.6479   -0.8855 H   0  0  0  0  0  0  0  0  0  0  0  0
   -5.1816    2.1528   -0.4809 C   0  0  0  0  0  0  0  0  0  0  0  0
   -5.0622    3.1865   -0.8409 H   0  0  0  0  0  0  0  0  0  0  0  0
   -6.4338    1.7060   -0.0289 C   0  0  0  0  0  0  0  0  0  0  0  0
   -7.2984    2.3869   -0.0213 H   0  0  0  0  0  0  0  0  0  0  0  0
   -6.5724    0.3763    0.4014 C   0  0  0  0  0  0  0  0  0  0  0  0
   -7.5493    0.0072    0.7498 H   0  0  0  0  0  0  0  0  0  0  0  0
   -5.4732   -0.4897    0.3915 C   0  0  0  0  0  0  0  0  0  0  0  0
   -5.5916   -1.5306    0.7285 H   0  0  0  0  0  0  0  0  0  0  0  0
   -3.0560   -0.9846   -0.0293 C   0  0  0  0  0  0  0  0  0  0  0  0
   -1.7084   -0.6536   -0.0298 C   0  0  0  0  0  0  0  0  0  0  0  0
   -3.3491   -2.3836    0.0281 C   0  0  0  0  0  0  0  0  0  0  0  0
  4 15  1  0  0  0  0
  4 13  1  0  0  0  0
  5  7  1  0  0  0  0
  5  4  2  0  0  0  0
  6  5  1  0  0  0  0
  7  9  2  0  0  0  0
  8  7  1  0  0  0  0
  9 10  1  0  0  0  0
  9 11  1  0  0  0  0
 11 12  1  0  0  0  0
 13 11  2  0  0  0  0
 13 14  1  0  0  0  0
 15 17  1  0  0  0  0
 16 15  2  0  0  0  0
 16  2  1  0  0  0  0
 16  1  1  0  0  0  0
 17  3  3  0  0  0  0
M  END
