1,2
 OpenBabel05122313063D

 26 26  0  0  0  0  0  0  0  0999 V2000
    1.7942    0.7988   -1.3403 S   0  0  0  0  0  1  0  0  0  0  0  0
    2.3347   -0.5320    1.3216 S   0  0  0  0  0  1  0  0  0  0  0  0
    6.7175   -0.6847    2.1113 O   0  0  0  0  0  0  0  0  0  0  0  0
    6.1679   -0.8353    2.9026 H   0  0  0  0  0  0  0  0  0  0  0  0
    4.1101    0.9828    0.0165 N   0  0  0  0  0  0  0  0  0  0  0  0
    2.8539    0.4549   -0.0014 C   0  0  0  0  0  3  0  0  0  0  0  0
    5.0154    0.7708    1.1431 C   0  0  0  0  0  0  0  0  0  0  0  0
    4.4089    0.7357    2.0723 H   0  0  0  0  0  0  0  0  0  0  0  0
    5.7011    1.6398    1.2113 H   0  0  0  0  0  0  0  0  0  0  0  0
    5.8294   -0.5271    1.0220 C   0  0  0  0  0  0  0  0  0  0  0  0
    5.1193   -1.3807    0.9139 H   0  0  0  0  0  0  0  0  0  0  0  0
    6.4546   -0.4952    0.1041 H   0  0  0  0  0  0  0  0  0  0  0  0
    4.6390    1.8118   -1.0743 C   0  0  0  0  0  0  0  0  0  0  0  0
    3.9757    1.6552   -1.9489 H   0  0  0  0  0  0  0  0  0  0  0  0
    5.6516    1.4387   -1.3366 H   0  0  0  0  0  0  0  0  0  0  0  0
    4.7067    3.2801   -0.7096 C   0  0  0  0  0  0  0  0  0  0  0  0
    3.5232    3.9849   -0.4031 C   0  0  0  0  0  0  0  0  0  0  0  0
    2.5576    3.4566   -0.4530 H   0  0  0  0  0  0  0  0  0  0  0  0
    3.5793    5.3397   -0.0506 C   0  0  0  0  0  0  0  0  0  0  0  0
    2.6497    5.8806    0.1842 H   0  0  0  0  0  0  0  0  0  0  0  0
    4.8143    6.0093    0.0006 C   0  0  0  0  0  0  0  0  0  0  0  0
    4.8549    7.0737    0.2782 H   0  0  0  0  0  0  0  0  0  0  0  0
    5.9951    5.3156   -0.3022 C   0  0  0  0  0  0  0  0  0  0  0  0
    6.9664    5.8319   -0.2612 H   0  0  0  0  0  0  0  0  0  0  0  0
    5.9393    3.9565   -0.6524 C   0  0  0  0  0  0  0  0  0  0  0  0
    6.8678    3.4108   -0.8871 H   0  0  0  0  0  0  0  0  0  0  0  0
  1  6  1  0  0  0  0
  3  4  1  0  0  0  0
  5  7  1  0  0  0  0
  6  5  1  0  0  0  0
  6  2  1  0  0  0  0
  7  9  1  0  0  0  0
  7  8  1  0  0  0  0
 10  7  1  0  0  0  0
 10  3  1  0  0  0  0
 11 10  1  0  0  0  0
 12 10  1  0  0  0  0
 13 16  1  0  0  0  0
 13  5  1  0  0  0  0
 14 13  1  0  0  0  0
 15 13  1  0  0  0  0
 16 25  2  0  0  0  0
 16 17  1  0  0  0  0
 17 19  2  0  0  0  0
 18 17  1  0  0  0  0
 19 21  1  0  0  0  0
 19 20  1  0  0  0  0
 21 22  1  0  0  0  0
 23 24  1  0  0  0  0
 23 21  2  0  0  0  0
 25 23  1  0  0  0  0
 26 25  1  0  0  0  0
M  END
