1,2
 OpenBabel05122313063D

 15 15  0  0  1  0  0  0  0  0999 V2000
    0.0435    0.5603    2.1056 S   0  0  0  0  0  1  0  0  0  0  0  0
   -0.5192    2.2610   -0.7799 S   0  0  0  0  0  1  0  0  0  0  0  0
    0.0540   -1.0638   -1.9374 S   0  0  0  0  0  1  0  0  0  0  0  0
    0.5561   -1.9983   -0.1593 S   0  0  0  0  0  0  0  0  0  0  0  0
    2.5324   -1.5899    0.4883 S   0  0  0  0  0  0  0  0  0  0  0  0
    1.2267    0.8769    0.8749 C   0  0  0  0  0  0  0  0  0  0  0  0
    1.0132    1.5996   -0.3103 C   0  0  0  0  0  0  0  0  0  0  0  0
    2.2362    1.5369   -1.1991 C   0  0  0  0  0  0  0  0  0  0  0  0
    2.0390    0.8119   -2.0201 H   0  0  0  0  0  0  0  0  0  0  0  0
    2.4531    2.5178   -1.6664 H   0  0  0  0  0  0  0  0  0  0  0  0
    3.3429    1.0445   -0.2494 C   0  0  0  0  0  0  0  0  0  0  0  0
    4.1277    0.4481   -0.7528 H   0  0  0  0  0  0  0  0  0  0  0  0
    3.8368    1.9116    0.2375 H   0  0  0  0  0  0  0  0  0  0  0  0
    2.6026    0.2517    0.8452 C   0  0  2  0  0  0  0  0  0  0  0  0
    3.0980    0.2955    1.8363 H   0  0  0  0  0  0  0  0  0  0  0  0
  2  7  1  0  0  0  0
  3  4  1  0  0  0  0
  4  5  1  0  0  0  0
  5 14  1  0  0  0  0
  6  1  1  0  0  0  0
  7  6  2  0  0  0  0
  8  7  1  0  0  0  0
  8 11  1  0  0  0  0
  9  8  1  0  0  0  0
 10  8  1  0  0  0  0
 11 13  1  0  0  0  0
 11 14  1  0  0  0  0
 12 11  1  0  0  0  0
 14  6  1  0  0  0  0
 14 15  1  1  0  0  0
M  END
