1,2
 OpenBabel05122313063D

 12 11  0  0  0  0  0  0  0  0999 V2000
    1.6718   -1.5694   -0.2855 S   0  0  0  0  0  1  0  0  0  0  0  0
    1.6716    1.5687   -0.2898 S   0  0  0  0  0  1  0  0  0  0  0  0
    4.0799    1.4956   -1.6565 C   0  0  0  0  0  0  0  0  0  0  0  0
    3.8960    2.5815   -1.5563 H   0  0  0  0  0  0  0  0  0  0  0  0
    4.1763    1.2595   -2.7378 H   0  0  0  0  0  0  0  0  0  0  0  0
    5.0600    1.2658   -1.1867 H   0  0  0  0  0  0  0  0  0  0  0  0
    2.9752    0.6910   -1.0241 C   0  0  0  0  0  0  0  0  0  0  0  0
    2.9753   -0.6935   -1.0222 C   0  0  0  0  0  0  0  0  0  0  0  0
    4.0801   -1.4997   -1.6524 C   0  0  0  0  0  0  0  0  0  0  0  0
    3.8974   -2.5853   -1.5475 H   0  0  0  0  0  0  0  0  0  0  0  0
    5.0605   -1.2670   -1.1847 H   0  0  0  0  0  0  0  0  0  0  0  0
    4.1751   -1.2681   -2.7348 H   0  0  0  0  0  0  0  0  0  0  0  0
  3  4  1  0  0  0  0
  3  6  1  0  0  0  0
  3  7  1  0  0  0  0
  5  3  1  0  0  0  0
  7  8  2  0  0  0  0
  7  2  1  0  0  0  0
  8  1  1  0  0  0  0
  9 10  1  0  0  0  0
  9 11  1  0  0  0  0
  9  8  1  0  0  0  0
 12  9  1  0  0  0  0
M  END
