1,2
 OpenBabel05122313063D

 30 31  0  0  0  0  0  0  0  0999 V2000
    1.7021    1.4362   -0.7091 S   0  0  0  0  0  0  0  0  0  0  0  0
    1.5712   -1.6881   -0.3137 S   0  0  0  0  0  1  0  0  0  0  0  0
    1.3841    2.6677    0.6115 C   0  0  0  0  0  0  0  0  0  0  0  0
    0.4799    3.2237    0.3021 H   0  0  0  0  0  0  0  0  0  0  0  0
    2.2607    3.3363    0.7018 H   0  0  0  0  0  0  0  0  0  0  0  0
    1.1841    2.1429    1.5631 H   0  0  0  0  0  0  0  0  0  0  0  0
    3.1544    0.5805    0.0081 C   0  0  0  0  0  0  0  0  0  0  0  0
    4.2887    1.4306    0.3917 C   0  0  0  0  0  0  0  0  0  0  0  0
    4.6715    2.5469   -0.3971 C   0  0  0  0  0  0  0  0  0  0  0  0
    4.1117    2.7561   -1.3221 H   0  0  0  0  0  0  0  0  0  0  0  0
    5.7448    3.3656   -0.0219 C   0  0  0  0  0  0  0  0  0  0  0  0
    6.0221    4.2211   -0.6581 H   0  0  0  0  0  0  0  0  0  0  0  0
    6.4692    3.0976    1.1516 C   0  0  0  0  0  0  0  0  0  0  0  0
    7.3126    3.7410    1.4459 H   0  0  0  0  0  0  0  0  0  0  0  0
    6.0963    2.0017    1.9500 C   0  0  0  0  0  0  0  0  0  0  0  0
    6.6466    1.7849    2.8793 H   0  0  0  0  0  0  0  0  0  0  0  0
    5.0210    1.1852    1.5829 C   0  0  0  0  0  0  0  0  0  0  0  0
    4.7273    0.3391    2.2206 H   0  0  0  0  0  0  0  0  0  0  0  0
    3.0698   -0.7865    0.0605 C   0  0  0  0  0  0  0  0  0  0  0  0
    4.2235   -1.6519    0.4022 C   0  0  0  0  0  0  0  0  0  0  0  0
    4.0774   -2.7174    1.3212 C   0  0  0  0  0  0  0  0  0  0  0  0
    3.0903   -2.8854    1.7768 H   0  0  0  0  0  0  0  0  0  0  0  0
    5.1655   -3.5409    1.6419 C   0  0  0  0  0  0  0  0  0  0  0  0
    5.0320   -4.3596    2.3665 H   0  0  0  0  0  0  0  0  0  0  0  0
    6.4181   -3.3295    1.0426 C   0  0  0  0  0  0  0  0  0  0  0  0
    7.2713   -3.9789    1.2933 H   0  0  0  0  0  0  0  0  0  0  0  0
    6.5695   -2.2871    0.1120 C   0  0  0  0  0  0  0  0  0  0  0  0
    7.5425   -2.1203   -0.3764 H   0  0  0  0  0  0  0  0  0  0  0  0
    5.4865   -1.4580   -0.2054 C   0  0  0  0  0  0  0  0  0  0  0  0
    5.6053   -0.6468   -0.9381 H   0  0  0  0  0  0  0  0  0  0  0  0
  1  7  1  0  0  0  0
  1  3  1  0  0  0  0
  2 19  1  0  0  0  0
  3  5  1  0  0  0  0
  3  6  1  0  0  0  0
  4  3  1  0  0  0  0
  7 19  2  0  0  0  0
  7  8  1  0  0  0  0
  8 17  1  0  0  0  0
  9 11  1  0  0  0  0
  9  8  2  0  0  0  0
 10  9  1  0  0  0  0
 11 13  2  0  0  0  0
 12 11  1  0  0  0  0
 13 14  1  0  0  0  0
 13 15  1  0  0  0  0
 15 16  1  0  0  0  0
 17 15  2  0  0  0  0
 17 18  1  0  0  0  0
 19 20  1  0  0  0  0
 20 21  1  0  0  0  0
 21 23  2  0  0  0  0
 21 22  1  0  0  0  0
 23 24  1  0  0  0  0
 25 26  1  0  0  0  0
 25 23  1  0  0  0  0
 27 25  2  0  0  0  0
 28 27  1  0  0  0  0
 29 27  1  0  0  0  0
 29 20  2  0  0  0  0
 30 29  1  0  0  0  0
M  END
