1,2
 OpenBabel05122313063D

 16 16  0  0  0  0  0  0  0  0999 V2000
    1.3167   -0.8618   -2.2586 S   0  0  0  0  0  1  0  0  0  0  0  0
    2.2880   -1.4416    0.6755 S   0  0  0  0  0  1  0  0  0  0  0  0
    2.9779   -1.0746   -1.9032 C   0  0  0  0  0  0  0  0  0  0  0  0
    3.6702   -1.0359   -2.7595 H   0  0  0  0  0  0  0  0  0  0  0  0
    3.4453   -1.3199   -0.6123 C   0  0  0  0  0  0  0  0  0  0  0  0
    4.8843   -1.4370   -0.2913 C   0  0  0  0  0  0  0  0  0  0  0  0
    5.8533   -0.7363   -1.0498 C   0  0  0  0  0  0  0  0  0  0  0  0
    5.5281   -0.0842   -1.8744 H   0  0  0  0  0  0  0  0  0  0  0  0
    7.2169   -0.8374   -0.7442 C   0  0  0  0  0  0  0  0  0  0  0  0
    7.9515   -0.2790   -1.3446 H   0  0  0  0  0  0  0  0  0  0  0  0
    7.6451   -1.6363    0.3281 C   0  0  0  0  0  0  0  0  0  0  0  0
    8.7162   -1.7147    0.5684 H   0  0  0  0  0  0  0  0  0  0  0  0
    6.6942   -2.3317    1.0933 C   0  0  0  0  0  0  0  0  0  0  0  0
    7.0187   -2.9632    1.9344 H   0  0  0  0  0  0  0  0  0  0  0  0
    5.3312   -2.2340    0.7890 C   0  0  0  0  0  0  0  0  0  0  0  0
    4.5888   -2.7854    1.3851 H   0  0  0  0  0  0  0  0  0  0  0  0
  1  3  1  0  0  0  0
  3  5  2  0  0  0  0
  4  3  1  0  0  0  0
  5  6  1  0  0  0  0
  5  2  1  0  0  0  0
  6 15  1  0  0  0  0
  7  9  1  0  0  0  0
  7  6  2  0  0  0  0
  8  7  1  0  0  0  0
  9 11  2  0  0  0  0
 10  9  1  0  0  0  0
 11 12  1  0  0  0  0
 11 13  1  0  0  0  0
 13 14  1  0  0  0  0
 15 13  2  0  0  0  0
 15 16  1  0  0  0  0
M  END
