1,2
 OpenBabel05122313063D

 41 43  0  0  0  0  0  0  0  0999 V2000
    0.6906    0.4079   -0.5489 S   0  0  0  0  0  1  0  0  0  0  0  0
    0.2402   -2.4031   -0.4501 S   0  0  0  0  0  1  0  0  0  0  0  0
   -4.5039   -0.1667   -0.1958 N   0  0  0  0  0  0  0  0  0  0  0  0
   -1.7918   -0.6465   -0.9251 N   0  0  0  0  0  0  0  0  0  0  0  0
   -7.6456    3.8623   -0.2067 C   0  0  0  0  0  0  0  0  0  0  0  0
   -8.1532    4.8160   -0.4165 H   0  0  0  0  0  0  0  0  0  0  0  0
   -7.4997    3.4159    1.1153 C   0  0  0  0  0  0  0  0  0  0  0  0
   -7.8910    4.0192    1.9486 H   0  0  0  0  0  0  0  0  0  0  0  0
   -3.8912   -1.4747    0.0324 C   0  0  0  0  0  0  0  0  0  0  0  0
   -4.6575   -2.2661   -0.0750 H   0  0  0  0  0  0  0  0  0  0  0  0
   -3.4699   -1.5557    1.0697 H   0  0  0  0  0  0  0  0  0  0  0  0
   -6.7409   -1.0337    0.4312 C   0  0  0  0  0  0  0  0  0  0  0  0
   -8.4348   -2.5253    1.3642 C   0  0  0  0  0  0  0  0  0  0  0  0
   -8.9632   -2.9285    2.2415 H   0  0  0  0  0  0  0  0  0  0  0  0
   -7.4293   -1.5613    1.5378 C   0  0  0  0  0  0  0  0  0  0  0  0
   -7.1713   -1.2121    2.5503 H   0  0  0  0  0  0  0  0  0  0  0  0
   -0.4853   -0.8609   -0.6808 C   0  0  0  0  0  3  0  0  0  0  0  0
   -5.6956    0.0625    0.6301 C   0  0  0  0  0  0  0  0  0  0  0  0
   -5.4245    0.0624    1.7193 H   0  0  0  0  0  0  0  0  0  0  0  0
   -7.1347    3.0867   -1.2609 C   0  0  0  0  0  0  0  0  0  0  0  0
   -7.2403    3.4328   -2.3006 H   0  0  0  0  0  0  0  0  0  0  0  0
   -2.7725   -1.7264   -0.9770 C   0  0  0  0  0  0  0  0  0  0  0  0
   -2.2546   -2.6817   -0.7656 H   0  0  0  0  0  0  0  0  0  0  0  0
   -3.1990   -1.7732   -2.0035 H   0  0  0  0  0  0  0  0  0  0  0  0
   -2.3666    0.6887   -1.0562 C   0  0  0  0  0  0  0  0  0  0  0  0
   -2.7660    0.8070   -2.0878 H   0  0  0  0  0  0  0  0  0  0  0  0
   -1.5654    1.4367   -0.9002 H   0  0  0  0  0  0  0  0  0  0  0  0
   -6.3397    1.4151    0.3304 C   0  0  0  0  0  0  0  0  0  0  0  0
   -7.0732   -1.4941   -0.8589 C   0  0  0  0  0  0  0  0  0  0  0  0
   -6.5260   -1.0952   -1.7260 H   0  0  0  0  0  0  0  0  0  0  0  0
   -3.4954    0.8808   -0.0446 C   0  0  0  0  0  0  0  0  0  0  0  0
   -3.0591    0.8848    0.9898 H   0  0  0  0  0  0  0  0  0  0  0  0
   -3.9622    1.8709   -0.2094 H   0  0  0  0  0  0  0  0  0  0  0  0
   -8.7591   -2.9786    0.0769 C   0  0  0  0  0  0  0  0  0  0  0  0
   -9.5441   -3.7373   -0.0618 H   0  0  0  0  0  0  0  0  0  0  0  0
   -6.8477    2.2014    1.3796 C   0  0  0  0  0  0  0  0  0  0  0  0
   -6.7295    1.8556    2.4189 H   0  0  0  0  0  0  0  0  0  0  0  0
   -8.0713   -2.4620   -1.0342 C   0  0  0  0  0  0  0  0  0  0  0  0
   -8.3162   -2.8169   -2.0470 H   0  0  0  0  0  0  0  0  0  0  0  0
   -6.4902    1.8708   -0.9948 C   0  0  0  0  0  0  0  0  0  0  0  0
   -6.0791    1.2659   -1.8168 H   0  0  0  0  0  0  0  0  0  0  0  0
  3 31  1  0  0  0  0
  3  9  1  0  0  0  0
  3 18  1  0  0  0  0
  4 17  1  0  0  0  0
  5  7  1  0  0  0  0
  6  5  1  0  0  0  0
  7 36  2  0  0  0  0
  7  8  1  0  0  0  0
  9 11  1  0  0  0  0
 10  9  1  0  0  0  0
 12 18  1  0  0  0  0
 12 15  1  0  0  0  0
 13 15  2  0  0  0  0
 13 14  1  0  0  0  0
 15 16  1  0  0  0  0
 17  1  1  0  0  0  0
 17  2  1  0  0  0  0
 18 19  1  0  0  0  0
 20 40  1  0  0  0  0
 20  5  2  0  0  0  0
 21 20  1  0  0  0  0
 22  4  1  0  0  0  0
 22 23  1  0  0  0  0
 22  9  1  0  0  0  0
 24 22  1  0  0  0  0
 25  4  1  0  0  0  0
 25 27  1  0  0  0  0
 25 31  1  0  0  0  0
 26 25  1  0  0  0  0
 28 18  1  0  0  0  0
 28 36  1  0  0  0  0
 29 12  2  0  0  0  0
 30 29  1  0  0  0  0
 31 32  1  0  0  0  0
 33 31  1  0  0  0  0
 34 13  1  0  0  0  0
 35 34  1  0  0  0  0
 36 37  1  0  0  0  0
 38 29  1  0  0  0  0
 38 34  2  0  0  0  0
 39 38  1  0  0  0  0
 40 28  2  0  0  0  0
 41 40  1  0  0  0  0
M  END
