1,3
 OpenBabel05122313063D

 33 34  0  0  0  0  0  0  0  0999 V2000
    2.0225    0.9213   -0.2467 S   0  0  0  0  0  1  0  0  0  0  0  0
    2.5648   -0.6963   -0.0196 C   0  0  0  0  0  3  0  0  0  0  0  0
    1.2936   -1.8154    0.2193 S   0  0  0  0  0  1  0  0  0  0  0  0
    3.8214   -1.1070   -0.0252 O   0  0  0  0  0  0  0  0  0  0  0  0
    4.8948   -0.1355   -0.2028 C   0  0  0  0  0  0  0  0  0  0  0  0
    4.5264    0.6469   -0.9039 H   0  0  0  0  0  0  0  0  0  0  0  0
    6.0818   -0.8683   -0.8100 C   0  0  0  0  0  0  0  0  0  0  0  0
    6.3440   -1.7286   -0.1599 H   0  0  0  0  0  0  0  0  0  0  0  0
    5.8172   -1.2652   -1.8106 H   0  0  0  0  0  0  0  0  0  0  0  0
    7.2769    0.0822   -0.9124 C   0  0  0  0  0  0  0  0  0  0  0  0
    8.1617   -0.4671   -1.2916 H   0  0  0  0  0  0  0  0  0  0  0  0
    7.0527    0.8880   -1.6659 H   0  0  0  0  0  0  0  0  0  0  0  0
    7.6068    0.6568    0.3872 N   0  0  0  0  0  0  0  0  0  0  0  0
    6.4907    1.4016    0.9540 C   0  0  0  0  0  0  0  0  0  0  0  0
    6.2124    2.2850    0.3143 H   0  0  0  0  0  0  0  0  0  0  0  0
    6.8004    1.8116    1.9376 H   0  0  0  0  0  0  0  0  0  0  0  0
    5.2649    0.5020    1.1334 C   0  0  0  0  0  0  0  0  0  0  0  0
    5.4979   -0.3042    1.8594 H   0  0  0  0  0  0  0  0  0  0  0  0
    4.4096    1.0892    1.5231 H   0  0  0  0  0  0  0  0  0  0  0  0
    8.8520    1.4098    0.3696 C   0  0  0  0  0  0  0  0  0  0  0  0
    8.9485    1.9122    1.3579 H   0  0  0  0  0  0  0  0  0  0  0  0
    8.8411    2.2346   -0.3933 H   0  0  0  0  0  0  0  0  0  0  0  0
   10.0708    0.5358    0.1441 C   0  0  0  0  0  0  0  0  0  0  0  0
   11.1285    0.9646   -0.6785 C   0  0  0  0  0  0  0  0  0  0  0  0
   11.0516    1.9351   -1.1950 H   0  0  0  0  0  0  0  0  0  0  0  0
   12.2725    0.1686   -0.8491 C   0  0  0  0  0  0  0  0  0  0  0  0
   13.0911    0.5182   -1.4968 H   0  0  0  0  0  0  0  0  0  0  0  0
   12.3671   -1.0737   -0.2038 C   0  0  0  0  0  0  0  0  0  0  0  0
   13.2607   -1.7017   -0.3404 H   0  0  0  0  0  0  0  0  0  0  0  0
   11.3114   -1.5145    0.6122 C   0  0  0  0  0  0  0  0  0  0  0  0
   11.3772   -2.4903    1.1178 H   0  0  0  0  0  0  0  0  0  0  0  0
   10.1733   -0.7150    0.7859 C   0  0  0  0  0  0  0  0  0  0  0  0
    9.3330   -1.0528    1.4117 H   0  0  0  0  0  0  0  0  0  0  0  0
  1  2  1  0  0  0  0
  2  3  1  0  0  0  0
  4  2  1  0  0  0  0
  5  4  1  0  0  0  0
  5 17  1  0  0  0  0
  6  5  1  0  0  0  0
  7  5  1  0  0  0  0
  7  8  1  0  0  0  0
  9  7  1  0  0  0  0
 10  7  1  0  0  0  0
 10 13  1  0  0  0  0
 11 10  1  0  0  0  0
 12 10  1  0  0  0  0
 13 14  1  0  0  0  0
 14 17  1  0  0  0  0
 14 16  1  0  0  0  0
 15 14  1  0  0  0  0
 17 19  1  0  0  0  0
 17 18  1  0  0  0  0
 20 13  1  0  0  0  0
 20 21  1  0  0  0  0
 22 20  1  0  0  0  0
 23 20  1  0  0  0  0
 23 32  1  0  0  0  0
 24 23  2  0  0  0  0
 25 24  1  0  0  0  0
 26 24  1  0  0  0  0
 26 28  2  0  0  0  0
 27 26  1  0  0  0  0
 28 30  1  0  0  0  0
 29 28  1  0  0  0  0
 30 32  2  0  0  0  0
 30 31  1  0  0  0  0
 32 33  1  0  0  0  0
M  END
