1,3
 OpenBabel05122313063D

 20 22  0  0  0  0  0  0  0  0999 V2000
    0.8019    1.5806   -0.5394 S   0  0  0  0  0  1  0  0  0  0  0  0
    3.6735    1.5857   -1.1928 S   0  0  0  0  0  0  0  0  0  0  0  0
    0.7931   -1.6387   -0.2695 S   0  0  0  0  0  1  0  0  0  0  0  0
    3.6629   -1.7691   -0.9127 S   0  0  0  0  0  0  0  0  0  0  0  0
    6.0420    1.4005   -0.0594 N   0  0  0  0  0  0  0  0  0  0  0  0
    4.9959    0.6845   -0.4096 C   0  0  0  0  0  0  0  0  0  0  0  0
    2.2339   -0.7489   -0.6617 C   0  0  0  0  0  0  0  0  0  0  0  0
    2.2378    0.6302   -0.7765 C   0  0  0  0  0  0  0  0  0  0  0  0
    4.9911   -0.7593   -0.2875 C   0  0  0  0  0  0  0  0  0  0  0  0
    6.0321   -1.4134    0.1795 N   0  0  0  0  0  0  0  0  0  0  0  0
    9.4034   -0.6158    1.4214 C   0  0  0  0  0  0  0  0  0  0  0  0
   10.2936   -1.1294    1.8149 H   0  0  0  0  0  0  0  0  0  0  0  0
    7.1403    0.7431    0.4228 C   0  0  0  0  0  0  0  0  0  0  0  0
    7.1351   -0.6919    0.5451 C   0  0  0  0  0  0  0  0  0  0  0  0
    8.2868   -1.3546    1.0479 C   0  0  0  0  0  0  0  0  0  0  0  0
    8.2546   -2.4508    1.1295 H   0  0  0  0  0  0  0  0  0  0  0  0
    8.2974    1.4729    0.8065 C   0  0  0  0  0  0  0  0  0  0  0  0
    8.2734    2.5672    0.7013 H   0  0  0  0  0  0  0  0  0  0  0  0
    9.4087    0.7997    1.3004 C   0  0  0  0  0  0  0  0  0  0  0  0
   10.3030    1.3660    1.6017 H   0  0  0  0  0  0  0  0  0  0  0  0
  2  8  1  0  0  0  0
  2  6  1  0  0  0  0
  4  7  1  0  0  0  0
  4  9  1  0  0  0  0
  5 13  1  0  0  0  0
  6  9  1  0  0  0  0
  6  5  2  0  0  0  0
  7  3  1  0  0  0  0
  8  7  2  0  0  0  0
  8  1  1  0  0  0  0
  9 10  2  0  0  0  0
 10 14  1  0  0  0  0
 11 12  1  0  0  0  0
 13 14  2  0  0  0  0
 13 17  1  0  0  0  0
 14 15  1  0  0  0  0
 15 16  1  0  0  0  0
 15 11  2  0  0  0  0
 17 19  2  0  0  0  0
 18 17  1  0  0  0  0
 19 11  1  0  0  0  0
 19 20  1  0  0  0  0
M  END
