2,3
 OpenBabel05122313063D

 55 57  0  0  0  0  0  0  0  0999 V2000
    3.0983   -0.0145    0.0808 P   0  0  0  0  0  4  0  0  0  0  0  0
    0.8151    1.5660   -1.1674 S   0  0  0  0  0  1  0  0  0  0  0  0
    0.8725   -1.3831   -1.4200 S   0  0  0  0  0  1  0  0  0  0  0  0
    1.6256    0.0815   -0.9928 C   0  0  0  0  0  3  0  0  0  0  0  0
    3.8877    1.6528    0.1111 C   0  0  0  0  0  0  0  0  0  0  0  0
    4.5399    2.0300   -1.2334 C   0  0  0  0  0  0  0  0  0  0  0  0
    4.9756    3.5013   -1.2161 C   0  0  0  0  0  0  0  0  0  0  0  0
    5.9166    3.7913   -0.0408 C   0  0  0  0  0  0  0  0  0  0  0  0
    5.2823    3.3873    1.2957 C   0  0  0  0  0  0  0  0  0  0  0  0
    4.8321    1.9178    1.2987 C   0  0  0  0  0  0  0  0  0  0  0  0
    4.1659   -1.4026   -0.4926 C   0  0  0  0  0  0  0  0  0  0  0  0
    4.4916   -1.3811   -1.9992 C   0  0  0  0  0  0  0  0  0  0  0  0
    5.2251   -2.6722   -2.3890 C   0  0  0  0  0  0  0  0  0  0  0  0
    6.4883   -2.8835   -1.5449 C   0  0  0  0  0  0  0  0  0  0  0  0
    6.1711   -2.8669   -0.0443 C   0  0  0  0  0  0  0  0  0  0  0  0
    5.4333   -1.5831    0.3647 C   0  0  0  0  0  0  0  0  0  0  0  0
    2.4750   -0.3953    1.7915 C   0  0  0  0  0  0  0  0  0  0  0  0
    1.3239    0.5569    2.1778 C   0  0  0  0  0  0  0  0  0  0  0  0
    0.8547    0.3048    3.6169 C   0  0  0  0  0  0  0  0  0  0  0  0
    0.4518   -1.1592    3.8195 C   0  0  0  0  0  0  0  0  0  0  0  0
    1.5905   -2.1070    3.4277 C   0  0  0  0  0  0  0  0  0  0  0  0
    2.0699   -1.8685    1.9858 C   0  0  0  0  0  0  0  0  0  0  0  0
    2.9848    2.2977    0.2303 H   0  0  0  0  0  0  0  0  0  0  0  0
    3.8354    1.8410   -2.0689 H   0  0  0  0  0  0  0  0  0  0  0  0
    5.4319    1.3890   -1.4031 H   0  0  0  0  0  0  0  0  0  0  0  0
    4.0707    4.1438   -1.1397 H   0  0  0  0  0  0  0  0  0  0  0  0
    5.4611    3.7574   -2.1801 H   0  0  0  0  0  0  0  0  0  0  0  0
    6.1958    4.8648   -0.0236 H   0  0  0  0  0  0  0  0  0  0  0  0
    6.8646    3.2248   -0.1825 H   0  0  0  0  0  0  0  0  0  0  0  0
    5.9884    3.5606    2.1338 H   0  0  0  0  0  0  0  0  0  0  0  0
    4.3973    4.0322    1.4928 H   0  0  0  0  0  0  0  0  0  0  0  0
    4.3339    1.6833    2.2610 H   0  0  0  0  0  0  0  0  0  0  0  0
    5.7228    1.2564    1.2277 H   0  0  0  0  0  0  0  0  0  0  0  0
    3.4919   -2.2728   -0.3200 H   0  0  0  0  0  0  0  0  0  0  0  0
    5.1350   -0.5083   -2.2347 H   0  0  0  0  0  0  0  0  0  0  0  0
    3.5600   -1.2697   -2.5888 H   0  0  0  0  0  0  0  0  0  0  0  0
    5.4766   -2.6446   -3.4690 H   0  0  0  0  0  0  0  0  0  0  0  0
    4.5357   -3.5346   -2.2507 H   0  0  0  0  0  0  0  0  0  0  0  0
    7.2194   -2.0749   -1.7721 H   0  0  0  0  0  0  0  0  0  0  0  0
    6.9841   -3.8367   -1.8213 H   0  0  0  0  0  0  0  0  0  0  0  0
    5.5337   -3.7431    0.2093 H   0  0  0  0  0  0  0  0  0  0  0  0
    7.0991   -2.9710    0.5549 H   0  0  0  0  0  0  0  0  0  0  0  0
    5.1840   -1.6102    1.4460 H   0  0  0  0  0  0  0  0  0  0  0  0
    6.1043   -0.7094    0.2136 H   0  0  0  0  0  0  0  0  0  0  0  0
    3.3564   -0.1832    2.4408 H   0  0  0  0  0  0  0  0  0  0  0  0
    0.4666    0.3845    1.4935 H   0  0  0  0  0  0  0  0  0  0  0  0
    1.6234    1.6179    2.0493 H   0  0  0  0  0  0  0  0  0  0  0  0
    1.6647    0.5791    4.3308 H   0  0  0  0  0  0  0  0  0  0  0  0
   -0.0042    0.9732    3.8283 H   0  0  0  0  0  0  0  0  0  0  0  0
    0.1532   -1.3350    4.8735 H   0  0  0  0  0  0  0  0  0  0  0  0
   -0.4365   -1.3797    3.1923 H   0  0  0  0  0  0  0  0  0  0  0  0
    2.4488   -1.9699    4.1248 H   0  0  0  0  0  0  0  0  0  0  0  0
    1.2695   -3.1641    3.5281 H   0  0  0  0  0  0  0  0  0  0  0  0
    2.9207   -2.5442    1.7614 H   0  0  0  0  0  0  0  0  0  0  0  0
    1.2538   -2.1186    1.2770 H   0  0  0  0  0  0  0  0  0  0  0  0
  1  5  1  0  0  0  0
  1 17  1  0  0  0  0
  2  4  1  0  0  0  0
  3  4  1  0  0  0  0
  4  1  1  0  0  0  0
  5 23  1  0  0  0  0
  5 10  1  0  0  0  0
  6  7  1  0  0  0  0
  6  5  1  0  0  0  0
  7 26  1  0  0  0  0
  7  8  1  0  0  0  0
  8 28  1  0  0  0  0
  8  9  1  0  0  0  0
  9 10  1  0  0  0  0
  9 31  1  0  0  0  0
  9 30  1  0  0  0  0
 10 32  1  0  0  0  0
 11 34  1  0  0  0  0
 11  1  1  0  0  0  0
 11 16  1  0  0  0  0
 12 11  1  0  0  0  0
 13 38  1  0  0  0  0
 13 12  1  0  0  0  0
 13 14  1  0  0  0  0
 14 15  1  0  0  0  0
 15 41  1  0  0  0  0
 15 16  1  0  0  0  0
 15 42  1  0  0  0  0
 16 43  1  0  0  0  0
 17 22  1  0  0  0  0
 17 18  1  0  0  0  0
 17 45  1  0  0  0  0
 18 19  1  0  0  0  0
 19 20  1  0  0  0  0
 19 49  1  0  0  0  0
 19 48  1  0  0  0  0
 20 50  1  0  0  0  0
 21 53  1  0  0  0  0
 21 20  1  0  0  0  0
 21 52  1  0  0  0  0
 22 21  1  0  0  0  0
 24  6  1  0  0  0  0
 25  6  1  0  0  0  0
 27  7  1  0  0  0  0
 29  8  1  0  0  0  0
 33 10  1  0  0  0  0
 35 12  1  0  0  0  0
 36 12  1  0  0  0  0
 37 13  1  0  0  0  0
 39 14  1  0  0  0  0
 40 14  1  0  0  0  0
 44 16  1  0  0  0  0
 46 18  1  0  0  0  0
 47 18  1  0  0  0  0
 51 20  1  0  0  0  0
 54 22  1  0  0  0  0
 55 22  1  0  0  0  0
M  END
