1,2
 OpenBabel05122313063D

 24 24  0  0  0  0  0  0  0  0999 V2000
   -1.9271    0.6318   -0.9180 S   0  0  0  0  0  1  0  0  0  0  0  0
   -1.3399   -1.6769    0.6222 S   0  0  0  0  0  1  0  0  0  0  0  0
   -3.6820   -3.1100    0.9004 O   0  0  0  0  0  0  0  0  0  0  0  0
   -3.8587   -1.2419   -0.4469 N   0  0  0  0  0  0  0  0  0  0  0  0
   -2.5480   -0.8428   -0.2569 C   0  0  0  0  0  3  0  0  0  0  0  0
   -4.7362   -0.3929   -1.2737 C   0  0  0  0  0  0  0  0  0  0  0  0
   -5.6711    0.4976   -0.4810 C   0  0  0  0  0  0  0  0  0  0  0  0
   -7.0152    0.6387   -0.8760 C   0  0  0  0  0  0  0  0  0  0  0  0
   -7.8838    1.4853   -0.1698 C   0  0  0  0  0  0  0  0  0  0  0  0
   -7.4169    2.1955    0.9464 C   0  0  0  0  0  0  0  0  0  0  0  0
   -6.0780    2.0581    1.3477 C   0  0  0  0  0  0  0  0  0  0  0  0
   -5.2084    1.2175    0.6386 C   0  0  0  0  0  0  0  0  0  0  0  0
   -4.3780   -2.4184    0.1790 C   0  0  0  0  0  0  0  0  0  0  0  0
   -5.8261   -2.7495   -0.1165 C   0  0  0  0  0  0  0  0  0  0  0  0
   -5.3088   -1.0369   -1.9674 H   0  0  0  0  0  0  0  0  0  0  0  0
   -4.0619    0.2266   -1.9031 H   0  0  0  0  0  0  0  0  0  0  0  0
   -7.3872    0.0765   -1.7481 H   0  0  0  0  0  0  0  0  0  0  0  0
   -8.9320    1.5842   -0.4904 H   0  0  0  0  0  0  0  0  0  0  0  0
   -8.0968    2.8561    1.5053 H   0  0  0  0  0  0  0  0  0  0  0  0
   -5.7037    2.6148    2.2201 H   0  0  0  0  0  0  0  0  0  0  0  0
   -4.1555    1.1285    0.9463 H   0  0  0  0  0  0  0  0  0  0  0  0
   -5.9767   -2.9830   -1.1905 H   0  0  0  0  0  0  0  0  0  0  0  0
   -6.5055   -1.9134    0.1416 H   0  0  0  0  0  0  0  0  0  0  0  0
   -6.0839   -3.6402    0.4818 H   0  0  0  0  0  0  0  0  0  0  0  0
  1  5  1  0  0  0  0
  4  5  1  0  0  0  0
  4 13  1  0  0  0  0
  5  2  1  0  0  0  0
  6  7  1  0  0  0  0
  6  4  1  0  0  0  0
  7 12  1  0  0  0  0
  8  7  2  0  0  0  0
  8  9  1  0  0  0  0
  9 10  2  0  0  0  0
 10 11  1  0  0  0  0
 10 19  1  0  0  0  0
 11 20  1  0  0  0  0
 12 21  1  0  0  0  0
 12 11  2  0  0  0  0
 13  3  2  0  0  0  0
 14 23  1  0  0  0  0
 14 13  1  0  0  0  0
 14 24  1  0  0  0  0
 15  6  1  0  0  0  0
 16  6  1  0  0  0  0
 17  8  1  0  0  0  0
 18  9  1  0  0  0  0
 22 14  1  0  0  0  0
M  END
