1,2
 OpenBabel05122313063D

 11 10  0  0  1  0  0  0  0  0999 V2000
    1.4881    1.7634   -0.1253 S   0  0  0  0  0  1  0  0  0  0  0  0
    1.5323   -1.7291   -0.1733 S   0  0  0  0  0  1  0  0  0  0  0  0
    3.1239    1.2241   -0.3410 C   0  0  1  0  0  3  0  0  0  0  0  0
    3.1644   -1.1581    0.0166 C   0  0  0  0  0  0  0  0  0  0  0  0
    3.9762    2.2133   -0.7365 N   0  0  0  0  0  0  0  0  0  0  0  0
    3.7083    0.0443   -0.1451 N   0  0  0  0  0  0  0  0  0  0  0  0
    4.0560   -2.1462    0.3104 N   0  0  0  0  0  0  0  0  0  0  0  0
    4.9739    2.0050   -0.7590 H   0  0  0  0  0  0  0  0  0  0  0  0
    3.6426    3.1700   -0.8365 H   0  0  0  0  0  0  0  0  0  0  0  0
    5.0508   -1.9228    0.2912 H   0  0  0  0  0  0  0  0  0  0  0  0
    3.7353   -3.1004    0.4607 H   0  0  0  0  0  0  0  0  0  0  0  0
  2  4  1  0  0  0  0
  3  6  1  0  0  0  0
  3  1  1  1  0  0  0
  4  7  1  0  0  0  0
  5  3  1  0  0  0  0
  6  4  2  0  0  0  0
  7 11  1  0  0  0  0
  8  5  1  0  0  0  0
  9  5  1  0  0  0  0
 10  7  1  0  0  0  0
M  END
