1,2
 OpenBabel05122313063D

 14 14  0  0  0  0  0  0  0  0999 V2000
    0.8182    1.3825   -0.1799 S   0  0  0  0  0  1  0  0  0  0  0  0
    0.4786   -1.8171    0.0035 S   0  0  0  0  0  1  0  0  0  0  0  0
    3.5134   -2.0341   -0.1023 S   0  0  0  0  0  0  0  0  0  0  0  0
    3.8308    0.9442   -0.2443 S   0  0  0  0  0  0  0  0  0  0  0  0
    2.1907    0.3062   -0.1763 C   0  0  0  0  0  0  0  0  0  0  0  0
    2.0461   -1.0608   -0.0979 C   0  0  0  0  0  0  0  0  0  0  0  0
    4.6495   -0.6662   -0.2647 C   0  0  0  0  0  0  0  0  0  0  0  0
    5.8994   -0.8867   -0.3852 N   0  0  0  0  0  0  0  0  0  0  0  0
    6.8167    0.2317   -0.5525 C   0  0  0  0  0  0  0  0  0  0  0  0
    7.8145   -0.1701   -0.8313 H   0  0  0  0  0  0  0  0  0  0  0  0
    6.4890    0.8790   -1.4066 H   0  0  0  0  0  0  0  0  0  0  0  0
    6.9593    1.0774    0.6388 C   0  0  0  0  0  0  0  0  0  0  0  0
    7.0577    1.7713    1.6403 C   0  0  0  0  0  0  0  0  0  0  0  0
    7.1424    2.3835    2.5267 H   0  0  0  0  0  0  0  0  0  0  0  0
  1  5  1  0  0  0  0
  3  6  1  0  0  0  0
  4  5  1  0  0  0  0
  5  6  2  0  0  0  0
  6  2  1  0  0  0  0
  7  4  1  0  0  0  0
  7  3  1  0  0  0  0
  8  7  2  0  0  0  0
  9  8  1  0  0  0  0
  9 12  1  0  0  0  0
 10  9  1  0  0  0  0
 11  9  1  0  0  0  0
 12 13  3  0  0  0  0
 13 14  1  0  0  0  0
M  END
