1,2
 OpenBabel05122313063D

 32 33  0  0  0  0  0  0  0  0999 V2000
    1.5014   -1.5376    0.0389 S   0  0  0  0  0  1  0  0  0  0  0  0
    1.5014    1.5377   -0.0389 S   0  0  0  0  0  1  0  0  0  0  0  0
    7.7758    4.0447   -0.5849 C   0  0  0  0  0  0  0  0  0  0  0  0
    7.9272    4.3544   -1.6401 H   0  0  0  0  0  0  0  0  0  0  0  0
    8.6896    3.4915   -0.2815 H   0  0  0  0  0  0  0  0  0  0  0  0
    7.7139    4.9609    0.0333 H   0  0  0  0  0  0  0  0  0  0  0  0
    6.5447    3.1881   -0.4382 C   0  0  0  0  0  0  0  0  0  0  0  0
    6.4017    1.9974   -1.1844 C   0  0  0  0  0  0  0  0  0  0  0  0
    7.1945    1.7042   -1.8911 H   0  0  0  0  0  0  0  0  0  0  0  0
    5.2721    1.1868   -1.0521 C   0  0  0  0  0  0  0  0  0  0  0  0
    5.1805    0.2720   -1.6546 H   0  0  0  0  0  0  0  0  0  0  0  0
    4.2295    1.5397   -0.1610 C   0  0  0  0  0  0  0  0  0  0  0  0
    4.3615    2.7384    0.5751 C   0  0  0  0  0  0  0  0  0  0  0  0
    3.5591    3.0296    1.2694 H   0  0  0  0  0  0  0  0  0  0  0  0
    5.5007    3.5414    0.4394 C   0  0  0  0  0  0  0  0  0  0  0  0
    5.5842    4.4656    1.0329 H   0  0  0  0  0  0  0  0  0  0  0  0
    3.0166    0.7036   -0.0340 C   0  0  0  0  0  0  0  0  0  0  0  0
    3.0166   -0.7036    0.0339 C   0  0  0  0  0  0  0  0  0  0  0  0
    4.2295   -1.5397    0.1608 C   0  0  0  0  0  0  0  0  0  0  0  0
    5.2723   -1.1866    1.0517 C   0  0  0  0  0  0  0  0  0  0  0  0
    5.1808   -0.2717    1.6540 H   0  0  0  0  0  0  0  0  0  0  0  0
    6.4020   -1.9971    1.1838 C   0  0  0  0  0  0  0  0  0  0  0  0
    7.1950   -1.7037    1.8902 H   0  0  0  0  0  0  0  0  0  0  0  0
    4.3616   -2.7383   -0.5753 C   0  0  0  0  0  0  0  0  0  0  0  0
    3.5591   -3.0295   -1.2697 H   0  0  0  0  0  0  0  0  0  0  0  0
    5.5008   -3.5412   -0.4398 C   0  0  0  0  0  0  0  0  0  0  0  0
    5.5844   -4.4653   -1.0335 H   0  0  0  0  0  0  0  0  0  0  0  0
    6.5449   -3.1879    0.4377 C   0  0  0  0  0  0  0  0  0  0  0  0
    7.7752   -4.0454    0.5858 C   0  0  0  0  0  0  0  0  0  0  0  0
    7.7213   -4.9524   -0.0464 H   0  0  0  0  0  0  0  0  0  0  0  0
    7.9143   -4.3709    1.6379 H   0  0  0  0  0  0  0  0  0  0  0  0
    8.6920   -3.4869    0.3018 H   0  0  0  0  0  0  0  0  0  0  0  0
  2 17  1  0  0  0  0
  3  7  1  0  0  0  0
  3  5  1  0  0  0  0
  3  6  1  0  0  0  0
  4  3  1  0  0  0  0
  7 15  1  0  0  0  0
  8 10  1  0  0  0  0
  8  7  2  0  0  0  0
  9  8  1  0  0  0  0
 10 12  2  0  0  0  0
 11 10  1  0  0  0  0
 12 17  1  0  0  0  0
 12 13  1  0  0  0  0
 13 14  1  0  0  0  0
 15 13  2  0  0  0  0
 15 16  1  0  0  0  0
 17 18  2  0  0  0  0
 18  1  1  0  0  0  0
 18 19  1  0  0  0  0
 19 20  1  0  0  0  0
 20 22  2  0  0  0  0
 20 21  1  0  0  0  0
 22 23  1  0  0  0  0
 24 26  1  0  0  0  0
 24 19  2  0  0  0  0
 25 24  1  0  0  0  0
 26 28  2  0  0  0  0
 27 26  1  0  0  0  0
 28 29  1  0  0  0  0
 28 22  1  0  0  0  0
 29 31  1  0  0  0  0
 30 29  1  0  0  0  0
 32 29  1  0  0  0  0
M  END
