1,2
 OpenBabel05122313063D

 23 24  0  0  0  0  0  0  0  0999 V2000
   -1.7603   -0.2239    0.2188 S   0  0  0  0  0  0  0  0  0  0  0  0
   -0.1193    2.5137   -0.4368 S   0  0  0  0  0  1  0  0  0  0  0  0
   -1.8009    2.5416    0.1865 C   0  0  0  0  0  0  0  0  0  0  0  0
   -2.5098    1.3725    0.5206 C   0  0  0  0  0  0  0  0  0  0  0  0
   -3.8233    1.4597    1.0067 C   0  0  0  0  0  0  0  0  0  0  0  0
   -4.4825    0.3348    1.3202 F   0  0  0  0  0  0  0  0  0  0  0  0
   -4.4497    2.6966    1.1899 C   0  0  0  0  0  0  0  0  0  0  0  0
   -5.4757    2.7610    1.5749 H   0  0  0  0  0  0  0  0  0  0  0  0
   -3.7419    3.8562    0.8542 C   0  0  0  0  0  0  0  0  0  0  0  0
   -4.3109    5.0547    1.0043 F   0  0  0  0  0  0  0  0  0  0  0  0
   -2.4266    3.7890    0.3562 C   0  0  0  0  0  0  0  0  0  0  0  0
   -1.7855    4.9213    0.0505 F   0  0  0  0  0  0  0  0  0  0  0  0
   -1.6394   -0.8751    1.8820 C   0  0  0  0  0  0  0  0  0  0  0  0
   -1.9968   -2.2222    2.0773 C   0  0  0  0  0  0  0  0  0  0  0  0
   -2.4685   -2.9536    1.0624 F   0  0  0  0  0  0  0  0  0  0  0  0
   -1.8484   -2.8125    3.3439 C   0  0  0  0  0  0  0  0  0  0  0  0
   -2.1971   -4.0922    3.5089 F   0  0  0  0  0  0  0  0  0  0  0  0
   -1.3502   -2.0705    4.4193 C   0  0  0  0  0  0  0  0  0  0  0  0
   -1.2373   -2.5357    5.4077 H   0  0  0  0  0  0  0  0  0  0  0  0
   -0.9895   -0.7333    4.2240 C   0  0  0  0  0  0  0  0  0  0  0  0
   -0.4994   -0.0118    5.2370 F   0  0  0  0  0  0  0  0  0  0  0  0
   -1.1212   -0.1330    2.9608 C   0  0  0  0  0  0  0  0  0  0  0  0
   -0.7413    1.1358    2.7960 F   0  0  0  0  0  0  0  0  0  0  0  0
  1  4  1  0  0  0  0
  1 13  1  0  0  0  0
  2  3  1  0  0  0  0
  3 11  2  0  0  0  0
  3  4  1  0  0  0  0
  4  5  2  0  0  0  0
  5  7  1  0  0  0  0
  5  6  1  0  0  0  0
  7  8  1  0  0  0  0
  9 10  1  0  0  0  0
  9  7  2  0  0  0  0
 11  9  1  0  0  0  0
 12 11  1  0  0  0  0
 13 14  2  0  0  0  0
 13 22  1  0  0  0  0
 14 16  1  0  0  0  0
 15 14  1  0  0  0  0
 16 17  1  0  0  0  0
 16 18  2  0  0  0  0
 18 19  1  0  0  0  0
 20 18  1  0  0  0  0
 20 21  1  0  0  0  0
 22 20  2  0  0  0  0
 23 22  1  0  0  0  0
M  END
