1,24
 OpenBabel05122313063D

 24 24  0  0  0  0  0  0  0  0999 V2000
   -1.7435    0.8327    1.7079 S   0  0  0  0  0  1  0  0  0  0  0  0
   -2.7515    3.0371    0.4707 N   0  0  0  0  0  0  0  0  0  0  0  0
   -1.8368    2.0359    0.4811 C   0  0  0  0  0  3  0  0  0  0  0  0
   -2.9028    3.9475   -0.6582 C   0  0  0  0  0  0  0  0  0  0  0  0
   -2.0462    3.8078   -1.3453 H   0  0  0  0  0  0  0  0  0  0  0  0
   -2.8914    4.9917   -0.2758 H   0  0  0  0  0  0  0  0  0  0  0  0
   -4.2337    3.6723   -1.3653 C   0  0  0  0  0  0  0  0  0  0  0  0
   -4.3882    4.4247   -2.1674 H   0  0  0  0  0  0  0  0  0  0  0  0
   -4.1584    2.6671   -1.8588 H   0  0  0  0  0  0  0  0  0  0  0  0
   -5.1758    2.8325    0.6941 C   0  0  0  0  0  0  0  0  0  0  0  0
   -5.1788    1.7574    0.3721 H   0  0  0  0  0  0  0  0  0  0  0  0
   -6.0211    2.9691    1.4013 H   0  0  0  0  0  0  0  0  0  0  0  0
   -3.8545    3.0989    1.4224 C   0  0  0  0  0  0  0  0  0  0  0  0
   -3.8751    4.1136    1.8768 H   0  0  0  0  0  0  0  0  0  0  0  0
   -3.6788    2.3520    2.2203 H   0  0  0  0  0  0  0  0  0  0  0  0
   -5.3341    3.7629   -0.4153 N   0  0  0  0  0  0  0  0  0  0  0  0
   -6.6643    3.7861   -1.0144 C   0  0  0  0  0  0  0  0  0  0  0  0
   -7.3881    4.0279   -0.2049 H   0  0  0  0  0  0  0  0  0  0  0  0
   -6.6949    4.6454   -1.7203 H   0  0  0  0  0  0  0  0  0  0  0  0
   -7.1228    2.5125   -1.7430 C   0  0  0  0  0  0  0  0  0  0  0  0
   -8.1433    2.6500   -2.1542 H   0  0  0  0  0  0  0  0  0  0  0  0
   -7.1534    1.6364   -1.0639 H   0  0  0  0  0  0  0  0  0  0  0  0
   -6.4545    2.2582   -2.5907 H   0  0  0  0  0  0  0  0  0  0  0  0
   -0.6332    1.8206   -0.7308 S   0  0  0  0  0  1  0  0  0  0  0  0
  2  3  1  0  0  0  0
  2 13  1  0  0  0  0
  3  1  1  0  0  0  0
  4  6  1  0  0  0  0
  4  2  1  0  0  0  0
  5  4  1  0  0  0  0
  7  4  1  0  0  0  0
  7 16  1  0  0  0  0
  8  7  1  0  0  0  0
  9  7  1  0  0  0  0
 10 12  1  0  0  0  0
 10 13  1  0  0  0  0
 11 10  1  0  0  0  0
 13 14  1  0  0  0  0
 13 15  1  0  0  0  0
 16 10  1  0  0  0  0
 17 16  1  0  0  0  0
 17 18  1  0  0  0  0
 19 17  1  0  0  0  0
 20 22  1  0  0  0  0
 20 17  1  0  0  0  0
 21 20  1  0  0  0  0
 23 20  1  0  0  0  0
 24  3  1  0  0  0  0
M  END
