1,2
 OpenBabel05122313063D

 28 27  0  0  0  0  0  0  0  0999 V2000
   -1.6516    1.1324    0.9339 S   0  0  0  0  0  0  0  0  0  0  0  0
    1.4098    1.2423   -0.9001 S   0  0  0  0  0  0  0  0  0  0  0  0
    3.2157    3.1979   -0.0294 C   0  0  0  0  0  0  0  0  0  0  0  0
    3.5476    3.3047   -1.0824 H   0  0  0  0  0  0  0  0  0  0  0  0
    4.0782    3.4428    0.6239 H   0  0  0  0  0  0  0  0  0  0  0  0
    2.4330    3.9548    0.1732 H   0  0  0  0  0  0  0  0  0  0  0  0
    2.7608    1.7725    0.2702 C   0  0  0  0  0  0  0  0  0  0  0  0
    2.3303    1.6934    1.2898 H   0  0  0  0  0  0  0  0  0  0  0  0
   -3.9968    0.2310   -0.0768 C   0  0  0  0  0  0  0  0  0  0  0  0
   -3.4837   -0.7306   -0.2692 H   0  0  0  0  0  0  0  0  0  0  0  0
   -4.8381    0.3224   -0.7932 H   0  0  0  0  0  0  0  0  0  0  0  0
   -4.4192    0.2021    0.9486 H   0  0  0  0  0  0  0  0  0  0  0  0
   -3.0519    1.4206   -0.2516 C   0  0  0  0  0  0  0  0  0  0  0  0
   -2.6128    1.3786   -1.2703 H   0  0  0  0  0  0  0  0  0  0  0  0
    3.8893    0.7532    0.1236 C   0  0  0  0  0  0  0  0  0  0  0  0
    3.5463   -0.2745    0.3502 H   0  0  0  0  0  0  0  0  0  0  0  0
    4.7016    1.0113    0.8327 H   0  0  0  0  0  0  0  0  0  0  0  0
    4.3099    0.7628   -0.9026 H   0  0  0  0  0  0  0  0  0  0  0  0
   -3.7412    2.7594   -0.0050 C   0  0  0  0  0  0  0  0  0  0  0  0
   -4.1206    2.8300    1.0348 H   0  0  0  0  0  0  0  0  0  0  0  0
   -4.6067    2.8582   -0.6925 H   0  0  0  0  0  0  0  0  0  0  0  0
   -3.0784    3.6270   -0.1948 H   0  0  0  0  0  0  0  0  0  0  0  0
    0.1494    2.5589   -0.7045 C   0  0  0  0  0  0  0  0  0  0  0  0
    0.6512    3.5265   -0.9057 H   0  0  0  0  0  0  0  0  0  0  0  0
   -0.5532    2.3740   -1.5415 H   0  0  0  0  0  0  0  0  0  0  0  0
   -0.5642    2.5726    0.6413 C   0  0  0  0  0  0  0  0  0  0  0  0
   -1.1682    3.4962    0.7510 H   0  0  0  0  0  0  0  0  0  0  0  0
    0.1519    2.5505    1.4870 H   0  0  0  0  0  0  0  0  0  0  0  0
  2 23  1  0  0  0  0
  2  7  1  0  0  0  0
  3  6  1  0  0  0  0
  3  7  1  0  0  0  0
  3  5  1  0  0  0  0
  4  3  1  0  0  0  0
  7  8  1  0  0  0  0
  9 12  1  0  0  0  0
 10  9  1  0  0  0  0
 11  9  1  0  0  0  0
 13  9  1  0  0  0  0
 13 19  1  0  0  0  0
 13  1  1  0  0  0  0
 14 13  1  0  0  0  0
 15  7  1  0  0  0  0
 15 16  1  0  0  0  0
 15 17  1  0  0  0  0
 18 15  1  0  0  0  0
 19 20  1  0  0  0  0
 21 19  1  0  0  0  0
 22 19  1  0  0  0  0
 23 26  1  0  0  0  0
 24 23  1  0  0  0  0
 25 23  1  0  0  0  0
 26 27  1  0  0  0  0
 26  1  1  0  0  0  0
 26 28  1  0  0  0  0
M  END
