1,2
 OpenBabel05122313063D

 15 15  0  0  0  0  0  0  0  0999 V2000
   -1.5916   -1.9197   -0.6490 S   0  0  0  0  0  1  0  0  0  0  0  0
   -2.2718    0.8327   -0.0387 S   0  0  0  0  0  1  0  0  0  0  0  0
   -4.1078   -1.2782    0.0513 N   0  0  0  0  0  0  0  0  0  0  0  0
   -2.9238   -0.8469   -0.1450 C   0  0  0  0  0  0  0  0  0  0  0  0
   -5.1929   -0.5348    0.5105 C   0  0  0  0  0  0  0  0  0  0  0  0
   -6.4623   -0.7752   -0.0698 C   0  0  0  0  0  0  0  0  0  0  0  0
   -6.5278   -1.5169   -0.8793 H   0  0  0  0  0  0  0  0  0  0  0  0
   -7.5942   -0.0821    0.3747 C   0  0  0  0  0  0  0  0  0  0  0  0
   -8.5697   -0.2761   -0.0980 H   0  0  0  0  0  0  0  0  0  0  0  0
   -7.4942    0.8470    1.4246 C   0  0  0  0  0  0  0  0  0  0  0  0
   -8.3869    1.3839    1.7796 H   0  0  0  0  0  0  0  0  0  0  0  0
   -6.2437    1.0747    2.0229 C   0  0  0  0  0  0  0  0  0  0  0  0
   -6.1545    1.7920    2.8541 H   0  0  0  0  0  0  0  0  0  0  0  0
   -5.1015    0.3993    1.5734 C   0  0  0  0  0  0  0  0  0  0  0  0
   -4.1247    0.5776    2.0457 H   0  0  0  0  0  0  0  0  0  0  0  0
  1  4  1  0  0  0  0
  3  5  1  0  0  0  0
  4  2  1  0  0  0  0
  4  3  2  0  0  0  0
  5 14  1  0  0  0  0
  6  8  1  0  0  0  0
  6  5  2  0  0  0  0
  7  6  1  0  0  0  0
  8 10  2  0  0  0  0
  9  8  1  0  0  0  0
 10 11  1  0  0  0  0
 10 12  1  0  0  0  0
 12 13  1  0  0  0  0
 14 12  2  0  0  0  0
 14 15  1  0  0  0  0
M  END
