1,2
 OpenBabel05122313063D

 28 28  0  0  0  0  0  0  0  0999 V2000
   -1.6564    1.3993   -0.9530 S   0  0  0  0  0  1  0  0  0  0  0  0
   -2.0376   -1.1814    0.2649 S   0  0  0  0  0  1  0  0  0  0  0  0
   -4.1120    0.2280   -0.7846 N   0  0  0  0  0  0  0  0  0  0  0  0
   -2.7836    0.1630   -0.5193 C   0  0  0  0  0  3  0  0  0  0  0  0
   -4.7107    1.3742   -1.4853 C   0  0  0  0  0  0  0  0  0  0  0  0
   -3.8770    1.9411   -1.9474 H   0  0  0  0  0  0  0  0  0  0  0  0
   -5.3407    0.9789   -2.3094 H   0  0  0  0  0  0  0  0  0  0  0  0
   -5.5433    2.2700   -0.5640 C   0  0  0  0  0  0  0  0  0  0  0  0
   -6.0110    3.0563   -1.1965 H   0  0  0  0  0  0  0  0  0  0  0  0
   -6.3867    1.6776   -0.1437 H   0  0  0  0  0  0  0  0  0  0  0  0
   -4.7484    2.9184    0.5731 C   0  0  0  0  0  0  0  0  0  0  0  0
   -3.9124    3.5119    0.1445 H   0  0  0  0  0  0  0  0  0  0  0  0
   -4.2582    2.1241    1.1768 H   0  0  0  0  0  0  0  0  0  0  0  0
   -5.6122    3.7944    1.4799 C   0  0  0  0  0  0  0  0  0  0  0  0
   -5.0153    4.2487    2.2958 H   0  0  0  0  0  0  0  0  0  0  0  0
   -6.0870    4.6221    0.9123 H   0  0  0  0  0  0  0  0  0  0  0  0
   -6.4291    3.2070    1.9497 H   0  0  0  0  0  0  0  0  0  0  0  0
   -5.0016   -0.7990   -0.3202 C   0  0  0  0  0  0  0  0  0  0  0  0
   -5.2004   -0.9872    1.0599 C   0  0  0  0  0  0  0  0  0  0  0  0
   -4.6452   -0.3628    1.7740 H   0  0  0  0  0  0  0  0  0  0  0  0
   -6.0931   -1.9722    1.5039 C   0  0  0  0  0  0  0  0  0  0  0  0
   -6.2464   -2.1194    2.5835 H   0  0  0  0  0  0  0  0  0  0  0  0
   -6.7918   -2.7633    0.5777 C   0  0  0  0  0  0  0  0  0  0  0  0
   -7.4936   -3.5341    0.9299 H   0  0  0  0  0  0  0  0  0  0  0  0
   -6.5920   -2.5712   -0.7985 C   0  0  0  0  0  0  0  0  0  0  0  0
   -7.1308   -3.1944   -1.5280 H   0  0  0  0  0  0  0  0  0  0  0  0
   -5.6947   -1.5929   -1.2505 C   0  0  0  0  0  0  0  0  0  0  0  0
   -5.5168   -1.4490   -2.3265 H   0  0  0  0  0  0  0  0  0  0  0  0
  1  4  1  0  0  0  0
  3  4  1  0  0  0  0
  3 18  1  0  0  0  0
  4  2  1  0  0  0  0
  5  3  1  0  0  0  0
  5  8  1  0  0  0  0
  6  5  1  0  0  0  0
  7  5  1  0  0  0  0
  8 10  1  0  0  0  0
  8 11  1  0  0  0  0
  9  8  1  0  0  0  0
 11 13  1  0  0  0  0
 11 14  1  0  0  0  0
 12 11  1  0  0  0  0
 14 17  1  0  0  0  0
 14 15  1  0  0  0  0
 16 14  1  0  0  0  0
 18 19  1  0  0  0  0
 19 21  2  0  0  0  0
 19 20  1  0  0  0  0
 21 22  1  0  0  0  0
 23 24  1  0  0  0  0
 23 21  1  0  0  0  0
 25 23  2  0  0  0  0
 26 25  1  0  0  0  0
 27 25  1  0  0  0  0
 27 18  2  0  0  0  0
 28 27  1  0  0  0  0
M  END
