1,2
 OpenBabel05122313063D

 24 23  0  0  0  0  0  0  0  0999 V2000
    1.3362   -1.9020   -1.1766 S   0  0  2  0  0  3  0  0  0  0  0  0
   -0.9118   -2.0909    0.9416 S   0  0  2  0  0  3  0  0  0  0  0  0
    1.5535   -1.9181   -2.6690 O   0  0  0  0  0  1  0  0  0  0  0  0
   -2.3460   -2.5068    0.7001 O   0  0  0  0  0  1  0  0  0  0  0  0
    3.0336   -2.0579   -0.4264 C   0  0  0  0  0  0  0  0  0  0  0  0
    3.9498   -1.0105   -1.0389 C   0  0  0  0  0  0  0  0  0  0  0  0
    0.6437   -3.5879   -0.7429 C   0  0  0  0  0  0  0  0  0  0  0  0
    0.1595   -3.6118    0.6846 C   0  0  0  0  0  0  0  0  0  0  0  0
   -0.7216   -1.9014    2.7695 C   0  0  0  0  0  0  0  0  0  0  0  0
   -1.7825   -0.9405    3.2817 C   0  0  0  0  0  0  0  0  0  0  0  0
    3.3719   -3.0872   -0.6630 H   0  0  0  0  0  0  0  0  0  0  0  0
    2.9050   -1.9362    0.6678 H   0  0  0  0  0  0  0  0  0  0  0  0
    4.9862   -1.1447   -0.6693 H   0  0  0  0  0  0  0  0  0  0  0  0
    3.6241    0.0169   -0.7862 H   0  0  0  0  0  0  0  0  0  0  0  0
    3.9470   -1.1081   -2.1420 H   0  0  0  0  0  0  0  0  0  0  0  0
    1.4290   -4.3334   -0.9740 H   0  0  0  0  0  0  0  0  0  0  0  0
   -0.1856   -3.6921   -1.4710 H   0  0  0  0  0  0  0  0  0  0  0  0
    0.9868   -3.5804    1.4227 H   0  0  0  0  0  0  0  0  0  0  0  0
   -0.5190   -4.4590    0.9077 H   0  0  0  0  0  0  0  0  0  0  0  0
    0.3119   -1.5274    2.9182 H   0  0  0  0  0  0  0  0  0  0  0  0
   -0.8303   -2.9228    3.1901 H   0  0  0  0  0  0  0  0  0  0  0  0
   -1.6526    0.0583    2.8201 H   0  0  0  0  0  0  0  0  0  0  0  0
   -1.7118   -0.8471    4.3839 H   0  0  0  0  0  0  0  0  0  0  0  0
   -2.7913   -1.3157    3.0203 H   0  0  0  0  0  0  0  0  0  0  0  0
  1  3  1  6  0  0  0
  1  7  1  0  0  0  0
  1  5  1  0  0  0  0
  2  4  1  1  0  0  0
  2  9  1  0  0  0  0
  5 12  1  0  0  0  0
  6 14  1  0  0  0  0
  6 13  1  0  0  0  0
  6  5  1  0  0  0  0
  7  8  1  0  0  0  0
  8 19  1  0  0  0  0
  8  2  1  0  0  0  0
  8 18  1  0  0  0  0
  9 20  1  0  0  0  0
  9 21  1  0  0  0  0
  9 10  1  0  0  0  0
 10 23  1  0  0  0  0
 11  5  1  0  0  0  0
 15  6  1  0  0  0  0
 16  7  1  0  0  0  0
 17  7  1  0  0  0  0
 22 10  1  0  0  0  0
 24 10  1  0  0  0  0
M  END
