1,2
 OpenBabel05122313063D

 32 34  0  0  1  0  0  0  0  0999 V2000
    0.7148   -1.4795    0.0001 S   0  0  0  0  0  1  0  0  0  0  0  0
    0.9285    1.3738    0.0002 S   0  0  0  0  0  1  0  0  0  0  0  0
    4.3434   -5.1735   -0.0003 O   0  0  0  0  0  0  0  0  0  0  0  0
    4.9212    4.4468    0.0002 O   0  0  0  0  0  0  0  0  0  0  0  0
    3.6377   -2.8310   -0.0001 C   0  0  0  0  0  0  0  0  0  0  0  0
    2.5741   -3.0941   -0.0001 H   0  0  0  0  0  0  0  0  0  0  0  0
    4.6264   -3.8348   -0.0002 C   0  0  0  0  0  0  0  0  0  0  0  0
    5.9997   -3.4951   -0.0002 C   0  0  0  0  0  0  0  0  0  0  0  0
    6.7358   -4.3118   -0.0003 H   0  0  0  0  0  0  0  0  0  0  0  0
    6.3942   -2.1527   -0.0001 C   0  0  0  0  0  0  0  0  0  0  0  0
    7.4652   -1.8978   -0.0002 H   0  0  0  0  0  0  0  0  0  0  0  0
    5.4210   -1.1403   -0.0001 C   0  0  0  0  0  0  0  0  0  0  0  0
    5.5385    0.3165   -0.0000 C   0  0  1  0  0  3  0  0  0  0  0  0
    6.6556    1.1570    0.0000 C   0  0  0  0  0  0  0  0  0  0  0  0
    7.6724    0.7345   -0.0000 H   0  0  0  0  0  0  0  0  0  0  0  0
    6.4872    2.5542    0.0001 C   0  0  0  0  0  0  0  0  0  0  0  0
    7.3730    3.2029    0.0001 H   0  0  0  0  0  0  0  0  0  0  0  0
    5.1867    3.1037    0.0001 C   0  0  0  0  0  0  0  0  0  0  0  0
    4.0497    2.2651    0.0001 C   0  0  0  0  0  0  0  0  0  0  0  0
    3.0613    2.7426    0.0001 H   0  0  0  0  0  0  0  0  0  0  0  0
    4.2175    0.8753    0.0000 C   0  0  0  0  0  0  0  0  0  0  0  0
    3.2412   -0.2348    0.0000 C   0  0  0  0  0  0  0  0  0  0  0  0
    4.0343   -1.4807   -0.0001 C   0  0  0  0  0  0  0  0  0  0  0  0
    1.8669   -0.1301    0.0001 C   0  0  0  0  0  3  0  0  0  0  0  0
    2.9867   -5.5625   -0.0002 C   0  0  0  0  0  0  0  0  0  0  0  0
    2.4451   -5.1951    0.9018 H   0  0  0  0  0  0  0  0  0  0  0  0
    2.9758   -6.6689   -0.0003 H   0  0  0  0  0  0  0  0  0  0  0  0
    2.4451   -5.1950   -0.9022 H   0  0  0  0  0  0  0  0  0  0  0  0
    6.0110    5.3420    0.0002 C   0  0  0  0  0  0  0  0  0  0  0  0
    6.6530    5.2225    0.9033 H   0  0  0  0  0  0  0  0  0  0  0  0
    5.5824    6.3622    0.0002 H   0  0  0  0  0  0  0  0  0  0  0  0
    6.6529    5.2225   -0.9029 H   0  0  0  0  0  0  0  0  0  0  0  0
  1 24  1  0  0  0  0
  3 25  1  0  0  0  0
  3  7  1  0  0  0  0
  4 29  1  0  0  0  0
  5  6  1  0  0  0  0
  5 23  1  0  0  0  0
  7  5  2  0  0  0  0
  8  7  1  0  0  0  0
  8 10  2  0  0  0  0
  9  8  1  0  0  0  0
 10 12  1  0  0  0  0
 11 10  1  0  0  0  0
 12 23  2  0  0  0  0
 13 12  1  6  0  0  0
 13 14  1  0  0  0  0
 13 21  1  0  0  0  0
 14 16  2  0  0  0  0
 15 14  1  0  0  0  0
 16 17  1  0  0  0  0
 16 18  1  0  0  0  0
 18  4  1  0  0  0  0
 19 18  2  0  0  0  0
 19 20  1  0  0  0  0
 21 19  1  0  0  0  0
 22 21  2  0  0  0  0
 22 24  1  0  0  0  0
 23 22  1  0  0  0  0
 24  2  1  0  0  0  0
 25 26  1  0  0  0  0
 27 25  1  0  0  0  0
 28 25  1  0  0  0  0
 29 31  1  0  0  0  0
 29 30  1  0  0  0  0
 32 29  1  0  0  0  0
M  END
