1,6
 OpenBabel05122313063D

 28 28  0  0  0  0  0  0  0  0999 V2000
   -0.2282    2.1924    0.2294 S   0  0  0  0  0  1  0  0  0  0  0  0
    1.2518    2.7684   -0.6865 C   0  0  0  0  0  0  0  0  0  0  0  0
    1.3554    3.8614   -0.5130 H   0  0  0  0  0  0  0  0  0  0  0  0
    1.1191    2.6199   -1.7797 H   0  0  0  0  0  0  0  0  0  0  0  0
    2.5328    2.0641   -0.2186 C   0  0  0  0  0  0  0  0  0  0  0  0
    2.0857    0.2408   -0.5190 S   0  0  0  0  0  0  0  0  0  0  0  0
    3.0844   -0.7060    0.7128 C   0  0  0  0  0  0  0  0  0  0  0  0
    2.6010   -1.7061    0.6521 H   0  0  0  0  0  0  0  0  0  0  0  0
    2.8825   -0.3027    1.7223 H   0  0  0  0  0  0  0  0  0  0  0  0
    4.5513   -0.7360    0.3837 C   0  0  0  0  0  0  0  0  0  0  0  0
    5.5109   -0.3169    1.3266 C   0  0  0  0  0  0  0  0  0  0  0  0
    5.1787    0.0333    2.3169 H   0  0  0  0  0  0  0  0  0  0  0  0
    6.8809   -0.3494    1.0211 C   0  0  0  0  0  0  0  0  0  0  0  0
    7.6157   -0.0185    1.7707 H   0  0  0  0  0  0  0  0  0  0  0  0
    7.3103   -0.7993   -0.2362 C   0  0  0  0  0  0  0  0  0  0  0  0
    8.3833   -0.8210   -0.4797 H   0  0  0  0  0  0  0  0  0  0  0  0
    6.3619   -1.2240   -1.1828 C   0  0  0  0  0  0  0  0  0  0  0  0
    6.6915   -1.5828   -2.1699 H   0  0  0  0  0  0  0  0  0  0  0  0
    4.9958   -1.1932   -0.8756 C   0  0  0  0  0  0  0  0  0  0  0  0
    4.2523   -1.5131   -1.6222 H   0  0  0  0  0  0  0  0  0  0  0  0
    2.8221    2.3388    1.2537 C   0  0  0  0  0  0  0  0  0  0  0  0
    1.9630    2.0358    1.8833 H   0  0  0  0  0  0  0  0  0  0  0  0
    3.7484    1.8386    1.5930 H   0  0  0  0  0  0  0  0  0  0  0  0
    2.9686    3.4317    1.3851 H   0  0  0  0  0  0  0  0  0  0  0  0
    3.7316    2.4017   -1.1111 C   0  0  0  0  0  0  0  0  0  0  0  0
    3.9688    3.4824   -1.0177 H   0  0  0  0  0  0  0  0  0  0  0  0
    4.6316    1.8280   -0.8149 H   0  0  0  0  0  0  0  0  0  0  0  0
    3.5154    2.1840   -2.1757 H   0  0  0  0  0  0  0  0  0  0  0  0
  2  3  1  0  0  0  0
  2  5  1  0  0  0  0
  2  1  1  0  0  0  0
  4  2  1  0  0  0  0
  5 21  1  0  0  0  0
  6  5  1  0  0  0  0
  6  7  1  0  0  0  0
  7  9  1  0  0  0  0
  8  7  1  0  0  0  0
 10  7  1  0  0  0  0
 10 11  1  0  0  0  0
 11 12  1  0  0  0  0
 13 11  2  0  0  0  0
 13 14  1  0  0  0  0
 15 13  1  0  0  0  0
 16 15  1  0  0  0  0
 17 19  1  0  0  0  0
 17 15  2  0  0  0  0
 18 17  1  0  0  0  0
 19 10  2  0  0  0  0
 20 19  1  0  0  0  0
 21 24  1  0  0  0  0
 21 23  1  0  0  0  0
 21 22  1  0  0  0  0
 25 26  1  0  0  0  0
 25 27  1  0  0  0  0
 25  5  1  0  0  0  0
 28 25  1  0  0  0  0
M  END
