1,2
 OpenBabel05122313063D

 26 28  0  0  1  0  0  0  0  0999 V2000
    0.1761    1.7876    0.0002 S   0  0  0  0  0  0  0  0  0  0  0  0
   -0.1148   -1.6402    0.0000 S   0  0  0  0  0  0  0  0  0  0  0  0
   -1.9570    0.2454   -0.8012 C   0  0  2  0  0  0  0  0  0  0  0  0
   -1.1086    1.4491   -1.2683 C   0  0  0  0  0  0  0  0  0  0  0  0
   -1.3281   -1.0908   -1.2627 C   0  0  0  0  0  0  0  0  0  0  0  0
   -3.3919    0.3432   -1.3895 C   0  0  0  0  0  0  0  0  0  0  0  0
   -4.3571   -0.5666   -0.6740 C   0  0  0  0  0  0  0  0  0  0  0  0
   -0.6097    1.2936   -2.2433 H   0  0  0  0  0  0  0  0  0  0  0  0
   -1.7268    2.3688   -1.3346 H   0  0  0  0  0  0  0  0  0  0  0  0
   -2.0991   -1.8872   -1.3107 H   0  0  0  0  0  0  0  0  0  0  0  0
   -0.8204   -1.0261   -2.2433 H   0  0  0  0  0  0  0  0  0  0  0  0
   -3.3613    0.1426   -2.4795 H   0  0  0  0  0  0  0  0  0  0  0  0
   -3.7406    1.3965   -1.2819 H   0  0  0  0  0  0  0  0  0  0  0  0
   -5.0546   -1.1938   -1.2505 H   0  0  0  0  0  0  0  0  0  0  0  0
   -1.1088    1.4490    1.2685 C   0  0  0  0  0  0  0  0  0  0  0  0
   -1.3283   -1.0909    1.2626 C   0  0  0  0  0  0  0  0  0  0  0  0
   -1.9571    0.2453    0.8012 C   0  0  2  0  0  0  0  0  0  0  0  0
   -4.3572   -0.5667    0.6737 C   0  0  0  0  0  0  0  0  0  0  0  0
   -0.6100    1.2934    2.2436 H   0  0  0  0  0  0  0  0  0  0  0  0
   -1.7270    2.3686    1.3348 H   0  0  0  0  0  0  0  0  0  0  0  0
   -2.0993   -1.8873    1.3106 H   0  0  0  0  0  0  0  0  0  0  0  0
   -0.8207   -1.0263    2.2433 H   0  0  0  0  0  0  0  0  0  0  0  0
   -3.3921    0.3431    1.3894 C   0  0  0  0  0  0  0  0  0  0  0  0
   -5.0548   -1.1939    1.2501 H   0  0  0  0  0  0  0  0  0  0  0  0
   -3.3616    0.1424    2.4794 H   0  0  0  0  0  0  0  0  0  0  0  0
   -3.7407    1.3964    1.2818 H   0  0  0  0  0  0  0  0  0  0  0  0
  1 15  1  0  0  0  0
  2 16  1  0  0  0  0
  3  6  1  6  0  0  0
  3 17  1  0  0  0  0
  4  3  1  0  0  0  0
  4  1  1  0  0  0  0
  5  3  1  0  0  0  0
  5  2  1  0  0  0  0
  6 13  1  0  0  0  0
  6  7  1  0  0  0  0
  7 18  2  0  0  0  0
  8  4  1  0  0  0  0
  9  4  1  0  0  0  0
 10  5  1  0  0  0  0
 11  5  1  0  0  0  0
 12  6  1  0  0  0  0
 14  7  1  0  0  0  0
 15 20  1  0  0  0  0
 15 19  1  0  0  0  0
 16 21  1  0  0  0  0
 16 22  1  0  0  0  0
 17 16  1  1  0  0  0
 17 15  1  0  0  0  0
 17 23  1  0  0  0  0
 18 24  1  0  0  0  0
 18 23  1  0  0  0  0
 23 25  1  0  0  0  0
 26 23  1  0  0  0  0
M  END
