1,2
 OpenBabel05122313063D

 25 27  0  0  1  0  0  0  0  0999 V2000
   -0.0511    1.7620   -0.0006 S   0  0  0  0  0  0  0  0  0  0  0  0
   -0.1919   -1.6851   -0.0002 S   0  0  0  0  0  0  0  0  0  0  0  0
   -1.3144    1.3646    1.2767 C   0  0  0  0  0  0  0  0  0  0  0  0
   -2.0993    0.1244    0.8040 C   0  0  1  0  0  0  0  0  0  0  0  0
   -1.4230   -1.1850    1.2692 C   0  0  0  0  0  0  0  0  0  0  0  0
   -4.3242   -0.4808    0.0007 C   0  0  0  0  0  0  0  0  0  0  0  0
   -3.5992    0.1450    1.2000 C   0  0  0  0  0  0  0  0  0  0  0  0
   -0.7974    1.2341    2.2460 H   0  0  0  0  0  0  0  0  0  0  0  0
   -1.9745    2.2538    1.3483 H   0  0  0  0  0  0  0  0  0  0  0  0
   -2.1562   -2.0158    1.3324 H   0  0  0  0  0  0  0  0  0  0  0  0
   -0.9092   -1.0992    2.2452 H   0  0  0  0  0  0  0  0  0  0  0  0
   -5.4163   -0.2930    0.0010 H   0  0  0  0  0  0  0  0  0  0  0  0
   -4.1920   -1.5849    0.0008 H   0  0  0  0  0  0  0  0  0  0  0  0
   -3.7925   -0.3729    2.1610 H   0  0  0  0  0  0  0  0  0  0  0  0
   -3.9343    1.1962    1.3265 H   0  0  0  0  0  0  0  0  0  0  0  0
   -1.3150    1.3643   -1.2772 C   0  0  0  0  0  0  0  0  0  0  0  0
   -1.4236   -1.1852   -1.2691 C   0  0  0  0  0  0  0  0  0  0  0  0
   -2.0997    0.1243   -0.8038 C   0  0  1  0  0  0  0  0  0  0  0  0
   -3.5998    0.1448   -1.1991 C   0  0  0  0  0  0  0  0  0  0  0  0
   -0.7985    1.2335   -2.2468 H   0  0  0  0  0  0  0  0  0  0  0  0
   -1.9751    2.2534   -1.3487 H   0  0  0  0  0  0  0  0  0  0  0  0
   -2.1569   -2.0161   -1.3318 H   0  0  0  0  0  0  0  0  0  0  0  0
   -0.9104   -1.0997   -2.2454 H   0  0  0  0  0  0  0  0  0  0  0  0
   -3.7936   -0.3734   -2.1599 H   0  0  0  0  0  0  0  0  0  0  0  0
   -3.9350    1.1960   -1.3257 H   0  0  0  0  0  0  0  0  0  0  0  0
  1  3  1  0  0  0  0
  2  5  1  0  0  0  0
  3  9  1  0  0  0  0
  3  8  1  0  0  0  0
  4  7  1  1  0  0  0
  4  5  1  0  0  0  0
  4  3  1  0  0  0  0
  5 10  1  0  0  0  0
  5 11  1  0  0  0  0
  6 13  1  0  0  0  0
  6 12  1  0  0  0  0
  6  7  1  0  0  0  0
  7 15  1  0  0  0  0
  7 14  1  0  0  0  0
 16  1  1  0  0  0  0
 17 18  1  0  0  0  0
 17  2  1  0  0  0  0
 18 16  1  6  0  0  0
 18  4  1  0  0  0  0
 19 18  1  0  0  0  0
 19  6  1  0  0  0  0
 20 16  1  0  0  0  0
 21 16  1  0  0  0  0
 22 17  1  0  0  0  0
 23 17  1  0  0  0  0
 24 19  1  0  0  0  0
 25 19  1  0  0  0  0
M  END
