1,2
 OpenBabel05122313063D

 50 52  0  0  0  0  0  0  0  0999 V2000
   -1.8354    2.4540   -0.7442 S   0  0  0  0  0  0  0  0  0  0  0  0
    2.0305   -0.2541   -1.9270 S   0  0  0  0  0  0  0  0  0  0  0  0
   -1.5411   -0.0769    1.7705 O   0  0  0  0  0  0  0  0  0  0  0  0
    1.2677   -0.8204    1.4951 O   0  0  0  0  0  0  0  0  0  0  0  0
    1.3863    2.4237   -0.0992 N   0  0  0  0  0  0  0  0  0  0  0  0
    1.2847    2.6061    0.9068 H   0  0  0  0  0  0  0  0  0  0  0  0
    0.4905   -0.9199    2.6975 C   0  0  0  0  0  0  0  0  0  0  0  0
    0.5268    0.0355    3.2668 H   0  0  0  0  0  0  0  0  0  0  0  0
    0.9062   -1.7287    3.3357 H   0  0  0  0  0  0  0  0  0  0  0  0
   -0.9399   -1.2467    2.3450 C   0  0  0  0  0  0  0  0  0  0  0  0
   -0.9708   -2.0911    1.6253 H   0  0  0  0  0  0  0  0  0  0  0  0
   -1.4823   -1.5256    3.2743 H   0  0  0  0  0  0  0  0  0  0  0  0
   -2.8843   -0.1268    1.4647 C   0  0  0  0  0  0  0  0  0  0  0  0
   -3.6618   -1.2924    1.5507 C   0  0  0  0  0  0  0  0  0  0  0  0
   -3.2159   -2.2478    1.8532 H   0  0  0  0  0  0  0  0  0  0  0  0
   -5.0202   -1.2437    1.2060 C   0  0  0  0  0  0  0  0  0  0  0  0
   -5.6194   -2.1641    1.2670 H   0  0  0  0  0  0  0  0  0  0  0  0
   -5.6121   -0.0464    0.7765 C   0  0  0  0  0  0  0  0  0  0  0  0
   -6.6772   -0.0170    0.5072 H   0  0  0  0  0  0  0  0  0  0  0  0
   -4.8315    1.1124    0.6927 C   0  0  0  0  0  0  0  0  0  0  0  0
   -5.2833    2.0600    0.3602 H   0  0  0  0  0  0  0  0  0  0  0  0
   -3.4665    1.0942    1.0386 C   0  0  0  0  0  0  0  0  0  0  0  0
   -2.6305    2.3276    0.9490 C   0  0  0  0  0  0  0  0  0  0  0  0
   -1.8124    2.3312    1.6943 H   0  0  0  0  0  0  0  0  0  0  0  0
   -3.2394    3.2471    1.0458 H   0  0  0  0  0  0  0  0  0  0  0  0
   -0.6352    3.8328   -0.4821 C   0  0  0  0  0  0  0  0  0  0  0  0
   -1.0017    4.6915   -1.0774 H   0  0  0  0  0  0  0  0  0  0  0  0
   -0.6989    4.1187    0.5888 H   0  0  0  0  0  0  0  0  0  0  0  0
    0.8070    3.5198   -0.8785 C   0  0  0  0  0  0  0  0  0  0  0  0
    0.8583    3.2538   -1.9557 H   0  0  0  0  0  0  0  0  0  0  0  0
    1.3971    4.4592   -0.7583 H   0  0  0  0  0  0  0  0  0  0  0  0
    2.7850    2.0988   -0.3939 C   0  0  0  0  0  0  0  0  0  0  0  0
    3.1923    1.5554    0.4769 H   0  0  0  0  0  0  0  0  0  0  0  0
    3.3901    3.0287   -0.5086 H   0  0  0  0  0  0  0  0  0  0  0  0
    3.0152    1.2697   -1.6711 C   0  0  0  0  0  0  0  0  0  0  0  0
    4.0862    0.9888   -1.7197 H   0  0  0  0  0  0  0  0  0  0  0  0
    2.7999    1.8576   -2.5871 H   0  0  0  0  0  0  0  0  0  0  0  0
    2.7898   -1.5196   -0.7714 C   0  0  0  0  0  0  0  0  0  0  0  0
    1.9468   -2.2110   -0.5750 H   0  0  0  0  0  0  0  0  0  0  0  0
    3.5374   -2.0397   -1.3996 H   0  0  0  0  0  0  0  0  0  0  0  0
    3.4101   -0.9780    0.4745 C   0  0  0  0  0  0  0  0  0  0  0  0
    4.8026   -0.7775    0.5431 C   0  0  0  0  0  0  0  0  0  0  0  0
    5.4160   -1.0450   -0.3318 H   0  0  0  0  0  0  0  0  0  0  0  0
    5.4185   -0.2752    1.6986 C   0  0  0  0  0  0  0  0  0  0  0  0
    6.5086   -0.1376    1.7300 H   0  0  0  0  0  0  0  0  0  0  0  0
    4.6304    0.0255    2.8176 C   0  0  0  0  0  0  0  0  0  0  0  0
    5.0971    0.4068    3.7380 H   0  0  0  0  0  0  0  0  0  0  0  0
    3.2394   -0.1687    2.7841 C   0  0  0  0  0  0  0  0  0  0  0  0
    2.6437    0.0637    3.6763 H   0  0  0  0  0  0  0  0  0  0  0  0
    2.6257   -0.6571    1.6158 C   0  0  0  0  0  0  0  0  0  0  0  0
  1 26  1  0  0  0  0
  1 23  1  0  0  0  0
  2 35  1  0  0  0  0
  2 38  1  0  0  0  0
  3 10  1  0  0  0  0
  4 50  1  0  0  0  0
  4  7  1  0  0  0  0
  5  6  1  0  0  0  0
  7  8  1  0  0  0  0
  7  9  1  0  0  0  0
 10  7  1  0  0  0  0
 10 12  1  0  0  0  0
 11 10  1  0  0  0  0
 13 14  1  0  0  0  0
 13  3  1  0  0  0  0
 14 15  1  0  0  0  0
 16 17  1  0  0  0  0
 16 14  2  0  0  0  0
 18 16  1  0  0  0  0
 19 18  1  0  0  0  0
 20 18  2  0  0  0  0
 20 22  1  0  0  0  0
 21 20  1  0  0  0  0
 22 13  2  0  0  0  0
 23 22  1  0  0  0  0
 23 25  1  0  0  0  0
 23 24  1  0  0  0  0
 26 28  1  0  0  0  0
 27 26  1  0  0  0  0
 29 31  1  0  0  0  0
 29 26  1  0  0  0  0
 29  5  1  0  0  0  0
 30 29  1  0  0  0  0
 32  5  1  0  0  0  0
 32 33  1  0  0  0  0
 34 32  1  0  0  0  0
 35 32  1  0  0  0  0
 36 35  1  0  0  0  0
 37 35  1  0  0  0  0
 38 39  1  0  0  0  0
 38 41  1  0  0  0  0
 40 38  1  0  0  0  0
 41 42  2  0  0  0  0
 41 50  1  0  0  0  0
 42 44  1  0  0  0  0
 43 42  1  0  0  0  0
 44 45  1  0  0  0  0
 44 46  2  0  0  0  0
 46 47  1  0  0  0  0
 48 46  1  0  0  0  0
 48 49  1  0  0  0  0
 50 48  2  0  0  0  0
M  END
