1,2
 OpenBabel05122313063D

 32 35  0  0  1  0  0  0  0  0999 V2000
    1.1701   -0.5690    1.1578 S   0  0  0  0  0  0  0  0  0  0  0  0
   -1.1701   -0.5689   -1.1577 S   0  0  0  0  0  0  0  0  0  0  0  0
    0.7401   -2.1187    0.1702 C   0  0  2  0  0  0  0  0  0  0  0  0
    1.7029   -2.1406   -1.0276 C   0  0  0  0  0  0  0  0  0  0  0  0
    2.9796   -1.4589   -0.6079 C   0  0  0  0  0  0  0  0  0  0  0  0
    4.2382   -1.5654   -1.2165 C   0  0  0  0  0  0  0  0  0  0  0  0
    5.3022   -0.7718   -0.7550 C   0  0  0  0  0  0  0  0  0  0  0  0
    5.1136    0.1352    0.3023 C   0  0  0  0  0  0  0  0  0  0  0  0
    3.8641    0.2523    0.9308 C   0  0  0  0  0  0  0  0  0  0  0  0
    2.8240   -0.5613    0.4668 C   0  0  0  0  0  0  0  0  0  0  0  0
   -0.7402   -2.1186   -0.1700 C   0  0  1  0  0  0  0  0  0  0  0  0
   -1.7029   -2.1404    1.0277 C   0  0  0  0  0  0  0  0  0  0  0  0
   -2.9797   -1.4588    0.6079 C   0  0  0  0  0  0  0  0  0  0  0  0
   -4.2384   -1.5654    1.2164 C   0  0  0  0  0  0  0  0  0  0  0  0
   -5.3023   -0.7718    0.7547 C   0  0  0  0  0  0  0  0  0  0  0  0
   -5.1137    0.1352   -0.3026 C   0  0  0  0  0  0  0  0  0  0  0  0
   -3.8641    0.2523   -0.9310 C   0  0  0  0  0  0  0  0  0  0  0  0
   -2.8240   -0.5612   -0.4668 C   0  0  0  0  0  0  0  0  0  0  0  0
    0.9590   -2.9638    0.8581 H   0  0  0  0  0  0  0  0  0  0  0  0
    1.2548   -1.5711   -1.8751 H   0  0  0  0  0  0  0  0  0  0  0  0
    1.8644   -3.1783   -1.3837 H   0  0  0  0  0  0  0  0  0  0  0  0
    4.3858   -2.2593   -2.0583 H   0  0  0  0  0  0  0  0  0  0  0  0
    6.2898   -0.8565   -1.2323 H   0  0  0  0  0  0  0  0  0  0  0  0
    5.9505    0.7621    0.6442 H   0  0  0  0  0  0  0  0  0  0  0  0
    3.6842    0.9759    1.7374 H   0  0  0  0  0  0  0  0  0  0  0  0
   -0.9592   -2.9637   -0.8579 H   0  0  0  0  0  0  0  0  0  0  0  0
   -1.2550   -1.5706    1.8752 H   0  0  0  0  0  0  0  0  0  0  0  0
   -1.8644   -3.1780    1.3840 H   0  0  0  0  0  0  0  0  0  0  0  0
   -4.3860   -2.2592    2.0581 H   0  0  0  0  0  0  0  0  0  0  0  0
   -6.2900   -0.8565    1.2319 H   0  0  0  0  0  0  0  0  0  0  0  0
   -5.9505    0.7621   -0.6445 H   0  0  0  0  0  0  0  0  0  0  0  0
   -3.6842    0.9759   -1.7376 H   0  0  0  0  0  0  0  0  0  0  0  0
  2 18  1  0  0  0  0
  2 11  1  0  0  0  0
  3 19  1  1  0  0  0
  3  1  1  0  0  0  0
  4  5  1  0  0  0  0
  4  3  1  0  0  0  0
  5 10  1  0  0  0  0
  6  7  1  0  0  0  0
  6  5  2  0  0  0  0
  7  8  2  0  0  0  0
  8 24  1  0  0  0  0
  8  9  1  0  0  0  0
  9 25  1  0  0  0  0
 10  9  2  0  0  0  0
 10  1  1  0  0  0  0
 11 26  1  6  0  0  0
 11  3  1  0  0  0  0
 11 12  1  0  0  0  0
 12 28  1  0  0  0  0
 12 27  1  0  0  0  0
 13 12  1  0  0  0  0
 13 14  1  0  0  0  0
 14 29  1  0  0  0  0
 15 14  2  0  0  0  0
 15 30  1  0  0  0  0
 16 15  1  0  0  0  0
 17 18  1  0  0  0  0
 17 16  2  0  0  0  0
 18 13  2  0  0  0  0
 20  4  1  0  0  0  0
 21  4  1  0  0  0  0
 22  6  1  0  0  0  0
 23  7  1  0  0  0  0
 31 16  1  0  0  0  0
 32 17  1  0  0  0  0
M  END
