1,3
 OpenBabel05122313063D

 13 13  0  0  0  0  0  0  0  0999 V2000
    0.3427   -2.1313   -1.0758 S   0  0  0  0  0  1  0  0  0  0  0  0
    2.0315   -0.3977    1.2218 S   0  0  0  0  0  0  0  0  0  0  0  0
    0.4038   -1.1621    2.3226 S   0  0  0  0  0  1  0  0  0  0  0  0
    1.9819   -2.5327   -0.5971 C   0  0  0  0  0  0  0  0  0  0  0  0
    2.7191   -1.8205    0.3861 C   0  0  0  0  0  0  0  0  0  0  0  0
    4.0299   -2.1973    0.7346 C   0  0  0  0  0  0  0  0  0  0  0  0
    4.5637   -1.6156    1.5022 H   0  0  0  0  0  0  0  0  0  0  0  0
    4.6422   -3.2900    0.1086 C   0  0  0  0  0  0  0  0  0  0  0  0
    5.6719   -3.5740    0.3731 H   0  0  0  0  0  0  0  0  0  0  0  0
    3.9238   -4.0140   -0.8623 C   0  0  0  0  0  0  0  0  0  0  0  0
    4.3913   -4.8764   -1.3633 H   0  0  0  0  0  0  0  0  0  0  0  0
    2.6199   -3.6447   -1.2052 C   0  0  0  0  0  0  0  0  0  0  0  0
    2.0614   -4.2072   -1.9690 H   0  0  0  0  0  0  0  0  0  0  0  0
  1  4  1  0  0  0  0
  2  3  1  0  0  0  0
  4  5  1  0  0  0  0
  5  6  2  0  0  0  0
  5  2  1  0  0  0  0
  6  7  1  0  0  0  0
  8  9  1  0  0  0  0
  8  6  1  0  0  0  0
 10  8  2  0  0  0  0
 11 10  1  0  0  0  0
 12 10  1  0  0  0  0
 12  4  2  0  0  0  0
 13 12  1  0  0  0  0
M  END
