1,2
 OpenBabel05122313063D

 20 19  0  0  1  0  0  0  0  0999 V2000
    2.2874   -0.8148   -1.9759 S   0  0  0  0  0  1  0  0  0  0  0  0
    2.5595   -1.1684    1.1861 S   0  0  0  0  0  1  0  0  0  0  0  0
    4.8842    1.7628   -1.8536 O   0  0  0  0  0  0  0  0  0  0  0  0
    3.1193    1.9511   -0.4500 O   0  0  0  0  0  0  0  0  0  0  0  0
    5.6463   -1.2968    1.8927 O   0  0  0  0  0  0  0  0  0  0  0  0
    5.6069    0.7467    0.9151 O   0  0  0  0  0  0  0  0  0  0  0  0
    3.8860   -0.2673   -1.1838 C   0  0  2  0  0  0  0  0  0  0  0  0
    4.6782   -0.5488   -1.9048 H   0  0  0  0  0  0  0  0  0  0  0  0
    4.1138   -1.0127    0.1189 C   0  0  1  0  0  0  0  0  0  0  0  0
    4.3954   -2.0607   -0.1069 H   0  0  0  0  0  0  0  0  0  0  0  0
    3.8988    1.2519   -1.0744 C   0  0  0  0  0  0  0  0  0  0  0  0
    5.0425    3.1800   -1.7756 C   0  0  0  0  0  0  0  0  0  0  0  0
    5.8832    3.4338   -2.4462 H   0  0  0  0  0  0  0  0  0  0  0  0
    5.2733    3.4832   -0.7341 H   0  0  0  0  0  0  0  0  0  0  0  0
    4.1210    3.7061   -2.0998 H   0  0  0  0  0  0  0  0  0  0  0  0
    5.1915   -0.3988    0.9865 C   0  0  0  0  0  0  0  0  0  0  0  0
    6.6086   -0.7924    2.8230 C   0  0  0  0  0  0  0  0  0  0  0  0
    6.8817   -1.6426    3.4732 H   0  0  0  0  0  0  0  0  0  0  0  0
    6.1778    0.0315    3.4277 H   0  0  0  0  0  0  0  0  0  0  0  0
    7.5040   -0.4028    2.2971 H   0  0  0  0  0  0  0  0  0  0  0  0
  1  7  1  0  0  0  0
  3 12  1  0  0  0  0
  3 11  1  0  0  0  0
  5 17  1  0  0  0  0
  6 16  2  0  0  0  0
  7  8  1  6  0  0  0
  7 11  1  0  0  0  0
  7  9  1  0  0  0  0
  9 10  1  6  0  0  0
  9 16  1  0  0  0  0
  9  2  1  0  0  0  0
 11  4  2  0  0  0  0
 12 14  1  0  0  0  0
 13 12  1  0  0  0  0
 15 12  1  0  0  0  0
 16  5  1  0  0  0  0
 17 19  1  0  0  0  0
 17 18  1  0  0  0  0
 20 17  1  0  0  0  0
M  END
