1,2
 OpenBabel05122313063D

 42 44  0  0  0  0  0  0  0  0999 V2000
    0.3496    1.9283   -0.5667 S   0  0  0  0  0  0  0  0  0  0  0  0
   -1.5716    0.3784    2.2413 S   0  0  0  0  0  0  0  0  0  0  0  0
   -2.4839    0.0457   -1.8121 O   0  0  0  0  0  0  0  0  0  0  0  0
   -4.1737   -1.1822   -0.7360 O   0  0  0  0  0  0  0  0  0  0  0  0
   -2.9763    1.3286   -1.8719 C   0  0  0  0  0  0  0  0  0  0  0  0
   -4.3389    1.6477   -1.7115 C   0  0  0  0  0  0  0  0  0  0  0  0
   -5.0721    0.8614   -1.4904 H   0  0  0  0  0  0  0  0  0  0  0  0
   -4.7599    2.9842   -1.8054 C   0  0  0  0  0  0  0  0  0  0  0  0
   -5.8270    3.2192   -1.6771 H   0  0  0  0  0  0  0  0  0  0  0  0
   -3.8375    4.0069   -2.0645 C   0  0  0  0  0  0  0  0  0  0  0  0
   -4.1705    5.0506   -2.1554 H   0  0  0  0  0  0  0  0  0  0  0  0
   -2.4816    3.6822   -2.2094 C   0  0  0  0  0  0  0  0  0  0  0  0
   -1.7487    4.4765   -2.4226 H   0  0  0  0  0  0  0  0  0  0  0  0
   -2.0239    2.3548   -2.1012 C   0  0  0  0  0  0  0  0  0  0  0  0
   -0.5635    2.0521   -2.1910 C   0  0  0  0  0  0  0  0  0  0  0  0
   -0.0377    2.8390   -2.7659 H   0  0  0  0  0  0  0  0  0  0  0  0
   -0.3618    1.0723   -2.6629 H   0  0  0  0  0  0  0  0  0  0  0  0
   -0.3674    3.2950    0.4267 C   0  0  0  0  0  0  0  0  0  0  0  0
    0.4504    3.5390    1.1370 H   0  0  0  0  0  0  0  0  0  0  0  0
   -0.4599    4.1606   -0.2590 H   0  0  0  0  0  0  0  0  0  0  0  0
   -1.6887    3.0541    1.1642 C   0  0  0  0  0  0  0  0  0  0  0  0
   -2.4646    2.6716    0.4714 H   0  0  0  0  0  0  0  0  0  0  0  0
   -2.0503    4.0583    1.4774 H   0  0  0  0  0  0  0  0  0  0  0  0
   -1.6248    2.2018    2.4338 C   0  0  0  0  0  0  0  0  0  0  0  0
   -2.4930    2.4137    3.0907 H   0  0  0  0  0  0  0  0  0  0  0  0
   -0.7127    2.4264    3.0260 H   0  0  0  0  0  0  0  0  0  0  0  0
   -3.2954   -0.0369    1.7379 C   0  0  0  0  0  0  0  0  0  0  0  0
   -3.9623    0.2684    2.5714 H   0  0  0  0  0  0  0  0  0  0  0  0
   -3.5741    0.5230    0.8267 H   0  0  0  0  0  0  0  0  0  0  0  0
   -3.3444   -1.5232    1.4992 C   0  0  0  0  0  0  0  0  0  0  0  0
   -2.9779   -2.4327    2.5147 C   0  0  0  0  0  0  0  0  0  0  0  0
   -2.6887   -2.0370    3.5010 H   0  0  0  0  0  0  0  0  0  0  0  0
   -2.9710   -3.8152    2.2866 C   0  0  0  0  0  0  0  0  0  0  0  0
   -2.6920   -4.5047    3.0970 H   0  0  0  0  0  0  0  0  0  0  0  0
   -3.3402   -4.3159    1.0262 C   0  0  0  0  0  0  0  0  0  0  0  0
   -3.3528   -5.4004    0.8411 H   0  0  0  0  0  0  0  0  0  0  0  0
   -3.7250   -3.4328    0.0097 C   0  0  0  0  0  0  0  0  0  0  0  0
   -4.0541   -3.8094   -0.9701 H   0  0  0  0  0  0  0  0  0  0  0  0
   -3.7237   -2.0468    0.2437 C   0  0  0  0  0  0  0  0  0  0  0  0
   -3.4090   -1.0257   -1.9080 C   0  0  0  0  0  0  0  0  0  0  0  0
   -2.7906   -1.9243   -2.1028 H   0  0  0  0  0  0  0  0  0  0  0  0
   -4.1221   -0.8312   -2.7359 H   0  0  0  0  0  0  0  0  0  0  0  0
  1 18  1  0  0  0  0
  2 24  1  0  0  0  0
  4 39  1  0  0  0  0
  5  3  1  0  0  0  0
  5  6  1  0  0  0  0
  6  7  1  0  0  0  0
  8  6  2  0  0  0  0
  8  9  1  0  0  0  0
 10  8  1  0  0  0  0
 11 10  1  0  0  0  0
 12 14  1  0  0  0  0
 12 10  2  0  0  0  0
 13 12  1  0  0  0  0
 14  5  2  0  0  0  0
 15 14  1  0  0  0  0
 15  1  1  0  0  0  0
 16 15  1  0  0  0  0
 17 15  1  0  0  0  0
 18 19  1  0  0  0  0
 18 21  1  0  0  0  0
 20 18  1  0  0  0  0
 21 23  1  0  0  0  0
 21 24  1  0  0  0  0
 22 21  1  0  0  0  0
 24 26  1  0  0  0  0
 24 25  1  0  0  0  0
 27  2  1  0  0  0  0
 27 28  1  0  0  0  0
 29 27  1  0  0  0  0
 30 27  1  0  0  0  0
 30 31  1  0  0  0  0
 31 32  1  0  0  0  0
 33 31  2  0  0  0  0
 33 34  1  0  0  0  0
 35 33  1  0  0  0  0
 36 35  1  0  0  0  0
 37 39  1  0  0  0  0
 37 35  2  0  0  0  0
 38 37  1  0  0  0  0
 39 30  2  0  0  0  0
 40  3  1  0  0  0  0
 40  4  1  0  0  0  0
 41 40  1  0  0  0  0
 42 40  1  0  0  0  0
M  END
