1,2
 OpenBabel05122313063D

 35 34  0  0  1  0  0  0  0  0999 V2000
   -1.3847   -1.6679   -0.2054 S   0  0  0  0  0  1  0  0  0  0  0  0
   -1.3587    1.4810   -0.8646 S   0  0  0  0  0  1  0  0  0  0  0  0
   -3.9771   -2.2182   -0.1737 N   0  0  0  0  0  0  0  0  0  0  0  0
   -3.5834    0.0324   -0.0335 N   0  0  0  0  0  0  0  0  0  0  0  0
   -3.7695    2.3104   -0.1199 N   0  0  0  0  0  0  0  0  0  0  0  0
   -3.0636   -1.1922   -0.1361 C   0  0  1  0  0  3  0  0  0  0  0  0
   -3.5807   -3.6244   -0.1532 C   0  0  0  0  0  0  0  0  0  0  0  0
   -2.6572   -3.7095    0.4556 H   0  0  0  0  0  0  0  0  0  0  0  0
   -4.3789   -4.1854    0.3780 H   0  0  0  0  0  0  0  0  0  0  0  0
   -3.3453   -4.2097   -1.5468 C   0  0  0  0  0  0  0  0  0  0  0  0
   -2.5182   -3.6704   -2.0489 H   0  0  0  0  0  0  0  0  0  0  0  0
   -3.0701   -5.2814   -1.4758 H   0  0  0  0  0  0  0  0  0  0  0  0
   -4.2533   -4.1309   -2.1791 H   0  0  0  0  0  0  0  0  0  0  0  0
   -5.4118   -1.9379   -0.2417 C   0  0  0  0  0  0  0  0  0  0  0  0
   -5.5547   -1.0080   -0.8240 H   0  0  0  0  0  0  0  0  0  0  0  0
   -5.8818   -2.7630   -0.8175 H   0  0  0  0  0  0  0  0  0  0  0  0
   -6.0650   -1.8033    1.1340 C   0  0  0  0  0  0  0  0  0  0  0  0
   -5.6220   -0.9503    1.6830 H   0  0  0  0  0  0  0  0  0  0  0  0
   -7.1555   -1.6272    1.0329 H   0  0  0  0  0  0  0  0  0  0  0  0
   -5.9237   -2.7198    1.7425 H   0  0  0  0  0  0  0  0  0  0  0  0
   -2.9819    1.1960   -0.2776 C   0  0  0  0  0  0  0  0  0  0  0  0
   -5.1842    2.1747    0.2300 C   0  0  0  0  0  0  0  0  0  0  0  0
   -5.7256    3.0293   -0.2279 H   0  0  0  0  0  0  0  0  0  0  0  0
   -5.5632    1.2461   -0.2367 H   0  0  0  0  0  0  0  0  0  0  0  0
   -5.4198    2.1327    1.7402 C   0  0  0  0  0  0  0  0  0  0  0  0
   -5.0528    3.0545    2.2362 H   0  0  0  0  0  0  0  0  0  0  0  0
   -6.5011    2.0322    1.9651 H   0  0  0  0  0  0  0  0  0  0  0  0
   -4.8880    1.2679    2.1828 H   0  0  0  0  0  0  0  0  0  0  0  0
   -3.2515    3.6709   -0.2474 C   0  0  0  0  0  0  0  0  0  0  0  0
   -3.8076    4.3066    0.4743 H   0  0  0  0  0  0  0  0  0  0  0  0
   -2.1869    3.6553    0.0636 H   0  0  0  0  0  0  0  0  0  0  0  0
   -3.3693    4.2354   -1.6639 C   0  0  0  0  0  0  0  0  0  0  0  0
   -4.4208    4.2358   -2.0178 H   0  0  0  0  0  0  0  0  0  0  0  0
   -2.9981    5.2797   -1.6961 H   0  0  0  0  0  0  0  0  0  0  0  0
   -2.7628    3.6308   -2.3669 H   0  0  0  0  0  0  0  0  0  0  0  0
  2 21  1  0  0  0  0
  3  7  1  0  0  0  0
  3  6  1  0  0  0  0
  5 22  1  0  0  0  0
  6  1  1  1  0  0  0
  6  4  1  0  0  0  0
  7  9  1  0  0  0  0
  7  8  1  0  0  0  0
 10 12  1  0  0  0  0
 10  7  1  0  0  0  0
 11 10  1  0  0  0  0
 13 10  1  0  0  0  0
 14  3  1  0  0  0  0
 14 17  1  0  0  0  0
 15 14  1  0  0  0  0
 16 14  1  0  0  0  0
 17 18  1  0  0  0  0
 17 20  1  0  0  0  0
 19 17  1  0  0  0  0
 21  5  1  0  0  0  0
 21  4  2  0  0  0  0
 22 25  1  0  0  0  0
 23 22  1  0  0  0  0
 24 22  1  0  0  0  0
 25 27  1  0  0  0  0
 25 28  1  0  0  0  0
 25 26  1  0  0  0  0
 29  5  1  0  0  0  0
 29 31  1  0  0  0  0
 29 30  1  0  0  0  0
 32 29  1  0  0  0  0
 33 32  1  0  0  0  0
 34 32  1  0  0  0  0
 35 32  1  0  0  0  0
M  END
