1,2
 OpenBabel05122313063D

 18 17  0  0  0  0  0  0  0  0999 V2000
    1.1821    1.7175   -0.4858 S   0  0  0  0  0  5  0  0  0  0  0  0
    1.2368   -1.6164   -0.3626 S   0  0  0  0  0  5  0  0  0  0  0  0
    1.9764    1.4251   -1.7294 O   0  0  0  0  0  0  0  0  0  0  0  0
    0.5305    3.0862   -0.4496 O   0  0  0  0  0  0  0  0  0  0  0  0
    1.0985   -2.5650    0.8136 O   0  0  0  0  0  0  0  0  0  0  0  0
    1.0694   -2.2018   -1.7362 O   0  0  0  0  0  0  0  0  0  0  0  0
    2.3900    1.7887    0.9468 C   0  0  0  0  0  0  0  0  0  0  0  0
    2.5626    0.4962    1.7344 C   0  0  0  0  0  0  0  0  0  0  0  0
    3.4198   -0.6059    1.0980 C   0  0  0  0  0  0  0  0  0  0  0  0
    2.9865   -1.0552   -0.2920 C   0  0  0  0  0  0  0  0  0  0  0  0
    1.9692    2.5932    1.5792 H   0  0  0  0  0  0  0  0  0  0  0  0
    3.3196    2.1534    0.4635 H   0  0  0  0  0  0  0  0  0  0  0  0
    3.0029    0.7601    2.7195 H   0  0  0  0  0  0  0  0  0  0  0  0
    1.5543    0.0802    1.9644 H   0  0  0  0  0  0  0  0  0  0  0  0
    3.4121   -1.4847    1.7744 H   0  0  0  0  0  0  0  0  0  0  0  0
    4.4758   -0.2641    1.0254 H   0  0  0  0  0  0  0  0  0  0  0  0
    3.0646   -0.2714   -1.0694 H   0  0  0  0  0  0  0  0  0  0  0  0
    3.5179   -1.9684   -0.6281 H   0  0  0  0  0  0  0  0  0  0  0  0
  1  4  2  0  0  0  0
  1  7  1  0  0  0  0
  2 10  1  0  0  0  0
  2  5  2  0  0  0  0
  3  1  2  0  0  0  0
  6  2  2  0  0  0  0
  7 11  1  0  0  0  0
  7  8  1  0  0  0  0
  8 14  1  0  0  0  0
  8 13  1  0  0  0  0
  9  8  1  0  0  0  0
  9 15  1  0  0  0  0
 10  9  1  0  0  0  0
 12  7  1  0  0  0  0
 16  9  1  0  0  0  0
 17 10  1  0  0  0  0
 18 10  1  0  0  0  0
M  END
