1,3
 OpenBabel05122313063D

 10  9  0  0  0  0  0  0  0  0999 V2000
   -1.2284    2.8931   -0.4038 S   0  0  0  0  0  1  0  0  0  0  0  0
    0.7886    5.0743    0.4455 S   0  0  0  0  0  0  0  0  0  0  0  0
    2.1324    2.2416   -0.2619 S   0  0  0  0  0  1  0  0  0  0  0  0
    1.7216    6.0655   -0.2380 O   0  0  0  0  0  0  0  0  0  0  0  0
   -0.1234    4.2207   -0.9290 C   0  0  0  0  0  0  0  0  0  0  0  0
   -0.7252    5.0274   -1.3932 H   0  0  0  0  0  0  0  0  0  0  0  0
    0.6803    3.8830   -1.6195 H   0  0  0  0  0  0  0  0  0  0  0  0
    1.8444    3.5625    0.9400 C   0  0  0  0  0  0  0  0  0  0  0  0
    2.8113    4.0674    1.1430 H   0  0  0  0  0  0  0  0  0  0  0  0
    1.4126    3.1915    1.8908 H   0  0  0  0  0  0  0  0  0  0  0  0
  2  8  1  0  0  0  0
  3  8  1  0  0  0  0
  4  2  2  0  0  0  0
  5  1  1  0  0  0  0
  5  2  1  0  0  0  0
  6  5  1  0  0  0  0
  7  5  1  0  0  0  0
  8  9  1  0  0  0  0
  8 10  1  0  0  0  0
M  END
