1,2
 OpenBabel05122313063D

 12 11  0  0  0  0  0  0  0  0999 V2000
    1.4547   -1.7325   -0.2175 S   0  0  0  0  0  0  0  0  0  0  0  0
    1.6814    1.3230   -0.5523 S   0  0  0  0  0  0  0  0  0  0  0  0
    4.0037   -2.2469   -2.6787 F   0  0  0  0  0  0  0  0  0  0  0  0
    5.2036   -1.6883   -0.9374 F   0  0  0  0  0  0  0  0  0  0  0  0
    3.7302   -3.2822   -0.7852 F   0  0  0  0  0  0  0  0  0  0  0  0
    4.8424    0.3874   -2.6176 F   0  0  0  0  0  0  0  0  0  0  0  0
    3.8156    2.2501   -2.1734 F   0  0  0  0  0  0  0  0  0  0  0  0
    5.0700    1.3219   -0.6532 F   0  0  0  0  0  0  0  0  0  0  0  0
    2.9119   -1.0603   -0.9227 C   0  0  0  0  0  0  0  0  0  0  0  0
    2.9878    0.2976   -1.1074 C   0  0  0  0  0  0  0  0  0  0  0  0
    3.9680   -2.0714   -1.3401 C   0  0  0  0  0  0  0  0  0  0  0  0
    4.1842    1.0587   -1.6535 C   0  0  0  0  0  0  0  0  0  0  0  0
  3 11  1  0  0  0  0
  6 12  1  0  0  0  0
  7 12  1  0  0  0  0
  9  1  1  0  0  0  0
 10  9  2  0  0  0  0
 10  2  1  0  0  0  0
 11  4  1  0  0  0  0
 11  9  1  0  0  0  0
 11  5  1  0  0  0  0
 12 10  1  0  0  0  0
 12  8  1  0  0  0  0
M  END
