1,3
 OpenBabel05122313063D

 18 18  0  0  0  0  0  0  0  0999 V2000
    1.3139   -1.4047    1.4804 S   0  0  0  0  0  0  0  0  0  0  0  0
    4.0449   -0.1392    1.7515 Cl  0  0  0  0  0  0  0  0  0  0  0  0
    2.9868   -0.7096   -1.0336 S   0  0  0  0  0  0  0  0  0  0  0  0
    3.9518   -3.0999    0.8859 Cl  0  0  0  0  0  0  0  0  0  0  0  0
    0.5012   -2.4005   -1.2593 O   0  0  0  0  0  0  0  0  0  0  0  0
    2.7793   -2.1685   -2.1425 C   0  0  0  0  0  0  0  0  0  0  0  0
    3.3085   -1.9276   -3.0853 H   0  0  0  0  0  0  0  0  0  0  0  0
    3.3174   -3.0088   -1.6584 H   0  0  0  0  0  0  0  0  0  0  0  0
    1.3119   -2.4720   -2.4432 C   0  0  0  0  0  0  0  0  0  0  0  0
    1.2049   -3.4771   -2.9101 H   0  0  0  0  0  0  0  0  0  0  0  0
    0.8911   -1.7041   -3.1199 H   0  0  0  0  0  0  0  0  0  0  0  0
    0.7507   -3.4877   -0.3505 C   0  0  0  0  0  0  0  0  0  0  0  0
    0.0443   -4.3174   -0.5834 H   0  0  0  0  0  0  0  0  0  0  0  0
    1.7845   -3.8615   -0.4887 H   0  0  0  0  0  0  0  0  0  0  0  0
    0.5848   -3.0495    1.0918 C   0  0  0  0  0  0  0  0  0  0  0  0
    1.0612   -3.7938    1.7611 H   0  0  0  0  0  0  0  0  0  0  0  0
   -0.4796   -2.9520    1.3786 H   0  0  0  0  0  0  0  0  0  0  0  0
    3.1704   -1.4357    0.7927 B   0  0  0  0  0  0  0  0  0  0  0  0
  3 18  1  0  0  0  0
  5 12  1  0  0  0  0
  6  8  1  0  0  0  0
  6  3  1  0  0  0  0
  7  6  1  0  0  0  0
  9  6  1  0  0  0  0
  9  5  1  0  0  0  0
 10  9  1  0  0  0  0
 11  9  1  0  0  0  0
 12 15  1  0  0  0  0
 13 12  1  0  0  0  0
 14 12  1  0  0  0  0
 15 17  1  0  0  0  0
 15  1  1  0  0  0  0
 15 16  1  0  0  0  0
 18  4  1  0  0  0  0
 18  1  1  0  0  0  0
 18  2  1  0  0  0  0
M  END
