1,2
 OpenBabel05122313063D

 37 36  0  0  1  0  0  0  0  0999 V2000
   -1.8055    0.6826    0.6959 S   0  0  0  0  0  0  0  0  0  0  0  0
    1.5186    1.1201    0.6336 S   0  0  0  0  0  0  0  0  0  0  0  0
   -0.9541    2.2897    1.1189 C   0  0  2  0  0  0  0  0  0  0  0  0
   -1.6708    3.0842    0.8233 H   0  0  0  0  0  0  0  0  0  0  0  0
    0.3317    2.4971    0.3214 C   0  0  0  0  0  0  0  0  0  0  0  0
    0.8116    3.4429    0.6460 H   0  0  0  0  0  0  0  0  0  0  0  0
    0.1274    2.5461   -0.7647 H   0  0  0  0  0  0  0  0  0  0  0  0
    2.5189    1.3810   -2.0085 C   0  0  0  0  0  0  0  0  0  0  0  0
    1.6653    2.0373   -2.2718 H   0  0  0  0  0  0  0  0  0  0  0  0
    2.2376    0.3371   -2.2362 H   0  0  0  0  0  0  0  0  0  0  0  0
    3.3682    1.6615   -2.6662 H   0  0  0  0  0  0  0  0  0  0  0  0
    2.9405    1.5320   -0.5503 C   0  0  0  0  0  0  0  0  0  0  0  0
    4.0228    0.5106   -0.1778 C   0  0  0  0  0  0  0  0  0  0  0  0
    4.3262    0.6116    0.8832 H   0  0  0  0  0  0  0  0  0  0  0  0
    4.9171    0.6849   -0.8110 H   0  0  0  0  0  0  0  0  0  0  0  0
    3.6826   -0.5283   -0.3489 H   0  0  0  0  0  0  0  0  0  0  0  0
    3.4151    2.9558   -0.2377 C   0  0  0  0  0  0  0  0  0  0  0  0
    2.6866    3.7237   -0.5644 H   0  0  0  0  0  0  0  0  0  0  0  0
    4.3614    3.1495   -0.7844 H   0  0  0  0  0  0  0  0  0  0  0  0
    3.6127    3.0884    0.8449 H   0  0  0  0  0  0  0  0  0  0  0  0
   -2.3288    1.9437   -1.8149 C   0  0  0  0  0  0  0  0  0  0  0  0
   -1.4612    1.3965   -2.2280 H   0  0  0  0  0  0  0  0  0  0  0  0
   -2.0014    2.9490   -1.4829 H   0  0  0  0  0  0  0  0  0  0  0  0
   -3.0550    2.0952   -2.6411 H   0  0  0  0  0  0  0  0  0  0  0  0
   -3.0074    1.1583   -0.6934 C   0  0  0  0  0  0  0  0  0  0  0  0
   -3.5415   -0.1836   -1.2059 C   0  0  0  0  0  0  0  0  0  0  0  0
   -2.7507   -0.7672   -1.7129 H   0  0  0  0  0  0  0  0  0  0  0  0
   -4.3566    0.0064   -1.9344 H   0  0  0  0  0  0  0  0  0  0  0  0
   -3.9519   -0.8030   -0.3836 H   0  0  0  0  0  0  0  0  0  0  0  0
   -4.1301    1.9715   -0.0376 C   0  0  0  0  0  0  0  0  0  0  0  0
   -3.7605    2.9241    0.3941 H   0  0  0  0  0  0  0  0  0  0  0  0
   -4.6260    1.3947    0.7671 H   0  0  0  0  0  0  0  0  0  0  0  0
   -4.8927    2.2319   -0.8013 H   0  0  0  0  0  0  0  0  0  0  0  0
   -0.7468    2.3211    2.6343 C   0  0  0  0  0  0  0  0  0  0  0  0
   -1.7151    2.2599    3.1660 H   0  0  0  0  0  0  0  0  0  0  0  0
   -0.2364    3.2603    2.9314 H   0  0  0  0  0  0  0  0  0  0  0  0
   -0.1159    1.4738    2.9708 H   0  0  0  0  0  0  0  0  0  0  0  0
  1  3  1  0  0  0  0
  3  4  1  6  0  0  0
  3 34  1  0  0  0  0
  5  2  1  0  0  0  0
  5  6  1  0  0  0  0
  5  3  1  0  0  0  0
  7  5  1  0  0  0  0
  8 12  1  0  0  0  0
  9  8  1  0  0  0  0
 10  8  1  0  0  0  0
 11  8  1  0  0  0  0
 12 17  1  0  0  0  0
 12 13  1  0  0  0  0
 12  2  1  0  0  0  0
 13 14  1  0  0  0  0
 15 13  1  0  0  0  0
 16 13  1  0  0  0  0
 17 20  1  0  0  0  0
 18 17  1  0  0  0  0
 19 17  1  0  0  0  0
 21 23  1  0  0  0  0
 21 25  1  0  0  0  0
 22 21  1  0  0  0  0
 24 21  1  0  0  0  0
 25 30  1  0  0  0  0
 25  1  1  0  0  0  0
 26 25  1  0  0  0  0
 26 29  1  0  0  0  0
 27 26  1  0  0  0  0
 28 26  1  0  0  0  0
 30 31  1  0  0  0  0
 30 32  1  0  0  0  0
 33 30  1  0  0  0  0
 34 36  1  0  0  0  0
 34 37  1  0  0  0  0
 34 35  1  0  0  0  0
M  END
