1,2
 OpenBabel05122313063D

 22 22  0  0  0  0  0  0  0  0999 V2000
   -1.6157   -1.6774   -0.0958 S   0  0  0  0  0  1  0  0  0  0  0  0
   -1.6157    1.6774   -0.0959 S   0  0  0  0  0  1  0  0  0  0  0  0
   -6.8454   -0.0000   -0.3982 S   0  0  0  0  0  0  0  0  0  0  0  0
   -4.3393    1.1102   -0.2836 N   0  0  0  0  0  0  0  0  0  0  0  0
   -4.3393   -1.1102   -0.2836 N   0  0  0  0  0  0  0  0  0  0  0  0
   -5.1828   -0.0000   -0.3231 C   0  0  0  0  0  0  0  0  0  0  0  0
   -3.0217   -0.7063   -0.1900 C   0  0  0  0  0  0  0  0  0  0  0  0
   -3.0217    0.7063   -0.1900 C   0  0  0  0  0  0  0  0  0  0  0  0
   -4.8046    2.4929   -0.2667 C   0  0  0  0  0  0  0  0  0  0  0  0
   -4.9943    3.0248    1.1519 C   0  0  0  0  0  0  0  0  0  0  0  0
   -4.8046   -2.4929   -0.2666 C   0  0  0  0  0  0  0  0  0  0  0  0
   -4.9942   -3.0248    1.1520 C   0  0  0  0  0  0  0  0  0  0  0  0
   -5.7622    2.5020   -0.8247 H   0  0  0  0  0  0  0  0  0  0  0  0
   -4.0580    3.0912   -0.8285 H   0  0  0  0  0  0  0  0  0  0  0  0
   -5.3382    4.0774    1.1180 H   0  0  0  0  0  0  0  0  0  0  0  0
   -5.7586    2.4275    1.6869 H   0  0  0  0  0  0  0  0  0  0  0  0
   -4.0453    2.9900    1.7231 H   0  0  0  0  0  0  0  0  0  0  0  0
   -4.0580   -3.0913   -0.8285 H   0  0  0  0  0  0  0  0  0  0  0  0
   -5.7622   -2.5020   -0.8246 H   0  0  0  0  0  0  0  0  0  0  0  0
   -5.3382   -4.0774    1.1181 H   0  0  0  0  0  0  0  0  0  0  0  0
   -4.0453   -2.9900    1.7232 H   0  0  0  0  0  0  0  0  0  0  0  0
   -5.7586   -2.4275    1.6870 H   0  0  0  0  0  0  0  0  0  0  0  0
  3  6  2  0  0  0  0
  4  9  1  0  0  0  0
  4  8  1  0  0  0  0
  5 11  1  0  0  0  0
  5  7  1  0  0  0  0
  6  4  1  0  0  0  0
  6  5  1  0  0  0  0
  7  1  1  0  0  0  0
  8  7  2  0  0  0  0
  8  2  1  0  0  0  0
  9 10  1  0  0  0  0
 10 16  1  0  0  0  0
 10 17  1  0  0  0  0
 11 12  1  0  0  0  0
 12 22  1  0  0  0  0
 12 21  1  0  0  0  0
 13  9  1  0  0  0  0
 14  9  1  0  0  0  0
 15 10  1  0  0  0  0
 18 11  1  0  0  0  0
 19 11  1  0  0  0  0
 20 12  1  0  0  0  0
M  END
