1,2
 OpenBabel05122313063D

 14 13  0  0  1  0  0  0  0  0999 V2000
   -1.7020    2.0446   -1.0228 S   0  0  0  0  0  1  0  0  0  0  0  0
    1.6235    2.2044   -0.8840 S   0  0  0  0  0  1  0  0  0  0  0  0
   -2.5531    4.1387   -2.5015 C   0  0  0  0  0  0  0  0  0  0  0  0
   -3.4888    3.5975   -2.2710 H   0  0  0  0  0  0  0  0  0  0  0  0
   -2.4694    4.2531   -3.6021 H   0  0  0  0  0  0  0  0  0  0  0  0
   -2.6240    5.1600   -2.0714 H   0  0  0  0  0  0  0  0  0  0  0  0
   -1.3373    3.4289   -1.9546 C   0  0  1  0  0  3  0  0  0  0  0  0
   -0.0748    3.9692   -2.2427 C   0  0  0  0  0  0  0  0  0  0  0  0
   -0.0934    4.8780   -2.8696 H   0  0  0  0  0  0  0  0  0  0  0  0
    1.2039    3.5553   -1.8466 C   0  0  0  0  0  0  0  0  0  0  0  0
    2.3868    4.3905   -2.2767 C   0  0  0  0  0  0  0  0  0  0  0  0
    3.3489    3.8985   -2.0441 H   0  0  0  0  0  0  0  0  0  0  0  0
    2.3662    5.3724   -1.7578 H   0  0  0  0  0  0  0  0  0  0  0  0
    2.3422    4.5956   -3.3659 H   0  0  0  0  0  0  0  0  0  0  0  0
  3  4  1  0  0  0  0
  3  6  1  0  0  0  0
  3  7  1  0  0  0  0
  5  3  1  0  0  0  0
  7  1  1  1  0  0  0
  8  7  1  0  0  0  0
  8 10  2  0  0  0  0
  9  8  1  0  0  0  0
 10  2  1  0  0  0  0
 11 12  1  0  0  0  0
 11 10  1  0  0  0  0
 11 13  1  0  0  0  0
 14 11  1  0  0  0  0
M  END
