1,6
 OpenBabel05122313063D

  8  8  0  0  0  0  0  0  0  0999 V2000
   -1.3320    1.6375    0.0431 S   0  0  0  0  0  0  0  0  0  0  0  0
   -2.7827    0.6975    0.0210 C   0  0  0  0  0  0  0  0  0  0  0  0
   -4.3644    1.4676    0.0482 S   0  0  0  0  0  0  0  0  0  0  0  0
   -5.3536   -0.0000   -0.0001 C   0  0  0  0  0  0  0  0  0  0  0  0
   -6.9979   -0.0000   -0.0004 S   0  0  0  0  0  0  0  0  0  0  0  0
   -1.3319   -1.6375   -0.0426 S   0  0  0  0  0  0  0  0  0  0  0  0
   -2.7827   -0.6975   -0.0208 C   0  0  0  0  0  0  0  0  0  0  0  0
   -4.3644   -1.4677   -0.0481 S   0  0  0  0  0  0  0  0  0  0  0  0
  2  1  1  0  0  0  0
  2  3  1  0  0  0  0
  4  3  1  0  0  0  0
  5  4  2  0  0  0  0
  6  7  1  0  0  0  0
  7  2  2  0  0  0  0
  8  7  1  0  0  0  0
  8  4  1  0  0  0  0
M  END
