1,2
 OpenBabel05122313063D

 34 33  0  0  0  0  0  0  0  0999 V2000
   -0.3150    0.4197   -1.4643 S   0  0  0  0  0  1  0  0  0  0  0  0
   -0.3126    0.2600    1.4905 S   0  0  0  0  0  1  0  0  0  0  0  0
   -3.0822   -1.1365   -0.3100 N   0  0  0  0  0  0  0  0  0  0  0  0
   -3.3857    1.1499    0.3249 N   0  0  0  0  0  0  0  0  0  0  0  0
   -1.1351    0.2783    0.0089 C   0  0  0  0  0  3  0  0  0  0  0  0
   -2.6184    0.0860    0.0043 C   0  0  0  0  0  3  0  0  0  0  0  0
   -2.1733   -2.3085   -0.2307 C   0  0  0  0  0  0  0  0  0  0  0  0
   -2.3036   -3.0409    1.0988 C   0  0  0  0  0  0  0  0  0  0  0  0
   -4.4320   -1.4035   -0.8387 C   0  0  0  0  0  0  0  0  0  0  0  0
   -4.7012   -0.6495   -2.1385 C   0  0  0  0  0  0  0  0  0  0  0  0
   -2.8170    2.5151    0.2288 C   0  0  0  0  0  0  0  0  0  0  0  0
   -3.1370    3.1714   -1.1099 C   0  0  0  0  0  0  0  0  0  0  0  0
   -4.7463    1.0546    0.8836 C   0  0  0  0  0  0  0  0  0  0  0  0
   -4.7811    0.2556    2.1842 C   0  0  0  0  0  0  0  0  0  0  0  0
   -1.1201   -1.9892   -0.3742 H   0  0  0  0  0  0  0  0  0  0  0  0
   -2.4200   -2.9647   -1.0888 H   0  0  0  0  0  0  0  0  0  0  0  0
   -2.0187   -2.3683    1.9326 H   0  0  0  0  0  0  0  0  0  0  0  0
   -1.5970   -3.8937    1.1095 H   0  0  0  0  0  0  0  0  0  0  0  0
   -3.3280   -3.4294    1.2765 H   0  0  0  0  0  0  0  0  0  0  0  0
   -5.2144   -1.2019   -0.0789 H   0  0  0  0  0  0  0  0  0  0  0  0
   -4.4713   -2.4939   -1.0180 H   0  0  0  0  0  0  0  0  0  0  0  0
   -4.6940    0.4488   -1.9913 H   0  0  0  0  0  0  0  0  0  0  0  0
   -5.6923   -0.9338   -2.5434 H   0  0  0  0  0  0  0  0  0  0  0  0
   -3.9291   -0.8904   -2.8954 H   0  0  0  0  0  0  0  0  0  0  0  0
   -1.7243    2.4534    0.3806 H   0  0  0  0  0  0  0  0  0  0  0  0
   -3.2240    3.0976    1.0790 H   0  0  0  0  0  0  0  0  0  0  0  0
   -2.6679    2.6006   -1.9363 H   0  0  0  0  0  0  0  0  0  0  0  0
   -2.7271    4.2004   -1.1326 H   0  0  0  0  0  0  0  0  0  0  0  0
   -4.2296    3.2347   -1.2920 H   0  0  0  0  0  0  0  0  0  0  0  0
   -5.4642    0.6534    0.1392 H   0  0  0  0  0  0  0  0  0  0  0  0
   -5.0695    2.0958    1.0696 H   0  0  0  0  0  0  0  0  0  0  0  0
   -4.4779   -0.7991    2.0314 H   0  0  0  0  0  0  0  0  0  0  0  0
   -5.8060    0.2599    2.6041 H   0  0  0  0  0  0  0  0  0  0  0  0
   -4.0917    0.6950    2.9316 H   0  0  0  0  0  0  0  0  0  0  0  0
  1  5  1  0  0  0  0
  3  7  1  0  0  0  0
  3  6  1  0  0  0  0
  4 13  1  0  0  0  0
  5  2  1  0  0  0  0
  6  5  1  0  0  0  0
  6  4  1  0  0  0  0
  7  8  1  0  0  0  0
  8 18  1  0  0  0  0
  8 19  1  0  0  0  0
  8 17  1  0  0  0  0
  9  3  1  0  0  0  0
  9 20  1  0  0  0  0
 10 22  1  0  0  0  0
 10  9  1  0  0  0  0
 11  4  1  0  0  0  0
 11 25  1  0  0  0  0
 11 26  1  0  0  0  0
 12 11  1  0  0  0  0
 13 31  1  0  0  0  0
 13 14  1  0  0  0  0
 14 33  1  0  0  0  0
 14 34  1  0  0  0  0
 15  7  1  0  0  0  0
 16  7  1  0  0  0  0
 21  9  1  0  0  0  0
 23 10  1  0  0  0  0
 24 10  1  0  0  0  0
 27 12  1  0  0  0  0
 28 12  1  0  0  0  0
 29 12  1  0  0  0  0
 30 13  1  0  0  0  0
 32 14  1  0  0  0  0
M  END
