1,2
 OpenBabel05122313063D

 21 21  0  0  0  0  0  0  0  0999 V2000
    0.2154    2.1428    0.5941 S   0  0  0  0  0  1  0  0  0  0  0  0
   -0.4281    1.2570   -2.2234 S   0  0  0  0  0  1  0  0  0  0  0  0
   -0.1509    2.4515   -1.0370 C   0  0  0  0  0  3  0  0  0  0  0  0
   -0.2755    4.0978   -1.6939 S   0  0  0  0  0  0  0  0  0  0  0  0
    0.0380    5.1902   -0.2469 C   0  0  0  0  0  0  0  0  0  0  0  0
    0.6273    6.5210   -0.7321 C   0  0  0  0  0  0  0  0  0  0  0  0
    0.9101    7.4550    0.4547 C   0  0  0  0  0  0  0  0  0  0  0  0
   -0.3403    7.6703    1.3186 C   0  0  0  0  0  0  0  0  0  0  0  0
   -0.9304    6.3334    1.7872 C   0  0  0  0  0  0  0  0  0  0  0  0
   -1.2206    5.3995    0.6035 C   0  0  0  0  0  0  0  0  0  0  0  0
    0.7901    4.6366    0.3604 H   0  0  0  0  0  0  0  0  0  0  0  0
   -0.0935    7.0139   -1.4242 H   0  0  0  0  0  0  0  0  0  0  0  0
    1.5516    6.3337   -1.3172 H   0  0  0  0  0  0  0  0  0  0  0  0
    1.3054    8.4274    0.0897 H   0  0  0  0  0  0  0  0  0  0  0  0
    1.7119    7.0054    1.0824 H   0  0  0  0  0  0  0  0  0  0  0  0
   -0.1018    8.3201    2.1880 H   0  0  0  0  0  0  0  0  0  0  0  0
   -1.1052    8.2160    0.7198 H   0  0  0  0  0  0  0  0  0  0  0  0
   -1.8556    6.5011    2.3788 H   0  0  0  0  0  0  0  0  0  0  0  0
   -0.2090    5.8322    2.4709 H   0  0  0  0  0  0  0  0  0  0  0  0
   -1.5779    4.4122    0.9601 H   0  0  0  0  0  0  0  0  0  0  0  0
   -2.0208    5.8334   -0.0371 H   0  0  0  0  0  0  0  0  0  0  0  0
  2  3  1  0  0  0  0
  3  1  1  0  0  0  0
  4  3  1  0  0  0  0
  4  5  1  0  0  0  0
  5 11  1  0  0  0  0
  5 10  1  0  0  0  0
  6  5  1  0  0  0  0
  6  7  1  0  0  0  0
  7 15  1  0  0  0  0
  7  8  1  0  0  0  0
  8  9  1  0  0  0  0
  8 16  1  0  0  0  0
  9 18  1  0  0  0  0
  9 19  1  0  0  0  0
 10 20  1  0  0  0  0
 10  9  1  0  0  0  0
 12  6  1  0  0  0  0
 13  6  1  0  0  0  0
 14  7  1  0  0  0  0
 17  8  1  0  0  0  0
 21 10  1  0  0  0  0
M  END
