1,2
 OpenBabel05122313063D

 31 31  0  0  0  0  0  0  0  0999 V2000
    1.3085   -2.4995    0.2773 S   0  0  0  0  0  1  0  0  0  0  0  0
    0.7928   -0.3115   -1.4995 S   0  0  0  0  0  1  0  0  0  0  0  0
    4.9376    4.5089    2.1515 F   0  0  0  0  0  0  0  0  0  0  0  0
    3.3169   -0.9356   -0.6772 N   0  0  0  0  0  0  0  0  0  0  0  0
    2.0055   -1.2277   -0.6467 C   0  0  0  0  0  3  0  0  0  0  0  0
    4.2791   -1.7210    0.0998 C   0  0  0  0  0  0  0  0  0  0  0  0
    3.7642   -2.0715    1.0190 H   0  0  0  0  0  0  0  0  0  0  0  0
    5.0876   -1.0303    0.4187 H   0  0  0  0  0  0  0  0  0  0  0  0
    3.8253    0.2381   -1.3963 C   0  0  0  0  0  0  0  0  0  0  0  0
    3.0609    0.5233   -2.1482 H   0  0  0  0  0  0  0  0  0  0  0  0
    4.7388   -0.0610   -1.9501 H   0  0  0  0  0  0  0  0  0  0  0  0
    4.1270    1.3929   -0.4620 C   0  0  0  0  0  0  0  0  0  0  0  0
    4.8430   -2.9129   -0.6785 C   0  0  0  0  0  0  0  0  0  0  0  0
    3.9965   -3.5649   -0.9839 H   0  0  0  0  0  0  0  0  0  0  0  0
    5.3190   -2.5531   -1.6180 H   0  0  0  0  0  0  0  0  0  0  0  0
    5.4231    1.9331   -0.3721 C   0  0  0  0  0  0  0  0  0  0  0  0
    6.2297    1.5222   -1.0001 H   0  0  0  0  0  0  0  0  0  0  0  0
    5.8541   -3.7201    0.1400 C   0  0  0  0  0  0  0  0  0  0  0  0
    5.3661   -4.0653    1.0781 H   0  0  0  0  0  0  0  0  0  0  0  0
    6.6845   -3.0523    0.4613 H   0  0  0  0  0  0  0  0  0  0  0  0
    3.1068    1.9281    0.3544 C   0  0  0  0  0  0  0  0  0  0  0  0
    2.0851    1.5212    0.2927 H   0  0  0  0  0  0  0  0  0  0  0  0
    3.3760    2.9777    1.2396 C   0  0  0  0  0  0  0  0  0  0  0  0
    2.5894    3.3959    1.8838 H   0  0  0  0  0  0  0  0  0  0  0  0
    4.6758    3.4988    1.3025 C   0  0  0  0  0  0  0  0  0  0  0  0
    5.7070    2.9917    0.5045 C   0  0  0  0  0  0  0  0  0  0  0  0
    6.7148    3.4234    0.5840 H   0  0  0  0  0  0  0  0  0  0  0  0
    6.4195   -4.9206   -0.6191 C   0  0  0  0  0  0  0  0  0  0  0  0
    7.1447   -5.4884   -0.0028 H   0  0  0  0  0  0  0  0  0  0  0  0
    6.9429   -4.6031   -1.5451 H   0  0  0  0  0  0  0  0  0  0  0  0
    5.6134   -5.6216   -0.9193 H   0  0  0  0  0  0  0  0  0  0  0  0
  2  5  1  0  0  0  0
  4  5  1  0  0  0  0
  4  6  1  0  0  0  0
  5  1  1  0  0  0  0
  6  8  1  0  0  0  0
  6  7  1  0  0  0  0
  9  4  1  0  0  0  0
  9 12  1  0  0  0  0
 10  9  1  0  0  0  0
 11  9  1  0  0  0  0
 12 16  2  0  0  0  0
 12 21  1  0  0  0  0
 13  6  1  0  0  0  0
 13 18  1  0  0  0  0
 14 13  1  0  0  0  0
 15 13  1  0  0  0  0
 16 26  1  0  0  0  0
 17 16  1  0  0  0  0
 18 20  1  0  0  0  0
 18 19  1  0  0  0  0
 21 23  2  0  0  0  0
 22 21  1  0  0  0  0
 23 25  1  0  0  0  0
 23 24  1  0  0  0  0
 25  3  1  0  0  0  0
 26 27  1  0  0  0  0
 26 25  2  0  0  0  0
 28 29  1  0  0  0  0
 28 18  1  0  0  0  0
 30 28  1  0  0  0  0
 31 28  1  0  0  0  0
M  END
