1,4
 OpenBabel05122313063D

 24 24  0  0  0  0  0  0  0  0999 V2000
   -1.6415    0.2122   -1.5580 S   0  0  0  0  0  1  0  0  0  0  0  0
   -2.9885   -0.5334   -0.7098 C   0  0  0  0  0  0  0  0  0  0  0  0
   -2.9887   -0.5328    0.7100 C   0  0  0  0  0  0  0  0  0  0  0  0
   -1.6417    0.2134    1.5578 S   0  0  0  0  0  1  0  0  0  0  0  0
   -4.0579   -1.1323    1.4383 C   0  0  0  0  0  0  0  0  0  0  0  0
   -5.1169   -1.7154    0.7149 C   0  0  0  0  0  0  0  0  0  0  0  0
   -5.1167   -1.7160   -0.7142 C   0  0  0  0  0  0  0  0  0  0  0  0
   -4.0576   -1.1334   -1.4379 C   0  0  0  0  0  0  0  0  0  0  0  0
   -4.0489   -1.1406   -2.9492 C   0  0  0  0  0  0  0  0  0  0  0  0
   -4.0988   -2.1734   -3.3520 H   0  0  0  0  0  0  0  0  0  0  0  0
   -4.9156   -0.5860   -3.3664 H   0  0  0  0  0  0  0  0  0  0  0  0
   -3.1295   -0.6723   -3.3449 H   0  0  0  0  0  0  0  0  0  0  0  0
   -6.2801   -2.3592   -1.4303 C   0  0  0  0  0  0  0  0  0  0  0  0
   -6.1915   -2.3008   -2.5284 H   0  0  0  0  0  0  0  0  0  0  0  0
   -6.3795   -3.4323   -1.1605 H   0  0  0  0  0  0  0  0  0  0  0  0
   -7.2433   -1.8832   -1.1479 H   0  0  0  0  0  0  0  0  0  0  0  0
   -6.2804   -2.3582    1.4311 C   0  0  0  0  0  0  0  0  0  0  0  0
   -6.1921   -2.2986    2.5293 H   0  0  0  0  0  0  0  0  0  0  0  0
   -6.3794   -3.4316    1.1624 H   0  0  0  0  0  0  0  0  0  0  0  0
   -7.2436   -1.8827    1.1480 H   0  0  0  0  0  0  0  0  0  0  0  0
   -4.0496   -1.1384    2.9496 C   0  0  0  0  0  0  0  0  0  0  0  0
   -4.0989   -2.1709    3.3531 H   0  0  0  0  0  0  0  0  0  0  0  0
   -4.9166   -0.5840    3.3662 H   0  0  0  0  0  0  0  0  0  0  0  0
   -3.1305   -0.6692    3.3451 H   0  0  0  0  0  0  0  0  0  0  0  0
  1  2  1  0  0  0  0
  2  3  1  0  0  0  0
  3  5  2  0  0  0  0
  3  4  1  0  0  0  0
  5 21  1  0  0  0  0
  6 17  1  0  0  0  0
  6  5  1  0  0  0  0
  7  6  2  0  0  0  0
  8  7  1  0  0  0  0
  8  2  2  0  0  0  0
  9  8  1  0  0  0  0
 10  9  1  0  0  0  0
 11  9  1  0  0  0  0
 12  9  1  0  0  0  0
 13 15  1  0  0  0  0
 13 16  1  0  0  0  0
 13  7  1  0  0  0  0
 14 13  1  0  0  0  0
 17 18  1  0  0  0  0
 19 17  1  0  0  0  0
 20 17  1  0  0  0  0
 21 24  1  0  0  0  0
 21 22  1  0  0  0  0
 21 23  1  0  0  0  0
M  END
