1,2
 OpenBabel05122313063D

 22 22  0  0  0  0  0  0  0  0999 V2000
   -1.2097   -1.2056   -1.2049 S   0  0  0  0  0  1  0  0  0  0  0  0
   -1.2621    1.6672    0.0324 S   0  0  0  0  0  1  0  0  0  0  0  0
   -4.1578   -1.1530   -1.6966 S   0  0  0  0  0  0  0  0  0  0  0  0
   -4.2187    1.8770   -0.3611 S   0  0  0  0  0  0  0  0  0  0  0  0
   -6.3129    0.5137    2.2218 O   0  0  0  0  0  0  0  0  0  0  0  0
   -7.2178    1.9867    0.7385 O   0  0  0  0  0  0  0  0  0  0  0  0
   -6.2778   -2.7939   -0.7987 O   0  0  0  0  0  0  0  0  0  0  0  0
   -7.4916   -1.3244    0.4309 O   0  0  0  0  0  0  0  0  0  0  0  0
   -2.7252    0.9323   -0.5390 C   0  0  0  0  0  0  0  0  0  0  0  0
   -2.7060   -0.3361   -1.0891 C   0  0  0  0  0  0  0  0  0  0  0  0
   -5.3830    0.6075    0.0563 C   0  0  0  0  0  0  0  0  0  0  0  0
   -6.4319    1.1024    1.0182 C   0  0  0  0  0  0  0  0  0  0  0  0
   -5.3788   -0.6381   -0.5006 C   0  0  0  0  0  0  0  0  0  0  0  0
   -6.4886   -1.5921   -0.2123 C   0  0  0  0  0  0  0  0  0  0  0  0
   -7.3480    0.8360    3.1591 C   0  0  0  0  0  0  0  0  0  0  0  0
   -7.4740    1.9329    3.2524 H   0  0  0  0  0  0  0  0  0  0  0  0
   -7.0389    0.3930    4.1223 H   0  0  0  0  0  0  0  0  0  0  0  0
   -8.3062    0.3914    2.8213 H   0  0  0  0  0  0  0  0  0  0  0  0
   -7.3294   -3.7490   -0.6282 C   0  0  0  0  0  0  0  0  0  0  0  0
   -7.4663   -3.9945    0.4444 H   0  0  0  0  0  0  0  0  0  0  0  0
   -7.0208   -4.6464   -1.1929 H   0  0  0  0  0  0  0  0  0  0  0  0
   -8.2893   -3.3530   -1.0175 H   0  0  0  0  0  0  0  0  0  0  0  0
  1 10  1  0  0  0  0
  3 10  1  0  0  0  0
  3 13  1  0  0  0  0
  4 11  1  0  0  0  0
  5 15  1  0  0  0  0
  6 12  2  0  0  0  0
  7 19  1  0  0  0  0
  7 14  1  0  0  0  0
  9  4  1  0  0  0  0
  9  2  1  0  0  0  0
 10  9  2  0  0  0  0
 11 12  1  0  0  0  0
 12  5  1  0  0  0  0
 13 14  1  0  0  0  0
 13 11  2  0  0  0  0
 14  8  2  0  0  0  0
 15 16  1  0  0  0  0
 15 17  1  0  0  0  0
 18 15  1  0  0  0  0
 19 20  1  0  0  0  0
 21 19  1  0  0  0  0
 22 19  1  0  0  0  0
M  END
