1,2
 OpenBabel05122313063D

 28 28  0  0  0  0  0  0  0  0999 V2000
   -0.8169    1.1045    0.1168 S   0  0  0  0  0  1  0  0  0  0  0  0
   -1.7344   -1.1152    1.6329 S   0  0  0  0  0  1  0  0  0  0  0  0
   -3.4302    0.8963    0.8669 N   0  0  0  0  0  0  0  0  0  0  0  0
   -2.1909    0.3674    0.8783 C   0  0  0  0  0  3  0  0  0  0  0  0
   -3.6834    2.1414    0.0981 C   0  0  0  0  0  0  0  0  0  0  0  0
   -2.7187    2.6917    0.1459 H   0  0  0  0  0  0  0  0  0  0  0  0
   -3.9849    1.8396   -1.3757 C   0  0  0  0  0  0  0  0  0  0  0  0
   -3.1788    1.2180   -1.8117 H   0  0  0  0  0  0  0  0  0  0  0  0
   -4.9483    1.3063   -1.4925 H   0  0  0  0  0  0  0  0  0  0  0  0
   -4.0366    2.7870   -1.9491 H   0  0  0  0  0  0  0  0  0  0  0  0
   -4.7515    3.0158    0.7537 C   0  0  0  0  0  0  0  0  0  0  0  0
   -4.5301    3.2024    1.8234 H   0  0  0  0  0  0  0  0  0  0  0  0
   -4.7774    3.9957    0.2382 H   0  0  0  0  0  0  0  0  0  0  0  0
   -5.7644    2.5739    0.6680 H   0  0  0  0  0  0  0  0  0  0  0  0
   -4.5427    0.1650    1.4842 C   0  0  0  0  0  0  0  0  0  0  0  0
   -5.1390    0.8674    2.0980 H   0  0  0  0  0  0  0  0  0  0  0  0
   -4.0839   -0.5685    2.1801 H   0  0  0  0  0  0  0  0  0  0  0  0
   -5.4315   -0.5448    0.4818 C   0  0  0  0  0  0  0  0  0  0  0  0
   -4.8867   -1.5233   -0.3758 C   0  0  0  0  0  0  0  0  0  0  0  0
   -3.8188   -1.7802   -0.2898 H   0  0  0  0  0  0  0  0  0  0  0  0
   -5.6975   -2.1653   -1.3209 C   0  0  0  0  0  0  0  0  0  0  0  0
   -5.2617   -2.9278   -1.9844 H   0  0  0  0  0  0  0  0  0  0  0  0
   -7.0623   -1.8437   -1.4196 C   0  0  0  0  0  0  0  0  0  0  0  0
   -7.6968   -2.3491   -2.1634 H   0  0  0  0  0  0  0  0  0  0  0  0
   -7.6138   -0.8802   -0.5621 C   0  0  0  0  0  0  0  0  0  0  0  0
   -8.6827   -0.6265   -0.6295 H   0  0  0  0  0  0  0  0  0  0  0  0
   -6.7999   -0.2340    0.3824 C   0  0  0  0  0  0  0  0  0  0  0  0
   -7.2351    0.5241    1.0537 H   0  0  0  0  0  0  0  0  0  0  0  0
  1  4  1  0  0  0  0
  3  4  1  0  0  0  0
  3 15  1  0  0  0  0
  4  2  1  0  0  0  0
  5  6  1  0  0  0  0
  5 11  1  0  0  0  0
  5  3  1  0  0  0  0
  7  5  1  0  0  0  0
  8  7  1  0  0  0  0
  9  7  1  0  0  0  0
 10  7  1  0  0  0  0
 11 12  1  0  0  0  0
 13 11  1  0  0  0  0
 14 11  1  0  0  0  0
 15 16  1  0  0  0  0
 15 17  1  0  0  0  0
 18 15  1  0  0  0  0
 19 20  1  0  0  0  0
 19 18  2  0  0  0  0
 21 19  1  0  0  0  0
 22 21  1  0  0  0  0
 23 21  2  0  0  0  0
 23 25  1  0  0  0  0
 24 23  1  0  0  0  0
 25 27  2  0  0  0  0
 26 25  1  0  0  0  0
 27 18  1  0  0  0  0
 27 28  1  0  0  0  0
M  END
