1,2
 OpenBabel05122313063D

 25 25  0  0  0  0  0  0  0  0999 V2000
   -1.4210   -1.7193    0.1361 S   0  0  0  0  0  1  0  0  0  0  0  0
   -1.7966    0.8698   -0.9970 S   0  0  0  0  0  1  0  0  0  0  0  0
   -6.8875    0.3114   -0.8512 N   0  0  0  0  0  0  0  0  0  0  0  0
   -3.7723   -1.0128   -1.0664 N   0  0  0  0  0  0  0  0  0  0  0  0
   -5.0215   -1.2497    2.4530 N   0  0  0  0  0  0  0  0  0  0  0  0
   -7.7541    0.9130   -0.0198 C   0  0  0  0  0  0  0  0  0  0  0  0
   -8.8058    0.5832   -0.0887 H   0  0  0  0  0  0  0  0  0  0  0  0
   -7.3790    1.9000    0.9042 C   0  0  0  0  0  0  0  0  0  0  0  0
   -8.1287    2.3520    1.5702 H   0  0  0  0  0  0  0  0  0  0  0  0
   -6.0304    2.2797    0.9591 C   0  0  0  0  0  0  0  0  0  0  0  0
   -5.6885    3.0420    1.6752 H   0  0  0  0  0  0  0  0  0  0  0  0
   -5.1197    1.6686    0.0890 C   0  0  0  0  0  0  0  0  0  0  0  0
   -4.0492    1.9248    0.0992 H   0  0  0  0  0  0  0  0  0  0  0  0
   -5.5939    0.6849   -0.8008 C   0  0  0  0  0  0  0  0  0  0  0  0
   -4.6440   -0.0423   -1.7411 C   0  0  0  0  0  0  0  0  0  0  0  0
   -5.2506   -0.5830   -2.4940 H   0  0  0  0  0  0  0  0  0  0  0  0
   -3.9842    0.6798   -2.2650 H   0  0  0  0  0  0  0  0  0  0  0  0
   -2.5180   -0.6725   -0.6860 C   0  0  0  0  0  3  0  0  0  0  0  0
   -4.2897   -2.3553   -0.8324 C   0  0  0  0  0  0  0  0  0  0  0  0
   -3.4516   -2.9707   -0.4507 H   0  0  0  0  0  0  0  0  0  0  0  0
   -4.6124   -2.7863   -1.8048 H   0  0  0  0  0  0  0  0  0  0  0  0
   -5.4878   -2.4126    0.1381 C   0  0  0  0  0  0  0  0  0  0  0  0
   -6.3683   -1.9052   -0.3141 H   0  0  0  0  0  0  0  0  0  0  0  0
   -5.7631   -3.4766    0.2962 H   0  0  0  0  0  0  0  0  0  0  0  0
   -5.2254   -1.7846    1.4315 C   0  0  0  0  0  0  0  0  0  0  0  0
  2 18  1  0  0  0  0
  3 14  2  0  0  0  0
  3  6  1  0  0  0  0
  4 19  1  0  0  0  0
  4 18  1  0  0  0  0
  6  8  2  0  0  0  0
  7  6  1  0  0  0  0
  8 10  1  0  0  0  0
  8  9  1  0  0  0  0
 10 11  1  0  0  0  0
 12 13  1  0  0  0  0
 12 10  2  0  0  0  0
 14 12  1  0  0  0  0
 15  4  1  0  0  0  0
 15 14  1  0  0  0  0
 16 15  1  0  0  0  0
 17 15  1  0  0  0  0
 18  1  1  0  0  0  0
 19 20  1  0  0  0  0
 19 22  1  0  0  0  0
 21 19  1  0  0  0  0
 22 24  1  0  0  0  0
 22 25  1  0  0  0  0
 23 22  1  0  0  0  0
 25  5  3  0  0  0  0
M  END
