1,22
 OpenBabel05122313063D

 36 39  0  0  0  0  0  0  0  0999 V2000
   -1.9839    1.2171    1.4198 S   0  0  0  0  0  0  0  0  0  0  0  0
   -1.2894   -0.0286    2.6007 C   0  0  0  0  0  0  0  0  0  0  0  0
   -0.3210   -1.0377    1.9453 C   0  0  0  0  0  0  0  0  0  0  0  0
   -0.5249   -1.1876    0.4443 C   0  0  0  0  0  0  0  0  0  0  0  0
   -1.9358   -1.1398   -0.0176 C   0  0  0  0  0  0  0  0  0  0  0  0
   -2.5309   -2.1335   -0.8212 C   0  0  0  0  0  0  0  0  0  0  0  0
   -3.8580   -2.0015   -1.2570 C   0  0  0  0  0  0  0  0  0  0  0  0
   -4.6164   -0.8757   -0.8973 C   0  0  0  0  0  0  0  0  0  0  0  0
   -4.0556    0.1228   -0.0852 C   0  0  0  0  0  0  0  0  0  0  0  0
   -2.7296   -0.0199    0.3461 C   0  0  0  0  0  0  0  0  0  0  0  0
   -0.8001    0.5478    3.4091 H   0  0  0  0  0  0  0  0  0  0  0  0
   -2.1911   -0.5146    3.0210 H   0  0  0  0  0  0  0  0  0  0  0  0
    0.7255   -0.7353    2.1447 H   0  0  0  0  0  0  0  0  0  0  0  0
   -0.4704   -2.0170    2.4496 H   0  0  0  0  0  0  0  0  0  0  0  0
   -1.9414   -3.0204   -1.0980 H   0  0  0  0  0  0  0  0  0  0  0  0
   -4.3064   -2.7879   -1.8817 H   0  0  0  0  0  0  0  0  0  0  0  0
   -5.6568   -0.7762   -1.2398 H   0  0  0  0  0  0  0  0  0  0  0  0
   -4.6443    1.0018    0.2156 H   0  0  0  0  0  0  0  0  0  0  0  0
    0.5249   -1.1876   -0.4443 C   0  0  0  0  0  0  0  0  0  0  0  0
    0.3210   -1.0377   -1.9453 C   0  0  0  0  0  0  0  0  0  0  0  0
    1.2894   -0.0286   -2.6007 C   0  0  0  0  0  0  0  0  0  0  0  0
    1.9839    1.2171   -1.4198 S   0  0  0  0  0  0  0  0  0  0  0  0
    2.7296   -0.0199   -0.3461 C   0  0  0  0  0  0  0  0  0  0  0  0
    1.9358   -1.1398    0.0176 C   0  0  0  0  0  0  0  0  0  0  0  0
    2.5309   -2.1335    0.8212 C   0  0  0  0  0  0  0  0  0  0  0  0
    3.8580   -2.0015    1.2570 C   0  0  0  0  0  0  0  0  0  0  0  0
    4.6164   -0.8757    0.8973 C   0  0  0  0  0  0  0  0  0  0  0  0
    4.0556    0.1228    0.0852 C   0  0  0  0  0  0  0  0  0  0  0  0
    4.6443    1.0018   -0.2156 H   0  0  0  0  0  0  0  0  0  0  0  0
    5.6568   -0.7762    1.2398 H   0  0  0  0  0  0  0  0  0  0  0  0
    4.3064   -2.7879    1.8817 H   0  0  0  0  0  0  0  0  0  0  0  0
    1.9414   -3.0203    1.0980 H   0  0  0  0  0  0  0  0  0  0  0  0
    0.8001    0.5478   -3.4091 H   0  0  0  0  0  0  0  0  0  0  0  0
    2.1911   -0.5146   -3.0210 H   0  0  0  0  0  0  0  0  0  0  0  0
   -0.7255   -0.7353   -2.1447 H   0  0  0  0  0  0  0  0  0  0  0  0
    0.4704   -2.0170   -2.4496 H   0  0  0  0  0  0  0  0  0  0  0  0
  1  2  1  0  0  0  0
  2 12  1  0  0  0  0
  2 11  1  0  0  0  0
  3 13  1  0  0  0  0
  3 14  1  0  0  0  0
  3  2  1  0  0  0  0
  4  3  1  0  0  0  0
  5 10  1  0  0  0  0
  5  4  1  0  0  0  0
  6  5  2  0  0  0  0
  7  8  2  0  0  0  0
  7  6  1  0  0  0  0
  8  9  1  0  0  0  0
  9 18  1  0  0  0  0
  9 10  2  0  0  0  0
 10  1  1  0  0  0  0
 15  6  1  0  0  0  0
 16  7  1  0  0  0  0
 17  8  1  0  0  0  0
 19 24  1  0  0  0  0
 19  4  2  0  0  0  0
 20 19  1  0  0  0  0
 21 20  1  0  0  0  0
 21 22  1  0  0  0  0
 22 23  1  0  0  0  0
 23 24  2  0  0  0  0
 23 28  1  0  0  0  0
 24 25  1  0  0  0  0
 25 32  1  0  0  0  0
 25 26  2  0  0  0  0
 26 31  1  0  0  0  0
 27 30  1  0  0  0  0
 27 26  1  0  0  0  0
 28 27  2  0  0  0  0
 29 28  1  0  0  0  0
 33 21  1  0  0  0  0
 34 21  1  0  0  0  0
 35 20  1  0  0  0  0
 36 20  1  0  0  0  0
M  END
