1,2
 OpenBabel05122313063D

 33 32  0  0  0  0  0  0  0  0999 V2000
   -0.0956    0.5417   -1.7152 S   0  0  0  0  0  0  0  0  0  0  0  0
    0.0397   -0.7034    1.5449 S   0  0  0  0  0  0  0  0  0  0  0  0
    4.1424    1.8261    0.4711 S   0  0  0  0  0  0  0  0  0  0  0  0
    4.1204   -2.0972   -0.9551 S   0  0  0  0  0  0  0  0  0  0  0  0
    2.2044   -0.1086   -0.1867 C   0  0  0  0  0  0  0  0  0  0  0  0
    1.3569    1.0764   -0.7103 C   0  0  0  0  0  0  0  0  0  0  0  0
    1.9833    1.7303   -1.3506 H   0  0  0  0  0  0  0  0  0  0  0  0
    0.9734    1.6934    0.1281 H   0  0  0  0  0  0  0  0  0  0  0  0
    1.3398   -1.2655    0.3664 C   0  0  0  0  0  0  0  0  0  0  0  0
    2.0018   -1.9846    0.8909 H   0  0  0  0  0  0  0  0  0  0  0  0
    0.8282   -1.8049   -0.4579 H   0  0  0  0  0  0  0  0  0  0  0  0
    3.1078    0.3942    0.9584 C   0  0  0  0  0  0  0  0  0  0  0  0
    3.7646   -0.4453    1.2749 H   0  0  0  0  0  0  0  0  0  0  0  0
    2.4745    0.6873    1.8223 H   0  0  0  0  0  0  0  0  0  0  0  0
    3.0394   -0.6769   -1.3676 C   0  0  0  0  0  0  0  0  0  0  0  0
    3.6740    0.1242   -1.7986 H   0  0  0  0  0  0  0  0  0  0  0  0
    2.3458   -1.0115   -2.1663 H   0  0  0  0  0  0  0  0  0  0  0  0
   -0.5271    2.1565   -2.4449 C   0  0  0  0  0  0  0  0  0  0  0  0
   -0.6758    2.9082   -1.6467 H   0  0  0  0  0  0  0  0  0  0  0  0
   -1.4804    2.0068   -2.9843 H   0  0  0  0  0  0  0  0  0  0  0  0
    0.2654    2.4740   -3.1501 H   0  0  0  0  0  0  0  0  0  0  0  0
   -0.4072   -2.3225    2.2560 C   0  0  0  0  0  0  0  0  0  0  0  0
   -0.6848   -3.0299    1.4519 H   0  0  0  0  0  0  0  0  0  0  0  0
   -1.2872   -2.1431    2.9010 H   0  0  0  0  0  0  0  0  0  0  0  0
    0.4357   -2.7136    2.8581 H   0  0  0  0  0  0  0  0  0  0  0  0
    4.9161    2.1538    2.0825 C   0  0  0  0  0  0  0  0  0  0  0  0
    4.1556    2.4163    2.8453 H   0  0  0  0  0  0  0  0  0  0  0  0
    5.5966    3.0153    1.9438 H   0  0  0  0  0  0  0  0  0  0  0  0
    5.5072    1.2825    2.4300 H   0  0  0  0  0  0  0  0  0  0  0  0
    5.7467   -1.2777   -0.8413 C   0  0  0  0  0  0  0  0  0  0  0  0
    6.1253   -1.0096   -1.8480 H   0  0  0  0  0  0  0  0  0  0  0  0
    6.4377   -2.0114   -0.3839 H   0  0  0  0  0  0  0  0  0  0  0  0
    5.6994   -0.3652   -0.2140 H   0  0  0  0  0  0  0  0  0  0  0  0
  1  6  1  0  0  0  0
  2 22  1  0  0  0  0
  3 12  1  0  0  0  0
  3 26  1  0  0  0  0
  4 30  1  0  0  0  0
  5  9  1  0  0  0  0
  5 12  1  0  0  0  0
  6  5  1  0  0  0  0
  6  8  1  0  0  0  0
  7  6  1  0  0  0  0
  9 10  1  0  0  0  0
  9  2  1  0  0  0  0
 11  9  1  0  0  0  0
 12 13  1  0  0  0  0
 12 14  1  0  0  0  0
 15  4  1  0  0  0  0
 15  5  1  0  0  0  0
 16 15  1  0  0  0  0
 17 15  1  0  0  0  0
 18  1  1  0  0  0  0
 18 19  1  0  0  0  0
 20 18  1  0  0  0  0
 21 18  1  0  0  0  0
 22 25  1  0  0  0  0
 22 24  1  0  0  0  0
 23 22  1  0  0  0  0
 26 29  1  0  0  0  0
 26 27  1  0  0  0  0
 28 26  1  0  0  0  0
 30 32  1  0  0  0  0
 30 33  1  0  0  0  0
 31 30  1  0  0  0  0
M  END
