1,2
 OpenBabel05122313063D

 23 22  0  0  0  0  0  0  0  0999 V2000
   -1.4779    2.2795    0.6026 S   0  0  0  0  0  1  0  0  0  0  0  0
   -2.0628   -0.5084   -0.3525 S   0  0  0  0  0  1  0  0  0  0  0  0
   -2.5551    1.1532   -0.1478 C   0  0  0  0  0  3  0  0  0  0  0  0
   -3.7731    1.5655   -0.5746 N   0  0  0  0  0  0  0  0  0  0  0  0
   -4.2033    2.9404   -0.3436 C   0  0  0  0  0  0  0  0  0  0  0  0
   -5.1786    3.0984   -0.8391 H   0  0  0  0  0  0  0  0  0  0  0  0
   -3.4583    3.6511   -0.7554 H   0  0  0  0  0  0  0  0  0  0  0  0
   -4.3016    3.1572    0.7412 H   0  0  0  0  0  0  0  0  0  0  0  0
   -4.7357    0.6239   -1.1435 C   0  0  0  0  0  0  0  0  0  0  0  0
   -4.1627   -0.1641   -1.6699 H   0  0  0  0  0  0  0  0  0  0  0  0
   -5.3519    1.1512   -1.8988 H   0  0  0  0  0  0  0  0  0  0  0  0
   -5.6465   -0.0062   -0.0763 C   0  0  0  0  0  0  0  0  0  0  0  0
   -5.0050   -0.3843    0.7631 H   0  0  0  0  0  0  0  0  0  0  0  0
   -6.2956    0.7866    0.3518 H   0  0  0  0  0  0  0  0  0  0  0  0
   -6.4931   -1.0395   -0.6510 N   0  0  0  0  0  0  0  0  0  0  0  0
   -7.7448   -1.2204    0.0590 C   0  0  0  0  0  0  0  0  0  0  0  0
   -8.3840   -1.9475   -0.4834 H   0  0  0  0  0  0  0  0  0  0  0  0
   -8.2983   -0.2609    0.1159 H   0  0  0  0  0  0  0  0  0  0  0  0
   -7.6167   -1.6059    1.1071 H   0  0  0  0  0  0  0  0  0  0  0  0
   -5.7928   -2.3003   -0.8371 C   0  0  0  0  0  0  0  0  0  0  0  0
   -6.4143   -2.9965   -1.4369 H   0  0  0  0  0  0  0  0  0  0  0  0
   -5.5432   -2.8082    0.1327 H   0  0  0  0  0  0  0  0  0  0  0  0
   -4.8381   -2.1462   -1.3770 H   0  0  0  0  0  0  0  0  0  0  0  0
  2  3  1  0  0  0  0
  3  1  1  0  0  0  0
  4  5  1  0  0  0  0
  4  3  1  0  0  0  0
  5  8  1  0  0  0  0
  6  5  1  0  0  0  0
  7  5  1  0  0  0  0
  9  4  1  0  0  0  0
  9 12  1  0  0  0  0
 10  9  1  0  0  0  0
 11  9  1  0  0  0  0
 12 14  1  0  0  0  0
 12 13  1  0  0  0  0
 15 12  1  0  0  0  0
 15 16  1  0  0  0  0
 16 18  1  0  0  0  0
 16 19  1  0  0  0  0
 17 16  1  0  0  0  0
 20 15  1  0  0  0  0
 20 22  1  0  0  0  0
 21 20  1  0  0  0  0
 23 20  1  0  0  0  0
M  END
