1,2
 OpenBabel05122313063D

 38 40  0  0  1  0  0  0  0  0999 V2000
   -0.2001    2.6025   -0.7932 S   0  0  0  0  0  1  0  0  0  0  0  0
   -2.0991    1.8703    2.0326 S   0  0  0  0  0  1  0  0  0  0  0  0
   -0.9522   -3.1286    0.6966 S   0  0  0  0  0  0  0  0  0  0  0  0
   -2.0053   -0.2605   -0.3869 B   0  0  1  0  0  0  0  0  0  0  0  0
   -0.8030   -0.2325   -0.0073 H   0  0  0  0  0  0  0  0  0  0  0  0
   -1.7391    2.1577   -1.3880 C   0  0  1  0  0  3  0  0  0  0  0  0
   -2.4312    0.9883   -1.2119 N   0  0  0  0  0  0  0  0  0  0  0  0
   -3.6761    1.1165   -1.8217 C   0  0  0  0  0  0  0  0  0  0  0  0
   -4.4257    0.3222   -1.7668 H   0  0  0  0  0  0  0  0  0  0  0  0
   -3.7428    2.3509   -2.4112 C   0  0  0  0  0  0  0  0  0  0  0  0
   -4.5402    2.8353   -2.9820 H   0  0  0  0  0  0  0  0  0  0  0  0
   -2.5384    2.9884   -2.1404 N   0  0  0  0  0  0  0  0  0  0  0  0
   -2.1633    4.3353   -2.5217 C   0  0  0  0  0  0  0  0  0  0  0  0
   -3.0638    4.8841   -2.8520 H   0  0  0  0  0  0  0  0  0  0  0  0
   -1.4145    4.3247   -3.3401 H   0  0  0  0  0  0  0  0  0  0  0  0
   -1.7071    4.8439   -1.6489 H   0  0  0  0  0  0  0  0  0  0  0  0
   -3.1177    0.5107    1.7808 C   0  0  2  0  0  3  0  0  0  0  0  0
   -3.0147   -0.4127    0.7819 N   0  0  0  0  0  0  0  0  0  0  0  0
   -4.0258   -1.3479    0.9240 C   0  0  0  0  0  0  0  0  0  0  0  0
   -4.1030   -2.2096    0.2561 H   0  0  0  0  0  0  0  0  0  0  0  0
   -4.7728   -1.0005    2.0207 C   0  0  0  0  0  0  0  0  0  0  0  0
   -5.6319   -1.4862    2.4917 H   0  0  0  0  0  0  0  0  0  0  0  0
   -4.1959    0.1512    2.5518 N   0  0  0  0  0  0  0  0  0  0  0  0
   -4.6210    0.8606    3.7409 C   0  0  0  0  0  0  0  0  0  0  0  0
   -5.0010    0.1394    4.4889 H   0  0  0  0  0  0  0  0  0  0  0  0
   -5.4134    1.6025    3.5100 H   0  0  0  0  0  0  0  0  0  0  0  0
   -3.7427    1.3987    4.1492 H   0  0  0  0  0  0  0  0  0  0  0  0
   -1.4593   -2.7212   -0.8540 C   0  0  0  0  0  0  0  0  0  0  0  0
   -2.0002   -1.5152   -1.2832 N   0  0  0  0  0  0  0  0  0  0  0  0
   -2.2913   -1.6049   -2.6424 C   0  0  0  0  0  0  0  0  0  0  0  0
   -2.6908   -0.7614   -3.2100 H   0  0  0  0  0  0  0  0  0  0  0  0
   -1.9535   -2.8594   -3.0701 C   0  0  0  0  0  0  0  0  0  0  0  0
   -2.0207   -3.3174   -4.0609 H   0  0  0  0  0  0  0  0  0  0  0  0
   -1.4436   -3.5420   -1.9754 N   0  0  0  0  0  0  0  0  0  0  0  0
   -0.9223   -4.8900   -1.9787 C   0  0  0  0  0  0  0  0  0  0  0  0
   -0.0024   -4.9524   -2.5954 H   0  0  0  0  0  0  0  0  0  0  0  0
   -1.6777   -5.6041   -2.3640 H   0  0  0  0  0  0  0  0  0  0  0  0
   -0.6712   -5.1342   -0.9265 H   0  0  0  0  0  0  0  0  0  0  0  0
  4  5  1  1  0  0  0
  4 18  1  0  0  0  0
  6  7  1  0  0  0  0
  6  1  1  1  0  0  0
  7  4  1  0  0  0  0
  8  9  1  0  0  0  0
  8  7  1  0  0  0  0
 10 12  1  0  0  0  0
 10  8  2  0  0  0  0
 11 10  1  0  0  0  0
 12  6  1  0  0  0  0
 13 12  1  0  0  0  0
 13 16  1  0  0  0  0
 14 13  1  0  0  0  0
 15 13  1  0  0  0  0
 17  2  1  6  0  0  0
 17 23  1  0  0  0  0
 18 19  1  0  0  0  0
 18 17  1  0  0  0  0
 19 21  2  0  0  0  0
 20 19  1  0  0  0  0
 21 22  1  0  0  0  0
 21 23  1  0  0  0  0
 23 24  1  0  0  0  0
 24 27  1  0  0  0  0
 24 25  1  0  0  0  0
 26 24  1  0  0  0  0
 28  3  2  0  0  0  0
 29 28  1  0  0  0  0
 29  4  1  0  0  0  0
 30 29  1  0  0  0  0
 31 30  1  0  0  0  0
 32 30  2  0  0  0  0
 32 34  1  0  0  0  0
 33 32  1  0  0  0  0
 34 28  1  0  0  0  0
 35 34  1  0  0  0  0
 35 38  1  0  0  0  0
 36 35  1  0  0  0  0
 37 35  1  0  0  0  0
M  END
