1,2
 OpenBabel05122313063D

 19 18  0  0  0  0  0  0  0  0999 V2000
   -2.1444    1.8471   -0.0908 S   0  0  0  0  0  0  0  0  0  0  0  0
   -2.1446   -1.8468   -0.0909 S   0  0  0  0  0  0  0  0  0  0  0  0
   -3.7726    1.3059   -0.7430 C   0  0  0  0  0  0  0  0  0  0  0  0
   -4.3731    0.0003   -0.2145 C   0  0  0  0  0  0  0  0  0  0  0  0
   -3.7727   -1.3052   -0.7433 C   0  0  0  0  0  0  0  0  0  0  0  0
   -2.5620    2.1230    1.6609 C   0  0  0  0  0  0  0  0  0  0  0  0
   -2.5625   -2.1230    1.6606 C   0  0  0  0  0  0  0  0  0  0  0  0
   -4.4716    2.1485   -0.5597 H   0  0  0  0  0  0  0  0  0  0  0  0
   -3.6135    1.2515   -1.8401 H   0  0  0  0  0  0  0  0  0  0  0  0
   -4.3899    0.0001    0.8963 H   0  0  0  0  0  0  0  0  0  0  0  0
   -5.4451    0.0004   -0.5124 H   0  0  0  0  0  0  0  0  0  0  0  0
   -3.6134   -1.2505   -1.8404 H   0  0  0  0  0  0  0  0  0  0  0  0
   -4.4718   -2.1479   -0.5603 H   0  0  0  0  0  0  0  0  0  0  0  0
   -2.8798    1.1881    2.1600 H   0  0  0  0  0  0  0  0  0  0  0  0
   -3.3483    2.8991    1.7482 H   0  0  0  0  0  0  0  0  0  0  0  0
   -1.6305    2.4793    2.1378 H   0  0  0  0  0  0  0  0  0  0  0  0
   -1.6313   -2.4800    2.1375 H   0  0  0  0  0  0  0  0  0  0  0  0
   -3.3492   -2.8987    1.7476 H   0  0  0  0  0  0  0  0  0  0  0  0
   -2.8798   -1.1880    2.1599 H   0  0  0  0  0  0  0  0  0  0  0  0
  1  6  1  0  0  0  0
  2  7  1  0  0  0  0
  3  8  1  0  0  0  0
  3  4  1  0  0  0  0
  3  1  1  0  0  0  0
  4 10  1  0  0  0  0
  5 13  1  0  0  0  0
  5  4  1  0  0  0  0
  5  2  1  0  0  0  0
  6 15  1  0  0  0  0
  6 16  1  0  0  0  0
  6 14  1  0  0  0  0
  7 18  1  0  0  0  0
  7 17  1  0  0  0  0
  7 19  1  0  0  0  0
  9  3  1  0  0  0  0
 11  4  1  0  0  0  0
 12  5  1  0  0  0  0
M  END
