1,2
 OpenBabel05122313063D

 20 19  0  0  1  0  0  0  0  0999 V2000
    0.8456   -1.9995   -0.2582 S   0  0  0  0  0  1  0  0  0  0  0  0
    1.8555    1.0602   -0.4561 S   0  0  0  0  0  1  0  0  0  0  0  0
    3.4589   -1.1241    0.2644 N   0  0  0  0  0  0  0  0  0  0  0  0
    2.5347   -2.0772    0.1405 C   0  0  0  0  0  0  0  0  0  0  0  0
    3.2806    0.1725    0.0094 C   0  0  1  0  0  3  0  0  0  0  0  0
    3.0004   -3.3437    0.3219 N   0  0  0  0  0  0  0  0  0  0  0  0
    4.3971    0.9520    0.0867 N   0  0  0  0  0  0  0  0  0  0  0  0
    5.7646    0.4524    0.2207 C   0  0  0  0  0  0  0  0  0  0  0  0
    6.3228   -0.0237   -1.1273 C   0  0  0  0  0  0  0  0  0  0  0  0
    6.6293    1.5337    0.8694 C   0  0  0  0  0  0  0  0  0  0  0  0
    2.3606   -4.1349    0.2964 H   0  0  0  0  0  0  0  0  0  0  0  0
    3.9997   -3.4783    0.4729 H   0  0  0  0  0  0  0  0  0  0  0  0
    4.2591    1.9433   -0.1237 H   0  0  0  0  0  0  0  0  0  0  0  0
    5.6971   -0.4252    0.8959 H   0  0  0  0  0  0  0  0  0  0  0  0
    6.3763    0.8140   -1.8535 H   0  0  0  0  0  0  0  0  0  0  0  0
    5.6730   -0.8136   -1.5518 H   0  0  0  0  0  0  0  0  0  0  0  0
    7.3437   -0.4402   -1.0062 H   0  0  0  0  0  0  0  0  0  0  0  0
    7.6628    1.1657    1.0213 H   0  0  0  0  0  0  0  0  0  0  0  0
    6.2197    1.8383    1.8527 H   0  0  0  0  0  0  0  0  0  0  0  0
    6.6915    2.4364    0.2239 H   0  0  0  0  0  0  0  0  0  0  0  0
  1  4  1  0  0  0  0
  4  3  2  0  0  0  0
  4  6  1  0  0  0  0
  5  2  1  6  0  0  0
  5  7  1  0  0  0  0
  5  3  1  0  0  0  0
  6 12  1  0  0  0  0
  7  8  1  0  0  0  0
  8 10  1  0  0  0  0
  8 14  1  0  0  0  0
  9 17  1  0  0  0  0
  9  8  1  0  0  0  0
 10 18  1  0  0  0  0
 10 19  1  0  0  0  0
 11  6  1  0  0  0  0
 13  7  1  0  0  0  0
 15  9  1  0  0  0  0
 16  9  1  0  0  0  0
 20 10  1  0  0  0  0
M  END
