1,2
 OpenBabel05122313063D

 29 29  0  0  0  0  0  0  0  0999 V2000
    2.4505   -1.5820    0.5382 S   0  0  0  0  0  1  0  0  0  0  0  0
    1.8207    0.6131   -1.4549 S   0  0  0  0  0  1  0  0  0  0  0  0
    3.7710    3.1289   -0.4425 N   0  0  0  0  0  0  0  0  0  0  0  0
    2.8265    2.7788   -0.6473 H   0  0  0  0  0  0  0  0  0  0  0  0
    4.2833    0.0227   -0.5434 N   0  0  0  0  0  0  0  0  0  0  0  0
    4.1144    4.2877    0.2074 C   0  0  0  0  0  0  0  0  0  0  0  0
    3.3511    4.9964    0.5462 H   0  0  0  0  0  0  0  0  0  0  0  0
    4.8156    1.0821   -1.4348 C   0  0  0  0  0  0  0  0  0  0  0  0
    5.8251    0.7642   -1.7592 H   0  0  0  0  0  0  0  0  0  0  0  0
    4.1567    1.1119   -2.3265 H   0  0  0  0  0  0  0  0  0  0  0  0
    5.2606   -0.6242    0.3374 C   0  0  0  0  0  0  0  0  0  0  0  0
    4.7421   -0.8936    1.2791 H   0  0  0  0  0  0  0  0  0  0  0  0
    6.0228    0.1423    0.5942 H   0  0  0  0  0  0  0  0  0  0  0  0
    6.0050    3.1420   -0.3073 C   0  0  0  0  0  0  0  0  0  0  0  0
    7.0550    2.8464   -0.4189 H   0  0  0  0  0  0  0  0  0  0  0  0
    2.9670   -0.2671   -0.5077 C   0  0  0  0  0  3  0  0  0  0  0  0
    5.5040    4.3303    0.3033 C   0  0  0  0  0  0  0  0  0  0  0  0
    6.0911    5.1350    0.7596 H   0  0  0  0  0  0  0  0  0  0  0  0
    4.9050    2.4125   -0.7656 C   0  0  0  0  0  0  0  0  0  0  0  0
    5.9117   -1.8582   -0.2970 C   0  0  0  0  0  0  0  0  0  0  0  0
    5.1080   -2.5768   -0.5674 H   0  0  0  0  0  0  0  0  0  0  0  0
    6.4031   -1.5588   -1.2480 H   0  0  0  0  0  0  0  0  0  0  0  0
    6.9353   -2.5426    0.6190 C   0  0  0  0  0  0  0  0  0  0  0  0
    7.4468   -3.3370    0.0351 H   0  0  0  0  0  0  0  0  0  0  0  0
    7.7306   -1.8132    0.8924 H   0  0  0  0  0  0  0  0  0  0  0  0
    6.3357   -3.1551    1.8881 C   0  0  0  0  0  0  0  0  0  0  0  0
    7.1034   -3.7016    2.4715 H   0  0  0  0  0  0  0  0  0  0  0  0
    5.9010   -2.3878    2.5608 H   0  0  0  0  0  0  0  0  0  0  0  0
    5.5249   -3.8719    1.6420 H   0  0  0  0  0  0  0  0  0  0  0  0
  2 16  1  0  0  0  0
  3  6  1  0  0  0  0
  4  3  1  0  0  0  0
  5 16  1  0  0  0  0
  5 11  1  0  0  0  0
  6 17  2  0  0  0  0
  6  7  1  0  0  0  0
  8 19  1  0  0  0  0
  8  5  1  0  0  0  0
  9  8  1  0  0  0  0
 10  8  1  0  0  0  0
 11 13  1  0  0  0  0
 11 12  1  0  0  0  0
 14 17  1  0  0  0  0
 15 14  1  0  0  0  0
 16  1  1  0  0  0  0
 17 18  1  0  0  0  0
 19  3  1  0  0  0  0
 19 14  2  0  0  0  0
 20 11  1  0  0  0  0
 20 23  1  0  0  0  0
 21 20  1  0  0  0  0
 22 20  1  0  0  0  0
 23 25  1  0  0  0  0
 23 26  1  0  0  0  0
 24 23  1  0  0  0  0
 26 27  1  0  0  0  0
 26 28  1  0  0  0  0
 29 26  1  0  0  0  0
M  END
