1,2
 OpenBabel05122313063D

 15 14  0  0  0  0  0  0  0  0999 V2000
   -1.4472    1.6901   -0.2921 S   0  0  0  0  0  1  0  0  0  0  0  0
   -1.9473   -1.0750    0.2858 S   0  0  0  0  0  1  0  0  0  0  0  0
   -3.9598    0.7271    0.0006 N   0  0  0  0  0  0  0  0  0  0  0  0
   -2.6393    0.4785   -0.0037 C   0  0  0  0  0  3  0  0  0  0  0  0
   -5.0052   -0.2858    0.1811 C   0  0  0  0  0  0  0  0  0  0  0  0
   -4.5770   -1.0323    0.8855 H   0  0  0  0  0  0  0  0  0  0  0  0
   -6.2307    0.3641    0.8224 C   0  0  0  0  0  0  0  0  0  0  0  0
   -5.9748    0.8411    1.7889 H   0  0  0  0  0  0  0  0  0  0  0  0
   -7.0163   -0.3942    1.0064 H   0  0  0  0  0  0  0  0  0  0  0  0
   -6.6670    1.1373    0.1540 H   0  0  0  0  0  0  0  0  0  0  0  0
   -5.3218   -0.9943   -1.1417 C   0  0  0  0  0  0  0  0  0  0  0  0
   -4.4030   -1.4493   -1.5606 H   0  0  0  0  0  0  0  0  0  0  0  0
   -5.7355   -0.2812   -1.8845 H   0  0  0  0  0  0  0  0  0  0  0  0
   -6.0669   -1.7994   -0.9827 H   0  0  0  0  0  0  0  0  0  0  0  0
   -4.2454    1.6816   -0.2394 H   0  0  0  0  0  0  0  0  0  0  0  0
  1  4  1  0  0  0  0
  3  5  1  0  0  0  0
  4  3  1  0  0  0  0
  4  2  1  0  0  0  0
  5  7  1  0  0  0  0
  5  6  1  0  0  0  0
  7  9  1  0  0  0  0
  7  8  1  0  0  0  0
 10  7  1  0  0  0  0
 11 14  1  0  0  0  0
 11  5  1  0  0  0  0
 12 11  1  0  0  0  0
 13 11  1  0  0  0  0
 15  3  1  0  0  0  0
M  END
