1,2
 OpenBabel05122313063D

 17 16  0  0  0  0  0  0  0  0999 V2000
   -0.9988   -2.2651   -0.0699 S   0  0  0  0  0  1  0  0  0  0  0  0
   -2.0704    0.4052    0.0417 S   0  0  0  0  0  1  0  0  0  0  0  0
   -3.9771   -2.0377   -0.0412 S   0  0  0  0  0  0  0  0  0  0  0  0
   -5.4527   -0.3855    0.0092 Si  0  0  0  0  0  0  0  0  0  0  0  0
   -2.3957   -1.2783   -0.0222 C   0  0  0  0  0  3  0  0  0  0  0  0
   -5.3072    0.5855    1.6162 C   0  0  0  0  0  0  0  0  0  0  0  0
   -5.4409   -0.0859    2.4877 H   0  0  0  0  0  0  0  0  0  0  0  0
   -6.0912    1.3711    1.6541 H   0  0  0  0  0  0  0  0  0  0  0  0
   -4.3139    1.0688    1.6931 H   0  0  0  0  0  0  0  0  0  0  0  0
   -7.0659   -1.3677   -0.0263 C   0  0  0  0  0  0  0  0  0  0  0  0
   -7.1483   -1.9809   -0.9461 H   0  0  0  0  0  0  0  0  0  0  0  0
   -7.9268   -0.6669   -0.0041 H   0  0  0  0  0  0  0  0  0  0  0  0
   -7.1511   -2.0410    0.8502 H   0  0  0  0  0  0  0  0  0  0  0  0
   -5.2970    0.6877   -1.5302 C   0  0  0  0  0  0  0  0  0  0  0  0
   -4.3015    1.1709   -1.5703 H   0  0  0  0  0  0  0  0  0  0  0  0
   -6.0778    1.4772   -1.5197 H   0  0  0  0  0  0  0  0  0  0  0  0
   -5.4293    0.0752   -2.4442 H   0  0  0  0  0  0  0  0  0  0  0  0
  1  5  1  0  0  0  0
  3  5  1  0  0  0  0
  3  4  1  0  0  0  0
  4  6  1  0  0  0  0
  5  2  1  0  0  0  0
  6  8  1  0  0  0  0
  6  9  1  0  0  0  0
  6  7  1  0  0  0  0
 10 12  1  0  0  0  0
 10  4  1  0  0  0  0
 10 13  1  0  0  0  0
 11 10  1  0  0  0  0
 14 16  1  0  0  0  0
 14  4  1  0  0  0  0
 15 14  1  0  0  0  0
 17 14  1  0  0  0  0
M  END
