1,2
 OpenBabel05122313063D

 21 21  0  0  0  0  0  0  0  0999 V2000
    1.3092    0.8953    1.2027 S   0  0  0  0  0  3  0  0  0  0  0  0
    1.7994   -0.6382   -1.5447 S   0  0  0  0  0  0  0  0  0  0  0  0
    0.8971    1.5084    2.5351 O   0  0  0  0  0  1  0  0  0  0  0  0
    2.9150    0.0728    1.6128 C   0  0  0  0  0  0  0  0  0  0  0  0
    3.8324   -0.2931    0.4525 C   0  0  0  0  0  0  0  0  0  0  0  0
    3.2649   -1.2378   -0.6043 C   0  0  0  0  0  0  0  0  0  0  0  0
    2.3996    1.0438   -2.0536 C   0  0  0  0  0  0  0  0  0  0  0  0
    1.8428    2.2522   -1.2999 C   0  0  0  0  0  0  0  0  0  0  0  0
    1.9966    2.3257    0.2126 C   0  0  0  0  0  0  0  0  0  0  0  0
    2.5823   -0.8199    2.1774 H   0  0  0  0  0  0  0  0  0  0  0  0
    3.3744    0.8159    2.2947 H   0  0  0  0  0  0  0  0  0  0  0  0
    4.7223   -0.7939    0.8943 H   0  0  0  0  0  0  0  0  0  0  0  0
    4.2330    0.6251   -0.0288 H   0  0  0  0  0  0  0  0  0  0  0  0
    4.0333   -1.4852   -1.3641 H   0  0  0  0  0  0  0  0  0  0  0  0
    2.8834   -2.1723   -0.1432 H   0  0  0  0  0  0  0  0  0  0  0  0
    2.0832    1.1227   -3.1114 H   0  0  0  0  0  0  0  0  0  0  0  0
    3.5074    0.9926   -2.0368 H   0  0  0  0  0  0  0  0  0  0  0  0
    2.3280    3.1570   -1.7290 H   0  0  0  0  0  0  0  0  0  0  0  0
    0.7757    2.3300   -1.5799 H   0  0  0  0  0  0  0  0  0  0  0  0
    3.0440    2.4518    0.5552 H   0  0  0  0  0  0  0  0  0  0  0  0
    1.4128    3.1725    0.6246 H   0  0  0  0  0  0  0  0  0  0  0  0
  1  4  1  0  0  0  0
  1  3  1  0  0  0  0
  2  6  1  0  0  0  0
  4 10  1  0  0  0  0
  4 11  1  0  0  0  0
  5 12  1  0  0  0  0
  5  4  1  0  0  0  0
  6 15  1  0  0  0  0
  6  5  1  0  0  0  0
  7 17  1  0  0  0  0
  7  2  1  0  0  0  0
  7  8  1  0  0  0  0
  8  9  1  0  0  0  0
  9 20  1  0  0  0  0
  9 21  1  0  0  0  0
  9  1  1  0  0  0  0
 13  5  1  0  0  0  0
 14  6  1  0  0  0  0
 16  7  1  0  0  0  0
 18  8  1  0  0  0  0
 19  8  1  0  0  0  0
M  END
