1,2
 OpenBabel05122313063D

 22 22  0  0  1  0  0  0  0  0999 V2000
   -0.2618   -1.5862    0.0564 S   0  0  0  0  0  1  0  0  0  0  0  0
    0.0210    1.2650    0.4860 S   0  0  0  0  0  1  0  0  0  0  0  0
    2.1150   -0.4446    0.6873 N   0  0  0  0  0  0  0  0  0  0  0  0
    3.0211    0.6858    0.8815 C   0  0  0  0  0  0  0  0  0  0  0  0
    3.6126    0.5016    1.8073 H   0  0  0  0  0  0  0  0  0  0  0  0
    2.4179    1.6001    1.0445 H   0  0  0  0  0  0  0  0  0  0  0  0
    3.9687    0.8441   -0.3213 C   0  0  2  0  0  0  0  0  0  0  0  0
    3.3257    1.0653   -1.2034 H   0  0  0  0  0  0  0  0  0  0  0  0
    4.6998   -0.4850   -0.5800 C   0  0  0  0  0  0  0  0  0  0  0  0
    5.3266   -0.4003   -1.4922 H   0  0  0  0  0  0  0  0  0  0  0  0
    5.4019   -0.6743    0.2646 H   0  0  0  0  0  0  0  0  0  0  0  0
    3.7253   -1.6627   -0.7065 C   0  0  0  0  0  0  0  0  0  0  0  0
    3.1065   -1.5505   -1.6226 H   0  0  0  0  0  0  0  0  0  0  0  0
    4.2734   -2.6226   -0.8014 H   0  0  0  0  0  0  0  0  0  0  0  0
    2.7875   -1.7316    0.5042 C   0  0  0  0  0  0  0  0  0  0  0  0
    2.0183   -2.5191    0.3891 H   0  0  0  0  0  0  0  0  0  0  0  0
    3.3629   -1.9516    1.4311 H   0  0  0  0  0  0  0  0  0  0  0  0
    4.9323    2.0111   -0.1067 C   0  0  0  0  0  0  0  0  0  0  0  0
    4.3889    2.9655    0.0460 H   0  0  0  0  0  0  0  0  0  0  0  0
    5.6017    2.1391   -0.9807 H   0  0  0  0  0  0  0  0  0  0  0  0
    5.5741    1.8404    0.7836 H   0  0  0  0  0  0  0  0  0  0  0  0
    0.7981   -0.2776    0.4424 C   0  0  0  0  0  3  0  0  0  0  0  0
  1 22  1  0  0  0  0
  3  4  1  0  0  0  0
  4  6  1  0  0  0  0
  4  5  1  0  0  0  0
  7  8  1  6  0  0  0
  7 18  1  0  0  0  0
  7  4  1  0  0  0  0
  9  7  1  0  0  0  0
  9 11  1  0  0  0  0
 10  9  1  0  0  0  0
 12  9  1  0  0  0  0
 12 15  1  0  0  0  0
 13 12  1  0  0  0  0
 14 12  1  0  0  0  0
 15  3  1  0  0  0  0
 15 17  1  0  0  0  0
 16 15  1  0  0  0  0
 18 19  1  0  0  0  0
 18 21  1  0  0  0  0
 20 18  1  0  0  0  0
 22  2  1  0  0  0  0
 22  3  1  0  0  0  0
M  END
