1,2
 OpenBabel05122313063D

 23 23  0  0  1  0  0  0  0  0999 V2000
    2.1356   -1.7870    0.1680 S   0  0  0  0  0  1  0  0  0  0  0  0
    1.1742    1.4840   -0.5570 S   0  0  0  0  0  1  0  0  0  0  0  0
    4.3250   -0.6328   -0.7976 N   0  0  0  0  0  0  0  0  0  0  0  0
    3.4847    1.7538    0.7559 N   0  0  0  0  0  0  0  0  0  0  0  0
    3.1222   -0.4567   -0.2289 C   0  0  1  0  0  3  0  0  0  0  0  0
    2.6622    0.9580    0.0489 C   0  0  2  0  0  3  0  0  0  0  0  0
    4.7762    1.2473    1.2529 C   0  0  0  0  0  0  0  0  0  0  0  0
    5.8178    1.1373    0.1315 C   0  0  0  0  0  0  0  0  0  0  0  0
    5.1769    0.5274   -1.1215 C   0  0  0  0  0  0  0  0  0  0  0  0
    4.8177   -1.9845   -1.0641 C   0  0  0  0  0  0  0  0  0  0  0  0
    3.1167    3.1490    0.9926 C   0  0  0  0  0  0  0  0  0  0  0  0
    4.5980    0.2554    1.7163 H   0  0  0  0  0  0  0  0  0  0  0  0
    5.1212    1.9182    2.0602 H   0  0  0  0  0  0  0  0  0  0  0  0
    6.6648    0.5208    0.4956 H   0  0  0  0  0  0  0  0  0  0  0  0
    6.2324    2.1306   -0.1363 H   0  0  0  0  0  0  0  0  0  0  0  0
    4.5449    1.2773   -1.6398 H   0  0  0  0  0  0  0  0  0  0  0  0
    5.9417    0.1969   -1.8470 H   0  0  0  0  0  0  0  0  0  0  0  0
    5.0302   -2.5214   -0.1162 H   0  0  0  0  0  0  0  0  0  0  0  0
    5.7375   -1.9235   -1.6706 H   0  0  0  0  0  0  0  0  0  0  0  0
    4.0419   -2.5620   -1.6083 H   0  0  0  0  0  0  0  0  0  0  0  0
    3.1510    3.7330    0.0494 H   0  0  0  0  0  0  0  0  0  0  0  0
    3.8119    3.5875    1.7291 H   0  0  0  0  0  0  0  0  0  0  0  0
    2.0752    3.1974    1.3717 H   0  0  0  0  0  0  0  0  0  0  0  0
  3  5  1  0  0  0  0
  4 11  1  0  0  0  0
  4  7  1  0  0  0  0
  5  6  1  0  0  0  0
  5  1  1  6  0  0  0
  6  2  1  6  0  0  0
  6  4  1  0  0  0  0
  7 12  1  0  0  0  0
  7 13  1  0  0  0  0
  8 14  1  0  0  0  0
  8  7  1  0  0  0  0
  9  3  1  0  0  0  0
  9  8  1  0  0  0  0
 10  3  1  0  0  0  0
 10 18  1  0  0  0  0
 11 23  1  0  0  0  0
 11 22  1  0  0  0  0
 15  8  1  0  0  0  0
 16  9  1  0  0  0  0
 17  9  1  0  0  0  0
 19 10  1  0  0  0  0
 20 10  1  0  0  0  0
 21 11  1  0  0  0  0
M  END
