1,2
 OpenBabel05122313063D

 18 18  0  0  0  0  0  0  0  0999 V2000
   -1.3957    0.4884    1.6502 S   0  0  0  0  0  5  0  0  0  0  0  0
   -0.8107    1.9460   -1.1941 S   0  0  0  0  0  0  0  0  0  0  0  0
   -1.1021    1.7022    2.5296 O   0  0  0  0  0  0  0  0  0  0  0  0
   -1.9954   -0.7002    2.3529 O   0  0  0  0  0  0  0  0  0  0  0  0
   -2.7818    1.1237    0.5968 C   0  0  0  0  0  0  0  0  0  0  0  0
   -4.0991    0.9417    1.0306 C   0  0  0  0  0  0  0  0  0  0  0  0
   -4.2628    0.3708    1.9587 H   0  0  0  0  0  0  0  0  0  0  0  0
   -5.1550    1.4565    0.2636 C   0  0  0  0  0  0  0  0  0  0  0  0
   -6.1950    1.3126    0.5950 H   0  0  0  0  0  0  0  0  0  0  0  0
   -4.8918    2.1429   -0.9357 C   0  0  0  0  0  0  0  0  0  0  0  0
   -5.7221    2.5378   -1.5403 H   0  0  0  0  0  0  0  0  0  0  0  0
   -3.5695    2.3123   -1.3769 C   0  0  0  0  0  0  0  0  0  0  0  0
   -3.3505    2.8283   -2.3246 H   0  0  0  0  0  0  0  0  0  0  0  0
   -2.5158    1.8016   -0.5991 C   0  0  0  0  0  0  0  0  0  0  0  0
   -0.3039    3.4467   -0.2704 C   0  0  0  0  0  0  0  0  0  0  0  0
   -0.8870    4.3070   -0.6470 H   0  0  0  0  0  0  0  0  0  0  0  0
    0.7732    3.5982   -0.4704 H   0  0  0  0  0  0  0  0  0  0  0  0
   -0.4859    3.2699    0.8080 H   0  0  0  0  0  0  0  0  0  0  0  0
  1  4  2  0  0  0  0
  1  3  2  0  0  0  0
  2 14  1  0  0  0  0
  2 15  1  0  0  0  0
  5  6  1  0  0  0  0
  5  1  1  0  0  0  0
  6  7  1  0  0  0  0
  8  9  1  0  0  0  0
  8  6  2  0  0  0  0
 10  8  1  0  0  0  0
 11 10  1  0  0  0  0
 12 10  2  0  0  0  0
 12 14  1  0  0  0  0
 13 12  1  0  0  0  0
 14  5  2  0  0  0  0
 15 18  1  0  0  0  0
 16 15  1  0  0  0  0
 17 15  1  0  0  0  0
M  END
