1,3
 OpenBabel05122313063D

 15 14  0  0  0  0  0  0  0  0999 V2000
    0.0113    2.2804   -0.1322 S   0  0  0  0  0  1  0  0  0  0  0  0
    1.9100    0.0578    0.8228 S   0  0  0  0  0  0  0  0  0  0  0  0
    0.3009   -1.4937   -1.5052 S   0  0  0  0  0  1  0  0  0  0  0  0
    1.8376    2.5371   -0.0783 C   0  0  0  0  0  0  0  0  0  0  0  0
    2.5933    1.2532   -0.3807 C   0  0  0  0  0  0  0  0  0  0  0  0
    2.5115   -1.5556    0.2204 C   0  0  0  0  0  0  0  0  0  0  0  0
    2.0918   -1.8096   -1.2135 C   0  0  0  0  0  0  0  0  0  0  0  0
    2.0772    3.3203   -0.8259 H   0  0  0  0  0  0  0  0  0  0  0  0
    2.1117    2.9314    0.9227 H   0  0  0  0  0  0  0  0  0  0  0  0
    3.6894    1.3562   -0.2339 H   0  0  0  0  0  0  0  0  0  0  0  0
    2.3752    0.9060   -1.4103 H   0  0  0  0  0  0  0  0  0  0  0  0
    3.6113   -1.6098    0.3668 H   0  0  0  0  0  0  0  0  0  0  0  0
    2.0234   -2.2655    0.9182 H   0  0  0  0  0  0  0  0  0  0  0  0
    2.2767   -2.8709   -1.4814 H   0  0  0  0  0  0  0  0  0  0  0  0
    2.6832   -1.1939   -1.9233 H   0  0  0  0  0  0  0  0  0  0  0  0
  1  4  1  0  0  0  0
  3  7  1  0  0  0  0
  4  9  1  0  0  0  0
  5 10  1  0  0  0  0
  5  4  1  0  0  0  0
  5  2  1  0  0  0  0
  6 12  1  0  0  0  0
  6  2  1  0  0  0  0
  6 13  1  0  0  0  0
  7  6  1  0  0  0  0
  8  4  1  0  0  0  0
 11  5  1  0  0  0  0
 14  7  1  0  0  0  0
 15  7  1  0  0  0  0
M  END
