1,2
 OpenBabel05122313063D

 30 31  0  0  0  0  0  0  0  0999 V2000
   -1.7785    1.1863   -0.0598 S   0  0  0  0  0  1  0  0  0  0  0  0
   -1.2105   -1.8324    0.0919 S   0  0  0  0  0  1  0  0  0  0  0  0
   -8.2727    2.3537   -0.7064 O   0  0  0  0  0  0  0  0  0  0  0  0
   -3.1161    0.0873   -0.0406 C   0  0  0  0  0  0  0  0  0  0  0  0
   -2.8529   -1.2933    0.0600 C   0  0  0  0  0  0  0  0  0  0  0  0
   -3.8897   -2.3397    0.2060 C   0  0  0  0  0  0  0  0  0  0  0  0
   -4.9703   -2.1709    1.1047 C   0  0  0  0  0  0  0  0  0  0  0  0
   -5.0405   -1.2460    1.6945 H   0  0  0  0  0  0  0  0  0  0  0  0
   -5.9336   -3.1753    1.2550 C   0  0  0  0  0  0  0  0  0  0  0  0
   -6.7640   -3.0298    1.9626 H   0  0  0  0  0  0  0  0  0  0  0  0
   -5.8396   -4.3658    0.5147 C   0  0  0  0  0  0  0  0  0  0  0  0
   -6.6009   -5.1518    0.6324 H   0  0  0  0  0  0  0  0  0  0  0  0
   -4.7664   -4.5494   -0.3718 C   0  0  0  0  0  0  0  0  0  0  0  0
   -4.6839   -5.4794   -0.9545 H   0  0  0  0  0  0  0  0  0  0  0  0
   -3.7976   -3.5485   -0.5228 C   0  0  0  0  0  0  0  0  0  0  0  0
   -2.9576   -3.6868   -1.2201 H   0  0  0  0  0  0  0  0  0  0  0  0
   -4.8038    1.8662    0.4992 C   0  0  0  0  0  0  0  0  0  0  0  0
   -4.0625    2.3271    1.1692 H   0  0  0  0  0  0  0  0  0  0  0  0
   -4.4602    0.6797   -0.1851 C   0  0  0  0  0  0  0  0  0  0  0  0
   -5.4327    0.1060   -1.0454 C   0  0  0  0  0  0  0  0  0  0  0  0
   -5.1849   -0.8025   -1.6120 H   0  0  0  0  0  0  0  0  0  0  0  0
   -6.6878    0.6875   -1.1998 C   0  0  0  0  0  0  0  0  0  0  0  0
   -7.4399    0.2519   -1.8731 H   0  0  0  0  0  0  0  0  0  0  0  0
   -7.0219    1.8676   -0.4961 C   0  0  0  0  0  0  0  0  0  0  0  0
   -6.0656    2.4577    0.3571 C   0  0  0  0  0  0  0  0  0  0  0  0
   -6.2946    3.3730    0.9187 H   0  0  0  0  0  0  0  0  0  0  0  0
   -8.6556    3.5436   -0.0415 C   0  0  0  0  0  0  0  0  0  0  0  0
   -9.6932    3.7584   -0.3571 H   0  0  0  0  0  0  0  0  0  0  0  0
   -8.0061    4.4025   -0.3230 H   0  0  0  0  0  0  0  0  0  0  0  0
   -8.6312    3.4262    1.0651 H   0  0  0  0  0  0  0  0  0  0  0  0
  1  4  1  0  0  0  0
  3 24  1  0  0  0  0
  3 27  1  0  0  0  0
  4  5  2  0  0  0  0
  5  2  1  0  0  0  0
  5  6  1  0  0  0  0
  6  7  1  0  0  0  0
  7  9  2  0  0  0  0
  7  8  1  0  0  0  0
  9 10  1  0  0  0  0
 11 12  1  0  0  0  0
 11  9  1  0  0  0  0
 13 11  2  0  0  0  0
 14 13  1  0  0  0  0
 15 13  1  0  0  0  0
 15  6  2  0  0  0  0
 16 15  1  0  0  0  0
 17 18  1  0  0  0  0
 19  4  1  0  0  0  0
 19 17  2  0  0  0  0
 20 19  1  0  0  0  0
 21 20  1  0  0  0  0
 22 20  2  0  0  0  0
 22 24  1  0  0  0  0
 23 22  1  0  0  0  0
 24 25  2  0  0  0  0
 25 17  1  0  0  0  0
 25 26  1  0  0  0  0
 27 30  1  0  0  0  0
 28 27  1  0  0  0  0
 29 27  1  0  0  0  0
M  END
