1,2
 OpenBabel05122313063D

 28 29  0  0  0  0  0  0  0  0999 V2000
   -1.6519   -1.2889    0.9423 S   0  0  0  0  0  1  0  0  0  0  0  0
   -1.9231    0.2108   -1.6394 S   0  0  0  0  0  1  0  0  0  0  0  0
   -3.7380   -1.5466   -0.7305 N   0  0  0  0  0  0  0  0  0  0  0  0
   -6.5633   -1.4386   -0.3707 N   0  0  0  0  0  0  0  0  0  0  0  0
   -2.5459   -0.9229   -0.4976 C   0  0  0  0  0  3  0  0  0  0  0  0
   -5.6924   -1.8136    0.7340 C   0  0  0  0  0  0  0  0  0  0  0  0
   -6.2093   -2.5638    1.3633 H   0  0  0  0  0  0  0  0  0  0  0  0
   -5.4449   -0.9373    1.3872 H   0  0  0  0  0  0  0  0  0  0  0  0
   -7.9348   -1.2590   -0.1303 C   0  0  0  0  0  0  0  0  0  0  0  0
   -5.8983   -0.5984   -1.3663 C   0  0  0  0  0  0  0  0  0  0  0  0
   -5.6554    0.4059   -0.9350 H   0  0  0  0  0  0  0  0  0  0  0  0
   -6.5690   -0.4315   -2.2279 H   0  0  0  0  0  0  0  0  0  0  0  0
   -4.3876   -2.4337    0.2245 C   0  0  0  0  0  0  0  0  0  0  0  0
   -3.6914   -2.6198    1.0637 H   0  0  0  0  0  0  0  0  0  0  0  0
   -4.6092   -3.3994   -0.2817 H   0  0  0  0  0  0  0  0  0  0  0  0
   -8.4838   -1.3400    1.1759 C   0  0  0  0  0  0  0  0  0  0  0  0
   -7.8296   -1.4921    2.0441 H   0  0  0  0  0  0  0  0  0  0  0  0
   -4.6015   -1.2370   -1.8629 C   0  0  0  0  0  0  0  0  0  0  0  0
   -4.8295   -2.1806   -2.4068 H   0  0  0  0  0  0  0  0  0  0  0  0
   -4.0592   -0.5498   -2.5396 H   0  0  0  0  0  0  0  0  0  0  0  0
   -9.8638   -1.2082    1.3888 C   0  0  0  0  0  0  0  0  0  0  0  0
  -10.2522   -1.2773    2.4169 H   0  0  0  0  0  0  0  0  0  0  0  0
  -10.7412   -0.9737    0.3215 C   0  0  0  0  0  0  0  0  0  0  0  0
  -11.8219   -0.8662    0.4943 H   0  0  0  0  0  0  0  0  0  0  0  0
   -8.8357   -1.0177   -1.2020 C   0  0  0  0  0  0  0  0  0  0  0  0
   -8.4610   -0.9675   -2.2340 H   0  0  0  0  0  0  0  0  0  0  0  0
  -10.2083   -0.8776   -0.9753 C   0  0  0  0  0  0  0  0  0  0  0  0
  -10.8751   -0.7007   -1.8335 H   0  0  0  0  0  0  0  0  0  0  0  0
  2  5  1  0  0  0  0
  3  5  1  0  0  0  0
  3 13  1  0  0  0  0
  4  9  1  0  0  0  0
  4  6  1  0  0  0  0
  5  1  1  0  0  0  0
  6  7  1  0  0  0  0
  6  8  1  0  0  0  0
  9 16  1  0  0  0  0
 10 11  1  0  0  0  0
 10  4  1  0  0  0  0
 12 10  1  0  0  0  0
 13  6  1  0  0  0  0
 13 14  1  0  0  0  0
 15 13  1  0  0  0  0
 16 21  2  0  0  0  0
 16 17  1  0  0  0  0
 18 10  1  0  0  0  0
 18  3  1  0  0  0  0
 19 18  1  0  0  0  0
 20 18  1  0  0  0  0
 21 22  1  0  0  0  0
 23 24  1  0  0  0  0
 23 21  1  0  0  0  0
 25 27  1  0  0  0  0
 25  9  2  0  0  0  0
 26 25  1  0  0  0  0
 27 23  2  0  0  0  0
 28 27  1  0  0  0  0
M  END
