1,2
 OpenBabel05122313063D

 10 10  0  0  0  0  0  0  0  0999 V2000
   -1.6683   -1.7143    0.0001 S   0  0  0  0  0  1  0  0  0  0  0  0
   -1.6683    1.7143    0.0001 S   0  0  0  0  0  1  0  0  0  0  0  0
   -3.0686   -0.6868   -0.0000 C   0  0  0  0  0  0  0  0  0  0  0  0
   -3.0686    0.6867   -0.0000 C   0  0  0  0  0  0  0  0  0  0  0  0
   -4.4836   -1.1721   -0.0001 C   0  0  0  0  0  0  0  0  0  0  0  0
   -4.4836    1.1721   -0.0002 C   0  0  0  0  0  0  0  0  0  0  0  0
   -4.9245   -2.3111   -0.0001 O   0  0  0  0  0  0  0  0  0  0  0  0
   -4.9245    2.3111   -0.0001 O   0  0  0  0  0  0  0  0  0  0  0  0
   -5.2675    0.0000   -0.0004 N   0  0  0  0  0  0  0  0  0  0  0  0
   -6.2871   -0.0000   -0.0001 H   0  0  0  0  0  0  0  0  0  0  0  0
  3  4  2  0  0  0  0
  3  1  1  0  0  0  0
  4  2  1  0  0  0  0
  5  7  2  0  0  0  0
  5  3  1  0  0  0  0
  6  8  2  0  0  0  0
  6  4  1  0  0  0  0
  9  6  1  0  0  0  0
  9  5  1  0  0  0  0
  9 10  1  0  0  0  0
M  END
