1,2
 OpenBabel05122313063D

 17 16  0  0  0  0  0  0  0  0999 V2000
   -1.6798   -1.2253   -0.4254 S   0  0  0  0  0  1  0  0  0  0  0  0
   -1.9550    1.6362   -0.3231 S   0  0  0  0  0  1  0  0  0  0  0  0
   -8.6400    0.4745    1.7591 F   0  0  0  0  0  0  0  0  0  0  0  0
   -8.8861   -1.3002    0.5079 F   0  0  0  0  0  0  0  0  0  0  0  0
   -8.5921    0.6554   -0.4179 F   0  0  0  0  0  0  0  0  0  0  0  0
   -4.0622    0.0609   -0.5242 O   0  0  0  0  0  0  0  0  0  0  0  0
   -8.2142   -0.1254    0.6248 C   0  0  0  0  0  0  0  0  0  0  0  0
   -6.7157   -0.3429    0.6455 C   0  0  0  0  0  0  0  0  0  0  0  0
   -6.4826   -0.9432    1.5489 H   0  0  0  0  0  0  0  0  0  0  0  0
   -6.2351    0.6471    0.7753 H   0  0  0  0  0  0  0  0  0  0  0  0
   -6.1953   -1.0276   -0.6196 C   0  0  0  0  0  0  0  0  0  0  0  0
   -6.4737   -0.4268   -1.5097 H   0  0  0  0  0  0  0  0  0  0  0  0
   -6.6787   -2.0191   -0.7389 H   0  0  0  0  0  0  0  0  0  0  0  0
   -4.6942   -1.2396   -0.6049 C   0  0  0  0  0  0  0  0  0  0  0  0
   -4.3634   -1.8447    0.2675 H   0  0  0  0  0  0  0  0  0  0  0  0
   -4.3401   -1.7493   -1.5257 H   0  0  0  0  0  0  0  0  0  0  0  0
   -2.7404    0.1234   -0.4370 C   0  0  0  0  0  3  0  0  0  0  0  0
  4  7  1  0  0  0  0
  5  7  1  0  0  0  0
  6 17  1  0  0  0  0
  7  8  1  0  0  0  0
  7  3  1  0  0  0  0
  8 10  1  0  0  0  0
  8  9  1  0  0  0  0
 11 14  1  0  0  0  0
 11  8  1  0  0  0  0
 12 11  1  0  0  0  0
 13 11  1  0  0  0  0
 14  6  1  0  0  0  0
 14 15  1  0  0  0  0
 16 14  1  0  0  0  0
 17  1  1  0  0  0  0
 17  2  1  0  0  0  0
M  END
