1,2
 OpenBabel05122313063D

 31 32  0  0  0  0  0  0  0  0999 V2000
    1.7378   -1.3085   -0.9481 S   0  0  0  0  0  1  0  0  0  0  0  0
    1.8196    1.4872   -0.3261 S   0  0  0  0  0  1  0  0  0  0  0  0
    3.9449    0.2158   -1.4668 N   0  0  0  0  0  0  0  0  0  0  0  0
    2.6886    0.1402   -0.9834 C   0  0  0  0  0  3  0  0  0  0  0  0
    4.6687   -0.9921   -1.8979 C   0  0  0  0  0  0  0  0  0  0  0  0
    5.2329   -0.7322   -2.8167 H   0  0  0  0  0  0  0  0  0  0  0  0
    3.9026   -1.7458   -2.1729 H   0  0  0  0  0  0  0  0  0  0  0  0
    5.6085   -1.5288   -0.8349 C   0  0  0  0  0  0  0  0  0  0  0  0
    7.0000   -1.3630   -0.9568 C   0  0  0  0  0  0  0  0  0  0  0  0
    7.4141   -0.8837   -1.8579 H   0  0  0  0  0  0  0  0  0  0  0  0
    7.8621   -1.7756    0.0700 C   0  0  0  0  0  0  0  0  0  0  0  0
    8.9467   -1.6218   -0.0329 H   0  0  0  0  0  0  0  0  0  0  0  0
    7.3380   -2.3702    1.2280 C   0  0  0  0  0  0  0  0  0  0  0  0
    8.0122   -2.6911    2.0367 H   0  0  0  0  0  0  0  0  0  0  0  0
    5.9512   -2.5561    1.3501 C   0  0  0  0  0  0  0  0  0  0  0  0
    5.5351   -3.0295    2.2524 H   0  0  0  0  0  0  0  0  0  0  0  0
    5.0899   -2.1384    0.3260 C   0  0  0  0  0  0  0  0  0  0  0  0
    4.0011   -2.2709    0.4260 H   0  0  0  0  0  0  0  0  0  0  0  0
    4.6680    1.4899   -1.4853 C   0  0  0  0  0  0  0  0  0  0  0  0
    3.9078    2.2942   -1.3869 H   0  0  0  0  0  0  0  0  0  0  0  0
    5.1383    1.6036   -2.4851 H   0  0  0  0  0  0  0  0  0  0  0  0
    5.7224    1.6144   -0.4068 C   0  0  0  0  0  0  0  0  0  0  0  0
    7.0328    2.0159   -0.7262 C   0  0  0  0  0  0  0  0  0  0  0  0
    7.2866    2.2550   -1.7772 H   0  0  0  0  0  0  0  0  0  0  0  0
    8.0289    2.1202    0.1646 N   0  0  0  0  0  0  0  0  0  0  0  0
    7.7486    1.8141    1.4402 C   0  0  0  0  0  0  0  0  0  0  0  0
    8.5839    1.8907    2.1594 H   0  0  0  0  0  0  0  0  0  0  0  0
    6.4746    1.4109    1.8775 C   0  0  0  0  0  0  0  0  0  0  0  0
    6.2990    1.1708    2.9365 H   0  0  0  0  0  0  0  0  0  0  0  0
    5.4419    1.3154    0.9391 C   0  0  0  0  0  0  0  0  0  0  0  0
    4.4300    0.9994    1.2373 H   0  0  0  0  0  0  0  0  0  0  0  0
  3  4  1  0  0  0  0
  4  1  1  0  0  0  0
  4  2  1  0  0  0  0
  5  3  1  0  0  0  0
  5  8  1  0  0  0  0
  6  5  1  0  0  0  0
  7  5  1  0  0  0  0
  8 17  1  0  0  0  0
  9  8  2  0  0  0  0
  9 11  1  0  0  0  0
 10  9  1  0  0  0  0
 11 13  2  0  0  0  0
 12 11  1  0  0  0  0
 13 15  1  0  0  0  0
 13 14  1  0  0  0  0
 15 16  1  0  0  0  0
 17 18  1  0  0  0  0
 17 15  2  0  0  0  0
 19  3  1  0  0  0  0
 19 20  1  0  0  0  0
 19 22  1  0  0  0  0
 21 19  1  0  0  0  0
 22 30  1  0  0  0  0
 23 22  2  0  0  0  0
 23 25  1  0  0  0  0
 24 23  1  0  0  0  0
 25 26  2  0  0  0  0
 26 28  1  0  0  0  0
 26 27  1  0  0  0  0
 28 29  1  0  0  0  0
 30 31  1  0  0  0  0
 30 28  2  0  0  0  0
M  END
