1,2
q = -1.0, confidence = 0.014

 21 20  0  0  0  0  0  0  0  0999 V2000
    1.9158    0.6613   -1.8836 S   0  0  0  0  0  1  0  0  0  0  0  0
    2.6349   -0.4625    0.8384 S   0  0  0  0  0  1  0  0  0  0  0  0
    4.4044    0.1228   -1.0984 N   0  0  0  0  0  0  0  0  0  0  0  0
    3.0897    0.1125   -0.7413 C   0  0  0  0  0  3  0  0  0  0  0  0
    4.7936    0.5102   -2.4490 C   0  0  0  0  0  0  0  0  0  0  0  0
    4.3597   -0.1752   -3.2076 H   0  0  0  0  0  0  0  0  0  0  0  0
    5.8967    0.4909   -2.5247 H   0  0  0  0  0  0  0  0  0  0  0  0
    4.4210    1.5284   -2.6839 H   0  0  0  0  0  0  0  0  0  0  0  0
    5.4450   -0.3939   -0.2077 C   0  0  0  0  0  0  0  0  0  0  0  0
    5.1270   -0.1828    0.8335 H   0  0  0  0  0  0  0  0  0  0  0  0
    6.3762    0.1801   -0.4021 H   0  0  0  0  0  0  0  0  0  0  0  0
    5.6925   -1.8965   -0.3737 C   0  0  0  0  0  0  0  0  0  0  0  0
    5.9879   -2.1129   -1.4248 H   0  0  0  0  0  0  0  0  0  0  0  0
    4.7294   -2.4218   -0.1962 H   0  0  0  0  0  0  0  0  0  0  0  0
    6.7587   -2.4278    0.5871 C   0  0  0  0  0  0  0  0  0  0  0  0
    7.7093   -1.8684    0.4332 H   0  0  0  0  0  0  0  0  0  0  0  0
    6.4443   -2.2059    1.6310 H   0  0  0  0  0  0  0  0  0  0  0  0
    7.0131   -3.9278    0.4346 C   0  0  0  0  0  0  0  0  0  0  0  0
    6.0870   -4.5110    0.6180 H   0  0  0  0  0  0  0  0  0  0  0  0
    7.7835   -4.2885    1.1457 H   0  0  0  0  0  0  0  0  0  0  0  0
    7.3605   -4.1759   -0.5903 H   0  0  0  0  0  0  0  0  0  0  0  0
  1  4  1  0  0  0  0
  3  4  1  0  0  0  0
  3  9  1  0  0  0  0
  4  2  1  0  0  0  0
  5  3  1  0  0  0  0
  6  5  1  0  0  0  0
  7  5  1  0  0  0  0
  8  5  1  0  0  0  0
  9 10  1  0  0  0  0
 11  9  1  0  0  0  0
 12  9  1  0  0  0  0
 12 14  1  0  0  0  0
 12 15  1  0  0  0  0
 13 12  1  0  0  0  0
 15 17  1  0  0  0  0
 16 15  1  0  0  0  0
 18 15  1  0  0  0  0
 18 19  1  0  0  0  0
 18 20  1  0  0  0  0
 21 18  1  0  0  0  0
M  END
