1,2
 OpenBabel05122313063D

  8  7  0  0  0  0  0  0  0  0999 V2000
    2.7910    0.8136   -0.0735 S   0  0  0  0  0  0  0  0  0  0  0  0
    1.3665    3.1530    0.8188 S   0  0  0  0  0  0  0  0  0  0  0  0
    6.4039    1.8315    0.4199 N   0  0  0  0  0  0  0  0  0  0  0  0
    4.1565    5.4709    1.8522 N   0  0  0  0  0  0  0  0  0  0  0  0
    2.9433    2.4286    0.5776 C   0  0  0  0  0  0  0  0  0  0  0  0
    4.1527    3.0603    0.8686 C   0  0  0  0  0  0  0  0  0  0  0  0
    5.3896    2.3911    0.6260 C   0  0  0  0  0  0  0  0  0  0  0  0
    4.1627    4.3813    1.4077 C   0  0  0  0  0  0  0  0  0  0  0  0
  1  5  1  0  0  0  0
  3  7  3  0  0  0  0
  5  2  1  0  0  0  0
  5  6  2  0  0  0  0
  6  8  1  0  0  0  0
  7  6  1  0  0  0  0
  8  4  3  0  0  0  0
M  END
