1,2
 OpenBabel05122313063D

 72 77  0  0  0  0  0  0  0  0999 V2000
   -1.5382   -1.0903   -1.0624 S   0  0  0  0  0  1  0  0  0  0  0  0
   -1.5263    0.9159    1.0396 S   0  0  0  0  0  1  0  0  0  0  0  0
    0.8455   -0.0388   -0.0450 C   0  0  0  0  0  3  0  0  0  0  0  0
   -0.6194   -0.0882   -0.0192 C   0  0  0  0  0  3  0  0  0  0  0  0
    1.7327   -1.5561   -0.0864 P   0  0  0  0  0  4  0  0  0  0  0  0
    3.2422   -1.5796    0.9591 C   0  0  0  0  0  0  0  0  0  0  0  0
    4.5131   -1.2501    0.4450 C   0  0  0  0  0  0  0  0  0  0  0  0
    4.6340   -0.9957   -0.6168 H   0  0  0  0  0  0  0  0  0  0  0  0
    5.6311   -1.2327    1.2917 C   0  0  0  0  0  0  0  0  0  0  0  0
    6.6156   -0.9687    0.8776 H   0  0  0  0  0  0  0  0  0  0  0  0
    5.4946   -1.5397    2.6537 C   0  0  0  0  0  0  0  0  0  0  0  0
    6.3741   -1.5239    3.3148 H   0  0  0  0  0  0  0  0  0  0  0  0
    4.2315   -1.8772    3.1692 C   0  0  0  0  0  0  0  0  0  0  0  0
    4.1174   -2.1339    4.2331 H   0  0  0  0  0  0  0  0  0  0  0  0
    3.1109   -1.9033    2.3288 C   0  0  0  0  0  0  0  0  0  0  0  0
    2.1291   -2.1869    2.7352 H   0  0  0  0  0  0  0  0  0  0  0  0
    2.2521   -2.0753   -1.7618 C   0  0  0  0  0  0  0  0  0  0  0  0
    3.2944   -3.0009   -1.9776 C   0  0  0  0  0  0  0  0  0  0  0  0
    3.8490   -3.4227   -1.1262 H   0  0  0  0  0  0  0  0  0  0  0  0
    3.6268   -3.3814   -3.2867 C   0  0  0  0  0  0  0  0  0  0  0  0
    4.4444   -4.0983   -3.4557 H   0  0  0  0  0  0  0  0  0  0  0  0
    2.9171   -2.8507   -4.3763 C   0  0  0  0  0  0  0  0  0  0  0  0
    3.1806   -3.1518   -5.4016 H   0  0  0  0  0  0  0  0  0  0  0  0
    1.8667   -1.9437   -4.1592 C   0  0  0  0  0  0  0  0  0  0  0  0
    1.2984   -1.5398   -5.0104 H   0  0  0  0  0  0  0  0  0  0  0  0
    1.5311   -1.5534   -2.8550 C   0  0  0  0  0  0  0  0  0  0  0  0
    0.6931   -0.8616   -2.6686 H   0  0  0  0  0  0  0  0  0  0  0  0
    0.6535   -2.8613    0.5921 C   0  0  0  0  0  0  0  0  0  0  0  0
    0.6797   -4.1585    0.0470 C   0  0  0  0  0  0  0  0  0  0  0  0
    1.3126   -4.3849   -0.8230 H   0  0  0  0  0  0  0  0  0  0  0  0
   -0.1379   -5.1570    0.5967 C   0  0  0  0  0  0  0  0  0  0  0  0
   -0.1272   -6.1674    0.1615 H   0  0  0  0  0  0  0  0  0  0  0  0
   -0.9838   -4.8621    1.6766 C   0  0  0  0  0  0  0  0  0  0  0  0
   -1.6435   -5.6409    2.0875 H   0  0  0  0  0  0  0  0  0  0  0  0
   -1.0091   -3.5669    2.2192 C   0  0  0  0  0  0  0  0  0  0  0  0
   -1.7054   -3.3191    3.0331 H   0  0  0  0  0  0  0  0  0  0  0  0
   -0.1884   -2.5649    1.6872 C   0  0  0  0  0  0  0  0  0  0  0  0
   -0.2522   -1.5392    2.0815 H   0  0  0  0  0  0  0  0  0  0  0  0
    1.5226    1.5718    0.0896 P   0  0  0  0  0  4  0  0  0  0  0  0
    0.7524    2.7711   -1.0567 C   0  0  0  0  0  0  0  0  0  0  0  0
    1.4016    4.0173   -1.2064 C   0  0  0  0  0  0  0  0  0  0  0  0
    2.3289    4.2318   -0.6527 H   0  0  0  0  0  0  0  0  0  0  0  0
    0.8674    4.9845   -2.0687 C   0  0  0  0  0  0  0  0  0  0  0  0
    1.3742    5.9549   -2.1794 H   0  0  0  0  0  0  0  0  0  0  0  0
   -0.3094    4.7125   -2.7860 C   0  0  0  0  0  0  0  0  0  0  0  0
   -0.7342    5.4763   -3.4549 H   0  0  0  0  0  0  0  0  0  0  0  0
   -0.9443    3.4686   -2.6502 C   0  0  0  0  0  0  0  0  0  0  0  0
   -1.8762    3.2475   -3.1909 H   0  0  0  0  0  0  0  0  0  0  0  0
   -0.4173    2.4924   -1.7908 C   0  0  0  0  0  0  0  0  0  0  0  0
   -0.9279    1.5242   -1.6942 H   0  0  0  0  0  0  0  0  0  0  0  0
    1.4787    2.2836    1.7753 C   0  0  0  0  0  0  0  0  0  0  0  0
    0.8636    3.5182    2.0556 C   0  0  0  0  0  0  0  0  0  0  0  0
    0.3880    4.0941    1.2491 H   0  0  0  0  0  0  0  0  0  0  0  0
    0.8261    3.9909    3.3750 C   0  0  0  0  0  0  0  0  0  0  0  0
    0.3323    4.9494    3.5938 H   0  0  0  0  0  0  0  0  0  0  0  0
    1.3974    3.2392    4.4142 C   0  0  0  0  0  0  0  0  0  0  0  0
    1.3586    3.6123    5.4487 H   0  0  0  0  0  0  0  0  0  0  0  0
    2.0033    2.0034    4.1351 C   0  0  0  0  0  0  0  0  0  0  0  0
    2.4410    1.4035    4.9473 H   0  0  0  0  0  0  0  0  0  0  0  0
    2.0390    1.5203    2.8200 C   0  0  0  0  0  0  0  0  0  0  0  0
    2.4912    0.5402    2.6075 H   0  0  0  0  0  0  0  0  0  0  0  0
    3.2757    1.5804   -0.4416 C   0  0  0  0  0  0  0  0  0  0  0  0
    3.5435    1.1942   -1.7731 C   0  0  0  0  0  0  0  0  0  0  0  0
    2.7196    0.8782   -2.4296 H   0  0  0  0  0  0  0  0  0  0  0  0
    4.8580    1.2145   -2.2563 C   0  0  0  0  0  0  0  0  0  0  0  0
    5.0618    0.9044   -3.2921 H   0  0  0  0  0  0  0  0  0  0  0  0
    5.9079    1.6368   -1.4213 C   0  0  0  0  0  0  0  0  0  0  0  0
    6.9399    1.6574   -1.8034 H   0  0  0  0  0  0  0  0  0  0  0  0
    5.6381    2.0447   -0.1060 C   0  0  0  0  0  0  0  0  0  0  0  0
    6.4565    2.3846    0.5462 H   0  0  0  0  0  0  0  0  0  0  0  0
    4.3238    2.0190    0.3876 C   0  0  0  0  0  0  0  0  0  0  0  0
    4.1154    2.3338    1.4201 H   0  0  0  0  0  0  0  0  0  0  0  0
  1  4  1  0  0  0  0
  3  4  1  0  0  0  0
  3 39  1  0  0  0  0
  4  2  1  0  0  0  0
  5  3  1  0  0  0  0
  5 28  1  0  0  0  0
  5  6  1  0  0  0  0
  6 15  1  0  0  0  0
  7  6  2  0  0  0  0
  7  9  1  0  0  0  0
  8  7  1  0  0  0  0
  9 11  2  0  0  0  0
 10  9  1  0  0  0  0
 11 13  1  0  0  0  0
 11 12  1  0  0  0  0
 13 14  1  0  0  0  0
 15 16  1  0  0  0  0
 15 13  2  0  0  0  0
 17  5  1  0  0  0  0
 18 17  1  0  0  0  0
 18 19  1  0  0  0  0
 20 18  2  0  0  0  0
 21 20  1  0  0  0  0
 22 24  2  0  0  0  0
 22 20  1  0  0  0  0
 23 22  1  0  0  0  0
 24 26  1  0  0  0  0
 25 24  1  0  0  0  0
 26 27  1  0  0  0  0
 26 17  2  0  0  0  0
 28 37  1  0  0  0  0
 29 28  2  0  0  0  0
 29 31  1  0  0  0  0
 30 29  1  0  0  0  0
 31 33  2  0  0  0  0
 32 31  1  0  0  0  0
 33 34  1  0  0  0  0
 33 35  1  0  0  0  0
 35 36  1  0  0  0  0
 37 38  1  0  0  0  0
 37 35  2  0  0  0  0
 39 51  1  0  0  0  0
 40 39  1  0  0  0  0
 41 40  1  0  0  0  0
 41 42  1  0  0  0  0
 43 41  2  0  0  0  0
 44 43  1  0  0  0  0
 45 47  2  0  0  0  0
 45 43  1  0  0  0  0
 46 45  1  0  0  0  0
 47 49  1  0  0  0  0
 48 47  1  0  0  0  0
 49 50  1  0  0  0  0
 49 40  2  0  0  0  0
 51 52  2  0  0  0  0
 51 60  1  0  0  0  0
 52 54  1  0  0  0  0
 53 52  1  0  0  0  0
 54 55  1  0  0  0  0
 54 56  2  0  0  0  0
 56 57  1  0  0  0  0
 58 56  1  0  0  0  0
 58 59  1  0  0  0  0
 60 58  2  0  0  0  0
 61 60  1  0  0  0  0
 62 39  1  0  0  0  0
 62 71  1  0  0  0  0
 63 62  2  0  0  0  0
 64 63  1  0  0  0  0
 65 63  1  0  0  0  0
 65 67  2  0  0  0  0
 66 65  1  0  0  0  0
 67 69  1  0  0  0  0
 68 67  1  0  0  0  0
 69 71  2  0  0  0  0
 69 70  1  0  0  0  0
 71 72  1  0  0  0  0
M  END
