2,3
 OpenBabel05122313063D

  4  3  0  0  0  0  0  0  0  0999 V2000
   -2.9204   -0.0911   -0.0000 C   0  0  0  0  0  0  0  0  0  0  0  0
   -1.8537   -1.4999   -0.0001 S   0  0  0  0  0  0  0  0  0  0  0  0
   -1.9158    1.3682    0.0000 S   0  0  0  0  0  0  0  0  0  0  0  0
   -4.5596   -0.1241    0.0000 S   0  0  0  0  0  0  0  0  0  0  0  0
  1  3  1  0  0  0  0
  1  4  2  0  0  0  0
  2  1  1  0  0  0  0
M  END
