1,2
 OpenBabel05122313063D

 15 15  0  0  0  0  0  0  0  0999 V2000
   -1.8705    1.8821   -0.7998 S   0  0  0  0  0  1  0  0  0  0  0  0
   -1.4268   -1.0292   -1.6839 S   0  0  0  0  0  1  0  0  0  0  0  0
   -4.3114    0.5510   -2.9440 S   0  0  0  0  0  1  0  0  0  0  0  0
   -3.0704    0.2780   -1.4589 P   0  0  0  0  0  4  0  0  0  0  0  0
   -3.8296   -1.0275    2.4084 C   0  0  0  0  0  0  0  0  0  0  0  0
   -3.2505   -1.1886    3.3316 H   0  0  0  0  0  0  0  0  0  0  0  0
   -3.1895   -0.5527    1.2581 C   0  0  0  0  0  0  0  0  0  0  0  0
   -2.1064   -0.3350    1.2579 H   0  0  0  0  0  0  0  0  0  0  0  0
   -5.2113   -1.2943    2.3824 C   0  0  0  0  0  0  0  0  0  0  0  0
   -5.7182   -1.6682    3.2852 H   0  0  0  0  0  0  0  0  0  0  0  0
   -5.2963   -0.6011    0.0477 C   0  0  0  0  0  0  0  0  0  0  0  0
   -5.8483   -0.4230   -0.8893 H   0  0  0  0  0  0  0  0  0  0  0  0
   -3.9174   -0.3377    0.0725 C   0  0  0  0  0  0  0  0  0  0  0  0
   -5.9392   -1.0794    1.2027 C   0  0  0  0  0  0  0  0  0  0  0  0
   -7.0206   -1.2846    1.1775 H   0  0  0  0  0  0  0  0  0  0  0  0
  2  4  1  0  0  0  0
  3  4  1  0  0  0  0
  4  1  1  0  0  0  0
  4 13  1  0  0  0  0
  5  6  1  0  0  0  0
  7  5  2  0  0  0  0
  8  7  1  0  0  0  0
  9  5  1  0  0  0  0
  9 10  1  0  0  0  0
 11 13  2  0  0  0  0
 11 14  1  0  0  0  0
 12 11  1  0  0  0  0
 13  7  1  0  0  0  0
 14  9  2  0  0  0  0
 15 14  1  0  0  0  0
M  END
