4,16
 OpenBabel05122313063D

 27 28  0  0  1  0  0  0  0  0999 V2000
   -0.4512    0.9797   -1.5798 C   0  0  0  0  0  0  0  0  0  0  0  0
   -0.6090    1.2570   -2.6387 H   0  0  0  0  0  0  0  0  0  0  0  0
   -0.1166   -0.0889   -1.5154 H   0  0  0  0  0  0  0  0  0  0  0  0
   -1.8041   -1.5096    0.2285 S   0  0  0  0  0  1  0  0  0  0  0  0
   -1.6937    1.0961   -0.8428 N   0  0  0  0  0  0  0  0  0  0  0  0
   -2.2623    0.1174   -0.0511 C   0  0  1  0  0  3  0  0  0  0  0  0
   -3.4154    0.6626    0.4417 N   0  0  0  0  0  0  0  0  0  0  0  0
   -2.4950    2.2368   -0.8260 C   0  0  0  0  0  0  0  0  0  0  0  0
   -2.2273    3.1453   -1.3731 H   0  0  0  0  0  0  0  0  0  0  0  0
   -3.5703    1.9592   -0.0294 C   0  0  0  0  0  0  0  0  0  0  0  0
   -4.4324    2.5750    0.2437 H   0  0  0  0  0  0  0  0  0  0  0  0
   -4.3399   -0.0450    1.3199 C   0  0  0  0  0  0  0  0  0  0  0  0
   -4.9186   -0.7977    0.7490 H   0  0  0  0  0  0  0  0  0  0  0  0
   -5.0303    0.6868    1.7748 H   0  0  0  0  0  0  0  0  0  0  0  0
   -3.7667   -0.5638    2.1117 H   0  0  0  0  0  0  0  0  0  0  0  0
    0.7927    0.4869    1.3872 S   0  0  0  0  0  1  0  0  0  0  0  0
    0.5918    1.8343   -1.0409 N   0  0  0  0  0  0  0  0  0  0  0  0
    1.1682    1.6618    0.1979 C   0  0  1  0  0  3  0  0  0  0  0  0
    2.0608    2.6894    0.3420 N   0  0  0  0  0  0  0  0  0  0  0  0
    1.1264    2.9620   -1.6572 C   0  0  0  0  0  0  0  0  0  0  0  0
    0.8319    3.2737   -2.6640 H   0  0  0  0  0  0  0  0  0  0  0  0
    2.0400    3.4955   -0.7877 C   0  0  0  0  0  0  0  0  0  0  0  0
    2.6852    4.3739   -0.8854 H   0  0  0  0  0  0  0  0  0  0  0  0
    2.8950    2.8950    1.5201 C   0  0  0  0  0  0  0  0  0  0  0  0
    2.3745    3.5328    2.2617 H   0  0  0  0  0  0  0  0  0  0  0  0
    3.8409    3.3770    1.2146 H   0  0  0  0  0  0  0  0  0  0  0  0
    3.1030    1.9105    1.9796 H   0  0  0  0  0  0  0  0  0  0  0  0
  1  3  1  0  0  0  0
  1 17  1  0  0  0  0
  1  5  1  0  0  0  0
  2  1  1  0  0  0  0
  5  8  1  0  0  0  0
  5  6  1  0  0  0  0
  6  4  1  6  0  0  0
  6  7  1  0  0  0  0
  7 12  1  0  0  0  0
  8 10  2  0  0  0  0
  9  8  1  0  0  0  0
 10 11  1  0  0  0  0
 10  7  1  0  0  0  0
 12 14  1  0  0  0  0
 12 15  1  0  0  0  0
 13 12  1  0  0  0  0
 17 18  1  0  0  0  0
 18 19  1  0  0  0  0
 18 16  1  1  0  0  0
 19 24  1  0  0  0  0
 20 17  1  0  0  0  0
 20 22  2  0  0  0  0
 21 20  1  0  0  0  0
 22 19  1  0  0  0  0
 23 22  1  0  0  0  0
 24 27  1  0  0  0  0
 24 25  1  0  0  0  0
 26 24  1  0  0  0  0
M  END
