1,3
 OpenBabel05122313063D

 15 15  0  0  0  0  0  0  0  0999 V2000
    1.5253   -1.5523   -0.0001 S   0  0  0  0  0  1  0  0  0  0  0  0
    4.6079   -1.1973    0.0000 S   0  0  0  0  0  0  0  0  0  0  0  0
    1.4376    1.6362   -0.0003 S   0  0  0  0  0  1  0  0  0  0  0  0
    6.8156    0.9958    0.0004 S   0  0  0  0  0  0  0  0  0  0  0  0
    4.1691    1.4066   -0.0001 N   0  0  0  0  0  0  0  0  0  0  0  0
    2.9547   -0.6214    0.0001 C   0  0  0  0  0  0  0  0  0  0  0  0
    2.9478    0.8009   -0.0001 C   0  0  0  0  0  0  0  0  0  0  0  0
    7.6595   -0.6343   -0.0001 C   0  0  0  0  0  0  0  0  0  0  0  0
    7.3320   -1.1961   -0.8996 H   0  0  0  0  0  0  0  0  0  0  0  0
    7.3323   -1.1964    0.8994 H   0  0  0  0  0  0  0  0  0  0  0  0
    5.1354    0.5250    0.0002 C   0  0  0  0  0  0  0  0  0  0  0  0
    9.1689   -0.4171   -0.0003 C   0  0  0  0  0  0  0  0  0  0  0  0
    9.4987    0.1427    0.8975 H   0  0  0  0  0  0  0  0  0  0  0  0
    9.6873   -1.3963   -0.0003 H   0  0  0  0  0  0  0  0  0  0  0  0
    9.4986    0.1428   -0.8980 H   0  0  0  0  0  0  0  0  0  0  0  0
  1  6  1  0  0  0  0
  2  6  1  0  0  0  0
  2 11  1  0  0  0  0
  3  7  1  0  0  0  0
  5 11  2  0  0  0  0
  7  5  1  0  0  0  0
  7  6  2  0  0  0  0
  8  4  1  0  0  0  0
  8 10  1  0  0  0  0
  9  8  1  0  0  0  0
 11  4  1  0  0  0  0
 12  8  1  0  0  0  0
 12 13  1  0  0  0  0
 14 12  1  0  0  0  0
 15 12  1  0  0  0  0
M  END
