2,3
 OpenBabel05122313063D

 12 12  0  0  0  0  0  0  0  0999 V2000
    4.5881    1.2711    0.0003 S   0  0  0  0  0  0  0  0  0  0  0  0
    1.5002    1.5766   -0.0009 S   0  0  0  0  0  1  0  0  0  0  0  0
    1.4631   -1.6132   -0.0010 S   0  0  0  0  0  1  0  0  0  0  0  0
    6.8305   -0.8881    0.0015 S   0  0  0  0  0  0  0  0  0  0  0  0
    4.1909   -1.3396    0.0002 N   0  0  0  0  0  0  0  0  0  0  0  0
    2.9597   -0.7540   -0.0003 C   0  0  0  0  0  0  0  0  0  0  0  0
    5.1417   -0.4423    0.0008 C   0  0  0  0  0  0  0  0  0  0  0  0
    2.9442    0.6685   -0.0002 C   0  0  0  0  0  0  0  0  0  0  0  0
    7.6324    0.7432    0.0015 C   0  0  0  0  0  0  0  0  0  0  0  0
    7.3705    1.3191    0.9110 H   0  0  0  0  0  0  0  0  0  0  0  0
    8.7199    0.5409    0.0020 H   0  0  0  0  0  0  0  0  0  0  0  0
    7.3712    1.3189   -0.9082 H   0  0  0  0  0  0  0  0  0  0  0  0
  1  7  1  0  0  0  0
  2  8  1  0  0  0  0
  3  6  1  0  0  0  0
  4  9  1  0  0  0  0
  5  7  2  0  0  0  0
  6  8  2  0  0  0  0
  6  5  1  0  0  0  0
  7  4  1  0  0  0  0
  8  1  1  0  0  0  0
  9 11  1  0  0  0  0
  9 10  1  0  0  0  0
 12  9  1  0  0  0  0
M  END
