2,3
 OpenBabel05122313063D

 23 23  0  0  0  0  0  0  0  0999 V2000
   -1.2666   -0.0004   -0.0001 P   0  0  0  0  0  4  0  0  0  0  0  0
   -0.0134   -1.5972    0.1516 S   0  0  0  0  0  1  0  0  0  0  0  0
   -0.0138    1.5968   -0.1517 S   0  0  0  0  0  1  0  0  0  0  0  0
   -2.3572   -0.0038   -1.2230 O   0  0  0  0  0  0  0  0  0  0  0  0
   -2.3571    0.0026    1.2229 O   0  0  0  0  0  0  0  0  0  0  0  0
   -3.7080   -0.3234   -0.7178 C   0  0  0  0  0  0  0  0  0  0  0  0
   -3.7077    0.3236    0.7179 C   0  0  0  0  0  0  0  0  0  0  0  0
   -4.6977   -0.3065    1.6869 C   0  0  0  0  0  0  0  0  0  0  0  0
   -4.4838   -1.3786    1.8468 H   0  0  0  0  0  0  0  0  0  0  0  0
   -5.7301   -0.2000    1.2990 H   0  0  0  0  0  0  0  0  0  0  0  0
   -4.6439    0.2064    2.6661 H   0  0  0  0  0  0  0  0  0  0  0  0
   -3.8411   -1.8471   -0.6902 C   0  0  0  0  0  0  0  0  0  0  0  0
   -3.5777   -2.2492   -1.6869 H   0  0  0  0  0  0  0  0  0  0  0  0
   -4.8781   -2.1536   -0.4537 H   0  0  0  0  0  0  0  0  0  0  0  0
   -3.1626   -2.3039    0.0571 H   0  0  0  0  0  0  0  0  0  0  0  0
   -3.8395    1.8474    0.6904 C   0  0  0  0  0  0  0  0  0  0  0  0
   -3.5755    2.2493    1.6870 H   0  0  0  0  0  0  0  0  0  0  0  0
   -4.8762    2.1548    0.4540 H   0  0  0  0  0  0  0  0  0  0  0  0
   -3.1606    2.3037   -0.0571 H   0  0  0  0  0  0  0  0  0  0  0  0
   -4.6975    0.3076   -1.6867 C   0  0  0  0  0  0  0  0  0  0  0  0
   -4.4827    1.3795   -1.8467 H   0  0  0  0  0  0  0  0  0  0  0  0
   -5.7300    0.2020   -1.2988 H   0  0  0  0  0  0  0  0  0  0  0  0
   -4.6441   -0.2053   -2.6660 H   0  0  0  0  0  0  0  0  0  0  0  0
  1  2  1  0  0  0  0
  1  5  1  0  0  0  0
  3  1  1  0  0  0  0
  4  6  1  0  0  0  0
  4  1  1  0  0  0  0
  6 12  1  0  0  0  0
  6  7  1  0  0  0  0
  7  5  1  0  0  0  0
  7  8  1  0  0  0  0
  8  9  1  0  0  0  0
  8 11  1  0  0  0  0
 10  8  1  0  0  0  0
 12 14  1  0  0  0  0
 12 15  1  0  0  0  0
 13 12  1  0  0  0  0
 16  7  1  0  0  0  0
 16 17  1  0  0  0  0
 18 16  1  0  0  0  0
 19 16  1  0  0  0  0
 20 22  1  0  0  0  0
 20  6  1  0  0  0  0
 21 20  1  0  0  0  0
 23 20  1  0  0  0  0
M  END
