1,2
 OpenBabel05122313063D

 15 15  0  0  0  0  0  0  0  0999 V2000
    1.6808    1.4214   -1.2926 S   0  0  0  0  0  1  0  0  0  0  0  0
    1.4737    1.3996    1.7012 S   0  0  0  0  0  1  0  0  0  0  0  0
    2.3934    1.5409    0.2644 C   0  0  0  0  0  3  0  0  0  0  0  0
    4.5694    1.6906   -0.7398 C   0  0  0  0  0  0  0  0  0  0  0  0
    4.2860    2.5189   -1.4213 H   0  0  0  0  0  0  0  0  0  0  0  0
    4.3952    0.7331   -1.2756 H   0  0  0  0  0  0  0  0  0  0  0  0
    5.9812    1.8370   -0.3184 C   0  0  0  0  0  0  0  0  0  0  0  0
    6.8589    2.9005   -0.3307 C   0  0  0  0  0  0  0  0  0  0  0  0
    6.6378    3.9105   -0.6931 H   0  0  0  0  0  0  0  0  0  0  0  0
    8.0926    2.4216    0.2216 C   0  0  0  0  0  0  0  0  0  0  0  0
    9.0212    2.9837    0.3687 H   0  0  0  0  0  0  0  0  0  0  0  0
    7.8758    1.0998    0.5344 C   0  0  0  0  0  0  0  0  0  0  0  0
    8.5016    0.3153    0.9719 H   0  0  0  0  0  0  0  0  0  0  0  0
    3.7153    1.7164    0.4317 O   0  0  0  0  0  0  0  0  0  0  0  0
    6.6055    0.7349    0.2101 O   0  0  0  0  0  0  0  0  0  0  0  0
  1  3  1  0  0  0  0
  3 14  1  0  0  0  0
  3  2  1  0  0  0  0
  4  7  1  0  0  0  0
  4 14  1  0  0  0  0
  5  4  1  0  0  0  0
  6  4  1  0  0  0  0
  7 15  1  0  0  0  0
  8  7  2  0  0  0  0
  8 10  1  0  0  0  0
  9  8  1  0  0  0  0
 10 11  1  0  0  0  0
 10 12  2  0  0  0  0
 12 13  1  0  0  0  0
 15 12  1  0  0  0  0
M  END
