1,2
 OpenBabel05122313063D

 15 14  0  0  0  0  0  0  0  0999 V2000
   -1.1003    0.1319   -1.3402 S   0  0  0  0  0  1  0  0  0  0  0  0
   -1.7174    0.4639    1.4024 S   0  0  0  0  0  1  0  0  0  0  0  0
   -2.2126   -0.2501   -0.0899 C   0  0  0  0  0  3  0  0  0  0  0  0
   -3.2813   -1.1255   -0.2185 N   0  0  0  0  0  0  0  0  0  0  0  0
   -4.1670   -1.1798    0.9080 C   0  0  0  0  0  0  0  0  0  0  0  0
   -4.7688   -2.2960    1.3491 C   0  0  0  0  0  0  0  0  0  0  0  0
   -3.4711   -1.8756   -1.3343 C   0  0  0  0  0  3  0  0  0  0  0  0
   -4.7540   -2.5080   -1.7414 C   0  0  0  0  0  0  0  0  0  0  0  0
   -4.2917   -0.2050    1.4028 H   0  0  0  0  0  0  0  0  0  0  0  0
   -4.6058   -3.2801    0.8879 H   0  0  0  0  0  0  0  0  0  0  0  0
   -5.4421   -2.2362    2.2157 H   0  0  0  0  0  0  0  0  0  0  0  0
   -2.6188   -1.8492   -2.0292 H   0  0  0  0  0  0  0  0  0  0  0  0
   -5.6332   -2.0445   -1.2515 H   0  0  0  0  0  0  0  0  0  0  0  0
   -4.8765   -2.4120   -2.8405 H   0  0  0  0  0  0  0  0  0  0  0  0
   -4.8052   -3.6020   -1.5242 H   0  0  0  0  0  0  0  0  0  0  0  0
  1  3  1  0  0  0  0
  3  2  1  0  0  0  0
  4  3  1  0  0  0  0
  4  5  1  0  0  0  0
  5  6  2  0  0  0  0
  5  9  1  0  0  0  0
  6 11  1  0  0  0  0
  7  4  1  0  0  0  0
  8 15  1  0  0  0  0
  8  7  1  0  0  0  0
  8 13  1  0  0  0  0
 10  6  1  0  0  0  0
 12  7  1  0  0  0  0
 14  8  1  0  0  0  0
M  END
