1,4
 OpenBabel05122313063D

 36 37  0  0  0  0  0  0  0  0999 V2000
   -0.1348   -1.6608   -0.7171 S   0  0  0  0  0  1  0  0  0  0  0  0
    7.8028   -1.2338    0.2933 S   0  0  0  0  0  0  0  0  0  0  0  0
    7.4612    0.7195    0.8749 S   0  0  0  0  0  0  0  0  0  0  0  0
   -0.1911    1.5462    1.2218 S   0  0  0  0  0  1  0  0  0  0  0  0
    1.3045   -1.3016   -1.8210 C   0  0  0  0  0  0  0  0  0  0  0  0
    1.2380   -1.9591   -2.7112 H   0  0  0  0  0  0  0  0  0  0  0  0
    1.2286   -0.2530   -2.1688 H   0  0  0  0  0  0  0  0  0  0  0  0
    2.6032   -1.5390   -1.0908 C   0  0  0  0  0  0  0  0  0  0  0  0
    2.8018   -1.0460    0.2141 C   0  0  0  0  0  0  0  0  0  0  0  0
    1.9936   -0.4842    0.7055 H   0  0  0  0  0  0  0  0  0  0  0  0
    4.0147   -1.2573    0.8804 C   0  0  0  0  0  0  0  0  0  0  0  0
    4.1518   -0.8602    1.8977 H   0  0  0  0  0  0  0  0  0  0  0  0
    5.0652   -1.9659    0.2655 C   0  0  0  0  0  0  0  0  0  0  0  0
    4.8702   -2.4487   -1.0446 C   0  0  0  0  0  0  0  0  0  0  0  0
    5.6840   -2.9954   -1.5471 H   0  0  0  0  0  0  0  0  0  0  0  0
    3.6546   -2.2462   -1.7082 C   0  0  0  0  0  0  0  0  0  0  0  0
    3.5141   -2.6466   -2.7251 H   0  0  0  0  0  0  0  0  0  0  0  0
    6.3665   -2.1889    0.9793 C   0  0  0  0  0  0  0  0  0  0  0  0
    6.7162   -3.2388    0.8731 H   0  0  0  0  0  0  0  0  0  0  0  0
    6.2937   -1.9602    2.0602 H   0  0  0  0  0  0  0  0  0  0  0  0
    6.4806    1.4700   -0.5081 C   0  0  0  0  0  0  0  0  0  0  0  0
    7.0056    2.4271   -0.7213 H   0  0  0  0  0  0  0  0  0  0  0  0
    6.6219    0.8162   -1.3907 H   0  0  0  0  0  0  0  0  0  0  0  0
    5.0187    1.7353   -0.2366 C   0  0  0  0  0  0  0  0  0  0  0  0
    4.0913    1.6920   -1.2947 C   0  0  0  0  0  0  0  0  0  0  0  0
    4.4273    1.3869   -2.2982 H   0  0  0  0  0  0  0  0  0  0  0  0
    2.7472    2.0349   -1.0903 C   0  0  0  0  0  0  0  0  0  0  0  0
    2.0379    2.0125   -1.9325 H   0  0  0  0  0  0  0  0  0  0  0  0
    2.2883    2.4277    0.1821 C   0  0  0  0  0  0  0  0  0  0  0  0
    3.2118    2.4431    1.2481 C   0  0  0  0  0  0  0  0  0  0  0  0
    2.8706    2.7351    2.2541 H   0  0  0  0  0  0  0  0  0  0  0  0
    4.5543    2.1078    1.0410 C   0  0  0  0  0  0  0  0  0  0  0  0
    5.2608    2.1260    1.8855 H   0  0  0  0  0  0  0  0  0  0  0  0
    0.8581    2.8424    0.3912 C   0  0  0  0  0  0  0  0  0  0  0  0
    0.3901    3.1152   -0.5702 H   0  0  0  0  0  0  0  0  0  0  0  0
    0.8077    3.7209    1.0657 H   0  0  0  0  0  0  0  0  0  0  0  0
  2  3  1  0  0  0  0
  2 18  1  0  0  0  0
  5  8  1  0  0  0  0
  5  1  1  0  0  0  0
  6  5  1  0  0  0  0
  7  5  1  0  0  0  0
  8  9  1  0  0  0  0
  9 10  1  0  0  0  0
  9 11  2  0  0  0  0
 11 12  1  0  0  0  0
 13 11  1  0  0  0  0
 13 18  1  0  0  0  0
 14 13  2  0  0  0  0
 15 14  1  0  0  0  0
 16  8  2  0  0  0  0
 16 14  1  0  0  0  0
 17 16  1  0  0  0  0
 18 20  1  0  0  0  0
 19 18  1  0  0  0  0
 21 24  1  0  0  0  0
 21  3  1  0  0  0  0
 22 21  1  0  0  0  0
 23 21  1  0  0  0  0
 24 32  1  0  0  0  0
 25 27  1  0  0  0  0
 25 24  2  0  0  0  0
 26 25  1  0  0  0  0
 27 29  2  0  0  0  0
 28 27  1  0  0  0  0
 29 34  1  0  0  0  0
 29 30  1  0  0  0  0
 30 31  1  0  0  0  0
 32 30  2  0  0  0  0
 32 33  1  0  0  0  0
 34 36  1  0  0  0  0
 34  4  1  0  0  0  0
 35 34  1  0  0  0  0
M  END
