1,2
 OpenBabel05122313063D

 21 21  0  0  0  0  0  0  0  0999 V2000
   -2.0108    1.2718   -0.0003 S   0  0  0  0  0  1  0  0  0  0  0  0
   -1.2716   -2.0139   -0.0002 S   0  0  0  0  0  1  0  0  0  0  0  0
   -4.3064   -2.3524   -0.0000 S   0  0  0  0  0  0  0  0  0  0  0  0
   -7.0476   -1.3193   -0.0001 S   0  0  0  0  0  0  0  0  0  0  0  0
   -2.8804   -1.3346   -0.0001 C   0  0  0  0  0  0  0  0  0  0  0  0
   -3.2463   -0.0083   -0.0002 C   0  0  0  0  0  0  0  0  0  0  0  0
   -4.6623    0.2037   -0.0002 N   0  0  0  0  0  0  0  0  0  0  0  0
   -5.4044   -0.9716   -0.0001 C   0  0  0  0  0  0  0  0  0  0  0  0
   -5.2270    1.6160    0.0002 C   0  0  0  0  0  0  0  0  0  0  0  0
   -4.7491    2.3214    1.2861 C   0  0  0  0  0  0  0  0  0  0  0  0
   -5.1567    1.7964    2.1729 H   0  0  0  0  0  0  0  0  0  0  0  0
   -5.1277    3.3631    1.2932 H   0  0  0  0  0  0  0  0  0  0  0  0
   -3.6463    2.3524    1.3741 H   0  0  0  0  0  0  0  0  0  0  0  0
   -6.7628    1.6932    0.0002 C   0  0  0  0  0  0  0  0  0  0  0  0
   -7.2142    1.2223    0.8905 H   0  0  0  0  0  0  0  0  0  0  0  0
   -7.2142    1.2225   -0.8901 H   0  0  0  0  0  0  0  0  0  0  0  0
   -7.0128    2.7751    0.0003 H   0  0  0  0  0  0  0  0  0  0  0  0
   -4.7492    2.3220   -1.2854 C   0  0  0  0  0  0  0  0  0  0  0  0
   -5.1276    3.3639   -1.2918 H   0  0  0  0  0  0  0  0  0  0  0  0
   -5.1573    1.7977   -2.1724 H   0  0  0  0  0  0  0  0  0  0  0  0
   -3.6464    2.3528   -1.3738 H   0  0  0  0  0  0  0  0  0  0  0  0
  1  6  1  0  0  0  0
  2  5  1  0  0  0  0
  4  8  2  0  0  0  0
  5  3  1  0  0  0  0
  6  7  1  0  0  0  0
  6  5  2  0  0  0  0
  7  8  1  0  0  0  0
  7  9  1  0  0  0  0
  8  3  1  0  0  0  0
  9 14  1  0  0  0  0
  9 10  1  0  0  0  0
 10 12  1  0  0  0  0
 10 13  1  0  0  0  0
 10 11  1  0  0  0  0
 14 17  1  0  0  0  0
 14 15  1  0  0  0  0
 16 14  1  0  0  0  0
 18  9  1  0  0  0  0
 19 18  1  0  0  0  0
 20 18  1  0  0  0  0
 21 18  1  0  0  0  0
M  END
