1,2
 OpenBabel05122313063D

 18 18  0  0  1  0  0  0  0  0999 V2000
    1.6892   -1.7094   -0.1863 S   0  0  0  0  0  1  0  0  0  0  0  0
    1.6870    1.6530   -0.1879 S   0  0  0  0  0  1  0  0  0  0  0  0
    4.6107   -1.5590   -0.8481 S   0  0  0  0  0  0  0  0  0  0  0  0
    4.5632    1.5317   -1.0047 S   0  0  0  0  0  0  0  0  0  0  0  0
    3.0659   -0.7154   -0.6412 C   0  0  0  0  0  0  0  0  0  0  0  0
    3.0679    0.6598   -0.6377 C   0  0  0  0  0  0  0  0  0  0  0  0
    5.5067   -0.6898    0.5306 C   0  0  2  0  0  0  0  0  0  0  0  0
    4.8191   -0.7919    1.3962 H   0  0  0  0  0  0  0  0  0  0  0  0
    5.7290    0.8159    0.2650 C   0  0  2  0  0  0  0  0  0  0  0  0
    6.7153    0.9456   -0.2338 H   0  0  0  0  0  0  0  0  0  0  0  0
    6.8169   -1.4221    0.8184 C   0  0  0  0  0  0  0  0  0  0  0  0
    6.6298   -2.4746    1.1095 H   0  0  0  0  0  0  0  0  0  0  0  0
    7.3701   -0.9280    1.6447 H   0  0  0  0  0  0  0  0  0  0  0  0
    7.4737   -1.4219   -0.0768 H   0  0  0  0  0  0  0  0  0  0  0  0
    5.6719    1.6241    1.5627 C   0  0  0  0  0  0  0  0  0  0  0  0
    5.9370    2.6848    1.3859 H   0  0  0  0  0  0  0  0  0  0  0  0
    6.3689    1.2147    2.3276 H   0  0  0  0  0  0  0  0  0  0  0  0
    4.6429    1.5953    1.9760 H   0  0  0  0  0  0  0  0  0  0  0  0
  3  5  1  0  0  0  0
  3  7  1  0  0  0  0
  4  6  1  0  0  0  0
  4  9  1  0  0  0  0
  5  6  2  0  0  0  0
  5  1  1  0  0  0  0
  6  2  1  0  0  0  0
  7 11  1  0  0  0  0
  7  8  1  1  0  0  0
  9 10  1  6  0  0  0
  9  7  1  0  0  0  0
  9 15  1  0  0  0  0
 11 12  1  0  0  0  0
 11 13  1  0  0  0  0
 14 11  1  0  0  0  0
 15 18  1  0  0  0  0
 15 17  1  0  0  0  0
 16 15  1  0  0  0  0
M  END
