1,2
 OpenBabel05122313063D

 74 78  0  0  0  0  0  0  0  0999 V2000
    2.0757   -2.8942   -0.2116 S   0  0  0  0  0  0  0  0  0  0  0  0
    3.0623    1.0771    2.3643 S   0  0  0  0  0  0  0  0  0  0  0  0
    1.8279    2.2057   -0.7426 O   0  0  0  0  0  0  0  0  0  0  0  0
    0.2487   -0.0979   -1.5041 O   0  0  0  0  0  0  0  0  0  0  0  0
  -10.6547    2.6933   -0.9513 O   0  0  0  0  0  0  0  0  0  0  0  0
  -11.2806    0.6007   -1.0944 O   0  0  0  0  0  0  0  0  0  0  0  0
    0.7377   -1.2964    2.4097 N   0  0  0  0  0  0  0  0  0  0  0  0
   -4.4126    0.6008    0.9705 N   0  0  0  0  0  2  0  0  0  0  0  0
   -5.3168   -0.2668    0.7702 N   0  0  0  0  0  2  0  0  0  0  0  0
  -10.4597    1.4837   -0.8597 N   0  0  0  0  0  0  0  0  0  0  0  0
    1.2068    2.0307   -2.0239 C   0  0  0  0  0  0  0  0  0  0  0  0
    1.8826    1.4649   -2.6959 H   0  0  0  0  0  0  0  0  0  0  0  0
    0.9815    3.0263   -2.4652 H   0  0  0  0  0  0  0  0  0  0  0  0
   -0.0767    1.2558   -1.8433 C   0  0  0  0  0  0  0  0  0  0  0  0
   -0.7093    1.7141   -1.0526 H   0  0  0  0  0  0  0  0  0  0  0  0
   -0.6426    1.2733   -2.7994 H   0  0  0  0  0  0  0  0  0  0  0  0
   -0.7243   -1.0582   -1.6190 C   0  0  0  0  0  0  0  0  0  0  0  0
   -2.0989   -0.7651   -1.5982 C   0  0  0  0  0  0  0  0  0  0  0  0
   -2.4482    0.2705   -1.5050 H   0  0  0  0  0  0  0  0  0  0  0  0
   -3.0381   -1.8047   -1.6684 C   0  0  0  0  0  0  0  0  0  0  0  0
   -4.1100   -1.5627   -1.6172 H   0  0  0  0  0  0  0  0  0  0  0  0
   -2.6163   -3.1367   -1.7828 C   0  0  0  0  0  0  0  0  0  0  0  0
   -3.3517   -3.9513   -1.8460 H   0  0  0  0  0  0  0  0  0  0  0  0
   -1.2448   -3.4202   -1.8372 C   0  0  0  0  0  0  0  0  0  0  0  0
   -0.9043   -4.4606   -1.9594 H   0  0  0  0  0  0  0  0  0  0  0  0
   -0.2754   -2.3983   -1.7630 C   0  0  0  0  0  0  0  0  0  0  0  0
    1.1772   -2.7292   -1.8558 C   0  0  0  0  0  0  0  0  0  0  0  0
    1.7861   -1.9487   -2.3557 H   0  0  0  0  0  0  0  0  0  0  0  0
    1.3431   -3.7030   -2.3529 H   0  0  0  0  0  0  0  0  0  0  0  0
    0.7670   -3.3734    0.9788 C   0  0  0  0  0  0  0  0  0  0  0  0
   -0.2144   -3.0994    0.5417 H   0  0  0  0  0  0  0  0  0  0  0  0
    0.8090   -4.4760    1.0745 H   0  0  0  0  0  0  0  0  0  0  0  0
    0.9764   -2.7462    2.3579 C   0  0  0  0  0  0  0  0  0  0  0  0
    0.3325   -3.2957    3.0839 H   0  0  0  0  0  0  0  0  0  0  0  0
    2.0192   -2.9201    2.6925 H   0  0  0  0  0  0  0  0  0  0  0  0
   -0.5908   -0.8560    2.0751 C   0  0  0  0  0  0  0  0  0  0  0  0
   -0.7828    0.4567    1.5891 C   0  0  0  0  0  0  0  0  0  0  0  0
    0.0852    1.1039    1.3990 H   0  0  0  0  0  0  0  0  0  0  0  0
   -2.0629    0.9262    1.2903 C   0  0  0  0  0  0  0  0  0  0  0  0
   -2.2284    1.9494    0.9214 H   0  0  0  0  0  0  0  0  0  0  0  0
   -3.1787    0.0703    1.3921 C   0  0  0  0  0  0  0  0  0  0  0  0
   -2.9952   -1.2461    1.8712 C   0  0  0  0  0  0  0  0  0  0  0  0
   -3.8763   -1.8971    1.9576 H   0  0  0  0  0  0  0  0  0  0  0  0
   -1.7221   -1.6944    2.2234 C   0  0  0  0  0  0  0  0  0  0  0  0
   -1.6128   -2.7138    2.6188 H   0  0  0  0  0  0  0  0  0  0  0  0
   -6.5695    0.2459    0.3752 C   0  0  0  0  0  0  0  0  0  0  0  0
   -6.8640    1.6273    0.2568 C   0  0  0  0  0  0  0  0  0  0  0  0
   -6.0748    2.3554    0.4888 H   0  0  0  0  0  0  0  0  0  0  0  0
   -8.1355    2.0304   -0.1461 C   0  0  0  0  0  0  0  0  0  0  0  0
   -8.4129    3.0880   -0.2520 H   0  0  0  0  0  0  0  0  0  0  0  0
   -9.1010    1.0482   -0.4260 C   0  0  0  0  0  0  0  0  0  0  0  0
   -8.8379   -0.3224   -0.3128 C   0  0  0  0  0  0  0  0  0  0  0  0
   -9.6370   -1.0397   -0.5426 H   0  0  0  0  0  0  0  0  0  0  0  0
   -7.5612   -0.7211    0.0928 C   0  0  0  0  0  0  0  0  0  0  0  0
   -7.2995   -1.7833    0.2037 H   0  0  0  0  0  0  0  0  0  0  0  0
    1.2934   -0.6948    3.6401 C   0  0  0  0  0  0  0  0  0  0  0  0
    2.1836   -1.2919    3.9239 H   0  0  0  0  0  0  0  0  0  0  0  0
    0.5651   -0.7892    4.4790 H   0  0  0  0  0  0  0  0  0  0  0  0
    1.6959    0.7786    3.5589 C   0  0  0  0  0  0  0  0  0  0  0  0
    2.0788    1.0912    4.5509 H   0  0  0  0  0  0  0  0  0  0  0  0
    0.8434    1.4359    3.3018 H   0  0  0  0  0  0  0  0  0  0  0  0
    2.7321    2.8235    1.7864 C   0  0  0  0  0  0  0  0  0  0  0  0
    1.6479    2.9019    1.5769 H   0  0  0  0  0  0  0  0  0  0  0  0
    3.0013    3.4633    2.6488 H   0  0  0  0  0  0  0  0  0  0  0  0
    3.5711    3.1053    0.5852 C   0  0  0  0  0  0  0  0  0  0  0  0
    4.8665    3.6410    0.7100 C   0  0  0  0  0  0  0  0  0  0  0  0
    5.2472    3.8860    1.7138 H   0  0  0  0  0  0  0  0  0  0  0  0
    5.6644    3.8632   -0.4182 C   0  0  0  0  0  0  0  0  0  0  0  0
    6.6758    4.2784   -0.3076 H   0  0  0  0  0  0  0  0  0  0  0  0
    5.1622    3.5440   -1.6875 C   0  0  0  0  0  0  0  0  0  0  0  0
    5.7833    3.6972   -2.5819 H   0  0  0  0  0  0  0  0  0  0  0  0
    3.8734    3.0123   -1.8409 C   0  0  0  0  0  0  0  0  0  0  0  0
    3.5177    2.7498   -2.8439 H   0  0  0  0  0  0  0  0  0  0  0  0
    3.0827    2.7792   -0.7061 C   0  0  0  0  0  0  0  0  0  0  0  0
  1 30  1  0  0  0  0
  2 59  1  0  0  0  0
  3 74  1  0  0  0  0
  5 10  2  0  0  0  0
  6 10  2  0  0  0  0
  7 56  1  0  0  0  0
  8 41  1  0  0  0  0
  9  8  1  0  0  0  0
 10 51  1  0  0  0  0
 11 14  1  0  0  0  0
 11  3  1  0  0  0  0
 12 11  1  0  0  0  0
 13 11  1  0  0  0  0
 14  4  1  0  0  0  0
 14 15  1  0  0  0  0
 16 14  1  0  0  0  0
 17 18  1  0  0  0  0
 17  4  1  0  0  0  0
 18 19  1  0  0  0  0
 20 21  1  0  0  0  0
 20 18  2  0  0  0  0
 22 20  1  0  0  0  0
 23 22  1  0  0  0  0
 24 22  2  0  0  0  0
 24 26  1  0  0  0  0
 25 24  1  0  0  0  0
 26 17  2  0  0  0  0
 27 26  1  0  0  0  0
 27  1  1  0  0  0  0
 28 27  1  0  0  0  0
 29 27  1  0  0  0  0
 30 32  1  0  0  0  0
 30 33  1  0  0  0  0
 31 30  1  0  0  0  0
 33  7  1  0  0  0  0
 33 35  1  0  0  0  0
 33 34  1  0  0  0  0
 36 44  1  0  0  0  0
 36  7  1  0  0  0  0
 37 36  2  0  0  0  0
 38 37  1  0  0  0  0
 39 41  2  0  0  0  0
 39 37  1  0  0  0  0
 40 39  1  0  0  0  0
 41 42  1  0  0  0  0
 42 43  1  0  0  0  0
 42 44  2  0  0  0  0
 44 45  1  0  0  0  0
 46  9  1  0  0  0  0
 47 46  1  0  0  0  0
 47 48  1  0  0  0  0
 49 47  2  0  0  0  0
 50 49  1  0  0  0  0
 51 52  2  0  0  0  0
 51 49  1  0  0  0  0
 52 54  1  0  0  0  0
 53 52  1  0  0  0  0
 54 55  1  0  0  0  0
 54 46  2  0  0  0  0
 56 57  1  0  0  0  0
 56 58  1  0  0  0  0
 59 56  1  0  0  0  0
 59 60  1  0  0  0  0
 61 59  1  0  0  0  0
 62  2  1  0  0  0  0
 62 64  1  0  0  0  0
 63 62  1  0  0  0  0
 65 66  1  0  0  0  0
 65 62  1  0  0  0  0
 66 67  1  0  0  0  0
 68 69  1  0  0  0  0
 68 66  2  0  0  0  0
 70 68  1  0  0  0  0
 71 70  1  0  0  0  0
 72 70  2  0  0  0  0
 72 74  1  0  0  0  0
 73 72  1  0  0  0  0
 74 65  2  0  0  0  0
M  END
