1,2
 OpenBabel05122313063D

 13 13  0  0  0  0  0  0  0  0999 V2000
    2.1467    1.5820   -0.0109 S   0  0  0  0  0  1  0  0  0  0  0  0
    2.1464   -1.5803    0.0609 S   0  0  0  0  0  1  0  0  0  0  0  0
    3.6121    0.6968    0.0222 C   0  0  0  0  0  0  0  0  0  0  0  0
    3.6119   -0.6949    0.0576 C   0  0  0  0  0  0  0  0  0  0  0  0
    5.0207   -1.2320    0.1345 C   0  0  0  0  0  0  0  0  0  0  0  0
    5.8700   -0.0086   -0.2981 C   0  0  0  0  0  0  0  0  0  0  0  0
    5.0211    1.2368    0.0668 C   0  0  0  0  0  0  0  0  0  0  0  0
    5.1824   -2.1271   -0.4999 H   0  0  0  0  0  0  0  0  0  0  0  0
    5.2478   -1.5399    1.1810 H   0  0  0  0  0  0  0  0  0  0  0  0
    6.0092   -0.0389   -1.3983 H   0  0  0  0  0  0  0  0  0  0  0  0
    6.8773    0.0038    0.1624 H   0  0  0  0  0  0  0  0  0  0  0  0
    5.1813    2.0953   -0.6168 H   0  0  0  0  0  0  0  0  0  0  0  0
    5.2499    1.6031    1.0939 H   0  0  0  0  0  0  0  0  0  0  0  0
  1  3  1  0  0  0  0
  3  4  2  0  0  0  0
  3  7  1  0  0  0  0
  4  2  1  0  0  0  0
  4  5  1  0  0  0  0
  5  9  1  0  0  0  0
  6  7  1  0  0  0  0
  6  5  1  0  0  0  0
  6 11  1  0  0  0  0
  7 13  1  0  0  0  0
  8  5  1  0  0  0  0
 10  6  1  0  0  0  0
 12  7  1  0  0  0  0
M  END
