1,2
 OpenBabel05122313063D

 26 27  0  0  0  0  0  0  0  0999 V2000
    1.1689    1.0980   -0.3276 S   0  0  0  0  0  1  0  0  0  0  0  0
    1.7821   -1.4918   -1.3595 S   0  0  0  0  0  1  0  0  0  0  0  0
    3.6937    0.4479   -1.0993 N   0  0  0  0  0  0  0  0  0  0  0  0
    5.6875   -2.1523    1.8688 C   0  0  0  0  0  0  0  0  0  0  0  0
    6.8699   -0.5185   -0.0776 C   0  0  0  0  0  0  0  0  0  0  0  0
    4.7368   -0.5261   -1.4586 C   0  0  0  0  0  0  0  0  0  0  0  0
    7.0119   -1.7124    2.0347 C   0  0  0  0  0  0  0  0  0  0  0  0
    5.5450   -0.9585   -0.2531 C   0  0  0  0  0  0  0  0  0  0  0  0
    2.4063    0.0626   -0.9579 C   0  0  0  0  0  3  0  0  0  0  0  0
    7.6028   -0.8956    1.0590 C   0  0  0  0  0  0  0  0  0  0  0  0
    3.5832    2.9933   -1.2367 C   0  0  0  0  0  0  0  0  0  0  0  0
    4.1241    1.7346   -0.6032 C   0  0  0  0  0  0  0  0  0  0  0  0
    4.9571   -1.7792    0.7325 C   0  0  0  0  0  0  0  0  0  0  0  0
    5.0162    2.5883   -1.4727 C   0  0  0  0  0  0  0  0  0  0  0  0
    2.8710    2.8664   -2.0651 H   0  0  0  0  0  0  0  0  0  0  0  0
    5.2732    2.2081   -2.4735 H   0  0  0  0  0  0  0  0  0  0  0  0
    5.8259    3.1416   -0.9734 H   0  0  0  0  0  0  0  0  0  0  0  0
    5.3959   -0.0653   -2.2206 H   0  0  0  0  0  0  0  0  0  0  0  0
    4.2236   -1.3897   -1.9276 H   0  0  0  0  0  0  0  0  0  0  0  0
    7.3317    0.1265   -0.8424 H   0  0  0  0  0  0  0  0  0  0  0  0
    3.9197   -2.1247    0.5960 H   0  0  0  0  0  0  0  0  0  0  0  0
    7.5847   -2.0095    2.9263 H   0  0  0  0  0  0  0  0  0  0  0  0
    3.3567    3.8365   -0.5675 H   0  0  0  0  0  0  0  0  0  0  0  0
    8.6399   -0.5483    1.1828 H   0  0  0  0  0  0  0  0  0  0  0  0
    4.3125    1.7495    0.4854 H   0  0  0  0  0  0  0  0  0  0  0  0
    5.2214   -2.7969    2.6295 H   0  0  0  0  0  0  0  0  0  0  0  0
  2  9  1  0  0  0  0
  3  9  1  0  0  0  0
  3 12  1  0  0  0  0
  4  7  1  0  0  0  0
  4 26  1  0  0  0  0
  5 10  1  0  0  0  0
  6  3  1  0  0  0  0
  6  8  1  0  0  0  0
  7 22  1  0  0  0  0
  8  5  2  0  0  0  0
  8 13  1  0  0  0  0
  9  1  1  0  0  0  0
 10 24  1  0  0  0  0
 10  7  2  0  0  0  0
 11 12  1  0  0  0  0
 11 23  1  0  0  0  0
 12 25  1  0  0  0  0
 13  4  2  0  0  0  0
 14 11  1  0  0  0  0
 14 17  1  0  0  0  0
 14 12  1  0  0  0  0
 15 11  1  0  0  0  0
 16 14  1  0  0  0  0
 18  6  1  0  0  0  0
 19  6  1  0  0  0  0
 20  5  1  0  0  0  0
 21 13  1  0  0  0  0
M  END
