1,2
 OpenBabel05122313063D

 28 28  0  0  0  0  0  0  0  0999 V2000
   -0.9853   -1.6083   -0.0002 S   0  0  0  0  0  1  0  0  0  0  0  0
   -0.9853    1.6083   -0.0001 S   0  0  0  0  0  1  0  0  0  0  0  0
   -6.2614   -0.0000    0.0002 S   0  0  0  0  0  0  0  0  0  0  0  0
   -3.7557   -1.1178    0.0001 N   0  0  0  0  0  0  0  0  0  0  0  0
   -3.7557    1.1178   -0.0002 N   0  0  0  0  0  0  0  0  0  0  0  0
   -2.4394   -0.7085   -0.0000 C   0  0  0  0  0  0  0  0  0  0  0  0
   -2.4394    0.7085   -0.0002 C   0  0  0  0  0  0  0  0  0  0  0  0
   -4.5979    0.0000    0.0001 C   0  0  0  0  0  0  0  0  0  0  0  0
   -4.2523   -2.5075    0.0002 C   0  0  0  0  0  0  0  0  0  0  0  0
   -5.3550   -2.3765    0.0007 H   0  0  0  0  0  0  0  0  0  0  0  0
   -3.8381   -3.2300   -1.2838 C   0  0  0  0  0  0  0  0  0  0  0  0
   -4.1942   -2.6803   -2.1770 H   0  0  0  0  0  0  0  0  0  0  0  0
   -4.2890   -4.2415   -1.2995 H   0  0  0  0  0  0  0  0  0  0  0  0
   -2.7379   -3.3447   -1.3554 H   0  0  0  0  0  0  0  0  0  0  0  0
   -3.8370   -3.2304    1.2836 C   0  0  0  0  0  0  0  0  0  0  0  0
   -2.7368   -3.3456    1.3541 H   0  0  0  0  0  0  0  0  0  0  0  0
   -4.2884   -4.2417    1.2995 H   0  0  0  0  0  0  0  0  0  0  0  0
   -4.1919   -2.6808    2.1773 H   0  0  0  0  0  0  0  0  0  0  0  0
   -4.2523    2.5075   -0.0001 C   0  0  0  0  0  0  0  0  0  0  0  0
   -5.3550    2.3765   -0.0006 H   0  0  0  0  0  0  0  0  0  0  0  0
   -3.8370    3.2306   -1.2834 C   0  0  0  0  0  0  0  0  0  0  0  0
   -4.2885    4.2419   -1.2992 H   0  0  0  0  0  0  0  0  0  0  0  0
   -4.1920    2.6811   -2.1772 H   0  0  0  0  0  0  0  0  0  0  0  0
   -2.7368    3.3458   -1.3539 H   0  0  0  0  0  0  0  0  0  0  0  0
   -3.8380    3.2299    1.2839 C   0  0  0  0  0  0  0  0  0  0  0  0
   -4.1942    2.6802    2.1771 H   0  0  0  0  0  0  0  0  0  0  0  0
   -4.2888    4.2414    1.2997 H   0  0  0  0  0  0  0  0  0  0  0  0
   -2.7378    3.3444    1.3557 H   0  0  0  0  0  0  0  0  0  0  0  0
  1  6  1  0  0  0  0
  4  9  1  0  0  0  0
  5  7  1  0  0  0  0
  5 19  1  0  0  0  0
  5  8  1  0  0  0  0
  6  4  1  0  0  0  0
  7  2  1  0  0  0  0
  7  6  2  0  0  0  0
  8  4  1  0  0  0  0
  8  3  2  0  0  0  0
  9 10  1  0  0  0  0
  9 15  1  0  0  0  0
 11  9  1  0  0  0  0
 12 11  1  0  0  0  0
 13 11  1  0  0  0  0
 14 11  1  0  0  0  0
 15 17  1  0  0  0  0
 15 16  1  0  0  0  0
 15 18  1  0  0  0  0
 19 25  1  0  0  0  0
 20 19  1  0  0  0  0
 21 19  1  0  0  0  0
 22 21  1  0  0  0  0
 23 21  1  0  0  0  0
 24 21  1  0  0  0  0
 25 27  1  0  0  0  0
 25 28  1  0  0  0  0
 25 26  1  0  0  0  0
M  END
