2,3
 OpenBabel05122313063D

 17 17  0  0  0  0  0  0  0  0999 V2000
   -8.8332    1.3941    0.0105 Br  0  0  0  0  0  0  0  0  0  0  0  0
   -1.6555    0.3059   -0.0199 S   0  0  0  0  0  1  0  0  0  0  0  0
   -0.7911   -2.3802   -0.0423 S   0  0  0  0  0  1  0  0  0  0  0  0
   -3.7969   -4.4316    0.1389 N   0  0  0  0  0  0  0  0  0  0  0  0
   -2.2288   -1.3574   -0.0415 C   0  0  0  0  0  0  0  0  0  0  0  0
   -3.5325   -1.8422   -0.0167 C   0  0  0  0  0  0  0  0  0  0  0  0
   -4.7771   -1.0504   -0.0281 C   0  0  0  0  0  0  0  0  0  0  0  0
   -4.8260    0.2974   -0.4624 C   0  0  0  0  0  0  0  0  0  0  0  0
   -3.9170    0.7838   -0.8437 H   0  0  0  0  0  0  0  0  0  0  0  0
   -6.0223    1.0232   -0.4518 C   0  0  0  0  0  0  0  0  0  0  0  0
   -6.0401    2.0662   -0.7982 H   0  0  0  0  0  0  0  0  0  0  0  0
   -7.2037    0.4075   -0.0100 C   0  0  0  0  0  0  0  0  0  0  0  0
   -7.1944   -0.9328    0.4078 C   0  0  0  0  0  0  0  0  0  0  0  0
   -8.1233   -1.4142    0.7444 H   0  0  0  0  0  0  0  0  0  0  0  0
   -5.9928   -1.6477    0.3925 C   0  0  0  0  0  0  0  0  0  0  0  0
   -5.9901   -2.6988    0.7184 H   0  0  0  0  0  0  0  0  0  0  0  0
   -3.6633   -3.2641    0.0655 C   0  0  0  0  0  0  0  0  0  0  0  0
  3  5  1  0  0  0  0
  5  2  1  0  0  0  0
  5  6  2  0  0  0  0
  6 17  1  0  0  0  0
  7  6  1  0  0  0  0
  7 15  1  0  0  0  0
  8 10  1  0  0  0  0
  8  7  2  0  0  0  0
  9  8  1  0  0  0  0
 10 12  2  0  0  0  0
 11 10  1  0  0  0  0
 12  1  1  0  0  0  0
 12 13  1  0  0  0  0
 13 14  1  0  0  0  0
 15 13  2  0  0  0  0
 15 16  1  0  0  0  0
 17  4  3  0  0  0  0
M  END
