1,2
 OpenBabel05122313063D

 29 31  0  0  0  0  0  0  0  0999 V2000
    1.3663    1.1926    0.2621 S   0  0  0  0  0  1  0  0  0  0  0  0
    2.9854   -2.0074    0.0309 S   0  0  0  0  0  1  0  0  0  0  0  0
    4.2000    2.1570    0.0975 S   0  0  0  0  0  0  0  0  0  0  0  0
    3.0589    0.8267    0.1195 C   0  0  0  0  0  0  0  0  0  0  0  0
    3.7384   -0.4073    0.0146 C   0  0  0  0  0  0  0  0  0  0  0  0
    5.1734   -0.2469   -0.0645 C   0  0  0  0  0  0  0  0  0  0  0  0
    6.1169   -1.3913   -0.0884 C   0  0  0  0  0  0  0  0  0  0  0  0
    6.0024   -2.4128   -1.0585 C   0  0  0  0  0  0  0  0  0  0  0  0
    5.1865   -2.3582   -1.7937 H   0  0  0  0  0  0  0  0  0  0  0  0
    6.9116   -3.4803   -1.0857 C   0  0  0  0  0  0  0  0  0  0  0  0
    6.8076   -4.2636   -1.8530 H   0  0  0  0  0  0  0  0  0  0  0  0
    7.9485   -3.5541   -0.1413 C   0  0  0  0  0  0  0  0  0  0  0  0
    8.6602   -4.3944   -0.1626 H   0  0  0  0  0  0  0  0  0  0  0  0
    8.0655   -2.5515    0.8355 C   0  0  0  0  0  0  0  0  0  0  0  0
    8.8691   -2.6034    1.5869 H   0  0  0  0  0  0  0  0  0  0  0  0
    7.1579   -1.4840    0.8628 C   0  0  0  0  0  0  0  0  0  0  0  0
    7.2458   -0.6988    1.6282 H   0  0  0  0  0  0  0  0  0  0  0  0
    5.5891    1.0920   -0.0348 C   0  0  0  0  0  0  0  0  0  0  0  0
    6.9217    1.6820   -0.1664 C   0  0  0  0  0  0  0  0  0  0  0  0
    7.2318    2.9203    0.4569 C   0  0  0  0  0  0  0  0  0  0  0  0
    6.4608    3.4110    1.0715 H   0  0  0  0  0  0  0  0  0  0  0  0
    8.4945    3.5096    0.3202 C   0  0  0  0  0  0  0  0  0  0  0  0
    8.7008    4.4694    0.8201 H   0  0  0  0  0  0  0  0  0  0  0  0
    9.4973    2.8794   -0.4357 C   0  0  0  0  0  0  0  0  0  0  0  0
   10.4926    3.3387   -0.5381 H   0  0  0  0  0  0  0  0  0  0  0  0
    9.2067    1.6561   -1.0653 C   0  0  0  0  0  0  0  0  0  0  0  0
    9.9750    1.1548   -1.6753 H   0  0  0  0  0  0  0  0  0  0  0  0
    7.9422    1.0695   -0.9429 C   0  0  0  0  0  0  0  0  0  0  0  0
    7.7248    0.1280   -1.4653 H   0  0  0  0  0  0  0  0  0  0  0  0
  3  4  1  0  0  0  0
  4  1  1  0  0  0  0
  5  2  1  0  0  0  0
  5  4  2  0  0  0  0
  6 18  2  0  0  0  0
  6  5  1  0  0  0  0
  7  6  1  0  0  0  0
  7 16  1  0  0  0  0
  8  7  2  0  0  0  0
  9  8  1  0  0  0  0
 10  8  1  0  0  0  0
 10 12  2  0  0  0  0
 11 10  1  0  0  0  0
 12 14  1  0  0  0  0
 13 12  1  0  0  0  0
 14 16  2  0  0  0  0
 14 15  1  0  0  0  0
 16 17  1  0  0  0  0
 18  3  1  0  0  0  0
 19 18  1  0  0  0  0
 19 20  1  0  0  0  0
 20 21  1  0  0  0  0
 22 20  2  0  0  0  0
 22 23  1  0  0  0  0
 24 22  1  0  0  0  0
 25 24  1  0  0  0  0
 26 28  1  0  0  0  0
 26 24  2  0  0  0  0
 27 26  1  0  0  0  0
 28 19  2  0  0  0  0
 29 28  1  0  0  0  0
M  END
