1,2
 OpenBabel05122313063D

 23 24  0  0  1  0  0  0  0  0999 V2000
   -0.5165    2.1518    0.5454 S   0  0  0  0  0  1  0  0  0  0  0  0
   -1.9728   -0.6107    1.5659 S   0  0  0  0  0  1  0  0  0  0  0  0
   -1.9733    2.2712   -0.3477 C   0  0  1  0  0  3  0  0  0  0  0  0
   -2.5761    4.6081    0.3894 C   0  0  0  0  0  0  0  0  0  0  0  0
   -2.3001    4.3650    1.4343 H   0  0  0  0  0  0  0  0  0  0  0  0
   -3.5236    5.1737    0.3567 H   0  0  0  0  0  0  0  0  0  0  0  0
   -1.7621    5.2085   -0.0638 H   0  0  0  0  0  0  0  0  0  0  0  0
   -2.8960   -1.3783    0.3583 C   0  0  1  0  0  3  0  0  0  0  0  0
   -4.0451   -3.1615    1.7237 C   0  0  0  0  0  0  0  0  0  0  0  0
   -4.3825   -4.1751    1.4439 H   0  0  0  0  0  0  0  0  0  0  0  0
   -4.8385   -2.6513    2.3062 H   0  0  0  0  0  0  0  0  0  0  0  0
   -3.1238   -3.2076    2.3361 H   0  0  0  0  0  0  0  0  0  0  0  0
   -2.7733    3.3783   -0.3449 N   0  0  0  0  0  0  0  0  0  0  0  0
   -3.8441    3.1878   -1.1642 N   0  0  0  0  0  0  0  0  0  0  0  0
   -3.7400    2.0132   -1.6645 N   0  0  0  0  0  0  0  0  0  0  0  0
   -2.6064    1.4177   -1.2008 N   0  0  0  0  0  0  0  0  0  0  0  0
   -3.7469   -2.4353    0.5100 N   0  0  0  0  0  0  0  0  0  0  0  0
   -4.3199   -2.7488   -0.6860 N   0  0  0  0  0  0  0  0  0  0  0  0
   -3.8523   -1.9374   -1.5647 N   0  0  0  0  0  0  0  0  0  0  0  0
   -2.9837   -1.0818   -0.9672 N   0  0  0  0  0  0  0  0  0  0  0  0
   -2.1651    0.0055   -1.7121 B   0  0  0  0  0  0  0  0  0  0  0  0
   -0.9912   -0.1394   -1.3724 H   0  0  0  0  0  0  0  0  0  0  0  0
   -2.3626   -0.0892   -2.9068 H   0  0  0  0  0  0  0  0  0  0  0  0
  3 13  1  0  0  0  0
  3  1  1  6  0  0  0
  4  5  1  0  0  0  0
  6  4  1  0  0  0  0
  7  4  1  0  0  0  0
  8 17  1  0  0  0  0
  8  2  1  1  0  0  0
  9 11  1  0  0  0  0
  9 12  1  0  0  0  0
 10  9  1  0  0  0  0
 13  4  1  0  0  0  0
 14 13  1  0  0  0  0
 15 16  1  0  0  0  0
 15 14  2  0  0  0  0
 16  3  1  0  0  0  0
 17  9  1  0  0  0  0
 18 17  1  0  0  0  0
 19 20  1  0  0  0  0
 19 18  2  0  0  0  0
 20  8  1  0  0  0  0
 21 22  1  0  0  0  0
 21 16  1  0  0  0  0
 21 20  1  0  0  0  0
 23 21  1  0  0  0  0
M  END
