1,2
 OpenBabel05122313063D

 28 27  0  0  1  0  0  0  0  0999 V2000
   -0.6663    1.8168   -0.5943 S   0  0  0  0  0  0  0  0  0  0  0  0
    0.6579   -1.1293    0.6251 S   0  0  0  0  0  0  0  0  0  0  0  0
   -0.2078    2.5412    1.0109 C   0  0  0  0  0  0  0  0  0  0  0  0
    0.7404   -2.4563   -0.6187 C   0  0  0  0  0  0  0  0  0  0  0  0
    0.8915    1.0248   -1.2225 C   0  0  2  0  0  0  0  0  0  0  0  0
    1.6540    0.2415   -0.1332 C   0  0  2  0  0  0  0  0  0  0  0  0
    3.0389   -0.2558   -0.5793 C   0  0  0  0  0  0  0  0  0  0  0  0
    3.8471   -1.0046    0.4906 C   0  0  0  0  0  0  0  0  0  0  0  0
    4.0924   -0.2018    1.7691 C   0  0  0  0  0  0  0  0  0  0  0  0
    1.7393    2.0800   -1.9380 C   0  0  0  0  0  0  0  0  0  0  0  0
    0.6766    3.2002    0.9173 H   0  0  0  0  0  0  0  0  0  0  0  0
   -1.0858    3.1452    1.3077 H   0  0  0  0  0  0  0  0  0  0  0  0
   -0.0727    1.7587    1.7821 H   0  0  0  0  0  0  0  0  0  0  0  0
    0.1733   -3.2953   -0.1720 H   0  0  0  0  0  0  0  0  0  0  0  0
    0.2217   -2.1590   -1.5511 H   0  0  0  0  0  0  0  0  0  0  0  0
    1.7859   -2.7760   -0.7852 H   0  0  0  0  0  0  0  0  0  0  0  0
    0.4625    0.3143   -1.9643 H   0  0  0  0  0  0  0  0  0  0  0  0
    1.8014    0.9102    0.7411 H   0  0  0  0  0  0  0  0  0  0  0  0
    2.9307   -0.8840   -1.4896 H   0  0  0  0  0  0  0  0  0  0  0  0
    3.6226    0.6341   -0.8958 H   0  0  0  0  0  0  0  0  0  0  0  0
    3.3383   -1.9573    0.7502 H   0  0  0  0  0  0  0  0  0  0  0  0
    4.8193   -1.2911    0.0363 H   0  0  0  0  0  0  0  0  0  0  0  0
    4.5566    0.7831    1.5500 H   0  0  0  0  0  0  0  0  0  0  0  0
    3.1509   -0.0190    2.3266 H   0  0  0  0  0  0  0  0  0  0  0  0
    4.7714   -0.7442    2.4563 H   0  0  0  0  0  0  0  0  0  0  0  0
    2.5574    1.6107   -2.5191 H   0  0  0  0  0  0  0  0  0  0  0  0
    1.1125    2.6578   -2.6430 H   0  0  0  0  0  0  0  0  0  0  0  0
    2.1957    2.7927   -1.2197 H   0  0  0  0  0  0  0  0  0  0  0  0
  1  3  1  0  0  0  0
  3 12  1  0  0  0  0
  3 13  1  0  0  0  0
  4 14  1  0  0  0  0
  4  2  1  0  0  0  0
  5 17  1  6  0  0  0
  5  1  1  0  0  0  0
  5  6  1  0  0  0  0
  6  2  1  0  0  0  0
  6 18  1  1  0  0  0
  7  6  1  0  0  0  0
  7  8  1  0  0  0  0
  8 21  1  0  0  0  0
  8  9  1  0  0  0  0
  9 24  1  0  0  0  0
  9 25  1  0  0  0  0
 10  5  1  0  0  0  0
 10 28  1  0  0  0  0
 11  3  1  0  0  0  0
 15  4  1  0  0  0  0
 16  4  1  0  0  0  0
 19  7  1  0  0  0  0
 20  7  1  0  0  0  0
 22  8  1  0  0  0  0
 23  9  1  0  0  0  0
 26 10  1  0  0  0  0
 27 10  1  0  0  0  0
M  END
