1,2
 OpenBabel05122313063D

 80 87  0  0  1  0  0  0  0  0999 V2000
    3.5232   -1.5899   -0.0200 S   0  0  0  0  0  1  0  0  0  0  0  0
    0.6984   -2.9265   -0.1019 S   0  0  0  0  0  1  0  0  0  0  0  0
   -1.8302    1.5705    0.0971 P   0  0  0  0  0  4  0  0  0  0  0  0
    0.8004    0.8125   -3.6613 B   0  0  2  0  0  0  0  0  0  0  0  0
    0.8029    1.0141   -4.8560 H   0  0  0  0  0  0  0  0  0  0  0  0
    0.5290   -0.8265   -2.9702 B   0  0  0  0  0  2  0  0  0  0  0  0
    0.3994   -1.8280   -3.6481 H   0  0  0  0  0  0  0  0  0  0  0  0
    2.1389   -0.0336   -2.8683 B   0  0  0  0  0  0  0  0  0  0  0  0
    3.0995   -0.4973   -3.4535 H   0  0  0  0  0  0  0  0  0  0  0  0
    1.9035    1.7264   -2.6081 B   0  0  1  0  0  0  0  0  0  0  0  0
    2.6619    2.5781   -3.0196 H   0  0  0  0  0  0  0  0  0  0  0  0
    0.1336    1.9738   -2.4597 B   0  0  1  0  0  0  0  0  0  0  0  0
   -0.3234    3.0739   -2.6949 H   0  0  0  0  0  0  0  0  0  0  0  0
   -0.7138    0.4524   -2.8142 B   0  0  2  0  0  0  0  0  0  0  0  0
   -1.7899    0.3951   -3.3719 H   0  0  0  0  0  0  0  0  0  0  0  0
    2.4634    0.7036   -1.3181 B   0  0  0  0  0  0  0  0  0  0  0  0
    1.1426    1.8844   -0.9743 B   0  0  0  0  0  0  0  0  0  0  0  0
    1.3230    2.8393   -0.2465 H   0  0  0  0  0  0  0  0  0  0  0  0
    1.5948    0.8365   -0.2868 H   0  0  0  0  0  0  0  0  0  0  0  0
   -0.4988    1.0327   -1.1371 B   0  0  1  0  0  0  0  0  0  0  0  0
   -0.3286   -0.6270   -1.4701 B   0  0  2  0  0  0  0  0  0  0  0  0
    3.8292    0.8909   -0.7818 O   0  0  0  0  0  0  0  0  0  0  0  0
   -1.3469   -1.6088   -1.0348 O   0  0  0  0  0  0  0  0  0  0  0  0
    4.3650   -0.1143   -0.1548 C   0  0  1  0  0  3  0  0  0  0  0  0
   -0.9676   -2.6733   -0.4088 C   0  0  2  0  0  3  0  0  0  0  0  0
    5.7033    0.1008    0.4165 C   0  0  0  0  0  0  0  0  0  0  0  0
    6.3835   -0.9320    1.1027 C   0  0  0  0  0  0  0  0  0  0  0  0
    5.8983   -1.9136    1.2102 H   0  0  0  0  0  0  0  0  0  0  0  0
    7.6567   -0.7034    1.6324 C   0  0  0  0  0  0  0  0  0  0  0  0
    8.1805   -1.5117    2.1640 H   0  0  0  0  0  0  0  0  0  0  0  0
    8.2674    0.5547    1.4832 C   0  0  0  0  0  0  0  0  0  0  0  0
    9.2708    0.7311    1.8997 H   0  0  0  0  0  0  0  0  0  0  0  0
    7.5986    1.5854    0.8017 C   0  0  0  0  0  0  0  0  0  0  0  0
    8.0765    2.5693    0.6831 H   0  0  0  0  0  0  0  0  0  0  0  0
    6.3232    1.3649    0.2706 C   0  0  0  0  0  0  0  0  0  0  0  0
    5.7885    2.1608   -0.2660 H   0  0  0  0  0  0  0  0  0  0  0  0
   -2.0171   -3.6047    0.0278 C   0  0  0  0  0  0  0  0  0  0  0  0
   -1.7046   -4.7771    0.7544 C   0  0  0  0  0  0  0  0  0  0  0  0
   -0.6525   -4.9946    0.9919 H   0  0  0  0  0  0  0  0  0  0  0  0
   -2.7235   -5.6435    1.1627 C   0  0  0  0  0  0  0  0  0  0  0  0
   -2.4726   -6.5538    1.7275 H   0  0  0  0  0  0  0  0  0  0  0  0
   -4.0640   -5.3536    0.8515 C   0  0  0  0  0  0  0  0  0  0  0  0
   -4.8635   -6.0381    1.1736 H   0  0  0  0  0  0  0  0  0  0  0  0
   -4.3808   -4.1913    0.1282 C   0  0  0  0  0  0  0  0  0  0  0  0
   -5.4282   -3.9592   -0.1171 H   0  0  0  0  0  0  0  0  0  0  0  0
   -3.3674   -3.3198   -0.2838 C   0  0  0  0  0  0  0  0  0  0  0  0
   -3.6047   -2.4092   -0.8499 H   0  0  0  0  0  0  0  0  0  0  0  0
   -1.2028    1.2791    1.7970 C   0  0  0  0  0  0  0  0  0  0  0  0
   -0.2962    0.2217    2.0136 C   0  0  0  0  0  0  0  0  0  0  0  0
    0.0612   -0.3816    1.1644 H   0  0  0  0  0  0  0  0  0  0  0  0
    0.1657   -0.0481    3.3091 C   0  0  0  0  0  0  0  0  0  0  0  0
    0.8755   -0.8747    3.4646 H   0  0  0  0  0  0  0  0  0  0  0  0
   -0.2668    0.7367    4.3904 C   0  0  0  0  0  0  0  0  0  0  0  0
    0.1024    0.5276    5.4060 H   0  0  0  0  0  0  0  0  0  0  0  0
   -1.1640    1.7956    4.1745 C   0  0  0  0  0  0  0  0  0  0  0  0
   -1.4974    2.4181    5.0187 H   0  0  0  0  0  0  0  0  0  0  0  0
   -1.6339    2.0697    2.8809 C   0  0  0  0  0  0  0  0  0  0  0  0
   -2.3302    2.9048    2.7100 H   0  0  0  0  0  0  0  0  0  0  0  0
   -3.3915    0.6160   -0.0178 C   0  0  0  0  0  0  0  0  0  0  0  0
   -3.9855    0.0254    1.1139 C   0  0  0  0  0  0  0  0  0  0  0  0
   -3.4824    0.0774    2.0905 H   0  0  0  0  0  0  0  0  0  0  0  0
   -5.2212   -0.6302    0.9931 C   0  0  0  0  0  0  0  0  0  0  0  0
   -5.6793   -1.0943    1.8793 H   0  0  0  0  0  0  0  0  0  0  0  0
   -5.8644   -0.6990   -0.2522 C   0  0  0  0  0  0  0  0  0  0  0  0
   -6.8348   -1.2104   -0.3437 H   0  0  0  0  0  0  0  0  0  0  0  0
   -5.2630   -0.1245   -1.3854 C   0  0  0  0  0  0  0  0  0  0  0  0
   -5.7566   -0.1886   -2.3667 H   0  0  0  0  0  0  0  0  0  0  0  0
   -4.0293    0.5323   -1.2731 C   0  0  0  0  0  0  0  0  0  0  0  0
   -3.5509    0.9702   -2.1614 H   0  0  0  0  0  0  0  0  0  0  0  0
   -2.3647    3.3244    0.0660 C   0  0  0  0  0  0  0  0  0  0  0  0
   -3.7174    3.6845    0.2361 C   0  0  0  0  0  0  0  0  0  0  0  0
   -4.4824    2.9070    0.3771 H   0  0  0  0  0  0  0  0  0  0  0  0
   -4.0891    5.0376    0.2192 C   0  0  0  0  0  0  0  0  0  0  0  0
   -5.1466    5.3128    0.3505 H   0  0  0  0  0  0  0  0  0  0  0  0
   -3.1184    6.0337    0.0323 C   0  0  0  0  0  0  0  0  0  0  0  0
   -3.4134    7.0939    0.0151 H   0  0  0  0  0  0  0  0  0  0  0  0
   -1.7712    5.6757   -0.1386 C   0  0  0  0  0  0  0  0  0  0  0  0
   -1.0072    6.4525   -0.2927 H   0  0  0  0  0  0  0  0  0  0  0  0
   -1.3897    4.3271   -0.1236 C   0  0  0  0  0  0  0  0  0  0  0  0
   -0.3364    4.0475   -0.2643 H   0  0  0  0  0  0  0  0  0  0  0  0
  3 48  1  0  0  0  0
  4  5  1  6  0  0  0
  4  8  1  0  0  0  0
  4 14  1  0  0  0  0
  4 10  1  0  0  0  0
  7  6  1  0  0  0  0
  8 16  1  0  0  0  0
  9  8  1  0  0  0  0
 10 11  1  6  0  0  0
 10 12  1  0  0  0  0
 10 16  1  0  0  0  0
 12 13  1  6  0  0  0
 12 20  1  0  0  0  0
 14 15  1  6  0  0  0
 14 12  1  0  0  0  0
 14 21  1  0  0  0  0
 16 22  1  0  0  0  0
 17 19  1  0  0  0  0
 17 18  1  0  0  0  0
 20 17  1  1  0  0  0
 20  3  1  0  0  0  0
 21  6  1  1  0  0  0
 21 20  1  0  0  0  0
 21 23  1  0  0  0  0
 22 24  1  0  0  0  0
 23 25  1  0  0  0  0
 24  1  1  1  0  0  0
 24 26  1  0  0  0  0
 25  2  1  1  0  0  0
 25 37  1  0  0  0  0
 26 27  1  0  0  0  0
 27 28  1  0  0  0  0
 27 29  2  0  0  0  0
 29 30  1  0  0  0  0
 31 29  1  0  0  0  0
 31 32  1  0  0  0  0
 33 31  2  0  0  0  0
 34 33  1  0  0  0  0
 35 26  2  0  0  0  0
 35 33  1  0  0  0  0
 36 35  1  0  0  0  0
 37 38  1  0  0  0  0
 38 39  1  0  0  0  0
 38 40  2  0  0  0  0
 40 41  1  0  0  0  0
 42 40  1  0  0  0  0
 42 43  1  0  0  0  0
 44 42  2  0  0  0  0
 45 44  1  0  0  0  0
 46 37  2  0  0  0  0
 46 44  1  0  0  0  0
 47 46  1  0  0  0  0
 48 49  2  0  0  0  0
 48 57  1  0  0  0  0
 49 51  1  0  0  0  0
 50 49  1  0  0  0  0
 51 52  1  0  0  0  0
 51 53  2  0  0  0  0
 53 54  1  0  0  0  0
 55 53  1  0  0  0  0
 55 56  1  0  0  0  0
 57 55  2  0  0  0  0
 58 57  1  0  0  0  0
 59  3  1  0  0  0  0
 59 60  1  0  0  0  0
 60 61  1  0  0  0  0
 62 60  2  0  0  0  0
 62 63  1  0  0  0  0
 64 62  1  0  0  0  0
 65 64  1  0  0  0  0
 66 68  1  0  0  0  0
 66 64  2  0  0  0  0
 67 66  1  0  0  0  0
 68 59  2  0  0  0  0
 69 68  1  0  0  0  0
 70  3  1  0  0  0  0
 70 71  1  0  0  0  0
 71 72  1  0  0  0  0
 73 71  2  0  0  0  0
 73 74  1  0  0  0  0
 75 73  1  0  0  0  0
 76 75  1  0  0  0  0
 77 79  1  0  0  0  0
 77 75  2  0  0  0  0
 78 77  1  0  0  0  0
 79 70  2  0  0  0  0
 80 79  1  0  0  0  0
M  END
