2,3
 OpenBabel05122313063D

 36 35  0  0  0  0  0  0  0  0999 V2000
   -2.0962    0.0003   -0.0609 P   0  0  0  0  0  4  0  0  0  0  0  0
   -0.6693    0.1826   -1.4943 S   0  0  0  0  0  1  0  0  0  0  0  0
    0.2481    0.5046    1.8990 S   0  0  0  0  0  0  0  0  0  0  0  0
    0.8599   -0.5866    3.2303 C   0  0  0  0  0  0  0  0  0  0  0  0
    1.8787   -0.2255    3.4646 H   0  0  0  0  0  0  0  0  0  0  0  0
    0.9222   -1.6310    2.8687 H   0  0  0  0  0  0  0  0  0  0  0  0
    0.2122   -0.5030    4.1244 H   0  0  0  0  0  0  0  0  0  0  0  0
   -3.1706   -1.5414   -0.3875 C   0  0  0  0  0  0  0  0  0  0  0  0
   -4.0361   -1.2783   -1.6310 C   0  0  0  0  0  0  0  0  0  0  0  0
   -4.5149   -2.2295   -1.9427 H   0  0  0  0  0  0  0  0  0  0  0  0
   -3.4229   -0.9152   -2.4798 H   0  0  0  0  0  0  0  0  0  0  0  0
   -4.8448   -0.5483   -1.4342 H   0  0  0  0  0  0  0  0  0  0  0  0
   -2.1922   -2.6935   -0.6871 C   0  0  0  0  0  0  0  0  0  0  0  0
   -2.7843   -3.6011   -0.9265 H   0  0  0  0  0  0  0  0  0  0  0  0
   -1.5373   -2.9430    0.1708 H   0  0  0  0  0  0  0  0  0  0  0  0
   -1.5382   -2.4558   -1.5473 H   0  0  0  0  0  0  0  0  0  0  0  0
   -4.0450   -1.9062    0.8245 C   0  0  0  0  0  0  0  0  0  0  0  0
   -4.7725   -1.1172    1.0878 H   0  0  0  0  0  0  0  0  0  0  0  0
   -3.4418   -2.1426    1.7232 H   0  0  0  0  0  0  0  0  0  0  0  0
   -4.6237   -2.8208    0.5769 H   0  0  0  0  0  0  0  0  0  0  0  0
   -3.0601    1.6352    0.0838 C   0  0  0  0  0  0  0  0  0  0  0  0
   -2.0537    2.6557    0.6538 C   0  0  0  0  0  0  0  0  0  0  0  0
   -1.1412    2.7171    0.0281 H   0  0  0  0  0  0  0  0  0  0  0  0
   -1.7480    2.4253    1.6933 H   0  0  0  0  0  0  0  0  0  0  0  0
   -2.5326    3.6568    0.6590 H   0  0  0  0  0  0  0  0  0  0  0  0
   -4.2820    1.5213    1.0072 C   0  0  0  0  0  0  0  0  0  0  0  0
   -4.0252    1.1363    2.0148 H   0  0  0  0  0  0  0  0  0  0  0  0
   -5.0766    0.8820    0.5767 H   0  0  0  0  0  0  0  0  0  0  0  0
   -4.7162    2.5333    1.1478 H   0  0  0  0  0  0  0  0  0  0  0  0
   -3.4809    2.0943   -1.3236 C   0  0  0  0  0  0  0  0  0  0  0  0
   -2.6118    2.1111   -2.0104 H   0  0  0  0  0  0  0  0  0  0  0  0
   -3.8855    3.1249   -1.2519 H   0  0  0  0  0  0  0  0  0  0  0  0
   -4.2670    1.4547   -1.7652 H   0  0  0  0  0  0  0  0  0  0  0  0
   -1.3724   -0.3358    1.6100 C   0  0  0  0  0  0  0  0  0  0  0  0
   -1.1906   -1.4278    1.6578 H   0  0  0  0  0  0  0  0  0  0  0  0
   -2.0990   -0.0514    2.3988 H   0  0  0  0  0  0  0  0  0  0  0  0
  1 21  1  0  0  0  0
  1 34  1  0  0  0  0
  2  1  1  0  0  0  0
  3  4  1  0  0  0  0
  4  5  1  0  0  0  0
  4  7  1  0  0  0  0
  6  4  1  0  0  0  0
  8  1  1  0  0  0  0
  8 17  1  0  0  0  0
  9 12  1  0  0  0  0
  9  8  1  0  0  0  0
 10  9  1  0  0  0  0
 11  9  1  0  0  0  0
 13  8  1  0  0  0  0
 13 15  1  0  0  0  0
 14 13  1  0  0  0  0
 16 13  1  0  0  0  0
 17 18  1  0  0  0  0
 17 19  1  0  0  0  0
 20 17  1  0  0  0  0
 21 22  1  0  0  0  0
 21 26  1  0  0  0  0
 22 25  1  0  0  0  0
 22 24  1  0  0  0  0
 23 22  1  0  0  0  0
 26 29  1  0  0  0  0
 26 27  1  0  0  0  0
 28 26  1  0  0  0  0
 30 32  1  0  0  0  0
 30 21  1  0  0  0  0
 31 30  1  0  0  0  0
 33 30  1  0  0  0  0
 34 35  1  0  0  0  0
 34  3  1  0  0  0  0
 34 36  1  0  0  0  0
M  END
