1,2
 OpenBabel05122313063D

 22 24  0  0  0  0  0  0  0  0999 V2000
    1.4982   -2.0531   -0.8143 S   0  0  0  0  0  1  0  0  0  0  0  0
    1.5592    1.0231   -1.8990 S   0  0  0  0  0  1  0  0  0  0  0  0
    2.9534   -1.4312   -0.0051 C   0  0  0  0  0  0  0  0  0  0  0  0
    3.6196   -2.3785    0.7974 C   0  0  0  0  0  0  0  0  0  0  0  0
    4.8640   -2.1360    1.4305 C   0  0  0  0  0  0  0  0  0  0  0  0
    5.4499   -0.8875    1.2869 C   0  0  0  0  0  0  0  0  0  0  0  0
    4.7802    0.0921    0.5050 C   0  0  0  0  0  0  0  0  0  0  0  0
    5.5284    1.2995    0.4552 C   0  0  0  0  0  0  0  0  0  0  0  0
    5.0266    2.3627   -0.2801 C   0  0  0  0  0  0  0  0  0  0  0  0
    3.7796    2.2058   -0.9349 C   0  0  0  0  0  0  0  0  0  0  0  0
    3.0311    1.0126   -0.9121 C   0  0  0  0  0  0  0  0  0  0  0  0
    3.5313   -0.1176   -0.1647 C   0  0  0  0  0  0  0  0  0  0  0  0
    6.7438   -0.3119    1.8259 C   0  0  0  0  0  0  0  0  0  0  0  0
    6.7967    1.1466    1.2703 C   0  0  0  0  0  0  0  0  0  0  0  0
    3.1376   -3.3605    0.9204 H   0  0  0  0  0  0  0  0  0  0  0  0
    5.3341   -2.9322    2.0290 H   0  0  0  0  0  0  0  0  0  0  0  0
    5.5630    3.3219   -0.3529 H   0  0  0  0  0  0  0  0  0  0  0  0
    3.3629    3.0527   -1.5020 H   0  0  0  0  0  0  0  0  0  0  0  0
    7.6194   -0.9101    1.4950 H   0  0  0  0  0  0  0  0  0  0  0  0
    6.7637   -0.3310    2.9366 H   0  0  0  0  0  0  0  0  0  0  0  0
    7.6995    1.3160    0.6456 H   0  0  0  0  0  0  0  0  0  0  0  0
    6.8459    1.8978    2.0874 H   0  0  0  0  0  0  0  0  0  0  0  0
  1  3  1  0  0  0  0
  2 11  1  0  0  0  0
  3  4  1  0  0  0  0
  4 15  1  0  0  0  0
  4  5  2  0  0  0  0
  5 16  1  0  0  0  0
  6  5  1  0  0  0  0
  6 13  1  0  0  0  0
  7  6  2  0  0  0  0
  8  7  1  0  0  0  0
  8 14  1  0  0  0  0
  9  8  2  0  0  0  0
 10 11  2  0  0  0  0
 10  9  1  0  0  0  0
 11 12  1  0  0  0  0
 12  3  2  0  0  0  0
 12  7  1  0  0  0  0
 13 20  1  0  0  0  0
 14 13  1  0  0  0  0
 14 22  1  0  0  0  0
 17  9  1  0  0  0  0
 18 10  1  0  0  0  0
 19 13  1  0  0  0  0
 21 14  1  0  0  0  0
M  END
