1,3
 OpenBabel05122313063D

 31 34  0  0  1  0  0  0  0  0999 V2000
    1.0512   -0.6019   -1.8875 S   0  0  0  0  0  1  0  0  0  0  0  0
    3.3351   -3.9672    0.2974 S   0  0  0  0  0  0  0  0  0  0  0  0
    0.5558   -3.2212    0.9728 S   0  0  0  0  0  1  0  0  0  0  0  0
    2.2638    2.1114   -2.2489 S   0  0  0  0  0  0  0  0  0  0  0  0
    2.1968    0.9389    0.0767 N   0  0  0  0  0  0  0  0  0  0  0  0
    2.7336   -1.4885    0.7941 N   0  0  0  0  0  0  0  0  0  0  0  0
    4.1158   -1.5054    0.5608 C   0  0  0  0  0  0  0  0  0  0  0  0
    4.6317   -2.7931    0.2595 C   0  0  0  0  0  0  0  0  0  0  0  0
    1.8347    0.7280   -1.2232 C   0  0  1  0  0  3  0  0  0  0  0  0
    2.7476    2.2062    0.3085 C   0  0  0  0  0  0  0  0  0  0  0  0
    4.9982   -0.4091    0.6224 C   0  0  0  0  0  0  0  0  0  0  0  0
    4.6344    0.5920    0.8803 H   0  0  0  0  0  0  0  0  0  0  0  0
    6.3584   -0.6179    0.3603 C   0  0  0  0  0  0  0  0  0  0  0  0
    7.0471    0.2387    0.4067 H   0  0  0  0  0  0  0  0  0  0  0  0
    2.1588   -2.7210    0.7176 C   0  0  1  0  0  3  0  0  0  0  0  0
    5.9934   -3.0010   -0.0022 C   0  0  0  0  0  0  0  0  0  0  0  0
    6.3715   -4.0071   -0.2345 H   0  0  0  0  0  0  0  0  0  0  0  0
    6.8558   -1.8971    0.0440 C   0  0  0  0  0  0  0  0  0  0  0  0
    7.9276   -2.0354   -0.1620 H   0  0  0  0  0  0  0  0  0  0  0  0
    2.8880    2.9914   -0.8688 C   0  0  0  0  0  0  0  0  0  0  0  0
    3.4230    4.2866   -0.8326 C   0  0  0  0  0  0  0  0  0  0  0  0
    3.5209    4.8755   -1.7560 H   0  0  0  0  0  0  0  0  0  0  0  0
    2.0138   -0.1519    1.1955 B   0  0  0  0  0  0  0  0  0  0  0  0
    3.1460    2.7516    1.5453 C   0  0  0  0  0  0  0  0  0  0  0  0
    3.0311    2.1588    2.4613 H   0  0  0  0  0  0  0  0  0  0  0  0
    3.8185    4.8127    0.4055 C   0  0  0  0  0  0  0  0  0  0  0  0
    4.2372    5.8286    0.4564 H   0  0  0  0  0  0  0  0  0  0  0  0
    3.6763    4.0485    1.5797 C   0  0  0  0  0  0  0  0  0  0  0  0
    3.9840    4.4736    2.5466 H   0  0  0  0  0  0  0  0  0  0  0  0
    0.8118   -0.3417    1.3974 H   0  0  0  0  0  0  0  0  0  0  0  0
    2.5296    0.2514    2.2287 H   0  0  0  0  0  0  0  0  0  0  0  0
  2 15  1  0  0  0  0
  4  9  1  0  0  0  0
  4 20  1  0  0  0  0
  5 10  1  0  0  0  0
  5 23  1  0  0  0  0
  6 23  1  0  0  0  0
  7 11  1  0  0  0  0
  7  6  1  0  0  0  0
  8  2  1  0  0  0  0
  8  7  2  0  0  0  0
  9  1  1  1  0  0  0
  9  5  1  0  0  0  0
 10 24  1  0  0  0  0
 11 12  1  0  0  0  0
 13 14  1  0  0  0  0
 13 11  2  0  0  0  0
 15  6  1  0  0  0  0
 15  3  1  1  0  0  0
 16 18  2  0  0  0  0
 16  8  1  0  0  0  0
 17 16  1  0  0  0  0
 18 13  1  0  0  0  0
 19 18  1  0  0  0  0
 20 21  1  0  0  0  0
 20 10  2  0  0  0  0
 21 26  2  0  0  0  0
 22 21  1  0  0  0  0
 23 30  1  0  0  0  0
 23 31  1  0  0  0  0
 24 28  2  0  0  0  0
 24 25  1  0  0  0  0
 26 27  1  0  0  0  0
 26 28  1  0  0  0  0
 28 29  1  0  0  0  0
M  END
