1,2
 OpenBabel05122313063D

 14 14  0  0  0  0  0  0  0  0999 V2000
    1.6845   -1.6702    0.0000 S   0  0  0  0  0  1  0  0  0  0  0  0
    1.6917    1.6592   -0.0004 S   0  0  0  0  0  1  0  0  0  0  0  0
    6.8286   -1.4061   -0.0000 O   0  0  0  0  0  0  0  0  0  0  0  0
    7.5129   -0.7068    0.0006 H   0  0  0  0  0  0  0  0  0  0  0  0
    6.8783    1.2779    0.0001 O   0  0  0  0  0  0  0  0  0  0  0  0
    6.7503    2.2424    0.0018 H   0  0  0  0  0  0  0  0  0  0  0  0
    3.1797   -0.7204   -0.0001 C   0  0  0  0  0  0  0  0  0  0  0  0
    4.4124   -1.4160   -0.0001 C   0  0  0  0  0  0  0  0  0  0  0  0
    4.4245   -2.5162    0.0000 H   0  0  0  0  0  0  0  0  0  0  0  0
    5.6321   -0.7325   -0.0001 C   0  0  0  0  0  0  0  0  0  0  0  0
    5.6256    0.6812    0.0000 C   0  0  0  0  0  0  0  0  0  0  0  0
    4.4177    1.3814    0.0001 C   0  0  0  0  0  0  0  0  0  0  0  0
    4.4224    2.4850    0.0003 H   0  0  0  0  0  0  0  0  0  0  0  0
    3.1786    0.6971   -0.0001 C   0  0  0  0  0  0  0  0  0  0  0  0
  2 14  1  0  0  0  0
  3  4  1  0  0  0  0
  5  6  1  0  0  0  0
  7 14  1  0  0  0  0
  7  1  1  0  0  0  0
  8  7  2  0  0  0  0
  8  9  1  0  0  0  0
 10  8  1  0  0  0  0
 10  3  1  0  0  0  0
 10 11  2  0  0  0  0
 11 12  1  0  0  0  0
 11  5  1  0  0  0  0
 12 13  1  0  0  0  0
 14 12  2  0  0  0  0
M  END
