1,2
 OpenBabel05122313063D

 40 40  0  0  0  0  0  0  0  0999 V2000
   -4.2580   -1.1629   -0.9166 S   0  0  0  0  0  1  0  0  0  0  0  0
   -3.7827    0.7298    1.2255 S   0  0  0  0  0  1  0  0  0  0  0  0
    4.5364   -0.6473   -0.3095 O   0  0  0  0  0  0  0  0  0  0  0  0
    5.5274   -0.3693    1.7203 O   0  0  0  0  0  0  0  0  0  0  0  0
    9.2728    0.3754   -1.7436 O   0  0  0  0  0  0  0  0  0  0  0  0
   10.2750    0.6506    0.2805 O   0  0  0  0  0  0  0  0  0  0  0  0
   -1.9008   -1.0423    0.4140 N   0  0  0  0  0  0  0  0  0  0  0  0
    0.8853   -1.1286   -0.1375 N   0  0  0  0  0  0  0  0  0  0  0  0
   -3.1506   -0.5541    0.2598 C   0  0  0  0  0  3  0  0  0  0  0  0
   -1.3499   -2.0990   -0.4306 C   0  0  0  0  0  0  0  0  0  0  0  0
   -2.1137   -2.4000   -1.1726 H   0  0  0  0  0  0  0  0  0  0  0  0
   -1.1114   -2.9763    0.2100 H   0  0  0  0  0  0  0  0  0  0  0  0
   -0.0773   -1.6071   -1.1221 C   0  0  0  0  0  0  0  0  0  0  0  0
    0.3710   -2.4484   -1.6890 H   0  0  0  0  0  0  0  0  0  0  0  0
   -0.3561   -0.8122   -1.8651 H   0  0  0  0  0  0  0  0  0  0  0  0
    0.3192   -0.0376    0.6494 C   0  0  0  0  0  0  0  0  0  0  0  0
    0.0686    0.8498    0.0078 H   0  0  0  0  0  0  0  0  0  0  0  0
    1.0560    0.3013    1.4044 H   0  0  0  0  0  0  0  0  0  0  0  0
   -0.9464   -0.4958    1.3749 C   0  0  0  0  0  0  0  0  0  0  0  0
   -0.6905   -1.2880    2.1123 H   0  0  0  0  0  0  0  0  0  0  0  0
   -1.4214    0.3466    1.9126 H   0  0  0  0  0  0  0  0  0  0  0  0
    2.1923   -0.8222   -0.7011 C   0  0  0  0  0  0  0  0  0  0  0  0
    2.2297    0.1871   -1.1881 H   0  0  0  0  0  0  0  0  0  0  0  0
    2.4132   -1.5615   -1.4981 H   0  0  0  0  0  0  0  0  0  0  0  0
    3.2913   -0.9163    0.3516 C   0  0  0  0  0  0  0  0  0  0  0  0
    3.1586   -0.1957    1.1854 H   0  0  0  0  0  0  0  0  0  0  0  0
    3.3129   -1.9316    0.8020 H   0  0  0  0  0  0  0  0  0  0  0  0
    5.5961   -0.3872    0.5035 C   0  0  0  0  0  0  0  0  0  0  0  0
    6.8159   -0.1351   -0.3051 C   0  0  0  0  0  0  0  0  0  0  0  0
    6.7434   -0.1796   -1.4032 H   0  0  0  0  0  0  0  0  0  0  0  0
    7.9958    0.1423    0.2878 C   0  0  0  0  0  0  0  0  0  0  0  0
    8.0716    0.1865    1.3857 H   0  0  0  0  0  0  0  0  0  0  0  0
    9.2164    0.3939   -0.5253 C   0  0  0  0  0  0  0  0  0  0  0  0
   11.5249    0.9124   -0.3931 C   0  0  0  0  0  0  0  0  0  0  0  0
   11.3868    1.7785   -1.0752 H   0  0  0  0  0  0  0  0  0  0  0  0
   11.7716    0.0411   -1.0367 H   0  0  0  0  0  0  0  0  0  0  0  0
   12.5808    1.1698    0.6612 C   0  0  0  0  0  0  0  0  0  0  0  0
   12.3136    2.0439    1.2874 H   0  0  0  0  0  0  0  0  0  0  0  0
   13.5559    1.3754    0.1773 H   0  0  0  0  0  0  0  0  0  0  0  0
   12.7022    0.2917    1.3260 H   0  0  0  0  0  0  0  0  0  0  0  0
  1  9  1  0  0  0  0
  3 25  1  0  0  0  0
  3 28  1  0  0  0  0
  5 33  2  0  0  0  0
  7 19  1  0  0  0  0
  8 16  1  0  0  0  0
  9  7  1  0  0  0  0
  9  2  1  0  0  0  0
 10 12  1  0  0  0  0
 10  7  1  0  0  0  0
 11 10  1  0  0  0  0
 13 10  1  0  0  0  0
 13  8  1  0  0  0  0
 14 13  1  0  0  0  0
 15 13  1  0  0  0  0
 16 19  1  0  0  0  0
 16 18  1  0  0  0  0
 17 16  1  0  0  0  0
 19 21  1  0  0  0  0
 19 20  1  0  0  0  0
 22  8  1  0  0  0  0
 22 25  1  0  0  0  0
 23 22  1  0  0  0  0
 24 22  1  0  0  0  0
 25 27  1  0  0  0  0
 25 26  1  0  0  0  0
 28  4  2  0  0  0  0
 29 31  2  0  0  0  0
 29 28  1  0  0  0  0
 30 29  1  0  0  0  0
 31 32  1  0  0  0  0
 33  6  1  0  0  0  0
 33 31  1  0  0  0  0
 34  6  1  0  0  0  0
 34 37  1  0  0  0  0
 35 34  1  0  0  0  0
 36 34  1  0  0  0  0
 37 38  1  0  0  0  0
 37 40  1  0  0  0  0
 39 37  1  0  0  0  0
M  END
