2,3
q = -1.0, confidence = 0.0

 42 41  0  0  0  0  0  0  0  0999 V2000
   -2.9046    1.0792    0.1190 P   0  0  0  0  0  4  0  0  0  0  0  0
   -1.4618    1.0865   -1.3134 S   0  0  0  0  0  1  0  0  0  0  0  0
   -1.2611   -1.7860    0.4066 S   0  0  0  0  0  1  0  0  0  0  0  0
   -3.6303   -0.3383    0.4200 N   0  0  0  0  0  0  0  0  0  0  0  0
   -3.7868   -2.6288    0.4905 N   0  0  0  0  0  0  0  0  0  0  0  0
   -2.4335    1.7029    1.5361 O   0  0  0  0  0  0  0  0  0  0  0  0
   -4.0835    2.1164   -0.3229 O   0  0  0  0  0  0  0  0  0  0  0  0
   -3.0018   -1.5122    0.4238 C   0  0  0  0  0  0  0  0  0  0  0  0
   -1.6221    2.9191    1.6183 C   0  0  0  0  0  0  0  0  0  0  0  0
   -1.1205    3.0584    0.6344 H   0  0  0  0  0  0  0  0  0  0  0  0
   -2.5434    4.0971    1.9045 C   0  0  0  0  0  0  0  0  0  0  0  0
   -3.3046    4.1949    1.1069 H   0  0  0  0  0  0  0  0  0  0  0  0
   -3.0655    3.9575    2.8729 H   0  0  0  0  0  0  0  0  0  0  0  0
   -1.9580    5.0373    1.9551 H   0  0  0  0  0  0  0  0  0  0  0  0
   -0.5687    2.6676    2.6838 C   0  0  0  0  0  0  0  0  0  0  0  0
    0.0801    1.8216    2.3832 H   0  0  0  0  0  0  0  0  0  0  0  0
    0.0692    3.5659    2.8068 H   0  0  0  0  0  0  0  0  0  0  0  0
   -1.0454    2.4346    3.6574 H   0  0  0  0  0  0  0  0  0  0  0  0
   -4.8546    1.8254   -1.5275 C   0  0  0  0  0  0  0  0  0  0  0  0
   -4.4520    0.8912   -1.9802 H   0  0  0  0  0  0  0  0  0  0  0  0
   -4.6540    2.9806   -2.4974 C   0  0  0  0  0  0  0  0  0  0  0  0
   -3.5796    3.0918   -2.7420 H   0  0  0  0  0  0  0  0  0  0  0  0
   -5.2134    2.8027   -3.4377 H   0  0  0  0  0  0  0  0  0  0  0  0
   -5.0139    3.9291   -2.0493 H   0  0  0  0  0  0  0  0  0  0  0  0
   -6.2982    1.5980   -1.1036 C   0  0  0  0  0  0  0  0  0  0  0  0
   -6.3515    0.7592   -0.3827 H   0  0  0  0  0  0  0  0  0  0  0  0
   -6.7052    2.5062   -0.6145 H   0  0  0  0  0  0  0  0  0  0  0  0
   -6.9312    1.3580   -1.9815 H   0  0  0  0  0  0  0  0  0  0  0  0
   -5.2459   -2.4898    0.5024 C   0  0  0  0  0  0  0  0  0  0  0  0
   -5.5149   -1.6526   -0.1703 H   0  0  0  0  0  0  0  0  0  0  0  0
   -5.6671   -3.4189    0.0653 H   0  0  0  0  0  0  0  0  0  0  0  0
   -5.8102   -2.2368    1.9001 C   0  0  0  0  0  0  0  0  0  0  0  0
   -6.9164   -2.1664    1.8662 H   0  0  0  0  0  0  0  0  0  0  0  0
   -5.5411   -3.0537    2.6005 H   0  0  0  0  0  0  0  0  0  0  0  0
   -5.4114   -1.2844    2.2998 H   0  0  0  0  0  0  0  0  0  0  0  0
   -3.2337   -3.9799    0.5748 C   0  0  0  0  0  0  0  0  0  0  0  0
   -2.2935   -3.9334    1.1615 H   0  0  0  0  0  0  0  0  0  0  0  0
   -3.9506   -4.5935    1.1600 H   0  0  0  0  0  0  0  0  0  0  0  0
   -2.9704   -4.6089   -0.7940 C   0  0  0  0  0  0  0  0  0  0  0  0
   -2.5723   -5.6374   -0.6794 H   0  0  0  0  0  0  0  0  0  0  0  0
   -3.8976   -4.6654   -1.4000 H   0  0  0  0  0  0  0  0  0  0  0  0
   -2.2238   -4.0056   -1.3476 H   0  0  0  0  0  0  0  0  0  0  0  0
  1  4  1  0  0  0  0
  1  6  1  0  0  0  0
  2  1  1  0  0  0  0
  3  8  1  0  0  0  0
  4  8  2  0  0  0  0
  5 29  1  0  0  0  0
  5 36  1  0  0  0  0
  6  9  1  0  0  0  0
  7  1  1  0  0  0  0
  8  5  1  0  0  0  0
  9 11  1  0  0  0  0
  9 15  1  0  0  0  0
 10  9  1  0  0  0  0
 11 14  1  0  0  0  0
 11 13  1  0  0  0  0
 12 11  1  0  0  0  0
 15 17  1  0  0  0  0
 15 18  1  0  0  0  0
 16 15  1  0  0  0  0
 19 25  1  0  0  0  0
 19  7  1  0  0  0  0
 20 19  1  0  0  0  0
 21 24  1  0  0  0  0
 21 19  1  0  0  0  0
 22 21  1  0  0  0  0
 23 21  1  0  0  0  0
 25 27  1  0  0  0  0
 25 26  1  0  0  0  0
 28 25  1  0  0  0  0
 29 32  1  0  0  0  0
 30 29  1  0  0  0  0
 31 29  1  0  0  0  0
 32 35  1  0  0  0  0
 32 34  1  0  0  0  0
 33 32  1  0  0  0  0
 36 38  1  0  0  0  0
 36 37  1  0  0  0  0
 39 40  1  0  0  0  0
 39 36  1  0  0  0  0
 41 39  1  0  0  0  0
 42 39  1  0  0  0  0
M  END
