1,2
q = -1.0, confidence = 0.0

 29 30  0  0  0  0  0  0  0  0999 V2000
    0.7039    0.2540    1.1985 S   0  0  0  0  0  1  0  0  0  0  0  0
    1.1127    2.3037   -0.7539 S   0  0  0  0  0  1  0  0  0  0  0  0
    3.1772    0.7989    0.1947 N   0  0  0  0  0  0  0  0  0  0  0  0
    4.5944   -4.9448   -2.0682 F   0  0  0  0  0  0  0  0  0  0  0  0
    6.0750    2.1081    0.5921 O   0  0  0  0  0  0  0  0  0  0  0  0
    1.8676    1.0976    0.2129 C   0  0  0  0  0  3  0  0  0  0  0  0
    3.7431   -0.2791    1.0206 C   0  0  0  0  0  0  0  0  0  0  0  0
    3.0385   -0.4596    1.8568 H   0  0  0  0  0  0  0  0  0  0  0  0
    4.6930    0.0943    1.4522 H   0  0  0  0  0  0  0  0  0  0  0  0
    3.9796   -1.5426    0.2205 C   0  0  0  0  0  0  0  0  0  0  0  0
    2.8858   -2.3257   -0.2089 C   0  0  0  0  0  0  0  0  0  0  0  0
    1.8643   -2.0220    0.0693 H   0  0  0  0  0  0  0  0  0  0  0  0
    3.0871   -3.4748   -0.9818 C   0  0  0  0  0  0  0  0  0  0  0  0
    2.2441   -4.0963   -1.3171 H   0  0  0  0  0  0  0  0  0  0  0  0
    4.3960   -3.8403   -1.3271 C   0  0  0  0  0  0  0  0  0  0  0  0
    5.5003   -3.0843   -0.9178 C   0  0  0  0  0  0  0  0  0  0  0  0
    6.5111   -3.4036   -1.2087 H   0  0  0  0  0  0  0  0  0  0  0  0
    5.2821   -1.9337   -0.1446 C   0  0  0  0  0  0  0  0  0  0  0  0
    6.1427   -1.3287    0.1829 H   0  0  0  0  0  0  0  0  0  0  0  0
    4.1020    1.4981   -0.7134 C   0  0  0  0  0  0  0  0  0  0  0  0
    3.4936    1.9675   -1.5108 H   0  0  0  0  0  0  0  0  0  0  0  0
    4.7537    0.7315   -1.1819 H   0  0  0  0  0  0  0  0  0  0  0  0
    4.9245    2.5342   -0.0292 C   0  0  0  0  0  0  0  0  0  0  0  0
    6.6360    3.1953    1.1978 C   0  0  0  0  0  0  0  0  0  0  0  0
    7.5751    3.0142    1.7301 H   0  0  0  0  0  0  0  0  0  0  0  0
    5.8671    4.3141    0.9805 C   0  0  0  0  0  0  0  0  0  0  0  0
    6.0748    5.3274    1.3411 H   0  0  0  0  0  0  0  0  0  0  0  0
    4.7521    3.8838    0.1861 C   0  0  0  0  0  0  0  0  0  0  0  0
    3.9141    4.4866   -0.1810 H   0  0  0  0  0  0  0  0  0  0  0  0
  2  6  1  0  0  0  0
  3  6  1  0  0  0  0
  3  7  1  0  0  0  0
  4 15  1  0  0  0  0
  5 24  1  0  0  0  0
  6  1  1  0  0  0  0
  7  9  1  0  0  0  0
  7  8  1  0  0  0  0
 10  7  1  0  0  0  0
 11 12  1  0  0  0  0
 11 10  2  0  0  0  0
 13 11  1  0  0  0  0
 14 13  1  0  0  0  0
 15 13  2  0  0  0  0
 15 16  1  0  0  0  0
 16 18  2  0  0  0  0
 17 16  1  0  0  0  0
 18 19  1  0  0  0  0
 18 10  1  0  0  0  0
 20 23  1  0  0  0  0
 20  3  1  0  0  0  0
 21 20  1  0  0  0  0
 22 20  1  0  0  0  0
 23 28  2  0  0  0  0
 23  5  1  0  0  0  0
 24 25  1  0  0  0  0
 26 24  2  0  0  0  0
 26 27  1  0  0  0  0
 28 26  1  0  0  0  0
 29 28  1  0  0  0  0
M  END
