1,3
 OpenBabel05122313063D

 18 18  0  0  1  0  0  0  0  0999 V2000
    0.5557    1.1460    2.1833 S   0  0  0  0  0  1  0  0  0  0  0  0
    2.5313    0.8983    1.6934 S   0  0  0  0  0  0  0  0  0  0  0  0
    1.3719   -0.5583   -0.7181 S   0  0  0  0  0  1  0  0  0  0  0  0
    2.6584    0.0234    0.2134 C   0  0  2  0  0  3  0  0  0  0  0  0
    4.0750   -0.2073   -0.1828 C   0  0  0  0  0  0  0  0  0  0  0  0
    4.9130   -0.9421    0.6871 C   0  0  0  0  0  0  0  0  0  0  0  0
    6.2528   -1.1907    0.3624 C   0  0  0  0  0  0  0  0  0  0  0  0
    6.7743   -0.6949   -0.8404 C   0  0  0  0  0  0  0  0  0  0  0  0
    5.9523    0.0488   -1.7011 C   0  0  0  0  0  0  0  0  0  0  0  0
    4.6024    0.3104   -1.4016 C   0  0  0  0  0  0  0  0  0  0  0  0
    3.7625    1.1351   -2.3412 C   0  0  0  0  0  0  0  0  0  0  0  0
    4.4869   -1.3304    1.6241 H   0  0  0  0  0  0  0  0  0  0  0  0
    6.8857   -1.7717    1.0500 H   0  0  0  0  0  0  0  0  0  0  0  0
    7.8252   -0.8805   -1.1100 H   0  0  0  0  0  0  0  0  0  0  0  0
    6.3701    0.4523   -2.6372 H   0  0  0  0  0  0  0  0  0  0  0  0
    2.9926    0.5124   -2.8407 H   0  0  0  0  0  0  0  0  0  0  0  0
    4.3902    1.6113   -3.1189 H   0  0  0  0  0  0  0  0  0  0  0  0
    3.2096    1.9282   -1.7973 H   0  0  0  0  0  0  0  0  0  0  0  0
  2  1  1  0  0  0  0
  4  3  1  1  0  0  0
  4  2  1  0  0  0  0
  5  4  1  0  0  0  0
  5  6  1  0  0  0  0
  6 12  1  0  0  0  0
  7  6  2  0  0  0  0
  7 13  1  0  0  0  0
  8  7  1  0  0  0  0
  9 10  1  0  0  0  0
  9  8  2  0  0  0  0
 10  5  2  0  0  0  0
 11 18  1  0  0  0  0
 11 10  1  0  0  0  0
 14  8  1  0  0  0  0
 15  9  1  0  0  0  0
 16 11  1  0  0  0  0
 17 11  1  0  0  0  0
M  END
