1,2
 OpenBabel05122313063D

 39 39  0  0  0  0  0  0  0  0999 V2000
   -2.0908    1.6014   -0.0664 S   0  0  0  0  0  1  0  0  0  0  0  0
   -1.8546   -1.2139   -0.4433 S   0  0  0  0  0  1  0  0  0  0  0  0
   -8.5364   -0.4205   -0.5572 O   0  0  0  0  0  0  0  0  0  0  0  0
   -2.9278    0.1190   -0.2971 C   0  0  0  0  0  3  0  0  0  0  0  0
   -4.3795    0.0040   -0.3613 C   0  0  0  0  0  0  0  0  0  0  0  0
   -5.2055    1.1447   -0.2297 C   0  0  0  0  0  0  0  0  0  0  0  0
   -6.5972    1.0488   -0.2888 C   0  0  0  0  0  0  0  0  0  0  0  0
   -7.2033   -0.2146   -0.4842 C   0  0  0  0  0  0  0  0  0  0  0  0
   -6.3886   -1.3660   -0.6187 C   0  0  0  0  0  0  0  0  0  0  0  0
   -5.0054   -1.2557   -0.5578 C   0  0  0  0  0  0  0  0  0  0  0  0
   -9.4307    0.6890   -0.4216 C   0  0  0  0  0  0  0  0  0  0  0  0
  -10.8552    0.1649   -0.5017 C   0  0  0  0  0  0  0  0  0  0  0  0
  -11.2202   -0.7988    0.6330 C   0  0  0  0  0  0  0  0  0  0  0  0
  -12.6247   -1.4044    0.5222 C   0  0  0  0  0  0  0  0  0  0  0  0
  -13.7740   -0.3983    0.6449 C   0  0  0  0  0  0  0  0  0  0  0  0
  -15.1617   -1.0430    0.5954 C   0  0  0  0  0  0  0  0  0  0  0  0
  -16.3164   -0.0440    0.7161 C   0  0  0  0  0  0  0  0  0  0  0  0
  -17.6974   -0.6984    0.6665 C   0  0  0  0  0  0  0  0  0  0  0  0
   -4.7328    2.1273   -0.0774 H   0  0  0  0  0  0  0  0  0  0  0  0
   -7.2048    1.9568   -0.1831 H   0  0  0  0  0  0  0  0  0  0  0  0
   -6.8815   -2.3368   -0.7708 H   0  0  0  0  0  0  0  0  0  0  0  0
   -4.3756   -2.1525   -0.6623 H   0  0  0  0  0  0  0  0  0  0  0  0
   -9.2510    1.1946    0.5556 H   0  0  0  0  0  0  0  0  0  0  0  0
   -9.2306    1.4292   -1.2293 H   0  0  0  0  0  0  0  0  0  0  0  0
  -10.9938   -0.3377   -1.4840 H   0  0  0  0  0  0  0  0  0  0  0  0
  -11.5311    1.0462   -0.5038 H   0  0  0  0  0  0  0  0  0  0  0  0
  -10.4679   -1.6144    0.6516 H   0  0  0  0  0  0  0  0  0  0  0  0
  -11.1211   -0.2678    1.6072 H   0  0  0  0  0  0  0  0  0  0  0  0
  -12.7425   -2.1797    1.3106 H   0  0  0  0  0  0  0  0  0  0  0  0
  -12.7143   -1.9476   -0.4459 H   0  0  0  0  0  0  0  0  0  0  0  0
  -13.6644    0.1677    1.5982 H   0  0  0  0  0  0  0  0  0  0  0  0
  -13.7033    0.3626   -0.1643 H   0  0  0  0  0  0  0  0  0  0  0  0
  -15.2445   -1.8009    1.4074 H   0  0  0  0  0  0  0  0  0  0  0  0
  -15.2676   -1.6143   -0.3549 H   0  0  0  0  0  0  0  0  0  0  0  0
  -16.2303    0.7116   -0.0967 H   0  0  0  0  0  0  0  0  0  0  0  0
  -16.2058    0.5266    1.6653 H   0  0  0  0  0  0  0  0  0  0  0  0
  -18.5113    0.0491    0.7562 H   0  0  0  0  0  0  0  0  0  0  0  0
  -17.8254   -1.4322    1.4897 H   0  0  0  0  0  0  0  0  0  0  0  0
  -17.8501   -1.2459   -0.2871 H   0  0  0  0  0  0  0  0  0  0  0  0
  2  4  1  0  0  0  0
  3  8  1  0  0  0  0
  3 11  1  0  0  0  0
  4  1  1  0  0  0  0
  5  4  1  0  0  0  0
  5  6  1  0  0  0  0
  6 19  1  0  0  0  0
  7  6  2  0  0  0  0
  7 20  1  0  0  0  0
  8  7  1  0  0  0  0
  9 10  1  0  0  0  0
  9  8  2  0  0  0  0
 10  5  2  0  0  0  0
 11 23  1  0  0  0  0
 12 11  1  0  0  0  0
 12 13  1  0  0  0  0
 13 27  1  0  0  0  0
 13 28  1  0  0  0  0
 14 13  1  0  0  0  0
 14 15  1  0  0  0  0
 14 29  1  0  0  0  0
 15 31  1  0  0  0  0
 16 15  1  0  0  0  0
 16 17  1  0  0  0  0
 16 33  1  0  0  0  0
 17 36  1  0  0  0  0
 18 17  1  0  0  0  0
 18 37  1  0  0  0  0
 18 38  1  0  0  0  0
 21  9  1  0  0  0  0
 22 10  1  0  0  0  0
 24 11  1  0  0  0  0
 25 12  1  0  0  0  0
 26 12  1  0  0  0  0
 30 14  1  0  0  0  0
 32 15  1  0  0  0  0
 34 16  1  0  0  0  0
 35 17  1  0  0  0  0
 39 18  1  0  0  0  0
M  END
