1,2
 OpenBabel05122313063D

 14 14  0  0  0  0  0  0  0  0999 V2000
   -1.7548   -1.4321   -0.1323 S   0  0  0  0  0  1  0  0  0  0  0  0
   -1.7548    1.4319    0.1323 S   0  0  0  0  0  1  0  0  0  0  0  0
   -6.2845    1.1570    0.0925 N   0  0  0  0  0  0  0  0  0  0  0  0
   -6.8067    2.0337    0.1644 H   0  0  0  0  0  0  0  0  0  0  0  0
   -6.2846   -1.1570   -0.0932 N   0  0  0  0  0  0  0  0  0  0  0  0
   -6.8068   -2.0336   -0.1651 H   0  0  0  0  0  0  0  0  0  0  0  0
   -4.3673    2.3872    0.1957 O   0  0  0  0  0  0  0  0  0  0  0  0
   -8.2737    0.0001   -0.0006 O   0  0  0  0  0  0  0  0  0  0  0  0
   -4.3675   -2.3873   -0.1957 O   0  0  0  0  0  0  0  0  0  0  0  0
   -2.7575   -0.0001    0.0000 C   0  0  0  0  0  0  0  0  0  0  0  0
   -4.1560   -0.0001   -0.0001 C   0  0  0  0  0  0  0  0  0  0  0  0
   -4.8818    1.2713    0.1038 C   0  0  0  0  0  0  0  0  0  0  0  0
   -7.0505    0.0000   -0.0004 C   0  0  0  0  0  0  0  0  0  0  0  0
   -4.8819   -1.2714   -0.1040 C   0  0  0  0  0  0  0  0  0  0  0  0
  1 10  1  0  0  0  0
  3 12  1  0  0  0  0
  3  4  1  0  0  0  0
  5 13  1  0  0  0  0
  6  5  1  0  0  0  0
  8 13  2  0  0  0  0
  9 14  2  0  0  0  0
 10  2  1  0  0  0  0
 11 10  2  0  0  0  0
 11 12  1  0  0  0  0
 12  7  2  0  0  0  0
 13  3  1  0  0  0  0
 14  5  1  0  0  0  0
 14 11  1  0  0  0  0
M  END
