1,10
 OpenBabel05122313063D

 18 18  0  0  0  0  0  0  0  0999 V2000
    1.4376    1.5532   -0.5597 S   0  0  0  0  0  1  0  0  0  0  0  0
    2.9193    0.6610   -0.8377 C   0  0  0  0  0  0  0  0  0  0  0  0
    4.3609    1.6632   -1.1007 S   0  0  0  0  0  0  0  0  0  0  0  0
    4.9519    1.8704    0.6305 C   0  0  0  0  0  0  0  0  0  0  0  0
    5.6480    0.6614    1.2712 C   0  0  0  0  0  0  0  0  0  0  0  0
    4.7306   -0.5082    1.7004 C   0  0  0  0  0  0  0  0  0  0  0  0
    4.8610   -1.7978    0.8893 C   0  0  0  0  0  0  0  0  0  0  0  0
    4.4854   -1.6070   -0.9120 S   0  0  0  0  0  0  0  0  0  0  0  0
    2.9628   -0.7128   -0.7843 C   0  0  0  0  0  0  0  0  0  0  0  0
    1.5571   -1.6699   -0.3579 S   0  0  0  0  0  1  0  0  0  0  0  0
    4.1902   -2.5779    1.3034 H   0  0  0  0  0  0  0  0  0  0  0  0
    5.9015   -2.1892    0.9103 H   0  0  0  0  0  0  0  0  0  0  0  0
    3.6658   -0.1911    1.6806 H   0  0  0  0  0  0  0  0  0  0  0  0
    4.9412   -0.7765    2.7593 H   0  0  0  0  0  0  0  0  0  0  0  0
    6.1840    1.0440    2.1689 H   0  0  0  0  0  0  0  0  0  0  0  0
    6.4325    0.2927    0.5751 H   0  0  0  0  0  0  0  0  0  0  0  0
    5.6539    2.7297    0.5733 H   0  0  0  0  0  0  0  0  0  0  0  0
    4.0748    2.1971    1.2290 H   0  0  0  0  0  0  0  0  0  0  0  0
  2  9  2  0  0  0  0
  2  1  1  0  0  0  0
  3  2  1  0  0  0  0
  3  4  1  0  0  0  0
  4 18  1  0  0  0  0
  4  5  1  0  0  0  0
  5  6  1  0  0  0  0
  5 15  1  0  0  0  0
  6 14  1  0  0  0  0
  7 12  1  0  0  0  0
  7 11  1  0  0  0  0
  7  6  1  0  0  0  0
  8  9  1  0  0  0  0
  8  7  1  0  0  0  0
  9 10  1  0  0  0  0
 13  6  1  0  0  0  0
 16  5  1  0  0  0  0
 17  4  1  0  0  0  0
M  END
