1,2
 OpenBabel05122313063D

 46 48  0  0  0  0  0  0  0  0999 V2000
    1.2758    2.0018    0.9961 S   0  0  0  0  0  0  0  0  0  0  0  0
   -2.4694    0.8561   -1.8429 S   0  0  0  0  0  0  0  0  0  0  0  0
    1.1312   -1.5109    0.5209 O   0  0  0  0  0  0  0  0  0  0  0  0
   -1.9291    2.2626    0.9730 O   0  0  0  0  0  0  0  0  0  0  0  0
   -0.6466   -1.8600   -0.8571 O   0  0  0  0  0  0  0  0  0  0  0  0
    0.6056   -2.3576   -0.4943 C   0  0  0  0  0  0  0  0  0  0  0  0
    1.2335   -2.3021   -1.4062 H   0  0  0  0  0  0  0  0  0  0  0  0
    0.5319   -3.4052   -0.1241 H   0  0  0  0  0  0  0  0  0  0  0  0
    2.4836   -1.3281    0.6281 C   0  0  0  0  0  0  0  0  0  0  0  0
    3.4372   -2.1662    0.0222 C   0  0  0  0  0  0  0  0  0  0  0  0
    3.1277   -3.0529   -0.5480 H   0  0  0  0  0  0  0  0  0  0  0  0
    4.8049   -1.8839    0.1752 C   0  0  0  0  0  0  0  0  0  0  0  0
    5.5461   -2.5504   -0.2907 H   0  0  0  0  0  0  0  0  0  0  0  0
    5.2245   -0.7768    0.9276 C   0  0  0  0  0  0  0  0  0  0  0  0
    6.2955   -0.5627    1.0540 H   0  0  0  0  0  0  0  0  0  0  0  0
    4.2644    0.0405    1.5457 C   0  0  0  0  0  0  0  0  0  0  0  0
    4.5849    0.9002    2.1545 H   0  0  0  0  0  0  0  0  0  0  0  0
    2.8892   -0.2231    1.4199 C   0  0  0  0  0  0  0  0  0  0  0  0
    1.8614    0.6309    2.1043 C   0  0  0  0  0  0  0  0  0  0  0  0
    2.2963    1.1267    2.9943 H   0  0  0  0  0  0  0  0  0  0  0  0
    0.9826    0.0315    2.4090 H   0  0  0  0  0  0  0  0  0  0  0  0
    0.0778    2.8274    2.1160 C   0  0  0  0  0  0  0  0  0  0  0  0
    0.5571    2.9162    3.1116 H   0  0  0  0  0  0  0  0  0  0  0  0
   -0.0392    3.8501    1.7048 H   0  0  0  0  0  0  0  0  0  0  0  0
   -1.2823    2.1572    2.2233 C   0  0  0  0  0  0  0  0  0  0  0  0
   -1.8732    2.6694    3.0217 H   0  0  0  0  0  0  0  0  0  0  0  0
   -1.1813    1.0864    2.5291 H   0  0  0  0  0  0  0  0  0  0  0  0
   -3.1211    1.5084    0.8585 C   0  0  0  0  0  0  0  0  0  0  0  0
   -3.9208    1.9308    1.5150 H   0  0  0  0  0  0  0  0  0  0  0  0
   -2.9537    0.4530    1.1745 H   0  0  0  0  0  0  0  0  0  0  0  0
   -3.5960    1.5810   -0.5845 C   0  0  0  0  0  0  0  0  0  0  0  0
   -3.7077    2.6407   -0.8905 H   0  0  0  0  0  0  0  0  0  0  0  0
   -4.5845    1.0937   -0.6988 H   0  0  0  0  0  0  0  0  0  0  0  0
   -3.0204   -0.9198   -1.8795 C   0  0  0  0  0  0  0  0  0  0  0  0
   -4.0451   -0.9125   -2.2992 H   0  0  0  0  0  0  0  0  0  0  0  0
   -2.3390   -1.3760   -2.6237 H   0  0  0  0  0  0  0  0  0  0  0  0
   -2.9721   -1.6220   -0.5576 C   0  0  0  0  0  0  0  0  0  0  0  0
   -4.1335   -1.8258    0.2103 C   0  0  0  0  0  0  0  0  0  0  0  0
   -5.1055   -1.5168   -0.2054 H   0  0  0  0  0  0  0  0  0  0  0  0
   -4.0721   -2.4157    1.4820 C   0  0  0  0  0  0  0  0  0  0  0  0
   -4.9917   -2.5705    2.0641 H   0  0  0  0  0  0  0  0  0  0  0  0
   -2.8293   -2.8013    2.0038 C   0  0  0  0  0  0  0  0  0  0  0  0
   -2.7651   -3.2507    3.0059 H   0  0  0  0  0  0  0  0  0  0  0  0
   -1.6531   -2.6243    1.2552 C   0  0  0  0  0  0  0  0  0  0  0  0
   -0.6840   -2.9131    1.6835 H   0  0  0  0  0  0  0  0  0  0  0  0
   -1.7337   -2.0593   -0.0267 C   0  0  0  0  0  0  0  0  0  0  0  0
  1 19  1  0  0  0  0
  1 22  1  0  0  0  0
  2 31  1  0  0  0  0
  3  9  1  0  0  0  0
  4 25  1  0  0  0  0
  5  6  1  0  0  0  0
  5 46  1  0  0  0  0
  6  8  1  0  0  0  0
  6  3  1  0  0  0  0
  7  6  1  0  0  0  0
  9 18  1  0  0  0  0
 10 12  1  0  0  0  0
 10  9  2  0  0  0  0
 11 10  1  0  0  0  0
 12 14  2  0  0  0  0
 13 12  1  0  0  0  0
 14 15  1  0  0  0  0
 14 16  1  0  0  0  0
 16 17  1  0  0  0  0
 18 16  2  0  0  0  0
 18 19  1  0  0  0  0
 19 21  1  0  0  0  0
 19 20  1  0  0  0  0
 22 25  1  0  0  0  0
 22 23  1  0  0  0  0
 24 22  1  0  0  0  0
 25 27  1  0  0  0  0
 25 26  1  0  0  0  0
 28  4  1  0  0  0  0
 28 30  1  0  0  0  0
 28 29  1  0  0  0  0
 31 28  1  0  0  0  0
 32 31  1  0  0  0  0
 33 31  1  0  0  0  0
 34  2  1  0  0  0  0
 34 37  1  0  0  0  0
 35 34  1  0  0  0  0
 36 34  1  0  0  0  0
 37 46  2  0  0  0  0
 37 38  1  0  0  0  0
 38 40  2  0  0  0  0
 39 38  1  0  0  0  0
 40 42  1  0  0  0  0
 40 41  1  0  0  0  0
 42 43  1  0  0  0  0
 44 45  1  0  0  0  0
 44 42  2  0  0  0  0
 46 44  1  0  0  0  0
M  END
