1,2
 OpenBabel05122313063D

 18 17  0  0  0  0  0  0  0  0999 V2000
    1.5062   -1.5259   -0.5787 S   0  0  0  0  0  1  0  0  0  0  0  0
    1.5062    1.5259   -0.5787 S   0  0  0  0  0  1  0  0  0  0  0  0
    3.0005   -0.7057   -0.7039 C   0  0  0  0  0  0  0  0  0  0  0  0
    3.0005    0.7057   -0.7039 C   0  0  0  0  0  0  0  0  0  0  0  0
    4.2886   -1.4912   -0.7901 C   0  0  0  0  0  0  0  0  0  0  0  0
    4.9432   -1.1607    0.0490 H   0  0  0  0  0  0  0  0  0  0  0  0
    4.8282   -1.1648   -1.7088 H   0  0  0  0  0  0  0  0  0  0  0  0
    4.1584   -3.0123   -0.7753 C   0  0  0  0  0  0  0  0  0  0  0  0
    3.6693   -3.3661    0.1540 H   0  0  0  0  0  0  0  0  0  0  0  0
    5.1574   -3.4861   -0.8422 H   0  0  0  0  0  0  0  0  0  0  0  0
    3.5475   -3.3750   -1.6260 H   0  0  0  0  0  0  0  0  0  0  0  0
    4.2886    1.4913   -0.7901 C   0  0  0  0  0  0  0  0  0  0  0  0
    4.9432    1.1607    0.0490 H   0  0  0  0  0  0  0  0  0  0  0  0
    4.8282    1.1648   -1.7087 H   0  0  0  0  0  0  0  0  0  0  0  0
    4.1584    3.0123   -0.7752 C   0  0  0  0  0  0  0  0  0  0  0  0
    3.5475    3.3751   -1.6260 H   0  0  0  0  0  0  0  0  0  0  0  0
    5.1574    3.4861   -0.8422 H   0  0  0  0  0  0  0  0  0  0  0  0
    3.6693    3.3661    0.1541 H   0  0  0  0  0  0  0  0  0  0  0  0
  3  4  2  0  0  0  0
  3  1  1  0  0  0  0
  4  2  1  0  0  0  0
  5  8  1  0  0  0  0
  5  3  1  0  0  0  0
  5  6  1  0  0  0  0
  7  5  1  0  0  0  0
  8  9  1  0  0  0  0
 10  8  1  0  0  0  0
 11  8  1  0  0  0  0
 12 15  1  0  0  0  0
 12  4  1  0  0  0  0
 12 13  1  0  0  0  0
 14 12  1  0  0  0  0
 15 18  1  0  0  0  0
 16 15  1  0  0  0  0
 17 15  1  0  0  0  0
M  END
