7,22
 OpenBabel05122313063D

 36 35  0  0  0  0  0  0  0  0999 V2000
   -2.7834   -0.2116   -1.2431 C   0  0  0  0  0  0  0  0  0  0  0  0
   -3.8674    0.0090   -1.2782 H   0  0  0  0  0  0  0  0  0  0  0  0
   -2.2332    0.1536   -2.1369 H   0  0  0  0  0  0  0  0  0  0  0  0
   -2.5149   -1.6828   -0.9773 C   0  0  0  0  0  0  0  0  0  0  0  0
   -2.5909   -2.3005   -1.8917 H   0  0  0  0  0  0  0  0  0  0  0  0
   -3.1677   -2.0873   -0.1813 H   0  0  0  0  0  0  0  0  0  0  0  0
   -2.0717    0.7046    0.1961 S   0  0  2  0  0  3  0  0  0  0  0  0
   -2.8828    0.2960    1.4084 O   0  0  0  0  0  1  0  0  0  0  0  0
   -0.8948   -3.1360    1.0443 C   0  0  0  0  0  0  0  0  0  0  0  0
   -1.6577   -2.4726    2.1830 C   0  0  0  0  0  0  0  0  0  0  0  0
   -1.6757   -3.1728    3.0443 H   0  0  0  0  0  0  0  0  0  0  0  0
   -2.7035   -2.2248    1.9212 H   0  0  0  0  0  0  0  0  0  0  0  0
   -1.1717   -1.5319    2.5050 H   0  0  0  0  0  0  0  0  0  0  0  0
   -1.5732   -4.3998    0.5156 C   0  0  0  0  0  0  0  0  0  0  0  0
   -1.5086   -5.1955    1.2860 H   0  0  0  0  0  0  0  0  0  0  0  0
   -1.0698   -4.7576   -0.4035 H   0  0  0  0  0  0  0  0  0  0  0  0
   -2.6478   -4.2371    0.2989 H   0  0  0  0  0  0  0  0  0  0  0  0
    0.5635   -3.4057    1.4302 C   0  0  0  0  0  0  0  0  0  0  0  0
    1.0740   -2.4689    1.7323 H   0  0  0  0  0  0  0  0  0  0  0  0
    1.1215   -3.8685    0.5937 H   0  0  0  0  0  0  0  0  0  0  0  0
    0.5845   -4.1037    2.2917 H   0  0  0  0  0  0  0  0  0  0  0  0
   -0.7246   -1.9511   -0.4520 S   0  0  1  0  0  3  0  0  0  0  0  0
   -0.0544   -2.8039   -1.5130 O   0  0  0  0  0  1  0  0  0  0  0  0
   -2.4449    2.5505   -0.0828 C   0  0  0  0  0  0  0  0  0  0  0  0
   -1.6982    3.0837   -1.2986 C   0  0  0  0  0  0  0  0  0  0  0  0
   -1.9930    2.5802   -2.2386 H   0  0  0  0  0  0  0  0  0  0  0  0
   -0.6039    2.9712   -1.1801 H   0  0  0  0  0  0  0  0  0  0  0  0
   -1.9434    4.1631   -1.3928 H   0  0  0  0  0  0  0  0  0  0  0  0
   -3.9660    2.6514   -0.2056 C   0  0  0  0  0  0  0  0  0  0  0  0
   -4.2566    3.7182   -0.1176 H   0  0  0  0  0  0  0  0  0  0  0  0
   -4.4664    2.0881    0.6066 H   0  0  0  0  0  0  0  0  0  0  0  0
   -4.3304    2.2881   -1.1873 H   0  0  0  0  0  0  0  0  0  0  0  0
   -1.9313    3.1758    1.2209 C   0  0  0  0  0  0  0  0  0  0  0  0
   -0.8363    3.0196    1.3048 H   0  0  0  0  0  0  0  0  0  0  0  0
   -2.4420    2.7407    2.1013 H   0  0  0  0  0  0  0  0  0  0  0  0
   -2.1405    4.2649    1.1903 H   0  0  0  0  0  0  0  0  0  0  0  0
  1  4  1  0  0  0  0
  1  7  1  0  0  0  0
  2  1  1  0  0  0  0
  3  1  1  0  0  0  0
  4 22  1  0  0  0  0
  4  6  1  0  0  0  0
  5  4  1  0  0  0  0
  7  8  1  1  0  0  0
  9 18  1  0  0  0  0
  9 10  1  0  0  0  0
 10 13  1  0  0  0  0
 10 11  1  0  0  0  0
 12 10  1  0  0  0  0
 14  9  1  0  0  0  0
 14 15  1  0  0  0  0
 16 14  1  0  0  0  0
 17 14  1  0  0  0  0
 18 19  1  0  0  0  0
 18 21  1  0  0  0  0
 20 18  1  0  0  0  0
 22 23  1  6  0  0  0
 22  9  1  0  0  0  0
 24  7  1  0  0  0  0
 24 33  1  0  0  0  0
 25 27  1  0  0  0  0
 25 24  1  0  0  0  0
 26 25  1  0  0  0  0
 28 25  1  0  0  0  0
 29 30  1  0  0  0  0
 29 24  1  0  0  0  0
 29 31  1  0  0  0  0
 32 29  1  0  0  0  0
 33 34  1  0  0  0  0
 33 35  1  0  0  0  0
 36 33  1  0  0  0  0
M  END
