1,2
 OpenBabel05122313063D

 51 54  0  0  0  0  0  0  0  0999 V2000
   -0.2488   -0.1068   -1.5932 S   0  0  0  0  0  1  0  0  0  0  0  0
    0.3504   -1.5620    1.9830 S   0  0  0  0  0  1  0  0  0  0  0  0
    0.8797    1.3644   -0.8405 P   0  0  0  0  0  4  0  0  0  0  0  0
    2.0246   -0.8836    1.1040 P   0  0  0  0  0  4  0  0  0  0  0  0
   -0.1151    2.7966   -0.2786 C   0  0  0  0  0  0  0  0  0  0  0  0
    0.4574    3.8339    0.4868 C   0  0  0  0  0  0  0  0  0  0  0  0
   -0.3288    4.9288    0.8737 C   0  0  0  0  0  0  0  0  0  0  0  0
   -1.6824    4.9911    0.5005 C   0  0  0  0  0  0  0  0  0  0  0  0
   -2.2493    3.9585   -0.2631 C   0  0  0  0  0  0  0  0  0  0  0  0
   -1.4684    2.8620   -0.6565 C   0  0  0  0  0  0  0  0  0  0  0  0
    2.0674    1.9885   -2.0939 C   0  0  0  0  0  0  0  0  0  0  0  0
    1.9714    1.5123   -3.4147 C   0  0  0  0  0  0  0  0  0  0  0  0
    2.8710    1.9700   -4.3890 C   0  0  0  0  0  0  0  0  0  0  0  0
    3.8659    2.9002   -4.0499 C   0  0  0  0  0  0  0  0  0  0  0  0
    3.9609    3.3791   -2.7326 C   0  0  0  0  0  0  0  0  0  0  0  0
    3.0636    2.9280   -1.7542 C   0  0  0  0  0  0  0  0  0  0  0  0
    2.5532   -1.8083   -0.3728 C   0  0  0  0  0  0  0  0  0  0  0  0
    2.2316   -3.1767   -0.4441 C   0  0  0  0  0  0  0  0  0  0  0  0
    2.6495   -3.9323   -1.5482 C   0  0  0  0  0  0  0  0  0  0  0  0
    3.3857   -3.3265   -2.5797 C   0  0  0  0  0  0  0  0  0  0  0  0
    3.7142   -1.9636   -2.5033 C   0  0  0  0  0  0  0  0  0  0  0  0
    3.3042   -1.2017   -1.4000 C   0  0  0  0  0  0  0  0  0  0  0  0
    3.4203   -0.9056    2.2855 C   0  0  0  0  0  0  0  0  0  0  0  0
    4.7488   -1.0438    1.8326 C   0  0  0  0  0  0  0  0  0  0  0  0
    5.8022   -1.0160    2.7581 C   0  0  0  0  0  0  0  0  0  0  0  0
    5.5350   -0.8535    4.1272 C   0  0  0  0  0  0  0  0  0  0  0  0
    4.2109   -0.7232    4.5766 C   0  0  0  0  0  0  0  0  0  0  0  0
    3.1504   -0.7497    3.6600 C   0  0  0  0  0  0  0  0  0  0  0  0
    1.9336    0.9083    0.6247 C   0  0  0  0  0  0  0  0  0  0  0  0
    1.5127    3.7963    0.7971 H   0  0  0  0  0  0  0  0  0  0  0  0
    0.1180    5.7372    1.4713 H   0  0  0  0  0  0  0  0  0  0  0  0
   -2.2962    5.8511    0.8073 H   0  0  0  0  0  0  0  0  0  0  0  0
   -3.3099    4.0015   -0.5521 H   0  0  0  0  0  0  0  0  0  0  0  0
   -1.8999    2.0359   -1.2428 H   0  0  0  0  0  0  0  0  0  0  0  0
    1.1953    0.7728   -3.6661 H   0  0  0  0  0  0  0  0  0  0  0  0
    1.5414    1.4169    1.5276 H   0  0  0  0  0  0  0  0  0  0  0  0
    2.7930    1.5949   -5.4204 H   0  0  0  0  0  0  0  0  0  0  0  0
    2.9693    1.2652    0.4539 H   0  0  0  0  0  0  0  0  0  0  0  0
    4.5715    3.2565   -4.8152 H   0  0  0  0  0  0  0  0  0  0  0  0
    4.7370    4.1113   -2.4648 H   0  0  0  0  0  0  0  0  0  0  0  0
    3.1488    3.3208   -0.7295 H   0  0  0  0  0  0  0  0  0  0  0  0
    1.6417   -3.6350    0.3644 H   0  0  0  0  0  0  0  0  0  0  0  0
    2.3953   -5.0012   -1.6050 H   0  0  0  0  0  0  0  0  0  0  0  0
    3.7064   -3.9207   -3.4484 H   0  0  0  0  0  0  0  0  0  0  0  0
    4.2885   -1.4842   -3.3100 H   0  0  0  0  0  0  0  0  0  0  0  0
    3.5654   -0.1342   -1.3638 H   0  0  0  0  0  0  0  0  0  0  0  0
    4.9619   -1.1921    0.7633 H   0  0  0  0  0  0  0  0  0  0  0  0
    6.8383   -1.1328    2.4073 H   0  0  0  0  0  0  0  0  0  0  0  0
    6.3646   -0.8377    4.8499 H   0  0  0  0  0  0  0  0  0  0  0  0
    4.0005   -0.6080    5.6503 H   0  0  0  0  0  0  0  0  0  0  0  0
    2.1071   -0.6712    4.0029 H   0  0  0  0  0  0  0  0  0  0  0  0
  1  3  1  0  0  0  0
  3  5  1  0  0  0  0
  3 29  1  0  0  0  0
  4  2  1  0  0  0  0
  4 23  1  0  0  0  0
  5  6  1  0  0  0  0
  6 30  1  0  0  0  0
  6  7  2  0  0  0  0
  7 31  1  0  0  0  0
  8 32  1  0  0  0  0
  8  7  1  0  0  0  0
  9  8  2  0  0  0  0
 10  5  2  0  0  0  0
 10  9  1  0  0  0  0
 11 16  1  0  0  0  0
 11  3  1  0  0  0  0
 12 11  2  0  0  0  0
 13 14  2  0  0  0  0
 13 12  1  0  0  0  0
 14 15  1  0  0  0  0
 15 40  1  0  0  0  0
 15 16  2  0  0  0  0
 16 41  1  0  0  0  0
 17  4  1  0  0  0  0
 18 17  1  0  0  0  0
 18 42  1  0  0  0  0
 19 18  2  0  0  0  0
 20 21  2  0  0  0  0
 20 19  1  0  0  0  0
 21 22  1  0  0  0  0
 22 46  1  0  0  0  0
 22 17  2  0  0  0  0
 23 28  1  0  0  0  0
 24 23  2  0  0  0  0
 24 25  1  0  0  0  0
 25 26  2  0  0  0  0
 26 27  1  0  0  0  0
 26 49  1  0  0  0  0
 27 50  1  0  0  0  0
 28 51  1  0  0  0  0
 28 27  2  0  0  0  0
 29  4  1  0  0  0  0
 29 36  1  0  0  0  0
 33  9  1  0  0  0  0
 34 10  1  0  0  0  0
 35 12  1  0  0  0  0
 37 13  1  0  0  0  0
 38 29  1  0  0  0  0
 39 14  1  0  0  0  0
 43 19  1  0  0  0  0
 44 20  1  0  0  0  0
 45 21  1  0  0  0  0
 47 24  1  0  0  0  0
 48 25  1  0  0  0  0
M  END
