1,2
 OpenBabel05122313063D

 35 36  0  0  0  0  0  0  0  0999 V2000
    0.2589    0.6194   -0.8683 S   0  0  0  0  0  1  0  0  0  0  0  0
    0.9846   -1.7823    0.5077 S   0  0  0  0  0  1  0  0  0  0  0  0
    1.5577   -0.4413   -0.4028 C   0  0  0  0  0  3  0  0  0  0  0  0
    2.8487   -0.2239   -0.7108 N   0  0  0  0  0  0  0  0  0  0  0  0
    3.8890    2.0280   -0.7040 C   0  0  0  0  0  0  0  0  0  0  0  0
    5.1269   -3.2946   -0.6432 C   0  0  0  0  0  0  0  0  0  0  0  0
    5.2521    2.3495   -0.8346 C   0  0  0  0  0  0  0  0  0  0  0  0
    5.8744    1.8042   -1.5623 H   0  0  0  0  0  0  0  0  0  0  0  0
    3.1092    2.7376    0.2335 C   0  0  0  0  0  0  0  0  0  0  0  0
    2.0401    2.4929    0.3417 H   0  0  0  0  0  0  0  0  0  0  0  0
    3.2640    0.9227   -1.5279 C   0  0  0  0  0  0  0  0  0  0  0  0
    2.3628    1.2866   -2.0634 H   0  0  0  0  0  0  0  0  0  0  0  0
    3.9809    0.5586   -2.2927 H   0  0  0  0  0  0  0  0  0  0  0  0
    4.1181   -2.3216   -1.2049 C   0  0  0  0  0  0  0  0  0  0  0  0
    3.1420   -2.8259   -1.3591 H   0  0  0  0  0  0  0  0  0  0  0  0
    4.4558   -1.9402   -2.1912 H   0  0  0  0  0  0  0  0  0  0  0  0
    5.0410    4.0531    0.8697 C   0  0  0  0  0  0  0  0  0  0  0  0
    3.6767    3.7462    1.0197 C   0  0  0  0  0  0  0  0  0  0  0  0
    3.0707    4.3022    1.7486 H   0  0  0  0  0  0  0  0  0  0  0  0
    3.8888   -1.1393   -0.2434 C   0  0  0  0  0  0  0  0  0  0  0  0
    3.5863   -1.5216    0.7530 H   0  0  0  0  0  0  0  0  0  0  0  0
    4.8205   -0.5542   -0.1025 H   0  0  0  0  0  0  0  0  0  0  0  0
    5.8357    3.3601   -0.0561 C   0  0  0  0  0  0  0  0  0  0  0  0
    6.9003    3.6119   -0.1590 H   0  0  0  0  0  0  0  0  0  0  0  0
    4.7334   -4.2353    0.3316 C   0  0  0  0  0  0  0  0  0  0  0  0
    3.6768   -4.2794    0.6420 H   0  0  0  0  0  0  0  0  0  0  0  0
    6.4808   -3.2493   -1.0294 C   0  0  0  0  0  0  0  0  0  0  0  0
    6.8016   -2.5205   -1.7915 H   0  0  0  0  0  0  0  0  0  0  0  0
    7.0155   -5.0596    0.5035 C   0  0  0  0  0  0  0  0  0  0  0  0
    7.7495   -5.7494    0.9468 H   0  0  0  0  0  0  0  0  0  0  0  0
    7.4193   -4.1261   -0.4635 C   0  0  0  0  0  0  0  0  0  0  0  0
    8.4720   -4.0817   -0.7821 H   0  0  0  0  0  0  0  0  0  0  0  0
    5.6690   -5.1116    0.8997 C   0  0  0  0  0  0  0  0  0  0  0  0
    5.3439   -5.8434    1.6548 H   0  0  0  0  0  0  0  0  0  0  0  0
    5.7529    5.3109    1.8457 Cl  0  0  0  0  0  0  0  0  0  0  0  0
  1  3  1  0  0  0  0
  3  2  1  0  0  0  0
  4  3  1  0  0  0  0
  4 20  1  0  0  0  0
  5  9  1  0  0  0  0
  6 25  1  0  0  0  0
  7  5  2  0  0  0  0
  7 23  1  0  0  0  0
  8  7  1  0  0  0  0
  9 10  1  0  0  0  0
  9 18  2  0  0  0  0
 11  4  1  0  0  0  0
 11  5  1  0  0  0  0
 12 11  1  0  0  0  0
 13 11  1  0  0  0  0
 14  6  1  0  0  0  0
 14 20  1  0  0  0  0
 15 14  1  0  0  0  0
 16 14  1  0  0  0  0
 17 18  1  0  0  0  0
 17 35  1  0  0  0  0
 18 19  1  0  0  0  0
 20 22  1  0  0  0  0
 20 21  1  0  0  0  0
 23 17  2  0  0  0  0
 24 23  1  0  0  0  0
 25 26  1  0  0  0  0
 25 33  2  0  0  0  0
 27  6  2  0  0  0  0
 27 31  1  0  0  0  0
 28 27  1  0  0  0  0
 29 33  1  0  0  0  0
 29 30  1  0  0  0  0
 31 29  2  0  0  0  0
 32 31  1  0  0  0  0
 33 34  1  0  0  0  0
M  END
