1,4
 OpenBabel05122313063D

 28 30  0  0  0  0  0  0  0  0999 V2000
   -0.2524   -0.3425   -1.6021 S   0  0  0  0  0  0  0  0  0  0  0  0
    1.0181   -1.2552   -0.7068 C   0  0  0  0  0  0  0  0  0  0  0  0
    1.0181   -1.2570    0.7037 C   0  0  0  0  0  0  0  0  0  0  0  0
   -0.2524   -0.3465    1.6013 S   0  0  0  0  0  0  0  0  0  0  0  0
    0.4769    1.4232    1.5287 C   0  0  0  0  0  0  0  0  0  0  0  0
   -0.3693    2.0268    1.1505 H   0  0  0  0  0  0  0  0  0  0  0  0
    0.6595    1.6896    2.5862 H   0  0  0  0  0  0  0  0  0  0  0  0
    1.7275    1.5390    0.7148 C   0  0  0  0  0  0  0  0  0  0  0  0
    2.9615    1.6067    1.3933 C   0  0  0  0  0  0  0  0  0  0  0  0
    2.9592    1.6042    2.4945 H   0  0  0  0  0  0  0  0  0  0  0  0
    4.1780    1.6811    0.7030 C   0  0  0  0  0  0  0  0  0  0  0  0
    5.1242    1.7385    1.2612 H   0  0  0  0  0  0  0  0  0  0  0  0
    4.1780    1.6829   -0.6988 C   0  0  0  0  0  0  0  0  0  0  0  0
    5.1243    1.7417   -1.2568 H   0  0  0  0  0  0  0  0  0  0  0  0
    2.9615    1.6102   -1.3893 C   0  0  0  0  0  0  0  0  0  0  0  0
    2.9593    1.6105   -2.4905 H   0  0  0  0  0  0  0  0  0  0  0  0
    1.7275    1.5408   -0.7110 C   0  0  0  0  0  0  0  0  0  0  0  0
    0.4769    1.4271   -1.5252 C   0  0  0  0  0  0  0  0  0  0  0  0
    0.6596    1.6960   -2.5821 H   0  0  0  0  0  0  0  0  0  0  0  0
   -0.3693    2.0297   -1.1455 H   0  0  0  0  0  0  0  0  0  0  0  0
    1.9902   -1.9786   -1.4117 C   0  0  0  0  0  0  0  0  0  0  0  0
    1.9762   -1.9765   -2.5116 H   0  0  0  0  0  0  0  0  0  0  0  0
    2.9634   -2.7044   -0.7046 C   0  0  0  0  0  0  0  0  0  0  0  0
    3.7211   -3.2792   -1.2574 H   0  0  0  0  0  0  0  0  0  0  0  0
    2.9633   -2.7063    0.6979 C   0  0  0  0  0  0  0  0  0  0  0  0
    3.7210   -3.2825    1.2492 H   0  0  0  0  0  0  0  0  0  0  0  0
    1.9901   -1.9823    1.4068 C   0  0  0  0  0  0  0  0  0  0  0  0
    1.9760   -1.9830    2.5067 H   0  0  0  0  0  0  0  0  0  0  0  0
  1 18  1  0  0  0  0
  1  2  1  0  0  0  0
  2  3  1  0  0  0  0
  3 27  2  0  0  0  0
  3  4  1  0  0  0  0
  5  4  1  0  0  0  0
  5  7  1  0  0  0  0
  6  5  1  0  0  0  0
  8  9  1  0  0  0  0
  8  5  1  0  0  0  0
  9 10  1  0  0  0  0
 11 12  1  0  0  0  0
 11  9  2  0  0  0  0
 13 11  1  0  0  0  0
 14 13  1  0  0  0  0
 15 17  1  0  0  0  0
 15 13  2  0  0  0  0
 16 15  1  0  0  0  0
 17  8  2  0  0  0  0
 18 20  1  0  0  0  0
 18 17  1  0  0  0  0
 19 18  1  0  0  0  0
 21  2  2  0  0  0  0
 21 23  1  0  0  0  0
 22 21  1  0  0  0  0
 23 25  2  0  0  0  0
 24 23  1  0  0  0  0
 25 26  1  0  0  0  0
 25 27  1  0  0  0  0
 27 28  1  0  0  0  0
M  END
