1,2
 OpenBabel05122313063D

 61 64  0  0  0  0  0  0  0  0999 V2000
    2.3969    0.3010   -2.2903 S   0  0  0  0  0  0  0  0  0  0  0  0
    0.0670   -1.0633   -0.5330 S   0  0  0  0  0  0  0  0  0  0  0  0
   -2.2222    0.7132    1.2667 O   0  0  0  0  0  0  0  0  0  0  0  0
    1.7840    2.9072   -0.2302 N   0  0  0  0  0  0  0  0  0  0  0  0
   -1.1703    2.3396    0.1892 N   0  0  0  0  0  0  0  0  0  0  0  0
   -2.4338    2.2190   -0.3458 N   0  0  0  0  0  0  0  0  0  0  0  0
   -2.9278   -1.8860   -0.3600 N   0  0  0  0  0  0  0  0  0  0  0  0
    3.1193    2.3763   -0.4545 C   0  0  0  0  0  0  0  0  0  0  0  0
    3.3155    1.5567    0.2666 H   0  0  0  0  0  0  0  0  0  0  0  0
    3.9142    3.1548   -0.2793 H   0  0  0  0  0  0  0  0  0  0  0  0
    3.3586    1.8018   -1.8461 C   0  0  0  0  0  0  0  0  0  0  0  0
    3.2041    2.5272   -2.6708 H   0  0  0  0  0  0  0  0  0  0  0  0
    4.3974    1.4198   -1.8992 H   0  0  0  0  0  0  0  0  0  0  0  0
    0.6454    0.9080   -2.3254 C   0  0  0  0  0  0  0  0  0  0  0  0
    0.4775    1.4138   -3.2978 H   0  0  0  0  0  0  0  0  0  0  0  0
    0.5372    1.6343   -1.4897 H   0  0  0  0  0  0  0  0  0  0  0  0
   -0.2865   -0.2795   -2.1667 C   0  0  0  0  0  0  0  0  0  0  0  0
   -0.1468   -1.0398   -2.9633 H   0  0  0  0  0  0  0  0  0  0  0  0
   -1.3441    0.0531   -2.1502 H   0  0  0  0  0  0  0  0  0  0  0  0
   -0.6114   -2.7582   -0.7020 C   0  0  0  0  0  0  0  0  0  0  0  0
   -0.6919   -3.0080   -1.7787 H   0  0  0  0  0  0  0  0  0  0  0  0
    0.1647   -3.4004   -0.2351 H   0  0  0  0  0  0  0  0  0  0  0  0
   -1.9246   -2.8538    0.0667 C   0  0  0  0  0  0  0  0  0  0  0  0
   -1.6987   -2.6669    1.1368 H   0  0  0  0  0  0  0  0  0  0  0  0
   -2.2982   -3.9114    0.0040 H   0  0  0  0  0  0  0  0  0  0  0  0
   -3.9319   -1.6529    0.6805 C   0  0  0  0  0  0  0  0  0  0  0  0
   -4.5459   -2.5711    0.8770 H   0  0  0  0  0  0  0  0  0  0  0  0
   -3.3881   -1.4251    1.6194 H   0  0  0  0  0  0  0  0  0  0  0  0
   -4.8751   -0.5195    0.3373 C   0  0  0  0  0  0  0  0  0  0  0  0
   -6.2408   -0.7940    0.1433 C   0  0  0  0  0  0  0  0  0  0  0  0
   -6.5949   -1.8249    0.3010 H   0  0  0  0  0  0  0  0  0  0  0  0
   -7.1449    0.1978   -0.2636 C   0  0  0  0  0  0  0  0  0  0  0  0
   -8.2074   -0.0515   -0.4040 H   0  0  0  0  0  0  0  0  0  0  0  0
   -6.6831    1.5003   -0.5048 C   0  0  0  0  0  0  0  0  0  0  0  0
   -7.3778    2.2863   -0.8364 H   0  0  0  0  0  0  0  0  0  0  0  0
   -5.3313    1.8019   -0.3104 C   0  0  0  0  0  0  0  0  0  0  0  0
   -4.9475    2.8177   -0.4817 H   0  0  0  0  0  0  0  0  0  0  0  0
   -4.4210    0.8110    0.1245 C   0  0  0  0  0  0  0  0  0  0  0  0
   -3.0335    1.2440    0.3033 C   0  0  0  0  0  0  0  0  0  0  0  0
   -1.0560    1.4348    1.1433 C   0  0  0  0  0  0  0  0  0  0  0  0
    0.0887    1.0703    1.9706 C   0  0  0  0  0  0  0  0  0  0  0  0
   -0.0068   -0.1034    2.7551 C   0  0  0  0  0  0  0  0  0  0  0  0
   -0.9461   -0.6727    2.7469 H   0  0  0  0  0  0  0  0  0  0  0  0
    1.0811   -0.5677    3.4957 C   0  0  0  0  0  0  0  0  0  0  0  0
    0.9996   -1.5065    4.0604 H   0  0  0  0  0  0  0  0  0  0  0  0
    2.2835    0.1524    3.4857 C   0  0  0  0  0  0  0  0  0  0  0  0
    3.1564   -0.2158    4.0434 H   0  0  0  0  0  0  0  0  0  0  0  0
    2.3744    1.3357    2.7426 C   0  0  0  0  0  0  0  0  0  0  0  0
    3.3138    1.9098    2.7495 H   0  0  0  0  0  0  0  0  0  0  0  0
    1.3024    1.8177    1.9695 C   0  0  0  0  0  0  0  0  0  0  0  0
    1.4790    3.1029    1.1897 C   0  0  0  0  0  0  0  0  0  0  0  0
    2.2758    3.7140    1.6896 H   0  0  0  0  0  0  0  0  0  0  0  0
    0.5414    3.6884    1.2342 H   0  0  0  0  0  0  0  0  0  0  0  0
    1.4951    4.1079   -0.9953 C   0  0  0  0  0  0  0  0  0  0  0  0
    1.6633    3.9333   -2.0771 H   0  0  0  0  0  0  0  0  0  0  0  0
    2.1275    4.9842   -0.6938 H   0  0  0  0  0  0  0  0  0  0  0  0
    0.4274    4.3714   -0.8628 H   0  0  0  0  0  0  0  0  0  0  0  0
   -3.5173   -2.2215   -1.6466 C   0  0  0  0  0  0  0  0  0  0  0  0
   -4.0910   -3.1858   -1.6268 H   0  0  0  0  0  0  0  0  0  0  0  0
   -2.7281   -2.3171   -2.4182 H   0  0  0  0  0  0  0  0  0  0  0  0
   -4.2082   -1.4199   -1.9725 H   0  0  0  0  0  0  0  0  0  0  0  0
  1 11  1  0  0  0  0
  4 51  1  0  0  0  0
  5 40  2  0  0  0  0
  6  5  1  0  0  0  0
  6 39  2  0  0  0  0
  7 23  1  0  0  0  0
  7 26  1  0  0  0  0
  8 10  1  0  0  0  0
  8  4  1  0  0  0  0
  8  9  1  0  0  0  0
 11  8  1  0  0  0  0
 12 11  1  0  0  0  0
 13 11  1  0  0  0  0
 14  1  1  0  0  0  0
 14 17  1  0  0  0  0
 14 16  1  0  0  0  0
 15 14  1  0  0  0  0
 17 19  1  0  0  0  0
 17  2  1  0  0  0  0
 18 17  1  0  0  0  0
 20  2  1  0  0  0  0
 20 22  1  0  0  0  0
 20 23  1  0  0  0  0
 21 20  1  0  0  0  0
 23 24  1  0  0  0  0
 25 23  1  0  0  0  0
 26 27  1  0  0  0  0
 26 28  1  0  0  0  0
 29 26  1  0  0  0  0
 30 31  1  0  0  0  0
 30 29  1  0  0  0  0
 32 30  2  0  0  0  0
 33 32  1  0  0  0  0
 34 36  2  0  0  0  0
 34 32  1  0  0  0  0
 35 34  1  0  0  0  0
 36 38  1  0  0  0  0
 37 36  1  0  0  0  0
 38 39  1  0  0  0  0
 38 29  2  0  0  0  0
 39  3  1  0  0  0  0
 40  3  1  0  0  0  0
 40 41  1  0  0  0  0
 41 42  1  0  0  0  0
 42 44  2  0  0  0  0
 43 42  1  0  0  0  0
 44 45  1  0  0  0  0
 46 44  1  0  0  0  0
 46 47  1  0  0  0  0
 48 49  1  0  0  0  0
 48 46  2  0  0  0  0
 50 41  2  0  0  0  0
 50 48  1  0  0  0  0
 51 53  1  0  0  0  0
 51 52  1  0  0  0  0
 51 50  1  0  0  0  0
 54 57  1  0  0  0  0
 54 56  1  0  0  0  0
 54  4  1  0  0  0  0
 55 54  1  0  0  0  0
 58 59  1  0  0  0  0
 58  7  1  0  0  0  0
 60 58  1  0  0  0  0
 61 58  1  0  0  0  0
M  END
