1,2
 OpenBabel05122313063D

 24 23  0  0  1  0  0  0  0  0999 V2000
   -1.9317    0.0359    1.0633 S   0  0  0  0  0  1  0  0  0  0  0  0
   -1.3252   -0.1993   -1.7306 S   0  0  0  0  0  1  0  0  0  0  0  0
   -7.0815   -1.1735    0.4280 O   0  0  0  0  0  0  0  0  0  0  0  0
   -6.2579   -1.0100   -1.6772 O   0  0  0  0  0  0  0  0  0  0  0  0
   -3.8728   -0.2086   -0.8168 N   0  0  0  0  0  0  0  0  0  0  0  0
   -2.5631   -0.1303   -0.5353 C   0  0  0  0  0  3  0  0  0  0  0  0
   -4.9313   -0.1814    0.1775 C   0  0  2  0  0  0  0  0  0  0  0  0
   -6.1438   -0.8377   -0.4756 C   0  0  0  0  0  0  0  0  0  0  0  0
   -8.2836   -1.7476   -0.1128 C   0  0  0  0  0  0  0  0  0  0  0  0
   -5.2252    1.2705    0.6783 C   0  0  0  0  0  0  0  0  0  0  0  0
   -5.8566    2.1333   -0.4172 C   0  0  0  0  0  0  0  0  0  0  0  0
   -6.0291    1.2862    1.9798 C   0  0  0  0  0  0  0  0  0  0  0  0
   -4.1753   -0.3778   -1.7850 H   0  0  0  0  0  0  0  0  0  0  0  0
   -4.6159   -0.7871    1.0557 H   0  0  0  0  0  0  0  0  0  0  0  0
   -8.7775   -1.0386   -0.8066 H   0  0  0  0  0  0  0  0  0  0  0  0
   -8.9338   -1.9605    0.7533 H   0  0  0  0  0  0  0  0  0  0  0  0
   -8.0543   -2.6790   -0.6671 H   0  0  0  0  0  0  0  0  0  0  0  0
   -4.2121    1.6694    0.9046 H   0  0  0  0  0  0  0  0  0  0  0  0
   -5.2703    2.0932   -1.3569 H   0  0  0  0  0  0  0  0  0  0  0  0
   -5.9063    3.1930   -0.0973 H   0  0  0  0  0  0  0  0  0  0  0  0
   -6.8934    1.8077   -0.6480 H   0  0  0  0  0  0  0  0  0  0  0  0
   -6.1186    2.3239    2.3590 H   0  0  0  0  0  0  0  0  0  0  0  0
   -7.0515    0.8840    1.8371 H   0  0  0  0  0  0  0  0  0  0  0  0
   -5.5331    0.6817    2.7661 H   0  0  0  0  0  0  0  0  0  0  0  0
  2  6  1  0  0  0  0
  4  8  2  0  0  0  0
  5  6  1  0  0  0  0
  5  7  1  0  0  0  0
  6  1  1  0  0  0  0
  7 10  1  0  0  0  0
  7 14  1  1  0  0  0
  8  7  1  0  0  0  0
  8  3  1  0  0  0  0
  9  3  1  0  0  0  0
  9 16  1  0  0  0  0
 10 18  1  0  0  0  0
 10 12  1  0  0  0  0
 11 20  1  0  0  0  0
 11 10  1  0  0  0  0
 12 22  1  0  0  0  0
 12 24  1  0  0  0  0
 13  5  1  0  0  0  0
 15  9  1  0  0  0  0
 17  9  1  0  0  0  0
 19 11  1  0  0  0  0
 21 11  1  0  0  0  0
 23 12  1  0  0  0  0
M  END
