1,2
 OpenBabel05122313063D

 19 20  0  0  0  0  0  0  0  0999 V2000
    0.8513    0.8191    0.0108 S   0  0  0  0  0  1  0  0  0  0  0  0
   -0.1740   -2.2657   -0.0369 S   0  0  0  0  0  1  0  0  0  0  0  0
    2.8765   -2.9468   -0.0240 S   0  0  0  0  0  0  0  0  0  0  0  0
    5.6928   -1.8248    0.0082 S   0  0  0  0  0  0  0  0  0  0  0  0
    3.3426   -0.4105   -0.0122 N   0  0  0  0  0  0  0  0  0  0  0  0
    1.9480   -0.5333   -0.0365 C   0  0  0  0  0  0  0  0  0  0  0  0
    1.5081   -1.8433   -0.0479 C   0  0  0  0  0  0  0  0  0  0  0  0
    4.0526   -1.6106   -0.0007 C   0  0  0  0  0  0  0  0  0  0  0  0
    3.9943    0.8662   -0.0297 C   0  0  0  0  0  0  0  0  0  0  0  0
    4.8264    1.2425    1.0377 C   0  0  0  0  0  0  0  0  0  0  0  0
    5.4446    2.4997    1.0159 C   0  0  0  0  0  0  0  0  0  0  0  0
    5.2322    3.3758   -0.0615 C   0  0  0  0  0  0  0  0  0  0  0  0
    4.4012    2.9907   -1.1247 C   0  0  0  0  0  0  0  0  0  0  0  0
    3.7832    1.7317   -1.1162 C   0  0  0  0  0  0  0  0  0  0  0  0
    4.9859    0.5447    1.8705 H   0  0  0  0  0  0  0  0  0  0  0  0
    6.0981    2.7974    1.8496 H   0  0  0  0  0  0  0  0  0  0  0  0
    5.7203    4.3621   -0.0732 H   0  0  0  0  0  0  0  0  0  0  0  0
    4.2372    3.6706   -1.9743 H   0  0  0  0  0  0  0  0  0  0  0  0
    3.1383    1.4125   -1.9470 H   0  0  0  0  0  0  0  0  0  0  0  0
  3  8  1  0  0  0  0
  5  8  1  0  0  0  0
  6  5  1  0  0  0  0
  6  1  1  0  0  0  0
  7  2  1  0  0  0  0
  7  6  2  0  0  0  0
  7  3  1  0  0  0  0
  8  4  2  0  0  0  0
  9  5  1  0  0  0  0
  9 10  1  0  0  0  0
 10 15  1  0  0  0  0
 11 10  2  0  0  0  0
 11 16  1  0  0  0  0
 12 11  1  0  0  0  0
 13 14  1  0  0  0  0
 13 12  2  0  0  0  0
 14  9  2  0  0  0  0
 17 12  1  0  0  0  0
 18 13  1  0  0  0  0
 19 14  1  0  0  0  0
M  END
