1,2
 OpenBabel05122313063D

 40 42  0  0  0  0  0  0  0  0999 V2000
    1.6874   -1.4059   -0.7324 S   0  0  0  0  0  0  0  0  0  0  0  0
    1.6362    1.6003    0.4412 S   0  0  0  0  0  1  0  0  0  0  0  0
    3.2116   -0.4864   -0.5006 C   0  0  0  0  0  0  0  0  0  0  0  0
    1.8095   -2.6727    0.6545 C   0  0  0  0  0  0  0  0  0  0  0  0
    3.1207    0.8151   -0.0526 C   0  0  0  0  0  0  0  0  0  0  0  0
    4.4394   -1.2533   -0.7940 C   0  0  0  0  0  0  0  0  0  0  0  0
    1.8095   -2.0257    2.0035 C   0  0  0  0  0  0  0  0  0  0  0  0
    2.7355   -3.2395    0.4342 H   0  0  0  0  0  0  0  0  0  0  0  0
    0.9275   -3.3195    0.4806 H   0  0  0  0  0  0  0  0  0  0  0  0
    4.3049    1.7145    0.0149 C   0  0  0  0  0  0  0  0  0  0  0  0
    5.6107   -1.0984   -0.0081 C   0  0  0  0  0  0  0  0  0  0  0  0
    4.4698   -2.2061   -1.8430 C   0  0  0  0  0  0  0  0  0  0  0  0
    3.0094   -1.5429    2.5624 C   0  0  0  0  0  0  0  0  0  0  0  0
    0.5938   -1.7967    2.6835 C   0  0  0  0  0  0  0  0  0  0  0  0
    5.1315    1.9023   -1.1144 C   0  0  0  0  0  0  0  0  0  0  0  0
    4.6066    2.4068    1.2084 C   0  0  0  0  0  0  0  0  0  0  0  0
    6.7627   -1.8460   -0.2786 C   0  0  0  0  0  0  0  0  0  0  0  0
    5.6103   -0.3805    0.8237 H   0  0  0  0  0  0  0  0  0  0  0  0
    5.6226   -2.9592   -2.1039 C   0  0  0  0  0  0  0  0  0  0  0  0
    3.5735   -2.3449   -2.4666 H   0  0  0  0  0  0  0  0  0  0  0  0
    2.9916   -0.8181    3.7640 C   0  0  0  0  0  0  0  0  0  0  0  0
    3.9618   -1.7337    2.0463 H   0  0  0  0  0  0  0  0  0  0  0  0
    0.5794   -1.0826    3.8880 C   0  0  0  0  0  0  0  0  0  0  0  0
   -0.3467   -2.1676    2.2467 H   0  0  0  0  0  0  0  0  0  0  0  0
    6.2422    2.7527   -1.0459 C   0  0  0  0  0  0  0  0  0  0  0  0
    4.8916    1.3719   -2.0476 H   0  0  0  0  0  0  0  0  0  0  0  0
    5.7244    3.2506    1.2748 C   0  0  0  0  0  0  0  0  0  0  0  0
    3.9564    2.2631    2.0845 H   0  0  0  0  0  0  0  0  0  0  0  0
    6.7780   -2.7810   -1.3272 C   0  0  0  0  0  0  0  0  0  0  0  0
    7.6575   -1.7037    0.3466 H   0  0  0  0  0  0  0  0  0  0  0  0
    5.6187   -3.6875   -2.9293 H   0  0  0  0  0  0  0  0  0  0  0  0
    1.7770   -0.5792    4.4243 C   0  0  0  0  0  0  0  0  0  0  0  0
    3.9345   -0.4373    4.1855 H   0  0  0  0  0  0  0  0  0  0  0  0
   -0.3754   -0.9080    4.4069 H   0  0  0  0  0  0  0  0  0  0  0  0
    6.5460    3.4254    0.1495 C   0  0  0  0  0  0  0  0  0  0  0  0
    6.8762    2.8935   -1.9346 H   0  0  0  0  0  0  0  0  0  0  0  0
    5.9552    3.7768    2.2136 H   0  0  0  0  0  0  0  0  0  0  0  0
    7.6836   -3.3712   -1.5330 H   0  0  0  0  0  0  0  0  0  0  0  0
    1.7627   -0.0060    5.3638 H   0  0  0  0  0  0  0  0  0  0  0  0
    7.4215    4.0905    0.2021 H   0  0  0  0  0  0  0  0  0  0  0  0
  1  3  1  0  0  0  0
  1  4  1  0  0  0  0
  3  5  2  0  0  0  0
  4  7  1  0  0  0  0
  5 10  1  0  0  0  0
  5  2  1  0  0  0  0
  6  3  1  0  0  0  0
  6 11  1  0  0  0  0
  7 13  2  0  0  0  0
  7 14  1  0  0  0  0
  8  4  1  0  0  0  0
  9  4  1  0  0  0  0
 10 16  1  0  0  0  0
 11 18  1  0  0  0  0
 12  6  2  0  0  0  0
 13 21  1  0  0  0  0
 14 23  2  0  0  0  0
 15 25  1  0  0  0  0
 15 10  2  0  0  0  0
 16 27  2  0  0  0  0
 16 28  1  0  0  0  0
 17 11  2  0  0  0  0
 17 30  1  0  0  0  0
 19 12  1  0  0  0  0
 19 29  2  0  0  0  0
 20 12  1  0  0  0  0
 21 33  1  0  0  0  0
 21 32  2  0  0  0  0
 22 13  1  0  0  0  0
 23 34  1  0  0  0  0
 23 32  1  0  0  0  0
 24 14  1  0  0  0  0
 25 35  2  0  0  0  0
 26 15  1  0  0  0  0
 27 37  1  0  0  0  0
 29 17  1  0  0  0  0
 31 19  1  0  0  0  0
 32 39  1  0  0  0  0
 35 40  1  0  0  0  0
 35 27  1  0  0  0  0
 36 25  1  0  0  0  0
 38 29  1  0  0  0  0
M  END
