1,2
 OpenBabel05122313063D

 30 30  0  0  0  0  0  0  0  0999 V2000
   -1.1139    1.1542   -1.6436 S   0  0  0  0  0  1  0  0  0  0  0  0
   -1.0489    1.2015    1.5196 S   0  0  0  0  0  1  0  0  0  0  0  0
   -2.3434    1.4825   -0.0513 P   0  0  0  0  0  4  0  0  0  0  0  0
   -6.9606   -2.3286    0.0701 O   0  0  0  0  0  0  0  0  0  0  0  0
   -3.1241    2.9773   -0.2081 N   0  0  0  0  0  0  0  0  0  0  0  0
   -3.7574    0.3499    0.0547 C   0  0  0  0  0  0  0  0  0  0  0  0
   -3.6730   -0.8093    0.8461 C   0  0  0  0  0  0  0  0  0  0  0  0
   -2.7649   -0.9802    1.4458 H   0  0  0  0  0  0  0  0  0  0  0  0
   -4.7257   -1.7328    0.8792 C   0  0  0  0  0  0  0  0  0  0  0  0
   -4.6324   -2.6274    1.5087 H   0  0  0  0  0  0  0  0  0  0  0  0
   -5.8853   -1.5016    0.1076 C   0  0  0  0  0  0  0  0  0  0  0  0
   -5.9701   -0.3407   -0.6955 C   0  0  0  0  0  0  0  0  0  0  0  0
   -6.8798   -0.1861   -1.2934 H   0  0  0  0  0  0  0  0  0  0  0  0
   -4.9148    0.5696   -0.7284 C   0  0  0  0  0  0  0  0  0  0  0  0
   -4.9780    1.4615   -1.3694 H   0  0  0  0  0  0  0  0  0  0  0  0
   -6.9282   -3.5166    0.8412 C   0  0  0  0  0  0  0  0  0  0  0  0
   -7.8882   -4.0335    0.6583 H   0  0  0  0  0  0  0  0  0  0  0  0
   -6.8343   -3.3015    1.9291 H   0  0  0  0  0  0  0  0  0  0  0  0
   -6.0926   -4.1850    0.5359 H   0  0  0  0  0  0  0  0  0  0  0  0
   -2.3617    4.2168   -0.4317 C   0  0  0  0  0  0  0  0  0  0  0  0
   -1.4567    3.9008   -0.9959 H   0  0  0  0  0  0  0  0  0  0  0  0
   -1.9175    4.8640    0.8850 C   0  0  0  0  0  0  0  0  0  0  0  0
   -1.3149    4.1489    1.4793 H   0  0  0  0  0  0  0  0  0  0  0  0
   -2.7971    5.1712    1.4910 H   0  0  0  0  0  0  0  0  0  0  0  0
   -1.3060    5.7697    0.6965 H   0  0  0  0  0  0  0  0  0  0  0  0
   -3.1786    5.1635   -1.3138 C   0  0  0  0  0  0  0  0  0  0  0  0
   -3.4524    4.6715   -2.2674 H   0  0  0  0  0  0  0  0  0  0  0  0
   -2.6039    6.0834   -1.5427 H   0  0  0  0  0  0  0  0  0  0  0  0
   -4.1154    5.4721   -0.8020 H   0  0  0  0  0  0  0  0  0  0  0  0
   -3.9534    3.0842    0.3898 H   0  0  0  0  0  0  0  0  0  0  0  0
  1  3  1  0  0  0  0
  3  6  1  0  0  0  0
  3  2  1  0  0  0  0
  4 11  1  0  0  0  0
  4 16  1  0  0  0  0
  5  3  1  0  0  0  0
  5 30  1  0  0  0  0
  6  7  1  0  0  0  0
  7  9  2  0  0  0  0
  7  8  1  0  0  0  0
  9 10  1  0  0  0  0
 11  9  1  0  0  0  0
 12 11  2  0  0  0  0
 13 12  1  0  0  0  0
 14 12  1  0  0  0  0
 14  6  2  0  0  0  0
 15 14  1  0  0  0  0
 16 18  1  0  0  0  0
 17 16  1  0  0  0  0
 19 16  1  0  0  0  0
 20  5  1  0  0  0  0
 20 22  1  0  0  0  0
 21 20  1  0  0  0  0
 22 23  1  0  0  0  0
 22 24  1  0  0  0  0
 25 22  1  0  0  0  0
 26 29  1  0  0  0  0
 26 20  1  0  0  0  0
 27 26  1  0  0  0  0
 28 26  1  0  0  0  0
M  END
