1,3
 OpenBabel05122313063D

 31 32  0  0  0  0  0  0  0  0999 V2000
    1.5379   -1.2944    1.9914 S   0  0  0  0  0  0  0  0  0  0  0  0
   -1.8311   -2.1272    1.3118 S   0  0  0  0  0  0  0  0  0  0  0  0
   -0.2695   -1.7449   -1.7672 S   0  0  0  0  0  0  0  0  0  0  0  0
    2.4325   -1.5534   -1.4664 C   0  0  0  0  0  0  0  0  0  0  0  0
    2.6978   -0.8289   -2.6467 C   0  0  0  0  0  0  0  0  0  0  0  0
    3.6534    0.1954   -2.6757 C   0  0  0  0  0  0  0  0  0  0  0  0
    4.3688    0.5103   -1.5099 C   0  0  0  0  0  0  0  0  0  0  0  0
    4.1242   -0.2093   -0.3331 C   0  0  0  0  0  0  0  0  0  0  0  0
    3.1661   -1.2433   -0.2881 C   0  0  0  0  0  0  0  0  0  0  0  0
    2.9658   -1.9764    1.0124 C   0  0  0  0  0  0  0  0  0  0  0  0
    0.6771   -2.8189    2.5404 C   0  0  0  0  0  0  0  0  0  0  0  0
   -0.8227   -2.6181    2.7585 C   0  0  0  0  0  0  0  0  0  0  0  0
   -1.5022   -3.4966    0.1389 C   0  0  0  0  0  0  0  0  0  0  0  0
   -1.4855   -3.0315   -1.3184 C   0  0  0  0  0  0  0  0  0  0  0  0
    1.3478   -2.6040   -1.5059 C   0  0  0  0  0  0  0  0  0  0  0  0
    2.1348   -1.0749   -3.5604 H   0  0  0  0  0  0  0  0  0  0  0  0
    3.8445    0.7401   -3.6123 H   0  0  0  0  0  0  0  0  0  0  0  0
    5.1303    1.3044   -1.5195 H   0  0  0  0  0  0  0  0  0  0  0  0
    4.6922    0.0288    0.5792 H   0  0  0  0  0  0  0  0  0  0  0  0
    3.8684   -1.8920    1.6468 H   0  0  0  0  0  0  0  0  0  0  0  0
    2.7609   -3.0546    0.8632 H   0  0  0  0  0  0  0  0  0  0  0  0
    0.8708   -3.6131    1.7898 H   0  0  0  0  0  0  0  0  0  0  0  0
    1.1304   -3.1577    3.4948 H   0  0  0  0  0  0  0  0  0  0  0  0
   -1.0127   -1.8069    3.4918 H   0  0  0  0  0  0  0  0  0  0  0  0
   -1.2439   -3.5469    3.1965 H   0  0  0  0  0  0  0  0  0  0  0  0
   -0.5376   -3.9721    0.4076 H   0  0  0  0  0  0  0  0  0  0  0  0
   -2.2886   -4.2711    0.2549 H   0  0  0  0  0  0  0  0  0  0  0  0
   -2.4538   -2.5670   -1.5972 H   0  0  0  0  0  0  0  0  0  0  0  0
   -1.3378   -3.9065   -1.9852 H   0  0  0  0  0  0  0  0  0  0  0  0
    1.2924   -3.1804   -0.5646 H   0  0  0  0  0  0  0  0  0  0  0  0
    1.5033   -3.3137   -2.3442 H   0  0  0  0  0  0  0  0  0  0  0  0
  1 11  1  0  0  0  0
  2 12  1  0  0  0  0
  3 15  1  0  0  0  0
  3 14  1  0  0  0  0
  4  9  1  0  0  0  0
  5  4  2  0  0  0  0
  6  5  1  0  0  0  0
  6  7  2  0  0  0  0
  7  8  1  0  0  0  0
  8  9  2  0  0  0  0
  8 19  1  0  0  0  0
  9 10  1  0  0  0  0
 10 20  1  0  0  0  0
 10  1  1  0  0  0  0
 11 12  1  0  0  0  0
 11 23  1  0  0  0  0
 12 25  1  0  0  0  0
 12 24  1  0  0  0  0
 13 27  1  0  0  0  0
 13 26  1  0  0  0  0
 13  2  1  0  0  0  0
 14 13  1  0  0  0  0
 15  4  1  0  0  0  0
 15 30  1  0  0  0  0
 16  5  1  0  0  0  0
 17  6  1  0  0  0  0
 18  7  1  0  0  0  0
 21 10  1  0  0  0  0
 22 11  1  0  0  0  0
 28 14  1  0  0  0  0
 29 14  1  0  0  0  0
 31 15  1  0  0  0  0
M  END
