2,3
 OpenBabel05122313063D

 15 14  0  0  0  0  0  0  0  0999 V2000
    3.1706   -1.4389   -1.5839 O   0  0  0  0  0  0  0  0  0  0  0  0
    1.8963   -2.2882   -1.3684 S   0  0  0  0  0  3  0  0  0  0  0  0
   -1.3796   -2.8858   -0.7745 S   0  0  0  0  0  1  0  0  0  0  0  0
    2.3822   -3.4236    0.0410 C   0  0  0  0  0  0  0  0  0  0  0  0
    1.2606   -4.0320    0.8722 C   0  0  0  0  0  0  0  0  0  0  0  0
    0.3286   -4.9816    0.1138 C   0  0  0  0  0  0  0  0  0  0  0  0
   -0.3512   -4.3620   -1.1127 C   0  0  0  0  0  0  0  0  0  0  0  0
    3.0510   -2.7845    0.6489 H   0  0  0  0  0  0  0  0  0  0  0  0
    3.0058   -4.1970   -0.4564 H   0  0  0  0  0  0  0  0  0  0  0  0
    0.6586   -3.2068    1.3115 H   0  0  0  0  0  0  0  0  0  0  0  0
    1.7212   -4.5753    1.7262 H   0  0  0  0  0  0  0  0  0  0  0  0
    0.9053   -5.8729   -0.2252 H   0  0  0  0  0  0  0  0  0  0  0  0
   -0.4501   -5.3545    0.8129 H   0  0  0  0  0  0  0  0  0  0  0  0
    0.4035   -4.1063   -1.8924 H   0  0  0  0  0  0  0  0  0  0  0  0
   -1.0457   -5.0930   -1.5761 H   0  0  0  0  0  0  0  0  0  0  0  0
  1  2  2  0  0  0  0
  2  4  1  0  0  0  0
  4  8  1  0  0  0  0
  4  5  1  0  0  0  0
  5 10  1  0  0  0  0
  5 11  1  0  0  0  0
  6 13  1  0  0  0  0
  6  5  1  0  0  0  0
  7  3  1  0  0  0  0
  7  6  1  0  0  0  0
  9  4  1  0  0  0  0
 12  6  1  0  0  0  0
 14  7  1  0  0  0  0
 15  7  1  0  0  0  0
M  END
