1,2
 OpenBabel05122313063D

 11 10  0  0  1  0  0  0  0  0999 V2000
    1.3702    1.0937   -0.0002 S   0  0  0  0  0  1  0  0  0  0  0  0
    0.8540   -2.0870    0.0003 S   0  0  0  0  0  1  0  0  0  0  0  0
    2.8632   -1.5376    0.0002 S   0  0  0  0  0  0  0  0  0  0  0  0
    4.2394    2.1204   -0.0007 O   0  0  0  0  0  0  0  0  0  0  0  0
    5.1651    0.0427    0.0003 O   0  0  0  0  0  0  0  0  0  0  0  0
    2.8100    0.1782   -0.0000 C   0  0  1  0  0  3  0  0  0  0  0  0
    4.1016    0.9088   -0.0001 C   0  0  0  0  0  0  0  0  0  0  0  0
    6.4462    0.6661    0.0001 C   0  0  0  0  0  0  0  0  0  0  0  0
    7.1879   -0.1535   -0.0003 H   0  0  0  0  0  0  0  0  0  0  0  0
    6.5813    1.3065    0.8967 H   0  0  0  0  0  0  0  0  0  0  0  0
    6.5808    1.3068   -0.8964 H   0  0  0  0  0  0  0  0  0  0  0  0
  3  2  1  0  0  0  0
  4  7  2  0  0  0  0
  6  1  1  6  0  0  0
  6  3  1  0  0  0  0
  7  6  1  0  0  0  0
  7  5  1  0  0  0  0
  8  5  1  0  0  0  0
  8 10  1  0  0  0  0
  9  8  1  0  0  0  0
 11  8  1  0  0  0  0
M  END
