1,2
 OpenBabel05122313063D

 25 25  0  0  0  0  0  0  0  0999 V2000
   -1.8834   -1.7977   -0.7205 S   0  0  0  0  0  1  0  0  0  0  0  0
   -1.2924    0.9656   -0.3284 S   0  0  0  0  0  1  0  0  0  0  0  0
   -2.5274   -0.2023   -0.6996 C   0  0  0  0  0  3  0  0  0  0  0  0
   -3.8106    0.1326   -0.9457 N   0  0  0  0  0  0  0  0  0  0  0  0
   -4.8096   -0.9228   -1.1566 C   0  0  0  0  0  0  0  0  0  0  0  0
   -5.3761   -0.7287   -2.0876 H   0  0  0  0  0  0  0  0  0  0  0  0
   -4.2402   -1.8653   -1.3054 H   0  0  0  0  0  0  0  0  0  0  0  0
   -4.2341    1.5524   -0.8515 C   0  0  0  0  0  0  0  0  0  0  0  0
   -3.3232    2.1258   -1.1281 H   0  0  0  0  0  0  0  0  0  0  0  0
   -5.3250    1.8890   -1.8682 C   0  0  0  0  0  0  0  0  0  0  0  0
   -5.0356    1.5865   -2.8943 H   0  0  0  0  0  0  0  0  0  0  0  0
   -5.4869    2.9845   -1.8722 H   0  0  0  0  0  0  0  0  0  0  0  0
   -6.2933    1.4148   -1.6119 H   0  0  0  0  0  0  0  0  0  0  0  0
   -4.6162    1.9352    0.5844 C   0  0  0  0  0  0  0  0  0  0  0  0
   -3.8014    1.6654    1.2835 H   0  0  0  0  0  0  0  0  0  0  0  0
   -5.5492    1.4327    0.9073 H   0  0  0  0  0  0  0  0  0  0  0  0
   -4.7751    3.0304    0.6483 H   0  0  0  0  0  0  0  0  0  0  0  0
   -5.7741   -1.0597   -0.0273 C   0  0  0  0  0  0  0  0  0  0  0  0
   -5.2474   -1.3377    1.2037 O   0  0  0  0  0  0  0  0  0  0  0  0
   -7.1447   -0.9405    0.0677 C   0  0  0  0  0  0  0  0  0  0  0  0
   -7.8337   -0.7206   -0.7555 H   0  0  0  0  0  0  0  0  0  0  0  0
   -6.2817   -1.3914    2.0900 C   0  0  0  0  0  0  0  0  0  0  0  0
   -6.0098   -1.6081    3.1278 H   0  0  0  0  0  0  0  0  0  0  0  0
   -7.4756   -1.1607    1.4477 C   0  0  0  0  0  0  0  0  0  0  0  0
   -8.4714   -1.1494    1.9039 H   0  0  0  0  0  0  0  0  0  0  0  0
  1  3  1  0  0  0  0
  3  2  1  0  0  0  0
  4  8  1  0  0  0  0
  4  3  1  0  0  0  0
  5  4  1  0  0  0  0
  5 18  1  0  0  0  0
  6  5  1  0  0  0  0
  7  5  1  0  0  0  0
  8 14  1  0  0  0  0
  9  8  1  0  0  0  0
 10 13  1  0  0  0  0
 10  8  1  0  0  0  0
 11 10  1  0  0  0  0
 12 10  1  0  0  0  0
 14 17  1  0  0  0  0
 14 16  1  0  0  0  0
 14 15  1  0  0  0  0
 18 20  2  0  0  0  0
 18 19  1  0  0  0  0
 19 22  1  0  0  0  0
 20 24  1  0  0  0  0
 21 20  1  0  0  0  0
 22 23  1  0  0  0  0
 24 25  1  0  0  0  0
 24 22  2  0  0  0  0
M  END
