1,2
 OpenBabel05122313063D

 22 22  0  0  1  0  0  0  0  0999 V2000
    2.0001    0.1253   -1.5952 S   0  0  0  0  0  1  0  0  0  0  0  0
    1.7685   -0.5080    1.3142 S   0  0  0  0  0  1  0  0  0  0  0  0
    3.9745   -1.0064   -0.1442 N   0  0  0  0  0  0  0  0  0  0  0  0
    2.7104   -0.5060   -0.1510 C   0  0  0  0  0  3  0  0  0  0  0  0
    4.7679   -1.1266   -1.3718 C   0  0  0  0  0  0  0  0  0  0  0  0
    4.2219   -0.5875   -2.1689 H   0  0  0  0  0  0  0  0  0  0  0  0
    4.8087   -2.2001   -1.6689 H   0  0  0  0  0  0  0  0  0  0  0  0
    4.5681   -1.6060    1.0717 C   0  0  2  0  0  0  0  0  0  0  0  0
    3.9539   -1.2331    1.9151 H   0  0  0  0  0  0  0  0  0  0  0  0
    6.8746   -1.2502    0.0104 C   0  0  0  0  0  0  0  0  0  0  0  0
    7.0352   -2.3290   -0.2086 H   0  0  0  0  0  0  0  0  0  0  0  0
    7.8806   -0.8141    0.1806 H   0  0  0  0  0  0  0  0  0  0  0  0
    6.0062   -1.0884    1.2619 C   0  0  0  0  0  0  0  0  0  0  0  0
    5.9518   -0.0101    1.5261 H   0  0  0  0  0  0  0  0  0  0  0  0
    6.4561   -1.6082    2.1330 H   0  0  0  0  0  0  0  0  0  0  0  0
    6.1852   -0.5833   -1.1830 C   0  0  0  0  0  0  0  0  0  0  0  0
    6.7581   -0.7409   -2.1203 H   0  0  0  0  0  0  0  0  0  0  0  0
    6.1287    0.5151   -1.0184 H   0  0  0  0  0  0  0  0  0  0  0  0
    4.4423   -3.1340    1.0456 C   0  0  0  0  0  0  0  0  0  0  0  0
    3.3760   -3.4203    0.9553 H   0  0  0  0  0  0  0  0  0  0  0  0
    4.8349   -3.5638    1.9887 H   0  0  0  0  0  0  0  0  0  0  0  0
    5.0008   -3.5955    0.2065 H   0  0  0  0  0  0  0  0  0  0  0  0
  1  4  1  0  0  0  0
  3  8  1  0  0  0  0
  4  3  1  0  0  0  0
  4  2  1  0  0  0  0
  5 16  1  0  0  0  0
  5  3  1  0  0  0  0
  6  5  1  0  0  0  0
  7  5  1  0  0  0  0
  8 13  1  0  0  0  0
  8  9  1  1  0  0  0
 10 12  1  0  0  0  0
 10 13  1  0  0  0  0
 11 10  1  0  0  0  0
 13 14  1  0  0  0  0
 13 15  1  0  0  0  0
 16 18  1  0  0  0  0
 16 10  1  0  0  0  0
 17 16  1  0  0  0  0
 19  8  1  0  0  0  0
 19 21  1  0  0  0  0
 20 19  1  0  0  0  0
 22 19  1  0  0  0  0
M  END
