1,2
 OpenBabel05122313063D

 33 34  0  0  0  0  0  0  0  0999 V2000
   -2.3579    0.1281   -1.8977 S   0  0  0  0  0  1  0  0  0  0  0  0
   -1.5101   -0.5762    1.2006 S   0  0  0  0  0  1  0  0  0  0  0  0
   -2.7193   -1.1066   -0.2844 P   0  0  0  0  0  4  0  0  0  0  0  0
   -4.3218   -1.1352    0.0616 O   0  0  0  0  0  0  0  0  0  0  0  0
   -2.6561   -2.6811   -0.7399 O   0  0  0  0  0  0  0  0  0  0  0  0
   -4.9476    0.0535    0.4678 C   0  0  0  0  0  0  0  0  0  0  0  0
   -4.9315    0.4194    1.8198 C   0  0  0  0  0  0  0  0  0  0  0  0
   -4.4049   -0.2149    2.5458 H   0  0  0  0  0  0  0  0  0  0  0  0
   -5.5857    1.5943    2.2123 C   0  0  0  0  0  0  0  0  0  0  0  0
   -5.5748    1.8847    3.2745 H   0  0  0  0  0  0  0  0  0  0  0  0
   -6.2508    2.4134    1.2763 C   0  0  0  0  0  0  0  0  0  0  0  0
   -6.2517    2.0112   -0.0751 C   0  0  0  0  0  0  0  0  0  0  0  0
   -6.7691    2.6306   -0.8242 H   0  0  0  0  0  0  0  0  0  0  0  0
   -5.6023    0.8399   -0.4882 C   0  0  0  0  0  0  0  0  0  0  0  0
   -5.5959    0.5281   -1.5418 H   0  0  0  0  0  0  0  0  0  0  0  0
   -6.9115    3.6991    1.7049 C   0  0  0  0  0  0  0  0  0  0  0  0
   -7.3285    3.6233    2.7286 H   0  0  0  0  0  0  0  0  0  0  0  0
   -7.7308    3.9876    1.0177 H   0  0  0  0  0  0  0  0  0  0  0  0
   -6.1793    4.5351    1.7123 H   0  0  0  0  0  0  0  0  0  0  0  0
   -1.4171   -3.2123   -1.1343 C   0  0  0  0  0  0  0  0  0  0  0  0
   -1.0825   -3.2281   -2.4943 C   0  0  0  0  0  0  0  0  0  0  0  0
   -1.7905   -2.8239   -3.2310 H   0  0  0  0  0  0  0  0  0  0  0  0
    0.1620   -3.7454   -2.8817 C   0  0  0  0  0  0  0  0  0  0  0  0
    0.4334   -3.7477   -3.9488 H   0  0  0  0  0  0  0  0  0  0  0  0
    1.0795   -4.2341   -1.9300 C   0  0  0  0  0  0  0  0  0  0  0  0
    0.6993   -4.2242   -0.5726 C   0  0  0  0  0  0  0  0  0  0  0  0
    1.4022   -4.5905    0.1903 H   0  0  0  0  0  0  0  0  0  0  0  0
   -0.5407   -3.7179   -0.1665 C   0  0  0  0  0  0  0  0  0  0  0  0
   -0.8233   -3.6851    0.8943 H   0  0  0  0  0  0  0  0  0  0  0  0
    2.4555   -4.6946   -2.3364 C   0  0  0  0  0  0  0  0  0  0  0  0
    2.4854   -5.0292   -3.3917 H   0  0  0  0  0  0  0  0  0  0  0  0
    2.8170   -5.5231   -1.6956 H   0  0  0  0  0  0  0  0  0  0  0  0
    3.1843   -3.8616   -2.2317 H   0  0  0  0  0  0  0  0  0  0  0  0
  1  3  1  0  0  0  0
  3  4  1  0  0  0  0
  3  2  1  0  0  0  0
  4  6  1  0  0  0  0
  5  3  1  0  0  0  0
  6  7  1  0  0  0  0
  7  9  2  0  0  0  0
  7  8  1  0  0  0  0
  9 10  1  0  0  0  0
 11 16  1  0  0  0  0
 11  9  1  0  0  0  0
 12 11  2  0  0  0  0
 13 12  1  0  0  0  0
 14 12  1  0  0  0  0
 14  6  2  0  0  0  0
 15 14  1  0  0  0  0
 16 19  1  0  0  0  0
 16 17  1  0  0  0  0
 18 16  1  0  0  0  0
 20  5  1  0  0  0  0
 20 28  1  0  0  0  0
 21 20  2  0  0  0  0
 22 21  1  0  0  0  0
 23 21  1  0  0  0  0
 23 25  2  0  0  0  0
 24 23  1  0  0  0  0
 25 26  1  0  0  0  0
 26 28  2  0  0  0  0
 26 27  1  0  0  0  0
 28 29  1  0  0  0  0
 30 33  1  0  0  0  0
 30 25  1  0  0  0  0
 30 32  1  0  0  0  0
 31 30  1  0  0  0  0
M  END
