1,2
 OpenBabel05122313063D

 32 33  0  0  0  0  0  0  0  0999 V2000
   -2.1749    1.0742   -1.2090 S   0  0  0  0  0  1  0  0  0  0  0  0
   -2.1611   -1.0584    0.9306 S   0  0  0  0  0  1  0  0  0  0  0  0
   -4.3778    0.1448    0.0149 N   0  0  0  0  0  0  0  0  0  0  0  0
   -3.0297    0.0567   -0.0797 C   0  0  0  0  0  3  0  0  0  0  0  0
   -5.1807    1.0358   -0.8524 C   0  0  0  0  0  0  0  0  0  0  0  0
   -4.4604    1.5953   -1.4845 H   0  0  0  0  0  0  0  0  0  0  0  0
   -5.7950    0.4082   -1.5312 H   0  0  0  0  0  0  0  0  0  0  0  0
   -6.0938    1.9311   -0.0847 C   0  0  0  0  0  0  0  0  0  0  0  0
   -7.4889    2.0061   -0.1040 C   0  0  0  0  0  0  0  0  0  0  0  0
   -8.1420    1.3938   -0.7369 H   0  0  0  0  0  0  0  0  0  0  0  0
   -7.8789    3.0265    0.8102 C   0  0  0  0  0  0  0  0  0  0  0  0
   -8.8977    3.3613    1.0338 H   0  0  0  0  0  0  0  0  0  0  0  0
   -6.7114    3.5388    1.3673 C   0  0  0  0  0  0  0  0  0  0  0  0
   -6.5584    4.3271    2.1130 H   0  0  0  0  0  0  0  0  0  0  0  0
   -5.6331    2.8783    0.8189 N   0  0  0  0  0  0  0  0  0  0  0  0
   -4.2469    3.0876    1.2004 C   0  0  0  0  0  0  0  0  0  0  0  0
   -3.9206    2.3646    1.9780 H   0  0  0  0  0  0  0  0  0  0  0  0
   -4.1298    4.1127    1.5983 H   0  0  0  0  0  0  0  0  0  0  0  0
   -3.5756    2.9707    0.3266 H   0  0  0  0  0  0  0  0  0  0  0  0
   -5.1582   -0.6833    0.9477 C   0  0  0  0  0  0  0  0  0  0  0  0
   -5.8573   -0.0111    1.4864 H   0  0  0  0  0  0  0  0  0  0  0  0
   -4.4465   -1.1136    1.6795 H   0  0  0  0  0  0  0  0  0  0  0  0
   -5.9363   -1.7702    0.2403 C   0  0  0  0  0  0  0  0  0  0  0  0
   -5.2701   -2.8369   -0.4031 C   0  0  0  0  0  0  0  0  0  0  0  0
   -4.1653   -2.8845   -0.3697 H   0  0  0  0  0  0  0  0  0  0  0  0
   -5.8982   -3.8217   -1.0596 N   0  0  0  0  0  0  0  0  0  0  0  0
   -7.2406   -3.7858   -1.1031 C   0  0  0  0  0  0  0  0  0  0  0  0
   -7.7357   -4.6084   -1.6502 H   0  0  0  0  0  0  0  0  0  0  0  0
   -8.0084   -2.7778   -0.4988 C   0  0  0  0  0  0  0  0  0  0  0  0
   -9.1067   -2.7968   -0.5641 H   0  0  0  0  0  0  0  0  0  0  0  0
   -7.3405   -1.7501    0.1820 C   0  0  0  0  0  0  0  0  0  0  0  0
   -7.8976   -0.9309    0.6644 H   0  0  0  0  0  0  0  0  0  0  0  0
  1  4  1  0  0  0  0
  3 20  1  0  0  0  0
  4  3  1  0  0  0  0
  4  2  1  0  0  0  0
  5  8  1  0  0  0  0
  5  3  1  0  0  0  0
  6  5  1  0  0  0  0
  7  5  1  0  0  0  0
  8 15  1  0  0  0  0
  9  8  2  0  0  0  0
  9 11  1  0  0  0  0
 10  9  1  0  0  0  0
 11 12  1  0  0  0  0
 11 13  2  0  0  0  0
 13 14  1  0  0  0  0
 15 16  1  0  0  0  0
 15 13  1  0  0  0  0
 16 18  1  0  0  0  0
 16 17  1  0  0  0  0
 19 16  1  0  0  0  0
 20 21  1  0  0  0  0
 20 22  1  0  0  0  0
 23 20  1  0  0  0  0
 24 25  1  0  0  0  0
 24 23  2  0  0  0  0
 26 24  1  0  0  0  0
 27 26  2  0  0  0  0
 27 29  1  0  0  0  0
 28 27  1  0  0  0  0
 29 31  2  0  0  0  0
 30 29  1  0  0  0  0
 31 23  1  0  0  0  0
 31 32  1  0  0  0  0
M  END
