1,2
 OpenBabel05122313063D

 27 28  0  0  0  0  0  0  0  0999 V2000
   -0.5310   -2.1125   -0.0002 S   0  0  0  0  0  1  0  0  0  0  0  0
   -1.0795    1.0297    0.0002 S   0  0  0  0  0  1  0  0  0  0  0  0
   -6.1087    0.0249    0.0000 N   0  0  0  0  0  2  0  0  0  0  0  0
   -7.0783   -0.7994   -0.0001 N   0  0  0  0  0  2  0  0  0  0  0  0
  -12.4253    1.3320    0.0001 C   0  0  0  0  0  0  0  0  0  0  0  0
  -11.0198    0.7883    0.0001 C   0  0  0  0  0  0  0  0  0  0  0  0
  -10.7665   -0.5980   -0.0001 C   0  0  0  0  0  0  0  0  0  0  0  0
   -9.4565   -1.0921   -0.0002 C   0  0  0  0  0  0  0  0  0  0  0  0
   -8.3579   -0.2078   -0.0000 C   0  0  0  0  0  0  0  0  0  0  0  0
   -8.6006    1.1881    0.0002 C   0  0  0  0  0  0  0  0  0  0  0  0
   -9.9092    1.6679    0.0003 C   0  0  0  0  0  0  0  0  0  0  0  0
   -4.8299   -0.5505   -0.0000 C   0  0  0  0  0  0  0  0  0  0  0  0
   -4.5757   -1.9513   -0.0002 C   0  0  0  0  0  0  0  0  0  0  0  0
   -3.2675   -2.4157   -0.0003 C   0  0  0  0  0  0  0  0  0  0  0  0
   -2.1749   -1.5083   -0.0002 C   0  0  0  0  0  0  0  0  0  0  0  0
   -2.4239   -0.1108    0.0000 C   0  0  0  0  0  0  0  0  0  0  0  0
   -3.7499    0.3545    0.0001 C   0  0  0  0  0  0  0  0  0  0  0  0
  -11.6150   -1.3007   -0.0003 H   0  0  0  0  0  0  0  0  0  0  0  0
   -9.2454   -2.1719   -0.0004 H   0  0  0  0  0  0  0  0  0  0  0  0
   -7.7313    1.8608    0.0004 H   0  0  0  0  0  0  0  0  0  0  0  0
  -10.0887    2.7558    0.0005 H   0  0  0  0  0  0  0  0  0  0  0  0
   -5.4371   -2.6328   -0.0003 H   0  0  0  0  0  0  0  0  0  0  0  0
   -3.0566   -3.4969   -0.0005 H   0  0  0  0  0  0  0  0  0  0  0  0
   -3.9749    1.4315    0.0002 H   0  0  0  0  0  0  0  0  0  0  0  0
  -12.6115    1.9690   -0.8904 H   0  0  0  0  0  0  0  0  0  0  0  0
  -12.6114    1.9696    0.8901 H   0  0  0  0  0  0  0  0  0  0  0  0
  -13.1789    0.5210    0.0003 H   0  0  0  0  0  0  0  0  0  0  0  0
  1 15  1  0  0  0  0
  4  9  1  0  0  0  0
  4  3  1  0  0  0  0
  5  6  1  0  0  0  0
  5 27  1  0  0  0  0
  5 26  1  0  0  0  0
  6 11  1  0  0  0  0
  7  6  2  0  0  0  0
  8  7  1  0  0  0  0
  8  9  2  0  0  0  0
  9 10  1  0  0  0  0
 10 11  2  0  0  0  0
 10 20  1  0  0  0  0
 11 21  1  0  0  0  0
 12  3  1  0  0  0  0
 12 17  1  0  0  0  0
 13 12  2  0  0  0  0
 14 13  1  0  0  0  0
 14 15  2  0  0  0  0
 15 16  1  0  0  0  0
 16 17  2  0  0  0  0
 16  2  1  0  0  0  0
 17 24  1  0  0  0  0
 18  7  1  0  0  0  0
 19  8  1  0  0  0  0
 22 13  1  0  0  0  0
 23 14  1  0  0  0  0
 25  5  1  0  0  0  0
M  END
