5,6
 OpenBabel05122313063D

 20 22  0  0  0  0  0  0  0  0999 V2000
   -2.1351    1.4320   -0.9184 S   0  0  0  0  0  0  0  0  0  0  0  0
   -2.1603   -1.5456   -0.8445 S   0  0  0  0  0  0  0  0  0  0  0  0
   -5.3668    1.4965   -0.4463 S   0  0  0  0  0  0  0  0  0  0  0  0
   -5.4044   -1.5156   -0.3758 S   0  0  0  0  0  0  0  0  0  0  0  0
    0.8195    1.6059   -0.2347 S   0  0  0  0  0  1  0  0  0  0  0  0
    0.8091   -1.7325   -0.2036 S   0  0  0  0  0  1  0  0  0  0  0  0
   -7.8287   -1.4012    0.8048 O   0  0  0  0  0  0  0  0  0  0  0  0
   -7.7662    1.5014    0.7864 O   0  0  0  0  0  0  0  0  0  0  0  0
   -3.0961   -0.0442   -0.7198 C   0  0  0  0  0  0  0  0  0  0  0  0
   -4.4491   -0.0246   -0.5262 C   0  0  0  0  0  0  0  0  0  0  0  0
   -0.6066    0.6172   -0.5079 C   0  0  0  0  0  0  0  0  0  0  0  0
   -0.6106   -0.7503   -0.4847 C   0  0  0  0  0  0  0  0  0  0  0  0
   -6.7593    0.7051    0.3188 C   0  0  0  0  0  0  0  0  0  0  0  0
   -6.7746   -0.6562    0.3540 C   0  0  0  0  0  0  0  0  0  0  0  0
   -8.6970    0.7414    1.5625 C   0  0  0  0  0  0  0  0  0  0  0  0
   -9.0075   -0.5942    0.8845 C   0  0  0  0  0  0  0  0  0  0  0  0
   -8.2719    0.5529    2.5746 H   0  0  0  0  0  0  0  0  0  0  0  0
   -9.6095    1.3607    1.6617 H   0  0  0  0  0  0  0  0  0  0  0  0
   -9.4069   -0.4108   -0.1391 H   0  0  0  0  0  0  0  0  0  0  0  0
   -9.7510   -1.1712    1.4674 H   0  0  0  0  0  0  0  0  0  0  0  0
  1  9  1  0  0  0  0
  1 11  1  0  0  0  0
  2  9  1  0  0  0  0
  2 12  1  0  0  0  0
  3 13  1  0  0  0  0
  4 14  1  0  0  0  0
  7 16  1  0  0  0  0
  8 15  1  0  0  0  0
  9 10  2  0  0  0  0
 10  3  1  0  0  0  0
 10  4  1  0  0  0  0
 11 12  2  0  0  0  0
 11  5  1  0  0  0  0
 12  6  1  0  0  0  0
 13 14  2  0  0  0  0
 13  8  1  0  0  0  0
 14  7  1  0  0  0  0
 15 18  1  0  0  0  0
 15 17  1  0  0  0  0
 16 20  1  0  0  0  0
 16 15  1  0  0  0  0
 19 16  1  0  0  0  0
M  END
