1,2
 OpenBabel05122313063D

 34 33  0  0  0  0  0  0  0  0999 V2000
   -1.3181   -1.8388    0.0826 S   0  0  0  0  0  1  0  0  0  0  0  0
   -0.7230    0.8351   -0.8212 S   0  0  0  0  0  1  0  0  0  0  0  0
   -3.5822    0.2112    0.0427 P   0  0  0  0  0  4  0  0  0  0  0  0
   -4.6697   -1.2826   -0.0994 C   0  0  0  0  0  0  0  0  0  0  0  0
   -4.0078    1.6377   -1.0630 C   0  0  0  0  0  0  0  0  0  0  0  0
   -3.6307    0.8046    1.8068 C   0  0  0  0  0  0  0  0  0  0  0  0
   -1.9003   -0.3055   -0.3510 C   0  0  0  0  0  3  0  0  0  0  0  0
   -6.0795   -1.0717    0.4655 C   0  0  0  0  0  0  0  0  0  0  0  0
   -4.6727   -1.8845   -1.5108 C   0  0  0  0  0  0  0  0  0  0  0  0
   -5.3113    2.3449   -0.6732 C   0  0  0  0  0  0  0  0  0  0  0  0
   -3.9456    1.2761   -2.5530 C   0  0  0  0  0  0  0  0  0  0  0  0
   -3.2670   -0.3226    2.7836 C   0  0  0  0  0  0  0  0  0  0  0  0
   -2.7250    2.0274    2.0084 C   0  0  0  0  0  0  0  0  0  0  0  0
   -4.1118   -1.9853    0.5610 H   0  0  0  0  0  0  0  0  0  0  0  0
   -3.1486    2.3126   -0.8471 H   0  0  0  0  0  0  0  0  0  0  0  0
   -4.6971    1.0964    1.9456 H   0  0  0  0  0  0  0  0  0  0  0  0
   -6.0747   -0.6934    1.5061 H   0  0  0  0  0  0  0  0  0  0  0  0
   -6.6166   -2.0418    0.4701 H   0  0  0  0  0  0  0  0  0  0  0  0
   -6.6722   -0.3717   -0.1564 H   0  0  0  0  0  0  0  0  0  0  0  0
   -3.6490   -1.9787   -1.9208 H   0  0  0  0  0  0  0  0  0  0  0  0
   -5.2870   -1.2884   -2.2126 H   0  0  0  0  0  0  0  0  0  0  0  0
   -5.1102   -2.9021   -1.4663 H   0  0  0  0  0  0  0  0  0  0  0  0
   -5.3288    2.6610    0.3880 H   0  0  0  0  0  0  0  0  0  0  0  0
   -6.1977    1.7068   -0.8602 H   0  0  0  0  0  0  0  0  0  0  0  0
   -5.4281    3.2580   -1.2914 H   0  0  0  0  0  0  0  0  0  0  0  0
   -3.0234    0.7179   -2.8043 H   0  0  0  0  0  0  0  0  0  0  0  0
   -3.9462    2.2102   -3.1502 H   0  0  0  0  0  0  0  0  0  0  0  0
   -4.8221    0.6787   -2.8691 H   0  0  0  0  0  0  0  0  0  0  0  0
   -3.9104   -1.2177    2.6778 H   0  0  0  0  0  0  0  0  0  0  0  0
   -3.3911    0.0562    3.8183 H   0  0  0  0  0  0  0  0  0  0  0  0
   -2.2039   -0.6164    2.6587 H   0  0  0  0  0  0  0  0  0  0  0  0
   -2.9565    2.8630    1.3191 H   0  0  0  0  0  0  0  0  0  0  0  0
   -1.6586    1.7374    1.8972 H   0  0  0  0  0  0  0  0  0  0  0  0
   -2.8646    2.4008    3.0430 H   0  0  0  0  0  0  0  0  0  0  0  0
  2  7  1  0  0  0  0
  3  6  1  0  0  0  0
  4  3  1  0  0  0  0
  4  8  1  0  0  0  0
  4 14  1  0  0  0  0
  5 15  1  0  0  0  0
  5 10  1  0  0  0  0
  5  3  1  0  0  0  0
  6 16  1  0  0  0  0
  6 13  1  0  0  0  0
  6 12  1  0  0  0  0
  7  3  1  0  0  0  0
  7  1  1  0  0  0  0
  8 18  1  0  0  0  0
  8 17  1  0  0  0  0
  9 22  1  0  0  0  0
  9  4  1  0  0  0  0
 10 23  1  0  0  0  0
 11  5  1  0  0  0  0
 12 30  1  0  0  0  0
 13 34  1  0  0  0  0
 19  8  1  0  0  0  0
 20  9  1  0  0  0  0
 21  9  1  0  0  0  0
 24 10  1  0  0  0  0
 25 10  1  0  0  0  0
 26 11  1  0  0  0  0
 27 11  1  0  0  0  0
 28 11  1  0  0  0  0
 29 12  1  0  0  0  0
 31 12  1  0  0  0  0
 32 13  1  0  0  0  0
 33 13  1  0  0  0  0
M  END
