1,2
 OpenBabel05122313063D

 18 17  0  0  0  0  0  0  0  0999 V2000
    1.5230    1.4707    1.3718 S   0  0  0  0  0  1  0  0  0  0  0  0
    1.5103   -1.9408   -0.3282 S   0  0  0  0  0  1  0  0  0  0  0  0
    4.5797   -0.9430    1.5844 O   0  0  0  0  0  0  0  0  0  0  0  0
    4.2803    0.5157   -0.1543 N   0  0  0  0  0  0  0  0  0  0  0  0
    2.9845   -1.9154   -1.4347 C   0  0  0  0  0  0  0  0  0  0  0  0
    4.2815   -1.8930   -0.6191 C   0  0  0  0  0  0  0  0  0  0  0  0
    4.3878   -0.7436    0.3855 C   0  0  0  0  0  0  0  0  0  0  0  0
    4.2515    1.6957    0.6796 C   0  0  0  0  0  0  0  0  0  0  0  0
    2.9111    2.4406    0.6581 C   0  0  0  0  0  0  0  0  0  0  0  0
    4.0121    0.6181   -1.1366 H   0  0  0  0  0  0  0  0  0  0  0  0
    2.9167   -1.0580   -2.1317 H   0  0  0  0  0  0  0  0  0  0  0  0
    2.9505   -2.8377   -2.0500 H   0  0  0  0  0  0  0  0  0  0  0  0
    5.1461   -1.8452   -1.3190 H   0  0  0  0  0  0  0  0  0  0  0  0
    4.3832   -2.8196   -0.0233 H   0  0  0  0  0  0  0  0  0  0  0  0
    5.0459    2.4101    0.3631 H   0  0  0  0  0  0  0  0  0  0  0  0
    4.4946    1.3500    1.7044 H   0  0  0  0  0  0  0  0  0  0  0  0
    3.0040    3.3593    1.2733 H   0  0  0  0  0  0  0  0  0  0  0  0
    2.6584    2.7522   -0.3739 H   0  0  0  0  0  0  0  0  0  0  0  0
  4  7  1  0  0  0  0
  4  8  1  0  0  0  0
  5  6  1  0  0  0  0
  5  2  1  0  0  0  0
  6 14  1  0  0  0  0
  6  7  1  0  0  0  0
  7  3  2  0  0  0  0
  8 16  1  0  0  0  0
  9  8  1  0  0  0  0
  9 17  1  0  0  0  0
  9  1  1  0  0  0  0
 10  4  1  0  0  0  0
 11  5  1  0  0  0  0
 12  5  1  0  0  0  0
 13  6  1  0  0  0  0
 15  8  1  0  0  0  0
 18  9  1  0  0  0  0
M  END
