1,2
 OpenBabel05122313063D

 11 11  0  0  1  0  0  0  0  0999 V2000
    1.5327    1.5739    0.0014 S   0  0  0  0  0  1  0  0  0  0  0  0
    1.4976   -1.5863   -0.0026 S   0  0  0  0  0  1  0  0  0  0  0  0
    4.2044    1.3144    0.0019 N   0  0  0  0  0  0  0  0  0  0  0  0
    4.1668   -1.4437   -0.0011 N   0  0  0  0  0  0  0  0  0  0  0  0
    2.9898    0.6944    0.0008 C   0  0  1  0  0  3  0  0  0  0  0  0
    3.0179   -0.7591   -0.0008 C   0  0  0  0  0  0  0  0  0  0  0  0
    5.3945    0.6256    0.0016 C   0  0  0  0  0  0  0  0  0  0  0  0
    5.3324   -0.7588    0.0000 C   0  0  0  0  0  0  0  0  0  0  0  0
    6.2648   -1.3472   -0.0003 H   0  0  0  0  0  0  0  0  0  0  0  0
    6.3187    1.2160    0.0027 H   0  0  0  0  0  0  0  0  0  0  0  0
    4.2073    2.3396    0.0030 H   0  0  0  0  0  0  0  0  0  0  0  0
  2  6  1  0  0  0  0
  3 11  1  0  0  0  0
  4  6  2  0  0  0  0
  4  8  1  0  0  0  0
  5  1  1  1  0  0  0
  5  3  1  0  0  0  0
  6  5  1  0  0  0  0
  7  3  1  0  0  0  0
  7 10  1  0  0  0  0
  8  7  2  0  0  0  0
  9  8  1  0  0  0  0
M  END
