1,2
 OpenBabel05122313063D

 32 33  0  0  0  0  0  0  0  0999 V2000
    2.1667   -1.0642   -0.9294 S   0  0  0  0  0  1  0  0  0  0  0  0
    2.1697    1.0910    1.1887 S   0  0  0  0  0  1  0  0  0  0  0  0
    3.0295    0.0649    0.0716 C   0  0  0  0  0  3  0  0  0  0  0  0
    4.3772    0.1544   -0.0210 N   0  0  0  0  0  0  0  0  0  0  0  0
    5.1616   -0.6832   -0.9388 C   0  0  0  0  0  0  0  0  0  0  0  0
    5.8770   -0.0225   -1.4693 H   0  0  0  0  0  0  0  0  0  0  0  0
    4.4581   -1.1146   -1.6787 H   0  0  0  0  0  0  0  0  0  0  0  0
    5.9128   -1.7764   -0.2102 C   0  0  0  0  0  0  0  0  0  0  0  0
    5.2271   -2.7674    0.5186 C   0  0  0  0  0  0  0  0  0  0  0  0
    4.1262   -2.7732    0.5532 H   0  0  0  0  0  0  0  0  0  0  0  0
    5.9733   -3.7500    1.1860 C   0  0  0  0  0  0  0  0  0  0  0  0
    5.4544   -4.5385    1.7603 H   0  0  0  0  0  0  0  0  0  0  0  0
    7.3164   -3.8072    1.1755 N   0  0  0  0  0  0  0  0  0  0  0  0
    7.9639   -2.8603    0.4802 C   0  0  0  0  0  0  0  0  0  0  0  0
    9.0677   -2.9173    0.4819 H   0  0  0  0  0  0  0  0  0  0  0  0
    7.3171   -1.8290   -0.2218 C   0  0  0  0  0  0  0  0  0  0  0  0
    7.8992   -1.0689   -0.7663 H   0  0  0  0  0  0  0  0  0  0  0  0
    5.1795    1.0506    0.8438 C   0  0  0  0  0  0  0  0  0  0  0  0
    4.4575    1.6209    1.4641 H   0  0  0  0  0  0  0  0  0  0  0  0
    5.7840    0.4253    1.5332 H   0  0  0  0  0  0  0  0  0  0  0  0
    6.1034    1.9305    0.0726 C   0  0  0  0  0  0  0  0  0  0  0  0
    7.4998    1.9746    0.0772 C   0  0  0  0  0  0  0  0  0  0  0  0
    8.1457    1.3447    0.7003 H   0  0  0  0  0  0  0  0  0  0  0  0
    7.9021    2.9865   -0.8407 C   0  0  0  0  0  0  0  0  0  0  0  0
    8.9256    3.2992   -1.0747 H   0  0  0  0  0  0  0  0  0  0  0  0
    6.7403    3.5244   -1.3859 C   0  0  0  0  0  0  0  0  0  0  0  0
    6.5970    4.3164   -2.1297 H   0  0  0  0  0  0  0  0  0  0  0  0
    5.6536    2.8873   -0.8268 N   0  0  0  0  0  0  0  0  0  0  0  0
    4.2691    3.1205   -1.1994 C   0  0  0  0  0  0  0  0  0  0  0  0
    3.6002    3.0022   -0.3241 H   0  0  0  0  0  0  0  0  0  0  0  0
    3.9293    2.4114   -1.9840 H   0  0  0  0  0  0  0  0  0  0  0  0
    4.1638    4.1519   -1.5845 H   0  0  0  0  0  0  0  0  0  0  0  0
  1  3  1  0  0  0  0
  3  2  1  0  0  0  0
  4  3  1  0  0  0  0
  4 18  1  0  0  0  0
  5  8  1  0  0  0  0
  5  4  1  0  0  0  0
  6  5  1  0  0  0  0
  7  5  1  0  0  0  0
  8  9  1  0  0  0  0
  9 10  1  0  0  0  0
  9 11  2  0  0  0  0
 11 12  1  0  0  0  0
 13 11  1  0  0  0  0
 14 15  1  0  0  0  0
 14 13  2  0  0  0  0
 16  8  2  0  0  0  0
 16 14  1  0  0  0  0
 17 16  1  0  0  0  0
 18 19  1  0  0  0  0
 18 20  1  0  0  0  0
 21 22  2  0  0  0  0
 21 18  1  0  0  0  0
 22 23  1  0  0  0  0
 24 22  1  0  0  0  0
 25 24  1  0  0  0  0
 26 24  2  0  0  0  0
 26 28  1  0  0  0  0
 27 26  1  0  0  0  0
 28 21  1  0  0  0  0
 29 28  1  0  0  0  0
 29 30  1  0  0  0  0
 31 29  1  0  0  0  0
 32 29  1  0  0  0  0
M  END
