1,23
 OpenBabel05122313063D

 44 45  0  0  1  0  0  0  0  0999 V2000
    1.3429   -0.8216    1.2285 S   0  0  0  0  0  0  0  0  0  0  0  0
    4.3372   -1.1061    1.5921 F   0  0  0  0  0  0  0  0  0  0  0  0
    3.6317   -2.8314    0.4792 F   0  0  0  0  0  0  0  0  0  0  0  0
    4.9341   -1.4029   -0.4874 F   0  0  0  0  0  0  0  0  0  0  0  0
    2.6556   -0.7270   -0.1303 C   0  0  1  0  0  0  0  0  0  0  0  0
    3.9031   -1.5122    0.3754 C   0  0  0  0  0  0  0  0  0  0  0  0
    2.1269   -1.4195   -1.4065 C   0  0  0  0  0  0  0  0  0  0  0  0
    1.6008   -0.6593   -2.0222 H   0  0  0  0  0  0  0  0  0  0  0  0
    3.0126   -1.6956   -2.0170 H   0  0  0  0  0  0  0  0  0  0  0  0
    1.2122   -2.6275   -1.3413 C   0  0  0  0  0  0  0  0  0  0  0  0
    0.6634   -3.1543   -0.2183 C   0  0  0  0  0  0  0  0  0  0  0  0
    0.9179   -2.5973    1.1558 C   0  0  0  0  0  0  0  0  0  0  0  0
    1.6914   -3.1584    1.7190 H   0  0  0  0  0  0  0  0  0  0  0  0
   -0.0167   -2.6274    1.7572 H   0  0  0  0  0  0  0  0  0  0  0  0
   -0.2999   -4.3121   -0.1810 C   0  0  0  0  0  0  0  0  0  0  0  0
   -0.3428   -4.8809   -1.1263 H   0  0  0  0  0  0  0  0  0  0  0  0
   -1.3210   -3.9341    0.0462 H   0  0  0  0  0  0  0  0  0  0  0  0
   -0.0314   -5.0226    0.6296 H   0  0  0  0  0  0  0  0  0  0  0  0
    0.9058   -3.1235   -2.7306 C   0  0  0  0  0  0  0  0  0  0  0  0
    0.3513   -2.3435   -3.2973 H   0  0  0  0  0  0  0  0  0  0  0  0
    0.2920   -4.0401   -2.7438 H   0  0  0  0  0  0  0  0  0  0  0  0
    1.8391   -3.3259   -3.2980 H   0  0  0  0  0  0  0  0  0  0  0  0
    1.2567    1.5758   -0.9064 S   0  0  0  0  0  0  0  0  0  0  0  0
    3.7214    0.4945   -2.6194 F   0  0  0  0  0  0  0  0  0  0  0  0
    3.7546    2.5079   -1.8005 F   0  0  0  0  0  0  0  0  0  0  0  0
    5.1885    1.0427   -1.1033 F   0  0  0  0  0  0  0  0  0  0  0  0
    2.9113    0.8224   -0.3327 C   0  0  2  0  0  0  0  0  0  0  0  0
    3.9051    1.1949   -1.4861 C   0  0  0  0  0  0  0  0  0  0  0  0
    3.4349    1.5992    0.9237 C   0  0  0  0  0  0  0  0  0  0  0  0
    4.2974    1.0462    1.3317 H   0  0  0  0  0  0  0  0  0  0  0  0
    3.8457    2.5544    0.5366 H   0  0  0  0  0  0  0  0  0  0  0  0
    2.4301    1.9134    2.0126 C   0  0  0  0  0  0  0  0  0  0  0  0
    1.3446    2.6558    1.6573 C   0  0  0  0  0  0  0  0  0  0  0  0
    1.2478    3.0628    0.2129 C   0  0  0  0  0  0  0  0  0  0  0  0
    2.0764    3.7135   -0.1355 H   0  0  0  0  0  0  0  0  0  0  0  0
    0.2842    3.5469   -0.0375 H   0  0  0  0  0  0  0  0  0  0  0  0
    0.1827    3.0218    2.5324 C   0  0  0  0  0  0  0  0  0  0  0  0
    0.3245    2.7205    3.5856 H   0  0  0  0  0  0  0  0  0  0  0  0
   -0.7320    2.5162    2.1491 H   0  0  0  0  0  0  0  0  0  0  0  0
   -0.0139    4.1142    2.5070 H   0  0  0  0  0  0  0  0  0  0  0  0
    2.7536    1.4305    3.3970 C   0  0  0  0  0  0  0  0  0  0  0  0
    2.9351    0.3363    3.3996 H   0  0  0  0  0  0  0  0  0  0  0  0
    1.9514    1.6479    4.1245 H   0  0  0  0  0  0  0  0  0  0  0  0
    3.6864    1.9097    3.7670 H   0  0  0  0  0  0  0  0  0  0  0  0
  4  6  1  0  0  0  0
  5  6  1  1  0  0  0
  5  1  1  0  0  0  0
  6  3  1  0  0  0  0
  6  2  1  0  0  0  0
  7 10  1  0  0  0  0
  7  5  1  0  0  0  0
  8  7  1  0  0  0  0
  9  7  1  0  0  0  0
 10 11  2  0  0  0  0
 11 15  1  0  0  0  0
 11 12  1  0  0  0  0
 12  1  1  0  0  0  0
 12 13  1  0  0  0  0
 12 14  1  0  0  0  0
 15 17  1  0  0  0  0
 15 18  1  0  0  0  0
 16 15  1  0  0  0  0
 19 10  1  0  0  0  0
 20 19  1  0  0  0  0
 21 19  1  0  0  0  0
 22 19  1  0  0  0  0
 23 27  1  0  0  0  0
 23 34  1  0  0  0  0
 24 28  1  0  0  0  0
 25 28  1  0  0  0  0
 27 28  1  6  0  0  0
 27  5  1  0  0  0  0
 27 29  1  0  0  0  0
 28 26  1  0  0  0  0
 29 30  1  0  0  0  0
 29 32  1  0  0  0  0
 31 29  1  0  0  0  0
 32 41  1  0  0  0  0
 33 32  2  0  0  0  0
 33 37  1  0  0  0  0
 34 33  1  0  0  0  0
 35 34  1  0  0  0  0
 36 34  1  0  0  0  0
 37 38  1  0  0  0  0
 39 37  1  0  0  0  0
 40 37  1  0  0  0  0
 41 42  1  0  0  0  0
 41 44  1  0  0  0  0
 41 43  1  0  0  0  0
M  END
