1,2
 OpenBabel05122313063D

 46 49  0  0  0  0  0  0  0  0999 V2000
   -1.6346    2.2607   -0.7912 S   0  0  0  0  0  0  0  0  0  0  0  0
    1.1995    1.9978    1.4362 S   0  0  0  0  0  0  0  0  0  0  0  0
   -2.3300   -0.9815    0.2967 N   0  0  0  0  0  0  0  0  0  0  0  0
    1.8032    0.4181   -1.7672 N   0  0  0  0  0  0  0  0  0  0  0  0
   -0.6873    3.6277   -0.0255 C   0  0  0  0  0  0  0  0  0  0  0  0
    0.0080    3.3816    1.3178 C   0  0  0  0  0  0  0  0  0  0  0  0
   -2.9021    1.8961    0.5132 C   0  0  0  0  0  0  0  0  0  0  0  0
   -2.1127   -2.2953    0.3962 C   0  0  0  0  0  0  0  0  0  0  0  0
   -3.1162   -3.2663    0.1684 C   0  0  0  0  0  0  0  0  0  0  0  0
   -4.3742   -2.8422   -0.2199 C   0  0  0  0  0  0  0  0  0  0  0  0
   -5.9338   -0.9645   -0.6958 C   0  0  0  0  0  0  0  0  0  0  0  0
   -6.1844    0.3966   -0.7370 C   0  0  0  0  0  0  0  0  0  0  0  0
   -5.1682    1.3086   -0.3634 C   0  0  0  0  0  0  0  0  0  0  0  0
   -3.8946    0.8840    0.0164 C   0  0  0  0  0  0  0  0  0  0  0  0
   -3.5905   -0.5197   -0.0042 C   0  0  0  0  0  0  0  0  0  0  0  0
   -4.6493   -1.4496   -0.3186 C   0  0  0  0  0  0  0  0  0  0  0  0
    2.4263    2.4637    0.1187 C   0  0  0  0  0  0  0  0  0  0  0  0
    1.5250   -0.4523   -2.7389 C   0  0  0  0  0  0  0  0  0  0  0  0
    2.4111   -1.4760   -3.1510 C   0  0  0  0  0  0  0  0  0  0  0  0
    3.6191   -1.6113   -2.4856 C   0  0  0  0  0  0  0  0  0  0  0  0
    5.1897   -0.7711   -0.7349 C   0  0  0  0  0  0  0  0  0  0  0  0
    5.4873    0.1663    0.2410 C   0  0  0  0  0  0  0  0  0  0  0  0
    4.5807    1.2192    0.5177 C   0  0  0  0  0  0  0  0  0  0  0  0
    3.3662    1.3287   -0.1550 C   0  0  0  0  0  0  0  0  0  0  0  0
    3.0207    0.3457   -1.1403 C   0  0  0  0  0  0  0  0  0  0  0  0
    3.9632   -0.6962   -1.4529 C   0  0  0  0  0  0  0  0  0  0  0  0
    0.0324    3.9248   -0.8146 H   0  0  0  0  0  0  0  0  0  0  0  0
   -1.3979    4.4727    0.0902 H   0  0  0  0  0  0  0  0  0  0  0  0
   -0.7213    3.1871    2.1302 H   0  0  0  0  0  0  0  0  0  0  0  0
    0.5546    4.3064    1.5974 H   0  0  0  0  0  0  0  0  0  0  0  0
   -2.3836    1.5309    1.4219 H   0  0  0  0  0  0  0  0  0  0  0  0
   -3.4030    2.8569    0.7410 H   0  0  0  0  0  0  0  0  0  0  0  0
   -1.0850   -2.6036    0.6354 H   0  0  0  0  0  0  0  0  0  0  0  0
   -2.8677   -4.3312    0.2754 H   0  0  0  0  0  0  0  0  0  0  0  0
   -5.1737   -3.5640   -0.4479 H   0  0  0  0  0  0  0  0  0  0  0  0
   -6.7218   -1.6918   -0.9429 H   0  0  0  0  0  0  0  0  0  0  0  0
   -7.1747    0.7744   -1.0290 H   0  0  0  0  0  0  0  0  0  0  0  0
   -5.3963    2.3856   -0.3460 H   0  0  0  0  0  0  0  0  0  0  0  0
    1.8587    2.7137   -0.7980 H   0  0  0  0  0  0  0  0  0  0  0  0
    2.9584    3.3575    0.4983 H   0  0  0  0  0  0  0  0  0  0  0  0
    0.5348   -0.3556   -3.2174 H   0  0  0  0  0  0  0  0  0  0  0  0
    2.1207   -2.1580   -3.9622 H   0  0  0  0  0  0  0  0  0  0  0  0
    4.3217   -2.4180   -2.7454 H   0  0  0  0  0  0  0  0  0  0  0  0
    5.8955   -1.5818   -0.9706 H   0  0  0  0  0  0  0  0  0  0  0  0
    6.4332    0.1060    0.7981 H   0  0  0  0  0  0  0  0  0  0  0  0
    4.8448    1.9709    1.2776 H   0  0  0  0  0  0  0  0  0  0  0  0
  1  5  1  0  0  0  0
  1  7  1  0  0  0  0
  3  8  1  0  0  0  0
  4 25  1  0  0  0  0
  5 28  1  0  0  0  0
  5  6  1  0  0  0  0
  6  2  1  0  0  0  0
  6 30  1  0  0  0  0
  6 29  1  0  0  0  0
  7 32  1  0  0  0  0
  7 31  1  0  0  0  0
  8 33  1  0  0  0  0
  9 34  1  0  0  0  0
  9  8  2  0  0  0  0
 10  9  1  0  0  0  0
 11 16  1  0  0  0  0
 12 11  2  0  0  0  0
 12 13  1  0  0  0  0
 13 38  1  0  0  0  0
 13 14  2  0  0  0  0
 14  7  1  0  0  0  0
 15 14  1  0  0  0  0
 15  3  2  0  0  0  0
 16 10  2  0  0  0  0
 16 15  1  0  0  0  0
 17 40  1  0  0  0  0
 17  2  1  0  0  0  0
 18  4  2  0  0  0  0
 19 18  1  0  0  0  0
 19 20  2  0  0  0  0
 20 26  1  0  0  0  0
 21 22  1  0  0  0  0
 22 23  2  0  0  0  0
 22 45  1  0  0  0  0
 23 46  1  0  0  0  0
 24 17  1  0  0  0  0
 24 23  1  0  0  0  0
 25 24  2  0  0  0  0
 26 25  1  0  0  0  0
 26 21  2  0  0  0  0
 27  5  1  0  0  0  0
 35 10  1  0  0  0  0
 36 11  1  0  0  0  0
 37 12  1  0  0  0  0
 39 17  1  0  0  0  0
 41 18  1  0  0  0  0
 42 19  1  0  0  0  0
 43 20  1  0  0  0  0
 44 21  1  0  0  0  0
M  END
