2,3
 OpenBabel05122313063D

 41 43  0  0  0  0  0  0  0  0999 V2000
   -5.4143   -0.2953   -0.0288 P   0  0  0  0  0  4  0  0  0  0  0  0
   -1.9430    0.3549   -1.3123 S   0  0  0  0  0  1  0  0  0  0  0  0
   -0.5352    2.6477    0.4309 S   0  0  0  0  0  1  0  0  0  0  0  0
   -5.3514   -2.0733   -0.3769 C   0  0  0  0  0  0  0  0  0  0  0  0
   -7.0950    0.1782    0.4565 C   0  0  0  0  0  0  0  0  0  0  0  0
   -2.1307    2.8948   -0.2556 C   0  0  0  0  0  0  0  0  0  0  0  0
   -2.8228    1.8164   -0.8743 C   0  0  0  0  0  0  0  0  0  0  0  0
   -4.2133    1.9285   -1.1419 C   0  0  0  0  0  0  0  0  0  0  0  0
   -4.1262   -2.6056   -0.8382 C   0  0  0  0  0  0  0  0  0  0  0  0
   -3.2571   -1.9460   -1.0055 H   0  0  0  0  0  0  0  0  0  0  0  0
   -4.0181   -3.9834   -1.0655 C   0  0  0  0  0  0  0  0  0  0  0  0
   -3.0605   -4.3963   -1.4159 H   0  0  0  0  0  0  0  0  0  0  0  0
   -5.1197   -4.8259   -0.8418 C   0  0  0  0  0  0  0  0  0  0  0  0
   -5.0305   -5.9073   -1.0249 H   0  0  0  0  0  0  0  0  0  0  0  0
   -6.3343   -4.2937   -0.3807 C   0  0  0  0  0  0  0  0  0  0  0  0
   -7.1948   -4.9548   -0.2001 H   0  0  0  0  0  0  0  0  0  0  0  0
   -6.4565   -2.9171   -0.1412 C   0  0  0  0  0  0  0  0  0  0  0  0
   -7.4057   -2.5055    0.2320 H   0  0  0  0  0  0  0  0  0  0  0  0
   -7.3696    0.7099    1.7324 C   0  0  0  0  0  0  0  0  0  0  0  0
   -6.5677    0.8402    2.4727 H   0  0  0  0  0  0  0  0  0  0  0  0
   -8.6805    1.0857    2.0625 C   0  0  0  0  0  0  0  0  0  0  0  0
   -8.8911    1.5040    3.0577 H   0  0  0  0  0  0  0  0  0  0  0  0
   -9.7158    0.9316    1.1284 C   0  0  0  0  0  0  0  0  0  0  0  0
  -10.7419    1.2282    1.3918 H   0  0  0  0  0  0  0  0  0  0  0  0
   -9.4447    0.4017   -0.1445 C   0  0  0  0  0  0  0  0  0  0  0  0
  -10.2555    0.2807   -0.8779 H   0  0  0  0  0  0  0  0  0  0  0  0
   -8.1387    0.0275   -0.4849 C   0  0  0  0  0  0  0  0  0  0  0  0
   -7.9365   -0.3898   -1.4840 H   0  0  0  0  0  0  0  0  0  0  0  0
   -4.8699    3.1510   -0.9132 C   0  0  0  0  0  0  0  0  0  0  0  0
   -5.9449    3.2401   -1.1332 H   0  0  0  0  0  0  0  0  0  0  0  0
   -4.1514    4.2563   -0.4229 C   0  0  0  0  0  0  0  0  0  0  0  0
   -4.6617    5.2190   -0.2718 H   0  0  0  0  0  0  0  0  0  0  0  0
   -2.7954    4.1328   -0.0954 C   0  0  0  0  0  0  0  0  0  0  0  0
   -2.2455    4.9839    0.3337 H   0  0  0  0  0  0  0  0  0  0  0  0
   -4.9746    0.6944   -1.5425 C   0  0  0  0  0  0  0  0  0  0  0  0
   -4.3913    0.0237   -2.2037 H   0  0  0  0  0  0  0  0  0  0  0  0
   -5.9364    0.9308   -2.0387 H   0  0  0  0  0  0  0  0  0  0  0  0
   -4.2773    0.0605    1.3385 C   0  0  0  0  0  0  0  0  0  0  0  0
   -3.2534   -0.2247    1.0247 H   0  0  0  0  0  0  0  0  0  0  0  0
   -4.2913    1.1425    1.5688 H   0  0  0  0  0  0  0  0  0  0  0  0
   -4.5864   -0.5405    2.2147 H   0  0  0  0  0  0  0  0  0  0  0  0
  1  5  1  0  0  0  0
  1 38  1  0  0  0  0
  2  7  1  0  0  0  0
  4 17  1  0  0  0  0
  4  1  1  0  0  0  0
  5 19  1  0  0  0  0
  6 33  1  0  0  0  0
  6  3  1  0  0  0  0
  7  6  2  0  0  0  0
  8 29  2  0  0  0  0
  8  7  1  0  0  0  0
  9  4  2  0  0  0  0
 10  9  1  0  0  0  0
 11 13  2  0  0  0  0
 11  9  1  0  0  0  0
 12 11  1  0  0  0  0
 13 15  1  0  0  0  0
 14 13  1  0  0  0  0
 15 16  1  0  0  0  0
 15 17  2  0  0  0  0
 17 18  1  0  0  0  0
 19 21  2  0  0  0  0
 19 20  1  0  0  0  0
 21 22  1  0  0  0  0
 23 24  1  0  0  0  0
 23 21  1  0  0  0  0
 25 23  2  0  0  0  0
 26 25  1  0  0  0  0
 27 25  1  0  0  0  0
 27  5  2  0  0  0  0
 28 27  1  0  0  0  0
 29 31  1  0  0  0  0
 30 29  1  0  0  0  0
 31 32  1  0  0  0  0
 31 33  2  0  0  0  0
 33 34  1  0  0  0  0
 35  8  1  0  0  0  0
 35  1  1  0  0  0  0
 36 35  1  0  0  0  0
 37 35  1  0  0  0  0
 38 40  1  0  0  0  0
 38 41  1  0  0  0  0
 39 38  1  0  0  0  0
M  END
