1,2
 OpenBabel05122313063D

 70 75  0  0  0  0  0  0  0  0999 V2000
   -1.1150   -0.9552   -1.3860 S   0  0  1  0  0  3  0  0  0  0  0  0
    1.1156   -0.9530    1.3864 S   0  0  2  0  0  3  0  0  0  0  0  0
   -1.5134   -1.4265   -2.7742 O   0  0  0  0  0  1  0  0  0  0  0  0
    1.5136   -1.4239    2.7749 O   0  0  0  0  0  1  0  0  0  0  0  0
    0.2937    1.4658   -0.6867 C   0  0  0  0  0  0  0  0  0  0  0  0
   -0.0620    0.5336   -1.6638 C   0  0  0  0  0  0  0  0  0  0  0  0
    0.4963    0.5601   -2.9678 C   0  0  0  0  0  0  0  0  0  0  0  0
    0.1476   -0.1972   -3.6864 H   0  0  0  0  0  0  0  0  0  0  0  0
    1.4449    1.5120   -3.2931 C   0  0  0  0  0  0  0  0  0  0  0  0
    1.8894    1.5301   -4.3003 H   0  0  0  0  0  0  0  0  0  0  0  0
    1.8644    2.4815   -2.3368 C   0  0  0  0  0  0  0  0  0  0  0  0
    2.8597    3.4549   -2.6451 C   0  0  0  0  0  0  0  0  0  0  0  0
    3.3067    3.4474   -3.6512 H   0  0  0  0  0  0  0  0  0  0  0  0
    3.2598    4.3889   -1.7023 C   0  0  0  0  0  0  0  0  0  0  0  0
    4.0315    5.1322   -1.9525 H   0  0  0  0  0  0  0  0  0  0  0  0
    2.6710    4.3890   -0.4099 C   0  0  0  0  0  0  0  0  0  0  0  0
    2.9901    5.1325    0.3358 H   0  0  0  0  0  0  0  0  0  0  0  0
    1.6979    3.4578   -0.0788 C   0  0  0  0  0  0  0  0  0  0  0  0
    1.2477    3.4678    0.9235 H   0  0  0  0  0  0  0  0  0  0  0  0
    1.2699    2.4748   -1.0220 C   0  0  0  0  0  0  0  0  0  0  0  0
    2.6620   -0.2528    0.6298 C   0  0  0  0  0  0  0  0  0  0  0  0
    2.3283    0.2358   -0.3067 H   0  0  0  0  0  0  0  0  0  0  0  0
    3.3167    0.7412    1.5843 C   0  0  0  0  0  0  0  0  0  0  0  0
    3.4786    0.2276    2.5560 H   0  0  0  0  0  0  0  0  0  0  0  0
    2.6367    1.5953    1.7785 H   0  0  0  0  0  0  0  0  0  0  0  0
    4.6496    1.2372    1.0035 C   0  0  0  0  0  0  0  0  0  0  0  0
    4.4448    1.8358    0.0875 H   0  0  0  0  0  0  0  0  0  0  0  0
    5.1360    1.9272    1.7243 H   0  0  0  0  0  0  0  0  0  0  0  0
    5.5824    0.0697    0.6571 C   0  0  0  0  0  0  0  0  0  0  0  0
    5.8738   -0.4549    1.5943 H   0  0  0  0  0  0  0  0  0  0  0  0
    6.5222    0.4482    0.2033 H   0  0  0  0  0  0  0  0  0  0  0  0
    4.8990   -0.9301   -0.2847 C   0  0  0  0  0  0  0  0  0  0  0  0
    5.5673   -1.7904   -0.4960 H   0  0  0  0  0  0  0  0  0  0  0  0
    4.7010   -0.4376   -1.2634 H   0  0  0  0  0  0  0  0  0  0  0  0
    3.5723   -1.4392    0.2974 C   0  0  0  0  0  0  0  0  0  0  0  0
    3.0560   -2.1210   -0.4102 H   0  0  0  0  0  0  0  0  0  0  0  0
    3.7575   -2.0170    1.2285 H   0  0  0  0  0  0  0  0  0  0  0  0
   -0.2963    1.4658    0.6860 C   0  0  0  0  0  0  0  0  0  0  0  0
    0.0604    0.5343    1.6636 C   0  0  0  0  0  0  0  0  0  0  0  0
   -0.4985    0.5604    2.9674 C   0  0  0  0  0  0  0  0  0  0  0  0
   -0.1490   -0.1963    3.6862 H   0  0  0  0  0  0  0  0  0  0  0  0
   -1.4485    1.5111    3.2920 C   0  0  0  0  0  0  0  0  0  0  0  0
   -1.8935    1.5288    4.2989 H   0  0  0  0  0  0  0  0  0  0  0  0
   -1.8689    2.4798    2.3353 C   0  0  0  0  0  0  0  0  0  0  0  0
   -2.8657    3.4519    2.6430 C   0  0  0  0  0  0  0  0  0  0  0  0
   -3.3130    3.4440    3.6489 H   0  0  0  0  0  0  0  0  0  0  0  0
   -3.2667    4.3852    1.6998 C   0  0  0  0  0  0  0  0  0  0  0  0
   -4.0395    5.1274    1.9496 H   0  0  0  0  0  0  0  0  0  0  0  0
   -2.6772    4.3858    0.4076 C   0  0  0  0  0  0  0  0  0  0  0  0
   -2.9970    5.1287   -0.3383 H   0  0  0  0  0  0  0  0  0  0  0  0
   -1.7028    3.4558    0.0771 C   0  0  0  0  0  0  0  0  0  0  0  0
   -1.2522    3.4662   -0.9250 H   0  0  0  0  0  0  0  0  0  0  0  0
   -1.2738    2.4736    1.0207 C   0  0  0  0  0  0  0  0  0  0  0  0
   -2.6618   -0.2577   -0.6282 C   0  0  0  0  0  0  0  0  0  0  0  0
   -2.3284    0.2310    0.3084 H   0  0  0  0  0  0  0  0  0  0  0  0
   -3.3186    0.7358   -1.5817 C   0  0  0  0  0  0  0  0  0  0  0  0
   -3.4805    0.2224   -2.5535 H   0  0  0  0  0  0  0  0  0  0  0  0
   -2.6400    1.5909   -1.7761 H   0  0  0  0  0  0  0  0  0  0  0  0
   -4.6518    1.2297   -0.9997 C   0  0  0  0  0  0  0  0  0  0  0  0
   -4.4472    1.8281   -0.0836 H   0  0  0  0  0  0  0  0  0  0  0  0
   -5.1397    1.9194   -1.7198 H   0  0  0  0  0  0  0  0  0  0  0  0
   -5.5827    0.0607   -0.6533 C   0  0  0  0  0  0  0  0  0  0  0  0
   -6.5227    0.4376   -0.1987 H   0  0  0  0  0  0  0  0  0  0  0  0
   -5.8740   -0.4638   -1.5907 H   0  0  0  0  0  0  0  0  0  0  0  0
   -4.8973   -0.9387    0.2874 C   0  0  0  0  0  0  0  0  0  0  0  0
   -5.5642   -1.8001    0.4987 H   0  0  0  0  0  0  0  0  0  0  0  0
   -4.6994   -0.4465    1.2663 H   0  0  0  0  0  0  0  0  0  0  0  0
   -3.5702   -1.4456   -0.2957 C   0  0  0  0  0  0  0  0  0  0  0  0
   -3.0525   -2.1269    0.4112 H   0  0  0  0  0  0  0  0  0  0  0  0
   -3.7550   -2.0232   -1.2271 H   0  0  0  0  0  0  0  0  0  0  0  0
  1  3  1  6  0  0  0
  1 54  1  0  0  0  0
  2 39  1  0  0  0  0
  2  4  1  1  0  0  0
  5 38  1  0  0  0  0
  6  1  1  0  0  0  0
  6  5  2  0  0  0  0
  7  6  1  0  0  0  0
  8  7  1  0  0  0  0
  9  7  2  0  0  0  0
  9 11  1  0  0  0  0
 10  9  1  0  0  0  0
 11 20  1  0  0  0  0
 12 11  2  0  0  0  0
 12 14  1  0  0  0  0
 13 12  1  0  0  0  0
 14 16  2  0  0  0  0
 15 14  1  0  0  0  0
 16 18  1  0  0  0  0
 16 17  1  0  0  0  0
 18 19  1  0  0  0  0
 20  5  1  0  0  0  0
 20 18  2  0  0  0  0
 21  2  1  0  0  0  0
 21 23  1  0  0  0  0
 22 21  1  0  0  0  0
 23 25  1  0  0  0  0
 23 24  1  0  0  0  0
 26 23  1  0  0  0  0
 26 28  1  0  0  0  0
 27 26  1  0  0  0  0
 29 26  1  0  0  0  0
 29 30  1  0  0  0  0
 31 29  1  0  0  0  0
 32 35  1  0  0  0  0
 32 29  1  0  0  0  0
 33 32  1  0  0  0  0
 34 32  1  0  0  0  0
 35 21  1  0  0  0  0
 35 37  1  0  0  0  0
 36 35  1  0  0  0  0
 38 53  2  0  0  0  0
 38 39  1  0  0  0  0
 39 40  2  0  0  0  0
 40 42  1  0  0  0  0
 40 41  1  0  0  0  0
 42 43  1  0  0  0  0
 44 45  1  0  0  0  0
 44 42  2  0  0  0  0
 45 46  1  0  0  0  0
 47 48  1  0  0  0  0
 47 45  2  0  0  0  0
 49 47  1  0  0  0  0
 50 49  1  0  0  0  0
 51 49  2  0  0  0  0
 51 53  1  0  0  0  0
 52 51  1  0  0  0  0
 53 44  1  0  0  0  0
 54 68  1  0  0  0  0
 54 55  1  0  0  0  0
 56 59  1  0  0  0  0
 56 54  1  0  0  0  0
 57 56  1  0  0  0  0
 58 56  1  0  0  0  0
 59 62  1  0  0  0  0
 59 60  1  0  0  0  0
 61 59  1  0  0  0  0
 62 63  1  0  0  0  0
 62 65  1  0  0  0  0
 64 62  1  0  0  0  0
 65 66  1  0  0  0  0
 65 67  1  0  0  0  0
 68 65  1  0  0  0  0
 68 69  1  0  0  0  0
 70 68  1  0  0  0  0
M  END
