17,18
 OpenBabel05122313063D

 60 60  0  0  0  0  0  0  0  0999 V2000
    0.6112   -1.6193    1.1138 As  0  0  1  0  0  0  0  0  0  0  0  0
    3.8711   -0.9597    0.8463 As  0  0  1  0  0  0  0  0  0  0  0  0
    2.1046    1.2182   -0.9740 As  0  0  1  0  0  0  0  0  0  0  0  0
   -0.3444    3.5925   -1.7415 As  0  0  2  0  0  0  0  0  0  0  0  0
   -0.6114    1.6191    1.1139 As  0  0  2  0  0  0  0  0  0  0  0  0
   -3.8714    0.9595    0.8463 As  0  0  1  0  0  0  0  0  0  0  0  0
   -2.1045   -1.2179   -0.9743 As  0  0  1  0  0  0  0  0  0  0  0  0
    0.3445   -3.5923   -1.7418 As  0  0  2  0  0  0  0  0  0  0  0  0
    2.3488   -1.2154    2.5379 S   0  0  0  0  0  0  0  0  0  0  0  0
    3.8098    1.3151    0.5352 S   0  0  0  0  0  0  0  0  0  0  0  0
    1.8797    3.4730   -1.0562 S   0  0  0  0  0  0  0  0  0  0  0  0
   -1.3452    3.6321    0.3117 S   0  0  0  0  0  0  0  0  0  0  0  0
   -2.3491    1.2151    2.5379 S   0  0  0  0  0  0  0  0  0  0  0  0
   -3.8096   -1.3152    0.5349 S   0  0  0  0  0  0  0  0  0  0  0  0
   -1.8797   -3.4727   -1.0572 S   0  0  0  0  0  0  0  0  0  0  0  0
    1.3449   -3.6323    0.3115 S   0  0  0  0  0  0  0  0  0  0  0  0
    0.6878   -1.4977   -2.4107 S   0  0  0  0  0  1  0  0  0  0  0  0
   -0.6871    1.4979   -2.4107 S   0  0  0  0  0  1  0  0  0  0  0  0
   -0.7150   -2.1875    2.4604 C   0  0  0  0  0  0  0  0  0  0  0  0
   -1.5641   -2.5320    1.8332 H   0  0  0  0  0  0  0  0  0  0  0  0
   -1.0458   -1.2460    2.9474 H   0  0  0  0  0  0  0  0  0  0  0  0
   -0.2442   -3.2520    3.4372 C   0  0  0  0  0  0  0  0  0  0  0  0
   -1.0729   -3.5325    4.1197 H   0  0  0  0  0  0  0  0  0  0  0  0
    0.6035   -2.8987    4.0580 H   0  0  0  0  0  0  0  0  0  0  0  0
    0.0828   -4.1655    2.9011 H   0  0  0  0  0  0  0  0  0  0  0  0
    5.4717   -0.9212    2.0442 C   0  0  0  0  0  0  0  0  0  0  0  0
    6.3127   -0.6987    1.3532 H   0  0  0  0  0  0  0  0  0  0  0  0
    5.5830   -1.9783    2.3668 H   0  0  0  0  0  0  0  0  0  0  0  0
    5.4403    0.0359    3.2293 C   0  0  0  0  0  0  0  0  0  0  0  0
    6.3843   -0.0289    3.8095 H   0  0  0  0  0  0  0  0  0  0  0  0
    4.6026   -0.1995    3.9165 H   0  0  0  0  0  0  0  0  0  0  0  0
    5.3164    1.0874    2.8996 H   0  0  0  0  0  0  0  0  0  0  0  0
    3.0455    0.8299   -2.6665 C   0  0  0  0  0  0  0  0  0  0  0  0
    2.2360    0.9410   -3.4182 H   0  0  0  0  0  0  0  0  0  0  0  0
    3.2887   -0.2505   -2.6011 H   0  0  0  0  0  0  0  0  0  0  0  0
    4.2503    1.7125   -2.9402 C   0  0  0  0  0  0  0  0  0  0  0  0
    4.7082    1.4407   -3.9134 H   0  0  0  0  0  0  0  0  0  0  0  0
    5.0203    1.5979   -2.1512 H   0  0  0  0  0  0  0  0  0  0  0  0
    3.9610    2.7818   -2.9820 H   0  0  0  0  0  0  0  0  0  0  0  0
    0.7147    2.1871    2.4607 C   0  0  0  0  0  0  0  0  0  0  0  0
    1.5642    2.5310    1.8338 H   0  0  0  0  0  0  0  0  0  0  0  0
    1.0448    1.2456    2.9480 H   0  0  0  0  0  0  0  0  0  0  0  0
    0.2440    3.2520    3.4372 C   0  0  0  0  0  0  0  0  0  0  0  0
    1.0726    3.5322    4.1198 H   0  0  0  0  0  0  0  0  0  0  0  0
   -0.6042    2.8993    4.0576 H   0  0  0  0  0  0  0  0  0  0  0  0
   -0.0823    4.1656    2.9007 H   0  0  0  0  0  0  0  0  0  0  0  0
   -5.4719    0.9206    2.0442 C   0  0  0  0  0  0  0  0  0  0  0  0
   -6.3129    0.6981    1.3532 H   0  0  0  0  0  0  0  0  0  0  0  0
   -5.5834    1.9776    2.3671 H   0  0  0  0  0  0  0  0  0  0  0  0
   -5.4404   -0.0368    3.2292 C   0  0  0  0  0  0  0  0  0  0  0  0
   -6.3844    0.0278    3.8094 H   0  0  0  0  0  0  0  0  0  0  0  0
   -4.6027    0.1986    3.9164 H   0  0  0  0  0  0  0  0  0  0  0  0
   -5.3163   -1.0881    2.8993 H   0  0  0  0  0  0  0  0  0  0  0  0
   -3.0453   -0.8293   -2.6667 C   0  0  0  0  0  0  0  0  0  0  0  0
   -2.2357   -0.9404   -3.4184 H   0  0  0  0  0  0  0  0  0  0  0  0
   -3.2883    0.2513   -2.6013 H   0  0  0  0  0  0  0  0  0  0  0  0
   -4.2501   -1.7116   -2.9406 C   0  0  0  0  0  0  0  0  0  0  0  0
   -4.7080   -1.4395   -3.9139 H   0  0  0  0  0  0  0  0  0  0  0  0
   -5.0202   -1.5970   -2.1517 H   0  0  0  0  0  0  0  0  0  0  0  0
   -3.9610   -2.7810   -2.9826 H   0  0  0  0  0  0  0  0  0  0  0  0
  1 19  1  1  0  0  0
  1  9  1  0  0  0  0
  2 26  1  1  0  0  0
  2  9  1  0  0  0  0
  3 33  1  6  0  0  0
  3 10  1  0  0  0  0
  4 18  1  6  0  0  0
  4 11  1  0  0  0  0
  4 12  1  0  0  0  0
  5 40  1  1  0  0  0
  5 13  1  0  0  0  0
  6 47  1  1  0  0  0
  6 13  1  0  0  0  0
  7 54  1  6  0  0  0
  7 14  1  0  0  0  0
  8 17  1  6  0  0  0
  8 15  1  0  0  0  0
  8 16  1  0  0  0  0
 10  2  1  0  0  0  0
 11  3  1  0  0  0  0
 12  5  1  0  0  0  0
 14  6  1  0  0  0  0
 15  7  1  0  0  0  0
 16  1  1  0  0  0  0
 19 21  1  0  0  0  0
 19 22  1  0  0  0  0
 20 19  1  0  0  0  0
 22 24  1  0  0  0  0
 22 23  1  0  0  0  0
 25 22  1  0  0  0  0
 26 28  1  0  0  0  0
 26 29  1  0  0  0  0
 27 26  1  0  0  0  0
 29 30  1  0  0  0  0
 29 31  1  0  0  0  0
 32 29  1  0  0  0  0
 33 35  1  0  0  0  0
 34 33  1  0  0  0  0
 36 33  1  0  0  0  0
 36 38  1  0  0  0  0
 37 36  1  0  0  0  0
 39 36  1  0  0  0  0
 40 42  1  0  0  0  0
 40 43  1  0  0  0  0
 41 40  1  0  0  0  0
 43 45  1  0  0  0  0
 43 44  1  0  0  0  0
 46 43  1  0  0  0  0
 47 49  1  0  0  0  0
 47 50  1  0  0  0  0
 48 47  1  0  0  0  0
 50 51  1  0  0  0  0
 50 52  1  0  0  0  0
 53 50  1  0  0  0  0
 54 56  1  0  0  0  0
 55 54  1  0  0  0  0
 57 54  1  0  0  0  0
 57 59  1  0  0  0  0
 58 57  1  0  0  0  0
 60 57  1  0  0  0  0
M  END
