1,2
q = 0.0, confidence = 1.0

 39 39  0  0  0  0  0  0  0  0999 V2000
   -1.3842   -1.6961    1.3221 S   0  0  0  0  0  0  0  0  0  0  0  0
   -1.3420    1.5644    1.4630 S   0  0  0  0  0  0  0  0  0  0  0  0
    2.0022    2.4933   -1.4041 S   0  0  0  0  0  0  0  0  0  0  0  0
    1.5945   -2.1386   -0.2526 O   0  0  0  0  0  0  0  0  0  0  0  0
    3.2703    0.4024    0.8254 O   0  0  0  0  0  0  0  0  0  0  0  0
    0.0755   -0.8391    2.0760 C   0  0  0  0  0  0  0  0  0  0  0  0
    0.4573   -1.4881    2.8918 H   0  0  0  0  0  0  0  0  0  0  0  0
    0.8589   -0.7574    1.3017 H   0  0  0  0  0  0  0  0  0  0  0  0
   -0.3499    0.5118    2.6278 C   0  0  0  0  0  0  0  0  0  0  0  0
    0.5376    1.0989    2.9400 H   0  0  0  0  0  0  0  0  0  0  0  0
   -1.0150    0.4025    3.5087 H   0  0  0  0  0  0  0  0  0  0  0  0
   -0.0546    2.4451    0.4771 C   0  0  0  0  0  0  0  0  0  0  0  0
   -0.6432    3.2282   -0.0394 H   0  0  0  0  0  0  0  0  0  0  0  0
    0.6173    2.9253    1.2178 H   0  0  0  0  0  0  0  0  0  0  0  0
    0.6831    1.5759   -0.5301 C   0  0  0  0  0  0  0  0  0  0  0  0
   -0.0303    1.2542   -1.3167 H   0  0  0  0  0  0  0  0  0  0  0  0
    1.1350    0.6830   -0.0649 H   0  0  0  0  0  0  0  0  0  0  0  0
    3.2856    2.6222   -0.1032 C   0  0  0  0  0  0  0  0  0  0  0  0
    3.9709    3.4158   -0.4642 H   0  0  0  0  0  0  0  0  0  0  0  0
    2.8364    2.9928    0.8425 H   0  0  0  0  0  0  0  0  0  0  0  0
    4.0839    1.3554    0.1541 C   0  0  0  0  0  0  0  0  0  0  0  0
    4.4602    0.9468   -0.8126 H   0  0  0  0  0  0  0  0  0  0  0  0
    4.9786    1.5979    0.7833 H   0  0  0  0  0  0  0  0  0  0  0  0
    3.8666   -0.8886    0.8945 C   0  0  0  0  0  0  0  0  0  0  0  0
    3.2285   -1.4731    1.5890 H   0  0  0  0  0  0  0  0  0  0  0  0
    4.8922   -0.8327    1.3301 H   0  0  0  0  0  0  0  0  0  0  0  0
    3.9084   -1.5950   -0.4439 C   0  0  0  0  0  0  0  0  0  0  0  0
    5.0513   -2.0850   -0.9607 C   0  0  0  0  0  0  0  0  0  0  0  0
    5.0643   -2.6405   -1.9121 H   0  0  0  0  0  0  0  0  0  0  0  0
    6.0154   -1.9465   -0.4453 H   0  0  0  0  0  0  0  0  0  0  0  0
    2.5896   -1.7002   -1.1685 C   0  0  0  0  0  0  0  0  0  0  0  0
    2.3125   -0.7020   -1.5943 H   0  0  0  0  0  0  0  0  0  0  0  0
    2.6757   -2.4080   -2.0267 H   0  0  0  0  0  0  0  0  0  0  0  0
    0.3399   -2.4028   -0.8581 C   0  0  0  0  0  0  0  0  0  0  0  0
    0.4500   -3.1861   -1.6490 H   0  0  0  0  0  0  0  0  0  0  0  0
   -0.0890   -1.4994   -1.3545 H   0  0  0  0  0  0  0  0  0  0  0  0
   -0.6263   -2.9273    0.1871 C   0  0  0  0  0  0  0  0  0  0  0  0
   -0.1588   -3.7144    0.8126 H   0  0  0  0  0  0  0  0  0  0  0  0
   -1.5294   -3.3233   -0.3200 H   0  0  0  0  0  0  0  0  0  0  0  0
  1  6  1  0  0  0  0
  2  9  1  0  0  0  0
  3 15  1  0  0  0  0
  3 18  1  0  0  0  0
  5 24  1  0  0  0  0
  6  9  1  0  0  0  0
  6  7  1  0  0  0  0
  8  6  1  0  0  0  0
  9 10  1  0  0  0  0
  9 11  1  0  0  0  0
 12 14  1  0  0  0  0
 12  2  1  0  0  0  0
 13 12  1  0  0  0  0
 15 17  1  0  0  0  0
 15 12  1  0  0  0  0
 16 15  1  0  0  0  0
 18 21  1  0  0  0  0
 18 20  1  0  0  0  0
 19 18  1  0  0  0  0
 21 23  1  0  0  0  0
 21  5  1  0  0  0  0
 22 21  1  0  0  0  0
 24 26  1  0  0  0  0
 24 25  1  0  0  0  0
 27 24  1  0  0  0  0
 28 30  1  0  0  0  0
 28 27  2  0  0  0  0
 29 28  1  0  0  0  0
 31 27  1  0  0  0  0
 31  4  1  0  0  0  0
 32 31  1  0  0  0  0
 33 31  1  0  0  0  0
 34  4  1  0  0  0  0
 34 37  1  0  0  0  0
 35 34  1  0  0  0  0
 36 34  1  0  0  0  0
 37 38  1  0  0  0  0
 37  1  1  0  0  0  0
 39 37  1  0  0  0  0
M  END
