1,2
q = -1.0, confidence = 0.006

 16 16  0  0  0  0  0  0  0  0999 V2000
    1.6560    1.9393   -1.6149 S   0  0  0  0  0  1  0  0  0  0  0  0
    1.8830   -1.1812   -1.8151 S   0  0  0  0  0  1  0  0  0  0  0  0
    3.2092    1.6320   -1.2179 N   0  0  0  0  0  0  0  0  0  0  0  0
    3.3885   -0.7441   -1.3746 N   0  0  0  0  0  2  0  0  0  0  0  0
    3.8273    0.4682   -0.9890 C   0  0  0  0  0  0  0  0  0  0  0  0
    5.1727    0.5229   -0.3506 C   0  0  0  0  0  0  0  0  0  0  0  0
    5.8628   -0.6700   -0.0481 C   0  0  0  0  0  0  0  0  0  0  0  0
    7.1120   -0.6227    0.5848 C   0  0  0  0  0  0  0  0  0  0  0  0
    7.6888    0.6134    0.9214 C   0  0  0  0  0  0  0  0  0  0  0  0
    7.0054    1.8040    0.6213 C   0  0  0  0  0  0  0  0  0  0  0  0
    5.7550    1.7612   -0.0088 C   0  0  0  0  0  0  0  0  0  0  0  0
    5.3972   -1.6282   -0.3216 H   0  0  0  0  0  0  0  0  0  0  0  0
    7.6421   -1.5594    0.8163 H   0  0  0  0  0  0  0  0  0  0  0  0
    8.6704    0.6491    1.4183 H   0  0  0  0  0  0  0  0  0  0  0  0
    7.4524    2.7759    0.8813 H   0  0  0  0  0  0  0  0  0  0  0  0
    5.2060    2.6830   -0.2502 H   0  0  0  0  0  0  0  0  0  0  0  0
  1  3  1  0  0  0  0
  2  4  1  0  0  0  0
  3  5  2  0  0  0  0
  4  5  1  0  0  0  0
  5  6  1  0  0  0  0
  6  7  2  0  0  0  0
  6 11  1  0  0  0  0
  7  8  1  0  0  0  0
  8 13  1  0  0  0  0
  8  9  2  0  0  0  0
  9 14  1  0  0  0  0
 10 15  1  0  0  0  0
 10  9  1  0  0  0  0
 11 10  2  0  0  0  0
 12  7  1  0  0  0  0
 16 11  1  0  0  0  0
M  END
