1,2
q = -1.0, confidence = 0.032

 10  9  0  0  0  0  0  0  0  0999 V2000
   -0.1169    0.7814    1.9976 S   0  0  0  0  0  1  0  0  0  0  0  0
   -0.9381   -1.8428    1.3055 S   0  0  0  0  0  1  0  0  0  0  0  0
   -0.9753   -0.6161    2.4837 C   0  0  0  0  0  3  0  0  0  0  0  0
   -1.7530   -0.6831    3.7626 C   0  0  0  0  0  0  0  0  0  0  0  0
   -1.1588   -0.1790    4.5560 H   0  0  0  0  0  0  0  0  0  0  0  0
   -2.6501   -0.0358    3.6151 H   0  0  0  0  0  0  0  0  0  0  0  0
   -2.1846   -2.0854    4.1848 C   0  0  0  0  0  0  0  0  0  0  0  0
   -2.7633   -2.0418    5.1275 H   0  0  0  0  0  0  0  0  0  0  0  0
   -1.3109   -2.7478    4.3462 H   0  0  0  0  0  0  0  0  0  0  0  0
   -2.8253   -2.5536    3.4114 H   0  0  0  0  0  0  0  0  0  0  0  0
  1  3  1  0  0  0  0
  2  3  1  0  0  0  0
  3  4  1  0  0  0  0
  4  7  1  0  0  0  0
  4  5  1  0  0  0  0
  6  4  1  0  0  0  0
  7  9  1  0  0  0  0
  7  8  1  0  0  0  0
 10  7  1  0  0  0  0
M  END
