1,2
q = -1.0, confidence = 0.028

 35 35  0  0  0  0  0  0  0  0999 V2000
    0.3524   -1.9235   -1.0066 S   0  0  0  0  0  1  0  0  0  0  0  0
   -0.2719   -0.0270    1.1264 S   0  0  0  0  0  1  0  0  0  0  0  0
   -0.7194   -0.7085   -0.4042 C   0  0  0  0  0  3  0  0  0  0  0  0
   -1.8105   -0.2975   -1.0859 N   0  0  0  0  0  0  0  0  0  0  0  0
   -2.2296   -0.8971   -2.3535 C   0  0  0  0  0  0  0  0  0  0  0  0
   -2.2092   -0.0979   -3.1282 H   0  0  0  0  0  0  0  0  0  0  0  0
   -1.4809   -1.6584   -2.6420 H   0  0  0  0  0  0  0  0  0  0  0  0
   -3.6311   -1.4995   -2.2331 C   0  0  0  0  0  0  0  0  0  0  0  0
   -3.6181   -2.3648   -1.5396 H   0  0  0  0  0  0  0  0  0  0  0  0
   -3.9510   -1.8937   -3.2187 H   0  0  0  0  0  0  0  0  0  0  0  0
   -4.6409   -0.4695   -1.7170 C   0  0  0  0  0  0  0  0  0  0  0  0
   -4.7525    0.3438   -2.4713 H   0  0  0  0  0  0  0  0  0  0  0  0
   -4.1281    0.1694   -0.4066 C   0  0  0  0  0  0  0  0  0  0  0  0
   -4.8076    0.9778   -0.0645 H   0  0  0  0  0  0  0  0  0  0  0  0
   -4.1134   -0.6040    0.3913 H   0  0  0  0  0  0  0  0  0  0  0  0
   -2.7150    0.7312   -0.5802 C   0  0  0  0  0  0  0  0  0  0  0  0
   -2.3087    1.1164    0.3742 H   0  0  0  0  0  0  0  0  0  0  0  0
   -2.7171    1.5726   -1.3105 H   0  0  0  0  0  0  0  0  0  0  0  0
   -6.0200   -1.1032   -1.4867 C   0  0  0  0  0  0  0  0  0  0  0  0
   -6.1880   -2.3171   -1.3738 O   0  0  0  0  0  0  0  0  0  0  0  0
   -7.0414   -0.1917   -1.3878 N   0  0  0  0  0  0  0  0  0  0  0  0
   -6.8074    0.7990   -1.2767 H   0  0  0  0  0  0  0  0  0  0  0  0
   -8.3386   -0.5708   -0.8625 C   0  0  0  0  0  0  0  0  0  0  0  0
   -8.4977   -1.6344   -1.1243 H   0  0  0  0  0  0  0  0  0  0  0  0
   -9.1256    0.0328   -1.3602 H   0  0  0  0  0  0  0  0  0  0  0  0
   -8.4292   -0.4071    0.6615 C   0  0  0  0  0  0  0  0  0  0  0  0
   -9.4166   -0.7290    1.0500 H   0  0  0  0  0  0  0  0  0  0  0  0
   -7.6803   -1.0698    1.1489 H   0  0  0  0  0  0  0  0  0  0  0  0
   -8.1537    1.0083    1.1271 C   0  0  0  0  0  0  0  0  0  0  0  0
   -7.5565    1.8654    0.4886 O   0  0  0  0  0  0  0  0  0  0  0  0
   -8.6308    1.2213    2.3706 O   0  0  0  0  0  0  0  0  0  0  0  0
   -8.3642    2.5175    2.9267 C   0  0  0  0  0  0  0  0  0  0  0  0
   -8.8154    2.5154    3.9344 H   0  0  0  0  0  0  0  0  0  0  0  0
   -8.8144    3.3137    2.3009 H   0  0  0  0  0  0  0  0  0  0  0  0
   -7.2728    2.7008    2.9911 H   0  0  0  0  0  0  0  0  0  0  0  0
  1  3  1  0  0  0  0
  3  2  1  0  0  0  0
  4 16  1  0  0  0  0
  4  3  1  0  0  0  0
  5  8  1  0  0  0  0
  5  4  1  0  0  0  0
  6  5  1  0  0  0  0
  7  5  1  0  0  0  0
  8 11  1  0  0  0  0
  8  9  1  0  0  0  0
 10  8  1  0  0  0  0
 11 19  1  0  0  0  0
 11 13  1  0  0  0  0
 12 11  1  0  0  0  0
 13 14  1  0  0  0  0
 13 15  1  0  0  0  0
 16 13  1  0  0  0  0
 16 17  1  0  0  0  0
 18 16  1  0  0  0  0
 19 21  1  0  0  0  0
 19 20  2  0  0  0  0
 21 22  1  0  0  0  0
 21 23  1  0  0  0  0
 23 26  1  0  0  0  0
 24 23  1  0  0  0  0
 25 23  1  0  0  0  0
 26 27  1  0  0  0  0
 26 29  1  0  0  0  0
 26 28  1  0  0  0  0
 29 31  1  0  0  0  0
 30 29  2  0  0  0  0
 31 32  1  0  0  0  0
 32 35  1  0  0  0  0
 32 33  1  0  0  0  0
 34 32  1  0  0  0  0
M  END
