1,2
q = 0.0, confidence = 0.578

 32 31  0  0  0  0  0  0  0  0999 V2000
    1.9308   -0.9769   -0.1253 S   0  0  0  0  0  1  0  0  0  0  0  0
    0.7750    1.8120   -0.8580 S   0  0  0  0  0  1  0  0  0  0  0  0
    2.9892    0.2538   -0.7152 C   0  0  0  0  0  0  0  0  0  0  0  0
    2.4620    1.5138   -1.0587 C   0  0  0  0  0  0  0  0  0  0  0  0
    4.7216   -0.0061   -0.8833 S   0  0  0  0  0  0  0  0  0  0  0  0
    3.5157    2.7743   -1.7080 S   0  0  0  0  0  0  0  0  0  0  0  0
    4.9251   -1.7068   -0.2339 C   0  0  0  0  0  0  0  0  0  0  0  0
    3.1491    4.1709   -0.5528 C   0  0  0  0  0  0  0  0  0  0  0  0
    6.4095   -2.0696   -0.2303 C   0  0  0  0  0  0  0  0  0  0  0  0
    4.3381   -2.4030   -0.8689 H   0  0  0  0  0  0  0  0  0  0  0  0
    4.4918   -1.7456    0.7878 H   0  0  0  0  0  0  0  0  0  0  0  0
    3.3556    3.8417    0.9234 C   0  0  0  0  0  0  0  0  0  0  0  0
    2.1143    4.5131   -0.7526 H   0  0  0  0  0  0  0  0  0  0  0  0
    3.8423    4.9657   -0.9013 H   0  0  0  0  0  0  0  0  0  0  0  0
    6.6608   -3.4860    0.3002 C   0  0  0  0  0  0  0  0  0  0  0  0
    6.9694   -1.3340    0.3884 H   0  0  0  0  0  0  0  0  0  0  0  0
    6.8176   -1.9798   -1.2612 H   0  0  0  0  0  0  0  0  0  0  0  0
    4.7703    3.3952    1.3003 C   0  0  0  0  0  0  0  0  0  0  0  0
    2.6226    3.0594    1.2203 H   0  0  0  0  0  0  0  0  0  0  0  0
    3.0760    4.7486    1.5062 H   0  0  0  0  0  0  0  0  0  0  0  0
    8.1418   -3.8655    0.3133 C   0  0  0  0  0  0  0  0  0  0  0  0
    6.2408   -3.5700    1.3268 H   0  0  0  0  0  0  0  0  0  0  0  0
    6.0905   -4.2132   -0.3189 H   0  0  0  0  0  0  0  0  0  0  0  0
    4.9059    3.0395    2.7805 C   0  0  0  0  0  0  0  0  0  0  0  0
    5.0460    2.5167    0.6782 H   0  0  0  0  0  0  0  0  0  0  0  0
    5.4930    4.1986    1.0329 H   0  0  0  0  0  0  0  0  0  0  0  0
    8.2958   -4.8925    0.7004 H   0  0  0  0  0  0  0  0  0  0  0  0
    8.5781   -3.8227   -0.7064 H   0  0  0  0  0  0  0  0  0  0  0  0
    8.7295   -3.1746    0.9529 H   0  0  0  0  0  0  0  0  0  0  0  0
    5.9373    2.7188    3.0303 H   0  0  0  0  0  0  0  0  0  0  0  0
    4.6558    3.9010    3.4351 H   0  0  0  0  0  0  0  0  0  0  0  0
    4.2226    2.2084    3.0540 H   0  0  0  0  0  0  0  0  0  0  0  0
  3  1  1  0  0  0  0
  4  2  1  0  0  0  0
  4  3  2  0  0  0  0
  5  3  1  0  0  0  0
  5  7  1  0  0  0  0
  6  4  1  0  0  0  0
  6  8  1  0  0  0  0
  7  9  1  0  0  0  0
  7 11  1  0  0  0  0
  8 12  1  0  0  0  0
  9 15  1  0  0  0  0
  9 16  1  0  0  0  0
 10  7  1  0  0  0  0
 12 19  1  0  0  0  0
 12 18  1  0  0  0  0
 12 20  1  0  0  0  0
 13  8  1  0  0  0  0
 14  8  1  0  0  0  0
 15 21  1  0  0  0  0
 15 22  1  0  0  0  0
 17  9  1  0  0  0  0
 18 24  1  0  0  0  0
 21 27  1  0  0  0  0
 21 29  1  0  0  0  0
 23 15  1  0  0  0  0
 24 30  1  0  0  0  0
 24 32  1  0  0  0  0
 24 31  1  0  0  0  0
 25 18  1  0  0  0  0
 26 18  1  0  0  0  0
 28 21  1  0  0  0  0
M  END
