1,2
q = 0.0, confidence = 0.664

 28 28  0  0  0  0  0  0  0  0999 V2000
   -1.3812   -1.5464   -0.7467 S   0  0  0  0  0  1  0  0  0  0  0  0
   -1.5219    1.4029    0.1298 S   0  0  0  0  0  1  0  0  0  0  0  0
   -2.9163   -0.7675   -0.6973 C   0  0  0  0  0  0  0  0  0  0  0  0
   -2.9773    0.5793   -0.3100 C   0  0  0  0  0  0  0  0  0  0  0  0
   -4.2353    1.3590   -0.2147 C   0  0  0  0  0  0  0  0  0  0  0  0
   -5.0999    1.4897   -1.3260 C   0  0  0  0  0  0  0  0  0  0  0  0
   -6.2849    2.2309   -1.2242 C   0  0  0  0  0  0  0  0  0  0  0  0
   -6.6251    2.8583   -0.0147 C   0  0  0  0  0  0  0  0  0  0  0  0
   -5.7657    2.7500    1.0905 C   0  0  0  0  0  0  0  0  0  0  0  0
   -4.5793    2.0113    0.9917 C   0  0  0  0  0  0  0  0  0  0  0  0
   -4.1294   -1.6371   -0.9207 C   0  0  0  0  0  0  0  0  0  0  0  0
   -4.7705   -2.0890    0.4048 C   0  0  0  0  0  0  0  0  0  0  0  0
   -6.0037   -2.9733    0.2048 C   0  0  0  0  0  0  0  0  0  0  0  0
   -6.6420   -3.4197    1.5204 C   0  0  0  0  0  0  0  0  0  0  0  0
   -4.8194    1.0286   -2.2848 H   0  0  0  0  0  0  0  0  0  0  0  0
   -6.9428    2.3291   -2.1011 H   0  0  0  0  0  0  0  0  0  0  0  0
   -7.5568    3.4386    0.0638 H   0  0  0  0  0  0  0  0  0  0  0  0
   -6.0223    3.2442    2.0399 H   0  0  0  0  0  0  0  0  0  0  0  0
   -3.9030    1.9220    1.8551 H   0  0  0  0  0  0  0  0  0  0  0  0
   -3.8331   -2.5272   -1.5140 H   0  0  0  0  0  0  0  0  0  0  0  0
   -4.8861   -1.0908   -1.5199 H   0  0  0  0  0  0  0  0  0  0  0  0
   -4.0058   -2.6294    1.0047 H   0  0  0  0  0  0  0  0  0  0  0  0
   -5.0470   -1.1889    0.9965 H   0  0  0  0  0  0  0  0  0  0  0  0
   -5.7212   -3.8644   -0.3989 H   0  0  0  0  0  0  0  0  0  0  0  0
   -6.7511   -2.4204   -0.4069 H   0  0  0  0  0  0  0  0  0  0  0  0
   -5.9269   -4.0028    2.1375 H   0  0  0  0  0  0  0  0  0  0  0  0
   -7.5329   -4.0569    1.3489 H   0  0  0  0  0  0  0  0  0  0  0  0
   -6.9652   -2.5478    2.1267 H   0  0  0  0  0  0  0  0  0  0  0  0
  1  3  1  0  0  0  0
  3  4  2  0  0  0  0
  4  5  1  0  0  0  0
  4  2  1  0  0  0  0
  5 10  1  0  0  0  0
  6  7  1  0  0  0  0
  6  5  2  0  0  0  0
  7  8  2  0  0  0  0
  8 17  1  0  0  0  0
  8  9  1  0  0  0  0
  9 18  1  0  0  0  0
 10  9  2  0  0  0  0
 10 19  1  0  0  0  0
 11  3  1  0  0  0  0
 11 12  1  0  0  0  0
 12 23  1  0  0  0  0
 12 22  1  0  0  0  0
 13 12  1  0  0  0  0
 13 14  1  0  0  0  0
 14 28  1  0  0  0  0
 14 26  1  0  0  0  0
 15  6  1  0  0  0  0
 16  7  1  0  0  0  0
 20 11  1  0  0  0  0
 21 11  1  0  0  0  0
 24 13  1  0  0  0  0
 25 13  1  0  0  0  0
 27 14  1  0  0  0  0
M  END
