1,3
q = 0.0, confidence = 0.75

  3  2  0  0  0  0  0  0  0  0999 V2000
    0.2008   -2.0071   -1.7032 S   0  0  0  0  0  0  0  0  0  0  0  0
    1.3053   -2.6040   -0.0081 S   0  0  0  0  0  0  0  0  0  0  0  0
    0.2388   -1.9849    1.7126 S   0  0  0  0  0  0  0  0  0  0  0  0
  1  2  1  0  0  0  0
  2  3  1  0  0  0  0
M  END
