1,2
q = -2.0, confidence = 0.846

 18 18  0  0  0  0  0  0  0  0999 V2000
    0.5261   -2.0618    0.0631 S   0  0  0  0  0  1  0  0  0  0  0  0
    1.7175    0.4759   -0.4431 S   0  0  0  0  0  1  0  0  0  0  0  0
    3.3622   -4.4512    0.0035 N   0  0  0  0  0  0  0  0  0  0  0  0
    5.7645   -2.8618    2.3126 N   0  0  0  0  0  0  0  0  0  0  0  0
    2.0508   -1.2464   -0.2626 C   0  0  0  0  0  0  0  0  0  0  0  0
    3.2892   -1.8667   -0.3120 C   0  0  0  0  0  0  0  0  0  0  0  0
    3.3348   -3.2806   -0.1187 C   0  0  0  0  0  0  0  0  0  0  0  0
    4.5465   -1.1324   -0.5838 C   0  0  0  0  0  0  0  0  0  0  0  0
    4.6152   -0.2022   -1.6445 C   0  0  0  0  0  0  0  0  0  0  0  0
    3.7198   -0.0460   -2.2624 H   0  0  0  0  0  0  0  0  0  0  0  0
    5.7955    0.4942   -1.9307 C   0  0  0  0  0  0  0  0  0  0  0  0
    5.8150    1.2071   -2.7690 H   0  0  0  0  0  0  0  0  0  0  0  0
    6.9540    0.2704   -1.1686 C   0  0  0  0  0  0  0  0  0  0  0  0
    7.8864    0.8071   -1.3981 H   0  0  0  0  0  0  0  0  0  0  0  0
    6.9170   -0.6433   -0.1109 C   0  0  0  0  0  0  0  0  0  0  0  0
    7.8087   -0.8247    0.5061 H   0  0  0  0  0  0  0  0  0  0  0  0
    5.7242   -1.3391    0.1961 C   0  0  0  0  0  0  0  0  0  0  0  0
    5.7214   -2.2007    1.3428 C   0  0  0  0  0  0  0  0  0  0  0  0
  2  5  1  0  0  0  0
  5  1  1  0  0  0  0
  6  5  2  0  0  0  0
  6  7  1  0  0  0  0
  7  3  3  0  0  0  0
  8  6  1  0  0  0  0
  8 17  1  0  0  0  0
  9  8  2  0  0  0  0
 10  9  1  0  0  0  0
 11  9  1  0  0  0  0
 11 13  2  0  0  0  0
 12 11  1  0  0  0  0
 13 15  1  0  0  0  0
 14 13  1  0  0  0  0
 15 17  2  0  0  0  0
 15 16  1  0  0  0  0
 17 18  1  0  0  0  0
 18  4  3  0  0  0  0
M  END
