4,7,8
 OpenBabel05122313063D

 32 31  0  0  0  0  0  0  0  0999 V2000
   -2.3562   -1.4503   -0.0770 Si  0  0  0  0  0  0  0  0  0  0  0  0
   -2.1846    1.7444   -0.0011 Si  0  0  0  0  0  0  0  0  0  0  0  0
   -1.4272    0.1093   -0.1190 N   0  0  0  0  0  0  0  0  0  0  0  0
   -0.0412    0.0597   -0.0856 B   0  0  0  0  0  0  0  0  0  0  0  0
    0.3017   -0.2200    2.6204 O   0  0  0  0  0  0  0  0  0  0  0  0
    0.4468   -1.4112   -2.3312 O   0  0  0  0  0  0  0  0  0  0  0  0
    0.8908   -0.1770    1.5943 C   0  0  0  0  0  3  0  0  0  0  0  0
    0.9781   -0.8932   -1.4069 C   0  0  0  0  0  3  0  0  0  0  0  0
   -1.2073   -2.8422    0.4565 C   0  0  0  0  0  0  0  0  0  0  0  0
   -0.4170   -3.0465   -0.2909 H   0  0  0  0  0  0  0  0  0  0  0  0
   -1.8075   -3.7684    0.5742 H   0  0  0  0  0  0  0  0  0  0  0  0
   -0.7244   -2.6238    1.4294 H   0  0  0  0  0  0  0  0  0  0  0  0
   -3.0279   -1.7724   -1.8063 C   0  0  0  0  0  0  0  0  0  0  0  0
   -3.7441   -0.9907   -2.1271 H   0  0  0  0  0  0  0  0  0  0  0  0
   -3.5454   -2.7531   -1.8484 H   0  0  0  0  0  0  0  0  0  0  0  0
   -2.1839   -1.7923   -2.5249 H   0  0  0  0  0  0  0  0  0  0  0  0
   -3.7397   -1.2891    1.1980 C   0  0  0  0  0  0  0  0  0  0  0  0
   -4.4694   -0.4915    0.9560 H   0  0  0  0  0  0  0  0  0  0  0  0
   -3.3187   -1.0839    2.2029 H   0  0  0  0  0  0  0  0  0  0  0  0
   -4.2984   -2.2465    1.2515 H   0  0  0  0  0  0  0  0  0  0  0  0
   -3.7618    1.7799   -1.0362 C   0  0  0  0  0  0  0  0  0  0  0  0
   -4.5212    1.0515   -0.6904 H   0  0  0  0  0  0  0  0  0  0  0  0
   -3.5407    1.5700   -2.1021 H   0  0  0  0  0  0  0  0  0  0  0  0
   -4.2162    2.7905   -0.9746 H   0  0  0  0  0  0  0  0  0  0  0  0
   -2.5335    2.1073    1.8154 C   0  0  0  0  0  0  0  0  0  0  0  0
   -3.3566    1.4785    2.2081 H   0  0  0  0  0  0  0  0  0  0  0  0
   -2.8131    3.1709    1.9627 H   0  0  0  0  0  0  0  0  0  0  0  0
   -1.6294    1.8921    2.4205 H   0  0  0  0  0  0  0  0  0  0  0  0
   -0.9707    3.0107   -0.6925 C   0  0  0  0  0  0  0  0  0  0  0  0
   -0.6799    2.7588   -1.7323 H   0  0  0  0  0  0  0  0  0  0  0  0
   -0.0497    3.0668   -0.0799 H   0  0  0  0  0  0  0  0  0  0  0  0
   -1.4416    4.0154   -0.6985 H   0  0  0  0  0  0  0  0  0  0  0  0
  1  9  1  0  0  0  0
  1 17  1  0  0  0  0
  2 25  1  0  0  0  0
  3  4  1  0  0  0  0
  3  1  1  0  0  0  0
  3  2  1  0  0  0  0
  4  7  1  0  0  0  0
  6  8  2  0  0  0  0
  7  5  2  0  0  0  0
  8  4  1  0  0  0  0
  9 11  1  0  0  0  0
  9 12  1  0  0  0  0
 10  9  1  0  0  0  0
 13  1  1  0  0  0  0
 14 13  1  0  0  0  0
 15 13  1  0  0  0  0
 16 13  1  0  0  0  0
 17 20  1  0  0  0  0
 17 19  1  0  0  0  0
 18 17  1  0  0  0  0
 21 24  1  0  0  0  0
 21 22  1  0  0  0  0
 21  2  1  0  0  0  0
 23 21  1  0  0  0  0
 25 27  1  0  0  0  0
 25 26  1  0  0  0  0
 25 28  1  0  0  0  0
 29 31  1  0  0  0  0
 29  2  1  0  0  0  0
 30 29  1  0  0  0  0
 32 29  1  0  0  0  0
M  END
