1,3
q = 0.0, confidence = 0.878

 80 83  0  0  0  0  0  0  0  0999 V2000
    1.3687   -0.0330    0.8894 B   0  0  0  0  0  0  0  0  0  0  0  0
   -1.1218   -0.5290    1.6518 C   0  0  0  0  0  0  0  0  0  0  0  0
   -1.4926   -0.1924   -0.1169 P   0  0  0  0  0  0  0  0  0  0  0  0
   -2.3146   -1.1358    3.0189 Si  0  0  0  0  0  0  0  0  0  0  0  0
    0.2147   -0.4859    1.9038 C   0  0  0  0  0  0  0  0  0  0  0  0
    0.5479   -0.7235    2.9353 H   0  0  0  0  0  0  0  0  0  0  0  0
   -4.1541   -0.9646    2.6128 C   0  0  0  0  0  0  0  0  0  0  0  0
   -4.7345   -1.2427    3.5174 H   0  0  0  0  0  0  0  0  0  0  0  0
   -4.4571   -1.6415    1.7905 H   0  0  0  0  0  0  0  0  0  0  0  0
   -4.4528    0.0658    2.3351 H   0  0  0  0  0  0  0  0  0  0  0  0
   -1.9310   -2.9666    3.3120 C   0  0  0  0  0  0  0  0  0  0  0  0
   -0.8385   -3.1360    3.3960 H   0  0  0  0  0  0  0  0  0  0  0  0
   -2.3096   -3.5926    2.4799 H   0  0  0  0  0  0  0  0  0  0  0  0
   -2.4112   -3.3178    4.2486 H   0  0  0  0  0  0  0  0  0  0  0  0
   -1.9242   -0.1653    4.5987 C   0  0  0  0  0  0  0  0  0  0  0  0
   -2.4514   -0.6206    5.4625 H   0  0  0  0  0  0  0  0  0  0  0  0
   -2.2469    0.8919    4.5219 H   0  0  0  0  0  0  0  0  0  0  0  0
   -0.8386   -0.1693    4.8239 H   0  0  0  0  0  0  0  0  0  0  0  0
   -1.7210    1.5996   -0.5034 C   0  0  0  0  0  0  0  0  0  0  0  0
   -1.6038    1.9718   -1.8763 C   0  0  0  0  0  0  0  0  0  0  0  0
   -1.5492    3.3368   -2.2083 C   0  0  0  0  0  0  0  0  0  0  0  0
   -1.4471    3.6126   -3.2699 H   0  0  0  0  0  0  0  0  0  0  0  0
   -1.6110    4.3502   -1.2392 C   0  0  0  0  0  0  0  0  0  0  0  0
   -1.7985    3.9568    0.0960 C   0  0  0  0  0  0  0  0  0  0  0  0
   -1.8926    4.7316    0.8740 H   0  0  0  0  0  0  0  0  0  0  0  0
   -1.8660    2.6083    0.4912 C   0  0  0  0  0  0  0  0  0  0  0  0
   -1.5452    0.9739   -3.0078 C   0  0  0  0  0  0  0  0  0  0  0  0
   -1.8746    1.4457   -3.9535 H   0  0  0  0  0  0  0  0  0  0  0  0
   -2.1775    0.0809   -2.8345 H   0  0  0  0  0  0  0  0  0  0  0  0
   -0.5059    0.6103   -3.1668 H   0  0  0  0  0  0  0  0  0  0  0  0
   -1.4440    5.7999   -1.6070 C   0  0  0  0  0  0  0  0  0  0  0  0
   -1.7247    5.9923   -2.6605 H   0  0  0  0  0  0  0  0  0  0  0  0
   -0.3814    6.0983   -1.4861 H   0  0  0  0  0  0  0  0  0  0  0  0
   -2.0456    6.4617   -0.9534 H   0  0  0  0  0  0  0  0  0  0  0  0
   -2.1357    2.3253    1.9468 C   0  0  0  0  0  0  0  0  0  0  0  0
   -2.9392    1.5749    2.0776 H   0  0  0  0  0  0  0  0  0  0  0  0
   -2.4546    3.2508    2.4627 H   0  0  0  0  0  0  0  0  0  0  0  0
   -1.2478    1.9340    2.4773 H   0  0  0  0  0  0  0  0  0  0  0  0
   -2.9756   -1.1995   -0.5626 C   0  0  0  0  0  0  0  0  0  0  0  0
   -4.2637   -0.6405   -0.8225 C   0  0  0  0  0  0  0  0  0  0  0  0
   -5.3300   -1.5149   -1.1079 C   0  0  0  0  0  0  0  0  0  0  0  0
   -6.3215   -1.0758   -1.3020 H   0  0  0  0  0  0  0  0  0  0  0  0
   -5.1891   -2.9106   -1.1276 C   0  0  0  0  0  0  0  0  0  0  0  0
   -3.9198   -3.4357   -0.8400 C   0  0  0  0  0  0  0  0  0  0  0  0
   -3.7796   -4.5285   -0.8275 H   0  0  0  0  0  0  0  0  0  0  0  0
   -2.8068   -2.6207   -0.5670 C   0  0  0  0  0  0  0  0  0  0  0  0
   -4.5981    0.8310   -0.7727 C   0  0  0  0  0  0  0  0  0  0  0  0
   -4.2598    1.3084    0.1654 H   0  0  0  0  0  0  0  0  0  0  0  0
   -5.6935    0.9678   -0.8451 H   0  0  0  0  0  0  0  0  0  0  0  0
   -4.1309    1.4043   -1.5966 H   0  0  0  0  0  0  0  0  0  0  0  0
   -6.3493   -3.8115   -1.4595 C   0  0  0  0  0  0  0  0  0  0  0  0
   -6.3029   -4.7622   -0.8926 H   0  0  0  0  0  0  0  0  0  0  0  0
   -6.3425   -4.0771   -2.5386 H   0  0  0  0  0  0  0  0  0  0  0  0
   -7.3208   -3.3241   -1.2478 H   0  0  0  0  0  0  0  0  0  0  0  0
   -1.4956   -3.3183   -0.3010 C   0  0  0  0  0  0  0  0  0  0  0  0
   -1.6664   -4.3925   -0.0974 H   0  0  0  0  0  0  0  0  0  0  0  0
   -0.9354   -2.8968    0.5534 H   0  0  0  0  0  0  0  0  0  0  0  0
   -0.8193   -3.2542   -1.1814 H   0  0  0  0  0  0  0  0  0  0  0  0
    1.4608    1.5656    0.7263 C   0  0  0  0  0  0  0  0  0  0  0  0
    1.2880    2.3673    1.8698 C   0  0  0  0  0  0  0  0  0  0  0  0
    1.1353    1.7900    3.0839 F   0  0  0  0  0  0  0  0  0  0  0  0
    1.2397    3.7683    1.8414 C   0  0  0  0  0  0  0  0  0  0  0  0
    1.0293    4.4725    2.9599 F   0  0  0  0  0  0  0  0  0  0  0  0
    1.3778    4.4244    0.6104 C   0  0  0  0  0  0  0  0  0  0  0  0
    1.2858    5.7574    0.5433 F   0  0  0  0  0  0  0  0  0  0  0  0
    1.5687    3.6727   -0.5576 C   0  0  0  0  0  0  0  0  0  0  0  0
    1.6635    4.2969   -1.7379 F   0  0  0  0  0  0  0  0  0  0  0  0
    1.6235    2.2732   -0.4804 C   0  0  0  0  0  0  0  0  0  0  0  0
    1.8085    1.6256   -1.6408 F   0  0  0  0  0  0  0  0  0  0  0  0
    2.6439   -0.9537    0.7341 C   0  0  0  0  0  0  0  0  0  0  0  0
    3.8871   -0.4970    0.2417 C   0  0  0  0  0  0  0  0  0  0  0  0
    4.0775    0.7959   -0.0525 F   0  0  0  0  0  0  0  0  0  0  0  0
    4.9684   -1.3544   -0.0022 C   0  0  0  0  0  0  0  0  0  0  0  0
    6.1222   -0.8842   -0.4820 F   0  0  0  0  0  0  0  0  0  0  0  0
    4.8343   -2.7259    0.2702 C   0  0  0  0  0  0  0  0  0  0  0  0
    5.8528   -3.5527    0.0430 F   0  0  0  0  0  0  0  0  0  0  0  0
    3.6245   -3.2269    0.7810 C   0  0  0  0  0  0  0  0  0  0  0  0
    3.4963   -4.5326    1.0330 F   0  0  0  0  0  0  0  0  0  0  0  0
    2.5709   -2.3377    1.0145 C   0  0  0  0  0  0  0  0  0  0  0  0
    1.4211   -2.8793    1.4643 F   0  0  0  0  0  0  0  0  0  0  0  0
  1  5  1  0  0  0  0
  2  5  2  0  0  0  0
  2  4  1  0  0  0  0
  3  2  1  0  0  0  0
  4 11  1  0  0  0  0
  4 15  1  0  0  0  0
  5  6  1  0  0  0  0
  7  4  1  0  0  0  0
  7  8  1  0  0  0  0
  9  7  1  0  0  0  0
 10  7  1  0  0  0  0
 11 12  1  0  0  0  0
 11 14  1  0  0  0  0
 13 11  1  0  0  0  0
 15 18  1  0  0  0  0
 15 16  1  0  0  0  0
 17 15  1  0  0  0  0
 19  3  1  0  0  0  0
 19 26  1  0  0  0  0
 20 19  2  0  0  0  0
 21 20  1  0  0  0  0
 21 23  2  0  0  0  0
 22 21  1  0  0  0  0
 23 24  1  0  0  0  0
 24 26  2  0  0  0  0
 24 25  1  0  0  0  0
 26 35  1  0  0  0  0
 27 29  1  0  0  0  0
 27 20  1  0  0  0  0
 28 27  1  0  0  0  0
 30 27  1  0  0  0  0
 31 33  1  0  0  0  0
 31 23  1  0  0  0  0
 31 34  1  0  0  0  0
 32 31  1  0  0  0  0
 35 36  1  0  0  0  0
 35 37  1  0  0  0  0
 35 38  1  0  0  0  0
 39  3  1  0  0  0  0
 40 47  1  0  0  0  0
 40 39  2  0  0  0  0
 41 40  1  0  0  0  0
 42 41  1  0  0  0  0
 43 41  2  0  0  0  0
 43 44  1  0  0  0  0
 44 45  1  0  0  0  0
 44 46  2  0  0  0  0
 46 39  1  0  0  0  0
 46 55  1  0  0  0  0
 47 48  1  0  0  0  0
 49 47  1  0  0  0  0
 50 47  1  0  0  0  0
 51 54  1  0  0  0  0
 51 43  1  0  0  0  0
 51 52  1  0  0  0  0
 53 51  1  0  0  0  0
 55 56  1  0  0  0  0
 55 57  1  0  0  0  0
 58 55  1  0  0  0  0
 59  1  1  0  0  0  0
 59 60  1  0  0  0  0
 60 61  1  0  0  0  0
 62 60  2  0  0  0  0
 62 63  1  0  0  0  0
 64 62  1  0  0  0  0
 65 64  1  0  0  0  0
 66 68  1  0  0  0  0
 66 64  2  0  0  0  0
 67 66  1  0  0  0  0
 68 59  2  0  0  0  0
 69 68  1  0  0  0  0
 70  1  1  0  0  0  0
 70 79  1  0  0  0  0
 71 70  2  0  0  0  0
 72 71  1  0  0  0  0
 73 71  1  0  0  0  0
 73 75  2  0  0  0  0
 74 73  1  0  0  0  0
 75 77  1  0  0  0  0
 76 75  1  0  0  0  0
 77 79  2  0  0  0  0
 77 78  1  0  0  0  0
 79 80  1  0  0  0  0
M  END
