1,2,3
q = -1.0

 73 76  0  0  0  0  0  0  0  0999 V2000
    1.6384   -0.5208   -0.2316 P   0  0  0  0  0  0  0  0  0  0  0  0
   -0.4336    1.7983    0.1283 O   0  5  0  0  0  0  0  0  0  0  0  0
    0.5011    0.4621    2.3702 N   0  0  0  0  0  0  0  0  0  0  0  0
    1.4156   -1.5685    1.2652 C   0  0  0  0  0  0  0  0  0  0  0  0
    1.7780   -2.9280    1.3289 C   0  0  0  0  0  0  0  0  0  0  0  0
    1.6214   -3.6532    2.5164 C   0  0  0  0  0  0  0  0  0  0  0  0
    1.1103   -3.0186    3.6602 C   0  0  0  0  0  0  0  0  0  0  0  0
    0.7463   -1.6675    3.6058 C   0  0  0  0  0  0  0  0  0  0  0  0
    0.3563   -1.1656    4.5047 H   0  0  0  0  0  0  0  0  0  0  0  0
    0.8904   -0.9390    2.4109 C   0  0  0  0  0  0  0  0  0  0  0  0
   -0.9508    0.6920    2.6198 C   0  0  0  0  0  0  0  0  0  0  0  0
   -1.8385    0.4191    1.4345 C   0  0  0  0  0  0  0  0  0  0  0  0
   -1.5936    1.1350    0.2332 C   0  0  0  0  0  0  0  0  0  0  0  0
   -2.5702    1.1760   -0.7987 C   0  0  0  0  0  0  0  0  0  0  0  0
   -3.6791    0.3192   -0.6496 C   0  0  0  0  0  0  0  0  0  0  0  0
   -3.8885   -0.5071    0.4720 C   0  0  0  0  0  0  0  0  0  0  0  0
   -2.9651   -0.4033    1.5323 C   0  0  0  0  0  0  0  0  0  0  0  0
   -2.4597    2.1822   -1.9588 C   0  0  0  0  0  0  0  0  0  0  0  0
   -1.1964    1.9344   -2.8093 C   0  0  0  0  0  0  0  0  0  0  0  0
   -1.1319    2.6992   -3.6109 H   0  0  0  0  0  0  0  0  0  0  0  0
   -1.2393    0.9380   -3.2873 H   0  0  0  0  0  0  0  0  0  0  0  0
   -0.2692    1.9945   -2.2112 H   0  0  0  0  0  0  0  0  0  0  0  0
   -2.4092    3.6073   -1.3530 C   0  0  0  0  0  0  0  0  0  0  0  0
   -2.3469    4.3609   -2.1650 H   0  0  0  0  0  0  0  0  0  0  0  0
   -1.5291    3.7393   -0.6957 H   0  0  0  0  0  0  0  0  0  0  0  0
   -3.3223    3.8163   -0.7592 H   0  0  0  0  0  0  0  0  0  0  0  0
   -3.6791    2.1023   -2.8951 C   0  0  0  0  0  0  0  0  0  0  0  0
   -4.6303    2.3112   -2.3647 H   0  0  0  0  0  0  0  0  0  0  0  0
   -3.7613    1.1094   -3.3826 H   0  0  0  0  0  0  0  0  0  0  0  0
   -3.5733    2.8583   -3.6987 H   0  0  0  0  0  0  0  0  0  0  0  0
   -5.1014   -1.4458    0.5983 C   0  0  0  0  0  0  0  0  0  0  0  0
   -6.0284   -0.9216    1.7194 C   0  0  0  0  0  0  0  0  0  0  0  0
   -6.9120   -1.5829    1.8385 H   0  0  0  0  0  0  0  0  0  0  0  0
   -6.3897    0.1001    1.4860 H   0  0  0  0  0  0  0  0  0  0  0  0
   -5.5039   -0.8783    2.6949 H   0  0  0  0  0  0  0  0  0  0  0  0
   -4.6220   -2.8702    0.9579 C   0  0  0  0  0  0  0  0  0  0  0  0
   -3.9570   -3.2787    0.1698 H   0  0  0  0  0  0  0  0  0  0  0  0
   -5.4878   -3.5562    1.0629 H   0  0  0  0  0  0  0  0  0  0  0  0
   -4.0612   -2.8914    1.9131 H   0  0  0  0  0  0  0  0  0  0  0  0
   -5.9096   -1.5261   -0.7086 C   0  0  0  0  0  0  0  0  0  0  0  0
   -5.2839   -1.8732   -1.5560 H   0  0  0  0  0  0  0  0  0  0  0  0
   -6.3492   -0.5472   -0.9858 H   0  0  0  0  0  0  0  0  0  0  0  0
   -6.7471   -2.2427   -0.5904 H   0  0  0  0  0  0  0  0  0  0  0  0
    3.2348   -1.0521   -0.9857 C   0  0  0  0  0  0  0  0  0  0  0  0
    3.3336   -2.2916   -1.6580 C   0  0  0  0  0  0  0  0  0  0  0  0
    2.4471   -2.9343   -1.7667 H   0  0  0  0  0  0  0  0  0  0  0  0
    4.5514   -2.6941   -2.2236 C   0  0  0  0  0  0  0  0  0  0  0  0
    5.6771   -1.8589   -2.1378 C   0  0  0  0  0  0  0  0  0  0  0  0
    6.6317   -2.1729   -2.5870 H   0  0  0  0  0  0  0  0  0  0  0  0
    5.5771   -0.6189   -1.4897 C   0  0  0  0  0  0  0  0  0  0  0  0
    4.3635   -0.2119   -0.9144 C   0  0  0  0  0  0  0  0  0  0  0  0
    4.2879    0.7581   -0.4047 H   0  0  0  0  0  0  0  0  0  0  0  0
    0.4136   -1.1993   -1.4232 C   0  0  0  0  0  0  0  0  0  0  0  0
   -0.7482   -1.8713   -0.9948 C   0  0  0  0  0  0  0  0  0  0  0  0
   -0.9347   -2.0290    0.0771 H   0  0  0  0  0  0  0  0  0  0  0  0
   -1.6777   -2.3375   -1.9366 C   0  0  0  0  0  0  0  0  0  0  0  0
   -1.4538   -2.1477   -3.3084 C   0  0  0  0  0  0  0  0  0  0  0  0
   -0.2993   -1.4728   -3.7388 C   0  0  0  0  0  0  0  0  0  0  0  0
    0.6247   -0.9890   -2.8031 C   0  0  0  0  0  0  0  0  0  0  0  0
    1.5180   -0.4445   -3.1444 H   0  0  0  0  0  0  0  0  0  0  0  0
    2.2053   -3.4178    0.4426 H   0  0  0  0  0  0  0  0  0  0  0  0
    1.9130   -4.7133    2.5542 H   0  0  0  0  0  0  0  0  0  0  0  0
    1.0021   -3.5760    4.6026 H   0  0  0  0  0  0  0  0  0  0  0  0
   -1.2960    0.0932    3.4891 H   0  0  0  0  0  0  0  0  0  0  0  0
   -1.0280    1.7657    2.8907 H   0  0  0  0  0  0  0  0  0  0  0  0
   -4.4212    0.3038   -1.4550 H   0  0  0  0  0  0  0  0  0  0  0  0
   -3.1265   -0.9584    2.4702 H   0  0  0  0  0  0  0  0  0  0  0  0
    4.6171   -3.6622   -2.7430 H   0  0  0  0  0  0  0  0  0  0  0  0
    6.4513    0.0470   -1.4309 H   0  0  0  0  0  0  0  0  0  0  0  0
   -2.5842   -2.8553   -1.5896 H   0  0  0  0  0  0  0  0  0  0  0  0
   -2.1811   -2.5225   -4.0443 H   0  0  0  0  0  0  0  0  0  0  0  0
   -0.1206   -1.3111   -4.8126 H   0  0  0  0  0  0  0  0  0  0  0  0
    1.0374    0.9560    3.1029 H   0  0  0  0  0  0  0  0  0  0  0  0
  1  4  1  0  0  0  0
  2 13  1  0  0  0  0
  3 10  1  0  0  0  0
  3 11  1  0  0  0  0
  3 73  1  0  0  0  0
  4  5  2  0  0  0  0
  4 10  1  0  0  0  0
  5  6  1  0  0  0  0
  6 62  1  0  0  0  0
  6  7  2  0  0  0  0
  7 63  1  0  0  0  0
  8  7  1  0  0  0  0
  8  9  1  0  0  0  0
 10  8  2  0  0  0  0
 11 65  1  0  0  0  0
 11 64  1  0  0  0  0
 12 17  1  0  0  0  0
 12 11  1  0  0  0  0
 13 12  2  0  0  0  0
 14 15  2  0  0  0  0
 14 13  1  0  0  0  0
 15 16  1  0  0  0  0
 16 31  1  0  0  0  0
 16 17  2  0  0  0  0
 17 67  1  0  0  0  0
 18 23  1  0  0  0  0
 18 14  1  0  0  0  0
 19 22  1  0  0  0  0
 19 18  1  0  0  0  0
 20 19  1  0  0  0  0
 21 19  1  0  0  0  0
 23 26  1  0  0  0  0
 23 25  1  0  0  0  0
 24 23  1  0  0  0  0
 27 28  1  0  0  0  0
 27 18  1  0  0  0  0
 29 27  1  0  0  0  0
 30 27  1  0  0  0  0
 31 36  1  0  0  0  0
 31 32  1  0  0  0  0
 32 33  1  0  0  0  0
 32 35  1  0  0  0  0
 34 32  1  0  0  0  0
 36 38  1  0  0  0  0
 36 39  1  0  0  0  0
 37 36  1  0  0  0  0
 40 43  1  0  0  0  0
 40 31  1  0  0  0  0
 41 40  1  0  0  0  0
 42 40  1  0  0  0  0
 44 51  1  0  0  0  0
 44  1  1  0  0  0  0
 45 44  2  0  0  0  0
 46 45  1  0  0  0  0
 47 48  2  0  0  0  0
 47 45  1  0  0  0  0
 48 50  1  0  0  0  0
 49 48  1  0  0  0  0
 50 69  1  0  0  0  0
 50 51  2  0  0  0  0
 51 52  1  0  0  0  0
 53 54  1  0  0  0  0
 53  1  1  0  0  0  0
 54 55  1  0  0  0  0
 56 70  1  0  0  0  0
 56 54  2  0  0  0  0
 57 56  1  0  0  0  0
 58 57  2  0  0  0  0
 58 59  1  0  0  0  0
 59 53  2  0  0  0  0
 60 59  1  0  0  0  0
 61  5  1  0  0  0  0
 66 15  1  0  0  0  0
 68 47  1  0  0  0  0
 71 57  1  0  0  0  0
 72 58  1  0  0  0  0
M  CHG  1   2  -1
M  END
