1,3,4
q = -2.0, confidence = 0.868

 70 71  0  0  0  0  0  0  0  0999 V2000
    2.4327    0.0107   -0.2694 P   0  0  0  0  0  0  0  0  0  0  0  0
   -2.7465   -0.4752    0.7130 Si  0  0  0  0  0  0  0  0  0  0  0  0
   -1.5076   -1.5159    0.3273 O   0  0  0  0  0  1  0  0  0  0  0  0
   -0.1851    1.1611   -0.0770 N   0  0  0  0  0  2  0  0  0  0  0  0
    2.1525    1.6915    0.3436 C   0  0  0  0  0  0  0  0  0  0  0  0
    3.1506    2.5712    0.8106 C   0  0  0  0  0  0  0  0  0  0  0  0
    2.8433    3.8718    1.2357 C   0  0  0  0  0  0  0  0  0  0  0  0
    1.4803    4.2607    1.1725 C   0  0  0  0  0  0  0  0  0  0  0  0
    0.4774    3.4081    0.7199 C   0  0  0  0  0  0  0  0  0  0  0  0
    0.7786    2.0767    0.2972 C   0  0  0  0  0  0  0  0  0  0  0  0
    3.8998    4.8160    1.7505 C   0  0  0  0  0  0  0  0  0  0  0  0
   -1.3623    1.6125   -0.7112 C   0  0  0  0  0  0  0  0  0  0  0  0
   -1.2910    2.6623   -1.6655 C   0  0  0  0  0  0  0  0  0  0  0  0
   -2.4404    3.1686   -2.2753 C   0  0  0  0  0  0  0  0  0  0  0  0
   -3.7147    2.6404   -1.9795 C   0  0  0  0  0  0  0  0  0  0  0  0
   -3.7696    1.5685   -1.0678 C   0  0  0  0  0  0  0  0  0  0  0  0
   -2.6314    1.0326   -0.4315 C   0  0  0  0  0  0  0  0  0  0  0  0
   -4.9597    3.2025   -2.6178 C   0  0  0  0  0  0  0  0  0  0  0  0
    3.7154   -0.7301    0.8748 C   0  0  0  0  0  0  0  0  0  0  0  0
    3.1048   -0.8715    2.2744 C   0  0  0  0  0  0  0  0  0  0  0  0
    4.3045   -2.0482    0.3634 C   0  0  0  0  0  0  0  0  0  0  0  0
    3.2373    0.1595   -1.9593 C   0  0  0  0  0  0  0  0  0  0  0  0
    2.2255    0.8025   -2.9157 C   0  0  0  0  0  0  0  0  0  0  0  0
    4.5749    0.9045   -1.9421 C   0  0  0  0  0  0  0  0  0  0  0  0
   -4.3887   -1.4092    0.3692 C   0  0  0  0  0  0  0  0  0  0  0  0
   -4.6143   -2.5290    1.3972 C   0  0  0  0  0  0  0  0  0  0  0  0
   -4.3894   -1.9655   -1.0629 C   0  0  0  0  0  0  0  0  0  0  0  0
   -2.7114    0.0711    2.5522 C   0  0  0  0  0  0  0  0  0  0  0  0
   -1.3707    0.6813    2.9816 C   0  0  0  0  0  0  0  0  0  0  0  0
   -3.8878    1.0062    2.8719 C   0  0  0  0  0  0  0  0  0  0  0  0
    4.1992    2.2334    0.8526 H   0  0  0  0  0  0  0  0  0  0  0  0
    1.1984    5.2706    1.5137 H   0  0  0  0  0  0  0  0  0  0  0  0
   -0.5679    3.7466    0.7097 H   0  0  0  0  0  0  0  0  0  0  0  0
    3.7091    5.1119    2.8046 H   0  0  0  0  0  0  0  0  0  0  0  0
    4.9081    4.3583    1.7108 H   0  0  0  0  0  0  0  0  0  0  0  0
    3.9353    5.7557    1.1590 H   0  0  0  0  0  0  0  0  0  0  0  0
   -0.3077    3.0861   -1.9197 H   0  0  0  0  0  0  0  0  0  0  0  0
   -2.3460    3.9847   -3.0107 H   0  0  0  0  0  0  0  0  0  0  0  0
   -4.7576    1.1305   -0.8463 H   0  0  0  0  0  0  0  0  0  0  0  0
   -5.2045    4.2096   -2.2155 H   0  0  0  0  0  0  0  0  0  0  0  0
   -5.8380    2.5521   -2.4373 H   0  0  0  0  0  0  0  0  0  0  0  0
   -4.8413    3.3186   -3.7154 H   0  0  0  0  0  0  0  0  0  0  0  0
    4.5274    0.0296    0.9144 H   0  0  0  0  0  0  0  0  0  0  0  0
    2.6916    0.0897    2.6384 H   0  0  0  0  0  0  0  0  0  0  0  0
    3.8731   -1.2159    2.9971 H   0  0  0  0  0  0  0  0  0  0  0  0
    2.2777   -1.6109    2.2695 H   0  0  0  0  0  0  0  0  0  0  0  0
    4.7532   -1.9551   -0.6459 H   0  0  0  0  0  0  0  0  0  0  0  0
    5.1051   -2.3940    1.0497 H   0  0  0  0  0  0  0  0  0  0  0  0
    3.5373   -2.8467    0.3267 H   0  0  0  0  0  0  0  0  0  0  0  0
    3.4114   -0.8947   -2.2743 H   0  0  0  0  0  0  0  0  0  0  0  0
    1.2642    0.2506   -2.9289 H   0  0  0  0  0  0  0  0  0  0  0  0
    2.6329    0.8342   -3.9471 H   0  0  0  0  0  0  0  0  0  0  0  0
    2.0032    1.8440   -2.6047 H   0  0  0  0  0  0  0  0  0  0  0  0
    5.3238    0.4253   -1.2801 H   0  0  0  0  0  0  0  0  0  0  0  0
    5.0065    0.9368   -2.9643 H   0  0  0  0  0  0  0  0  0  0  0  0
    4.4361    1.9517   -1.6053 H   0  0  0  0  0  0  0  0  0  0  0  0
   -5.2222   -0.6756    0.4692 H   0  0  0  0  0  0  0  0  0  0  0  0
   -4.7154   -2.1400    2.4312 H   0  0  0  0  0  0  0  0  0  0  0  0
   -5.5350   -3.1111    1.1705 H   0  0  0  0  0  0  0  0  0  0  0  0
   -3.7649   -3.2456    1.3933 H   0  0  0  0  0  0  0  0  0  0  0  0
   -4.2695   -1.1648   -1.8209 H   0  0  0  0  0  0  0  0  0  0  0  0
   -5.3321   -2.5113   -1.2901 H   0  0  0  0  0  0  0  0  0  0  0  0
   -3.5441   -2.6710   -1.2018 H   0  0  0  0  0  0  0  0  0  0  0  0
   -2.8529   -0.8771    3.1225 H   0  0  0  0  0  0  0  0  0  0  0  0
   -0.5173    0.0195    2.7273 H   0  0  0  0  0  0  0  0  0  0  0  0
   -1.3464    0.8725    4.0775 H   0  0  0  0  0  0  0  0  0  0  0  0
   -1.1844    1.6493    2.4725 H   0  0  0  0  0  0  0  0  0  0  0  0
   -4.8701    0.5395    2.6495 H   0  0  0  0  0  0  0  0  0  0  0  0
   -3.8977    1.3019    3.9444 H   0  0  0  0  0  0  0  0  0  0  0  0
   -3.8261    1.9408    2.2741 H   0  0  0  0  0  0  0  0  0  0  0  0
  1  5  1  0  0  0  0
  1 19  1  0  0  0  0
  2 28  1  0  0  0  0
  3  2  1  0  0  0  0
  4 10  1  0  0  0  0
  5  6  1  0  0  0  0
  6 31  1  0  0  0  0
  6  7  2  0  0  0  0
  7 11  1  0  0  0  0
  8  7  1  0  0  0  0
  8 32  1  0  0  0  0
  9  8  2  0  0  0  0
 10  5  2  0  0  0  0
 10  9  1  0  0  0  0
 11 34  1  0  0  0  0
 12 17  1  0  0  0  0
 12  4  1  0  0  0  0
 13 12  2  0  0  0  0
 14 15  2  0  0  0  0
 14 13  1  0  0  0  0
 15 16  1  0  0  0  0
 16 39  1  0  0  0  0
 16 17  2  0  0  0  0
 17  2  1  0  0  0  0
 18 41  1  0  0  0  0
 18 40  1  0  0  0  0
 18 15  1  0  0  0  0
 19 43  1  0  0  0  0
 19 20  1  0  0  0  0
 20 44  1  0  0  0  0
 20 45  1  0  0  0  0
 21 19  1  0  0  0  0
 21 48  1  0  0  0  0
 22 24  1  0  0  0  0
 22  1  1  0  0  0  0
 23 53  1  0  0  0  0
 23 22  1  0  0  0  0
 24 56  1  0  0  0  0
 24 54  1  0  0  0  0
 25 57  1  0  0  0  0
 25  2  1  0  0  0  0
 25 26  1  0  0  0  0
 26 58  1  0  0  0  0
 27 25  1  0  0  0  0
 28 30  1  0  0  0  0
 28 29  1  0  0  0  0
 28 64  1  0  0  0  0
 29 66  1  0  0  0  0
 30 69  1  0  0  0  0
 33  9  1  0  0  0  0
 35 11  1  0  0  0  0
 36 11  1  0  0  0  0
 37 13  1  0  0  0  0
 38 14  1  0  0  0  0
 42 18  1  0  0  0  0
 46 20  1  0  0  0  0
 47 21  1  0  0  0  0
 49 21  1  0  0  0  0
 50 22  1  0  0  0  0
 51 23  1  0  0  0  0
 52 23  1  0  0  0  0
 55 24  1  0  0  0  0
 59 26  1  0  0  0  0
 60 26  1  0  0  0  0
 61 27  1  0  0  0  0
 62 27  1  0  0  0  0
 63 27  1  0  0  0  0
 65 29  1  0  0  0  0
 67 29  1  0  0  0  0
 68 30  1  0  0  0  0
 70 30  1  0  0  0  0
M  END
