1,2,5
q = -1.0, confidence = 0.012

 47 50  0  0  0  0  0  0  0  0999 V2000
    1.1103   -0.0173   -0.0079 P   0  0  0  0  0  0  0  0  0  0  0  0
   -1.4877    1.0352    0.1268 N   0  0  0  0  0  2  0  0  0  0  0  0
   -2.7731    1.3215   -0.0731 C   0  0  0  0  0  0  0  0  0  0  0  0
   -3.8717    0.4258   -0.0656 C   0  0  0  0  0  0  0  0  0  0  0  0
   -2.5577   -1.5575    0.3690 O   0  5  0  0  0  0  0  0  0  0  0  0
   -3.7047   -0.9923    0.2006 C   0  0  0  0  0  0  0  0  0  0  0  0
   -4.8934   -1.7942    0.2653 C   0  0  0  0  0  0  0  0  0  0  0  0
   -6.1458   -1.2433    0.0471 C   0  0  0  0  0  0  0  0  0  0  0  0
   -6.3050    0.1424   -0.2371 C   0  0  0  0  0  0  0  0  0  0  0  0
   -5.1838    0.9518   -0.2880 C   0  0  0  0  0  3  0  0  0  0  0  0
   -0.5528    2.1116    0.2079 C   0  0  0  0  0  0  0  0  0  0  0  0
    0.8223    1.7855    0.1084 C   0  0  0  0  0  0  0  0  0  0  0  0
    1.8119    2.7776    0.1785 C   0  0  0  0  0  0  0  0  0  0  0  0
    1.4484    4.1211    0.3482 C   0  0  0  0  0  0  0  0  0  0  0  0
    0.0883    4.4521    0.4703 C   0  0  0  0  0  0  0  0  0  0  0  0
   -0.9051    3.4661    0.4104 C   0  0  0  0  0  0  0  0  0  0  0  0
    2.4052   -0.3786    1.2309 C   0  0  0  0  0  0  0  0  0  0  0  0
    3.7654   -0.1365    0.9537 C   0  0  0  0  0  0  0  0  0  0  0  0
    4.7287   -0.3491    1.9518 C   0  0  0  0  0  0  0  0  0  0  0  0
    4.3384   -0.8072    3.2202 C   0  0  0  0  0  0  0  0  0  0  0  0
    2.9837   -1.0635    3.4897 C   0  0  0  0  0  0  0  0  0  0  0  0
    2.0161   -0.8552    2.4977 C   0  0  0  0  0  0  0  0  0  0  0  0
    1.8913   -0.3112   -1.6359 C   0  0  0  0  0  0  0  0  0  0  0  0
    2.4156   -1.5927   -1.9133 C   0  0  0  0  0  0  0  0  0  0  0  0
    2.9891   -1.8532   -3.1644 C   0  0  0  0  0  0  0  0  0  0  0  0
    3.0368   -0.8490   -4.1463 C   0  0  0  0  0  0  0  0  0  0  0  0
    2.5041    0.4207   -3.8758 C   0  0  0  0  0  0  0  0  0  0  0  0
    1.9297    0.6925   -2.6244 C   0  0  0  0  0  0  0  0  0  0  0  0
   -3.0308    2.3789   -0.2633 H   0  0  0  0  0  0  0  0  0  0  0  0
   -4.7577   -2.8642    0.4784 H   0  0  0  0  0  0  0  0  0  0  0  0
   -7.0354   -1.8914    0.0923 H   0  0  0  0  0  0  0  0  0  0  0  0
   -7.3069    0.5618   -0.4076 H   0  0  0  0  0  0  0  0  0  0  0  0
   -5.2851    2.0297   -0.4952 H   0  0  0  0  0  0  0  0  0  0  0  0
    2.8727    2.4918    0.1148 H   0  0  0  0  0  0  0  0  0  0  0  0
    2.2201    4.9024    0.4099 H   0  0  0  0  0  0  0  0  0  0  0  0
   -0.2084    5.4990    0.6358 H   0  0  0  0  0  0  0  0  0  0  0  0
   -1.9534    3.7599    0.5555 H   0  0  0  0  0  0  0  0  0  0  0  0
    4.0737    0.2005   -0.0481 H   0  0  0  0  0  0  0  0  0  0  0  0
    5.7914   -0.1632    1.7335 H   0  0  0  0  0  0  0  0  0  0  0  0
    5.0964   -0.9780    3.9998 H   0  0  0  0  0  0  0  0  0  0  0  0
    2.6788   -1.4420    4.4770 H   0  0  0  0  0  0  0  0  0  0  0  0
    0.9577   -1.0940    2.6786 H   0  0  0  0  0  0  0  0  0  0  0  0
    2.3419   -2.3814   -1.1495 H   0  0  0  0  0  0  0  0  0  0  0  0
    3.3965   -2.8532   -3.3768 H   0  0  0  0  0  0  0  0  0  0  0  0
    3.4869   -1.0594   -5.1285 H   0  0  0  0  0  0  0  0  0  0  0  0
    2.5338    1.2086   -4.6436 H   0  0  0  0  0  0  0  0  0  0  0  0
    1.5121    1.6885   -2.4151 H   0  0  0  0  0  0  0  0  0  0  0  0
  1 12  1  0  0  0  0
  1 17  1  0  0  0  0
  2 11  1  0  0  0  0
  3  4  2  0  0  0  0
  3  2  1  0  0  0  0
  4  6  1  0  0  0  0
  6  7  2  0  0  0  0
  6  5  1  0  0  0  0
  7 30  1  0  0  0  0
  8 31  1  0  0  0  0
  8  7  1  0  0  0  0
  9  8  2  0  0  0  0
 10  9  1  0  0  0  0
 10  4  1  0  0  0  0
 11 16  1  0  0  0  0
 12 13  1  0  0  0  0
 12 11  2  0  0  0  0
 13 14  2  0  0  0  0
 14 35  1  0  0  0  0
 14 15  1  0  0  0  0
 15 36  1  0  0  0  0
 16 15  2  0  0  0  0
 16 37  1  0  0  0  0
 17 22  1  0  0  0  0
 18 17  2  0  0  0  0
 18 19  1  0  0  0  0
 19 20  2  0  0  0  0
 20 21  1  0  0  0  0
 20 40  1  0  0  0  0
 21 41  1  0  0  0  0
 22 42  1  0  0  0  0
 22 21  2  0  0  0  0
 23  1  1  0  0  0  0
 24 23  1  0  0  0  0
 24 43  1  0  0  0  0
 25 24  2  0  0  0  0
 26 27  2  0  0  0  0
 26 25  1  0  0  0  0
 27 28  1  0  0  0  0
 28 47  1  0  0  0  0
 28 23  2  0  0  0  0
 29  3  1  0  0  0  0
 32  9  1  0  0  0  0
 33 10  1  0  0  0  0
 34 13  1  0  0  0  0
 38 18  1  0  0  0  0
 39 19  1  0  0  0  0
 44 25  1  0  0  0  0
 45 26  1  0  0  0  0
 46 27  1  0  0  0  0
M  CHG  1   5  -1
M  END
