1,2,4
q = 0.0, confidence = 0.976

 55 57  0  0  0  0  0  0  0  0999 V2000
   -1.3122    0.1462   -0.0204 P   0  0  0  0  0  0  0  0  0  0  0  0
    2.3489   -1.7094   -0.1895 O   0  5  0  0  0  0  0  0  0  0  0  0
    2.9679    0.5207   -0.2150 N   0  0  0  0  0  0  0  0  0  0  0  0
    1.5952    0.7411   -0.3196 N   0  0  0  0  0  2  0  0  0  0  0  0
    5.7878   -0.2907   -0.0770 N   0  3  0  0  0  0  0  0  0  0  0  0
    5.6740    0.6197    1.1194 C   0  0  0  0  0  0  0  0  0  0  0  0
    4.7124    1.1578    1.0362 H   0  0  0  0  0  0  0  0  0  0  0  0
    6.5316    1.3159    1.1124 H   0  0  0  0  0  0  0  0  0  0  0  0
    5.6955    0.0012    2.0348 H   0  0  0  0  0  0  0  0  0  0  0  0
    5.7795    0.5293   -1.3416 C   0  0  0  0  0  0  0  0  0  0  0  0
    5.8763   -0.1539   -2.2045 H   0  0  0  0  0  0  0  0  0  0  0  0
    6.6355    1.2269   -1.3126 H   0  0  0  0  0  0  0  0  0  0  0  0
    4.8164    1.0696   -1.3794 H   0  0  0  0  0  0  0  0  0  0  0  0
    7.0772   -1.0587    0.0063 C   0  0  0  0  0  0  0  0  0  0  0  0
    7.0809   -1.6590    0.9337 H   0  0  0  0  0  0  0  0  0  0  0  0
    7.9190   -0.3436    0.0170 H   0  0  0  0  0  0  0  0  0  0  0  0
    7.1590   -1.7241   -0.8718 H   0  0  0  0  0  0  0  0  0  0  0  0
    4.6479   -1.2932   -0.0890 C   0  0  0  0  0  0  0  0  0  0  0  0
    4.7411   -1.9046    0.8304 H   0  0  0  0  0  0  0  0  0  0  0  0
    4.8155   -1.9704   -0.9498 H   0  0  0  0  0  0  0  0  0  0  0  0
    3.2169   -0.7776   -0.1703 C   0  0  0  0  0  0  0  0  0  0  0  0
    1.2793    2.0110   -0.4748 C   0  0  0  0  0  3  0  0  0  0  0  0
    2.1337    2.7097   -0.5017 H   0  0  0  0  0  0  0  0  0  0  0  0
   -0.0351    2.5856   -0.6742 C   0  0  0  0  0  0  0  0  0  0  0  0
   -0.0758    3.9642   -1.0112 C   0  0  0  0  0  0  0  0  0  0  0  0
    0.8697    4.5258   -1.0615 H   0  0  0  0  0  0  0  0  0  0  0  0
   -1.2820    4.6087   -1.2979 C   0  0  0  0  0  0  0  0  0  0  0  0
   -1.2829    5.6761   -1.5636 H   0  0  0  0  0  0  0  0  0  0  0  0
   -2.4870    3.8882   -1.2592 C   0  0  0  0  0  0  0  0  0  0  0  0
   -3.4401    4.3833   -1.4962 H   0  0  0  0  0  0  0  0  0  0  0  0
   -2.4737    2.5282   -0.9120 C   0  0  0  0  0  0  0  0  0  0  0  0
   -3.4175    1.9634   -0.8750 H   0  0  0  0  0  0  0  0  0  0  0  0
   -1.2673    1.8728   -0.6041 C   0  0  0  0  0  0  0  0  0  0  0  0
   -1.6694    0.2355    1.7749 C   0  0  0  0  0  0  0  0  0  0  0  0
   -1.4156   -0.9072    2.5648 C   0  0  0  0  0  0  0  0  0  0  0  0
   -0.9782   -1.8042    2.0994 H   0  0  0  0  0  0  0  0  0  0  0  0
   -1.7275   -0.8894    3.9314 C   0  0  0  0  0  0  0  0  0  0  0  0
   -1.5370   -1.7839    4.5431 H   0  0  0  0  0  0  0  0  0  0  0  0
   -2.2742    0.2638    4.5178 C   0  0  0  0  0  0  0  0  0  0  0  0
   -2.5137    0.2749    5.5917 H   0  0  0  0  0  0  0  0  0  0  0  0
   -2.5117    1.4046    3.7349 C   0  0  0  0  0  0  0  0  0  0  0  0
   -2.9363    2.3107    4.1924 H   0  0  0  0  0  0  0  0  0  0  0  0
   -2.2120    1.3959    2.3644 C   0  0  0  0  0  0  0  0  0  0  0  0
   -2.4025    2.2928    1.7573 H   0  0  0  0  0  0  0  0  0  0  0  0
   -2.7733   -0.5781   -0.8298 C   0  0  0  0  0  0  0  0  0  0  0  0
   -3.8971   -0.9940   -0.0913 C   0  0  0  0  0  0  0  0  0  0  0  0
   -3.9190   -0.8698    1.0013 H   0  0  0  0  0  0  0  0  0  0  0  0
   -4.9858   -1.5775   -0.7577 C   0  0  0  0  0  0  0  0  0  0  0  0
   -5.8620   -1.9076   -0.1804 H   0  0  0  0  0  0  0  0  0  0  0  0
   -4.9526   -1.7497   -2.1487 C   0  0  0  0  0  0  0  0  0  0  0  0
   -5.8045   -2.2165   -2.6650 H   0  0  0  0  0  0  0  0  0  0  0  0
   -3.8268   -1.3401   -2.8838 C   0  0  0  0  0  0  0  0  0  0  0  0
   -3.7961   -1.4855   -3.9738 H   0  0  0  0  0  0  0  0  0  0  0  0
   -2.7358   -0.7571   -2.2296 C   0  0  0  0  0  0  0  0  0  0  0  0
   -1.8462   -0.4518   -2.8027 H   0  0  0  0  0  0  0  0  0  0  0  0
  1 34  1  0  0  0  0
  2 21  1  0  0  0  0
  3 21  2  0  0  0  0
  4  3  1  0  0  0  0
  5 14  1  0  0  0  0
  5  6  1  0  0  0  0
  6  9  1  0  0  0  0
  7  6  1  0  0  0  0
  8  6  1  0  0  0  0
 10 12  1  0  0  0  0
 10  5  1  0  0  0  0
 11 10  1  0  0  0  0
 13 10  1  0  0  0  0
 14 16  1  0  0  0  0
 14 15  1  0  0  0  0
 17 14  1  0  0  0  0
 18  5  1  0  0  0  0
 18 19  1  0  0  0  0
 20 18  1  0  0  0  0
 21 18  1  0  0  0  0
 22  4  1  0  0  0  0
 23 22  1  0  0  0  0
 24 33  1  0  0  0  0
 24 22  1  0  0  0  0
 25 24  2  0  0  0  0
 26 25  1  0  0  0  0
 27 29  2  0  0  0  0
 27 25  1  0  0  0  0
 28 27  1  0  0  0  0
 29 31  1  0  0  0  0
 30 29  1  0  0  0  0
 31 32  1  0  0  0  0
 31 33  2  0  0  0  0
 33  1  1  0  0  0  0
 34 43  2  0  0  0  0
 34 35  1  0  0  0  0
 35 37  2  0  0  0  0
 36 35  1  0  0  0  0
 37 39  1  0  0  0  0
 37 38  1  0  0  0  0
 39 40  1  0  0  0  0
 41 42  1  0  0  0  0
 41 39  2  0  0  0  0
 43 41  1  0  0  0  0
 44 43  1  0  0  0  0
 45 46  1  0  0  0  0
 45  1  1  0  0  0  0
 46 47  1  0  0  0  0
 48 49  1  0  0  0  0
 48 46  2  0  0  0  0
 50 48  1  0  0  0  0
 51 50  1  0  0  0  0
 52 54  1  0  0  0  0
 52 50  2  0  0  0  0
 53 52  1  0  0  0  0
 54 45  2  0  0  0  0
 55 54  1  0  0  0  0
M  CHG  2   2  -1   5   1
M  END
