1,2,3
q = -1.0, confidence = 0.0

 48 50  0  0  0  0  0  0  0  0999 V2000
    1.0430    0.4812    0.6291 P   0  0  0  0  0  0  0  0  0  0  0  0
   -1.4350   -0.1067   -0.9780 O   0  5  0  0  0  0  0  0  0  0  0  0
   -1.7340   -1.5298    1.4595 N   0  0  0  0  0  0  0  0  0  0  0  0
   -2.4058    0.6994   -0.5314 C   0  0  0  0  0  0  0  0  0  0  0  0
   -2.6003    1.9706   -1.1120 C   0  0  0  0  0  0  0  0  0  0  0  0
   -3.5979    2.8191   -0.6180 C   0  0  0  0  0  0  0  0  0  0  0  0
   -4.4139    2.4144    0.4521 C   0  0  0  0  0  0  0  0  0  0  0  0
   -4.2328    1.1410    1.0149 C   0  0  0  0  0  0  0  0  0  0  0  0
   -3.2417    0.2692    0.5347 C   0  0  0  0  0  0  0  0  0  0  0  0
   -3.1059   -1.1426    1.0378 C   0  0  0  0  0  0  0  0  0  0  0  0
   -1.3104   -1.0147    2.7826 C   0  0  0  0  0  0  0  0  0  0  0  0
   -0.8086    0.4375    2.8186 C   0  0  0  0  0  0  0  0  0  0  0  0
    0.6677    0.6383    2.4384 C   0  0  0  0  0  0  0  0  0  0  0  0
    2.8839    0.4515    0.5974 C   0  0  0  0  0  0  0  0  0  0  0  0
    3.5693   -0.7704    0.4445 C   0  0  0  0  0  0  0  0  0  0  0  0
    4.9722   -0.7888    0.4566 C   0  0  0  0  0  0  0  0  0  0  0  0
    5.6961    0.4028    0.6174 C   0  0  0  0  0  0  0  0  0  0  0  0
    5.0150    1.6219    0.7657 C   0  0  0  0  0  0  0  0  0  0  0  0
    3.6132    1.6490    0.7533 C   0  0  0  0  0  0  0  0  0  0  0  0
    0.6419    2.0886   -0.1467 C   0  0  0  0  0  0  0  0  0  0  0  0
    0.1003    3.1794    0.5581 C   0  0  0  0  0  0  0  0  0  0  0  0
   -0.1611    4.3870   -0.1095 C   0  0  0  0  0  0  0  0  0  0  0  0
    0.1189    4.5097   -1.4782 C   0  0  0  0  0  0  0  0  0  0  0  0
    0.6548    3.4188   -2.1851 C   0  0  0  0  0  0  0  0  0  0  0  0
    0.9122    2.2089   -1.5277 C   0  0  0  0  0  0  0  0  0  0  0  0
   -1.7362   -2.5603    1.5038 H   0  0  0  0  0  0  0  0  0  0  0  0
   -1.9439    2.2741   -1.9387 H   0  0  0  0  0  0  0  0  0  0  0  0
   -3.7342    3.8126   -1.0719 H   0  0  0  0  0  0  0  0  0  0  0  0
   -5.1950    3.0837    0.8414 H   0  0  0  0  0  0  0  0  0  0  0  0
   -4.8816    0.8050    1.8401 H   0  0  0  0  0  0  0  0  0  0  0  0
   -3.8163   -1.3149    1.8768 H   0  0  0  0  0  0  0  0  0  0  0  0
   -3.3579   -1.8496    0.2178 H   0  0  0  0  0  0  0  0  0  0  0  0
   -2.1673   -1.1160    3.4869 H   0  0  0  0  0  0  0  0  0  0  0  0
   -0.5076   -1.6892    3.1443 H   0  0  0  0  0  0  0  0  0  0  0  0
   -1.4731    1.0795    2.2040 H   0  0  0  0  0  0  0  0  0  0  0  0
   -0.9331    0.7915    3.8637 H   0  0  0  0  0  0  0  0  0  0  0  0
    1.0500    1.6184    2.7924 H   0  0  0  0  0  0  0  0  0  0  0  0
    1.3010   -0.1361    2.9202 H   0  0  0  0  0  0  0  0  0  0  0  0
    3.0055   -1.7041    0.3085 H   0  0  0  0  0  0  0  0  0  0  0  0
    5.5023   -1.7447    0.3296 H   0  0  0  0  0  0  0  0  0  0  0  0
    6.7966    0.3833    0.6197 H   0  0  0  0  0  0  0  0  0  0  0  0
    5.5784    2.5600    0.8844 H   0  0  0  0  0  0  0  0  0  0  0  0
    3.0824    2.6089    0.8501 H   0  0  0  0  0  0  0  0  0  0  0  0
   -0.1308    3.0980    1.6300 H   0  0  0  0  0  0  0  0  0  0  0  0
   -0.5913    5.2337    0.4461 H   0  0  0  0  0  0  0  0  0  0  0  0
   -0.0854    5.4575   -1.9992 H   0  0  0  0  0  0  0  0  0  0  0  0
    0.8688    3.5083   -3.2609 H   0  0  0  0  0  0  0  0  0  0  0  0
    1.3123    1.3425   -2.0799 H   0  0  0  0  0  0  0  0  0  0  0  0
  1 13  1  0  0  0  0
  2  4  1  0  0  0  0
  3 26  1  0  0  0  0
  3 11  1  0  0  0  0
  4  9  1  0  0  0  0
  5  6  1  0  0  0  0
  5  4  2  0  0  0  0
  6  7  2  0  0  0  0
  7 29  1  0  0  0  0
  7  8  1  0  0  0  0
  8 30  1  0  0  0  0
  9  8  2  0  0  0  0
  9 10  1  0  0  0  0
 10  3  1  0  0  0  0
 10 31  1  0  0  0  0
 11 12  1  0  0  0  0
 11 34  1  0  0  0  0
 11 33  1  0  0  0  0
 12 36  1  0  0  0  0
 13 37  1  0  0  0  0
 13 12  1  0  0  0  0
 13 38  1  0  0  0  0
 14  1  1  0  0  0  0
 14 19  1  0  0  0  0
 15 16  1  0  0  0  0
 15 14  2  0  0  0  0
 16 17  2  0  0  0  0
 17 41  1  0  0  0  0
 17 18  1  0  0  0  0
 18 42  1  0  0  0  0
 19 18  2  0  0  0  0
 19 43  1  0  0  0  0
 20 21  1  0  0  0  0
 20  1  1  0  0  0  0
 21 44  1  0  0  0  0
 22 45  1  0  0  0  0
 22 21  2  0  0  0  0
 23 22  1  0  0  0  0
 24 25  1  0  0  0  0
 24 23  2  0  0  0  0
 25 20  2  0  0  0  0
 27  5  1  0  0  0  0
 28  6  1  0  0  0  0
 32 10  1  0  0  0  0
 35 12  1  0  0  0  0
 39 15  1  0  0  0  0
 40 16  1  0  0  0  0
 46 23  1  0  0  0  0
 47 24  1  0  0  0  0
 48 25  1  0  0  0  0
M  CHG  1   2  -1
M  END
