1,2,3
q = -1.0

 54 57  0  0  1  0  0  0  0  0999 V2000
    1.7707   -0.0790    0.0342 P   0  0  0  0  0  0  0  0  0  0  0  0
   -2.0877   -2.2236   -0.0541 O   0  5  0  0  0  0  0  0  0  0  0  0
   -1.0215    0.2825   -0.6958 N   0  0  0  0  0  2  0  0  0  0  0  0
    2.0644    0.9793    1.4993 C   0  0  0  0  0  0  0  0  0  0  0  0
   -5.5232   -1.6829    0.5682 F   0  0  0  0  0  0  0  0  0  0  0  0
    1.2194    1.0525   -1.2881 C   0  0  0  0  0  0  0  0  0  0  0  0
    3.4562   -0.6339   -0.4374 C   0  0  0  0  0  0  0  0  0  0  0  0
   -0.1832    1.0905   -1.4991 C   0  0  0  0  0  0  0  0  0  0  0  0
    2.3533    0.3358    2.7215 C   0  0  0  0  0  0  0  0  0  0  0  0
    2.3769   -0.7638    2.7672 H   0  0  0  0  0  0  0  0  0  0  0  0
    3.6218   -1.8319   -1.1620 C   0  0  0  0  0  0  0  0  0  0  0  0
    2.7416   -2.4360   -1.4252 H   0  0  0  0  0  0  0  0  0  0  0  0
   -3.1805   -1.5502    0.1091 C   0  0  0  0  0  0  0  0  0  0  0  0
    2.5872    1.0983    3.8725 C   0  0  0  0  0  0  0  0  0  0  0  0
    2.8106    0.5931    4.8242 H   0  0  0  0  0  0  0  0  0  0  0  0
   -3.2781   -0.1718    0.0928 C   0  0  0  0  0  0  0  0  0  0  0  0
   -4.2444    0.2786    0.3468 H   0  0  0  0  0  0  0  0  0  0  0  0
   -2.5410    2.1707   -0.2674 C   0  0  0  0  0  0  0  0  0  0  0  0
   -4.6522   -3.1811   -0.7634 F   0  0  0  0  0  0  0  0  0  0  0  0
   -0.6821    1.8550   -2.5772 C   0  0  0  0  0  0  0  0  0  0  0  0
   -1.7586    1.8453   -2.7931 H   0  0  0  0  0  0  0  0  0  0  0  0
    4.5866    0.1340   -0.0827 C   0  0  0  0  0  0  0  0  0  0  0  0
    4.4639    1.0565    0.5046 H   0  0  0  0  0  0  0  0  0  0  0  0
   -2.2283    0.7122   -0.3285 C   0  0  1  0  0  3  0  0  0  0  0  0
   -1.9239    4.3775    0.5631 C   0  0  0  0  0  0  0  0  0  0  0  0
   -1.2250    5.0226    1.1168 H   0  0  0  0  0  0  0  0  0  0  0  0
    5.8685   -0.2863   -0.4674 C   0  0  0  0  0  0  0  0  0  0  0  0
    6.7458    0.3167   -0.1880 H   0  0  0  0  0  0  0  0  0  0  0  0
    0.1880    2.5952   -3.3851 C   0  0  0  0  0  0  0  0  0  0  0  0
   -0.2216    3.1777   -4.2241 H   0  0  0  0  0  0  0  0  0  0  0  0
    1.9991    2.3844    1.4434 C   0  0  0  0  0  0  0  0  0  0  0  0
    1.7753    2.8863    0.4898 H   0  0  0  0  0  0  0  0  0  0  0  0
   -3.7300    2.7120   -0.7971 C   0  0  0  0  0  0  0  0  0  0  0  0
   -4.4352    2.0584   -1.3332 H   0  0  0  0  0  0  0  0  0  0  0  0
    4.9076   -2.2439   -1.5404 C   0  0  0  0  0  0  0  0  0  0  0  0
    5.0308   -3.1815   -2.1033 H   0  0  0  0  0  0  0  0  0  0  0  0
   -4.2355   -3.2508    1.3769 F   0  0  0  0  0  0  0  0  0  0  0  0
    6.0306   -1.4743   -1.1975 C   0  0  0  0  0  0  0  0  0  0  0  0
    7.0378   -1.8055   -1.4934 H   0  0  0  0  0  0  0  0  0  0  0  0
   -1.6428    3.0137    0.4240 C   0  0  0  0  0  0  0  0  0  0  0  0
   -0.7395    2.5790    0.8769 H   0  0  0  0  0  0  0  0  0  0  0  0
    2.0860    1.7952   -2.1059 C   0  0  0  0  0  0  0  0  0  0  0  0
    3.1717    1.7375   -1.9344 H   0  0  0  0  0  0  0  0  0  0  0  0
    2.2249    3.1422    2.6047 C   0  0  0  0  0  0  0  0  0  0  0  0
    2.1730    4.2407    2.5578 H   0  0  0  0  0  0  0  0  0  0  0  0
    1.5729    2.5799   -3.1490 C   0  0  0  0  0  0  0  0  0  0  0  0
    2.2540    3.1550   -3.7935 H   0  0  0  0  0  0  0  0  0  0  0  0
    2.5204    2.5013    3.8172 C   0  0  0  0  0  0  0  0  0  0  0  0
    2.6964    3.0966    4.7260 H   0  0  0  0  0  0  0  0  0  0  0  0
   -3.9977    4.0826   -0.6715 C   0  0  0  0  0  0  0  0  0  0  0  0
   -4.9185    4.5010   -1.1049 H   0  0  0  0  0  0  0  0  0  0  0  0
   -3.0955    4.9180    0.0067 C   0  0  0  0  0  0  0  0  0  0  0  0
   -3.3109    5.9923    0.1101 H   0  0  0  0  0  0  0  0  0  0  0  0
   -4.4187   -2.4255    0.3296 C   0  0  0  0  0  0  0  0  0  0  0  0
  1  4  1  0  0  0  0
  2 13  1  0  0  0  0
  4  9  1  0  0  0  0
  6  1  1  0  0  0  0
  7 22  1  0  0  0  0
  7  1  1  0  0  0  0
  8  6  1  0  0  0  0
  8  3  1  0  0  0  0
  9 10  1  0  0  0  0
  9 14  2  0  0  0  0
 11  7  2  0  0  0  0
 12 11  1  0  0  0  0
 13 54  1  0  0  0  0
 14 15  1  0  0  0  0
 16 13  2  0  0  0  0
 16 17  1  0  0  0  0
 18 40  1  0  0  0  0
 19 54  1  0  0  0  0
 20  8  2  0  0  0  0
 21 20  1  0  0  0  0
 22 23  1  0  0  0  0
 24  3  1  1  0  0  0
 24 18  1  0  0  0  0
 24 16  1  0  0  0  0
 25 26  1  0  0  0  0
 27 28  1  0  0  0  0
 27 22  2  0  0  0  0
 29 46  2  0  0  0  0
 29 20  1  0  0  0  0
 30 29  1  0  0  0  0
 31  4  2  0  0  0  0
 31 44  1  0  0  0  0
 32 31  1  0  0  0  0
 33 50  1  0  0  0  0
 33 18  2  0  0  0  0
 34 33  1  0  0  0  0
 35 38  2  0  0  0  0
 35 11  1  0  0  0  0
 36 35  1  0  0  0  0
 38 27  1  0  0  0  0
 39 38  1  0  0  0  0
 40 25  2  0  0  0  0
 40 41  1  0  0  0  0
 42 43  1  0  0  0  0
 42  6  2  0  0  0  0
 44 48  2  0  0  0  0
 45 44  1  0  0  0  0
 46 42  1  0  0  0  0
 47 46  1  0  0  0  0
 48 14  1  0  0  0  0
 48 49  1  0  0  0  0
 50 52  2  0  0  0  0
 51 50  1  0  0  0  0
 52 53  1  0  0  0  0
 52 25  1  0  0  0  0
 54  5  1  0  0  0  0
 54 37  1  0  0  0  0
M  CHG  1   2  -1
M  END
