3,14,25
q = -1.0

 47 50  0  0  0  0  0  0  0  0999 V2000
    3.4254    0.2571    0.0590 C   0  0  0  0  0  0  0  0  0  0  0  0
    3.2568   -1.1836    0.2096 C   0  0  0  0  0  0  0  0  0  0  0  0
    2.1293   -1.7938    0.3241 O   0  5  0  0  0  0  0  0  0  0  0  0
    4.4561   -1.9799    0.2232 C   0  0  0  0  0  0  0  0  0  0  0  0
    4.3233   -3.0637    0.3500 H   0  0  0  0  0  0  0  0  0  0  0  0
    5.7120   -1.4257    0.0644 C   0  0  0  0  0  0  0  0  0  0  0  0
    6.6098   -2.0610    0.0660 H   0  0  0  0  0  0  0  0  0  0  0  0
    5.8584   -0.0202   -0.1059 C   0  0  0  0  0  0  0  0  0  0  0  0
    7.4577    0.6556   -0.3060 Cl  0  0  0  0  0  0  0  0  0  0  0  0
    4.7435    0.7960   -0.1045 C   0  0  0  0  0  3  0  0  0  0  0  0
    4.8667    1.8828   -0.2237 H   0  0  0  0  0  0  0  0  0  0  0  0
    2.3651    1.2050    0.1072 C   0  0  0  0  0  0  0  0  0  0  0  0
    2.6930    2.2567    0.0146 H   0  0  0  0  0  0  0  0  0  0  0  0
    1.0651    0.9946    0.2501 N   0  0  0  0  0  2  0  0  0  0  0  0
    0.1690    2.0907    0.3967 C   0  0  0  0  0  0  0  0  0  0  0  0
   -1.2240    1.8359    0.2883 C   0  0  0  0  0  0  0  0  0  0  0  0
   -2.1635    2.8658    0.4600 C   0  0  0  0  0  0  0  0  0  0  0  0
   -3.2377    2.6323    0.4002 H   0  0  0  0  0  0  0  0  0  0  0  0
   -1.7385    4.1739    0.7298 C   0  0  0  0  0  0  0  0  0  0  0  0
   -2.4736    4.9792    0.8722 H   0  0  0  0  0  0  0  0  0  0  0  0
   -0.3628    4.4344    0.8456 C   0  0  0  0  0  0  0  0  0  0  0  0
   -0.0145    5.4506    1.0846 H   0  0  0  0  0  0  0  0  0  0  0  0
    0.5809    3.4116    0.6925 C   0  0  0  0  0  0  0  0  0  0  0  0
    1.6433    3.6469    0.8414 H   0  0  0  0  0  0  0  0  0  0  0  0
   -1.6783    0.0901   -0.0247 P   0  0  0  0  0  0  0  0  0  0  0  0
   -3.0406   -0.2992    1.1263 C   0  0  0  0  0  0  0  0  0  0  0  0
   -4.3834   -0.0568    0.7737 C   0  0  0  0  0  0  0  0  0  0  0  0
   -4.6315    0.3157   -0.2321 H   0  0  0  0  0  0  0  0  0  0  0  0
   -5.4031   -0.3115    1.7034 C   0  0  0  0  0  0  0  0  0  0  0  0
   -6.4521   -0.1256    1.4273 H   0  0  0  0  0  0  0  0  0  0  0  0
   -5.0863   -0.8121    2.9761 C   0  0  0  0  0  0  0  0  0  0  0  0
   -5.8889   -1.0176    3.7006 H   0  0  0  0  0  0  0  0  0  0  0  0
   -3.7481   -1.0654    3.3209 C   0  0  0  0  0  0  0  0  0  0  0  0
   -3.5008   -1.4746    4.3119 H   0  0  0  0  0  0  0  0  0  0  0  0
   -2.7232   -0.8150    2.3986 C   0  0  0  0  0  0  0  0  0  0  0  0
   -1.6746   -1.0378    2.6473 H   0  0  0  0  0  0  0  0  0  0  0  0
   -2.4029    0.0068   -1.7027 C   0  0  0  0  0  0  0  0  0  0  0  0
   -2.7411   -1.2705   -2.2021 C   0  0  0  0  0  0  0  0  0  0  0  0
   -2.5292   -2.1626   -1.5895 H   0  0  0  0  0  0  0  0  0  0  0  0
   -3.3021   -1.3868   -3.4804 C   0  0  0  0  0  0  0  0  0  0  0  0
   -3.5625   -2.3827   -3.8694 H   0  0  0  0  0  0  0  0  0  0  0  0
   -3.5186   -0.2428   -4.2677 C   0  0  0  0  0  0  0  0  0  0  0  0
   -3.9561   -0.3406   -5.2730 H   0  0  0  0  0  0  0  0  0  0  0  0
   -3.1656    1.0235   -3.7771 C   0  0  0  0  0  0  0  0  0  0  0  0
   -3.3230    1.9203   -4.3952 H   0  0  0  0  0  0  0  0  0  0  0  0
   -2.6057    1.1533   -2.4961 C   0  0  0  0  0  0  0  0  0  0  0  0
   -2.3234    2.1467   -2.1179 H   0  0  0  0  0  0  0  0  0  0  0  0
  1 12  2  0  0  0  0
  1  2  1  0  0  0  0
  2  4  2  0  0  0  0
  2  3  1  0  0  0  0
  4  5  1  0  0  0  0
  6  7  1  0  0  0  0
  6  4  1  0  0  0  0
  8 10  1  0  0  0  0
  8  6  2  0  0  0  0
  9  8  1  0  0  0  0
 10  1  1  0  0  0  0
 11 10  1  0  0  0  0
 12 14  1  0  0  0  0
 13 12  1  0  0  0  0
 14 15  1  0  0  0  0
 15 23  1  0  0  0  0
 16 15  2  0  0  0  0
 16 17  1  0  0  0  0
 17 19  2  0  0  0  0
 18 17  1  0  0  0  0
 19 21  1  0  0  0  0
 19 20  1  0  0  0  0
 21 22  1  0  0  0  0
 23 24  1  0  0  0  0
 23 21  2  0  0  0  0
 25 16  1  0  0  0  0
 25 26  1  0  0  0  0
 26 35  1  0  0  0  0
 27 26  2  0  0  0  0
 27 29  1  0  0  0  0
 28 27  1  0  0  0  0
 29 31  2  0  0  0  0
 30 29  1  0  0  0  0
 31 33  1  0  0  0  0
 31 32  1  0  0  0  0
 33 34  1  0  0  0  0
 35 36  1  0  0  0  0
 35 33  2  0  0  0  0
 37 25  1  0  0  0  0
 38 37  1  0  0  0  0
 38 39  1  0  0  0  0
 40 38  2  0  0  0  0
 41 40  1  0  0  0  0
 42 44  2  0  0  0  0
 42 40  1  0  0  0  0
 43 42  1  0  0  0  0
 44 46  1  0  0  0  0
 45 44  1  0  0  0  0
 46 47  1  0  0  0  0
 46 37  2  0  0  0  0
M  CHG  1   3  -1
M  END
