1,2,4
q = -1.0

 39 39  0  0  1  0  0  0  0  0999 V2000
   -0.5807    1.7240   -0.0416 P   0  0  0  0  0  0  0  0  0  0  0  0
    0.3817   -2.0933   -0.7872 O   0  5  0  0  0  0  0  0  0  0  0  0
   -0.1212   -4.2589   -1.0973 O   0  0  0  0  0  0  0  0  0  0  0  0
   -2.0401   -0.7018   -0.2197 N   0  0  0  0  0  2  0  0  0  0  0  0
   -2.3020    1.6547   -0.7767 C   0  0  0  0  0  0  0  0  0  0  0  0
   -2.9597    2.4789   -0.4320 H   0  0  0  0  0  0  0  0  0  0  0  0
   -2.1736    1.7815   -1.8735 H   0  0  0  0  0  0  0  0  0  0  0  0
   -2.9115    0.3069   -0.5004 C   0  0  1  0  0  3  0  0  0  0  0  0
   -4.2968    0.0875   -0.5320 C   0  0  0  0  0  0  0  0  0  0  0  0
   -4.9746    0.9240   -0.7538 H   0  0  0  0  0  0  0  0  0  0  0  0
   -4.7874   -1.2026   -0.2914 C   0  0  0  0  0  0  0  0  0  0  0  0
   -5.8687   -1.4034   -0.3231 H   0  0  0  0  0  0  0  0  0  0  0  0
   -3.8834   -2.2296    0.0007 C   0  0  0  0  0  0  0  0  0  0  0  0
   -4.2309   -3.2510    0.2098 H   0  0  0  0  0  0  0  0  0  0  0  0
   -2.5051   -1.9534    0.0497 C   0  0  0  0  0  0  0  0  0  0  0  0
   -1.5054   -3.0030    0.4256 C   0  0  0  0  0  0  0  0  0  0  0  0
   -2.0036   -3.9812    0.5464 H   0  0  0  0  0  0  0  0  0  0  0  0
   -1.0494   -2.7247    1.4021 H   0  0  0  0  0  0  0  0  0  0  0  0
   -0.3358   -3.1678   -0.5853 C   0  0  0  0  0  0  0  0  0  0  0  0
   -0.8648    2.5231    1.6278 C   0  0  0  0  0  0  0  0  0  0  0  0
   -1.5156    3.4010    1.4137 H   0  0  0  0  0  0  0  0  0  0  0  0
   -1.6433    1.5517    2.5249 C   0  0  0  0  0  0  0  0  0  0  0  0
   -2.6202    1.2619    2.0876 H   0  0  0  0  0  0  0  0  0  0  0  0
   -1.8436    2.0220    3.5097 H   0  0  0  0  0  0  0  0  0  0  0  0
   -1.0653    0.6236    2.7001 H   0  0  0  0  0  0  0  0  0  0  0  0
    0.4492    3.0061    2.2595 C   0  0  0  0  0  0  0  0  0  0  0  0
    1.2660    2.2664    2.1386 H   0  0  0  0  0  0  0  0  0  0  0  0
    0.2935    3.2230    3.3364 H   0  0  0  0  0  0  0  0  0  0  0  0
    0.8142    3.9344    1.7788 H   0  0  0  0  0  0  0  0  0  0  0  0
    0.3285    2.9681   -1.0822 C   0  0  0  0  0  0  0  0  0  0  0  0
    1.3538    2.8753   -0.6530 H   0  0  0  0  0  0  0  0  0  0  0  0
    0.3672    2.5000   -2.5411 C   0  0  0  0  0  0  0  0  0  0  0  0
    0.6420    1.4313   -2.6196 H   0  0  0  0  0  0  0  0  0  0  0  0
    1.1218    3.0835   -3.1070 H   0  0  0  0  0  0  0  0  0  0  0  0
   -0.6079    2.6476   -3.0522 H   0  0  0  0  0  0  0  0  0  0  0  0
   -0.2068    4.3974   -0.9583 C   0  0  0  0  0  0  0  0  0  0  0  0
   -1.2572    4.4779   -1.3112 H   0  0  0  0  0  0  0  0  0  0  0  0
    0.3999    5.0776   -1.5918 H   0  0  0  0  0  0  0  0  0  0  0  0
   -0.1606    4.7885    0.0760 H   0  0  0  0  0  0  0  0  0  0  0  0
  1 20  1  0  0  0  0
  2 19  1  0  0  0  0
  3 19  2  0  0  0  0
  4 15  1  0  0  0  0
  5  6  1  0  0  0  0
  5  1  1  0  0  0  0
  7  5  1  0  0  0  0
  8  5  1  6  0  0  0
  8  4  1  0  0  0  0
  9  8  1  0  0  0  0
  9 11  2  0  0  0  0
 10  9  1  0  0  0  0
 11 13  1  0  0  0  0
 12 11  1  0  0  0  0
 13 15  2  0  0  0  0
 13 14  1  0  0  0  0
 15 16  1  0  0  0  0
 16 17  1  0  0  0  0
 16 18  1  0  0  0  0
 19 16  1  0  0  0  0
 20 26  1  0  0  0  0
 20 22  1  0  0  0  0
 21 20  1  0  0  0  0
 22 25  1  0  0  0  0
 22 24  1  0  0  0  0
 23 22  1  0  0  0  0
 26 28  1  0  0  0  0
 27 26  1  0  0  0  0
 29 26  1  0  0  0  0
 30 36  1  0  0  0  0
 30 31  1  0  0  0  0
 30  1  1  0  0  0  0
 32 30  1  0  0  0  0
 33 32  1  0  0  0  0
 34 32  1  0  0  0  0
 35 32  1  0  0  0  0
 36 39  1  0  0  0  0
 37 36  1  0  0  0  0
 38 36  1  0  0  0  0
M  CHG  1   2  -1
M  END
