1,2,4
q = -1.0

 47 49  0  0  0  0  0  0  0  0999 V2000
    1.0540   -0.0107    0.0219 P   0  0  0  0  0  0  0  0  0  0  0  0
   -3.1831   -0.7690    0.1912 O   0  5  0  0  0  0  0  0  0  0  0  0
   -5.0556    0.4916    0.0322 O   0  0  0  0  0  0  0  0  0  0  0  0
   -1.7517    1.4269    0.1924 N   0  0  0  0  0  2  0  0  0  0  0  0
   -3.0868    1.5708    0.0741 N   0  0  0  0  0  0  0  0  0  0  0  0
    0.3721    2.7244    0.4722 C   0  0  0  0  0  0  0  0  0  0  0  0
    1.3947    1.7255    0.4756 C   0  0  0  0  0  0  0  0  0  0  0  0
    2.7278    2.0816    0.7645 C   0  0  0  0  0  0  0  0  0  0  0  0
    3.4979    1.2957    0.7840 H   0  0  0  0  0  0  0  0  0  0  0  0
    3.0914    3.4097    1.0211 C   0  0  0  0  0  0  0  0  0  0  0  0
    4.1383    3.6616    1.2449 H   0  0  0  0  0  0  0  0  0  0  0  0
    2.1031    4.4082    0.9854 C   0  0  0  0  0  0  0  0  0  0  0  0
    2.3677    5.4588    1.1782 H   0  0  0  0  0  0  0  0  0  0  0  0
    0.7770    4.0678    0.7179 C   0  0  0  0  0  0  0  0  0  0  0  0
    0.0049    4.8524    0.7102 H   0  0  0  0  0  0  0  0  0  0  0  0
   -1.0532    2.5426    0.2776 C   0  0  0  0  0  3  0  0  0  0  0  0
   -1.6687    3.4588    0.2555 H   0  0  0  0  0  0  0  0  0  0  0  0
   -3.7223    0.3855    0.1033 C   0  0  0  0  0  0  0  0  0  0  0  0
   -5.8020   -0.7423    0.0371 C   0  0  0  0  0  0  0  0  0  0  0  0
   -5.5811   -1.2967    0.9738 H   0  0  0  0  0  0  0  0  0  0  0  0
   -5.4535   -1.3808   -0.8022 H   0  0  0  0  0  0  0  0  0  0  0  0
   -7.2700   -0.3890   -0.0839 C   0  0  0  0  0  0  0  0  0  0  0  0
   -7.8813   -1.3130   -0.0824 H   0  0  0  0  0  0  0  0  0  0  0  0
   -7.4702    0.1599   -1.0254 H   0  0  0  0  0  0  0  0  0  0  0  0
   -7.5969    0.2464    0.7629 H   0  0  0  0  0  0  0  0  0  0  0  0
    1.6227   -0.1799   -1.7169 C   0  0  0  0  0  0  0  0  0  0  0  0
    2.2344    0.8855   -2.4071 C   0  0  0  0  0  0  0  0  0  0  0  0
    2.3826    1.8551   -1.9100 H   0  0  0  0  0  0  0  0  0  0  0  0
    2.6540    0.7066   -3.7347 C   0  0  0  0  0  0  0  0  0  0  0  0
    3.1284    1.5420   -4.2716 H   0  0  0  0  0  0  0  0  0  0  0  0
    2.4689   -0.5288   -4.3736 C   0  0  0  0  0  0  0  0  0  0  0  0
    2.7994   -0.6649   -5.4147 H   0  0  0  0  0  0  0  0  0  0  0  0
    1.8530   -1.5884   -3.6862 C   0  0  0  0  0  0  0  0  0  0  0  0
    1.6965   -2.5558   -4.1870 H   0  0  0  0  0  0  0  0  0  0  0  0
    1.4210   -1.4190   -2.3642 C   0  0  0  0  0  0  0  0  0  0  0  0
    0.9127   -2.2345   -1.8226 H   0  0  0  0  0  0  0  0  0  0  0  0
    2.2181   -0.9933    1.0351 C   0  0  0  0  0  0  0  0  0  0  0  0
    3.4365   -1.4681    0.5147 C   0  0  0  0  0  0  0  0  0  0  0  0
    3.6905   -1.2934   -0.5415 H   0  0  0  0  0  0  0  0  0  0  0  0
    4.3202   -2.1750    1.3461 C   0  0  0  0  0  0  0  0  0  0  0  0
    5.2702   -2.5503    0.9365 H   0  0  0  0  0  0  0  0  0  0  0  0
    3.9909   -2.4069    2.6898 C   0  0  0  0  0  0  0  0  0  0  0  0
    4.6835   -2.9654    3.3376 H   0  0  0  0  0  0  0  0  0  0  0  0
    2.7716   -1.9356    3.2066 C   0  0  0  0  0  0  0  0  0  0  0  0
    2.5056   -2.1275    4.2569 H   0  0  0  0  0  0  0  0  0  0  0  0
    1.8830   -1.2343    2.3829 C   0  0  0  0  0  0  0  0  0  0  0  0
    0.9162   -0.8839    2.7759 H   0  0  0  0  0  0  0  0  0  0  0  0
  1  7  1  0  0  0  0
  1 37  1  0  0  0  0
  3 19  1  0  0  0  0
  3 18  1  0  0  0  0
  4 16  1  0  0  0  0
  5 18  2  0  0  0  0
  5  4  1  0  0  0  0
  6  7  2  0  0  0  0
  6 14  1  0  0  0  0
  7  8  1  0  0  0  0
  8  9  1  0  0  0  0
  8 10  2  0  0  0  0
 10 11  1  0  0  0  0
 12 10  1  0  0  0  0
 12 13  1  0  0  0  0
 14 12  2  0  0  0  0
 15 14  1  0  0  0  0
 16  6  1  0  0  0  0
 17 16  1  0  0  0  0
 18  2  1  0  0  0  0
 19 20  1  0  0  0  0
 21 19  1  0  0  0  0
 22 23  1  0  0  0  0
 22 19  1  0  0  0  0
 22 25  1  0  0  0  0
 24 22  1  0  0  0  0
 26  1  1  0  0  0  0
 27 28  1  0  0  0  0
 27 26  2  0  0  0  0
 29 27  1  0  0  0  0
 30 29  1  0  0  0  0
 31 29  2  0  0  0  0
 31 33  1  0  0  0  0
 32 31  1  0  0  0  0
 33 35  2  0  0  0  0
 34 33  1  0  0  0  0
 35 36  1  0  0  0  0
 35 26  1  0  0  0  0
 37 46  1  0  0  0  0
 38 37  2  0  0  0  0
 38 40  1  0  0  0  0
 39 38  1  0  0  0  0
 40 42  2  0  0  0  0
 41 40  1  0  0  0  0
 42 44  1  0  0  0  0
 42 43  1  0  0  0  0
 44 45  1  0  0  0  0
 46 47  1  0  0  0  0
 46 44  2  0  0  0  0
M  CHG  1   2  -1
M  END
