1,14,25
q = -1.0, confidence = 0.0

 47 49  0  0  1  0  0  0  0  0999 V2000
    2.7595   -1.8576   -0.6474 O   0  0  0  0  0  1  0  0  0  0  0  0
    3.8970   -1.4030   -0.2857 C   0  0  1  0  0  3  0  0  0  0  0  0
    4.1075   -0.1215    0.2729 C   0  0  0  0  0  0  0  0  0  0  0  0
    5.1083    0.1023    0.6666 H   0  0  0  0  0  0  0  0  0  0  0  0
    3.1657    0.9268    0.3006 C   0  0  0  0  0  0  0  0  0  0  0  0
    5.0645   -2.3414   -0.4889 C   0  0  0  0  0  0  0  0  0  0  0  0
    4.8284   -3.3274   -0.0408 H   0  0  0  0  0  0  0  0  0  0  0  0
    6.0057   -1.9509   -0.0603 H   0  0  0  0  0  0  0  0  0  0  0  0
    5.2086   -2.5135   -1.5758 H   0  0  0  0  0  0  0  0  0  0  0  0
    3.6401    2.2150    0.9495 C   0  0  0  0  0  0  0  0  0  0  0  0
    4.2302    2.8469    0.2544 H   0  0  0  0  0  0  0  0  0  0  0  0
    4.3094    1.9579    1.7927 H   0  0  0  0  0  0  0  0  0  0  0  0
    2.8028    2.8253    1.3347 H   0  0  0  0  0  0  0  0  0  0  0  0
    1.9047    0.7938   -0.1747 N   0  0  0  0  0  2  0  0  0  0  0  0
    1.0756    1.9102   -0.4346 C   0  0  0  0  0  0  0  0  0  0  0  0
    1.5335    3.1676   -0.8945 C   0  0  0  0  0  0  0  0  0  0  0  0
    2.5980    3.3210   -1.1097 H   0  0  0  0  0  0  0  0  0  0  0  0
    0.6262    4.2099   -1.1348 C   0  0  0  0  0  0  0  0  0  0  0  0
    1.0084    5.1752   -1.5008 H   0  0  0  0  0  0  0  0  0  0  0  0
   -0.7536    4.0308   -0.9467 C   0  0  0  0  0  0  0  0  0  0  0  0
   -1.4566    4.8515   -1.1507 H   0  0  0  0  0  0  0  0  0  0  0  0
   -1.2296    2.7711   -0.5484 C   0  0  0  0  0  0  0  0  0  0  0  0
   -2.3113    2.5864   -0.4598 H   0  0  0  0  0  0  0  0  0  0  0  0
   -0.3281    1.7272   -0.3018 C   0  0  0  0  0  0  0  0  0  0  0  0
   -0.7521   -0.0212    0.0066 P   0  0  0  0  0  0  0  0  0  0  0  0
   -1.3514   -0.1494    1.7315 C   0  0  0  0  0  0  0  0  0  0  0  0
   -1.4480    0.9800    2.5681 C   0  0  0  0  0  0  0  0  0  0  0  0
   -1.1675    1.9729    2.1851 H   0  0  0  0  0  0  0  0  0  0  0  0
   -1.9030    0.8345    3.8883 C   0  0  0  0  0  0  0  0  0  0  0  0
   -1.9797    1.7191    4.5388 H   0  0  0  0  0  0  0  0  0  0  0  0
   -2.2576   -0.4326    4.3761 C   0  0  0  0  0  0  0  0  0  0  0  0
   -2.6135   -0.5437    5.4118 H   0  0  0  0  0  0  0  0  0  0  0  0
   -2.1510   -1.5604    3.5439 C   0  0  0  0  0  0  0  0  0  0  0  0
   -2.4184   -2.5567    3.9275 H   0  0  0  0  0  0  0  0  0  0  0  0
   -1.6962   -1.4264    2.2256 C   0  0  0  0  0  0  0  0  0  0  0  0
   -1.5787   -2.3043    1.5700 H   0  0  0  0  0  0  0  0  0  0  0  0
   -2.2183   -0.3435   -1.0364 C   0  0  0  0  0  0  0  0  0  0  0  0
   -3.5135   -0.0208   -0.5859 C   0  0  0  0  0  0  0  0  0  0  0  0
   -3.6628    0.3585    0.4369 H   0  0  0  0  0  0  0  0  0  0  0  0
   -4.6138   -0.2007   -1.4389 C   0  0  0  0  0  0  0  0  0  0  0  0
   -5.6256    0.0488   -1.0850 H   0  0  0  0  0  0  0  0  0  0  0  0
   -4.4239   -0.7060   -2.7347 C   0  0  0  0  0  0  0  0  0  0  0  0
   -5.2887   -0.8512   -3.4001 H   0  0  0  0  0  0  0  0  0  0  0  0
   -3.1331   -1.0412   -3.1771 C   0  0  0  0  0  0  0  0  0  0  0  0
   -2.9855   -1.4556   -4.1858 H   0  0  0  0  0  0  0  0  0  0  0  0
   -2.0301   -0.8662   -2.3309 C   0  0  0  0  0  0  0  0  0  0  0  0
   -1.0198   -1.1656   -2.6461 H   0  0  0  0  0  0  0  0  0  0  0  0
  2  1  1  1  0  0  0
  2  3  1  0  0  0  0
  3  5  2  0  0  0  0
  3  4  1  0  0  0  0
  5 10  1  0  0  0  0
  6  2  1  0  0  0  0
  6  8  1  0  0  0  0
  6  7  1  0  0  0  0
  9  6  1  0  0  0  0
 10 13  1  0  0  0  0
 10 12  1  0  0  0  0
 11 10  1  0  0  0  0
 14  5  1  0  0  0  0
 15 24  1  0  0  0  0
 15 14  1  0  0  0  0
 16 15  2  0  0  0  0
 17 16  1  0  0  0  0
 18 20  2  0  0  0  0
 18 16  1  0  0  0  0
 19 18  1  0  0  0  0
 20 22  1  0  0  0  0
 21 20  1  0  0  0  0
 22 23  1  0  0  0  0
 22 24  2  0  0  0  0
 24 25  1  0  0  0  0
 25 26  1  0  0  0  0
 26 35  2  0  0  0  0
 26 27  1  0  0  0  0
 27 29  2  0  0  0  0
 28 27  1  0  0  0  0
 29 31  1  0  0  0  0
 29 30  1  0  0  0  0
 31 32  1  0  0  0  0
 33 34  1  0  0  0  0
 33 31  2  0  0  0  0
 35 33  1  0  0  0  0
 36 35  1  0  0  0  0
 37 38  1  0  0  0  0
 37 25  1  0  0  0  0
 38 39  1  0  0  0  0
 40 41  1  0  0  0  0
 40 38  2  0  0  0  0
 42 40  1  0  0  0  0
 43 42  1  0  0  0  0
 44 42  2  0  0  0  0
 44 46  1  0  0  0  0
 45 44  1  0  0  0  0
 46 37  2  0  0  0  0
 47 46  1  0  0  0  0
M  END
