1,2,3
q = -1.0

 46 47  0  0  1  0  0  0  0  0999 V2000
    0.4359    1.6515   -0.0291 P   0  0  0  0  0  0  0  0  0  0  0  0
   -1.0886   -2.3806   -0.2071 O   0  5  0  0  0  0  0  0  0  0  0  0
   -2.0243    0.1499   -0.2188 N   0  0  0  0  0  2  0  0  0  0  0  0
   -2.9354   -0.8598   -0.1402 C   0  0  1  0  0  3  0  0  0  0  0  0
   -2.3832   -2.2013   -0.1464 C   0  0  0  0  0  0  0  0  0  0  0  0
   -3.3300   -3.2520   -0.0806 C   0  0  0  0  0  0  0  0  0  0  0  0
   -2.9588   -4.2871   -0.0890 H   0  0  0  0  0  0  0  0  0  0  0  0
   -4.7130   -2.9816    0.0011 C   0  0  0  0  0  0  0  0  0  0  0  0
   -5.4072   -3.8354    0.0541 H   0  0  0  0  0  0  0  0  0  0  0  0
   -5.2367   -1.6844    0.0216 C   0  0  0  0  0  0  0  0  0  0  0  0
   -6.3195   -1.5070    0.0926 H   0  0  0  0  0  0  0  0  0  0  0  0
   -4.3419   -0.5860   -0.0494 C   0  0  0  0  0  0  0  0  0  0  0  0
   -4.7087    0.7931   -0.0287 C   0  0  0  0  0  0  0  0  0  0  0  0
   -5.7744    1.0602    0.0504 H   0  0  0  0  0  0  0  0  0  0  0  0
   -3.7464    1.7933   -0.1061 C   0  0  0  0  0  0  0  0  0  0  0  0
   -4.0361    2.8542   -0.0938 H   0  0  0  0  0  0  0  0  0  0  0  0
   -2.3721    1.4416   -0.2115 C   0  0  0  0  0  0  0  0  0  0  0  0
   -1.2505    2.4377   -0.3709 C   0  0  0  0  0  0  0  0  0  0  0  0
   -1.4055    3.3418    0.2534 H   0  0  0  0  0  0  0  0  0  0  0  0
   -1.2272    2.7941   -1.4232 H   0  0  0  0  0  0  0  0  0  0  0  0
    0.8186    2.1710    1.7653 C   0  0  0  0  0  0  0  0  0  0  0  0
   -0.3629    1.6303    2.5975 C   0  0  0  0  0  0  0  0  0  0  0  0
   -0.1620    1.8231    3.6722 H   0  0  0  0  0  0  0  0  0  0  0  0
   -0.4883    0.5371    2.4590 H   0  0  0  0  0  0  0  0  0  0  0  0
   -1.3250    2.1193    2.3454 H   0  0  0  0  0  0  0  0  0  0  0  0
    0.9395    3.6900    1.9568 C   0  0  0  0  0  0  0  0  0  0  0  0
    1.0125    3.9118    3.0426 H   0  0  0  0  0  0  0  0  0  0  0  0
    0.0622    4.2460    1.5687 H   0  0  0  0  0  0  0  0  0  0  0  0
    1.8510    4.0982    1.4797 H   0  0  0  0  0  0  0  0  0  0  0  0
    2.1093    1.4738    2.2305 C   0  0  0  0  0  0  0  0  0  0  0  0
    3.0098    1.8759    1.7308 H   0  0  0  0  0  0  0  0  0  0  0  0
    2.0778    0.3836    2.0431 H   0  0  0  0  0  0  0  0  0  0  0  0
    2.2326    1.6362    3.3220 H   0  0  0  0  0  0  0  0  0  0  0  0
    1.5584    2.4829   -1.3221 C   0  0  0  0  0  0  0  0  0  0  0  0
    1.1648    1.8251   -2.6606 C   0  0  0  0  0  0  0  0  0  0  0  0
    1.8199    2.2181   -3.4664 H   0  0  0  0  0  0  0  0  0  0  0  0
    0.1170    2.0470   -2.9478 H   0  0  0  0  0  0  0  0  0  0  0  0
    1.2744    0.7245   -2.6229 H   0  0  0  0  0  0  0  0  0  0  0  0
    1.3642    4.0051   -1.4294 C   0  0  0  0  0  0  0  0  0  0  0  0
    1.6610    4.5391   -0.5086 H   0  0  0  0  0  0  0  0  0  0  0  0
    0.3206    4.2870   -1.6726 H   0  0  0  0  0  0  0  0  0  0  0  0
    2.0029    4.3878   -2.2537 H   0  0  0  0  0  0  0  0  0  0  0  0
    3.0275    2.1572   -1.0015 C   0  0  0  0  0  0  0  0  0  0  0  0
    3.6601    2.4445   -1.8677 H   0  0  0  0  0  0  0  0  0  0  0  0
    3.1820    1.0769   -0.8107 H   0  0  0  0  0  0  0  0  0  0  0  0
    3.3933    2.7263   -0.1251 H   0  0  0  0  0  0  0  0  0  0  0  0
  1 21  1  0  0  0  0
  2  5  1  0  0  0  0
  3 17  1  0  0  0  0
  4  3  1  1  0  0  0
  4 12  1  0  0  0  0
  5  4  1  0  0  0  0
  5  6  2  0  0  0  0
  6  8  1  0  0  0  0
  7  6  1  0  0  0  0
  8 10  2  0  0  0  0
  8  9  1  0  0  0  0
 10 11  1  0  0  0  0
 12 13  2  0  0  0  0
 12 10  1  0  0  0  0
 13 14  1  0  0  0  0
 15 16  1  0  0  0  0
 15 13  1  0  0  0  0
 17 15  2  0  0  0  0
 18 17  1  0  0  0  0
 18  1  1  0  0  0  0
 18 19  1  0  0  0  0
 20 18  1  0  0  0  0
 21 26  1  0  0  0  0
 21 30  1  0  0  0  0
 21 22  1  0  0  0  0
 22 23  1  0  0  0  0
 24 22  1  0  0  0  0
 25 22  1  0  0  0  0
 26 27  1  0  0  0  0
 28 26  1  0  0  0  0
 29 26  1  0  0  0  0
 30 33  1  0  0  0  0
 31 30  1  0  0  0  0
 32 30  1  0  0  0  0
 34 43  1  0  0  0  0
 34  1  1  0  0  0  0
 35 38  1  0  0  0  0
 35 34  1  0  0  0  0
 36 35  1  0  0  0  0
 37 35  1  0  0  0  0
 39 34  1  0  0  0  0
 39 40  1  0  0  0  0
 41 39  1  0  0  0  0
 42 39  1  0  0  0  0
 43 45  1  0  0  0  0
 43 46  1  0  0  0  0
 44 43  1  0  0  0  0
M  CHG  1   2  -1
M  END
