15,16,17
q = 0.0, confidence = 0.992

 83 88  0  0  0  0  0  0  0  0999 V2000
    0.0101    1.4961   -2.1666 C   0  0  0  0  0  0  0  0  0  0  0  0
   -0.6457    2.0781   -2.8472 H   0  0  0  0  0  0  0  0  0  0  0  0
    1.0374    1.8958   -2.2971 H   0  0  0  0  0  0  0  0  0  0  0  0
    1.2939   -0.7559   -2.1647 C   0  0  0  0  0  0  0  0  0  0  0  0
    2.1269   -0.4787   -2.8439 H   0  0  0  0  0  0  0  0  0  0  0  0
    1.1266   -1.8454   -2.2955 H   0  0  0  0  0  0  0  0  0  0  0  0
   -1.2983   -0.7417   -2.1673 C   0  0  0  0  0  0  0  0  0  0  0  0
   -1.4737   -1.6016   -2.8468 H   0  0  0  0  0  0  0  0  0  0  0  0
   -2.1578   -0.0519   -2.2994 H   0  0  0  0  0  0  0  0  0  0  0  0
    0.0023   -0.0007   -2.6076 C   0  0  0  0  0  0  0  0  0  0  0  0
    0.0039   -0.0011   -4.1530 C   0  0  0  0  0  0  0  0  0  0  0  0
   -0.9397    0.4264   -4.5501 H   0  0  0  0  0  0  0  0  0  0  0  0
    0.1059   -1.0325   -4.5486 H   0  0  0  0  0  0  0  0  0  0  0  0
    0.8466    0.6025   -4.5483 H   0  0  0  0  0  0  0  0  0  0  0  0
   -0.4622    1.8464   -0.3939 P   0  0  0  0  0  0  0  0  0  0  0  0
    1.8315   -0.5222   -0.3913 P   0  0  0  0  0  0  0  0  0  0  0  0
   -1.3669   -1.3238   -0.3941 P   0  0  0  0  0  0  0  0  0  0  0  0
   -2.2870    2.1353   -0.4469 C   0  0  0  0  0  0  0  0  0  0  0  0
   -3.0385    1.6324    0.6348 C   0  0  0  0  0  0  0  0  0  0  0  0
   -2.5144    1.1095    1.4527 H   0  0  0  0  0  0  0  0  0  0  0  0
   -4.4341    1.7777    0.6535 C   0  0  0  0  0  0  0  0  0  0  0  0
   -5.0116    1.3625    1.4928 H   0  0  0  0  0  0  0  0  0  0  0  0
   -5.0882    2.4204   -0.4079 C   0  0  0  0  0  0  0  0  0  0  0  0
   -6.1844    2.5196   -0.4014 H   0  0  0  0  0  0  0  0  0  0  0  0
   -4.3428    2.9379   -1.4817 C   0  0  0  0  0  0  0  0  0  0  0  0
   -4.8530    3.4537   -2.3098 H   0  0  0  0  0  0  0  0  0  0  0  0
   -2.9469    2.8020   -1.4989 C   0  0  0  0  0  0  0  0  0  0  0  0
   -2.3719    3.2254   -2.3378 H   0  0  0  0  0  0  0  0  0  0  0  0
    0.2114    3.5240   -0.0635 C   0  0  0  0  0  0  0  0  0  0  0  0
    0.7287    4.3979   -1.0390 C   0  0  0  0  0  0  0  0  0  0  0  0
    0.7082    4.1239   -2.1043 H   0  0  0  0  0  0  0  0  0  0  0  0
    1.2880    5.6279   -0.6578 C   0  0  0  0  0  0  0  0  0  0  0  0
    1.6985    6.3013   -1.4260 H   0  0  0  0  0  0  0  0  0  0  0  0
    1.3237    5.9995    0.6951 C   0  0  0  0  0  0  0  0  0  0  0  0
    1.7635    6.9644    0.9903 H   0  0  0  0  0  0  0  0  0  0  0  0
    0.8028    5.1331    1.6719 C   0  0  0  0  0  0  0  0  0  0  0  0
    0.8362    5.4144    2.7356 H   0  0  0  0  0  0  0  0  0  0  0  0
    0.2587    3.8972    1.2985 C   0  0  0  0  0  0  0  0  0  0  0  0
   -0.1035    3.1910    2.0652 H   0  0  0  0  0  0  0  0  0  0  0  0
    2.9952    0.9128   -0.4445 C   0  0  0  0  0  0  0  0  0  0  0  0
    2.9327    1.8187    0.6340 C   0  0  0  0  0  0  0  0  0  0  0  0
    2.2152    1.6294    1.4503 H   0  0  0  0  0  0  0  0  0  0  0  0
    3.7571    2.9541    0.6516 C   0  0  0  0  0  0  0  0  0  0  0  0
    3.6842    3.6647    1.4883 H   0  0  0  0  0  0  0  0  0  0  0  0
    4.6446    3.1948   -0.4077 C   0  0  0  0  0  0  0  0  0  0  0  0
    5.2795    4.0940   -0.4021 H   0  0  0  0  0  0  0  0  0  0  0  0
    4.7230    2.2868   -1.4780 C   0  0  0  0  0  0  0  0  0  0  0  0
    5.4279    2.4672   -2.3044 H   0  0  0  0  0  0  0  0  0  0  0  0
    3.9063    1.1466   -1.4942 C   0  0  0  0  0  0  0  0  0  0  0  0
    3.9876    0.4338   -2.3302 H   0  0  0  0  0  0  0  0  0  0  0  0
    2.9466   -1.9449   -0.0599 C   0  0  0  0  0  0  0  0  0  0  0  0
    3.4448   -2.8299   -1.0354 C   0  0  0  0  0  0  0  0  0  0  0  0
    3.2183   -2.6745   -2.1008 H   0  0  0  0  0  0  0  0  0  0  0  0
    4.2297   -3.9296   -0.6542 C   0  0  0  0  0  0  0  0  0  0  0  0
    4.6077   -4.6219   -1.4223 H   0  0  0  0  0  0  0  0  0  0  0  0
    4.5330   -4.1467    0.6988 C   0  0  0  0  0  0  0  0  0  0  0  0
    5.1482   -5.0103    0.9941 H   0  0  0  0  0  0  0  0  0  0  0  0
    4.0432   -3.2623    1.6756 C   0  0  0  0  0  0  0  0  0  0  0  0
    4.2698   -3.4322    2.7393 H   0  0  0  0  0  0  0  0  0  0  0  0
    3.2456   -2.1727    1.3021 C   0  0  0  0  0  0  0  0  0  0  0  0
    2.8152   -1.5059    2.0688 H   0  0  0  0  0  0  0  0  0  0  0  0
   -0.7064   -3.0493   -0.4463 C   0  0  0  0  0  0  0  0  0  0  0  0
   -0.9575   -3.9550   -1.4966 C   0  0  0  0  0  0  0  0  0  0  0  0
   -1.6141   -3.6690   -2.3337 H   0  0  0  0  0  0  0  0  0  0  0  0
   -0.3782   -5.2323   -1.4798 C   0  0  0  0  0  0  0  0  0  0  0  0
   -0.5726   -5.9327   -2.3067 H   0  0  0  0  0  0  0  0  0  0  0  0
    0.4456   -5.6184   -0.4081 C   0  0  0  0  0  0  0  0  0  0  0  0
    0.9072   -6.6177   -0.4020 H   0  0  0  0  0  0  0  0  0  0  0  0
    0.6788   -4.7298    0.6518 C   0  0  0  0  0  0  0  0  0  0  0  0
    1.3293   -5.0220    1.4896 H   0  0  0  0  0  0  0  0  0  0  0  0
    0.1076   -3.4482    0.6336 C   0  0  0  0  0  0  0  0  0  0  0  0
    0.3010   -2.7321    1.4502 H   0  0  0  0  0  0  0  0  0  0  0  0
   -3.1568   -1.5776   -0.0641 C   0  0  0  0  0  0  0  0  0  0  0  0
   -4.1718   -1.5660   -1.0400 C   0  0  0  0  0  0  0  0  0  0  0  0
   -3.9237   -1.4466   -2.1052 H   0  0  0  0  0  0  0  0  0  0  0  0
   -5.5169   -1.6960   -0.6593 C   0  0  0  0  0  0  0  0  0  0  0  0
   -6.3050   -1.6767   -1.4278 H   0  0  0  0  0  0  0  0  0  0  0  0
   -5.8570   -1.8511    0.6934 C   0  0  0  0  0  0  0  0  0  0  0  0
   -6.9127   -1.9524    0.9882 H   0  0  0  0  0  0  0  0  0  0  0  0
   -4.8466   -1.8697    1.6706 C   0  0  0  0  0  0  0  0  0  0  0  0
   -5.1074   -1.9815    2.7342 H   0  0  0  0  0  0  0  0  0  0  0  0
   -3.5041   -1.7233    1.2978 C   0  0  0  0  0  0  0  0  0  0  0  0
   -2.7118   -1.6843    2.0648 H   0  0  0  0  0  0  0  0  0  0  0  0
  1 15  1  0  0  0  0
  2  1  1  0  0  0  0
  3  1  1  0  0  0  0
  4 16  1  0  0  0  0
  5  4  1  0  0  0  0
  6  4  1  0  0  0  0
  7 17  1  0  0  0  0
  8  7  1  0  0  0  0
  9  7  1  0  0  0  0
 10  7  1  0  0  0  0
 10  1  1  0  0  0  0
 10  4  1  0  0  0  0
 11 10  1  0  0  0  0
 12 11  1  0  0  0  0
 13 11  1  0  0  0  0
 14 11  1  0  0  0  0
 15 29  1  0  0  0  0
 16 51  1  0  0  0  0
 17 73  1  0  0  0  0
 18 15  1  0  0  0  0
 18 19  1  0  0  0  0
 19 21  2  0  0  0  0
 19 20  1  0  0  0  0
 21 22  1  0  0  0  0
 23 24  1  0  0  0  0
 23 21  1  0  0  0  0
 25 23  2  0  0  0  0
 26 25  1  0  0  0  0
 27 25  1  0  0  0  0
 27 18  2  0  0  0  0
 28 27  1  0  0  0  0
 29 38  1  0  0  0  0
 30 32  1  0  0  0  0
 30 29  2  0  0  0  0
 31 30  1  0  0  0  0
 32 34  2  0  0  0  0
 33 32  1  0  0  0  0
 34 35  1  0  0  0  0
 34 36  1  0  0  0  0
 36 37  1  0  0  0  0
 38 36  2  0  0  0  0
 38 39  1  0  0  0  0
 40 16  1  0  0  0  0
 40 41  1  0  0  0  0
 41 43  2  0  0  0  0
 41 42  1  0  0  0  0
 43 44  1  0  0  0  0
 45 46  1  0  0  0  0
 45 43  1  0  0  0  0
 47 45  2  0  0  0  0
 48 47  1  0  0  0  0
 49 47  1  0  0  0  0
 49 40  2  0  0  0  0
 50 49  1  0  0  0  0
 51 60  1  0  0  0  0
 52 54  1  0  0  0  0
 52 51  2  0  0  0  0
 53 52  1  0  0  0  0
 54 56  2  0  0  0  0
 55 54  1  0  0  0  0
 56 57  1  0  0  0  0
 56 58  1  0  0  0  0
 58 59  1  0  0  0  0
 60 58  2  0  0  0  0
 60 61  1  0  0  0  0
 62 17  1  0  0  0  0
 62 71  1  0  0  0  0
 63 65  1  0  0  0  0
 63 62  2  0  0  0  0
 64 63  1  0  0  0  0
 65 67  2  0  0  0  0
 66 65  1  0  0  0  0
 67 68  1  0  0  0  0
 67 69  1  0  0  0  0
 69 70  1  0  0  0  0
 71 69  2  0  0  0  0
 71 72  1  0  0  0  0
 73 82  1  0  0  0  0
 74 76  1  0  0  0  0
 74 73  2  0  0  0  0
 75 74  1  0  0  0  0
 76 78  2  0  0  0  0
 77 76  1  0  0  0  0
 78 79  1  0  0  0  0
 78 80  1  0  0  0  0
 80 81  1  0  0  0  0
 82 80  2  0  0  0  0
 82 83  1  0  0  0  0
M  END
