1,2,3
q = -1.0

 44 44  0  0  0  0  0  0  0  0999 V2000
    0.2450   -1.6991    0.0478 P   0  0  1  0  0  0  0  0  0  0  0  0
   -0.8885   -0.0066    1.7880 P   0  0  2  0  0  0  0  0  0  0  0  0
    0.2455    1.6985    0.0603 P   0  0  2  0  0  0  0  0  0  0  0  0
    2.4005    0.0039   -1.0864 P   0  0  0  0  0  4  0  0  0  0  0  0
    0.1055   -1.4431    1.7690 N   0  0  0  0  0  0  0  0  0  0  0  0
    0.1064    1.4293    1.7795 N   0  0  0  0  0  0  0  0  0  0  0  0
    1.9860    1.4479   -0.2996 N   0  0  0  0  0  0  0  0  0  0  0  0
    1.9856   -1.4454   -0.3097 N   0  0  0  0  0  0  0  0  0  0  0  0
    0.0990   -3.5111   -0.1747 C   0  0  0  0  0  0  0  0  0  0  0  0
   -1.7058   -0.0124    3.4179 C   0  0  0  0  0  0  0  0  0  0  0  0
    0.0987    3.5121   -0.1484 C   0  0  0  0  0  0  0  0  0  0  0  0
    1.8074    0.0100   -2.7883 C   0  0  0  0  0  0  0  0  0  0  0  0
    4.2107    0.0042   -1.2091 C   0  0  0  0  0  0  0  0  0  0  0  0
    0.8756   -2.0357    2.8536 C   0  0  0  0  0  0  0  0  0  0  0  0
    0.8769    2.0135    2.8684 C   0  0  0  0  0  0  0  0  0  0  0  0
    3.0373    2.2709    0.3282 C   0  0  0  0  0  0  0  0  0  0  0  0
    3.0368   -2.2728    0.3127 C   0  0  0  0  0  0  0  0  0  0  0  0
    0.3367   -3.7558   -1.2281 H   0  0  0  0  0  0  0  0  0  0  0  0
    0.7307   -4.1206    0.5002 H   0  0  0  0  0  0  0  0  0  0  0  0
   -0.9649   -3.7554    0.0122 H   0  0  0  0  0  0  0  0  0  0  0  0
   -2.3483   -0.9124    3.4721 H   0  0  0  0  0  0  0  0  0  0  0  0
   -0.9954   -0.0154    4.2677 H   0  0  0  0  0  0  0  0  0  0  0  0
   -2.3485    0.8870    3.4785 H   0  0  0  0  0  0  0  0  0  0  0  0
   -0.9647    3.7548    0.0433 H   0  0  0  0  0  0  0  0  0  0  0  0
    0.7322    4.1167    0.5292 H   0  0  0  0  0  0  0  0  0  0  0  0
    0.3334    3.7644   -1.2007 H   0  0  0  0  0  0  0  0  0  0  0  0
    2.1921   -0.8982   -3.2921 H   0  0  0  0  0  0  0  0  0  0  0  0
    0.7055    0.0106   -2.8159 H   0  0  0  0  0  0  0  0  0  0  0  0
    2.1930    0.9211   -3.2860 H   0  0  0  0  0  0  0  0  0  0  0  0
    4.5255   -0.8912   -1.7776 H   0  0  0  0  0  0  0  0  0  0  0  0
    4.5256    0.9035   -1.7714 H   0  0  0  0  0  0  0  0  0  0  0  0
    4.7014    0.0007   -0.2192 H   0  0  0  0  0  0  0  0  0  0  0  0
    1.0592   -3.1118    2.6583 H   0  0  0  0  0  0  0  0  0  0  0  0
    1.8571   -1.5383    3.0197 H   0  0  0  0  0  0  0  0  0  0  0  0
    0.3002   -1.9822    3.7997 H   0  0  0  0  0  0  0  0  0  0  0  0
    1.8591    1.5158    3.0293 H   0  0  0  0  0  0  0  0  0  0  0  0
    1.0592    3.0914    2.6821 H   0  0  0  0  0  0  0  0  0  0  0  0
    0.3026    1.9513    3.8145 H   0  0  0  0  0  0  0  0  0  0  0  0
    3.5525    1.7541    1.1642 H   0  0  0  0  0  0  0  0  0  0  0  0
    3.7922    2.6103   -0.4082 H   0  0  0  0  0  0  0  0  0  0  0  0
    2.5722    3.1821    0.7430 H   0  0  0  0  0  0  0  0  0  0  0  0
    3.7922   -2.6065   -0.4257 H   0  0  0  0  0  0  0  0  0  0  0  0
    3.5512   -1.7622    1.1529 H   0  0  0  0  0  0  0  0  0  0  0  0
    2.5716   -3.1873    0.7202 H   0  0  0  0  0  0  0  0  0  0  0  0
  1  9  1  1  0  0  0
  1  5  1  0  0  0  0
  2 10  1  1  0  0  0
  3 11  1  1  0  0  0
  3  6  1  0  0  0  0
  4  8  1  0  0  0  0
  4  7  1  0  0  0  0
  5  2  1  0  0  0  0
  5 14  1  0  0  0  0
  6  2  1  0  0  0  0
  6 15  1  0  0  0  0
  7  3  1  0  0  0  0
  7 16  1  0  0  0  0
  8  1  1  0  0  0  0
  8 17  1  0  0  0  0
  9 20  1  0  0  0  0
  9 19  1  0  0  0  0
 10 21  1  0  0  0  0
 10 23  1  0  0  0  0
 10 22  1  0  0  0  0
 11 24  1  0  0  0  0
 11 25  1  0  0  0  0
 12  4  1  0  0  0  0
 13  4  1  0  0  0  0
 13 32  1  0  0  0  0
 14 34  1  0  0  0  0
 14 35  1  0  0  0  0
 15 36  1  0  0  0  0
 15 38  1  0  0  0  0
 16 41  1  0  0  0  0
 16 39  1  0  0  0  0
 17 44  1  0  0  0  0
 17 43  1  0  0  0  0
 18  9  1  0  0  0  0
 26 11  1  0  0  0  0
 27 12  1  0  0  0  0
 28 12  1  0  0  0  0
 29 12  1  0  0  0  0
 30 13  1  0  0  0  0
 31 13  1  0  0  0  0
 33 14  1  0  0  0  0
 37 15  1  0  0  0  0
 40 16  1  0  0  0  0
 42 17  1  0  0  0  0
M  END
