1,2,3
q = -1.0, confidence = 0.004

 63 64  0  0  0  0  0  0  0  0999 V2000
   -0.0469    1.2278   -0.9657 P   0  0  0  0  0  2  0  0  0  0  0  0
    2.2053   -0.4996   -0.1424 P   0  0  0  0  0  0  0  0  0  0  0  0
   -2.0707   -0.6771    0.1331 P   0  0  0  0  0  0  0  0  0  0  0  0
   -1.6419    1.9818   -0.4272 C   0  0  0  0  0  0  0  0  0  0  0  0
   -1.9877    3.3441   -0.5730 C   0  0  0  0  0  0  0  0  0  0  0  0
   -1.2451    4.0660   -0.9437 H   0  0  0  0  0  0  0  0  0  0  0  0
   -3.2855    3.7862   -0.2791 C   0  0  0  0  0  0  0  0  0  0  0  0
   -3.5330    4.8538   -0.3849 H   0  0  0  0  0  0  0  0  0  0  0  0
   -4.2719    2.8758    0.1367 C   0  0  0  0  0  0  0  0  0  0  0  0
   -5.2889    3.2260    0.3686 H   0  0  0  0  0  0  0  0  0  0  0  0
   -3.9543    1.5134    0.2494 C   0  0  0  0  0  0  0  0  0  0  0  0
   -4.7261    0.8035    0.5828 H   0  0  0  0  0  0  0  0  0  0  0  0
   -2.6501    1.0637   -0.0315 C   0  0  0  0  0  0  0  0  0  0  0  0
   -3.0679   -1.7372   -1.0404 C   0  0  0  0  0  0  0  0  0  0  0  0
   -2.6236   -2.7389   -0.8436 H   0  0  0  0  0  0  0  0  0  0  0  0
   -2.7085   -1.3331   -2.4755 C   0  0  0  0  0  0  0  0  0  0  0  0
   -3.2153   -2.0016   -3.2019 H   0  0  0  0  0  0  0  0  0  0  0  0
   -1.6156   -1.4029   -2.6450 H   0  0  0  0  0  0  0  0  0  0  0  0
   -3.0226   -0.2910   -2.6942 H   0  0  0  0  0  0  0  0  0  0  0  0
   -4.5781   -1.7709   -0.8021 C   0  0  0  0  0  0  0  0  0  0  0  0
   -5.0454   -0.7917   -1.0312 H   0  0  0  0  0  0  0  0  0  0  0  0
   -4.8435   -2.0487    0.2376 H   0  0  0  0  0  0  0  0  0  0  0  0
   -5.0474   -2.5210   -1.4728 H   0  0  0  0  0  0  0  0  0  0  0  0
   -2.6359   -1.1204    1.8658 C   0  0  0  0  0  0  0  0  0  0  0  0
   -3.7230   -0.8794    1.8653 H   0  0  0  0  0  0  0  0  0  0  0  0
   -2.4484   -2.6061    2.1817 C   0  0  0  0  0  0  0  0  0  0  0  0
   -1.3892   -2.9084    2.0604 H   0  0  0  0  0  0  0  0  0  0  0  0
   -3.0492   -3.2556    1.5148 H   0  0  0  0  0  0  0  0  0  0  0  0
   -2.7652   -2.8090    3.2260 H   0  0  0  0  0  0  0  0  0  0  0  0
   -1.9414   -0.2103    2.8850 C   0  0  0  0  0  0  0  0  0  0  0  0
   -2.3584   -0.3883    3.8978 H   0  0  0  0  0  0  0  0  0  0  0  0
   -2.0715    0.8628    2.6425 H   0  0  0  0  0  0  0  0  0  0  0  0
   -0.8546   -0.4183    2.9262 H   0  0  0  0  0  0  0  0  0  0  0  0
    1.3406    2.1129   -0.1286 C   0  0  0  0  0  0  0  0  0  0  0  0
    1.4329    3.4965    0.1327 C   0  0  0  0  0  0  0  0  0  0  0  0
    0.5495    4.1407    0.0197 H   0  0  0  0  0  0  0  0  0  0  0  0
    2.6481    4.0668    0.5405 C   0  0  0  0  0  0  0  0  0  0  0  0
    2.6945    5.1460    0.7545 H   0  0  0  0  0  0  0  0  0  0  0  0
    3.8049    3.2792    0.6584 C   0  0  0  0  0  0  0  0  0  0  0  0
    4.7614    3.7349    0.9549 H   0  0  0  0  0  0  0  0  0  0  0  0
    3.7280    1.8982    0.4132 C   0  0  0  0  0  0  0  0  0  0  0  0
    4.6307    1.2782    0.5170 H   0  0  0  0  0  0  0  0  0  0  0  0
    2.5009    1.3071    0.0638 C   0  0  0  0  0  0  0  0  0  0  0  0
    3.3276   -1.0129   -1.5480 C   0  0  0  0  0  0  0  0  0  0  0  0
    4.3343   -0.6065   -1.2997 H   0  0  0  0  0  0  0  0  0  0  0  0
    2.8249   -0.3447   -2.8338 C   0  0  0  0  0  0  0  0  0  0  0  0
    3.5150   -0.5638   -3.6748 H   0  0  0  0  0  0  0  0  0  0  0  0
    2.7470    0.7562   -2.7291 H   0  0  0  0  0  0  0  0  0  0  0  0
    1.8187   -0.7249   -3.1034 H   0  0  0  0  0  0  0  0  0  0  0  0
    3.3968   -2.5385   -1.6802 C   0  0  0  0  0  0  0  0  0  0  0  0
    2.3809   -2.9733   -1.7735 H   0  0  0  0  0  0  0  0  0  0  0  0
    3.8810   -3.0161   -0.8057 H   0  0  0  0  0  0  0  0  0  0  0  0
    3.9854   -2.8121   -2.5806 H   0  0  0  0  0  0  0  0  0  0  0  0
    2.8302   -1.3786    1.3857 C   0  0  0  0  0  0  0  0  0  0  0  0
    2.5448   -2.4256    1.1369 H   0  0  0  0  0  0  0  0  0  0  0  0
    4.3336   -1.2924    1.6541 C   0  0  0  0  0  0  0  0  0  0  0  0
    4.6276   -0.2810    1.9987 H   0  0  0  0  0  0  0  0  0  0  0  0
    4.9470   -1.5502    0.7680 H   0  0  0  0  0  0  0  0  0  0  0  0
    4.6075   -2.0026    2.4626 H   0  0  0  0  0  0  0  0  0  0  0  0
    1.9907   -0.9444    2.5897 C   0  0  0  0  0  0  0  0  0  0  0  0
    2.2710   -1.5292    3.4901 H   0  0  0  0  0  0  0  0  0  0  0  0
    0.9175   -1.1191    2.3801 H   0  0  0  0  0  0  0  0  0  0  0  0
    2.1287    0.1326    2.8187 H   0  0  0  0  0  0  0  0  0  0  0  0
  1  4  1  0  0  0  0
  1 34  1  0  0  0  0
  2 43  1  0  0  0  0
  2 54  1  0  0  0  0
  3 24  1  0  0  0  0
  4 13  1  0  0  0  0
  5  4  2  0  0  0  0
  5  7  1  0  0  0  0
  6  5  1  0  0  0  0
  7  9  2  0  0  0  0
  8  7  1  0  0  0  0
  9 11  1  0  0  0  0
  9 10  1  0  0  0  0
 11 12  1  0  0  0  0
 13  3  1  0  0  0  0
 13 11  2  0  0  0  0
 14 15  1  0  0  0  0
 14 20  1  0  0  0  0
 14  3  1  0  0  0  0
 16 14  1  0  0  0  0
 17 16  1  0  0  0  0
 18 16  1  0  0  0  0
 19 16  1  0  0  0  0
 20 22  1  0  0  0  0
 21 20  1  0  0  0  0
 23 20  1  0  0  0  0
 24 26  1  0  0  0  0
 24 30  1  0  0  0  0
 25 24  1  0  0  0  0
 26 29  1  0  0  0  0
 27 26  1  0  0  0  0
 28 26  1  0  0  0  0
 30 33  1  0  0  0  0
 30 31  1  0  0  0  0
 32 30  1  0  0  0  0
 34 43  2  0  0  0  0
 34 35  1  0  0  0  0
 35 37  2  0  0  0  0
 36 35  1  0  0  0  0
 37 39  1  0  0  0  0
 37 38  1  0  0  0  0
 39 40  1  0  0  0  0
 41 42  1  0  0  0  0
 41 39  2  0  0  0  0
 43 41  1  0  0  0  0
 44 45  1  0  0  0  0
 44  2  1  0  0  0  0
 46 48  1  0  0  0  0
 46 44  1  0  0  0  0
 47 46  1  0  0  0  0
 49 46  1  0  0  0  0
 50 44  1  0  0  0  0
 50 52  1  0  0  0  0
 51 50  1  0  0  0  0
 53 50  1  0  0  0  0
 54 56  1  0  0  0  0
 54 60  1  0  0  0  0
 55 54  1  0  0  0  0
 56 57  1  0  0  0  0
 56 59  1  0  0  0  0
 58 56  1  0  0  0  0
 60 63  1  0  0  0  0
 60 61  1  0  0  0  0
 62 60  1  0  0  0  0
M  END
