1,25,26
q = 0.0, confidence = 0.996

 59 58  0  0  0  0  0  0  0  0999 V2000
    1.1433    1.5321    0.4478 P   0  0  0  0  0  0  0  0  0  0  0  0
    0.6027    1.3597    2.2376 C   0  0  0  0  0  0  0  0  0  0  0  0
    1.4774    1.5947    2.8809 H   0  0  0  0  0  0  0  0  0  0  0  0
   -0.1385    2.1627    2.4372 H   0  0  0  0  0  0  0  0  0  0  0  0
   -0.0000   -0.0020    2.6864 C   0  0  0  0  0  0  0  0  0  0  0  0
   -0.0001   -0.0030    4.2317 C   0  0  0  0  0  0  0  0  0  0  0  0
    1.0356    0.0150    4.6295 H   0  0  0  0  0  0  0  0  0  0  0  0
   -0.5023   -0.9093    4.6287 H   0  0  0  0  0  0  0  0  0  0  0  0
   -0.5338    0.8847    4.6299 H   0  0  0  0  0  0  0  0  0  0  0  0
    3.0000    1.3277    0.5643 C   0  0  0  0  0  0  0  0  0  0  0  0
    3.1606    0.2818    0.8970 H   0  0  0  0  0  0  0  0  0  0  0  0
    3.3558    1.3542   -0.4865 H   0  0  0  0  0  0  0  0  0  0  0  0
    3.7797    2.3056    1.4406 C   0  0  0  0  0  0  0  0  0  0  0  0
    4.8571    2.0416    1.4583 H   0  0  0  0  0  0  0  0  0  0  0  0
    3.4281    2.3026    2.4932 H   0  0  0  0  0  0  0  0  0  0  0  0
    3.7048    3.3467    1.0680 H   0  0  0  0  0  0  0  0  0  0  0  0
    0.9791    3.3730    0.1937 C   0  0  0  0  0  0  0  0  0  0  0  0
   -0.1121    3.5743    0.1810 H   0  0  0  0  0  0  0  0  0  0  0  0
    1.4013    3.9098    1.0706 H   0  0  0  0  0  0  0  0  0  0  0  0
    1.6148    3.8401   -1.1158 C   0  0  0  0  0  0  0  0  0  0  0  0
    2.7167    3.7174   -1.1075 H   0  0  0  0  0  0  0  0  0  0  0  0
    1.4007    4.9125   -1.2978 H   0  0  0  0  0  0  0  0  0  0  0  0
    1.2197    3.2629   -1.9749 H   0  0  0  0  0  0  0  0  0  0  0  0
    0.8775   -1.2042    2.2359 C   0  0  0  0  0  0  0  0  0  0  0  0
    0.7562   -1.7558    0.4453 P   0  0  0  0  0  0  0  0  0  0  0  0
   -1.8987    0.2231    0.4471 P   0  0  0  0  0  0  0  0  0  0  0  0
   -1.4802   -0.1609    2.2366 C   0  0  0  0  0  0  0  0  0  0  0  0
   -2.1218    0.4781    2.8801 H   0  0  0  0  0  0  0  0  0  0  0  0
   -1.8046   -1.2047    2.4349 H   0  0  0  0  0  0  0  0  0  0  0  0
   -2.6503    1.9330    0.5659 C   0  0  0  0  0  0  0  0  0  0  0  0
   -1.8249    2.5945    0.9003 H   0  0  0  0  0  0  0  0  0  0  0  0
   -2.8507    2.2297   -0.4844 H   0  0  0  0  0  0  0  0  0  0  0  0
   -3.8874    2.1180    1.4419 C   0  0  0  0  0  0  0  0  0  0  0  0
   -4.1973    3.1830    1.4612 H   0  0  0  0  0  0  0  0  0  0  0  0
   -3.7095    1.8133    2.4942 H   0  0  0  0  0  0  0  0  0  0  0  0
   -4.7515    1.5333    1.0681 H   0  0  0  0  0  0  0  0  0  0  0  0
   -3.4107   -0.8397    0.1910 C   0  0  0  0  0  0  0  0  0  0  0  0
   -3.0396   -1.8854    0.1770 H   0  0  0  0  0  0  0  0  0  0  0  0
   -4.0865   -0.7435    1.0681 H   0  0  0  0  0  0  0  0  0  0  0  0
   -4.1336   -0.5215   -1.1179 C   0  0  0  0  0  0  0  0  0  0  0  0
   -4.5770    0.4947   -1.1091 H   0  0  0  0  0  0  0  0  0  0  0  0
   -4.9564   -1.2419   -1.2991 H   0  0  0  0  0  0  0  0  0  0  0  0
   -3.4373   -0.5760   -1.9778 H   0  0  0  0  0  0  0  0  0  0  0  0
   -0.3494   -3.2616    0.5607 C   0  0  0  0  0  0  0  0  0  0  0  0
   -1.3356   -2.8778    0.8938 H   0  0  0  0  0  0  0  0  0  0  0  0
   -0.5043   -3.5824   -0.4902 H   0  0  0  0  0  0  0  0  0  0  0  0
    0.1073   -4.4264    1.4364 C   0  0  0  0  0  0  0  0  0  0  0  0
   -0.6600   -5.2274    1.4532 H   0  0  0  0  0  0  0  0  0  0  0  0
    0.2800   -4.1212    2.4893 H   0  0  0  0  0  0  0  0  0  0  0  0
    1.0465   -4.8818    1.0640 H   0  0  0  0  0  0  0  0  0  0  0  0
    2.4326   -2.5344    0.1915 C   0  0  0  0  0  0  0  0  0  0  0  0
    3.1533   -1.6907    0.1800 H   0  0  0  0  0  0  0  0  0  0  0  0
    2.6851   -3.1688    1.0685 H   0  0  0  0  0  0  0  0  0  0  0  0
    2.5207   -3.3184   -1.1180 C   0  0  0  0  0  0  0  0  0  0  0  0
    1.8622   -4.2104   -1.1110 H   0  0  0  0  0  0  0  0  0  0  0  0
    3.5564   -3.6710   -1.2975 H   0  0  0  0  0  0  0  0  0  0  0  0
    2.2215   -2.6875   -1.9779 H   0  0  0  0  0  0  0  0  0  0  0  0
    0.6434   -2.0802    2.8779 H   0  0  0  0  0  0  0  0  0  0  0  0
    1.9435   -0.9645    2.4359 H   0  0  0  0  0  0  0  0  0  0  0  0
  1 10  1  0  0  0  0
  1  2  1  0  0  0  0
  2  4  1  0  0  0  0
  2  5  1  0  0  0  0
  2  3  1  0  0  0  0
  5  6  1  0  0  0  0
  6  8  1  0  0  0  0
  6  7  1  0  0  0  0
  6  9  1  0  0  0  0
 10 11  1  0  0  0  0
 10 13  1  0  0  0  0
 12 10  1  0  0  0  0
 13 14  1  0  0  0  0
 13 15  1  0  0  0  0
 16 13  1  0  0  0  0
 17  1  1  0  0  0  0
 17 19  1  0  0  0  0
 18 17  1  0  0  0  0
 20 21  1  0  0  0  0
 20 17  1  0  0  0  0
 22 20  1  0  0  0  0
 23 20  1  0  0  0  0
 24 59  1  0  0  0  0
 24  5  1  0  0  0  0
 24 58  1  0  0  0  0
 25 44  1  0  0  0  0
 25 24  1  0  0  0  0
 26 30  1  0  0  0  0
 26 27  1  0  0  0  0
 27 29  1  0  0  0  0
 27  5  1  0  0  0  0
 27 28  1  0  0  0  0
 30 31  1  0  0  0  0
 30 33  1  0  0  0  0
 32 30  1  0  0  0  0
 33 34  1  0  0  0  0
 33 35  1  0  0  0  0
 36 33  1  0  0  0  0
 37 26  1  0  0  0  0
 37 39  1  0  0  0  0
 38 37  1  0  0  0  0
 40 41  1  0  0  0  0
 40 37  1  0  0  0  0
 42 40  1  0  0  0  0
 43 40  1  0  0  0  0
 44 45  1  0  0  0  0
 44 47  1  0  0  0  0
 46 44  1  0  0  0  0
 47 48  1  0  0  0  0
 47 49  1  0  0  0  0
 50 47  1  0  0  0  0
 51 25  1  0  0  0  0
 51 53  1  0  0  0  0
 52 51  1  0  0  0  0
 54 55  1  0  0  0  0
 54 51  1  0  0  0  0
 56 54  1  0  0  0  0
 57 54  1  0  0  0  0
M  END
