1,2,3
q = 0.0, confidence = 0.994

 75 77  0  0  0  0  0  0  0  0999 V2000
    0.6780    1.9800    0.4746 P   0  0  0  0  0  0  0  0  0  0  0  0
    0.2462   -1.0273    0.4449 P   0  0  0  0  0  0  0  0  0  0  0  0
   -2.4330   -0.1228   -0.6726 P   0  0  0  0  0  0  0  0  0  0  0  0
    1.1930   -2.9773    0.0034 S   0  0  0  0  0  0  0  0  0  0  0  0
   -3.6837   -1.8662    1.2742 C   0  0  0  0  0  0  0  0  0  0  0  0
   -4.6562   -1.5907    0.8363 H   0  0  0  0  0  0  0  0  0  0  0  0
   -2.4962   -1.3112    0.7602 C   0  0  0  0  0  0  0  0  0  0  0  0
    1.5696    0.9960    1.7843 C   0  0  0  0  0  0  0  0  0  0  0  0
    2.5217   -2.2679   -0.9659 C   0  0  0  0  0  0  0  0  0  0  0  0
   -0.1749    3.2664    1.5723 C   0  0  0  0  0  0  0  0  0  0  0  0
    0.6276    3.9113    1.9955 H   0  0  0  0  0  0  0  0  0  0  0  0
   -1.2528   -1.7090    1.3105 C   0  0  0  0  0  0  0  0  0  0  0  0
    2.1520    2.8922   -0.2785 C   0  0  0  0  0  0  0  0  0  0  0  0
    2.6319    3.4474    0.5587 H   0  0  0  0  0  0  0  0  0  0  0  0
   -3.9803    0.9517   -0.4646 C   0  0  0  0  0  0  0  0  0  0  0  0
   -4.8494    0.3096   -0.7343 H   0  0  0  0  0  0  0  0  0  0  0  0
    3.0967    0.7683    3.6737 C   0  0  0  0  0  0  0  0  0  0  0  0
    3.7749    1.2273    4.4094 H   0  0  0  0  0  0  0  0  0  0  0  0
    2.0470   -1.2077    2.7213 C   0  0  0  0  0  0  0  0  0  0  0  0
    1.9330   -2.3019    2.6725 H   0  0  0  0  0  0  0  0  0  0  0  0
    1.3636   -0.4006    1.7913 C   0  0  0  0  0  0  0  0  0  0  0  0
    2.9041   -0.6241    3.6646 C   0  0  0  0  0  0  0  0  0  0  0  0
    3.4351   -1.2592    4.3904 H   0  0  0  0  0  0  0  0  0  0  0  0
    2.4373    1.5723    2.7323 C   0  0  0  0  0  0  0  0  0  0  0  0
    2.6067    2.6609    2.7363 H   0  0  0  0  0  0  0  0  0  0  0  0
   -1.2153   -2.6219    2.3804 C   0  0  0  0  0  0  0  0  0  0  0  0
   -0.2494   -2.9314    2.8063 H   0  0  0  0  0  0  0  0  0  0  0  0
    2.2695   -1.8050   -2.2733 C   0  0  0  0  0  0  0  0  0  0  0  0
    1.2619   -1.9095   -2.6984 H   0  0  0  0  0  0  0  0  0  0  0  0
   -2.4081   -3.1432    2.9047 C   0  0  0  0  0  0  0  0  0  0  0  0
   -2.3737   -3.8512    3.7467 H   0  0  0  0  0  0  0  0  0  0  0  0
   -1.1384    4.1305    0.7535 C   0  0  0  0  0  0  0  0  0  0  0  0
   -1.6662    4.8515    1.4124 H   0  0  0  0  0  0  0  0  0  0  0  0
   -1.9007    3.4961    0.2602 H   0  0  0  0  0  0  0  0  0  0  0  0
   -0.6293    4.7082   -0.0406 H   0  0  0  0  0  0  0  0  0  0  0  0
   -3.6418   -2.7702    2.3476 C   0  0  0  0  0  0  0  0  0  0  0  0
   -4.5776   -3.1875    2.7498 H   0  0  0  0  0  0  0  0  0  0  0  0
   -4.1558    1.4624    0.9691 C   0  0  0  0  0  0  0  0  0  0  0  0
   -5.0741    2.0825    1.0383 H   0  0  0  0  0  0  0  0  0  0  0  0
   -3.3039    2.1027    1.2681 H   0  0  0  0  0  0  0  0  0  0  0  0
   -4.2369    0.6476    1.7129 H   0  0  0  0  0  0  0  0  0  0  0  0
    3.2992   -1.2115   -3.0177 C   0  0  0  0  0  0  0  0  0  0  0  0
    3.0865   -0.8367   -4.0302 H   0  0  0  0  0  0  0  0  0  0  0  0
    3.8099   -2.1336   -0.4117 C   0  0  0  0  0  0  0  0  0  0  0  0
    3.9940   -2.4813    0.6153 H   0  0  0  0  0  0  0  0  0  0  0  0
    4.5850   -1.0848   -2.4676 C   0  0  0  0  0  0  0  0  0  0  0  0
    5.3915   -0.6179   -3.0531 H   0  0  0  0  0  0  0  0  0  0  0  0
    4.8389   -1.5499   -1.1668 C   0  0  0  0  0  0  0  0  0  0  0  0
    5.8444   -1.4489   -0.7302 H   0  0  0  0  0  0  0  0  0  0  0  0
   -2.9748   -1.3296   -2.0370 C   0  0  0  0  0  0  0  0  0  0  0  0
   -3.9146   -1.7919   -1.6582 H   0  0  0  0  0  0  0  0  0  0  0  0
    3.1389    1.8588   -0.8337 C   0  0  0  0  0  0  0  0  0  0  0  0
    4.0195    2.3690   -1.2767 H   0  0  0  0  0  0  0  0  0  0  0  0
    2.6661    1.2457   -1.6259 H   0  0  0  0  0  0  0  0  0  0  0  0
    3.5044    1.1607   -0.0557 H   0  0  0  0  0  0  0  0  0  0  0  0
   -3.9002    2.1338   -1.4425 C   0  0  0  0  0  0  0  0  0  0  0  0
   -4.7671    2.8120   -1.2984 H   0  0  0  0  0  0  0  0  0  0  0  0
   -3.8869    1.8191   -2.5015 H   0  0  0  0  0  0  0  0  0  0  0  0
   -2.9714    2.7150   -1.2706 H   0  0  0  0  0  0  0  0  0  0  0  0
    1.7282    3.8872   -1.3637 C   0  0  0  0  0  0  0  0  0  0  0  0
    2.6274    4.3197   -1.8503 H   0  0  0  0  0  0  0  0  0  0  0  0
    1.1329    4.7301   -0.9633 H   0  0  0  0  0  0  0  0  0  0  0  0
    1.1310    3.3855   -2.1519 H   0  0  0  0  0  0  0  0  0  0  0  0
   -1.9098   -2.4168   -2.1988 C   0  0  0  0  0  0  0  0  0  0  0  0
   -2.2248   -3.1509   -2.9693 H   0  0  0  0  0  0  0  0  0  0  0  0
   -1.7117   -2.9697   -1.2605 H   0  0  0  0  0  0  0  0  0  0  0  0
   -0.9493   -1.9661   -2.5186 H   0  0  0  0  0  0  0  0  0  0  0  0
   -0.9047    2.5405    2.7106 C   0  0  0  0  0  0  0  0  0  0  0  0
   -1.6008    3.2308    3.2308 H   0  0  0  0  0  0  0  0  0  0  0  0
   -0.2041    2.1265    3.4596 H   0  0  0  0  0  0  0  0  0  0  0  0
   -1.5011    1.6921    2.3139 H   0  0  0  0  0  0  0  0  0  0  0  0
   -3.2538   -0.6403   -3.3760 C   0  0  0  0  0  0  0  0  0  0  0  0
   -3.4442   -1.4056   -4.1575 H   0  0  0  0  0  0  0  0  0  0  0  0
   -2.3824   -0.0385   -3.7064 H   0  0  0  0  0  0  0  0  0  0  0  0
   -4.1421    0.0188   -3.3420 H   0  0  0  0  0  0  0  0  0  0  0  0
  1 10  1  0  0  0  0
  1  8  1  0  0  0  0
  2 12  1  0  0  0  0
  2 21  1  0  0  0  0
  3 15  1  0  0  0  0
  3  7  1  0  0  0  0
  4  2  1  0  0  0  0
  5 36  1  0  0  0  0
  6  5  1  0  0  0  0
  7  5  2  0  0  0  0
  7 12  1  0  0  0  0
  8 21  2  0  0  0  0
  8 24  1  0  0  0  0
  9 44  1  0  0  0  0
  9  4  1  0  0  0  0
 10 11  1  0  0  0  0
 10 68  1  0  0  0  0
 12 26  2  0  0  0  0
 13  1  1  0  0  0  0
 13 14  1  0  0  0  0
 15 38  1  0  0  0  0
 16 15  1  0  0  0  0
 17 18  1  0  0  0  0
 19 22  2  0  0  0  0
 20 19  1  0  0  0  0
 21 19  1  0  0  0  0
 22 17  1  0  0  0  0
 22 23  1  0  0  0  0
 24 25  1  0  0  0  0
 24 17  2  0  0  0  0
 26 27  1  0  0  0  0
 26 30  1  0  0  0  0
 28  9  2  0  0  0  0
 29 28  1  0  0  0  0
 30 31  1  0  0  0  0
 32 33  1  0  0  0  0
 32 10  1  0  0  0  0
 34 32  1  0  0  0  0
 35 32  1  0  0  0  0
 36 37  1  0  0  0  0
 36 30  2  0  0  0  0
 38 39  1  0  0  0  0
 38 40  1  0  0  0  0
 38 41  1  0  0  0  0
 42 46  2  0  0  0  0
 42 28  1  0  0  0  0
 43 42  1  0  0  0  0
 44 45  1  0  0  0  0
 46 48  1  0  0  0  0
 47 46  1  0  0  0  0
 48 49  1  0  0  0  0
 48 44  2  0  0  0  0
 50 51  1  0  0  0  0
 50  3  1  0  0  0  0
 52 13  1  0  0  0  0
 52 55  1  0  0  0  0
 53 52  1  0  0  0  0
 54 52  1  0  0  0  0
 56 57  1  0  0  0  0
 56 59  1  0  0  0  0
 56 15  1  0  0  0  0
 58 56  1  0  0  0  0
 60 62  1  0  0  0  0
 60 13  1  0  0  0  0
 61 60  1  0  0  0  0
 63 60  1  0  0  0  0
 64 50  1  0  0  0  0
 64 66  1  0  0  0  0
 65 64  1  0  0  0  0
 67 64  1  0  0  0  0
 68 69  1  0  0  0  0
 68 70  1  0  0  0  0
 71 68  1  0  0  0  0
 72 75  1  0  0  0  0
 72 50  1  0  0  0  0
 73 72  1  0  0  0  0
 74 72  1  0  0  0  0
M  END
