1,2,3
q = 0.0, confidence = 1.0

 35 34  0  0  0  0  0  0  0  0999 V2000
    0.0000    1.7473   -0.1021 P   0  0  0  0  0  0  0  0  0  0  0  0
   -2.2912   -0.2645   -0.0834 P   0  0  0  0  0  0  0  0  0  0  0  0
    2.2911   -0.2645   -0.0834 P   0  0  0  0  0  0  0  0  0  0  0  0
    0.0000    2.9263    1.3375 C   0  0  0  0  0  0  0  0  0  0  0  0
    0.8906    2.7196    1.9625 H   0  0  0  0  0  0  0  0  0  0  0  0
   -0.8906    2.7197    1.9625 H   0  0  0  0  0  0  0  0  0  0  0  0
    0.0001    3.9922    1.0268 H   0  0  0  0  0  0  0  0  0  0  0  0
   -1.5247    2.2923   -1.0321 C   0  0  0  0  0  0  0  0  0  0  0  0
   -1.6661    3.3941   -1.0105 H   0  0  0  0  0  0  0  0  0  0  0  0
   -1.3792    1.9777   -2.0862 H   0  0  0  0  0  0  0  0  0  0  0  0
   -2.7097    1.5535   -0.3986 C   0  0  0  0  0  0  0  0  0  0  0  0
   -3.6305    1.6252   -1.0148 H   0  0  0  0  0  0  0  0  0  0  0  0
   -2.9503    1.9926    0.5931 H   0  0  0  0  0  0  0  0  0  0  0  0
   -3.4241   -0.6678    1.3188 C   0  0  0  0  0  0  0  0  0  0  0  0
   -4.4739   -0.3785    1.1065 H   0  0  0  0  0  0  0  0  0  0  0  0
   -3.0635   -0.1467    2.2267 H   0  0  0  0  0  0  0  0  0  0  0  0
   -3.3715   -1.7577    1.5083 H   0  0  0  0  0  0  0  0  0  0  0  0
   -3.1309   -1.1195   -1.4904 C   0  0  0  0  0  0  0  0  0  0  0  0
   -2.9854   -2.2117   -1.3823 H   0  0  0  0  0  0  0  0  0  0  0  0
   -2.6499   -0.8079   -2.4373 H   0  0  0  0  0  0  0  0  0  0  0  0
   -4.2150   -0.8887   -1.5223 H   0  0  0  0  0  0  0  0  0  0  0  0
    1.5246    2.2923   -1.0321 C   0  0  0  0  0  0  0  0  0  0  0  0
    1.3791    1.9776   -2.0862 H   0  0  0  0  0  0  0  0  0  0  0  0
    1.6660    3.3941   -1.0106 H   0  0  0  0  0  0  0  0  0  0  0  0
    2.7097    1.5535   -0.3987 C   0  0  0  0  0  0  0  0  0  0  0  0
    2.9503    1.9926    0.5930 H   0  0  0  0  0  0  0  0  0  0  0  0
    3.6305    1.6251   -1.0149 H   0  0  0  0  0  0  0  0  0  0  0  0
    3.4240   -0.6677    1.3189 C   0  0  0  0  0  0  0  0  0  0  0  0
    3.3714   -1.7576    1.5084 H   0  0  0  0  0  0  0  0  0  0  0  0
    3.0634   -0.1466    2.2267 H   0  0  0  0  0  0  0  0  0  0  0  0
    4.4739   -0.3785    1.1066 H   0  0  0  0  0  0  0  0  0  0  0  0
    3.1309   -1.1196   -1.4903 C   0  0  0  0  0  0  0  0  0  0  0  0
    4.2150   -0.8888   -1.5223 H   0  0  0  0  0  0  0  0  0  0  0  0
    2.6499   -0.8081   -2.4372 H   0  0  0  0  0  0  0  0  0  0  0  0
    2.9854   -2.2118   -1.3822 H   0  0  0  0  0  0  0  0  0  0  0  0
  1  4  1  0  0  0  0
  2 14  1  0  0  0  0
  3 28  1  0  0  0  0
  4  5  1  0  0  0  0
  4  6  1  0  0  0  0
  7  4  1  0  0  0  0
  8  9  1  0  0  0  0
  8 11  1  0  0  0  0
  8  1  1  0  0  0  0
 10  8  1  0  0  0  0
 11  2  1  0  0  0  0
 11 13  1  0  0  0  0
 12 11  1  0  0  0  0
 14 17  1  0  0  0  0
 14 16  1  0  0  0  0
 15 14  1  0  0  0  0
 18 19  1  0  0  0  0
 18  2  1  0  0  0  0
 20 18  1  0  0  0  0
 21 18  1  0  0  0  0
 22 24  1  0  0  0  0
 22 25  1  0  0  0  0
 22  1  1  0  0  0  0
 23 22  1  0  0  0  0
 25  3  1  0  0  0  0
 25 26  1  0  0  0  0
 27 25  1  0  0  0  0
 28 29  1  0  0  0  0
 28 30  1  0  0  0  0
 31 28  1  0  0  0  0
 32 35  1  0  0  0  0
 32  3  1  0  0  0  0
 33 32  1  0  0  0  0
 34 32  1  0  0  0  0
M  END
