1,2,3
q = 0.0, confidence = 0.994

 52 52  0  0  0  0  0  0  0  0999 V2000
   -0.3016   -1.1120   -1.1228 P   0  0  0  0  0  0  0  0  0  0  0  0
    2.4204    0.2102   -0.0168 P   0  0  0  0  0  0  0  0  0  0  0  0
   -1.9629    1.4188   -0.0273 P   0  0  0  0  0  0  0  0  0  0  0  0
    2.6827   -0.8075    1.2837 O   0  0  0  0  0  0  0  0  0  0  0  0
    3.6656    1.3149    0.1060 O   0  0  0  0  0  0  0  0  0  0  0  0
   -2.4668    3.0056    0.0939 O   0  0  0  0  0  0  0  0  0  0  0  0
   -2.7128    0.6781    1.2715 O   0  0  0  0  0  0  0  0  0  0  0  0
    3.1196   -0.7325   -1.4311 C   0  0  0  0  0  0  0  0  0  0  0  0
    3.0813   -0.0547   -2.3088 H   0  0  0  0  0  0  0  0  0  0  0  0
    4.1912   -0.9210   -1.2165 H   0  0  0  0  0  0  0  0  0  0  0  0
    2.3625   -2.0419   -1.7004 C   0  0  0  0  0  0  0  0  0  0  0  0
    2.9589   -2.6525   -2.4111 H   0  0  0  0  0  0  0  0  0  0  0  0
    2.2999   -2.6387   -0.7638 H   0  0  0  0  0  0  0  0  0  0  0  0
    0.9581   -1.8530   -2.2857 C   0  0  0  0  0  0  0  0  0  0  0  0
    0.5635   -2.8240   -2.6518 H   0  0  0  0  0  0  0  0  0  0  0  0
    0.9968   -1.1670   -3.1590 H   0  0  0  0  0  0  0  0  0  0  0  0
   -3.0410    0.9683   -1.4464 C   0  0  0  0  0  0  0  0  0  0  0  0
   -4.0587    1.3556   -1.2358 H   0  0  0  0  0  0  0  0  0  0  0  0
   -2.6564    1.5322   -2.3214 H   0  0  0  0  0  0  0  0  0  0  0  0
   -3.0612   -0.5432   -1.7206 C   0  0  0  0  0  0  0  0  0  0  0  0
   -3.8810   -0.7585   -2.4384 H   0  0  0  0  0  0  0  0  0  0  0  0
   -3.3211   -1.0920   -0.7887 H   0  0  0  0  0  0  0  0  0  0  0  0
   -1.7546   -1.1004   -2.2974 C   0  0  0  0  0  0  0  0  0  0  0  0
   -1.4302   -0.4918   -3.1688 H   0  0  0  0  0  0  0  0  0  0  0  0
   -1.9109   -2.1370   -2.6629 H   0  0  0  0  0  0  0  0  0  0  0  0
    3.9869   -1.3043    1.5741 C   0  0  0  0  0  0  0  0  0  0  0  0
    4.7637   -0.5234    1.4312 H   0  0  0  0  0  0  0  0  0  0  0  0
    4.2392   -2.1853    0.9427 H   0  0  0  0  0  0  0  0  0  0  0  0
    3.9874   -1.6239    2.6344 H   0  0  0  0  0  0  0  0  0  0  0  0
    3.4796    2.4861    0.9050 C   0  0  0  0  0  0  0  0  0  0  0  0
    2.4815    2.9371    0.7172 H   0  0  0  0  0  0  0  0  0  0  0  0
    4.2747    3.2019    0.6207 H   0  0  0  0  0  0  0  0  0  0  0  0
    3.5666    2.2520    1.9878 H   0  0  0  0  0  0  0  0  0  0  0  0
   -1.7101    3.9132    0.8991 C   0  0  0  0  0  0  0  0  0  0  0  0
   -1.9134    3.7574    1.9804 H   0  0  0  0  0  0  0  0  0  0  0  0
   -2.0200    4.9365    0.6128 H   0  0  0  0  0  0  0  0  0  0  0  0
   -0.6210    3.7844    0.7195 H   0  0  0  0  0  0  0  0  0  0  0  0
   -4.0888    0.9182    1.5566 C   0  0  0  0  0  0  0  0  0  0  0  0
   -4.3571    1.9858    1.4087 H   0  0  0  0  0  0  0  0  0  0  0  0
   -4.2559    0.6481    2.6176 H   0  0  0  0  0  0  0  0  0  0  0  0
   -4.7534    0.2871    0.9255 H   0  0  0  0  0  0  0  0  0  0  0  0
   -0.7115   -2.5507   -0.0233 C   0  0  0  0  0  0  0  0  0  0  0  0
   -1.0497   -3.8238   -0.5293 C   0  0  0  0  0  0  0  0  0  0  0  0
   -1.0775   -4.0058   -1.6159 H   0  0  0  0  0  0  0  0  0  0  0  0
   -1.3559   -4.8766    0.3452 C   0  0  0  0  0  0  0  0  0  0  0  0
   -1.6178   -5.8667   -0.0586 H   0  0  0  0  0  0  0  0  0  0  0  0
   -1.3280   -4.6662    1.7346 C   0  0  0  0  0  0  0  0  0  0  0  0
   -1.5689   -5.4928    2.4206 H   0  0  0  0  0  0  0  0  0  0  0  0
   -0.9927   -3.4024    2.2432 C   0  0  0  0  0  0  0  0  0  0  0  0
   -0.9692   -3.2320    3.3303 H   0  0  0  0  0  0  0  0  0  0  0  0
   -0.6849   -2.3487    1.3682 C   0  0  0  0  0  0  0  0  0  0  0  0
   -0.4164   -1.3464    1.7401 H   0  0  0  0  0  0  0  0  0  0  0  0
  1 42  1  0  0  0  0
  2  5  1  0  0  0  0
  2  4  1  0  0  0  0
  3  6  1  0  0  0  0
  3  7  1  0  0  0  0
  4 26  1  0  0  0  0
  5 30  1  0  0  0  0
  6 34  1  0  0  0  0
  7 38  1  0  0  0  0
  8 10  1  0  0  0  0
  8  2  1  0  0  0  0
  9  8  1  0  0  0  0
 11  8  1  0  0  0  0
 11 13  1  0  0  0  0
 12 11  1  0  0  0  0
 14 11  1  0  0  0  0
 14  1  1  0  0  0  0
 15 14  1  0  0  0  0
 16 14  1  0  0  0  0
 17 18  1  0  0  0  0
 17  3  1  0  0  0  0
 19 17  1  0  0  0  0
 20 17  1  0  0  0  0
 20 22  1  0  0  0  0
 21 20  1  0  0  0  0
 23 20  1  0  0  0  0
 23  1  1  0  0  0  0
 24 23  1  0  0  0  0
 25 23  1  0  0  0  0
 26 29  1  0  0  0  0
 27 26  1  0  0  0  0
 28 26  1  0  0  0  0
 30 33  1  0  0  0  0
 31 30  1  0  0  0  0
 32 30  1  0  0  0  0
 34 35  1  0  0  0  0
 36 34  1  0  0  0  0
 37 34  1  0  0  0  0
 38 40  1  0  0  0  0
 39 38  1  0  0  0  0
 41 38  1  0  0  0  0
 42 51  1  0  0  0  0
 43 42  2  0  0  0  0
 43 45  1  0  0  0  0
 44 43  1  0  0  0  0
 45 47  2  0  0  0  0
 46 45  1  0  0  0  0
 47 49  1  0  0  0  0
 47 48  1  0  0  0  0
 49 50  1  0  0  0  0
 51 52  1  0  0  0  0
 51 49  2  0  0  0  0
M  END
