1,2,3
q = 0.0, confidence = 0.992

 58 58  0  0  0  0  0  0  0  0999 V2000
    0.6620   -0.5740    1.1190 P   0  0  0  0  0  0  0  0  0  0  0  0
   -2.2471   -1.0763   -0.1751 P   0  0  0  0  0  0  0  0  0  0  0  0
    0.5450    2.3110   -0.0367 P   0  0  0  0  0  0  0  0  0  0  0  0
   -1.9020   -2.0229   -1.4681 O   0  0  0  0  0  0  0  0  0  0  0  0
   -3.8536   -0.7969   -0.4655 O   0  0  0  0  0  0  0  0  0  0  0  0
    0.1061    3.8224   -0.5240 O   0  0  0  0  0  0  0  0  0  0  0  0
    1.8687    1.9448   -0.9717 O   0  0  0  0  0  0  0  0  0  0  0  0
    2.1013   -1.2107    0.1153 C   0  0  0  0  0  0  0  0  0  0  0  0
    2.3307   -0.3509   -0.5523 H   0  0  0  0  0  0  0  0  0  0  0  0
    3.3704   -1.5542    0.9141 C   0  0  0  0  0  0  0  0  0  0  0  0
    3.7008   -0.6969    1.5346 H   0  0  0  0  0  0  0  0  0  0  0  0
    3.1595   -2.3927    1.6159 H   0  0  0  0  0  0  0  0  0  0  0  0
    4.5083   -1.9619   -0.0380 C   0  0  0  0  0  0  0  0  0  0  0  0
    4.7918   -1.0769   -0.6506 H   0  0  0  0  0  0  0  0  0  0  0  0
    5.4078   -2.2337    0.5516 H   0  0  0  0  0  0  0  0  0  0  0  0
    4.1022   -3.1116   -0.9669 C   0  0  0  0  0  0  0  0  0  0  0  0
    3.9448   -4.0325   -0.3618 H   0  0  0  0  0  0  0  0  0  0  0  0
    4.9253   -3.3427   -1.6733 H   0  0  0  0  0  0  0  0  0  0  0  0
    2.8132   -2.7871   -1.7307 C   0  0  0  0  0  0  0  0  0  0  0  0
    2.4997   -3.6497   -2.3537 H   0  0  0  0  0  0  0  0  0  0  0  0
    2.9905   -1.9421   -2.4324 H   0  0  0  0  0  0  0  0  0  0  0  0
    1.6816   -2.4040   -0.7672 C   0  0  0  0  0  0  0  0  0  0  0  0
    0.7483   -2.1881   -1.3245 H   0  0  0  0  0  0  0  0  0  0  0  0
    1.4646   -3.2765   -0.1115 H   0  0  0  0  0  0  0  0  0  0  0  0
    0.0716   -2.0332    2.1216 C   0  0  0  0  0  0  0  0  0  0  0  0
    0.9803   -2.6128    2.3880 H   0  0  0  0  0  0  0  0  0  0  0  0
   -0.3144   -1.6054    3.0715 H   0  0  0  0  0  0  0  0  0  0  0  0
   -0.9919   -2.9497    1.5118 C   0  0  0  0  0  0  0  0  0  0  0  0
   -1.1696   -3.7875    2.2175 H   0  0  0  0  0  0  0  0  0  0  0  0
   -0.6206   -3.4138    0.5756 H   0  0  0  0  0  0  0  0  0  0  0  0
   -2.3264   -2.2448    1.2454 C   0  0  0  0  0  0  0  0  0  0  0  0
   -2.6589   -1.6739    2.1392 H   0  0  0  0  0  0  0  0  0  0  0  0
   -3.1299   -2.9734    1.0119 H   0  0  0  0  0  0  0  0  0  0  0  0
   -2.7208   -3.1413   -1.8563 C   0  0  0  0  0  0  0  0  0  0  0  0
   -2.5698   -4.0022   -1.1715 H   0  0  0  0  0  0  0  0  0  0  0  0
   -2.3915   -3.4275   -2.8718 H   0  0  0  0  0  0  0  0  0  0  0  0
   -3.7910   -2.8588   -1.8787 H   0  0  0  0  0  0  0  0  0  0  0  0
   -4.7008   -0.1264    0.4730 C   0  0  0  0  0  0  0  0  0  0  0  0
   -4.7572   -0.6694    1.4403 H   0  0  0  0  0  0  0  0  0  0  0  0
   -5.7103   -0.0982    0.0227 H   0  0  0  0  0  0  0  0  0  0  0  0
   -4.3625    0.9149    0.6550 H   0  0  0  0  0  0  0  0  0  0  0  0
    1.3931    0.3948    2.5337 C   0  0  0  0  0  0  0  0  0  0  0  0
    0.5360    0.6115    3.2072 H   0  0  0  0  0  0  0  0  0  0  0  0
    2.0649   -0.2915    3.0885 H   0  0  0  0  0  0  0  0  0  0  0  0
    2.1297    1.6928    2.1912 C   0  0  0  0  0  0  0  0  0  0  0  0
    2.9807    1.4763    1.5115 H   0  0  0  0  0  0  0  0  0  0  0  0
    2.5844    2.0888    3.1227 H   0  0  0  0  0  0  0  0  0  0  0  0
    1.2480    2.7932    1.5863 C   0  0  0  0  0  0  0  0  0  0  0  0
    1.8184    3.7303    1.4277 H   0  0  0  0  0  0  0  0  0  0  0  0
    0.3963    3.0471    2.2518 H   0  0  0  0  0  0  0  0  0  0  0  0
   -0.1711    4.1608   -1.8937 C   0  0  0  0  0  0  0  0  0  0  0  0
    0.1163    3.3467   -2.5897 H   0  0  0  0  0  0  0  0  0  0  0  0
    0.4195    5.0655   -2.1396 H   0  0  0  0  0  0  0  0  0  0  0  0
   -1.2477    4.3858   -2.0121 H   0  0  0  0  0  0  0  0  0  0  0  0
    2.9704    2.8560   -1.1184 C   0  0  0  0  0  0  0  0  0  0  0  0
    2.6249    3.9076   -1.1850 H   0  0  0  0  0  0  0  0  0  0  0  0
    3.4888    2.5836   -2.0567 H   0  0  0  0  0  0  0  0  0  0  0  0
    3.6806    2.7589   -0.2708 H   0  0  0  0  0  0  0  0  0  0  0  0
  1 25  1  0  0  0  0
  1 42  1  0  0  0  0
  2 31  1  0  0  0  0
  3 48  1  0  0  0  0
  4  2  1  0  0  0  0
  5  2  1  0  0  0  0
  5 38  1  0  0  0  0
  6  3  1  0  0  0  0
  7  3  1  0  0  0  0
  8 10  1  0  0  0  0
  8  1  1  0  0  0  0
  9  8  1  0  0  0  0
 10 11  1  0  0  0  0
 10 12  1  0  0  0  0
 13 15  1  0  0  0  0
 13 10  1  0  0  0  0
 14 13  1  0  0  0  0
 16 17  1  0  0  0  0
 16 13  1  0  0  0  0
 18 16  1  0  0  0  0
 19 16  1  0  0  0  0
 19 22  1  0  0  0  0
 20 19  1  0  0  0  0
 21 19  1  0  0  0  0
 22 24  1  0  0  0  0
 22  8  1  0  0  0  0
 23 22  1  0  0  0  0
 25 26  1  0  0  0  0
 25 27  1  0  0  0  0
 28 25  1  0  0  0  0
 28 29  1  0  0  0  0
 30 28  1  0  0  0  0
 31 28  1  0  0  0  0
 31 32  1  0  0  0  0
 33 31  1  0  0  0  0
 34  4  1  0  0  0  0
 34 35  1  0  0  0  0
 36 34  1  0  0  0  0
 37 34  1  0  0  0  0
 38 41  1  0  0  0  0
 38 39  1  0  0  0  0
 40 38  1  0  0  0  0
 42 44  1  0  0  0  0
 42 43  1  0  0  0  0
 45 42  1  0  0  0  0
 45 47  1  0  0  0  0
 46 45  1  0  0  0  0
 48 45  1  0  0  0  0
 48 50  1  0  0  0  0
 49 48  1  0  0  0  0
 51  6  1  0  0  0  0
 52 51  1  0  0  0  0
 53 51  1  0  0  0  0
 54 51  1  0  0  0  0
 55  7  1  0  0  0  0
 55 58  1  0  0  0  0
 56 55  1  0  0  0  0
 57 55  1  0  0  0  0
M  END
