2,3,4
q = 0.0, confidence = 0.996

 41 40  0  0  0  0  0  0  0  0999 V2000
   -0.5074    0.6105    2.3297 Si  0  0  0  0  0  0  0  0  0  0  0  0
   -1.1718   -1.5547    0.4274 P   0  0  0  0  0  0  0  0  0  0  0  0
    1.8020    0.0770    0.5985 P   0  0  0  0  0  0  0  0  0  0  0  0
   -1.0228    1.6507   -0.3861 P   0  0  0  0  0  0  0  0  0  0  0  0
   -2.7517   -1.7382    0.0654 O   0  0  0  0  0  0  0  0  0  0  0  0
   -3.6519   -2.4179    0.9489 C   0  0  0  0  0  0  0  0  0  0  0  0
   -0.8517   -3.1147    0.8736 O   0  0  0  0  0  0  0  0  0  0  0  0
    0.4410   -3.4589    1.3674 C   0  0  0  0  0  0  0  0  0  0  0  0
   -1.2526   -0.8574    1.9650 O   0  0  0  0  0  0  0  0  0  0  0  0
    2.8226    1.3623    0.3625 O   0  0  0  0  0  0  0  0  0  0  0  0
    3.6652    1.8292    1.4215 C   0  0  0  0  0  0  0  0  0  0  0  0
    2.8519   -1.0771    1.1840 O   0  0  0  0  0  0  0  0  0  0  0  0
    3.7911   -1.6419    0.2662 C   0  0  0  0  0  0  0  0  0  0  0  0
    1.1622    0.4376    2.0948 O   0  0  0  0  0  0  0  0  0  0  0  0
   -0.6345    3.2037   -0.7897 O   0  0  0  0  0  0  0  0  0  0  0  0
    0.6532    3.7264   -0.4624 C   0  0  0  0  0  0  0  0  0  0  0  0
   -2.6060    1.6981   -0.7794 O   0  0  0  0  0  0  0  0  0  0  0  0
   -3.4546    2.7691   -0.3486 C   0  0  0  0  0  0  0  0  0  0  0  0
   -1.0746    1.8186    1.2947 O   0  0  0  0  0  0  0  0  0  0  0  0
   -0.8347    1.0755    4.0848 C   0  0  0  0  0  0  0  0  0  0  0  0
   -3.4187   -3.5007    0.9930 H   0  0  0  0  0  0  0  0  0  0  0  0
   -4.6680   -2.2701    0.5377 H   0  0  0  0  0  0  0  0  0  0  0  0
   -3.5999   -1.9916    1.9722 H   0  0  0  0  0  0  0  0  0  0  0  0
    0.4043   -4.5301    1.6430 H   0  0  0  0  0  0  0  0  0  0  0  0
    0.7094   -2.8593    2.2628 H   0  0  0  0  0  0  0  0  0  0  0  0
    1.2228   -3.3108    0.5943 H   0  0  0  0  0  0  0  0  0  0  0  0
    3.0827    2.4318    2.1495 H   0  0  0  0  0  0  0  0  0  0  0  0
    4.4470    2.4621    0.9599 H   0  0  0  0  0  0  0  0  0  0  0  0
    4.1412    0.9846    1.9615 H   0  0  0  0  0  0  0  0  0  0  0  0
    4.3242   -2.4471    0.8066 H   0  0  0  0  0  0  0  0  0  0  0  0
    4.5292   -0.8846   -0.0760 H   0  0  0  0  0  0  0  0  0  0  0  0
    3.2897   -2.0751   -0.6240 H   0  0  0  0  0  0  0  0  0  0  0  0
    0.7589    4.6861   -1.0030 H   0  0  0  0  0  0  0  0  0  0  0  0
    1.4685    3.0383   -0.7665 H   0  0  0  0  0  0  0  0  0  0  0  0
    0.7345    3.9120    0.6307 H   0  0  0  0  0  0  0  0  0  0  0  0
   -4.4870    2.4822   -0.6225 H   0  0  0  0  0  0  0  0  0  0  0  0
   -3.1812    3.7168   -0.8544 H   0  0  0  0  0  0  0  0  0  0  0  0
   -3.3877    2.9099    0.7503 H   0  0  0  0  0  0  0  0  0  0  0  0
   -1.9241    1.1747    4.2576 H   0  0  0  0  0  0  0  0  0  0  0  0
   -0.3492    2.0417    4.3242 H   0  0  0  0  0  0  0  0  0  0  0  0
   -0.4367    0.2995    4.7674 H   0  0  0  0  0  0  0  0  0  0  0  0
  1 20  1  0  0  0  0
  2  7  1  0  0  0  0
  2  9  1  0  0  0  0
  3 12  1  0  0  0  0
  3 14  1  0  0  0  0
  4 19  1  0  0  0  0
  5  2  1  0  0  0  0
  5  6  1  0  0  0  0
  6 21  1  0  0  0  0
  6 23  1  0  0  0  0
  7  8  1  0  0  0  0
  8 24  1  0  0  0  0
  8 25  1  0  0  0  0
  9  1  1  0  0  0  0
 10  3  1  0  0  0  0
 10 11  1  0  0  0  0
 11 29  1  0  0  0  0
 11 27  1  0  0  0  0
 13 30  1  0  0  0  0
 13 12  1  0  0  0  0
 14  1  1  0  0  0  0
 15 16  1  0  0  0  0
 15  4  1  0  0  0  0
 16 35  1  0  0  0  0
 17  4  1  0  0  0  0
 17 18  1  0  0  0  0
 18 38  1  0  0  0  0
 19  1  1  0  0  0  0
 20 39  1  0  0  0  0
 20 40  1  0  0  0  0
 20 41  1  0  0  0  0
 22  6  1  0  0  0  0
 26  8  1  0  0  0  0
 28 11  1  0  0  0  0
 31 13  1  0  0  0  0
 32 13  1  0  0  0  0
 33 16  1  0  0  0  0
 34 16  1  0  0  0  0
 36 18  1  0  0  0  0
 37 18  1  0  0  0  0
M  END
