1,2,3
q = -1.0

 75 81  0  0  0  0  0  0  0  0999 V2000
   -2.0305   -0.2455   -0.1171 P   0  0  0  0  0  0  0  0  0  0  0  0
    0.0908    1.6185    0.8219 P   0  0  0  0  0  2  0  0  0  0  0  0
    2.0469   -0.2270   -0.0570 P   0  0  0  0  0  0  0  0  0  0  0  0
   -1.2093    2.8003    0.5049 N   0  0  0  0  0  0  0  0  0  0  0  0
    1.2775    2.8566    0.2968 N   0  0  0  0  0  0  0  0  0  0  0  0
   -3.1429   -0.9459   -1.4247 C   0  0  0  0  0  0  0  0  0  0  0  0
   -3.0614   -0.3783   -2.7128 C   0  0  0  0  0  0  0  0  0  0  0  0
   -3.9030   -0.8275   -3.7393 C   0  0  0  0  0  0  0  0  0  0  0  0
   -4.8265   -1.8573   -3.4965 C   0  0  0  0  0  0  0  0  0  0  0  0
   -4.9091   -2.4293   -2.2183 C   0  0  0  0  0  0  0  0  0  0  0  0
   -4.0745   -1.9752   -1.1845 C   0  0  0  0  0  0  0  0  0  0  0  0
   -2.1480   -1.4691    1.2549 C   0  0  0  0  0  0  0  0  0  0  0  0
   -2.4042   -1.0652    2.5804 C   0  0  0  0  0  0  0  0  0  0  0  0
   -2.3769   -2.0030    3.6252 C   0  0  0  0  0  0  0  0  0  0  0  0
   -2.1085   -3.3538    3.3589 C   0  0  0  0  0  0  0  0  0  0  0  0
   -1.8441   -3.7627    2.0391 C   0  0  0  0  0  0  0  0  0  0  0  0
   -1.8495   -2.8271    0.9963 C   0  0  0  0  0  0  0  0  0  0  0  0
   -3.0524    1.1648    0.4950 C   0  0  0  0  0  0  0  0  0  0  0  0
   -4.4298    0.9227    0.6902 C   0  0  0  0  0  0  0  0  0  0  0  0
   -5.3221    1.9331    1.0585 C   0  0  0  0  0  0  0  0  0  0  0  0
   -4.8284    3.2384    1.2241 C   0  0  0  0  0  0  0  0  0  0  0  0
   -3.4734    3.5137    1.0411 C   0  0  0  0  0  0  0  0  0  0  0  0
   -2.5468    2.4941    0.6745 C   0  0  0  0  0  0  0  0  0  0  0  0
   -0.7201    4.1631    0.6085 C   0  0  0  0  0  0  0  0  0  0  0  0
    0.6833    4.1596    0.0091 C   0  0  0  0  0  0  0  0  0  0  0  0
    2.5843    2.5924   -0.0750 C   0  0  0  0  0  0  0  0  0  0  0  0
    3.4642    3.6742   -0.3753 C   0  0  0  0  0  0  0  0  0  0  0  0
    4.8060    3.4654   -0.6917 C   0  0  0  0  0  0  0  0  0  0  0  0
    5.3365    2.1656   -0.7411 C   0  0  0  0  0  0  0  0  0  0  0  0
    4.4816    1.0865   -0.5018 C   0  0  0  0  0  0  0  0  0  0  0  0
    3.1150    1.2611   -0.1847 C   0  0  0  0  0  0  0  0  0  0  0  0
    2.2058   -0.7348    1.7096 C   0  0  0  0  0  0  0  0  0  0  0  0
    3.2107   -0.2280    2.5566 C   0  0  0  0  0  0  0  0  0  0  0  0
    3.3025   -0.6784    3.8829 C   0  0  0  0  0  0  0  0  0  0  0  0
    2.3996   -1.6383    4.3673 C   0  0  0  0  0  0  0  0  0  0  0  0
    1.3956   -2.1437    3.5246 C   0  0  0  0  0  0  0  0  0  0  0  0
    1.2928   -1.6864    2.2038 C   0  0  0  0  0  0  0  0  0  0  0  0
    3.0219   -1.5093   -0.9536 C   0  0  0  0  0  0  0  0  0  0  0  0
    3.1273   -1.3894   -2.3561 C   0  0  0  0  0  0  0  0  0  0  0  0
    3.8352   -2.3462   -3.0931 C   0  0  0  0  0  0  0  0  0  0  0  0
    4.4337   -3.4383   -2.4410 C   0  0  0  0  0  0  0  0  0  0  0  0
    4.3237   -3.5648   -1.0486 C   0  0  0  0  0  0  0  0  0  0  0  0
    3.6225   -2.6025   -0.3026 C   0  0  0  0  0  0  0  0  0  0  0  0
   -2.3298    0.4197   -2.9078 H   0  0  0  0  0  0  0  0  0  0  0  0
   -3.8305   -0.3740   -4.7396 H   0  0  0  0  0  0  0  0  0  0  0  0
   -5.4805   -2.2161   -4.3059 H   0  0  0  0  0  0  0  0  0  0  0  0
   -5.6292   -3.2379   -2.0196 H   0  0  0  0  0  0  0  0  0  0  0  0
   -4.1500   -2.4308   -0.1862 H   0  0  0  0  0  0  0  0  0  0  0  0
   -2.6304   -0.0101    2.7933 H   0  0  0  0  0  0  0  0  0  0  0  0
   -2.5737   -1.6717    4.6562 H   0  0  0  0  0  0  0  0  0  0  0  0
   -2.1013   -4.0895    4.1775 H   0  0  0  0  0  0  0  0  0  0  0  0
   -1.6239   -4.8188    1.8207 H   0  0  0  0  0  0  0  0  0  0  0  0
   -1.6145   -3.1533   -0.0285 H   0  0  0  0  0  0  0  0  0  0  0  0
   -4.8124   -0.0977    0.5404 H   0  0  0  0  0  0  0  0  0  0  0  0
   -6.3872    1.7066    1.2100 H   0  0  0  0  0  0  0  0  0  0  0  0
   -5.5072    4.0561    1.5118 H   0  0  0  0  0  0  0  0  0  0  0  0
   -3.1140    4.5381    1.2015 H   0  0  0  0  0  0  0  0  0  0  0  0
   -0.7008    4.5154    1.6687 H   0  0  0  0  0  0  0  0  0  0  0  0
   -1.3736    4.8541    0.0379 H   0  0  0  0  0  0  0  0  0  0  0  0
    1.2766    4.9833    0.4574 H   0  0  0  0  0  0  0  0  0  0  0  0
    0.6472    4.3219   -1.0927 H   0  0  0  0  0  0  0  0  0  0  0  0
    3.0869    4.7035   -0.3453 H   0  0  0  0  0  0  0  0  0  0  0  0
    5.4466    4.3354   -0.9035 H   0  0  0  0  0  0  0  0  0  0  0  0
    6.3959    1.9936   -0.9796 H   0  0  0  0  0  0  0  0  0  0  0  0
    4.8770    0.0629   -0.5748 H   0  0  0  0  0  0  0  0  0  0  0  0
    3.9183    0.5236    2.1760 H   0  0  0  0  0  0  0  0  0  0  0  0
    4.0852   -0.2736    4.5428 H   0  0  0  0  0  0  0  0  0  0  0  0
    2.4736   -1.9880    5.4085 H   0  0  0  0  0  0  0  0  0  0  0  0
    0.6739   -2.8861    3.8962 H   0  0  0  0  0  0  0  0  0  0  0  0
    0.4906   -2.0542    1.5481 H   0  0  0  0  0  0  0  0  0  0  0  0
    2.6472   -0.5393   -2.8654 H   0  0  0  0  0  0  0  0  0  0  0  0
    3.9145   -2.2436   -4.1860 H   0  0  0  0  0  0  0  0  0  0  0  0
    4.9839   -4.1937   -3.0224 H   0  0  0  0  0  0  0  0  0  0  0  0
    4.7888   -4.4187   -0.5327 H   0  0  0  0  0  0  0  0  0  0  0  0
    3.5437   -2.7026    0.7898 H   0  0  0  0  0  0  0  0  0  0  0  0
  1 18  1  0  0  0  0
  1 12  1  0  0  0  0
  3 32  1  0  0  0  0
  4 24  1  0  0  0  0
  4 23  1  0  0  0  0
  4  2  1  0  0  0  0
  5  2  1  0  0  0  0
  6 11  1  0  0  0  0
  6  1  1  0  0  0  0
  7  6  2  0  0  0  0
  8  9  2  0  0  0  0
  8  7  1  0  0  0  0
  9 10  1  0  0  0  0
 10 47  1  0  0  0  0
 10 11  2  0  0  0  0
 11 48  1  0  0  0  0
 12 13  1  0  0  0  0
 13 49  1  0  0  0  0
 13 14  2  0  0  0  0
 14 50  1  0  0  0  0
 15 14  1  0  0  0  0
 15 51  1  0  0  0  0
 16 15  2  0  0  0  0
 17 12  2  0  0  0  0
 17 16  1  0  0  0  0
 18 23  2  0  0  0  0
 18 19  1  0  0  0  0
 19 20  2  0  0  0  0
 20 55  1  0  0  0  0
 20 21  1  0  0  0  0
 21 56  1  0  0  0  0
 22 57  1  0  0  0  0
 22 21  2  0  0  0  0
 23 22  1  0  0  0  0
 24 58  1  0  0  0  0
 25  5  1  0  0  0  0
 25 60  1  0  0  0  0
 25 24  1  0  0  0  0
 26  5  1  0  0  0  0
 27 62  1  0  0  0  0
 27 26  2  0  0  0  0
 28 27  1  0  0  0  0
 29 28  2  0  0  0  0
 29 30  1  0  0  0  0
 30 31  2  0  0  0  0
 31 26  1  0  0  0  0
 31  3  1  0  0  0  0
 32 37  2  0  0  0  0
 32 33  1  0  0  0  0
 33 34  2  0  0  0  0
 34 35  1  0  0  0  0
 34 67  1  0  0  0  0
 35 68  1  0  0  0  0
 36 69  1  0  0  0  0
 36 35  2  0  0  0  0
 37 36  1  0  0  0  0
 38 43  1  0  0  0  0
 38  3  1  0  0  0  0
 39 38  2  0  0  0  0
 40 41  2  0  0  0  0
 40 39  1  0  0  0  0
 41 42  1  0  0  0  0
 42 74  1  0  0  0  0
 42 43  2  0  0  0  0
 43 75  1  0  0  0  0
 44  7  1  0  0  0  0
 45  8  1  0  0  0  0
 46  9  1  0  0  0  0
 52 16  1  0  0  0  0
 53 17  1  0  0  0  0
 54 19  1  0  0  0  0
 59 24  1  0  0  0  0
 61 25  1  0  0  0  0
 63 28  1  0  0  0  0
 64 29  1  0  0  0  0
 65 30  1  0  0  0  0
 66 33  1  0  0  0  0
 70 37  1  0  0  0  0
 71 39  1  0  0  0  0
 72 40  1  0  0  0  0
 73 41  1  0  0  0  0
M  END
