1,2,3
q = -1.0

 76 82  0  0  0  0  0  0  0  0999 V2000
    2.0165   -0.2420    0.1655 P   0  0  0  0  0  0  0  0  0  0  0  0
   -0.0293    1.6592   -0.6408 P   0  0  0  0  0  4  0  0  0  0  0  0
   -2.0142   -0.2477    0.0531 P   0  0  0  0  0  0  0  0  0  0  0  0
   -0.0467    1.2841   -2.1148 O   0  0  0  0  0  0  0  0  0  0  0  0
    1.2354    2.8354   -0.2853 N   0  0  0  0  0  0  0  0  0  0  0  0
   -1.2450    2.8748   -0.2636 N   0  0  0  0  0  0  0  0  0  0  0  0
    2.0636   -1.4993   -1.1738 C   0  0  0  0  0  0  0  0  0  0  0  0
    2.0281   -2.8769   -0.8650 C   0  0  0  0  0  0  0  0  0  0  0  0
    2.0111   -3.8287   -1.8948 C   0  0  0  0  0  0  0  0  0  0  0  0
    1.9993   -3.4156   -3.2373 C   0  0  0  0  0  0  0  0  0  0  0  0
    1.9820   -2.0463   -3.5438 C   0  0  0  0  0  0  0  0  0  0  0  0
    2.0134   -1.0877   -2.5209 C   0  0  0  0  0  0  0  0  0  0  0  0
    3.1460   -0.8994    1.4803 C   0  0  0  0  0  0  0  0  0  0  0  0
    4.1917   -1.8079    1.2153 C   0  0  0  0  0  0  0  0  0  0  0  0
    5.0507   -2.2184    2.2459 C   0  0  0  0  0  0  0  0  0  0  0  0
    4.8811   -1.7231    3.5481 C   0  0  0  0  0  0  0  0  0  0  0  0
    3.8448   -0.8154    3.8168 C   0  0  0  0  0  0  0  0  0  0  0  0
    2.9789   -0.4103    2.7911 C   0  0  0  0  0  0  0  0  0  0  0  0
    3.0246    1.1580   -0.4963 C   0  0  0  0  0  0  0  0  0  0  0  0
    4.3568    0.8743   -0.8593 C   0  0  0  0  0  0  0  0  0  0  0  0
    5.2474    1.8746   -1.2614 C   0  0  0  0  0  0  0  0  0  0  0  0
    4.7983    3.2043   -1.2920 C   0  0  0  0  0  0  0  0  0  0  0  0
    3.4781    3.5158   -0.9593 C   0  0  0  0  0  0  0  0  0  0  0  0
    2.5556    2.5089   -0.5677 C   0  0  0  0  0  0  0  0  0  0  0  0
    0.7487    4.1997   -0.4127 C   0  0  0  0  0  0  0  0  0  0  0  0
   -0.6998    4.1808    0.0817 C   0  0  0  0  0  0  0  0  0  0  0  0
   -2.5932    2.5798   -0.1403 C   0  0  0  0  0  0  0  0  0  0  0  0
   -3.5425    3.6341   -0.0276 C   0  0  0  0  0  0  0  0  0  0  0  0
   -4.9151    3.3848   -0.0054 C   0  0  0  0  0  0  0  0  0  0  0  0
   -5.4051    2.0705   -0.0782 C   0  0  0  0  0  0  0  0  0  0  0  0
   -4.4880    1.0173   -0.1204 C   0  0  0  0  0  0  0  0  0  0  0  0
   -3.0916    1.2337   -0.1317 C   0  0  0  0  0  0  0  0  0  0  0  0
   -3.0531   -1.3204    1.1432 C   0  0  0  0  0  0  0  0  0  0  0  0
   -3.1404   -0.9701    2.5069 C   0  0  0  0  0  0  0  0  0  0  0  0
   -3.9247   -1.7317    3.3820 C   0  0  0  0  0  0  0  0  0  0  0  0
   -4.6220   -2.8562    2.9082 C   0  0  0  0  0  0  0  0  0  0  0  0
   -4.5355   -3.2092    1.5538 C   0  0  0  0  0  0  0  0  0  0  0  0
   -3.7568   -2.4437    0.6697 C   0  0  0  0  0  0  0  0  0  0  0  0
   -2.0402   -1.1038   -1.5693 C   0  0  0  0  0  0  0  0  0  0  0  0
   -2.6408   -0.5333   -2.7054 C   0  0  0  0  0  0  0  0  0  0  0  0
   -2.6165   -1.2192   -3.9287 C   0  0  0  0  0  0  0  0  0  0  0  0
   -2.0013   -2.4769   -4.0221 C   0  0  0  0  0  0  0  0  0  0  0  0
   -1.3938   -3.0440   -2.8898 C   0  0  0  0  0  0  0  0  0  0  0  0
   -1.3981   -2.3543   -1.6706 C   0  0  0  0  0  0  0  0  0  0  0  0
    2.0181   -3.2099    0.1837 H   0  0  0  0  0  0  0  0  0  0  0  0
    2.0038   -4.9006   -1.6439 H   0  0  0  0  0  0  0  0  0  0  0  0
    1.9861   -4.1635   -4.0449 H   0  0  0  0  0  0  0  0  0  0  0  0
    1.9367   -1.7151   -4.5922 H   0  0  0  0  0  0  0  0  0  0  0  0
    1.9627   -0.0163   -2.7610 H   0  0  0  0  0  0  0  0  0  0  0  0
    4.3330   -2.2097    0.2013 H   0  0  0  0  0  0  0  0  0  0  0  0
    5.8583   -2.9336    2.0270 H   0  0  0  0  0  0  0  0  0  0  0  0
    5.5556   -2.0478    4.3549 H   0  0  0  0  0  0  0  0  0  0  0  0
    3.7026   -0.4230    4.8351 H   0  0  0  0  0  0  0  0  0  0  0  0
    2.1610    0.2933    3.0040 H   0  0  0  0  0  0  0  0  0  0  0  0
    4.7087   -0.1666   -0.8166 H   0  0  0  0  0  0  0  0  0  0  0  0
    6.2800    1.6194   -1.5394 H   0  0  0  0  0  0  0  0  0  0  0  0
    5.4809    4.0135   -1.5943 H   0  0  0  0  0  0  0  0  0  0  0  0
    3.1456    4.5600   -1.0194 H   0  0  0  0  0  0  0  0  0  0  0  0
    1.3549    4.8936    0.2052 H   0  0  0  0  0  0  0  0  0  0  0  0
    0.8008    4.5504   -1.4715 H   0  0  0  0  0  0  0  0  0  0  0  0
   -0.7507    4.3413    1.1835 H   0  0  0  0  0  0  0  0  0  0  0  0
   -1.2636    5.0006   -0.4093 H   0  0  0  0  0  0  0  0  0  0  0  0
   -3.1925    4.6728    0.0218 H   0  0  0  0  0  0  0  0  0  0  0  0
   -5.6120    4.2339    0.0674 H   0  0  0  0  0  0  0  0  0  0  0  0
   -6.4855    1.8671   -0.0739 H   0  0  0  0  0  0  0  0  0  0  0  0
   -4.8603   -0.0179   -0.1207 H   0  0  0  0  0  0  0  0  0  0  0  0
   -2.5868   -0.0944    2.8793 H   0  0  0  0  0  0  0  0  0  0  0  0
   -3.9876   -1.4490    4.4439 H   0  0  0  0  0  0  0  0  0  0  0  0
   -5.2321   -3.4585    3.5983 H   0  0  0  0  0  0  0  0  0  0  0  0
   -5.0789   -4.0887    1.1757 H   0  0  0  0  0  0  0  0  0  0  0  0
   -3.6972   -2.7226   -0.3923 H   0  0  0  0  0  0  0  0  0  0  0  0
   -3.1150    0.4559   -2.6327 H   0  0  0  0  0  0  0  0  0  0  0  0
   -3.0799   -0.7632   -4.8168 H   0  0  0  0  0  0  0  0  0  0  0  0
   -1.9855   -3.0137   -4.9829 H   0  0  0  0  0  0  0  0  0  0  0  0
   -0.8942   -4.0211   -2.9581 H   0  0  0  0  0  0  0  0  0  0  0  0
   -0.8966   -2.7895   -0.7928 H   0  0  0  0  0  0  0  0  0  0  0  0
  1 13  1  0  0  0  0
  2  5  1  0  0  0  0
  2  6  1  0  0  0  0
  3 33  1  0  0  0  0
  4  2  2  0  0  0  0
  6 27  1  0  0  0  0
  6 26  1  0  0  0  0
  7  8  1  0  0  0  0
  7  1  1  0  0  0  0
  8 45  1  0  0  0  0
  9 46  1  0  0  0  0
  9  8  2  0  0  0  0
 10  9  1  0  0  0  0
 11 10  2  0  0  0  0
 11 12  1  0  0  0  0
 12  7  2  0  0  0  0
 13 18  1  0  0  0  0
 14 13  2  0  0  0  0
 14 15  1  0  0  0  0
 15 16  2  0  0  0  0
 16 17  1  0  0  0  0
 16 52  1  0  0  0  0
 17 53  1  0  0  0  0
 18 54  1  0  0  0  0
 18 17  2  0  0  0  0
 19  1  1  0  0  0  0
 20 55  1  0  0  0  0
 20 19  2  0  0  0  0
 21 20  1  0  0  0  0
 22 21  2  0  0  0  0
 22 23  1  0  0  0  0
 23 24  2  0  0  0  0
 24 19  1  0  0  0  0
 24  5  1  0  0  0  0
 25  5  1  0  0  0  0
 25 26  1  0  0  0  0
 25 59  1  0  0  0  0
 26 61  1  0  0  0  0
 27 32  2  0  0  0  0
 27 28  1  0  0  0  0
 28 29  2  0  0  0  0
 28 63  1  0  0  0  0
 29 64  1  0  0  0  0
 30 65  1  0  0  0  0
 30 29  1  0  0  0  0
 31 30  2  0  0  0  0
 32 31  1  0  0  0  0
 32  3  1  0  0  0  0
 33 34  1  0  0  0  0
 34 67  1  0  0  0  0
 34 35  2  0  0  0  0
 35 68  1  0  0  0  0
 36 35  1  0  0  0  0
 36 69  1  0  0  0  0
 37 36  2  0  0  0  0
 38 33  2  0  0  0  0
 38 37  1  0  0  0  0
 39  3  1  0  0  0  0
 40 72  1  0  0  0  0
 40 39  2  0  0  0  0
 41 40  1  0  0  0  0
 42 41  2  0  0  0  0
 42 43  1  0  0  0  0
 43 44  2  0  0  0  0
 44 39  1  0  0  0  0
 44 76  1  0  0  0  0
 47 10  1  0  0  0  0
 48 11  1  0  0  0  0
 49 12  1  0  0  0  0
 50 14  1  0  0  0  0
 51 15  1  0  0  0  0
 56 21  1  0  0  0  0
 57 22  1  0  0  0  0
 58 23  1  0  0  0  0
 60 25  1  0  0  0  0
 62 26  1  0  0  0  0
 66 31  1  0  0  0  0
 70 37  1  0  0  0  0
 71 38  1  0  0  0  0
 73 41  1  0  0  0  0
 74 42  1  0  0  0  0
 75 43  1  0  0  0  0
M  END
