1,18,35
q = 0.0, confidence = 0.994

 51 51  0  0  0  0  0  0  0  0999 V2000
   -0.5496    1.9183   -0.2166 P   0  0  1  0  0  0  0  0  0  0  0  0
    0.8670    2.5875   -1.2194 C   0  0  0  0  0  0  0  0  0  0  0  0
    0.4515    3.2964   -1.9673 H   0  0  0  0  0  0  0  0  0  0  0  0
    1.4958    3.1908   -0.5298 H   0  0  0  0  0  0  0  0  0  0  0  0
    1.7263    1.5179   -1.9239 C   0  0  0  0  0  0  0  0  0  0  0  0
    1.0750    0.7717   -2.4312 H   0  0  0  0  0  0  0  0  0  0  0  0
    2.2718    2.0229   -2.7480 H   0  0  0  0  0  0  0  0  0  0  0  0
    2.7831    0.8077   -1.0556 C   0  0  0  0  0  0  0  0  0  0  0  0
    3.3367    1.5662   -0.4616 H   0  0  0  0  0  0  0  0  0  0  0  0
    3.5358    0.3128   -1.7060 H   0  0  0  0  0  0  0  0  0  0  0  0
   -1.2193    3.4139    0.6437 C   0  0  0  0  0  0  0  0  0  0  0  0
   -0.4088    3.7665    1.3165 H   0  0  0  0  0  0  0  0  0  0  0  0
   -1.3811    4.2114   -0.1139 H   0  0  0  0  0  0  0  0  0  0  0  0
   -2.4951    3.1239    1.4370 C   0  0  0  0  0  0  0  0  0  0  0  0
   -3.3380    2.8413    0.7746 H   0  0  0  0  0  0  0  0  0  0  0  0
   -2.8132    4.0190    2.0068 H   0  0  0  0  0  0  0  0  0  0  0  0
   -2.3413    2.2977    2.1610 H   0  0  0  0  0  0  0  0  0  0  0  0
    2.1853   -0.4657    0.1732 P   0  0  1  0  0  0  0  0  0  0  0  0
    2.2497   -2.0813   -0.7557 C   0  0  0  0  0  0  0  0  0  0  0  0
    3.1499   -2.0612   -1.4067 H   0  0  0  0  0  0  0  0  0  0  0  0
    2.4364   -2.8655    0.0098 H   0  0  0  0  0  0  0  0  0  0  0  0
    1.0087   -2.4615   -1.5884 C   0  0  0  0  0  0  0  0  0  0  0  0
    0.7076   -1.6149   -2.2449 H   0  0  0  0  0  0  0  0  0  0  0  0
    1.3205   -3.2641   -2.2885 H   0  0  0  0  0  0  0  0  0  0  0  0
   -0.2084   -2.9900   -0.8026 C   0  0  0  0  0  0  0  0  0  0  0  0
    0.1263   -3.6944   -0.0109 H   0  0  0  0  0  0  0  0  0  0  0  0
   -0.8736   -3.5703   -1.4777 H   0  0  0  0  0  0  0  0  0  0  0  0
    3.6163   -0.6121    1.3418 C   0  0  0  0  0  0  0  0  0  0  0  0
    3.4350   -1.5393    1.9254 H   0  0  0  0  0  0  0  0  0  0  0  0
    4.5410   -0.7817    0.7482 H   0  0  0  0  0  0  0  0  0  0  0  0
    3.7554    0.5923    2.2743 C   0  0  0  0  0  0  0  0  0  0  0  0
    3.9792    1.5263    1.7201 H   0  0  0  0  0  0  0  0  0  0  0  0
    4.5835    0.4354    2.9931 H   0  0  0  0  0  0  0  0  0  0  0  0
    2.8269    0.7609    2.8568 H   0  0  0  0  0  0  0  0  0  0  0  0
   -1.2415   -1.6896    0.0368 P   0  0  1  0  0  0  0  0  0  0  0  0
   -2.2854   -1.0317   -1.3686 C   0  0  0  0  0  0  0  0  0  0  0  0
   -1.6697   -1.0994   -2.2913 H   0  0  0  0  0  0  0  0  0  0  0  0
   -3.1269   -1.7433   -1.5096 H   0  0  0  0  0  0  0  0  0  0  0  0
   -2.8201    0.4034   -1.2039 C   0  0  0  0  0  0  0  0  0  0  0  0
   -3.6837    0.5163   -1.8925 H   0  0  0  0  0  0  0  0  0  0  0  0
   -3.2357    0.5448   -0.1835 H   0  0  0  0  0  0  0  0  0  0  0  0
   -1.8218    1.5283   -1.5322 C   0  0  0  0  0  0  0  0  0  0  0  0
   -2.3647    2.4727   -1.7500 H   0  0  0  0  0  0  0  0  0  0  0  0
   -1.2646    1.2750   -2.4598 H   0  0  0  0  0  0  0  0  0  0  0  0
   -2.4222   -2.6792    1.0635 C   0  0  0  0  0  0  0  0  0  0  0  0
   -2.8804   -3.4584    0.4161 H   0  0  0  0  0  0  0  0  0  0  0  0
   -1.7993   -3.2093    1.8151 H   0  0  0  0  0  0  0  0  0  0  0  0
   -3.4874   -1.8219    1.7502 C   0  0  0  0  0  0  0  0  0  0  0  0
   -3.0281   -1.0095    2.3499 H   0  0  0  0  0  0  0  0  0  0  0  0
   -4.1049   -2.4387    2.4322 H   0  0  0  0  0  0  0  0  0  0  0  0
   -4.1764   -1.3546    1.0183 H   0  0  0  0  0  0  0  0  0  0  0  0
  1 11  1  1  0  0  0
  2  4  1  0  0  0  0
  2  1  1  0  0  0  0
  3  2  1  0  0  0  0
  5  2  1  0  0  0  0
  5  8  1  0  0  0  0
  6  5  1  0  0  0  0
  7  5  1  0  0  0  0
  8  9  1  0  0  0  0
  8 18  1  0  0  0  0
 10  8  1  0  0  0  0
 11 12  1  0  0  0  0
 11 14  1  0  0  0  0
 13 11  1  0  0  0  0
 14 16  1  0  0  0  0
 14 17  1  0  0  0  0
 15 14  1  0  0  0  0
 18 28  1  1  0  0  0
 19 21  1  0  0  0  0
 19 18  1  0  0  0  0
 20 19  1  0  0  0  0
 22 25  1  0  0  0  0
 22 19  1  0  0  0  0
 23 22  1  0  0  0  0
 24 22  1  0  0  0  0
 25 26  1  0  0  0  0
 25 35  1  0  0  0  0
 27 25  1  0  0  0  0
 28 29  1  0  0  0  0
 28 31  1  0  0  0  0
 30 28  1  0  0  0  0
 31 34  1  0  0  0  0
 31 33  1  0  0  0  0
 32 31  1  0  0  0  0
 35 45  1  1  0  0  0
 36 39  1  0  0  0  0
 36 35  1  0  0  0  0
 37 36  1  0  0  0  0
 38 36  1  0  0  0  0
 39 41  1  0  0  0  0
 40 39  1  0  0  0  0
 42 39  1  0  0  0  0
 42  1  1  0  0  0  0
 43 42  1  0  0  0  0
 44 42  1  0  0  0  0
 45 48  1  0  0  0  0
 45 47  1  0  0  0  0
 46 45  1  0  0  0  0
 48 49  1  0  0  0  0
 48 50  1  0  0  0  0
 51 48  1  0  0  0  0
M  END
