1,2,3
q = 0.0, confidence = 0.986

 74 75  0  0  0  0  0  0  0  0999 V2000
    2.1292   -0.7241    0.0104 P   0  0  0  0  0  0  0  0  0  0  0  0
   -1.5960   -1.3321    0.0525 P   0  0  0  0  0  0  0  0  0  0  0  0
   -0.1310    1.3044   -0.0922 P   0  0  0  0  0  0  0  0  0  0  0  0
    0.0230    2.8876   -0.6850 O   0  0  0  0  0  0  0  0  0  0  0  0
   -0.1785    3.0601   -2.1060 C   0  0  0  0  0  0  0  0  0  0  0  0
    0.3697    2.2416   -2.6313 H   0  0  0  0  0  0  0  0  0  0  0  0
    0.4402    4.4027   -2.4682 C   0  0  0  0  0  0  0  0  0  0  0  0
   -0.0799    5.2257   -1.9365 H   0  0  0  0  0  0  0  0  0  0  0  0
    0.3630    4.5868   -3.5583 H   0  0  0  0  0  0  0  0  0  0  0  0
    1.5095    4.4261   -2.1805 H   0  0  0  0  0  0  0  0  0  0  0  0
   -1.6568    2.9497   -2.4721 C   0  0  0  0  0  0  0  0  0  0  0  0
   -2.0432    1.9406   -2.2229 H   0  0  0  0  0  0  0  0  0  0  0  0
   -1.8002    3.1088   -3.5601 H   0  0  0  0  0  0  0  0  0  0  0  0
   -2.2586    3.7016   -1.9217 H   0  0  0  0  0  0  0  0  0  0  0  0
   -2.8534   -2.2758   -0.9751 C   0  0  0  0  0  0  0  0  0  0  0  0
   -3.7326   -2.4789   -0.3259 H   0  0  0  0  0  0  0  0  0  0  0  0
    3.1355    0.7140    2.3246 C   0  0  0  0  0  0  0  0  0  0  0  0
    3.9963    0.0265    2.3356 H   0  0  0  0  0  0  0  0  0  0  0  0
    0.9822    2.5187    2.2834 C   0  0  0  0  0  0  0  0  0  0  0  0
    0.1478    3.2353    2.2592 H   0  0  0  0  0  0  0  0  0  0  0  0
   -4.5109    1.3480    1.4727 C   0  0  0  0  0  0  0  0  0  0  0  0
   -5.5665    1.3371    1.7848 H   0  0  0  0  0  0  0  0  0  0  0  0
   -3.7857    2.5513    1.4863 C   0  0  0  0  0  0  0  0  0  0  0  0
   -4.2734    3.4843    1.8087 H   0  0  0  0  0  0  0  0  0  0  0  0
    2.1271    0.5675    1.3535 C   0  0  0  0  0  0  0  0  0  0  0  0
    1.0513    1.4901    1.3268 C   0  0  0  0  0  0  0  0  0  0  0  0
    3.0549    1.7352    3.2853 C   0  0  0  0  0  0  0  0  0  0  0  0
    3.8410    1.8321    4.0499 H   0  0  0  0  0  0  0  0  0  0  0  0
   -1.4706   -2.3182    1.6721 C   0  0  0  0  0  0  0  0  0  0  0  0
   -0.7000   -3.0816    1.4234 H   0  0  0  0  0  0  0  0  0  0  0  0
   -1.8270    1.3770    0.6451 C   0  0  0  0  0  0  0  0  0  0  0  0
   -3.8974    0.1590    1.0437 C   0  0  0  0  0  0  0  0  0  0  0  0
   -4.4861   -0.7705    1.0135 H   0  0  0  0  0  0  0  0  0  0  0  0
   -2.5510    0.1611    0.6310 C   0  0  0  0  0  0  0  0  0  0  0  0
   -2.2343   -3.6049   -1.4226 C   0  0  0  0  0  0  0  0  0  0  0  0
   -2.9496   -4.1763   -2.0502 H   0  0  0  0  0  0  0  0  0  0  0  0
   -1.9493   -4.2492   -0.5660 H   0  0  0  0  0  0  0  0  0  0  0  0
   -1.3205   -3.4218   -2.0245 H   0  0  0  0  0  0  0  0  0  0  0  0
    1.9753    2.6334    3.2683 C   0  0  0  0  0  0  0  0  0  0  0  0
    1.9117    3.4331    4.0221 H   0  0  0  0  0  0  0  0  0  0  0  0
   -3.2984   -1.4241   -2.1681 C   0  0  0  0  0  0  0  0  0  0  0  0
   -2.4381   -1.1854   -2.8245 H   0  0  0  0  0  0  0  0  0  0  0  0
   -3.7543   -0.4667   -1.8451 H   0  0  0  0  0  0  0  0  0  0  0  0
   -4.0491   -1.9739   -2.7736 H   0  0  0  0  0  0  0  0  0  0  0  0
   -2.4478    2.5685    1.0646 C   0  0  0  0  0  0  0  0  0  0  0  0
   -1.8867    3.5145    1.0178 H   0  0  0  0  0  0  0  0  0  0  0  0
    3.5946   -0.0592   -0.9962 C   0  0  0  0  0  0  0  0  0  0  0  0
    4.4183    0.0820   -0.2599 H   0  0  0  0  0  0  0  0  0  0  0  0
    2.3777   -2.5829    2.1990 C   0  0  0  0  0  0  0  0  0  0  0  0
    1.2907   -2.7906    2.1964 H   0  0  0  0  0  0  0  0  0  0  0  0
    2.5591   -1.7554    2.9101 H   0  0  0  0  0  0  0  0  0  0  0  0
    2.8839   -3.4897    2.5915 H   0  0  0  0  0  0  0  0  0  0  0  0
    2.8751   -2.2868    0.7812 C   0  0  0  0  0  0  0  0  0  0  0  0
    3.9780   -2.1344    0.8050 H   0  0  0  0  0  0  0  0  0  0  0  0
    3.2204    1.2968   -1.6013 C   0  0  0  0  0  0  0  0  0  0  0  0
    4.0915    1.7322   -2.1341 H   0  0  0  0  0  0  0  0  0  0  0  0
    2.8844    2.0262   -0.8380 H   0  0  0  0  0  0  0  0  0  0  0  0
    2.3938    1.1723   -2.3295 H   0  0  0  0  0  0  0  0  0  0  0  0
    4.0493   -1.0349   -2.0854 C   0  0  0  0  0  0  0  0  0  0  0  0
    3.2082   -1.2976   -2.7600 H   0  0  0  0  0  0  0  0  0  0  0  0
    4.4702   -1.9717   -1.6715 H   0  0  0  0  0  0  0  0  0  0  0  0
    4.8409   -0.5651   -2.7063 H   0  0  0  0  0  0  0  0  0  0  0  0
    2.5385   -3.4685   -0.1422 C   0  0  0  0  0  0  0  0  0  0  0  0
    2.9637   -4.4103    0.2639 H   0  0  0  0  0  0  0  0  0  0  0  0
    2.9199   -3.3361   -1.1717 H   0  0  0  0  0  0  0  0  0  0  0  0
    1.4373   -3.5831   -0.2222 H   0  0  0  0  0  0  0  0  0  0  0  0
   -0.9138   -1.3967    2.7632 C   0  0  0  0  0  0  0  0  0  0  0  0
   -1.6841   -0.6727    3.0973 H   0  0  0  0  0  0  0  0  0  0  0  0
   -0.0427   -0.8141    2.4059 H   0  0  0  0  0  0  0  0  0  0  0  0
   -0.5932   -1.9853    3.6476 H   0  0  0  0  0  0  0  0  0  0  0  0
   -2.7389   -3.0324    2.1437 C   0  0  0  0  0  0  0  0  0  0  0  0
   -2.5280   -3.5945    3.0783 H   0  0  0  0  0  0  0  0  0  0  0  0
   -3.1268   -3.7599    1.4042 H   0  0  0  0  0  0  0  0  0  0  0  0
   -3.5466   -2.3098    2.3781 H   0  0  0  0  0  0  0  0  0  0  0  0
  1 53  1  0  0  0  0
  1 25  1  0  0  0  0
  2 34  1  0  0  0  0
  2 29  1  0  0  0  0
  3 31  1  0  0  0  0
  3 26  1  0  0  0  0
  4  3  1  0  0  0  0
  5  4  1  0  0  0  0
  6  5  1  0  0  0  0
  7 10  1  0  0  0  0
  7  5  1  0  0  0  0
  7  8  1  0  0  0  0
  9  7  1  0  0  0  0
 11 12  1  0  0  0  0
 11  5  1  0  0  0  0
 11 14  1  0  0  0  0
 13 11  1  0  0  0  0
 15 16  1  0  0  0  0
 15  2  1  0  0  0  0
 17 18  1  0  0  0  0
 17 27  1  0  0  0  0
 19 39  1  0  0  0  0
 20 19  1  0  0  0  0
 21 23  1  0  0  0  0
 21 22  1  0  0  0  0
 23 24  1  0  0  0  0
 25 17  2  0  0  0  0
 26 25  1  0  0  0  0
 26 19  2  0  0  0  0
 27 28  1  0  0  0  0
 29 71  1  0  0  0  0
 29 67  1  0  0  0  0
 30 29  1  0  0  0  0
 31 45  1  0  0  0  0
 32 21  2  0  0  0  0
 33 32  1  0  0  0  0
 34 31  2  0  0  0  0
 34 32  1  0  0  0  0
 35 15  1  0  0  0  0
 35 37  1  0  0  0  0
 36 35  1  0  0  0  0
 38 35  1  0  0  0  0
 39 27  2  0  0  0  0
 39 40  1  0  0  0  0
 41 43  1  0  0  0  0
 41 15  1  0  0  0  0
 42 41  1  0  0  0  0
 44 41  1  0  0  0  0
 45 23  2  0  0  0  0
 46 45  1  0  0  0  0
 47 48  1  0  0  0  0
 47  1  1  0  0  0  0
 49 52  1  0  0  0  0
 49 51  1  0  0  0  0
 50 49  1  0  0  0  0
 53 54  1  0  0  0  0
 53 49  1  0  0  0  0
 55 47  1  0  0  0  0
 55 57  1  0  0  0  0
 56 55  1  0  0  0  0
 58 55  1  0  0  0  0
 59 61  1  0  0  0  0
 59 47  1  0  0  0  0
 60 59  1  0  0  0  0
 62 59  1  0  0  0  0
 63 64  1  0  0  0  0
 63 53  1  0  0  0  0
 65 63  1  0  0  0  0
 66 63  1  0  0  0  0
 67 68  1  0  0  0  0
 67 70  1  0  0  0  0
 69 67  1  0  0  0  0
 71 74  1  0  0  0  0
 71 72  1  0  0  0  0
 73 71  1  0  0  0  0
M  END
