1,2,3
q = 0.0, confidence = 1.0

 78 84  0  0  0  0  0  0  0  0999 V2000
   -1.1079   -1.4390    0.5166 P   0  0  0  0  0  0  0  0  0  0  0  0
   -0.8845    1.5284   -0.0498 P   0  0  0  0  0  0  0  0  0  0  0  0
    1.7441   -0.7399   -0.1628 P   0  0  0  0  0  0  0  0  0  0  0  0
   -2.5745   -2.5039    0.2527 C   0  0  0  0  0  0  0  0  0  0  0  0
   -2.4197   -3.8018   -0.2788 C   0  0  0  0  0  0  0  0  0  0  0  0
   -1.4106   -4.1909   -0.4747 H   0  0  0  0  0  0  0  0  0  0  0  0
   -3.5524   -4.5691   -0.5852 C   0  0  0  0  0  0  0  0  0  0  0  0
   -3.4261   -5.5814   -0.9980 H   0  0  0  0  0  0  0  0  0  0  0  0
   -4.8398   -4.0466   -0.3819 C   0  0  0  0  0  0  0  0  0  0  0  0
   -5.7256   -4.6514   -0.6289 H   0  0  0  0  0  0  0  0  0  0  0  0
   -4.9958   -2.7470    0.1251 C   0  0  0  0  0  0  0  0  0  0  0  0
   -6.0022   -2.3272    0.2730 H   0  0  0  0  0  0  0  0  0  0  0  0
   -3.8682   -1.9750    0.4396 C   0  0  0  0  0  0  0  0  0  0  0  0
   -3.9967   -0.9523    0.8258 H   0  0  0  0  0  0  0  0  0  0  0  0
   -1.6436   -0.3162    1.8872 C   0  0  0  0  0  0  0  0  0  0  0  0
   -1.5649    1.0661    1.6162 C   0  0  0  0  0  0  0  0  0  0  0  0
   -2.0161    1.9852    2.5887 C   0  0  0  0  0  0  0  0  0  0  0  0
   -1.9777    3.0650    2.3840 H   0  0  0  0  0  0  0  0  0  0  0  0
   -2.5101    1.5267    3.8180 C   0  0  0  0  0  0  0  0  0  0  0  0
   -2.8563    2.2509    4.5710 H   0  0  0  0  0  0  0  0  0  0  0  0
   -2.5643    0.1482    4.0902 C   0  0  0  0  0  0  0  0  0  0  0  0
   -2.9478   -0.2085    5.0582 H   0  0  0  0  0  0  0  0  0  0  0  0
   -2.1395   -0.7725    3.1236 C   0  0  0  0  0  0  0  0  0  0  0  0
   -2.1998   -1.8523    3.3262 H   0  0  0  0  0  0  0  0  0  0  0  0
    0.1671   -2.5269    1.2789 C   0  0  0  0  0  0  0  0  0  0  0  0
    1.5032   -2.2166    0.9420 C   0  0  0  0  0  0  0  0  0  0  0  0
    2.5445   -3.0049    1.4615 C   0  0  0  0  0  0  0  0  0  0  0  0
    3.5867   -2.7890    1.1868 H   0  0  0  0  0  0  0  0  0  0  0  0
    2.2560   -4.0842    2.3112 C   0  0  0  0  0  0  0  0  0  0  0  0
    3.0776   -4.7021    2.7041 H   0  0  0  0  0  0  0  0  0  0  0  0
    0.9266   -4.3859    2.6481 C   0  0  0  0  0  0  0  0  0  0  0  0
    0.7027   -5.2390    3.3063 H   0  0  0  0  0  0  0  0  0  0  0  0
   -0.1206   -3.6102    2.1283 C   0  0  0  0  0  0  0  0  0  0  0  0
   -1.1657   -3.8667    2.3597 H   0  0  0  0  0  0  0  0  0  0  0  0
   -2.3061    2.3922   -0.8761 C   0  0  0  0  0  0  0  0  0  0  0  0
   -3.5277    2.6626   -0.2286 C   0  0  0  0  0  0  0  0  0  0  0  0
   -3.6805    2.3733    0.8201 H   0  0  0  0  0  0  0  0  0  0  0  0
   -4.5742    3.2914   -0.9227 C   0  0  0  0  0  0  0  0  0  0  0  0
   -5.5242    3.4922   -0.4040 H   0  0  0  0  0  0  0  0  0  0  0  0
   -4.4140    3.6551   -2.2672 C   0  0  0  0  0  0  0  0  0  0  0  0
   -5.2356    4.1481   -2.8089 H   0  0  0  0  0  0  0  0  0  0  0  0
   -3.2066    3.3669   -2.9234 C   0  0  0  0  0  0  0  0  0  0  0  0
   -3.0796    3.6223   -3.9864 H   0  0  0  0  0  0  0  0  0  0  0  0
   -2.1617    2.7313   -2.2401 C   0  0  0  0  0  0  0  0  0  0  0  0
   -1.2390    2.4496   -2.7748 H   0  0  0  0  0  0  0  0  0  0  0  0
    0.2340    2.9595    0.3206 C   0  0  0  0  0  0  0  0  0  0  0  0
    0.6844    3.7552   -0.7560 C   0  0  0  0  0  0  0  0  0  0  0  0
    0.4394    3.4672   -1.7863 H   0  0  0  0  0  0  0  0  0  0  0  0
    1.4731    4.8887   -0.5174 C   0  0  0  0  0  0  0  0  0  0  0  0
    1.8128    5.4981   -1.3686 H   0  0  0  0  0  0  0  0  0  0  0  0
    1.8237    5.2478    0.7936 C   0  0  0  0  0  0  0  0  0  0  0  0
    2.4315    6.1465    0.9794 H   0  0  0  0  0  0  0  0  0  0  0  0
    1.4115    4.4400    1.8627 C   0  0  0  0  0  0  0  0  0  0  0  0
    1.7105    4.6867    2.8925 H   0  0  0  0  0  0  0  0  0  0  0  0
    0.6345    3.2960    1.6291 C   0  0  0  0  0  0  0  0  0  0  0  0
    0.3630    2.6559    2.4784 H   0  0  0  0  0  0  0  0  0  0  0  0
    3.2236   -1.1537   -1.1986 C   0  0  0  0  0  0  0  0  0  0  0  0
    3.1053   -1.4342   -2.5734 C   0  0  0  0  0  0  0  0  0  0  0  0
    2.1172   -1.3932   -3.0481 H   0  0  0  0  0  0  0  0  0  0  0  0
    4.2468   -1.7584   -3.3220 C   0  0  0  0  0  0  0  0  0  0  0  0
    4.1410   -1.9698   -4.3969 H   0  0  0  0  0  0  0  0  0  0  0  0
    5.5108   -1.8083   -2.7154 C   0  0  0  0  0  0  0  0  0  0  0  0
    6.4015   -2.0649   -3.3096 H   0  0  0  0  0  0  0  0  0  0  0  0
    5.6369   -1.5148   -1.3488 C   0  0  0  0  0  0  0  0  0  0  0  0
    6.6250   -1.5342   -0.8641 H   0  0  0  0  0  0  0  0  0  0  0  0
    4.5021   -1.1785   -0.5961 C   0  0  0  0  0  0  0  0  0  0  0  0
    4.6221   -0.9074    0.4633 H   0  0  0  0  0  0  0  0  0  0  0  0
    2.5132    0.4867    0.9785 C   0  0  0  0  0  0  0  0  0  0  0  0
    3.2047    1.5720    0.3949 C   0  0  0  0  0  0  0  0  0  0  0  0
    3.2093    1.6833   -0.7002 H   0  0  0  0  0  0  0  0  0  0  0  0
    3.8884    2.4838    1.2068 C   0  0  0  0  0  0  0  0  0  0  0  0
    4.4333    3.3200    0.7445 H   0  0  0  0  0  0  0  0  0  0  0  0
    3.8693    2.3399    2.6051 C   0  0  0  0  0  0  0  0  0  0  0  0
    4.4150    3.0544    3.2401 H   0  0  0  0  0  0  0  0  0  0  0  0
    3.1402    1.2943    3.1897 C   0  0  0  0  0  0  0  0  0  0  0  0
    3.1099    1.1850    4.2848 H   0  0  0  0  0  0  0  0  0  0  0  0
    2.4625    0.3667    2.3799 C   0  0  0  0  0  0  0  0  0  0  0  0
    1.9158   -0.4686    2.8426 H   0  0  0  0  0  0  0  0  0  0  0  0
  1 25  1  0  0  0  0
  1 15  1  0  0  0  0
  2 46  1  0  0  0  0
  2 16  1  0  0  0  0
  3 26  1  0  0  0  0
  3 68  1  0  0  0  0
  4 13  1  0  0  0  0
  4  1  1  0  0  0  0
  5  4  2  0  0  0  0
  6  5  1  0  0  0  0
  7  9  2  0  0  0  0
  7  5  1  0  0  0  0
  8  7  1  0  0  0  0
  9 11  1  0  0  0  0
 10  9  1  0  0  0  0
 11 12  1  0  0  0  0
 11 13  2  0  0  0  0
 13 14  1  0  0  0  0
 15 23  1  0  0  0  0
 16 15  2  0  0  0  0
 16 17  1  0  0  0  0
 17 19  2  0  0  0  0
 18 17  1  0  0  0  0
 19 21  1  0  0  0  0
 19 20  1  0  0  0  0
 21 22  1  0  0  0  0
 23 24  1  0  0  0  0
 23 21  2  0  0  0  0
 25 33  1  0  0  0  0
 26 25  2  0  0  0  0
 26 27  1  0  0  0  0
 27 29  2  0  0  0  0
 28 27  1  0  0  0  0
 29 31  1  0  0  0  0
 29 30  1  0  0  0  0
 31 32  1  0  0  0  0
 33 34  1  0  0  0  0
 33 31  2  0  0  0  0
 35 36  1  0  0  0  0
 35  2  1  0  0  0  0
 36 37  1  0  0  0  0
 38 39  1  0  0  0  0
 38 36  2  0  0  0  0
 40 38  1  0  0  0  0
 41 40  1  0  0  0  0
 42 40  2  0  0  0  0
 42 44  1  0  0  0  0
 43 42  1  0  0  0  0
 44 35  2  0  0  0  0
 45 44  1  0  0  0  0
 46 55  1  0  0  0  0
 47 49  1  0  0  0  0
 47 46  2  0  0  0  0
 48 47  1  0  0  0  0
 49 51  2  0  0  0  0
 50 49  1  0  0  0  0
 51 52  1  0  0  0  0
 51 53  1  0  0  0  0
 53 54  1  0  0  0  0
 55 53  2  0  0  0  0
 55 56  1  0  0  0  0
 57 66  1  0  0  0  0
 57  3  1  0  0  0  0
 58 57  2  0  0  0  0
 59 58  1  0  0  0  0
 60 62  2  0  0  0  0
 60 58  1  0  0  0  0
 61 60  1  0  0  0  0
 62 64  1  0  0  0  0
 63 62  1  0  0  0  0
 64 65  1  0  0  0  0
 64 66  2  0  0  0  0
 66 67  1  0  0  0  0
 68 77  1  0  0  0  0
 69 68  2  0  0  0  0
 69 71  1  0  0  0  0
 70 69  1  0  0  0  0
 71 73  2  0  0  0  0
 72 71  1  0  0  0  0
 73 75  1  0  0  0  0
 73 74  1  0  0  0  0
 75 76  1  0  0  0  0
 77 78  1  0  0  0  0
 77 75  2  0  0  0  0
M  END
