1,2,4
q = 0.0, confidence = 0.996

 77 80  0  0  0  0  0  0  0  0999 V2000
   -0.4601    1.1096    0.2119 P   0  0  2  0  0  0  0  0  0  0  0  0
   -3.2640   -0.1641    0.3172 P   0  0  0  0  0  0  0  0  0  0  0  0
    2.3566    0.2999   -0.1534 P   0  0  2  0  0  0  0  0  0  0  0  0
    0.2968   -2.3283   -0.7247 P   0  0  0  0  0  0  0  0  0  0  0  0
   -2.9280    1.2356    1.4808 C   0  0  0  0  0  0  0  0  0  0  0  0
   -1.6305    1.8083    1.4611 C   0  0  0  0  0  0  0  0  0  0  0  0
   -1.3055    2.8151    2.3896 C   0  0  0  0  0  0  0  0  0  0  0  0
   -0.2895    3.2391    2.4091 H   0  0  0  0  0  0  0  0  0  0  0  0
   -2.2646    3.2761    3.3044 C   0  0  0  0  0  0  0  0  0  0  0  0
   -1.9990    4.0604    4.0296 H   0  0  0  0  0  0  0  0  0  0  0  0
   -3.5593    2.7338    3.2971 C   0  0  0  0  0  0  0  0  0  0  0  0
   -4.3128    3.0937    4.0139 H   0  0  0  0  0  0  0  0  0  0  0  0
   -3.8887    1.7151    2.3899 C   0  0  0  0  0  0  0  0  0  0  0  0
   -4.8993    1.2792    2.4090 H   0  0  0  0  0  0  0  0  0  0  0  0
    1.2108    1.2257    1.0163 C   0  0  0  0  0  0  0  0  0  0  0  0
    1.1671    0.7494    2.0165 H   0  0  0  0  0  0  0  0  0  0  0  0
    1.5411    2.2803    1.1062 H   0  0  0  0  0  0  0  0  0  0  0  0
    2.5397   -1.3109    0.7746 C   0  0  0  0  0  0  0  0  0  0  0  0
    1.6655   -2.4075    0.5270 C   0  0  0  0  0  0  0  0  0  0  0  0
    1.8173   -3.5792    1.2978 C   0  0  0  0  0  0  0  0  0  0  0  0
    1.1334   -4.4246    1.1547 H   0  0  0  0  0  0  0  0  0  0  0  0
    2.8241   -3.6968    2.2647 C   0  0  0  0  0  0  0  0  0  0  0  0
    2.9130   -4.6258    2.8475 H   0  0  0  0  0  0  0  0  0  0  0  0
    3.7047   -2.6311    2.4827 C   0  0  0  0  0  0  0  0  0  0  0  0
    4.5034   -2.7089    3.2360 H   0  0  0  0  0  0  0  0  0  0  0  0
    3.5562   -1.4511    1.7424 C   0  0  0  0  0  0  0  0  0  0  0  0
    4.2443   -0.6127    1.9240 H   0  0  0  0  0  0  0  0  0  0  0  0
   -4.3751    0.5730   -0.9716 C   0  0  0  0  0  0  0  0  0  0  0  0
   -4.5847   -0.2477   -1.6889 H   0  0  0  0  0  0  0  0  0  0  0  0
   -5.3257    0.8288   -0.4544 H   0  0  0  0  0  0  0  0  0  0  0  0
   -3.7893    1.7809   -1.6984 C   0  0  0  0  0  0  0  0  0  0  0  0
   -3.5195    2.5953   -0.9961 H   0  0  0  0  0  0  0  0  0  0  0  0
   -4.5281    2.1855   -2.4191 H   0  0  0  0  0  0  0  0  0  0  0  0
   -2.8862    1.4966   -2.2702 H   0  0  0  0  0  0  0  0  0  0  0  0
   -4.3731   -1.3134    1.2528 C   0  0  0  0  0  0  0  0  0  0  0  0
   -3.8733   -1.4706    2.2300 H   0  0  0  0  0  0  0  0  0  0  0  0
   -5.3477   -0.8098    1.4278 H   0  0  0  0  0  0  0  0  0  0  0  0
   -4.5493   -2.6437    0.5192 C   0  0  0  0  0  0  0  0  0  0  0  0
   -5.0107   -2.5146   -0.4809 H   0  0  0  0  0  0  0  0  0  0  0  0
   -5.1939   -3.3300    1.1041 H   0  0  0  0  0  0  0  0  0  0  0  0
   -3.5647   -3.1314    0.3772 H   0  0  0  0  0  0  0  0  0  0  0  0
   -0.3284    2.4166   -1.0816 C   0  0  0  0  0  0  0  0  0  0  0  0
   -0.0381    1.9938   -2.3959 C   0  0  0  0  0  0  0  0  0  0  0  0
    0.0419    0.9199   -2.6167 H   0  0  0  0  0  0  0  0  0  0  0  0
    0.0953    2.9358   -3.4270 C   0  0  0  0  0  0  0  0  0  0  0  0
    0.3150    2.5926   -4.4492 H   0  0  0  0  0  0  0  0  0  0  0  0
   -0.0744    4.3032   -3.1611 C   0  0  0  0  0  0  0  0  0  0  0  0
    0.0198    5.0400   -3.9734 H   0  0  0  0  0  0  0  0  0  0  0  0
   -0.3800    4.7287   -1.8578 C   0  0  0  0  0  0  0  0  0  0  0  0
   -0.5267    5.7990   -1.6461 H   0  0  0  0  0  0  0  0  0  0  0  0
   -0.5050    3.7913   -0.8218 C   0  0  0  0  0  0  0  0  0  0  0  0
   -0.7572    4.1355    0.1924 H   0  0  0  0  0  0  0  0  0  0  0  0
    3.9979    1.0845    0.1597 C   0  0  0  0  0  0  0  0  0  0  0  0
    4.2921    1.9555    1.2296 C   0  0  0  0  0  0  0  0  0  0  0  0
    3.5211    2.1939    1.9776 H   0  0  0  0  0  0  0  0  0  0  0  0
    5.5729    2.5157    1.3622 C   0  0  0  0  0  0  0  0  0  0  0  0
    5.7862    3.1955    2.2015 H   0  0  0  0  0  0  0  0  0  0  0  0
    6.5799    2.2047    0.4357 C   0  0  0  0  0  0  0  0  0  0  0  0
    7.5835    2.6436    0.5422 H   0  0  0  0  0  0  0  0  0  0  0  0
    6.2996    1.3348   -0.6312 C   0  0  0  0  0  0  0  0  0  0  0  0
    7.0828    1.0901   -1.3649 H   0  0  0  0  0  0  0  0  0  0  0  0
    5.0168    0.7882   -0.7727 C   0  0  0  0  0  0  0  0  0  0  0  0
    4.7934    0.1217   -1.6216 H   0  0  0  0  0  0  0  0  0  0  0  0
    1.1528   -2.1459   -2.3602 C   0  0  0  0  0  0  0  0  0  0  0  0
    0.3420   -2.2185   -3.1135 H   0  0  0  0  0  0  0  0  0  0  0  0
    1.5054   -1.0952   -2.3874 H   0  0  0  0  0  0  0  0  0  0  0  0
    2.2958   -3.1246   -2.6145 C   0  0  0  0  0  0  0  0  0  0  0  0
    3.0983   -3.0222   -1.8560 H   0  0  0  0  0  0  0  0  0  0  0  0
    2.7470   -2.9371   -3.6103 H   0  0  0  0  0  0  0  0  0  0  0  0
    1.9555   -4.1801   -2.6039 H   0  0  0  0  0  0  0  0  0  0  0  0
   -0.3791   -4.0566   -0.7586 C   0  0  0  0  0  0  0  0  0  0  0  0
    0.4641   -4.7677   -0.8882 H   0  0  0  0  0  0  0  0  0  0  0  0
   -0.8048   -4.2166    0.2533 H   0  0  0  0  0  0  0  0  0  0  0  0
   -1.4486   -4.2729   -1.8294 C   0  0  0  0  0  0  0  0  0  0  0  0
   -2.2861   -3.5599   -1.7076 H   0  0  0  0  0  0  0  0  0  0  0  0
   -1.8492   -5.3043   -1.7615 H   0  0  0  0  0  0  0  0  0  0  0  0
   -1.0511   -4.1309   -2.8536 H   0  0  0  0  0  0  0  0  0  0  0  0
  1 15  1  1  0  0  0
  1  6  1  0  0  0  0
  2 35  1  0  0  0  0
  2  5  1  0  0  0  0
  3 53  1  0  0  0  0
  3 18  1  0  0  0  0
  3 15  1  1  0  0  0
  4 19  1  0  0  0  0
  5 13  1  0  0  0  0
  6  5  2  0  0  0  0
  6  7  1  0  0  0  0
  7  8  1  0  0  0  0
  7  9  2  0  0  0  0
  9 10  1  0  0  0  0
 11  9  1  0  0  0  0
 11 12  1  0  0  0  0
 13 14  1  0  0  0  0
 13 11  2  0  0  0  0
 15 17  1  0  0  0  0
 15 16  1  0  0  0  0
 18 26  1  0  0  0  0
 19 18  2  0  0  0  0
 19 20  1  0  0  0  0
 20 22  2  0  0  0  0
 21 20  1  0  0  0  0
 22 24  1  0  0  0  0
 22 23  1  0  0  0  0
 24 25  1  0  0  0  0
 26 27  1  0  0  0  0
 26 24  2  0  0  0  0
 28 30  1  0  0  0  0
 28  2  1  0  0  0  0
 29 28  1  0  0  0  0
 31 32  1  0  0  0  0
 31 28  1  0  0  0  0
 33 31  1  0  0  0  0
 34 31  1  0  0  0  0
 35 37  1  0  0  0  0
 35 36  1  0  0  0  0
 38 40  1  0  0  0  0
 38 35  1  0  0  0  0
 39 38  1  0  0  0  0
 41 38  1  0  0  0  0
 42 51  1  0  0  0  0
 42  1  1  0  0  0  0
 43 42  2  0  0  0  0
 44 43  1  0  0  0  0
 45 47  2  0  0  0  0
 45 43  1  0  0  0  0
 46 45  1  0  0  0  0
 47 49  1  0  0  0  0
 48 47  1  0  0  0  0
 49 50  1  0  0  0  0
 49 51  2  0  0  0  0
 51 52  1  0  0  0  0
 53 54  1  0  0  0  0
 54 56  2  0  0  0  0
 54 55  1  0  0  0  0
 56 57  1  0  0  0  0
 58 59  1  0  0  0  0
 58 56  1  0  0  0  0
 60 58  2  0  0  0  0
 61 60  1  0  0  0  0
 62 60  1  0  0  0  0
 62 53  2  0  0  0  0
 63 62  1  0  0  0  0
 64  4  1  0  0  0  0
 65 64  1  0  0  0  0
 66 64  1  0  0  0  0
 67 70  1  0  0  0  0
 67 64  1  0  0  0  0
 67 68  1  0  0  0  0
 69 67  1  0  0  0  0
 71  4  1  0  0  0  0
 71 73  1  0  0  0  0
 72 71  1  0  0  0  0
 74 76  1  0  0  0  0
 74 75  1  0  0  0  0
 74 71  1  0  0  0  0
 77 74  1  0  0  0  0
M  END
