2,4
q = -1.0

 31 32  0  0  1  0  0  0  0  0999 V2000
   -2.2972   -0.0949    1.2392 B   0  0  0  0  0  0  0  0  0  0  0  0
   -0.9475    1.4975   -0.0833 N   0  0  0  0  0  2  0  0  0  0  0  0
   -2.1928    1.1517    0.3072 N   0  0  0  0  0  0  0  0  0  0  0  0
   -0.6251   -1.4729    0.0530 N   0  0  0  0  0  2  0  0  0  0  0  0
   -1.9198   -1.3710    0.4187 N   0  0  0  0  0  0  0  0  0  0  0  0
   -1.0484    2.6222   -0.8218 C   0  0  2  0  0  3  0  0  0  0  0  0
   -2.3976    3.0136   -0.9151 C   0  0  0  0  0  0  0  0  0  0  0  0
   -3.0910    2.0495   -0.1805 C   0  0  0  0  0  0  0  0  0  0  0  0
    0.1207    3.3285   -1.4542 C   0  0  0  0  0  0  0  0  0  0  0  0
   -4.5674    1.9978    0.1043 C   0  0  0  0  0  0  0  0  0  0  0  0
   -1.7055   -3.3248   -0.6509 C   0  0  0  0  0  0  0  0  0  0  0  0
   -2.5978   -2.4762    0.0092 C   0  0  1  0  0  3  0  0  0  0  0  0
   -0.4731   -2.6479   -0.5944 C   0  0  0  0  0  0  0  0  0  0  0  0
    0.8299   -3.1183   -1.1785 C   0  0  0  0  0  0  0  0  0  0  0  0
   -4.0557   -2.7193    0.2944 C   0  0  0  0  0  0  0  0  0  0  0  0
    1.2271    3.2765   -0.6689 F   0  0  0  0  0  0  0  0  0  0  0  0
   -0.1891    4.6327   -1.6379 F   0  0  0  0  0  0  0  0  0  0  0  0
    0.4439    2.8173   -2.6553 F   0  0  0  0  0  0  0  0  0  0  0  0
   -5.1366    0.8723   -0.3745 F   0  0  0  0  0  0  0  0  0  0  0  0
   -5.1744    3.0531   -0.4830 F   0  0  0  0  0  0  0  0  0  0  0  0
   -4.8236    2.0559    1.4298 F   0  0  0  0  0  0  0  0  0  0  0  0
    0.7869   -4.4514   -1.3804 F   0  0  0  0  0  0  0  0  0  0  0  0
    1.8797   -2.8566   -0.3555 F   0  0  0  0  0  0  0  0  0  0  0  0
    1.0973   -2.5337   -2.3666 F   0  0  0  0  0  0  0  0  0  0  0  0
   -4.4112   -3.9279   -0.1955 F   0  0  0  0  0  0  0  0  0  0  0  0
   -4.3122   -2.7160    1.6205 F   0  0  0  0  0  0  0  0  0  0  0  0
   -4.8452   -1.7895   -0.2801 F   0  0  0  0  0  0  0  0  0  0  0  0
   -1.3647    0.0405    2.0767 H   0  0  0  0  0  0  0  0  0  0  0  0
   -3.3810   -0.1903    1.7681 H   0  0  0  0  0  0  0  0  0  0  0  0
   -2.8111    3.8856   -1.4281 H   0  0  0  0  0  0  0  0  0  0  0  0
   -1.9176   -4.3013   -1.0934 H   0  0  0  0  0  0  0  0  0  0  0  0
  1 29  1  0  0  0  0
  1 28  1  0  0  0  0
  2  3  1  0  0  0  0
  3  1  1  0  0  0  0
  4  5  1  0  0  0  0
  5  1  1  0  0  0  0
  6  9  1  6  0  0  0
  6  2  1  0  0  0  0
  7  6  1  0  0  0  0
  7  8  2  0  0  0  0
  8 10  1  0  0  0  0
  8  3  1  0  0  0  0
  9 16  1  0  0  0  0
 10 21  1  0  0  0  0
 11 13  2  0  0  0  0
 11 12  1  0  0  0  0
 12 15  1  1  0  0  0
 12  5  1  0  0  0  0
 13  4  1  0  0  0  0
 14 13  1  0  0  0  0
 14 23  1  0  0  0  0
 15 26  1  0  0  0  0
 17  9  1  0  0  0  0
 18  9  1  0  0  0  0
 19 10  1  0  0  0  0
 20 10  1  0  0  0  0
 22 14  1  0  0  0  0
 24 14  1  0  0  0  0
 25 15  1  0  0  0  0
 27 15  1  0  0  0  0
 30  7  1  0  0  0  0
 31 11  1  0  0  0  0
M  END
