31,36
q = -1.0

 48 49  0  0  1  0  0  0  0  0999 V2000
   -0.0001    2.6047   -1.0962 C   0  0  0  0  0  0  0  0  0  0  0  0
   -0.0001    3.6007   -1.5552 H   0  0  0  0  0  0  0  0  0  0  0  0
   -2.4775    2.8433   -1.1940 C   0  0  0  0  0  0  0  0  0  0  0  0
   -3.1239    2.3053   -1.9163 H   0  0  0  0  0  0  0  0  0  0  0  0
   -2.1803    3.8091   -1.6410 H   0  0  0  0  0  0  0  0  0  0  0  0
   -3.1130    3.0463   -0.3086 H   0  0  0  0  0  0  0  0  0  0  0  0
   -2.7579    0.3950   -0.0649 C   0  0  0  0  0  0  0  0  0  0  0  0
   -3.4239   -0.3300   -1.0864 C   0  0  0  0  0  0  0  0  0  0  0  0
    2.6906    1.5059    2.2091 C   0  0  0  0  0  0  0  0  0  0  0  0
    3.2091    1.4522    3.1858 H   0  0  0  0  0  0  0  0  0  0  0  0
    1.6435    1.1576    2.3244 H   0  0  0  0  0  0  0  0  0  0  0  0
    2.6225    2.5777    1.9227 H   0  0  0  0  0  0  0  0  0  0  0  0
    2.4773    2.8433   -1.1945 C   0  0  0  0  0  0  0  0  0  0  0  0
    3.1130    3.0462   -0.3092 H   0  0  0  0  0  0  0  0  0  0  0  0
    2.1801    3.8091   -1.6414 H   0  0  0  0  0  0  0  0  0  0  0  0
    3.1235    2.3052   -1.9169 H   0  0  0  0  0  0  0  0  0  0  0  0
   -1.2532    2.0264   -0.8253 C   0  0  2  0  0  3  0  0  0  0  0  0
   -4.7416   -0.7676   -0.8540 C   0  0  0  0  0  0  0  0  0  0  0  0
   -5.2623   -1.3381   -1.6397 H   0  0  0  0  0  0  0  0  0  0  0  0
    5.3915   -0.4856    0.3561 C   0  0  0  0  0  0  0  0  0  0  0  0
    6.4205   -0.8376    0.5245 H   0  0  0  0  0  0  0  0  0  0  0  0
   -4.7282    0.2469    1.3505 C   0  0  0  0  0  0  0  0  0  0  0  0
   -5.2386    0.4748    2.2998 H   0  0  0  0  0  0  0  0  0  0  0  0
    3.4239   -0.3299   -1.0863 C   0  0  0  0  0  0  0  0  0  0  0  0
   -2.7193   -0.6009   -2.3896 C   0  0  0  0  0  0  0  0  0  0  0  0
   -3.2050   -1.4214   -2.9525 H   0  0  0  0  0  0  0  0  0  0  0  0
   -1.6525   -0.8472   -2.2128 H   0  0  0  0  0  0  0  0  0  0  0  0
   -2.7191    0.2981   -3.0436 H   0  0  0  0  0  0  0  0  0  0  0  0
    4.7280    0.2472    1.3506 C   0  0  0  0  0  0  0  0  0  0  0  0
    5.2384    0.4752    2.2999 H   0  0  0  0  0  0  0  0  0  0  0  0
   -1.4107    0.8171   -0.2683 N   0  0  0  0  0  2  0  0  0  0  0  0
   -5.3916   -0.4859    0.3559 C   0  0  0  0  0  0  0  0  0  0  0  0
   -6.4206   -0.8380    0.5243 H   0  0  0  0  0  0  0  0  0  0  0  0
    2.7578    0.3952   -0.0649 C   0  0  0  0  0  0  0  0  0  0  0  0
    3.4096    0.7018    1.1577 C   0  0  0  0  0  0  0  0  0  0  0  0
    1.4106    0.8172   -0.2684 N   0  0  0  0  0  2  0  0  0  0  0  0
    2.7194   -0.6009   -2.3896 C   0  0  0  0  0  0  0  0  0  0  0  0
    2.7195    0.2978   -3.0438 H   0  0  0  0  0  0  0  0  0  0  0  0
    1.6526   -0.8471   -2.2128 H   0  0  0  0  0  0  0  0  0  0  0  0
    3.2051   -1.4217   -2.9522 H   0  0  0  0  0  0  0  0  0  0  0  0
    1.2531    2.0264   -0.8254 C   0  0  0  0  0  0  0  0  0  0  0  0
   -3.4098    0.7016    1.1577 C   0  0  0  0  0  0  0  0  0  0  0  0
    4.7416   -0.7674   -0.8539 C   0  0  0  0  0  0  0  0  0  0  0  0
    5.2623   -1.3380   -1.6394 H   0  0  0  0  0  0  0  0  0  0  0  0
   -2.6909    1.5056    2.2092 C   0  0  0  0  0  0  0  0  0  0  0  0
   -1.6437    1.1574    2.3244 H   0  0  0  0  0  0  0  0  0  0  0  0
   -3.2093    1.4517    3.1859 H   0  0  0  0  0  0  0  0  0  0  0  0
   -2.6229    2.5774    1.9230 H   0  0  0  0  0  0  0  0  0  0  0  0
  1 41  2  0  0  0  0
  2  1  1  0  0  0  0
  3 17  1  0  0  0  0
  3  6  1  0  0  0  0
  4  3  1  0  0  0  0
  5  3  1  0  0  0  0
  7 42  1  0  0  0  0
  8 18  1  0  0  0  0
  8  7  2  0  0  0  0
  9 11  1  0  0  0  0
  9 10  1  0  0  0  0
 12  9  1  0  0  0  0
 13 41  1  0  0  0  0
 13 14  1  0  0  0  0
 15 13  1  0  0  0  0
 16 13  1  0  0  0  0
 17  1  1  1  0  0  0
 17 31  1  0  0  0  0
 18 32  2  0  0  0  0
 19 18  1  0  0  0  0
 20 21  1  0  0  0  0
 20 29  1  0  0  0  0
 22 23  1  0  0  0  0
 24 43  1  0  0  0  0
 24 34  2  0  0  0  0
 25 27  1  0  0  0  0
 25  8  1  0  0  0  0
 26 25  1  0  0  0  0
 28 25  1  0  0  0  0
 29 30  1  0  0  0  0
 31  7  1  0  0  0  0
 32 33  1  0  0  0  0
 32 22  1  0  0  0  0
 34 35  1  0  0  0  0
 35 29  2  0  0  0  0
 35  9  1  0  0  0  0
 36 34  1  0  0  0  0
 37 39  1  0  0  0  0
 37 24  1  0  0  0  0
 38 37  1  0  0  0  0
 40 37  1  0  0  0  0
 41 36  1  0  0  0  0
 42 22  2  0  0  0  0
 42 45  1  0  0  0  0
 43 20  2  0  0  0  0
 44 43  1  0  0  0  0
 45 46  1  0  0  0  0
 45 47  1  0  0  0  0
 48 45  1  0  0  0  0
M  END
