2,3
q = -1.0

 14 14  0  0  0  0  0  0  0  0999 V2000
   -0.7053    2.2282   -2.0512 O   0  0  0  0  0  1  0  0  0  0  0  0
    1.9293    0.5977    0.1809 N   0  0  0  0  0  2  0  0  0  0  0  0
    0.2260    1.8225   -1.3351 N   0  0  0  0  0  2  0  0  0  0  0  0
    2.7331   -0.0878    1.0140 C   0  0  0  0  0  3  0  0  0  0  0  0
    4.1006    0.1767    1.1149 C   0  0  0  0  0  0  0  0  0  0  0  0
    4.6495    1.2017    0.3222 C   0  0  0  0  0  0  0  0  0  0  0  0
    3.8199    1.9190   -0.5386 C   0  0  0  0  0  0  0  0  0  0  0  0
    2.4432    1.6036   -0.5953 C   0  0  0  0  0  0  0  0  0  0  0  0
    1.4883    2.2524   -1.4404 C   0  0  0  0  0  3  0  0  0  0  0  0
    2.2623   -0.8697    1.6254 H   0  0  0  0  0  0  0  0  0  0  0  0
    4.7187   -0.4079    1.8095 H   0  0  0  0  0  0  0  0  0  0  0  0
    5.7218    1.4393    0.3830 H   0  0  0  0  0  0  0  0  0  0  0  0
    4.2110    2.7301   -1.1684 H   0  0  0  0  0  0  0  0  0  0  0  0
    1.7296    3.0406   -2.1674 H   0  0  0  0  0  0  0  0  0  0  0  0
  1  3  1  0  0  0  0
  2  4  1  0  0  0  0
  4  5  1  0  0  0  0
  4 10  1  0  0  0  0
  5 11  1  0  0  0  0
  6 12  1  0  0  0  0
  6  5  2  0  0  0  0
  7  6  1  0  0  0  0
  8  7  2  0  0  0  0
  8  2  1  0  0  0  0
  9  3  1  0  0  0  0
  9  8  1  0  0  0  0
 13  7  1  0  0  0  0
 14  9  1  0  0  0  0
M  END
