7,8
q = -1.0

 24 25  0  0  0  0  0  0  0  0999 V2000
   -3.7664   -1.3519    1.0691 F   0  0  0  0  0  0  0  0  0  0  0  0
   -3.2463   -3.1687   -0.0283 F   0  0  0  0  0  0  0  0  0  0  0  0
   -3.7488   -1.3364   -1.1080 F   0  0  0  0  0  0  0  0  0  0  0  0
    2.7249   -1.5927   -1.0615 F   0  0  0  0  0  0  0  0  0  0  0  0
    2.1102   -3.3917    0.0257 F   0  0  0  0  0  0  0  0  0  0  0  0
    2.7105   -1.5860    1.1096 F   0  0  0  0  0  0  0  0  0  0  0  0
   -0.6389    2.2184    0.0061 N   0  0  0  0  0  2  0  0  0  0  0  0
    0.3055   -0.2667    0.0148 N   0  0  0  0  0  0  0  0  0  0  0  0
   -1.0237    3.5089    0.0069 C   0  0  0  0  0  3  0  0  0  0  0  0
   -0.2117    4.2534    0.0070 H   0  0  0  0  0  0  0  0  0  0  0  0
   -2.3636    3.9052    0.0072 C   0  0  0  0  0  0  0  0  0  0  0  0
   -2.6266    4.9721    0.0074 H   0  0  0  0  0  0  0  0  0  0  0  0
   -3.3450    2.8982    0.0074 C   0  0  0  0  0  0  0  0  0  0  0  0
   -4.4138    3.1606    0.0082 H   0  0  0  0  0  0  0  0  0  0  0  0
   -2.9612    1.5566    0.0072 C   0  0  0  0  0  0  0  0  0  0  0  0
   -3.7182    0.7649    0.0089 H   0  0  0  0  0  0  0  0  0  0  0  0
   -1.5862    1.2206    0.0060 C   0  0  0  0  0  0  0  0  0  0  0  0
   -1.0577   -0.1398    0.0055 C   0  0  0  0  0  0  0  0  0  0  0  0
   -1.6452   -1.4415   -0.0036 C   0  0  0  0  0  0  0  0  0  0  0  0
   -0.5757   -2.3657    0.0003 C   0  0  0  0  0  0  0  0  0  0  0  0
   -0.6536   -3.4574   -0.0044 H   0  0  0  0  0  0  0  0  0  0  0  0
    0.5993   -1.5893    0.0117 C   0  0  0  0  0  3  0  0  0  0  0  0
   -3.0835   -1.8263   -0.0177 C   0  0  0  0  0  0  0  0  0  0  0  0
    2.0194   -2.0436    0.0222 C   0  0  0  0  0  0  0  0  0  0  0  0
  2 23  1  0  0  0  0
  3 23  1  0  0  0  0
  4 24  1  0  0  0  0
  7  9  1  0  0  0  0
  9 10  1  0  0  0  0
  9 11  1  0  0  0  0
 11 12  1  0  0  0  0
 11 13  2  0  0  0  0
 13 14  1  0  0  0  0
 15 13  1  0  0  0  0
 15 16  1  0  0  0  0
 17  7  1  0  0  0  0
 17 15  2  0  0  0  0
 18 17  1  0  0  0  0
 18  8  2  0  0  0  0
 19 20  2  0  0  0  0
 19 18  1  0  0  0  0
 20 22  1  0  0  0  0
 21 20  1  0  0  0  0
 22  8  1  0  0  0  0
 22 24  1  0  0  0  0
 23 19  1  0  0  0  0
 23  1  1  0  0  0  0
 24  5  1  0  0  0  0
 24  6  1  0  0  0  0
M  END
