2,6
q = 0.0, confidence = 0.996

 28 31  0  0  1  0  0  0  0  0999 V2000
    5.1596    2.5530   -0.6344 Cl  0  0  0  0  0  0  0  0  0  0  0  0
    1.4067    0.0406   -0.3565 N   0  0  0  0  0  2  0  0  0  0  0  0
   -2.5476   -0.4557   -0.8597 C   0  0  0  0  0  3  0  0  0  0  0  0
   -2.5193   -1.5224   -1.1322 H   0  0  0  0  0  0  0  0  0  0  0  0
   -5.1601    2.5521   -0.6345 Cl  0  0  0  0  0  0  0  0  0  0  0  0
   -1.4068    0.0403   -0.3563 N   0  0  0  0  0  2  0  0  0  0  0  0
   -3.7190    0.3004   -1.0147 C   0  0  0  0  0  0  0  0  0  0  0  0
   -4.6319   -0.1586   -1.4151 H   0  0  0  0  0  0  0  0  0  0  0  0
   -3.6978    1.6194   -0.5840 C   0  0  0  0  0  0  0  0  0  0  0  0
   -2.4797    2.2069   -0.1227 C   0  0  0  0  0  0  0  0  0  0  0  0
   -1.2950    1.3849   -0.0997 C   0  0  2  0  0  3  0  0  0  0  0  0
   -2.4241    3.5656    0.3120 C   0  0  0  0  0  0  0  0  0  0  0  0
   -3.3573    4.1434    0.3478 H   0  0  0  0  0  0  0  0  0  0  0  0
   -1.2237    4.1259    0.6586 C   0  0  0  0  0  0  0  0  0  0  0  0
   -1.1713    5.1735    0.9896 H   0  0  0  0  0  0  0  0  0  0  0  0
   -0.0004    3.3979    0.5154 C   0  0  0  0  0  0  0  0  0  0  0  0
   -0.0002    2.0115    0.1572 C   0  0  0  0  0  0  0  0  0  0  0  0
    1.2228    4.1262    0.6586 C   0  0  0  0  0  0  0  0  0  0  0  0
    1.1703    5.1737    0.9897 H   0  0  0  0  0  0  0  0  0  0  0  0
    2.4234    3.5660    0.3121 C   0  0  0  0  0  0  0  0  0  0  0  0
    3.3564    4.1441    0.3480 H   0  0  0  0  0  0  0  0  0  0  0  0
    2.4792    2.2074   -0.1227 C   0  0  0  0  0  0  0  0  0  0  0  0
    1.2946    1.3852   -0.0997 C   0  0  0  0  0  0  0  0  0  0  0  0
    3.6974    1.6202   -0.5841 C   0  0  0  0  0  0  0  0  0  0  0  0
    3.7188    0.3012   -1.0149 C   0  0  0  0  0  0  0  0  0  0  0  0
    4.6318   -0.1575   -1.4154 H   0  0  0  0  0  0  0  0  0  0  0  0
    2.5476   -0.4551   -0.8600 C   0  0  0  0  0  0  0  0  0  0  0  0
    2.5194   -1.5217   -1.1327 H   0  0  0  0  0  0  0  0  0  0  0  0
  1 24  1  0  0  0  0
  2 23  1  0  0  0  0
  3  6  1  0  0  0  0
  4  3  1  0  0  0  0
  5  9  1  0  0  0  0
  7  3  1  0  0  0  0
  7  9  2  0  0  0  0
  8  7  1  0  0  0  0
  9 10  1  0  0  0  0
 10 11  1  0  0  0  0
 10 12  2  0  0  0  0
 11  6  1  6  0  0  0
 11 17  1  0  0  0  0
 12 13  1  0  0  0  0
 12 14  1  0  0  0  0
 14 15  1  0  0  0  0
 16 14  2  0  0  0  0
 16 18  1  0  0  0  0
 17 16  1  0  0  0  0
 18 19  1  0  0  0  0
 20 21  1  0  0  0  0
 20 18  2  0  0  0  0
 22 23  1  0  0  0  0
 22 20  1  0  0  0  0
 23 17  2  0  0  0  0
 24 22  2  0  0  0  0
 25 27  2  0  0  0  0
 25 24  1  0  0  0  0
 26 25  1  0  0  0  0
 27  2  1  0  0  0  0
 28 27  1  0  0  0  0
M  END
