1,5
q = -1.0

 28 29  0  0  1  0  0  0  0  0999 V2000
   -1.8222   -0.0254    0.7294 N   0  0  0  0  0  2  0  0  0  0  0  0
   -2.4230   -1.0537    1.4045 N   0  0  0  0  0  0  0  0  0  0  0  0
   -4.5478   -0.2266    0.8210 N   0  0  0  0  0  0  0  0  0  0  0  0
   -3.9916    0.8254    0.1846 N   0  0  0  0  0  0  0  0  0  0  0  0
   -0.6964    1.7092   -0.9131 N   0  0  0  0  0  2  0  0  0  0  0  0
   -4.3316   -2.1774    2.0528 O   0  0  0  0  0  0  0  0  0  0  0  0
   -1.5442   -1.9184    2.1718 C   0  0  0  0  0  0  0  0  0  0  0  0
   -0.7159   -2.2677    1.5221 H   0  0  0  0  0  0  0  0  0  0  0  0
   -2.1375   -2.7736    2.5376 H   0  0  0  0  0  0  0  0  0  0  0  0
   -1.1137   -1.3663    3.0331 H   0  0  0  0  0  0  0  0  0  0  0  0
   -3.8141   -1.2412    1.4699 C   0  0  0  0  0  0  0  0  0  0  0  0
   -6.0037   -0.2602    0.8616 C   0  0  0  0  0  0  0  0  0  0  0  0
   -6.4019   -0.2287   -0.1713 H   0  0  0  0  0  0  0  0  0  0  0  0
   -6.3840    0.6184    1.4205 H   0  0  0  0  0  0  0  0  0  0  0  0
   -6.3132   -1.1911    1.3656 H   0  0  0  0  0  0  0  0  0  0  0  0
   -2.6718    0.8532    0.1308 C   0  0  0  0  0  0  0  0  0  0  0  0
   -2.0163    1.9137   -0.6649 C   0  0  2  0  0  3  0  0  0  0  0  0
   -2.7069    3.0309   -1.1567 C   0  0  0  0  0  0  0  0  0  0  0  0
   -3.7770    3.1400   -0.9369 H   0  0  0  0  0  0  0  0  0  0  0  0
   -1.9930    3.9634   -1.9173 C   0  0  0  0  0  0  0  0  0  0  0  0
   -2.4967    4.8552   -2.3184 H   0  0  0  0  0  0  0  0  0  0  0  0
   -0.6298    3.7479   -2.1689 C   0  0  0  0  0  0  0  0  0  0  0  0
   -0.0497    4.4611   -2.7714 H   0  0  0  0  0  0  0  0  0  0  0  0
    0.0041    2.6014   -1.6571 C   0  0  0  0  0  0  0  0  0  0  0  0
    1.4545    2.3021   -1.9008 C   0  0  0  0  0  0  0  0  0  0  0  0
    1.5822    1.2528   -2.2361 H   0  0  0  0  0  0  0  0  0  0  0  0
    2.0399    2.4210   -0.9652 H   0  0  0  0  0  0  0  0  0  0  0  0
    1.8874    2.9768   -2.6613 H   0  0  0  0  0  0  0  0  0  0  0  0
  1  2  1  0  0  0  0
  2 11  1  0  0  0  0
  2  7  1  0  0  0  0
  3 12  1  0  0  0  0
  3 11  1  0  0  0  0
  4  3  1  0  0  0  0
  5 17  1  0  0  0  0
  7  9  1  0  0  0  0
  7 10  1  0  0  0  0
  8  7  1  0  0  0  0
 11  6  2  0  0  0  0
 12 15  1  0  0  0  0
 12 14  1  0  0  0  0
 13 12  1  0  0  0  0
 16  4  2  0  0  0  0
 16  1  1  0  0  0  0
 17 16  1  6  0  0  0
 18 19  1  0  0  0  0
 18 17  1  0  0  0  0
 20 18  2  0  0  0  0
 21 20  1  0  0  0  0
 22 20  1  0  0  0  0
 22 24  2  0  0  0  0
 23 22  1  0  0  0  0
 24  5  1  0  0  0  0
 25 24  1  0  0  0  0
 25 27  1  0  0  0  0
 26 25  1  0  0  0  0
 28 25  1  0  0  0  0
M  END
