1,4
q = 0.0, confidence = 0.982

 32 33  0  0  1  0  0  0  0  0999 V2000
    1.3594   -1.3487    0.0756 N   0  0  0  0  0  0  0  0  0  0  0  0
    1.3881   -1.6290    1.0715 H   0  0  0  0  0  0  0  0  0  0  0  0
    1.2383   -2.1947   -0.4961 H   0  0  0  0  0  0  0  0  0  0  0  0
    1.3488    1.4164    0.0385 N   0  0  0  0  0  0  0  0  0  0  0  0
    1.3280    1.7508   -0.9393 H   0  0  0  0  0  0  0  0  0  0  0  0
    1.2344    2.2231    0.6647 H   0  0  0  0  0  0  0  0  0  0  0  0
    2.6168   -0.6660   -0.3133 C   0  0  1  0  0  0  0  0  0  0  0  0
    2.5619   -0.5305   -1.4134 H   0  0  0  0  0  0  0  0  0  0  0  0
    2.6327    0.7381    0.3373 C   0  0  1  0  0  0  0  0  0  0  0  0
    2.6520    0.5990    1.4380 H   0  0  0  0  0  0  0  0  0  0  0  0
    3.8609   -1.4543    0.0471 C   0  0  0  0  0  0  0  0  0  0  0  0
    4.0769   -1.8740    1.3764 C   0  0  0  0  0  0  0  0  0  0  0  0
    3.3304   -1.6420    2.1550 H   0  0  0  0  0  0  0  0  0  0  0  0
    5.2377   -2.5806    1.7207 C   0  0  0  0  0  0  0  0  0  0  0  0
    5.3932   -2.9032    2.7615 H   0  0  0  0  0  0  0  0  0  0  0  0
    6.2014   -2.8723    0.7411 C   0  0  0  0  0  0  0  0  0  0  0  0
    7.1135   -3.4258    1.0115 H   0  0  0  0  0  0  0  0  0  0  0  0
    5.9968   -2.4542   -0.5827 C   0  0  0  0  0  0  0  0  0  0  0  0
    6.7490   -2.6772   -1.3546 H   0  0  0  0  0  0  0  0  0  0  0  0
    4.8327   -1.7498   -0.9258 C   0  0  0  0  0  0  0  0  0  0  0  0
    4.6752   -1.4135   -1.9626 H   0  0  0  0  0  0  0  0  0  0  0  0
    3.8439    1.5359   -0.1043 C   0  0  0  0  0  0  0  0  0  0  0  0
    4.8813    1.8303    0.7986 C   0  0  0  0  0  0  0  0  0  0  0  0
    4.7999    1.4872    1.8418 H   0  0  0  0  0  0  0  0  0  0  0  0
    6.0147    2.5427    0.3774 C   0  0  0  0  0  0  0  0  0  0  0  0
    6.8190    2.7651    1.0950 H   0  0  0  0  0  0  0  0  0  0  0  0
    6.1221    2.9696   -0.9550 C   0  0  0  0  0  0  0  0  0  0  0  0
    7.0099    3.5294   -1.2863 H   0  0  0  0  0  0  0  0  0  0  0  0
    5.0921    2.6789   -1.8650 C   0  0  0  0  0  0  0  0  0  0  0  0
    5.1711    3.0085   -2.9122 H   0  0  0  0  0  0  0  0  0  0  0  0
    3.9621    1.9644   -1.4431 C   0  0  0  0  0  0  0  0  0  0  0  0
    3.1626    1.7332   -2.1675 H   0  0  0  0  0  0  0  0  0  0  0  0
  1  2  1  0  0  0  0
  3  1  1  0  0  0  0
  4  9  1  0  0  0  0
  4  6  1  0  0  0  0
  5  4  1  0  0  0  0
  7  8  1  6  0  0  0
  7 11  1  0  0  0  0
  7  1  1  0  0  0  0
  7  9  1  0  0  0  0
  9 10  1  1  0  0  0
 11 12  1  0  0  0  0
 12 14  2  0  0  0  0
 12 13  1  0  0  0  0
 14 15  1  0  0  0  0
 16 17  1  0  0  0  0
 16 14  1  0  0  0  0
 18 16  2  0  0  0  0
 19 18  1  0  0  0  0
 20 18  1  0  0  0  0
 20 11  2  0  0  0  0
 21 20  1  0  0  0  0
 22  9  1  0  0  0  0
 22 23  1  0  0  0  0
 23 24  1  0  0  0  0
 25 23  2  0  0  0  0
 25 26  1  0  0  0  0
 27 25  1  0  0  0  0
 28 27  1  0  0  0  0
 29 31  1  0  0  0  0
 29 27  2  0  0  0  0
 30 29  1  0  0  0  0
 31 22  2  0  0  0  0
 32 31  1  0  0  0  0
M  END
