1,6
q = 0.0, confidence = 1.0

 22 22  0  0  1  0  0  0  0  0999 V2000
    0.9379   -0.5945   -1.1227 N   0  0  0  0  0  0  0  0  0  0  0  0
    0.5598   -1.5556   -1.0827 H   0  0  0  0  0  0  0  0  0  0  0  0
    0.8616   -0.2715   -2.1007 H   0  0  0  0  0  0  0  0  0  0  0  0
    2.3839   -0.6006   -0.7403 C   0  0  1  0  0  0  0  0  0  0  0  0
    2.8084    0.3033   -1.2282 H   0  0  0  0  0  0  0  0  0  0  0  0
    1.6422    0.8133    1.0598 N   0  0  0  0  0  0  0  0  0  0  0  0
    2.0959    1.6729    0.6978 H   0  0  0  0  0  0  0  0  0  0  0  0
    1.4721    0.9720    2.0649 H   0  0  0  0  0  0  0  0  0  0  0  0
    2.4679   -0.3804    0.7729 C   0  0  2  0  0  0  0  0  0  0  0  0
    1.9818   -1.2441    1.2842 H   0  0  0  0  0  0  0  0  0  0  0  0
    3.9226   -0.2886    1.2408 C   0  0  0  0  0  0  0  0  0  0  0  0
    3.9596   -0.1587    2.3422 H   0  0  0  0  0  0  0  0  0  0  0  0
    4.3815    0.6209    0.7931 H   0  0  0  0  0  0  0  0  0  0  0  0
    4.7055   -1.5370    0.8063 C   0  0  0  0  0  0  0  0  0  0  0  0
    5.7646   -1.4391    1.1170 H   0  0  0  0  0  0  0  0  0  0  0  0
    4.3067   -2.4263    1.3430 H   0  0  0  0  0  0  0  0  0  0  0  0
    4.6125   -1.7655   -0.7078 C   0  0  0  0  0  0  0  0  0  0  0  0
    5.1486   -2.6921   -0.9938 H   0  0  0  0  0  0  0  0  0  0  0  0
    5.1217   -0.9336   -1.2411 H   0  0  0  0  0  0  0  0  0  0  0  0
    3.1527   -1.8445   -1.1826 C   0  0  0  0  0  0  0  0  0  0  0  0
    3.1030   -1.9496   -2.2863 H   0  0  0  0  0  0  0  0  0  0  0  0
    2.6662   -2.7484   -0.7475 H   0  0  0  0  0  0  0  0  0  0  0  0
  1  2  1  0  0  0  0
  1  4  1  0  0  0  0
  3  1  1  0  0  0  0
  4  5  1  6  0  0  0
  4  9  1  0  0  0  0
  6  8  1  0  0  0  0
  7  6  1  0  0  0  0
  9  6  1  0  0  0  0
  9 11  1  0  0  0  0
  9 10  1  1  0  0  0
 11 12  1  0  0  0  0
 13 11  1  0  0  0  0
 14 15  1  0  0  0  0
 14 11  1  0  0  0  0
 14 16  1  0  0  0  0
 17 14  1  0  0  0  0
 18 17  1  0  0  0  0
 19 17  1  0  0  0  0
 20 22  1  0  0  0  0
 20  4  1  0  0  0  0
 20 17  1  0  0  0  0
 21 20  1  0  0  0  0
M  END
