3,4
q = 0.0, confidence = 0.988

 28 30  0  0  0  0  0  0  0  0999 V2000
    2.8645    1.3964    1.9934 N   0  0  0  0  0  0  0  0  0  0  0  0
    2.8674   -1.3950    1.9922 N   0  0  0  0  0  0  0  0  0  0  0  0
    0.9014    1.4394   -0.8797 N   0  0  0  0  0  2  0  0  0  0  0  0
    0.9024   -1.4389   -0.8797 N   0  0  0  0  0  2  0  0  0  0  0  0
    2.4287    0.7144    0.9200 C   0  0  0  0  0  0  0  0  0  0  0  0
    2.4299   -0.7130    0.9195 C   0  0  0  0  0  0  0  0  0  0  0  0
    3.2269   -0.7006    3.0790 C   0  0  0  0  0  0  0  0  0  0  0  0
    3.5505   -1.2761    3.9633 H   0  0  0  0  0  0  0  0  0  0  0  0
    3.2252    0.7019    3.0797 C   0  0  0  0  0  0  0  0  0  0  0  0
    3.5470    1.2774    3.9647 H   0  0  0  0  0  0  0  0  0  0  0  0
    2.0947    1.5831   -0.2489 C   0  0  0  0  0  0  0  0  0  0  0  0
    2.9944    2.5977   -0.6218 C   0  0  0  0  0  0  0  0  0  0  0  0
    3.9270    2.7045   -0.0523 H   0  0  0  0  0  0  0  0  0  0  0  0
    2.6743    3.4503   -1.6831 C   0  0  0  0  0  0  0  0  0  0  0  0
    3.3720    4.2422   -1.9929 H   0  0  0  0  0  0  0  0  0  0  0  0
    1.4413    3.2845   -2.3305 C   0  0  0  0  0  0  0  0  0  0  0  0
    1.1338    3.9360   -3.1604 H   0  0  0  0  0  0  0  0  0  0  0  0
    0.5744    2.2815   -1.8914 C   0  0  0  0  0  0  0  0  0  0  0  0
   -0.4250    2.1368   -2.3244 H   0  0  0  0  0  0  0  0  0  0  0  0
    2.0962   -1.5816   -0.2495 C   0  0  0  0  0  0  0  0  0  0  0  0
    2.9967   -2.5951   -0.6232 C   0  0  0  0  0  0  0  0  0  0  0  0
    3.9298   -2.7011   -0.0543 H   0  0  0  0  0  0  0  0  0  0  0  0
    2.6769   -3.4478   -1.6845 C   0  0  0  0  0  0  0  0  0  0  0  0
    3.3753   -4.2389   -1.9950 H   0  0  0  0  0  0  0  0  0  0  0  0
    1.4434   -3.2832   -2.3311 C   0  0  0  0  0  0  0  0  0  0  0  0
    1.1360   -3.9348   -3.1610 H   0  0  0  0  0  0  0  0  0  0  0  0
    0.5757   -2.2812   -1.8913 C   0  0  0  0  0  0  0  0  0  0  0  0
   -0.4241   -2.1375   -2.3237 H   0  0  0  0  0  0  0  0  0  0  0  0
  1  9  2  0  0  0  0
  2  7  2  0  0  0  0
  3 11  1  0  0  0  0
  4 20  1  0  0  0  0
  5  1  1  0  0  0  0
  6  5  1  0  0  0  0
  6  2  1  0  0  0  0
  7  9  1  0  0  0  0
  7  8  1  0  0  0  0
  9 10  1  0  0  0  0
 11  5  2  0  0  0  0
 12 11  1  0  0  0  0
 12 13  1  0  0  0  0
 14 12  2  0  0  0  0
 15 14  1  0  0  0  0
 16 18  2  0  0  0  0
 16 14  1  0  0  0  0
 17 16  1  0  0  0  0
 18  3  1  0  0  0  0
 19 18  1  0  0  0  0
 20  6  2  0  0  0  0
 21 20  1  0  0  0  0
 21 22  1  0  0  0  0
 23 21  2  0  0  0  0
 24 23  1  0  0  0  0
 25 27  2  0  0  0  0
 25 23  1  0  0  0  0
 26 25  1  0  0  0  0
 27  4  1  0  0  0  0
 28 27  1  0  0  0  0
M  END
