1,3
q = -1.0, confidence = 0.0

 23 24  0  0  1  0  0  0  0  0999 V2000
   -1.1699    1.1502   -0.8747 N   0  0  0  0  0  0  0  0  0  0  0  0
   -3.2370    1.9860   -0.3880 N   0  0  0  0  0  0  0  0  0  0  0  0
   -0.6807    0.3592    1.6779 N   0  0  0  0  0  2  0  0  0  0  0  0
   -1.8711    0.9970    1.4538 C   0  0  1  0  0  3  0  0  0  0  0  0
   -2.1183    1.4122    0.0919 C   0  0  0  0  0  3  0  0  0  0  0  0
   -2.7967    1.1881    2.5065 C   0  0  0  0  0  0  0  0  0  0  0  0
   -3.7411    1.7002    2.2765 H   0  0  0  0  0  0  0  0  0  0  0  0
   -3.0130    2.0976   -1.7264 C   0  0  0  0  0  0  0  0  0  0  0  0
   -1.7236    1.5792   -2.0432 C   0  0  0  0  0  0  0  0  0  0  0  0
   -1.2455    0.0647    3.9957 C   0  0  0  0  0  0  0  0  0  0  0  0
   -0.9637   -0.3193    4.9856 H   0  0  0  0  0  0  0  0  0  0  0  0
   -1.0254    1.4932   -3.3595 C   0  0  0  0  0  0  0  0  0  0  0  0
   -0.4434    2.4147   -3.5814 H   0  0  0  0  0  0  0  0  0  0  0  0
   -0.3132    0.6439   -3.3771 H   0  0  0  0  0  0  0  0  0  0  0  0
   -1.7493    1.3567   -4.1868 H   0  0  0  0  0  0  0  0  0  0  0  0
   -0.3782   -0.0866    2.9119 C   0  0  0  0  0  0  0  0  0  0  0  0
    0.5992   -0.5839    3.0220 H   0  0  0  0  0  0  0  0  0  0  0  0
   -2.4787    0.7173    3.7782 C   0  0  0  0  0  0  0  0  0  0  0  0
   -3.1864    0.8529    4.6104 H   0  0  0  0  0  0  0  0  0  0  0  0
   -4.0230    2.6693   -2.6703 C   0  0  0  0  0  0  0  0  0  0  0  0
   -4.3232    1.9294   -3.4426 H   0  0  0  0  0  0  0  0  0  0  0  0
   -4.9275    2.9645   -2.1067 H   0  0  0  0  0  0  0  0  0  0  0  0
   -3.6385    3.5635   -3.2049 H   0  0  0  0  0  0  0  0  0  0  0  0
  1  5  1  0  0  0  0
  2  5  1  0  0  0  0
  3 16  1  0  0  0  0
  4  5  1  6  0  0  0
  4  3  1  0  0  0  0
  4  6  1  0  0  0  0
  6 18  2  0  0  0  0
  7  6  1  0  0  0  0
  8  2  2  0  0  0  0
  9  8  1  0  0  0  0
  9  1  2  0  0  0  0
 10 11  1  0  0  0  0
 12  9  1  0  0  0  0
 13 12  1  0  0  0  0
 14 12  1  0  0  0  0
 15 12  1  0  0  0  0
 16 17  1  0  0  0  0
 16 10  2  0  0  0  0
 18 10  1  0  0  0  0
 18 19  1  0  0  0  0
 20 22  1  0  0  0  0
 20  8  1  0  0  0  0
 21 20  1  0  0  0  0
 23 20  1  0  0  0  0
M  END
