2,3
q = 0.0, confidence = 0.998

 30 31  0  0  1  0  0  0  0  0999 V2000
    1.5908   -1.1514   -0.6931 O   0  0  0  0  0  0  0  0  0  0  0  0
   -2.3787    0.9732   -0.2664 N   0  0  0  0  0  2  0  0  0  0  0  0
    0.2450    1.2058   -0.5684 N   0  0  0  0  0  2  0  0  0  0  0  0
    1.5759    1.1538   -0.5859 N   0  0  0  0  0  0  0  0  0  0  0  0
    4.2071    1.2715   -0.5220 N   0  0  0  0  0  0  0  0  0  0  0  0
   -3.7009    0.7786   -0.2934 C   0  0  0  0  0  3  0  0  0  0  0  0
   -4.6155    1.8377   -0.4243 C   0  0  0  0  0  0  0  0  0  0  0  0
   -4.1085    3.1385   -0.5361 C   0  0  0  0  0  0  0  0  0  0  0  0
   -2.7209    3.3378   -0.5239 C   0  0  0  0  0  0  0  0  0  0  0  0
   -1.8691    2.2211   -0.3931 C   0  0  0  0  0  0  0  0  0  0  0  0
   -0.3885    2.3338   -0.4172 C   0  0  1  0  0  3  0  0  0  0  0  0
    0.3309    3.6418   -0.2465 C   0  0  0  0  0  0  0  0  0  0  0  0
    2.1966   -0.0812   -0.6327 C   0  0  0  0  0  0  0  0  0  0  0  0
    3.6917    0.0272   -0.5883 C   0  0  0  0  0  0  0  0  0  0  0  0
    4.4724   -1.1402   -0.6053 C   0  0  0  0  0  0  0  0  0  0  0  0
    5.8649   -0.9978   -0.5506 C   0  0  0  0  0  0  0  0  0  0  0  0
    6.4107    0.2926   -0.4816 C   0  0  0  0  0  0  0  0  0  0  0  0
    5.5393    1.3965   -0.4694 C   0  0  0  0  0  0  0  0  0  0  0  0
   -4.0273   -0.2740   -0.2179 H   0  0  0  0  0  0  0  0  0  0  0  0
   -5.6963    1.6380   -0.4372 H   0  0  0  0  0  0  0  0  0  0  0  0
   -4.7872    3.9983   -0.6413 H   0  0  0  0  0  0  0  0  0  0  0  0
    2.2092    1.9655   -0.4769 H   0  0  0  0  0  0  0  0  0  0  0  0
   -2.3095    4.3501   -0.6364 H   0  0  0  0  0  0  0  0  0  0  0  0
    1.0249    3.5728    0.6192 H   0  0  0  0  0  0  0  0  0  0  0  0
   -0.3524    4.4847   -0.0499 H   0  0  0  0  0  0  0  0  0  0  0  0
    0.9371    3.8935   -1.1431 H   0  0  0  0  0  0  0  0  0  0  0  0
    3.9713   -2.1171   -0.6550 H   0  0  0  0  0  0  0  0  0  0  0  0
    6.5179   -1.8834   -0.5590 H   0  0  0  0  0  0  0  0  0  0  0  0
    7.4984    0.4490   -0.4351 H   0  0  0  0  0  0  0  0  0  0  0  0
    5.9373    2.4243   -0.4131 H   0  0  0  0  0  0  0  0  0  0  0  0
  1 13  2  0  0  0  0
  4  3  1  0  0  0  0
  4 22  1  0  0  0  0
  5 18  1  0  0  0  0
  6  2  1  0  0  0  0
  6 19  1  0  0  0  0
  7  6  1  0  0  0  0
  8  9  1  0  0  0  0
  8  7  2  0  0  0  0
  9 10  2  0  0  0  0
 10  2  1  0  0  0  0
 11  3  1  1  0  0  0
 11 10  1  0  0  0  0
 11 12  1  0  0  0  0
 12 25  1  0  0  0  0
 12 24  1  0  0  0  0
 13 14  1  0  0  0  0
 13  4  1  0  0  0  0
 14  5  2  0  0  0  0
 15 14  1  0  0  0  0
 15 16  2  0  0  0  0
 16 17  1  0  0  0  0
 17 18  2  0  0  0  0
 17 29  1  0  0  0  0
 18 30  1  0  0  0  0
 20  7  1  0  0  0  0
 21  8  1  0  0  0  0
 23  9  1  0  0  0  0
 26 12  1  0  0  0  0
 27 15  1  0  0  0  0
 28 16  1  0  0  0  0
M  END
