1,2
q = 0.0, confidence = 0.994

 16 15  0  0  0  0  0  0  0  0999 V2000
    0.9571   -1.2620   -0.0007 N   0  0  0  0  0  2  0  0  0  0  0  0
    0.9566    1.2626    0.0006 N   0  0  0  0  0  2  0  0  0  0  0  0
    0.8180   -2.6010   -0.0097 O   0  0  0  0  0  0  0  0  0  0  0  0
   -0.1918   -2.7026    0.0057 H   0  0  0  0  0  0  0  0  0  0  0  0
    0.8165    2.6016    0.0086 O   0  0  0  0  0  0  0  0  0  0  0  0
   -0.1933    2.7024   -0.0066 H   0  0  0  0  0  0  0  0  0  0  0  0
    2.1705   -0.7303    0.0050 C   0  0  0  0  0  0  0  0  0  0  0  0
    2.1703    0.7314   -0.0044 C   0  0  0  0  0  0  0  0  0  0  0  0
    3.4117   -1.5619    0.0020 C   0  0  0  0  0  0  0  0  0  0  0  0
    3.1859   -2.5842    0.3546 H   0  0  0  0  0  0  0  0  0  0  0  0
    4.1904   -1.1167    0.6505 H   0  0  0  0  0  0  0  0  0  0  0  0
    3.8342   -1.6431   -1.0227 H   0  0  0  0  0  0  0  0  0  0  0  0
    3.4118    1.5624   -0.0018 C   0  0  0  0  0  0  0  0  0  0  0  0
    3.1830    2.5900   -0.3363 H   0  0  0  0  0  0  0  0  0  0  0  0
    4.1831    1.1270   -0.6659 H   0  0  0  0  0  0  0  0  0  0  0  0
    3.8459    1.6268    1.0192 H   0  0  0  0  0  0  0  0  0  0  0  0
  1  7  1  0  0  0  0
  2  5  1  0  0  0  0
  3  1  1  0  0  0  0
  3  4  1  0  0  0  0
  6  5  1  0  0  0  0
  8 13  1  0  0  0  0
  8  2  1  0  0  0  0
  8  7  2  0  0  0  0
  9  7  1  0  0  0  0
  9 10  1  0  0  0  0
  9 11  1  0  0  0  0
 12  9  1  0  0  0  0
 13 16  1  0  0  0  0
 14 13  1  0  0  0  0
 15 13  1  0  0  0  0
M  END
