1,22
q = 0.0, confidence = 0.998

 52 55  0  0  1  0  0  0  0  0999 V2000
    1.5799   -2.4386    0.3809 N   0  0  0  0  0  2  0  0  0  0  0  0
   -0.4322    2.0721   -1.6586 C   0  0  0  0  0  0  0  0  0  0  0  0
   -1.2167    2.4919   -2.3189 H   0  0  0  0  0  0  0  0  0  0  0  0
   -1.4911    0.0368   -1.5605 N   0  0  0  0  0  0  0  0  0  0  0  0
   -4.3428    1.7738    0.0958 C   0  0  0  0  0  0  0  0  0  0  0  0
   -4.3379    1.3478   -0.9188 H   0  0  0  0  0  0  0  0  0  0  0  0
   -4.3578   -2.8678   -2.6802 C   0  0  0  0  0  0  0  0  0  0  0  0
   -4.3622   -3.2981   -3.6931 H   0  0  0  0  0  0  0  0  0  0  0  0
    2.5899    3.2049    0.0442 C   0  0  0  0  0  3  0  0  0  0  0  0
    3.2635    2.7293    0.7804 H   0  0  0  0  0  0  0  0  0  0  0  0
   -2.3983    0.3070    0.6903 C   0  0  0  0  0  0  0  0  0  0  0  0
    2.7662    4.5277   -0.4001 C   0  0  0  0  0  0  0  0  0  0  0  0
    3.6082    5.1262   -0.0240 H   0  0  0  0  0  0  0  0  0  0  0  0
   -1.4911   -0.0369    1.5605 N   0  0  0  0  0  0  0  0  0  0  0  0
   -0.5115    0.8599   -1.2147 N   0  0  0  0  0  0  0  0  0  0  0  0
    0.6844   -2.9359    1.2614 C   0  0  1  0  0  3  0  0  0  0  0  0
    2.5902   -3.2048   -0.0441 C   0  0  0  0  0  0  0  0  0  0  0  0
    3.2637   -2.7291   -0.7804 H   0  0  0  0  0  0  0  0  0  0  0  0
   -3.4213   -1.8848   -2.3499 C   0  0  0  0  0  0  0  0  0  0  0  0
   -2.6825   -1.5329   -3.0846 H   0  0  0  0  0  0  0  0  0  0  0  0
   -2.3983   -0.3071   -0.6903 C   0  0  0  0  0  0  0  0  0  0  0  0
    1.5797    2.4387   -0.3809 N   0  0  0  0  0  2  0  0  0  0  0  0
   -0.4320   -2.0720    1.6587 C   0  0  0  0  0  0  0  0  0  0  0  0
   -1.2164   -2.4919    2.3190 H   0  0  0  0  0  0  0  0  0  0  0  0
   -0.5114   -0.8599    1.2146 N   0  0  0  0  0  0  0  0  0  0  0  0
   -5.2815    2.7585    0.4335 C   0  0  0  0  0  0  0  0  0  0  0  0
   -6.0090    3.0989   -0.3186 H   0  0  0  0  0  0  0  0  0  0  0  0
   -3.4013    1.3254    1.0500 C   0  0  0  0  0  0  0  0  0  0  0  0
    0.7879    4.2509   -1.7577 C   0  0  0  0  0  0  0  0  0  0  0  0
    0.0434    4.6293   -2.4741 H   0  0  0  0  0  0  0  0  0  0  0  0
   -5.2932    3.3074    1.7248 C   0  0  0  0  0  0  0  0  0  0  0  0
   -6.0313    4.0794    1.9899 H   0  0  0  0  0  0  0  0  0  0  0  0
   -3.4012   -1.3256   -1.0501 C   0  0  0  0  0  0  0  0  0  0  0  0
    1.8503   -5.0537    1.3210 C   0  0  0  0  0  0  0  0  0  0  0  0
    1.9586   -6.0829    1.6951 H   0  0  0  0  0  0  0  0  0  0  0  0
    0.6841    2.9360   -1.2613 C   0  0  0  0  0  0  0  0  0  0  0  0
   -3.4214    1.8845    2.3499 C   0  0  0  0  0  0  0  0  0  0  0  0
   -2.6827    1.5327    3.0846 H   0  0  0  0  0  0  0  0  0  0  0  0
   -4.3427   -1.7741   -0.0958 C   0  0  0  0  0  0  0  0  0  0  0  0
   -4.3378   -1.3480    0.9187 H   0  0  0  0  0  0  0  0  0  0  0  0
   -5.2813   -2.7588   -0.4336 C   0  0  0  0  0  0  0  0  0  0  0  0
   -6.0088   -3.0992    0.3185 H   0  0  0  0  0  0  0  0  0  0  0  0
   -4.3581    2.8675    2.6802 C   0  0  0  0  0  0  0  0  0  0  0  0
   -4.3624    3.2978    3.6931 H   0  0  0  0  0  0  0  0  0  0  0  0
   -5.2929   -3.3078   -1.7249 C   0  0  0  0  0  0  0  0  0  0  0  0
   -6.0310   -4.0798   -1.9899 H   0  0  0  0  0  0  0  0  0  0  0  0
    0.7883   -4.2508    1.7579 C   0  0  0  0  0  0  0  0  0  0  0  0
    0.0439   -4.6292    2.4743 H   0  0  0  0  0  0  0  0  0  0  0  0
    1.8499    5.0540   -1.3207 C   0  0  0  0  0  0  0  0  0  0  0  0
    1.9580    6.0832   -1.6948 H   0  0  0  0  0  0  0  0  0  0  0  0
    2.7666   -4.5274    0.4002 C   0  0  0  0  0  0  0  0  0  0  0  0
    3.6087   -5.1260    0.0242 H   0  0  0  0  0  0  0  0  0  0  0  0
  1 16  1  0  0  0  0
  2 36  1  0  0  0  0
  2 15  2  0  0  0  0
  3  2  1  0  0  0  0
  4 15  1  0  0  0  0
  4 21  2  0  0  0  0
  5 26  2  0  0  0  0
  5 28  1  0  0  0  0
  6  5  1  0  0  0  0
  7 19  2  0  0  0  0
  7 45  1  0  0  0  0
  8  7  1  0  0  0  0
  9 10  1  0  0  0  0
 11 28  1  0  0  0  0
 11 14  2  0  0  0  0
 12 13  1  0  0  0  0
 12  9  1  0  0  0  0
 16 23  1  6  0  0  0
 16 47  1  0  0  0  0
 17  1  1  0  0  0  0
 17 51  2  0  0  0  0
 18 17  1  0  0  0  0
 19 33  1  0  0  0  0
 20 19  1  0  0  0  0
 21 11  1  0  0  0  0
 22  9  1  0  0  0  0
 23 24  1  0  0  0  0
 25 14  1  0  0  0  0
 25 23  2  0  0  0  0
 26 31  1  0  0  0  0
 27 26  1  0  0  0  0
 28 37  2  0  0  0  0
 29 49  1  0  0  0  0
 29 36  2  0  0  0  0
 30 29  1  0  0  0  0
 31 32  1  0  0  0  0
 31 43  2  0  0  0  0
 33 21  1  0  0  0  0
 33 39  2  0  0  0  0
 34 35  1  0  0  0  0
 34 47  2  0  0  0  0
 36 22  1  0  0  0  0
 37 43  1  0  0  0  0
 37 38  1  0  0  0  0
 39 40  1  0  0  0  0
 41 39  1  0  0  0  0
 41 42  1  0  0  0  0
 43 44  1  0  0  0  0
 45 41  2  0  0  0  0
 46 45  1  0  0  0  0
 47 48  1  0  0  0  0
 49 12  2  0  0  0  0
 50 49  1  0  0  0  0
 51 34  1  0  0  0  0
 52 51  1  0  0  0  0
M  END
