2,3
q = 0.0, confidence = 1.0

 37 40  0  0  1  0  0  0  0  0999 V2000
    0.4261    1.3304   -1.4274 N   0  0  0  0  0  0  0  0  0  0  0  0
   -0.5357    0.8243   -0.6571 N   0  0  0  0  0  2  0  0  0  0  0  0
   -2.7908    0.1454    0.5375 N   0  0  0  0  0  2  0  0  0  0  0  0
    1.4435    0.4266   -1.9922 C   0  0  0  0  0  0  0  0  0  0  0  0
    2.1176    1.0582   -2.6014 H   0  0  0  0  0  0  0  0  0  0  0  0
    0.8925   -0.2724   -2.6570 H   0  0  0  0  0  0  0  0  0  0  0  0
    2.1686   -0.3466   -0.9158 C   0  0  0  0  0  0  0  0  0  0  0  0
    1.8219   -1.6766   -0.6989 C   0  0  0  0  0  0  0  0  0  0  0  0
    1.0619   -2.1464   -1.3450 H   0  0  0  0  0  0  0  0  0  0  0  0
    2.4068   -2.4256    0.3550 C   0  0  0  0  0  0  0  0  0  0  0  0
    2.0730   -3.4585    0.5252 H   0  0  0  0  0  0  0  0  0  0  0  0
    3.3566   -1.8424    1.1737 C   0  0  0  0  0  0  0  0  0  0  0  0
    3.8112   -2.4122    1.9990 H   0  0  0  0  0  0  0  0  0  0  0  0
    3.7555   -0.4859    0.9809 C   0  0  0  0  0  0  0  0  0  0  0  0
    4.7318    0.1284    1.8181 C   0  0  0  0  0  0  0  0  0  0  0  0
    5.1860   -0.4729    2.6212 H   0  0  0  0  0  0  0  0  0  0  0  0
    5.1049    1.4513    1.6341 C   0  0  0  0  0  0  0  0  0  0  0  0
    5.8597    1.9110    2.2899 H   0  0  0  0  0  0  0  0  0  0  0  0
    4.5114    2.2146    0.5959 C   0  0  0  0  0  0  0  0  0  0  0  0
    4.8103    3.2637    0.4494 H   0  0  0  0  0  0  0  0  0  0  0  0
    3.5568    1.6457   -0.2364 C   0  0  0  0  0  0  0  0  0  0  0  0
    3.1124    2.2598   -1.0326 H   0  0  0  0  0  0  0  0  0  0  0  0
    3.1495    0.2880   -0.0777 C   0  0  0  0  0  0  0  0  0  0  0  0
    0.2348    2.6633   -1.6436 C   0  0  0  0  0  3  0  0  0  0  0  0
    0.9295    3.2426   -2.2610 H   0  0  0  0  0  0  0  0  0  0  0  0
   -0.9311    3.0320   -0.9710 C   0  0  0  0  0  0  0  0  0  0  0  0
   -1.3890    4.0252   -0.9403 H   0  0  0  0  0  0  0  0  0  0  0  0
   -1.3907    1.8309   -0.3742 C   0  0  0  0  0  0  0  0  0  0  0  0
   -2.5823    1.4796    0.4062 C   0  0  2  0  0  3  0  0  0  0  0  0
   -3.4490    2.4141    1.0018 C   0  0  0  0  0  0  0  0  0  0  0  0
   -3.2595    3.4911    0.8916 H   0  0  0  0  0  0  0  0  0  0  0  0
   -4.5345    1.9410    1.7496 C   0  0  0  0  0  0  0  0  0  0  0  0
   -5.2282    2.6511    2.2244 H   0  0  0  0  0  0  0  0  0  0  0  0
   -4.7161    0.5575    1.9054 C   0  0  0  0  0  0  0  0  0  0  0  0
   -5.5461    0.1522    2.5010 H   0  0  0  0  0  0  0  0  0  0  0  0
   -3.8060   -0.3094    1.2858 C   0  0  0  0  0  0  0  0  0  0  0  0
   -3.8598   -1.4052    1.3946 H   0  0  0  0  0  0  0  0  0  0  0  0
  1  2  1  0  0  0  0
  2 28  1  0  0  0  0
  3 36  1  0  0  0  0
  4  1  1  0  0  0  0
  4  7  1  0  0  0  0
  5  4  1  0  0  0  0
  6  4  1  0  0  0  0
  7  8  2  0  0  0  0
  7 23  1  0  0  0  0
  8 10  1  0  0  0  0
  9  8  1  0  0  0  0
 10 11  1  0  0  0  0
 10 12  2  0  0  0  0
 12 13  1  0  0  0  0
 14 12  1  0  0  0  0
 14 15  1  0  0  0  0
 15 16  1  0  0  0  0
 17 15  2  0  0  0  0
 17 18  1  0  0  0  0
 19 17  1  0  0  0  0
 20 19  1  0  0  0  0
 21 23  1  0  0  0  0
 21 19  2  0  0  0  0
 22 21  1  0  0  0  0
 23 14  2  0  0  0  0
 24  1  1  0  0  0  0
 24 26  1  0  0  0  0
 25 24  1  0  0  0  0
 26 27  1  0  0  0  0
 26 28  2  0  0  0  0
 29 28  1  1  0  0  0
 29  3  1  0  0  0  0
 29 30  1  0  0  0  0
 30 32  2  0  0  0  0
 31 30  1  0  0  0  0
 32 34  1  0  0  0  0
 32 33  1  0  0  0  0
 34 35  1  0  0  0  0
 36 37  1  0  0  0  0
 36 34  2  0  0  0  0
M  END
