4,18
q = 0.0, confidence = 1.0

 29 30  0  0  1  0  0  0  0  0999 V2000
   -0.0456   -1.3956   -0.5027 O   0  0  0  0  0  0  0  0  0  0  0  0
    1.1615   -2.3332    1.3042 O   0  0  0  0  0  0  0  0  0  0  0  0
    0.9652   -1.4920    1.8270 H   0  0  0  0  0  0  0  0  0  0  0  0
    1.9561    0.2929   -0.3484 N   0  0  0  0  0  2  0  0  0  0  0  0
    2.8953    1.2221   -0.6106 C   0  0  0  0  0  3  0  0  0  0  0  0
    2.5420    2.2672   -0.5529 H   0  0  0  0  0  0  0  0  0  0  0  0
    4.2090    0.8701   -0.9423 C   0  0  0  0  0  0  0  0  0  0  0  0
    4.9501    1.6545   -1.1514 H   0  0  0  0  0  0  0  0  0  0  0  0
    4.5470   -0.4900   -1.0016 C   0  0  0  0  0  0  0  0  0  0  0  0
    5.5702   -0.8022   -1.2599 H   0  0  0  0  0  0  0  0  0  0  0  0
    3.5607   -1.4486   -0.7332 C   0  0  0  0  0  0  0  0  0  0  0  0
    3.7822   -2.5253   -0.7703 H   0  0  0  0  0  0  0  0  0  0  0  0
    2.2667   -1.0179   -0.4082 C   0  0  0  0  0  0  0  0  0  0  0  0
    1.1718   -2.0172   -0.0345 C   0  0  2  0  0  0  0  0  0  0  0  0
    1.3264   -2.9690   -0.5904 H   0  0  0  0  0  0  0  0  0  0  0  0
   -1.5813   -3.1636   -0.6331 O   0  0  0  0  0  0  0  0  0  0  0  0
   -1.6707   -2.9951   -1.5930 H   0  0  0  0  0  0  0  0  0  0  0  0
   -1.9163    0.4213   -0.2539 N   0  0  0  0  0  2  0  0  0  0  0  0
   -2.8052    1.4090   -0.4708 C   0  0  0  0  0  3  0  0  0  0  0  0
   -2.3802    2.4283   -0.4397 H   0  0  0  0  0  0  0  0  0  0  0  0
   -4.1567    1.1445   -0.7255 C   0  0  0  0  0  0  0  0  0  0  0  0
   -4.8548    1.9763   -0.8959 H   0  0  0  0  0  0  0  0  0  0  0  0
   -4.5869   -0.1894   -0.7541 C   0  0  0  0  0  0  0  0  0  0  0  0
   -5.6426   -0.4341   -0.9462 H   0  0  0  0  0  0  0  0  0  0  0  0
   -3.6530   -1.2124   -0.5363 C   0  0  0  0  0  0  0  0  0  0  0  0
   -3.9362   -2.2738   -0.5527 H   0  0  0  0  0  0  0  0  0  0  0  0
   -2.3163   -0.8660   -0.2891 C   0  0  0  0  0  0  0  0  0  0  0  0
   -1.2631   -1.9405   -0.0320 C   0  0  2  0  0  0  0  0  0  0  0  0
   -1.1818   -2.1445    1.0585 H   0  0  0  0  0  0  0  0  0  0  0  0
  1 14  1  0  0  0  0
  1 28  1  0  0  0  0
  2  3  1  0  0  0  0
  5  6  1  0  0  0  0
  5  4  1  0  0  0  0
  7  5  1  0  0  0  0
  8  7  1  0  0  0  0
  9  7  2  0  0  0  0
  9 11  1  0  0  0  0
 10  9  1  0  0  0  0
 11 13  2  0  0  0  0
 12 11  1  0  0  0  0
 13  4  1  0  0  0  0
 13 14  1  0  0  0  0
 14 15  1  6  0  0  0
 14  2  1  0  0  0  0
 16 28  1  0  0  0  0
 17 16  1  0  0  0  0
 19 20  1  0  0  0  0
 19 18  1  0  0  0  0
 21 19  1  0  0  0  0
 22 21  1  0  0  0  0
 23 21  2  0  0  0  0
 23 25  1  0  0  0  0
 24 23  1  0  0  0  0
 25 27  2  0  0  0  0
 26 25  1  0  0  0  0
 27 18  1  0  0  0  0
 27 28  1  0  0  0  0
 28 29  1  1  0  0  0
M  END
