1,2
q = -1.0

 27 26  0  0  0  0  0  0  0  0999 V2000
   -0.2036    1.5826   -0.2984 N   0  0  0  0  0  2  0  0  0  0  0  0
    1.5854    0.2470   -0.2859 N   0  0  0  0  0  2  0  0  0  0  0  0
    1.1231    1.4941   -0.4667 C   0  0  0  0  0  3  0  0  0  0  0  0
    2.0222    2.6565   -0.8230 C   0  0  0  0  0  0  0  0  0  0  0  0
   -0.9622    2.8214   -0.3901 C   0  0  0  0  0  0  0  0  0  0  0  0
   -2.3879    2.5308   -0.8720 C   0  0  0  0  0  0  0  0  0  0  0  0
   -0.9641    3.5850    0.9450 C   0  0  0  0  0  0  0  0  0  0  0  0
    2.9952   -0.1044   -0.3820 C   0  0  0  0  0  0  0  0  0  0  0  0
    3.1484   -1.4913   -1.0173 C   0  0  0  0  0  0  0  0  0  0  0  0
    3.7000   -0.0290    0.9836 C   0  0  0  0  0  0  0  0  0  0  0  0
    2.7612    2.8298   -0.0155 H   0  0  0  0  0  0  0  0  0  0  0  0
    1.4566    3.5902   -0.9822 H   0  0  0  0  0  0  0  0  0  0  0  0
    2.5967    2.4329   -1.7443 H   0  0  0  0  0  0  0  0  0  0  0  0
   -0.4939    3.4827   -1.1576 H   0  0  0  0  0  0  0  0  0  0  0  0
   -2.3767    2.0295   -1.8597 H   0  0  0  0  0  0  0  0  0  0  0  0
   -2.9709    3.4687   -0.9651 H   0  0  0  0  0  0  0  0  0  0  0  0
   -2.9138    1.8676   -0.1566 H   0  0  0  0  0  0  0  0  0  0  0  0
   -1.4418    2.9754    1.7373 H   0  0  0  0  0  0  0  0  0  0  0  0
   -1.5184    4.5423    0.8585 H   0  0  0  0  0  0  0  0  0  0  0  0
    0.0703    3.8156    1.2715 H   0  0  0  0  0  0  0  0  0  0  0  0
    3.5056    0.6200   -1.0588 H   0  0  0  0  0  0  0  0  0  0  0  0
    2.6237   -2.2563   -0.4104 H   0  0  0  0  0  0  0  0  0  0  0  0
    4.2162   -1.7799   -1.0903 H   0  0  0  0  0  0  0  0  0  0  0  0
    2.7151   -1.5057   -2.0372 H   0  0  0  0  0  0  0  0  0  0  0  0
    3.5866    0.9771    1.4361 H   0  0  0  0  0  0  0  0  0  0  0  0
    4.7848   -0.2385    0.8827 H   0  0  0  0  0  0  0  0  0  0  0  0
    3.2664   -0.7663    1.6867 H   0  0  0  0  0  0  0  0  0  0  0  0
  3  1  1  0  0  0  0
  3  2  1  0  0  0  0
  4  3  1  0  0  0  0
  4 11  1  0  0  0  0
  5  1  1  0  0  0  0
  5  7  1  0  0  0  0
  6  5  1  0  0  0  0
  6 17  1  0  0  0  0
  7 20  1  0  0  0  0
  7 18  1  0  0  0  0
  8  2  1  0  0  0  0
  8 10  1  0  0  0  0
  9 22  1  0  0  0  0
  9  8  1  0  0  0  0
 10 25  1  0  0  0  0
 10 27  1  0  0  0  0
 12  4  1  0  0  0  0
 13  4  1  0  0  0  0
 14  5  1  0  0  0  0
 15  6  1  0  0  0  0
 16  6  1  0  0  0  0
 19  7  1  0  0  0  0
 21  8  1  0  0  0  0
 23  9  1  0  0  0  0
 24  9  1  0  0  0  0
 26 10  1  0  0  0  0
M  END
