1,2
q = 0.0, confidence = 0.966

 16 16  0  0  0  0  0  0  0  0999 V2000
   -0.6305   -0.3087    0.0470 N   0  0  0  0  0  2  0  0  0  0  0  0
    0.8682    1.8047   -0.3064 N   0  0  0  0  0  0  0  0  0  0  0  0
    1.6174    2.4120    0.0496 H   0  0  0  0  0  0  0  0  0  0  0  0
    0.8155    1.9658   -1.3236 H   0  0  0  0  0  0  0  0  0  0  0  0
   -1.3640   -1.4457   -0.0906 C   0  0  0  0  0  3  0  0  0  0  0  0
   -0.7853   -2.3790   -0.1430 H   0  0  0  0  0  0  0  0  0  0  0  0
   -2.7589   -1.4478   -0.1561 C   0  0  0  0  0  0  0  0  0  0  0  0
   -3.2904   -2.4041   -0.2682 H   0  0  0  0  0  0  0  0  0  0  0  0
   -3.4568   -0.2311   -0.0864 C   0  0  0  0  0  0  0  0  0  0  0  0
   -4.5544   -0.1999   -0.1448 H   0  0  0  0  0  0  0  0  0  0  0  0
   -2.7086    0.9498    0.0548 C   0  0  0  0  0  0  0  0  0  0  0  0
   -3.2022    1.9317    0.1131 H   0  0  0  0  0  0  0  0  0  0  0  0
   -1.3157    0.8762    0.1268 C   0  0  0  0  0  0  0  0  0  0  0  0
   -0.4262    2.0740    0.3425 C   0  0  0  0  0  0  0  0  0  0  0  0
   -0.9224    3.0092   -0.0002 H   0  0  0  0  0  0  0  0  0  0  0  0
   -0.2315    2.1848    1.4313 H   0  0  0  0  0  0  0  0  0  0  0  0
  1 13  1  0  0  0  0
  2  3  1  0  0  0  0
  2 14  1  0  0  0  0
  4  2  1  0  0  0  0
  5  1  1  0  0  0  0
  6  5  1  0  0  0  0
  7  5  1  0  0  0  0
  7  9  2  0  0  0  0
  8  7  1  0  0  0  0
  9 11  1  0  0  0  0
 10  9  1  0  0  0  0
 11 12  1  0  0  0  0
 11 13  2  0  0  0  0
 13 14  1  0  0  0  0
 14 16  1  0  0  0  0
 15 14  1  0  0  0  0
M  END
