1,4
q = 0.0, confidence = 0.95

 24 25  0  0  0  0  0  0  0  0999 V2000
    2.0429   -0.9964    0.0743 N   0  0  0  0  0  2  0  0  0  0  0  0
    3.9449   -0.3554   -0.9089 N   0  0  0  0  0  0  0  0  0  0  0  0
    1.8325    0.6548   -1.5989 N   0  0  0  0  0  0  0  0  0  0  0  0
    0.5533    0.4635   -1.3062 N   0  0  0  0  0  2  0  0  0  0  0  0
    3.0724   -1.6805    0.6683 C   0  0  0  0  0  0  0  0  0  0  0  0
    2.8801   -2.4139    1.4584 H   0  0  0  0  0  0  0  0  0  0  0  0
    4.2606   -1.2893    0.0644 C   0  0  0  0  0  0  0  0  0  0  0  0
    5.2927   -1.6091    0.2374 H   0  0  0  0  0  0  0  0  0  0  0  0
    2.5822   -0.2008   -0.8833 C   0  0  0  0  0  0  0  0  0  0  0  0
   -0.3141    1.4815   -1.7929 C   0  0  0  0  0  0  0  0  0  0  0  0
   -1.5668    1.1197   -2.3236 C   0  0  0  0  0  0  0  0  0  0  0  0
   -1.8144    0.0540   -2.4086 H   0  0  0  0  0  0  0  0  0  0  0  0
   -2.4482    2.1183   -2.7557 C   0  0  0  0  0  0  0  0  0  0  0  0
   -3.4225    1.8342   -3.1815 H   0  0  0  0  0  0  0  0  0  0  0  0
   -2.0897    3.4739   -2.6555 C   0  0  0  0  0  0  0  0  0  0  0  0
   -2.7896    4.2559   -2.9869 H   0  0  0  0  0  0  0  0  0  0  0  0
   -0.8329    3.8285   -2.1362 C   0  0  0  0  0  0  0  0  0  0  0  0
   -0.5486    4.8889   -2.0558 H   0  0  0  0  0  0  0  0  0  0  0  0
    0.0612    2.8379   -1.7102 C   0  0  0  0  0  0  0  0  0  0  0  0
    1.0444    3.0892   -1.2901 H   0  0  0  0  0  0  0  0  0  0  0  0
    4.8447    0.3243   -1.8198 C   0  0  0  0  0  0  0  0  0  0  0  0
    5.3252   -0.3959   -2.5127 H   0  0  0  0  0  0  0  0  0  0  0  0
    5.6300    0.8694   -1.2592 H   0  0  0  0  0  0  0  0  0  0  0  0
    4.2506    1.0471   -2.4081 H   0  0  0  0  0  0  0  0  0  0  0  0
  1  5  1  0  0  0  0
  2  9  1  0  0  0  0
  2  7  1  0  0  0  0
  3  4  1  0  0  0  0
  3  9  2  0  0  0  0
  5  6  1  0  0  0  0
  7  8  1  0  0  0  0
  7  5  2  0  0  0  0
  9  1  1  0  0  0  0
 10 19  1  0  0  0  0
 10  4  1  0  0  0  0
 11 10  2  0  0  0  0
 12 11  1  0  0  0  0
 13 15  2  0  0  0  0
 13 11  1  0  0  0  0
 14 13  1  0  0  0  0
 15 17  1  0  0  0  0
 16 15  1  0  0  0  0
 17 18  1  0  0  0  0
 17 19  2  0  0  0  0
 19 20  1  0  0  0  0
 21 23  1  0  0  0  0
 21  2  1  0  0  0  0
 22 21  1  0  0  0  0
 24 21  1  0  0  0  0
M  END
