8,9
q = -1.0, confidence = 0.0

 27 28  0  0  0  0  0  0  0  0999 V2000
   -4.1537    0.9536   -0.7156 F   0  0  0  0  0  0  0  0  0  0  0  0
   -4.6401   -0.3254   -2.4242 F   0  0  0  0  0  0  0  0  0  0  0  0
   -3.8369    1.6780   -2.7494 F   0  0  0  0  0  0  0  0  0  0  0  0
   -1.4150    0.9105   -1.6774 O   0  0  0  0  0  0  0  0  0  0  0  0
   -2.1024   -1.3562   -1.9976 C   0  0  0  0  0  0  0  0  0  0  0  0
    2.5100   -0.6998    2.1913 C   0  0  0  0  0  0  0  0  0  0  0  0
    3.6162   -3.8913   -0.3136 C   0  0  0  0  0  3  0  0  0  0  0  0
    0.1530   -1.5071   -1.0071 N   0  0  0  0  0  2  0  0  0  0  0  0
    1.7749   -0.9867    1.1257 N   0  0  0  0  0  2  0  0  0  0  0  0
    3.6710   -1.4369    2.5389 C   0  0  0  0  0  0  0  0  0  0  0  0
    4.0615   -2.4886    1.7225 C   0  0  0  0  0  0  0  0  0  0  0  0
    1.2757   -2.2996   -0.8208 C   0  0  0  0  0  0  0  0  0  0  0  0
    3.2944   -2.8221    0.5687 C   0  0  0  0  0  0  0  0  0  0  0  0
    1.6544   -3.3509   -1.6772 C   0  0  0  0  0  0  0  0  0  0  0  0
    2.8020   -4.1336   -1.4145 C   0  0  0  0  0  0  0  0  0  0  0  0
    2.1269   -2.0201    0.3152 C   0  0  0  0  0  0  0  0  0  0  0  0
   -2.2975    0.0573   -1.8957 C   0  0  0  0  0  0  0  0  0  0  0  0
   -3.7495    0.5867   -1.9617 C   0  0  0  0  0  0  0  0  0  0  0  0
   -0.9375   -2.0166   -1.6202 C   0  0  0  0  0  0  0  0  0  0  0  0
   -2.9462   -1.9797   -2.3191 H   0  0  0  0  0  0  0  0  0  0  0  0
    2.1817    0.1631    2.7973 H   0  0  0  0  0  0  0  0  0  0  0  0
    4.5041   -4.5095   -0.1142 H   0  0  0  0  0  0  0  0  0  0  0  0
    4.2494   -1.1619    3.4330 H   0  0  0  0  0  0  0  0  0  0  0  0
    4.9642   -3.0764    1.9521 H   0  0  0  0  0  0  0  0  0  0  0  0
    1.0563   -3.5551   -2.5764 H   0  0  0  0  0  0  0  0  0  0  0  0
    3.0539   -4.9493   -2.1097 H   0  0  0  0  0  0  0  0  0  0  0  0
   -0.9280   -3.1159   -1.7639 H   0  0  0  0  0  0  0  0  0  0  0  0
  2 18  1  0  0  0  0
  3 18  1  0  0  0  0
  5 17  1  0  0  0  0
  5 19  2  0  0  0  0
  6 10  2  0  0  0  0
  6 21  1  0  0  0  0
  7 22  1  0  0  0  0
  7 13  1  0  0  0  0
  8 12  1  0  0  0  0
  9  6  1  0  0  0  0
 10 23  1  0  0  0  0
 11 24  1  0  0  0  0
 11 10  1  0  0  0  0
 12 16  2  0  0  0  0
 13 11  2  0  0  0  0
 14 15  2  0  0  0  0
 14 12  1  0  0  0  0
 15  7  1  0  0  0  0
 16 13  1  0  0  0  0
 16  9  1  0  0  0  0
 17  4  2  0  0  0  0
 18 17  1  0  0  0  0
 18  1  1  0  0  0  0
 19  8  1  0  0  0  0
 20  5  1  0  0  0  0
 25 14  1  0  0  0  0
 26 15  1  0  0  0  0
 27 19  1  0  0  0  0
M  END
