3,5
q = 0.0, confidence = 0.892

 73 75  0  0  0  0  0  0  0  0999 V2000
   -1.6985    1.9060    0.5210 O   0  0  0  0  0  0  0  0  0  0  0  0
    1.0640    2.1638   -0.2350 O   0  0  0  0  0  0  0  0  0  0  0  0
    1.7948   -0.8457   -1.1269 N   0  0  0  0  0  0  0  0  0  0  0  0
   -0.9395   -2.3905   -1.0897 N   0  0  0  0  0  0  0  0  0  0  0  0
   -1.8088   -1.1556    1.6763 N   0  0  0  0  0  0  0  0  0  0  0  0
    5.1885   -3.2283    1.4417 N   0  0  0  0  0  0  0  0  0  0  0  0
   -0.8778    1.0553   -2.7453 N   0  0  0  0  0  0  0  0  0  0  0  0
    1.4465    0.5622    2.3473 N   0  0  0  0  0  0  0  0  0  0  0  0
    2.4076    0.3083   -1.8602 C   0  0  0  0  0  0  0  0  0  0  0  0
    1.5772    0.8060   -2.4020 H   0  0  0  0  0  0  0  0  0  0  0  0
    3.1194   -0.0783   -2.6262 H   0  0  0  0  0  0  0  0  0  0  0  0
    1.2857   -1.8185   -2.1127 C   0  0  0  0  0  0  0  0  0  0  0  0
    2.1248   -2.3208   -2.6506 H   0  0  0  0  0  0  0  0  0  0  0  0
    0.7382   -1.2416   -2.8854 H   0  0  0  0  0  0  0  0  0  0  0  0
    0.3712   -2.8989   -1.5321 C   0  0  0  0  0  0  0  0  0  0  0  0
    0.2546   -3.7019   -2.2978 H   0  0  0  0  0  0  0  0  0  0  0  0
    0.8655   -3.3828   -0.6672 H   0  0  0  0  0  0  0  0  0  0  0  0
   -1.4929   -3.0961    0.0722 C   0  0  0  0  0  0  0  0  0  0  0  0
   -0.6452   -3.4443    0.6957 H   0  0  0  0  0  0  0  0  0  0  0  0
   -2.0437   -4.0183   -0.2377 H   0  0  0  0  0  0  0  0  0  0  0  0
   -2.4498   -2.2564    0.9220 C   0  0  0  0  0  0  0  0  0  0  0  0
   -3.2263   -1.8133    0.2719 H   0  0  0  0  0  0  0  0  0  0  0  0
   -2.9909   -2.9379    1.6218 H   0  0  0  0  0  0  0  0  0  0  0  0
   -2.8105   -0.1261    2.0847 C   0  0  0  0  0  0  0  0  0  0  0  0
   -2.2634    0.6643    2.6332 H   0  0  0  0  0  0  0  0  0  0  0  0
   -3.5410   -0.5864    2.7927 H   0  0  0  0  0  0  0  0  0  0  0  0
   -3.5689    0.5210    0.9547 C   0  0  0  0  0  0  0  0  0  0  0  0
   -4.8898    0.1351    0.6561 C   0  0  0  0  0  0  0  0  0  0  0  0
   -5.3533   -0.6639    1.2565 H   0  0  0  0  0  0  0  0  0  0  0  0
   -5.6266    0.7550   -0.3643 C   0  0  0  0  0  0  0  0  0  0  0  0
   -6.6575    0.4376   -0.5754 H   0  0  0  0  0  0  0  0  0  0  0  0
   -5.0382    1.7987   -1.0921 C   0  0  0  0  0  0  0  0  0  0  0  0
   -5.6034    2.3065   -1.8878 H   0  0  0  0  0  0  0  0  0  0  0  0
   -3.7286    2.2182   -0.8106 C   0  0  0  0  0  0  0  0  0  0  0  0
   -3.2887    3.0375   -1.3923 H   0  0  0  0  0  0  0  0  0  0  0  0
   -2.9897    1.5764    0.2013 C   0  0  0  0  0  0  0  0  0  0  0  0
   -1.1219    3.0811   -0.0694 C   0  0  0  0  0  0  0  0  0  0  0  0
   -1.6961    3.9770    0.2523 H   0  0  0  0  0  0  0  0  0  0  0  0
   -1.1438    3.0007   -1.1764 H   0  0  0  0  0  0  0  0  0  0  0  0
    0.3126    3.1993    0.3884 C   0  0  0  0  0  0  0  0  0  0  0  0
    0.6982    4.1953    0.0775 H   0  0  0  0  0  0  0  0  0  0  0  0
    0.3844    3.1218    1.4962 H   0  0  0  0  0  0  0  0  0  0  0  0
    2.4349    2.2197   -0.1715 C   0  0  0  0  0  0  0  0  0  0  0  0
    3.1307    3.1340    0.6380 C   0  0  0  0  0  0  0  0  0  0  0  0
    2.5909    3.8275    1.2949 H   0  0  0  0  0  0  0  0  0  0  0  0
    4.5335    3.1562    0.6211 C   0  0  0  0  0  0  0  0  0  0  0  0
    5.0673    3.8742    1.2612 H   0  0  0  0  0  0  0  0  0  0  0  0
    5.2479    2.2792   -0.2045 C   0  0  0  0  0  0  0  0  0  0  0  0
    6.3462    2.3074   -0.2342 H   0  0  0  0  0  0  0  0  0  0  0  0
    4.5419    1.3650   -0.9995 C   0  0  0  0  0  0  0  0  0  0  0  0
    5.0973    0.6902   -1.6707 H   0  0  0  0  0  0  0  0  0  0  0  0
    3.1364    1.2995   -0.9901 C   0  0  0  0  0  0  0  0  0  0  0  0
    2.6778   -1.4368   -0.1028 C   0  0  0  0  0  0  0  0  0  0  0  0
    2.0909   -2.1697    0.4862 H   0  0  0  0  0  0  0  0  0  0  0  0
    2.9569   -0.6318    0.6028 H   0  0  0  0  0  0  0  0  0  0  0  0
    3.9643   -2.1346   -0.6126 C   0  0  0  0  0  0  0  0  0  0  0  0
    3.7386   -2.9274   -1.3565 H   0  0  0  0  0  0  0  0  0  0  0  0
    4.6382   -1.4082   -1.1101 H   0  0  0  0  0  0  0  0  0  0  0  0
    4.6740   -2.7461    0.5068 C   0  0  0  0  0  0  0  0  0  0  0  0
   -1.8955   -2.2589   -2.2003 C   0  0  0  0  0  0  0  0  0  0  0  0
   -2.6909   -3.0346   -2.1166 H   0  0  0  0  0  0  0  0  0  0  0  0
   -1.3672   -2.4627   -3.1535 H   0  0  0  0  0  0  0  0  0  0  0  0
   -2.5994   -0.8904   -2.3352 C   0  0  0  0  0  0  0  0  0  0  0  0
   -3.2999   -0.9279   -3.1965 H   0  0  0  0  0  0  0  0  0  0  0  0
   -3.2141   -0.6472   -1.4447 H   0  0  0  0  0  0  0  0  0  0  0  0
   -1.6616    0.2047   -2.5532 C   0  0  0  0  0  0  0  0  0  0  0  0
   -1.1583   -1.7224    2.8740 C   0  0  0  0  0  0  0  0  0  0  0  0
   -0.4716   -2.5262    2.5448 H   0  0  0  0  0  0  0  0  0  0  0  0
   -1.9242   -2.1982    3.5341 H   0  0  0  0  0  0  0  0  0  0  0  0
   -0.3648   -0.7316    3.7460 C   0  0  0  0  0  0  0  0  0  0  0  0
   -1.0280    0.0036    4.2467 H   0  0  0  0  0  0  0  0  0  0  0  0
    0.1291   -1.3021    4.5602 H   0  0  0  0  0  0  0  0  0  0  0  0
    0.6548   -0.0045    2.9998 C   0  0  0  0  0  0  0  0  0  0  0  0
  2 43  1  0  0  0  0
  2 40  1  0  0  0  0
  3 53  1  0  0  0  0
  4 18  1  0  0  0  0
  5 24  1  0  0  0  0
  5 67  1  0  0  0  0
  7 66  3  0  0  0  0
  8 73  3  0  0  0  0
  9  3  1  0  0  0  0
  9 52  1  0  0  0  0
 10  9  1  0  0  0  0
 11  9  1  0  0  0  0
 12 15  1  0  0  0  0
 12  3  1  0  0  0  0
 13 12  1  0  0  0  0
 14 12  1  0  0  0  0
 15  4  1  0  0  0  0
 15 17  1  0  0  0  0
 16 15  1  0  0  0  0
 18 19  1  0  0  0  0
 18 21  1  0  0  0  0
 20 18  1  0  0  0  0
 21 23  1  0  0  0  0
 21  5  1  0  0  0  0
 22 21  1  0  0  0  0
 24 25  1  0  0  0  0
 24 26  1  0  0  0  0
 27 24  1  0  0  0  0
 28 27  1  0  0  0  0
 28 29  1  0  0  0  0
 30 28  2  0  0  0  0
 31 30  1  0  0  0  0
 32 34  2  0  0  0  0
 32 30  1  0  0  0  0
 33 32  1  0  0  0  0
 34 36  1  0  0  0  0
 35 34  1  0  0  0  0
 36  1  1  0  0  0  0
 36 27  2  0  0  0  0
 37 38  1  0  0  0  0
 37 40  1  0  0  0  0
 37  1  1  0  0  0  0
 39 37  1  0  0  0  0
 40 42  1  0  0  0  0
 41 40  1  0  0  0  0
 43 44  1  0  0  0  0
 44 45  1  0  0  0  0
 46 44  2  0  0  0  0
 46 47  1  0  0  0  0
 48 46  1  0  0  0  0
 49 48  1  0  0  0  0
 50 52  1  0  0  0  0
 50 48  2  0  0  0  0
 51 50  1  0  0  0  0
 52 43  2  0  0  0  0
 53 54  1  0  0  0  0
 53 55  1  0  0  0  0
 56 53  1  0  0  0  0
 56 59  1  0  0  0  0
 57 56  1  0  0  0  0
 58 56  1  0  0  0  0
 59  6  3  0  0  0  0
 60 61  1  0  0  0  0
 60  4  1  0  0  0  0
 62 60  1  0  0  0  0
 63 60  1  0  0  0  0
 63 65  1  0  0  0  0
 64 63  1  0  0  0  0
 66 63  1  0  0  0  0
 67 69  1  0  0  0  0
 67 70  1  0  0  0  0
 68 67  1  0  0  0  0
 70 71  1  0  0  0  0
 70 72  1  0  0  0  0
 73 70  1  0  0  0  0
M  END
