4,6
q = -1.0, confidence = 0.022

 48 49  0  0  0  0  0  0  0  0999 V2000
    1.0962    5.3980   -0.6876 O   0  0  0  0  0  0  0  0  0  0  0  0
   -1.0954    5.3982   -0.6875 O   0  0  0  0  0  0  0  0  0  0  0  0
    1.2133    2.8985    0.0389 N   0  0  0  0  0  0  0  0  0  0  0  0
    1.3985    1.6490    0.2068 N   0  0  0  0  0  2  0  0  0  0  0  0
   -1.2129    2.8987    0.0390 N   0  0  0  0  0  2  0  0  0  0  0  0
   -1.3982    1.6492    0.2070 N   0  0  0  0  0  2  0  0  0  0  0  0
    0.0003    4.8639   -0.5288 N   0  0  0  0  0  0  0  0  0  0  0  0
    0.0002    3.4284   -0.1494 C   0  0  0  0  0  0  0  0  0  0  0  0
    2.7484    1.2029    0.3876 C   0  0  0  0  0  0  0  0  0  0  0  0
    3.0713    0.4705    1.5549 C   0  0  0  0  0  0  0  0  0  0  0  0
    4.3674   -0.0547    1.6591 C   0  0  0  0  0  0  0  0  0  0  0  0
    4.6342   -0.6238    2.5640 H   0  0  0  0  0  0  0  0  0  0  0  0
    5.3243    0.1120    0.6406 C   0  0  0  0  0  0  0  0  0  0  0  0
    4.9668    0.8653   -0.4923 C   0  0  0  0  0  0  0  0  0  0  0  0
    5.7051    1.0124   -1.2967 H   0  0  0  0  0  0  0  0  0  0  0  0
    3.6879    1.4258   -0.6484 C   0  0  0  0  0  0  0  0  0  0  0  0
    2.0649    0.2572    2.6556 C   0  0  0  0  0  0  0  0  0  0  0  0
    1.5145    1.1871    2.9020 H   0  0  0  0  0  0  0  0  0  0  0  0
    2.5595   -0.1081    3.5754 H   0  0  0  0  0  0  0  0  0  0  0  0
    1.3020   -0.4970    2.3637 H   0  0  0  0  0  0  0  0  0  0  0  0
    6.6799   -0.5359    0.7504 C   0  0  0  0  0  0  0  0  0  0  0  0
    7.4074   -0.0927    0.0434 H   0  0  0  0  0  0  0  0  0  0  0  0
    6.6085   -1.6209    0.5203 H   0  0  0  0  0  0  0  0  0  0  0  0
    7.0928   -0.4498    1.7755 H   0  0  0  0  0  0  0  0  0  0  0  0
    3.3240    2.1956   -1.8907 C   0  0  0  0  0  0  0  0  0  0  0  0
    2.4184    1.7698   -2.3729 H   0  0  0  0  0  0  0  0  0  0  0  0
    4.1495    2.1659   -2.6262 H   0  0  0  0  0  0  0  0  0  0  0  0
    3.0911    3.2552   -1.6618 H   0  0  0  0  0  0  0  0  0  0  0  0
   -2.7482    1.2032    0.3878 C   0  0  0  0  0  0  0  0  0  0  0  0
   -3.0710    0.4708    1.5551 C   0  0  0  0  0  0  0  0  0  0  0  0
   -4.3671   -0.0543    1.6594 C   0  0  0  0  0  0  0  0  0  0  0  0
   -4.6340   -0.6234    2.5642 H   0  0  0  0  0  0  0  0  0  0  0  0
   -5.3241    0.1123    0.6408 C   0  0  0  0  0  0  0  0  0  0  0  0
   -4.9666    0.8657   -0.4921 C   0  0  0  0  0  0  0  0  0  0  0  0
   -5.7049    1.0129   -1.2964 H   0  0  0  0  0  0  0  0  0  0  0  0
   -3.6877    1.4262   -0.6482 C   0  0  0  0  0  0  0  0  0  0  0  0
   -2.0646    0.2576    2.6558 C   0  0  0  0  0  0  0  0  0  0  0  0
   -2.5592   -0.1082    3.5754 H   0  0  0  0  0  0  0  0  0  0  0  0
   -1.5147    1.1877    2.9025 H   0  0  0  0  0  0  0  0  0  0  0  0
   -1.3013   -0.4961    2.3637 H   0  0  0  0  0  0  0  0  0  0  0  0
   -6.6797   -0.5355    0.7506 C   0  0  0  0  0  0  0  0  0  0  0  0
   -7.4073   -0.0921    0.0438 H   0  0  0  0  0  0  0  0  0  0  0  0
   -7.0924   -0.4498    1.7758 H   0  0  0  0  0  0  0  0  0  0  0  0
   -6.6082   -1.6204    0.5203 H   0  0  0  0  0  0  0  0  0  0  0  0
   -3.3239    2.1960   -1.8904 C   0  0  0  0  0  0  0  0  0  0  0  0
   -4.1493    2.1663   -2.6259 H   0  0  0  0  0  0  0  0  0  0  0  0
   -2.4183    1.7702   -2.3728 H   0  0  0  0  0  0  0  0  0  0  0  0
   -3.0909    3.2556   -1.6616 H   0  0  0  0  0  0  0  0  0  0  0  0
  1  7  2  0  0  0  0
  2  7  2  0  0  0  0
  3  4  1  0  0  0  0
  4  9  1  0  0  0  0
  5  6  1  0  0  0  0
  6 29  1  0  0  0  0
  7  8  1  0  0  0  0
  8  3  2  0  0  0  0
  8  5  1  0  0  0  0
  9 10  1  0  0  0  0
 10 11  2  0  0  0  0
 10 17  1  0  0  0  0
 11 12  1  0  0  0  0
 13 21  1  0  0  0  0
 13 11  1  0  0  0  0
 14 13  2  0  0  0  0
 15 14  1  0  0  0  0
 16 14  1  0  0  0  0
 16  9  2  0  0  0  0
 17 18  1  0  0  0  0
 17 19  1  0  0  0  0
 20 17  1  0  0  0  0
 21 24  1  0  0  0  0
 22 21  1  0  0  0  0
 23 21  1  0  0  0  0
 25 28  1  0  0  0  0
 25 16  1  0  0  0  0
 26 25  1  0  0  0  0
 27 25  1  0  0  0  0
 29 30  1  0  0  0  0
 30 31  2  0  0  0  0
 30 37  1  0  0  0  0
 31 32  1  0  0  0  0
 33 41  1  0  0  0  0
 33 31  1  0  0  0  0
 34 33  2  0  0  0  0
 35 34  1  0  0  0  0
 36 34  1  0  0  0  0
 36 29  2  0  0  0  0
 37 39  1  0  0  0  0
 37 38  1  0  0  0  0
 40 37  1  0  0  0  0
 41 43  1  0  0  0  0
 42 41  1  0  0  0  0
 44 41  1  0  0  0  0
 45 48  1  0  0  0  0
 45 36  1  0  0  0  0
 46 45  1  0  0  0  0
 47 45  1  0  0  0  0
M  END
