1,3
q = 0.0, confidence = 0.988

 15 15  0  0  1  0  0  0  0  0999 V2000
    1.8148    0.8831   -0.7774 N   0  0  0  0  0  2  0  0  0  0  0  0
    2.0082    1.8642    0.1580 N   0  0  0  0  0  0  0  0  0  0  0  0
    1.7193    0.2049    1.6548 N   0  0  0  0  0  2  0  0  0  0  0  0
    1.6889   -0.1065    2.6326 H   0  0  0  0  0  0  0  0  0  0  0  0
    1.9011    1.4809   -1.9685 C   0  0  0  0  0  3  0  0  0  0  0  0
    1.7811    0.8962   -2.8884 H   0  0  0  0  0  0  0  0  0  0  0  0
    2.1554    2.8714   -1.8099 C   0  0  0  0  0  0  0  0  0  0  0  0
    2.2814    3.6172   -2.6013 H   0  0  0  0  0  0  0  0  0  0  0  0
    2.2192    3.0860   -0.4435 C   0  0  0  0  0  0  0  0  0  0  0  0
    2.3993    3.9925    0.1430 H   0  0  0  0  0  0  0  0  0  0  0  0
    1.9631    1.4675    1.4973 C   0  0  1  0  0  3  0  0  0  0  0  0
    2.1944    2.4925    2.5559 C   0  0  0  0  0  0  0  0  0  0  0  0
    2.1278    2.0343    3.5588 H   0  0  0  0  0  0  0  0  0  0  0  0
    1.4411    3.3043    2.4897 H   0  0  0  0  0  0  0  0  0  0  0  0
    3.1978    2.9528    2.4455 H   0  0  0  0  0  0  0  0  0  0  0  0
  1  2  1  0  0  0  0
  2 11  1  0  0  0  0
  3  4  1  0  0  0  0
  5  7  1  0  0  0  0
  5  1  1  0  0  0  0
  6  5  1  0  0  0  0
  7  9  2  0  0  0  0
  8  7  1  0  0  0  0
  9 10  1  0  0  0  0
  9  2  1  0  0  0  0
 11  3  1  6  0  0  0
 11 12  1  0  0  0  0
 12 13  1  0  0  0  0
 14 12  1  0  0  0  0
 15 12  1  0  0  0  0
M  END
