3,11
q = 0.0, confidence = 0.826

 22 23  0  0  0  0  0  0  0  0999 V2000
   -1.9659    3.0025   -0.0731 N   0  0  0  0  0  0  0  0  0  0  0  0
   -1.2787    1.8562   -0.0053 C   0  0  0  0  0  0  0  0  0  0  0  0
   -1.8575    0.6126    0.1255 N   0  0  0  0  0  2  0  0  0  0  0  0
   -3.1993    0.5327    0.2195 C   0  0  0  0  0  3  0  0  0  0  0  0
   -3.5983   -0.4928    0.3118 H   0  0  0  0  0  0  0  0  0  0  0  0
   -3.9743    1.6944    0.1738 C   0  0  0  0  0  0  0  0  0  0  0  0
   -5.0690    1.6433    0.2517 H   0  0  0  0  0  0  0  0  0  0  0  0
   -3.2970    2.9188    0.0121 C   0  0  0  0  0  0  0  0  0  0  0  0
   -3.8551    3.8693   -0.0509 H   0  0  0  0  0  0  0  0  0  0  0  0
    0.0994    1.9180   -0.0250 N   0  0  0  0  0  2  0  0  0  0  0  0
    0.6739    0.7639    0.0346 N   0  0  0  0  0  2  0  0  0  0  0  0
    2.0862    0.7968    0.0700 C   0  0  0  0  0  0  0  0  0  0  0  0
    2.7841    1.8455   -0.5769 C   0  0  0  0  0  0  0  0  0  0  0  0
    2.2084    2.6090   -1.1169 H   0  0  0  0  0  0  0  0  0  0  0  0
    4.1779    1.8679   -0.5354 C   0  0  0  0  0  0  0  0  0  0  0  0
    4.7259    2.6661   -1.0577 H   0  0  0  0  0  0  0  0  0  0  0  0
    4.8818    0.8687    0.1662 C   0  0  0  0  0  0  0  0  0  0  0  0
    5.9816    0.8934    0.1976 H   0  0  0  0  0  0  0  0  0  0  0  0
    4.1850   -0.1564    0.8237 C   0  0  0  0  0  0  0  0  0  0  0  0
    4.7333   -0.9296    1.3815 H   0  0  0  0  0  0  0  0  0  0  0  0
    2.7867   -0.2093    0.7735 C   0  0  0  0  0  0  0  0  0  0  0  0
    2.2275   -0.9990    1.2888 H   0  0  0  0  0  0  0  0  0  0  0  0
  1  2  2  0  0  0  0
  1  8  1  0  0  0  0
  2  3  1  0  0  0  0
  3  4  1  0  0  0  0
  4  5  1  0  0  0  0
  6  4  1  0  0  0  0
  6  7  1  0  0  0  0
  8  6  2  0  0  0  0
  9  8  1  0  0  0  0
 10  2  1  0  0  0  0
 10 11  1  0  0  0  0
 11 12  1  0  0  0  0
 12 21  1  0  0  0  0
 13 15  1  0  0  0  0
 13 12  2  0  0  0  0
 14 13  1  0  0  0  0
 15 17  2  0  0  0  0
 16 15  1  0  0  0  0
 17 18  1  0  0  0  0
 17 19  1  0  0  0  0
 19 20  1  0  0  0  0
 21 19  2  0  0  0  0
 21 22  1  0  0  0  0
M  END
