1,4
q = 0.0, confidence = 0.992

 18 17  0  0  0  0  0  0  0  0999 V2000
    1.9333    1.6302   -0.1312 N   0  0  0  0  0  0  0  0  0  0  0  0
    2.5076    1.8052   -0.9707 H   0  0  0  0  0  0  0  0  0  0  0  0
    1.2862    2.4392   -0.0570 H   0  0  0  0  0  0  0  0  0  0  0  0
    1.8399   -1.5158   -0.7177 N   0  0  0  0  0  0  0  0  0  0  0  0
    1.1839   -2.2197   -1.1040 H   0  0  0  0  0  0  0  0  0  0  0  0
    2.5355   -1.3420   -1.4569 H   0  0  0  0  0  0  0  0  0  0  0  0
    2.8079    1.5478    1.0658 C   0  0  0  0  0  0  0  0  0  0  0  0
    2.1545    1.6559    1.9548 H   0  0  0  0  0  0  0  0  0  0  0  0
    3.5083    2.4115    1.0649 H   0  0  0  0  0  0  0  0  0  0  0  0
    3.5986    0.2392    1.1669 C   0  0  0  0  0  0  0  0  0  0  0  0
    4.3945    0.4151    1.9190 H   0  0  0  0  0  0  0  0  0  0  0  0
    4.1461    0.0609    0.2130 H   0  0  0  0  0  0  0  0  0  0  0  0
    2.7746   -1.0027    1.5839 C   0  0  0  0  0  0  0  0  0  0  0  0
    3.2954   -1.5306    2.4100 H   0  0  0  0  0  0  0  0  0  0  0  0
    1.7959   -0.6715    1.9923 H   0  0  0  0  0  0  0  0  0  0  0  0
    2.5048   -2.0545    0.5078 C   0  0  0  0  0  0  0  0  0  0  0  0
    3.4468   -2.5659    0.2125 H   0  0  0  0  0  0  0  0  0  0  0  0
    1.8350   -2.8279    0.9315 H   0  0  0  0  0  0  0  0  0  0  0  0
  1  3  1  0  0  0  0
  1  7  1  0  0  0  0
  2  1  1  0  0  0  0
  4 16  1  0  0  0  0
  5  4  1  0  0  0  0
  6  4  1  0  0  0  0
  7 10  1  0  0  0  0
  7  8  1  0  0  0  0
  9  7  1  0  0  0  0
 10 13  1  0  0  0  0
 10 11  1  0  0  0  0
 12 10  1  0  0  0  0
 13 15  1  0  0  0  0
 13 14  1  0  0  0  0
 16 18  1  0  0  0  0
 16 13  1  0  0  0  0
 17 16  1  0  0  0  0
M  END
