2,4
q = 0.0, confidence = 1.0

 31 34  0  0  0  0  0  0  0  0999 V2000
   -1.2529    1.7253   -0.9816 N   0  0  0  0  0  0  0  0  0  0  0  0
   -1.5576   -0.1848    0.5146 N   0  0  0  0  0  2  0  0  0  0  0  0
    1.1670    1.7850   -0.9660 N   0  0  0  0  0  0  0  0  0  0  0  0
    1.5971   -0.1431    0.4757 N   0  0  0  0  0  2  0  0  0  0  0  0
   -1.9092    2.9408   -1.1504 C   0  0  0  0  0  0  0  0  0  0  0  0
   -1.5556    3.6441   -1.9132 H   0  0  0  0  0  0  0  0  0  0  0  0
   -2.9695    3.0451   -0.2726 C   0  0  0  0  0  0  0  0  0  0  0  0
   -3.6679    3.8853   -0.1984 H   0  0  0  0  0  0  0  0  0  0  0  0
   -2.9803    1.8364    0.5039 C   0  0  0  0  0  0  0  0  0  0  0  0
   -3.7764    1.3135    1.5403 C   0  0  0  0  0  0  0  0  0  0  0  0
   -4.6315    1.8779    1.9414 H   0  0  0  0  0  0  0  0  0  0  0  0
   -3.4396    0.0505    2.0394 C   0  0  0  0  0  0  0  0  0  0  0  0
   -4.0239   -0.4110    2.8480 H   0  0  0  0  0  0  0  0  0  0  0  0
   -2.3437   -0.6573    1.5090 C   0  0  0  0  0  3  0  0  0  0  0  0
   -2.0744   -1.6544    1.8855 H   0  0  0  0  0  0  0  0  0  0  0  0
   -1.8874    1.0309    0.0371 C   0  0  0  0  0  0  0  0  0  0  0  0
    1.7493    3.0412   -1.1066 C   0  0  0  0  0  0  0  0  0  0  0  0
    1.3486    3.7424   -1.8478 H   0  0  0  0  0  0  0  0  0  0  0  0
    2.8086    3.1846   -0.2333 C   0  0  0  0  0  0  0  0  0  0  0  0
    3.4567    4.0624   -0.1407 H   0  0  0  0  0  0  0  0  0  0  0  0
    2.8979    1.9579    0.5094 C   0  0  0  0  0  0  0  0  0  0  0  0
    3.7361    1.4534    1.5217 C   0  0  0  0  0  0  0  0  0  0  0  0
    4.5600    2.0565    1.9314 H   0  0  0  0  0  0  0  0  0  0  0  0
    3.4842    0.1568    1.9831 C   0  0  0  0  0  0  0  0  0  0  0  0
    4.1063   -0.2931    2.7697 H   0  0  0  0  0  0  0  0  0  0  0  0
    2.4261   -0.5996    1.4429 C   0  0  0  0  0  3  0  0  0  0  0  0
    2.2217   -1.6232    1.7886 H   0  0  0  0  0  0  0  0  0  0  0  0
    1.8495    1.1027    0.0295 C   0  0  0  0  0  0  0  0  0  0  0  0
   -0.0284    1.3388   -1.6565 C   0  0  0  0  0  0  0  0  0  0  0  0
   -0.0337    1.7675   -2.6759 H   0  0  0  0  0  0  0  0  0  0  0  0
    0.0005    0.2099   -1.6919 H   0  0  0  0  0  0  0  0  0  0  0  0
  1 16  1  0  0  0  0
  2 14  1  0  0  0  0
  3 28  1  0  0  0  0
  4 26  1  0  0  0  0
  5  1  1  0  0  0  0
  5  7  2  0  0  0  0
  6  5  1  0  0  0  0
  7  8  1  0  0  0  0
  7  9  1  0  0  0  0
  9 10  1  0  0  0  0
 10 11  1  0  0  0  0
 10 12  2  0  0  0  0
 12 13  1  0  0  0  0
 14 15  1  0  0  0  0
 14 12  1  0  0  0  0
 16  9  2  0  0  0  0
 16  2  1  0  0  0  0
 17  3  1  0  0  0  0
 17 19  2  0  0  0  0
 18 17  1  0  0  0  0
 19 20  1  0  0  0  0
 19 21  1  0  0  0  0
 21 22  1  0  0  0  0
 22 23  1  0  0  0  0
 22 24  2  0  0  0  0
 24 25  1  0  0  0  0
 26 27  1  0  0  0  0
 26 24  1  0  0  0  0
 28  4  1  0  0  0  0
 28 21  2  0  0  0  0
 29  1  1  0  0  0  0
 29  3  1  0  0  0  0
 30 29  1  0  0  0  0
 31 29  1  0  0  0  0
M  END
