1,4
q = 0.0, confidence = 0.996

 18 17  0  0  0  0  0  0  0  0999 V2000
    1.8953    0.4818    1.8166 N   0  0  0  0  0  0  0  0  0  0  0  0
    2.3790    1.2551    1.3086 H   0  0  0  0  0  0  0  0  0  0  0  0
    1.6271    0.8466    2.7377 H   0  0  0  0  0  0  0  0  0  0  0  0
    1.8069   -1.8801    0.0095 N   0  0  0  0  0  0  0  0  0  0  0  0
    2.8173   -0.6536    1.9486 C   0  0  0  0  0  0  0  0  0  0  0  0
    2.3983   -1.3786    2.6792 H   0  0  0  0  0  0  0  0  0  0  0  0
    3.8136   -0.3496    2.3422 H   0  0  0  0  0  0  0  0  0  0  0  0
    3.0380   -1.3269    0.5926 C   0  0  0  0  0  0  0  0  0  0  0  0
    3.8231   -2.1166    0.6943 H   0  0  0  0  0  0  0  0  0  0  0  0
    3.4305   -0.5633   -0.1099 H   0  0  0  0  0  0  0  0  0  0  0  0
    1.3621   -3.0979    0.6873 C   0  0  0  0  0  0  0  0  0  0  0  0
    2.0997   -3.9302    0.5753 H   0  0  0  0  0  0  0  0  0  0  0  0
    1.2127   -2.9137    1.7693 H   0  0  0  0  0  0  0  0  0  0  0  0
    0.3965   -3.4233    0.2516 H   0  0  0  0  0  0  0  0  0  0  0  0
    1.9511   -2.1222   -1.4328 C   0  0  0  0  0  0  0  0  0  0  0  0
    2.7368   -2.8872   -1.6423 H   0  0  0  0  0  0  0  0  0  0  0  0
    0.9818   -2.4724   -1.8387 H   0  0  0  0  0  0  0  0  0  0  0  0
    2.2071   -1.1746   -1.9447 H   0  0  0  0  0  0  0  0  0  0  0  0
  1  5  1  0  0  0  0
  1  3  1  0  0  0  0
  2  1  1  0  0  0  0
  4  8  1  0  0  0  0
  4 11  1  0  0  0  0
  5  7  1  0  0  0  0
  5  6  1  0  0  0  0
  8  9  1  0  0  0  0
  8  5  1  0  0  0  0
 10  8  1  0  0  0  0
 11 13  1  0  0  0  0
 12 11  1  0  0  0  0
 14 11  1  0  0  0  0
 15  4  1  0  0  0  0
 16 15  1  0  0  0  0
 17 15  1  0  0  0  0
 18 15  1  0  0  0  0
M  END
