1,4
q = 0.0, confidence = 0.976

 12 11  0  0  0  0  0  0  0  0999 V2000
    2.0620   -1.7402    0.8907 N   0  0  0  0  0  0  0  0  0  0  0  0
    3.0636   -1.5871    1.0767 H   0  0  0  0  0  0  0  0  0  0  0  0
    1.6086   -1.8590    1.8096 H   0  0  0  0  0  0  0  0  0  0  0  0
    0.9664   -1.2575   -1.5573 N   0  0  0  0  0  0  0  0  0  0  0  0
   -0.0158   -1.5783   -1.5648 H   0  0  0  0  0  0  0  0  0  0  0  0
    1.1085   -0.7549   -2.4447 H   0  0  0  0  0  0  0  0  0  0  0  0
    1.8284   -2.9041    0.0048 C   0  0  0  0  0  0  0  0  0  0  0  0
    0.8134   -3.2853    0.2301 H   0  0  0  0  0  0  0  0  0  0  0  0
    2.5511   -3.7273    0.1809 H   0  0  0  0  0  0  0  0  0  0  0  0
    1.8854   -2.4160   -1.4375 C   0  0  0  0  0  0  0  0  0  0  0  0
    2.9099   -2.0714   -1.6928 H   0  0  0  0  0  0  0  0  0  0  0  0
    1.6325   -3.2327   -2.1463 H   0  0  0  0  0  0  0  0  0  0  0  0
  1  2  1  0  0  0  0
  1  3  1  0  0  0  0
  4 10  1  0  0  0  0
  5  4  1  0  0  0  0
  6  4  1  0  0  0  0
  7  9  1  0  0  0  0
  7  8  1  0  0  0  0
  7  1  1  0  0  0  0
 10  7  1  0  0  0  0
 11 10  1  0  0  0  0
 12 10  1  0  0  0  0
M  END
