1,2
q = 0.0, confidence = 1.0

 23 23  0  0  0  0  0  0  0  0999 V2000
    1.5475   -1.1731   -0.2675 N   0  0  0  0  0  2  0  0  0  0  0  0
    1.0433    0.8718    1.1440 N   0  0  0  0  0  2  0  0  0  0  0  0
    1.7366   -2.2116   -1.1076 C   0  0  0  0  0  3  0  0  0  0  0  0
    2.9664   -2.8714   -1.2058 C   0  0  0  0  0  0  0  0  0  0  0  0
    4.0523   -2.4357   -0.4243 C   0  0  0  0  0  0  0  0  0  0  0  0
    3.8703   -1.3435    0.4277 C   0  0  0  0  0  0  0  0  0  0  0  0
    2.6062   -0.7279    0.4861 C   0  0  0  0  0  0  0  0  0  0  0  0
    2.2596    0.4087    1.3027 C   0  0  0  0  0  3  0  0  0  0  0  0
    0.5703    2.0296    1.9207 C   0  0  0  0  0  0  0  0  0  0  0  0
    0.8797    3.3163    1.1423 C   0  0  0  0  0  0  0  0  0  0  0  0
    1.1059    2.0735    3.3549 C   0  0  0  0  0  0  0  0  0  0  0  0
    0.8626   -2.4755   -1.7222 H   0  0  0  0  0  0  0  0  0  0  0  0
    3.0694   -3.7126   -1.9057 H   0  0  0  0  0  0  0  0  0  0  0  0
    5.0310   -2.9320   -0.4963 H   0  0  0  0  0  0  0  0  0  0  0  0
    4.6934   -0.9437    1.0369 H   0  0  0  0  0  0  0  0  0  0  0  0
    2.9800    0.8454    2.0127 H   0  0  0  0  0  0  0  0  0  0  0  0
   -0.5315    1.9089    1.9708 H   0  0  0  0  0  0  0  0  0  0  0  0
    1.9743    3.4463    1.0223 H   0  0  0  0  0  0  0  0  0  0  0  0
    0.4438    3.2776    0.1283 H   0  0  0  0  0  0  0  0  0  0  0  0
    0.4686    4.1943    1.6787 H   0  0  0  0  0  0  0  0  0  0  0  0
    0.5771    2.8654    3.9208 H   0  0  0  0  0  0  0  0  0  0  0  0
    0.9419    1.1093    3.8775 H   0  0  0  0  0  0  0  0  0  0  0  0
    2.1874    2.3156    3.3941 H   0  0  0  0  0  0  0  0  0  0  0  0
  1  7  1  0  0  0  0
  2  8  1  0  0  0  0
  2  9  1  0  0  0  0
  3  1  1  0  0  0  0
  4  3  1  0  0  0  0
  4  5  2  0  0  0  0
  5  6  1  0  0  0  0
  6  7  2  0  0  0  0
  6 15  1  0  0  0  0
  7  8  1  0  0  0  0
  8 16  1  0  0  0  0
  9 17  1  0  0  0  0
  9 11  1  0  0  0  0
 10 20  1  0  0  0  0
 10  9  1  0  0  0  0
 11 23  1  0  0  0  0
 11 22  1  0  0  0  0
 11 21  1  0  0  0  0
 12  3  1  0  0  0  0
 13  4  1  0  0  0  0
 14  5  1  0  0  0  0
 18 10  1  0  0  0  0
 19 10  1  0  0  0  0
M  END
