2,3
q = -1.0

 62 64  0  0  0  0  0  0  0  0999 V2000
   -2.5090   -0.6579   -2.0600 Si  0  0  0  0  0  0  0  0  0  0  0  0
   -0.0597    1.1203   -0.0454 N   0  0  0  0  0  2  0  0  0  0  0  0
    0.4333   -1.0963   -0.2229 N   0  0  0  0  0  2  0  0  0  0  0  0
   -1.8954   -0.4396   -0.3737 N   0  0  0  0  0  0  0  0  0  0  0  0
   -0.4982   -0.1350   -0.2127 C   0  0  0  0  0  3  0  0  0  0  0  0
    0.1102   -2.5076   -0.2822 C   0  0  0  0  0  0  0  0  0  0  0  0
   -0.8418   -2.6539   -0.8440 H   0  0  0  0  0  0  0  0  0  0  0  0
   -0.1084   -3.1296    1.1130 C   0  0  0  0  0  0  0  0  0  0  0  0
   -0.9239   -2.5873    1.6329 H   0  0  0  0  0  0  0  0  0  0  0  0
    0.8155   -2.9733    1.7124 H   0  0  0  0  0  0  0  0  0  0  0  0
   -0.4194   -4.6281    1.0231 C   0  0  0  0  0  0  0  0  0  0  0  0
   -0.5578   -5.0522    2.0396 H   0  0  0  0  0  0  0  0  0  0  0  0
   -1.3897   -4.7686    0.4947 H   0  0  0  0  0  0  0  0  0  0  0  0
    0.6810   -5.3835    0.2675 C   0  0  0  0  0  0  0  0  0  0  0  0
    1.6259   -5.3320    0.8544 H   0  0  0  0  0  0  0  0  0  0  0  0
    0.4268   -6.4606    0.1786 H   0  0  0  0  0  0  0  0  0  0  0  0
    0.9187   -4.7732   -1.1196 C   0  0  0  0  0  0  0  0  0  0  0  0
    0.0103   -4.9286   -1.7452 H   0  0  0  0  0  0  0  0  0  0  0  0
    1.7465   -5.2972   -1.6419 H   0  0  0  0  0  0  0  0  0  0  0  0
    1.2129   -3.2707   -1.0347 C   0  0  0  0  0  0  0  0  0  0  0  0
    2.1787   -3.1029   -0.5037 H   0  0  0  0  0  0  0  0  0  0  0  0
    1.3378   -2.8361   -2.0486 H   0  0  0  0  0  0  0  0  0  0  0  0
   -0.9372    2.2741   -0.0769 C   0  0  0  0  0  0  0  0  0  0  0  0
   -1.9990    1.9383   -0.1030 H   0  0  0  0  0  0  0  0  0  0  0  0
   -0.7641    3.1374    1.1868 C   0  0  0  0  0  0  0  0  0  0  0  0
    0.3012    3.4585    1.2497 H   0  0  0  0  0  0  0  0  0  0  0  0
   -0.9667    2.5156    2.0822 H   0  0  0  0  0  0  0  0  0  0  0  0
   -1.6771    4.3691    1.1650 C   0  0  0  0  0  0  0  0  0  0  0  0
   -2.7375    4.0319    1.1991 H   0  0  0  0  0  0  0  0  0  0  0  0
   -1.5170    4.9811    2.0773 H   0  0  0  0  0  0  0  0  0  0  0  0
   -1.4553    5.2136   -0.0961 C   0  0  0  0  0  0  0  0  0  0  0  0
   -2.1537    6.0764   -0.1155 H   0  0  0  0  0  0  0  0  0  0  0  0
   -0.4279    5.6424   -0.0715 H   0  0  0  0  0  0  0  0  0  0  0  0
   -1.6125    4.3666   -1.3655 C   0  0  0  0  0  0  0  0  0  0  0  0
   -1.4047    4.9758   -2.2702 H   0  0  0  0  0  0  0  0  0  0  0  0
   -2.6717    4.0329   -1.4517 H   0  0  0  0  0  0  0  0  0  0  0  0
   -0.6991    3.1353   -1.3335 C   0  0  0  0  0  0  0  0  0  0  0  0
   -0.8468    2.5120   -2.2405 H   0  0  0  0  0  0  0  0  0  0  0  0
    0.3669    3.4550   -1.3443 H   0  0  0  0  0  0  0  0  0  0  0  0
   -2.6940   -0.4103    0.7856 C   0  0  0  0  0  0  0  0  0  0  0  0
   -4.0944   -0.6231    0.7270 C   0  0  0  0  0  0  0  0  0  0  0  0
   -4.5843   -0.8118   -0.2370 H   0  0  0  0  0  0  0  0  0  0  0  0
   -4.8778   -0.6013    1.8884 C   0  0  0  0  0  0  0  0  0  0  0  0
   -5.9620   -0.7719    1.8016 H   0  0  0  0  0  0  0  0  0  0  0  0
   -4.3009   -0.3663    3.1457 C   0  0  0  0  0  0  0  0  0  0  0  0
   -4.9203   -0.3492    4.0542 H   0  0  0  0  0  0  0  0  0  0  0  0
   -2.9153   -0.1530    3.2167 C   0  0  0  0  0  0  0  0  0  0  0  0
   -2.4340    0.0345    4.1892 H   0  0  0  0  0  0  0  0  0  0  0  0
   -2.1221   -0.1734    2.0631 C   0  0  0  0  0  0  0  0  0  0  0  0
   -1.0417    0.0052    2.1434 H   0  0  0  0  0  0  0  0  0  0  0  0
   -3.3661   -2.3303   -2.2674 C   0  0  0  0  0  0  0  0  0  0  0  0
   -2.6717   -3.1592   -2.0218 H   0  0  0  0  0  0  0  0  0  0  0  0
   -3.6753   -2.4502   -3.3267 H   0  0  0  0  0  0  0  0  0  0  0  0
   -4.2676   -2.4487   -1.6360 H   0  0  0  0  0  0  0  0  0  0  0  0
   -3.6782    0.7586   -2.5048 C   0  0  0  0  0  0  0  0  0  0  0  0
   -4.0944    0.6008   -3.5214 H   0  0  0  0  0  0  0  0  0  0  0  0
   -3.1321    1.7234   -2.5066 H   0  0  0  0  0  0  0  0  0  0  0  0
   -4.5270    0.8535   -1.8001 H   0  0  0  0  0  0  0  0  0  0  0  0
   -1.0005   -0.5951   -3.1850 C   0  0  0  0  0  0  0  0  0  0  0  0
   -0.4087    0.3261   -3.0196 H   0  0  0  0  0  0  0  0  0  0  0  0
   -1.3390   -0.6042   -4.2412 H   0  0  0  0  0  0  0  0  0  0  0  0
   -0.3292   -1.4609   -3.0277 H   0  0  0  0  0  0  0  0  0  0  0  0
  1  4  1  0  0  0  0
  3  5  1  0  0  0  0
  4  5  1  0  0  0  0
  4 40  1  0  0  0  0
  5  2  1  0  0  0  0
  6  3  1  0  0  0  0
  6  8  1  0  0  0  0
  7  6  1  0  0  0  0
  8  9  1  0  0  0  0
  8 10  1  0  0  0  0
 11  8  1  0  0  0  0
 11 12  1  0  0  0  0
 13 11  1  0  0  0  0
 14 15  1  0  0  0  0
 14 11  1  0  0  0  0
 16 14  1  0  0  0  0
 17 20  1  0  0  0  0
 17 14  1  0  0  0  0
 18 17  1  0  0  0  0
 19 17  1  0  0  0  0
 20 21  1  0  0  0  0
 20  6  1  0  0  0  0
 22 20  1  0  0  0  0
 23  2  1  0  0  0  0
 23 25  1  0  0  0  0
 24 23  1  0  0  0  0
 25 26  1  0  0  0  0
 25 27  1  0  0  0  0
 28 25  1  0  0  0  0
 28 29  1  0  0  0  0
 28 30  1  0  0  0  0
 31 33  1  0  0  0  0
 31 28  1  0  0  0  0
 32 31  1  0  0  0  0
 34 37  1  0  0  0  0
 34 31  1  0  0  0  0
 35 34  1  0  0  0  0
 36 34  1  0  0  0  0
 37 23  1  0  0  0  0
 38 37  1  0  0  0  0
 39 37  1  0  0  0  0
 40 49  1  0  0  0  0
 41 40  2  0  0  0  0
 41 43  1  0  0  0  0
 42 41  1  0  0  0  0
 43 45  2  0  0  0  0
 44 43  1  0  0  0  0
 45 47  1  0  0  0  0
 45 46  1  0  0  0  0
 47 48  1  0  0  0  0
 49 50  1  0  0  0  0
 49 47  2  0  0  0  0
 51  1  1  0  0  0  0
 51 52  1  0  0  0  0
 51 54  1  0  0  0  0
 53 51  1  0  0  0  0
 55  1  1  0  0  0  0
 55 58  1  0  0  0  0
 56 55  1  0  0  0  0
 57 55  1  0  0  0  0
 59 62  1  0  0  0  0
 59 60  1  0  0  0  0
 59  1  1  0  0  0  0
 61 59  1  0  0  0  0
M  END
