1,39
q = -1.0

 72 73  0  0  1  0  0  0  0  0999 V2000
    1.5389   -1.6962    0.0001 N   0  0  0  0  0  2  0  0  0  0  0  0
    2.8764   -1.1985   -0.0000 C   0  0  0  0  0  0  0  0  0  0  0  0
    3.5121   -0.9059    1.2372 C   0  0  0  0  0  0  0  0  0  0  0  0
    2.7948   -1.1567    2.5592 C   0  0  0  0  0  0  0  0  0  0  0  0
    3.7034   -1.7698    3.6342 C   0  0  0  0  0  0  0  0  0  0  0  0
    2.1342    0.1399    3.0642 C   0  0  0  0  0  0  0  0  0  0  0  0
    4.7888   -0.3166    1.2111 C   0  0  0  0  0  0  0  0  0  0  0  0
    5.4270   -0.0236   -0.0003 C   0  0  0  0  0  0  0  0  0  0  0  0
    4.7886   -0.3165   -1.2115 C   0  0  0  0  0  0  0  0  0  0  0  0
    3.5118   -0.9058   -1.2374 C   0  0  0  0  0  0  0  0  0  0  0  0
    2.7942   -1.1565   -2.5592 C   0  0  0  0  0  0  0  0  0  0  0  0
    2.1333    0.1402   -3.0638 C   0  0  0  0  0  0  0  0  0  0  0  0
    3.7025   -1.7693   -3.6347 C   0  0  0  0  0  0  0  0  0  0  0  0
    1.2908   -3.0138   -0.0002 C   0  0  1  0  0  3  0  0  0  0  0  0
    2.4754   -3.9580   -0.0005 C   0  0  0  0  0  0  0  0  0  0  0  0
    0.0000   -3.5975   -0.0002 C   0  0  0  0  0  0  0  0  0  0  0  0
    5.2917   -0.0765   -2.1605 H   0  0  0  0  0  0  0  0  0  0  0  0
    1.9804   -1.8835   -2.3595 H   0  0  0  0  0  0  0  0  0  0  0  0
    4.1950   -2.6948    3.2707 H   0  0  0  0  0  0  0  0  0  0  0  0
    2.8973    0.9172   -3.2724 H   0  0  0  0  0  0  0  0  0  0  0  0
    1.5575   -0.0395    3.9952 H   0  0  0  0  0  0  0  0  0  0  0  0
    1.9809   -1.8836    2.3595 H   0  0  0  0  0  0  0  0  0  0  0  0
    4.1944   -2.6943   -3.2714 H   0  0  0  0  0  0  0  0  0  0  0  0
    4.5005   -1.0675   -3.9536 H   0  0  0  0  0  0  0  0  0  0  0  0
    3.1143   -2.0255   -4.5393 H   0  0  0  0  0  0  0  0  0  0  0  0
    2.8983    0.9169    3.2728 H   0  0  0  0  0  0  0  0  0  0  0  0
    3.1186   -3.7774   -0.8859 H   0  0  0  0  0  0  0  0  0  0  0  0
    2.1542   -5.0146    0.0000 H   0  0  0  0  0  0  0  0  0  0  0  0
    1.5564   -0.0391   -3.9947 H   0  0  0  0  0  0  0  0  0  0  0  0
    5.2921   -0.0765    2.1600 H   0  0  0  0  0  0  0  0  0  0  0  0
    1.4397    0.5692   -2.3116 H   0  0  0  0  0  0  0  0  0  0  0  0
    3.1155   -2.0260    4.5391 H   0  0  0  0  0  0  0  0  0  0  0  0
    3.1196   -3.7767    0.8840 H   0  0  0  0  0  0  0  0  0  0  0  0
    0.0000   -4.6950   -0.0004 H   0  0  0  0  0  0  0  0  0  0  0  0
    4.5016   -1.0682    3.9530 H   0  0  0  0  0  0  0  0  0  0  0  0
    1.4404    0.5692    2.3122 H   0  0  0  0  0  0  0  0  0  0  0  0
    6.4248    0.4404   -0.0004 H   0  0  0  0  0  0  0  0  0  0  0  0
   -1.2908   -3.0138   -0.0001 C   0  0  0  0  0  0  0  0  0  0  0  0
   -1.5389   -1.6962    0.0001 N   0  0  0  0  0  2  0  0  0  0  0  0
   -2.8764   -1.1985   -0.0000 C   0  0  0  0  0  0  0  0  0  0  0  0
   -3.5120   -0.9059    1.2373 C   0  0  0  0  0  0  0  0  0  0  0  0
   -2.7948   -1.1567    2.5592 C   0  0  0  0  0  0  0  0  0  0  0  0
   -3.7033   -1.7697    3.6343 C   0  0  0  0  0  0  0  0  0  0  0  0
   -4.1949   -2.6948    3.2708 H   0  0  0  0  0  0  0  0  0  0  0  0
   -3.1154   -2.0259    4.5391 H   0  0  0  0  0  0  0  0  0  0  0  0
   -4.5016   -1.0682    3.9530 H   0  0  0  0  0  0  0  0  0  0  0  0
   -2.1341    0.1400    3.0642 C   0  0  0  0  0  0  0  0  0  0  0  0
   -1.5575   -0.0394    3.9952 H   0  0  0  0  0  0  0  0  0  0  0  0
   -2.8983    0.9169    3.2728 H   0  0  0  0  0  0  0  0  0  0  0  0
   -1.4404    0.5692    2.3122 H   0  0  0  0  0  0  0  0  0  0  0  0
   -1.9809   -1.8835    2.3596 H   0  0  0  0  0  0  0  0  0  0  0  0
   -4.7888   -0.3166    1.2111 C   0  0  0  0  0  0  0  0  0  0  0  0
   -5.4270   -0.0236   -0.0002 C   0  0  0  0  0  0  0  0  0  0  0  0
   -4.7886   -0.3166   -1.2115 C   0  0  0  0  0  0  0  0  0  0  0  0
   -3.5118   -0.9059   -1.2374 C   0  0  0  0  0  0  0  0  0  0  0  0
   -2.7943   -1.1565   -2.5592 C   0  0  0  0  0  0  0  0  0  0  0  0
   -2.1333    0.1401   -3.0638 C   0  0  0  0  0  0  0  0  0  0  0  0
   -2.8973    0.9172   -3.2724 H   0  0  0  0  0  0  0  0  0  0  0  0
   -1.5565   -0.0392   -3.9947 H   0  0  0  0  0  0  0  0  0  0  0  0
   -1.4397    0.5691   -2.3116 H   0  0  0  0  0  0  0  0  0  0  0  0
   -3.7025   -1.7693   -3.6346 C   0  0  0  0  0  0  0  0  0  0  0  0
   -4.1945   -2.6943   -3.2714 H   0  0  0  0  0  0  0  0  0  0  0  0
   -4.5006   -1.0676   -3.9535 H   0  0  0  0  0  0  0  0  0  0  0  0
   -3.1144   -2.0255   -4.5393 H   0  0  0  0  0  0  0  0  0  0  0  0
   -1.9804   -1.8835   -2.3595 H   0  0  0  0  0  0  0  0  0  0  0  0
   -5.2917   -0.0766   -2.1605 H   0  0  0  0  0  0  0  0  0  0  0  0
   -6.4248    0.4404   -0.0003 H   0  0  0  0  0  0  0  0  0  0  0  0
   -5.2921   -0.0765    2.1600 H   0  0  0  0  0  0  0  0  0  0  0  0
   -2.4754   -3.9580   -0.0005 C   0  0  0  0  0  0  0  0  0  0  0  0
   -3.1186   -3.7774   -0.8858 H   0  0  0  0  0  0  0  0  0  0  0  0
   -2.1542   -5.0146    0.0001 H   0  0  0  0  0  0  0  0  0  0  0  0
   -3.1196   -3.7767    0.8840 H   0  0  0  0  0  0  0  0  0  0  0  0
  2  1  1  0  0  0  0
  2  3  1  0  0  0  0
  3  4  1  0  0  0  0
  4  6  1  0  0  0  0
  4  5  1  0  0  0  0
  5 35  1  0  0  0  0
  5 32  1  0  0  0  0
  6 26  1  0  0  0  0
  6 21  1  0  0  0  0
  7  3  2  0  0  0  0
  7 30  1  0  0  0  0
  8  7  1  0  0  0  0
  9  8  2  0  0  0  0
 10  9  1  0  0  0  0
 10  2  2  0  0  0  0
 11 18  1  0  0  0  0
 11 10  1  0  0  0  0
 12 11  1  0  0  0  0
 12 31  1  0  0  0  0
 13 23  1  0  0  0  0
 13 11  1  0  0  0  0
 14 16  1  1  0  0  0
 14  1  1  0  0  0  0
 15 14  1  0  0  0  0
 15 28  1  0  0  0  0
 15 33  1  0  0  0  0
 16 38  2  0  0  0  0
 17  9  1  0  0  0  0
 19  5  1  0  0  0  0
 20 12  1  0  0  0  0
 22  4  1  0  0  0  0
 24 13  1  0  0  0  0
 25 13  1  0  0  0  0
 27 15  1  0  0  0  0
 29 12  1  0  0  0  0
 34 16  1  0  0  0  0
 36  6  1  0  0  0  0
 37  8  1  0  0  0  0
 38 39  1  0  0  0  0
 40 39  1  0  0  0  0
 40 41  1  0  0  0  0
 41 42  1  0  0  0  0
 42 47  1  0  0  0  0
 42 43  1  0  0  0  0
 43 46  1  0  0  0  0
 43 45  1  0  0  0  0
 44 43  1  0  0  0  0
 47 49  1  0  0  0  0
 47 48  1  0  0  0  0
 50 47  1  0  0  0  0
 51 42  1  0  0  0  0
 52 41  2  0  0  0  0
 52 68  1  0  0  0  0
 53 52  1  0  0  0  0
 54 53  2  0  0  0  0
 55 54  1  0  0  0  0
 55 40  2  0  0  0  0
 56 65  1  0  0  0  0
 56 55  1  0  0  0  0
 57 56  1  0  0  0  0
 57 60  1  0  0  0  0
 58 57  1  0  0  0  0
 59 57  1  0  0  0  0
 61 62  1  0  0  0  0
 61 56  1  0  0  0  0
 63 61  1  0  0  0  0
 64 61  1  0  0  0  0
 66 54  1  0  0  0  0
 67 53  1  0  0  0  0
 69 38  1  0  0  0  0
 69 71  1  0  0  0  0
 69 72  1  0  0  0  0
 70 69  1  0  0  0  0
M  END
