2,3
q = 0.0, confidence = 0.99

 76 80  0  0  1  0  0  0  0  0999 V2000
    1.3654   -0.1323    1.0275 P   0  0  0  0  0  4  0  0  0  0  0  0
   -1.1847   -0.5539    1.6180 N   0  0  0  0  0  2  0  0  0  0  0  0
    0.5265    0.2631   -0.3241 N   0  0  0  0  0  2  0  0  0  0  0  0
    0.0247   -0.3834    2.2253 C   0  0  1  0  0  3  0  0  0  0  0  0
    0.2121   -0.4009    3.6105 C   0  0  0  0  0  0  0  0  0  0  0  0
    1.2259   -0.3315    4.0307 H   0  0  0  0  0  0  0  0  0  0  0  0
   -0.9218   -0.5043    4.4270 C   0  0  0  0  0  0  0  0  0  0  0  0
   -0.8310   -0.5182    5.5228 H   0  0  0  0  0  0  0  0  0  0  0  0
   -2.1754   -0.5767    3.8089 C   0  0  0  0  0  0  0  0  0  0  0  0
   -3.0931   -0.6263    4.4119 H   0  0  0  0  0  0  0  0  0  0  0  0
   -2.3020   -0.6166    2.4064 C   0  0  0  0  0  0  0  0  0  0  0  0
   -3.6639   -0.7206    1.7736 C   0  0  0  0  0  0  0  0  0  0  0  0
   -3.6779   -1.6376    1.1484 H   0  0  0  0  0  0  0  0  0  0  0  0
   -4.4012   -0.8570    2.5898 H   0  0  0  0  0  0  0  0  0  0  0  0
   -4.0625    0.4775    0.9298 C   0  0  0  0  0  0  0  0  0  0  0  0
   -4.3353    1.7201    1.5375 C   0  0  0  0  0  0  0  0  0  0  0  0
   -4.2245    1.8280    2.6291 H   0  0  0  0  0  0  0  0  0  0  0  0
   -4.7647    2.8118    0.7695 C   0  0  0  0  0  0  0  0  0  0  0  0
   -4.9860    3.7734    1.2578 H   0  0  0  0  0  0  0  0  0  0  0  0
   -4.9101    2.6772   -0.6219 C   0  0  0  0  0  0  0  0  0  0  0  0
   -5.2401    3.5351   -1.2274 H   0  0  0  0  0  0  0  0  0  0  0  0
   -4.6213    1.4501   -1.2354 C   0  0  0  0  0  0  0  0  0  0  0  0
   -4.7092    1.3377   -2.3262 H   0  0  0  0  0  0  0  0  0  0  0  0
   -4.2054    0.3530   -0.4643 C   0  0  0  0  0  0  0  0  0  0  0  0
   -3.9836   -0.6080   -0.9509 H   0  0  0  0  0  0  0  0  0  0  0  0
    0.9662    2.4736   -1.2630 C   0  0  0  0  0  0  0  0  0  0  0  0
    1.1543    1.0597   -1.3300 C   0  0  0  0  0  0  0  0  0  0  0  0
    1.9675    0.4819   -2.3473 C   0  0  0  0  0  0  0  0  0  0  0  0
    2.6113    1.3430   -3.2566 C   0  0  0  0  0  0  0  0  0  0  0  0
    3.2455    0.9096   -4.0452 H   0  0  0  0  0  0  0  0  0  0  0  0
    2.4543    2.7309   -3.1834 C   0  0  0  0  0  0  0  0  0  0  0  0
    2.9686    3.3840   -3.9052 H   0  0  0  0  0  0  0  0  0  0  0  0
    1.6300    3.2871   -2.1964 C   0  0  0  0  0  0  0  0  0  0  0  0
    1.5005    4.3781   -2.1510 H   0  0  0  0  0  0  0  0  0  0  0  0
    0.0224    3.0732   -0.2329 C   0  0  0  0  0  0  0  0  0  0  0  0
    0.0764    2.4247    0.6657 H   0  0  0  0  0  0  0  0  0  0  0  0
    0.3877    4.4965    0.2004 C   0  0  0  0  0  0  0  0  0  0  0  0
    1.4412    4.5656    0.5396 H   0  0  0  0  0  0  0  0  0  0  0  0
   -0.2657    4.8177    1.0371 H   0  0  0  0  0  0  0  0  0  0  0  0
    0.2419    5.2311   -0.6188 H   0  0  0  0  0  0  0  0  0  0  0  0
   -1.4245    2.9848   -0.7450 C   0  0  0  0  0  0  0  0  0  0  0  0
   -1.6930    1.9399   -0.9946 H   0  0  0  0  0  0  0  0  0  0  0  0
   -1.5542    3.5929   -1.6641 H   0  0  0  0  0  0  0  0  0  0  0  0
   -2.1395    3.3501    0.0184 H   0  0  0  0  0  0  0  0  0  0  0  0
    2.1727   -1.0220   -2.4765 C   0  0  0  0  0  0  0  0  0  0  0  0
    1.4645   -1.5003   -1.7716 H   0  0  0  0  0  0  0  0  0  0  0  0
    1.8263   -1.5353   -3.8837 C   0  0  0  0  0  0  0  0  0  0  0  0
    0.7914   -1.2544   -4.1548 H   0  0  0  0  0  0  0  0  0  0  0  0
    1.9018   -2.6416   -3.9136 H   0  0  0  0  0  0  0  0  0  0  0  0
    2.5216   -1.1337   -4.6503 H   0  0  0  0  0  0  0  0  0  0  0  0
    3.6072   -1.4339   -2.1013 C   0  0  0  0  0  0  0  0  0  0  0  0
    3.8851   -1.1146   -1.0779 H   0  0  0  0  0  0  0  0  0  0  0  0
    4.3443   -0.9929   -2.8046 H   0  0  0  0  0  0  0  0  0  0  0  0
    3.7199   -2.5368   -2.1391 H   0  0  0  0  0  0  0  0  0  0  0  0
    2.3228   -1.6885    1.0586 C   0  0  0  0  0  0  0  0  0  0  0  0
    1.6972   -2.8333    0.5186 C   0  0  0  0  0  0  0  0  0  0  0  0
    0.6774   -2.7672    0.0982 H   0  0  0  0  0  0  0  0  0  0  0  0
    2.3728   -4.0598    0.5311 C   0  0  0  0  0  0  0  0  0  0  0  0
    1.8819   -4.9482    0.1067 H   0  0  0  0  0  0  0  0  0  0  0  0
    3.6618   -4.1520    1.0833 C   0  0  0  0  0  0  0  0  0  0  0  0
    4.1909   -5.1171    1.0862 H   0  0  0  0  0  0  0  0  0  0  0  0
    4.2746   -3.0169    1.6379 C   0  0  0  0  0  0  0  0  0  0  0  0
    5.2809   -3.0907    2.0771 H   0  0  0  0  0  0  0  0  0  0  0  0
    3.6076   -1.7825    1.6313 C   0  0  0  0  0  0  0  0  0  0  0  0
    4.0899   -0.8942    2.0651 H   0  0  0  0  0  0  0  0  0  0  0  0
    2.4775    1.2126    1.5458 C   0  0  0  0  0  0  0  0  0  0  0  0
    3.6328    1.4474    0.7664 C   0  0  0  0  0  0  0  0  0  0  0  0
    3.9010    0.7616   -0.0506 H   0  0  0  0  0  0  0  0  0  0  0  0
    4.4269    2.5756    1.0123 C   0  0  0  0  0  0  0  0  0  0  0  0
    5.3170    2.7568    0.3920 H   0  0  0  0  0  0  0  0  0  0  0  0
    4.0800    3.4732    2.0340 C   0  0  0  0  0  0  0  0  0  0  0  0
    4.7051    4.3585    2.2249 H   0  0  0  0  0  0  0  0  0  0  0  0
    2.9266    3.2497    2.8029 C   0  0  0  0  0  0  0  0  0  0  0  0
    2.6432    3.9593    3.5944 H   0  0  0  0  0  0  0  0  0  0  0  0
    2.1191    2.1309    2.5549 C   0  0  0  0  0  0  0  0  0  0  0  0
    1.1980    1.9863    3.1374 H   0  0  0  0  0  0  0  0  0  0  0  0
  1 55  1  0  0  0  0
  1 66  1  0  0  0  0
  2  4  1  0  0  0  0
  2 11  1  0  0  0  0
  3  1  1  0  0  0  0
  4  1  1  6  0  0  0
  4  5  1  0  0  0  0
  5  6  1  0  0  0  0
  5  7  2  0  0  0  0
  7  8  1  0  0  0  0
  9 10  1  0  0  0  0
  9  7  1  0  0  0  0
 11  9  2  0  0  0  0
 12 11  1  0  0  0  0
 12 14  1  0  0  0  0
 13 12  1  0  0  0  0
 15 16  1  0  0  0  0
 15 12  1  0  0  0  0
 16 17  1  0  0  0  0
 18 19  1  0  0  0  0
 18 16  2  0  0  0  0
 20 18  1  0  0  0  0
 21 20  1  0  0  0  0
 22 20  2  0  0  0  0
 22 24  1  0  0  0  0
 23 22  1  0  0  0  0
 24 15  2  0  0  0  0
 25 24  1  0  0  0  0
 26 35  1  0  0  0  0
 27 26  1  0  0  0  0
 27  3  1  0  0  0  0
 28 27  2  0  0  0  0
 29 31  2  0  0  0  0
 29 28  1  0  0  0  0
 30 29  1  0  0  0  0
 31 33  1  0  0  0  0
 32 31  1  0  0  0  0
 33 34  1  0  0  0  0
 33 26  2  0  0  0  0
 35 37  1  0  0  0  0
 35 36  1  0  0  0  0
 37 38  1  0  0  0  0
 37 39  1  0  0  0  0
 40 37  1  0  0  0  0
 41 35  1  0  0  0  0
 41 44  1  0  0  0  0
 42 41  1  0  0  0  0
 43 41  1  0  0  0  0
 45 28  1  0  0  0  0
 45 51  1  0  0  0  0
 45 46  1  0  0  0  0
 47 45  1  0  0  0  0
 48 47  1  0  0  0  0
 49 47  1  0  0  0  0
 50 47  1  0  0  0  0
 51 52  1  0  0  0  0
 53 51  1  0  0  0  0
 54 51  1  0  0  0  0
 55 64  1  0  0  0  0
 56 58  1  0  0  0  0
 56 55  2  0  0  0  0
 57 56  1  0  0  0  0
 58 60  2  0  0  0  0
 59 58  1  0  0  0  0
 60 61  1  0  0  0  0
 60 62  1  0  0  0  0
 62 63  1  0  0  0  0
 64 62  2  0  0  0  0
 64 65  1  0  0  0  0
 66 75  1  0  0  0  0
 67 69  1  0  0  0  0
 67 66  2  0  0  0  0
 68 67  1  0  0  0  0
 69 71  2  0  0  0  0
 70 69  1  0  0  0  0
 71 72  1  0  0  0  0
 71 73  1  0  0  0  0
 73 74  1  0  0  0  0
 75 73  2  0  0  0  0
 75 76  1  0  0  0  0
M  END
