1,21
q = 0.0, confidence = 0.962

 40 41  0  0  0  0  0  0  0  0999 V2000
   -1.3044   -0.9606   -0.3184 N   0  0  0  0  0  2  0  0  0  0  0  0
   -0.7110   -2.1418   -0.2381 C   0  0  0  0  0  0  0  0  0  0  0  0
   -2.7690   -0.8927   -0.1910 C   0  0  0  0  0  0  0  0  0  0  0  0
   -3.2345   -1.2259    1.2397 C   0  0  0  0  0  0  0  0  0  0  0  0
   -4.7508   -1.0425    1.3682 C   0  0  0  0  0  0  0  0  0  0  0  0
   -5.5136   -1.8701    0.3253 C   0  0  0  0  0  0  0  0  0  0  0  0
   -5.0287   -1.5624   -1.0980 C   0  0  0  0  0  0  0  0  0  0  0  0
   -3.5120   -1.7532   -1.2297 C   0  0  0  0  0  0  0  0  0  0  0  0
   -3.0376    0.1665   -0.3825 H   0  0  0  0  0  0  0  0  0  0  0  0
   -2.9590   -2.2794    1.4702 H   0  0  0  0  0  0  0  0  0  0  0  0
   -2.6811   -0.5865    1.9567 H   0  0  0  0  0  0  0  0  0  0  0  0
   -5.0767   -1.3105    2.3945 H   0  0  0  0  0  0  0  0  0  0  0  0
   -4.9975    0.0349    1.2368 H   0  0  0  0  0  0  0  0  0  0  0  0
   -5.3602   -2.9529    0.5350 H   0  0  0  0  0  0  0  0  0  0  0  0
   -6.6055   -1.6885    0.4071 H   0  0  0  0  0  0  0  0  0  0  0  0
   -5.5562   -2.1990   -1.8385 H   0  0  0  0  0  0  0  0  0  0  0  0
   -5.2849   -0.5097   -1.3535 H   0  0  0  0  0  0  0  0  0  0  0  0
   -3.2622   -2.8260   -1.0741 H   0  0  0  0  0  0  0  0  0  0  0  0
   -3.1638   -1.4913   -2.2513 H   0  0  0  0  0  0  0  0  0  0  0  0
   -1.2806   -3.0813   -0.1364 H   0  0  0  0  0  0  0  0  0  0  0  0
    1.3044   -0.9606   -0.3184 N   0  0  0  0  0  2  0  0  0  0  0  0
    0.7110   -2.1418   -0.2381 C   0  0  0  0  0  0  0  0  0  0  0  0
    2.7690   -0.8927   -0.1911 C   0  0  0  0  0  0  0  0  0  0  0  0
    1.2806   -3.0813   -0.1365 H   0  0  0  0  0  0  0  0  0  0  0  0
    3.2345   -1.2258    1.2397 C   0  0  0  0  0  0  0  0  0  0  0  0
    3.5120   -1.7532   -1.2297 C   0  0  0  0  0  0  0  0  0  0  0  0
    3.0376    0.1665   -0.3826 H   0  0  0  0  0  0  0  0  0  0  0  0
    4.7508   -1.0424    1.3681 C   0  0  0  0  0  0  0  0  0  0  0  0
    2.9590   -2.2793    1.4702 H   0  0  0  0  0  0  0  0  0  0  0  0
    2.6811   -0.5864    1.9567 H   0  0  0  0  0  0  0  0  0  0  0  0
    5.0287   -1.5624   -1.0981 C   0  0  0  0  0  0  0  0  0  0  0  0
    3.2622   -2.8260   -1.0741 H   0  0  0  0  0  0  0  0  0  0  0  0
    3.1638   -1.4914   -2.2514 H   0  0  0  0  0  0  0  0  0  0  0  0
    5.5136   -1.8701    0.3252 C   0  0  0  0  0  0  0  0  0  0  0  0
    5.0767   -1.3104    2.3945 H   0  0  0  0  0  0  0  0  0  0  0  0
    4.9975    0.0349    1.2367 H   0  0  0  0  0  0  0  0  0  0  0  0
    5.5562   -2.1991   -1.8385 H   0  0  0  0  0  0  0  0  0  0  0  0
    5.2849   -0.5098   -1.3536 H   0  0  0  0  0  0  0  0  0  0  0  0
    5.3602   -2.9529    0.5350 H   0  0  0  0  0  0  0  0  0  0  0  0
    6.6055   -1.6885    0.4071 H   0  0  0  0  0  0  0  0  0  0  0  0
  1  2  1  0  0  0  0
  1  3  1  0  0  0  0
  2 20  1  0  0  0  0
  3  4  1  0  0  0  0
  4  5  1  0  0  0  0
  4 10  1  0  0  0  0
  4 11  1  0  0  0  0
  5 12  1  0  0  0  0
  6 15  1  0  0  0  0
  6 14  1  0  0  0  0
  6  5  1  0  0  0  0
  7  6  1  0  0  0  0
  8  7  1  0  0  0  0
  8 18  1  0  0  0  0
  8  3  1  0  0  0  0
  9  3  1  0  0  0  0
 13  5  1  0  0  0  0
 16  7  1  0  0  0  0
 17  7  1  0  0  0  0
 19  8  1  0  0  0  0
 21 22  1  0  0  0  0
 21 23  1  0  0  0  0
 22  2  2  0  0  0  0
 22 24  1  0  0  0  0
 23 25  1  0  0  0  0
 25 28  1  0  0  0  0
 25 29  1  0  0  0  0
 25 30  1  0  0  0  0
 26 31  1  0  0  0  0
 26 32  1  0  0  0  0
 26 23  1  0  0  0  0
 27 23  1  0  0  0  0
 28 35  1  0  0  0  0
 31 34  1  0  0  0  0
 33 26  1  0  0  0  0
 34 40  1  0  0  0  0
 34 39  1  0  0  0  0
 34 28  1  0  0  0  0
 36 28  1  0  0  0  0
 37 31  1  0  0  0  0
 38 31  1  0  0  0  0
M  END
