1,2
q = -1.0

 40 39  0  0  1  0  0  0  0  0999 V2000
   -0.3752    1.7310   -0.8386 N   0  0  0  0  0  2  0  0  0  0  0  0
   -1.8192   -0.5955   -0.5663 N   0  0  0  0  0  2  0  0  0  0  0  0
   -1.0816    3.1960   -2.7404 C   0  0  0  0  0  0  0  0  0  0  0  0
   -0.0874    3.6881   -2.7699 H   0  0  0  0  0  0  0  0  0  0  0  0
   -1.7884    3.9144   -2.2699 H   0  0  0  0  0  0  0  0  0  0  0  0
   -1.4239    3.0444   -3.7815 H   0  0  0  0  0  0  0  0  0  0  0  0
   -1.0391    1.8698   -2.0083 C   0  0  2  0  0  3  0  0  0  0  0  0
   -1.7838    0.7963   -2.5434 C   0  0  0  0  0  0  0  0  0  0  0  0
   -2.1998    0.9361   -3.5520 H   0  0  0  0  0  0  0  0  0  0  0  0
   -2.2840   -0.3049   -1.8032 C   0  0  0  0  0  0  0  0  0  0  0  0
   -3.3970   -1.1127   -2.4462 C   0  0  0  0  0  0  0  0  0  0  0  0
   -3.2159   -2.2047   -2.3577 H   0  0  0  0  0  0  0  0  0  0  0  0
   -3.4703   -0.8653   -3.5215 H   0  0  0  0  0  0  0  0  0  0  0  0
   -4.3899   -0.9132   -1.9932 H   0  0  0  0  0  0  0  0  0  0  0  0
   -0.1796    2.9094    0.0085 C   0  0  0  0  0  0  0  0  0  0  0  0
   -0.4062    3.8608   -0.5179 H   0  0  0  0  0  0  0  0  0  0  0  0
    0.8795    2.9674    0.3409 H   0  0  0  0  0  0  0  0  0  0  0  0
   -1.0636    2.8087    1.2697 C   0  0  0  0  0  0  0  0  0  0  0  0
   -2.1188    2.7210    0.9238 H   0  0  0  0  0  0  0  0  0  0  0  0
   -0.9308    4.0701    2.1294 C   0  0  0  0  0  0  0  0  0  0  0  0
   -1.2087    4.9823    1.5627 H   0  0  0  0  0  0  0  0  0  0  0  0
    0.1150    4.1991    2.4819 H   0  0  0  0  0  0  0  0  0  0  0  0
   -1.5802    4.0182    3.0269 H   0  0  0  0  0  0  0  0  0  0  0  0
   -0.7180    1.5572    2.0817 C   0  0  0  0  0  0  0  0  0  0  0  0
   -1.3668    1.4752    2.9798 H   0  0  0  0  0  0  0  0  0  0  0  0
    0.3310    1.5576    2.4266 H   0  0  0  0  0  0  0  0  0  0  0  0
   -0.9502    0.5852    1.5466 H   0  0  0  0  0  0  0  0  0  0  0  0
   -2.6865   -1.3564    0.3347 C   0  0  0  0  0  0  0  0  0  0  0  0
   -2.0359   -1.9463    1.0124 H   0  0  0  0  0  0  0  0  0  0  0  0
   -3.3275   -2.0809   -0.2171 H   0  0  0  0  0  0  0  0  0  0  0  0
   -3.5996   -0.4902    1.2372 C   0  0  0  0  0  0  0  0  0  0  0  0
   -2.9281    0.1304    1.8657 H   0  0  0  0  0  0  0  0  0  0  0  0
   -4.4023   -1.4006    2.1733 C   0  0  0  0  0  0  0  0  0  0  0  0
   -3.7382   -2.0607    2.7687 H   0  0  0  0  0  0  0  0  0  0  0  0
   -5.0943   -2.0527    1.5981 H   0  0  0  0  0  0  0  0  0  0  0  0
   -5.0160   -0.8093    2.8832 H   0  0  0  0  0  0  0  0  0  0  0  0
   -4.5118    0.4657    0.4635 C   0  0  0  0  0  0  0  0  0  0  0  0
   -3.9349    1.1004   -0.2386 H   0  0  0  0  0  0  0  0  0  0  0  0
   -5.0571    1.1363    1.1590 H   0  0  0  0  0  0  0  0  0  0  0  0
   -5.2757   -0.0889   -0.1223 H   0  0  0  0  0  0  0  0  0  0  0  0
  1 15  1  0  0  0  0
  2 28  1  0  0  0  0
  3  5  1  0  0  0  0
  3  7  1  0  0  0  0
  4  3  1  0  0  0  0
  6  3  1  0  0  0  0
  7  8  1  1  0  0  0
  7  1  1  0  0  0  0
  8 10  2  0  0  0  0
  9  8  1  0  0  0  0
 10  2  1  0  0  0  0
 11 12  1  0  0  0  0
 11 14  1  0  0  0  0
 11 10  1  0  0  0  0
 13 11  1  0  0  0  0
 15 17  1  0  0  0  0
 15 18  1  0  0  0  0
 16 15  1  0  0  0  0
 18 24  1  0  0  0  0
 18 20  1  0  0  0  0
 19 18  1  0  0  0  0
 20 22  1  0  0  0  0
 20 23  1  0  0  0  0
 21 20  1  0  0  0  0
 24 26  1  0  0  0  0
 24 25  1  0  0  0  0
 27 24  1  0  0  0  0
 28 29  1  0  0  0  0
 28 31  1  0  0  0  0
 30 28  1  0  0  0  0
 31 32  1  0  0  0  0
 31 33  1  0  0  0  0
 33 34  1  0  0  0  0
 33 36  1  0  0  0  0
 35 33  1  0  0  0  0
 37 39  1  0  0  0  0
 37 31  1  0  0  0  0
 38 37  1  0  0  0  0
 40 37  1  0  0  0  0
M  END
