2,3
q = 0.0, confidence = 1.0

 27 27  0  0  0  0  0  0  0  0999 V2000
    4.5293    0.8800    0.1561 S   0  0  0  0  0  0  0  0  0  0  0  0
   -0.9302    1.5924    0.3959 N   0  0  0  0  0  2  0  0  0  0  0  0
    1.0112    0.1414   -0.6643 N   0  0  0  0  0  2  0  0  0  0  0  0
   -1.9398    2.2984    0.9456 C   0  0  0  0  0  3  0  0  0  0  0  0
   -2.7210    1.7132    1.4516 H   0  0  0  0  0  0  0  0  0  0  0  0
   -2.0047    3.6942    0.8748 C   0  0  0  0  0  0  0  0  0  0  0  0
   -2.8521    4.2186    1.3381 H   0  0  0  0  0  0  0  0  0  0  0  0
   -0.9866    4.3964    0.2084 C   0  0  0  0  0  0  0  0  0  0  0  0
   -1.0139    5.4935    0.1376 H   0  0  0  0  0  0  0  0  0  0  0  0
    0.0611    3.6716   -0.3666 C   0  0  0  0  0  0  0  0  0  0  0  0
    0.8808    4.1722   -0.9017 H   0  0  0  0  0  0  0  0  0  0  0  0
    0.0625    2.2687   -0.2629 C   0  0  0  0  0  0  0  0  0  0  0  0
    1.1057    1.4301   -0.8245 C   0  0  0  0  0  3  0  0  0  0  0  0
    1.9686    1.8824   -1.3453 H   0  0  0  0  0  0  0  0  0  0  0  0
    2.0547   -0.7200   -1.2123 C   0  0  0  0  0  0  0  0  0  0  0  0
    2.7394   -0.1176   -1.8466 H   0  0  0  0  0  0  0  0  0  0  0  0
    1.5530   -1.4750   -1.8517 H   0  0  0  0  0  0  0  0  0  0  0  0
    2.8571   -1.4194   -0.1084 C   0  0  0  0  0  0  0  0  0  0  0  0
    2.1958   -2.1075    0.4584 H   0  0  0  0  0  0  0  0  0  0  0  0
    3.6148   -2.0605   -0.6058 H   0  0  0  0  0  0  0  0  0  0  0  0
    3.5262   -0.4676    0.8868 C   0  0  0  0  0  0  0  0  0  0  0  0
    4.1537   -1.0382    1.6028 H   0  0  0  0  0  0  0  0  0  0  0  0
    2.7623    0.0612    1.4929 H   0  0  0  0  0  0  0  0  0  0  0  0
    5.8171   -0.0819   -0.6965 C   0  0  0  0  0  0  0  0  0  0  0  0
    6.3489   -0.7499    0.0113 H   0  0  0  0  0  0  0  0  0  0  0  0
    6.5417    0.6493   -1.1034 H   0  0  0  0  0  0  0  0  0  0  0  0
    5.4136   -0.6802   -1.5383 H   0  0  0  0  0  0  0  0  0  0  0  0
  1 21  1  0  0  0  0
  2  4  1  0  0  0  0
  4  5  1  0  0  0  0
  6  4  1  0  0  0  0
  6  7  1  0  0  0  0
  8  6  2  0  0  0  0
  9  8  1  0  0  0  0
 10 12  2  0  0  0  0
 10  8  1  0  0  0  0
 11 10  1  0  0  0  0
 12  2  1  0  0  0  0
 13  3  1  0  0  0  0
 13 12  1  0  0  0  0
 14 13  1  0  0  0  0
 15  3  1  0  0  0  0
 15 18  1  0  0  0  0
 16 15  1  0  0  0  0
 17 15  1  0  0  0  0
 18 19  1  0  0  0  0
 18 21  1  0  0  0  0
 20 18  1  0  0  0  0
 21 23  1  0  0  0  0
 21 22  1  0  0  0  0
 24 25  1  0  0  0  0
 24  1  1  0  0  0  0
 26 24  1  0  0  0  0
 27 24  1  0  0  0  0
M  END
