2,3
q = 0.0, confidence = 1.0

 24 24  0  0  0  0  0  0  0  0999 V2000
    3.3868    1.8192   -0.3955 O   0  0  0  0  0  0  0  0  0  0  0  0
   -1.2553    1.1925    0.4062 N   0  0  0  0  0  2  0  0  0  0  0  0
    0.8717    0.7442   -1.1026 N   0  0  0  0  0  2  0  0  0  0  0  0
   -2.3406    1.3806    1.1848 C   0  0  0  0  0  3  0  0  0  0  0  0
   -2.5758    0.5722    1.8919 H   0  0  0  0  0  0  0  0  0  0  0  0
   -3.1343    2.5299    1.1008 C   0  0  0  0  0  0  0  0  0  0  0  0
   -4.0092    2.6301    1.7581 H   0  0  0  0  0  0  0  0  0  0  0  0
   -2.7983    3.5302    0.1734 C   0  0  0  0  0  0  0  0  0  0  0  0
   -3.4060    4.4425    0.0856 H   0  0  0  0  0  0  0  0  0  0  0  0
   -1.6767    3.3407   -0.6391 C   0  0  0  0  0  0  0  0  0  0  0  0
   -1.3736    4.0914   -1.3830 H   0  0  0  0  0  0  0  0  0  0  0  0
   -0.9245    2.1595   -0.5056 C   0  0  0  0  0  0  0  0  0  0  0  0
    0.2567    1.8728   -1.2986 C   0  0  0  0  0  3  0  0  0  0  0  0
    0.6219    2.6103   -2.0358 H   0  0  0  0  0  0  0  0  0  0  0  0
    2.0916    0.4628   -1.8484 C   0  0  0  0  0  0  0  0  0  0  0  0
    2.2190    1.2006   -2.6697 H   0  0  0  0  0  0  0  0  0  0  0  0
    2.0043   -0.5509   -2.2890 H   0  0  0  0  0  0  0  0  0  0  0  0
    3.3080    0.5194   -0.9287 C   0  0  0  0  0  0  0  0  0  0  0  0
    3.2073   -0.2464   -0.1231 H   0  0  0  0  0  0  0  0  0  0  0  0
    4.2189    0.2572   -1.5239 H   0  0  0  0  0  0  0  0  0  0  0  0
    4.3489    1.9417    0.6314 C   0  0  0  0  0  0  0  0  0  0  0  0
    5.3764    1.6883    0.2742 H   0  0  0  0  0  0  0  0  0  0  0  0
    4.1060    1.2898    1.5027 H   0  0  0  0  0  0  0  0  0  0  0  0
    4.3436    2.9969    0.9662 H   0  0  0  0  0  0  0  0  0  0  0  0
  1 21  1  0  0  0  0
  2  4  1  0  0  0  0
  4  5  1  0  0  0  0
  6  4  1  0  0  0  0
  6  7  1  0  0  0  0
  8  6  2  0  0  0  0
  9  8  1  0  0  0  0
 10 12  2  0  0  0  0
 10  8  1  0  0  0  0
 11 10  1  0  0  0  0
 12  2  1  0  0  0  0
 13  3  1  0  0  0  0
 13 12  1  0  0  0  0
 14 13  1  0  0  0  0
 15  3  1  0  0  0  0
 15 18  1  0  0  0  0
 16 15  1  0  0  0  0
 17 15  1  0  0  0  0
 18  1  1  0  0  0  0
 18 19  1  0  0  0  0
 20 18  1  0  0  0  0
 21 24  1  0  0  0  0
 21 23  1  0  0  0  0
 22 21  1  0  0  0  0
M  END
