2,3
q = 0.0, confidence = 1.0

 29 29  0  0  0  0  0  0  0  0999 V2000
   -6.2603   -0.0711   -0.5824 S   0  0  0  0  0  0  0  0  0  0  0  0
    1.5124    1.5059    0.2912 N   0  0  0  0  0  2  0  0  0  0  0  0
   -0.9246    0.3397   -0.1261 N   0  0  0  0  0  0  0  0  0  0  0  0
   -0.8098    0.4124   -1.1598 H   0  0  0  0  0  0  0  0  0  0  0  0
    2.7543    2.0232    0.1541 C   0  0  0  0  0  3  0  0  0  0  0  0
    3.5811    1.2991    0.1472 H   0  0  0  0  0  0  0  0  0  0  0  0
    2.9810    3.3957    0.0227 C   0  0  0  0  0  0  0  0  0  0  0  0
    4.0097    3.7675   -0.0823 H   0  0  0  0  0  0  0  0  0  0  0  0
    1.8823    4.2664    0.0142 C   0  0  0  0  0  0  0  0  0  0  0  0
    2.0244    5.3513   -0.0984 H   0  0  0  0  0  0  0  0  0  0  0  0
    0.5952    3.7273    0.1381 C   0  0  0  0  0  0  0  0  0  0  0  0
   -0.2949    4.3727    0.1201 H   0  0  0  0  0  0  0  0  0  0  0  0
    0.4415    2.3417    0.2820 C   0  0  0  0  0  0  0  0  0  0  0  0
   -0.9066    1.6915    0.4660 C   0  0  0  0  0  0  0  0  0  0  0  0
   -1.7007    2.3496    0.0540 H   0  0  0  0  0  0  0  0  0  0  0  0
   -1.1051    1.5778    1.5559 H   0  0  0  0  0  0  0  0  0  0  0  0
   -2.1432   -0.4430    0.1818 C   0  0  0  0  0  0  0  0  0  0  0  0
   -2.1509   -0.6322    1.2763 H   0  0  0  0  0  0  0  0  0  0  0  0
   -2.0137   -1.4293   -0.3065 H   0  0  0  0  0  0  0  0  0  0  0  0
   -3.4589    0.1960   -0.2741 C   0  0  0  0  0  0  0  0  0  0  0  0
   -3.3985    0.4625   -1.3514 H   0  0  0  0  0  0  0  0  0  0  0  0
   -3.6412    1.1427    0.2777 H   0  0  0  0  0  0  0  0  0  0  0  0
   -4.6453   -0.7474   -0.0614 C   0  0  0  0  0  0  0  0  0  0  0  0
   -4.7159   -1.0692    1.0008 H   0  0  0  0  0  0  0  0  0  0  0  0
   -4.5174   -1.6713   -0.6634 H   0  0  0  0  0  0  0  0  0  0  0  0
   -6.5635    1.1177    0.7611 C   0  0  0  0  0  0  0  0  0  0  0  0
   -6.5913    0.6127    1.7485 H   0  0  0  0  0  0  0  0  0  0  0  0
   -7.5570    1.5656    0.5669 H   0  0  0  0  0  0  0  0  0  0  0  0
   -5.8143    1.9352    0.7826 H   0  0  0  0  0  0  0  0  0  0  0  0
  1 23  1  0  0  0  0
  1 26  1  0  0  0  0
  3 17  1  0  0  0  0
  3 14  1  0  0  0  0
  4  3  1  0  0  0  0
  5  2  1  0  0  0  0
  6  5  1  0  0  0  0
  7  5  1  0  0  0  0
  8  7  1  0  0  0  0
  9  7  2  0  0  0  0
  9 11  1  0  0  0  0
 10  9  1  0  0  0  0
 11 13  2  0  0  0  0
 12 11  1  0  0  0  0
 13  2  1  0  0  0  0
 13 14  1  0  0  0  0
 14 16  1  0  0  0  0
 15 14  1  0  0  0  0
 17 18  1  0  0  0  0
 19 17  1  0  0  0  0
 20 23  1  0  0  0  0
 20 17  1  0  0  0  0
 20 22  1  0  0  0  0
 21 20  1  0  0  0  0
 23 24  1  0  0  0  0
 25 23  1  0  0  0  0
 26 29  1  0  0  0  0
 26 27  1  0  0  0  0
 28 26  1  0  0  0  0
M  END
