48,49
q = 0.0, confidence = 0.994

 51 52  0  0  1  0  0  0  0  0999 V2000
   -5.8308   -2.8803    1.5596 C   0  0  0  0  0  0  0  0  0  0  0  0
   -5.5348   -3.6926    2.2549 H   0  0  0  0  0  0  0  0  0  0  0  0
   -6.4178   -3.3392    0.7403 H   0  0  0  0  0  0  0  0  0  0  0  0
   -6.5078   -2.1987    2.1152 H   0  0  0  0  0  0  0  0  0  0  0  0
   -4.6074   -2.1375    1.0222 C   0  0  0  0  0  0  0  0  0  0  0  0
   -3.9606   -2.8337    0.4444 H   0  0  0  0  0  0  0  0  0  0  0  0
   -4.9414   -1.3686    0.2899 H   0  0  0  0  0  0  0  0  0  0  0  0
   -3.7726   -1.4849    2.1317 C   0  0  0  0  0  0  0  0  0  0  0  0
   -3.5143   -2.2530    2.8913 H   0  0  0  0  0  0  0  0  0  0  0  0
   -4.3928   -0.7375    2.6779 H   0  0  0  0  0  0  0  0  0  0  0  0
   -2.4624   -0.8422    1.6568 C   0  0  0  0  0  0  0  0  0  0  0  0
   -1.8528   -1.6065    1.1292 H   0  0  0  0  0  0  0  0  0  0  0  0
   -1.8626   -0.4897    2.5244 H   0  0  0  0  0  0  0  0  0  0  0  0
   -2.6700    0.3330    0.6949 C   0  0  1  0  0  0  0  0  0  0  0  0
   -3.2712    0.0027   -0.1742 H   0  0  0  0  0  0  0  0  0  0  0  0
   -3.2470    1.6164    1.3395 C   0  0  0  0  0  0  0  0  0  0  0  0
   -4.0725    2.0796    0.7661 H   0  0  0  0  0  0  0  0  0  0  0  0
   -3.5537    1.4862    2.3943 H   0  0  0  0  0  0  0  0  0  0  0  0
   -1.1535    2.0461    0.6121 C   0  0  2  0  0  3  0  0  0  0  0  0
    0.0579    2.9172    0.3321 C   0  0  0  0  0  0  0  0  0  0  0  0
    0.1750    4.0334    1.3886 C   0  0  0  0  0  0  0  0  0  0  0  0
   -0.7374    4.6555    1.3726 H   0  0  0  0  0  0  0  0  0  0  0  0
    1.0465    4.6716    1.1584 H   0  0  0  0  0  0  0  0  0  0  0  0
    0.3010    3.6221    2.4077 H   0  0  0  0  0  0  0  0  0  0  0  0
   -0.1181    3.5326   -1.0917 C   0  0  0  0  0  0  0  0  0  0  0  0
   -0.2050    2.7504   -1.8709 H   0  0  0  0  0  0  0  0  0  0  0  0
    0.7528    4.1752   -1.3235 H   0  0  0  0  0  0  0  0  0  0  0  0
   -1.0298    4.1599   -1.1094 H   0  0  0  0  0  0  0  0  0  0  0  0
    1.3156    2.0667    0.3157 C   0  0  1  0  0  3  0  0  0  0  0  0
    3.5270    1.6717    0.5409 C   0  0  0  0  0  0  0  0  0  0  0  0
    4.1982    2.1492   -0.1980 H   0  0  0  0  0  0  0  0  0  0  0  0
    4.0613    1.5428    1.5007 H   0  0  0  0  0  0  0  0  0  0  0  0
    2.8401    0.3802    0.0321 C   0  0  1  0  0  0  0  0  0  0  0  0
    3.2309    0.0678   -0.9569 H   0  0  0  0  0  0  0  0  0  0  0  0
    2.8912   -0.8090    0.9941 C   0  0  0  0  0  0  0  0  0  0  0  0
    2.2010   -1.5899    0.6100 H   0  0  0  0  0  0  0  0  0  0  0  0
    2.5027   -0.4921    1.9880 H   0  0  0  0  0  0  0  0  0  0  0  0
    4.2963   -1.4034    1.1272 C   0  0  0  0  0  0  0  0  0  0  0  0
    4.6529   -1.7156    0.1205 H   0  0  0  0  0  0  0  0  0  0  0  0
    5.0131   -0.6250    1.4754 H   0  0  0  0  0  0  0  0  0  0  0  0
    4.3535   -2.5992    2.0840 C   0  0  0  0  0  0  0  0  0  0  0  0
    3.6374   -3.3747    1.7334 H   0  0  0  0  0  0  0  0  0  0  0  0
    3.9878   -2.2814    3.0857 H   0  0  0  0  0  0  0  0  0  0  0  0
    5.7524   -3.2020    2.2087 C   0  0  0  0  0  0  0  0  0  0  0  0
    6.1261   -3.5620    1.2281 H   0  0  0  0  0  0  0  0  0  0  0  0
    5.7603   -4.0633    2.9048 H   0  0  0  0  0  0  0  0  0  0  0  0
    6.4820   -2.4580    2.5903 H   0  0  0  0  0  0  0  0  0  0  0  0
   -1.3730    0.8382    0.1757 N   0  0  0  0  0  2  0  0  0  0  0  0
    1.4474    0.8626   -0.1646 N   0  0  0  0  0  2  0  0  0  0  0  0
   -2.1304    2.5764    1.3276 O   0  0  0  0  0  0  0  0  0  0  0  0
    2.4230    2.6149    0.7844 O   0  0  0  0  0  0  0  0  0  0  0  0
  1  4  1  0  0  0  0
  1  2  1  0  0  0  0
  3  1  1  0  0  0  0
  5  1  1  0  0  0  0
  5  8  1  0  0  0  0
  6  5  1  0  0  0  0
  7  5  1  0  0  0  0
  8 10  1  0  0  0  0
  8  9  1  0  0  0  0
 11  8  1  0  0  0  0
 11 13  1  0  0  0  0
 12 11  1  0  0  0  0
 14 15  1  6  0  0  0
 14 16  1  0  0  0  0
 14 11  1  0  0  0  0
 16 18  1  0  0  0  0
 17 16  1  0  0  0  0
 19 20  1  6  0  0  0
 19 50  1  0  0  0  0
 20 21  1  0  0  0  0
 21 24  1  0  0  0  0
 22 21  1  0  0  0  0
 23 21  1  0  0  0  0
 25 20  1  0  0  0  0
 26 25  1  0  0  0  0
 27 25  1  0  0  0  0
 28 25  1  0  0  0  0
 29 20  1  6  0  0  0
 29 51  1  0  0  0  0
 30 51  1  0  0  0  0
 30 32  1  0  0  0  0
 31 30  1  0  0  0  0
 33 34  1  6  0  0  0
 33 30  1  0  0  0  0
 33 35  1  0  0  0  0
 35 38  1  0  0  0  0
 35 37  1  0  0  0  0
 36 35  1  0  0  0  0
 38 40  1  0  0  0  0
 38 41  1  0  0  0  0
 39 38  1  0  0  0  0
 41 44  1  0  0  0  0
 41 43  1  0  0  0  0
 42 41  1  0  0  0  0
 44 47  1  0  0  0  0
 44 46  1  0  0  0  0
 45 44  1  0  0  0  0
 48 19  1  0  0  0  0
 48 14  1  0  0  0  0
 49 33  1  0  0  0  0
 49 29  1  0  0  0  0
 50 16  1  0  0  0  0
M  END
