20,21
q = -1.0

 36 38  0  0  0  0  0  0  0  0999 V2000
    2.4169    0.7482   -1.3960 C   0  0  0  0  0  0  0  0  0  0  0  0
    1.9882    2.0695   -1.1266 C   0  0  0  0  0  0  0  0  0  0  0  0
    2.8388    3.1622   -1.3232 C   0  0  0  0  0  0  0  0  0  0  0  0
    4.1407    2.9675   -1.8122 C   0  0  0  0  0  0  0  0  0  0  0  0
    4.5664    1.6632   -2.1170 C   0  0  0  0  0  0  0  0  0  0  0  0
    3.7195    0.5648   -1.9254 C   0  0  0  0  0  0  0  0  0  0  0  0
   -2.2236    0.5771   -1.6720 C   0  0  0  0  0  0  0  0  0  0  0  0
   -1.8319    1.8936   -1.9916 C   0  0  0  0  0  0  0  0  0  0  0  0
   -2.7981    2.8888   -2.1839 C   0  0  0  0  0  0  0  0  0  0  0  0
   -4.1641    2.5877   -2.0525 C   0  0  0  0  0  0  0  0  0  0  0  0
   -4.5566    1.2779   -1.7318 C   0  0  0  0  0  0  0  0  0  0  0  0
   -3.5966    0.2743   -1.5408 C   0  0  0  0  0  0  0  0  0  0  0  0
    1.8614   -1.5787   -1.2932 C   0  0  0  0  0  3  0  0  0  0  0  0
    0.9784   -2.6749   -1.3878 C   0  0  0  0  0  0  0  0  0  0  0  0
    1.4261   -4.0342   -1.4313 C   0  0  0  0  0  0  0  0  0  0  0  0
    0.3488   -4.8644   -1.7876 C   0  0  0  0  0  0  0  0  0  0  0  0
   -0.7789   -4.0415   -2.0280 C   0  0  0  0  0  0  0  0  0  0  0  0
   -0.4369   -2.6885   -1.7572 C   0  0  0  0  0  0  0  0  0  0  0  0
   -1.3445   -1.6114   -1.9203 C   0  0  0  0  0  0  0  0  0  0  0  0
    1.5178   -0.3024   -1.1424 N   0  0  0  0  0  2  0  0  0  0  0  0
   -1.2241   -0.3972   -1.4169 N   0  0  0  0  0  2  0  0  0  0  0  0
    0.9721    2.2251   -0.7366 H   0  0  0  0  0  0  0  0  0  0  0  0
    2.4736    4.1729   -1.0857 H   0  0  0  0  0  0  0  0  0  0  0  0
    4.8130    3.8237   -1.9709 H   0  0  0  0  0  0  0  0  0  0  0  0
    5.5764    1.4956   -2.5221 H   0  0  0  0  0  0  0  0  0  0  0  0
    4.0767   -0.4373   -2.1985 H   0  0  0  0  0  0  0  0  0  0  0  0
   -0.7618    2.1231   -2.0919 H   0  0  0  0  0  0  0  0  0  0  0  0
   -2.4778    3.9118   -2.4324 H   0  0  0  0  0  0  0  0  0  0  0  0
   -4.9210    3.3735   -2.1944 H   0  0  0  0  0  0  0  0  0  0  0  0
   -5.6234    1.0342   -1.6119 H   0  0  0  0  0  0  0  0  0  0  0  0
   -3.9022   -0.7391   -1.2423 H   0  0  0  0  0  0  0  0  0  0  0  0
    2.9396   -1.8190   -1.3769 H   0  0  0  0  0  0  0  0  0  0  0  0
    2.4601   -4.3507   -1.2364 H   0  0  0  0  0  0  0  0  0  0  0  0
    0.3812   -5.9564   -1.8925 H   0  0  0  0  0  0  0  0  0  0  0  0
   -1.7709   -4.3781   -2.3605 H   0  0  0  0  0  0  0  0  0  0  0  0
   -2.2538   -1.8162   -2.5201 H   0  0  0  0  0  0  0  0  0  0  0  0
  1 20  1  0  0  0  0
  1  2  1  0  0  0  0
  2 22  1  0  0  0  0
  3  2  2  0  0  0  0
  3 23  1  0  0  0  0
  4  3  1  0  0  0  0
  5  6  1  0  0  0  0
  5  4  2  0  0  0  0
  6  1  2  0  0  0  0
  7 12  1  0  0  0  0
  7 21  1  0  0  0  0
  8  7  2  0  0  0  0
  9 10  2  0  0  0  0
  9  8  1  0  0  0  0
 10 11  1  0  0  0  0
 11 30  1  0  0  0  0
 11 12  2  0  0  0  0
 12 31  1  0  0  0  0
 13 20  1  0  0  0  0
 14 13  1  0  0  0  0
 15 14  2  0  0  0  0
 15 33  1  0  0  0  0
 16 15  1  0  0  0  0
 17 16  2  0  0  0  0
 17 18  1  0  0  0  0
 18 14  1  0  0  0  0
 19 18  2  0  0  0  0
 19 21  1  0  0  0  0
 24  4  1  0  0  0  0
 25  5  1  0  0  0  0
 26  6  1  0  0  0  0
 27  8  1  0  0  0  0
 28  9  1  0  0  0  0
 29 10  1  0  0  0  0
 32 13  1  0  0  0  0
 34 16  1  0  0  0  0
 35 17  1  0  0  0  0
 36 19  1  0  0  0  0
M  END
