3,4
q = -1.0

 39 40  0  0  0  0  0  0  0  0999 V2000
    0.0419   -3.4202    1.5702 O   0  0  0  0  0  0  0  0  0  0  0  0
    2.9416    2.5096   -0.9437 O   0  5  0  0  0  0  0  0  0  0  0  0
   -0.1808   -1.6936   -1.7312 N   0  0  0  0  0  0  0  0  0  0  0  0
    0.8951    1.0142   -1.9902 N   0  0  0  0  0  0  0  0  0  0  0  0
   -1.2036   -3.5046    0.9987 C   0  0  0  0  0  0  0  0  0  0  0  0
   -2.3494   -3.6995    1.7940 C   0  0  0  0  0  0  0  0  0  0  0  0
   -2.2396   -3.7728    2.8890 H   0  0  0  0  0  0  0  0  0  0  0  0
   -3.6163   -3.8045    1.2043 C   0  0  0  0  0  0  0  0  0  0  0  0
   -4.5010   -3.9571    1.8402 H   0  0  0  0  0  0  0  0  0  0  0  0
   -3.7456   -3.7258   -0.1902 C   0  0  0  0  0  0  0  0  0  0  0  0
   -4.7323   -3.8202   -0.6657 H   0  0  0  0  0  0  0  0  0  0  0  0
   -2.5978   -3.5301   -0.9723 C   0  0  0  0  0  0  0  0  0  0  0  0
   -2.6920   -3.4802   -2.0698 H   0  0  0  0  0  0  0  0  0  0  0  0
   -1.3139   -3.3989   -0.4079 C   0  0  0  0  0  0  0  0  0  0  0  0
   -0.1330   -3.0963   -1.3024 C   0  0  0  0  0  0  0  0  0  0  0  0
    0.8258   -3.2670   -0.7757 H   0  0  0  0  0  0  0  0  0  0  0  0
   -0.1569   -3.7950   -2.1779 H   0  0  0  0  0  0  0  0  0  0  0  0
    0.7797   -1.3224   -2.7719 C   0  0  0  0  0  0  0  0  0  0  0  0
    0.6607   -1.9437   -3.6954 H   0  0  0  0  0  0  0  0  0  0  0  0
    1.8032   -1.5109   -2.3842 H   0  0  0  0  0  0  0  0  0  0  0  0
    0.6237    0.1566   -3.1377 C   0  0  0  0  0  0  0  0  0  0  0  0
    1.2784    0.3863   -4.0125 H   0  0  0  0  0  0  0  0  0  0  0  0
   -0.4234    0.3424   -3.4704 H   0  0  0  0  0  0  0  0  0  0  0  0
    0.4015    2.4068   -2.0748 C   0  0  0  0  0  0  0  0  0  0  0  0
   -0.6830    2.3886   -2.3116 H   0  0  0  0  0  0  0  0  0  0  0  0
    0.9265    2.9542   -2.8958 H   0  0  0  0  0  0  0  0  0  0  0  0
    0.6384    3.0694   -0.7411 C   0  0  0  0  0  0  0  0  0  0  0  0
   -0.4063    3.6090    0.0213 C   0  0  0  0  0  0  0  0  0  0  0  0
   -1.4107    3.6488   -0.4260 H   0  0  0  0  0  0  0  0  0  0  0  0
   -0.2010    4.0608    1.3385 C   0  0  0  0  0  0  0  0  0  0  0  0
   -1.0350    4.4794    1.9215 H   0  0  0  0  0  0  0  0  0  0  0  0
    1.0938    3.9668    1.8869 C   0  0  0  0  0  0  0  0  0  0  0  0
    1.2766    4.3077    2.9194 H   0  0  0  0  0  0  0  0  0  0  0  0
    2.1588    3.4543    1.1370 C   0  0  0  0  0  0  0  0  0  0  0  0
    3.1682    3.3814    1.5684 H   0  0  0  0  0  0  0  0  0  0  0  0
    1.9720    3.0074   -0.2076 C   0  0  0  0  0  0  0  0  0  0  0  0
    1.9174    1.1190   -1.8262 H   0  0  0  0  0  0  0  0  0  0  0  0
   -1.1317   -1.4700   -2.0538 H   0  0  0  0  0  0  0  0  0  0  0  0
   -0.0293   -3.7127    2.4985 H   0  0  0  0  0  0  0  0  0  0  0  0
  1 39  1  0  0  0  0
  2 36  1  0  0  0  0
  3 15  1  0  0  0  0
  4 37  1  0  0  0  0
  5  1  1  0  0  0  0
  5  6  1  0  0  0  0
  6  7  1  0  0  0  0
  8  6  2  0  0  0  0
  8  9  1  0  0  0  0
 10  8  1  0  0  0  0
 11 10  1  0  0  0  0
 12 14  1  0  0  0  0
 12 10  2  0  0  0  0
 13 12  1  0  0  0  0
 14  5  2  0  0  0  0
 15 16  1  0  0  0  0
 15 14  1  0  0  0  0
 17 15  1  0  0  0  0
 18 20  1  0  0  0  0
 18  3  1  0  0  0  0
 19 18  1  0  0  0  0
 21 18  1  0  0  0  0
 21  4  1  0  0  0  0
 22 21  1  0  0  0  0
 23 21  1  0  0  0  0
 24  4  1  0  0  0  0
 24 27  1  0  0  0  0
 25 24  1  0  0  0  0
 26 24  1  0  0  0  0
 27 36  2  0  0  0  0
 27 28  1  0  0  0  0
 28 30  2  0  0  0  0
 29 28  1  0  0  0  0
 30 32  1  0  0  0  0
 30 31  1  0  0  0  0
 32 33  1  0  0  0  0
 34 35  1  0  0  0  0
 34 32  2  0  0  0  0
 36 34  1  0  0  0  0
 38  3  1  0  0  0  0
M  CHG  1   2  -1
M  END
