3,4
q = 0.0, confidence = 0.998

 39 40  0  0  1  0  0  0  0  0999 V2000
    1.6375   -3.3697    1.1230 O   0  0  0  0  0  0  0  0  0  0  0  0
   -2.4820   -2.8636   -0.5814 O   0  0  0  0  0  0  0  0  0  0  0  0
    1.1658   -1.2801    0.4400 N   0  0  0  0  0  2  0  0  0  0  0  0
   -1.5325   -0.8540   -0.2508 N   0  0  0  0  0  2  0  0  0  0  0  0
    2.6494   -1.3677    0.3228 C   0  0  1  0  0  0  0  0  0  0  0  0
    3.0919   -0.5386    0.9112 H   0  0  0  0  0  0  0  0  0  0  0  0
    2.9456   -2.7315    0.9983 C   0  0  0  0  0  0  0  0  0  0  0  0
    3.5872   -3.3988    0.3938 H   0  0  0  0  0  0  0  0  0  0  0  0
    3.3686   -2.6455    2.0188 H   0  0  0  0  0  0  0  0  0  0  0  0
    0.7304   -2.4353    0.8401 C   0  0  2  0  0  3  0  0  0  0  0  0
   -0.7033   -2.8113    1.0416 C   0  0  0  0  0  0  0  0  0  0  0  0
   -0.8159   -3.9057    0.9357 H   0  0  0  0  0  0  0  0  0  0  0  0
   -1.0069   -2.5511    2.0800 H   0  0  0  0  0  0  0  0  0  0  0  0
   -1.5863   -2.1130    0.0569 C   0  0  2  0  0  3  0  0  0  0  0  0
   -3.0819   -2.0115   -1.6079 C   0  0  0  0  0  0  0  0  0  0  0  0
   -4.1790   -2.1352   -1.5459 H   0  0  0  0  0  0  0  0  0  0  0  0
   -2.7263   -2.3858   -2.5876 H   0  0  0  0  0  0  0  0  0  0  0  0
   -2.5835   -0.5851   -1.2743 C   0  0  1  0  0  0  0  0  0  0  0  0
   -2.0688   -0.1264   -2.1419 H   0  0  0  0  0  0  0  0  0  0  0  0
    3.1451   -1.2458   -1.1339 C   0  0  0  0  0  0  0  0  0  0  0  0
    2.7579   -0.2716   -1.4985 H   0  0  0  0  0  0  0  0  0  0  0  0
    4.6774   -1.2062   -1.1594 C   0  0  0  0  0  0  0  0  0  0  0  0
    5.0801   -0.3886   -0.5263 H   0  0  0  0  0  0  0  0  0  0  0  0
    5.0406   -1.0386   -2.1921 H   0  0  0  0  0  0  0  0  0  0  0  0
    5.1293   -2.1590   -0.8099 H   0  0  0  0  0  0  0  0  0  0  0  0
    2.5677   -2.3307   -2.0460 C   0  0  0  0  0  0  0  0  0  0  0  0
    2.9173   -2.1777   -3.0857 H   0  0  0  0  0  0  0  0  0  0  0  0
    1.4611   -2.2850   -2.0679 H   0  0  0  0  0  0  0  0  0  0  0  0
    2.8825   -3.3527   -1.7457 H   0  0  0  0  0  0  0  0  0  0  0  0
   -3.6787    0.3810   -0.7766 C   0  0  0  0  0  0  0  0  0  0  0  0
   -3.1469    1.3220   -0.5222 H   0  0  0  0  0  0  0  0  0  0  0  0
   -4.4098   -0.1265    0.4704 C   0  0  0  0  0  0  0  0  0  0  0  0
   -3.7075   -0.3834    1.2901 H   0  0  0  0  0  0  0  0  0  0  0  0
   -5.0140   -1.0322    0.2554 H   0  0  0  0  0  0  0  0  0  0  0  0
   -5.1115    0.6396    0.8554 H   0  0  0  0  0  0  0  0  0  0  0  0
   -4.6493    0.7060   -1.9194 C   0  0  0  0  0  0  0  0  0  0  0  0
   -4.1166    1.1064   -2.8052 H   0  0  0  0  0  0  0  0  0  0  0  0
   -5.3914    1.4630   -1.5983 H   0  0  0  0  0  0  0  0  0  0  0  0
   -5.2209   -0.1893   -2.2422 H   0  0  0  0  0  0  0  0  0  0  0  0
  2 14  1  0  0  0  0
  3 10  1  0  0  0  0
  4 14  1  0  0  0  0
  5  3  1  0  0  0  0
  5  6  1  1  0  0  0
  5  7  1  0  0  0  0
  7  1  1  0  0  0  0
  7  9  1  0  0  0  0
  8  7  1  0  0  0  0
 10 11  1  1  0  0  0
 10  1  1  0  0  0  0
 11 13  1  0  0  0  0
 12 11  1  0  0  0  0
 14 11  1  6  0  0  0
 15 16  1  0  0  0  0
 15 18  1  0  0  0  0
 15  2  1  0  0  0  0
 17 15  1  0  0  0  0
 18 19  1  6  0  0  0
 18 30  1  0  0  0  0
 18  4  1  0  0  0  0
 20  5  1  0  0  0  0
 21 20  1  0  0  0  0
 22 20  1  0  0  0  0
 22 25  1  0  0  0  0
 22 23  1  0  0  0  0
 24 22  1  0  0  0  0
 26 29  1  0  0  0  0
 26 20  1  0  0  0  0
 27 26  1  0  0  0  0
 28 26  1  0  0  0  0
 30 31  1  0  0  0  0
 30 32  1  0  0  0  0
 32 35  1  0  0  0  0
 32 33  1  0  0  0  0
 34 32  1  0  0  0  0
 36 38  1  0  0  0  0
 36 30  1  0  0  0  0
 37 36  1  0  0  0  0
 39 36  1  0  0  0  0
M  END
