1,2
q = 0.0, confidence = 1.0

 42 45  0  0  1  0  0  0  0  0999 V2000
    0.0885    0.1513   -0.3242 N   0  0  0  0  0  2  0  0  0  0  0  0
    0.7364   -2.4029    0.2043 N   0  0  0  0  0  2  0  0  0  0  0  0
   -2.0120   -0.0257    0.4684 N   0  0  0  0  0  0  0  0  0  0  0  0
   -4.3473   -1.5985   -0.6958 N   0  0  0  0  0  0  0  0  0  0  0  0
   -0.4394    1.4236   -0.2162 C   0  0  0  0  0  0  0  0  0  0  0  0
    0.1267    2.6819   -0.4869 C   0  0  0  0  0  0  0  0  0  0  0  0
    1.1651    2.7309   -0.8419 H   0  0  0  0  0  0  0  0  0  0  0  0
   -0.6424    3.8309   -0.2630 C   0  0  0  0  0  0  0  0  0  0  0  0
   -1.9880    3.7273    0.2306 C   0  0  0  0  0  0  0  0  0  0  0  0
   -2.5541    2.4711    0.5020 C   0  0  0  0  0  0  0  0  0  0  0  0
   -3.5860    2.4012    0.8746 H   0  0  0  0  0  0  0  0  0  0  0  0
   -1.7696    1.3319    0.2730 C   0  0  0  0  0  0  0  0  0  0  0  0
   -0.8626   -0.6924    0.0826 C   0  0  2  0  0  3  0  0  0  0  0  0
   -0.5882   -2.1353    0.1333 C   0  0  1  0  0  3  0  0  0  0  0  0
   -1.5487   -3.1632    0.0482 C   0  0  0  0  0  0  0  0  0  0  0  0
   -2.6061   -2.9183   -0.1412 H   0  0  0  0  0  0  0  0  0  0  0  0
   -1.0981   -4.4901    0.1118 C   0  0  0  0  0  0  0  0  0  0  0  0
   -1.8222   -5.3169    0.0492 H   0  0  0  0  0  0  0  0  0  0  0  0
    0.2745   -4.7543    0.2231 C   0  0  0  0  0  0  0  0  0  0  0  0
    0.6581   -5.7836    0.2703 H   0  0  0  0  0  0  0  0  0  0  0  0
    1.1651   -3.6685    0.2366 C   0  0  0  0  0  0  0  0  0  0  0  0
    2.2625   -3.7846    0.2458 H   0  0  0  0  0  0  0  0  0  0  0  0
   -3.1832   -0.5444    1.1636 C   0  0  0  0  0  0  0  0  0  0  0  0
   -3.3953    0.1337    2.0141 H   0  0  0  0  0  0  0  0  0  0  0  0
   -2.9235   -1.5335    1.5859 H   0  0  0  0  0  0  0  0  0  0  0  0
   -4.4090   -0.6672    0.2737 C   0  0  0  0  0  0  0  0  0  0  0  0
   -5.5356    0.1550    0.4567 C   0  0  0  0  0  0  0  0  0  0  0  0
   -5.5555    0.8978    1.2686 H   0  0  0  0  0  0  0  0  0  0  0  0
   -6.6281    0.0078   -0.4102 C   0  0  0  0  0  0  0  0  0  0  0  0
   -7.5224    0.6385   -0.2932 H   0  0  0  0  0  0  0  0  0  0  0  0
   -6.5563   -0.9523   -1.4280 C   0  0  0  0  0  0  0  0  0  0  0  0
   -7.3858   -1.1006   -2.1348 H   0  0  0  0  0  0  0  0  0  0  0  0
   -5.3924   -1.7331   -1.5237 C   0  0  0  0  0  0  0  0  0  0  0  0
   -5.3011   -2.5077   -2.3052 H   0  0  0  0  0  0  0  0  0  0  0  0
   -0.0517    5.1915   -0.5356 C   0  0  0  0  0  0  0  0  0  0  0  0
    0.9878    5.1073   -0.9044 H   0  0  0  0  0  0  0  0  0  0  0  0
   -0.0371    5.8232    0.3779 H   0  0  0  0  0  0  0  0  0  0  0  0
   -0.6384    5.7525   -1.2941 H   0  0  0  0  0  0  0  0  0  0  0  0
   -2.7980    4.9770    0.4621 C   0  0  0  0  0  0  0  0  0  0  0  0
   -3.8114    4.7415    0.8399 H   0  0  0  0  0  0  0  0  0  0  0  0
   -2.9120    5.5706   -0.4698 H   0  0  0  0  0  0  0  0  0  0  0  0
   -2.3091    5.6495    1.1987 H   0  0  0  0  0  0  0  0  0  0  0  0
  1  5  1  0  0  0  0
  2 21  1  0  0  0  0
  3 23  1  0  0  0  0
  4 26  1  0  0  0  0
  5 12  1  0  0  0  0
  6  8  1  0  0  0  0
  6  5  2  0  0  0  0
  7  6  1  0  0  0  0
  8  9  2  0  0  0  0
  9 39  1  0  0  0  0
  9 10  1  0  0  0  0
 10 11  1  0  0  0  0
 12  3  1  0  0  0  0
 12 10  2  0  0  0  0
 13  1  1  1  0  0  0
 13 14  1  0  0  0  0
 13  3  1  0  0  0  0
 14 15  1  6  0  0  0
 14  2  1  0  0  0  0
 15 17  2  0  0  0  0
 16 15  1  0  0  0  0
 17 19  1  0  0  0  0
 18 17  1  0  0  0  0
 19 21  2  0  0  0  0
 19 20  1  0  0  0  0
 21 22  1  0  0  0  0
 23 25  1  0  0  0  0
 23 24  1  0  0  0  0
 26 27  2  0  0  0  0
 26 23  1  0  0  0  0
 27 28  1  0  0  0  0
 29 30  1  0  0  0  0
 29 27  1  0  0  0  0
 31 29  2  0  0  0  0
 32 31  1  0  0  0  0
 33 31  1  0  0  0  0
 33  4  2  0  0  0  0
 34 33  1  0  0  0  0
 35  8  1  0  0  0  0
 35 37  1  0  0  0  0
 36 35  1  0  0  0  0
 38 35  1  0  0  0  0
 39 40  1  0  0  0  0
 39 42  1  0  0  0  0
 41 39  1  0  0  0  0
M  END
