1,25
q = 0.0, confidence = 0.996

 43 46  0  0  1  0  0  0  0  0999 V2000
   -1.2177   -0.5741   -0.8258 N   0  0  1  0  0  0  0  0  0  0  0  0
   -2.2592    0.0990   -1.6447 C   0  0  0  0  0  0  0  0  0  0  0  0
   -2.8290   -0.6811   -2.2084 H   0  0  0  0  0  0  0  0  0  0  0  0
   -1.7261    0.7398   -2.3758 H   0  0  0  0  0  0  0  0  0  0  0  0
   -3.2040    0.9285   -0.7819 C   0  0  0  0  0  0  0  0  0  0  0  0
   -3.9644    1.3993   -1.4376 H   0  0  0  0  0  0  0  0  0  0  0  0
   -2.6341    1.7564   -0.3059 H   0  0  0  0  0  0  0  0  0  0  0  0
   -3.8567    0.0669    0.3023 C   0  0  0  0  0  0  0  0  0  0  0  0
   -4.4907    0.6887    0.9663 H   0  0  0  0  0  0  0  0  0  0  0  0
   -4.5290   -0.6829   -0.1733 H   0  0  0  0  0  0  0  0  0  0  0  0
   -2.7770   -0.6478    1.1203 C   0  0  0  0  0  0  0  0  0  0  0  0
   -3.2299   -1.3503    1.8503 H   0  0  0  0  0  0  0  0  0  0  0  0
   -2.2032    0.1098    1.6952 H   0  0  0  0  0  0  0  0  0  0  0  0
   -1.8253   -1.4440    0.2237 C   0  0  2  0  0  0  0  0  0  0  0  0
   -2.4346   -2.2200   -0.3104 H   0  0  0  0  0  0  0  0  0  0  0  0
   -0.7242   -2.2112    0.9867 C   0  0  1  0  0  0  0  0  0  0  0  0
   -1.2418   -2.8092    1.7658 H   0  0  0  0  0  0  0  0  0  0  0  0
   -0.3097   -1.3397   -1.7226 C   0  0  0  0  0  0  0  0  0  0  0  0
    0.1788   -0.5985   -2.3875 H   0  0  0  0  0  0  0  0  0  0  0  0
   -0.9301   -2.0114   -2.3642 H   0  0  0  0  0  0  0  0  0  0  0  0
    0.0000   -3.1331    0.0000 C   0  0  0  0  0  0  0  0  0  0  0  0
   -0.7256   -3.7898   -0.5237 H   0  0  0  0  0  0  0  0  0  0  0  0
    0.7242   -2.2112   -0.9867 C   0  0  2  0  0  0  0  0  0  0  0  0
    1.8253   -1.4440   -0.2237 C   0  0  2  0  0  0  0  0  0  0  0  0
    1.2177   -0.5741    0.8258 N   0  0  2  0  0  0  0  0  0  0  0  0
    2.2592    0.0990    1.6447 C   0  0  0  0  0  0  0  0  0  0  0  0
    2.8290   -0.6811    2.2084 H   0  0  0  0  0  0  0  0  0  0  0  0
    1.7261    0.7398    2.3758 H   0  0  0  0  0  0  0  0  0  0  0  0
    3.2040    0.9285    0.7819 C   0  0  0  0  0  0  0  0  0  0  0  0
    3.9644    1.3993    1.4376 H   0  0  0  0  0  0  0  0  0  0  0  0
    2.6341    1.7564    0.3059 H   0  0  0  0  0  0  0  0  0  0  0  0
    3.8567    0.0669   -0.3023 C   0  0  0  0  0  0  0  0  0  0  0  0
    4.4907    0.6887   -0.9663 H   0  0  0  0  0  0  0  0  0  0  0  0
    4.5290   -0.6829    0.1733 H   0  0  0  0  0  0  0  0  0  0  0  0
    2.7770   -0.6478   -1.1203 C   0  0  0  0  0  0  0  0  0  0  0  0
    3.2300   -1.3503   -1.8503 H   0  0  0  0  0  0  0  0  0  0  0  0
    2.2032    0.1098   -1.6952 H   0  0  0  0  0  0  0  0  0  0  0  0
    2.4346   -2.2200    0.3104 H   0  0  0  0  0  0  0  0  0  0  0  0
    0.3097   -1.3397    1.7226 C   0  0  0  0  0  0  0  0  0  0  0  0
    1.2418   -2.8092   -1.7658 H   0  0  0  0  0  0  0  0  0  0  0  0
    0.7256   -3.7898    0.5237 H   0  0  0  0  0  0  0  0  0  0  0  0
   -0.1788   -0.5985    2.3875 H   0  0  0  0  0  0  0  0  0  0  0  0
    0.9301   -2.0114    2.3642 H   0  0  0  0  0  0  0  0  0  0  0  0
  1 18  1  6  0  0  0
  1 14  1  0  0  0  0
  2  1  1  0  0  0  0
  2  5  1  0  0  0  0
  3  2  1  0  0  0  0
  4  2  1  0  0  0  0
  5  7  1  0  0  0  0
  5  8  1  0  0  0  0
  6  5  1  0  0  0  0
  8  9  1  0  0  0  0
  8 11  1  0  0  0  0
 10  8  1  0  0  0  0
 11 13  1  0  0  0  0
 11 12  1  0  0  0  0
 14 15  1  6  0  0  0
 14 16  1  0  0  0  0
 14 11  1  0  0  0  0
 16 39  1  0  0  0  0
 16 17  1  1  0  0  0
 18 23  1  0  0  0  0
 19 18  1  0  0  0  0
 20 18  1  0  0  0  0
 21 41  1  0  0  0  0
 21 16  1  0  0  0  0
 22 21  1  0  0  0  0
 23 40  1  6  0  0  0
 23 24  1  0  0  0  0
 23 21  1  0  0  0  0
 24 38  1  1  0  0  0
 24 25  1  0  0  0  0
 25 26  1  1  0  0  0
 25 39  1  0  0  0  0
 26 27  1  0  0  0  0
 26 28  1  0  0  0  0
 29 30  1  0  0  0  0
 29 26  1  0  0  0  0
 31 29  1  0  0  0  0
 32 34  1  0  0  0  0
 32 29  1  0  0  0  0
 33 32  1  0  0  0  0
 35 32  1  0  0  0  0
 35 24  1  0  0  0  0
 36 35  1  0  0  0  0
 37 35  1  0  0  0  0
 39 43  1  0  0  0  0
 39 42  1  0  0  0  0
M  END
