2,3
q = 0.0, confidence = 0.998

 28 29  0  0  1  0  0  0  0  0999 V2000
    1.6988    2.6986   -0.3152 O   0  0  0  0  0  0  0  0  0  0  0  0
    0.0006    1.2197   -0.1501 N   0  0  0  0  0  2  0  0  0  0  0  0
    0.8963   -1.3777   -0.9239 N   0  0  0  0  0  0  0  0  0  0  0  0
   -0.6664    2.5724   -0.1383 C   0  0  0  0  0  0  0  0  0  0  0  0
   -1.8485    2.6246   -1.1031 C   0  0  0  0  0  0  0  0  0  0  0  0
   -2.6522    1.9521   -0.7461 H   0  0  0  0  0  0  0  0  0  0  0  0
   -1.5421    2.3076   -2.1197 H   0  0  0  0  0  0  0  0  0  0  0  0
   -2.2392    3.6612   -1.1566 H   0  0  0  0  0  0  0  0  0  0  0  0
   -1.0749    2.8963    1.3066 C   0  0  0  0  0  0  0  0  0  0  0  0
   -0.1906    2.8923    1.9755 H   0  0  0  0  0  0  0  0  0  0  0  0
   -1.8037    2.1434    1.6630 H   0  0  0  0  0  0  0  0  0  0  0  0
   -1.5404    3.9022    1.3422 H   0  0  0  0  0  0  0  0  0  0  0  0
    0.5055    3.4683   -0.6019 C   0  0  0  0  0  0  0  0  0  0  0  0
    0.4839    3.6630   -1.6962 H   0  0  0  0  0  0  0  0  0  0  0  0
    0.5709    4.4274   -0.0551 H   0  0  0  0  0  0  0  0  0  0  0  0
    1.2968    1.4143   -0.1950 C   0  0  2  0  0  3  0  0  0  0  0  0
    2.3562    0.4111   -0.0454 C   0  0  0  0  0  0  0  0  0  0  0  0
    2.1402   -0.9622   -0.3239 C   0  0  0  0  0  0  0  0  0  0  0  0
    3.1412   -1.9033   -0.0511 C   0  0  0  0  0  0  0  0  0  0  0  0
    2.9505   -2.9667   -0.2608 H   0  0  0  0  0  0  0  0  0  0  0  0
    4.3757   -1.4904    0.4720 C   0  0  0  0  0  0  0  0  0  0  0  0
    5.1513   -2.2392    0.6904 H   0  0  0  0  0  0  0  0  0  0  0  0
    4.6209   -0.1274    0.6998 C   0  0  0  0  0  0  0  0  0  0  0  0
    5.5927    0.2023    1.0950 H   0  0  0  0  0  0  0  0  0  0  0  0
    3.6202    0.8153    0.4381 C   0  0  0  0  0  0  0  0  0  0  0  0
    3.7898    1.8832    0.6320 H   0  0  0  0  0  0  0  0  0  0  0  0
    0.8680   -1.1320   -1.9276 H   0  0  0  0  0  0  0  0  0  0  0  0
    0.7334   -2.4039   -0.8569 H   0  0  0  0  0  0  0  0  0  0  0  0
  1 16  1  0  0  0  0
  2  4  1  0  0  0  0
  3 28  1  0  0  0  0
  3 18  1  0  0  0  0
  4  9  1  0  0  0  0
  5  6  1  0  0  0  0
  5  4  1  0  0  0  0
  7  5  1  0  0  0  0
  8  5  1  0  0  0  0
  9 12  1  0  0  0  0
  9 11  1  0  0  0  0
  9 10  1  0  0  0  0
 13  1  1  0  0  0  0
 13  4  1  0  0  0  0
 13 15  1  0  0  0  0
 14 13  1  0  0  0  0
 16  2  1  0  0  0  0
 16 17  1  1  0  0  0
 17 25  1  0  0  0  0
 18 19  1  0  0  0  0
 18 17  2  0  0  0  0
 19 21  2  0  0  0  0
 20 19  1  0  0  0  0
 21 22  1  0  0  0  0
 21 23  1  0  0  0  0
 23 24  1  0  0  0  0
 25 26  1  0  0  0  0
 25 23  2  0  0  0  0
 27  3  1  0  0  0  0
M  END
