1,28
q = 0.0, confidence = 0.964

 62 67  0  0  1  0  0  0  0  0999 V2000
    1.3220   -0.4878   -0.0028 N   0  0  0  0  0  2  0  0  0  0  0  0
   -1.3207    2.0769    0.0131 C   0  0  1  0  0  0  0  0  0  0  0  0
   -2.4241    2.0711    0.0131 H   0  0  0  0  0  0  0  0  0  0  0  0
   -0.7078    2.7272    1.2534 C   0  0  0  0  0  0  0  0  0  0  0  0
   -1.4152    3.2524    2.3409 C   0  0  0  0  0  0  0  0  0  0  0  0
   -2.5158    3.2417    2.3421 H   0  0  0  0  0  0  0  0  0  0  0  0
    1.3206    2.0769    0.0131 C   0  0  1  0  0  0  0  0  0  0  0  0
    2.4240    2.0712    0.0131 H   0  0  0  0  0  0  0  0  0  0  0  0
   -0.7078    2.7459   -1.2170 C   0  0  0  0  0  0  0  0  0  0  0  0
    0.7078    2.7459   -1.2170 C   0  0  0  0  0  0  0  0  0  0  0  0
    0.7078    2.7272    1.2534 C   0  0  0  0  0  0  0  0  0  0  0  0
    1.4151    3.2888   -2.2958 C   0  0  0  0  0  0  0  0  0  0  0  0
    2.5157    3.2785   -2.2970 H   0  0  0  0  0  0  0  0  0  0  0  0
   -1.4151    3.2888   -2.2958 C   0  0  0  0  0  0  0  0  0  0  0  0
   -2.5158    3.2785   -2.2970 H   0  0  0  0  0  0  0  0  0  0  0  0
    0.7021    3.8436   -3.3742 C   0  0  0  0  0  0  0  0  0  0  0  0
    1.2499    4.2765   -4.2245 H   0  0  0  0  0  0  0  0  0  0  0  0
   -0.7021    3.8436   -3.3742 C   0  0  0  0  0  0  0  0  0  0  0  0
   -1.2500    4.2765   -4.2245 H   0  0  0  0  0  0  0  0  0  0  0  0
    0.7021    3.7899    3.4279 C   0  0  0  0  0  0  0  0  0  0  0  0
    1.2499    4.2090    4.2851 H   0  0  0  0  0  0  0  0  0  0  0  0
    1.4151    3.2524    2.3409 C   0  0  0  0  0  0  0  0  0  0  0  0
    2.5158    3.2418    2.3420 H   0  0  0  0  0  0  0  0  0  0  0  0
   -0.7021    3.7899    3.4279 C   0  0  0  0  0  0  0  0  0  0  0  0
   -1.2500    4.2090    4.2851 H   0  0  0  0  0  0  0  0  0  0  0  0
   -0.7291    0.6773    0.0040 C   0  0  0  0  0  0  0  0  0  0  0  0
    0.7290    0.6773    0.0040 C   0  0  0  0  0  0  0  0  0  0  0  0
   -1.3220   -0.4878   -0.0028 N   0  0  0  0  0  2  0  0  0  0  0  0
   -2.7456   -0.5821   -0.0090 C   0  0  0  0  0  0  0  0  0  0  0  0
   -3.4123   -0.6298   -1.2547 C   0  0  0  0  0  0  0  0  0  0  0  0
   -5.5194   -0.7599   -0.0229 C   0  0  0  0  0  0  0  0  0  0  0  0
   -6.6176   -0.8280   -0.0283 H   0  0  0  0  0  0  0  0  0  0  0  0
   -4.8263   -0.7429    1.1954 C   0  0  0  0  0  0  0  0  0  0  0  0
   -5.3774   -0.8074    2.1465 H   0  0  0  0  0  0  0  0  0  0  0  0
   -3.4225   -0.6625    1.2294 C   0  0  0  0  0  0  0  0  0  0  0  0
   -4.8164   -0.7114   -1.2346 C   0  0  0  0  0  0  0  0  0  0  0  0
   -5.3595   -0.7514   -2.1915 H   0  0  0  0  0  0  0  0  0  0  0  0
   -2.6253   -0.6378   -2.5374 C   0  0  0  0  0  0  0  0  0  0  0  0
   -3.2944   -0.6933   -3.4162 H   0  0  0  0  0  0  0  0  0  0  0  0
   -1.9452   -1.5165   -2.5563 H   0  0  0  0  0  0  0  0  0  0  0  0
   -1.9876    0.2648   -2.6479 H   0  0  0  0  0  0  0  0  0  0  0  0
   -2.6460   -0.7061    2.5175 C   0  0  0  0  0  0  0  0  0  0  0  0
   -1.9784   -1.5946    2.5222 H   0  0  0  0  0  0  0  0  0  0  0  0
   -3.3225   -0.7707    3.3901 H   0  0  0  0  0  0  0  0  0  0  0  0
   -1.9971    0.1854    2.6504 H   0  0  0  0  0  0  0  0  0  0  0  0
    2.7456   -0.5821   -0.0090 C   0  0  0  0  0  0  0  0  0  0  0  0
    3.4123   -0.6298   -1.2547 C   0  0  0  0  0  0  0  0  0  0  0  0
    2.6253   -0.6379   -2.5374 C   0  0  0  0  0  0  0  0  0  0  0  0
    1.9453   -1.5167   -2.5563 H   0  0  0  0  0  0  0  0  0  0  0  0
    3.2945   -0.6934   -3.4162 H   0  0  0  0  0  0  0  0  0  0  0  0
    1.9875    0.2646   -2.6479 H   0  0  0  0  0  0  0  0  0  0  0  0
    5.5194   -0.7598   -0.0228 C   0  0  0  0  0  0  0  0  0  0  0  0
    6.6176   -0.8279   -0.0282 H   0  0  0  0  0  0  0  0  0  0  0  0
    3.4225   -0.6624    1.2294 C   0  0  0  0  0  0  0  0  0  0  0  0
    4.8164   -0.7114   -1.2346 C   0  0  0  0  0  0  0  0  0  0  0  0
    5.3595   -0.7514   -2.1915 H   0  0  0  0  0  0  0  0  0  0  0  0
    4.8263   -0.7428    1.1955 C   0  0  0  0  0  0  0  0  0  0  0  0
    5.3774   -0.8072    2.1465 H   0  0  0  0  0  0  0  0  0  0  0  0
    2.6460   -0.7059    2.5175 C   0  0  0  0  0  0  0  0  0  0  0  0
    3.3225   -0.7705    3.3901 H   0  0  0  0  0  0  0  0  0  0  0  0
    1.9783   -1.5944    2.5223 H   0  0  0  0  0  0  0  0  0  0  0  0
    1.9971    0.1856    2.6504 H   0  0  0  0  0  0  0  0  0  0  0  0
  1 27  1  0  0  0  0
  2  3  1  1  0  0  0
  2  4  1  0  0  0  0
  4  5  1  0  0  0  0
  5  6  1  0  0  0  0
  5 24  2  0  0  0  0
  7  8  1  1  0  0  0
  7 11  1  0  0  0  0
  9  2  1  0  0  0  0
 10  9  1  0  0  0  0
 10  7  1  0  0  0  0
 11  4  2  0  0  0  0
 11 22  1  0  0  0  0
 12 10  2  0  0  0  0
 13 12  1  0  0  0  0
 14  9  2  0  0  0  0
 15 14  1  0  0  0  0
 16 18  2  0  0  0  0
 16 12  1  0  0  0  0
 17 16  1  0  0  0  0
 18 14  1  0  0  0  0
 19 18  1  0  0  0  0
 20 24  1  0  0  0  0
 20 21  1  0  0  0  0
 22 23  1  0  0  0  0
 22 20  2  0  0  0  0
 24 25  1  0  0  0  0
 26  2  1  0  0  0  0
 27 26  2  0  0  0  0
 27  7  1  0  0  0  0
 28 26  1  0  0  0  0
 29 28  1  0  0  0  0
 29 35  1  0  0  0  0
 30 36  1  0  0  0  0
 30 29  2  0  0  0  0
 31 33  1  0  0  0  0
 32 31  1  0  0  0  0
 33 35  2  0  0  0  0
 33 34  1  0  0  0  0
 35 42  1  0  0  0  0
 36 31  2  0  0  0  0
 37 36  1  0  0  0  0
 38 30  1  0  0  0  0
 39 38  1  0  0  0  0
 40 38  1  0  0  0  0
 41 38  1  0  0  0  0
 42 43  1  0  0  0  0
 42 45  1  0  0  0  0
 42 44  1  0  0  0  0
 46  1  1  0  0  0  0
 46 54  1  0  0  0  0
 47 55  1  0  0  0  0
 47 46  2  0  0  0  0
 48 47  1  0  0  0  0
 49 48  1  0  0  0  0
 50 48  1  0  0  0  0
 51 48  1  0  0  0  0
 52 57  1  0  0  0  0
 53 52  1  0  0  0  0
 54 59  1  0  0  0  0
 55 52  2  0  0  0  0
 56 55  1  0  0  0  0
 57 54  2  0  0  0  0
 57 58  1  0  0  0  0
 59 61  1  0  0  0  0
 59 62  1  0  0  0  0
 59 60  1  0  0  0  0
M  END
