1,2
q = -1.0

 55 56  0  0  1  0  0  0  0  0999 V2000
    1.4037   -1.7180   -0.6905 N   0  0  0  0  0  2  0  0  0  0  0  0
   -1.4832   -0.9702   -0.6539 N   0  0  0  0  0  2  0  0  0  0  0  0
    0.9330   -2.6922   -1.4946 C   0  0  2  0  0  3  0  0  0  0  0  0
   -0.4107   -2.7581   -1.9176 C   0  0  0  0  0  0  0  0  0  0  0  0
   -0.6404   -3.5879   -2.5984 H   0  0  0  0  0  0  0  0  0  0  0  0
   -1.5392   -1.9970   -1.5117 C   0  0  0  0  0  0  0  0  0  0  0  0
    1.8409   -3.8154   -1.9547 C   0  0  0  0  0  0  0  0  0  0  0  0
    2.4177   -3.5287   -2.8580 H   0  0  0  0  0  0  0  0  0  0  0  0
    1.2461   -4.7104   -2.2123 H   0  0  0  0  0  0  0  0  0  0  0  0
    2.5769   -4.0869   -1.1734 H   0  0  0  0  0  0  0  0  0  0  0  0
   -2.8793   -2.3874   -2.0969 C   0  0  0  0  0  0  0  0  0  0  0  0
   -2.8209   -3.3489   -2.6374 H   0  0  0  0  0  0  0  0  0  0  0  0
   -3.2188   -1.6052   -2.8077 H   0  0  0  0  0  0  0  0  0  0  0  0
   -3.6601   -2.4534   -1.3153 H   0  0  0  0  0  0  0  0  0  0  0  0
    2.7406   -1.6330   -0.2825 C   0  0  0  0  0  0  0  0  0  0  0  0
    3.0083   -1.4518    1.1105 C   0  0  0  0  0  0  0  0  0  0  0  0
    4.3262   -1.2630    1.5807 C   0  0  0  0  0  0  0  0  0  0  0  0
    4.4934   -1.1196    2.6575 H   0  0  0  0  0  0  0  0  0  0  0  0
    5.3957   -1.2619    0.6804 C   0  0  0  0  0  0  0  0  0  0  0  0
    6.4218   -1.1105    1.0446 H   0  0  0  0  0  0  0  0  0  0  0  0
    5.1459   -1.4393   -0.6920 C   0  0  0  0  0  0  0  0  0  0  0  0
    5.9813   -1.4178   -1.4081 H   0  0  0  0  0  0  0  0  0  0  0  0
    3.8410   -1.6135   -1.1683 C   0  0  0  0  0  0  0  0  0  0  0  0
    3.6585   -1.7004   -2.2477 H   0  0  0  0  0  0  0  0  0  0  0  0
    1.9050   -1.4918    2.0199 C   0  0  0  0  0  0  0  0  0  0  0  0
    0.9960   -1.5238    2.7655 N   0  0  0  0  0  0  0  0  0  0  0  0
   -2.6880   -0.3981   -0.1354 C   0  0  0  0  0  0  0  0  0  0  0  0
   -3.1769   -0.8804    1.1121 C   0  0  0  0  0  0  0  0  0  0  0  0
   -4.3505   -0.3028    1.6293 C   0  0  0  0  0  0  0  0  0  0  0  0
   -4.7472   -0.6594    2.5907 H   0  0  0  0  0  0  0  0  0  0  0  0
   -5.0091    0.7332    0.9539 C   0  0  0  0  0  0  0  0  0  0  0  0
   -5.9233    1.1743    1.3793 H   0  0  0  0  0  0  0  0  0  0  0  0
   -4.4912    1.2194   -0.2517 C   0  0  0  0  0  0  0  0  0  0  0  0
   -4.9994    2.0496   -0.7656 H   0  0  0  0  0  0  0  0  0  0  0  0
   -3.3271    0.6674   -0.8197 C   0  0  0  0  0  0  0  0  0  0  0  0
   -2.4305   -1.9709    1.8754 C   0  0  0  0  0  0  0  0  0  0  0  0
   -1.3531   -1.8482    1.6345 H   0  0  0  0  0  0  0  0  0  0  0  0
   -2.8319   -3.3855    1.4163 C   0  0  0  0  0  0  0  0  0  0  0  0
   -3.9213   -3.5503    1.5530 H   0  0  0  0  0  0  0  0  0  0  0  0
   -2.2939   -4.1496    2.0139 H   0  0  0  0  0  0  0  0  0  0  0  0
   -2.5884   -3.5678    0.3527 H   0  0  0  0  0  0  0  0  0  0  0  0
   -2.5690   -1.8506    3.3987 C   0  0  0  0  0  0  0  0  0  0  0  0
   -3.5830   -2.1376    3.7478 H   0  0  0  0  0  0  0  0  0  0  0  0
   -2.3620   -0.8198    3.7457 H   0  0  0  0  0  0  0  0  0  0  0  0
   -1.8416   -2.5237    3.8936 H   0  0  0  0  0  0  0  0  0  0  0  0
   -2.7487    1.2514   -2.1031 C   0  0  0  0  0  0  0  0  0  0  0  0
   -1.9720    0.5471   -2.4677 H   0  0  0  0  0  0  0  0  0  0  0  0
   -3.7971    1.4001   -3.2162 C   0  0  0  0  0  0  0  0  0  0  0  0
   -4.3184    0.4427   -3.4215 H   0  0  0  0  0  0  0  0  0  0  0  0
   -3.3183    1.7399   -4.1571 H   0  0  0  0  0  0  0  0  0  0  0  0
   -4.5710    2.1506   -2.9541 H   0  0  0  0  0  0  0  0  0  0  0  0
   -2.0436    2.5874   -1.8064 C   0  0  0  0  0  0  0  0  0  0  0  0
   -2.7607    3.3333   -1.4049 H   0  0  0  0  0  0  0  0  0  0  0  0
   -1.5937    3.0095   -2.7291 H   0  0  0  0  0  0  0  0  0  0  0  0
   -1.2340    2.4473   -1.0618 H   0  0  0  0  0  0  0  0  0  0  0  0
  1 15  1  0  0  0  0
  2 27  1  0  0  0  0
  3  4  1  1  0  0  0
  3  1  1  0  0  0  0
  4  6  2  0  0  0  0
  5  4  1  0  0  0  0
  6  2  1  0  0  0  0
  7  3  1  0  0  0  0
  7 10  1  0  0  0  0
  8  7  1  0  0  0  0
  9  7  1  0  0  0  0
 11  6  1  0  0  0  0
 11 14  1  0  0  0  0
 12 11  1  0  0  0  0
 13 11  1  0  0  0  0
 15 16  1  0  0  0  0
 16 17  2  0  0  0  0
 16 25  1  0  0  0  0
 17 18  1  0  0  0  0
 19 20  1  0  0  0  0
 19 17  1  0  0  0  0
 21 19  2  0  0  0  0
 22 21  1  0  0  0  0
 23 21  1  0  0  0  0
 23 15  2  0  0  0  0
 24 23  1  0  0  0  0
 25 26  3  0  0  0  0
 27 28  1  0  0  0  0
 28 29  2  0  0  0  0
 28 36  1  0  0  0  0
 29 30  1  0  0  0  0
 31 32  1  0  0  0  0
 31 29  1  0  0  0  0
 33 31  2  0  0  0  0
 34 33  1  0  0  0  0
 35 33  1  0  0  0  0
 35 27  2  0  0  0  0
 36 42  1  0  0  0  0
 37 36  1  0  0  0  0
 38 39  1  0  0  0  0
 38 36  1  0  0  0  0
 38 40  1  0  0  0  0
 41 38  1  0  0  0  0
 42 44  1  0  0  0  0
 42 43  1  0  0  0  0
 42 45  1  0  0  0  0
 46 52  1  0  0  0  0
 46 35  1  0  0  0  0
 47 46  1  0  0  0  0
 48 51  1  0  0  0  0
 48 46  1  0  0  0  0
 49 48  1  0  0  0  0
 50 48  1  0  0  0  0
 52 53  1  0  0  0  0
 52 55  1  0  0  0  0
 54 52  1  0  0  0  0
M  END
