1,2
q = -1.0, confidence = 0.018

 38 39  0  0  1  0  0  0  0  0999 V2000
    1.1622    1.3803   -0.8851 N   0  0  0  0  0  2  0  0  0  0  0  0
   -0.8972   -0.6615   -1.5676 N   0  0  0  0  0  2  0  0  0  0  0  0
    1.1859    1.5018   -2.2225 C   0  0  0  0  0  0  0  0  0  0  0  0
    0.4650    0.6480   -3.0930 C   0  0  0  0  0  0  0  0  0  0  0  0
    0.6651    0.8060   -4.1614 H   0  0  0  0  0  0  0  0  0  0  0  0
   -0.5656   -0.2778   -2.8159 C   0  0  1  0  0  3  0  0  0  0  0  0
    2.0306    2.5758   -2.8703 C   0  0  0  0  0  0  0  0  0  0  0  0
    1.4262    3.4919   -3.0353 H   0  0  0  0  0  0  0  0  0  0  0  0
    2.3898    2.2355   -3.8593 H   0  0  0  0  0  0  0  0  0  0  0  0
    2.9007    2.8502   -2.2437 H   0  0  0  0  0  0  0  0  0  0  0  0
   -1.2636   -0.8818   -4.0159 C   0  0  0  0  0  0  0  0  0  0  0  0
   -1.8248   -1.7984   -3.7552 H   0  0  0  0  0  0  0  0  0  0  0  0
   -0.5129   -1.1296   -4.7916 H   0  0  0  0  0  0  0  0  0  0  0  0
   -1.9743   -0.1568   -4.4615 H   0  0  0  0  0  0  0  0  0  0  0  0
    1.7454    2.3114   -0.0091 C   0  0  0  0  0  0  0  0  0  0  0  0
    1.9082    4.5457    1.0224 C   0  0  0  0  0  0  0  0  0  0  0  0
    1.5591    5.5873    1.0683 H   0  0  0  0  0  0  0  0  0  0  0  0
    2.9034    4.0866    1.8891 C   0  0  0  0  0  0  0  0  0  0  0  0
    3.3567    4.7746    2.6175 H   0  0  0  0  0  0  0  0  0  0  0  0
    3.3060    2.7398    1.8306 C   0  0  0  0  0  0  0  0  0  0  0  0
    4.0831    2.3497    2.5053 H   0  0  0  0  0  0  0  0  0  0  0  0
    2.7267    1.8707    0.9025 C   0  0  0  0  0  0  0  0  0  0  0  0
    3.0398    0.8209    0.8651 H   0  0  0  0  0  0  0  0  0  0  0  0
    1.3162    3.6722    0.0771 C   0  0  0  0  0  0  0  0  0  0  0  0
    0.2400    4.1452   -0.7385 C   0  0  0  0  0  0  0  0  0  0  0  0
   -0.6630    4.5301   -1.3856 N   0  0  0  0  0  0  0  0  0  0  0  0
   -2.0789   -1.3332   -1.2330 C   0  0  0  0  0  0  0  0  0  0  0  0
   -3.3773   -0.8617   -1.6072 C   0  0  0  0  0  0  0  0  0  0  0  0
   -4.5366   -1.5429   -1.1640 C   0  0  0  0  0  0  0  0  0  0  0  0
   -5.5201   -1.1532   -1.4630 H   0  0  0  0  0  0  0  0  0  0  0  0
   -4.4335   -2.6664   -0.3413 C   0  0  0  0  0  0  0  0  0  0  0  0
   -5.3403   -3.1791    0.0100 H   0  0  0  0  0  0  0  0  0  0  0  0
   -3.1623   -3.1142    0.0602 C   0  0  0  0  0  0  0  0  0  0  0  0
   -3.0704   -3.9711    0.7428 H   0  0  0  0  0  0  0  0  0  0  0  0
   -2.0095   -2.4557   -0.3749 C   0  0  0  0  0  0  0  0  0  0  0  0
   -1.0182   -2.7958   -0.0392 H   0  0  0  0  0  0  0  0  0  0  0  0
   -3.5375    0.3393   -2.3665 C   0  0  0  0  0  0  0  0  0  0  0  0
   -3.6962    1.3224   -2.9907 N   0  0  0  0  0  0  0  0  0  0  0  0
  1 15  1  0  0  0  0
  2 27  1  0  0  0  0
  3  1  1  0  0  0  0
  4  3  2  0  0  0  0
  5  4  1  0  0  0  0
  6  4  1  6  0  0  0
  6  2  1  0  0  0  0
  7 10  1  0  0  0  0
  7  3  1  0  0  0  0
  8  7  1  0  0  0  0
  9  7  1  0  0  0  0
 11 12  1  0  0  0  0
 11  6  1  0  0  0  0
 13 11  1  0  0  0  0
 14 11  1  0  0  0  0
 15 24  2  0  0  0  0
 15 22  1  0  0  0  0
 16 17  1  0  0  0  0
 16 18  2  0  0  0  0
 18 19  1  0  0  0  0
 20 18  1  0  0  0  0
 20 21  1  0  0  0  0
 22 20  2  0  0  0  0
 23 22  1  0  0  0  0
 24 16  1  0  0  0  0
 25 24  1  0  0  0  0
 26 25  3  0  0  0  0
 27 35  1  0  0  0  0
 28 27  2  0  0  0  0
 28 29  1  0  0  0  0
 29 31  2  0  0  0  0
 30 29  1  0  0  0  0
 31 32  1  0  0  0  0
 31 33  1  0  0  0  0
 33 34  1  0  0  0  0
 35 36  1  0  0  0  0
 35 33  2  0  0  0  0
 37 28  1  0  0  0  0
 38 37  3  0  0  0  0
M  END
