3,4
q = 0.0, confidence = 0.998

 37 39  0  0  1  0  0  0  0  0999 V2000
    1.3882    2.3823    0.3375 O   0  0  0  0  0  0  0  0  0  0  0  0
    1.7255    0.6914   -1.5839 N   0  0  0  0  0  0  0  0  0  0  0  0
    1.3312   -2.1870   -1.1650 N   0  0  0  0  0  2  0  0  0  0  0  0
   -0.9804   -0.4147   -1.6262 N   0  0  0  0  0  2  0  0  0  0  0  0
    1.2398   -0.2111   -2.6305 C   0  0  1  0  0  0  0  0  0  0  0  0
    1.6670    0.0786   -3.6145 H   0  0  0  0  0  0  0  0  0  0  0  0
    1.6746   -1.6544   -2.3628 C   0  0  1  0  0  3  0  0  0  0  0  0
    2.4190   -2.3821   -3.3047 C   0  0  0  0  0  0  0  0  0  0  0  0
    2.6797   -1.9221   -4.2693 H   0  0  0  0  0  0  0  0  0  0  0  0
    2.8270   -3.6884   -2.9969 C   0  0  0  0  0  0  0  0  0  0  0  0
    3.4153   -4.2736   -3.7193 H   0  0  0  0  0  0  0  0  0  0  0  0
    2.4789   -4.2286   -1.7508 C   0  0  0  0  0  0  0  0  0  0  0  0
    2.7830   -5.2445   -1.4611 H   0  0  0  0  0  0  0  0  0  0  0  0
    1.7302   -3.4406   -0.8681 C   0  0  0  0  0  0  0  0  0  0  0  0
    1.4341   -3.8213    0.1235 H   0  0  0  0  0  0  0  0  0  0  0  0
   -0.2740   -0.1075   -2.7397 C   0  0  1  0  0  3  0  0  0  0  0  0
   -0.9058    0.2711   -3.9328 C   0  0  0  0  0  0  0  0  0  0  0  0
   -0.3001    0.5206   -4.8163 H   0  0  0  0  0  0  0  0  0  0  0  0
   -2.3054    0.3430   -3.9745 C   0  0  0  0  0  0  0  0  0  0  0  0
   -2.8211    0.6561   -4.8942 H   0  0  0  0  0  0  0  0  0  0  0  0
   -3.0310    0.0115   -2.8216 C   0  0  0  0  0  0  0  0  0  0  0  0
   -4.1287    0.0595   -2.7984 H   0  0  0  0  0  0  0  0  0  0  0  0
   -2.3279   -0.3691   -1.6751 C   0  0  0  0  0  0  0  0  0  0  0  0
   -2.8546   -0.6384   -0.7476 H   0  0  0  0  0  0  0  0  0  0  0  0
    3.0061    0.9305   -1.5199 C   0  0  0  0  0  0  0  0  0  0  0  0
    3.7235    0.4420   -2.2204 H   0  0  0  0  0  0  0  0  0  0  0  0
    3.5704    1.8250   -0.5348 C   0  0  0  0  0  0  0  0  0  0  0  0
    4.9748    2.0068   -0.4463 C   0  0  0  0  0  0  0  0  0  0  0  0
    5.6220    1.4638   -1.1539 H   0  0  0  0  0  0  0  0  0  0  0  0
    5.5306    2.8487    0.5137 C   0  0  0  0  0  0  0  0  0  0  0  0
    6.6197    2.9830    0.5752 H   0  0  0  0  0  0  0  0  0  0  0  0
    4.6750    3.5393    1.4027 C   0  0  0  0  0  0  0  0  0  0  0  0
    5.1073    4.2123    2.1591 H   0  0  0  0  0  0  0  0  0  0  0  0
    3.2888    3.3904    1.3364 C   0  0  0  0  0  0  0  0  0  0  0  0
    2.6162    3.9259    2.0214 H   0  0  0  0  0  0  0  0  0  0  0  0
    2.7106    2.5318    0.3740 C   0  0  0  0  0  0  0  0  0  0  0  0
    1.1818    1.7285   -0.4212 H   0  0  0  0  0  0  0  0  0  0  0  0
  1 36  1  0  0  0  0
  2 25  2  0  0  0  0
  3 14  1  0  0  0  0
  5  6  1  6  0  0  0
  5  2  1  0  0  0  0
  7  5  1  1  0  0  0
  7  3  1  0  0  0  0
  8 10  2  0  0  0  0
  8  7  1  0  0  0  0
  9  8  1  0  0  0  0
 10 12  1  0  0  0  0
 11 10  1  0  0  0  0
 12 13  1  0  0  0  0
 12 14  2  0  0  0  0
 14 15  1  0  0  0  0
 16  5  1  6  0  0  0
 16  4  1  0  0  0  0
 17 16  1  0  0  0  0
 18 17  1  0  0  0  0
 19 17  2  0  0  0  0
 19 21  1  0  0  0  0
 20 19  1  0  0  0  0
 21 22  1  0  0  0  0
 21 23  2  0  0  0  0
 23  4  1  0  0  0  0
 23 24  1  0  0  0  0
 25 27  1  0  0  0  0
 26 25  1  0  0  0  0
 27 28  2  0  0  0  0
 27 36  1  0  0  0  0
 28 30  1  0  0  0  0
 29 28  1  0  0  0  0
 30 31  1  0  0  0  0
 30 32  2  0  0  0  0
 32 33  1  0  0  0  0
 34 32  1  0  0  0  0
 34 35  1  0  0  0  0
 36 34  2  0  0  0  0
 37  1  1  0  0  0  0
M  END
