4,5
q = -1.0, confidence = 0.016

 15 14  0  0  0  0  0  0  0  0999 V2000
   -0.6214    0.8783   -2.1682 O   0  0  0  0  0  0  0  0  0  0  0  0
   -0.3327    1.4115   -1.2664 H   0  0  0  0  0  0  0  0  0  0  0  0
   -4.2724   -1.9066    0.0999 O   0  0  0  0  0  1  0  0  0  0  0  0
   -3.4100   -1.2798   -0.6436 N   0  0  0  0  0  2  0  0  0  0  0  0
   -1.6114    0.0772   -1.7361 N   0  0  0  0  0  2  0  0  0  0  0  0
   -3.2588   -1.5446   -1.9373 C   0  0  0  0  0  0  0  0  0  0  0  0
   -2.2111   -0.7502   -2.5683 C   0  0  0  0  0  0  0  0  0  0  0  0
   -1.8552   -0.8456   -4.0175 C   0  0  0  0  0  0  0  0  0  0  0  0
   -0.8692   -0.3805   -4.1961 H   0  0  0  0  0  0  0  0  0  0  0  0
   -2.6028   -0.3135   -4.6445 H   0  0  0  0  0  0  0  0  0  0  0  0
   -1.8352   -1.8998   -4.3565 H   0  0  0  0  0  0  0  0  0  0  0  0
   -4.0888   -2.5637   -2.6500 C   0  0  0  0  0  0  0  0  0  0  0  0
   -4.8981   -2.8988   -1.9758 H   0  0  0  0  0  0  0  0  0  0  0  0
   -3.4893   -3.4529   -2.9414 H   0  0  0  0  0  0  0  0  0  0  0  0
   -4.5348   -2.1499   -3.5773 H   0  0  0  0  0  0  0  0  0  0  0  0
  1  5  1  0  0  0  0
  1  2  1  0  0  0  0
  4  3  1  0  0  0  0
  6  4  1  0  0  0  0
  7  6  2  0  0  0  0
  7  5  1  0  0  0  0
  8  7  1  0  0  0  0
  9  8  1  0  0  0  0
 10  8  1  0  0  0  0
 11  8  1  0  0  0  0
 12 13  1  0  0  0  0
 12  6  1  0  0  0  0
 14 12  1  0  0  0  0
 15 12  1  0  0  0  0
M  END
