1,14
q = -1.0

 32 31  0  0  0  0  0  0  0  0999 V2000
   -1.0713   -1.2302    0.8050 N   0  0  0  0  0  2  0  0  0  0  0  0
   -4.1458    0.2390    2.0707 C   0  0  0  0  0  0  0  0  0  0  0  0
   -3.6090    1.2040    2.0285 H   0  0  0  0  0  0  0  0  0  0  0  0
   -4.2915   -0.0231    3.1439 H   0  0  0  0  0  0  0  0  0  0  0  0
   -5.1556    0.3731    1.6181 H   0  0  0  0  0  0  0  0  0  0  0  0
   -3.3700   -0.7931    1.4131 N   0  0  0  0  0  0  0  0  0  0  0  0
   -0.8038   -2.2781    1.7848 C   0  0  0  0  0  0  0  0  0  0  0  0
   -1.6682   -2.3466    2.4812 H   0  0  0  0  0  0  0  0  0  0  0  0
   -2.1929   -0.4984    0.7357 C   0  0  0  0  0  3  0  0  0  0  0  0
   -3.0285    2.7488   -0.7106 C   0  0  0  0  0  0  0  0  0  0  0  0
   -2.9651    3.1169    0.3337 H   0  0  0  0  0  0  0  0  0  0  0  0
   -3.8896    3.2447   -1.2020 H   0  0  0  0  0  0  0  0  0  0  0  0
   -2.1039    3.0532   -1.2409 H   0  0  0  0  0  0  0  0  0  0  0  0
   -2.0476    0.5824   -0.0719 N   0  0  0  0  0  2  0  0  0  0  0  0
   -3.1812    1.2253   -0.7517 C   0  0  0  0  0  0  0  0  0  0  0  0
   -4.1162    0.9580   -0.2157 H   0  0  0  0  0  0  0  0  0  0  0  0
   -3.9202   -2.1328    1.4646 C   0  0  0  0  0  0  0  0  0  0  0  0
   -3.3236   -2.8147    0.8335 H   0  0  0  0  0  0  0  0  0  0  0  0
   -4.9613   -2.1290    1.0674 H   0  0  0  0  0  0  0  0  0  0  0  0
   -3.9567   -2.5448    2.4994 H   0  0  0  0  0  0  0  0  0  0  0  0
    0.4322   -1.9435    2.6315 C   0  0  0  0  0  0  0  0  0  0  0  0
    0.3029   -0.9856    3.1711 H   0  0  0  0  0  0  0  0  0  0  0  0
    1.3210   -1.8533    1.9768 H   0  0  0  0  0  0  0  0  0  0  0  0
    0.6187   -2.7414    3.3784 H   0  0  0  0  0  0  0  0  0  0  0  0
   -0.6199   -3.6312    1.0820 C   0  0  0  0  0  0  0  0  0  0  0  0
   -1.5039   -3.8981    0.4695 H   0  0  0  0  0  0  0  0  0  0  0  0
   -0.4450   -4.4412    1.8188 H   0  0  0  0  0  0  0  0  0  0  0  0
    0.2484   -3.5867    0.3953 H   0  0  0  0  0  0  0  0  0  0  0  0
   -3.3339    0.7048   -2.1899 C   0  0  0  0  0  0  0  0  0  0  0  0
   -3.4404   -0.3984   -2.2006 H   0  0  0  0  0  0  0  0  0  0  0  0
   -2.4481    0.9705   -2.8006 H   0  0  0  0  0  0  0  0  0  0  0  0
   -4.2306    1.1455   -2.6720 H   0  0  0  0  0  0  0  0  0  0  0  0
  1  7  1  0  0  0  0
  2  4  1  0  0  0  0
  3  2  1  0  0  0  0
  5  2  1  0  0  0  0
  6 17  1  0  0  0  0
  6  2  1  0  0  0  0
  7  8  1  0  0  0  0
  7 21  1  0  0  0  0
  9  1  1  0  0  0  0
  9  6  1  0  0  0  0
 10 11  1  0  0  0  0
 12 10  1  0  0  0  0
 13 10  1  0  0  0  0
 14  9  1  0  0  0  0
 15 10  1  0  0  0  0
 15 16  1  0  0  0  0
 15 14  1  0  0  0  0
 17 20  1  0  0  0  0
 18 17  1  0  0  0  0
 19 17  1  0  0  0  0
 21 22  1  0  0  0  0
 21 24  1  0  0  0  0
 23 21  1  0  0  0  0
 25  7  1  0  0  0  0
 25 27  1  0  0  0  0
 26 25  1  0  0  0  0
 28 25  1  0  0  0  0
 29 15  1  0  0  0  0
 30 29  1  0  0  0  0
 31 29  1  0  0  0  0
 32 29  1  0  0  0  0
M  END
