1,24
q = 0.0, confidence = 0.998

 44 45  0  0  0  0  0  0  0  0999 V2000
    1.0231    1.3194    0.0001 N   0  0  0  0  0  2  0  0  0  0  0  0
    0.9330    2.6681    0.0001 C   0  0  0  0  0  0  0  0  0  0  0  0
    2.0594    3.4871    0.0000 C   0  0  0  0  0  0  0  0  0  0  0  0
    3.3569    2.9247   -0.0000 C   0  0  0  0  0  0  0  0  0  0  0  0
    3.4262    1.5225   -0.0000 C   0  0  0  0  0  0  0  0  0  0  0  0
    2.2593    0.7376    0.0001 C   0  0  0  0  0  0  0  0  0  0  0  0
    4.5989    3.8235   -0.0003 C   0  0  0  0  0  0  0  0  0  0  0  0
    4.5694    4.7139    1.2637 C   0  0  0  0  0  0  0  0  0  0  0  0
    5.9028    3.0080    0.0002 C   0  0  0  0  0  0  0  0  0  0  0  0
    4.5695    4.7128   -1.2651 C   0  0  0  0  0  0  0  0  0  0  0  0
   -0.0950    3.0655    0.0001 H   0  0  0  0  0  0  0  0  0  0  0  0
    1.9125    4.5764    0.0000 H   0  0  0  0  0  0  0  0  0  0  0  0
    4.4001    1.0198   -0.0001 H   0  0  0  0  0  0  0  0  0  0  0  0
    4.5837    4.0989    2.1858 H   0  0  0  0  0  0  0  0  0  0  0  0
    5.4557    5.3801    1.2797 H   0  0  0  0  0  0  0  0  0  0  0  0
    3.6670    5.3556    1.2975 H   0  0  0  0  0  0  0  0  0  0  0  0
    6.7723    3.6945    0.0001 H   0  0  0  0  0  0  0  0  0  0  0  0
    5.9893    2.3657    0.8999 H   0  0  0  0  0  0  0  0  0  0  0  0
    5.9896    2.3652   -0.8992 H   0  0  0  0  0  0  0  0  0  0  0  0
    3.6670    5.3544   -1.2996 H   0  0  0  0  0  0  0  0  0  0  0  0
    5.4558    5.3790   -1.2817 H   0  0  0  0  0  0  0  0  0  0  0  0
    4.5839    4.0969   -2.1867 H   0  0  0  0  0  0  0  0  0  0  0  0
    2.2593   -0.7376    0.0001 C   0  0  0  0  0  0  0  0  0  0  0  0
    1.0231   -1.3194    0.0000 N   0  0  0  0  0  2  0  0  0  0  0  0
    0.9330   -2.6681    0.0000 C   0  0  0  0  0  0  0  0  0  0  0  0
    2.0594   -3.4871    0.0001 C   0  0  0  0  0  0  0  0  0  0  0  0
    3.3569   -2.9247    0.0002 C   0  0  0  0  0  0  0  0  0  0  0  0
    3.4262   -1.5225    0.0001 C   0  0  0  0  0  0  0  0  0  0  0  0
    4.4002   -1.0198    0.0002 H   0  0  0  0  0  0  0  0  0  0  0  0
    4.5989   -3.8235    0.0002 C   0  0  0  0  0  0  0  0  0  0  0  0
    4.5693   -4.7137    1.2643 C   0  0  0  0  0  0  0  0  0  0  0  0
    4.5835   -4.0984    2.1863 H   0  0  0  0  0  0  0  0  0  0  0  0
    5.4556   -5.3799    1.2806 H   0  0  0  0  0  0  0  0  0  0  0  0
    3.6669   -5.3554    1.2982 H   0  0  0  0  0  0  0  0  0  0  0  0
    5.9028   -3.0080    0.0005 C   0  0  0  0  0  0  0  0  0  0  0  0
    6.7723   -3.6945    0.0006 H   0  0  0  0  0  0  0  0  0  0  0  0
    5.9892   -2.3656    0.9002 H   0  0  0  0  0  0  0  0  0  0  0  0
    5.9896   -2.3653   -0.8989 H   0  0  0  0  0  0  0  0  0  0  0  0
    4.5696   -4.7131   -1.2645 C   0  0  0  0  0  0  0  0  0  0  0  0
    3.6672   -5.3547   -1.2989 H   0  0  0  0  0  0  0  0  0  0  0  0
    5.4559   -5.3793   -1.2808 H   0  0  0  0  0  0  0  0  0  0  0  0
    4.5841   -4.0973   -2.1862 H   0  0  0  0  0  0  0  0  0  0  0  0
    1.9125   -4.5764    0.0001 H   0  0  0  0  0  0  0  0  0  0  0  0
   -0.0949   -3.0655   -0.0000 H   0  0  0  0  0  0  0  0  0  0  0  0
  2  1  1  0  0  0  0
  2 11  1  0  0  0  0
  3  2  2  0  0  0  0
  4  5  2  0  0  0  0
  4  3  1  0  0  0  0
  5  6  1  0  0  0  0
  6 23  2  0  0  0  0
  6  1  1  0  0  0  0
  7  4  1  0  0  0  0
  7  9  1  0  0  0  0
  7  8  1  0  0  0  0
  8 15  1  0  0  0  0
  8 16  1  0  0  0  0
  8 14  1  0  0  0  0
  9 18  1  0  0  0  0
 10  7  1  0  0  0  0
 12  3  1  0  0  0  0
 13  5  1  0  0  0  0
 17  9  1  0  0  0  0
 19  9  1  0  0  0  0
 20 10  1  0  0  0  0
 21 10  1  0  0  0  0
 22 10  1  0  0  0  0
 23 28  1  0  0  0  0
 24 25  1  0  0  0  0
 24 23  1  0  0  0  0
 25 26  2  0  0  0  0
 26 27  1  0  0  0  0
 28 27  2  0  0  0  0
 28 29  1  0  0  0  0
 30 27  1  0  0  0  0
 30 35  1  0  0  0  0
 30 31  1  0  0  0  0
 31 33  1  0  0  0  0
 31 34  1  0  0  0  0
 31 32  1  0  0  0  0
 35 36  1  0  0  0  0
 35 37  1  0  0  0  0
 38 35  1  0  0  0  0
 39 30  1  0  0  0  0
 40 39  1  0  0  0  0
 41 39  1  0  0  0  0
 42 39  1  0  0  0  0
 43 26  1  0  0  0  0
 44 25  1  0  0  0  0
M  END
