40,42
q = 0.0, confidence = 0.984

 43 46  0  0  1  0  0  0  0  0999 V2000
    1.1919   -2.5458    0.2985 C   0  0  0  0  0  0  0  0  0  0  0  0
    0.5034   -3.3783    0.0565 H   0  0  0  0  0  0  0  0  0  0  0  0
    1.1449   -2.4042    1.3974 H   0  0  0  0  0  0  0  0  0  0  0  0
    2.6206   -2.8432   -0.1513 C   0  0  0  0  0  0  0  0  0  0  0  0
    3.0660   -3.6344    0.4878 H   0  0  0  0  0  0  0  0  0  0  0  0
    2.5991   -3.2716   -1.1798 H   0  0  0  0  0  0  0  0  0  0  0  0
    3.5028   -1.6121   -0.1548 C   0  0  0  0  0  0  0  0  0  0  0  0
    4.9033   -1.7464   -0.2560 C   0  0  0  0  0  0  0  0  0  0  0  0
    5.3393   -2.7580   -0.2873 H   0  0  0  0  0  0  0  0  0  0  0  0
    5.7388   -0.6258   -0.3187 C   0  0  0  0  0  0  0  0  0  0  0  0
    6.8290   -0.7547   -0.3953 H   0  0  0  0  0  0  0  0  0  0  0  0
    5.1769    0.6619   -0.2912 C   0  0  0  0  0  0  0  0  0  0  0  0
    5.8214    1.5515   -0.3564 H   0  0  0  0  0  0  0  0  0  0  0  0
    3.7894    0.8073   -0.1860 C   0  0  0  0  0  0  0  0  0  0  0  0
    3.3443    1.8152   -0.1757 H   0  0  0  0  0  0  0  0  0  0  0  0
    2.9402   -0.3162   -0.1091 C   0  0  0  0  0  0  0  0  0  0  0  0
    1.4351   -0.1033    0.0307 C   0  0  2  0  0  0  0  0  0  0  0  0
    1.1300    0.6802   -0.6945 H   0  0  0  0  0  0  0  0  0  0  0  0
    1.0735    0.4265    1.4392 C   0  0  0  0  0  0  0  0  0  0  0  0
    1.0605   -0.4139    2.1666 H   0  0  0  0  0  0  0  0  0  0  0  0
    1.9097    1.0699    1.7740 H   0  0  0  0  0  0  0  0  0  0  0  0
   -0.2379    1.2339    1.5788 C   0  0  1  0  0  0  0  0  0  0  0  0
   -0.1899    1.7310    2.5835 H   0  0  0  0  0  0  0  0  0  0  0  0
   -0.3617    2.3561    0.5529 C   0  0  0  0  0  0  0  0  0  0  0  0
    0.7272    3.2299    0.3463 C   0  0  0  0  0  0  0  0  0  0  0  0
    1.6448    3.1037    0.9418 H   0  0  0  0  0  0  0  0  0  0  0  0
    0.6628    4.2645   -0.5944 C   0  0  0  0  0  0  0  0  0  0  0  0
    1.5261    4.9314   -0.7393 H   0  0  0  0  0  0  0  0  0  0  0  0
   -0.5110    4.4456   -1.3444 C   0  0  0  0  0  0  0  0  0  0  0  0
   -0.5751    5.2523   -2.0902 H   0  0  0  0  0  0  0  0  0  0  0  0
   -1.6079    3.6059   -1.1223 C   0  0  0  0  0  0  0  0  0  0  0  0
   -2.5404    3.7598   -1.6883 H   0  0  0  0  0  0  0  0  0  0  0  0
   -1.5593    2.5626   -0.1738 C   0  0  0  0  0  0  0  0  0  0  0  0
   -2.7728    1.7036    0.0829 C   0  0  0  0  0  0  0  0  0  0  0  0
   -3.6946    2.3161    0.0085 H   0  0  0  0  0  0  0  0  0  0  0  0
   -2.8629    0.8994   -0.6858 H   0  0  0  0  0  0  0  0  0  0  0  0
   -2.6928    1.0197    1.4412 C   0  0  0  0  0  0  0  0  0  0  0  0
   -2.8168    1.7632    2.2674 H   0  0  0  0  0  0  0  0  0  0  0  0
   -3.4863    0.2500    1.5180 H   0  0  0  0  0  0  0  0  0  0  0  0
    0.6584   -1.3182   -0.3363 N   0  0  0  0  0  0  0  0  0  0  0  0
    0.7417   -1.4394   -1.3561 H   0  0  0  0  0  0  0  0  0  0  0  0
   -1.3969    0.3293    1.5245 N   0  0  0  0  0  0  0  0  0  0  0  0
   -1.3804   -0.2755    2.3550 H   0  0  0  0  0  0  0  0  0  0  0  0
  1  3  1  0  0  0  0
  2  1  1  0  0  0  0
  4  1  1  0  0  0  0
  4  5  1  0  0  0  0
  6  4  1  0  0  0  0
  7  4  1  0  0  0  0
  7 16  1  0  0  0  0
  8  7  2  0  0  0  0
  9  8  1  0  0  0  0
 10 12  2  0  0  0  0
 10  8  1  0  0  0  0
 11 10  1  0  0  0  0
 12 14  1  0  0  0  0
 13 12  1  0  0  0  0
 14 15  1  0  0  0  0
 14 16  2  0  0  0  0
 16 17  1  0  0  0  0
 17 18  1  6  0  0  0
 17 19  1  0  0  0  0
 19 22  1  0  0  0  0
 19 21  1  0  0  0  0
 19 20  1  0  0  0  0
 22 23  1  1  0  0  0
 24 22  1  0  0  0  0
 25 24  1  0  0  0  0
 25 26  1  0  0  0  0
 27 25  2  0  0  0  0
 28 27  1  0  0  0  0
 29 31  2  0  0  0  0
 29 27  1  0  0  0  0
 30 29  1  0  0  0  0
 31 33  1  0  0  0  0
 32 31  1  0  0  0  0
 33 34  1  0  0  0  0
 33 24  2  0  0  0  0
 34 37  1  0  0  0  0
 35 34  1  0  0  0  0
 36 34  1  0  0  0  0
 37 39  1  0  0  0  0
 37 42  1  0  0  0  0
 37 38  1  0  0  0  0
 40 17  1  0  0  0  0
 40  1  1  0  0  0  0
 41 40  1  0  0  0  0
 42 22  1  0  0  0  0
 42 43  1  0  0  0  0
M  END
