3,4
q = 0.0, confidence = 1.0

 51 52  0  0  1  0  0  0  0  0999 V2000
    2.1044   -2.8716   -0.9218 O   0  0  0  0  0  0  0  0  0  0  0  0
   -2.6521   -2.6822   -0.4585 O   0  0  0  0  0  0  0  0  0  0  0  0
    1.2580   -0.8976   -0.1735 N   0  0  0  0  0  2  0  0  0  0  0  0
   -1.4419   -0.7625   -0.2684 N   0  0  0  0  0  2  0  0  0  0  0  0
    2.7606   -0.7234   -0.2396 C   0  0  1  0  0  0  0  0  0  0  0  0
    2.9721    0.2451   -0.7260 H   0  0  0  0  0  0  0  0  0  0  0  0
    3.4870   -0.7316    1.1516 C   0  0  0  0  0  0  0  0  0  0  0  0
    2.9581   -1.8631    2.0494 C   0  0  0  0  0  0  0  0  0  0  0  0
    1.8913   -1.7028    2.2969 H   0  0  0  0  0  0  0  0  0  0  0  0
    3.5276   -1.8924    3.0005 H   0  0  0  0  0  0  0  0  0  0  0  0
    3.0581   -2.8562    1.5656 H   0  0  0  0  0  0  0  0  0  0  0  0
    5.0029   -0.9164    0.9236 C   0  0  0  0  0  0  0  0  0  0  0  0
    5.3890   -0.2095    0.1588 H   0  0  0  0  0  0  0  0  0  0  0  0
    5.2772   -1.9457    0.6158 H   0  0  0  0  0  0  0  0  0  0  0  0
    5.5450   -0.7076    1.8678 H   0  0  0  0  0  0  0  0  0  0  0  0
    3.2911    0.6258    1.8452 C   0  0  0  0  0  0  0  0  0  0  0  0
    2.2212    0.8839    1.8941 H   0  0  0  0  0  0  0  0  0  0  0  0
    3.8002    1.4350    1.2836 H   0  0  0  0  0  0  0  0  0  0  0  0
    3.7147    0.5992    2.8700 H   0  0  0  0  0  0  0  0  0  0  0  0
    3.1382   -1.8913   -1.1596 C   0  0  0  0  0  0  0  0  0  0  0  0
    3.0941   -1.6008   -2.2329 H   0  0  0  0  0  0  0  0  0  0  0  0
    4.1126   -2.3634   -0.9502 H   0  0  0  0  0  0  0  0  0  0  0  0
    1.0292   -2.1589   -0.4911 C   0  0  2  0  0  3  0  0  0  0  0  0
   -0.2412   -2.9656   -0.3920 C   0  0  0  0  0  0  0  0  0  0  0  0
   -1.4400   -2.0662   -0.3415 C   0  0  2  0  0  3  0  0  0  0  0  0
   -3.6312   -1.6414   -0.2512 C   0  0  0  0  0  0  0  0  0  0  0  0
   -4.0179   -1.7280    0.7872 H   0  0  0  0  0  0  0  0  0  0  0  0
   -4.4622   -1.8055   -0.9616 H   0  0  0  0  0  0  0  0  0  0  0  0
   -2.8535   -0.3256   -0.4648 C   0  0  2  0  0  0  0  0  0  0  0  0
   -3.1132    0.4099    0.3229 H   0  0  0  0  0  0  0  0  0  0  0  0
   -3.0713    0.3678   -1.8486 C   0  0  0  0  0  0  0  0  0  0  0  0
   -4.5706    0.6714   -2.0270 C   0  0  0  0  0  0  0  0  0  0  0  0
   -4.9701    1.2466   -1.1658 H   0  0  0  0  0  0  0  0  0  0  0  0
   -5.1806   -0.2477   -2.1395 H   0  0  0  0  0  0  0  0  0  0  0  0
   -4.7293    1.2814   -2.9392 H   0  0  0  0  0  0  0  0  0  0  0  0
   -2.5716   -0.5315   -2.9924 C   0  0  0  0  0  0  0  0  0  0  0  0
   -1.4788   -0.6993   -2.9153 H   0  0  0  0  0  0  0  0  0  0  0  0
   -2.7730   -0.0564   -3.9736 H   0  0  0  0  0  0  0  0  0  0  0  0
   -3.0699   -1.5224   -2.9891 H   0  0  0  0  0  0  0  0  0  0  0  0
   -2.3021    1.6972   -1.8574 C   0  0  0  0  0  0  0  0  0  0  0  0
   -1.2388    1.5367   -1.5734 H   0  0  0  0  0  0  0  0  0  0  0  0
   -2.7296    2.4209   -1.1346 H   0  0  0  0  0  0  0  0  0  0  0  0
   -2.3178    2.1656   -2.8623 H   0  0  0  0  0  0  0  0  0  0  0  0
   -0.1852   -3.8409    0.8942 C   0  0  0  0  0  0  0  0  0  0  0  0
   -0.0991   -3.2032    1.7943 H   0  0  0  0  0  0  0  0  0  0  0  0
    0.6865   -4.5229    0.8526 H   0  0  0  0  0  0  0  0  0  0  0  0
   -1.1110   -4.4439    0.9708 H   0  0  0  0  0  0  0  0  0  0  0  0
   -0.3712   -3.8846   -1.6361 C   0  0  0  0  0  0  0  0  0  0  0  0
   -0.3995   -3.2846   -2.5671 H   0  0  0  0  0  0  0  0  0  0  0  0
   -1.3065   -4.4702   -1.5688 H   0  0  0  0  0  0  0  0  0  0  0  0
    0.4917   -4.5730   -1.6895 H   0  0  0  0  0  0  0  0  0  0  0  0
  1 23  1  0  0  0  0
  2 25  1  0  0  0  0
  2 26  1  0  0  0  0
  5  6  1  6  0  0  0
  5  3  1  0  0  0  0
  5  7  1  0  0  0  0
  7 16  1  0  0  0  0
  7  8  1  0  0  0  0
  8  9  1  0  0  0  0
  8 10  1  0  0  0  0
 11  8  1  0  0  0  0
 12  7  1  0  0  0  0
 12 15  1  0  0  0  0
 13 12  1  0  0  0  0
 14 12  1  0  0  0  0
 16 17  1  0  0  0  0
 16 19  1  0  0  0  0
 18 16  1  0  0  0  0
 20 22  1  0  0  0  0
 20  1  1  0  0  0  0
 20  5  1  0  0  0  0
 21 20  1  0  0  0  0
 23 24  1  1  0  0  0
 23  3  1  0  0  0  0
 24 44  1  0  0  0  0
 25 24  1  6  0  0  0
 25  4  1  0  0  0  0
 26 27  1  0  0  0  0
 28 26  1  0  0  0  0
 29  4  1  0  0  0  0
 29 26  1  0  0  0  0
 29 30  1  1  0  0  0
 31 29  1  0  0  0  0
 32 31  1  0  0  0  0
 32 33  1  0  0  0  0
 34 32  1  0  0  0  0
 35 32  1  0  0  0  0
 36 39  1  0  0  0  0
 36 37  1  0  0  0  0
 36 31  1  0  0  0  0
 38 36  1  0  0  0  0
 40 31  1  0  0  0  0
 40 41  1  0  0  0  0
 40 42  1  0  0  0  0
 43 40  1  0  0  0  0
 44 47  1  0  0  0  0
 44 45  1  0  0  0  0
 46 44  1  0  0  0  0
 48 50  1  0  0  0  0
 48 24  1  0  0  0  0
 49 48  1  0  0  0  0
 51 48  1  0  0  0  0
M  END
