1,2
q = 0.0, confidence = 0.976

 35 35  0  0  0  0  0  0  0  0999 V2000
    0.8258   -1.2866   -0.0224 N   0  0  0  0  0  2  0  0  0  0  0  0
    0.7494    1.3346   -0.0459 N   0  0  0  0  0  2  0  0  0  0  0  0
    1.9663   -0.6782   -0.2876 C   0  0  0  0  0  0  0  0  0  0  0  0
    3.2751   -1.3439   -0.6577 C   0  0  0  0  0  0  0  0  0  0  0  0
    3.1342   -2.4051   -0.9220 H   0  0  0  0  0  0  0  0  0  0  0  0
    3.6337   -0.8202   -1.5740 H   0  0  0  0  0  0  0  0  0  0  0  0
    4.3098   -1.1733    0.4236 C   0  0  0  0  0  0  0  0  0  0  0  0
    4.6387   -2.0609    0.9879 H   0  0  0  0  0  0  0  0  0  0  0  0
    4.8526    0.0441    0.6866 C   0  0  0  0  0  0  0  0  0  0  0  0
    5.6773    0.1235    1.4141 H   0  0  0  0  0  0  0  0  0  0  0  0
    4.4404    1.2579    0.0047 C   0  0  0  0  0  0  0  0  0  0  0  0
    5.2101    2.0390   -0.1207 H   0  0  0  0  0  0  0  0  0  0  0  0
    3.1789    1.5653   -0.4412 C   0  0  0  0  0  0  0  0  0  0  0  0
    3.0591    2.5501   -0.9173 H   0  0  0  0  0  0  0  0  0  0  0  0
    1.9499    0.7864   -0.2581 C   0  0  0  0  0  0  0  0  0  0  0  0
    0.8040   -2.7583    0.1255 C   0  0  0  0  0  0  0  0  0  0  0  0
    1.8515   -3.1102    0.2280 H   0  0  0  0  0  0  0  0  0  0  0  0
    0.2068   -3.4209   -1.1210 C   0  0  0  0  0  0  0  0  0  0  0  0
   -0.8528   -3.1331   -1.2560 H   0  0  0  0  0  0  0  0  0  0  0  0
    0.2560   -4.5236   -1.0220 H   0  0  0  0  0  0  0  0  0  0  0  0
    0.7628   -3.1270   -2.0337 H   0  0  0  0  0  0  0  0  0  0  0  0
    0.0906   -3.1619    1.4201 C   0  0  0  0  0  0  0  0  0  0  0  0
    0.5172   -2.6232    2.2887 H   0  0  0  0  0  0  0  0  0  0  0  0
    0.2236   -4.2500    1.5850 H   0  0  0  0  0  0  0  0  0  0  0  0
   -0.9935   -2.9518    1.3804 H   0  0  0  0  0  0  0  0  0  0  0  0
    0.6678    2.7991    0.1519 C   0  0  0  0  0  0  0  0  0  0  0  0
    1.6992    3.1818    0.2938 H   0  0  0  0  0  0  0  0  0  0  0  0
    0.0772    3.4726   -1.0926 C   0  0  0  0  0  0  0  0  0  0  0  0
    0.6667    3.2252   -1.9982 H   0  0  0  0  0  0  0  0  0  0  0  0
    0.0807    4.5734   -0.9638 H   0  0  0  0  0  0  0  0  0  0  0  0
   -0.9669    3.1482   -1.2632 H   0  0  0  0  0  0  0  0  0  0  0  0
   -0.0902    3.1497    1.4370 C   0  0  0  0  0  0  0  0  0  0  0  0
   -1.1670    2.9119    1.3667 H   0  0  0  0  0  0  0  0  0  0  0  0
    0.0086    4.2372    1.6285 H   0  0  0  0  0  0  0  0  0  0  0  0
    0.3318    2.6048    2.3038 H   0  0  0  0  0  0  0  0  0  0  0  0
  1 16  1  0  0  0  0
  2 26  1  0  0  0  0
  3 15  2  0  0  0  0
  3  1  1  0  0  0  0
  4  3  1  0  0  0  0
  4  7  1  0  0  0  0
  5  4  1  0  0  0  0
  6  4  1  0  0  0  0
  7  9  2  0  0  0  0
  7  8  1  0  0  0  0
  9 10  1  0  0  0  0
 11  9  1  0  0  0  0
 12 11  1  0  0  0  0
 13 15  1  0  0  0  0
 13 11  2  0  0  0  0
 14 13  1  0  0  0  0
 15  2  1  0  0  0  0
 16 17  1  0  0  0  0
 16 22  1  0  0  0  0
 18 20  1  0  0  0  0
 18 16  1  0  0  0  0
 19 18  1  0  0  0  0
 21 18  1  0  0  0  0
 22 24  1  0  0  0  0
 22 23  1  0  0  0  0
 25 22  1  0  0  0  0
 26 27  1  0  0  0  0
 26 32  1  0  0  0  0
 28 30  1  0  0  0  0
 28 26  1  0  0  0  0
 29 28  1  0  0  0  0
 31 28  1  0  0  0  0
 32 34  1  0  0  0  0
 32 35  1  0  0  0  0
 33 32  1  0  0  0  0
M  END
