2,6
q = -1.0, confidence = 0.004

 58 59  0  0  1  0  0  0  0  0999 V2000
   -1.0965   -0.7322    1.9651 C   0  0  1  0  0  3  0  0  0  0  0  0
   -1.1681   -0.3002    0.6962 N   0  0  0  0  0  2  0  0  0  0  0  0
    0.1149   -1.0541    2.6211 C   0  0  0  0  0  0  0  0  0  0  0  0
    0.0113   -1.3713    3.6670 H   0  0  0  0  0  0  0  0  0  0  0  0
    1.4448   -0.9790    2.1392 C   0  0  0  0  0  0  0  0  0  0  0  0
    1.7481   -0.6124    0.8876 N   0  0  0  0  0  2  0  0  0  0  0  0
   -2.3795   -0.8627    2.7574 C   0  0  0  0  0  0  0  0  0  0  0  0
   -2.9025    0.1141    2.8140 H   0  0  0  0  0  0  0  0  0  0  0  0
   -2.1894   -1.2271    3.7828 H   0  0  0  0  0  0  0  0  0  0  0  0
   -3.0853   -1.5554    2.2552 H   0  0  0  0  0  0  0  0  0  0  0  0
    2.5504   -1.3043    3.1234 C   0  0  0  0  0  0  0  0  0  0  0  0
    2.9460   -2.3287    2.9663 H   0  0  0  0  0  0  0  0  0  0  0  0
    2.1796   -1.2432    4.1628 H   0  0  0  0  0  0  0  0  0  0  0  0
    3.4069   -0.6123    3.0013 H   0  0  0  0  0  0  0  0  0  0  0  0
   -2.4257    0.0156    0.1046 C   0  0  0  0  0  0  0  0  0  0  0  0
   -3.1608   -1.0016   -0.5658 C   0  0  0  0  0  0  0  0  0  0  0  0
   -4.3556   -0.6454   -1.2169 C   0  0  0  0  0  0  0  0  0  0  0  0
   -4.9350   -1.4186   -1.7431 H   0  0  0  0  0  0  0  0  0  0  0  0
   -4.8203    0.6764   -1.2092 C   0  0  0  0  0  0  0  0  0  0  0  0
   -5.7571    0.9348   -1.7259 H   0  0  0  0  0  0  0  0  0  0  0  0
   -4.0899    1.6665   -0.5413 C   0  0  0  0  0  0  0  0  0  0  0  0
   -4.4596    2.7034   -0.5376 H   0  0  0  0  0  0  0  0  0  0  0  0
   -2.8907    1.3584    0.1273 C   0  0  0  0  0  0  0  0  0  0  0  0
   -2.6264   -2.4288   -0.6227 C   0  0  0  0  0  0  0  0  0  0  0  0
   -1.9761   -2.5710    0.2651 H   0  0  0  0  0  0  0  0  0  0  0  0
   -1.7338   -2.6122   -1.8643 C   0  0  0  0  0  0  0  0  0  0  0  0
   -1.2848   -3.6265   -1.8885 H   0  0  0  0  0  0  0  0  0  0  0  0
   -0.9114   -1.8688   -1.8795 H   0  0  0  0  0  0  0  0  0  0  0  0
   -2.3215   -2.4707   -2.7949 H   0  0  0  0  0  0  0  0  0  0  0  0
   -3.7247   -3.4984   -0.5649 C   0  0  0  0  0  0  0  0  0  0  0  0
   -4.3908   -3.3538    0.3098 H   0  0  0  0  0  0  0  0  0  0  0  0
   -3.2743   -4.5090   -0.4908 H   0  0  0  0  0  0  0  0  0  0  0  0
   -4.3586   -3.4938   -1.4757 H   0  0  0  0  0  0  0  0  0  0  0  0
   -2.0764    2.4487    0.8149 C   0  0  0  0  0  0  0  0  0  0  0  0
   -1.3720    1.9428    1.5066 H   0  0  0  0  0  0  0  0  0  0  0  0
   -2.9352    3.4097    1.6488 C   0  0  0  0  0  0  0  0  0  0  0  0
   -3.5605    2.8622    2.3828 H   0  0  0  0  0  0  0  0  0  0  0  0
   -3.6148    4.0164    1.0153 H   0  0  0  0  0  0  0  0  0  0  0  0
   -2.2916    4.1192    2.2080 H   0  0  0  0  0  0  0  0  0  0  0  0
   -1.2257    3.2095   -0.2190 C   0  0  0  0  0  0  0  0  0  0  0  0
   -0.5654    2.5178   -0.7814 H   0  0  0  0  0  0  0  0  0  0  0  0
   -0.5896    3.9744    0.2743 H   0  0  0  0  0  0  0  0  0  0  0  0
   -1.8713    3.7246   -0.9603 H   0  0  0  0  0  0  0  0  0  0  0  0
    3.0711   -0.5131    0.4108 C   0  0  0  0  0  0  0  0  0  0  0  0
    3.4829    0.7502   -0.1102 C   0  0  0  0  0  0  0  0  0  0  0  0
    4.7507    0.8962   -0.6966 C   0  0  0  0  0  0  0  0  0  0  0  0
    5.0693    1.8675   -1.0982 H   0  0  0  0  0  0  0  0  0  0  0  0
    5.6212   -0.2060   -0.7694 C   0  0  0  0  0  0  0  0  0  0  0  0
    6.6120   -0.0804   -1.2310 H   0  0  0  0  0  0  0  0  0  0  0  0
    5.2263   -1.4534   -0.2696 C   0  0  0  0  0  0  0  0  0  0  0  0
    5.8998   -2.3202   -0.3415 H   0  0  0  0  0  0  0  0  0  0  0  0
    3.9557   -1.6017    0.3103 C   0  0  0  0  0  0  0  0  0  0  0  0
    3.6191   -2.5851    0.6692 H   0  0  0  0  0  0  0  0  0  0  0  0
    2.5592    1.7503    0.0038 O   0  0  0  0  0  0  0  0  0  0  0  0
    2.8180    2.9823   -0.6448 C   0  0  0  0  0  0  0  0  0  0  0  0
    1.9157    3.6043   -0.4989 H   0  0  0  0  0  0  0  0  0  0  0  0
    2.9902    2.8420   -1.7346 H   0  0  0  0  0  0  0  0  0  0  0  0
    3.6957    3.5035   -0.2020 H   0  0  0  0  0  0  0  0  0  0  0  0
  1  2  1  1  0  0  0
  1  3  1  0  0  0  0
  1  7  1  0  0  0  0
  3  4  1  0  0  0  0
  5  3  2  0  0  0  0
  5 11  1  0  0  0  0
  6  5  1  0  0  0  0
  7  8  1  0  0  0  0
  7  9  1  0  0  0  0
 10  7  1  0  0  0  0
 11 13  1  0  0  0  0
 12 11  1  0  0  0  0
 14 11  1  0  0  0  0
 15 23  1  0  0  0  0
 15  2  1  0  0  0  0
 16 15  2  0  0  0  0
 17 19  2  0  0  0  0
 17 16  1  0  0  0  0
 18 17  1  0  0  0  0
 19 21  1  0  0  0  0
 20 19  1  0  0  0  0
 21 22  1  0  0  0  0
 21 23  2  0  0  0  0
 23 34  1  0  0  0  0
 24 16  1  0  0  0  0
 24 30  1  0  0  0  0
 24 25  1  0  0  0  0
 26 24  1  0  0  0  0
 27 26  1  0  0  0  0
 28 26  1  0  0  0  0
 29 26  1  0  0  0  0
 30 32  1  0  0  0  0
 30 31  1  0  0  0  0
 33 30  1  0  0  0  0
 34 35  1  0  0  0  0
 34 36  1  0  0  0  0
 36 39  1  0  0  0  0
 36 37  1  0  0  0  0
 38 36  1  0  0  0  0
 40 42  1  0  0  0  0
 40 34  1  0  0  0  0
 41 40  1  0  0  0  0
 43 40  1  0  0  0  0
 44  6  1  0  0  0  0
 45 54  1  0  0  0  0
 45 44  2  0  0  0  0
 46 45  1  0  0  0  0
 47 46  1  0  0  0  0
 48 46  2  0  0  0  0
 48 50  1  0  0  0  0
 49 48  1  0  0  0  0
 50 52  2  0  0  0  0
 51 50  1  0  0  0  0
 52 44  1  0  0  0  0
 52 53  1  0  0  0  0
 55 56  1  0  0  0  0
 55 58  1  0  0  0  0
 55 54  1  0  0  0  0
 57 55  1  0  0  0  0
M  END
