2,15
q = 0.0, confidence = 1.0

 44 47  0  0  0  0  0  0  0  0999 V2000
   -3.6729   -1.4284   -0.1160 C   0  0  0  0  0  0  0  0  0  0  0  0
   -1.2430   -1.3719   -0.1387 N   0  0  0  0  0  2  0  0  0  0  0  0
   -2.3629   -3.4802   -0.0389 C   0  0  0  0  0  0  0  0  0  0  0  0
   -2.2910   -4.5767    0.0155 H   0  0  0  0  0  0  0  0  0  0  0  0
    1.2458    2.4887    0.4397 N   0  0  0  0  0  0  0  0  0  0  0  0
    2.1374    2.6133   -0.0529 H   0  0  0  0  0  0  0  0  0  0  0  0
   -3.5997    2.8480   -0.0723 C   0  0  0  0  0  0  0  0  0  0  0  0
   -4.5290    3.4374   -0.0501 H   0  0  0  0  0  0  0  0  0  0  0  0
   -3.6729    1.4285   -0.1160 C   0  0  0  0  0  0  0  0  0  0  0  0
   -2.3629    3.4802   -0.0389 C   0  0  0  0  0  0  0  0  0  0  0  0
   -2.2909    4.5767    0.0155 H   0  0  0  0  0  0  0  0  0  0  0  0
    1.4164   -2.4712    1.8908 C   0  0  0  0  0  0  0  0  0  0  0  0
    1.9227   -3.3897    2.2710 H   0  0  0  0  0  0  0  0  0  0  0  0
    0.4058   -2.4608    2.3557 H   0  0  0  0  0  0  0  0  0  0  0  0
   -1.2430    1.3719   -0.1387 N   0  0  0  0  0  2  0  0  0  0  0  0
    1.4601   -0.0000    2.1345 N   0  0  0  0  0  0  0  0  0  0  0  0
    0.6025   -0.0000    2.7037 H   0  0  0  0  0  0  0  0  0  0  0  0
   -1.1768    2.6991   -0.0766 C   0  0  0  0  0  0  0  0  0  0  0  0
   -4.9052    0.6882   -0.1155 C   0  0  0  0  0  0  0  0  0  0  0  0
   -5.8543    1.2448   -0.1067 H   0  0  0  0  0  0  0  0  0  0  0  0
    2.2044   -1.2432    2.3603 C   0  0  0  0  0  0  0  0  0  0  0  0
    2.4817   -1.3787    3.4318 H   0  0  0  0  0  0  0  0  0  0  0  0
    3.1554   -1.1739    1.7894 H   0  0  0  0  0  0  0  0  0  0  0  0
   -2.4305    0.7258   -0.1426 C   0  0  0  0  0  0  0  0  0  0  0  0
    2.2044    1.2431    2.3603 C   0  0  0  0  0  0  0  0  0  0  0  0
    2.4817    1.3787    3.4318 H   0  0  0  0  0  0  0  0  0  0  0  0
    3.1554    1.1739    1.7894 H   0  0  0  0  0  0  0  0  0  0  0  0
    0.2046    3.3483   -0.0908 C   0  0  0  0  0  0  0  0  0  0  0  0
    0.4506    3.5753   -1.1511 H   0  0  0  0  0  0  0  0  0  0  0  0
    0.1363    4.3349    0.4265 H   0  0  0  0  0  0  0  0  0  0  0  0
   -2.4305   -0.7257   -0.1426 C   0  0  0  0  0  0  0  0  0  0  0  0
    1.2457   -2.4887    0.4397 N   0  0  0  0  0  0  0  0  0  0  0  0
    2.1374   -2.6133   -0.0529 H   0  0  0  0  0  0  0  0  0  0  0  0
   -1.1769   -2.6991   -0.0766 C   0  0  0  0  0  0  0  0  0  0  0  0
   -4.9052   -0.6882   -0.1155 C   0  0  0  0  0  0  0  0  0  0  0  0
   -5.8543   -1.2447   -0.1067 H   0  0  0  0  0  0  0  0  0  0  0  0
    1.4164    2.4711    1.8908 C   0  0  0  0  0  0  0  0  0  0  0  0
    0.4058    2.4607    2.3557 H   0  0  0  0  0  0  0  0  0  0  0  0
    1.9227    3.3896    2.2710 H   0  0  0  0  0  0  0  0  0  0  0  0
    0.2046   -3.3483   -0.0908 C   0  0  0  0  0  0  0  0  0  0  0  0
    0.1362   -4.3349    0.4264 H   0  0  0  0  0  0  0  0  0  0  0  0
    0.4506   -3.5752   -1.1512 H   0  0  0  0  0  0  0  0  0  0  0  0
   -3.5997   -2.8479   -0.0723 C   0  0  0  0  0  0  0  0  0  0  0  0
   -4.5290   -3.4374   -0.0501 H   0  0  0  0  0  0  0  0  0  0  0  0
  1 35  1  0  0  0  0
  1 43  2  0  0  0  0
  2 34  1  0  0  0  0
  3  4  1  0  0  0  0
  5 37  1  0  0  0  0
  6  5  1  0  0  0  0
  7  8  1  0  0  0  0
  7 10  1  0  0  0  0
  9 19  1  0  0  0  0
  9  7  2  0  0  0  0
 10 11  1  0  0  0  0
 12 13  1  0  0  0  0
 12 14  1  0  0  0  0
 12 21  1  0  0  0  0
 15 18  1  0  0  0  0
 16 21  1  0  0  0  0
 16 25  1  0  0  0  0
 16 17  1  0  0  0  0
 18 10  2  0  0  0  0
 19 35  2  0  0  0  0
 19 20  1  0  0  0  0
 21 22  1  0  0  0  0
 23 21  1  0  0  0  0
 24 31  2  0  0  0  0
 24 15  1  0  0  0  0
 24  9  1  0  0  0  0
 25 26  1  0  0  0  0
 27 25  1  0  0  0  0
 28 18  1  0  0  0  0
 28 30  1  0  0  0  0
 28  5  1  0  0  0  0
 29 28  1  0  0  0  0
 31  2  1  0  0  0  0
 31  1  1  0  0  0  0
 32 12  1  0  0  0  0
 33 32  1  0  0  0  0
 34  3  2  0  0  0  0
 35 36  1  0  0  0  0
 37 39  1  0  0  0  0
 37 38  1  0  0  0  0
 37 25  1  0  0  0  0
 40 34  1  0  0  0  0
 40 41  1  0  0  0  0
 40 32  1  0  0  0  0
 42 40  1  0  0  0  0
 43 44  1  0  0  0  0
 43  3  1  0  0  0  0
M  END
