1,5
q = 0.0, confidence = 0.996

 31 33  0  0  0  0  0  0  0  0999 V2000
   -0.8762    1.7184   -0.3818 N   0  0  0  0  0  2  0  0  0  0  0  0
    0.2038    2.5038   -0.5729 N   0  0  0  0  0  0  0  0  0  0  0  0
    1.5481   -0.0000    0.0205 N   0  0  0  0  0  0  0  0  0  0  0  0
    0.2037   -2.5038   -0.5729 N   0  0  0  0  0  0  0  0  0  0  0  0
   -0.8762   -1.7183   -0.3818 N   0  0  0  0  0  2  0  0  0  0  0  0
   -1.7842    2.0856   -1.3017 C   0  0  0  0  0  3  0  0  0  0  0  0
   -2.7593    1.5801   -1.2854 H   0  0  0  0  0  0  0  0  0  0  0  0
   -1.2726    3.1264   -2.1077 C   0  0  0  0  0  0  0  0  0  0  0  0
   -1.7708    3.6457   -2.9320 H   0  0  0  0  0  0  0  0  0  0  0  0
    0.0073    3.3670   -1.6094 C   0  0  0  0  0  0  0  0  0  0  0  0
    0.7796    4.0893   -1.8962 H   0  0  0  0  0  0  0  0  0  0  0  0
    1.3770    2.3812    0.2767 C   0  0  0  0  0  0  0  0  0  0  0  0
    1.0196    2.2651    1.3254 H   0  0  0  0  0  0  0  0  0  0  0  0
    1.9631    3.3138    0.1894 H   0  0  0  0  0  0  0  0  0  0  0  0
    2.2195    1.1573   -0.0183 C   0  0  0  0  0  0  0  0  0  0  0  0
    3.6151    1.2094   -0.1812 C   0  0  0  0  0  0  0  0  0  0  0  0
    4.1409    2.1753   -0.2145 H   0  0  0  0  0  0  0  0  0  0  0  0
    4.3179   -0.0001   -0.2830 C   0  0  0  0  0  0  0  0  0  0  0  0
    5.4096   -0.0001   -0.4211 H   0  0  0  0  0  0  0  0  0  0  0  0
    3.6150   -1.2095   -0.1812 C   0  0  0  0  0  0  0  0  0  0  0  0
    4.1408   -2.1755   -0.2145 H   0  0  0  0  0  0  0  0  0  0  0  0
    2.2195   -1.1573   -0.0183 C   0  0  0  0  0  0  0  0  0  0  0  0
    1.3769   -2.3812    0.2767 C   0  0  0  0  0  0  0  0  0  0  0  0
    1.9630   -3.3139    0.1894 H   0  0  0  0  0  0  0  0  0  0  0  0
    1.0195   -2.2651    1.3254 H   0  0  0  0  0  0  0  0  0  0  0  0
    0.0071   -3.3670   -1.6094 C   0  0  0  0  0  3  0  0  0  0  0  0
    0.7794   -4.0894   -1.8961 H   0  0  0  0  0  0  0  0  0  0  0  0
   -1.2727   -3.1264   -2.1077 C   0  0  0  0  0  0  0  0  0  0  0  0
   -1.7710   -3.6457   -2.9320 H   0  0  0  0  0  0  0  0  0  0  0  0
   -1.7842   -2.0855   -1.3017 C   0  0  0  0  0  0  0  0  0  0  0  0
   -2.7593   -1.5799   -1.2855 H   0  0  0  0  0  0  0  0  0  0  0  0
  2  1  1  0  0  0  0
  2 12  1  0  0  0  0
  4  5  1  0  0  0  0
  4 23  1  0  0  0  0
  6  7  1  0  0  0  0
  6  1  1  0  0  0  0
  8 10  2  0  0  0  0
  8  6  1  0  0  0  0
  9  8  1  0  0  0  0
 10  2  1  0  0  0  0
 11 10  1  0  0  0  0
 12 13  1  0  0  0  0
 14 12  1  0  0  0  0
 15  3  2  0  0  0  0
 15 12  1  0  0  0  0
 16 15  1  0  0  0  0
 17 16  1  0  0  0  0
 18 20  1  0  0  0  0
 18 16  2  0  0  0  0
 19 18  1  0  0  0  0
 20 22  2  0  0  0  0
 21 20  1  0  0  0  0
 22  3  1  0  0  0  0
 22 23  1  0  0  0  0
 23 25  1  0  0  0  0
 24 23  1  0  0  0  0
 26  4  1  0  0  0  0
 27 26  1  0  0  0  0
 28 26  1  0  0  0  0
 28 30  2  0  0  0  0
 29 28  1  0  0  0  0
 30 31  1  0  0  0  0
 30  5  1  0  0  0  0
M  END
