5,6
q = -2.0, confidence = 0.916

 56 59  0  0  0  0  0  0  0  0999 V2000
    2.6103    1.3360    1.7429 Se  0  0  0  0  0  1  0  0  0  0  0  0
   -2.4943   -2.8135    0.1752 Se  0  0  0  0  0  1  0  0  0  0  0  0
    2.9162    0.0680    0.0091 P   0  0  0  0  0  4  0  0  0  0  0  0
   -2.5890   -0.7452   -0.3577 P   0  0  0  0  0  4  0  0  0  0  0  0
    1.4118    0.0344   -0.6537 N   0  0  0  0  0  2  0  0  0  0  0  0
   -1.1396    0.0448   -0.7187 N   0  0  0  0  0  2  0  0  0  0  0  0
    0.9047   -0.9104   -1.6389 C   0  0  0  0  0  0  0  0  0  0  0  0
    0.8496   -1.9439   -1.2226 H   0  0  0  0  0  0  0  0  0  0  0  0
    1.5335   -0.9473   -2.5591 H   0  0  0  0  0  0  0  0  0  0  0  0
   -0.5020   -0.4100   -1.9666 C   0  0  0  0  0  0  0  0  0  0  0  0
   -0.4345    0.4375   -2.6905 H   0  0  0  0  0  0  0  0  0  0  0  0
   -1.0849   -1.2131   -2.4680 H   0  0  0  0  0  0  0  0  0  0  0  0
    3.5066   -1.6161    0.4186 C   0  0  0  0  0  0  0  0  0  0  0  0
    3.4755   -2.0828    1.7462 C   0  0  0  0  0  0  0  0  0  0  0  0
    3.1906   -1.3840    2.5491 H   0  0  0  0  0  0  0  0  0  0  0  0
    3.8073   -3.4166    2.0256 C   0  0  0  0  0  0  0  0  0  0  0  0
    3.7863   -3.7783    3.0647 H   0  0  0  0  0  0  0  0  0  0  0  0
    4.1655   -4.2871    0.9836 C   0  0  0  0  0  0  0  0  0  0  0  0
    4.4235   -5.3338    1.2052 H   0  0  0  0  0  0  0  0  0  0  0  0
    4.1962   -3.8239   -0.3422 C   0  0  0  0  0  0  0  0  0  0  0  0
    4.4767   -4.5055   -1.1594 H   0  0  0  0  0  0  0  0  0  0  0  0
    3.8688   -2.4909   -0.6286 C   0  0  0  0  0  0  0  0  0  0  0  0
    3.9009   -2.1279   -1.6678 H   0  0  0  0  0  0  0  0  0  0  0  0
    4.1242    0.7271   -1.1934 C   0  0  0  0  0  0  0  0  0  0  0  0
    3.6440    1.5473   -2.2332 C   0  0  0  0  0  0  0  0  0  0  0  0
    2.5607    1.7312   -2.3102 H   0  0  0  0  0  0  0  0  0  0  0  0
    4.5448    2.1133   -3.1465 C   0  0  0  0  0  0  0  0  0  0  0  0
    4.1700    2.7499   -3.9624 H   0  0  0  0  0  0  0  0  0  0  0  0
    5.9221    1.8679   -3.0204 C   0  0  0  0  0  0  0  0  0  0  0  0
    6.6278    2.3130   -3.7382 H   0  0  0  0  0  0  0  0  0  0  0  0
    6.4011    1.0543   -1.9797 C   0  0  0  0  0  0  0  0  0  0  0  0
    7.4805    0.8631   -1.8814 H   0  0  0  0  0  0  0  0  0  0  0  0
    5.5058    0.4819   -1.0649 C   0  0  0  0  0  0  0  0  0  0  0  0
    5.8788   -0.1595   -0.2515 H   0  0  0  0  0  0  0  0  0  0  0  0
   -3.6393   -0.4901   -1.8641 C   0  0  0  0  0  0  0  0  0  0  0  0
   -3.5482    0.7158   -2.5893 C   0  0  0  0  0  0  0  0  0  0  0  0
   -2.8248    1.4850   -2.2795 H   0  0  0  0  0  0  0  0  0  0  0  0
   -4.3668    0.9261   -3.7085 C   0  0  0  0  0  0  0  0  0  0  0  0
   -4.2890    1.8673   -4.2745 H   0  0  0  0  0  0  0  0  0  0  0  0
   -5.2802   -0.0633   -4.1088 C   0  0  0  0  0  0  0  0  0  0  0  0
   -5.9219    0.1031   -4.9877 H   0  0  0  0  0  0  0  0  0  0  0  0
   -5.3678   -1.2667   -3.3906 C   0  0  0  0  0  0  0  0  0  0  0  0
   -6.0779   -2.0468   -3.7056 H   0  0  0  0  0  0  0  0  0  0  0  0
   -4.5477   -1.4820   -2.2724 C   0  0  0  0  0  0  0  0  0  0  0  0
   -4.5840   -2.4253   -1.7024 H   0  0  0  0  0  0  0  0  0  0  0  0
   -3.4403    0.3058    0.8916 C   0  0  0  0  0  0  0  0  0  0  0  0
   -4.1900   -0.3101    1.9085 C   0  0  0  0  0  0  0  0  0  0  0  0
   -4.1780   -1.4109    1.9746 H   0  0  0  0  0  0  0  0  0  0  0  0
   -4.9262    0.4725    2.8128 C   0  0  0  0  0  0  0  0  0  0  0  0
   -5.5108   -0.0162    3.6073 H   0  0  0  0  0  0  0  0  0  0  0  0
   -4.9173    1.8718    2.7042 C   0  0  0  0  0  0  0  0  0  0  0  0
   -5.4951    2.4851    3.4126 H   0  0  0  0  0  0  0  0  0  0  0  0
   -4.1683    2.4887    1.6871 C   0  0  0  0  0  0  0  0  0  0  0  0
   -4.1564    3.5861    1.5980 H   0  0  0  0  0  0  0  0  0  0  0  0
   -3.4349    1.7116    0.7793 C   0  0  0  0  0  0  0  0  0  0  0  0
   -2.8360    2.1968   -0.0024 H   0  0  0  0  0  0  0  0  0  0  0  0
  3 13  1  0  0  0  0
  3  1  1  0  0  0  0
  4  2  1  0  0  0  0
  4 46  1  0  0  0  0
  5  3  1  0  0  0  0
  6  4  1  0  0  0  0
  7  8  1  0  0  0  0
  7  5  1  0  0  0  0
  9  7  1  0  0  0  0
 10  7  1  0  0  0  0
 10  6  1  0  0  0  0
 11 10  1  0  0  0  0
 12 10  1  0  0  0  0
 13 14  1  0  0  0  0
 14 16  2  0  0  0  0
 14 15  1  0  0  0  0
 16 17  1  0  0  0  0
 18 19  1  0  0  0  0
 18 16  1  0  0  0  0
 20 18  2  0  0  0  0
 21 20  1  0  0  0  0
 22 20  1  0  0  0  0
 22 13  2  0  0  0  0
 23 22  1  0  0  0  0
 24 33  1  0  0  0  0
 24  3  1  0  0  0  0
 25 24  2  0  0  0  0
 26 25  1  0  0  0  0
 27 29  2  0  0  0  0
 27 25  1  0  0  0  0
 28 27  1  0  0  0  0
 29 31  1  0  0  0  0
 30 29  1  0  0  0  0
 31 32  1  0  0  0  0
 31 33  2  0  0  0  0
 33 34  1  0  0  0  0
 35  4  1  0  0  0  0
 36 37  1  0  0  0  0
 36 35  2  0  0  0  0
 38 36  1  0  0  0  0
 39 38  1  0  0  0  0
 40 38  2  0  0  0  0
 40 42  1  0  0  0  0
 41 40  1  0  0  0  0
 42 44  2  0  0  0  0
 43 42  1  0  0  0  0
 44 35  1  0  0  0  0
 44 45  1  0  0  0  0
 46 47  1  0  0  0  0
 47 48  1  0  0  0  0
 47 49  2  0  0  0  0
 49 50  1  0  0  0  0
 51 49  1  0  0  0  0
 51 52  1  0  0  0  0
 53 51  2  0  0  0  0
 54 53  1  0  0  0  0
 55 46  2  0  0  0  0
 55 53  1  0  0  0  0
 56 55  1  0  0  0  0
M  END
