3,4
q = 0.0, confidence = 0.998

 47 51  0  0  1  0  0  0  0  0999 V2000
   -1.9946    2.2202   -1.4191 O   0  0  0  0  0  0  0  0  0  0  0  0
   -1.6684    1.8216   -2.2498 H   0  0  0  0  0  0  0  0  0  0  0  0
    1.5391    0.3165   -0.1267 N   0  0  0  0  0  2  0  0  0  0  0  0
   -0.7985   -0.8172   -0.5841 N   0  0  0  0  0  2  0  0  0  0  0  0
   -0.7673    0.5313   -0.2403 N   0  0  0  0  0  0  0  0  0  0  0  0
    0.4684    1.1302   -0.0894 C   0  0  0  0  0  0  0  0  0  0  0  0
    0.5742    2.5383    0.0981 C   0  0  0  0  0  0  0  0  0  0  0  0
   -0.3351    3.1495    0.1171 H   0  0  0  0  0  0  0  0  0  0  0  0
    1.8200    3.1275    0.2185 C   0  0  0  0  0  0  0  0  0  0  0  0
    2.9839    2.2958    0.0718 C   0  0  0  0  0  0  0  0  0  0  0  0
    2.8032    0.8811   -0.1360 C   0  0  2  0  0  3  0  0  0  0  0  0
    3.9408    0.0723   -0.3955 C   0  0  0  0  0  0  0  0  0  0  0  0
    3.7907   -1.0016   -0.5635 H   0  0  0  0  0  0  0  0  0  0  0  0
    5.2128    0.6310   -0.3993 C   0  0  0  0  0  0  0  0  0  0  0  0
    6.0803   -0.0140   -0.6051 H   0  0  0  0  0  0  0  0  0  0  0  0
    5.4040    2.0098   -0.1434 C   0  0  0  0  0  0  0  0  0  0  0  0
    6.4183    2.4358   -0.1387 H   0  0  0  0  0  0  0  0  0  0  0  0
    4.3041    2.8266    0.0810 C   0  0  0  0  0  0  0  0  0  0  0  0
    4.4478    3.9027    0.2516 H   0  0  0  0  0  0  0  0  0  0  0  0
    1.9430    4.6063    0.4549 C   0  0  0  0  0  0  0  0  0  0  0  0
    0.9494    5.0844    0.5387 H   0  0  0  0  0  0  0  0  0  0  0  0
    2.4961    5.1020   -0.3698 H   0  0  0  0  0  0  0  0  0  0  0  0
    2.5074    4.8156    1.3871 H   0  0  0  0  0  0  0  0  0  0  0  0
   -2.0704    1.2069   -0.4425 C   0  0  2  0  0  0  0  0  0  0  0  0
   -2.9687   -0.0167   -0.8290 C   0  0  1  0  0  0  0  0  0  0  0  0
   -3.4810    0.1750   -1.7977 H   0  0  0  0  0  0  0  0  0  0  0  0
   -2.0020   -1.1634   -0.9624 C   0  0  1  0  0  3  0  0  0  0  0  0
   -2.6337    1.8122    0.8730 C   0  0  0  0  0  0  0  0  0  0  0  0
   -1.8385    1.8569    1.6406 H   0  0  0  0  0  0  0  0  0  0  0  0
   -2.9654    2.8510    0.6729 H   0  0  0  0  0  0  0  0  0  0  0  0
   -3.7631    0.9013    1.3324 C   0  0  2  0  0  0  0  0  0  0  0  0
   -3.8294    0.6751    2.4079 H   0  0  0  0  0  0  0  0  0  0  0  0
   -3.9703   -0.2064    0.3110 C   0  0  1  0  0  0  0  0  0  0  0  0
   -4.1806   -1.2388    0.6327 H   0  0  0  0  0  0  0  0  0  0  0  0
   -5.0501    0.8434    0.5209 C   0  0  0  0  0  0  0  0  0  0  0  0
   -5.3459    1.8810   -0.5467 C   0  0  0  0  0  0  0  0  0  0  0  0
   -6.0493    1.4693   -1.3008 H   0  0  0  0  0  0  0  0  0  0  0  0
   -4.4472    2.2371   -1.0853 H   0  0  0  0  0  0  0  0  0  0  0  0
   -5.8332    2.7696   -0.0938 H   0  0  0  0  0  0  0  0  0  0  0  0
   -6.2859    0.3701    1.2681 C   0  0  0  0  0  0  0  0  0  0  0  0
   -7.0201   -0.0857    0.5714 H   0  0  0  0  0  0  0  0  0  0  0  0
   -6.7867    1.2190    1.7786 H   0  0  0  0  0  0  0  0  0  0  0  0
   -6.0355   -0.3867    2.0382 H   0  0  0  0  0  0  0  0  0  0  0  0
   -2.3850   -2.5032   -1.4683 C   0  0  0  0  0  0  0  0  0  0  0  0
   -1.5019   -3.1604   -1.5658 H   0  0  0  0  0  0  0  0  0  0  0  0
   -2.9244   -2.3922   -2.4333 H   0  0  0  0  0  0  0  0  0  0  0  0
   -3.0840   -3.0003   -0.7622 H   0  0  0  0  0  0  0  0  0  0  0  0
  2  1  1  0  0  0  0
  3  6  1  0  0  0  0
  4  5  1  0  0  0  0
  5  6  1  0  0  0  0
  6  7  2  0  0  0  0
  7  8  1  0  0  0  0
  7  9  1  0  0  0  0
  9 20  1  0  0  0  0
 10 18  1  0  0  0  0
 10  9  2  0  0  0  0
 11 12  1  6  0  0  0
 11  3  1  0  0  0  0
 11 10  1  0  0  0  0
 13 12  1  0  0  0  0
 14 12  2  0  0  0  0
 14 16  1  0  0  0  0
 15 14  1  0  0  0  0
 16 17  1  0  0  0  0
 16 18  2  0  0  0  0
 18 19  1  0  0  0  0
 20 21  1  0  0  0  0
 20 23  1  0  0  0  0
 22 20  1  0  0  0  0
 24  1  1  6  0  0  0
 24  5  1  0  0  0  0
 24 28  1  0  0  0  0
 25 26  1  6  0  0  0
 25 24  1  0  0  0  0
 25 33  1  0  0  0  0
 27 44  1  6  0  0  0
 27 25  1  0  0  0  0
 27  4  1  0  0  0  0
 28 31  1  0  0  0  0
 28 29  1  0  0  0  0
 30 28  1  0  0  0  0
 31 32  1  1  0  0  0
 33 35  1  0  0  0  0
 33 34  1  1  0  0  0
 33 31  1  0  0  0  0
 35 40  1  0  0  0  0
 35 31  1  0  0  0  0
 36 39  1  0  0  0  0
 36 35  1  0  0  0  0
 37 36  1  0  0  0  0
 38 36  1  0  0  0  0
 40 42  1  0  0  0  0
 40 43  1  0  0  0  0
 41 40  1  0  0  0  0
 44 47  1  0  0  0  0
 45 44  1  0  0  0  0
 46 44  1  0  0  0  0
M  END
