1,2
q = 0.0, confidence = 1.0

 47 50  0  0  0  0  0  0  0  0999 V2000
    3.6762   -1.3921   -0.3616 N   0  0  0  0  0  2  0  0  0  0  0  0
    3.6767    1.3916   -0.3628 N   0  0  0  0  0  2  0  0  0  0  0  0
    1.8107   -0.0001   -0.8925 N   0  0  0  0  0  0  0  0  0  0  0  0
  -11.6384    0.0001    0.5939 N   0  0  0  0  0  0  0  0  0  0  0  0
    4.3390   -2.5638   -0.4355 C   0  0  0  0  0  3  0  0  0  0  0  0
    3.7785   -3.7047   -1.0084 C   0  0  0  0  0  0  0  0  0  0  0  0
    2.4679   -3.6048   -1.5083 C   0  0  0  0  0  0  0  0  0  0  0  0
    1.7915   -2.3851   -1.4607 C   0  0  0  0  0  0  0  0  0  0  0  0
    2.4444   -1.2618   -0.8931 C   0  0  0  0  0  0  0  0  0  0  0  0
    4.3396    2.5632   -0.4371 C   0  0  0  0  0  3  0  0  0  0  0  0
    3.7790    3.7041   -1.0097 C   0  0  0  0  0  0  0  0  0  0  0  0
    2.4681    3.6044   -1.5089 C   0  0  0  0  0  0  0  0  0  0  0  0
    1.7915    2.3848   -1.4608 C   0  0  0  0  0  0  0  0  0  0  0  0
    2.4445    1.2614   -0.8936 C   0  0  0  0  0  0  0  0  0  0  0  0
    0.3658   -0.0001   -0.8807 C   0  0  0  0  0  0  0  0  0  0  0  0
   -0.3845   -0.0001   -2.0688 C   0  0  0  0  0  0  0  0  0  0  0  0
   -1.7822   -0.0001   -1.9998 C   0  0  0  0  0  0  0  0  0  0  0  0
   -2.4592   -0.0001   -0.7539 C   0  0  0  0  0  0  0  0  0  0  0  0
   -1.6732   -0.0000    0.4272 C   0  0  0  0  0  0  0  0  0  0  0  0
   -0.2782   -0.0000    0.3706 C   0  0  0  0  0  0  0  0  0  0  0  0
   -3.9215   -0.0001   -0.7476 C   0  0  0  0  0  0  0  0  0  0  0  0
   -4.7313    0.0000    0.3472 C   0  0  0  0  0  0  0  0  0  0  0  0
   -6.1921    0.0000    0.3540 C   0  0  0  0  0  0  0  0  0  0  0  0
   -6.9794   -0.0003   -0.8268 C   0  0  0  0  0  0  0  0  0  0  0  0
   -8.3709   -0.0003   -0.7679 C   0  0  0  0  0  0  0  0  0  0  0  0
   -9.0338    0.0000    0.4854 C   0  0  0  0  0  0  0  0  0  0  0  0
   -8.2646    0.0003    1.6723 C   0  0  0  0  0  0  0  0  0  0  0  0
   -6.8711    0.0003    1.5987 C   0  0  0  0  0  0  0  0  0  0  0  0
  -10.4646    0.0000    0.5462 C   0  0  0  0  0  0  0  0  0  0  0  0
    5.3485   -2.5498    0.0106 H   0  0  0  0  0  0  0  0  0  0  0  0
    4.3416   -4.6473   -1.0437 H   0  0  0  0  0  0  0  0  0  0  0  0
    1.9710   -4.4807   -1.9520 H   0  0  0  0  0  0  0  0  0  0  0  0
    0.7774   -2.2927   -1.8672 H   0  0  0  0  0  0  0  0  0  0  0  0
    5.3494    2.5491    0.0085 H   0  0  0  0  0  0  0  0  0  0  0  0
    4.3422    4.6466   -1.0454 H   0  0  0  0  0  0  0  0  0  0  0  0
    1.9711    4.4804   -1.9524 H   0  0  0  0  0  0  0  0  0  0  0  0
    0.7772    2.2926   -1.8666 H   0  0  0  0  0  0  0  0  0  0  0  0
    0.1296   -0.0002   -3.0418 H   0  0  0  0  0  0  0  0  0  0  0  0
   -2.3723   -0.0002   -2.9294 H   0  0  0  0  0  0  0  0  0  0  0  0
   -2.1609    0.0000    1.4129 H   0  0  0  0  0  0  0  0  0  0  0  0
    0.3496    0.0001    1.2790 H   0  0  0  0  0  0  0  0  0  0  0  0
   -4.3844   -0.0002   -1.7489 H   0  0  0  0  0  0  0  0  0  0  0  0
   -4.2681    0.0002    1.3481 H   0  0  0  0  0  0  0  0  0  0  0  0
   -6.4914   -0.0005   -1.8122 H   0  0  0  0  0  0  0  0  0  0  0  0
   -8.9663   -0.0005   -1.6919 H   0  0  0  0  0  0  0  0  0  0  0  0
   -8.7721    0.0006    2.6472 H   0  0  0  0  0  0  0  0  0  0  0  0
   -6.2809    0.0006    2.5280 H   0  0  0  0  0  0  0  0  0  0  0  0
  3 15  1  0  0  0  0
  5  1  1  0  0  0  0
  5 30  1  0  0  0  0
  6  5  1  0  0  0  0
  7  8  1  0  0  0  0
  7  6  2  0  0  0  0
  8  9  2  0  0  0  0
  9  3  1  0  0  0  0
  9  1  1  0  0  0  0
 10  2  1  0  0  0  0
 10 34  1  0  0  0  0
 11 10  1  0  0  0  0
 12 13  1  0  0  0  0
 12 11  2  0  0  0  0
 13 14  2  0  0  0  0
 14  3  1  0  0  0  0
 14  2  1  0  0  0  0
 15 20  1  0  0  0  0
 16 17  1  0  0  0  0
 16 15  2  0  0  0  0
 17 18  2  0  0  0  0
 18 21  1  0  0  0  0
 18 19  1  0  0  0  0
 19 40  1  0  0  0  0
 20 19  2  0  0  0  0
 20 41  1  0  0  0  0
 21 22  2  0  0  0  0
 22 23  1  0  0  0  0
 22 43  1  0  0  0  0
 23 28  1  0  0  0  0
 24 25  1  0  0  0  0
 24 23  2  0  0  0  0
 25 26  2  0  0  0  0
 26 29  1  0  0  0  0
 26 27  1  0  0  0  0
 27 46  1  0  0  0  0
 28 27  2  0  0  0  0
 28 47  1  0  0  0  0
 29  4  3  0  0  0  0
 31  6  1  0  0  0  0
 32  7  1  0  0  0  0
 33  8  1  0  0  0  0
 35 11  1  0  0  0  0
 36 12  1  0  0  0  0
 37 13  1  0  0  0  0
 38 16  1  0  0  0  0
 39 17  1  0  0  0  0
 42 21  1  0  0  0  0
 44 24  1  0  0  0  0
 45 25  1  0  0  0  0
M  END
