1,9
q = 0.0, confidence = 0.996

 28 30  0  0  0  0  0  0  0  0999 V2000
   -1.2446   -1.0670   -0.7760 N   0  0  0  0  0  2  0  0  0  0  0  0
   -2.3319   -0.3443   -0.3570 C   0  0  0  0  0  0  0  0  0  0  0  0
   -3.6624   -0.8438   -0.4205 C   0  0  0  0  0  0  0  0  0  0  0  0
   -3.8656   -2.1603   -0.9524 C   0  0  0  0  0  0  0  0  0  0  0  0
   -5.2379   -2.7542   -1.0673 C   0  0  0  0  0  0  0  0  0  0  0  0
   -2.7273   -2.8648   -1.3577 C   0  0  0  0  0  0  0  0  0  0  0  0
   -1.4401   -2.3009   -1.2604 C   0  0  0  0  0  0  0  0  0  0  0  0
   -4.7177    0.0037    0.0634 C   0  0  0  0  0  0  0  0  0  0  0  0
   -0.7395    1.3414    0.2247 N   0  0  0  0  0  2  0  0  0  0  0  0
   -2.0597    0.9545    0.1907 C   0  0  0  0  0  0  0  0  0  0  0  0
   -3.1181    1.7612    0.6959 C   0  0  0  0  0  0  0  0  0  0  0  0
   -2.7881    3.0280    1.2811 C   0  0  0  0  0  0  0  0  0  0  0  0
   -3.8464    3.9408    1.8243 C   0  0  0  0  0  0  0  0  0  0  0  0
   -1.4322    3.3677    1.3302 C   0  0  0  0  0  0  0  0  0  0  0  0
   -0.4442    2.5153    0.8022 C   0  0  0  0  0  0  0  0  0  0  0  0
   -4.4573    1.2467    0.5984 C   0  0  0  0  0  0  0  0  0  0  0  0
   -5.2020   -3.7722   -1.4960 H   0  0  0  0  0  0  0  0  0  0  0  0
   -5.8903   -2.1324   -1.7151 H   0  0  0  0  0  0  0  0  0  0  0  0
   -5.7352   -2.8157   -0.0771 H   0  0  0  0  0  0  0  0  0  0  0  0
   -2.8238   -3.8798   -1.7695 H   0  0  0  0  0  0  0  0  0  0  0  0
   -0.5307   -2.8330   -1.5837 H   0  0  0  0  0  0  0  0  0  0  0  0
   -5.7550   -0.3546    0.0119 H   0  0  0  0  0  0  0  0  0  0  0  0
   -4.5733    4.2258    1.0355 H   0  0  0  0  0  0  0  0  0  0  0  0
   -3.4078    4.8681    2.2357 H   0  0  0  0  0  0  0  0  0  0  0  0
   -4.4276    3.4486    2.6316 H   0  0  0  0  0  0  0  0  0  0  0  0
   -1.1172    4.3190    1.7828 H   0  0  0  0  0  0  0  0  0  0  0  0
    0.6200    2.7897    0.8405 H   0  0  0  0  0  0  0  0  0  0  0  0
   -5.2907    1.8606    0.9665 H   0  0  0  0  0  0  0  0  0  0  0  0
  1  2  1  0  0  0  0
  2 10  2  0  0  0  0
  3  2  1  0  0  0  0
  3  8  1  0  0  0  0
  4  3  2  0  0  0  0
  5  4  1  0  0  0  0
  5 19  1  0  0  0  0
  6  7  2  0  0  0  0
  6  4  1  0  0  0  0
  7  1  1  0  0  0  0
  8 16  2  0  0  0  0
  9 15  1  0  0  0  0
 10  9  1  0  0  0  0
 10 11  1  0  0  0  0
 11 12  2  0  0  0  0
 12 14  1  0  0  0  0
 12 13  1  0  0  0  0
 13 24  1  0  0  0  0
 13 25  1  0  0  0  0
 14 26  1  0  0  0  0
 15 27  1  0  0  0  0
 15 14  2  0  0  0  0
 16 11  1  0  0  0  0
 16 28  1  0  0  0  0
 17  5  1  0  0  0  0
 18  5  1  0  0  0  0
 20  6  1  0  0  0  0
 21  7  1  0  0  0  0
 22  8  1  0  0  0  0
 23 13  1  0  0  0  0
M  END
