1,31
q = 0.0, confidence = 0.996

 60 63  0  0  1  0  0  0  0  0999 V2000
    1.2103   -0.2205    0.4232 N   0  0  0  0  0  2  0  0  0  0  0  0
    0.7222    0.9808    0.1555 C   0  0  0  0  0  0  0  0  0  0  0  0
    1.6127    2.1525    0.0639 C   0  0  0  0  0  0  0  0  0  0  0  0
    2.8434    2.0933    0.7720 C   0  0  0  0  0  0  0  0  0  0  0  0
    3.7495    3.1573    0.6671 C   0  0  0  0  0  0  0  0  0  0  0  0
    4.7023    3.1076    1.2169 H   0  0  0  0  0  0  0  0  0  0  0  0
    3.4578    4.2686   -0.1408 C   0  0  0  0  0  0  0  0  0  0  0  0
    4.1783    5.0971   -0.2147 H   0  0  0  0  0  0  0  0  0  0  0  0
    2.2591    4.3109   -0.8710 C   0  0  0  0  0  0  0  0  0  0  0  0
    2.0401    5.1657   -1.5277 H   0  0  0  0  0  0  0  0  0  0  0  0
    1.3408    3.2583   -0.7732 C   0  0  0  0  0  0  0  0  0  0  0  0
    0.4152    3.2859   -1.3638 H   0  0  0  0  0  0  0  0  0  0  0  0
    3.1048    0.8383    1.5585 C   0  0  0  0  0  0  0  0  0  0  0  0
    2.5424    0.8635    2.5190 H   0  0  0  0  0  0  0  0  0  0  0  0
    4.1765    0.7401    1.8172 H   0  0  0  0  0  0  0  0  0  0  0  0
    2.6335   -0.3769    0.7515 C   0  0  2  0  0  0  0  0  0  0  0  0
    2.6843   -1.2969    1.3684 H   0  0  0  0  0  0  0  0  0  0  0  0
    3.4135   -0.6452   -0.5523 C   0  0  0  0  0  0  0  0  0  0  0  0
    2.9441   -1.5345   -1.0235 H   0  0  0  0  0  0  0  0  0  0  0  0
    3.2683    0.2082   -1.2494 H   0  0  0  0  0  0  0  0  0  0  0  0
    4.9185   -0.9097   -0.3698 C   0  0  0  0  0  0  0  0  0  0  0  0
    5.3901    0.0163    0.0343 H   0  0  0  0  0  0  0  0  0  0  0  0
    5.5543   -1.1846   -1.7392 C   0  0  0  0  0  0  0  0  0  0  0  0
    6.6512   -1.3225   -1.6525 H   0  0  0  0  0  0  0  0  0  0  0  0
    5.3701   -0.3523   -2.4491 H   0  0  0  0  0  0  0  0  0  0  0  0
    5.1328   -2.1085   -2.1881 H   0  0  0  0  0  0  0  0  0  0  0  0
    5.1960   -2.0597    0.6076 C   0  0  0  0  0  0  0  0  0  0  0  0
    4.8766   -1.8219    1.6425 H   0  0  0  0  0  0  0  0  0  0  0  0
    6.2788   -2.2961    0.6435 H   0  0  0  0  0  0  0  0  0  0  0  0
    4.6486   -2.9754    0.3028 H   0  0  0  0  0  0  0  0  0  0  0  0
   -1.2103   -0.2207   -0.4233 N   0  0  0  0  0  2  0  0  0  0  0  0
   -0.7224    0.9807   -0.1556 C   0  0  0  0  0  0  0  0  0  0  0  0
   -1.6130    2.1522   -0.0640 C   0  0  0  0  0  0  0  0  0  0  0  0
   -2.8438    2.0928   -0.7720 C   0  0  0  0  0  0  0  0  0  0  0  0
   -3.7501    3.1567   -0.6670 C   0  0  0  0  0  0  0  0  0  0  0  0
   -4.7028    3.1068   -1.2168 H   0  0  0  0  0  0  0  0  0  0  0  0
   -3.4584    4.2680    0.1407 C   0  0  0  0  0  0  0  0  0  0  0  0
   -4.1791    5.0964    0.2147 H   0  0  0  0  0  0  0  0  0  0  0  0
   -2.2597    4.3106    0.8708 C   0  0  0  0  0  0  0  0  0  0  0  0
   -2.0407    5.1655    1.5275 H   0  0  0  0  0  0  0  0  0  0  0  0
   -1.3413    3.2581    0.7730 C   0  0  0  0  0  0  0  0  0  0  0  0
   -0.4155    3.2859    1.3636 H   0  0  0  0  0  0  0  0  0  0  0  0
   -3.1050    0.8378   -1.5585 C   0  0  0  0  0  0  0  0  0  0  0  0
   -2.5427    0.8630   -2.5190 H   0  0  0  0  0  0  0  0  0  0  0  0
   -4.1768    0.7394   -1.8171 H   0  0  0  0  0  0  0  0  0  0  0  0
   -2.6335   -0.3773   -0.7515 C   0  0  2  0  0  0  0  0  0  0  0  0
   -2.6842   -1.2974   -1.3683 H   0  0  0  0  0  0  0  0  0  0  0  0
   -3.4133   -0.6456    0.5524 C   0  0  0  0  0  0  0  0  0  0  0  0
   -2.9440   -1.5350    1.0236 H   0  0  0  0  0  0  0  0  0  0  0  0
   -3.2680    0.2078    1.2495 H   0  0  0  0  0  0  0  0  0  0  0  0
   -4.9184   -0.9100    0.3701 C   0  0  0  0  0  0  0  0  0  0  0  0
   -5.3900    0.0161   -0.0339 H   0  0  0  0  0  0  0  0  0  0  0  0
   -5.5541   -1.1849    1.7395 C   0  0  0  0  0  0  0  0  0  0  0  0
   -6.6510   -1.3226    1.6530 H   0  0  0  0  0  0  0  0  0  0  0  0
   -5.3698   -0.3526    2.4495 H   0  0  0  0  0  0  0  0  0  0  0  0
   -5.1325   -2.1088    2.1884 H   0  0  0  0  0  0  0  0  0  0  0  0
   -5.1961   -2.0599   -0.6073 C   0  0  0  0  0  0  0  0  0  0  0  0
   -4.8768   -1.8221   -1.6422 H   0  0  0  0  0  0  0  0  0  0  0  0
   -6.2790   -2.2962   -0.6431 H   0  0  0  0  0  0  0  0  0  0  0  0
   -4.6488   -2.9757   -0.3025 H   0  0  0  0  0  0  0  0  0  0  0  0
  1 16  1  0  0  0  0
  2  1  1  0  0  0  0
  3  2  1  0  0  0  0
  3  4  1  0  0  0  0
  4 13  1  0  0  0  0
  5  4  2  0  0  0  0
  5  6  1  0  0  0  0
  7  5  1  0  0  0  0
  8  7  1  0  0  0  0
  9 11  1  0  0  0  0
  9  7  2  0  0  0  0
 10  9  1  0  0  0  0
 11  3  2  0  0  0  0
 12 11  1  0  0  0  0
 13 15  1  0  0  0  0
 13 14  1  0  0  0  0
 16 17  1  1  0  0  0
 16 13  1  0  0  0  0
 18 21  1  0  0  0  0
 18 16  1  0  0  0  0
 19 18  1  0  0  0  0
 20 18  1  0  0  0  0
 21 22  1  0  0  0  0
 21 27  1  0  0  0  0
 23 24  1  0  0  0  0
 23 21  1  0  0  0  0
 25 23  1  0  0  0  0
 26 23  1  0  0  0  0
 27 29  1  0  0  0  0
 27 28  1  0  0  0  0
 30 27  1  0  0  0  0
 31 32  1  0  0  0  0
 32 33  1  0  0  0  0
 32  2  2  0  0  0  0
 33 41  1  0  0  0  0
 34 35  1  0  0  0  0
 34 33  2  0  0  0  0
 35 37  2  0  0  0  0
 36 35  1  0  0  0  0
 37 38  1  0  0  0  0
 37 39  1  0  0  0  0
 39 40  1  0  0  0  0
 41 39  2  0  0  0  0
 41 42  1  0  0  0  0
 43 34  1  0  0  0  0
 43 46  1  0  0  0  0
 44 43  1  0  0  0  0
 45 43  1  0  0  0  0
 46 47  1  6  0  0  0
 46 31  1  0  0  0  0
 46 48  1  0  0  0  0
 48 49  1  0  0  0  0
 48 50  1  0  0  0  0
 51 48  1  0  0  0  0
 51 53  1  0  0  0  0
 52 51  1  0  0  0  0
 53 56  1  0  0  0  0
 53 55  1  0  0  0  0
 54 53  1  0  0  0  0
 57 60  1  0  0  0  0
 57 51  1  0  0  0  0
 58 57  1  0  0  0  0
 59 57  1  0  0  0  0
M  END
