6,7
q = -1.0

 26 27  0  0  1  0  0  0  0  0999 V2000
   -6.3228    1.5840    0.5143 O   0  0  0  0  0  0  0  0  0  0  0  0
   -0.7458   -1.6251   -2.9516 O   0  0  0  0  0  0  0  0  0  0  0  0
    1.3106   -1.8115   -1.7796 C   0  0  2  0  0  3  0  0  0  0  0  0
   -6.0939    0.6562   -0.2618 N   0  0  0  0  0  0  0  0  0  0  0  0
   -0.1531   -1.4975   -1.8779 C   0  0  0  0  0  0  0  0  0  0  0  0
    1.9043   -1.6393   -0.5719 N   0  0  0  0  0  2  0  0  0  0  0  0
   -0.6630   -1.0345   -0.6833 N   0  0  0  0  0  2  0  0  0  0  0  0
   -4.6846    0.2118   -0.3831 C   0  0  0  0  0  0  0  0  0  0  0  0
   -2.3751    0.4396    0.2500 C   0  0  0  0  0  0  0  0  0  0  0  0
   -1.5909    0.9362    0.8361 H   0  0  0  0  0  0  0  0  0  0  0  0
    4.0042   -2.3318   -1.5185 C   0  0  0  0  0  0  0  0  0  0  0  0
    5.0749   -2.5272   -1.3659 H   0  0  0  0  0  0  0  0  0  0  0  0
   -6.9296    0.0660   -0.9425 O   0  0  0  0  0  0  0  0  0  0  0  0
   -3.6985    0.8683    0.3632 C   0  0  0  0  0  0  0  0  0  0  0  0
   -3.9935    1.7020    1.0146 H   0  0  0  0  0  0  0  0  0  0  0  0
   -2.0131   -0.6344   -0.6037 C   0  0  0  0  0  0  0  0  0  0  0  0
    2.0300   -2.2459   -2.9012 C   0  0  0  0  0  0  0  0  0  0  0  0
    1.4709   -2.3576   -3.8419 H   0  0  0  0  0  0  0  0  0  0  0  0
    3.2303   -1.8900   -0.4423 C   0  0  0  0  0  0  0  0  0  0  0  0
    3.6665   -1.7227    0.5522 H   0  0  0  0  0  0  0  0  0  0  0  0
   -4.3659   -0.8534   -1.2343 C   0  0  0  0  0  0  0  0  0  0  0  0
   -5.1731   -1.3413   -1.7974 H   0  0  0  0  0  0  0  0  0  0  0  0
   -3.0382   -1.2741   -1.3498 C   0  0  0  0  0  0  0  0  0  0  0  0
   -2.7833   -2.0940   -2.0298 H   0  0  0  0  0  0  0  0  0  0  0  0
    3.3964   -2.5135   -2.7735 C   0  0  0  0  0  0  0  0  0  0  0  0
    3.9856   -2.8586   -3.6358 H   0  0  0  0  0  0  0  0  0  0  0  0
  2  5  2  0  0  0  0
  3  5  1  6  0  0  0
  3  6  1  0  0  0  0
  4  1  2  0  0  0  0
  5  7  1  0  0  0  0
  6 19  1  0  0  0  0
  7 16  1  0  0  0  0
  8  4  1  0  0  0  0
  8 14  1  0  0  0  0
  9 14  2  0  0  0  0
  9 10  1  0  0  0  0
 11 12  1  0  0  0  0
 11 19  2  0  0  0  0
 13  4  2  0  0  0  0
 14 15  1  0  0  0  0
 16  9  1  0  0  0  0
 17 25  2  0  0  0  0
 17  3  1  0  0  0  0
 18 17  1  0  0  0  0
 19 20  1  0  0  0  0
 21  8  2  0  0  0  0
 22 21  1  0  0  0  0
 23 21  1  0  0  0  0
 23 16  2  0  0  0  0
 24 23  1  0  0  0  0
 25 11  1  0  0  0  0
 26 25  1  0  0  0  0
M  END
