1,2
q = 0.0, confidence = 0.998

 36 37  0  0  0  0  0  0  0  0999 V2000
    2.4302   -0.1506   -0.0428 N   0  0  0  0  0  2  0  0  0  0  0  0
   -0.1984   -0.4810   -0.2289 N   0  0  0  0  0  2  0  0  0  0  0  0
    1.9873   -1.3995   -0.3111 C   0  0  0  0  0  0  0  0  0  0  0  0
    2.8922   -2.4523   -0.5411 C   0  0  0  0  0  0  0  0  0  0  0  0
    2.5299   -3.4673   -0.7520 H   0  0  0  0  0  0  0  0  0  0  0  0
    4.2682   -2.1826   -0.5032 C   0  0  0  0  0  0  0  0  0  0  0  0
    4.9940   -2.9904   -0.6792 H   0  0  0  0  0  0  0  0  0  0  0  0
    4.7046   -0.8757   -0.2474 C   0  0  0  0  0  0  0  0  0  0  0  0
    5.7741   -0.6237   -0.2185 H   0  0  0  0  0  0  0  0  0  0  0  0
    3.7392    0.1187   -0.0237 C   0  0  0  0  0  0  0  0  0  0  0  0
    4.0131    1.1686    0.1703 H   0  0  0  0  0  0  0  0  0  0  0  0
    0.5036   -1.5636   -0.3627 C   0  0  0  0  0  0  0  0  0  0  0  0
   -0.0763   -2.9259   -0.6045 C   0  0  0  0  0  0  0  0  0  0  0  0
   -1.1770   -2.8716   -0.6856 H   0  0  0  0  0  0  0  0  0  0  0  0
    0.1874   -3.6203    0.2198 H   0  0  0  0  0  0  0  0  0  0  0  0
    0.3321   -3.3594   -1.5402 H   0  0  0  0  0  0  0  0  0  0  0  0
   -1.6185   -0.4642   -0.2114 C   0  0  0  0  0  0  0  0  0  0  0  0
   -2.2811    0.1251   -1.3185 C   0  0  0  0  0  0  0  0  0  0  0  0
   -3.6819    0.2032   -1.2788 C   0  0  0  0  0  0  0  0  0  0  0  0
   -4.2062    0.6447   -2.1418 H   0  0  0  0  0  0  0  0  0  0  0  0
   -4.4270   -0.2529   -0.1742 C   0  0  0  0  0  0  0  0  0  0  0  0
   -3.7283   -0.8108    0.9106 C   0  0  0  0  0  0  0  0  0  0  0  0
   -4.2900   -1.1567    1.7933 H   0  0  0  0  0  0  0  0  0  0  0  0
   -2.3265   -0.9323    0.9241 C   0  0  0  0  0  0  0  0  0  0  0  0
   -1.4897    0.6201   -2.4995 C   0  0  0  0  0  0  0  0  0  0  0  0
   -2.1470    1.1129   -3.2403 H   0  0  0  0  0  0  0  0  0  0  0  0
   -0.9628   -0.2122   -3.0140 H   0  0  0  0  0  0  0  0  0  0  0  0
   -0.7034    1.3448   -2.1906 H   0  0  0  0  0  0  0  0  0  0  0  0
   -5.9275   -0.1067   -0.1439 C   0  0  0  0  0  0  0  0  0  0  0  0
   -6.3805   -0.3439   -1.1276 H   0  0  0  0  0  0  0  0  0  0  0  0
   -6.2198    0.9368    0.1021 H   0  0  0  0  0  0  0  0  0  0  0  0
   -6.3880   -0.7661    0.6172 H   0  0  0  0  0  0  0  0  0  0  0  0
   -1.6025   -1.4832    2.1250 C   0  0  0  0  0  0  0  0  0  0  0  0
   -0.7793   -0.8008    2.4298 H   0  0  0  0  0  0  0  0  0  0  0  0
   -1.1622   -2.4842    1.9286 H   0  0  0  0  0  0  0  0  0  0  0  0
   -2.2954   -1.5949    2.9801 H   0  0  0  0  0  0  0  0  0  0  0  0
  1 10  1  0  0  0  0
  2 17  1  0  0  0  0
  3  1  1  0  0  0  0
  4  6  2  0  0  0  0
  4  3  1  0  0  0  0
  5  4  1  0  0  0  0
  6  8  1  0  0  0  0
  7  6  1  0  0  0  0
  8  9  1  0  0  0  0
  8 10  2  0  0  0  0
 10 11  1  0  0  0  0
 12  3  2  0  0  0  0
 12  2  1  0  0  0  0
 13 12  1  0  0  0  0
 13 15  1  0  0  0  0
 14 13  1  0  0  0  0
 16 13  1  0  0  0  0
 17 24  1  0  0  0  0
 18 19  1  0  0  0  0
 18 17  2  0  0  0  0
 19 21  2  0  0  0  0
 20 19  1  0  0  0  0
 21 29  1  0  0  0  0
 21 22  1  0  0  0  0
 22 24  2  0  0  0  0
 22 23  1  0  0  0  0
 24 33  1  0  0  0  0
 25 28  1  0  0  0  0
 25 18  1  0  0  0  0
 26 25  1  0  0  0  0
 27 25  1  0  0  0  0
 29 31  1  0  0  0  0
 29 32  1  0  0  0  0
 30 29  1  0  0  0  0
 33 34  1  0  0  0  0
 33 36  1  0  0  0  0
 35 33  1  0  0  0  0
M  END
