1,2
q = -1.0

 30 29  0  0  0  0  0  0  0  0999 V2000
   -1.6636   -0.2402    1.1400 N   0  0  0  0  0  2  0  0  0  0  0  0
   -1.6725   -0.2221   -1.1404 N   0  0  0  0  0  2  0  0  0  0  0  0
   -2.3829   -0.1954    0.0034 C   0  0  0  0  0  3  0  0  0  0  0  0
   -3.9024   -0.0287    0.0128 C   0  0  0  0  0  0  0  0  0  0  0  0
   -4.3439    1.4417    0.0599 C   0  0  0  0  0  0  0  0  0  0  0  0
   -2.3059   -0.3010    2.4492 C   0  0  0  0  0  0  0  0  0  0  0  0
   -2.8203   -1.7154    2.7800 C   0  0  0  0  0  0  0  0  0  0  0  0
   -1.3357    0.1649    3.5391 C   0  0  0  0  0  0  0  0  0  0  0  0
   -2.3246   -0.2254   -2.4467 C   0  0  0  0  0  0  0  0  0  0  0  0
   -2.8942   -1.6093   -2.8172 C   0  0  0  0  0  0  0  0  0  0  0  0
   -1.3411    0.2318   -3.5285 C   0  0  0  0  0  0  0  0  0  0  0  0
   -4.3291   -0.5682    0.8789 H   0  0  0  0  0  0  0  0  0  0  0  0
   -4.3350   -0.5106   -0.8830 H   0  0  0  0  0  0  0  0  0  0  0  0
   -5.4496    1.5209    0.0552 H   0  0  0  0  0  0  0  0  0  0  0  0
   -3.9599    2.0100   -0.8107 H   0  0  0  0  0  0  0  0  0  0  0  0
   -3.9723    1.9508    0.9715 H   0  0  0  0  0  0  0  0  0  0  0  0
   -3.1835    0.3889    2.4836 H   0  0  0  0  0  0  0  0  0  0  0  0
   -3.4869   -2.1114    1.9890 H   0  0  0  0  0  0  0  0  0  0  0  0
   -3.3804   -1.7192    3.7377 H   0  0  0  0  0  0  0  0  0  0  0  0
   -1.9713   -2.4203    2.8782 H   0  0  0  0  0  0  0  0  0  0  0  0
   -1.0258    1.2121    3.3768 H   0  0  0  0  0  0  0  0  0  0  0  0
   -0.4270   -0.4689    3.5463 H   0  0  0  0  0  0  0  0  0  0  0  0
   -1.8050    0.0956    4.5408 H   0  0  0  0  0  0  0  0  0  0  0  0
   -3.1754    0.4985   -2.4580 H   0  0  0  0  0  0  0  0  0  0  0  0
   -3.5814   -2.0008   -2.0418 H   0  0  0  0  0  0  0  0  0  0  0  0
   -2.0747   -2.3454   -2.9341 H   0  0  0  0  0  0  0  0  0  0  0  0
   -3.4506   -1.5636   -3.7761 H   0  0  0  0  0  0  0  0  0  0  0  0
   -0.9856    1.2591   -3.3357 H   0  0  0  0  0  0  0  0  0  0  0  0
   -1.8177    0.2141   -4.5290 H   0  0  0  0  0  0  0  0  0  0  0  0
   -0.4603   -0.4398   -3.5604 H   0  0  0  0  0  0  0  0  0  0  0  0
  1  6  1  0  0  0  0
  2  3  1  0  0  0  0
  3  4  1  0  0  0  0
  3  1  1  0  0  0  0
  4  5  1  0  0  0  0
  4 12  1  0  0  0  0
  5 16  1  0  0  0  0
  6 17  1  0  0  0  0
  6  7  1  0  0  0  0
  6  8  1  0  0  0  0
  7 20  1  0  0  0  0
  7 19  1  0  0  0  0
  8 22  1  0  0  0  0
  8 23  1  0  0  0  0
  9  2  1  0  0  0  0
 10  9  1  0  0  0  0
 10 25  1  0  0  0  0
 11 28  1  0  0  0  0
 11  9  1  0  0  0  0
 13  4  1  0  0  0  0
 14  5  1  0  0  0  0
 15  5  1  0  0  0  0
 18  7  1  0  0  0  0
 21  8  1  0  0  0  0
 24  9  1  0  0  0  0
 26 10  1  0  0  0  0
 27 10  1  0  0  0  0
 29 11  1  0  0  0  0
 30 11  1  0  0  0  0
M  END
