1,3
q = 0.0, confidence = 0.762

 35 37  0  0  0  0  0  0  0  0999 V2000
    1.9821    1.3351    1.0355 N   0  0  0  0  0  2  0  0  0  0  0  0
    1.4428   -0.3323    2.5963 N   0  0  0  0  0  2  0  0  0  0  0  0
    0.7594   -0.7714    1.5471 N   0  0  0  0  0  2  0  0  0  0  0  0
   -2.0028   -0.9525    1.6015 N   0  0  0  0  0  0  0  0  0  0  0  0
   -1.4233   -0.1097    1.6293 H   0  0  0  0  0  0  0  0  0  0  0  0
    2.5227    2.5500    0.7587 C   0  0  0  0  0  3  0  0  0  0  0  0
    2.4054    2.8864   -0.2831 H   0  0  0  0  0  0  0  0  0  0  0  0
    3.1942    3.2996    1.7219 C   0  0  0  0  0  0  0  0  0  0  0  0
    3.6142    4.2762    1.4443 H   0  0  0  0  0  0  0  0  0  0  0  0
    3.3257    2.7893    3.0339 C   0  0  0  0  0  0  0  0  0  0  0  0
    3.8587    3.3634    3.8063 H   0  0  0  0  0  0  0  0  0  0  0  0
    2.7629    1.5550    3.3379 C   0  0  0  0  0  0  0  0  0  0  0  0
    2.8140    1.1054    4.3386 H   0  0  0  0  0  0  0  0  0  0  0  0
    2.0712    0.8425    2.3265 C   0  0  0  0  0  0  0  0  0  0  0  0
    0.1376   -2.0474    1.7358 C   0  0  0  0  0  0  0  0  0  0  0  0
    0.9337   -3.1836    1.9374 C   0  0  0  0  0  0  0  0  0  0  0  0
    2.0251   -3.0556    1.9667 H   0  0  0  0  0  0  0  0  0  0  0  0
    0.3419   -4.4454    2.0742 C   0  0  0  0  0  0  0  0  0  0  0  0
    0.9681   -5.3392    2.2072 H   0  0  0  0  0  0  0  0  0  0  0  0
   -1.0589   -4.5456    2.0478 C   0  0  0  0  0  0  0  0  0  0  0  0
   -1.5424   -5.5257    2.1782 H   0  0  0  0  0  0  0  0  0  0  0  0
   -1.8644   -3.4132    1.8779 C   0  0  0  0  0  0  0  0  0  0  0  0
   -2.9553   -3.5136    1.9213 H   0  0  0  0  0  0  0  0  0  0  0  0
   -1.2864   -2.1323    1.7056 C   0  0  0  0  0  0  0  0  0  0  0  0
   -3.3466   -0.7149    1.3016 C   0  0  0  0  0  0  0  0  0  0  0  0
   -4.1779   -1.6347    0.6238 C   0  0  0  0  0  0  0  0  0  0  0  0
   -3.7730   -2.5926    0.2760 H   0  0  0  0  0  0  0  0  0  0  0  0
   -5.5041   -1.2948    0.3251 C   0  0  0  0  0  0  0  0  0  0  0  0
   -6.1302   -2.0215   -0.2150 H   0  0  0  0  0  0  0  0  0  0  0  0
   -6.0294   -0.0425    0.6778 C   0  0  0  0  0  0  0  0  0  0  0  0
   -7.0718    0.2137    0.4380 H   0  0  0  0  0  0  0  0  0  0  0  0
   -5.1998    0.8829    1.3334 C   0  0  0  0  0  0  0  0  0  0  0  0
   -5.5860    1.8763    1.6085 H   0  0  0  0  0  0  0  0  0  0  0  0
   -3.8780    0.5530    1.6455 C   0  0  0  0  0  0  0  0  0  0  0  0
   -3.2310    1.2841    2.1547 H   0  0  0  0  0  0  0  0  0  0  0  0
  1 14  1  0  0  0  0
  3 15  1  0  0  0  0
  3  2  1  0  0  0  0
  4  5  1  0  0  0  0
  4 24  1  0  0  0  0
  6  1  1  0  0  0  0
  6  8  1  0  0  0  0
  7  6  1  0  0  0  0
  8 10  2  0  0  0  0
  9  8  1  0  0  0  0
 10 12  1  0  0  0  0
 10 11  1  0  0  0  0
 12 13  1  0  0  0  0
 14  2  1  0  0  0  0
 14 12  2  0  0  0  0
 15 16  1  0  0  0  0
 16 17  1  0  0  0  0
 16 18  2  0  0  0  0
 18 19  1  0  0  0  0
 20 18  1  0  0  0  0
 20 21  1  0  0  0  0
 22 23  1  0  0  0  0
 22 20  2  0  0  0  0
 24 15  2  0  0  0  0
 24 22  1  0  0  0  0
 25  4  1  0  0  0  0
 25 34  1  0  0  0  0
 26 25  2  0  0  0  0
 27 26  1  0  0  0  0
 28 26  1  0  0  0  0
 28 30  2  0  0  0  0
 29 28  1  0  0  0  0
 30 32  1  0  0  0  0
 31 30  1  0  0  0  0
 32 33  1  0  0  0  0
 32 34  2  0  0  0  0
 34 35  1  0  0  0  0
M  END
