1,2
q = 0.0, confidence = 0.998

 42 43  0  0  0  0  0  0  0  0999 V2000
    2.1437   -0.3991    0.8511 N   0  0  0  0  0  2  0  0  0  0  0  0
   -0.4251   -0.0662    0.6500 N   0  0  0  0  0  2  0  0  0  0  0  0
    3.4764   -0.5949    0.9020 C   0  0  0  0  0  3  0  0  0  0  0  0
    3.9531   -0.9592   -0.0193 H   0  0  0  0  0  0  0  0  0  0  0  0
    4.2319   -0.3383    2.0517 C   0  0  0  0  0  0  0  0  0  0  0  0
    5.3166   -0.5147    2.0330 H   0  0  0  0  0  0  0  0  0  0  0  0
    3.5906    0.1459    3.2044 C   0  0  0  0  0  0  0  0  0  0  0  0
    4.1624    0.3602    4.1190 H   0  0  0  0  0  0  0  0  0  0  0  0
    2.2095    0.3530    3.1612 C   0  0  0  0  0  0  0  0  0  0  0  0
    1.6571    0.7348    4.0318 H   0  0  0  0  0  0  0  0  0  0  0  0
    1.5124    0.0722    1.9711 C   0  0  0  0  0  0  0  0  0  0  0  0
    0.0850    0.2366    1.8127 C   0  0  0  0  0  3  0  0  0  0  0  0
   -0.5443    0.5926    2.6480 H   0  0  0  0  0  0  0  0  0  0  0  0
   -1.8424    0.1142    0.4621 C   0  0  0  0  0  0  0  0  0  0  0  0
   -2.3697    1.4269    0.3147 C   0  0  0  0  0  0  0  0  0  0  0  0
   -3.7529    1.5522    0.0796 C   0  0  0  0  0  0  0  0  0  0  0  0
   -4.1778    2.5597   -0.0441 H   0  0  0  0  0  0  0  0  0  0  0  0
   -4.5898    0.4358   -0.0033 C   0  0  0  0  0  0  0  0  0  0  0  0
   -5.6659    0.5630   -0.1950 H   0  0  0  0  0  0  0  0  0  0  0  0
   -4.0514   -0.8431    0.1717 C   0  0  0  0  0  0  0  0  0  0  0  0
   -4.7115   -1.7229    0.1331 H   0  0  0  0  0  0  0  0  0  0  0  0
   -2.6788   -1.0325    0.4113 C   0  0  0  0  0  0  0  0  0  0  0  0
   -2.1557   -2.4366    0.6749 C   0  0  0  0  0  0  0  0  0  0  0  0
   -1.0617   -2.3622    0.8170 H   0  0  0  0  0  0  0  0  0  0  0  0
   -2.7352   -3.0060    1.9822 C   0  0  0  0  0  0  0  0  0  0  0  0
   -2.5152   -2.3444    2.8445 H   0  0  0  0  0  0  0  0  0  0  0  0
   -2.3045   -4.0057    2.1958 H   0  0  0  0  0  0  0  0  0  0  0  0
   -3.8373   -3.1200    1.9224 H   0  0  0  0  0  0  0  0  0  0  0  0
   -2.4106   -3.3776   -0.5129 C   0  0  0  0  0  0  0  0  0  0  0  0
   -3.4957   -3.5554   -0.6618 H   0  0  0  0  0  0  0  0  0  0  0  0
   -1.9249   -4.3590   -0.3427 H   0  0  0  0  0  0  0  0  0  0  0  0
   -2.0072   -2.9567   -1.4544 H   0  0  0  0  0  0  0  0  0  0  0  0
   -1.5225    2.6888    0.4159 C   0  0  0  0  0  0  0  0  0  0  0  0
   -0.4567    2.3906    0.4498 H   0  0  0  0  0  0  0  0  0  0  0  0
   -1.6681    3.5785   -0.8285 C   0  0  0  0  0  0  0  0  0  0  0  0
   -1.4050    3.0150   -1.7444 H   0  0  0  0  0  0  0  0  0  0  0  0
   -0.9772    4.4429   -0.7600 H   0  0  0  0  0  0  0  0  0  0  0  0
   -2.6978    3.9775   -0.9400 H   0  0  0  0  0  0  0  0  0  0  0  0
   -1.8469    3.4651    1.7045 C   0  0  0  0  0  0  0  0  0  0  0  0
   -2.9022    3.8097    1.7183 H   0  0  0  0  0  0  0  0  0  0  0  0
   -1.1988    4.3611    1.7923 H   0  0  0  0  0  0  0  0  0  0  0  0
   -1.6943    2.8427    2.6106 H   0  0  0  0  0  0  0  0  0  0  0  0
  1  3  1  0  0  0  0
  1 11  1  0  0  0  0
  2 12  1  0  0  0  0
  3  5  1  0  0  0  0
  4  3  1  0  0  0  0
  5  7  2  0  0  0  0
  6  5  1  0  0  0  0
  7  8  1  0  0  0  0
  9  7  1  0  0  0  0
  9 10  1  0  0  0  0
 11  9  2  0  0  0  0
 12 11  1  0  0  0  0
 12 13  1  0  0  0  0
 14  2  1  0  0  0  0
 15 33  1  0  0  0  0
 15 14  2  0  0  0  0
 16 15  1  0  0  0  0
 17 16  1  0  0  0  0
 18 16  2  0  0  0  0
 18 20  1  0  0  0  0
 19 18  1  0  0  0  0
 20 22  2  0  0  0  0
 21 20  1  0  0  0  0
 22 14  1  0  0  0  0
 22 23  1  0  0  0  0
 23 24  1  0  0  0  0
 23 25  1  0  0  0  0
 25 27  1  0  0  0  0
 25 26  1  0  0  0  0
 28 25  1  0  0  0  0
 29 31  1  0  0  0  0
 29 23  1  0  0  0  0
 30 29  1  0  0  0  0
 32 29  1  0  0  0  0
 33 34  1  0  0  0  0
 33 39  1  0  0  0  0
 35 37  1  0  0  0  0
 35 33  1  0  0  0  0
 36 35  1  0  0  0  0
 38 35  1  0  0  0  0
 39 40  1  0  0  0  0
 39 41  1  0  0  0  0
 39 42  1  0  0  0  0
M  END
