3,4
q = 0.0, confidence = 0.912

 23 24  0  0  1  0  0  0  0  0999 V2000
   -1.9742    0.0162   -2.7075 Cl  0  0  0  0  0  0  0  0  0  0  0  0
    0.8869    3.4325    0.4318 Cl  0  0  0  0  0  0  0  0  0  0  0  0
    0.4668    0.8900   -1.1317 N   0  0  0  0  0  2  0  0  0  0  0  0
    2.6299   -0.3546   -0.9852 N   0  0  0  0  0  2  0  0  0  0  0  0
    1.3011    1.2378   -2.0729 N   0  0  0  0  0  2  0  0  0  0  0  0
   -0.6632    1.7810   -1.0992 C   0  0  0  0  0  0  0  0  0  0  0  0
    2.4719    0.5303   -2.0228 C   0  0  1  0  0  3  0  0  0  0  0  0
    3.7967   -1.0202   -0.8524 C   0  0  0  0  0  0  0  0  0  0  0  0
    3.8228   -1.7405   -0.0180 H   0  0  0  0  0  0  0  0  0  0  0  0
   -1.6282    3.9394   -0.4497 C   0  0  0  0  0  0  0  0  0  0  0  0
   -1.5222    4.8890    0.0916 H   0  0  0  0  0  0  0  0  0  0  0  0
   -1.8410    1.4975   -1.8241 C   0  0  0  0  0  0  0  0  0  0  0  0
   -2.9023    2.4169   -1.8547 C   0  0  0  0  0  0  0  0  0  0  0  0
   -3.8041    2.1615   -2.4274 H   0  0  0  0  0  0  0  0  0  0  0  0
   -0.5714    3.0188   -0.4282 C   0  0  0  0  0  0  0  0  0  0  0  0
    4.8577   -0.8261   -1.7420 C   0  0  0  0  0  0  0  0  0  0  0  0
    5.7858   -1.3981   -1.6040 H   0  0  0  0  0  0  0  0  0  0  0  0
    3.5051    0.7673   -2.9557 C   0  0  0  0  0  0  0  0  0  0  0  0
    3.3202    1.4866   -3.7644 H   0  0  0  0  0  0  0  0  0  0  0  0
    4.7090    0.0803   -2.8112 C   0  0  0  0  0  0  0  0  0  0  0  0
    5.5295    0.2406   -3.5261 H   0  0  0  0  0  0  0  0  0  0  0  0
   -2.7915    3.6302   -1.1666 C   0  0  0  0  0  0  0  0  0  0  0  0
   -3.6250    4.3476   -1.1873 H   0  0  0  0  0  0  0  0  0  0  0  0
  1 12  1  0  0  0  0
  3  6  1  0  0  0  0
  4  8  1  0  0  0  0
  5  3  1  0  0  0  0
  6 15  1  0  0  0  0
  7  5  1  1  0  0  0
  7  4  1  0  0  0  0
  8  9  1  0  0  0  0
 10 15  2  0  0  0  0
 10 11  1  0  0  0  0
 12  6  2  0  0  0  0
 13 12  1  0  0  0  0
 13 22  2  0  0  0  0
 14 13  1  0  0  0  0
 15  2  1  0  0  0  0
 16 17  1  0  0  0  0
 16  8  2  0  0  0  0
 18 20  2  0  0  0  0
 18  7  1  0  0  0  0
 19 18  1  0  0  0  0
 20 16  1  0  0  0  0
 21 20  1  0  0  0  0
 22 10  1  0  0  0  0
 23 22  1  0  0  0  0
M  END
