3,4
q = 0.0, confidence = 0.994

 48 50  0  0  1  0  0  0  0  0999 V2000
    3.8865   -2.2864   -1.6640 O   0  0  0  0  0  0  0  0  0  0  0  0
    3.9455    2.9184   -0.2456 O   0  0  0  0  0  0  0  0  0  0  0  0
    0.4323   -1.7404   -0.7727 N   0  0  0  0  0  2  0  0  0  0  0  0
    0.4075    2.1182   -0.3965 N   0  0  0  0  0  2  0  0  0  0  0  0
    1.6097   -2.3885   -0.9395 C   0  0  2  0  0  3  0  0  0  0  0  0
    1.7090   -3.7879   -0.9347 C   0  0  0  0  0  0  0  0  0  0  0  0
    0.5551   -4.5545   -0.7419 C   0  0  0  0  0  0  0  0  0  0  0  0
   -0.6677   -3.9010   -0.5797 C   0  0  0  0  0  0  0  0  0  0  0  0
   -0.7024   -2.4904   -0.6034 C   0  0  0  0  0  0  0  0  0  0  0  0
   -1.9438   -1.8107   -0.4928 C   0  0  0  0  0  0  0  0  0  0  0  0
   -3.0688   -1.3125   -0.4387 C   0  0  0  0  0  0  0  0  0  0  0  0
   -4.3099   -0.6332   -0.3847 C   0  0  0  0  0  0  0  0  0  0  0  0
   -5.5394   -1.3306   -0.3205 C   0  0  0  0  0  0  0  0  0  0  0  0
   -6.7527   -0.6365   -0.2768 C   0  0  0  0  0  0  0  0  0  0  0  0
   -6.7659    0.7706   -0.2981 C   0  0  0  0  0  0  0  0  0  0  0  0
   -5.5645    1.4836   -0.3597 C   0  0  0  0  0  0  0  0  0  0  0  0
   -4.3236    0.8047   -0.4011 C   0  0  0  0  0  0  0  0  0  0  0  0
   -3.0957    1.5102   -0.4431 C   0  0  0  0  0  0  0  0  0  0  0  0
   -1.9891    2.0527   -0.4576 C   0  0  0  0  0  0  0  0  0  0  0  0
   -0.7833    2.8011   -0.4259 C   0  0  1  0  0  3  0  0  0  0  0  0
   -0.8327    4.2138   -0.4123 C   0  0  0  0  0  0  0  0  0  0  0  0
    0.3587    4.9380   -0.3488 C   0  0  0  0  0  0  0  0  0  0  0  0
    1.5713    4.2391   -0.2936 C   0  0  0  0  0  0  0  0  0  0  0  0
    1.5578    2.8370   -0.3181 C   0  0  0  0  0  0  0  0  0  0  0  0
    2.8357   -1.5360   -1.1060 C   0  0  0  0  0  0  0  0  0  0  0  0
    5.1034   -1.5802   -1.6812 C   0  0  0  0  0  0  0  0  0  0  0  0
    2.8370    2.0540   -0.2338 C   0  0  0  0  0  0  0  0  0  0  0  0
    5.1590    2.2418   -0.0107 C   0  0  0  0  0  0  0  0  0  0  0  0
    2.6999   -4.2364   -1.0798 H   0  0  0  0  0  0  0  0  0  0  0  0
    0.6079   -5.6531   -0.7206 H   0  0  0  0  0  0  0  0  0  0  0  0
   -1.6068   -4.4518   -0.4377 H   0  0  0  0  0  0  0  0  0  0  0  0
   -5.5219   -2.4296   -0.3043 H   0  0  0  0  0  0  0  0  0  0  0  0
   -7.6987   -1.1958   -0.2253 H   0  0  0  0  0  0  0  0  0  0  0  0
   -7.7218    1.3140   -0.2637 H   0  0  0  0  0  0  0  0  0  0  0  0
   -5.5658    2.5829   -0.3717 H   0  0  0  0  0  0  0  0  0  0  0  0
   -1.8124    4.7084   -0.4464 H   0  0  0  0  0  0  0  0  0  0  0  0
    0.3433    6.0380   -0.3351 H   0  0  0  0  0  0  0  0  0  0  0  0
    2.5442    4.7422   -0.2288 H   0  0  0  0  0  0  0  0  0  0  0  0
    3.0997   -1.1341   -0.0960 H   0  0  0  0  0  0  0  0  0  0  0  0
    2.5616   -0.6546   -1.7432 H   0  0  0  0  0  0  0  0  0  0  0  0
    5.4200   -1.2642   -0.6574 H   0  0  0  0  0  0  0  0  0  0  0  0
    5.8761   -2.2513   -2.1032 H   0  0  0  0  0  0  0  0  0  0  0  0
    5.0458   -0.6627   -2.3175 H   0  0  0  0  0  0  0  0  0  0  0  0
    2.8637    1.3347   -1.0924 H   0  0  0  0  0  0  0  0  0  0  0  0
    2.7973    1.4282    0.6932 H   0  0  0  0  0  0  0  0  0  0  0  0
    5.1564    1.7081    0.9697 H   0  0  0  0  0  0  0  0  0  0  0  0
    5.3785    1.4890   -0.8067 H   0  0  0  0  0  0  0  0  0  0  0  0
    5.9682    2.9970   -0.0070 H   0  0  0  0  0  0  0  0  0  0  0  0
  1 25  1  0  0  0  0
  2 27  1  0  0  0  0
  2 28  1  0  0  0  0
  3  9  1  0  0  0  0
  4 24  1  0  0  0  0
  5 25  1  1  0  0  0
  5  6  1  0  0  0  0
  5  3  1  0  0  0  0
  6  7  2  0  0  0  0
  7 30  1  0  0  0  0
  7  8  1  0  0  0  0
  8 31  1  0  0  0  0
  9  8  2  0  0  0  0
  9 10  1  0  0  0  0
 10 11  3  0  0  0  0
 11 12  1  0  0  0  0
 12 13  1  0  0  0  0
 13 32  1  0  0  0  0
 13 14  2  0  0  0  0
 14 33  1  0  0  0  0
 15 14  1  0  0  0  0
 15 34  1  0  0  0  0
 16 15  2  0  0  0  0
 17 12  2  0  0  0  0
 17 16  1  0  0  0  0
 18 17  1  0  0  0  0
 19 18  3  0  0  0  0
 20 19  1  1  0  0  0
 20 21  1  0  0  0  0
 20  4  1  0  0  0  0
 21 22  2  0  0  0  0
 22 37  1  0  0  0  0
 22 23  1  0  0  0  0
 23 38  1  0  0  0  0
 24 23  2  0  0  0  0
 24 27  1  0  0  0  0
 25 39  1  0  0  0  0
 26  1  1  0  0  0  0
 26 41  1  0  0  0  0
 27 45  1  0  0  0  0
 28 48  1  0  0  0  0
 28 46  1  0  0  0  0
 29  6  1  0  0  0  0
 35 16  1  0  0  0  0
 36 21  1  0  0  0  0
 40 25  1  0  0  0  0
 42 26  1  0  0  0  0
 43 26  1  0  0  0  0
 44 27  1  0  0  0  0
 47 28  1  0  0  0  0
M  END
