1,2
q = -2.0, confidence = 0.898

 25 26  0  0  0  0  0  0  0  0999 V2000
   -0.5381   -0.8471   -1.7432 N   0  0  0  0  0  0  0  0  0  0  0  0
   -0.6604    1.1213    0.4263 N   0  0  0  0  0  0  0  0  0  0  0  0
    0.6158   -1.5697   -1.9199 C   0  0  0  0  0  0  0  0  0  0  0  0
    1.2618   -1.3986   -2.7910 H   0  0  0  0  0  0  0  0  0  0  0  0
    0.8105   -2.4772   -0.8492 C   0  0  0  0  0  0  0  0  0  0  0  0
    1.6570   -3.1621   -0.7168 H   0  0  0  0  0  0  0  0  0  0  0  0
   -0.3216   -2.3235    0.0052 C   0  0  0  0  0  0  0  0  0  0  0  0
   -0.5090   -2.8501    0.9467 H   0  0  0  0  0  0  0  0  0  0  0  0
   -1.1243   -1.3098   -0.5760 C   0  0  0  0  0  3  0  0  0  0  0  0
   -2.3831   -0.6500   -0.0349 C   0  0  0  0  0  0  0  0  0  0  0  0
   -2.0071    0.7813    0.3139 C   0  0  0  0  0  0  0  0  0  0  0  0
   -2.7895    1.8970    0.5945 C   0  0  0  0  0  0  0  0  0  0  0  0
   -3.8854    1.9433    0.5878 H   0  0  0  0  0  0  0  0  0  0  0  0
   -1.8870    2.9741    0.8838 C   0  0  0  0  0  0  0  0  0  0  0  0
   -2.1566    4.0073    1.1358 H   0  0  0  0  0  0  0  0  0  0  0  0
   -0.5993    2.4666    0.7640 C   0  0  0  0  0  3  0  0  0  0  0  0
    0.3648    2.9801    0.8666 H   0  0  0  0  0  0  0  0  0  0  0  0
   -2.8697   -1.3902    1.2292 C   0  0  0  0  0  0  0  0  0  0  0  0
   -2.1075   -1.3488    2.0326 H   0  0  0  0  0  0  0  0  0  0  0  0
   -3.1058   -2.4534    1.0135 H   0  0  0  0  0  0  0  0  0  0  0  0
   -3.7850   -0.9023    1.6163 H   0  0  0  0  0  0  0  0  0  0  0  0
   -3.4801   -0.6816   -1.1209 C   0  0  0  0  0  0  0  0  0  0  0  0
   -3.1192   -0.1914   -2.0444 H   0  0  0  0  0  0  0  0  0  0  0  0
   -4.3851   -0.1483   -0.7688 H   0  0  0  0  0  0  0  0  0  0  0  0
   -3.7657   -1.7262   -1.3615 H   0  0  0  0  0  0  0  0  0  0  0  0
  1  9  1  0  0  0  0
  2 16  1  0  0  0  0
  3  1  2  0  0  0  0
  3  5  1  0  0  0  0
  4  3  1  0  0  0  0
  5  6  1  0  0  0  0
  5  7  2  0  0  0  0
  7  8  1  0  0  0  0
  9 10  1  0  0  0  0
  9  7  1  0  0  0  0
 10 11  1  0  0  0  0
 10 18  1  0  0  0  0
 11  2  2  0  0  0  0
 11 12  1  0  0  0  0
 12 14  2  0  0  0  0
 13 12  1  0  0  0  0
 14 15  1  0  0  0  0
 16 17  1  0  0  0  0
 16 14  1  0  0  0  0
 18 21  1  0  0  0  0
 18 19  1  0  0  0  0
 20 18  1  0  0  0  0
 22 24  1  0  0  0  0
 22 10  1  0  0  0  0
 23 22  1  0  0  0  0
 25 22  1  0  0  0  0
M  END
