1,16
q = 0.0, confidence = 0.98

 60 63  0  0  0  0  0  0  0  0999 V2000
    2.5070    1.0416    0.2548 N   0  0  0  0  0  2  0  0  0  0  0  0
    2.7544    2.3602    0.1781 C   0  0  0  0  0  0  0  0  0  0  0  0
    4.0239    2.8713   -0.1931 C   0  0  0  0  0  0  0  0  0  0  0  0
    4.1495    3.9623   -0.2053 H   0  0  0  0  0  0  0  0  0  0  0  0
    5.0551    1.9954   -0.4904 C   0  0  0  0  0  0  0  0  0  0  0  0
    6.0479    2.3662   -0.7878 H   0  0  0  0  0  0  0  0  0  0  0  0
    5.8611   -0.3767   -0.6216 C   0  0  0  0  0  0  0  0  0  0  0  0
    6.8599   -0.0209   -0.9169 H   0  0  0  0  0  0  0  0  0  0  0  0
    5.6122   -1.7205   -0.4738 C   0  0  0  0  0  0  0  0  0  0  0  0
    6.4081   -2.4608   -0.6466 H   0  0  0  0  0  0  0  0  0  0  0  0
    4.0078   -3.5674    0.0901 C   0  0  0  0  0  0  0  0  0  0  0  0
    4.7982   -4.3198   -0.0547 H   0  0  0  0  0  0  0  0  0  0  0  0
    2.7228   -3.9406    0.4530 C   0  0  0  0  0  0  0  0  0  0  0  0
    2.4335   -4.9842    0.6371 H   0  0  0  0  0  0  0  0  0  0  0  0
    1.7236   -2.9466    0.5956 C   0  0  0  0  0  0  0  0  0  0  0  0
    1.9874   -1.6383    0.4448 N   0  0  0  0  0  2  0  0  0  0  0  0
    3.2560   -1.2521    0.1205 C   0  0  0  0  0  0  0  0  0  0  0  0
    4.3103   -2.1923   -0.0940 C   0  0  0  0  0  0  0  0  0  0  0  0
    3.5242    0.1656   -0.0074 C   0  0  0  0  0  0  0  0  0  0  0  0
    4.8327    0.5973   -0.3847 C   0  0  0  0  0  0  0  0  0  0  0  0
    1.7283    3.3846    0.6274 C   0  0  0  0  0  0  0  0  0  0  0  0
    2.1355    4.4536    1.0977 O   0  0  0  0  0  0  0  0  0  0  0  0
    0.4173    3.0488    0.5043 N   0  0  0  0  0  0  0  0  0  0  0  0
    0.1691    2.1626    0.0315 H   0  0  0  0  0  0  0  0  0  0  0  0
    0.3337   -3.4144    0.9855 C   0  0  0  0  0  0  0  0  0  0  0  0
    0.2009   -4.4487    1.6492 O   0  0  0  0  0  0  0  0  0  0  0  0
   -0.6788   -2.6318    0.5384 N   0  0  0  0  0  0  0  0  0  0  0  0
   -0.4670   -1.8481   -0.1064 H   0  0  0  0  0  0  0  0  0  0  0  0
   -0.6295    3.8649    1.0917 C   0  0  0  0  0  0  0  0  0  0  0  0
   -0.1126    4.6827    1.6307 H   0  0  0  0  0  0  0  0  0  0  0  0
   -1.1784    3.2589    1.8431 H   0  0  0  0  0  0  0  0  0  0  0  0
   -1.6258    4.4508    0.0870 C   0  0  0  0  0  0  0  0  0  0  0  0
   -2.3423    5.0893    0.6476 H   0  0  0  0  0  0  0  0  0  0  0  0
   -1.0853    5.1155   -0.6191 H   0  0  0  0  0  0  0  0  0  0  0  0
   -2.4014    3.4306   -0.7319 C   0  0  0  0  0  0  0  0  0  0  0  0
   -3.0616    3.9654   -1.4596 H   0  0  0  0  0  0  0  0  0  0  0  0
   -1.7059    2.7983   -1.3358 H   0  0  0  0  0  0  0  0  0  0  0  0
   -3.1951    2.6050    0.1140 O   0  0  0  0  0  0  0  0  0  0  0  0
   -3.9575    1.6753   -0.6476 C   0  0  0  0  0  0  0  0  0  0  0  0
   -3.2703    0.9843   -1.1918 H   0  0  0  0  0  0  0  0  0  0  0  0
   -4.5459    2.2273   -1.4248 H   0  0  0  0  0  0  0  0  0  0  0  0
   -4.9188    0.9076    0.2492 C   0  0  0  0  0  0  0  0  0  0  0  0
   -5.5262    1.6423    0.8196 H   0  0  0  0  0  0  0  0  0  0  0  0
   -4.3546    0.3066    0.9920 H   0  0  0  0  0  0  0  0  0  0  0  0
   -5.8389   -0.0357   -0.5386 C   0  0  0  0  0  0  0  0  0  0  0  0
   -6.7113   -0.3174    0.0871 H   0  0  0  0  0  0  0  0  0  0  0  0
   -6.2456    0.4871   -1.4314 H   0  0  0  0  0  0  0  0  0  0  0  0
   -5.1718   -1.3293   -0.9938 C   0  0  0  0  0  0  0  0  0  0  0  0
   -5.8465   -1.8792   -1.6965 H   0  0  0  0  0  0  0  0  0  0  0  0
   -4.2302   -1.1128   -1.5547 H   0  0  0  0  0  0  0  0  0  0  0  0
   -4.9187   -2.1285    0.1518 O   0  0  0  0  0  0  0  0  0  0  0  0
   -4.3630   -3.4021   -0.1383 C   0  0  0  0  0  0  0  0  0  0  0  0
   -4.8926   -3.8664   -1.0054 H   0  0  0  0  0  0  0  0  0  0  0  0
   -4.5735   -4.0338    0.7519 H   0  0  0  0  0  0  0  0  0  0  0  0
   -2.8563   -3.3675   -0.4024 C   0  0  0  0  0  0  0  0  0  0  0  0
   -2.5117   -4.3822   -0.6945 H   0  0  0  0  0  0  0  0  0  0  0  0
   -2.6323   -2.6993   -1.2620 H   0  0  0  0  0  0  0  0  0  0  0  0
   -2.0731   -2.8857    0.8243 C   0  0  0  0  0  0  0  0  0  0  0  0
   -2.5388   -1.9481    1.1977 H   0  0  0  0  0  0  0  0  0  0  0  0
   -2.1113   -3.6400    1.6360 H   0  0  0  0  0  0  0  0  0  0  0  0
  2  1  1  0  0  0  0
  2 21  1  0  0  0  0
  3  2  2  0  0  0  0
  4  3  1  0  0  0  0
  5 20  2  0  0  0  0
  5  3  1  0  0  0  0
  6  5  1  0  0  0  0
  7  9  2  0  0  0  0
  7 20  1  0  0  0  0
  8  7  1  0  0  0  0
  9 18  1  0  0  0  0
 10  9  1  0  0  0  0
 11 13  1  0  0  0  0
 12 11  1  0  0  0  0
 13 15  2  0  0  0  0
 13 14  1  0  0  0  0
 15 25  1  0  0  0  0
 16 15  1  0  0  0  0
 17 16  1  0  0  0  0
 18 11  2  0  0  0  0
 18 17  1  0  0  0  0
 19 17  2  0  0  0  0
 19  1  1  0  0  0  0
 20 19  1  0  0  0  0
 21 22  2  0  0  0  0
 23 21  1  0  0  0  0
 23 29  1  0  0  0  0
 24 23  1  0  0  0  0
 25 26  2  0  0  0  0
 27 58  1  0  0  0  0
 27 25  1  0  0  0  0
 28 27  1  0  0  0  0
 29 30  1  0  0  0  0
 29 31  1  0  0  0  0
 32 33  1  0  0  0  0
 32 29  1  0  0  0  0
 34 32  1  0  0  0  0
 35 32  1  0  0  0  0
 35 38  1  0  0  0  0
 36 35  1  0  0  0  0
 37 35  1  0  0  0  0
 39 38  1  0  0  0  0
 39 42  1  0  0  0  0
 40 39  1  0  0  0  0
 41 39  1  0  0  0  0
 42 43  1  0  0  0  0
 42 44  1  0  0  0  0
 45 46  1  0  0  0  0
 45 42  1  0  0  0  0
 47 45  1  0  0  0  0
 48 45  1  0  0  0  0
 48 51  1  0  0  0  0
 49 48  1  0  0  0  0
 50 48  1  0  0  0  0
 52 51  1  0  0  0  0
 52 54  1  0  0  0  0
 53 52  1  0  0  0  0
 55 52  1  0  0  0  0
 55 58  1  0  0  0  0
 56 55  1  0  0  0  0
 57 55  1  0  0  0  0
 58 59  1  0  0  0  0
 58 60  1  0  0  0  0
M  END
