1,16
q = 0.0, confidence = 0.97

 60 63  0  0  0  0  0  0  0  0999 V2000
    2.0875    1.2412   -0.5896 N   0  0  0  0  0  2  0  0  0  0  0  0
    2.2347    2.5745   -0.4615 C   0  0  0  0  0  0  0  0  0  0  0  0
    3.2772    3.2993   -1.0852 C   0  0  0  0  0  0  0  0  0  0  0  0
    3.3187    4.3843   -0.9177 H   0  0  0  0  0  0  0  0  0  0  0  0
    4.1994    2.6253   -1.8751 C   0  0  0  0  0  0  0  0  0  0  0  0
    5.0185    3.1610   -2.3781 H   0  0  0  0  0  0  0  0  0  0  0  0
    5.0075    0.4351   -2.7934 C   0  0  0  0  0  0  0  0  0  0  0  0
    5.8278    0.9539   -3.3128 H   0  0  0  0  0  0  0  0  0  0  0  0
    4.8817   -0.9314   -2.8750 C   0  0  0  0  0  0  0  0  0  0  0  0
    5.5996   -1.5258   -3.4607 H   0  0  0  0  0  0  0  0  0  0  0  0
    3.6831   -3.0315   -2.2073 C   0  0  0  0  0  0  0  0  0  0  0  0
    4.3944   -3.6438   -2.7818 H   0  0  0  0  0  0  0  0  0  0  0  0
    2.6537   -3.6158   -1.4814 C   0  0  0  0  0  0  0  0  0  0  0  0
    2.5034   -4.7030   -1.4342 H   0  0  0  0  0  0  0  0  0  0  0  0
    1.7565   -2.7934   -0.7596 C   0  0  0  0  0  0  0  0  0  0  0  0
    1.8485   -1.4496   -0.7378 N   0  0  0  0  0  2  0  0  0  0  0  0
    2.8752   -0.8692   -1.4267 C   0  0  0  0  0  0  0  0  0  0  0  0
    3.8254   -1.6204   -2.1865 C   0  0  0  0  0  0  0  0  0  0  0  0
    3.0054    0.5682   -1.3439 C   0  0  0  0  0  0  0  0  0  0  0  0
    4.0854    1.2188   -2.0189 C   0  0  0  0  0  0  0  0  0  0  0  0
    1.2781    3.3568    0.3947 C   0  0  0  0  0  0  0  0  0  0  0  0
    1.4050    4.5524    0.6214 O   0  0  0  0  0  0  0  0  0  0  0  0
    0.2989    2.5823    0.8754 O   0  0  0  0  0  0  0  0  0  0  0  0
    0.6955   -3.4920    0.0440 C   0  0  0  0  0  0  0  0  0  0  0  0
    0.6585   -4.7080    0.1770 O   0  0  0  0  0  0  0  0  0  0  0  0
   -0.1718   -2.6345    0.5994 O   0  0  0  0  0  0  0  0  0  0  0  0
   -0.6273    3.1593    1.8064 C   0  0  0  0  0  0  0  0  0  0  0  0
   -0.0838    3.8160    2.5155 H   0  0  0  0  0  0  0  0  0  0  0  0
   -1.0361    2.2878    2.3527 H   0  0  0  0  0  0  0  0  0  0  0  0
   -1.7067    3.9657    1.1042 C   0  0  0  0  0  0  0  0  0  0  0  0
   -2.4141    4.3566    1.8794 H   0  0  0  0  0  0  0  0  0  0  0  0
   -1.2421    4.8500    0.6056 H   0  0  0  0  0  0  0  0  0  0  0  0
   -2.3623    3.1503    0.1558 O   0  0  0  0  0  0  0  0  0  0  0  0
   -3.2112    3.8468   -0.7260 C   0  0  0  0  0  0  0  0  0  0  0  0
   -2.7342    4.8004   -1.0628 H   0  0  0  0  0  0  0  0  0  0  0  0
   -4.1804    4.1186   -0.2367 H   0  0  0  0  0  0  0  0  0  0  0  0
   -3.4747    3.0016   -1.9562 C   0  0  0  0  0  0  0  0  0  0  0  0
   -3.9763    3.6385   -2.7283 H   0  0  0  0  0  0  0  0  0  0  0  0
   -2.4950    2.6684   -2.3771 H   0  0  0  0  0  0  0  0  0  0  0  0
   -4.2812    1.8866   -1.6340 O   0  0  0  0  0  0  0  0  0  0  0  0
   -4.5127    1.0374   -2.7395 C   0  0  0  0  0  0  0  0  0  0  0  0
   -3.5504    0.7338   -3.2190 H   0  0  0  0  0  0  0  0  0  0  0  0
   -5.1225    1.5635   -3.5166 H   0  0  0  0  0  0  0  0  0  0  0  0
   -5.2485   -0.2100   -2.2952 C   0  0  0  0  0  0  0  0  0  0  0  0
   -6.0784    0.0848   -1.6051 H   0  0  0  0  0  0  0  0  0  0  0  0
   -5.7223   -0.6903   -3.1885 H   0  0  0  0  0  0  0  0  0  0  0  0
   -4.3510   -1.1025   -1.6706 O   0  0  0  0  0  0  0  0  0  0  0  0
   -4.9931   -2.2371   -1.1328 C   0  0  0  0  0  0  0  0  0  0  0  0
   -5.6668   -2.7102   -1.8913 H   0  0  0  0  0  0  0  0  0  0  0  0
   -5.6361   -1.9557   -0.2605 H   0  0  0  0  0  0  0  0  0  0  0  0
   -3.9769   -3.2787   -0.7106 C   0  0  0  0  0  0  0  0  0  0  0  0
   -4.5430   -4.1956   -0.4075 H   0  0  0  0  0  0  0  0  0  0  0  0
   -3.3458   -3.5558   -1.5909 H   0  0  0  0  0  0  0  0  0  0  0  0
   -3.1724   -2.8019    0.3442 O   0  0  0  0  0  0  0  0  0  0  0  0
   -2.3190   -3.7976    0.8833 C   0  0  0  0  0  0  0  0  0  0  0  0
   -1.9704   -4.4995    0.0915 H   0  0  0  0  0  0  0  0  0  0  0  0
   -2.8644   -4.4126    1.6428 H   0  0  0  0  0  0  0  0  0  0  0  0
   -1.1062   -3.1763    1.5500 C   0  0  0  0  0  0  0  0  0  0  0  0
   -1.3748   -2.3193    2.1969 H   0  0  0  0  0  0  0  0  0  0  0  0
   -0.5935   -3.9485    2.1574 H   0  0  0  0  0  0  0  0  0  0  0  0
  1  2  1  0  0  0  0
  2 21  1  0  0  0  0
  3  4  1  0  0  0  0
  3  2  2  0  0  0  0
  5  3  1  0  0  0  0
  6  5  1  0  0  0  0
  7 20  1  0  0  0  0
  8  7  1  0  0  0  0
  9  7  2  0  0  0  0
  9 18  1  0  0  0  0
 10  9  1  0  0  0  0
 11 18  2  0  0  0  0
 11 13  1  0  0  0  0
 12 11  1  0  0  0  0
 13 14  1  0  0  0  0
 13 15  2  0  0  0  0
 15 16  1  0  0  0  0
 15 24  1  0  0  0  0
 17 19  2  0  0  0  0
 17 16  1  0  0  0  0
 18 17  1  0  0  0  0
 19  1  1  0  0  0  0
 20  5  2  0  0  0  0
 20 19  1  0  0  0  0
 21 22  2  0  0  0  0
 21 23  1  0  0  0  0
 23 27  1  0  0  0  0
 24 25  2  0  0  0  0
 24 26  1  0  0  0  0
 26 58  1  0  0  0  0
 27 29  1  0  0  0  0
 27 28  1  0  0  0  0
 30 27  1  0  0  0  0
 30 31  1  0  0  0  0
 32 30  1  0  0  0  0
 33 30  1  0  0  0  0
 34 36  1  0  0  0  0
 34 33  1  0  0  0  0
 35 34  1  0  0  0  0
 37 40  1  0  0  0  0
 37 34  1  0  0  0  0
 38 37  1  0  0  0  0
 39 37  1  0  0  0  0
 41 44  1  0  0  0  0
 41 40  1  0  0  0  0
 42 41  1  0  0  0  0
 43 41  1  0  0  0  0
 44 47  1  0  0  0  0
 44 45  1  0  0  0  0
 46 44  1  0  0  0  0
 47 48  1  0  0  0  0
 48 51  1  0  0  0  0
 48 50  1  0  0  0  0
 49 48  1  0  0  0  0
 51 52  1  0  0  0  0
 51 54  1  0  0  0  0
 53 51  1  0  0  0  0
 54 55  1  0  0  0  0
 55 58  1  0  0  0  0
 55 57  1  0  0  0  0
 56 55  1  0  0  0  0
 58 60  1  0  0  0  0
 58 59  1  0  0  0  0
M  END
