1,11
q = 0.0, confidence = 0.998

 30 31  0  0  1  0  0  0  0  0999 V2000
    0.2993   -1.4336   -0.5601 N   0  0  0  0  0  2  0  0  0  0  0  0
   -1.0451   -1.2688   -0.5298 C   0  0  1  0  0  3  0  0  0  0  0  0
   -1.8982   -2.2434   -1.0681 C   0  0  0  0  0  0  0  0  0  0  0  0
   -2.9854   -2.1131   -0.9911 H   0  0  0  0  0  0  0  0  0  0  0  0
   -1.3544   -3.3896   -1.6628 C   0  0  0  0  0  0  0  0  0  0  0  0
   -2.0145   -4.1602   -2.0882 H   0  0  0  0  0  0  0  0  0  0  0  0
    0.0377   -3.5392   -1.6917 C   0  0  0  0  0  0  0  0  0  0  0  0
    0.5142   -4.4228   -2.1389 H   0  0  0  0  0  0  0  0  0  0  0  0
    0.8353   -2.5445   -1.1202 C   0  0  0  0  0  0  0  0  0  0  0  0
    1.9308   -2.6199   -1.0465 H   0  0  0  0  0  0  0  0  0  0  0  0
    0.2991    1.4335   -0.5602 N   0  0  0  0  0  2  0  0  0  0  0  0
    0.8349    2.5445   -1.1204 C   0  0  0  0  0  3  0  0  0  0  0  0
    1.9303    2.6201   -1.0468 H   0  0  0  0  0  0  0  0  0  0  0  0
    0.0370    3.5390   -1.6920 C   0  0  0  0  0  0  0  0  0  0  0  0
    0.5134    4.4226   -2.1392 H   0  0  0  0  0  0  0  0  0  0  0  0
   -1.3551    3.3892   -1.6630 C   0  0  0  0  0  0  0  0  0  0  0  0
   -2.0153    4.1596   -2.0884 H   0  0  0  0  0  0  0  0  0  0  0  0
   -1.8986    2.2429   -1.0682 C   0  0  0  0  0  0  0  0  0  0  0  0
   -2.9857    2.1124   -0.9912 H   0  0  0  0  0  0  0  0  0  0  0  0
   -1.0454    1.2685   -0.5299 C   0  0  0  0  0  0  0  0  0  0  0  0
   -1.5736   -0.0002    0.1440 C   0  0  1  0  0  0  0  0  0  0  0  0
   -1.1852   -0.0001    1.1930 H   0  0  0  0  0  0  0  0  0  0  0  0
   -3.0075   -0.0003    0.2793 N   0  0  0  0  0  0  0  0  0  0  0  0
   -3.5921   -0.0003   -0.5567 H   0  0  0  0  0  0  0  0  0  0  0  0
   -3.6083   -0.0000    1.5314 C   0  0  0  0  0  0  0  0  0  0  0  0
   -2.9523    0.0002    2.5637 O   0  0  0  0  0  0  0  0  0  0  0  0
   -5.1264   -0.0001    1.5153 C   0  0  0  0  0  0  0  0  0  0  0  0
   -5.4855   -0.8895    2.0690 H   0  0  0  0  0  0  0  0  0  0  0  0
   -5.5706    0.0002    0.5009 H   0  0  0  0  0  0  0  0  0  0  0  0
   -5.4856    0.8889    2.0696 H   0  0  0  0  0  0  0  0  0  0  0  0
  1  2  1  0  0  0  0
  2 21  1  1  0  0  0
  3  4  1  0  0  0  0
  3  2  1  0  0  0  0
  5  3  2  0  0  0  0
  6  5  1  0  0  0  0
  7  5  1  0  0  0  0
  7  9  2  0  0  0  0
  8  7  1  0  0  0  0
  9 10  1  0  0  0  0
  9  1  1  0  0  0  0
 11 20  1  0  0  0  0
 12 13  1  0  0  0  0
 12 11  1  0  0  0  0
 14 16  2  0  0  0  0
 14 12  1  0  0  0  0
 15 14  1  0  0  0  0
 16 18  1  0  0  0  0
 17 16  1  0  0  0  0
 18 19  1  0  0  0  0
 18 20  2  0  0  0  0
 20 21  1  0  0  0  0
 21 23  1  0  0  0  0
 21 22  1  1  0  0  0
 23 25  1  0  0  0  0
 24 23  1  0  0  0  0
 25 26  2  0  0  0  0
 27 25  1  0  0  0  0
 27 28  1  0  0  0  0
 27 30  1  0  0  0  0
 29 27  1  0  0  0  0
M  END
