4,5
q = -1.0

 41 43  0  0  0  0  0  0  0  0999 V2000
   -2.1002    0.6574    1.1492 S   0  0  0  0  0  0  0  0  0  0  0  0
   -3.2444    0.3043    2.0284 O   0  0  0  0  0  0  0  0  0  0  0  0
   -0.7406    0.7210    1.7653 O   0  0  0  0  0  0  0  0  0  0  0  0
   -1.8665   -0.3901   -0.1335 N   0  0  0  0  0  2  0  0  0  0  0  0
   -0.2004   -2.1054   -1.7893 N   0  0  0  0  0  2  0  0  0  0  0  0
    1.8813   -3.0217   -1.3916 N   0  0  0  0  0  0  0  0  0  0  0  0
   -2.8837   -0.7828   -0.9667 C   0  0  0  0  0  0  0  0  0  0  0  0
   -4.2395   -0.3702   -0.7897 C   0  0  0  0  0  0  0  0  0  0  0  0
   -4.4931    0.2357    0.0880 H   0  0  0  0  0  0  0  0  0  0  0  0
   -5.2454   -0.7492   -1.6734 C   0  0  0  0  0  0  0  0  0  0  0  0
   -6.2739   -0.4029   -1.4858 H   0  0  0  0  0  0  0  0  0  0  0  0
   -4.9711   -1.5663   -2.7911 C   0  0  0  0  0  0  0  0  0  0  0  0
   -5.7694   -1.8587   -3.4877 H   0  0  0  0  0  0  0  0  0  0  0  0
   -3.6647   -1.9944   -2.9844 C   0  0  0  0  0  0  0  0  0  0  0  0
   -3.4198   -2.6365   -3.8457 H   0  0  0  0  0  0  0  0  0  0  0  0
   -2.6024   -1.6402   -2.1033 C   0  0  0  0  0  0  0  0  0  0  0  0
   -1.3127   -2.1696   -2.4685 C   0  0  0  0  0  3  0  0  0  0  0  0
   -1.2937   -2.7075   -3.4412 H   0  0  0  0  0  0  0  0  0  0  0  0
   -2.4358    2.2572    0.4023 C   0  0  0  0  0  0  0  0  0  0  0  0
   -1.6277    2.7052   -0.6569 C   0  0  0  0  0  0  0  0  0  0  0  0
   -0.8348    2.0623   -1.0725 H   0  0  0  0  0  0  0  0  0  0  0  0
   -1.8568    3.9840   -1.1753 C   0  0  0  0  0  0  0  0  0  0  0  0
   -1.2271    4.3436   -2.0046 H   0  0  0  0  0  0  0  0  0  0  0  0
   -2.8714    4.8207   -0.6583 C   0  0  0  0  0  0  0  0  0  0  0  0
   -3.6620    4.3364    0.4032 C   0  0  0  0  0  0  0  0  0  0  0  0
   -4.4586    4.9737    0.8187 H   0  0  0  0  0  0  0  0  0  0  0  0
   -3.4519    3.0576    0.9392 C   0  0  0  0  0  0  0  0  0  0  0  0
   -4.0631    2.6697    1.7671 H   0  0  0  0  0  0  0  0  0  0  0  0
   -3.1036    6.1896   -1.2449 C   0  0  0  0  0  0  0  0  0  0  0  0
   -2.1609    6.7727   -1.2921 H   0  0  0  0  0  0  0  0  0  0  0  0
   -3.8387    6.7704   -0.6552 H   0  0  0  0  0  0  0  0  0  0  0  0
   -3.4864    6.1176   -2.2850 H   0  0  0  0  0  0  0  0  0  0  0  0
    1.0301   -2.5396   -2.3157 C   0  0  0  0  0  0  0  0  0  0  0  0
    1.3816   -2.3757   -3.6730 C   0  0  0  0  0  0  0  0  0  0  0  0
    0.6819   -1.9090   -4.3803 H   0  0  0  0  0  0  0  0  0  0  0  0
    2.6701   -2.7498   -4.0692 C   0  0  0  0  0  0  0  0  0  0  0  0
    2.9877   -2.6137   -5.1141 H   0  0  0  0  0  0  0  0  0  0  0  0
    3.5577   -3.2637   -3.1128 C   0  0  0  0  0  0  0  0  0  0  0  0
    4.5859   -3.5467   -3.3802 H   0  0  0  0  0  0  0  0  0  0  0  0
    3.1097   -3.3750   -1.7862 C   0  0  0  0  0  0  0  0  0  0  0  0
    3.7833   -3.7530   -0.9970 H   0  0  0  0  0  0  0  0  0  0  0  0
  1  3  2  0  0  0  0
  1  2  2  0  0  0  0
  4  1  1  0  0  0  0
  7  8  1  0  0  0  0
  7  4  1  0  0  0  0
  8  9  1  0  0  0  0
 10 11  1  0  0  0  0
 10  8  2  0  0  0  0
 12 10  1  0  0  0  0
 13 12  1  0  0  0  0
 14 12  2  0  0  0  0
 14 16  1  0  0  0  0
 15 14  1  0  0  0  0
 16  7  2  0  0  0  0
 17 16  1  0  0  0  0
 17  5  1  0  0  0  0
 18 17  1  0  0  0  0
 19 27  1  0  0  0  0
 19  1  1  0  0  0  0
 20 19  2  0  0  0  0
 21 20  1  0  0  0  0
 22 24  2  0  0  0  0
 22 20  1  0  0  0  0
 23 22  1  0  0  0  0
 24 25  1  0  0  0  0
 25 26  1  0  0  0  0
 25 27  2  0  0  0  0
 27 28  1  0  0  0  0
 29 24  1  0  0  0  0
 29 31  1  0  0  0  0
 30 29  1  0  0  0  0
 32 29  1  0  0  0  0
 33  5  1  0  0  0  0
 33  6  2  0  0  0  0
 34 33  1  0  0  0  0
 35 34  1  0  0  0  0
 36 34  2  0  0  0  0
 36 38  1  0  0  0  0
 37 36  1  0  0  0  0
 38 40  2  0  0  0  0
 39 38  1  0  0  0  0
 40  6  1  0  0  0  0
 40 41  1  0  0  0  0
M  END
