3,5
q = -1.0

 25 26  0  0  1  0  0  0  0  0999 V2000
    3.3840    3.4783    2.6557 O   0  5  0  0  0  0  0  0  0  0  0  0
    3.8477    1.8920    4.2410 O   0  0  0  0  0  0  0  0  0  0  0  0
   -0.1814    0.6441    1.3374 N   0  0  0  0  0  2  0  0  0  0  0  0
    3.1408   -5.6123    0.0023 O   0  0  0  0  0  0  0  0  0  0  0  0
    0.3346   -1.4306   -0.2832 N   0  0  0  0  0  2  0  0  0  0  0  0
    3.6089   -4.4848    1.9130 O   0  0  0  0  0  0  0  0  0  0  0  0
    4.2230   -5.2449    2.0038 H   0  0  0  0  0  0  0  0  0  0  0  0
   -0.3481    1.8283    1.9784 C   0  0  0  0  0  3  0  0  0  0  0  0
   -1.2912    2.3564    1.7696 H   0  0  0  0  0  0  0  0  0  0  0  0
    0.6634    2.4144    2.7358 C   0  0  0  0  0  0  0  0  0  0  0  0
    0.5492    3.4435    3.1065 H   0  0  0  0  0  0  0  0  0  0  0  0
    1.8891    1.7347    2.9051 C   0  0  0  0  0  0  0  0  0  0  0  0
    1.9497    0.3992    2.4541 C   0  0  0  0  0  0  0  0  0  0  0  0
    2.8624   -0.1807    2.6546 H   0  0  0  0  0  0  0  0  0  0  0  0
    0.9326   -0.0956    1.6289 C   0  0  0  0  0  0  0  0  0  0  0  0
    1.0577   -1.3573    0.8737 C   0  0  2  0  0  3  0  0  0  0  0  0
    1.9065   -2.4081    1.2591 C   0  0  0  0  0  0  0  0  0  0  0  0
    2.4977   -2.3326    2.1799 H   0  0  0  0  0  0  0  0  0  0  0  0
    2.0171   -3.5379    0.4386 C   0  0  0  0  0  0  0  0  0  0  0  0
    1.2400   -3.6113   -0.7336 C   0  0  0  0  0  0  0  0  0  0  0  0
    1.3207   -4.4921   -1.3852 H   0  0  0  0  0  0  0  0  0  0  0  0
    0.4044   -2.5418   -1.0510 C   0  0  0  0  0  0  0  0  0  0  0  0
   -0.2048   -2.5312   -1.9677 H   0  0  0  0  0  0  0  0  0  0  0  0
    3.1708    2.4408    3.3534 C   0  0  0  0  0  0  0  0  0  0  0  0
    2.9665   -4.6576    0.7373 C   0  0  0  0  0  0  0  0  0  0  0  0
  1 24  1  0  0  0  0
  3 15  1  0  0  0  0
  3  8  1  0  0  0  0
  4 25  2  0  0  0  0
  5 16  1  0  0  0  0
  6  7  1  0  0  0  0
  8 10  1  0  0  0  0
  9  8  1  0  0  0  0
 10 12  2  0  0  0  0
 10 11  1  0  0  0  0
 12 24  1  0  0  0  0
 13 14  1  0  0  0  0
 13 12  1  0  0  0  0
 15 13  2  0  0  0  0
 16 17  1  0  0  0  0
 16 15  1  6  0  0  0
 17 18  1  0  0  0  0
 19 25  1  0  0  0  0
 19 17  2  0  0  0  0
 20 19  1  0  0  0  0
 21 20  1  0  0  0  0
 22 20  2  0  0  0  0
 22  5  1  0  0  0  0
 23 22  1  0  0  0  0
 24  2  2  0  0  0  0
 25  6  1  0  0  0  0
M  CHG  1   1  -1
M  END
