3,4
q = 0.0, confidence = 0.998

 28 30  0  0  1  0  0  0  0  0999 V2000
   -5.6977    0.7760    0.5374 F   0  0  0  0  0  0  0  0  0  0  0  0
   -3.6985   -2.0410   -2.6717 F   0  0  0  0  0  0  0  0  0  0  0  0
    2.1663    1.5997    0.0996 N   0  0  0  0  0  2  0  0  0  0  0  0
   -0.2677    1.6915   -0.9799 N   0  0  0  0  0  2  0  0  0  0  0  0
   -1.5040    2.0345   -1.4013 N   0  0  0  0  0  0  0  0  0  0  0  0
    3.4012    1.4576    0.6262 C   0  0  0  0  0  3  0  0  0  0  0  0
    3.5781    0.5247    1.1836 H   0  0  0  0  0  0  0  0  0  0  0  0
    4.3946    2.4321    0.4801 C   0  0  0  0  0  0  0  0  0  0  0  0
    5.3835    2.2723    0.9318 H   0  0  0  0  0  0  0  0  0  0  0  0
    4.1013    3.5971   -0.2460 C   0  0  0  0  0  0  0  0  0  0  0  0
    4.8616    4.3799   -0.3833 H   0  0  0  0  0  0  0  0  0  0  0  0
    2.8243    3.7480   -0.7978 C   0  0  0  0  0  0  0  0  0  0  0  0
    2.5604    4.6425   -1.3788 H   0  0  0  0  0  0  0  0  0  0  0  0
    1.8720    2.7305   -0.6093 C   0  0  0  0  0  0  0  0  0  0  0  0
    0.5018    2.8018   -1.1120 C   0  0  2  0  0  3  0  0  0  0  0  0
   -0.2657    3.8664   -1.6512 C   0  0  0  0  0  0  0  0  0  0  0  0
    0.0582    4.8863   -1.8782 H   0  0  0  0  0  0  0  0  0  0  0  0
   -1.5417    3.3400   -1.8140 C   0  0  0  0  0  0  0  0  0  0  0  0
   -2.4693    3.7764   -2.1990 H   0  0  0  0  0  0  0  0  0  0  0  0
   -2.6054    1.1255   -1.3124 C   0  0  0  0  0  0  0  0  0  0  0  0
   -2.5998   -0.0418   -2.0860 C   0  0  0  0  0  0  0  0  0  0  0  0
   -1.7775   -0.2828   -2.7696 H   0  0  0  0  0  0  0  0  0  0  0  0
   -3.6848   -0.9168   -1.9504 C   0  0  0  0  0  0  0  0  0  0  0  0
   -4.7504   -0.6554   -1.0815 C   0  0  0  0  0  0  0  0  0  0  0  0
   -5.5847   -1.3620   -0.9837 H   0  0  0  0  0  0  0  0  0  0  0  0
   -4.7082    0.5221   -0.3273 C   0  0  0  0  0  0  0  0  0  0  0  0
   -3.6482    1.4321   -0.4249 C   0  0  0  0  0  0  0  0  0  0  0  0
   -3.6283    2.3324    0.2026 H   0  0  0  0  0  0  0  0  0  0  0  0
  2 23  1  0  0  0  0
  3  6  1  0  0  0  0
  5 20  1  0  0  0  0
  5  4  1  0  0  0  0
  6  7  1  0  0  0  0
  8  6  1  0  0  0  0
  8  9  1  0  0  0  0
 10  8  2  0  0  0  0
 11 10  1  0  0  0  0
 12 14  2  0  0  0  0
 12 10  1  0  0  0  0
 13 12  1  0  0  0  0
 14  3  1  0  0  0  0
 15  4  1  0  0  0  0
 15 14  1  1  0  0  0
 16 15  1  0  0  0  0
 17 16  1  0  0  0  0
 18 16  2  0  0  0  0
 18  5  1  0  0  0  0
 19 18  1  0  0  0  0
 20 27  1  0  0  0  0
 21 23  1  0  0  0  0
 21 20  2  0  0  0  0
 22 21  1  0  0  0  0
 23 24  2  0  0  0  0
 24 25  1  0  0  0  0
 24 26  1  0  0  0  0
 26  1  1  0  0  0  0
 27 26  2  0  0  0  0
 27 28  1  0  0  0  0
M  END
