3,4
q = 0.0, confidence = 0.984

 24 25  0  0  0  0  0  0  0  0999 V2000
    0.9169    3.5497   -0.6084 Cl  0  0  0  0  0  0  0  0  0  0  0  0
    5.2629   -0.9691   -0.1872 Cl  0  0  0  0  0  0  0  0  0  0  0  0
   -2.0022   -0.2526   -1.0624 N   0  0  0  0  0  2  0  0  0  0  0  0
    0.4249    0.5528   -0.9849 N   0  0  0  0  0  2  0  0  0  0  0  0
   -3.2381   -0.7944   -1.0719 C   0  0  0  0  0  3  0  0  0  0  0  0
   -3.5107   -1.4048   -0.2008 H   0  0  0  0  0  0  0  0  0  0  0  0
   -4.1248   -0.6074   -2.1385 C   0  0  0  0  0  0  0  0  0  0  0  0
   -5.1250   -1.0601   -2.0891 H   0  0  0  0  0  0  0  0  0  0  0  0
   -3.7187    0.1447   -3.2534 C   0  0  0  0  0  0  0  0  0  0  0  0
   -4.3983    0.3004   -4.1035 H   0  0  0  0  0  0  0  0  0  0  0  0
   -2.4259    0.6754   -3.2685 C   0  0  0  0  0  0  0  0  0  0  0  0
   -2.0490    1.2472   -4.1284 H   0  0  0  0  0  0  0  0  0  0  0  0
   -1.5841    0.4583   -2.1628 C   0  0  0  0  0  0  0  0  0  0  0  0
   -0.2173    0.9046   -2.0708 C   0  0  0  0  0  3  0  0  0  0  0  0
    0.2687    1.4890   -2.8684 H   0  0  0  0  0  0  0  0  0  0  0  0
    1.7767    0.9414   -0.7675 C   0  0  0  0  0  0  0  0  0  0  0  0
    2.1287    2.2953   -0.5609 C   0  0  0  0  0  0  0  0  0  0  0  0
    3.4608    2.6287   -0.2631 C   0  0  0  0  0  0  0  0  0  0  0  0
    3.7252    3.6829   -0.0999 H   0  0  0  0  0  0  0  0  0  0  0  0
    4.4356    1.6298   -0.1624 C   0  0  0  0  0  0  0  0  0  0  0  0
    5.4760    1.8895    0.0772 H   0  0  0  0  0  0  0  0  0  0  0  0
    4.0749    0.2827   -0.3591 C   0  0  0  0  0  0  0  0  0  0  0  0
    2.7527   -0.0655   -0.6636 C   0  0  0  0  0  0  0  0  0  0  0  0
    2.4509   -1.1129   -0.8146 H   0  0  0  0  0  0  0  0  0  0  0  0
  1 17  1  0  0  0  0
  4 16  1  0  0  0  0
  5  3  1  0  0  0  0
  5  6  1  0  0  0  0
  7  8  1  0  0  0  0
  7  5  1  0  0  0  0
  9  7  2  0  0  0  0
 10  9  1  0  0  0  0
 11  9  1  0  0  0  0
 11 13  2  0  0  0  0
 12 11  1  0  0  0  0
 13 14  1  0  0  0  0
 13  3  1  0  0  0  0
 14  4  1  0  0  0  0
 15 14  1  0  0  0  0
 16 23  2  0  0  0  0
 16 17  1  0  0  0  0
 17 18  2  0  0  0  0
 18 20  1  0  0  0  0
 18 19  1  0  0  0  0
 20 21  1  0  0  0  0
 22  2  1  0  0  0  0
 22 20  2  0  0  0  0
 23 22  1  0  0  0  0
 24 23  1  0  0  0  0
M  END
