3,4
q = 0.0, confidence = 0.996

 27 28  0  0  0  0  0  0  0  0999 V2000
   -6.5429   -0.9023    0.5126 O   0  0  0  0  0  0  0  0  0  0  0  0
   -6.3541    0.2483   -1.4325 O   0  0  0  0  0  0  0  0  0  0  0  0
    2.3889   -1.1009   -0.0333 N   0  0  0  0  0  2  0  0  0  0  0  0
   -0.1805   -1.0828   -0.1437 N   0  0  0  0  0  2  0  0  0  0  0  0
    3.7358   -1.0370   -0.0762 C   0  0  0  0  0  3  0  0  0  0  0  0
    4.1734   -0.0390   -0.2126 H   0  0  0  0  0  0  0  0  0  0  0  0
    4.5384   -2.1777    0.0353 C   0  0  0  0  0  0  0  0  0  0  0  0
    5.6315   -2.0697    0.0052 H   0  0  0  0  0  0  0  0  0  0  0  0
    3.9332   -3.4381    0.1757 C   0  0  0  0  0  0  0  0  0  0  0  0
    4.5448   -4.3479    0.2602 H   0  0  0  0  0  0  0  0  0  0  0  0
    2.5380   -3.5149    0.1892 C   0  0  0  0  0  0  0  0  0  0  0  0
    2.0164   -4.4791    0.2699 H   0  0  0  0  0  0  0  0  0  0  0  0
    1.7867   -2.3301    0.0780 C   0  0  0  0  0  0  0  0  0  0  0  0
    0.3488   -2.2716    0.0228 C   0  0  0  0  0  3  0  0  0  0  0  0
   -0.2782   -3.1770    0.0720 H   0  0  0  0  0  0  0  0  0  0  0  0
   -1.5929   -0.9300   -0.2221 C   0  0  0  0  0  0  0  0  0  0  0  0
   -2.1473   -0.2401   -1.3212 C   0  0  0  0  0  0  0  0  0  0  0  0
   -1.4748    0.1226   -2.1132 H   0  0  0  0  0  0  0  0  0  0  0  0
   -3.5322   -0.0804   -1.3945 C   0  0  0  0  0  0  0  0  0  0  0  0
   -4.0032    0.4360   -2.2440 H   0  0  0  0  0  0  0  0  0  0  0  0
   -4.3673   -0.5852   -0.3759 C   0  0  0  0  0  0  0  0  0  0  0  0
   -3.8055   -1.2727    0.7169 C   0  0  0  0  0  0  0  0  0  0  0  0
   -4.4617   -1.6601    1.5083 H   0  0  0  0  0  0  0  0  0  0  0  0
   -2.4186   -1.4516    0.7948 C   0  0  0  0  0  0  0  0  0  0  0  0
   -1.9681   -1.9678    1.6558 H   0  0  0  0  0  0  0  0  0  0  0  0
   -5.8436   -0.3581   -0.5095 C   0  0  0  0  0  0  0  0  0  0  0  0
   -7.4886   -0.7067    0.3334 H   0  0  0  0  0  0  0  0  0  0  0  0
  2 26  2  0  0  0  0
  3 13  1  0  0  0  0
  4 14  1  0  0  0  0
  5  3  1  0  0  0  0
  5  7  1  0  0  0  0
  6  5  1  0  0  0  0
  7  9  2  0  0  0  0
  8  7  1  0  0  0  0
  9 11  1  0  0  0  0
  9 10  1  0  0  0  0
 11 12  1  0  0  0  0
 13 11  2  0  0  0  0
 14 15  1  0  0  0  0
 14 13  1  0  0  0  0
 16  4  1  0  0  0  0
 16 24  1  0  0  0  0
 17 16  2  0  0  0  0
 18 17  1  0  0  0  0
 19 17  1  0  0  0  0
 19 21  2  0  0  0  0
 20 19  1  0  0  0  0
 21 22  1  0  0  0  0
 22 24  2  0  0  0  0
 22 23  1  0  0  0  0
 24 25  1  0  0  0  0
 26 21  1  0  0  0  0
 26  1  1  0  0  0  0
 27  1  1  0  0  0  0
M  END
