2,7
q = -1.0

 26 29  0  0  1  0  0  0  0  0999 V2000
    6.7965    0.1979   -0.0494 Br  0  0  0  0  0  0  0  0  0  0  0  0
    0.4922   -0.7641   -0.0788 N   0  0  0  0  0  2  0  0  0  0  0  0
    1.1968   -1.8897   -0.1062 N   0  0  0  0  0  0  0  0  0  0  0  0
    3.5519   -2.3784   -0.1168 N   0  0  0  0  0  0  0  0  0  0  0  0
    1.0061    2.8848    0.0161 N   0  0  0  0  0  0  0  0  0  0  0  0
    1.9740    3.1726    0.1462 H   0  0  0  0  0  0  0  0  0  0  0  0
   -0.7768    1.5411   -0.1581 N   0  0  0  0  0  2  0  0  0  0  0  0
    2.5166   -1.5180   -0.0928 C   0  0  0  0  0  0  0  0  0  0  0  0
    4.7657   -1.8361   -0.1014 C   0  0  0  0  0  0  0  0  0  0  0  0
    5.6322   -2.5201   -0.1191 H   0  0  0  0  0  0  0  0  0  0  0  0
    5.0002   -0.4281   -0.0646 C   0  0  0  0  0  0  0  0  0  0  0  0
    3.9409    0.4804   -0.0415 C   0  0  0  0  0  0  0  0  0  0  0  0
    4.1336    1.5630   -0.0154 H   0  0  0  0  0  0  0  0  0  0  0  0
    2.6446   -0.0761   -0.0545 C   0  0  1  0  0  3  0  0  0  0  0  0
    1.2971    0.3644   -0.0482 C   0  0  0  0  0  0  0  0  0  0  0  0
    0.5690    1.5907   -0.0623 C   0  0  0  0  0  0  0  0  0  0  0  0
   -0.1070    3.7189   -0.0011 C   0  0  0  0  0  0  0  0  0  0  0  0
   -0.2355    5.1123    0.0575 C   0  0  0  0  0  0  0  0  0  0  0  0
    0.6421    5.7702    0.1365 H   0  0  0  0  0  0  0  0  0  0  0  0
   -1.5383    5.6299    0.0196 C   0  0  0  0  0  0  0  0  0  0  0  0
   -1.6844    6.7191    0.0679 H   0  0  0  0  0  0  0  0  0  0  0  0
   -2.6650    4.7796   -0.0697 C   0  0  0  0  0  0  0  0  0  0  0  0
   -3.6709    5.2252   -0.0830 H   0  0  0  0  0  0  0  0  0  0  0  0
   -2.5376    3.3861   -0.1302 C   0  0  0  0  0  0  0  0  0  0  0  0
   -3.4012    2.7079   -0.1678 H   0  0  0  0  0  0  0  0  0  0  0  0
   -1.2370    2.8517   -0.1022 C   0  0  0  0  0  0  0  0  0  0  0  0
  2 15  1  0  0  0  0
  3  8  2  0  0  0  0
  3  2  1  0  0  0  0
  4  9  2  0  0  0  0
  4  8  1  0  0  0  0
  5  6  1  0  0  0  0
  7 26  1  0  0  0  0
  7 16  1  0  0  0  0
  9 11  1  0  0  0  0
 10  9  1  0  0  0  0
 11  1  1  0  0  0  0
 11 12  2  0  0  0  0
 12 13  1  0  0  0  0
 14  8  1  6  0  0  0
 14 15  1  0  0  0  0
 14 12  1  0  0  0  0
 16 15  2  0  0  0  0
 16  5  1  0  0  0  0
 17  5  1  0  0  0  0
 17 18  1  0  0  0  0
 18 19  1  0  0  0  0
 20 18  2  0  0  0  0
 20 21  1  0  0  0  0
 22 20  1  0  0  0  0
 23 22  1  0  0  0  0
 24 26  1  0  0  0  0
 24 22  2  0  0  0  0
 25 24  1  0  0  0  0
 26 17  2  0  0  0  0
M  END
