1,3
q = 0.0, confidence = 0.998

 34 36  0  0  1  0  0  0  0  0999 V2000
   -2.6419    1.1963   -0.2967 N   0  0  0  0  0  2  0  0  0  0  0  0
    0.5461    2.9207   -0.1848 N   0  0  0  0  0  0  0  0  0  0  0  0
   -0.0392    0.6378   -0.5795 N   0  0  0  0  0  2  0  0  0  0  0  0
    8.5518   -0.5168   -0.1841 N   0  0  0  0  0  0  0  0  0  0  0  0
   -3.9730    1.4319   -0.2358 C   0  0  0  0  0  3  0  0  0  0  0  0
   -4.4973    2.7100   -0.0120 C   0  0  0  0  0  0  0  0  0  0  0  0
   -3.6171    3.7900    0.1591 C   0  0  0  0  0  0  0  0  0  0  0  0
   -2.2396    3.5548    0.0856 C   0  0  0  0  0  0  0  0  0  0  0  0
   -1.7847    2.2480   -0.1497 C   0  0  0  0  0  0  0  0  0  0  0  0
   -0.3502    1.9384   -0.2964 C   0  0  2  0  0  3  0  0  0  0  0  0
    1.8339    2.6174   -0.3748 C   0  0  0  0  0  0  0  0  0  0  0  0
    1.2644    0.3437   -0.7885 C   0  0  0  0  0  0  0  0  0  0  0  0
    2.2740    1.3146   -0.7029 C   0  0  0  0  0  0  0  0  0  0  0  0
    3.7233    0.9659   -0.8799 C   0  0  0  0  0  0  0  0  0  0  0  0
    4.3702    0.4704    0.4409 C   0  0  0  0  0  0  0  0  0  0  0  0
    5.8270    0.1184    0.2550 C   0  0  0  0  0  0  0  0  0  0  0  0
    6.8409    1.0748    0.4460 C   0  0  0  0  0  0  0  0  0  0  0  0
    8.1770    0.7075    0.2157 C   0  0  0  0  0  0  0  0  0  0  0  0
    7.5853   -1.4292   -0.3661 C   0  0  0  0  0  0  0  0  0  0  0  0
    6.2207   -1.1658   -0.1642 C   0  0  0  0  0  0  0  0  0  0  0  0
   -4.6296    0.5612   -0.3793 H   0  0  0  0  0  0  0  0  0  0  0  0
   -5.5872    2.8473    0.0231 H   0  0  0  0  0  0  0  0  0  0  0  0
   -4.0012    4.8048    0.3389 H   0  0  0  0  0  0  0  0  0  0  0  0
   -1.4925    4.3530    0.1942 H   0  0  0  0  0  0  0  0  0  0  0  0
    2.5594    3.4445   -0.2767 H   0  0  0  0  0  0  0  0  0  0  0  0
    1.4978   -0.7028   -1.0410 H   0  0  0  0  0  0  0  0  0  0  0  0
    3.8318    0.1780   -1.6533 H   0  0  0  0  0  0  0  0  0  0  0  0
    4.2803    1.8519   -1.2464 H   0  0  0  0  0  0  0  0  0  0  0  0
    4.2631    1.2593    1.2146 H   0  0  0  0  0  0  0  0  0  0  0  0
    3.8095   -0.4168    0.8055 H   0  0  0  0  0  0  0  0  0  0  0  0
    6.5986    2.0965    0.7799 H   0  0  0  0  0  0  0  0  0  0  0  0
    8.9857    1.4450    0.3663 H   0  0  0  0  0  0  0  0  0  0  0  0
    7.9116   -2.4337   -0.6898 H   0  0  0  0  0  0  0  0  0  0  0  0
    5.4755   -1.9615   -0.3256 H   0  0  0  0  0  0  0  0  0  0  0  0
  1  5  1  0  0  0  0
  1  9  1  0  0  0  0
  3 10  1  0  0  0  0
  4 18  1  0  0  0  0
  5  6  1  0  0  0  0
  6 22  1  0  0  0  0
  6  7  2  0  0  0  0
  7 23  1  0  0  0  0
  8  7  1  0  0  0  0
  8 24  1  0  0  0  0
  9  8  2  0  0  0  0
 10  2  1  0  0  0  0
 10  9  1  6  0  0  0
 11 25  1  0  0  0  0
 11  2  2  0  0  0  0
 12 13  2  0  0  0  0
 12  3  1  0  0  0  0
 13 11  1  0  0  0  0
 14 13  1  0  0  0  0
 14 15  1  0  0  0  0
 15 30  1  0  0  0  0
 15 29  1  0  0  0  0
 16 15  1  0  0  0  0
 16 17  1  0  0  0  0
 17 31  1  0  0  0  0
 18 32  1  0  0  0  0
 18 17  2  0  0  0  0
 19  4  2  0  0  0  0
 19 20  1  0  0  0  0
 20 16  2  0  0  0  0
 21  5  1  0  0  0  0
 26 12  1  0  0  0  0
 27 14  1  0  0  0  0
 28 14  1  0  0  0  0
 33 19  1  0  0  0  0
 34 20  1  0  0  0  0
M  END
