2,4
q = -1.0, confidence = 0.068

 54 57  0  0  1  0  0  0  0  0999 V2000
    0.7388    1.1098    0.3722 N   0  0  0  0  0  0  0  0  0  0  0  0
   -0.5176    1.6078    0.3985 N   0  0  0  0  0  2  0  0  0  0  0  0
    0.2050   -1.2223   -0.3683 N   0  0  0  0  0  0  0  0  0  0  0  0
   -1.1387   -1.1121   -0.4604 N   0  0  0  0  0  2  0  0  0  0  0  0
    2.3898   -0.7675    0.8562 N   0  0  0  0  0  0  0  0  0  0  0  0
    3.1891   -0.6039   -0.2230 N   0  0  0  0  0  0  0  0  0  0  0  0
    0.9023   -0.4031    0.7790 B   0  0  1  0  0  0  0  0  0  0  0  0
   -0.4413    2.8770   -0.0497 C   0  0  1  0  0  3  0  0  0  0  0  0
    0.8913    3.2042   -0.3757 C   0  0  0  0  0  0  0  0  0  0  0  0
    1.2681    4.1545   -0.7633 H   0  0  0  0  0  0  0  0  0  0  0  0
    1.6121    2.0409   -0.0933 C   0  0  0  0  0  0  0  0  0  0  0  0
    2.6708    1.7936   -0.2236 H   0  0  0  0  0  0  0  0  0  0  0  0
   -1.6597    3.7388   -0.1838 C   0  0  0  0  0  0  0  0  0  0  0  0
   -2.6431    3.2829   -1.3052 C   0  0  0  0  0  0  0  0  0  0  0  0
   -1.5129   -1.8241   -1.5411 C   0  0  1  0  0  3  0  0  0  0  0  0
   -0.3895   -2.4177   -2.1536 C   0  0  0  0  0  0  0  0  0  0  0  0
   -0.3733   -3.0552   -3.0420 H   0  0  0  0  0  0  0  0  0  0  0  0
    0.6910   -1.9951   -1.3751 C   0  0  0  0  0  0  0  0  0  0  0  0
    1.7702   -2.1492   -1.4792 H   0  0  0  0  0  0  0  0  0  0  0  0
   -2.9558   -1.9824   -1.9076 C   0  0  0  0  0  0  0  0  0  0  0  0
   -3.6359   -3.2021   -1.2138 C   0  0  0  0  0  0  0  0  0  0  0  0
    4.4075   -0.9987    0.1744 C   0  0  0  0  0  0  0  0  0  0  0  0
    4.4133   -1.4161    1.5290 C   0  0  0  0  0  0  0  0  0  0  0  0
    5.2583   -1.7844    2.1176 H   0  0  0  0  0  0  0  0  0  0  0  0
    3.0901   -1.2552    1.9284 C   0  0  0  0  0  0  0  0  0  0  0  0
    2.5940   -1.4503    2.8846 H   0  0  0  0  0  0  0  0  0  0  0  0
    5.5691   -0.8978   -0.7672 C   0  0  0  0  0  0  0  0  0  0  0  0
    6.1656    0.5382   -0.8576 C   0  0  0  0  0  0  0  0  0  0  0  0
    0.1379   -0.6666    2.1819 C   0  0  0  0  0  0  0  0  0  0  0  0
    0.1347    0.3159    3.2008 C   0  0  0  0  0  0  0  0  0  0  0  0
    0.6076    1.2924    3.0100 H   0  0  0  0  0  0  0  0  0  0  0  0
   -0.4721    0.0815    4.4439 C   0  0  0  0  0  0  0  0  0  0  0  0
   -0.4645    0.8662    5.2161 H   0  0  0  0  0  0  0  0  0  0  0  0
   -1.0932   -1.1524    4.7003 C   0  0  0  0  0  0  0  0  0  0  0  0
   -1.5764   -1.3377    5.6718 H   0  0  0  0  0  0  0  0  0  0  0  0
   -1.0905   -2.1495    3.7112 C   0  0  0  0  0  0  0  0  0  0  0  0
   -1.5702   -3.1212    3.9060 H   0  0  0  0  0  0  0  0  0  0  0  0
   -0.4799   -1.9067    2.4709 C   0  0  0  0  0  0  0  0  0  0  0  0
   -0.4999   -2.6947    1.7017 H   0  0  0  0  0  0  0  0  0  0  0  0
   -2.3799    3.7779    0.9825 F   0  0  0  0  0  0  0  0  0  0  0  0
   -1.2823    5.0119   -0.4910 F   0  0  0  0  0  0  0  0  0  0  0  0
   -3.6482    4.1590   -1.4381 F   0  0  0  0  0  0  0  0  0  0  0  0
   -1.9909    3.1818   -2.4738 F   0  0  0  0  0  0  0  0  0  0  0  0
   -3.1733    2.0724   -1.0057 F   0  0  0  0  0  0  0  0  0  0  0  0
   -3.6776   -0.8707   -1.5630 F   0  0  0  0  0  0  0  0  0  0  0  0
   -3.0808   -2.1777   -3.2508 F   0  0  0  0  0  0  0  0  0  0  0  0
   -3.5169   -3.1027    0.1272 F   0  0  0  0  0  0  0  0  0  0  0  0
   -3.0386   -4.3399   -1.6104 F   0  0  0  0  0  0  0  0  0  0  0  0
   -4.9391   -3.2635   -1.5232 F   0  0  0  0  0  0  0  0  0  0  0  0
    5.2161   -1.2624   -2.0332 F   0  0  0  0  0  0  0  0  0  0  0  0
    6.5836   -1.7137   -0.3470 F   0  0  0  0  0  0  0  0  0  0  0  0
    5.2334    1.4093   -1.2967 F   0  0  0  0  0  0  0  0  0  0  0  0
    7.2097    0.5732   -1.7000 F   0  0  0  0  0  0  0  0  0  0  0  0
    6.5800    0.9374    0.3607 F   0  0  0  0  0  0  0  0  0  0  0  0
  1  2  1  0  0  0  0
  1  7  1  0  0  0  0
  3  7  1  0  0  0  0
  4  3  1  0  0  0  0
  5 25  1  0  0  0  0
  6 22  2  0  0  0  0
  6  5  1  0  0  0  0
  7  5  1  0  0  0  0
  7 29  1  1  0  0  0
  8 13  1  6  0  0  0
  8  2  1  0  0  0  0
  9 11  2  0  0  0  0
  9  8  1  0  0  0  0
 10  9  1  0  0  0  0
 11  1  1  0  0  0  0
 12 11  1  0  0  0  0
 13 40  1  0  0  0  0
 14 44  1  0  0  0  0
 14 13  1  0  0  0  0
 15 20  1  1  0  0  0
 15  4  1  0  0  0  0
 16 15  1  0  0  0  0
 16 18  2  0  0  0  0
 17 16  1  0  0  0  0
 18  3  1  0  0  0  0
 19 18  1  0  0  0  0
 20 45  1  0  0  0  0
 20 21  1  0  0  0  0
 21 47  1  0  0  0  0
 22 23  1  0  0  0  0
 23 25  2  0  0  0  0
 23 24  1  0  0  0  0
 25 26  1  0  0  0  0
 27 51  1  0  0  0  0
 27 22  1  0  0  0  0
 28 27  1  0  0  0  0
 28 54  1  0  0  0  0
 29 38  2  0  0  0  0
 29 30  1  0  0  0  0
 30 32  2  0  0  0  0
 31 30  1  0  0  0  0
 32 34  1  0  0  0  0
 32 33  1  0  0  0  0
 34 35  1  0  0  0  0
 36 37  1  0  0  0  0
 36 34  2  0  0  0  0
 38 36  1  0  0  0  0
 39 38  1  0  0  0  0
 41 13  1  0  0  0  0
 42 14  1  0  0  0  0
 43 14  1  0  0  0  0
 46 20  1  0  0  0  0
 48 21  1  0  0  0  0
 49 21  1  0  0  0  0
 50 27  1  0  0  0  0
 52 28  1  0  0  0  0
 53 28  1  0  0  0  0
M  END
