1,2
q = -1.0

 22 21  0  0  1  0  0  0  0  0999 V2000
    0.9855    0.0647   -1.5641 N   0  0  0  0  0  2  0  0  0  0  0  0
   -0.1919    2.1798   -0.0109 N   0  0  0  0  0  2  0  0  0  0  0  0
    2.0867    0.8066   -1.4420 C   0  0  0  0  0  0  0  0  0  0  0  0
    2.1397    1.9848   -0.6472 C   0  0  0  0  0  0  0  0  0  0  0  0
    3.1111    2.4964   -0.6105 H   0  0  0  0  0  0  0  0  0  0  0  0
    1.0441    2.6980   -0.1136 C   0  0  1  0  0  3  0  0  0  0  0  0
    3.3392    0.4349   -2.2065 C   0  0  0  0  0  0  0  0  0  0  0  0
    3.6237   -0.6164   -1.9908 H   0  0  0  0  0  0  0  0  0  0  0  0
    4.1868    1.0926   -1.9419 H   0  0  0  0  0  0  0  0  0  0  0  0
    3.1800    0.5050   -3.3031 H   0  0  0  0  0  0  0  0  0  0  0  0
    1.2918    4.1250    0.3279 C   0  0  0  0  0  0  0  0  0  0  0  0
    0.7489    4.8444   -0.3210 H   0  0  0  0  0  0  0  0  0  0  0  0
    2.3668    4.3770    0.2842 H   0  0  0  0  0  0  0  0  0  0  0  0
    0.9281    4.2987    1.3622 H   0  0  0  0  0  0  0  0  0  0  0  0
    0.9497   -0.9526   -2.6029 C   0  0  0  0  0  0  0  0  0  0  0  0
    1.1705   -0.5354   -3.6111 H   0  0  0  0  0  0  0  0  0  0  0  0
   -0.0636   -1.3969   -2.6401 H   0  0  0  0  0  0  0  0  0  0  0  0
    1.6740   -1.7778   -2.4169 H   0  0  0  0  0  0  0  0  0  0  0  0
   -1.2956    3.0653    0.3335 C   0  0  0  0  0  0  0  0  0  0  0  0
   -1.2621    3.4011    1.3960 H   0  0  0  0  0  0  0  0  0  0  0  0
   -2.2527    2.5285    0.1895 H   0  0  0  0  0  0  0  0  0  0  0  0
   -1.3321    3.9759   -0.3048 H   0  0  0  0  0  0  0  0  0  0  0  0
  1  3  1  0  0  0  0
  2 19  1  0  0  0  0
  3  4  2  0  0  0  0
  4  5  1  0  0  0  0
  6  4  1  6  0  0  0
  6  2  1  0  0  0  0
  6 11  1  0  0  0  0
  7  8  1  0  0  0  0
  7  9  1  0  0  0  0
  7  3  1  0  0  0  0
 10  7  1  0  0  0  0
 11 14  1  0  0  0  0
 12 11  1  0  0  0  0
 13 11  1  0  0  0  0
 15 18  1  0  0  0  0
 15  1  1  0  0  0  0
 16 15  1  0  0  0  0
 17 15  1  0  0  0  0
 19 20  1  0  0  0  0
 21 19  1  0  0  0  0
 22 19  1  0  0  0  0
M  END
