1,3
q = -1.0

 16 15  0  0  1  0  0  0  0  0999 V2000
   -0.7936    1.8567    1.1241 N   0  0  0  0  0  2  0  0  0  0  0  0
   -0.1305    2.6418    1.1661 H   0  0  0  0  0  0  0  0  0  0  0  0
   -1.7730   -0.7011    1.2760 N   0  0  0  0  0  2  0  0  0  0  0  0
   -1.8629   -1.7241    1.3104 H   0  0  0  0  0  0  0  0  0  0  0  0
   -1.9753    2.1991    1.6342 C   0  0  1  0  0  3  0  0  0  0  0  0
   -3.0385    1.2858    1.7976 C   0  0  0  0  0  0  0  0  0  0  0  0
   -3.9931    1.6724    2.1785 H   0  0  0  0  0  0  0  0  0  0  0  0
   -2.8928   -0.1180    1.6857 C   0  0  0  0  0  0  0  0  0  0  0  0
   -2.1737    3.6229    2.1181 C   0  0  0  0  0  0  0  0  0  0  0  0
   -1.7229    4.3525    1.4136 H   0  0  0  0  0  0  0  0  0  0  0  0
   -1.6804    3.7650    3.1034 H   0  0  0  0  0  0  0  0  0  0  0  0
   -3.2447    3.8719    2.2422 H   0  0  0  0  0  0  0  0  0  0  0  0
   -4.0769   -0.9946    2.0414 C   0  0  0  0  0  0  0  0  0  0  0  0
   -4.4879   -1.4465    1.1136 H   0  0  0  0  0  0  0  0  0  0  0  0
   -4.8855   -0.4319    2.5444 H   0  0  0  0  0  0  0  0  0  0  0  0
   -3.7645   -1.8273    2.7054 H   0  0  0  0  0  0  0  0  0  0  0  0
  1  2  1  0  0  0  0
  3  4  1  0  0  0  0
  3  8  1  0  0  0  0
  5  1  1  1  0  0  0
  5  6  1  0  0  0  0
  5  9  1  0  0  0  0
  6  7  1  0  0  0  0
  8  6  2  0  0  0  0
  8 13  1  0  0  0  0
  9 12  1  0  0  0  0
  9 11  1  0  0  0  0
 10  9  1  0  0  0  0
 13 15  1  0  0  0  0
 13 16  1  0  0  0  0
 14 13  1  0  0  0  0
M  END
