2,9
q = -1.0

 24 25  0  0  0  0  0  0  0  0999 V2000
    5.7993   -2.5931   -1.0879 Cl  0  0  0  0  0  0  0  0  0  0  0  0
   -1.7517    1.3667   -0.8740 N   0  0  0  0  0  2  0  0  0  0  0  0
   -4.1673    0.9284   -2.1832 C   0  0  0  0  0  0  0  0  0  0  0  0
   -5.1310    0.7485   -2.6823 H   0  0  0  0  0  0  0  0  0  0  0  0
   -2.7618    2.2446   -0.7202 C   0  0  0  0  0  3  0  0  0  0  0  0
   -2.5765    3.0901   -0.0426 H   0  0  0  0  0  0  0  0  0  0  0  0
   -3.9876    2.0580   -1.3681 C   0  0  0  0  0  0  0  0  0  0  0  0
   -4.7933    2.7900   -1.2180 H   0  0  0  0  0  0  0  0  0  0  0  0
    0.4039   -0.0580   -1.2185 N   0  0  0  0  0  2  0  0  0  0  0  0
    1.6592   -0.6974   -1.2590 C   0  0  0  0  0  0  0  0  0  0  0  0
   -1.8952    0.2962   -1.6926 C   0  0  0  0  0  0  0  0  0  0  0  0
    1.8020   -2.0796   -1.0039 C   0  0  0  0  0  0  0  0  0  0  0  0
    0.9062   -2.6923   -0.8415 H   0  0  0  0  0  0  0  0  0  0  0  0
   -0.6845   -0.5785   -1.8699 C   0  0  0  0  0  0  0  0  0  0  0  0
   -3.1006    0.0381   -2.3525 C   0  0  0  0  0  0  0  0  0  0  0  0
   -3.1493   -0.8625   -2.9809 H   0  0  0  0  0  0  0  0  0  0  0  0
   -0.7103   -1.5864   -2.5830 O   0  0  0  0  0  0  0  0  0  0  0  0
    3.0716   -2.6666   -0.9639 C   0  0  0  0  0  0  0  0  0  0  0  0
    3.1862   -3.7391   -0.7540 H   0  0  0  0  0  0  0  0  0  0  0  0
    2.8135    0.0757   -1.5113 C   0  0  0  0  0  0  0  0  0  0  0  0
    2.6863    1.1453   -1.7354 H   0  0  0  0  0  0  0  0  0  0  0  0
    4.2102   -1.8719   -1.1766 C   0  0  0  0  0  0  0  0  0  0  0  0
    4.0863   -0.5014   -1.4617 C   0  0  0  0  0  0  0  0  0  0  0  0
    4.9867    0.1014   -1.6463 H   0  0  0  0  0  0  0  0  0  0  0  0
  2  5  1  0  0  0  0
  3  7  2  0  0  0  0
  4  3  1  0  0  0  0
  5  6  1  0  0  0  0
  7  8  1  0  0  0  0
  7  5  1  0  0  0  0
 10  9  1  0  0  0  0
 10 12  1  0  0  0  0
 11  2  1  0  0  0  0
 12 18  2  0  0  0  0
 12 13  1  0  0  0  0
 14 11  1  0  0  0  0
 14  9  1  0  0  0  0
 15  3  1  0  0  0  0
 15 11  2  0  0  0  0
 16 15  1  0  0  0  0
 17 14  2  0  0  0  0
 18 19  1  0  0  0  0
 20 23  1  0  0  0  0
 20 10  2  0  0  0  0
 21 20  1  0  0  0  0
 22  1  1  0  0  0  0
 22 18  1  0  0  0  0
 23 22  2  0  0  0  0
 24 23  1  0  0  0  0
M  END
