1,2
q = -1.0

 28 29  0  0  0  0  0  0  0  0999 V2000
    2.1540    1.3077   -0.2617 N   0  0  0  0  0  2  0  0  0  0  0  0
   -0.1624    2.4275   -0.0394 N   0  0  0  0  0  2  0  0  0  0  0  0
    3.2659    3.3606   -0.2820 O   0  0  0  0  0  0  0  0  0  0  0  0
   -1.4326    2.8725   -0.0528 C   0  0  0  0  0  3  0  0  0  0  0  0
   -2.2141    2.1008   -0.0044 H   0  0  0  0  0  0  0  0  0  0  0  0
    6.5494   -2.0928   -0.9193 O   0  0  0  0  0  0  0  0  0  0  0  0
    0.6674    4.6722   -0.1877 C   0  0  0  0  0  0  0  0  0  0  0  0
    1.5576    5.3150   -0.2463 H   0  0  0  0  0  0  0  0  0  0  0  0
    7.6978   -1.9895   -0.1025 C   0  0  0  0  0  0  0  0  0  0  0  0
    8.1929   -0.9971   -0.2025 H   0  0  0  0  0  0  0  0  0  0  0  0
    8.3981   -2.7753   -0.4423 H   0  0  0  0  0  0  0  0  0  0  0  0
    7.4626   -2.1574    0.9735 H   0  0  0  0  0  0  0  0  0  0  0  0
    3.3201   -0.4818   -1.4402 C   0  0  0  0  0  0  0  0  0  0  0  0
    2.4377   -0.5750   -2.0922 H   0  0  0  0  0  0  0  0  0  0  0  0
    0.8761    3.2907   -0.1191 C   0  0  0  0  0  0  0  0  0  0  0  0
    5.5287   -1.2109   -0.7122 C   0  0  0  0  0  0  0  0  0  0  0  0
    5.5251   -0.2115    0.2841 C   0  0  0  0  0  0  0  0  0  0  0  0
    6.3801   -0.0856    0.9620 H   0  0  0  0  0  0  0  0  0  0  0  0
    3.3000    0.5111   -0.4308 C   0  0  0  0  0  0  0  0  0  0  0  0
    4.4160    0.6370    0.4223 C   0  0  0  0  0  0  0  0  0  0  0  0
    4.4046    1.4111    1.2008 H   0  0  0  0  0  0  0  0  0  0  0  0
   -1.7116    4.2415   -0.1294 C   0  0  0  0  0  0  0  0  0  0  0  0
   -2.7572    4.5796   -0.1418 H   0  0  0  0  0  0  0  0  0  0  0  0
    2.2431    2.6713   -0.1982 C   0  0  0  0  0  0  0  0  0  0  0  0
   -0.6460    5.1563   -0.1888 C   0  0  0  0  0  0  0  0  0  0  0  0
   -0.8441    6.2374   -0.2418 H   0  0  0  0  0  0  0  0  0  0  0  0
    4.4148   -1.3360   -1.5725 C   0  0  0  0  0  0  0  0  0  0  0  0
    4.4403   -2.1155   -2.3482 H   0  0  0  0  0  0  0  0  0  0  0  0
  1 24  1  0  0  0  0
  3 24  2  0  0  0  0
  4  2  1  0  0  0  0
  4  5  1  0  0  0  0
  6 16  1  0  0  0  0
  6  9  1  0  0  0  0
  7 15  2  0  0  0  0
  8  7  1  0  0  0  0
  9 12  1  0  0  0  0
 10  9  1  0  0  0  0
 11  9  1  0  0  0  0
 13 19  1  0  0  0  0
 14 13  1  0  0  0  0
 15  2  1  0  0  0  0
 16 17  2  0  0  0  0
 17 20  1  0  0  0  0
 17 18  1  0  0  0  0
 19  1  1  0  0  0  0
 19 20  2  0  0  0  0
 20 21  1  0  0  0  0
 22  4  1  0  0  0  0
 23 22  1  0  0  0  0
 24 15  1  0  0  0  0
 25  7  1  0  0  0  0
 25 22  2  0  0  0  0
 26 25  1  0  0  0  0
 27 13  2  0  0  0  0
 27 16  1  0  0  0  0
 28 27  1  0  0  0  0
M  END
