2,3
q = 0.0, confidence = 0.996

 26 28  0  0  0  0  0  0  0  0999 V2000
    4.2207   -1.1163    0.5770 S   0  0  0  0  0  0  0  0  0  0  0  0
    1.8525   -0.0314    0.4271 N   0  0  0  0  0  2  0  0  0  0  0  0
    0.6660   -1.7388   -1.2345 N   0  0  0  0  0  2  0  0  0  0  0  0
    2.5970    0.8214    1.2189 C   0  0  0  0  0  0  0  0  0  0  0  0
    2.1408    2.0233    1.7984 C   0  0  0  0  0  0  0  0  0  0  0  0
    3.0322    2.7692    2.5715 C   0  0  0  0  0  0  0  0  0  0  0  0
    4.3631    2.3330    2.7739 C   0  0  0  0  0  0  0  0  0  0  0  0
    4.8362    1.1433    2.2070 C   0  0  0  0  0  0  0  0  0  0  0  0
    3.9424    0.3929    1.4264 C   0  0  0  0  0  0  0  0  0  0  0  0
    2.5595   -1.0768    0.0158 C   0  0  0  0  0  0  0  0  0  0  0  0
    1.9346   -2.0712   -0.8537 C   0  0  0  0  0  0  0  0  0  0  0  0
    2.5526   -3.2626   -1.2696 C   0  0  0  0  0  0  0  0  0  0  0  0
    1.8333   -4.1291   -2.1000 C   0  0  0  0  0  0  0  0  0  0  0  0
    0.5280   -3.7855   -2.4816 C   0  0  0  0  0  0  0  0  0  0  0  0
   -0.0398   -2.5786   -2.0293 C   0  0  0  0  0  0  0  0  0  0  0  0
   -1.4382   -2.1615   -2.3763 C   0  0  0  0  0  0  0  0  0  0  0  0
    1.1012    2.3413    1.6317 H   0  0  0  0  0  0  0  0  0  0  0  0
    2.6972    3.7091    3.0338 H   0  0  0  0  0  0  0  0  0  0  0  0
    5.0432    2.9398    3.3895 H   0  0  0  0  0  0  0  0  0  0  0  0
    5.8720    0.8127    2.3683 H   0  0  0  0  0  0  0  0  0  0  0  0
    3.5751   -3.5027   -0.9429 H   0  0  0  0  0  0  0  0  0  0  0  0
    2.2859   -5.0693   -2.4473 H   0  0  0  0  0  0  0  0  0  0  0  0
   -0.0584   -4.4477   -3.1341 H   0  0  0  0  0  0  0  0  0  0  0  0
   -1.4603   -1.0898   -2.6594 H   0  0  0  0  0  0  0  0  0  0  0  0
   -1.8583   -2.7683   -3.1990 H   0  0  0  0  0  0  0  0  0  0  0  0
   -2.0989   -2.2727   -1.4901 H   0  0  0  0  0  0  0  0  0  0  0  0
  1  9  1  0  0  0  0
  2  4  1  0  0  0  0
  3 11  1  0  0  0  0
  4  9  2  0  0  0  0
  4  5  1  0  0  0  0
  5  6  2  0  0  0  0
  6  7  1  0  0  0  0
  6 18  1  0  0  0  0
  7 19  1  0  0  0  0
  8 20  1  0  0  0  0
  8  7  2  0  0  0  0
  9  8  1  0  0  0  0
 10  2  1  0  0  0  0
 10  1  1  0  0  0  0
 11 10  2  0  0  0  0
 12 21  1  0  0  0  0
 12 11  1  0  0  0  0
 13 12  2  0  0  0  0
 14 13  1  0  0  0  0
 14 15  2  0  0  0  0
 15  3  1  0  0  0  0
 16 15  1  0  0  0  0
 16 26  1  0  0  0  0
 17  5  1  0  0  0  0
 22 13  1  0  0  0  0
 23 14  1  0  0  0  0
 24 16  1  0  0  0  0
 25 16  1  0  0  0  0
M  END
