2,11
q = 0.0, confidence = 0.99

 31 33  0  0  0  0  0  0  0  0999 V2000
   -1.6463    2.2408   -0.4138 N   0  0  0  0  0  0  0  0  0  0  0  0
   -2.5396    1.3150    0.0178 N   0  0  0  0  0  2  0  0  0  0  0  0
   -3.5492    2.0014    0.5966 C   0  0  0  0  0  3  0  0  0  0  0  0
   -4.3995    1.4667    1.0345 H   0  0  0  0  0  0  0  0  0  0  0  0
   -3.2997    3.3845    0.5322 C   0  0  0  0  0  0  0  0  0  0  0  0
   -3.9285    4.1957    0.9116 H   0  0  0  0  0  0  0  0  0  0  0  0
   -2.0746    3.4996   -0.1219 C   0  0  0  0  0  0  0  0  0  0  0  0
   -1.4847    4.3776   -0.4079 H   0  0  0  0  0  0  0  0  0  0  0  0
    1.8726   -0.3554    0.6435 N   0  0  0  0  0  0  0  0  0  0  0  0
    0.7292   -1.0293    0.7304 N   0  0  0  0  0  2  0  0  0  0  0  0
   -0.1759   -0.2928    0.1171 N   0  0  0  0  0  2  0  0  0  0  0  0
    0.3790    0.8627   -0.3664 C   0  0  0  0  0  0  0  0  0  0  0  0
    1.7230    0.8262   -0.0229 C   0  0  0  0  0  0  0  0  0  0  0  0
    2.5615    1.5056   -0.2046 H   0  0  0  0  0  0  0  0  0  0  0  0
   -0.4458    1.8427   -1.1424 C   0  0  0  0  0  0  0  0  0  0  0  0
    0.1343    2.7572   -1.3579 H   0  0  0  0  0  0  0  0  0  0  0  0
   -0.7508    1.3974   -2.1148 H   0  0  0  0  0  0  0  0  0  0  0  0
    3.0999   -0.9008    1.2696 C   0  0  0  0  0  0  0  0  0  0  0  0
    2.9767   -2.0002    1.2467 H   0  0  0  0  0  0  0  0  0  0  0  0
    3.1021   -0.5781    2.3302 H   0  0  0  0  0  0  0  0  0  0  0  0
    4.3409   -0.4388    0.5501 C   0  0  0  0  0  0  0  0  0  0  0  0
    5.1140    0.6170    1.0718 C   0  0  0  0  0  0  0  0  0  0  0  0
    4.8317    1.0808    2.0306 H   0  0  0  0  0  0  0  0  0  0  0  0
    6.2527    1.0665    0.3852 C   0  0  0  0  0  0  0  0  0  0  0  0
    6.8580    1.8838    0.8043 H   0  0  0  0  0  0  0  0  0  0  0  0
    6.6229    0.4648   -0.8274 C   0  0  0  0  0  0  0  0  0  0  0  0
    7.5189    0.8125   -1.3628 H   0  0  0  0  0  0  0  0  0  0  0  0
    5.8571   -0.5901   -1.3521 C   0  0  0  0  0  0  0  0  0  0  0  0
    6.1543   -1.0709   -2.2959 H   0  0  0  0  0  0  0  0  0  0  0  0
    4.7209   -1.0412   -0.6669 C   0  0  0  0  0  0  0  0  0  0  0  0
    4.1291   -1.8761   -1.0749 H   0  0  0  0  0  0  0  0  0  0  0  0
  1  7  1  0  0  0  0
  1  2  1  0  0  0  0
  2  3  1  0  0  0  0
  3  4  1  0  0  0  0
  5  3  1  0  0  0  0
  5  6  1  0  0  0  0
  7  5  2  0  0  0  0
  8  7  1  0  0  0  0
  9 10  1  0  0  0  0
  9 18  1  0  0  0  0
 11 10  1  0  0  0  0
 12 13  2  0  0  0  0
 12 11  1  0  0  0  0
 13  9  1  0  0  0  0
 14 13  1  0  0  0  0
 15  1  1  0  0  0  0
 15 12  1  0  0  0  0
 16 15  1  0  0  0  0
 17 15  1  0  0  0  0
 18 20  1  0  0  0  0
 19 18  1  0  0  0  0
 21 22  1  0  0  0  0
 21 18  1  0  0  0  0
 22 23  1  0  0  0  0
 24 25  1  0  0  0  0
 24 22  2  0  0  0  0
 26 24  1  0  0  0  0
 27 26  1  0  0  0  0
 28 26  2  0  0  0  0
 28 30  1  0  0  0  0
 29 28  1  0  0  0  0
 30 21  2  0  0  0  0
 31 30  1  0  0  0  0
M  END
