3,8
q = 0.0, confidence = 1.0

 17 18  0  0  1  0  0  0  0  0999 V2000
   -0.4475    2.9277   -0.4866 C   0  0  0  0  0  3  0  0  0  0  0  0
    0.5121    3.4536   -0.5541 H   0  0  0  0  0  0  0  0  0  0  0  0
   -0.5085    1.5936   -0.4507 N   0  0  0  0  0  2  0  0  0  0  0  0
   -1.8432    1.3251   -0.3521 N   0  0  0  0  0  0  0  0  0  0  0  0
   -2.5184    2.5201   -0.3357 C   0  0  0  0  0  0  0  0  0  0  0  0
   -3.6096    2.5900   -0.2601 H   0  0  0  0  0  0  0  0  0  0  0  0
   -1.6665    3.5279   -0.4217 N   0  0  0  0  0  0  0  0  0  0  0  0
   -1.2622   -0.9244   -0.3043 N   0  0  0  0  0  2  0  0  0  0  0  0
   -2.2650   -0.0152   -0.2703 C   0  0  2  0  0  3  0  0  0  0  0  0
   -3.6193   -0.3644   -0.1742 C   0  0  0  0  0  0  0  0  0  0  0  0
   -4.3995    0.4073   -0.1504 H   0  0  0  0  0  0  0  0  0  0  0  0
   -3.9428   -1.7224   -0.1011 C   0  0  0  0  0  0  0  0  0  0  0  0
   -4.9941   -2.0332   -0.0188 H   0  0  0  0  0  0  0  0  0  0  0  0
   -2.9106   -2.6746   -0.1314 C   0  0  0  0  0  0  0  0  0  0  0  0
   -3.1221   -3.7508   -0.0719 H   0  0  0  0  0  0  0  0  0  0  0  0
   -1.5897   -2.2362   -0.2332 C   0  0  0  0  0  0  0  0  0  0  0  0
   -0.7454   -2.9391   -0.2518 H   0  0  0  0  0  0  0  0  0  0  0  0
  1  3  1  0  0  0  0
  1  7  1  0  0  0  0
  2  1  1  0  0  0  0
  3  4  1  0  0  0  0
  4  5  1  0  0  0  0
  5  6  1  0  0  0  0
  7  5  2  0  0  0  0
  8  9  1  0  0  0  0
  8 16  1  0  0  0  0
  9  4  1  6  0  0  0
  9 10  1  0  0  0  0
 10 11  1  0  0  0  0
 10 12  2  0  0  0  0
 12 13  1  0  0  0  0
 14 12  1  0  0  0  0
 14 15  1  0  0  0  0
 16 14  2  0  0  0  0
 17 16  1  0  0  0  0
M  END
