1,15
q = -1.0, confidence = 0.012

 17 16  0  0  0  0  0  0  0  0999 V2000
   -2.0955   -1.0819   -0.4850 N   0  0  0  0  0  0  0  0  0  0  0  0
   -1.6127   -1.5547   -1.7988 C   0  0  0  0  0  0  0  0  0  0  0  0
   -2.2992   -2.3138   -2.2385 H   0  0  0  0  0  0  0  0  0  0  0  0
   -1.5525   -0.6993   -2.5033 H   0  0  0  0  0  0  0  0  0  0  0  0
   -0.6115   -2.0111   -1.6807 H   0  0  0  0  0  0  0  0  0  0  0  0
   -2.2465   -2.2180    0.4451 C   0  0  0  0  0  0  0  0  0  0  0  0
   -2.5892   -1.8369    1.4240 H   0  0  0  0  0  0  0  0  0  0  0  0
   -2.9812   -2.9577    0.0582 H   0  0  0  0  0  0  0  0  0  0  0  0
   -1.2715   -2.7196    0.5779 H   0  0  0  0  0  0  0  0  0  0  0  0
   -3.4212   -0.3456   -0.6562 C   0  0  0  0  0  0  0  0  0  0  0  0
   -4.1015   -0.8919   -1.3426 H   0  0  0  0  0  0  0  0  0  0  0  0
   -3.8758   -0.3441    0.3596 H   0  0  0  0  0  0  0  0  0  0  0  0
   -3.1403    1.0318   -1.1092 C   0  0  0  0  0  3  0  0  0  0  0  0
   -3.2992    1.4137   -2.1257 H   0  0  0  0  0  0  0  0  0  0  0  0
   -2.2406    1.6733   -0.2755 N   0  0  0  0  0  0  0  0  0  0  0  0
   -2.0954    2.6705   -0.4838 H   0  0  0  0  0  0  0  0  0  0  0  0
   -2.4070    1.5076    0.7583 H   0  0  0  0  0  0  0  0  0  0  0  0
  1  6  1  0  0  0  0
  2  5  1  0  0  0  0
  2  1  1  0  0  0  0
  3  2  1  0  0  0  0
  4  2  1  0  0  0  0
  6  9  1  0  0  0  0
  6  7  1  0  0  0  0
  8  6  1  0  0  0  0
 10  1  1  0  0  0  0
 10 12  1  0  0  0  0
 11 10  1  0  0  0  0
 13 10  1  0  0  0  0
 13 15  1  0  0  0  0
 14 13  1  0  0  0  0
 15 17  1  0  0  0  0
 16 15  1  0  0  0  0
M  END
