1,3
q = 0.0, confidence = 0.998

 31 34  0  0  1  0  0  0  0  0999 V2000
   -1.4353    0.4263   -0.3861 N   0  0  0  0  0  2  0  0  0  0  0  0
   -1.1921    1.4871   -1.2052 N   0  0  0  0  0  0  0  0  0  0  0  0
    1.4364    0.4249   -0.3857 N   0  0  0  0  0  2  0  0  0  0  0  0
    1.1937    1.4857   -1.2050 N   0  0  0  0  0  0  0  0  0  0  0  0
   -2.1239    2.4638   -1.0612 C   0  0  0  0  0  0  0  0  0  0  0  0
   -2.0823    3.3796   -1.6617 H   0  0  0  0  0  0  0  0  0  0  0  0
   -3.0393    2.0220   -0.0901 C   0  0  0  0  0  0  0  0  0  0  0  0
   -4.2157    2.5742    0.4886 C   0  0  0  0  0  0  0  0  0  0  0  0
   -4.5910    3.5564    0.1683 H   0  0  0  0  0  0  0  0  0  0  0  0
   -4.8618    1.8328    1.4640 C   0  0  0  0  0  0  0  0  0  0  0  0
   -5.7732    2.2288    1.9347 H   0  0  0  0  0  0  0  0  0  0  0  0
   -4.3706    0.5553    1.8771 C   0  0  0  0  0  0  0  0  0  0  0  0
   -4.9200    0.0052    2.6556 H   0  0  0  0  0  0  0  0  0  0  0  0
   -3.2306   -0.0190    1.3299 C   0  0  0  0  0  0  0  0  0  0  0  0
   -2.8675   -1.0088    1.6345 H   0  0  0  0  0  0  0  0  0  0  0  0
   -2.5616    0.7245    0.3292 C   0  0  2  0  0  3  0  0  0  0  0  0
    2.1262    2.4619   -1.0616 C   0  0  0  0  0  0  0  0  0  0  0  0
    2.0851    3.3775   -1.6625 H   0  0  0  0  0  0  0  0  0  0  0  0
    3.0415    2.0199   -0.0906 C   0  0  0  0  0  0  0  0  0  0  0  0
    4.2183    2.5717    0.4876 C   0  0  0  0  0  0  0  0  0  0  0  0
    4.5941    3.5535    0.1666 H   0  0  0  0  0  0  0  0  0  0  0  0
    4.8641    1.8305    1.4633 C   0  0  0  0  0  0  0  0  0  0  0  0
    5.7759    2.2262    1.9336 H   0  0  0  0  0  0  0  0  0  0  0  0
    4.3721    0.5536    1.8772 C   0  0  0  0  0  0  0  0  0  0  0  0
    4.9211    0.0037    2.6561 H   0  0  0  0  0  0  0  0  0  0  0  0
    3.2317   -0.0204    1.3305 C   0  0  0  0  0  0  0  0  0  0  0  0
    2.8679   -1.0095    1.6363 H   0  0  0  0  0  0  0  0  0  0  0  0
    2.5631    0.7229    0.3293 C   0  0  1  0  0  3  0  0  0  0  0  0
    0.0008    1.4741   -2.0319 C   0  0  0  0  0  0  0  0  0  0  0  0
    0.0003    0.5611   -2.6643 H   0  0  0  0  0  0  0  0  0  0  0  0
    0.0014    2.3677   -2.6794 H   0  0  0  0  0  0  0  0  0  0  0  0
  2  5  1  0  0  0  0
  2  1  1  0  0  0  0
  4 17  1  0  0  0  0
  4  3  1  0  0  0  0
  5  7  2  0  0  0  0
  6  5  1  0  0  0  0
  7 16  1  0  0  0  0
  7  8  1  0  0  0  0
  8 10  2  0  0  0  0
  9  8  1  0  0  0  0
 10 12  1  0  0  0  0
 10 11  1  0  0  0  0
 12 13  1  0  0  0  0
 14 15  1  0  0  0  0
 14 12  2  0  0  0  0
 16  1  1  1  0  0  0
 16 14  1  0  0  0  0
 17 19  2  0  0  0  0
 18 17  1  0  0  0  0
 19 28  1  0  0  0  0
 19 20  1  0  0  0  0
 20 22  2  0  0  0  0
 21 20  1  0  0  0  0
 22 24  1  0  0  0  0
 22 23  1  0  0  0  0
 24 25  1  0  0  0  0
 26 27  1  0  0  0  0
 26 24  2  0  0  0  0
 28  3  1  1  0  0  0
 28 26  1  0  0  0  0
 29  2  1  0  0  0  0
 29  4  1  0  0  0  0
 30 29  1  0  0  0  0
 31 29  1  0  0  0  0
M  END
