1,2
q = -1.0

 39 41  0  0  1  0  0  0  0  0999 V2000
    1.3318    1.6528    0.2800 N   0  0  0  0  0  2  0  0  0  0  0  0
    0.1334   -0.7976    0.8005 N   0  0  0  0  0  2  0  0  0  0  0  0
   -2.0738   -0.9204    0.5702 N   0  0  0  0  0  0  0  0  0  0  0  0
    2.2391    2.6250    0.5461 C   0  0  0  0  0  3  0  0  0  0  0  0
    3.1464    2.2884    1.0675 H   0  0  0  0  0  0  0  0  0  0  0  0
    2.0880    3.9592    0.1851 C   0  0  0  0  0  0  0  0  0  0  0  0
    2.8704    4.6890    0.4324 H   0  0  0  0  0  0  0  0  0  0  0  0
    0.9055    4.3209   -0.5109 C   0  0  0  0  0  0  0  0  0  0  0  0
    0.7486    5.3568   -0.8497 H   0  0  0  0  0  0  0  0  0  0  0  0
   -0.0617    3.3608   -0.7362 C   0  0  0  0  0  0  0  0  0  0  0  0
   -1.0062    3.6152   -1.2397 H   0  0  0  0  0  0  0  0  0  0  0  0
    0.1102    2.0034   -0.2885 C   0  0  0  0  0  0  0  0  0  0  0  0
   -0.9500    1.0794   -0.3963 C   0  0  0  0  0  3  0  0  0  0  0  0
   -1.8965    1.4238   -0.8316 H   0  0  0  0  0  0  0  0  0  0  0  0
   -0.9462   -0.1638    0.2778 C   0  0  1  0  0  3  0  0  0  0  0  0
   -0.3090   -1.9331    1.4514 C   0  0  0  0  0  0  0  0  0  0  0  0
    0.3815   -2.5965    1.9801 H   0  0  0  0  0  0  0  0  0  0  0  0
   -1.6749   -2.0357    1.3136 C   0  0  0  0  0  0  0  0  0  0  0  0
   -2.4007   -2.7654    1.6823 H   0  0  0  0  0  0  0  0  0  0  0  0
   -3.4225   -0.5331    0.3010 C   0  0  0  0  0  0  0  0  0  0  0  0
   -4.1082   -1.1266   -0.7818 C   0  0  0  0  0  0  0  0  0  0  0  0
   -5.4359   -0.7285   -1.0216 C   0  0  0  0  0  0  0  0  0  0  0  0
   -5.9815   -1.1820   -1.8650 H   0  0  0  0  0  0  0  0  0  0  0  0
   -6.0779    0.2366   -0.2243 C   0  0  0  0  0  0  0  0  0  0  0  0
   -5.3562    0.8126    0.8390 C   0  0  0  0  0  0  0  0  0  0  0  0
   -5.8412    1.5736    1.4719 H   0  0  0  0  0  0  0  0  0  0  0  0
   -4.0306    0.4437    1.1248 C   0  0  0  0  0  0  0  0  0  0  0  0
   -3.4192   -2.1373   -1.6618 C   0  0  0  0  0  0  0  0  0  0  0  0
   -4.0865   -2.4819   -2.4740 H   0  0  0  0  0  0  0  0  0  0  0  0
   -3.0864   -3.0256   -1.0861 H   0  0  0  0  0  0  0  0  0  0  0  0
   -2.5053   -1.7060   -2.1195 H   0  0  0  0  0  0  0  0  0  0  0  0
   -7.5110    0.6304   -0.4823 C   0  0  0  0  0  0  0  0  0  0  0  0
   -7.6631    1.7210   -0.3544 H   0  0  0  0  0  0  0  0  0  0  0  0
   -8.1974    0.1240    0.2300 H   0  0  0  0  0  0  0  0  0  0  0  0
   -7.8342    0.3539   -1.5047 H   0  0  0  0  0  0  0  0  0  0  0  0
   -3.2619    1.0694    2.2576 C   0  0  0  0  0  0  0  0  0  0  0  0
   -2.4358    1.7023    1.8678 H   0  0  0  0  0  0  0  0  0  0  0  0
   -2.7856    0.2984    2.8969 H   0  0  0  0  0  0  0  0  0  0  0  0
   -3.9172    1.6979    2.8896 H   0  0  0  0  0  0  0  0  0  0  0  0
  1  4  1  0  0  0  0
  2 16  1  0  0  0  0
  3 18  1  0  0  0  0
  4  5  1  0  0  0  0
  6  7  1  0  0  0  0
  6  4  1  0  0  0  0
  8  6  2  0  0  0  0
  9  8  1  0  0  0  0
 10  8  1  0  0  0  0
 10 12  2  0  0  0  0
 11 10  1  0  0  0  0
 12  1  1  0  0  0  0
 13 12  1  0  0  0  0
 14 13  1  0  0  0  0
 15 13  1  1  0  0  0
 15  3  1  0  0  0  0
 15  2  1  0  0  0  0
 16 17  1  0  0  0  0
 18 16  2  0  0  0  0
 18 19  1  0  0  0  0
 20  3  1  0  0  0  0
 20 27  1  0  0  0  0
 21 20  2  0  0  0  0
 22 21  1  0  0  0  0
 22 24  2  0  0  0  0
 23 22  1  0  0  0  0
 24 25  1  0  0  0  0
 25 27  2  0  0  0  0
 25 26  1  0  0  0  0
 27 36  1  0  0  0  0
 28 30  1  0  0  0  0
 28 21  1  0  0  0  0
 29 28  1  0  0  0  0
 31 28  1  0  0  0  0
 32 33  1  0  0  0  0
 32 24  1  0  0  0  0
 32 34  1  0  0  0  0
 35 32  1  0  0  0  0
 36 39  1  0  0  0  0
 36 38  1  0  0  0  0
 37 36  1  0  0  0  0
M  END
