2,3
q = 0.0, confidence = 0.996

 61 62  0  0  1  0  0  0  0  0999 V2000
   -2.4835   -0.0556    1.1481 P   0  0  0  0  0  0  0  0  0  0  0  0
    0.9841   -0.8861   -1.0520 N   0  0  0  0  0  0  0  0  0  0  0  0
    2.0588    0.3159    1.4556 N   0  0  0  0  0  0  0  0  0  0  0  0
    1.8830   -2.9037   -2.3053 C   0  0  0  0  0  0  0  0  0  0  0  0
    0.9751   -2.3714   -1.2021 C   0  0  0  0  0  0  0  0  0  0  0  0
    0.6320   -0.2321   -2.3473 C   0  0  0  0  0  0  0  0  0  0  0  0
    0.5723    1.2899   -2.3350 C   0  0  0  0  0  0  0  0  0  0  0  0
    0.1086   -0.4235    0.0768 C   0  0  2  0  0  0  0  0  0  0  0  0
    0.8378   -0.5142    1.4244 C   0  0  0  0  0  0  0  0  0  0  0  0
    1.8016    1.7778    1.3730 C   0  0  0  0  0  0  0  0  0  0  0  0
    1.1550    2.4075    2.6054 C   0  0  0  0  0  0  0  0  0  0  0  0
    2.9222   -0.0628    2.6065 C   0  0  0  0  0  0  0  0  0  0  0  0
    4.2510    0.6807    2.6319 C   0  0  0  0  0  0  0  0  0  0  0  0
   -1.2763   -1.0873    0.1370 C   0  0  0  0  0  0  0  0  0  0  0  0
   -2.5937    1.4092    0.0108 C   0  0  0  0  0  0  0  0  0  0  0  0
   -2.0051    2.6206    0.4282 C   0  0  0  0  0  0  0  0  0  0  0  0
   -1.9832    3.7359   -0.4260 C   0  0  0  0  0  0  0  0  0  0  0  0
   -2.5641    3.6540   -1.7004 C   0  0  0  0  0  0  0  0  0  0  0  0
   -3.1681    2.4553   -2.1187 C   0  0  0  0  0  0  0  0  0  0  0  0
   -3.1825    1.3394   -1.2701 C   0  0  0  0  0  0  0  0  0  0  0  0
   -4.0820   -0.8992    0.7692 C   0  0  0  0  0  0  0  0  0  0  0  0
   -4.1820   -2.2126    0.2655 C   0  0  0  0  0  0  0  0  0  0  0  0
   -5.4396   -2.8077    0.0680 C   0  0  0  0  0  0  0  0  0  0  0  0
   -6.6129   -2.1000    0.3649 C   0  0  0  0  0  0  0  0  0  0  0  0
   -6.5242   -0.7911    0.8695 C   0  0  0  0  0  0  0  0  0  0  0  0
   -5.2718   -0.2002    1.0778 C   0  0  0  0  0  0  0  0  0  0  0  0
    1.9316   -4.0069   -2.2197 H   0  0  0  0  0  0  0  0  0  0  0  0
    1.5158   -2.6639   -3.3219 H   0  0  0  0  0  0  0  0  0  0  0  0
    2.9187   -2.5301   -2.1838 H   0  0  0  0  0  0  0  0  0  0  0  0
    1.3177   -2.7950   -0.2372 H   0  0  0  0  0  0  0  0  0  0  0  0
   -0.0675   -2.7163   -1.3880 H   0  0  0  0  0  0  0  0  0  0  0  0
    1.4123   -0.5423   -3.0671 H   0  0  0  0  0  0  0  0  0  0  0  0
   -0.3334   -0.6556   -2.7184 H   0  0  0  0  0  0  0  0  0  0  0  0
    0.4536    1.6420   -3.3788 H   0  0  0  0  0  0  0  0  0  0  0  0
   -0.2863    1.6958   -1.7660 H   0  0  0  0  0  0  0  0  0  0  0  0
    1.5228    1.7130   -1.9503 H   0  0  0  0  0  0  0  0  0  0  0  0
   -0.0620    0.6490   -0.1280 H   0  0  0  0  0  0  0  0  0  0  0  0
    1.1535   -1.5606    1.6175 H   0  0  0  0  0  0  0  0  0  0  0  0
    0.1234   -0.2362    2.2334 H   0  0  0  0  0  0  0  0  0  0  0  0
    2.7675    2.2603    1.1277 H   0  0  0  0  0  0  0  0  0  0  0  0
    1.1712    1.9591    0.4813 H   0  0  0  0  0  0  0  0  0  0  0  0
    0.9393    3.4755    2.4028 H   0  0  0  0  0  0  0  0  0  0  0  0
    0.1947    1.9209    2.8743 H   0  0  0  0  0  0  0  0  0  0  0  0
    1.8144    2.3683    3.4949 H   0  0  0  0  0  0  0  0  0  0  0  0
    2.3641    0.0810    3.5612 H   0  0  0  0  0  0  0  0  0  0  0  0
    3.1220   -1.1467    2.4866 H   0  0  0  0  0  0  0  0  0  0  0  0
    4.1445    1.7513    2.8975 H   0  0  0  0  0  0  0  0  0  0  0  0
    4.9176    0.2137    3.3826 H   0  0  0  0  0  0  0  0  0  0  0  0
    4.7546    0.6183    1.6459 H   0  0  0  0  0  0  0  0  0  0  0  0
   -1.2148   -2.0917    0.6055 H   0  0  0  0  0  0  0  0  0  0  0  0
   -1.6910   -1.2144   -0.8845 H   0  0  0  0  0  0  0  0  0  0  0  0
   -1.5583    2.6873    1.4323 H   0  0  0  0  0  0  0  0  0  0  0  0
   -1.5140    4.6736   -0.0913 H   0  0  0  0  0  0  0  0  0  0  0  0
   -2.5497    4.5268   -2.3704 H   0  0  0  0  0  0  0  0  0  0  0  0
   -3.6293    2.3903   -3.1161 H   0  0  0  0  0  0  0  0  0  0  0  0
   -3.6606    0.4036   -1.6004 H   0  0  0  0  0  0  0  0  0  0  0  0
   -3.2778   -2.7881    0.0196 H   0  0  0  0  0  0  0  0  0  0  0  0
   -5.4985   -3.8337   -0.3265 H   0  0  0  0  0  0  0  0  0  0  0  0
   -7.5966   -2.5668    0.2060 H   0  0  0  0  0  0  0  0  0  0  0  0
   -7.4394   -0.2274    1.1068 H   0  0  0  0  0  0  0  0  0  0  0  0
   -5.2121    0.8247    1.4781 H   0  0  0  0  0  0  0  0  0  0  0  0
  2  8  1  0  0  0  0
  3 12  1  0  0  0  0
  4 27  1  0  0  0  0
  4 29  1  0  0  0  0
  4  5  1  0  0  0  0
  5  2  1  0  0  0  0
  5 30  1  0  0  0  0
  6  7  1  0  0  0  0
  6  2  1  0  0  0  0
  7 36  1  0  0  0  0
  7 35  1  0  0  0  0
  8 37  1  6  0  0  0
  8 14  1  0  0  0  0
  8  9  1  0  0  0  0
  9  3  1  0  0  0  0
  9 38  1  0  0  0  0
  9 39  1  0  0  0  0
 10  3  1  0  0  0  0
 10 11  1  0  0  0  0
 11 43  1  0  0  0  0
 11 44  1  0  0  0  0
 12 13  1  0  0  0  0
 12 45  1  0  0  0  0
 13 47  1  0  0  0  0
 13 48  1  0  0  0  0
 14 50  1  0  0  0  0
 14  1  1  0  0  0  0
 15 16  1  0  0  0  0
 15  1  1  0  0  0  0
 16 52  1  0  0  0  0
 17 53  1  0  0  0  0
 17 16  2  0  0  0  0
 18 17  1  0  0  0  0
 19 18  2  0  0  0  0
 19 20  1  0  0  0  0
 20 15  2  0  0  0  0
 21 26  1  0  0  0  0
 21  1  1  0  0  0  0
 22 21  2  0  0  0  0
 23 22  1  0  0  0  0
 23 24  2  0  0  0  0
 24 25  1  0  0  0  0
 25 26  2  0  0  0  0
 25 60  1  0  0  0  0
 26 61  1  0  0  0  0
 28  4  1  0  0  0  0
 31  5  1  0  0  0  0
 32  6  1  0  0  0  0
 33  6  1  0  0  0  0
 34  7  1  0  0  0  0
 40 10  1  0  0  0  0
 41 10  1  0  0  0  0
 42 11  1  0  0  0  0
 46 12  1  0  0  0  0
 49 13  1  0  0  0  0
 51 14  1  0  0  0  0
 54 18  1  0  0  0  0
 55 19  1  0  0  0  0
 56 20  1  0  0  0  0
 57 22  1  0  0  0  0
 58 23  1  0  0  0  0
 59 24  1  0  0  0  0
M  END
