1,2
q = -1.0

 44 43  0  0  0  0  0  0  0  0999 V2000
   -0.4155    1.1275   -0.3673 N   0  0  0  0  0  2  0  0  0  0  0  0
   -0.5144   -1.0222    0.3558 N   0  0  0  0  0  2  0  0  0  0  0  0
   -2.6158    0.1694   -0.0622 N   0  0  0  0  0  0  0  0  0  0  0  0
   -1.1871    0.0800   -0.0257 C   0  0  0  0  0  3  0  0  0  0  0  0
   -0.9453    2.4190   -0.7708 C   0  0  0  0  0  0  0  0  0  0  0  0
   -2.0554    2.3388   -0.8300 H   0  0  0  0  0  0  0  0  0  0  0  0
   -0.6006    3.5081    0.2584 C   0  0  0  0  0  0  0  0  0  0  0  0
   -0.9777    3.2480    1.2663 H   0  0  0  0  0  0  0  0  0  0  0  0
   -1.0417    4.4828   -0.0347 H   0  0  0  0  0  0  0  0  0  0  0  0
    0.4989    3.6417    0.3327 H   0  0  0  0  0  0  0  0  0  0  0  0
   -0.4018    2.8326   -2.1475 C   0  0  0  0  0  0  0  0  0  0  0  0
    0.7044    2.9191   -2.1182 H   0  0  0  0  0  0  0  0  0  0  0  0
   -0.8117    3.8158   -2.4556 H   0  0  0  0  0  0  0  0  0  0  0  0
   -0.6558    2.0940   -2.9322 H   0  0  0  0  0  0  0  0  0  0  0  0
   -1.1635   -2.2547    0.7676 C   0  0  0  0  0  0  0  0  0  0  0  0
   -2.2650   -2.1093    0.7523 H   0  0  0  0  0  0  0  0  0  0  0  0
   -0.7633   -2.6375    2.2009 C   0  0  0  0  0  0  0  0  0  0  0  0
    0.3349   -2.7782    2.2764 H   0  0  0  0  0  0  0  0  0  0  0  0
   -1.2514   -3.5844    2.5094 H   0  0  0  0  0  0  0  0  0  0  0  0
   -1.0546   -1.8514    2.9244 H   0  0  0  0  0  0  0  0  0  0  0  0
   -0.8317   -3.4009   -0.2003 C   0  0  0  0  0  0  0  0  0  0  0  0
   -1.1216   -3.1451   -1.2387 H   0  0  0  0  0  0  0  0  0  0  0  0
   -1.3606   -4.3325    0.0877 H   0  0  0  0  0  0  0  0  0  0  0  0
    0.2581   -3.6119   -0.1959 H   0  0  0  0  0  0  0  0  0  0  0  0
   -3.3511   -0.2700   -1.2658 C   0  0  0  0  0  0  0  0  0  0  0  0
   -4.1096    0.5174   -1.4867 H   0  0  0  0  0  0  0  0  0  0  0  0
   -2.4392   -0.3563   -2.4908 C   0  0  0  0  0  0  0  0  0  0  0  0
   -1.9625    0.6132   -2.7193 H   0  0  0  0  0  0  0  0  0  0  0  0
   -3.0331   -0.6641   -3.3732 H   0  0  0  0  0  0  0  0  0  0  0  0
   -1.6347   -1.1045   -2.3421 H   0  0  0  0  0  0  0  0  0  0  0  0
   -4.1237   -1.5921   -1.0936 C   0  0  0  0  0  0  0  0  0  0  0  0
   -3.4398   -2.4619   -1.0339 H   0  0  0  0  0  0  0  0  0  0  0  0
   -4.7932   -1.7495   -1.9636 H   0  0  0  0  0  0  0  0  0  0  0  0
   -4.7588   -1.5944   -0.1858 H   0  0  0  0  0  0  0  0  0  0  0  0
   -3.3595    0.2782    1.2040 C   0  0  0  0  0  0  0  0  0  0  0  0
   -3.6959   -0.7359    1.5470 H   0  0  0  0  0  0  0  0  0  0  0  0
   -2.4904    0.8548    2.3248 C   0  0  0  0  0  0  0  0  0  0  0  0
   -1.5539    0.2827    2.4606 H   0  0  0  0  0  0  0  0  0  0  0  0
   -3.0511    0.8291    3.2792 H   0  0  0  0  0  0  0  0  0  0  0  0
   -2.2170    1.9069    2.1136 H   0  0  0  0  0  0  0  0  0  0  0  0
   -4.6189    1.1403    1.0345 C   0  0  0  0  0  0  0  0  0  0  0  0
   -4.3460    2.1561    0.6806 H   0  0  0  0  0  0  0  0  0  0  0  0
   -5.1421    1.2388    2.0065 H   0  0  0  0  0  0  0  0  0  0  0  0
   -5.3413    0.7080    0.3152 H   0  0  0  0  0  0  0  0  0  0  0  0
  1  4  1  0  0  0  0
  2 15  1  0  0  0  0
  3  4  1  0  0  0  0
  3 35  1  0  0  0  0
  4  2  1  0  0  0  0
  5  1  1  0  0  0  0
  5  7  1  0  0  0  0
  6  5  1  0  0  0  0
  7 10  1  0  0  0  0
  7  8  1  0  0  0  0
  9  7  1  0  0  0  0
 11 12  1  0  0  0  0
 11  5  1  0  0  0  0
 13 11  1  0  0  0  0
 14 11  1  0  0  0  0
 15 17  1  0  0  0  0
 16 15  1  0  0  0  0
 17 18  1  0  0  0  0
 17 19  1  0  0  0  0
 17 20  1  0  0  0  0
 21 24  1  0  0  0  0
 21 23  1  0  0  0  0
 21 15  1  0  0  0  0
 22 21  1  0  0  0  0
 25 31  1  0  0  0  0
 25  3  1  0  0  0  0
 26 25  1  0  0  0  0
 27 30  1  0  0  0  0
 27 25  1  0  0  0  0
 28 27  1  0  0  0  0
 29 27  1  0  0  0  0
 31 32  1  0  0  0  0
 31 34  1  0  0  0  0
 33 31  1  0  0  0  0
 35 36  1  0  0  0  0
 35 37  1  0  0  0  0
 37 38  1  0  0  0  0
 37 39  1  0  0  0  0
 40 37  1  0  0  0  0
 41 35  1  0  0  0  0
 41 43  1  0  0  0  0
 42 41  1  0  0  0  0
 44 41  1  0  0  0  0
M  END
