1,6
q = -1.0

  9  8  0  0  0  0  0  0  0  0999 V2000
   -1.4629    1.1863   -0.0000 N   0  0  0  0  0  2  0  0  0  0  0  0
   -2.6331    0.5871    0.0000 C   0  0  0  0  0  0  0  0  0  0  0  0
   -1.3736    2.5091    0.0000 O   0  0  0  0  0  0  0  0  0  0  0  0
   -0.3018    2.6854    0.0000 H   0  0  0  0  0  0  0  0  0  0  0  0
   -3.5674    1.1693    0.0000 H   0  0  0  0  0  0  0  0  0  0  0  0
   -1.3443   -1.3493   -0.0000 N   0  0  0  0  0  2  0  0  0  0  0  0
   -2.5744   -0.8544    0.0000 C   0  0  0  0  0  0  0  0  0  0  0  0
   -1.0943   -2.6092   -0.0000 O   0  0  0  0  0  1  0  0  0  0  0  0
   -3.4512   -1.5184   -0.0000 H   0  0  0  0  0  0  0  0  0  0  0  0
  1  2  1  0  0  0  0
  1  3  1  0  0  0  0
  2  5  1  0  0  0  0
  3  4  1  0  0  0  0
  6  7  1  0  0  0  0
  7  2  2  0  0  0  0
  8  6  1  0  0  0  0
  9  7  1  0  0  0  0
M  END
