21,23
q = 0.0, confidence = 0.994

 25 27  0  0  1  0  0  0  0  0999 V2000
    2.0960   -0.7897   -0.7199 C   0  0  1  0  0  3  0  0  0  0  0  0
    3.4927   -0.8740   -0.7195 C   0  0  0  0  0  0  0  0  0  0  0  0
    4.0130   -1.4748   -1.4734 H   0  0  0  0  0  0  0  0  0  0  0  0
    4.1995   -0.1566    0.2654 C   0  0  0  0  0  0  0  0  0  0  0  0
    3.4705    0.6180    1.1978 C   0  0  0  0  0  0  0  0  0  0  0  0
    4.0120    1.1846    1.9648 H   0  0  0  0  0  0  0  0  0  0  0  0
    2.0845    0.6391    1.1094 C   0  0  0  0  0  0  0  0  0  0  0  0
    1.4697    1.2277    1.8077 H   0  0  0  0  0  0  0  0  0  0  0  0
    1.6749   -2.3621   -2.6623 C   0  0  0  0  0  3  0  0  0  0  0  0
    2.7157   -2.6578   -2.8225 H   0  0  0  0  0  0  0  0  0  0  0  0
    0.5115   -2.7429   -3.3140 C   0  0  0  0  0  0  0  0  0  0  0  0
    0.4266   -3.4412   -4.1525 H   0  0  0  0  0  0  0  0  0  0  0  0
   -0.5345   -2.0416   -2.6599 C   0  0  0  0  0  0  0  0  0  0  0  0
   -1.6159   -2.0457   -2.8422 H   0  0  0  0  0  0  0  0  0  0  0  0
    6.4891   -0.8789   -0.4662 C   0  0  0  0  0  0  0  0  0  0  0  0
    6.1693   -1.5147   -1.2969 H   0  0  0  0  0  0  0  0  0  0  0  0
    7.7503   -0.5827    0.0114 C   0  0  0  0  0  0  0  0  0  0  0  0
    8.7070   -0.9487   -0.3754 H   0  0  0  0  0  0  0  0  0  0  0  0
    7.5216    0.2995    1.1126 C   0  0  0  0  0  0  0  0  0  0  0  0
    8.2612    0.7719    1.7718 H   0  0  0  0  0  0  0  0  0  0  0  0
    1.3924   -0.0568    0.1737 N   0  0  0  0  0  2  0  0  0  0  0  0
    1.3119   -1.4770   -1.6740 N   0  0  1  0  0  0  0  0  0  0  0  0
   -0.0401   -1.2801   -1.6767 N   0  0  0  0  0  2  0  0  0  0  0  0
    5.5946   -0.1899    0.3360 N   0  0  0  0  0  0  0  0  0  0  0  0
    6.2275    0.5321    1.3034 N   0  0  0  0  0  0  0  0  0  0  0  0
  1  2  1  6  0  0  0
  1 21  1  0  0  0  0
  2  4  2  0  0  0  0
  3  2  1  0  0  0  0
  4 24  1  0  0  0  0
  4  5  1  0  0  0  0
  5  6  1  0  0  0  0
  7  5  2  0  0  0  0
  7  8  1  0  0  0  0
 10  9  1  0  0  0  0
 11  9  1  0  0  0  0
 11 13  2  0  0  0  0
 12 11  1  0  0  0  0
 13 23  1  0  0  0  0
 14 13  1  0  0  0  0
 15 17  2  0  0  0  0
 15 24  1  0  0  0  0
 16 15  1  0  0  0  0
 17 19  1  0  0  0  0
 18 17  1  0  0  0  0
 19 25  2  0  0  0  0
 19 20  1  0  0  0  0
 21  7  1  0  0  0  0
 22  9  1  1  0  0  0
 22  1  1  0  0  0  0
 23 22  1  0  0  0  0
 24 25  1  0  0  0  0
M  END
