1,5
q = -1.0

 44 46  0  0  0  0  0  0  0  0999 V2000
   -1.1840    0.1039    0.1507 N   0  0  0  0  0  2  0  0  0  0  0  0
   -0.8894    1.3542    0.2281 N   0  0  0  0  0  0  0  0  0  0  0  0
    0.3677    1.8334    0.0796 C   0  0  0  0  0  0  0  0  0  0  0  0
    1.5055    1.1160    0.1471 N   0  0  0  0  0  2  0  0  0  0  0  0
    1.5485   -0.1749    0.0947 N   0  0  0  0  0  2  0  0  0  0  0  0
   -2.5554   -0.1918    0.4784 C   0  0  0  0  0  0  0  0  0  0  0  0
   -3.5754    0.2170   -0.4143 C   0  0  0  0  0  0  0  0  0  0  0  0
   -4.8977   -0.1486   -0.1005 C   0  0  0  0  0  0  0  0  0  0  0  0
   -5.7062    0.1448   -0.7880 H   0  0  0  0  0  0  0  0  0  0  0  0
   -5.1918   -0.8805    1.0578 C   0  0  0  0  0  0  0  0  0  0  0  0
   -6.2329   -1.1556    1.2838 H   0  0  0  0  0  0  0  0  0  0  0  0
   -4.1618   -1.2668    1.9257 C   0  0  0  0  0  0  0  0  0  0  0  0
   -4.3927   -1.8379    2.8383 H   0  0  0  0  0  0  0  0  0  0  0  0
   -2.8219   -0.9346    1.6527 C   0  0  0  0  0  0  0  0  0  0  0  0
   -3.2508    0.9767   -1.6736 C   0  0  0  0  0  0  0  0  0  0  0  0
   -4.1383    1.0509   -2.3298 H   0  0  0  0  0  0  0  0  0  0  0  0
   -2.4343    0.4818   -2.2408 H   0  0  0  0  0  0  0  0  0  0  0  0
   -2.8952    2.0033   -1.4516 H   0  0  0  0  0  0  0  0  0  0  0  0
   -1.7068   -1.3403    2.5806 C   0  0  0  0  0  0  0  0  0  0  0  0
   -0.9750   -1.9984    2.0626 H   0  0  0  0  0  0  0  0  0  0  0  0
   -2.0993   -1.8799    3.4629 H   0  0  0  0  0  0  0  0  0  0  0  0
   -1.1330   -0.4597    2.9357 H   0  0  0  0  0  0  0  0  0  0  0  0
    2.8295   -0.7236    0.3956 C   0  0  0  0  0  0  0  0  0  0  0  0
    4.0162   -0.0217    0.0907 C   0  0  0  0  0  0  0  0  0  0  0  0
    3.9402    0.9651   -0.3847 H   0  0  0  0  0  0  0  0  0  0  0  0
    5.2570   -0.6031    0.3696 C   0  0  0  0  0  0  0  0  0  0  0  0
    6.1791   -0.0614    0.1097 H   0  0  0  0  0  0  0  0  0  0  0  0
    5.3333   -1.8755    0.9651 C   0  0  0  0  0  0  0  0  0  0  0  0
    6.3132   -2.3265    1.1813 H   0  0  0  0  0  0  0  0  0  0  0  0
    4.1534   -2.5648    1.2833 C   0  0  0  0  0  0  0  0  0  0  0  0
    4.2021   -3.5533    1.7642 H   0  0  0  0  0  0  0  0  0  0  0  0
    2.9040   -1.9936    1.0045 C   0  0  0  0  0  0  0  0  0  0  0  0
    1.9708   -2.5083    1.2772 H   0  0  0  0  0  0  0  0  0  0  0  0
    0.5025    3.3103   -0.0032 C   0  0  0  0  0  0  0  0  0  0  0  0
   -0.6399    4.1403    0.0427 C   0  0  0  0  0  0  0  0  0  0  0  0
   -1.6281    3.6749    0.1649 H   0  0  0  0  0  0  0  0  0  0  0  0
   -0.5132    5.5321   -0.0526 C   0  0  0  0  0  0  0  0  0  0  0  0
   -1.4144    6.1630   -0.0135 H   0  0  0  0  0  0  0  0  0  0  0  0
    0.7532    6.1227   -0.1938 C   0  0  0  0  0  0  0  0  0  0  0  0
    0.8508    7.2163   -0.2700 H   0  0  0  0  0  0  0  0  0  0  0  0
    1.8940    5.3046   -0.2373 C   0  0  0  0  0  0  0  0  0  0  0  0
    2.8920    5.7562   -0.3461 H   0  0  0  0  0  0  0  0  0  0  0  0
    1.7721    3.9125   -0.1429 C   0  0  0  0  0  0  0  0  0  0  0  0
    2.6635    3.2706   -0.1718 H   0  0  0  0  0  0  0  0  0  0  0  0
  1  2  1  0  0  0  0
  1  6  1  0  0  0  0
  3  4  1  0  0  0  0
  3  2  2  0  0  0  0
  5  4  1  0  0  0  0
  5 23  1  0  0  0  0
  6 14  1  0  0  0  0
  7  8  1  0  0  0  0
  7  6  2  0  0  0  0
  8 10  2  0  0  0  0
  9  8  1  0  0  0  0
 10 11  1  0  0  0  0
 10 12  1  0  0  0  0
 12 13  1  0  0  0  0
 14 12  2  0  0  0  0
 14 19  1  0  0  0  0
 15 18  1  0  0  0  0
 15  7  1  0  0  0  0
 16 15  1  0  0  0  0
 17 15  1  0  0  0  0
 19 22  1  0  0  0  0
 19 21  1  0  0  0  0
 20 19  1  0  0  0  0
 23 32  1  0  0  0  0
 24 26  1  0  0  0  0
 24 23  2  0  0  0  0
 25 24  1  0  0  0  0
 26 28  2  0  0  0  0
 27 26  1  0  0  0  0
 28 29  1  0  0  0  0
 28 30  1  0  0  0  0
 30 31  1  0  0  0  0
 32 33  1  0  0  0  0
 32 30  2  0  0  0  0
 34 35  1  0  0  0  0
 34  3  1  0  0  0  0
 35 36  1  0  0  0  0
 37 38  1  0  0  0  0
 37 35  2  0  0  0  0
 39 37  1  0  0  0  0
 40 39  1  0  0  0  0
 41 39  2  0  0  0  0
 41 43  1  0  0  0  0
 42 41  1  0  0  0  0
 43 34  2  0  0  0  0
 44 43  1  0  0  0  0
M  END
