2,3
q = -1.0

 54 55  0  0  0  0  0  0  0  0999 V2000
    4.4096    0.2989    0.4629 O   0  0  0  0  0  0  0  0  0  0  0  0
   -0.5203    0.3714   -0.1953 N   0  0  0  0  0  2  0  0  0  0  0  0
    2.1668    0.1872   -1.3235 N   0  0  0  0  0  2  0  0  0  0  0  0
   -0.3062    1.7092   -0.2726 C   0  0  0  0  0  0  0  0  0  0  0  0
    0.9402    2.2615   -0.7796 C   0  0  0  0  0  0  0  0  0  0  0  0
    1.1024    3.6783   -0.8295 C   0  0  0  0  0  3  0  0  0  0  0  0
    2.0599    4.0679   -1.2115 H   0  0  0  0  0  0  0  0  0  0  0  0
    0.1137    4.5579   -0.4162 C   0  0  0  0  0  0  0  0  0  0  0  0
    0.2672    5.6449   -0.4700 H   0  0  0  0  0  0  0  0  0  0  0  0
   -1.0981    4.0205    0.0852 C   0  0  0  0  0  0  0  0  0  0  0  0
   -1.8974    4.6992    0.4229 H   0  0  0  0  0  0  0  0  0  0  0  0
   -1.3008    2.6503    0.1608 C   0  0  0  0  0  0  0  0  0  0  0  0
   -2.2463    2.2529    0.5553 H   0  0  0  0  0  0  0  0  0  0  0  0
   -1.7026   -0.1242    0.4274 C   0  0  0  0  0  0  0  0  0  0  0  0
   -2.8160   -0.5040   -0.3672 C   0  0  0  0  0  0  0  0  0  0  0  0
   -3.9408   -1.0620    0.2706 C   0  0  0  0  0  0  0  0  0  0  0  0
   -4.8108   -1.3606   -0.3354 H   0  0  0  0  0  0  0  0  0  0  0  0
   -3.9713   -1.2399    1.6579 C   0  0  0  0  0  0  0  0  0  0  0  0
   -4.8597   -1.6750    2.1406 H   0  0  0  0  0  0  0  0  0  0  0  0
   -2.8645   -0.8639    2.4330 C   0  0  0  0  0  0  0  0  0  0  0  0
   -2.8940   -1.0117    3.5227 H   0  0  0  0  0  0  0  0  0  0  0  0
   -1.7188   -0.3049    1.8407 C   0  0  0  0  0  0  0  0  0  0  0  0
   -2.8018   -0.3146   -1.8782 C   0  0  0  0  0  0  0  0  0  0  0  0
   -1.8017    0.0883   -2.1394 H   0  0  0  0  0  0  0  0  0  0  0  0
   -3.8453    0.7232   -2.3247 C   0  0  0  0  0  0  0  0  0  0  0  0
   -3.6809    1.6965   -1.8205 H   0  0  0  0  0  0  0  0  0  0  0  0
   -4.8765    0.3875   -2.0869 H   0  0  0  0  0  0  0  0  0  0  0  0
   -3.7911    0.8912   -3.4203 H   0  0  0  0  0  0  0  0  0  0  0  0
   -2.9721   -1.6511   -2.6192 C   0  0  0  0  0  0  0  0  0  0  0  0
   -2.1952   -2.3806   -2.3134 H   0  0  0  0  0  0  0  0  0  0  0  0
   -2.8966   -1.5049   -3.7166 H   0  0  0  0  0  0  0  0  0  0  0  0
   -3.9618   -2.1090   -2.4121 H   0  0  0  0  0  0  0  0  0  0  0  0
   -0.4849    0.0459    2.6661 C   0  0  0  0  0  0  0  0  0  0  0  0
    0.0194    0.8913    2.1551 H   0  0  0  0  0  0  0  0  0  0  0  0
   -0.8039    0.5010    4.0952 C   0  0  0  0  0  0  0  0  0  0  0  0
   -1.5370    1.3323    4.1013 H   0  0  0  0  0  0  0  0  0  0  0  0
    0.1178    0.8530    4.6015 H   0  0  0  0  0  0  0  0  0  0  0  0
   -1.2180   -0.3226    4.7133 H   0  0  0  0  0  0  0  0  0  0  0  0
    0.5034   -1.1361    2.6733 C   0  0  0  0  0  0  0  0  0  0  0  0
    0.7745   -1.4429    1.6411 H   0  0  0  0  0  0  0  0  0  0  0  0
    0.0574   -2.0225    3.1699 H   0  0  0  0  0  0  0  0  0  0  0  0
    1.4405   -0.8728    3.2072 H   0  0  0  0  0  0  0  0  0  0  0  0
    2.0734    1.4902   -1.2013 C   0  0  0  0  0  0  0  0  0  0  0  0
    2.9765    2.0881   -1.4511 H   0  0  0  0  0  0  0  0  0  0  0  0
    3.4735   -0.3825   -1.6159 C   0  0  0  0  0  0  0  0  0  0  0  0
    4.1304    0.3587   -2.1252 H   0  0  0  0  0  0  0  0  0  0  0  0
    3.3557   -1.2598   -2.2855 H   0  0  0  0  0  0  0  0  0  0  0  0
    4.1532   -0.8378   -0.3262 C   0  0  0  0  0  0  0  0  0  0  0  0
    3.4787   -1.5541    0.2073 H   0  0  0  0  0  0  0  0  0  0  0  0
    5.0945   -1.3936   -0.5680 H   0  0  0  0  0  0  0  0  0  0  0  0
    4.7514   -0.0073    1.7938 C   0  0  0  0  0  0  0  0  0  0  0  0
    4.9179    0.9492    2.3260 H   0  0  0  0  0  0  0  0  0  0  0  0
    5.6840   -0.6189    1.8623 H   0  0  0  0  0  0  0  0  0  0  0  0
    3.9362   -0.5679    2.3138 H   0  0  0  0  0  0  0  0  0  0  0  0
  1 51  1  0  0  0  0
  2 14  1  0  0  0  0
  3 43  1  0  0  0  0
  4  2  1  0  0  0  0
  4 12  2  0  0  0  0
  5  4  1  0  0  0  0
  6  5  1  0  0  0  0
  6  8  1  0  0  0  0
  7  6  1  0  0  0  0
  8 10  2  0  0  0  0
  9  8  1  0  0  0  0
 10 12  1  0  0  0  0
 10 11  1  0  0  0  0
 12 13  1  0  0  0  0
 14 22  1  0  0  0  0
 15 16  1  0  0  0  0
 15 14  2  0  0  0  0
 16 18  2  0  0  0  0
 17 16  1  0  0  0  0
 18 19  1  0  0  0  0
 18 20  1  0  0  0  0
 20 21  1  0  0  0  0
 22 20  2  0  0  0  0
 22 33  1  0  0  0  0
 23 15  1  0  0  0  0
 24 23  1  0  0  0  0
 25 27  1  0  0  0  0
 25 23  1  0  0  0  0
 25 26  1  0  0  0  0
 28 25  1  0  0  0  0
 29 32  1  0  0  0  0
 29 30  1  0  0  0  0
 29 23  1  0  0  0  0
 31 29  1  0  0  0  0
 33 39  1  0  0  0  0
 33 35  1  0  0  0  0
 34 33  1  0  0  0  0
 35 36  1  0  0  0  0
 35 37  1  0  0  0  0
 35 38  1  0  0  0  0
 39 41  1  0  0  0  0
 39 42  1  0  0  0  0
 40 39  1  0  0  0  0
 43  5  2  0  0  0  0
 44 43  1  0  0  0  0
 45  3  1  0  0  0  0
 45 48  1  0  0  0  0
 46 45  1  0  0  0  0
 47 45  1  0  0  0  0
 48 49  1  0  0  0  0
 48  1  1  0  0  0  0
 50 48  1  0  0  0  0
 51 53  1  0  0  0  0
 51 54  1  0  0  0  0
 51 52  1  0  0  0  0
M  END
