3,4
q = 0.0, confidence = 0.998

 52 54  0  0  1  0  0  0  0  0999 V2000
    4.1664   -0.0321    0.0490 O   0  0  0  0  0  0  0  0  0  0  0  0
   -4.0755    0.0852   -1.0912 O   0  0  0  0  0  0  0  0  0  0  0  0
    1.9991   -0.6187    0.1477 N   0  0  0  0  0  2  0  0  0  0  0  0
   -2.0394   -0.4527   -0.3056 N   0  0  0  0  0  2  0  0  0  0  0  0
    2.6640   -1.6038    1.0289 C   0  0  2  0  0  0  0  0  0  0  0  0
    4.1157   -1.0649    1.0740 C   0  0  0  0  0  0  0  0  0  0  0  0
    2.8977    0.1690   -0.3559 C   0  0  1  0  0  3  0  0  0  0  0  0
    2.6277    1.2996   -1.3049 C   0  0  0  0  0  0  0  0  0  0  0  0
    1.3950    2.0522   -0.8444 C   0  0  0  0  0  0  0  0  0  0  0  0
    1.4242    2.9003    0.2870 C   0  0  0  0  0  0  0  0  0  0  0  0
    0.2039    3.4095    0.7641 C   0  0  0  0  0  0  0  0  0  0  0  0
   -1.0435    3.0648    0.2131 C   0  0  0  0  0  0  0  0  0  0  0  0
   -1.0576    2.2337   -0.9291 C   0  0  0  0  0  0  0  0  0  0  0  0
    0.1614    1.7665   -1.4630 C   0  0  0  0  0  0  0  0  0  0  0  0
   -2.3425    1.7158   -1.5294 C   0  0  0  0  0  0  0  0  0  0  0  0
   -2.7781    0.4132   -0.9274 C   0  0  1  0  0  3  0  0  0  0  0  0
   -4.2139   -1.2911   -0.6420 C   0  0  0  0  0  0  0  0  0  0  0  0
   -2.9041   -1.5756    0.1291 C   0  0  2  0  0  0  0  0  0  0  0  0
    2.5396   -3.0399    0.4969 C   0  0  0  0  0  0  0  0  0  0  0  0
    3.0396   -3.2309   -0.9340 C   0  0  0  0  0  0  0  0  0  0  0  0
    2.7032    3.1688    1.0350 C   0  0  0  0  0  0  0  0  0  0  0  0
   -2.3178    3.4868    0.8944 C   0  0  0  0  0  0  0  0  0  0  0  0
   -3.0588   -1.6065    1.6542 C   0  0  0  0  0  0  0  0  0  0  0  0
   -3.7466   -2.8767    2.1507 C   0  0  0  0  0  0  0  0  0  0  0  0
    2.1737   -1.5294    2.0211 H   0  0  0  0  0  0  0  0  0  0  0  0
    4.8808   -1.8274    0.8297 H   0  0  0  0  0  0  0  0  0  0  0  0
    4.3722   -0.5864    2.0410 H   0  0  0  0  0  0  0  0  0  0  0  0
    3.5342    1.9320   -1.3561 H   0  0  0  0  0  0  0  0  0  0  0  0
    2.4503    0.8623   -2.3089 H   0  0  0  0  0  0  0  0  0  0  0  0
    0.2202    4.0518    1.6590 H   0  0  0  0  0  0  0  0  0  0  0  0
    0.1485    1.1475   -2.3733 H   0  0  0  0  0  0  0  0  0  0  0  0
   -3.1862    2.4260   -1.4272 H   0  0  0  0  0  0  0  0  0  0  0  0
   -2.2169    1.5335   -2.6187 H   0  0  0  0  0  0  0  0  0  0  0  0
   -5.1242   -1.3564   -0.0148 H   0  0  0  0  0  0  0  0  0  0  0  0
   -4.3406   -1.9272   -1.5420 H   0  0  0  0  0  0  0  0  0  0  0  0
   -2.4320   -2.5169   -0.2193 H   0  0  0  0  0  0  0  0  0  0  0  0
    3.0865   -3.6983    1.2076 H   0  0  0  0  0  0  0  0  0  0  0  0
    1.4709   -3.3331    0.5608 H   0  0  0  0  0  0  0  0  0  0  0  0
    2.9933   -4.2986   -1.2262 H   0  0  0  0  0  0  0  0  0  0  0  0
    2.4039   -2.6599   -1.6415 H   0  0  0  0  0  0  0  0  0  0  0  0
    4.0934   -2.9027   -1.0597 H   0  0  0  0  0  0  0  0  0  0  0  0
    2.5742    3.9852    1.7707 H   0  0  0  0  0  0  0  0  0  0  0  0
    3.0179    2.2646    1.5995 H   0  0  0  0  0  0  0  0  0  0  0  0
    3.5421    3.4405    0.3624 H   0  0  0  0  0  0  0  0  0  0  0  0
   -2.1204    4.2243    1.6951 H   0  0  0  0  0  0  0  0  0  0  0  0
   -3.0523    3.9330    0.1925 H   0  0  0  0  0  0  0  0  0  0  0  0
   -2.8037    2.6066    1.3681 H   0  0  0  0  0  0  0  0  0  0  0  0
   -2.0499   -1.4954    2.1017 H   0  0  0  0  0  0  0  0  0  0  0  0
   -3.6226   -0.7006    1.9684 H   0  0  0  0  0  0  0  0  0  0  0  0
   -3.1605   -3.7800    1.8809 H   0  0  0  0  0  0  0  0  0  0  0  0
   -3.8549   -2.8665    3.2531 H   0  0  0  0  0  0  0  0  0  0  0  0
   -4.7642   -3.0033    1.7226 H   0  0  0  0  0  0  0  0  0  0  0  0
  1  6  1  0  0  0  0
  2 16  1  0  0  0  0
  2 17  1  0  0  0  0
  3  5  1  0  0  0  0
  4 18  1  0  0  0  0
  5  6  1  0  0  0  0
  5 25  1  1  0  0  0
  6 27  1  0  0  0  0
  7  8  1  1  0  0  0
  7  1  1  0  0  0  0
  7  3  1  0  0  0  0
  8  9  1  0  0  0  0
  9 10  1  0  0  0  0
 10 11  2  0  0  0  0
 10 21  1  0  0  0  0
 11 30  1  0  0  0  0
 12 11  1  0  0  0  0
 12 22  1  0  0  0  0
 13 12  2  0  0  0  0
 14 13  1  0  0  0  0
 14  9  2  0  0  0  0
 15 32  1  0  0  0  0
 15 13  1  0  0  0  0
 16 15  1  6  0  0  0
 16  4  1  0  0  0  0
 17 34  1  0  0  0  0
 17 18  1  0  0  0  0
 18 36  1  6  0  0  0
 18 23  1  0  0  0  0
 19 38  1  0  0  0  0
 19  5  1  0  0  0  0
 19 37  1  0  0  0  0
 20 19  1  0  0  0  0
 21 43  1  0  0  0  0
 21 42  1  0  0  0  0
 22 47  1  0  0  0  0
 22 45  1  0  0  0  0
 23 49  1  0  0  0  0
 23 48  1  0  0  0  0
 23 24  1  0  0  0  0
 24 51  1  0  0  0  0
 26  6  1  0  0  0  0
 28  8  1  0  0  0  0
 29  8  1  0  0  0  0
 31 14  1  0  0  0  0
 33 15  1  0  0  0  0
 35 17  1  0  0  0  0
 39 20  1  0  0  0  0
 40 20  1  0  0  0  0
 41 20  1  0  0  0  0
 44 21  1  0  0  0  0
 46 22  1  0  0  0  0
 50 24  1  0  0  0  0
 52 24  1  0  0  0  0
M  END
