1,40
q = 0.0, confidence = 0.996

 40 42  0  0  1  0  0  0  0  0999 V2000
    2.3899   -0.4707   -0.0335 N   0  0  0  0  0  2  0  0  0  0  0  0
    2.9863   -1.5322   -0.6065 C   0  0  0  0  0  3  0  0  0  0  0  0
    2.3031   -2.2838   -1.0370 H   0  0  0  0  0  0  0  0  0  0  0  0
    4.3803   -1.6601   -0.6641 C   0  0  0  0  0  0  0  0  0  0  0  0
    4.8325   -2.5431   -1.1374 H   0  0  0  0  0  0  0  0  0  0  0  0
    5.1677   -0.6370   -0.1172 C   0  0  0  0  0  0  0  0  0  0  0  0
    6.2663   -0.6960   -0.1512 H   0  0  0  0  0  0  0  0  0  0  0  0
    4.5371    0.4704    0.4657 C   0  0  0  0  0  0  0  0  0  0  0  0
    5.1224    1.2976    0.8945 H   0  0  0  0  0  0  0  0  0  0  0  0
    3.1331    0.5182    0.5002 C   0  0  0  0  0  0  0  0  0  0  0  0
    2.3951    1.6535    1.1894 C   0  0  0  0  0  0  0  0  0  0  0  0
    2.1557    1.3153    2.2214 H   0  0  0  0  0  0  0  0  0  0  0  0
    3.0789    2.5355    1.2755 H   0  0  0  0  0  0  0  0  0  0  0  0
    1.1336    1.9715    0.5507 N   0  0  0  0  0  0  0  0  0  0  0  0
    0.1878    2.7198    1.3770 C   0  0  0  0  0  0  0  0  0  0  0  0
    0.4793    3.7983    1.4333 H   0  0  0  0  0  0  0  0  0  0  0  0
    0.2091    2.3018    2.3998 H   0  0  0  0  0  0  0  0  0  0  0  0
    1.2382    2.5657   -0.7813 C   0  0  0  0  0  0  0  0  0  0  0  0
    1.8447    1.8927   -1.4192 H   0  0  0  0  0  0  0  0  0  0  0  0
    1.7537    3.5582   -0.7421 H   0  0  0  0  0  0  0  0  0  0  0  0
   -1.2381    2.5664    0.7790 C   0  0  0  0  0  0  0  0  0  0  0  0
   -1.8446    1.8940    1.4175 H   0  0  0  0  0  0  0  0  0  0  0  0
   -1.7536    3.5589    0.7390 H   0  0  0  0  0  0  0  0  0  0  0  0
   -0.1878    2.7186   -1.3795 C   0  0  0  0  0  0  0  0  0  0  0  0
   -0.4792    3.7971   -1.4367 H   0  0  0  0  0  0  0  0  0  0  0  0
   -0.2090    2.2997   -2.4019 H   0  0  0  0  0  0  0  0  0  0  0  0
   -1.1335    1.9710   -0.5525 N   0  0  0  0  0  0  0  0  0  0  0  0
   -2.3950    1.6525   -1.1909 C   0  0  0  0  0  0  0  0  0  0  0  0
   -2.1556    1.3133   -2.2226 H   0  0  0  0  0  0  0  0  0  0  0  0
   -3.0789    2.5343   -1.2778 H   0  0  0  0  0  0  0  0  0  0  0  0
   -3.1330    0.5178   -0.5006 C   0  0  1  0  0  3  0  0  0  0  0  0
   -4.5370    0.4701   -0.4659 C   0  0  0  0  0  0  0  0  0  0  0  0
   -5.1224    1.2970   -0.8954 H   0  0  0  0  0  0  0  0  0  0  0  0
   -5.1677   -0.6368    0.1180 C   0  0  0  0  0  0  0  0  0  0  0  0
   -6.2662   -0.6957    0.1522 H   0  0  0  0  0  0  0  0  0  0  0  0
   -4.3802   -1.6594    0.6657 C   0  0  0  0  0  0  0  0  0  0  0  0
   -4.8325   -2.5420    1.1399 H   0  0  0  0  0  0  0  0  0  0  0  0
   -2.9862   -1.5317    0.6078 C   0  0  0  0  0  0  0  0  0  0  0  0
   -2.3030   -2.2830    1.0389 H   0  0  0  0  0  0  0  0  0  0  0  0
   -2.3899   -0.4708    0.0338 N   0  0  0  0  0  2  0  0  0  0  0  0
  1 10  1  0  0  0  0
  2  1  1  0  0  0  0
  3  2  1  0  0  0  0
  4  2  1  0  0  0  0
  4  6  2  0  0  0  0
  5  4  1  0  0  0  0
  6  8  1  0  0  0  0
  7  6  1  0  0  0  0
  8 10  2  0  0  0  0
  8  9  1  0  0  0  0
 10 11  1  0  0  0  0
 11 13  1  0  0  0  0
 11 12  1  0  0  0  0
 14 11  1  0  0  0  0
 14 15  1  0  0  0  0
 15 16  1  0  0  0  0
 15 17  1  0  0  0  0
 18 20  1  0  0  0  0
 18 14  1  0  0  0  0
 19 18  1  0  0  0  0
 21 15  1  0  0  0  0
 21 22  1  0  0  0  0
 23 21  1  0  0  0  0
 24 18  1  0  0  0  0
 24 27  1  0  0  0  0
 25 24  1  0  0  0  0
 26 24  1  0  0  0  0
 27 21  1  0  0  0  0
 28 27  1  0  0  0  0
 29 28  1  0  0  0  0
 30 28  1  0  0  0  0
 31 28  1  6  0  0  0
 31 32  1  0  0  0  0
 31 40  1  0  0  0  0
 32 34  2  0  0  0  0
 33 32  1  0  0  0  0
 34 35  1  0  0  0  0
 34 36  1  0  0  0  0
 36 37  1  0  0  0  0
 38 36  2  0  0  0  0
 38 39  1  0  0  0  0
 40 38  1  0  0  0  0
M  END
