18,40
q = 0.0, confidence = 0.998

 46 47  0  0  0  0  0  0  0  0999 V2000
    6.6252    1.0178   -0.2118 C   0  0  0  0  0  0  0  0  0  0  0  0
    7.1731    2.2957   -0.0356 C   0  0  0  0  0  0  0  0  0  0  0  0
    8.2661    2.3890    0.0094 H   0  0  0  0  0  0  0  0  0  0  0  0
    8.7541    0.1712   -0.5853 O   0  0  0  0  0  0  0  0  0  0  0  0
   -6.2022    3.2853    0.7311 C   0  0  0  0  0  0  0  0  0  0  0  0
   -6.6499    4.1955    1.1562 H   0  0  0  0  0  0  0  0  0  0  0  0
   -4.2430    1.9692    0.1449 C   0  0  0  0  0  0  0  0  0  0  0  0
   -3.1477    1.8839    0.0743 H   0  0  0  0  0  0  0  0  0  0  0  0
    4.6107   -0.5093   -0.5462 C   0  0  0  0  0  3  0  0  0  0  0  0
    5.2370   -1.2863   -1.0082 H   0  0  0  0  0  0  0  0  0  0  0  0
    7.5969   -0.1029   -0.2728 N   0  0  0  0  0  0  0  0  0  0  0  0
    4.3972    1.9485   -0.1870 C   0  0  0  0  0  0  0  0  0  0  0  0
    3.3059    1.8362   -0.2898 H   0  0  0  0  0  0  0  0  0  0  0  0
   -0.4642   -3.0270   -1.7151 C   0  0  0  0  0  0  0  0  0  0  0  0
   -0.0653   -2.6243   -2.6740 H   0  0  0  0  0  0  0  0  0  0  0  0
   -1.0960   -3.9101   -1.9570 H   0  0  0  0  0  0  0  0  0  0  0  0
   -7.4047    0.0667   -0.7629 N   0  0  0  0  0  0  0  0  0  0  0  0
   -1.2088   -1.9750   -1.0482 N   0  0  0  0  0  2  0  0  0  0  0  0
    5.2225    0.7988   -0.2976 C   0  0  0  0  0  0  0  0  0  0  0  0
   -3.1430   -0.6641   -0.6199 C   0  0  0  0  0  0  0  0  0  0  0  0
   -2.5786   -0.1630    0.1840 H   0  0  0  0  0  0  0  0  0  0  0  0
    6.3276    3.4026    0.0902 C   0  0  0  0  0  0  0  0  0  0  0  0
    6.7553    4.4040    0.2446 H   0  0  0  0  0  0  0  0  0  0  0  0
    0.7268   -3.4347   -0.8237 C   0  0  0  0  0  0  0  0  0  0  0  0
    0.3330   -3.9240    0.0949 H   0  0  0  0  0  0  0  0  0  0  0  0
    1.3900   -4.1504   -1.3578 H   0  0  0  0  0  0  0  0  0  0  0  0
   -8.5539    0.4237   -1.0162 O   0  0  0  0  0  0  0  0  0  0  0  0
   -4.4018   -0.2627   -0.9506 C   0  0  0  0  0  3  0  0  0  0  0  0
   -4.9637   -0.8305   -1.7063 H   0  0  0  0  0  0  0  0  0  0  0  0
   -4.8065    3.1258    0.6917 C   0  0  0  0  0  0  0  0  0  0  0  0
   -4.1465    3.9160    1.0790 H   0  0  0  0  0  0  0  0  0  0  0  0
    2.6824   -2.0420   -0.6125 C   0  0  0  0  0  0  0  0  0  0  0  0
    3.3011   -2.8353   -1.0895 H   0  0  0  0  0  0  0  0  0  0  0  0
   -5.0461    0.9144   -0.3614 C   0  0  0  0  0  0  0  0  0  0  0  0
   -2.4616   -1.7488   -1.2838 C   0  0  0  0  0  0  0  0  0  0  0  0
   -3.0303   -2.3691   -2.0126 H   0  0  0  0  0  0  0  0  0  0  0  0
   -7.0255    2.2764    0.2212 C   0  0  0  0  0  0  0  0  0  0  0  0
   -8.1202    2.3592    0.2249 H   0  0  0  0  0  0  0  0  0  0  0  0
   -6.4534    1.1091   -0.3026 C   0  0  0  0  0  0  0  0  0  0  0  0
    1.4165   -2.2287   -0.4110 N   0  0  0  0  0  2  0  0  0  0  0  0
   -6.9948   -1.0941   -0.8500 O   0  0  0  0  0  0  0  0  0  0  0  0
    4.9357    3.2226    0.0148 C   0  0  0  0  0  0  0  0  0  0  0  0
    4.2586    4.0852    0.1017 H   0  0  0  0  0  0  0  0  0  0  0  0
    7.1940   -1.2349    0.0088 O   0  0  0  0  0  0  0  0  0  0  0  0
    3.3119   -0.7964   -0.2501 C   0  0  0  0  0  0  0  0  0  0  0  0
    2.6607   -0.0601    0.2497 H   0  0  0  0  0  0  0  0  0  0  0  0
  1  2  1  0  0  0  0
  2  3  1  0  0  0  0
  2 22  2  0  0  0  0
  4 11  2  0  0  0  0
  5  6  1  0  0  0  0
  7 30  2  0  0  0  0
  8  7  1  0  0  0  0
  9 19  1  0  0  0  0
  9 45  1  0  0  0  0
 10  9  1  0  0  0  0
 11  1  1  0  0  0  0
 11 44  2  0  0  0  0
 12 42  2  0  0  0  0
 13 12  1  0  0  0  0
 14 18  1  0  0  0  0
 14 24  1  0  0  0  0
 15 14  1  0  0  0  0
 16 14  1  0  0  0  0
 17 39  1  0  0  0  0
 19  1  2  0  0  0  0
 19 12  1  0  0  0  0
 20 21  1  0  0  0  0
 22 23  1  0  0  0  0
 24 40  1  0  0  0  0
 24 25  1  0  0  0  0
 26 24  1  0  0  0  0
 27 17  2  0  0  0  0
 28 20  1  0  0  0  0
 28 34  1  0  0  0  0
 29 28  1  0  0  0  0
 30  5  1  0  0  0  0
 30 31  1  0  0  0  0
 32 40  1  0  0  0  0
 32 45  2  0  0  0  0
 33 32  1  0  0  0  0
 34 39  2  0  0  0  0
 34  7  1  0  0  0  0
 35 18  1  0  0  0  0
 35 20  2  0  0  0  0
 36 35  1  0  0  0  0
 37 38  1  0  0  0  0
 37  5  2  0  0  0  0
 39 37  1  0  0  0  0
 41 17  2  0  0  0  0
 42 22  1  0  0  0  0
 42 43  1  0  0  0  0
 45 46  1  0  0  0  0
M  END
