1,3
q = 0.0, confidence = 1.0

 31 33  0  0  1  0  0  0  0  0999 V2000
    1.9301    0.5183    0.2172 N   0  0  0  0  0  2  0  0  0  0  0  0
   -0.2202    1.2568   -0.2114 N   0  0  0  0  0  0  0  0  0  0  0  0
   -0.5181   -0.0455   -0.5036 N   0  0  0  0  0  2  0  0  0  0  0  0
    3.2593    0.6739    0.3157 C   0  0  0  0  0  3  0  0  0  0  0  0
    3.8313   -0.2594    0.4449 H   0  0  0  0  0  0  0  0  0  0  0  0
    3.8658    1.9315    0.2221 C   0  0  0  0  0  0  0  0  0  0  0  0
    4.9548    2.0321    0.3271 H   0  0  0  0  0  0  0  0  0  0  0  0
    3.0481    3.0435   -0.0348 C   0  0  0  0  0  0  0  0  0  0  0  0
    3.4881    4.0461   -0.1440 H   0  0  0  0  0  0  0  0  0  0  0  0
    1.6670    2.8758   -0.1946 C   0  0  0  0  0  0  0  0  0  0  0  0
    1.0258    3.7220   -0.4639 H   0  0  0  0  0  0  0  0  0  0  0  0
    1.1441    1.5771   -0.0458 C   0  0  0  0  0  0  0  0  0  0  0  0
   -1.3744    2.0033   -0.0048 C   0  0  1  0  0  3  0  0  0  0  0  0
   -2.4377    1.1197   -0.1874 C   0  0  0  0  0  0  0  0  0  0  0  0
   -1.8469   -0.1410   -0.4882 C   0  0  0  0  0  0  0  0  0  0  0  0
   -1.4059    3.4400    0.3932 C   0  0  0  0  0  0  0  0  0  0  0  0
   -0.6888    3.6656    1.2079 H   0  0  0  0  0  0  0  0  0  0  0  0
   -2.4210    3.6894    0.7554 H   0  0  0  0  0  0  0  0  0  0  0  0
   -1.1859    4.1245   -0.4535 H   0  0  0  0  0  0  0  0  0  0  0  0
   -2.6003   -1.4204   -0.6421 C   0  0  0  0  0  0  0  0  0  0  0  0
   -2.3735   -2.0278    0.2652 H   0  0  0  0  0  0  0  0  0  0  0  0
   -2.2066   -2.0057   -1.4985 H   0  0  0  0  0  0  0  0  0  0  0  0
   -4.1069   -1.1412   -0.7854 C   0  0  0  0  0  0  0  0  0  0  0  0
   -4.3282   -0.8099   -1.8244 H   0  0  0  0  0  0  0  0  0  0  0  0
   -4.6731   -2.0812   -0.6309 H   0  0  0  0  0  0  0  0  0  0  0  0
   -4.5927   -0.0624    0.1971 C   0  0  0  0  0  0  0  0  0  0  0  0
   -4.3620   -0.3850    1.2359 H   0  0  0  0  0  0  0  0  0  0  0  0
   -5.6944    0.0457    0.1342 H   0  0  0  0  0  0  0  0  0  0  0  0
   -3.9226    1.3003   -0.0694 C   0  0  0  0  0  0  0  0  0  0  0  0
   -4.3275    1.7343   -1.0119 H   0  0  0  0  0  0  0  0  0  0  0  0
   -4.1725    2.0261    0.7334 H   0  0  0  0  0  0  0  0  0  0  0  0
  1  4  1  0  0  0  0
  2 12  1  0  0  0  0
  2 13  1  0  0  0  0
  3 15  1  0  0  0  0
  3  2  1  0  0  0  0
  4  5  1  0  0  0  0
  6  4  1  0  0  0  0
  6  7  1  0  0  0  0
  8  6  2  0  0  0  0
  9  8  1  0  0  0  0
 10 12  2  0  0  0  0
 10  8  1  0  0  0  0
 11 10  1  0  0  0  0
 12  1  1  0  0  0  0
 13 16  1  1  0  0  0
 14 29  1  0  0  0  0
 14 13  1  0  0  0  0
 15 14  2  0  0  0  0
 16 18  1  0  0  0  0
 16 17  1  0  0  0  0
 19 16  1  0  0  0  0
 20 15  1  0  0  0  0
 20 21  1  0  0  0  0
 22 20  1  0  0  0  0
 23 20  1  0  0  0  0
 23 25  1  0  0  0  0
 23 26  1  0  0  0  0
 24 23  1  0  0  0  0
 26 27  1  0  0  0  0
 28 26  1  0  0  0  0
 29 26  1  0  0  0  0
 29 31  1  0  0  0  0
 30 29  1  0  0  0  0
M  END
