2,3
q = -1.0

 26 27  0  0  0  0  0  0  0  0999 V2000
   -1.4842    2.7751   -1.1985 O   0  0  0  0  0  0  0  0  0  0  0  0
    1.5330    1.5220    0.2599 N   0  0  0  0  0  2  0  0  0  0  0  0
   -0.6516    0.6073   -0.9376 N   0  0  0  0  0  2  0  0  0  0  0  0
   -3.0499   -1.3531    0.1018 N   0  0  0  0  0  0  0  0  0  0  0  0
    2.6666    1.9098    0.8756 C   0  0  0  0  0  3  0  0  0  0  0  0
    3.3450    1.1053    1.2006 H   0  0  0  0  0  0  0  0  0  0  0  0
    2.9687    3.2607    1.0906 C   0  0  0  0  0  0  0  0  0  0  0  0
    3.9051    3.5355    1.5967 H   0  0  0  0  0  0  0  0  0  0  0  0
    2.0598    4.2364    0.6515 C   0  0  0  0  0  0  0  0  0  0  0  0
    2.2710    5.3053    0.8068 H   0  0  0  0  0  0  0  0  0  0  0  0
    0.8801    3.8269    0.0157 C   0  0  0  0  0  0  0  0  0  0  0  0
    0.1117    4.5212   -0.3540 H   0  0  0  0  0  0  0  0  0  0  0  0
    0.6470    2.4590   -0.1652 C   0  0  0  0  0  0  0  0  0  0  0  0
   -0.6185    1.9613   -0.8291 C   0  0  0  0  0  0  0  0  0  0  0  0
   -1.8617    0.0394   -1.5268 C   0  0  0  0  0  0  0  0  0  0  0  0
   -1.6219   -0.9512   -1.9578 H   0  0  0  0  0  0  0  0  0  0  0  0
   -2.2257    0.7107   -2.3335 H   0  0  0  0  0  0  0  0  0  0  0  0
   -2.9637   -0.1480   -0.4967 C   0  0  0  0  0  0  0  0  0  0  0  0
   -3.8288    0.9182   -0.1682 C   0  0  0  0  0  0  0  0  0  0  0  0
   -3.6896    1.8876   -0.6683 H   0  0  0  0  0  0  0  0  0  0  0  0
   -4.8131    0.7144    0.8060 C   0  0  0  0  0  0  0  0  0  0  0  0
   -5.5022    1.5281    1.0812 H   0  0  0  0  0  0  0  0  0  0  0  0
   -4.9066   -0.5423    1.4235 C   0  0  0  0  0  0  0  0  0  0  0  0
   -5.6659   -0.7501    2.1922 H   0  0  0  0  0  0  0  0  0  0  0  0
   -3.9976   -1.5375    1.0347 C   0  0  0  0  0  0  0  0  0  0  0  0
   -4.0355   -2.5388    1.5008 H   0  0  0  0  0  0  0  0  0  0  0  0
  1 14  2  0  0  0  0
  2  5  1  0  0  0  0
  3 14  1  0  0  0  0
  4 25  1  0  0  0  0
  5  7  1  0  0  0  0
  5  6  1  0  0  0  0
  7  8  1  0  0  0  0
  9 10  1  0  0  0  0
  9  7  2  0  0  0  0
 11  9  1  0  0  0  0
 12 11  1  0  0  0  0
 13 11  2  0  0  0  0
 13  2  1  0  0  0  0
 14 13  1  0  0  0  0
 15  3  1  0  0  0  0
 15 18  1  0  0  0  0
 16 15  1  0  0  0  0
 17 15  1  0  0  0  0
 18 19  1  0  0  0  0
 18  4  2  0  0  0  0
 19 21  2  0  0  0  0
 20 19  1  0  0  0  0
 21 22  1  0  0  0  0
 21 23  1  0  0  0  0
 23 24  1  0  0  0  0
 25 23  2  0  0  0  0
 25 26  1  0  0  0  0
M  END
