1,3
q = -2.0, confidence = 0.914

 26 29  0  0  0  0  0  0  0  0999 V2000
    1.2778    1.2618    0.2408 N   0  0  0  0  0  0  0  0  0  0  0  0
    1.5528    3.5445    0.3532 N   0  0  0  0  0  0  0  0  0  0  0  0
   -1.2778    1.2617   -0.2413 N   0  0  0  0  0  0  0  0  0  0  0  0
   -1.5529    3.5442   -0.3549 N   0  0  0  0  0  0  0  0  0  0  0  0
    0.7128    2.5304    0.1441 C   0  0  0  0  0  0  0  0  0  0  0  0
    2.6048    1.4874    0.5461 C   0  0  0  0  0  3  0  0  0  0  0  0
    3.6997    0.6317    0.7908 C   0  0  0  0  0  0  0  0  0  0  0  0
    3.6027   -0.4614    0.7537 H   0  0  0  0  0  0  0  0  0  0  0  0
    4.9361    1.2220    1.0876 C   0  0  0  0  0  0  0  0  0  0  0  0
    5.8059    0.5749    1.2817 H   0  0  0  0  0  0  0  0  0  0  0  0
    5.0933    2.6295    1.1438 C   0  0  0  0  0  0  0  0  0  0  0  0
    6.0831    3.0502    1.3793 H   0  0  0  0  0  0  0  0  0  0  0  0
    4.0137    3.4886    0.9078 C   0  0  0  0  0  0  0  0  0  0  0  0
    4.1230    4.5825    0.9511 H   0  0  0  0  0  0  0  0  0  0  0  0
    2.7557    2.9244    0.6092 C   0  0  0  0  0  0  0  0  0  0  0  0
   -0.7128    2.5303   -0.1453 C   0  0  0  0  0  3  0  0  0  0  0  0
   -2.6048    1.4870   -0.5467 C   0  0  0  0  0  0  0  0  0  0  0  0
   -3.6996    0.6311   -0.7910 C   0  0  0  0  0  0  0  0  0  0  0  0
   -3.6026   -0.4619   -0.7533 H   0  0  0  0  0  0  0  0  0  0  0  0
   -4.9361    1.2212   -1.0881 C   0  0  0  0  0  0  0  0  0  0  0  0
   -5.8058    0.5740   -1.2818 H   0  0  0  0  0  0  0  0  0  0  0  0
   -5.0933    2.6287   -1.1450 C   0  0  0  0  0  0  0  0  0  0  0  0
   -6.0831    3.0492   -1.3807 H   0  0  0  0  0  0  0  0  0  0  0  0
   -4.0138    3.4880   -0.9095 C   0  0  0  0  0  0  0  0  0  0  0  0
   -4.1230    4.5819   -0.9533 H   0  0  0  0  0  0  0  0  0  0  0  0
   -2.7557    2.9240   -0.6106 C   0  0  0  0  0  0  0  0  0  0  0  0
  1  6  1  0  0  0  0
  2 15  2  0  0  0  0
  3 16  1  0  0  0  0
  4 16  1  0  0  0  0
  5  1  2  0  0  0  0
  5  2  1  0  0  0  0
  6 15  1  0  0  0  0
  6  7  1  0  0  0  0
  7  9  2  0  0  0  0
  8  7  1  0  0  0  0
  9 11  1  0  0  0  0
  9 10  1  0  0  0  0
 11 12  1  0  0  0  0
 13 14  1  0  0  0  0
 13 11  2  0  0  0  0
 15 13  1  0  0  0  0
 16  5  1  0  0  0  0
 17  3  2  0  0  0  0
 18 19  1  0  0  0  0
 18 17  1  0  0  0  0
 20 18  2  0  0  0  0
 21 20  1  0  0  0  0
 22 20  1  0  0  0  0
 22 24  2  0  0  0  0
 23 22  1  0  0  0  0
 24 26  1  0  0  0  0
 25 24  1  0  0  0  0
 26 17  1  0  0  0  0
 26  4  2  0  0  0  0
M  END
