5,7
q = -1.0

 36 38  0  0  0  0  0  0  0  0999 V2000
    9.8604    0.5548    0.4304 Br  0  0  0  0  0  0  0  0  0  0  0  0
    2.8932    1.1004   -0.6956 N   0  0  0  0  0  0  0  0  0  0  0  0
    3.9544   -0.9189   -0.2178 N   0  0  0  0  0  0  0  0  0  0  0  0
    3.7803   -1.9553   -0.2815 H   0  0  0  0  0  0  0  0  0  0  0  0
    1.6622   -0.9441   -0.7339 N   0  0  0  0  0  2  0  0  0  0  0  0
    5.2824   -0.5013   -0.0874 C   0  0  0  0  0  0  0  0  0  0  0  0
    0.5673    1.5798   -1.1305 N   0  0  0  0  0  2  0  0  0  0  0  0
    2.6449   -3.1162   -0.8429 N   0  0  0  0  0  0  0  0  0  0  0  0
   -0.3563    2.3709   -1.7312 C   0  0  0  0  0  3  0  0  0  0  0  0
   -1.4005    2.0402   -1.6385 H   0  0  0  0  0  0  0  0  0  0  0  0
   -0.0228    3.5430   -2.3992 C   0  0  0  0  0  0  0  0  0  0  0  0
   -0.8104    4.1514   -2.8630 H   0  0  0  0  0  0  0  0  0  0  0  0
    0.3690   -2.8084   -1.5873 C   0  0  0  0  0  0  0  0  0  0  0  0
   -0.4677   -2.1180   -1.7666 H   0  0  0  0  0  0  0  0  0  0  0  0
    6.2669   -1.5204   -0.0587 C   0  0  0  0  0  0  0  0  0  0  0  0
    5.9566   -2.5717   -0.1647 H   0  0  0  0  0  0  0  0  0  0  0  0
    1.9108    1.8781   -1.2043 C   0  0  0  0  0  0  0  0  0  0  0  0
    1.3371    3.9189   -2.4364 C   0  0  0  0  0  0  0  0  0  0  0  0
    1.6459    4.8490   -2.9375 H   0  0  0  0  0  0  0  0  0  0  0  0
    2.8218   -0.2189   -0.5438 C   0  0  0  0  0  0  0  0  0  0  0  0
    5.6984    0.8438    0.0494 C   0  0  0  0  0  0  0  0  0  0  0  0
    4.9384    1.6327    0.0286 H   0  0  0  0  0  0  0  0  0  0  0  0
    2.2877    3.0980   -1.8464 C   0  0  0  0  0  0  0  0  0  0  0  0
    3.3599    3.3338   -1.8720 H   0  0  0  0  0  0  0  0  0  0  0  0
    1.5859   -2.2941   -1.0544 C   0  0  0  0  0  0  0  0  0  0  0  0
    2.5409   -4.4237   -1.1377 C   0  0  0  0  0  0  0  0  0  0  0  0
    3.4424   -5.0326   -0.9494 H   0  0  0  0  0  0  0  0  0  0  0  0
    0.2674   -4.1679   -1.8631 C   0  0  0  0  0  0  0  0  0  0  0  0
   -0.6717   -4.5755   -2.2673 H   0  0  0  0  0  0  0  0  0  0  0  0
    7.6218   -1.2155    0.0951 C   0  0  0  0  0  0  0  0  0  0  0  0
    8.3731   -2.0175    0.1130 H   0  0  0  0  0  0  0  0  0  0  0  0
    1.3751   -5.0101   -1.6352 C   0  0  0  0  0  0  0  0  0  0  0  0
    1.3340   -6.0883   -1.8433 H   0  0  0  0  0  0  0  0  0  0  0  0
    8.0155    0.1267    0.2216 C   0  0  0  0  0  0  0  0  0  0  0  0
    7.0570    1.1507    0.1990 C   0  0  0  0  0  0  0  0  0  0  0  0
    7.3722    2.1987    0.3044 H   0  0  0  0  0  0  0  0  0  0  0  0
  2 20  2  0  0  0  0
  3  6  1  0  0  0  0
  4  3  1  0  0  0  0
  5 20  1  0  0  0  0
  6 15  2  0  0  0  0
  6 21  1  0  0  0  0
  9 10  1  0  0  0  0
  9  7  1  0  0  0  0
 11  9  1  0  0  0  0
 12 11  1  0  0  0  0
 13 25  2  0  0  0  0
 14 13  1  0  0  0  0
 15 30  1  0  0  0  0
 16 15  1  0  0  0  0
 17  7  1  0  0  0  0
 17  2  1  0  0  0  0
 18 11  2  0  0  0  0
 18 23  1  0  0  0  0
 19 18  1  0  0  0  0
 20  3  1  0  0  0  0
 21 35  2  0  0  0  0
 22 21  1  0  0  0  0
 23 17  2  0  0  0  0
 24 23  1  0  0  0  0
 25  8  1  0  0  0  0
 25  5  1  0  0  0  0
 26 27  1  0  0  0  0
 26  8  2  0  0  0  0
 28 32  2  0  0  0  0
 28 13  1  0  0  0  0
 29 28  1  0  0  0  0
 30 31  1  0  0  0  0
 30 34  2  0  0  0  0
 32 26  1  0  0  0  0
 33 32  1  0  0  0  0
 34  1  1  0  0  0  0
 35 34  1  0  0  0  0
 35 36  1  0  0  0  0
M  END
