6,10
q = -1.0

 36 38  0  0  1  0  0  0  0  0999 V2000
    9.6708    0.8750    0.6337 Cl  0  0  0  0  0  0  0  0  0  0  0  0
    2.8652    1.2115   -0.6232 N   0  0  0  0  0  0  0  0  0  0  0  0
    3.9886   -0.7712   -0.1353 N   0  0  0  0  0  0  0  0  0  0  0  0
    3.8551   -1.8125   -0.2126 H   0  0  0  0  0  0  0  0  0  0  0  0
    2.7763   -3.0092   -0.8115 N   0  0  0  0  0  0  0  0  0  0  0  0
    1.7112   -0.8764   -0.7050 N   0  0  0  0  0  2  0  0  0  0  0  0
    2.8390   -0.1109   -0.4824 C   0  0  2  0  0  3  0  0  0  0  0  0
   -0.1009    3.5604   -2.3713 C   0  0  0  0  0  0  0  0  0  0  0  0
   -0.9002    4.1435   -2.8474 H   0  0  0  0  0  0  0  0  0  0  0  0
    0.5332    1.6093   -1.1050 N   0  0  0  0  0  2  0  0  0  0  0  0
    2.2119    3.1952   -1.7718 C   0  0  0  0  0  0  0  0  0  0  0  0
    3.2751    3.4700   -1.7721 H   0  0  0  0  0  0  0  0  0  0  0  0
    1.2448    3.9858   -2.3760 C   0  0  0  0  0  0  0  0  0  0  0  0
    1.5300    4.9307   -2.8632 H   0  0  0  0  0  0  0  0  0  0  0  0
    5.2975   -0.3056    0.0279 C   0  0  0  0  0  0  0  0  0  0  0  0
    1.8663    1.9569   -1.1472 C   0  0  0  0  0  0  0  0  0  0  0  0
    1.6919   -2.2250   -1.0381 C   0  0  0  0  0  0  0  0  0  0  0  0
   -0.4055    2.3713   -1.7196 C   0  0  0  0  0  0  0  0  0  0  0  0
   -1.4387    2.0019   -1.6524 H   0  0  0  0  0  0  0  0  0  0  0  0
    0.5064   -2.7794   -1.6011 C   0  0  0  0  0  0  0  0  0  0  0  0
   -0.3518   -2.1189   -1.7915 H   0  0  0  0  0  0  0  0  0  0  0  0
    0.4618   -4.1389   -1.8914 C   0  0  0  0  0  0  0  0  0  0  0  0
   -0.4528   -4.5773   -2.3190 H   0  0  0  0  0  0  0  0  0  0  0  0
    5.6591    1.0522    0.1907 C   0  0  0  0  0  0  0  0  0  0  0  0
    4.8702    1.8119    0.1639 H   0  0  0  0  0  0  0  0  0  0  0  0
    7.6577   -0.9330    0.2501 C   0  0  0  0  0  0  0  0  0  0  0  0
    8.4427   -1.7017    0.2743 H   0  0  0  0  0  0  0  0  0  0  0  0
    6.3192   -1.2870    0.0641 C   0  0  0  0  0  0  0  0  0  0  0  0
    6.0510   -2.3476   -0.0619 H   0  0  0  0  0  0  0  0  0  0  0  0
    7.9989    0.4213    0.4022 C   0  0  0  0  0  0  0  0  0  0  0  0
    2.7277   -4.3167   -1.1203 C   0  0  0  0  0  0  0  0  0  0  0  0
    3.6472   -4.8935   -0.9183 H   0  0  0  0  0  0  0  0  0  0  0  0
    1.5955   -4.9413   -1.6480 C   0  0  0  0  0  0  0  0  0  0  0  0
    1.5993   -6.0182   -1.8668 H   0  0  0  0  0  0  0  0  0  0  0  0
    7.0014    1.4077    0.3724 C   0  0  0  0  0  0  0  0  0  0  0  0
    7.2804    2.4636    0.4985 H   0  0  0  0  0  0  0  0  0  0  0  0
  2  7  1  0  0  0  0
  3 15  1  0  0  0  0
  4  3  1  0  0  0  0
  7  6  1  6  0  0  0
  7  3  1  0  0  0  0
  8 18  2  0  0  0  0
  9  8  1  0  0  0  0
 11 16  1  0  0  0  0
 12 11  1  0  0  0  0
 13  8  1  0  0  0  0
 13 11  2  0  0  0  0
 14 13  1  0  0  0  0
 15 28  2  0  0  0  0
 15 24  1  0  0  0  0
 16 10  1  0  0  0  0
 16  2  2  0  0  0  0
 17  5  1  0  0  0  0
 17  6  1  0  0  0  0
 18 19  1  0  0  0  0
 18 10  1  0  0  0  0
 20 17  2  0  0  0  0
 21 20  1  0  0  0  0
 22 33  2  0  0  0  0
 22 20  1  0  0  0  0
 23 22  1  0  0  0  0
 24 35  2  0  0  0  0
 25 24  1  0  0  0  0
 26 27  1  0  0  0  0
 26 30  2  0  0  0  0
 28 26  1  0  0  0  0
 29 28  1  0  0  0  0
 30  1  1  0  0  0  0
 31 32  1  0  0  0  0
 31  5  2  0  0  0  0
 33 31  1  0  0  0  0
 34 33  1  0  0  0  0
 35 30  1  0  0  0  0
 35 36  1  0  0  0  0
M  END
