2,7
q = -1.0

 42 44  0  0  1  0  0  0  0  0999 V2000
   -8.8684   -2.0727    0.7747 Cl  0  0  0  0  0  0  0  0  0  0  0  0
   -1.0889    0.0573   -1.0264 N   0  0  0  0  0  2  0  0  0  0  0  0
   -3.1629   -0.9054   -0.5023 N   0  0  0  0  0  0  0  0  0  0  0  0
   -2.5754   -1.7675   -0.6670 H   0  0  0  0  0  0  0  0  0  0  0  0
   -3.0200    1.4178   -0.7125 N   0  0  0  0  0  0  0  0  0  0  0  0
   -1.1044   -2.3087   -1.3184 N   0  0  0  0  0  0  0  0  0  0  0  0
   -1.0721    2.7944   -1.1056 N   0  0  0  0  0  2  0  0  0  0  0  0
   -2.4284    0.2224   -0.7407 C   0  0  2  0  0  3  0  0  0  0  0  0
   -0.4672   -1.1194   -1.4250 C   0  0  0  0  0  0  0  0  0  0  0  0
    0.8618   -1.0539   -1.9287 C   0  0  0  0  0  0  0  0  0  0  0  0
    1.3510   -0.0748   -2.0255 H   0  0  0  0  0  0  0  0  0  0  0  0
    1.5072   -2.2359   -2.2744 C   0  0  0  0  0  0  0  0  0  0  0  0
    2.5421   -2.2064   -2.6484 H   0  0  0  0  0  0  0  0  0  0  0  0
    0.8307   -3.4652   -2.1469 C   0  0  0  0  0  0  0  0  0  0  0  0
    1.3173   -4.4131   -2.4175 H   0  0  0  0  0  0  0  0  0  0  0  0
   -0.4893   -3.4568   -1.6717 C   0  0  0  0  0  0  0  0  0  0  0  0
   -1.2924   -4.7187   -1.4972 C   0  0  0  0  0  0  0  0  0  0  0  0
   -0.7305   -5.6148   -1.8206 H   0  0  0  0  0  0  0  0  0  0  0  0
   -1.5748   -4.8429   -0.4311 H   0  0  0  0  0  0  0  0  0  0  0  0
   -2.2355   -4.6631   -2.0791 H   0  0  0  0  0  0  0  0  0  0  0  0
   -4.5155   -1.0925   -0.2176 C   0  0  0  0  0  0  0  0  0  0  0  0
   -4.9568   -2.4370   -0.1209 C   0  0  0  0  0  0  0  0  0  0  0  0
   -4.2348   -3.2516   -0.2888 H   0  0  0  0  0  0  0  0  0  0  0  0
   -6.2857   -2.7428    0.1815 C   0  0  0  0  0  0  0  0  0  0  0  0
   -6.6185   -3.7878    0.2530 H   0  0  0  0  0  0  0  0  0  0  0  0
   -7.2033   -1.7001    0.3941 C   0  0  0  0  0  0  0  0  0  0  0  0
   -6.7852   -0.3633    0.3056 C   0  0  0  0  0  0  0  0  0  0  0  0
   -7.5121    0.4432    0.4777 H   0  0  0  0  0  0  0  0  0  0  0  0
   -5.4524   -0.0558    0.0055 C   0  0  0  0  0  0  0  0  0  0  0  0
   -5.1079    0.9822   -0.0655 H   0  0  0  0  0  0  0  0  0  0  0  0
   -2.4341    2.5624   -1.1403 C   0  0  0  0  0  0  0  0  0  0  0  0
   -3.2801    3.5905   -1.6499 C   0  0  0  0  0  0  0  0  0  0  0  0
   -4.3620    3.4059   -1.6294 H   0  0  0  0  0  0  0  0  0  0  0  0
   -2.7328    4.7444   -2.1935 C   0  0  0  0  0  0  0  0  0  0  0  0
   -3.3877    5.5289   -2.6025 H   0  0  0  0  0  0  0  0  0  0  0  0
   -1.3336    4.8847   -2.2543 C   0  0  0  0  0  0  0  0  0  0  0  0
   -0.8666    5.7614   -2.7238 H   0  0  0  0  0  0  0  0  0  0  0  0
   -0.5186    3.8891   -1.7014 C   0  0  0  0  0  0  0  0  0  0  0  0
    0.9806    4.0126   -1.7513 C   0  0  0  0  0  0  0  0  0  0  0  0
    1.2840    4.5920   -2.6439 H   0  0  0  0  0  0  0  0  0  0  0  0
    1.3780    4.5400   -0.8600 H   0  0  0  0  0  0  0  0  0  0  0  0
    1.4613    3.0157   -1.7839 H   0  0  0  0  0  0  0  0  0  0  0  0
  3 21  1  0  0  0  0
  4  3  1  0  0  0  0
  8  2  1  6  0  0  0
  8  5  1  0  0  0  0
  8  3  1  0  0  0  0
  9  6  1  0  0  0  0
  9  2  1  0  0  0  0
 10  9  2  0  0  0  0
 11 10  1  0  0  0  0
 12 14  2  0  0  0  0
 12 10  1  0  0  0  0
 13 12  1  0  0  0  0
 14 16  1  0  0  0  0
 15 14  1  0  0  0  0
 16 17  1  0  0  0  0
 16  6  2  0  0  0  0
 17 19  1  0  0  0  0
 18 17  1  0  0  0  0
 20 17  1  0  0  0  0
 21 22  2  0  0  0  0
 21 29  1  0  0  0  0
 22 24  1  0  0  0  0
 23 22  1  0  0  0  0
 24 25  1  0  0  0  0
 24 26  2  0  0  0  0
 26  1  1  0  0  0  0
 27 26  1  0  0  0  0
 27 28  1  0  0  0  0
 29 27  2  0  0  0  0
 30 29  1  0  0  0  0
 31  7  1  0  0  0  0
 31  5  2  0  0  0  0
 32 33  1  0  0  0  0
 32 31  1  0  0  0  0
 34 32  2  0  0  0  0
 35 34  1  0  0  0  0
 36 34  1  0  0  0  0
 36 38  2  0  0  0  0
 37 36  1  0  0  0  0
 38  7  1  0  0  0  0
 39 38  1  0  0  0  0
 39 41  1  0  0  0  0
 40 39  1  0  0  0  0
 42 39  1  0  0  0  0
M  END
