2,5
q = 0.0, confidence = 0.998

 39 43  0  0  0  0  0  0  0  0999 V2000
    3.2717   -0.6453   -0.0936 N   0  0  0  0  0  0  0  0  0  0  0  0
   -1.8925    1.3670   -0.1007 N   0  0  0  0  0  2  0  0  0  0  0  0
    1.7969    1.1092   -0.0721 C   0  0  0  0  0  0  0  0  0  0  0  0
    3.0848    1.5926   -0.0340 N   0  0  0  0  0  0  0  0  0  0  0  0
   -1.6377   -1.2474   -0.1628 N   0  0  0  0  0  2  0  0  0  0  0  0
   -0.4722   -0.5328   -0.1537 C   0  0  0  0  0  0  0  0  0  0  0  0
   -1.5790   -2.5879   -0.1174 C   0  0  0  0  0  0  0  0  0  0  0  0
   -2.5379   -3.1224   -0.0777 H   0  0  0  0  0  0  0  0  0  0  0  0
   -0.6110    0.8942   -0.1180 C   0  0  0  0  0  0  0  0  0  0  0  0
    0.5264    1.7635   -0.0572 C   0  0  0  0  0  0  0  0  0  0  0  0
    3.9498    0.5066   -0.0493 C   0  0  0  0  0  0  0  0  0  0  0  0
    0.2766    3.1557    0.0327 C   0  0  0  0  0  0  0  0  0  0  0  0
    1.1082    3.8738    0.0809 H   0  0  0  0  0  0  0  0  0  0  0  0
   -0.3529   -3.2833   -0.1046 C   0  0  0  0  0  0  0  0  0  0  0  0
   -0.3662   -4.3817   -0.0740 H   0  0  0  0  0  0  0  0  0  0  0  0
    1.9527   -0.2987   -0.1092 C   0  0  0  0  0  0  0  0  0  0  0  0
    0.8479   -2.5766   -0.1209 C   0  0  0  0  0  0  0  0  0  0  0  0
    1.8237   -3.0826   -0.1073 H   0  0  0  0  0  0  0  0  0  0  0  0
    0.8047   -1.1643   -0.1353 C   0  0  0  0  0  0  0  0  0  0  0  0
    5.4055    0.6331   -0.0183 C   0  0  0  0  0  0  0  0  0  0  0  0
   -1.0395    3.6079    0.0831 C   0  0  0  0  0  0  0  0  0  0  0  0
   -1.2664    4.6789    0.1758 H   0  0  0  0  0  0  0  0  0  0  0  0
    8.3897   -1.5648    0.0889 O   0  0  0  0  0  0  0  0  0  0  0  0
    6.0483    1.8887   -0.0227 C   0  0  0  0  0  0  0  0  0  0  0  0
    5.4777    2.8291   -0.0583 H   0  0  0  0  0  0  0  0  0  0  0  0
    6.1679   -0.5578    0.0174 C   0  0  0  0  0  0  0  0  0  0  0  0
    5.6283   -1.5127    0.0189 H   0  0  0  0  0  0  0  0  0  0  0  0
    8.2102    0.7751    0.0483 C   0  0  0  0  0  0  0  0  0  0  0  0
    9.3088    0.8030    0.0756 H   0  0  0  0  0  0  0  0  0  0  0  0
    7.4502    1.9459    0.0109 C   0  0  0  0  0  0  0  0  0  0  0  0
    7.9579    2.9215    0.0068 H   0  0  0  0  0  0  0  0  0  0  0  0
   -2.1042    2.6873    0.0239 C   0  0  0  0  0  0  0  0  0  0  0  0
   -3.1487    3.0180    0.0943 H   0  0  0  0  0  0  0  0  0  0  0  0
    7.5720   -0.4889    0.0514 C   0  0  0  0  0  0  0  0  0  0  0  0
    7.8101   -2.8604    0.0980 C   0  0  0  0  0  0  0  0  0  0  0  0
    7.1647   -3.0145    0.9908 H   0  0  0  0  0  0  0  0  0  0  0  0
    8.6511   -3.5763    0.1316 H   0  0  0  0  0  0  0  0  0  0  0  0
    7.2091   -3.0471   -0.8192 H   0  0  0  0  0  0  0  0  0  0  0  0
    3.3682    2.5712    0.0123 H   0  0  0  0  0  0  0  0  0  0  0  0
  1 11  2  0  0  0  0
  2 32  1  0  0  0  0
  3 10  1  0  0  0  0
  3  4  1  0  0  0  0
  4 39  1  0  0  0  0
  5  6  1  0  0  0  0
  5  7  1  0  0  0  0
  6 19  1  0  0  0  0
  6  9  2  0  0  0  0
  7 14  2  0  0  0  0
  7  8  1  0  0  0  0
  9  2  1  0  0  0  0
  9 10  1  0  0  0  0
 10 12  2  0  0  0  0
 11  4  1  0  0  0  0
 11 20  1  0  0  0  0
 12 13  1  0  0  0  0
 12 21  1  0  0  0  0
 14 15  1  0  0  0  0
 16  1  1  0  0  0  0
 16  3  2  0  0  0  0
 17 18  1  0  0  0  0
 17 14  1  0  0  0  0
 19 17  2  0  0  0  0
 19 16  1  0  0  0  0
 20 26  1  0  0  0  0
 21 22  1  0  0  0  0
 23 35  1  0  0  0  0
 24 20  2  0  0  0  0
 24 30  1  0  0  0  0
 25 24  1  0  0  0  0
 26 27  1  0  0  0  0
 26 34  2  0  0  0  0
 28 34  1  0  0  0  0
 28 29  1  0  0  0  0
 30 28  2  0  0  0  0
 31 30  1  0  0  0  0
 32 21  2  0  0  0  0
 32 33  1  0  0  0  0
 34 23  1  0  0  0  0
 35 37  1  0  0  0  0
 35 36  1  0  0  0  0
 38 35  1  0  0  0  0
M  END
