2,6
q = -1.0, confidence = 0.002

 42 44  0  0  1  0  0  0  0  0999 V2000
   -8.4675   -2.0708    0.9224 F   0  0  0  0  0  0  0  0  0  0  0  0
   -1.1236   -0.0313   -0.9883 N   0  0  0  0  0  2  0  0  0  0  0  0
   -3.1798   -0.9918   -0.3946 N   0  0  0  0  0  0  0  0  0  0  0  0
   -2.5995   -1.8544   -0.5777 H   0  0  0  0  0  0  0  0  0  0  0  0
   -3.0430    1.3307   -0.6108 N   0  0  0  0  0  0  0  0  0  0  0  0
   -1.1082    2.7059   -1.0689 N   0  0  0  0  0  2  0  0  0  0  0  0
   -1.1504   -2.3972   -1.2797 N   0  0  0  0  0  0  0  0  0  0  0  0
   -2.4534    0.1340   -0.6577 C   0  0  2  0  0  3  0  0  0  0  0  0
   -0.5167   -1.2080   -1.4076 C   0  0  0  0  0  0  0  0  0  0  0  0
    0.7947   -1.1432   -1.9560 C   0  0  0  0  0  0  0  0  0  0  0  0
    1.2806   -0.1642   -2.0690 H   0  0  0  0  0  0  0  0  0  0  0  0
    1.4275   -2.3253   -2.3235 C   0  0  0  0  0  0  0  0  0  0  0  0
    2.4492   -2.2959   -2.7322 H   0  0  0  0  0  0  0  0  0  0  0  0
    0.7552   -3.5544   -2.1734 C   0  0  0  0  0  0  0  0  0  0  0  0
    1.2320   -4.5026   -2.4603 H   0  0  0  0  0  0  0  0  0  0  0  0
   -0.5478   -3.5453   -1.6537 C   0  0  0  0  0  0  0  0  0  0  0  0
   -1.3446   -4.8071   -1.4511 C   0  0  0  0  0  0  0  0  0  0  0  0
   -0.7959   -5.7030   -1.7969 H   0  0  0  0  0  0  0  0  0  0  0  0
   -1.5862   -4.9328   -0.3750 H   0  0  0  0  0  0  0  0  0  0  0  0
   -2.3091   -4.7499   -1.9964 H   0  0  0  0  0  0  0  0  0  0  0  0
   -4.5272   -1.1790   -0.0752 C   0  0  0  0  0  0  0  0  0  0  0  0
   -4.9661   -2.5238    0.0260 C   0  0  0  0  0  0  0  0  0  0  0  0
   -4.2488   -3.3374   -0.1643 H   0  0  0  0  0  0  0  0  0  0  0  0
   -6.2886   -2.8293    0.3606 C   0  0  0  0  0  0  0  0  0  0  0  0
   -6.6338   -3.8702    0.4388 H   0  0  0  0  0  0  0  0  0  0  0  0
   -7.1894   -1.7833    0.5983 C   0  0  0  0  0  0  0  0  0  0  0  0
   -6.7814   -0.4482    0.5087 C   0  0  0  0  0  0  0  0  0  0  0  0
   -7.5128    0.3492    0.7057 H   0  0  0  0  0  0  0  0  0  0  0  0
   -5.4552   -0.1408    0.1767 C   0  0  0  0  0  0  0  0  0  0  0  0
   -5.1087    0.8962    0.1012 H   0  0  0  0  0  0  0  0  0  0  0  0
   -2.4711    2.4746   -1.0572 C   0  0  0  0  0  0  0  0  0  0  0  0
   -3.3329    3.5046   -1.5361 C   0  0  0  0  0  0  0  0  0  0  0  0
   -4.4137    3.3211   -1.4785 H   0  0  0  0  0  0  0  0  0  0  0  0
   -2.8037    4.6584   -2.0972 C   0  0  0  0  0  0  0  0  0  0  0  0
   -3.4716    5.4439   -2.4826 H   0  0  0  0  0  0  0  0  0  0  0  0
   -1.4072    4.7976   -2.2064 C   0  0  0  0  0  0  0  0  0  0  0  0
   -0.9558    5.6741   -2.6912 H   0  0  0  0  0  0  0  0  0  0  0  0
   -0.5748    3.8007   -1.6827 C   0  0  0  0  0  0  0  0  0  0  0  0
    0.9219    3.9228   -1.7842 C   0  0  0  0  0  0  0  0  0  0  0  0
    1.4001    2.9254   -1.8351 H   0  0  0  0  0  0  0  0  0  0  0  0
    1.1949    4.5036   -2.6855 H   0  0  0  0  0  0  0  0  0  0  0  0
    1.3504    4.4477   -0.9059 H   0  0  0  0  0  0  0  0  0  0  0  0
  3 21  1  0  0  0  0
  4  3  1  0  0  0  0
  6 31  1  0  0  0  0
  8  2  1  6  0  0  0
  8  5  1  0  0  0  0
  8  3  1  0  0  0  0
  9  7  1  0  0  0  0
  9  2  1  0  0  0  0
 10  9  2  0  0  0  0
 11 10  1  0  0  0  0
 12 14  2  0  0  0  0
 12 10  1  0  0  0  0
 13 12  1  0  0  0  0
 14 16  1  0  0  0  0
 15 14  1  0  0  0  0
 16 17  1  0  0  0  0
 16  7  2  0  0  0  0
 17 19  1  0  0  0  0
 18 17  1  0  0  0  0
 20 17  1  0  0  0  0
 21 22  2  0  0  0  0
 21 29  1  0  0  0  0
 22 24  1  0  0  0  0
 23 22  1  0  0  0  0
 24 25  1  0  0  0  0
 24 26  2  0  0  0  0
 26  1  1  0  0  0  0
 27 26  1  0  0  0  0
 27 28  1  0  0  0  0
 29 27  2  0  0  0  0
 30 29  1  0  0  0  0
 31  5  2  0  0  0  0
 32 33  1  0  0  0  0
 32 31  1  0  0  0  0
 34 32  2  0  0  0  0
 35 34  1  0  0  0  0
 36 34  1  0  0  0  0
 36 38  2  0  0  0  0
 37 36  1  0  0  0  0
 38  6  1  0  0  0  0
 39 38  1  0  0  0  0
 39 42  1  0  0  0  0
 40 39  1  0  0  0  0
 41 39  1  0  0  0  0
M  END
