3,4
q = 0.0, confidence = 0.994

 24 24  0  0  1  0  0  0  0  0999 V2000
    3.2403    1.2426   -1.1281 O   0  0  0  0  0  0  0  0  0  0  0  0
    2.5283    0.9464   -1.7554 H   0  0  0  0  0  0  0  0  0  0  0  0
   -1.3013    0.5949   -0.1377 N   0  0  0  0  0  2  0  0  0  0  0  0
    1.1233    0.4877    0.7513 N   0  0  0  0  0  2  0  0  0  0  0  0
   -2.5835    0.5386   -0.5420 C   0  0  0  0  0  3  0  0  0  0  0  0
   -2.9600   -0.4673   -0.7860 H   0  0  0  0  0  0  0  0  0  0  0  0
    1.4517    2.9635    0.9021 C   0  0  0  0  0  0  0  0  0  0  0  0
    2.3597    2.9575    0.2669 H   0  0  0  0  0  0  0  0  0  0  0  0
    1.7681    3.0284    1.9660 H   0  0  0  0  0  0  0  0  0  0  0  0
    0.8805    3.8799    0.6728 H   0  0  0  0  0  0  0  0  0  0  0  0
    0.6363    1.7272    0.6264 C   0  0  1  0  0  3  0  0  0  0  0  0
   -3.3875    1.6751   -0.6610 C   0  0  0  0  0  0  0  0  0  0  0  0
   -4.4274    1.5763   -1.0024 H   0  0  0  0  0  0  0  0  0  0  0  0
    3.4133    0.2015   -0.2006 C   0  0  0  0  0  0  0  0  0  0  0  0
    4.4775    0.1878    0.1328 H   0  0  0  0  0  0  0  0  0  0  0  0
    3.1957   -0.7900   -0.6553 H   0  0  0  0  0  0  0  0  0  0  0  0
   -0.7388    1.8007    0.1871 C   0  0  0  0  0  0  0  0  0  0  0  0
   -1.5044    2.9930    0.0860 C   0  0  0  0  0  0  0  0  0  0  0  0
   -1.0543    3.9590    0.3507 H   0  0  0  0  0  0  0  0  0  0  0  0
   -2.8283    2.9283   -0.3381 C   0  0  0  0  0  0  0  0  0  0  0  0
   -3.4289    3.8479   -0.4162 H   0  0  0  0  0  0  0  0  0  0  0  0
    2.5458    0.3388    1.0766 C   0  0  0  0  0  0  0  0  0  0  0  0
    2.6753   -0.5766    1.6846 H   0  0  0  0  0  0  0  0  0  0  0  0
    2.8959    1.2022    1.6770 H   0  0  0  0  0  0  0  0  0  0  0  0
  1 14  1  0  0  0  0
  2  1  1  0  0  0  0
  3 17  1  0  0  0  0
  4 22  1  0  0  0  0
  5  3  1  0  0  0  0
  6  5  1  0  0  0  0
  7  9  1  0  0  0  0
  8  7  1  0  0  0  0
 10  7  1  0  0  0  0
 11  4  1  6  0  0  0
 11  7  1  0  0  0  0
 12  5  1  0  0  0  0
 12 20  2  0  0  0  0
 13 12  1  0  0  0  0
 14 15  1  0  0  0  0
 14 22  1  0  0  0  0
 16 14  1  0  0  0  0
 17 11  1  0  0  0  0
 18 17  2  0  0  0  0
 18 19  1  0  0  0  0
 20 18  1  0  0  0  0
 21 20  1  0  0  0  0
 22 24  1  0  0  0  0
 22 23  1  0  0  0  0
M  END
