2,4
q = -1.0, confidence = 0.0

 26 27  0  0  0  0  0  0  0  0999 V2000
    1.1543    2.0490    1.1087 O   0  0  0  0  0  0  0  0  0  0  0  0
   -2.9168    1.6111   -0.0931 N   0  0  0  0  0  2  0  0  0  0  0  0
   -0.8366    2.6830    0.2373 N   0  0  0  0  0  0  0  0  0  0  0  0
   -0.5951    0.4885    1.0629 N   0  0  0  0  0  2  0  0  0  0  0  0
   -4.2702    1.6614   -0.1720 C   0  0  0  0  0  3  0  0  0  0  0  0
   -4.9793    2.8551   -0.0620 C   0  0  0  0  0  0  0  0  0  0  0  0
   -4.2600    4.0474    0.1337 C   0  0  0  0  0  0  0  0  0  0  0  0
   -2.8727    3.9958    0.2404 C   0  0  0  0  0  0  0  0  0  0  0  0
   -2.2103    2.7487    0.1373 C   0  0  0  0  0  0  0  0  0  0  0  0
   -0.0145    1.6926    0.8472 C   0  0  0  0  0  0  0  0  0  0  0  0
   -0.0700   -0.4727    1.9607 C   0  0  0  0  0  0  0  0  0  0  0  0
    1.2615   -0.4916    2.4450 C   0  0  0  0  0  0  0  0  0  0  0  0
    1.6831   -1.5165    3.3051 C   0  0  0  0  0  0  0  0  0  0  0  0
    0.8088   -2.5375    3.7039 C   0  0  0  0  0  0  0  0  0  0  0  0
   -0.5180   -2.5151    3.2430 C   0  0  0  0  0  0  0  0  0  0  0  0
   -0.9519   -1.4943    2.3920 C   0  0  0  0  0  0  0  0  0  0  0  0
   -4.7571    0.6999   -0.3872 H   0  0  0  0  0  0  0  0  0  0  0  0
   -6.0741    2.8461   -0.1461 H   0  0  0  0  0  0  0  0  0  0  0  0
   -0.3393    3.5750    0.1986 H   0  0  0  0  0  0  0  0  0  0  0  0
   -4.7820    5.0123    0.2168 H   0  0  0  0  0  0  0  0  0  0  0  0
   -2.2785    4.9025    0.4232 H   0  0  0  0  0  0  0  0  0  0  0  0
    1.9571    0.2992    2.1482 H   0  0  0  0  0  0  0  0  0  0  0  0
    2.7250   -1.5132    3.6606 H   0  0  0  0  0  0  0  0  0  0  0  0
    1.1551   -3.3413    4.3705 H   0  0  0  0  0  0  0  0  0  0  0  0
   -1.2271   -3.2979    3.5527 H   0  0  0  0  0  0  0  0  0  0  0  0
   -1.9937   -1.4690    2.0373 H   0  0  0  0  0  0  0  0  0  0  0  0
  2  9  1  0  0  0  0
  3 10  1  0  0  0  0
  4 11  1  0  0  0  0
  5  2  1  0  0  0  0
  5  6  1  0  0  0  0
  6  7  2  0  0  0  0
  7 20  1  0  0  0  0
  7  8  1  0  0  0  0
  8 21  1  0  0  0  0
  9  3  1  0  0  0  0
  9  8  2  0  0  0  0
 10  4  1  0  0  0  0
 10  1  2  0  0  0  0
 11 16  2  0  0  0  0
 11 12  1  0  0  0  0
 12 13  2  0  0  0  0
 13 23  1  0  0  0  0
 13 14  1  0  0  0  0
 14 24  1  0  0  0  0
 15 25  1  0  0  0  0
 15 14  2  0  0  0  0
 16 15  1  0  0  0  0
 17  5  1  0  0  0  0
 18  6  1  0  0  0  0
 19  3  1  0  0  0  0
 22 12  1  0  0  0  0
 26 16  1  0  0  0  0
M  END
