1,2
q = 0.0, confidence = 0.988

 19 19  0  0  1  0  0  0  0  0999 V2000
    1.1467   -1.3695   -1.3638 N   0  0  0  0  0  0  0  0  0  0  0  0
   -0.9605    0.3394    0.1112 N   0  0  0  0  0  2  0  0  0  0  0  0
   -0.1329   -2.0888   -1.5120 C   0  0  0  0  0  0  0  0  0  0  0  0
    0.0303   -3.1442   -1.8234 H   0  0  0  0  0  0  0  0  0  0  0  0
   -0.7124   -1.6012   -2.3231 H   0  0  0  0  0  0  0  0  0  0  0  0
   -0.9554   -2.0811   -0.2038 C   0  0  0  0  0  0  0  0  0  0  0  0
   -1.6763   -2.9206   -0.2241 H   0  0  0  0  0  0  0  0  0  0  0  0
   -0.2555   -2.2460    0.6492 H   0  0  0  0  0  0  0  0  0  0  0  0
   -1.6997   -0.7924    0.0297 C   0  0  2  0  0  3  0  0  0  0  0  0
   -1.5510    1.5403    0.2627 C   0  0  0  0  0  0  0  0  0  0  0  0
   -0.8576    2.4000    0.2723 H   0  0  0  0  0  0  0  0  0  0  0  0
   -2.9389    1.6724    0.3748 C   0  0  0  0  0  0  0  0  0  0  0  0
   -3.3893    2.6663    0.5071 H   0  0  0  0  0  0  0  0  0  0  0  0
   -3.7253    0.5125    0.3115 C   0  0  0  0  0  0  0  0  0  0  0  0
   -4.8209    0.5744    0.3969 H   0  0  0  0  0  0  0  0  0  0  0  0
   -3.1020   -0.7289    0.1270 C   0  0  0  0  0  0  0  0  0  0  0  0
   -3.6937   -1.6533    0.0574 H   0  0  0  0  0  0  0  0  0  0  0  0
    1.5809   -1.1796   -2.2759 H   0  0  0  0  0  0  0  0  0  0  0  0
    1.8088   -1.9287   -0.8001 H   0  0  0  0  0  0  0  0  0  0  0  0
  1 19  1  0  0  0  0
  2 10  1  0  0  0  0
  3  1  1  0  0  0  0
  3  6  1  0  0  0  0
  4  3  1  0  0  0  0
  5  3  1  0  0  0  0
  6  8  1  0  0  0  0
  7  6  1  0  0  0  0
  9  6  1  6  0  0  0
  9  2  1  0  0  0  0
  9 16  1  0  0  0  0
 10 11  1  0  0  0  0
 10 12  2  0  0  0  0
 12 13  1  0  0  0  0
 14 12  1  0  0  0  0
 14 15  1  0  0  0  0
 16 14  2  0  0  0  0
 17 16  1  0  0  0  0
 18  1  1  0  0  0  0
M  END
