1,2
q = -1.0

 29 30  0  0  1  0  0  0  0  0999 V2000
   -0.6930    1.3346   -0.4677 N   0  0  0  0  0  2  0  0  0  0  0  0
   -0.6930   -1.3346   -0.4676 N   0  0  0  0  0  2  0  0  0  0  0  0
   -0.4146    2.3514   -1.3168 C   0  0  0  0  0  3  0  0  0  0  0  0
    0.5531    2.3050   -1.8354 H   0  0  0  0  0  0  0  0  0  0  0  0
   -1.2969    3.4144   -1.5000 C   0  0  0  0  0  0  0  0  0  0  0  0
   -1.0445    4.2204   -2.2036 H   0  0  0  0  0  0  0  0  0  0  0  0
   -2.4939    3.4161   -0.7647 C   0  0  0  0  0  0  0  0  0  0  0  0
   -3.2147    4.2416   -0.8748 H   0  0  0  0  0  0  0  0  0  0  0  0
   -2.7568    2.3547    0.1052 C   0  0  0  0  0  0  0  0  0  0  0  0
   -3.6854    2.3309    0.6924 H   0  0  0  0  0  0  0  0  0  0  0  0
   -1.8463    1.2823    0.2566 C   0  0  0  0  0  0  0  0  0  0  0  0
   -1.8463   -1.2823    0.2566 C   0  0  2  0  0  3  0  0  0  0  0  0
   -0.4146   -2.3514   -1.3168 C   0  0  0  0  0  0  0  0  0  0  0  0
    0.5532   -2.3050   -1.8353 H   0  0  0  0  0  0  0  0  0  0  0  0
   -1.2969   -3.4144   -1.5001 C   0  0  0  0  0  0  0  0  0  0  0  0
   -1.0445   -4.2203   -2.2036 H   0  0  0  0  0  0  0  0  0  0  0  0
   -2.4939   -3.4160   -0.7648 C   0  0  0  0  0  0  0  0  0  0  0  0
   -3.2148   -4.2415   -0.8749 H   0  0  0  0  0  0  0  0  0  0  0  0
   -2.7568   -2.3547    0.1052 C   0  0  0  0  0  0  0  0  0  0  0  0
   -3.6854   -2.3308    0.6923 H   0  0  0  0  0  0  0  0  0  0  0  0
   -3.6158    0.0000    1.8577 C   0  0  0  0  0  0  0  0  0  0  0  0
   -3.7845    0.8849    2.5100 H   0  0  0  0  0  0  0  0  0  0  0  0
   -3.7845   -0.8850    2.5099 H   0  0  0  0  0  0  0  0  0  0  0  0
   -4.4290    0.0000    1.0971 H   0  0  0  0  0  0  0  0  0  0  0  0
   -0.9880   -0.0000    2.4506 C   0  0  0  0  0  0  0  0  0  0  0  0
   -1.1088   -0.8963    3.0962 H   0  0  0  0  0  0  0  0  0  0  0  0
   -1.1088    0.8964    3.0961 H   0  0  0  0  0  0  0  0  0  0  0  0
    0.0660   -0.0001    2.0892 H   0  0  0  0  0  0  0  0  0  0  0  0
   -2.1076   -0.0000    1.2357 B   0  0  0  0  0  0  0  0  0  0  0  0
  1 11  1  0  0  0  0
  2 12  1  0  0  0  0
  3  1  1  0  0  0  0
  4  3  1  0  0  0  0
  5  3  1  0  0  0  0
  5  7  2  0  0  0  0
  6  5  1  0  0  0  0
  7  9  1  0  0  0  0
  8  7  1  0  0  0  0
  9 11  2  0  0  0  0
  9 10  1  0  0  0  0
 11 29  1  0  0  0  0
 12 29  1  6  0  0  0
 13  2  1  0  0  0  0
 14 13  1  0  0  0  0
 15 13  2  0  0  0  0
 15 17  1  0  0  0  0
 16 15  1  0  0  0  0
 17 19  2  0  0  0  0
 18 17  1  0  0  0  0
 19 12  1  0  0  0  0
 19 20  1  0  0  0  0
 21 23  1  0  0  0  0
 21 22  1  0  0  0  0
 24 21  1  0  0  0  0
 25 27  1  0  0  0  0
 25 26  1  0  0  0  0
 28 25  1  0  0  0  0
 29 21  1  0  0  0  0
 29 25  1  0  0  0  0
M  END
