1,2
q = 0.0, confidence = 0.986

 37 36  0  0  0  0  0  0  0  0999 V2000
    1.4612    0.6846   -0.1430 N   0  0  0  0  0  2  0  0  0  0  0  0
   -1.2876    0.6255    0.1970 N   0  0  0  0  0  0  0  0  0  0  0  0
    0.8115    1.7965   -0.2510 C   0  0  0  0  0  3  0  0  0  0  0  0
    1.3326    2.7712   -0.1987 H   0  0  0  0  0  0  0  0  0  0  0  0
   -0.6861    1.8128   -0.5202 C   0  0  0  0  0  0  0  0  0  0  0  0
   -0.8510    1.6609   -2.0480 C   0  0  0  0  0  0  0  0  0  0  0  0
   -0.2222    2.4118   -2.5656 H   0  0  0  0  0  0  0  0  0  0  0  0
   -1.8998    1.8287   -2.3609 H   0  0  0  0  0  0  0  0  0  0  0  0
   -0.5257    0.6501   -2.3680 H   0  0  0  0  0  0  0  0  0  0  0  0
   -1.2365    3.1891   -0.0823 C   0  0  0  0  0  0  0  0  0  0  0  0
   -1.0298    3.4070    0.9829 H   0  0  0  0  0  0  0  0  0  0  0  0
   -2.3266    3.2586   -0.2454 H   0  0  0  0  0  0  0  0  0  0  0  0
   -0.7558    3.9862   -0.6840 H   0  0  0  0  0  0  0  0  0  0  0  0
   -2.5917    0.1326   -0.3133 C   0  0  0  0  0  0  0  0  0  0  0  0
   -2.7237   -0.8717    0.1341 H   0  0  0  0  0  0  0  0  0  0  0  0
   -2.4698   -0.0795   -1.3907 H   0  0  0  0  0  0  0  0  0  0  0  0
   -3.8341    0.9931   -0.0728 C   0  0  0  0  0  0  0  0  0  0  0  0
   -3.9644    1.2654    0.9942 H   0  0  0  0  0  0  0  0  0  0  0  0
   -4.7314    0.4144   -0.3711 H   0  0  0  0  0  0  0  0  0  0  0  0
   -3.8414    1.9296   -0.6657 H   0  0  0  0  0  0  0  0  0  0  0  0
   -1.2843    0.8207    1.6699 C   0  0  0  0  0  0  0  0  0  0  0  0
   -1.9487    1.6686    1.9565 H   0  0  0  0  0  0  0  0  0  0  0  0
   -0.2537    1.1258    1.9460 H   0  0  0  0  0  0  0  0  0  0  0  0
   -1.6774   -0.4190    2.4655 C   0  0  0  0  0  0  0  0  0  0  0  0
   -2.7582   -0.6466    2.3813 H   0  0  0  0  0  0  0  0  0  0  0  0
   -1.4565   -0.2505    3.5382 H   0  0  0  0  0  0  0  0  0  0  0  0
   -1.1189   -1.3105    2.1150 H   0  0  0  0  0  0  0  0  0  0  0  0
    2.9106    0.6763    0.1546 C   0  0  0  0  0  0  0  0  0  0  0  0
    3.3174   -0.1528   -0.4587 H   0  0  0  0  0  0  0  0  0  0  0  0
    3.6560    1.9593   -0.2122 C   0  0  0  0  0  0  0  0  0  0  0  0
    3.3796    2.8131    0.4404 H   0  0  0  0  0  0  0  0  0  0  0  0
    3.4801    2.2498   -1.2675 H   0  0  0  0  0  0  0  0  0  0  0  0
    4.7437    1.7944   -0.0846 H   0  0  0  0  0  0  0  0  0  0  0  0
    3.0902    0.3026    1.6316 C   0  0  0  0  0  0  0  0  0  0  0  0
    4.1615    0.1388    1.8608 H   0  0  0  0  0  0  0  0  0  0  0  0
    2.5286   -0.6212    1.8711 H   0  0  0  0  0  0  0  0  0  0  0  0
    2.7140    1.1177    2.2846 H   0  0  0  0  0  0  0  0  0  0  0  0
  1 28  1  0  0  0  0
  2 21  1  0  0  0  0
  3  4  1  0  0  0  0
  3  1  1  0  0  0  0
  5  3  1  0  0  0  0
  5 10  1  0  0  0  0
  5  2  1  0  0  0  0
  6  5  1  0  0  0  0
  7  6  1  0  0  0  0
  8  6  1  0  0  0  0
  9  6  1  0  0  0  0
 10 11  1  0  0  0  0
 12 10  1  0  0  0  0
 13 10  1  0  0  0  0
 14 17  1  0  0  0  0
 14 15  1  0  0  0  0
 14  2  1  0  0  0  0
 16 14  1  0  0  0  0
 17 18  1  0  0  0  0
 19 17  1  0  0  0  0
 20 17  1  0  0  0  0
 21 23  1  0  0  0  0
 21 22  1  0  0  0  0
 21 24  1  0  0  0  0
 24 26  1  0  0  0  0
 25 24  1  0  0  0  0
 27 24  1  0  0  0  0
 28 34  1  0  0  0  0
 29 28  1  0  0  0  0
 30 33  1  0  0  0  0
 30 28  1  0  0  0  0
 30 31  1  0  0  0  0
 32 30  1  0  0  0  0
 34 35  1  0  0  0  0
 34 36  1  0  0  0  0
 34 37  1  0  0  0  0
M  END
