1,2
q = 0.0, confidence = 1.0

 38 38  0  0  0  0  0  0  0  0999 V2000
    0.2773    1.5969   -0.0173 N   0  0  0  0  0  2  0  0  0  0  0  0
    2.5624    0.0852    0.0475 N   0  0  0  0  0  0  0  0  0  0  0  0
    1.3524    2.1276   -0.5094 C   0  0  0  0  0  3  0  0  0  0  0  0
    1.3872    3.2182   -0.6998 H   0  0  0  0  0  0  0  0  0  0  0  0
    2.5448    1.2751   -0.8990 C   0  0  0  0  0  0  0  0  0  0  0  0
    2.2684    0.8173   -2.3494 C   0  0  0  0  0  0  0  0  0  0  0  0
    1.3939    0.1369   -2.3874 H   0  0  0  0  0  0  0  0  0  0  0  0
    3.1515    0.3124   -2.7852 H   0  0  0  0  0  0  0  0  0  0  0  0
    2.0472    1.6983   -2.9828 H   0  0  0  0  0  0  0  0  0  0  0  0
    3.8124    2.1551   -0.8679 C   0  0  0  0  0  0  0  0  0  0  0  0
    3.7147    2.9649   -1.6173 H   0  0  0  0  0  0  0  0  0  0  0  0
    4.7137    1.5720   -1.1254 H   0  0  0  0  0  0  0  0  0  0  0  0
    3.9747    2.6324    0.1163 H   0  0  0  0  0  0  0  0  0  0  0  0
    3.2401   -1.1444   -0.4582 C   0  0  0  0  0  0  0  0  0  0  0  0
    2.7296   -1.4434   -1.3924 H   0  0  0  0  0  0  0  0  0  0  0  0
    2.9897   -1.9392    0.2695 H   0  0  0  0  0  0  0  0  0  0  0  0
    4.7541   -1.1045   -0.6680 C   0  0  0  0  0  0  0  0  0  0  0  0
    5.0587   -0.4561   -1.5121 H   0  0  0  0  0  0  0  0  0  0  0  0
    5.1065   -2.1280   -0.9042 H   0  0  0  0  0  0  0  0  0  0  0  0
    5.3029   -0.7746    0.2361 H   0  0  0  0  0  0  0  0  0  0  0  0
    3.0464    0.4853    1.4016 C   0  0  0  0  0  0  0  0  0  0  0  0
    2.5140    1.4218    1.6664 H   0  0  0  0  0  0  0  0  0  0  0  0
    4.1279    0.7391    1.3637 H   0  0  0  0  0  0  0  0  0  0  0  0
    2.8033   -0.5548    2.4875 C   0  0  0  0  0  0  0  0  0  0  0  0
    1.7300   -0.8317    2.5447 H   0  0  0  0  0  0  0  0  0  0  0  0
    3.1033   -0.1339    3.4669 H   0  0  0  0  0  0  0  0  0  0  0  0
    3.3925   -1.4798    2.3354 H   0  0  0  0  0  0  0  0  0  0  0  0
   -0.8689    2.4102    0.2437 C   0  0  0  0  0  0  0  0  0  0  0  0
   -1.4142    3.2122   -0.7769 C   0  0  0  0  0  0  0  0  0  0  0  0
   -0.9637    3.2004   -1.7808 H   0  0  0  0  0  0  0  0  0  0  0  0
   -2.5504    3.9903   -0.5114 C   0  0  0  0  0  0  0  0  0  0  0  0
   -2.9848    4.6075   -1.3116 H   0  0  0  0  0  0  0  0  0  0  0  0
   -3.1340    3.9754    0.7648 C   0  0  0  0  0  0  0  0  0  0  0  0
   -4.0253    4.5863    0.9693 H   0  0  0  0  0  0  0  0  0  0  0  0
   -2.5810    3.1765    1.7804 C   0  0  0  0  0  0  0  0  0  0  0  0
   -3.0312    3.1702    2.7840 H   0  0  0  0  0  0  0  0  0  0  0  0
   -1.4560    2.3829    1.5223 C   0  0  0  0  0  0  0  0  0  0  0  0
   -1.0125    1.7513    2.3060 H   0  0  0  0  0  0  0  0  0  0  0  0
  1 28  1  0  0  0  0
  2 21  1  0  0  0  0
  3  1  1  0  0  0  0
  4  3  1  0  0  0  0
  5 10  1  0  0  0  0
  5  3  1  0  0  0  0
  5  2  1  0  0  0  0
  6  5  1  0  0  0  0
  7  6  1  0  0  0  0
  8  6  1  0  0  0  0
  9  6  1  0  0  0  0
 10 13  1  0  0  0  0
 11 10  1  0  0  0  0
 12 10  1  0  0  0  0
 14  2  1  0  0  0  0
 14 16  1  0  0  0  0
 15 14  1  0  0  0  0
 17 14  1  0  0  0  0
 17 20  1  0  0  0  0
 18 17  1  0  0  0  0
 19 17  1  0  0  0  0
 21 22  1  0  0  0  0
 21 24  1  0  0  0  0
 23 21  1  0  0  0  0
 24 25  1  0  0  0  0
 24 26  1  0  0  0  0
 27 24  1  0  0  0  0
 28 37  1  0  0  0  0
 29 31  1  0  0  0  0
 29 28  2  0  0  0  0
 30 29  1  0  0  0  0
 31 33  2  0  0  0  0
 32 31  1  0  0  0  0
 33 34  1  0  0  0  0
 33 35  1  0  0  0  0
 35 36  1  0  0  0  0
 37 35  2  0  0  0  0
 37 38  1  0  0  0  0
M  END
