1,2
q = -1.0

 33 36  0  0  0  0  0  0  0  0999 V2000
    0.4696   -0.3290    1.6761 N   0  0  0  0  0  2  0  0  0  0  0  0
    0.1753   -1.2516   -1.0851 N   0  0  0  0  0  2  0  0  0  0  0  0
    2.1505    1.8484   -1.7169 N   0  0  0  0  0  0  0  0  0  0  0  0
    4.1864   -1.6941    0.1761 N   0  0  0  0  0  0  0  0  0  0  0  0
    1.7928   -0.3354    1.3322 N   0  0  0  0  0  0  0  0  0  0  0  0
    1.5086   -0.9587   -1.1347 N   0  0  0  0  0  0  0  0  0  0  0  0
    2.1371    1.4198   -0.4349 N   0  0  0  0  0  0  0  0  0  0  0  0
    3.7733   -0.4530   -0.1925 N   0  0  0  0  0  0  0  0  0  0  0  0
    2.5587   -0.3273    2.4514 C   0  0  0  0  0  3  0  0  0  0  0  0
    3.6499   -0.3202    2.3705 H   0  0  0  0  0  0  0  0  0  0  0  0
    1.7159   -0.3350    3.5676 C   0  0  0  0  0  0  0  0  0  0  0  0
    2.0089   -0.3485    4.6216 H   0  0  0  0  0  0  0  0  0  0  0  0
    0.4172   -0.3178    3.0355 C   0  0  0  0  0  0  0  0  0  0  0  0
   -0.5590   -0.3201    3.5320 H   0  0  0  0  0  0  0  0  0  0  0  0
    2.0641   -1.5119   -2.2467 C   0  0  0  0  0  3  0  0  0  0  0  0
    3.1307   -1.3858   -2.4526 H   0  0  0  0  0  0  0  0  0  0  0  0
    1.0691   -2.1911   -2.9460 C   0  0  0  0  0  0  0  0  0  0  0  0
    1.1753   -2.7539   -3.8780 H   0  0  0  0  0  0  0  0  0  0  0  0
   -0.0950   -1.9970   -2.1826 C   0  0  0  0  0  0  0  0  0  0  0  0
   -1.1112   -2.3718   -2.3358 H   0  0  0  0  0  0  0  0  0  0  0  0
    2.2296    2.4613    0.4461 C   0  0  0  0  0  0  0  0  0  0  0  0
    2.2620    2.2935    1.5288 H   0  0  0  0  0  0  0  0  0  0  0  0
    2.3016    3.6358   -0.3042 C   0  0  0  0  0  0  0  0  0  0  0  0
    2.3923    4.6613    0.0711 H   0  0  0  0  0  0  0  0  0  0  0  0
    2.2451    3.1841   -1.6507 C   0  0  0  0  0  0  0  0  0  0  0  0
    2.2678    3.7759   -2.5757 H   0  0  0  0  0  0  0  0  0  0  0  0
    4.8165    0.3127   -0.6454 C   0  0  0  0  0  0  0  0  0  0  0  0
    4.6576    1.3349   -1.0046 H   0  0  0  0  0  0  0  0  0  0  0  0
    5.9659   -0.4682   -0.5638 C   0  0  0  0  0  0  0  0  0  0  0  0
    6.9850   -0.1802   -0.8426 H   0  0  0  0  0  0  0  0  0  0  0  0
    5.5075   -1.7081   -0.0429 C   0  0  0  0  0  0  0  0  0  0  0  0
    6.0868   -2.6134    0.1836 H   0  0  0  0  0  0  0  0  0  0  0  0
    2.2827   -0.0877   -0.1208 B   0  0  0  0  0  0  0  0  0  0  0  0
  1 13  1  0  0  0  0
  3 25  2  0  0  0  0
  3  7  1  0  0  0  0
  5  1  1  0  0  0  0
  5  9  1  0  0  0  0
  6  2  1  0  0  0  0
  6 33  1  0  0  0  0
  7 33  1  0  0  0  0
  7 21  1  0  0  0  0
  8 33  1  0  0  0  0
  8  4  1  0  0  0  0
  9 11  1  0  0  0  0
 10  9  1  0  0  0  0
 11 12  1  0  0  0  0
 13 14  1  0  0  0  0
 13 11  2  0  0  0  0
 15  6  1  0  0  0  0
 16 15  1  0  0  0  0
 17 15  1  0  0  0  0
 17 19  2  0  0  0  0
 18 17  1  0  0  0  0
 19  2  1  0  0  0  0
 20 19  1  0  0  0  0
 21 22  1  0  0  0  0
 23 24  1  0  0  0  0
 23 21  2  0  0  0  0
 25 23  1  0  0  0  0
 26 25  1  0  0  0  0
 27 29  2  0  0  0  0
 27  8  1  0  0  0  0
 28 27  1  0  0  0  0
 29 31  1  0  0  0  0
 30 29  1  0  0  0  0
 31  4  2  0  0  0  0
 31 32  1  0  0  0  0
 33  5  1  0  0  0  0
M  END
