1,2
q = 0.0, confidence = 0.95

 22 23  0  0  0  0  0  0  0  0999 V2000
    1.8086    0.7312   -0.4164 N   0  0  0  0  0  2  0  0  0  0  0  0
   -0.7807    0.9059   -0.5070 N   0  0  0  0  0  2  0  0  0  0  0  0
   -0.1865    2.0320   -0.4336 N   0  0  0  0  0  0  0  0  0  0  0  0
   -2.2008    0.9824   -0.3963 C   0  0  0  0  0  0  0  0  0  0  0  0
    1.2062    1.9509   -0.4258 C   0  0  0  0  0  0  0  0  0  0  0  0
   -2.8836    0.2033   -1.2426 N   0  0  0  0  0  0  0  0  0  0  0  0
    3.9526    1.8117   -0.3645 C   0  0  0  0  0  0  0  0  0  0  0  0
    5.0465    1.7082   -0.3319 H   0  0  0  0  0  0  0  0  0  0  0  0
   -4.2207    0.2324   -1.1580 C   0  0  0  0  0  0  0  0  0  0  0  0
   -4.7687   -0.4032   -1.8751 H   0  0  0  0  0  0  0  0  0  0  0  0
   -2.7854    1.7975    0.5933 C   0  0  0  0  0  0  0  0  0  0  0  0
   -2.1441    2.3761    1.2708 H   0  0  0  0  0  0  0  0  0  0  0  0
    3.3403    3.0761   -0.3831 C   0  0  0  0  0  0  0  0  0  0  0  0
    3.9472    3.9932   -0.3686 H   0  0  0  0  0  0  0  0  0  0  0  0
   -4.9180    1.0045   -0.2121 C   0  0  0  0  0  0  0  0  0  0  0  0
   -6.0168    0.9732   -0.1737 H   0  0  0  0  0  0  0  0  0  0  0  0
    1.9447    3.1495   -0.4122 C   0  0  0  0  0  0  0  0  0  0  0  0
    1.3966    4.1012   -0.4180 H   0  0  0  0  0  0  0  0  0  0  0  0
    3.1480    0.6630   -0.3815 C   0  0  0  0  0  0  0  0  0  0  0  0
    3.5797   -0.3496   -0.3553 H   0  0  0  0  0  0  0  0  0  0  0  0
   -4.1812    1.7942    0.6846 C   0  0  0  0  0  0  0  0  0  0  0  0
   -4.6892    2.3978    1.4517 H   0  0  0  0  0  0  0  0  0  0  0  0
  1 19  1  0  0  0  0
  2  3  1  0  0  0  0
  2  4  1  0  0  0  0
  3  5  2  0  0  0  0
  4 11  1  0  0  0  0
  5  1  1  0  0  0  0
  5 17  1  0  0  0  0
  6  9  1  0  0  0  0
  6  4  2  0  0  0  0
  7  8  1  0  0  0  0
  9 15  2  0  0  0  0
 10  9  1  0  0  0  0
 11 21  2  0  0  0  0
 11 12  1  0  0  0  0
 13 14  1  0  0  0  0
 13  7  1  0  0  0  0
 15 16  1  0  0  0  0
 15 21  1  0  0  0  0
 17 13  2  0  0  0  0
 18 17  1  0  0  0  0
 19  7  2  0  0  0  0
 19 20  1  0  0  0  0
 21 22  1  0  0  0  0
M  END
