2,5
q = 0.0, confidence = 0.954

 34 34  0  0  1  0  0  0  0  0999 V2000
   -1.4880    2.5156   -0.0256 O   0  0  0  0  0  0  0  0  0  0  0  0
   -1.4825    1.1425    0.1675 N   0  0  0  0  0  2  0  0  0  0  0  0
   -2.7057    0.5719   -0.0622 C   0  0  2  0  0  3  0  0  0  0  0  0
   -2.6001   -0.8421   -0.1791 C   0  0  2  0  0  3  0  0  0  0  0  0
   -1.3395   -1.2344   -0.5061 N   0  0  0  0  0  2  0  0  0  0  0  0
   -1.1480   -2.6964   -0.0783 O   0  0  0  0  0  0  0  0  0  0  0  0
   -3.8972    1.2756   -0.2721 N   0  0  0  0  0  0  0  0  0  0  0  0
   -4.4026    1.2898   -1.6478 C   0  0  0  0  0  0  0  0  0  0  0  0
   -3.6140    2.1825   -2.6108 C   0  0  0  0  0  0  0  0  0  0  0  0
   -4.2329    2.4265    0.5688 C   0  0  0  0  0  0  0  0  0  0  0  0
   -3.9576    2.1728    2.0467 C   0  0  0  0  0  0  0  0  0  0  0  0
   -3.6519   -1.7576   -0.1868 N   0  0  0  0  0  0  0  0  0  0  0  0
   -3.3786   -3.0393   -0.6771 C   0  0  0  0  0  0  0  0  0  0  0  0
   -2.0973   -3.4815   -0.6931 C   0  0  0  0  0  0  0  0  0  0  0  0
   -4.8754   -1.5333    0.5858 C   0  0  0  0  0  0  0  0  0  0  0  0
   -4.7321   -1.9222    2.0572 C   0  0  0  0  0  0  0  0  0  0  0  0
   -0.5497    2.7654    0.1814 H   0  0  0  0  0  0  0  0  0  0  0  0
   -4.4001    0.2422   -2.0194 H   0  0  0  0  0  0  0  0  0  0  0  0
   -5.4685    1.6067   -1.6082 H   0  0  0  0  0  0  0  0  0  0  0  0
   -3.6311    3.2430   -2.2894 H   0  0  0  0  0  0  0  0  0  0  0  0
   -4.0382    2.1266   -3.6345 H   0  0  0  0  0  0  0  0  0  0  0  0
   -2.5534    1.8640   -2.6557 H   0  0  0  0  0  0  0  0  0  0  0  0
   -5.3194    2.6131    0.4171 H   0  0  0  0  0  0  0  0  0  0  0  0
   -3.6968    3.3501    0.2513 H   0  0  0  0  0  0  0  0  0  0  0  0
   -4.4972    1.2753    2.4119 H   0  0  0  0  0  0  0  0  0  0  0  0
   -2.8759    2.0217    2.2292 H   0  0  0  0  0  0  0  0  0  0  0  0
   -4.2853    3.0434    2.6487 H   0  0  0  0  0  0  0  0  0  0  0  0
   -4.2221   -3.6117   -1.0916 H   0  0  0  0  0  0  0  0  0  0  0  0
   -1.7382   -4.3891   -1.2031 H   0  0  0  0  0  0  0  0  0  0  0  0
   -5.1416   -0.4626    0.4876 H   0  0  0  0  0  0  0  0  0  0  0  0
   -5.6797   -2.1260    0.1002 H   0  0  0  0  0  0  0  0  0  0  0  0
   -5.6830   -1.7516    2.6023 H   0  0  0  0  0  0  0  0  0  0  0  0
   -3.9434   -1.3132    2.5435 H   0  0  0  0  0  0  0  0  0  0  0  0
   -4.4555   -2.9904    2.1666 H   0  0  0  0  0  0  0  0  0  0  0  0
  1  2  1  0  0  0  0
  1 17  1  0  0  0  0
  3  2  1  6  0  0  0
  4  3  1  6  0  0  0
  5  4  1  0  0  0  0
  5  6  1  0  0  0  0
  7  3  1  0  0  0  0
  7 10  1  0  0  0  0
  8 19  1  0  0  0  0
  8  7  1  0  0  0  0
  9 20  1  0  0  0  0
  9  8  1  0  0  0  0
 10 11  1  0  0  0  0
 11 26  1  0  0  0  0
 11 25  1  0  0  0  0
 11 27  1  0  0  0  0
 12  4  1  0  0  0  0
 12 15  1  0  0  0  0
 13 12  1  0  0  0  0
 14 13  2  0  0  0  0
 14  6  1  0  0  0  0
 15 16  1  0  0  0  0
 16 34  1  0  0  0  0
 16 33  1  0  0  0  0
 16 32  1  0  0  0  0
 18  8  1  0  0  0  0
 21  9  1  0  0  0  0
 22  9  1  0  0  0  0
 23 10  1  0  0  0  0
 24 10  1  0  0  0  0
 28 13  1  0  0  0  0
 29 14  1  0  0  0  0
 30 15  1  0  0  0  0
 31 15  1  0  0  0  0
M  END
