1,3
q = -1.0

 43 45  0  0  0  0  0  0  0  0999 V2000
    1.7766    0.2651   -0.7083 N   0  0  0  0  0  2  0  0  0  0  0  0
    1.8361    1.5663   -0.8105 N   0  0  0  0  0  0  0  0  0  0  0  0
   -0.4527    1.5867   -0.3648 N   0  0  0  0  0  2  0  0  0  0  0  0
   -1.5275    2.2576   -0.0619 N   0  0  0  0  0  2  0  0  0  0  0  0
    7.4578   -3.0918   -2.5473 N   0  0  0  0  0  0  0  0  0  0  0  0
   -7.4692   -0.7134   -1.5682 N   0  0  0  0  0  0  0  0  0  0  0  0
    0.7270    2.2804   -0.5519 C   0  0  0  0  0  0  0  0  0  0  0  0
    2.9569   -0.4008   -1.0933 C   0  0  0  0  0  0  0  0  0  0  0  0
    4.1352    0.3046   -1.4556 C   0  0  0  0  0  0  0  0  0  0  0  0
    4.1138    1.4013   -1.4378 H   0  0  0  0  0  0  0  0  0  0  0  0
    5.2855   -0.3854   -1.8256 C   0  0  0  0  0  0  0  0  0  0  0  0
    6.1960    0.1677   -2.0983 H   0  0  0  0  0  0  0  0  0  0  0  0
    5.2997   -1.8039   -1.8573 C   0  0  0  0  0  0  0  0  0  0  0  0
    4.1216   -2.5068   -1.5093 C   0  0  0  0  0  0  0  0  0  0  0  0
    4.1171   -3.6058   -1.5299 H   0  0  0  0  0  0  0  0  0  0  0  0
    2.9708   -1.8146   -1.1350 C   0  0  0  0  0  0  0  0  0  0  0  0
    2.0683   -2.3687   -0.8526 H   0  0  0  0  0  0  0  0  0  0  0  0
    6.4845   -2.5107   -2.2361 C   0  0  0  0  0  0  0  0  0  0  0  0
    0.8762    3.7527   -0.5176 C   0  0  0  0  0  0  0  0  0  0  0  0
   -0.1633    4.6675   -0.8050 C   0  0  0  0  0  0  0  0  0  0  0  0
   -1.1640    4.2947   -1.0498 H   0  0  0  0  0  0  0  0  0  0  0  0
    0.0750    6.0478   -0.7831 C   0  0  0  0  0  0  0  0  0  0  0  0
   -0.7516    6.7355   -1.0229 H   0  0  0  0  0  0  0  0  0  0  0  0
    1.3406    6.5778   -0.4652 C   0  0  0  0  0  0  0  0  0  0  0  0
    2.3758    5.6624   -0.1782 C   0  0  0  0  0  0  0  0  0  0  0  0
    3.3795    6.0417    0.0728 H   0  0  0  0  0  0  0  0  0  0  0  0
    2.1525    4.2840   -0.2044 C   0  0  0  0  0  0  0  0  0  0  0  0
    2.9713    3.5859    0.0203 H   0  0  0  0  0  0  0  0  0  0  0  0
    1.5785    8.0645   -0.4046 C   0  0  0  0  0  0  0  0  0  0  0  0
    2.5734    8.3353   -0.8121 H   0  0  0  0  0  0  0  0  0  0  0  0
    1.5500    8.4313    0.6444 H   0  0  0  0  0  0  0  0  0  0  0  0
    0.8086    8.6256   -0.9693 H   0  0  0  0  0  0  0  0  0  0  0  0
   -2.7323    1.6493   -0.3682 C   0  0  0  0  0  0  0  0  0  0  0  0
   -3.8246    1.7519    0.5298 C   0  0  0  0  0  0  0  0  0  0  0  0
   -3.6683    2.2554    1.4938 H   0  0  0  0  0  0  0  0  0  0  0  0
   -5.0463    1.1632    0.2197 C   0  0  0  0  0  0  0  0  0  0  0  0
   -5.8734    1.1895    0.9427 H   0  0  0  0  0  0  0  0  0  0  0  0
   -5.2319    0.5058   -1.0248 C   0  0  0  0  0  0  0  0  0  0  0  0
   -4.1679    0.4755   -1.9579 C   0  0  0  0  0  0  0  0  0  0  0  0
   -4.3173   -0.0057   -2.9350 H   0  0  0  0  0  0  0  0  0  0  0  0
   -2.9327    1.0277   -1.6301 C   0  0  0  0  0  0  0  0  0  0  0  0
   -2.1018    1.0096   -2.3487 H   0  0  0  0  0  0  0  0  0  0  0  0
   -6.4676   -0.1475   -1.3251 C   0  0  0  0  0  0  0  0  0  0  0  0
  2  1  1  0  0  0  0
  2  7  2  0  0  0  0
  3  4  1  0  0  0  0
  5 18  3  0  0  0  0
  6 43  3  0  0  0  0
  7 19  1  0  0  0  0
  7  3  1  0  0  0  0
  8  1  1  0  0  0  0
  9 10  1  0  0  0  0
  9  8  2  0  0  0  0
 11  9  1  0  0  0  0
 12 11  1  0  0  0  0
 13 11  2  0  0  0  0
 13 14  1  0  0  0  0
 14 16  2  0  0  0  0
 15 14  1  0  0  0  0
 16  8  1  0  0  0  0
 16 17  1  0  0  0  0
 18 13  1  0  0  0  0
 19 27  1  0  0  0  0
 20 22  1  0  0  0  0
 20 19  2  0  0  0  0
 21 20  1  0  0  0  0
 22 24  2  0  0  0  0
 23 22  1  0  0  0  0
 24 29  1  0  0  0  0
 24 25  1  0  0  0  0
 25 26  1  0  0  0  0
 27 25  2  0  0  0  0
 27 28  1  0  0  0  0
 29 31  1  0  0  0  0
 30 29  1  0  0  0  0
 32 29  1  0  0  0  0
 33  4  1  0  0  0  0
 33 34  1  0  0  0  0
 34 35  1  0  0  0  0
 36 34  2  0  0  0  0
 36 37  1  0  0  0  0
 38 36  1  0  0  0  0
 39 41  1  0  0  0  0
 39 38  2  0  0  0  0
 40 39  1  0  0  0  0
 41 33  2  0  0  0  0
 42 41  1  0  0  0  0
 43 38  1  0  0  0  0
M  END
