1,2
q = 0.0, confidence = 0.98

 56 57  0  0  1  0  0  0  0  0999 V2000
    1.7535   -1.4934   -0.3436 N   0  0  0  0  0  2  0  0  0  0  0  0
   -1.0308    1.8336   -0.2847 N   0  0  0  0  0  2  0  0  0  0  0  0
   -0.5238    4.7659    1.8746 C   0  0  0  0  0  0  0  0  0  0  0  0
   -0.1598    4.3554    2.8395 H   0  0  0  0  0  0  0  0  0  0  0  0
   -1.3252    5.4924    2.1016 H   0  0  0  0  0  0  0  0  0  0  0  0
    0.3153    5.3251    1.4108 H   0  0  0  0  0  0  0  0  0  0  0  0
    2.1017   -2.7799   -0.5180 C   0  0  1  0  0  3  0  0  0  0  0  0
    3.6481   -1.8434    0.8246 C   0  0  0  0  0  0  0  0  0  0  0  0
    2.6834   -0.9351    0.4658 N   0  0  0  0  0  0  0  0  0  0  0  0
    1.3427    0.9535    1.0817 N   0  0  0  0  0  0  0  0  0  0  0  0
   -0.3230    2.6208    0.5552 N   0  0  0  0  0  0  0  0  0  0  0  0
   -1.0783   -0.8406    1.6712 N   0  0  0  0  0  0  0  0  0  0  0  0
   -3.3448   -1.0525    2.8487 C   0  0  0  0  0  0  0  0  0  0  0  0
   -4.4283   -0.9851    2.6270 H   0  0  0  0  0  0  0  0  0  0  0  0
   -3.1250   -0.3249    3.6565 H   0  0  0  0  0  0  0  0  0  0  0  0
   -3.1572   -2.0703    3.2471 H   0  0  0  0  0  0  0  0  0  0  0  0
    1.3039   -3.6918   -1.3931 C   0  0  0  0  0  0  0  0  0  0  0  0
    0.3879   -3.1907   -1.7612 H   0  0  0  0  0  0  0  0  0  0  0  0
    1.0087   -4.6122   -0.8514 H   0  0  0  0  0  0  0  0  0  0  0  0
    1.9037   -4.0036   -2.2725 H   0  0  0  0  0  0  0  0  0  0  0  0
    3.2931   -3.0444    0.2083 C   0  0  0  0  0  0  0  0  0  0  0  0
    3.8371   -3.9925    0.2734 H   0  0  0  0  0  0  0  0  0  0  0  0
    2.6744    0.5060    0.7075 C   0  0  0  0  0  0  0  0  0  0  0  0
    3.0008    1.0543   -0.2050 H   0  0  0  0  0  0  0  0  0  0  0  0
    3.4339    0.6901    1.5021 H   0  0  0  0  0  0  0  0  0  0  0  0
    1.0960    2.3548    0.7985 C   0  0  0  0  0  0  0  0  0  0  0  0
    1.3884    3.0162    1.6471 H   0  0  0  0  0  0  0  0  0  0  0  0
    1.6933    2.6554   -0.0934 H   0  0  0  0  0  0  0  0  0  0  0  0
   -2.2486    2.3907   -0.4204 C   0  0  2  0  0  3  0  0  0  0  0  0
   -3.2953    1.7764   -1.2940 C   0  0  0  0  0  0  0  0  0  0  0  0
   -2.8617    1.4560   -2.2613 H   0  0  0  0  0  0  0  0  0  0  0  0
   -4.1058    2.5013   -1.4939 H   0  0  0  0  0  0  0  0  0  0  0  0
   -3.7532    0.8713   -0.8418 H   0  0  0  0  0  0  0  0  0  0  0  0
   -2.3069    3.5741    0.3597 C   0  0  0  0  0  0  0  0  0  0  0  0
   -3.1526    4.2624    0.4589 H   0  0  0  0  0  0  0  0  0  0  0  0
   -1.0566    3.7023    0.9709 C   0  0  0  0  0  0  0  0  0  0  0  0
    0.9244    0.5004    2.4123 C   0  0  0  0  0  0  0  0  0  0  0  0
    1.2082    1.2547    3.1873 H   0  0  0  0  0  0  0  0  0  0  0  0
    1.4978   -0.4189    2.6451 H   0  0  0  0  0  0  0  0  0  0  0  0
   -0.5716    0.2076    2.5576 C   0  0  0  0  0  0  0  0  0  0  0  0
   -0.7398   -0.0467    3.6353 H   0  0  0  0  0  0  0  0  0  0  0  0
   -1.1545    1.1296    2.3638 H   0  0  0  0  0  0  0  0  0  0  0  0
   -2.5532   -0.7759    1.5666 C   0  0  0  0  0  0  0  0  0  0  0  0
   -2.8804   -1.4732    0.7736 H   0  0  0  0  0  0  0  0  0  0  0  0
   -2.7957    0.2390    1.1921 H   0  0  0  0  0  0  0  0  0  0  0  0
   -0.5704   -2.1680    2.0706 C   0  0  0  0  0  0  0  0  0  0  0  0
   -0.7615   -2.3435    3.1611 H   0  0  0  0  0  0  0  0  0  0  0  0
    0.5322   -2.1529    1.9521 H   0  0  0  0  0  0  0  0  0  0  0  0
   -1.1298   -3.3275    1.2556 C   0  0  0  0  0  0  0  0  0  0  0  0
   -0.5717   -4.2532    1.4980 H   0  0  0  0  0  0  0  0  0  0  0  0
   -1.0363   -3.1340    0.1704 H   0  0  0  0  0  0  0  0  0  0  0  0
   -2.2002   -3.5185    1.4655 H   0  0  0  0  0  0  0  0  0  0  0  0
    4.8203   -1.5054    1.6867 C   0  0  0  0  0  0  0  0  0  0  0  0
    4.5144   -1.0848    2.6673 H   0  0  0  0  0  0  0  0  0  0  0  0
    5.4947   -0.7688    1.2023 H   0  0  0  0  0  0  0  0  0  0  0  0
    5.4095   -2.4196    1.8840 H   0  0  0  0  0  0  0  0  0  0  0  0
  1  9  1  0  0  0  0
  2 11  1  0  0  0  0
  3  5  1  0  0  0  0
  3  4  1  0  0  0  0
  6  3  1  0  0  0  0
  7 17  1  6  0  0  0
  7  1  1  0  0  0  0
  7 21  1  0  0  0  0
  8 53  1  0  0  0  0
  9 23  1  0  0  0  0
  9  8  1  0  0  0  0
 10 37  1  0  0  0  0
 11 26  1  0  0  0  0
 11 36  1  0  0  0  0
 12 46  1  0  0  0  0
 12 40  1  0  0  0  0
 13 16  1  0  0  0  0
 13 15  1  0  0  0  0
 14 13  1  0  0  0  0
 17 19  1  0  0  0  0
 18 17  1  0  0  0  0
 20 17  1  0  0  0  0
 21 22  1  0  0  0  0
 21  8  2  0  0  0  0
 23 10  1  0  0  0  0
 23 25  1  0  0  0  0
 24 23  1  0  0  0  0
 26 10  1  0  0  0  0
 26 27  1  0  0  0  0
 28 26  1  0  0  0  0
 29 30  1  6  0  0  0
 29  2  1  0  0  0  0
 29 34  1  0  0  0  0
 30 33  1  0  0  0  0
 31 30  1  0  0  0  0
 32 30  1  0  0  0  0
 34 35  1  0  0  0  0
 34 36  2  0  0  0  0
 36  3  1  0  0  0  0
 37 40  1  0  0  0  0
 37 39  1  0  0  0  0
 37 38  1  0  0  0  0
 40 41  1  0  0  0  0
 42 40  1  0  0  0  0
 43 12  1  0  0  0  0
 43 13  1  0  0  0  0
 44 43  1  0  0  0  0
 45 43  1  0  0  0  0
 46 47  1  0  0  0  0
 48 46  1  0  0  0  0
 49 52  1  0  0  0  0
 49 50  1  0  0  0  0
 49 46  1  0  0  0  0
 51 49  1  0  0  0  0
 53 56  1  0  0  0  0
 53 54  1  0  0  0  0
 55 53  1  0  0  0  0
M  END
