1,2
q = -2.0, confidence = 0.898

 14 13  0  0  0  0  0  0  0  0999 V2000
   -0.7575    1.0484   -1.9043 N   0  0  0  0  0  2  0  0  0  0  0  0
   -0.9369    1.9309    0.0550 N   0  0  0  0  0  2  0  0  0  0  0  0
   -0.6638    3.4007   -1.8233 O   0  0  0  0  0  0  0  0  0  0  0  0
   -0.8401    2.1708    2.3193 O   0  0  0  0  0  0  0  0  0  0  0  0
   -0.7738    2.2839   -1.3189 C   0  0  0  0  0  0  0  0  0  0  0  0
   -0.6367    0.8170   -3.3111 C   0  0  0  0  0  0  0  0  0  0  0  0
   -0.5578    1.7971   -3.8283 H   0  0  0  0  0  0  0  0  0  0  0  0
   -1.5175    0.2770   -3.7332 H   0  0  0  0  0  0  0  0  0  0  0  0
    0.2654    0.2131   -3.5681 H   0  0  0  0  0  0  0  0  0  0  0  0
   -0.8211    2.6836    1.1813 C   0  0  0  0  0  0  0  0  0  0  0  0
   -0.6585    4.1840    1.0031 C   0  0  0  0  0  0  0  0  0  0  0  0
   -0.6931    4.6572    2.0009 H   0  0  0  0  0  0  0  0  0  0  0  0
   -1.4329    4.5991    0.3314 H   0  0  0  0  0  0  0  0  0  0  0  0
    0.3115    4.3966    0.5109 H   0  0  0  0  0  0  0  0  0  0  0  0
  1  5  1  0  0  0  0
  2 10  1  0  0  0  0
  3  5  2  0  0  0  0
  5  2  1  0  0  0  0
  6  1  1  0  0  0  0
  7  6  1  0  0  0  0
  8  6  1  0  0  0  0
  9  6  1  0  0  0  0
 10  4  2  0  0  0  0
 11 10  1  0  0  0  0
 11 12  1  0  0  0  0
 13 11  1  0  0  0  0
 14 11  1  0  0  0  0
M  END
