6,7
q = -1.0, confidence = 0.0

 28 29  0  0  1  0  0  0  0  0999 V2000
   -0.4933    0.4619   -2.8313 F   0  0  0  0  0  0  0  0  0  0  0  0
   -3.0044    0.0168   -3.6839 F   0  0  0  0  0  0  0  0  0  0  0  0
   -5.1600    0.8225   -2.1816 F   0  0  0  0  0  0  0  0  0  0  0  0
   -4.7291    2.0643    0.2342 F   0  0  0  0  0  0  0  0  0  0  0  0
   -2.2332    2.5090    1.1240 F   0  0  0  0  0  0  0  0  0  0  0  0
    2.6485    2.2518    0.1151 N   0  0  0  0  0  2  0  0  0  0  0  0
    0.0768    1.6769   -0.3550 N   0  0  0  0  0  2  0  0  0  0  0  0
   -1.2375    1.5075   -0.8136 C   0  0  0  0  0  0  0  0  0  0  0  0
   -1.5084    0.8824   -2.0567 C   0  0  0  0  0  0  0  0  0  0  0  0
   -2.8106    0.6357   -2.5135 C   0  0  0  0  0  0  0  0  0  0  0  0
   -3.9149    1.0621   -1.7587 C   0  0  0  0  0  0  0  0  0  0  0  0
   -3.6913    1.7010   -0.5300 C   0  0  0  0  0  0  0  0  0  0  0  0
   -2.3799    1.9345   -0.0911 C   0  0  0  0  0  0  0  0  0  0  0  0
    0.3601    3.0585   -0.0024 C   0  0  0  0  0  0  0  0  0  0  0  0
   -0.1349    3.3906    0.9445 H   0  0  0  0  0  0  0  0  0  0  0  0
   -0.0361    3.7557   -0.7801 H   0  0  0  0  0  0  0  0  0  0  0  0
    1.8293    3.3234    0.1422 C   0  0  2  0  0  3  0  0  0  0  0  0
    2.3070    4.6377    0.2897 C   0  0  0  0  0  0  0  0  0  0  0  0
    1.5951    5.4756    0.3161 H   0  0  0  0  0  0  0  0  0  0  0  0
    3.6837    4.8438    0.3838 C   0  0  0  0  0  0  0  0  0  0  0  0
    4.0950    5.8589    0.4903 H   0  0  0  0  0  0  0  0  0  0  0  0
    4.5349    3.7326    0.3226 C   0  0  0  0  0  0  0  0  0  0  0  0
    5.6261    3.8550    0.3742 H   0  0  0  0  0  0  0  0  0  0  0  0
    3.9987    2.4401    0.1936 C   0  0  0  0  0  0  0  0  0  0  0  0
    4.9016    1.2455    0.1328 C   0  0  0  0  0  0  0  0  0  0  0  0
    4.5640    0.5654   -0.6734 H   0  0  0  0  0  0  0  0  0  0  0  0
    4.8307    0.6681    1.0752 H   0  0  0  0  0  0  0  0  0  0  0  0
    5.9506    1.5493   -0.0368 H   0  0  0  0  0  0  0  0  0  0  0  0
  1  9  1  0  0  0  0
  2 10  1  0  0  0  0
  3 11  1  0  0  0  0
  6 17  1  0  0  0  0
  6 24  1  0  0  0  0
  7 14  1  0  0  0  0
  8  7  1  0  0  0  0
  8 13  1  0  0  0  0
  9  8  2  0  0  0  0
 10  9  1  0  0  0  0
 10 11  2  0  0  0  0
 11 12  1  0  0  0  0
 12 13  2  0  0  0  0
 12  4  1  0  0  0  0
 13  5  1  0  0  0  0
 14 15  1  0  0  0  0
 16 14  1  0  0  0  0
 17 14  1  6  0  0  0
 17 18  1  0  0  0  0
 18 19  1  0  0  0  0
 18 20  2  0  0  0  0
 20 21  1  0  0  0  0
 22 23  1  0  0  0  0
 22 20  1  0  0  0  0
 24 22  2  0  0  0  0
 25 24  1  0  0  0  0
 25 27  1  0  0  0  0
 26 25  1  0  0  0  0
 28 25  1  0  0  0  0
M  END
