5,7
q = -1.0, confidence = 0.0

 36 37  0  0  0  0  0  0  0  0999 V2000
   -2.8423   -2.0649   -1.3136 F   0  0  0  0  0  0  0  0  0  0  0  0
   -5.0172   -1.6831    0.1961 F   0  0  0  0  0  0  0  0  0  0  0  0
   -4.8353   -0.5505    2.7007 F   0  0  0  0  0  0  0  0  0  0  0  0
   -2.3941    0.0838    3.7076 F   0  0  0  0  0  0  0  0  0  0  0  0
   -0.2232   -1.2393   -0.3631 N   0  0  0  0  0  2  0  0  0  0  0  0
    2.0819   -2.5632    0.0023 N   0  0  0  0  0  0  0  0  0  0  0  0
    0.0221   -0.2786    2.1711 N   0  0  0  0  0  0  0  0  0  0  0  0
   -1.3758   -1.1816    0.3856 C   0  0  0  0  0  0  0  0  0  0  0  0
   -2.6670   -1.5601   -0.0683 C   0  0  0  0  0  0  0  0  0  0  0  0
   -3.8198   -1.3656    0.7039 C   0  0  0  0  0  0  0  0  0  0  0  0
   -3.7345   -0.7541    1.9631 C   0  0  0  0  0  0  0  0  0  0  0  0
   -2.4632   -0.4168    2.4575 C   0  0  0  0  0  0  0  0  0  0  0  0
   -1.3039   -0.5812    1.6849 C   0  0  0  0  0  0  0  0  0  0  0  0
    0.5414   -1.4150    2.9608 C   0  0  0  0  0  0  0  0  0  0  0  0
    0.5086   -2.3327    2.3442 H   0  0  0  0  0  0  0  0  0  0  0  0
   -0.0625   -1.5713    3.8829 H   0  0  0  0  0  0  0  0  0  0  0  0
    1.5930   -1.2093    3.2328 H   0  0  0  0  0  0  0  0  0  0  0  0
    0.1665    0.9899    2.9122 C   0  0  0  0  0  0  0  0  0  0  0  0
    1.2410    1.2602    2.9283 H   0  0  0  0  0  0  0  0  0  0  0  0
   -0.1994    0.9155    3.9578 H   0  0  0  0  0  0  0  0  0  0  0  0
   -0.4076    1.7775    2.3963 H   0  0  0  0  0  0  0  0  0  0  0  0
    0.0135   -2.3482   -1.2646 C   0  0  0  0  0  0  0  0  0  0  0  0
    0.3260   -1.9737   -2.2680 H   0  0  0  0  0  0  0  0  0  0  0  0
   -0.8793   -2.9796   -1.4347 H   0  0  0  0  0  0  0  0  0  0  0  0
    1.1351   -3.2085   -0.7186 C   0  0  0  0  0  0  0  0  0  0  0  0
    1.1766   -4.5921   -0.9522 C   0  0  0  0  0  0  0  0  0  0  0  0
    0.3821   -5.0670   -1.5461 H   0  0  0  0  0  0  0  0  0  0  0  0
    2.2226   -5.3379   -0.4003 C   0  0  0  0  0  0  0  0  0  0  0  0
    2.2739   -6.4283   -0.5421 H   0  0  0  0  0  0  0  0  0  0  0  0
    3.1995   -4.6702    0.3456 C   0  0  0  0  0  0  0  0  0  0  0  0
    4.0385   -5.2195    0.7964 H   0  0  0  0  0  0  0  0  0  0  0  0
    3.1194   -3.2740    0.5203 C   0  0  0  0  0  0  0  0  0  0  0  0
    4.2091   -2.5483    1.2562 C   0  0  0  0  0  0  0  0  0  0  0  0
    3.7944   -1.8965    2.0457 H   0  0  0  0  0  0  0  0  0  0  0  0
    4.7528   -1.8713    0.5650 H   0  0  0  0  0  0  0  0  0  0  0  0
    4.9358   -3.2616    1.6861 H   0  0  0  0  0  0  0  0  0  0  0  0
  1  9  1  0  0  0  0
  2 10  1  0  0  0  0
  5  8  1  0  0  0  0
  6 32  1  0  0  0  0
  7 18  1  0  0  0  0
  7 14  1  0  0  0  0
  8 13  1  0  0  0  0
  9  8  2  0  0  0  0
  9 10  1  0  0  0  0
 10 11  2  0  0  0  0
 11 12  1  0  0  0  0
 11  3  1  0  0  0  0
 12  4  1  0  0  0  0
 13  7  1  0  0  0  0
 13 12  2  0  0  0  0
 14 17  1  0  0  0  0
 14 16  1  0  0  0  0
 15 14  1  0  0  0  0
 18 19  1  0  0  0  0
 18 20  1  0  0  0  0
 21 18  1  0  0  0  0
 22 25  1  0  0  0  0
 22  5  1  0  0  0  0
 23 22  1  0  0  0  0
 24 22  1  0  0  0  0
 25  6  2  0  0  0  0
 26 25  1  0  0  0  0
 26 28  2  0  0  0  0
 27 26  1  0  0  0  0
 28 30  1  0  0  0  0
 29 28  1  0  0  0  0
 30 32  2  0  0  0  0
 30 31  1  0  0  0  0
 32 33  1  0  0  0  0
 33 36  1  0  0  0  0
 33 34  1  0  0  0  0
 35 33  1  0  0  0  0
M  END
