5,6
q = 0.0, confidence = 0.998

 48 52  0  0  0  0  0  0  0  0999 V2000
    1.2774    5.0961    0.2695 C   0  0  0  0  0  0  0  0  0  0  0  0
    1.3342    6.1913    0.3652 H   0  0  0  0  0  0  0  0  0  0  0  0
   -2.4424    4.3352    0.2364 C   0  0  0  0  0  0  0  0  0  0  0  0
   -3.4160    4.8429    0.3085 H   0  0  0  0  0  0  0  0  0  0  0  0
    1.3614   -0.2909    0.0208 N   0  0  0  0  0  2  0  0  0  0  0  0
   -1.3615   -0.2903    0.0211 N   0  0  0  0  0  2  0  0  0  0  0  0
    0.0011    4.4625    0.1948 C   0  0  0  0  0  0  0  0  0  0  0  0
    2.4254    2.9168    0.1145 C   0  0  0  0  0  0  0  0  0  0  0  0
    3.3706    2.3583    0.1019 H   0  0  0  0  0  0  0  0  0  0  0  0
   -1.2749    5.0968    0.2693 C   0  0  0  0  0  0  0  0  0  0  0  0
   -1.3312    6.1920    0.3649 H   0  0  0  0  0  0  0  0  0  0  0  0
    2.4445    4.3340    0.2369 C   0  0  0  0  0  0  0  0  0  0  0  0
    3.4183    4.8411    0.3092 H   0  0  0  0  0  0  0  0  0  0  0  0
    2.7372   -0.5337   -0.0470 C   0  0  0  0  0  0  0  0  0  0  0  0
    0.7573    0.8569   -0.0282 C   0  0  0  0  0  0  0  0  0  0  0  0
   -2.4240    2.9180    0.1140 C   0  0  0  0  0  0  0  0  0  0  0  0
   -3.3694    2.3600    0.1012 H   0  0  0  0  0  0  0  0  0  0  0  0
   -0.7568    0.8573   -0.0282 C   0  0  0  0  0  0  0  0  0  0  0  0
    0.0008    3.0491    0.0624 C   0  0  0  0  0  0  0  0  0  0  0  0
   -3.5804    0.0824   -0.9977 C   0  0  0  0  0  0  0  0  0  0  0  0
   -3.1542    0.7864   -1.7270 H   0  0  0  0  0  0  0  0  0  0  0  0
    1.1956    2.2655    0.0190 C   0  0  0  0  0  0  0  0  0  0  0  0
    3.5804    0.0812   -0.9982 C   0  0  0  0  0  0  0  0  0  0  0  0
    3.1543    0.7852   -1.7274 H   0  0  0  0  0  0  0  0  0  0  0  0
   -1.1945    2.2661    0.0188 C   0  0  0  0  0  0  0  0  0  0  0  0
    4.9362   -0.2594   -1.0503 C   0  0  0  0  0  0  0  0  0  0  0  0
    5.5801    0.2084   -1.8117 H   0  0  0  0  0  0  0  0  0  0  0  0
   -2.7373   -0.5327   -0.0467 C   0  0  0  0  0  0  0  0  0  0  0  0
   -3.2688   -1.5164    0.8207 C   0  0  0  0  0  0  0  0  0  0  0  0
   -2.5876   -2.0197    1.5264 H   0  0  0  0  0  0  0  0  0  0  0  0
   -4.6304   -1.8196    0.7730 C   0  0  0  0  0  0  0  0  0  0  0  0
   -5.0356   -2.5719    1.4679 H   0  0  0  0  0  0  0  0  0  0  0  0
   -5.4929   -1.2007   -0.1595 C   0  0  0  0  0  0  0  0  0  0  0  0
   -4.9363   -0.2580   -1.0499 C   0  0  0  0  0  0  0  0  0  0  0  0
   -5.5801    0.2099   -1.8112 H   0  0  0  0  0  0  0  0  0  0  0  0
    5.4928   -1.2021   -0.1598 C   0  0  0  0  0  0  0  0  0  0  0  0
    3.2686   -1.5172    0.8205 C   0  0  0  0  0  0  0  0  0  0  0  0
    2.5874   -2.0203    1.5264 H   0  0  0  0  0  0  0  0  0  0  0  0
    6.9500   -1.5765   -0.2259 C   0  0  0  0  0  0  0  0  0  0  0  0
    7.5235   -0.8856   -0.8734 H   0  0  0  0  0  0  0  0  0  0  0  0
    7.0778   -2.6019   -0.6342 H   0  0  0  0  0  0  0  0  0  0  0  0
    7.4147   -1.5745    0.7812 H   0  0  0  0  0  0  0  0  0  0  0  0
    4.6303   -1.8206    0.7729 C   0  0  0  0  0  0  0  0  0  0  0  0
    5.0354   -2.5728    1.4680 H   0  0  0  0  0  0  0  0  0  0  0  0
   -6.9504   -1.5744   -0.2248 C   0  0  0  0  0  0  0  0  0  0  0  0
   -7.0785   -2.6039   -0.6221 H   0  0  0  0  0  0  0  0  0  0  0  0
   -7.5218   -0.8897   -0.8806 H   0  0  0  0  0  0  0  0  0  0  0  0
   -7.4171   -1.5610    0.7813 H   0  0  0  0  0  0  0  0  0  0  0  0
  1  2  1  0  0  0  0
  3 10  2  0  0  0  0
  3  4  1  0  0  0  0
  7 10  1  0  0  0  0
  7  1  2  0  0  0  0
  8 12  2  0  0  0  0
  9  8  1  0  0  0  0
 10 11  1  0  0  0  0
 12  1  1  0  0  0  0
 12 13  1  0  0  0  0
 14  5  1  0  0  0  0
 14 37  1  0  0  0  0
 15 22  1  0  0  0  0
 15  5  1  0  0  0  0
 16  3  1  0  0  0  0
 17 16  1  0  0  0  0
 18 15  2  0  0  0  0
 18 25  1  0  0  0  0
 18  6  1  0  0  0  0
 19  7  1  0  0  0  0
 20 28  1  0  0  0  0
 21 20  1  0  0  0  0
 22 19  2  0  0  0  0
 22  8  1  0  0  0  0
 23 14  2  0  0  0  0
 24 23  1  0  0  0  0
 25 19  1  0  0  0  0
 25 16  2  0  0  0  0
 26 23  1  0  0  0  0
 26 36  2  0  0  0  0
 27 26  1  0  0  0  0
 28  6  1  0  0  0  0
 28 29  2  0  0  0  0
 29 30  1  0  0  0  0
 31 29  1  0  0  0  0
 31 32  1  0  0  0  0
 33 31  2  0  0  0  0
 34 20  2  0  0  0  0
 34 33  1  0  0  0  0
 35 34  1  0  0  0  0
 36 43  1  0  0  0  0
 37 38  1  0  0  0  0
 39 36  1  0  0  0  0
 39 42  1  0  0  0  0
 40 39  1  0  0  0  0
 41 39  1  0  0  0  0
 43 37  2  0  0  0  0
 43 44  1  0  0  0  0
 45 33  1  0  0  0  0
 45 48  1  0  0  0  0
 46 45  1  0  0  0  0
 47 45  1  0  0  0  0
M  END
