1,2
q = 0.0, confidence = 0.998

 21 21  0  0  0  0  0  0  0  0999 V2000
   -1.4724   -0.2015    0.1209 N   0  0  0  0  0  2  0  0  0  0  0  0
    0.7177    1.3449    0.1330 N   0  0  0  0  0  2  0  0  0  0  0  0
   -2.5184   -1.0163   -0.0522 C   0  0  0  0  0  3  0  0  0  0  0  0
   -2.2881   -2.0935   -0.0906 H   0  0  0  0  0  0  0  0  0  0  0  0
   -3.8263   -0.5242   -0.1967 C   0  0  0  0  0  0  0  0  0  0  0  0
   -4.6650   -1.2228   -0.3268 H   0  0  0  0  0  0  0  0  0  0  0  0
   -4.0316    0.8629   -0.1703 C   0  0  0  0  0  0  0  0  0  0  0  0
   -5.0438    1.2802   -0.2779 H   0  0  0  0  0  0  0  0  0  0  0  0
   -2.9272    1.7139   -0.0192 C   0  0  0  0  0  0  0  0  0  0  0  0
   -3.0436    2.8078   -0.0167 H   0  0  0  0  0  0  0  0  0  0  0  0
   -1.6511    1.1398    0.1128 C   0  0  0  0  0  0  0  0  0  0  0  0
   -0.4162    1.9405    0.2189 C   0  0  0  0  0  3  0  0  0  0  0  0
   -0.5048    3.0377    0.3708 H   0  0  0  0  0  0  0  0  0  0  0  0
    1.9720    2.0384    0.3045 C   0  0  0  0  0  0  0  0  0  0  0  0
    2.9241    1.8370   -0.8471 C   0  0  0  0  0  0  0  0  0  0  0  0
    2.7114    1.0693   -1.9286 C   0  0  0  0  0  0  0  0  0  0  0  0
    1.7888    0.4839   -2.0770 H   0  0  0  0  0  0  0  0  0  0  0  0
    1.8196    3.1254    0.5077 H   0  0  0  0  0  0  0  0  0  0  0  0
    2.4234    1.5879    1.2225 H   0  0  0  0  0  0  0  0  0  0  0  0
    3.4915    0.9669   -2.6982 H   0  0  0  0  0  0  0  0  0  0  0  0
    3.8833    2.3708   -0.7270 H   0  0  0  0  0  0  0  0  0  0  0  0
  2 12  1  0  0  0  0
  2 14  1  0  0  0  0
  3  1  1  0  0  0  0
  4  3  1  0  0  0  0
  5  7  2  0  0  0  0
  5  3  1  0  0  0  0
  6  5  1  0  0  0  0
  7  9  1  0  0  0  0
  8  7  1  0  0  0  0
  9 10  1  0  0  0  0
  9 11  2  0  0  0  0
 11  1  1  0  0  0  0
 11 12  1  0  0  0  0
 12 13  1  0  0  0  0
 14 18  1  0  0  0  0
 14 19  1  0  0  0  0
 15 21  1  0  0  0  0
 15 14  1  0  0  0  0
 16 15  2  0  0  0  0
 17 16  1  0  0  0  0
 20 16  1  0  0  0  0
M  END
