1,2
q = -1.0

 20 21  0  0  0  0  0  0  0  0999 V2000
    0.0911    2.0943   -0.2901 N   0  0  0  0  0  2  0  0  0  0  0  0
    1.9877    0.3391   -0.0730 N   0  0  0  0  0  2  0  0  0  0  0  0
    2.9956   -0.4724    0.2158 N   0  0  0  0  0  2  0  0  0  0  0  0
   -0.9868    2.9030   -0.4139 C   0  0  0  0  0  0  0  0  0  0  0  0
   -1.9720    2.3986   -0.4179 H   0  0  0  0  0  0  0  0  0  0  0  0
   -0.8524    4.2917   -0.4916 C   0  0  0  0  0  0  0  0  0  0  0  0
   -1.7557    4.9093   -0.5879 H   0  0  0  0  0  0  0  0  0  0  0  0
    0.4298    4.8625   -0.4385 C   0  0  0  0  0  0  0  0  0  0  0  0
    0.5614    5.9530   -0.4990 H   0  0  0  0  0  0  0  0  0  0  0  0
    1.5405    4.0271   -0.3022 C   0  0  0  0  0  0  0  0  0  0  0  0
    2.5611    4.4303   -0.2519 H   0  0  0  0  0  0  0  0  0  0  0  0
    1.3559    2.6343   -0.2261 C   0  0  0  0  0  0  0  0  0  0  0  0
    2.3980    1.6544   -0.0525 C   0  0  0  0  0  0  0  0  0  0  0  0
    3.7725    1.6769    0.2413 C   0  0  0  0  0  0  0  0  0  0  0  0
    4.4407    2.5374    0.3385 H   0  0  0  0  0  0  0  0  0  0  0  0
    4.0844    0.3135    0.3972 C   0  0  0  0  0  0  0  0  0  0  0  0
    5.4058   -0.3034    0.7421 C   0  0  0  0  0  0  0  0  0  0  0  0
    5.4276   -0.8019    2.0020 F   0  0  0  0  0  0  0  0  0  0  0  0
    6.3963    0.6187    0.6552 F   0  0  0  0  0  0  0  0  0  0  0  0
    5.7160   -1.3261   -0.0910 F   0  0  0  0  0  0  0  0  0  0  0  0
  1 12  1  0  0  0  0
  2 13  1  0  0  0  0
  2  3  1  0  0  0  0
  3 16  1  0  0  0  0
  4  1  1  0  0  0  0
  5  4  1  0  0  0  0
  6  8  1  0  0  0  0
  6  4  2  0  0  0  0
  7  6  1  0  0  0  0
  8 10  2  0  0  0  0
  9  8  1  0  0  0  0
 10 11  1  0  0  0  0
 10 12  1  0  0  0  0
 12 13  2  0  0  0  0
 13 14  1  0  0  0  0
 14 15  1  0  0  0  0
 14 16  2  0  0  0  0
 16 17  1  0  0  0  0
 17 18  1  0  0  0  0
 19 17  1  0  0  0  0
 20 17  1  0  0  0  0
M  END
