23,31
q = 0.0, confidence = 0.998

 33 34  0  0  1  0  0  0  0  0999 V2000
   -5.5566    1.8605    0.4753 N   0  0  0  0  0  0  0  0  0  0  0  0
   -4.2145    1.6522    0.4478 C   0  0  0  0  0  0  0  0  0  0  0  0
   -3.4163    2.7283    0.6749 N   0  0  0  0  0  0  0  0  0  0  0  0
   -3.8779    3.6364    0.6585 H   0  0  0  0  0  0  0  0  0  0  0  0
   -2.4208    2.6839    0.3879 H   0  0  0  0  0  0  0  0  0  0  0  0
   -3.5836    0.4568    0.2416 N   0  0  0  0  0  2  0  0  0  0  0  0
   -4.4467   -0.5539    0.0394 C   0  0  0  0  0  0  0  0  0  0  0  0
   -5.8517   -0.4736    0.0322 C   0  0  0  0  0  0  0  0  0  0  0  0
   -6.3882    0.8254    0.2778 C   0  0  2  0  0  3  0  0  0  0  0  0
   -7.7256    1.0344    0.3085 N   0  0  0  0  0  0  0  0  0  0  0  0
   -8.0796    1.9762    0.4624 H   0  0  0  0  0  0  0  0  0  0  0  0
   -8.3583    0.2561    0.1378 H   0  0  0  0  0  0  0  0  0  0  0  0
   -6.4263   -1.7035   -0.2341 N   0  0  0  0  0  0  0  0  0  0  0  0
   -5.3971   -2.5121   -0.3879 C   0  0  0  0  0  0  0  0  0  0  0  0
   -5.4492   -3.5879   -0.6057 H   0  0  0  0  0  0  0  0  0  0  0  0
   -4.1595   -1.8811   -0.2348 N   0  0  0  0  0  0  0  0  0  0  0  0
   -2.8441   -2.5031   -0.3349 C   0  0  0  0  0  0  0  0  0  0  0  0
   -2.2350   -2.2521    0.5568 H   0  0  0  0  0  0  0  0  0  0  0  0
   -3.0003   -3.5987   -0.2972 H   0  0  0  0  0  0  0  0  0  0  0  0
   -2.0750   -2.1705   -1.6136 C   0  0  0  0  0  0  0  0  0  0  0  0
   -2.7076   -2.4341   -2.4972 H   0  0  0  0  0  0  0  0  0  0  0  0
   -1.1806   -2.8272   -1.6359 H   0  0  0  0  0  0  0  0  0  0  0  0
   -1.6271   -0.7762   -1.6903 N   0  0  0  0  0  0  0  0  0  0  0  0
   -2.3918   -0.1301   -1.4354 H   0  0  0  0  0  0  0  0  0  0  0  0
   -0.9969   -0.4214   -2.9672 C   0  0  0  0  0  0  0  0  0  0  0  0
   -1.4858   -0.9430   -3.8230 H   0  0  0  0  0  0  0  0  0  0  0  0
   -1.1298    0.6686   -3.1291 H   0  0  0  0  0  0  0  0  0  0  0  0
    0.5112   -0.7268   -2.9757 C   0  0  0  0  0  0  0  0  0  0  0  0
    0.9065   -0.5273   -3.9971 H   0  0  0  0  0  0  0  0  0  0  0  0
    0.6927   -1.8004   -2.7609 H   0  0  0  0  0  0  0  0  0  0  0  0
    1.1800    0.0700   -1.9498 N   0  0  0  0  0  0  0  0  0  0  0  0
    1.1606    1.0834   -2.1723 H   0  0  0  0  0  0  0  0  0  0  0  0
    2.1339   -0.2319   -1.6791 H   0  0  0  0  0  0  0  0  0  0  0  0
  2  1  2  0  0  0  0
  2  3  1  0  0  0  0
  4  3  1  0  0  0  0
  5  3  1  0  0  0  0
  6  2  1  0  0  0  0
  7  6  1  0  0  0  0
  8  7  2  0  0  0  0
  8  9  1  0  0  0  0
  9 10  1  6  0  0  0
  9  1  1  0  0  0  0
 10 11  1  0  0  0  0
 12 10  1  0  0  0  0
 13  8  1  0  0  0  0
 14 16  1  0  0  0  0
 14 13  2  0  0  0  0
 15 14  1  0  0  0  0
 16  7  1  0  0  0  0
 17 19  1  0  0  0  0
 17 16  1  0  0  0  0
 17 18  1  0  0  0  0
 20 17  1  0  0  0  0
 21 20  1  0  0  0  0
 22 20  1  0  0  0  0
 23 20  1  0  0  0  0
 23 24  1  0  0  0  0
 25 23  1  0  0  0  0
 26 25  1  0  0  0  0
 27 25  1  0  0  0  0
 28 25  1  0  0  0  0
 28 30  1  0  0  0  0
 28 31  1  0  0  0  0
 29 28  1  0  0  0  0
 31 33  1  0  0  0  0
 32 31  1  0  0  0  0
M  END
