1,13
q = 0.0, confidence = 0.982

 31 32  0  0  0  0  0  0  0  0999 V2000
   -0.6743   -2.3153    1.5993 N   0  0  0  0  0  2  0  0  0  0  0  0
   -1.7805   -3.0535    1.7487 C   0  0  0  0  0  3  0  0  0  0  0  0
   -2.5254   -2.9915    0.9387 H   0  0  0  0  0  0  0  0  0  0  0  0
   -1.9941   -3.8649    2.8764 C   0  0  0  0  0  0  0  0  0  0  0  0
   -2.9172   -4.4554    2.9611 H   0  0  0  0  0  0  0  0  0  0  0  0
   -1.0130   -3.8969    3.8775 C   0  0  0  0  0  0  0  0  0  0  0  0
   -1.1483   -4.5197    4.7741 H   0  0  0  0  0  0  0  0  0  0  0  0
    0.1430   -3.1189    3.7235 C   0  0  0  0  0  0  0  0  0  0  0  0
    0.9313   -3.1125    4.4907 H   0  0  0  0  0  0  0  0  0  0  0  0
    0.2814   -2.3309    2.5651 C   0  0  0  0  0  0  0  0  0  0  0  0
    1.4496   -1.4741    2.3435 C   0  0  0  0  0  3  0  0  0  0  0  0
    2.2312   -1.4620    3.1272 H   0  0  0  0  0  0  0  0  0  0  0  0
    1.5171   -0.7540    1.2636 N   0  0  0  0  0  2  0  0  0  0  0  0
    2.5456    0.1255    0.9340 C   0  0  0  0  0  0  0  0  0  0  0  0
    3.7241    0.3334    1.6912 C   0  0  0  0  0  0  0  0  0  0  0  0
    3.8891   -0.2402    2.6143 H   0  0  0  0  0  0  0  0  0  0  0  0
    4.6822    1.2591    1.2850 C   0  0  0  0  0  0  0  0  0  0  0  0
    5.5952    1.4206    1.8727 H   0  0  0  0  0  0  0  0  0  0  0  0
    4.4788    2.0055    0.1018 C   0  0  0  0  0  0  0  0  0  0  0  0
    3.3224    1.8125   -0.6686 C   0  0  0  0  0  0  0  0  0  0  0  0
    3.2010    2.4102   -1.5860 H   0  0  0  0  0  0  0  0  0  0  0  0
    2.3623    0.8785   -0.2658 C   0  0  0  0  0  0  0  0  0  0  0  0
    1.2286    0.6355   -0.9753 O   0  0  0  0  0  0  0  0  0  0  0  0
    1.1194    1.2796   -1.7010 H   0  0  0  0  0  0  0  0  0  0  0  0
    5.4620    3.0248   -0.3992 C   0  0  0  0  0  0  0  0  0  0  0  0
    5.3015    3.6672   -1.4218 O   0  0  0  0  0  0  0  0  0  0  0  0
    6.5282    3.1356    0.4157 O   0  0  0  0  0  0  0  0  0  0  0  0
    7.5201    4.0957    0.0115 C   0  0  0  0  0  0  0  0  0  0  0  0
    7.9286    3.8346   -0.9848 H   0  0  0  0  0  0  0  0  0  0  0  0
    8.3110    4.0580    0.7799 H   0  0  0  0  0  0  0  0  0  0  0  0
    7.0770    5.1096   -0.0450 H   0  0  0  0  0  0  0  0  0  0  0  0
  1  2  1  0  0  0  0
  1 10  1  0  0  0  0
  2  4  1  0  0  0  0
  3  2  1  0  0  0  0
  4  5  1  0  0  0  0
  4  6  2  0  0  0  0
  6  7  1  0  0  0  0
  8  6  1  0  0  0  0
  8  9  1  0  0  0  0
 10  8  2  0  0  0  0
 11 10  1  0  0  0  0
 11 12  1  0  0  0  0
 13 11  1  0  0  0  0
 14 13  1  0  0  0  0
 14 15  1  0  0  0  0
 15 16  1  0  0  0  0
 17 15  2  0  0  0  0
 17 18  1  0  0  0  0
 19 17  1  0  0  0  0
 20 22  1  0  0  0  0
 20 19  2  0  0  0  0
 21 20  1  0  0  0  0
 22 14  2  0  0  0  0
 23 22  1  0  0  0  0
 24 23  1  0  0  0  0
 25 19  1  0  0  0  0
 25 27  1  0  0  0  0
 26 25  2  0  0  0  0
 28 27  1  0  0  0  0
 28 30  1  0  0  0  0
 29 28  1  0  0  0  0
 31 28  1  0  0  0  0
M  END
