2,5
q = 0.0, confidence = 0.998

 46 46  0  0  0  0  0  0  0  0999 V2000
    4.3853    1.1596   -0.0336 S   0  0  0  0  0  0  0  0  0  0  0  0
   -2.1293    0.5966    0.1900 N   0  0  0  0  0  2  0  0  0  0  0  0
   -4.5687    0.4536    0.1566 N   0  0  0  0  0  0  0  0  0  0  0  0
   -3.3379   -1.4234    0.4333 N   0  0  0  0  0  0  0  0  0  0  0  0
    0.3446    1.9070   -0.1384 N   0  0  0  0  0  0  0  0  0  0  0  0
    0.3075    2.4195   -1.0310 H   0  0  0  0  0  0  0  0  0  0  0  0
   -3.2651   -0.0574    0.2271 C   0  0  0  0  0  3  0  0  0  0  0  0
   -4.9351    1.5301   -0.7494 C   0  0  0  0  0  0  0  0  0  0  0  0
   -4.3009    2.4205   -0.6089 H   0  0  0  0  0  0  0  0  0  0  0  0
   -5.9806    1.8292   -0.5380 H   0  0  0  0  0  0  0  0  0  0  0  0
   -4.8737    1.2180   -1.8195 H   0  0  0  0  0  0  0  0  0  0  0  0
   -5.5098   -0.6699    0.1738 C   0  0  0  0  0  0  0  0  0  0  0  0
   -5.7998   -0.9454   -0.8694 H   0  0  0  0  0  0  0  0  0  0  0  0
   -6.4332   -0.4182    0.7337 H   0  0  0  0  0  0  0  0  0  0  0  0
   -4.6926   -1.7849    0.8208 C   0  0  0  0  0  0  0  0  0  0  0  0
   -4.8068   -1.7791    1.9332 H   0  0  0  0  0  0  0  0  0  0  0  0
   -4.9690   -2.7940    0.4542 H   0  0  0  0  0  0  0  0  0  0  0  0
   -2.2195   -2.2020    0.9238 C   0  0  0  0  0  0  0  0  0  0  0  0
   -1.3368   -2.0697    0.2575 H   0  0  0  0  0  0  0  0  0  0  0  0
   -2.5061   -3.2711    0.9138 H   0  0  0  0  0  0  0  0  0  0  0  0
   -1.9257   -1.9144    1.9602 H   0  0  0  0  0  0  0  0  0  0  0  0
   -2.0619    2.0433    0.2984 C   0  0  0  0  0  0  0  0  0  0  0  0
   -2.8166    2.4444    1.0130 H   0  0  0  0  0  0  0  0  0  0  0  0
   -2.2431    2.5512   -0.6817 H   0  0  0  0  0  0  0  0  0  0  0  0
   -0.6615    2.4381    0.7798 C   0  0  0  0  0  0  0  0  0  0  0  0
   -0.6004    3.5458    0.9093 H   0  0  0  0  0  0  0  0  0  0  0  0
   -0.4832    1.9781    1.7742 H   0  0  0  0  0  0  0  0  0  0  0  0
    1.7246    1.9083    0.3688 C   0  0  0  0  0  0  0  0  0  0  0  0
    1.7481    1.2747    1.2785 H   0  0  0  0  0  0  0  0  0  0  0  0
    2.0592    2.9279    0.6821 H   0  0  0  0  0  0  0  0  0  0  0  0
    2.6843    1.3351   -0.6722 C   0  0  0  0  0  0  0  0  0  0  0  0
    2.7435    2.0035   -1.5579 H   0  0  0  0  0  0  0  0  0  0  0  0
    2.3031    0.3536   -1.0308 H   0  0  0  0  0  0  0  0  0  0  0  0
    4.4922   -0.6573    0.4161 C   0  0  0  0  0  0  0  0  0  0  0  0
    5.8519   -0.7579    1.1239 C   0  0  0  0  0  0  0  0  0  0  0  0
    6.0464   -1.8134    1.4065 H   0  0  0  0  0  0  0  0  0  0  0  0
    5.8743   -0.1413    2.0451 H   0  0  0  0  0  0  0  0  0  0  0  0
    6.6768   -0.4245    0.4614 H   0  0  0  0  0  0  0  0  0  0  0  0
    4.4763   -1.5129   -0.8565 C   0  0  0  0  0  0  0  0  0  0  0  0
    4.6430   -2.5796   -0.5911 H   0  0  0  0  0  0  0  0  0  0  0  0
    5.2736   -1.1968   -1.5575 H   0  0  0  0  0  0  0  0  0  0  0  0
    3.4933   -1.4608   -1.3666 H   0  0  0  0  0  0  0  0  0  0  0  0
    3.3581   -1.0724    1.3612 C   0  0  0  0  0  0  0  0  0  0  0  0
    3.5248   -2.1193    1.6956 H   0  0  0  0  0  0  0  0  0  0  0  0
    2.3737   -1.0597    0.8498 H   0  0  0  0  0  0  0  0  0  0  0  0
    3.3270   -0.4248    2.2606 H   0  0  0  0  0  0  0  0  0  0  0  0
  1 34  1  0  0  0  0
  2  7  1  0  0  0  0
  2 22  1  0  0  0  0
  3 12  1  0  0  0  0
  3  7  1  0  0  0  0
  4 15  1  0  0  0  0
  4 18  1  0  0  0  0
  5 28  1  0  0  0  0
  5 25  1  0  0  0  0
  6  5  1  0  0  0  0
  7  4  1  0  0  0  0
  8  9  1  0  0  0  0
  8 10  1  0  0  0  0
  8  3  1  0  0  0  0
 11  8  1  0  0  0  0
 12 14  1  0  0  0  0
 12 15  1  0  0  0  0
 13 12  1  0  0  0  0
 15 16  1  0  0  0  0
 17 15  1  0  0  0  0
 18 21  1  0  0  0  0
 19 18  1  0  0  0  0
 20 18  1  0  0  0  0
 22 25  1  0  0  0  0
 22 23  1  0  0  0  0
 24 22  1  0  0  0  0
 25 26  1  0  0  0  0
 25 27  1  0  0  0  0
 28 30  1  0  0  0  0
 28 29  1  0  0  0  0
 31  1  1  0  0  0  0
 31 28  1  0  0  0  0
 32 31  1  0  0  0  0
 33 31  1  0  0  0  0
 34 35  1  0  0  0  0
 34 43  1  0  0  0  0
 35 36  1  0  0  0  0
 35 37  1  0  0  0  0
 38 35  1  0  0  0  0
 39 40  1  0  0  0  0
 39 34  1  0  0  0  0
 41 39  1  0  0  0  0
 42 39  1  0  0  0  0
 43 44  1  0  0  0  0
 43 46  1  0  0  0  0
 45 43  1  0  0  0  0
M  END
