1,2
q = 0.0, confidence = 0.998

 35 36  0  0  1  0  0  0  0  0999 V2000
   -1.9259    0.9171    0.0591 N   0  0  0  0  0  2  0  0  0  0  0  0
    0.5685   -0.1261   -0.3885 N   0  0  0  0  0  0  0  0  0  0  0  0
    0.5572    0.0576   -1.4029 H   0  0  0  0  0  0  0  0  0  0  0  0
   -4.2651    0.3128   -0.1546 C   0  0  0  0  0  0  0  0  0  0  0  0
   -3.9876   -0.4726   -0.8909 H   0  0  0  0  0  0  0  0  0  0  0  0
   -5.2516    0.7424   -0.4063 H   0  0  0  0  0  0  0  0  0  0  0  0
   -4.3396   -0.1976    0.8293 H   0  0  0  0  0  0  0  0  0  0  0  0
   -3.1938    1.3584   -0.0992 C   0  0  1  0  0  3  0  0  0  0  0  0
   -3.4480    2.7407   -0.1923 C   0  0  0  0  0  0  0  0  0  0  0  0
   -4.4802    3.0946   -0.3262 H   0  0  0  0  0  0  0  0  0  0  0  0
   -2.3805    3.6435   -0.1166 C   0  0  0  0  0  0  0  0  0  0  0  0
   -2.5643    4.7260   -0.1927 H   0  0  0  0  0  0  0  0  0  0  0  0
   -1.0748    3.1591    0.0496 C   0  0  0  0  0  0  0  0  0  0  0  0
   -0.2129    3.8393    0.1075 H   0  0  0  0  0  0  0  0  0  0  0  0
   -0.8849    1.7734    0.1375 C   0  0  0  0  0  0  0  0  0  0  0  0
    0.4674    1.1328    0.3640 C   0  0  0  0  0  0  0  0  0  0  0  0
    1.2878    1.8484    0.1416 H   0  0  0  0  0  0  0  0  0  0  0  0
    0.5339    0.8530    1.4406 H   0  0  0  0  0  0  0  0  0  0  0  0
    1.7337   -0.9807   -0.0364 C   0  0  2  0  0  0  0  0  0  0  0  0
    1.5412   -1.2988    1.0115 H   0  0  0  0  0  0  0  0  0  0  0  0
    3.0542   -0.2260   -0.0862 C   0  0  0  0  0  0  0  0  0  0  0  0
    3.4944    0.3916   -1.2751 C   0  0  0  0  0  0  0  0  0  0  0  0
    2.8825    0.3217   -2.1899 H   0  0  0  0  0  0  0  0  0  0  0  0
    4.7069    1.0945   -1.3127 C   0  0  0  0  0  0  0  0  0  0  0  0
    5.0360    1.5705   -2.2492 H   0  0  0  0  0  0  0  0  0  0  0  0
    5.5035    1.1859   -0.1590 C   0  0  0  0  0  0  0  0  0  0  0  0
    6.4569    1.7350   -0.1880 H   0  0  0  0  0  0  0  0  0  0  0  0
    5.0769    0.5742    1.0293 C   0  0  0  0  0  0  0  0  0  0  0  0
    5.6944    0.6421    1.9379 H   0  0  0  0  0  0  0  0  0  0  0  0
    3.8584   -0.1227    1.0639 C   0  0  0  0  0  0  0  0  0  0  0  0
    3.5193   -0.5969    1.9988 H   0  0  0  0  0  0  0  0  0  0  0  0
    1.7245   -2.2208   -0.9321 C   0  0  0  0  0  0  0  0  0  0  0  0
    0.7492   -2.7448   -0.8727 H   0  0  0  0  0  0  0  0  0  0  0  0
    2.5277   -2.9167   -0.6246 H   0  0  0  0  0  0  0  0  0  0  0  0
    1.8988   -1.9526   -1.9953 H   0  0  0  0  0  0  0  0  0  0  0  0
  1 15  1  0  0  0  0
  2 19  1  0  0  0  0
  2 16  1  0  0  0  0
  3  2  1  0  0  0  0
  4  7  1  0  0  0  0
  5  4  1  0  0  0  0
  6  4  1  0  0  0  0
  8  4  1  1  0  0  0
  8  1  1  0  0  0  0
  9 11  2  0  0  0  0
  9  8  1  0  0  0  0
 10  9  1  0  0  0  0
 11 13  1  0  0  0  0
 12 11  1  0  0  0  0
 13 14  1  0  0  0  0
 13 15  2  0  0  0  0
 15 16  1  0  0  0  0
 16 18  1  0  0  0  0
 17 16  1  0  0  0  0
 19 20  1  1  0  0  0
 21 19  1  0  0  0  0
 21 30  1  0  0  0  0
 22 21  2  0  0  0  0
 23 22  1  0  0  0  0
 24 22  1  0  0  0  0
 24 26  2  0  0  0  0
 25 24  1  0  0  0  0
 26 28  1  0  0  0  0
 27 26  1  0  0  0  0
 28 30  2  0  0  0  0
 28 29  1  0  0  0  0
 30 31  1  0  0  0  0
 32 33  1  0  0  0  0
 32 34  1  0  0  0  0
 32 19  1  0  0  0  0
 35 32  1  0  0  0  0
M  END
