3,6
q = -1.0

 27 28  0  0  1  0  0  0  0  0999 V2000
    7.2465   -3.4554    0.7752 Cl  0  0  0  0  0  0  0  0  0  0  0  0
    7.2471    3.4549   -0.7737 Cl  0  0  0  0  0  0  0  0  0  0  0  0
    1.3097   -1.3073   -0.0026 N   0  0  0  0  0  2  0  0  0  0  0  0
    1.0210   -2.2926    0.0365 H   0  0  0  0  0  0  0  0  0  0  0  0
    3.2942    0.0001   -0.0000 N   0  0  0  0  0  0  0  0  0  0  0  0
    1.3096    1.3074    0.0017 N   0  0  0  0  0  2  0  0  0  0  0  0
    1.0208    2.2926   -0.0381 H   0  0  0  0  0  0  0  0  0  0  0  0
    5.1505   -4.6659   -0.2647 N   0  0  0  0  0  0  0  0  0  0  0  0
    5.1503    4.6663    0.2636 N   0  0  0  0  0  0  0  0  0  0  0  0
    2.6309   -1.1654   -0.0478 C   0  0  1  0  0  3  0  0  0  0  0  0
    3.4868   -2.3911   -0.1372 C   0  0  0  0  0  0  0  0  0  0  0  0
    4.8204   -2.3343    0.3009 C   0  0  0  0  0  0  0  0  0  0  0  0
    5.2283   -1.3957    0.6967 H   0  0  0  0  0  0  0  0  0  0  0  0
    5.5897   -3.5084    0.2147 C   0  0  0  0  0  0  0  0  0  0  0  0
    3.8810   -4.7108   -0.7002 C   0  0  0  0  0  0  0  0  0  0  0  0
    3.5402   -5.6766   -1.1124 H   0  0  0  0  0  0  0  0  0  0  0  0
    3.0119   -3.6132   -0.6605 C   0  0  0  0  0  0  0  0  0  0  0  0
    1.9948   -3.7093   -1.0696 H   0  0  0  0  0  0  0  0  0  0  0  0
    2.6309    1.1656    0.0473 C   0  0  0  0  0  0  0  0  0  0  0  0
    3.4866    2.3914    0.1365 C   0  0  0  0  0  0  0  0  0  0  0  0
    4.8206    2.3343   -0.3006 C   0  0  0  0  0  0  0  0  0  0  0  0
    5.2287    1.3953   -0.6954 H   0  0  0  0  0  0  0  0  0  0  0  0
    5.5899    3.5084   -0.2146 C   0  0  0  0  0  0  0  0  0  0  0  0
    3.8805    4.7115    0.6980 C   0  0  0  0  0  0  0  0  0  0  0  0
    3.5394    5.6776    1.1092 H   0  0  0  0  0  0  0  0  0  0  0  0
    3.0114    3.6139    0.6585 C   0  0  0  0  0  0  0  0  0  0  0  0
    1.9939    3.7104    1.0667 H   0  0  0  0  0  0  0  0  0  0  0  0
  2 23  1  0  0  0  0
  3  4  1  0  0  0  0
  5 19  2  0  0  0  0
  6 19  1  0  0  0  0
  7  6  1  0  0  0  0
  8 14  1  0  0  0  0
  9 24  1  0  0  0  0
 10  3  1  1  0  0  0
 10  5  1  0  0  0  0
 11 10  1  0  0  0  0
 11 12  1  0  0  0  0
 12 13  1  0  0  0  0
 14 12  2  0  0  0  0
 14  1  1  0  0  0  0
 15 17  1  0  0  0  0
 15  8  2  0  0  0  0
 16 15  1  0  0  0  0
 17 11  2  0  0  0  0
 18 17  1  0  0  0  0
 19 20  1  0  0  0  0
 20 26  1  0  0  0  0
 21 23  1  0  0  0  0
 21 20  2  0  0  0  0
 22 21  1  0  0  0  0
 23  9  2  0  0  0  0
 24 25  1  0  0  0  0
 26 24  2  0  0  0  0
 26 27  1  0  0  0  0
M  END
