1,4
q = -1.0, confidence = 0.0

 27 28  0  0  1  0  0  0  0  0999 V2000
    1.3164    1.3004   -0.1117 N   0  0  0  0  0  2  0  0  0  0  0  0
    1.0296    2.2761   -0.2556 H   0  0  0  0  0  0  0  0  0  0  0  0
    3.2983   -0.0049    0.0525 N   0  0  0  0  0  0  0  0  0  0  0  0
    1.3089   -1.3063   -0.0030 N   0  0  0  0  0  2  0  0  0  0  0  0
    1.0135   -2.2874   -0.0727 H   0  0  0  0  0  0  0  0  0  0  0  0
    5.6627    3.3613   -0.5582 N   0  0  0  0  0  0  0  0  0  0  0  0
    3.7004   -4.7712    0.6266 N   0  0  0  0  0  0  0  0  0  0  0  0
    2.6382    1.1618   -0.0374 C   0  0  1  0  0  3  0  0  0  0  0  0
    3.4914    2.3883   -0.0579 C   0  0  0  0  0  0  0  0  0  0  0  0
    4.8340    2.3118   -0.4960 C   0  0  0  0  0  0  0  0  0  0  0  0
    5.2277    1.3314   -0.8112 H   0  0  0  0  0  0  0  0  0  0  0  0
    5.1902    4.5559   -0.1657 C   0  0  0  0  0  0  0  0  0  0  0  0
    5.8941    5.4057   -0.2204 H   0  0  0  0  0  0  0  0  0  0  0  0
    3.8812    4.7522    0.3042 C   0  0  0  0  0  0  0  0  0  0  0  0
    3.5481    5.7477    0.6332 H   0  0  0  0  0  0  0  0  0  0  0  0
    3.0218    3.6490    0.3605 C   0  0  0  0  0  0  0  0  0  0  0  0
    2.0011    3.7658    0.7593 H   0  0  0  0  0  0  0  0  0  0  0  0
    2.6315   -1.1719    0.0545 C   0  0  0  0  0  0  0  0  0  0  0  0
    3.4808   -2.3998    0.1273 C   0  0  0  0  0  0  0  0  0  0  0  0
    2.9787   -3.6457    0.5651 C   0  0  0  0  0  0  0  0  0  0  0  0
    1.9331   -3.7301    0.9183 H   0  0  0  0  0  0  0  0  0  0  0  0
    4.9905   -4.7018    0.2604 C   0  0  0  0  0  0  0  0  0  0  0  0
    5.5650   -5.6443    0.3069 H   0  0  0  0  0  0  0  0  0  0  0  0
    5.6115   -3.5111   -0.1548 C   0  0  0  0  0  0  0  0  0  0  0  0
    6.6780   -3.5045   -0.4253 H   0  0  0  0  0  0  0  0  0  0  0  0
    4.8460   -2.3428   -0.2175 C   0  0  0  0  0  0  0  0  0  0  0  0
    5.2701   -1.3771   -0.5265 H   0  0  0  0  0  0  0  0  0  0  0  0
  2  1  1  0  0  0  0
  3 18  2  0  0  0  0
  4 18  1  0  0  0  0
  5  4  1  0  0  0  0
  6 10  2  0  0  0  0
  6 12  1  0  0  0  0
  8  1  1  6  0  0  0
  8  3  1  0  0  0  0
  9  8  1  0  0  0  0
  9 16  2  0  0  0  0
 10  9  1  0  0  0  0
 11 10  1  0  0  0  0
 12 14  2  0  0  0  0
 13 12  1  0  0  0  0
 14 16  1  0  0  0  0
 14 15  1  0  0  0  0
 16 17  1  0  0  0  0
 18 19  1  0  0  0  0
 19 20  2  0  0  0  0
 20  7  1  0  0  0  0
 20 21  1  0  0  0  0
 22 23  1  0  0  0  0
 22  7  2  0  0  0  0
 24 22  1  0  0  0  0
 25 24  1  0  0  0  0
 26 24  2  0  0  0  0
 26 19  1  0  0  0  0
 27 26  1  0  0  0  0
M  END
