1,2
q = -1.0, confidence = 0.012

 65 67  0  0  1  0  0  0  0  0999 V2000
    0.8308    0.3368    0.1406 N   0  0  0  0  0  2  0  0  0  0  0  0
   -1.1638    2.0267   -1.1697 N   0  0  0  0  0  2  0  0  0  0  0  0
   -3.1905    0.3327   -0.6105 N   0  0  0  0  0  0  0  0  0  0  0  0
    1.2140    1.4994    0.7206 C   0  0  1  0  0  3  0  0  0  0  0  0
    0.5050    2.7514    0.4977 C   0  0  0  0  0  0  0  0  0  0  0  0
    0.9280    3.9287    1.1844 C   0  0  0  0  0  0  0  0  0  0  0  0
    0.3577    4.8550    1.0048 H   0  0  0  0  0  0  0  0  0  0  0  0
    2.0193    3.9448    2.0386 C   0  0  0  0  0  0  0  0  0  0  0  0
    2.3255    4.8691    2.5482 H   0  0  0  0  0  0  0  0  0  0  0  0
    2.7312    2.7348    2.2370 C   0  0  0  0  0  0  0  0  0  0  0  0
    3.6026    2.7188    2.9109 H   0  0  0  0  0  0  0  0  0  0  0  0
    2.3475    1.5611    1.6064 C   0  0  0  0  0  0  0  0  0  0  0  0
    2.9087    0.6339    1.7861 H   0  0  0  0  0  0  0  0  0  0  0  0
   -0.6263    2.9108   -0.3679 C   0  0  0  0  0  0  0  0  0  0  0  0
   -1.1000    3.9192   -0.3280 H   0  0  0  0  0  0  0  0  0  0  0  0
   -2.4092    2.3562   -1.8425 C   0  0  0  0  0  0  0  0  0  0  0  0
   -2.2190    2.6353   -2.9029 H   0  0  0  0  0  0  0  0  0  0  0  0
   -2.8947    3.2376   -1.3642 H   0  0  0  0  0  0  0  0  0  0  0  0
   -3.3410    1.1253   -1.8321 C   0  0  0  0  0  0  0  0  0  0  0  0
   -4.3983    1.4556   -1.9940 H   0  0  0  0  0  0  0  0  0  0  0  0
   -3.0776    0.4580   -2.6782 H   0  0  0  0  0  0  0  0  0  0  0  0
   -3.5988    1.0635    0.5973 C   0  0  0  0  0  0  0  0  0  0  0  0
   -4.6945    1.3026    0.5469 H   0  0  0  0  0  0  0  0  0  0  0  0
   -3.0599    2.0300    0.6326 H   0  0  0  0  0  0  0  0  0  0  0  0
   -3.2992    0.2588    1.8609 C   0  0  0  0  0  0  0  0  0  0  0  0
   -2.1980    0.1422    1.9470 H   0  0  0  0  0  0  0  0  0  0  0  0
   -3.6313    0.8338    2.7495 H   0  0  0  0  0  0  0  0  0  0  0  0
   -3.9711   -1.1170    1.8097 C   0  0  0  0  0  0  0  0  0  0  0  0
   -5.0756   -0.9873    1.8641 H   0  0  0  0  0  0  0  0  0  0  0  0
   -3.6826   -1.7288    2.6896 H   0  0  0  0  0  0  0  0  0  0  0  0
   -3.6083   -1.8365    0.5064 C   0  0  0  0  0  0  0  0  0  0  0  0
   -2.5298   -2.0985    0.5098 H   0  0  0  0  0  0  0  0  0  0  0  0
   -4.1674   -2.7892    0.4058 H   0  0  0  0  0  0  0  0  0  0  0  0
   -3.8856   -0.9581   -0.7121 C   0  0  0  0  0  0  0  0  0  0  0  0
   -3.5370   -1.4611   -1.6360 H   0  0  0  0  0  0  0  0  0  0  0  0
   -4.9906   -0.7934   -0.8187 H   0  0  0  0  0  0  0  0  0  0  0  0
    1.6801   -0.8010    0.2440 C   0  0  0  0  0  0  0  0  0  0  0  0
    1.3298   -1.8720    1.1157 C   0  0  0  0  0  0  0  0  0  0  0  0
    2.1633   -3.0031    1.1702 C   0  0  0  0  0  0  0  0  0  0  0  0
    1.9034   -3.8355    1.8401 H   0  0  0  0  0  0  0  0  0  0  0  0
    3.3171   -3.0923    0.3802 C   0  0  0  0  0  0  0  0  0  0  0  0
    3.9599   -3.9838    0.4391 H   0  0  0  0  0  0  0  0  0  0  0  0
    3.6353   -2.0501   -0.4975 C   0  0  0  0  0  0  0  0  0  0  0  0
    4.5285   -2.1326   -1.1369 H   0  0  0  0  0  0  0  0  0  0  0  0
    2.8303   -0.8995   -0.5901 C   0  0  0  0  0  0  0  0  0  0  0  0
    0.0640   -1.7789    1.9564 C   0  0  0  0  0  0  0  0  0  0  0  0
   -0.6661   -1.2143    1.3349 H   0  0  0  0  0  0  0  0  0  0  0  0
    0.2871   -0.9565    3.2380 C   0  0  0  0  0  0  0  0  0  0  0  0
    0.6684    0.0579    3.0135 H   0  0  0  0  0  0  0  0  0  0  0  0
    1.0268   -1.4580    3.8965 H   0  0  0  0  0  0  0  0  0  0  0  0
   -0.6593   -0.8497    3.8087 H   0  0  0  0  0  0  0  0  0  0  0  0
   -0.5601   -3.1404    2.2833 C   0  0  0  0  0  0  0  0  0  0  0  0
   -0.7067   -3.7527    1.3712 H   0  0  0  0  0  0  0  0  0  0  0  0
   -1.5468   -3.0043    2.7707 H   0  0  0  0  0  0  0  0  0  0  0  0
    0.0674   -3.7240    2.9883 H   0  0  0  0  0  0  0  0  0  0  0  0
    3.1835    0.1898   -1.5968 C   0  0  0  0  0  0  0  0  0  0  0  0
    2.3932    0.9639   -1.5333 H   0  0  0  0  0  0  0  0  0  0  0  0
    3.1711   -0.3567   -3.0349 C   0  0  0  0  0  0  0  0  0  0  0  0
    2.1932   -0.8184   -3.2777 H   0  0  0  0  0  0  0  0  0  0  0  0
    3.9542   -1.1285   -3.1856 H   0  0  0  0  0  0  0  0  0  0  0  0
    3.3606    0.4574   -3.7650 H   0  0  0  0  0  0  0  0  0  0  0  0
    4.5245    0.8658   -1.2652 C   0  0  0  0  0  0  0  0  0  0  0  0
    4.5129    1.3029   -0.2474 H   0  0  0  0  0  0  0  0  0  0  0  0
    4.7407    1.6823   -1.9848 H   0  0  0  0  0  0  0  0  0  0  0  0
    5.3651    0.1423   -1.3178 H   0  0  0  0  0  0  0  0  0  0  0  0
  1 37  1  0  0  0  0
  2 14  1  0  0  0  0
  3 22  1  0  0  0  0
  4  1  1  1  0  0  0
  4 12  1  0  0  0  0
  5  4  1  0  0  0  0
  5  6  1  0  0  0  0
  6  8  2  0  0  0  0
  7  6  1  0  0  0  0
  8 10  1  0  0  0  0
  8  9  1  0  0  0  0
 10 11  1  0  0  0  0
 12 13  1  0  0  0  0
 12 10  2  0  0  0  0
 14 15  1  0  0  0  0
 14  5  2  0  0  0  0
 16 19  1  0  0  0  0
 16 18  1  0  0  0  0
 16  2  1  0  0  0  0
 17 16  1  0  0  0  0
 19  3  1  0  0  0  0
 20 19  1  0  0  0  0
 21 19  1  0  0  0  0
 22 24  1  0  0  0  0
 22 25  1  0  0  0  0
 23 22  1  0  0  0  0
 25 26  1  0  0  0  0
 25 27  1  0  0  0  0
 28 25  1  0  0  0  0
 28 29  1  0  0  0  0
 28 30  1  0  0  0  0
 31 32  1  0  0  0  0
 31 28  1  0  0  0  0
 33 31  1  0  0  0  0
 34  3  1  0  0  0  0
 34 31  1  0  0  0  0
 35 34  1  0  0  0  0
 36 34  1  0  0  0  0
 37 38  1  0  0  0  0
 38 39  2  0  0  0  0
 38 46  1  0  0  0  0
 39 40  1  0  0  0  0
 41 42  1  0  0  0  0
 41 39  1  0  0  0  0
 43 41  2  0  0  0  0
 44 43  1  0  0  0  0
 45 43  1  0  0  0  0
 45 37  2  0  0  0  0
 46 52  1  0  0  0  0
 46 48  1  0  0  0  0
 47 46  1  0  0  0  0
 48 51  1  0  0  0  0
 48 50  1  0  0  0  0
 49 48  1  0  0  0  0
 52 54  1  0  0  0  0
 52 55  1  0  0  0  0
 53 52  1  0  0  0  0
 56 57  1  0  0  0  0
 56 62  1  0  0  0  0
 56 45  1  0  0  0  0
 58 56  1  0  0  0  0
 59 58  1  0  0  0  0
 60 58  1  0  0  0  0
 61 58  1  0  0  0  0
 62 63  1  0  0  0  0
 64 62  1  0  0  0  0
 65 62  1  0  0  0  0
M  END
