1,3
q = 0.0, confidence = 0.974

 24 25  0  0  0  0  0  0  0  0999 V2000
    0.8172    1.8176    0.9351 N   0  0  0  0  0  2  0  0  0  0  0  0
    0.4165    2.6567    1.3771 H   0  0  0  0  0  0  0  0  0  0  0  0
    1.4683   -0.2832   -0.2744 N   0  0  0  0  0  2  0  0  0  0  0  0
    1.9159    1.9720    0.1923 C   0  0  0  0  0  0  0  0  0  0  0  0
    2.6604    3.1731   -0.0146 C   0  0  0  0  0  0  0  0  0  0  0  0
    2.3435    4.0954    0.4946 H   0  0  0  0  0  0  0  0  0  0  0  0
    3.7725    3.1442   -0.8368 C   0  0  0  0  0  0  0  0  0  0  0  0
    4.3631    4.0594   -0.9912 H   0  0  0  0  0  0  0  0  0  0  0  0
    4.1710    1.9369   -1.4942 C   0  0  0  0  0  0  0  0  0  0  0  0
    5.0566    1.9521   -2.1470 H   0  0  0  0  0  0  0  0  0  0  0  0
    3.4635    0.7565   -1.3344 C   0  0  0  0  0  0  0  0  0  0  0  0
    3.7644   -0.1643   -1.8519 H   0  0  0  0  0  0  0  0  0  0  0  0
    2.3142    0.7468   -0.4876 C   0  0  0  0  0  0  0  0  0  0  0  0
    1.7120   -1.5692   -0.8211 C   0  0  0  0  0  0  0  0  0  0  0  0
    2.7951   -2.3435   -0.3570 C   0  0  0  0  0  0  0  0  0  0  0  0
    3.4481   -1.9283    0.4231 H   0  0  0  0  0  0  0  0  0  0  0  0
    2.9835   -3.6386   -0.8606 C   0  0  0  0  0  0  0  0  0  0  0  0
    3.8234   -4.2458   -0.4902 H   0  0  0  0  0  0  0  0  0  0  0  0
    2.1038   -4.1650   -1.8206 C   0  0  0  0  0  0  0  0  0  0  0  0
    2.2572   -5.1822   -2.2109 H   0  0  0  0  0  0  0  0  0  0  0  0
    1.0228   -3.3911   -2.2761 C   0  0  0  0  0  0  0  0  0  0  0  0
    0.3270   -3.7986   -3.0250 H   0  0  0  0  0  0  0  0  0  0  0  0
    0.8208   -2.0980   -1.7764 C   0  0  0  0  0  0  0  0  0  0  0  0
   -0.0269   -1.4838   -2.1126 H   0  0  0  0  0  0  0  0  0  0  0  0
  1  2  1  0  0  0  0
  4  1  1  0  0  0  0
  5  4  1  0  0  0  0
  5  6  1  0  0  0  0
  7  5  2  0  0  0  0
  8  7  1  0  0  0  0
  9 11  2  0  0  0  0
  9  7  1  0  0  0  0
 10  9  1  0  0  0  0
 11 13  1  0  0  0  0
 12 11  1  0  0  0  0
 13  3  1  0  0  0  0
 13  4  2  0  0  0  0
 14 15  1  0  0  0  0
 14  3  1  0  0  0  0
 15 16  1  0  0  0  0
 17 18  1  0  0  0  0
 17 15  2  0  0  0  0
 19 17  1  0  0  0  0
 20 19  1  0  0  0  0
 21 19  2  0  0  0  0
 21 23  1  0  0  0  0
 22 21  1  0  0  0  0
 23 14  2  0  0  0  0
 24 23  1  0  0  0  0
M  END
