2,3
q = 0.0, confidence = 0.984

 41 42  0  0  1  0  0  0  0  0999 V2000
    0.0048   -1.9002   -0.1701 O   0  0  0  0  0  0  0  0  0  0  0  0
   -1.8989    0.5205   -0.2354 N   0  0  0  0  0  2  0  0  0  0  0  0
    1.8871    0.5446   -0.1643 N   0  0  0  0  0  2  0  0  0  0  0  0
   -2.7674   -0.5224   -0.0695 N   0  0  0  0  0  0  0  0  0  0  0  0
    2.7723   -0.4961   -0.1297 N   0  0  0  0  0  0  0  0  0  0  0  0
   -2.3766   -1.8918   -0.3664 C   0  0  0  0  0  0  0  0  0  0  0  0
   -1.1823   -2.4193    0.4199 C   0  0  0  0  0  0  0  0  0  0  0  0
    2.3711   -1.8460   -0.4917 C   0  0  0  0  0  0  0  0  0  0  0  0
    1.2279   -2.4263    0.3340 C   0  0  0  0  0  0  0  0  0  0  0  0
   -2.6106    1.6550   -0.0333 C   0  0  1  0  0  3  0  0  0  0  0  0
   -3.9527    1.3233    0.2518 C   0  0  0  0  0  0  0  0  0  0  0  0
   -4.0306   -0.0701    0.2172 C   0  0  0  0  0  0  0  0  0  0  0  0
   -1.9646    2.9978   -0.1109 C   0  0  0  0  0  0  0  0  0  0  0  0
   -5.2032   -0.9717    0.4159 C   0  0  0  0  0  0  0  0  0  0  0  0
    2.5905    1.6617    0.1415 C   0  0  1  0  0  3  0  0  0  0  0  0
    3.9411    1.3203    0.3612 C   0  0  0  0  0  0  0  0  0  0  0  0
    4.0349   -0.0619    0.1794 C   0  0  0  0  0  0  0  0  0  0  0  0
    1.9385    3.0040    0.2018 C   0  0  0  0  0  0  0  0  0  0  0  0
    5.2194   -0.9653    0.2706 C   0  0  0  0  0  0  0  0  0  0  0  0
   -4.7769    2.0138    0.4568 H   0  0  0  0  0  0  0  0  0  0  0  0
    4.7598    1.9979    0.6227 H   0  0  0  0  0  0  0  0  0  0  0  0
   -3.2537   -2.5269   -0.1463 H   0  0  0  0  0  0  0  0  0  0  0  0
   -2.1574   -1.9922   -1.4516 H   0  0  0  0  0  0  0  0  0  0  0  0
   -1.1761   -3.5317    0.3540 H   0  0  0  0  0  0  0  0  0  0  0  0
   -1.2538   -2.1397    1.4972 H   0  0  0  0  0  0  0  0  0  0  0  0
    2.0849   -1.8788   -1.5652 H   0  0  0  0  0  0  0  0  0  0  0  0
    3.2626   -2.4870   -0.3686 H   0  0  0  0  0  0  0  0  0  0  0  0
    1.3552   -2.1889    1.4162 H   0  0  0  0  0  0  0  0  0  0  0  0
    1.2303   -3.5352    0.2233 H   0  0  0  0  0  0  0  0  0  0  0  0
   -2.6244    3.7253   -0.6218 H   0  0  0  0  0  0  0  0  0  0  0  0
   -1.7476    3.4019    0.8999 H   0  0  0  0  0  0  0  0  0  0  0  0
   -1.0096    2.9318   -0.6672 H   0  0  0  0  0  0  0  0  0  0  0  0
   -6.0903   -0.3697    0.6826 H   0  0  0  0  0  0  0  0  0  0  0  0
   -5.4523   -1.5415   -0.5036 H   0  0  0  0  0  0  0  0  0  0  0  0
   -5.0371   -1.7017    1.2348 H   0  0  0  0  0  0  0  0  0  0  0  0
    2.6501    3.7651    0.5700 H   0  0  0  0  0  0  0  0  0  0  0  0
    1.5872    3.3233   -0.8012 H   0  0  0  0  0  0  0  0  0  0  0  0
    1.0608    2.9945    0.8781 H   0  0  0  0  0  0  0  0  0  0  0  0
    6.1089   -0.3784    0.5621 H   0  0  0  0  0  0  0  0  0  0  0  0
    5.0826   -1.7621    1.0308 H   0  0  0  0  0  0  0  0  0  0  0  0
    5.4471   -1.4548   -0.6991 H   0  0  0  0  0  0  0  0  0  0  0  0
  1  9  1  0  0  0  0
  1  7  1  0  0  0  0
  2  4  1  0  0  0  0
  2 10  1  0  0  0  0
  3  5  1  0  0  0  0
  3 15  1  0  0  0  0
  4 12  1  0  0  0  0
  5 17  1  0  0  0  0
  6 22  1  0  0  0  0
  6  4  1  0  0  0  0
  6  7  1  0  0  0  0
  7 25  1  0  0  0  0
  8 27  1  0  0  0  0
  8  5  1  0  0  0  0
  8  9  1  0  0  0  0
  9 28  1  0  0  0  0
 10 13  1  1  0  0  0
 10 11  1  0  0  0  0
 11 20  1  0  0  0  0
 12 11  2  0  0  0  0
 12 14  1  0  0  0  0
 13 31  1  0  0  0  0
 14 33  1  0  0  0  0
 14 35  1  0  0  0  0
 15 18  1  6  0  0  0
 15 16  1  0  0  0  0
 16 21  1  0  0  0  0
 17 19  1  0  0  0  0
 17 16  2  0  0  0  0
 18 36  1  0  0  0  0
 18 38  1  0  0  0  0
 19 39  1  0  0  0  0
 19 40  1  0  0  0  0
 23  6  1  0  0  0  0
 24  7  1  0  0  0  0
 26  8  1  0  0  0  0
 29  9  1  0  0  0  0
 30 13  1  0  0  0  0
 32 13  1  0  0  0  0
 34 14  1  0  0  0  0
 37 18  1  0  0  0  0
 41 19  1  0  0  0  0
M  END
