1,2
q = 0.0, confidence = 0.992

 37 39  0  0  1  0  0  0  0  0999 V2000
   -1.5803   -1.5507   -1.5139 N   0  0  0  0  0  2  0  0  0  0  0  0
   -1.3787   -0.4536    0.7646 N   0  0  0  0  0  2  0  0  0  0  0  0
   -1.5769   -2.1784   -2.7101 C   0  0  0  0  0  3  0  0  0  0  0  0
   -0.6800   -2.7878   -2.9037 H   0  0  0  0  0  0  0  0  0  0  0  0
   -2.6237   -2.0380   -3.6207 C   0  0  0  0  0  0  0  0  0  0  0  0
   -2.5612   -2.5393   -4.5966 H   0  0  0  0  0  0  0  0  0  0  0  0
   -3.7411   -1.2463   -3.2699 C   0  0  0  0  0  0  0  0  0  0  0  0
   -4.5787   -1.1186   -3.9712 H   0  0  0  0  0  0  0  0  0  0  0  0
   -3.7732   -0.6420   -2.0167 C   0  0  0  0  0  0  0  0  0  0  0  0
   -4.6297   -0.0413   -1.6823 H   0  0  0  0  0  0  0  0  0  0  0  0
   -2.6775   -0.8108   -1.1409 C   0  0  0  0  0  0  0  0  0  0  0  0
   -2.5492   -0.2218    0.1769 C   0  0  2  0  0  3  0  0  0  0  0  0
   -3.6067    0.6730    0.7277 C   0  0  0  0  0  0  0  0  0  0  0  0
   -4.8655    0.1710    1.1246 C   0  0  0  0  0  0  0  0  0  0  0  0
   -5.0239   -0.9169    1.0850 H   0  0  0  0  0  0  0  0  0  0  0  0
   -5.8557    1.0501    1.5879 C   0  0  0  0  0  0  0  0  0  0  0  0
   -6.8311    0.6490    1.9031 H   0  0  0  0  0  0  0  0  0  0  0  0
   -5.6063    2.4301    1.6603 C   0  0  0  0  0  0  0  0  0  0  0  0
   -6.3865    3.1146    2.0269 H   0  0  0  0  0  0  0  0  0  0  0  0
   -4.3568    2.9340    1.2654 C   0  0  0  0  0  0  0  0  0  0  0  0
   -4.1531    4.0145    1.3153 H   0  0  0  0  0  0  0  0  0  0  0  0
   -3.3620    2.0634    0.7985 C   0  0  0  0  0  0  0  0  0  0  0  0
   -2.3915    2.4625    0.4716 H   0  0  0  0  0  0  0  0  0  0  0  0
   -1.1846   -0.0881    2.1587 C   0  0  0  0  0  0  0  0  0  0  0  0
   -0.9924   -1.0201    2.7309 H   0  0  0  0  0  0  0  0  0  0  0  0
   -2.1293    0.3325    2.5679 H   0  0  0  0  0  0  0  0  0  0  0  0
   -0.0625    0.8984    2.3991 C   0  0  0  0  0  0  0  0  0  0  0  0
    0.2599    1.8872    1.4509 C   0  0  0  0  0  0  0  0  0  0  0  0
   -0.2459    1.8920    0.4750 H   0  0  0  0  0  0  0  0  0  0  0  0
    1.2487    2.8426    1.7280 C   0  0  0  0  0  0  0  0  0  0  0  0
    1.4687    3.6186    0.9790 H   0  0  0  0  0  0  0  0  0  0  0  0
    1.9450    2.8118    2.9469 C   0  0  0  0  0  0  0  0  0  0  0  0
    2.7243    3.5591    3.1608 H   0  0  0  0  0  0  0  0  0  0  0  0
    1.6399    1.8186    3.8917 C   0  0  0  0  0  0  0  0  0  0  0  0
    2.1846    1.7794    4.8475 H   0  0  0  0  0  0  0  0  0  0  0  0
    0.6411    0.8730    3.6192 C   0  0  0  0  0  0  0  0  0  0  0  0
    0.4065    0.0933    4.3613 H   0  0  0  0  0  0  0  0  0  0  0  0
  1 11  1  0  0  0  0
  2 24  1  0  0  0  0
  3  1  1  0  0  0  0
  4  3  1  0  0  0  0
  5  7  2  0  0  0  0
  5  3  1  0  0  0  0
  6  5  1  0  0  0  0
  7  9  1  0  0  0  0
  8  7  1  0  0  0  0
  9 10  1  0  0  0  0
  9 11  2  0  0  0  0
 11 12  1  0  0  0  0
 12 13  1  0  0  0  0
 12  2  1  6  0  0  0
 13 22  2  0  0  0  0
 13 14  1  0  0  0  0
 14 16  2  0  0  0  0
 15 14  1  0  0  0  0
 16 18  1  0  0  0  0
 16 17  1  0  0  0  0
 18 19  1  0  0  0  0
 20 21  1  0  0  0  0
 20 18  2  0  0  0  0
 22 20  1  0  0  0  0
 23 22  1  0  0  0  0
 24 27  1  0  0  0  0
 24 26  1  0  0  0  0
 24 25  1  0  0  0  0
 27 36  1  0  0  0  0
 28 30  1  0  0  0  0
 28 27  2  0  0  0  0
 29 28  1  0  0  0  0
 30 32  2  0  0  0  0
 31 30  1  0  0  0  0
 32 33  1  0  0  0  0
 32 34  1  0  0  0  0
 34 35  1  0  0  0  0
 36 34  2  0  0  0  0
 36 37  1  0  0  0  0
M  END
