1,4
q = -1.0

 41 42  0  0  0  0  0  0  0  0999 V2000
    0.2188    0.8910   -1.4723 N   0  0  0  0  0  2  0  0  0  0  0  0
    1.1970    1.7854   -2.0446 C   0  0  0  0  0  0  0  0  0  0  0  0
    0.6924    2.5454   -2.6911 H   0  0  0  0  0  0  0  0  0  0  0  0
   -1.6111   -0.2955   -1.1768 N   0  0  0  0  0  2  0  0  0  0  0  0
    3.0340    3.4666   -1.5119 C   0  0  0  0  0  0  0  0  0  0  0  0
    2.5644    4.2673   -2.1278 H   0  0  0  0  0  0  0  0  0  0  0  0
    3.5681    3.9855   -0.6881 H   0  0  0  0  0  0  0  0  0  0  0  0
   -1.0063    0.6866   -1.9030 C   0  0  0  0  0  3  0  0  0  0  0  0
    2.1914    1.0105   -2.9344 C   0  0  0  0  0  0  0  0  0  0  0  0
    2.6350    0.1978   -2.3217 H   0  0  0  0  0  0  0  0  0  0  0  0
    1.6307    0.5092   -3.7510 H   0  0  0  0  0  0  0  0  0  0  0  0
   -2.9160   -0.8777   -1.4610 C   0  0  0  0  0  0  0  0  0  0  0  0
   -3.4307   -0.2308   -2.2090 H   0  0  0  0  0  0  0  0  0  0  0  0
   -1.7031    1.4067   -3.0252 C   0  0  0  0  0  0  0  0  0  0  0  0
   -2.6405    1.8730   -2.6600 H   0  0  0  0  0  0  0  0  0  0  0  0
   -1.9782    0.6984   -3.8322 H   0  0  0  0  0  0  0  0  0  0  0  0
   -1.0644    2.1963   -3.4584 H   0  0  0  0  0  0  0  0  0  0  0  0
    1.9424    2.5555   -0.9398 C   0  0  0  0  0  0  0  0  0  0  0  0
    2.3920    1.8057   -0.2554 H   0  0  0  0  0  0  0  0  0  0  0  0
    1.2099    3.1321   -0.3377 H   0  0  0  0  0  0  0  0  0  0  0  0
   -5.1717   -1.5710   -0.5131 C   0  0  0  0  0  0  0  0  0  0  0  0
   -5.7805   -1.6191    0.4141 H   0  0  0  0  0  0  0  0  0  0  0  0
   -5.7383   -0.9256   -1.2231 H   0  0  0  0  0  0  0  0  0  0  0  0
   -3.8123   -0.9276   -0.2117 C   0  0  0  0  0  0  0  0  0  0  0  0
   -3.9456    0.1001    0.1852 H   0  0  0  0  0  0  0  0  0  0  0  0
   -3.2770   -1.5064    0.5706 H   0  0  0  0  0  0  0  0  0  0  0  0
   -4.1317   -2.9198   -2.3819 C   0  0  0  0  0  0  0  0  0  0  0  0
   -4.6531   -2.3298   -3.1702 H   0  0  0  0  0  0  0  0  0  0  0  0
   -3.9902   -3.9382   -2.8004 H   0  0  0  0  0  0  0  0  0  0  0  0
    4.0214    2.6786   -2.3828 C   0  0  0  0  0  0  0  0  0  0  0  0
    4.5679    1.9485   -1.7440 H   0  0  0  0  0  0  0  0  0  0  0  0
    4.7895    3.3559   -2.8117 H   0  0  0  0  0  0  0  0  0  0  0  0
    3.2897    1.9200   -3.4977 C   0  0  0  0  0  0  0  0  0  0  0  0
    2.8359    2.6572   -4.1989 H   0  0  0  0  0  0  0  0  0  0  0  0
    4.0067    1.3227   -4.0990 H   0  0  0  0  0  0  0  0  0  0  0  0
   -2.7703   -2.2808   -2.0835 C   0  0  0  0  0  0  0  0  0  0  0  0
   -2.2033   -2.9141   -1.3669 H   0  0  0  0  0  0  0  0  0  0  0  0
   -2.1491   -2.2121   -3.0014 H   0  0  0  0  0  0  0  0  0  0  0  0
   -5.0116   -2.9678   -1.1264 C   0  0  0  0  0  0  0  0  0  0  0  0
   -4.5396   -3.6419   -0.3774 H   0  0  0  0  0  0  0  0  0  0  0  0
   -6.0046   -3.4046   -1.3634 H   0  0  0  0  0  0  0  0  0  0  0  0
  2  1  1  0  0  0  0
  2 18  1  0  0  0  0
  3  2  1  0  0  0  0
  5 18  1  0  0  0  0
  5  7  1  0  0  0  0
  6  5  1  0  0  0  0
  8  1  1  0  0  0  0
  8  4  1  0  0  0  0
  9 10  1  0  0  0  0
  9  2  1  0  0  0  0
 11  9  1  0  0  0  0
 12  4  1  0  0  0  0
 12 24  1  0  0  0  0
 13 12  1  0  0  0  0
 14 15  1  0  0  0  0
 14  8  1  0  0  0  0
 16 14  1  0  0  0  0
 17 14  1  0  0  0  0
 18 20  1  0  0  0  0
 18 19  1  0  0  0  0
 21 24  1  0  0  0  0
 21 22  1  0  0  0  0
 23 21  1  0  0  0  0
 24 25  1  0  0  0  0
 24 26  1  0  0  0  0
 27 36  1  0  0  0  0
 27 39  1  0  0  0  0
 28 27  1  0  0  0  0
 29 27  1  0  0  0  0
 30 31  1  0  0  0  0
 30  5  1  0  0  0  0
 32 30  1  0  0  0  0
 33  9  1  0  0  0  0
 33 30  1  0  0  0  0
 34 33  1  0  0  0  0
 35 33  1  0  0  0  0
 36 12  1  0  0  0  0
 36 37  1  0  0  0  0
 38 36  1  0  0  0  0
 39 21  1  0  0  0  0
 39 40  1  0  0  0  0
 41 39  1  0  0  0  0
M  END
