1,2
q = -1.0

 40 41  0  0  1  0  0  0  0  0999 V2000
    0.1724   -1.7738    1.0644 N   0  0  0  0  0  2  0  0  0  0  0  0
   -1.1515   -0.1634    0.2343 N   0  0  0  0  0  2  0  0  0  0  0  0
   -1.7465    1.8854    2.8365 C   0  0  0  0  0  0  0  0  0  0  0  0
   -0.9515    2.3068    3.4876 H   0  0  0  0  0  0  0  0  0  0  0  0
   -1.6729    0.7808    2.8773 H   0  0  0  0  0  0  0  0  0  0  0  0
   -2.7271    2.1736    3.2696 H   0  0  0  0  0  0  0  0  0  0  0  0
   -4.1381   -2.5451   -1.2766 C   0  0  0  0  0  0  0  0  0  0  0  0
   -3.8725   -3.5278   -1.7175 H   0  0  0  0  0  0  0  0  0  0  0  0
   -5.1176   -2.2449   -1.7034 H   0  0  0  0  0  0  0  0  0  0  0  0
   -4.2734   -2.6869   -0.1859 H   0  0  0  0  0  0  0  0  0  0  0  0
   -1.0963   -1.2474    1.0458 C   0  0  2  0  0  3  0  0  0  0  0  0
   -2.1388   -1.8407    1.8167 C   0  0  0  0  0  0  0  0  0  0  0  0
   -3.1440   -1.3989    1.7970 H   0  0  0  0  0  0  0  0  0  0  0  0
   -1.8366   -2.9702    2.5723 C   0  0  0  0  0  0  0  0  0  0  0  0
   -2.6247   -3.4451    3.1779 H   0  0  0  0  0  0  0  0  0  0  0  0
   -0.5317   -3.5129    2.5661 C   0  0  0  0  0  0  0  0  0  0  0  0
   -0.2773   -4.4094    3.1467 H   0  0  0  0  0  0  0  0  0  0  0  0
    0.4380   -2.8717    1.7908 C   0  0  0  0  0  0  0  0  0  0  0  0
    1.4707   -3.2503    1.7417 H   0  0  0  0  0  0  0  0  0  0  0  0
   -2.3836    0.4700   -0.0595 C   0  0  0  0  0  0  0  0  0  0  0  0
   -3.3281   -0.1592   -0.9179 C   0  0  0  0  0  0  0  0  0  0  0  0
   -4.5323    0.5143   -1.1997 C   0  0  0  0  0  0  0  0  0  0  0  0
   -5.2706    0.0390   -1.8646 H   0  0  0  0  0  0  0  0  0  0  0  0
   -4.8013    1.7783   -0.6640 C   0  0  0  0  0  0  0  0  0  0  0  0
   -5.7477    2.2888   -0.8989 H   0  0  0  0  0  0  0  0  0  0  0  0
   -3.8549    2.3979    0.1634 C   0  0  0  0  0  0  0  0  0  0  0  0
   -4.0662    3.3970    0.5717 H   0  0  0  0  0  0  0  0  0  0  0  0
   -2.6414    1.7628    0.4785 C   0  0  0  0  0  0  0  0  0  0  0  0
   -1.6137    2.4104    1.3950 C   0  0  0  0  0  0  0  0  0  0  0  0
   -0.6227    2.0788    1.0202 H   0  0  0  0  0  0  0  0  0  0  0  0
   -1.6284    3.9419    1.3618 C   0  0  0  0  0  0  0  0  0  0  0  0
   -0.7759    4.3482    1.9431 H   0  0  0  0  0  0  0  0  0  0  0  0
   -2.5531    4.3596    1.8117 H   0  0  0  0  0  0  0  0  0  0  0  0
   -1.5514    4.3266    0.3249 H   0  0  0  0  0  0  0  0  0  0  0  0
   -3.0459   -1.5059   -1.5761 C   0  0  0  0  0  0  0  0  0  0  0  0
   -2.0976   -1.8940   -1.1552 H   0  0  0  0  0  0  0  0  0  0  0  0
   -2.8302   -1.3402   -3.0912 C   0  0  0  0  0  0  0  0  0  0  0  0
   -2.5672   -2.3111   -3.5598 H   0  0  0  0  0  0  0  0  0  0  0  0
   -2.0111   -0.6246   -3.3025 H   0  0  0  0  0  0  0  0  0  0  0  0
   -3.7467   -0.9603   -3.5888 H   0  0  0  0  0  0  0  0  0  0  0  0
  1 18  1  0  0  0  0
  3  5  1  0  0  0  0
  3  6  1  0  0  0  0
  3  4  1  0  0  0  0
  7 10  1  0  0  0  0
  8  7  1  0  0  0  0
  9  7  1  0  0  0  0
 11  2  1  1  0  0  0
 11  1  1  0  0  0  0
 11 12  1  0  0  0  0
 12 14  2  0  0  0  0
 13 12  1  0  0  0  0
 14 15  1  0  0  0  0
 16 14  1  0  0  0  0
 16 17  1  0  0  0  0
 18 16  2  0  0  0  0
 19 18  1  0  0  0  0
 20  2  1  0  0  0  0
 20 28  1  0  0  0  0
 21 20  2  0  0  0  0
 22 21  1  0  0  0  0
 22 24  2  0  0  0  0
 23 22  1  0  0  0  0
 24 26  1  0  0  0  0
 25 24  1  0  0  0  0
 26 28  2  0  0  0  0
 26 27  1  0  0  0  0
 28 29  1  0  0  0  0
 29  3  1  0  0  0  0
 30 29  1  0  0  0  0
 31 29  1  0  0  0  0
 31 33  1  0  0  0  0
 31 32  1  0  0  0  0
 34 31  1  0  0  0  0
 35  7  1  0  0  0  0
 35 36  1  0  0  0  0
 35 21  1  0  0  0  0
 37 35  1  0  0  0  0
 38 37  1  0  0  0  0
 39 37  1  0  0  0  0
 40 37  1  0  0  0  0
M  END
