1,2
q = -1.0, confidence = 0.0

 24 23  0  0  0  0  0  0  0  0999 V2000
   -1.0667   -2.0925   -0.7002 N   0  0  0  0  0  2  0  0  0  0  0  0
   -1.3600   -1.3666    1.4800 N   0  0  0  0  0  2  0  0  0  0  0  0
   -1.6963   -2.1751    0.4740 C   0  0  0  0  0  3  0  0  0  0  0  0
   -2.5316   -2.9132    0.6070 H   0  0  0  0  0  0  0  0  0  0  0  0
   -1.4001   -3.0304   -1.7659 C   0  0  0  0  0  0  0  0  0  0  0  0
   -2.4992   -3.2387   -1.7456 H   0  0  0  0  0  0  0  0  0  0  0  0
   -1.0574   -2.4049   -3.1209 C   0  0  0  0  0  0  0  0  0  0  0  0
   -1.6108   -1.4562   -3.2717 H   0  0  0  0  0  0  0  0  0  0  0  0
   -1.3085   -3.0903   -3.9546 H   0  0  0  0  0  0  0  0  0  0  0  0
    0.0295   -2.1827   -3.1745 H   0  0  0  0  0  0  0  0  0  0  0  0
   -0.6671   -4.3666   -1.5671 C   0  0  0  0  0  0  0  0  0  0  0  0
    0.4293   -4.2033   -1.5825 H   0  0  0  0  0  0  0  0  0  0  0  0
   -0.9288   -5.0901   -2.3666 H   0  0  0  0  0  0  0  0  0  0  0  0
   -0.9316   -4.8220   -0.5912 H   0  0  0  0  0  0  0  0  0  0  0  0
   -2.0246   -1.5078    2.7699 C   0  0  0  0  0  0  0  0  0  0  0  0
   -3.1017   -1.7624    2.6055 H   0  0  0  0  0  0  0  0  0  0  0  0
   -1.9590   -0.1810    3.5305 C   0  0  0  0  0  0  0  0  0  0  0  0
   -0.9008    0.1081    3.7058 H   0  0  0  0  0  0  0  0  0  0  0  0
   -2.4618   -0.2574    4.5151 H   0  0  0  0  0  0  0  0  0  0  0  0
   -2.4445    0.6301    2.9526 H   0  0  0  0  0  0  0  0  0  0  0  0
   -1.3871   -2.6447    3.5853 C   0  0  0  0  0  0  0  0  0  0  0  0
   -1.4488   -3.6078    3.0391 H   0  0  0  0  0  0  0  0  0  0  0  0
   -1.8932   -2.7707    4.5645 H   0  0  0  0  0  0  0  0  0  0  0  0
   -0.3156   -2.4235    3.7671 H   0  0  0  0  0  0  0  0  0  0  0  0
  1  3  1  0  0  0  0
  2 15  1  0  0  0  0
  3  4  1  0  0  0  0
  3  2  1  0  0  0  0
  5  6  1  0  0  0  0
  5 11  1  0  0  0  0
  5  1  1  0  0  0  0
  7  5  1  0  0  0  0
  8  7  1  0  0  0  0
  9  7  1  0  0  0  0
 10  7  1  0  0  0  0
 11 14  1  0  0  0  0
 12 11  1  0  0  0  0
 13 11  1  0  0  0  0
 15 17  1  0  0  0  0
 15 21  1  0  0  0  0
 16 15  1  0  0  0  0
 17 18  1  0  0  0  0
 17 19  1  0  0  0  0
 20 17  1  0  0  0  0
 21 24  1  0  0  0  0
 21 23  1  0  0  0  0
 22 21  1  0  0  0  0
M  END
