1,2
q = -1.0

 48 50  0  0  1  0  0  0  0  0999 V2000
   -0.4381    0.6280   -0.6483 N   0  0  0  0  0  2  0  0  0  0  0  0
    0.7847   -0.6063    0.6815 N   0  0  0  0  0  2  0  0  0  0  0  0
    0.6727    0.5950    0.0899 C   0  0  1  0  0  3  0  0  0  0  0  0
   -0.9262    1.8159   -1.3409 C   0  0  1  0  0  0  0  0  0  0  0  0
    2.0254   -1.0425    1.3210 C   0  0  1  0  0  0  0  0  0  0  0  0
    1.9208   -2.4814    1.8371 C   0  0  0  0  0  0  0  0  0  0  0  0
   -0.8697    1.6444   -2.8624 C   0  0  0  0  0  0  0  0  0  0  0  0
    1.6549    1.7070    0.2407 C   0  0  0  0  0  0  0  0  0  0  0  0
    2.4361    2.1342   -0.8529 C   0  0  0  0  0  0  0  0  0  0  0  0
    3.3989    3.1378   -0.6840 C   0  0  0  0  0  0  0  0  0  0  0  0
    3.5891    3.7287    0.5758 C   0  0  0  0  0  0  0  0  0  0  0  0
    2.8088    3.3156    1.6676 C   0  0  0  0  0  0  0  0  0  0  0  0
    1.8470    2.3085    1.5017 C   0  0  0  0  0  0  0  0  0  0  0  0
   -2.3022    2.1936   -0.8043 C   0  0  0  0  0  0  0  0  0  0  0  0
   -3.4900    1.6729   -1.3518 C   0  0  0  0  0  0  0  0  0  0  0  0
   -4.7345    1.9699   -0.7731 C   0  0  0  0  0  0  0  0  0  0  0  0
   -4.8104    2.7973    0.3587 C   0  0  0  0  0  0  0  0  0  0  0  0
   -3.6320    3.3327    0.9056 C   0  0  0  0  0  0  0  0  0  0  0  0
   -2.3906    3.0305    0.3264 C   0  0  0  0  0  0  0  0  0  0  0  0
    3.2297   -0.8792    0.3954 C   0  0  0  0  0  0  0  0  0  0  0  0
    4.4079   -0.2662    0.8574 C   0  0  0  0  0  0  0  0  0  0  0  0
    5.5057   -0.0837    0.0026 C   0  0  0  0  0  0  0  0  0  0  0  0
    5.4376   -0.5180   -1.3301 C   0  0  0  0  0  0  0  0  0  0  0  0
    4.2672   -1.1394   -1.7981 C   0  0  0  0  0  0  0  0  0  0  0  0
    3.1711   -1.3189   -0.9425 C   0  0  0  0  0  0  0  0  0  0  0  0
    2.3091    1.6445   -1.8293 H   0  0  0  0  0  0  0  0  0  0  0  0
    4.0147    3.4523   -1.5399 H   0  0  0  0  0  0  0  0  0  0  0  0
    4.3494    4.5134    0.7076 H   0  0  0  0  0  0  0  0  0  0  0  0
    2.9506    3.7808    2.6550 H   0  0  0  0  0  0  0  0  0  0  0  0
    1.2336    1.9794    2.3548 H   0  0  0  0  0  0  0  0  0  0  0  0
   -0.2461    2.6540   -1.0718 H   0  0  0  0  0  0  0  0  0  0  0  0
   -3.4425    1.0173   -2.2336 H   0  0  0  0  0  0  0  0  0  0  0  0
   -5.6541    1.5518   -1.2110 H   0  0  0  0  0  0  0  0  0  0  0  0
   -5.7866    3.0298    0.8106 H   0  0  0  0  0  0  0  0  0  0  0  0
   -3.6819    3.9907    1.7869 H   0  0  0  0  0  0  0  0  0  0  0  0
   -1.4642    3.4405    0.7612 H   0  0  0  0  0  0  0  0  0  0  0  0
    2.2144   -0.3909    2.2068 H   0  0  0  0  0  0  0  0  0  0  0  0
    2.8395   -2.7444    2.3964 H   0  0  0  0  0  0  0  0  0  0  0  0
    1.8093   -3.1996    1.0039 H   0  0  0  0  0  0  0  0  0  0  0  0
    1.0514   -2.5983    2.5136 H   0  0  0  0  0  0  0  0  0  0  0  0
    4.4524    0.1019    1.8952 H   0  0  0  0  0  0  0  0  0  0  0  0
    6.4145    0.4124    0.3767 H   0  0  0  0  0  0  0  0  0  0  0  0
    6.2944   -0.3705   -2.0052 H   0  0  0  0  0  0  0  0  0  0  0  0
    4.2061   -1.4856   -2.8414 H   0  0  0  0  0  0  0  0  0  0  0  0
    2.2486   -1.7870   -1.3170 H   0  0  0  0  0  0  0  0  0  0  0  0
   -1.2379    2.5578   -3.3709 H   0  0  0  0  0  0  0  0  0  0  0  0
   -1.4722    0.7840   -3.2080 H   0  0  0  0  0  0  0  0  0  0  0  0
    0.1751    1.4599   -3.1804 H   0  0  0  0  0  0  0  0  0  0  0  0
  2  5  1  0  0  0  0
  3  1  1  6  0  0  0
  3  8  1  0  0  0  0
  3  2  1  0  0  0  0
  4 31  1  1  0  0  0
  4 14  1  0  0  0  0
  4  1  1  0  0  0  0
  5  6  1  0  0  0  0
  5 37  1  1  0  0  0
  6 38  1  0  0  0  0
  6 40  1  0  0  0  0
  7  4  1  0  0  0  0
  8 13  1  0  0  0  0
  9 10  1  0  0  0  0
  9  8  2  0  0  0  0
 10 11  2  0  0  0  0
 11 28  1  0  0  0  0
 11 12  1  0  0  0  0
 12 29  1  0  0  0  0
 13 12  2  0  0  0  0
 13 30  1  0  0  0  0
 14 19  1  0  0  0  0
 15 14  2  0  0  0  0
 15 16  1  0  0  0  0
 16 17  2  0  0  0  0
 17 34  1  0  0  0  0
 17 18  1  0  0  0  0
 18 35  1  0  0  0  0
 19 36  1  0  0  0  0
 19 18  2  0  0  0  0
 20 21  1  0  0  0  0
 20  5  1  0  0  0  0
 21 41  1  0  0  0  0
 22 42  1  0  0  0  0
 22 21  2  0  0  0  0
 23 22  1  0  0  0  0
 24 23  2  0  0  0  0
 24 25  1  0  0  0  0
 25 20  2  0  0  0  0
 26  9  1  0  0  0  0
 27 10  1  0  0  0  0
 32 15  1  0  0  0  0
 33 16  1  0  0  0  0
 39  6  1  0  0  0  0
 43 23  1  0  0  0  0
 44 24  1  0  0  0  0
 45 25  1  0  0  0  0
 46  7  1  0  0  0  0
 47  7  1  0  0  0  0
 48  7  1  0  0  0  0
M  END
