2,3
q = 0.0, confidence = 0.996

 52 54  0  0  0  0  0  0  0  0999 V2000
    1.7174    0.7589    1.7080 N   0  0  0  0  0  0  0  0  0  0  0  0
   -0.2663    2.7614    1.3535 N   0  0  0  0  0  0  0  0  0  0  0  0
   -1.3337    0.2335    0.4650 N   0  0  0  0  0  0  0  0  0  0  0  0
    0.4712   -3.4271   -0.6917 C   0  0  0  0  0  0  0  0  0  0  0  0
    1.0520   -2.6279    0.3309 O   0  0  0  0  0  0  0  0  0  0  0  0
    2.3731   -2.2929    0.1967 C   0  0  0  0  0  0  0  0  0  0  0  0
    3.2203   -2.8621   -0.7748 C   0  0  0  0  0  0  0  0  0  0  0  0
    4.5695   -2.4900   -0.8405 C   0  0  0  0  0  0  0  0  0  0  0  0
    5.0953   -1.5529    0.0571 C   0  0  0  0  0  0  0  0  0  0  0  0
    4.2469   -0.9865    1.0172 C   0  0  0  0  0  0  0  0  0  0  0  0
    2.8870   -1.3338    1.1045 C   0  0  0  0  0  0  0  0  0  0  0  0
    2.0118   -0.6334    2.1139 C   0  0  0  0  0  0  0  0  0  0  0  0
    1.3627    1.6252    2.8337 C   0  0  0  0  0  0  0  0  0  0  0  0
    0.7848    2.9582    2.3453 C   0  0  0  0  0  0  0  0  0  0  0  0
   -1.5787    2.2961    1.8162 C   0  0  0  0  0  0  0  0  0  0  0  0
   -1.7311    0.7624    1.7788 C   0  0  0  0  0  0  0  0  0  0  0  0
   -2.4227    0.1800   -0.5448 C   0  0  0  0  0  0  0  0  0  0  0  0
   -3.4308   -0.9056   -0.2478 C   0  0  0  0  0  0  0  0  0  0  0  0
   -4.7864   -0.6598    0.0095 C   0  0  0  0  0  0  0  0  0  0  0  0
   -5.6749   -1.7115    0.2992 C   0  0  0  0  0  0  0  0  0  0  0  0
   -5.1984   -3.0280    0.3368 C   0  0  0  0  0  0  0  0  0  0  0  0
   -3.8432   -3.3086    0.0846 C   0  0  0  0  0  0  0  0  0  0  0  0
   -2.9710   -2.2490   -0.2106 C   0  0  0  0  0  0  0  0  0  0  0  0
   -1.6375   -2.3851   -0.4761 O   0  0  0  0  0  0  0  0  0  0  0  0
   -0.9919   -3.6426   -0.3719 C   0  0  0  0  0  0  0  0  0  0  0  0
    0.9692   -4.4218   -0.7516 H   0  0  0  0  0  0  0  0  0  0  0  0
    0.5747   -2.9092   -1.6711 H   0  0  0  0  0  0  0  0  0  0  0  0
    2.8312   -3.5822   -1.5048 H   0  0  0  0  0  0  0  0  0  0  0  0
    5.2098   -2.9338   -1.6172 H   0  0  0  0  0  0  0  0  0  0  0  0
    6.1523   -1.2561    0.0037 H   0  0  0  0  0  0  0  0  0  0  0  0
    4.6480   -0.2456    1.7288 H   0  0  0  0  0  0  0  0  0  0  0  0
    2.5362   -0.6392    3.0996 H   0  0  0  0  0  0  0  0  0  0  0  0
    1.0573   -1.1809    2.2521 H   0  0  0  0  0  0  0  0  0  0  0  0
    2.5420    1.1356    1.2147 H   0  0  0  0  0  0  0  0  0  0  0  0
    2.2259    1.8183    3.5151 H   0  0  0  0  0  0  0  0  0  0  0  0
    0.6072    1.0927    3.4495 H   0  0  0  0  0  0  0  0  0  0  0  0
    1.5862    3.5550    1.8601 H   0  0  0  0  0  0  0  0  0  0  0  0
    0.4314    3.5449    3.2260 H   0  0  0  0  0  0  0  0  0  0  0  0
   -0.4140    3.5775    0.7050 H   0  0  0  0  0  0  0  0  0  0  0  0
   -1.8093    2.6653    2.8420 H   0  0  0  0  0  0  0  0  0  0  0  0
   -2.3266    2.7541    1.1358 H   0  0  0  0  0  0  0  0  0  0  0  0
   -2.7791    0.4857    2.0336 H   0  0  0  0  0  0  0  0  0  0  0  0
   -1.0844    0.2918    2.5448 H   0  0  0  0  0  0  0  0  0  0  0  0
   -0.9546   -0.7218    0.5437 H   0  0  0  0  0  0  0  0  0  0  0  0
   -1.9406    0.0169   -1.5292 H   0  0  0  0  0  0  0  0  0  0  0  0
   -2.9105    1.1718   -0.5977 H   0  0  0  0  0  0  0  0  0  0  0  0
   -5.1523    0.3789   -0.0241 H   0  0  0  0  0  0  0  0  0  0  0  0
   -6.7359   -1.4994    0.4956 H   0  0  0  0  0  0  0  0  0  0  0  0
   -5.8845   -3.8575    0.5655 H   0  0  0  0  0  0  0  0  0  0  0  0
   -3.4816   -4.3456    0.1148 H   0  0  0  0  0  0  0  0  0  0  0  0
   -1.4201   -4.3698   -1.0986 H   0  0  0  0  0  0  0  0  0  0  0  0
   -1.1121   -4.0611    0.6539 H   0  0  0  0  0  0  0  0  0  0  0  0
  1 12  1  0  0  0  0
  1 13  1  0  0  0  0
  2 15  1  0  0  0  0
  2 14  1  0  0  0  0
  3 44  1  0  0  0  0
  3 16  1  0  0  0  0
  4 25  1  0  0  0  0
  4  5  1  0  0  0  0
  6  5  1  0  0  0  0
  6 11  1  0  0  0  0
  7  6  2  0  0  0  0
  8  7  1  0  0  0  0
  8  9  2  0  0  0  0
  9 10  1  0  0  0  0
 10 11  2  0  0  0  0
 10 31  1  0  0  0  0
 11 12  1  0  0  0  0
 12 33  1  0  0  0  0
 12 32  1  0  0  0  0
 13 36  1  0  0  0  0
 13 35  1  0  0  0  0
 14 13  1  0  0  0  0
 14 38  1  0  0  0  0
 15 40  1  0  0  0  0
 16 15  1  0  0  0  0
 16 42  1  0  0  0  0
 16 43  1  0  0  0  0
 17 18  1  0  0  0  0
 17  3  1  0  0  0  0
 18 23  2  0  0  0  0
 18 19  1  0  0  0  0
 19 20  2  0  0  0  0
 20 21  1  0  0  0  0
 20 48  1  0  0  0  0
 21 49  1  0  0  0  0
 22 50  1  0  0  0  0
 22 21  2  0  0  0  0
 23 22  1  0  0  0  0
 24 25  1  0  0  0  0
 24 23  1  0  0  0  0
 25 52  1  0  0  0  0
 26  4  1  0  0  0  0
 27  4  1  0  0  0  0
 28  7  1  0  0  0  0
 29  8  1  0  0  0  0
 30  9  1  0  0  0  0
 34  1  1  0  0  0  0
 37 14  1  0  0  0  0
 39  2  1  0  0  0  0
 41 15  1  0  0  0  0
 45 17  1  0  0  0  0
 46 17  1  0  0  0  0
 47 19  1  0  0  0  0
 51 25  1  0  0  0  0
M  END
