1,2
q = 0.0, confidence = 0.998

 23 24  0  0  1  0  0  0  0  0999 V2000
    1.2599   -0.1292    0.3758 N   0  0  0  0  0  2  0  0  0  0  0  0
   -0.7611    1.5798    0.1121 N   0  0  0  0  0  2  0  0  0  0  0  0
    2.3388   -0.8571    0.5036 N   0  0  0  0  0  2  0  0  0  0  0  0
    3.3714    0.0018    0.5074 N   0  0  0  0  0  0  0  0  0  0  0  0
    2.9591    1.2946    0.3732 C   0  0  0  0  0  0  0  0  0  0  0  0
    3.6562    2.1365    0.3454 H   0  0  0  0  0  0  0  0  0  0  0  0
    0.6464    3.5515    0.0883 C   0  0  0  0  0  0  0  0  0  0  0  0
    1.6575    3.9809    0.1270 H   0  0  0  0  0  0  0  0  0  0  0  0
    1.5727    1.2088    0.2877 C   0  0  0  0  0  0  0  0  0  0  0  0
    0.4773    2.1580    0.1536 C   0  0  1  0  0  3  0  0  0  0  0  0
   -0.4807    4.3700   -0.0308 C   0  0  0  0  0  0  0  0  0  0  0  0
   -0.3720    5.4628   -0.0895 H   0  0  0  0  0  0  0  0  0  0  0  0
   -1.7494    3.7703   -0.0754 C   0  0  0  0  0  0  0  0  0  0  0  0
   -2.6645    4.3708   -0.1716 H   0  0  0  0  0  0  0  0  0  0  0  0
   -1.8440    2.3775   -0.0007 C   0  0  0  0  0  0  0  0  0  0  0  0
   -2.8158    1.8651   -0.0405 H   0  0  0  0  0  0  0  0  0  0  0  0
    4.7363   -0.5245    0.5334 C   0  0  0  0  0  0  0  0  0  0  0  0
    5.3803    0.2667    0.9651 H   0  0  0  0  0  0  0  0  0  0  0  0
    4.7264   -1.3767    1.2402 H   0  0  0  0  0  0  0  0  0  0  0  0
    5.2122   -0.9569   -0.8505 C   0  0  0  0  0  0  0  0  0  0  0  0
    6.2362   -1.3732   -0.7825 H   0  0  0  0  0  0  0  0  0  0  0  0
    4.5433   -1.7367   -1.2632 H   0  0  0  0  0  0  0  0  0  0  0  0
    5.2296   -0.1030   -1.5562 H   0  0  0  0  0  0  0  0  0  0  0  0
  1  3  1  0  0  0  0
  2 10  1  0  0  0  0
  3  4  1  0  0  0  0
  4 17  1  0  0  0  0
  5  4  1  0  0  0  0
  6  5  1  0  0  0  0
  7  8  1  0  0  0  0
  7 10  1  0  0  0  0
  9  5  2  0  0  0  0
  9  1  1  0  0  0  0
 10  9  1  1  0  0  0
 11  7  2  0  0  0  0
 12 11  1  0  0  0  0
 13 11  1  0  0  0  0
 13 15  2  0  0  0  0
 14 13  1  0  0  0  0
 15  2  1  0  0  0  0
 16 15  1  0  0  0  0
 17 18  1  0  0  0  0
 17 19  1  0  0  0  0
 20 21  1  0  0  0  0
 20 17  1  0  0  0  0
 22 20  1  0  0  0  0
 23 20  1  0  0  0  0
M  END
