2,4
q = -1.0

 64 68  0  0  1  0  0  0  0  0999 V2000
   -0.0725   -0.9981   -1.7707 N   0  0  0  0  0  0  0  0  0  0  0  0
    1.2229   -1.2828   -1.4737 N   0  0  0  0  0  2  0  0  0  0  0  0
   -0.0467    1.3712   -1.4708 N   0  0  0  0  0  0  0  0  0  0  0  0
    1.2390    1.5665   -1.0826 N   0  0  0  0  0  2  0  0  0  0  0  0
    1.5395   -2.4163   -2.1359 C   0  0  2  0  0  3  0  0  0  0  0  0
    0.4116   -2.8684   -2.8522 C   0  0  0  0  0  0  0  0  0  0  0  0
    0.3401   -3.7583   -3.4857 H   0  0  0  0  0  0  0  0  0  0  0  0
   -0.6070   -1.9392   -2.6074 C   0  0  0  0  0  0  0  0  0  0  0  0
    2.9017   -3.0250   -2.0523 C   0  0  0  0  0  0  0  0  0  0  0  0
    3.6900   -2.3009   -2.3418 H   0  0  0  0  0  0  0  0  0  0  0  0
    2.9754   -3.8988   -2.7255 H   0  0  0  0  0  0  0  0  0  0  0  0
    3.1267   -3.3669   -1.0217 H   0  0  0  0  0  0  0  0  0  0  0  0
   -2.0088   -1.8998   -3.1147 C   0  0  0  0  0  0  0  0  0  0  0  0
   -2.7484   -1.9790   -2.2922 H   0  0  0  0  0  0  0  0  0  0  0  0
   -2.1715   -2.7377   -3.8167 H   0  0  0  0  0  0  0  0  0  0  0  0
   -2.2233   -0.9556   -3.6585 H   0  0  0  0  0  0  0  0  0  0  0  0
    1.5536    2.8438   -1.3967 C   0  0  1  0  0  3  0  0  0  0  0  0
    0.4320    3.4723   -1.9729 C   0  0  0  0  0  0  0  0  0  0  0  0
    0.3575    4.5070   -2.3215 H   0  0  0  0  0  0  0  0  0  0  0  0
   -0.5831    2.5095   -2.0014 C   0  0  0  0  0  0  0  0  0  0  0  0
    2.9021    3.4247   -1.1178 C   0  0  0  0  0  0  0  0  0  0  0  0
    3.1002    3.4786   -0.0276 H   0  0  0  0  0  0  0  0  0  0  0  0
    2.9669    4.4513   -1.5230 H   0  0  0  0  0  0  0  0  0  0  0  0
    3.7129    2.8240   -1.5773 H   0  0  0  0  0  0  0  0  0  0  0  0
   -2.0010    2.6241   -2.4485 C   0  0  0  0  0  0  0  0  0  0  0  0
   -2.2847    1.8256   -3.1651 H   0  0  0  0  0  0  0  0  0  0  0  0
   -2.1567    3.5983   -2.9464 H   0  0  0  0  0  0  0  0  0  0  0  0
   -2.6907    2.5687   -1.5802 H   0  0  0  0  0  0  0  0  0  0  0  0
   -0.7634    0.1351   -1.1450 C   0  0  2  0  0  0  0  0  0  0  0  0
   -1.7040    0.2211   -1.7119 H   0  0  0  0  0  0  0  0  0  0  0  0
   -1.4479    1.4893    1.0620 C   0  0  0  0  0  0  0  0  0  0  0  0
   -0.3145    2.2588    1.4274 C   0  0  0  0  0  0  0  0  0  0  0  0
    0.6826    1.8014    1.3552 H   0  0  0  0  0  0  0  0  0  0  0  0
   -0.4090    3.5862    1.8701 C   0  0  0  0  0  0  0  0  0  0  0  0
    0.5046    4.1430    2.1361 H   0  0  0  0  0  0  0  0  0  0  0  0
   -1.6656    4.2040    1.9770 C   0  0  0  0  0  0  0  0  0  0  0  0
   -1.7497    5.2459    2.3238 H   0  0  0  0  0  0  0  0  0  0  0  0
   -2.8121    3.4661    1.6482 C   0  0  0  0  0  0  0  0  0  0  0  0
   -3.8089    3.9261    1.7439 H   0  0  0  0  0  0  0  0  0  0  0  0
   -2.6977    2.1361    1.2052 C   0  0  0  0  0  0  0  0  0  0  0  0
   -3.6184    1.5791    0.9716 H   0  0  0  0  0  0  0  0  0  0  0  0
   -2.7547   -0.7876    0.4053 C   0  0  0  0  0  0  0  0  0  0  0  0
   -3.7510   -0.4074   -0.5294 C   0  0  0  0  0  0  0  0  0  0  0  0
   -3.5424    0.3925   -1.2608 H   0  0  0  0  0  0  0  0  0  0  0  0
   -5.0294   -0.9893   -0.5670 C   0  0  0  0  0  0  0  0  0  0  0  0
   -5.7639   -0.6550   -1.3173 H   0  0  0  0  0  0  0  0  0  0  0  0
   -5.3700   -1.9895    0.3562 C   0  0  0  0  0  0  0  0  0  0  0  0
   -6.3679   -2.4544    0.3351 H   0  0  0  0  0  0  0  0  0  0  0  0
   -4.4190   -2.3773    1.3121 C   0  0  0  0  0  0  0  0  0  0  0  0
   -4.6702   -3.1516    2.0547 H   0  0  0  0  0  0  0  0  0  0  0  0
   -3.1456   -1.7849    1.3309 C   0  0  0  0  0  0  0  0  0  0  0  0
   -2.4285   -2.1115    2.0989 H   0  0  0  0  0  0  0  0  0  0  0  0
   -0.2989   -0.9776    1.4122 C   0  0  0  0  0  0  0  0  0  0  0  0
    0.0656   -0.6146    2.7322 C   0  0  0  0  0  0  0  0  0  0  0  0
   -0.1495    0.4066    3.0821 H   0  0  0  0  0  0  0  0  0  0  0  0
    0.6320   -1.5279    3.6414 C   0  0  0  0  0  0  0  0  0  0  0  0
    0.8720   -1.2004    4.6658 H   0  0  0  0  0  0  0  0  0  0  0  0
    0.8630   -2.8569    3.2568 C   0  0  0  0  0  0  0  0  0  0  0  0
    1.2926   -3.5800    3.9676 H   0  0  0  0  0  0  0  0  0  0  0  0
    0.5310   -3.2505    1.9495 C   0  0  0  0  0  0  0  0  0  0  0  0
    0.6920   -4.2926    1.6295 H   0  0  0  0  0  0  0  0  0  0  0  0
   -0.0354   -2.3284    1.0574 C   0  0  0  0  0  0  0  0  0  0  0  0
   -0.3477   -2.6991    0.0688 H   0  0  0  0  0  0  0  0  0  0  0  0
   -1.2777   -0.0410    0.4816 B   0  0  0  0  0  0  0  0  0  0  0  0
  1  2  1  0  0  0  0
  1 29  1  0  0  0  0
  3 29  1  0  0  0  0
  3  4  1  0  0  0  0
  5  9  1  1  0  0  0
  5  2  1  0  0  0  0
  6  8  2  0  0  0  0
  6  5  1  0  0  0  0
  7  6  1  0  0  0  0
  8  1  1  0  0  0  0
  9 12  1  0  0  0  0
 10  9  1  0  0  0  0
 11  9  1  0  0  0  0
 13  8  1  0  0  0  0
 13 14  1  0  0  0  0
 15 13  1  0  0  0  0
 16 13  1  0  0  0  0
 17 21  1  1  0  0  0
 17  4  1  0  0  0  0
 18 17  1  0  0  0  0
 19 18  1  0  0  0  0
 20 18  2  0  0  0  0
 20  3  1  0  0  0  0
 21 22  1  0  0  0  0
 23 21  1  0  0  0  0
 24 21  1  0  0  0  0
 25 20  1  0  0  0  0
 25 28  1  0  0  0  0
 26 25  1  0  0  0  0
 27 25  1  0  0  0  0
 29 30  1  6  0  0  0
 29 64  1  0  0  0  0
 31 40  2  0  0  0  0
 31 32  1  0  0  0  0
 32 34  2  0  0  0  0
 33 32  1  0  0  0  0
 34 36  1  0  0  0  0
 34 35  1  0  0  0  0
 36 37  1  0  0  0  0
 38 39  1  0  0  0  0
 38 36  2  0  0  0  0
 40 38  1  0  0  0  0
 41 40  1  0  0  0  0
 42 64  1  0  0  0  0
 42 51  1  0  0  0  0
 43 42  2  0  0  0  0
 44 43  1  0  0  0  0
 45 43  1  0  0  0  0
 45 47  2  0  0  0  0
 46 45  1  0  0  0  0
 47 49  1  0  0  0  0
 48 47  1  0  0  0  0
 49 51  2  0  0  0  0
 49 50  1  0  0  0  0
 51 52  1  0  0  0  0
 53 54  1  0  0  0  0
 54 55  1  0  0  0  0
 54 56  2  0  0  0  0
 56 57  1  0  0  0  0
 58 56  1  0  0  0  0
 58 59  1  0  0  0  0
 60 58  2  0  0  0  0
 61 60  1  0  0  0  0
 62 53  2  0  0  0  0
 62 60  1  0  0  0  0
 63 62  1  0  0  0  0
 64 31  1  0  0  0  0
 64 53  1  0  0  0  0
M  END
