2,3
q = 0.0, confidence = 1.0

 18 17  0  0  1  0  0  0  0  0999 V2000
    2.0720    0.7991    0.0001 O   0  0  0  0  0  0  0  0  0  0  0  0
    1.2727   -0.4158    0.0001 N   0  0  0  0  0  2  0  0  0  0  0  0
    0.0660    1.8664   -0.0003 N   0  0  0  0  0  2  0  0  0  0  0  0
   -0.4942    2.7272   -0.0004 H   0  0  0  0  0  0  0  0  0  0  0  0
    2.0699   -1.4482   -0.0002 C   0  0  0  0  0  3  0  0  0  0  0  0
    1.4796   -2.8152    0.0003 C   0  0  0  0  0  0  0  0  0  0  0  0
    0.3696   -2.7977    0.0017 H   0  0  0  0  0  0  0  0  0  0  0  0
    1.8519   -3.3664    0.8903 H   0  0  0  0  0  0  0  0  0  0  0  0
    1.8493   -3.3659   -0.8911 H   0  0  0  0  0  0  0  0  0  0  0  0
    3.5650   -1.2922   -0.0010 C   0  0  0  0  0  0  0  0  0  0  0  0
    3.8996   -0.7177   -0.8885 H   0  0  0  0  0  0  0  0  0  0  0  0
    4.0542   -2.2822   -0.0023 H   0  0  0  0  0  0  0  0  0  0  0  0
    3.9006   -0.7198    0.8875 H   0  0  0  0  0  0  0  0  0  0  0  0
    1.3518    1.9383    0.0001 C   0  0  1  0  0  3  0  0  0  0  0  0
    2.2039    3.1650    0.0008 C   0  0  0  0  0  0  0  0  0  0  0  0
    1.5727    4.0712   -0.0020 H   0  0  0  0  0  0  0  0  0  0  0  0
    2.8616    3.1753   -0.8914 H   0  0  0  0  0  0  0  0  0  0  0  0
    2.8566    3.1774    0.8968 H   0  0  0  0  0  0  0  0  0  0  0  0
  1  2  1  0  0  0  0
  4  3  1  0  0  0  0
  5  2  1  0  0  0  0
  5  6  1  0  0  0  0
  6  7  1  0  0  0  0
  6  8  1  0  0  0  0
  9  6  1  0  0  0  0
 10  5  1  0  0  0  0
 10 13  1  0  0  0  0
 11 10  1  0  0  0  0
 12 10  1  0  0  0  0
 14  3  1  1  0  0  0
 14  1  1  0  0  0  0
 14 15  1  0  0  0  0
 15 18  1  0  0  0  0
 16 15  1  0  0  0  0
 17 15  1  0  0  0  0
M  END
