1,21
q = 0.0, confidence = 0.998

 21 22  0  0  1  0  0  0  0  0999 V2000
    0.6991   -1.4697   -0.3141 N   0  0  0  0  0  2  0  0  0  0  0  0
    0.4083   -2.4665   -1.1796 C   0  0  0  0  0  3  0  0  0  0  0  0
   -0.5424   -2.3563   -1.7225 H   0  0  0  0  0  0  0  0  0  0  0  0
    1.2569   -3.5619   -1.3596 C   0  0  0  0  0  0  0  0  0  0  0  0
    0.9678   -4.3633   -2.0537 H   0  0  0  0  0  0  0  0  0  0  0  0
    2.4610   -3.6112   -0.6412 C   0  0  0  0  0  0  0  0  0  0  0  0
    3.1515   -4.4600   -0.7562 H   0  0  0  0  0  0  0  0  0  0  0  0
    2.7920   -2.5454    0.2042 C   0  0  0  0  0  0  0  0  0  0  0  0
    3.7484   -2.5109    0.7439 H   0  0  0  0  0  0  0  0  0  0  0  0
    1.8798   -1.4833    0.3366 C   0  0  0  0  0  0  0  0  0  0  0  0
    2.3154   -0.1342    1.4311 S   0  0  0  0  0  0  0  0  0  0  0  0
    2.0268    1.2866    0.3796 C   0  0  2  0  0  3  0  0  0  0  0  0
    3.0861    2.1925    0.2049 C   0  0  0  0  0  0  0  0  0  0  0  0
    4.0564    1.9877    0.6776 H   0  0  0  0  0  0  0  0  0  0  0  0
    2.8789    3.3253   -0.5934 C   0  0  0  0  0  0  0  0  0  0  0  0
    3.6920    4.0516   -0.7424 H   0  0  0  0  0  0  0  0  0  0  0  0
    1.6353    3.4984   -1.2152 C   0  0  0  0  0  0  0  0  0  0  0  0
    1.4321    4.3621   -1.8635 H   0  0  0  0  0  0  0  0  0  0  0  0
    0.6283    2.5513   -1.0010 C   0  0  0  0  0  0  0  0  0  0  0  0
   -0.3836    2.6225   -1.4360 H   0  0  0  0  0  0  0  0  0  0  0  0
    0.8157    1.4842   -0.1900 N   0  0  0  0  0  2  0  0  0  0  0  0
  1 10  1  0  0  0  0
  2  1  1  0  0  0  0
  3  2  1  0  0  0  0
  4  2  1  0  0  0  0
  4  6  2  0  0  0  0
  5  4  1  0  0  0  0
  6  8  1  0  0  0  0
  7  6  1  0  0  0  0
  8 10  2  0  0  0  0
  8  9  1  0  0  0  0
 10 11  1  0  0  0  0
 12 11  1  1  0  0  0
 13 12  1  0  0  0  0
 13 14  1  0  0  0  0
 15 13  2  0  0  0  0
 16 15  1  0  0  0  0
 17 19  2  0  0  0  0
 17 15  1  0  0  0  0
 18 17  1  0  0  0  0
 19 21  1  0  0  0  0
 20 19  1  0  0  0  0
 21 12  1  0  0  0  0
M  END
