1,3
q = 0.0, confidence = 1.0

 35 35  0  0  1  0  0  0  0  0999 V2000
    1.0999   -0.8066    0.0759 N   0  0  0  0  0  2  0  0  0  0  0  0
    1.8851   -0.0701   -0.7544 N   0  0  0  0  0  0  0  0  0  0  0  0
   -0.6156    1.4892   -0.4059 N   0  0  0  0  0  0  0  0  0  0  0  0
    3.1985   -0.1277   -0.3708 C   0  0  1  0  0  3  0  0  0  0  0  0
    3.2341   -0.9494    0.7583 C   0  0  0  0  0  0  0  0  0  0  0  0
    1.8993   -1.3560    1.0129 C   0  0  0  0  0  0  0  0  0  0  0  0
    4.2935    0.5670   -1.1102 C   0  0  0  0  0  0  0  0  0  0  0  0
    4.1366    1.6649   -1.1590 H   0  0  0  0  0  0  0  0  0  0  0  0
    4.3937    0.1961   -2.1521 H   0  0  0  0  0  0  0  0  0  0  0  0
    5.2574    0.3891   -0.5997 H   0  0  0  0  0  0  0  0  0  0  0  0
    1.3501   -2.1971    2.1154 C   0  0  0  0  0  0  0  0  0  0  0  0
    0.5257   -2.8284    1.7254 H   0  0  0  0  0  0  0  0  0  0  0  0
    0.9276   -1.5620    2.9229 H   0  0  0  0  0  0  0  0  0  0  0  0
    2.1430   -2.8294    2.5560 H   0  0  0  0  0  0  0  0  0  0  0  0
    1.2602    0.6237   -1.8670 C   0  0  0  0  0  0  0  0  0  0  0  0
    0.6333   -0.1136   -2.4105 H   0  0  0  0  0  0  0  0  0  0  0  0
    2.0615    0.9700   -2.5483 H   0  0  0  0  0  0  0  0  0  0  0  0
    0.4034    1.8246   -1.4337 C   0  0  0  0  0  0  0  0  0  0  0  0
   -0.0996    2.2193   -2.3399 H   0  0  0  0  0  0  0  0  0  0  0  0
    1.0665    2.6272   -1.0565 H   0  0  0  0  0  0  0  0  0  0  0  0
   -0.5582    2.3011    0.8762 C   0  0  0  0  0  0  0  0  0  0  0  0
   -1.6607    1.7765    1.8075 C   0  0  0  0  0  0  0  0  0  0  0  0
   -1.4453    0.7367    2.1257 H   0  0  0  0  0  0  0  0  0  0  0  0
   -2.6454    1.7586    1.3008 H   0  0  0  0  0  0  0  0  0  0  0  0
   -1.7241    2.4205    2.7069 H   0  0  0  0  0  0  0  0  0  0  0  0
    0.8076    2.1428    1.5560 C   0  0  0  0  0  0  0  0  0  0  0  0
    1.0115    1.0816    1.7918 H   0  0  0  0  0  0  0  0  0  0  0  0
    0.8082    2.7135    2.5048 H   0  0  0  0  0  0  0  0  0  0  0  0
    1.6452    2.5313    0.9424 H   0  0  0  0  0  0  0  0  0  0  0  0
   -0.8315    3.7790    0.5370 C   0  0  0  0  0  0  0  0  0  0  0  0
   -1.8261    3.8972    0.0604 H   0  0  0  0  0  0  0  0  0  0  0  0
   -0.0658    4.2060   -0.1418 H   0  0  0  0  0  0  0  0  0  0  0  0
   -0.8265    4.3878    1.4624 H   0  0  0  0  0  0  0  0  0  0  0  0
   -1.5695    1.6201   -0.7986 H   0  0  0  0  0  0  0  0  0  0  0  0
    4.1245   -1.2296    1.3300 H   0  0  0  0  0  0  0  0  0  0  0  0
  1  6  1  0  0  0  0
  2  4  1  0  0  0  0
  2  1  1  0  0  0  0
  3 21  1  0  0  0  0
  4  7  1  6  0  0  0
  4  5  1  0  0  0  0
  5  6  2  0  0  0  0
  5 35  1  0  0  0  0
  6 11  1  0  0  0  0
  7 10  1  0  0  0  0
  8  7  1  0  0  0  0
  9  7  1  0  0  0  0
 11 14  1  0  0  0  0
 11 13  1  0  0  0  0
 12 11  1  0  0  0  0
 15 18  1  0  0  0  0
 15  2  1  0  0  0  0
 16 15  1  0  0  0  0
 17 15  1  0  0  0  0
 18 20  1  0  0  0  0
 18  3  1  0  0  0  0
 19 18  1  0  0  0  0
 21 26  1  0  0  0  0
 21 22  1  0  0  0  0
 22 23  1  0  0  0  0
 22 25  1  0  0  0  0
 24 22  1  0  0  0  0
 26 27  1  0  0  0  0
 26 28  1  0  0  0  0
 29 26  1  0  0  0  0
 30 21  1  0  0  0  0
 30 33  1  0  0  0  0
 31 30  1  0  0  0  0
 32 30  1  0  0  0  0
 34  3  1  0  0  0  0
M  END
