1,2
q = 0.0, confidence = 0.98

 38 39  0  0  0  0  0  0  0  0999 V2000
   -1.8869    0.6828    0.1745 N   0  0  0  0  0  2  0  0  0  0  0  0
    0.5524    1.2733    1.0891 N   0  0  0  0  0  2  0  0  0  0  0  0
    1.8436    1.5186    1.3610 N   0  0  0  0  0  2  0  0  0  0  0  0
    4.5189    0.4282   -0.2447 N   0  3  0  0  0  0  0  0  0  0  0  0
    2.1005   -0.8083    1.1806 O   0  0  0  0  0  0  0  0  0  0  0  0
   -1.6902    1.9070    0.6865 C   0  0  0  0  0  0  0  0  0  0  0  0
   -2.7388    2.8728    0.7608 C   0  0  0  0  0  0  0  0  0  0  0  0
   -2.5310    3.8649    1.1878 H   0  0  0  0  0  0  0  0  0  0  0  0
   -3.9955    2.5373    0.2923 C   0  0  0  0  0  0  0  0  0  0  0  0
   -4.8240    3.2619    0.3331 H   0  0  0  0  0  0  0  0  0  0  0  0
   -4.2309    1.2413   -0.2480 C   0  0  0  0  0  0  0  0  0  0  0  0
   -5.4948    0.8209   -0.7484 C   0  0  0  0  0  3  0  0  0  0  0  0
   -6.3384    1.5282   -0.7233 H   0  0  0  0  0  0  0  0  0  0  0  0
   -5.6557   -0.4603   -1.2558 C   0  0  0  0  0  0  0  0  0  0  0  0
   -6.6357   -0.7811   -1.6399 H   0  0  0  0  0  0  0  0  0  0  0  0
   -4.5604   -1.3676   -1.2764 C   0  0  0  0  0  0  0  0  0  0  0  0
   -4.7072   -2.3848   -1.6699 H   0  0  0  0  0  0  0  0  0  0  0  0
   -3.3130   -0.9937   -0.8013 C   0  0  0  0  0  0  0  0  0  0  0  0
   -2.4637   -1.6925   -0.7732 H   0  0  0  0  0  0  0  0  0  0  0  0
   -3.1183    0.3197   -0.2808 C   0  0  0  0  0  0  0  0  0  0  0  0
   -0.3409    2.2191    1.1536 C   0  0  0  0  0  3  0  0  0  0  0  0
   -0.0850    3.2320    1.5164 H   0  0  0  0  0  0  0  0  0  0  0  0
    2.5454    0.3598    1.2939 C   0  0  0  0  0  0  0  0  0  0  0  0
    4.0518    0.5829    1.2083 C   0  0  0  0  0  0  0  0  0  0  0  0
    4.6078   -0.1701    1.7984 H   0  0  0  0  0  0  0  0  0  0  0  0
    4.3131    1.6087    1.5258 H   0  0  0  0  0  0  0  0  0  0  0  0
    5.9572    0.8292   -0.3334 C   0  0  0  0  0  0  0  0  0  0  0  0
    6.5473    0.2177    0.3728 H   0  0  0  0  0  0  0  0  0  0  0  0
    6.0515    1.8993   -0.0747 H   0  0  0  0  0  0  0  0  0  0  0  0
    6.3104    0.6563   -1.3663 H   0  0  0  0  0  0  0  0  0  0  0  0
    4.3733   -1.0105   -0.6883 C   0  0  0  0  0  0  0  0  0  0  0  0
    4.4672   -1.0547   -1.7876 H   0  0  0  0  0  0  0  0  0  0  0  0
    3.3717   -1.3586   -0.3762 H   0  0  0  0  0  0  0  0  0  0  0  0
    5.1529   -1.6074   -0.1820 H   0  0  0  0  0  0  0  0  0  0  0  0
    3.7020    1.3220   -1.1423 C   0  0  0  0  0  0  0  0  0  0  0  0
    4.0788    1.2165   -2.1742 H   0  0  0  0  0  0  0  0  0  0  0  0
    3.7865    2.3595   -0.7745 H   0  0  0  0  0  0  0  0  0  0  0  0
    2.6454    0.9984   -1.1045 H   0  0  0  0  0  0  0  0  0  0  0  0
  1  6  1  0  0  0  0
  2 21  1  0  0  0  0
  2  3  1  0  0  0  0
  4 24  1  0  0  0  0
  5 23  2  0  0  0  0
  6  7  2  0  0  0  0
  6 21  1  0  0  0  0
  7  8  1  0  0  0  0
  9 10  1  0  0  0  0
  9  7  1  0  0  0  0
 11  9  2  0  0  0  0
 12 13  1  0  0  0  0
 12 11  1  0  0  0  0
 14 12  1  0  0  0  0
 15 14  1  0  0  0  0
 16 14  2  0  0  0  0
 16 18  1  0  0  0  0
 17 16  1  0  0  0  0
 18 19  1  0  0  0  0
 18 20  2  0  0  0  0
 20 11  1  0  0  0  0
 20  1  1  0  0  0  0
 21 22  1  0  0  0  0
 23  3  1  0  0  0  0
 24 23  1  0  0  0  0
 24 26  1  0  0  0  0
 24 25  1  0  0  0  0
 27  4  1  0  0  0  0
 27 29  1  0  0  0  0
 27 28  1  0  0  0  0
 30 27  1  0  0  0  0
 31 33  1  0  0  0  0
 31  4  1  0  0  0  0
 31 34  1  0  0  0  0
 32 31  1  0  0  0  0
 35 38  1  0  0  0  0
 35 37  1  0  0  0  0
 35  4  1  0  0  0  0
 36 35  1  0  0  0  0
M  CHG  1   4   1
M  END
