14,16
q = 0.0, confidence = 0.998

 17 18  0  0  1  0  0  0  0  0999 V2000
   -3.0525    2.0129    1.7506 C   0  0  0  0  0  3  0  0  0  0  0  0
   -4.1461    2.0304    1.7550 H   0  0  0  0  0  0  0  0  0  0  0  0
   -2.0808    2.8362    2.2951 C   0  0  0  0  0  0  0  0  0  0  0  0
   -2.2400    3.7417    2.8893 H   0  0  0  0  0  0  0  0  0  0  0  0
   -0.8415    2.2507    1.9018 C   0  0  0  0  0  0  0  0  0  0  0  0
    0.1810    2.5913    2.1052 H   0  0  0  0  0  0  0  0  0  0  0  0
   -2.9171   -0.0355    0.3249 C   0  0  1  0  0  3  0  0  0  0  0  0
   -4.7169   -1.1628   -0.4558 C   0  0  0  0  0  0  0  0  0  0  0  0
   -5.8149   -1.2677   -0.4992 H   0  0  0  0  0  0  0  0  0  0  0  0
   -3.8773   -2.0462   -1.1534 C   0  0  0  0  0  0  0  0  0  0  0  0
   -4.2817   -2.8660   -1.7625 H   0  0  0  0  0  0  0  0  0  0  0  0
   -2.4977   -1.8236   -1.0498 C   0  0  0  0  0  0  0  0  0  0  0  0
   -1.7141   -2.4097   -1.5684 H   0  0  0  0  0  0  0  0  0  0  0  0
   -1.0334    1.1506    1.1794 N   0  0  0  0  0  2  0  0  0  0  0  0
   -2.3771    1.0095    1.0947 N   0  0  1  0  0  0  0  0  0  0  0  0
   -2.0234   -0.8138   -0.3019 N   0  0  0  0  0  2  0  0  0  0  0  0
   -4.2460   -0.1521    0.2921 N   0  0  0  0  0  0  0  0  0  0  0  0
  1  2  1  0  0  0  0
  1  3  1  0  0  0  0
  3  4  1  0  0  0  0
  5  6  1  0  0  0  0
  5  3  2  0  0  0  0
  7 16  1  1  0  0  0
  7 15  1  0  0  0  0
  8 17  2  0  0  0  0
  9  8  1  0  0  0  0
 10 12  2  0  0  0  0
 10  8  1  0  0  0  0
 11 10  1  0  0  0  0
 12 16  1  0  0  0  0
 13 12  1  0  0  0  0
 14  5  1  0  0  0  0
 15 14  1  6  0  0  0
 15  1  1  0  0  0  0
 17  7  1  0  0  0  0
M  END
