1,2
q = -1.0, confidence = 0.0

 38 41  0  0  0  0  0  0  0  0999 V2000
    0.3762   -2.1847    0.3252 N   0  0  0  0  0  2  0  0  0  0  0  0
   -0.2351    0.4283    0.1125 N   0  0  0  0  0  0  0  0  0  0  0  0
    0.5638   -3.4950    0.5752 C   0  0  0  0  0  3  0  0  0  0  0  0
   -0.3367   -4.1268    0.5400 H   0  0  0  0  0  0  0  0  0  0  0  0
    1.8171   -4.0343    0.8606 C   0  0  0  0  0  0  0  0  0  0  0  0
    1.9237   -5.1093    1.0590 H   0  0  0  0  0  0  0  0  0  0  0  0
    2.9195   -3.1550    0.8943 C   0  0  0  0  0  0  0  0  0  0  0  0
    3.9253   -3.5322    1.1338 H   0  0  0  0  0  0  0  0  0  0  0  0
    2.7338   -1.8011    0.6351 C   0  0  0  0  0  0  0  0  0  0  0  0
    3.5761   -1.0997    0.6744 H   0  0  0  0  0  0  0  0  0  0  0  0
    1.4359   -1.3055    0.3343 C   0  0  0  0  0  0  0  0  0  0  0  0
    1.1088    0.0794    0.0981 C   0  0  0  0  0  3  0  0  0  0  0  0
    1.9037    1.2619   -0.0112 C   0  0  0  0  0  0  0  0  0  0  0  0
    3.3674    1.4038   -0.1247 C   0  0  0  0  0  0  0  0  0  0  0  0
    4.1113    0.6418   -1.0571 C   0  0  0  0  0  0  0  0  0  0  0  0
    3.5820   -0.0767   -1.7014 H   0  0  0  0  0  0  0  0  0  0  0  0
    5.4972    0.8092   -1.1822 C   0  0  0  0  0  0  0  0  0  0  0  0
    6.0546    0.2086   -1.9175 H   0  0  0  0  0  0  0  0  0  0  0  0
    6.1714    1.7501   -0.3862 C   0  0  0  0  0  0  0  0  0  0  0  0
    7.2593    1.8830   -0.4862 H   0  0  0  0  0  0  0  0  0  0  0  0
    5.4450    2.5243    0.5327 C   0  0  0  0  0  0  0  0  0  0  0  0
    5.9638    3.2654    1.1602 H   0  0  0  0  0  0  0  0  0  0  0  0
    4.0594    2.3533    0.6622 C   0  0  0  0  0  0  0  0  0  0  0  0
    3.4937    2.9500    1.3937 H   0  0  0  0  0  0  0  0  0  0  0  0
    0.9835    2.3336   -0.0328 C   0  0  0  0  0  0  0  0  0  0  0  0
    1.2340    3.3996   -0.0859 H   0  0  0  0  0  0  0  0  0  0  0  0
   -0.3219    1.7900    0.0531 C   0  0  0  0  0  0  0  0  0  0  0  0
   -1.5758    2.5435    0.1917 C   0  0  0  0  0  0  0  0  0  0  0  0
   -2.5774    2.1287    1.1006 C   0  0  0  0  0  0  0  0  0  0  0  0
   -2.4131    1.2156    1.6917 H   0  0  0  0  0  0  0  0  0  0  0  0
   -3.7538    2.8717    1.2574 C   0  0  0  0  0  0  0  0  0  0  0  0
   -4.5214    2.5331    1.9703 H   0  0  0  0  0  0  0  0  0  0  0  0
   -3.9516    4.0506    0.5192 C   0  0  0  0  0  0  0  0  0  0  0  0
   -4.8762    4.6343    0.6441 H   0  0  0  0  0  0  0  0  0  0  0  0
   -2.9585    4.4818   -0.3755 C   0  0  0  0  0  0  0  0  0  0  0  0
   -3.1053    5.4036   -0.9592 H   0  0  0  0  0  0  0  0  0  0  0  0
   -1.7820    3.7377   -0.5373 C   0  0  0  0  0  0  0  0  0  0  0  0
   -1.0135    4.0668   -1.2531 H   0  0  0  0  0  0  0  0  0  0  0  0
  1 11  1  0  0  0  0
  1  3  1  0  0  0  0
  3  5  1  0  0  0  0
  4  3  1  0  0  0  0
  5  7  2  0  0  0  0
  5  6  1  0  0  0  0
  7  8  1  0  0  0  0
  9 10  1  0  0  0  0
  9  7  1  0  0  0  0
 11  9  2  0  0  0  0
 12  2  1  0  0  0  0
 12 11  1  0  0  0  0
 13 12  1  0  0  0  0
 14 13  1  0  0  0  0
 14 23  1  0  0  0  0
 15 14  2  0  0  0  0
 16 15  1  0  0  0  0
 17 15  1  0  0  0  0
 17 19  2  0  0  0  0
 18 17  1  0  0  0  0
 19 21  1  0  0  0  0
 20 19  1  0  0  0  0
 21 23  2  0  0  0  0
 21 22  1  0  0  0  0
 23 24  1  0  0  0  0
 25 13  2  0  0  0  0
 25 27  1  0  0  0  0
 26 25  1  0  0  0  0
 27  2  2  0  0  0  0
 27 28  1  0  0  0  0
 28 29  1  0  0  0  0
 29 31  2  0  0  0  0
 29 30  1  0  0  0  0
 31 32  1  0  0  0  0
 33 34  1  0  0  0  0
 33 31  1  0  0  0  0
 35 33  2  0  0  0  0
 36 35  1  0  0  0  0
 37 35  1  0  0  0  0
 37 28  2  0  0  0  0
 38 37  1  0  0  0  0
M  END
