1,4
q = 0.0, confidence = 0.968

 27 28  0  0  0  0  0  0  0  0999 V2000
   -2.0248    1.0246    0.0780 N   0  0  0  0  0  2  0  0  0  0  0  0
   -2.1370    3.2477    0.2790 N   0  0  0  0  0  0  0  0  0  0  0  0
    0.0358    2.1798    0.0027 N   0  0  0  0  0  0  0  0  0  0  0  0
    0.4728    0.9770   -0.2170 N   0  0  0  0  0  2  0  0  0  0  0  0
   -3.3433    1.3713    0.1639 C   0  0  0  0  0  0  0  0  0  0  0  0
   -4.1542    0.6376    0.1216 H   0  0  0  0  0  0  0  0  0  0  0  0
   -3.4224    2.7568    0.2959 C   0  0  0  0  0  0  0  0  0  0  0  0
   -4.2916    3.4140    0.4017 H   0  0  0  0  0  0  0  0  0  0  0  0
   -1.3055    2.1713    0.1354 C   0  0  0  0  0  0  0  0  0  0  0  0
    1.8729    0.8527   -0.3863 C   0  0  0  0  0  0  0  0  0  0  0  0
    2.3740   -0.0448   -1.3526 C   0  0  0  0  0  0  0  0  0  0  0  0
    1.6632   -0.5839   -1.9953 H   0  0  0  0  0  0  0  0  0  0  0  0
    3.7555   -0.1651   -1.5264 C   0  0  0  0  0  0  0  0  0  0  0  0
    4.1426   -0.8459   -2.2999 H   0  0  0  0  0  0  0  0  0  0  0  0
    4.6651    0.5792   -0.7418 C   0  0  0  0  0  0  0  0  0  0  0  0
    4.1369    1.4738    0.2194 C   0  0  0  0  0  0  0  0  0  0  0  0
    4.8264    2.0581    0.8481 H   0  0  0  0  0  0  0  0  0  0  0  0
    2.7607    1.6283    0.3912 C   0  0  0  0  0  0  0  0  0  0  0  0
    2.3536    2.3238    1.1382 H   0  0  0  0  0  0  0  0  0  0  0  0
   -1.7165    4.6421    0.3517 C   0  0  0  0  0  0  0  0  0  0  0  0
   -0.6170    4.6769    0.2555 H   0  0  0  0  0  0  0  0  0  0  0  0
   -2.0172    5.0828    1.3217 H   0  0  0  0  0  0  0  0  0  0  0  0
   -2.1735    5.2192   -0.4747 H   0  0  0  0  0  0  0  0  0  0  0  0
    6.1494    0.4538   -0.9412 C   0  0  0  0  0  0  0  0  0  0  0  0
    6.6977    0.5161    0.0193 H   0  0  0  0  0  0  0  0  0  0  0  0
    6.5244    1.2837   -1.5786 H   0  0  0  0  0  0  0  0  0  0  0  0
    6.4207   -0.4942   -1.4431 H   0  0  0  0  0  0  0  0  0  0  0  0
  1  9  1  0  0  0  0
  1  5  1  0  0  0  0
  2  7  1  0  0  0  0
  2 20  1  0  0  0  0
  3  9  2  0  0  0  0
  4  3  1  0  0  0  0
  5  7  2  0  0  0  0
  6  5  1  0  0  0  0
  7  8  1  0  0  0  0
  9  2  1  0  0  0  0
 10  4  1  0  0  0  0
 10 18  1  0  0  0  0
 11 10  2  0  0  0  0
 12 11  1  0  0  0  0
 13 11  1  0  0  0  0
 13 15  2  0  0  0  0
 14 13  1  0  0  0  0
 15 16  1  0  0  0  0
 16 18  2  0  0  0  0
 16 17  1  0  0  0  0
 18 19  1  0  0  0  0
 20 22  1  0  0  0  0
 21 20  1  0  0  0  0
 23 20  1  0  0  0  0
 24 15  1  0  0  0  0
 24 25  1  0  0  0  0
 26 24  1  0  0  0  0
 27 24  1  0  0  0  0
M  END
