1,2
q = 0.0, confidence = 0.998

 33 35  0  0  1  0  0  0  0  0999 V2000
    1.1752    0.4720   -0.1582 N   0  0  0  0  0  2  0  0  0  0  0  0
   -1.3930    1.2588   -0.1211 N   0  0  0  0  0  2  0  0  0  0  0  0
    2.6755   -1.4027   -0.2224 C   0  0  0  0  0  0  0  0  0  0  0  0
    1.8031   -2.0692   -0.3062 H   0  0  0  0  0  0  0  0  0  0  0  0
    3.9731   -1.8875   -0.2100 C   0  0  0  0  0  0  0  0  0  0  0  0
    4.1489   -2.9724   -0.2595 H   0  0  0  0  0  0  0  0  0  0  0  0
    5.0842   -0.9998   -0.1403 C   0  0  0  0  0  0  0  0  0  0  0  0
    6.1047   -1.4107   -0.1282 H   0  0  0  0  0  0  0  0  0  0  0  0
    4.8913    0.3730   -0.0967 C   0  0  0  0  0  0  0  0  0  0  0  0
    5.7487    1.0619   -0.0530 H   0  0  0  0  0  0  0  0  0  0  0  0
    3.5734    0.9112   -0.1107 C   0  0  0  0  0  0  0  0  0  0  0  0
    2.4519    0.0030   -0.1603 C   0  0  1  0  0  3  0  0  0  0  0  0
    3.2911    2.3053   -0.0847 C   0  0  0  0  0  0  0  0  0  0  0  0
    4.1254    3.0228   -0.0476 H   0  0  0  0  0  0  0  0  0  0  0  0
    1.9779    2.7484   -0.1111 C   0  0  0  0  0  0  0  0  0  0  0  0
    1.7339    3.8206   -0.0998 H   0  0  0  0  0  0  0  0  0  0  0  0
    0.9312    1.7869   -0.1415 C   0  0  0  0  0  0  0  0  0  0  0  0
   -0.4934    2.1759   -0.1574 C   0  0  0  0  0  3  0  0  0  0  0  0
   -0.7509    3.2555   -0.2032 H   0  0  0  0  0  0  0  0  0  0  0  0
   -2.8158    1.5371   -0.1604 C   0  0  0  0  0  0  0  0  0  0  0  0
   -2.9795    2.6383   -0.1618 H   0  0  0  0  0  0  0  0  0  0  0  0
   -3.5182    0.8562    1.0525 C   0  0  0  0  0  0  0  0  0  0  0  0
   -2.8136    0.6863    1.8912 H   0  0  0  0  0  0  0  0  0  0  0  0
   -4.3272    1.5305    1.4028 H   0  0  0  0  0  0  0  0  0  0  0  0
   -4.1076   -0.4432    0.4884 C   0  0  0  0  0  0  0  0  0  0  0  0
   -3.3154   -1.2193    0.4107 H   0  0  0  0  0  0  0  0  0  0  0  0
   -4.9091   -0.8625    1.1286 H   0  0  0  0  0  0  0  0  0  0  0  0
   -4.5770   -0.0359   -0.9132 C   0  0  0  0  0  0  0  0  0  0  0  0
   -5.5214    0.5472   -0.8451 H   0  0  0  0  0  0  0  0  0  0  0  0
   -4.7639   -0.8997   -1.5811 H   0  0  0  0  0  0  0  0  0  0  0  0
   -3.4281    0.8507   -1.4280 C   0  0  0  0  0  0  0  0  0  0  0  0
   -3.7349    1.5978   -2.1862 H   0  0  0  0  0  0  0  0  0  0  0  0
   -2.6486    0.2049   -1.8834 H   0  0  0  0  0  0  0  0  0  0  0  0
  1 17  1  0  0  0  0
  3  5  2  0  0  0  0
  4  3  1  0  0  0  0
  5  7  1  0  0  0  0
  6  5  1  0  0  0  0
  7  8  1  0  0  0  0
  7  9  2  0  0  0  0
  9 10  1  0  0  0  0
 11  9  1  0  0  0  0
 11 13  2  0  0  0  0
 12  3  1  6  0  0  0
 12  1  1  0  0  0  0
 12 11  1  0  0  0  0
 13 14  1  0  0  0  0
 15 16  1  0  0  0  0
 15 13  1  0  0  0  0
 17 15  2  0  0  0  0
 18 17  1  0  0  0  0
 18  2  1  0  0  0  0
 19 18  1  0  0  0  0
 20  2  1  0  0  0  0
 20 22  1  0  0  0  0
 21 20  1  0  0  0  0
 22 24  1  0  0  0  0
 22 23  1  0  0  0  0
 25 22  1  0  0  0  0
 25 27  1  0  0  0  0
 26 25  1  0  0  0  0
 28 29  1  0  0  0  0
 28 25  1  0  0  0  0
 30 28  1  0  0  0  0
 31 28  1  0  0  0  0
 31 20  1  0  0  0  0
 32 31  1  0  0  0  0
 33 31  1  0  0  0  0
M  END
