1,2
q = 0.0, confidence = 1.0

 30 31  0  0  0  0  0  0  0  0999 V2000
   -2.1663   -0.0828   -0.3350 N   0  0  0  0  0  2  0  0  0  0  0  0
    0.3351   -0.9266    0.1705 N   0  0  0  0  0  2  0  0  0  0  0  0
   -3.4023    0.3924   -0.5242 C   0  0  0  0  0  3  0  0  0  0  0  0
   -3.4796    1.4599   -0.7863 H   0  0  0  0  0  0  0  0  0  0  0  0
   -4.5439   -0.4149   -0.3910 C   0  0  0  0  0  0  0  0  0  0  0  0
   -5.5421    0.0132   -0.5608 H   0  0  0  0  0  0  0  0  0  0  0  0
   -4.3786   -1.7615   -0.0382 C   0  0  0  0  0  0  0  0  0  0  0  0
   -5.2512   -2.4217    0.0764 H   0  0  0  0  0  0  0  0  0  0  0  0
   -3.0835   -2.2539    0.1751 C   0  0  0  0  0  0  0  0  0  0  0  0
   -2.9105   -3.3009    0.4649 H   0  0  0  0  0  0  0  0  0  0  0  0
   -1.9941   -1.3795    0.0207 C   0  0  0  0  0  0  0  0  0  0  0  0
   -0.6002   -1.8011    0.2582 C   0  0  0  0  0  3  0  0  0  0  0  0
   -0.4037   -2.8632    0.5189 H   0  0  0  0  0  0  0  0  0  0  0  0
    1.7396   -1.2350    0.3486 C   0  0  0  0  0  0  0  0  0  0  0  0
    1.8535   -2.2234    0.8584 H   0  0  0  0  0  0  0  0  0  0  0  0
    2.4034   -1.3116   -1.0460 C   0  0  0  0  0  0  0  0  0  0  0  0
    1.9368   -2.1364   -1.6250 H   0  0  0  0  0  0  0  0  0  0  0  0
    2.1682   -0.3646   -1.5800 H   0  0  0  0  0  0  0  0  0  0  0  0
    3.9178   -1.5150   -0.9234 C   0  0  0  0  0  0  0  0  0  0  0  0
    4.1232   -2.5151   -0.4784 H   0  0  0  0  0  0  0  0  0  0  0  0
    4.3682   -1.5262   -1.9376 H   0  0  0  0  0  0  0  0  0  0  0  0
    4.5704   -0.4316   -0.0550 C   0  0  0  0  0  0  0  0  0  0  0  0
    4.4647    0.5527   -0.5620 H   0  0  0  0  0  0  0  0  0  0  0  0
    5.6589   -0.6230    0.0458 H   0  0  0  0  0  0  0  0  0  0  0  0
    3.9058   -0.3560    1.3255 C   0  0  0  0  0  0  0  0  0  0  0  0
    4.0986   -1.2999    1.8845 H   0  0  0  0  0  0  0  0  0  0  0  0
    4.3511    0.4601    1.9306 H   0  0  0  0  0  0  0  0  0  0  0  0
    2.3969   -0.1310    1.1973 C   0  0  0  0  0  0  0  0  0  0  0  0
    2.2099    0.8403    0.6870 H   0  0  0  0  0  0  0  0  0  0  0  0
    1.8932   -0.0639    2.1825 H   0  0  0  0  0  0  0  0  0  0  0  0
  1 11  1  0  0  0  0
  2 12  1  0  0  0  0
  2 14  1  0  0  0  0
  3  5  1  0  0  0  0
  3  1  1  0  0  0  0
  4  3  1  0  0  0  0
  5  7  2  0  0  0  0
  6  5  1  0  0  0  0
  7  8  1  0  0  0  0
  7  9  1  0  0  0  0
  9 10  1  0  0  0  0
 11  9  2  0  0  0  0
 11 12  1  0  0  0  0
 12 13  1  0  0  0  0
 14 15  1  0  0  0  0
 14 28  1  0  0  0  0
 16 19  1  0  0  0  0
 16 14  1  0  0  0  0
 17 16  1  0  0  0  0
 18 16  1  0  0  0  0
 19 20  1  0  0  0  0
 19 22  1  0  0  0  0
 21 19  1  0  0  0  0
 22 24  1  0  0  0  0
 22 25  1  0  0  0  0
 23 22  1  0  0  0  0
 25 26  1  0  0  0  0
 25 27  1  0  0  0  0
 28 25  1  0  0  0  0
 28 30  1  0  0  0  0
 29 28  1  0  0  0  0
M  END
