1,12
q = 0.0, confidence = 1.0

 22 23  0  0  0  0  0  0  0  0999 V2000
   -1.3190   -0.4051   -0.0002 N   0  0  0  0  0  2  0  0  0  0  0  0
   -4.8372   -1.1590   -0.0004 O   0  0  0  0  0  0  0  0  0  0  0  0
   -5.3161   -2.0089   -0.0002 H   0  0  0  0  0  0  0  0  0  0  0  0
   -3.5076   -1.3931   -0.0002 C   0  0  0  0  0  0  0  0  0  0  0  0
   -0.7329   -1.6445    0.0000 C   0  0  0  0  0  0  0  0  0  0  0  0
   -2.6536   -0.2720   -0.0004 C   0  0  0  0  0  0  0  0  0  0  0  0
   -3.0323    0.7659   -0.0006 H   0  0  0  0  0  0  0  0  0  0  0  0
   -1.5387   -2.7959    0.0002 C   0  0  0  0  0  0  0  0  0  0  0  0
   -1.0762   -3.7920    0.0005 H   0  0  0  0  0  0  0  0  0  0  0  0
   -2.9304   -2.6790    0.0001 C   0  0  0  0  0  0  0  0  0  0  0  0
   -3.5655   -3.5791    0.0003 H   0  0  0  0  0  0  0  0  0  0  0  0
    1.3191   -0.4050    0.0003 N   0  0  0  0  0  2  0  0  0  0  0  0
    4.8373   -1.1586    0.0003 O   0  0  0  0  0  0  0  0  0  0  0  0
    5.3163   -2.0086    0.0000 H   0  0  0  0  0  0  0  0  0  0  0  0
    3.5078   -1.3928    0.0002 C   0  0  0  0  0  0  0  0  0  0  0  0
    0.7331   -1.6444    0.0001 C   0  0  0  0  0  0  0  0  0  0  0  0
    2.6537   -0.2718    0.0004 C   0  0  0  0  0  0  0  0  0  0  0  0
    3.0324    0.7661    0.0006 H   0  0  0  0  0  0  0  0  0  0  0  0
    1.5390   -2.7958   -0.0002 C   0  0  0  0  0  0  0  0  0  0  0  0
    1.0766   -3.7920   -0.0006 H   0  0  0  0  0  0  0  0  0  0  0  0
    2.9307   -2.6788   -0.0002 C   0  0  0  0  0  0  0  0  0  0  0  0
    3.5658   -3.5789   -0.0005 H   0  0  0  0  0  0  0  0  0  0  0  0
  1  5  1  0  0  0  0
  2  4  1  0  0  0  0
  2  3  1  0  0  0  0
  4 10  1  0  0  0  0
  5 16  2  0  0  0  0
  5  8  1  0  0  0  0
  6  1  1  0  0  0  0
  6  4  2  0  0  0  0
  7  6  1  0  0  0  0
  8  9  1  0  0  0  0
 10  8  2  0  0  0  0
 10 11  1  0  0  0  0
 12 17  1  0  0  0  0
 14 13  1  0  0  0  0
 15 13  1  0  0  0  0
 15 17  2  0  0  0  0
 16 12  1  0  0  0  0
 17 18  1  0  0  0  0
 19 21  2  0  0  0  0
 19 16  1  0  0  0  0
 20 19  1  0  0  0  0
 21 15  1  0  0  0  0
 22 21  1  0  0  0  0
M  END
