1,3
q = -1.0

 31 32  0  0  0  0  0  0  0  0999 V2000
    1.5267   -1.1183    0.3956 N   0  0  0  0  0  2  0  0  0  0  0  0
    0.6759   -1.8632    1.0480 N   0  0  0  0  0  2  0  0  0  0  0  0
   -0.4870   -1.6053    0.5101 N   0  0  0  0  0  2  0  0  0  0  0  0
    2.8968   -1.2085    0.6363 C   0  0  0  0  0  0  0  0  0  0  0  0
    3.4195   -2.0715    1.6296 C   0  0  0  0  0  0  0  0  0  0  0  0
    2.7293   -2.7044    2.2021 H   0  0  0  0  0  0  0  0  0  0  0  0
    4.7937   -2.0961    1.8725 C   0  0  0  0  0  0  0  0  0  0  0  0
    5.1841   -2.7720    2.6504 H   0  0  0  0  0  0  0  0  0  0  0  0
    5.6959   -1.2828    1.1489 C   0  0  0  0  0  0  0  0  0  0  0  0
    5.1573   -0.4342    0.1620 C   0  0  0  0  0  0  0  0  0  0  0  0
    5.8309    0.2101   -0.4245 H   0  0  0  0  0  0  0  0  0  0  0  0
    3.7821   -0.3940   -0.0977 C   0  0  0  0  0  0  0  0  0  0  0  0
    3.3855    0.2730   -0.8744 H   0  0  0  0  0  0  0  0  0  0  0  0
    7.1793   -1.3522    1.4056 C   0  0  0  0  0  0  0  0  0  0  0  0
    7.7100   -0.4804    0.9758 H   0  0  0  0  0  0  0  0  0  0  0  0
    7.6224   -2.2649    0.9514 H   0  0  0  0  0  0  0  0  0  0  0  0
    7.4057   -1.3931    2.4906 H   0  0  0  0  0  0  0  0  0  0  0  0
   -1.6341   -2.2307    1.0049 C   0  0  0  0  0  0  0  0  0  0  0  0
   -1.7272   -2.6727    2.3442 C   0  0  0  0  0  0  0  0  0  0  0  0
   -0.8667   -2.5345    3.0135 H   0  0  0  0  0  0  0  0  0  0  0  0
   -2.9151   -3.2525    2.7988 C   0  0  0  0  0  0  0  0  0  0  0  0
   -2.9815   -3.5865    3.8469 H   0  0  0  0  0  0  0  0  0  0  0  0
   -4.0378   -3.4040    1.9548 C   0  0  0  0  0  0  0  0  0  0  0  0
   -3.9233   -2.9547    0.6222 C   0  0  0  0  0  0  0  0  0  0  0  0
   -4.7805   -3.0638   -0.0609 H   0  0  0  0  0  0  0  0  0  0  0  0
   -2.7410   -2.3802    0.1425 C   0  0  0  0  0  0  0  0  0  0  0  0
   -2.6533   -2.0355   -0.8987 H   0  0  0  0  0  0  0  0  0  0  0  0
   -5.3032   -4.0520    2.4557 C   0  0  0  0  0  0  0  0  0  0  0  0
   -5.2464   -5.1590    2.3692 H   0  0  0  0  0  0  0  0  0  0  0  0
   -6.1882   -3.7258    1.8747 H   0  0  0  0  0  0  0  0  0  0  0  0
   -5.4864   -3.8214    3.5243 H   0  0  0  0  0  0  0  0  0  0  0  0
  1  4  1  0  0  0  0
  1  2  1  0  0  0  0
  3 18  1  0  0  0  0
  3  2  1  0  0  0  0
  4  5  1  0  0  0  0
  5  7  2  0  0  0  0
  5  6  1  0  0  0  0
  7  8  1  0  0  0  0
  9 14  1  0  0  0  0
  9  7  1  0  0  0  0
 10  9  2  0  0  0  0
 11 10  1  0  0  0  0
 12 10  1  0  0  0  0
 12  4  2  0  0  0  0
 13 12  1  0  0  0  0
 14 17  1  0  0  0  0
 15 14  1  0  0  0  0
 16 14  1  0  0  0  0
 18 19  1  0  0  0  0
 19 21  2  0  0  0  0
 19 20  1  0  0  0  0
 21 22  1  0  0  0  0
 23 28  1  0  0  0  0
 23 21  1  0  0  0  0
 24 23  2  0  0  0  0
 25 24  1  0  0  0  0
 26 24  1  0  0  0  0
 26 18  2  0  0  0  0
 27 26  1  0  0  0  0
 28 31  1  0  0  0  0
 29 28  1  0  0  0  0
 30 28  1  0  0  0  0
M  END
