4,5
q = 0.0, confidence = 0.98

 36 38  0  0  1  0  0  0  0  0999 V2000
   -5.9633   -0.3337    0.6760 S   0  0  0  0  0  0  0  0  0  0  0  0
   -6.0316    0.5167    1.8824 O   0  0  0  0  0  0  0  0  0  0  0  0
   -6.2172   -1.7912    0.7076 O   0  0  0  0  0  0  0  0  0  0  0  0
   -0.1410   -2.1088   -1.4183 N   0  0  0  0  0  2  0  0  0  0  0  0
   -1.5759    0.0240   -0.6444 N   0  0  0  0  0  2  0  0  0  0  0  0
    0.6472   -3.0653   -1.9515 C   0  0  0  0  0  3  0  0  0  0  0  0
    1.7313   -2.8824   -1.8892 H   0  0  0  0  0  0  0  0  0  0  0  0
    0.1208   -4.2256   -2.5286 C   0  0  0  0  0  0  0  0  0  0  0  0
    0.7983   -4.9792   -2.9538 H   0  0  0  0  0  0  0  0  0  0  0  0
   -1.2713   -4.4020   -2.5412 C   0  0  0  0  0  0  0  0  0  0  0  0
   -1.7194   -5.3043   -2.9821 H   0  0  0  0  0  0  0  0  0  0  0  0
   -2.0872   -3.4090   -1.9874 C   0  0  0  0  0  0  0  0  0  0  0  0
   -3.1796   -3.5190   -1.9985 H   0  0  0  0  0  0  0  0  0  0  0  0
   -1.4948   -2.2596   -1.4331 C   0  0  0  0  0  0  0  0  0  0  0  0
   -2.2715   -1.1340   -0.8677 C   0  0  1  0  0  3  0  0  0  0  0  0
   -3.6345   -1.2432   -0.5488 C   0  0  0  0  0  0  0  0  0  0  0  0
   -4.1958   -2.1805   -0.6675 H   0  0  0  0  0  0  0  0  0  0  0  0
   -4.2643   -0.1376    0.0267 C   0  0  0  0  0  0  0  0  0  0  0  0
   -3.5798    1.0671    0.1909 C   0  0  0  0  0  0  0  0  0  0  0  0
   -4.0764    1.9516    0.6153 H   0  0  0  0  0  0  0  0  0  0  0  0
   -2.2339    1.1417   -0.2249 C   0  0  0  0  0  0  0  0  0  0  0  0
   -1.5507    2.4522   -0.3023 C   0  0  0  0  0  0  0  0  0  0  0  0
   -1.5063    3.3313    0.8000 C   0  0  0  0  0  0  0  0  0  0  0  0
   -1.9040    3.0090    1.7740 H   0  0  0  0  0  0  0  0  0  0  0  0
   -0.9186    4.5952    0.6632 C   0  0  0  0  0  0  0  0  0  0  0  0
   -0.8604    5.2656    1.5331 H   0  0  0  0  0  0  0  0  0  0  0  0
   -0.4072    5.0069   -0.5792 C   0  0  0  0  0  0  0  0  0  0  0  0
    0.0453    6.0040   -0.6841 H   0  0  0  0  0  0  0  0  0  0  0  0
   -0.4766    4.1467   -1.6861 C   0  0  0  0  0  0  0  0  0  0  0  0
   -0.0936    4.4706   -2.6652 H   0  0  0  0  0  0  0  0  0  0  0  0
   -1.0349    2.8691   -1.5489 C   0  0  0  0  0  0  0  0  0  0  0  0
   -1.0953    2.1936   -2.4149 H   0  0  0  0  0  0  0  0  0  0  0  0
   -7.0136    0.3949   -0.5989 C   0  0  0  0  0  0  0  0  0  0  0  0
   -8.0444    0.2822   -0.2104 H   0  0  0  0  0  0  0  0  0  0  0  0
   -6.8894   -0.1718   -1.5394 H   0  0  0  0  0  0  0  0  0  0  0  0
   -6.7605    1.4641   -0.7179 H   0  0  0  0  0  0  0  0  0  0  0  0
  1  3  2  0  0  0  0
  1  2  2  0  0  0  0
  5 21  1  0  0  0  0
  6  7  1  0  0  0  0
  6  4  1  0  0  0  0
  8  6  1  0  0  0  0
  9  8  1  0  0  0  0
 10  8  2  0  0  0  0
 10 12  1  0  0  0  0
 11 10  1  0  0  0  0
 12 14  2  0  0  0  0
 13 12  1  0  0  0  0
 14  4  1  0  0  0  0
 15 14  1  1  0  0  0
 15  5  1  0  0  0  0
 15 16  1  0  0  0  0
 16 18  2  0  0  0  0
 17 16  1  0  0  0  0
 18 19  1  0  0  0  0
 18  1  1  0  0  0  0
 19 20  1  0  0  0  0
 21 19  2  0  0  0  0
 22 21  1  0  0  0  0
 22 23  1  0  0  0  0
 23 24  1  0  0  0  0
 25 23  2  0  0  0  0
 25 26  1  0  0  0  0
 27 25  1  0  0  0  0
 28 27  1  0  0  0  0
 29 31  1  0  0  0  0
 29 27  2  0  0  0  0
 30 29  1  0  0  0  0
 31 22  2  0  0  0  0
 32 31  1  0  0  0  0
 33 34  1  0  0  0  0
 33  1  1  0  0  0  0
 35 33  1  0  0  0  0
 36 33  1  0  0  0  0
M  END
