3,4
q = 0.0, confidence = 0.978

 35 37  0  0  1  0  0  0  0  0999 V2000
   -6.1823   -0.5684    0.5749 S   0  0  2  0  0  0  0  0  0  0  0  0
   -6.5544    0.8977    0.5573 O   0  0  0  0  0  0  0  0  0  0  0  0
   -0.0370   -2.5846   -0.1230 N   0  0  0  0  0  2  0  0  0  0  0  0
   -1.6851   -0.4803   -0.5109 N   0  0  0  0  0  2  0  0  0  0  0  0
    0.8583   -3.5950   -0.0966 C   0  0  0  0  0  3  0  0  0  0  0  0
    1.9151   -3.2965   -0.0228 H   0  0  0  0  0  0  0  0  0  0  0  0
    0.4698   -4.9371   -0.1417 C   0  0  0  0  0  0  0  0  0  0  0  0
    1.2331   -5.7273   -0.1175 H   0  0  0  0  0  0  0  0  0  0  0  0
   -0.8978   -5.2408   -0.2195 C   0  0  0  0  0  0  0  0  0  0  0  0
   -1.2405   -6.2848   -0.2641 H   0  0  0  0  0  0  0  0  0  0  0  0
   -1.8243   -4.1924   -0.2483 C   0  0  0  0  0  0  0  0  0  0  0  0
   -2.8977   -4.4078   -0.3315 H   0  0  0  0  0  0  0  0  0  0  0  0
   -1.3690   -2.8615   -0.1987 C   0  0  0  0  0  0  0  0  0  0  0  0
   -2.2708   -1.6867   -0.2333 C   0  0  1  0  0  3  0  0  0  0  0  0
   -3.6432   -1.8002    0.0422 C   0  0  0  0  0  0  0  0  0  0  0  0
   -4.0834   -2.7751    0.2958 H   0  0  0  0  0  0  0  0  0  0  0  0
   -4.4161   -0.6346    0.0415 C   0  0  0  0  0  0  0  0  0  0  0  0
   -3.8311    0.5909   -0.2660 C   0  0  0  0  0  0  0  0  0  0  0  0
   -4.4605    1.4964   -0.2759 H   0  0  0  0  0  0  0  0  0  0  0  0
   -2.4613    0.6362   -0.5950 C   0  0  0  0  0  0  0  0  0  0  0  0
   -1.8859    1.9031   -1.1055 C   0  0  0  0  0  0  0  0  0  0  0  0
   -1.9860    3.0960   -0.3603 C   0  0  0  0  0  0  0  0  0  0  0  0
   -2.4248    3.0739    0.6488 H   0  0  0  0  0  0  0  0  0  0  0  0
   -1.5021    4.2985   -0.8928 C   0  0  0  0  0  0  0  0  0  0  0  0
   -1.5625    5.2208   -0.2967 H   0  0  0  0  0  0  0  0  0  0  0  0
   -0.9478    4.3292   -2.1827 C   0  0  0  0  0  0  0  0  0  0  0  0
   -0.5718    5.2755   -2.5982 H   0  0  0  0  0  0  0  0  0  0  0  0
   -0.8724    3.1496   -2.9395 C   0  0  0  0  0  0  0  0  0  0  0  0
   -0.4536    3.1715   -3.9565 H   0  0  0  0  0  0  0  0  0  0  0  0
   -1.3329    1.9416   -2.4016 C   0  0  0  0  0  0  0  0  0  0  0  0
   -1.2966    1.0216   -3.0000 H   0  0  0  0  0  0  0  0  0  0  0  0
   -6.8558   -1.3106   -0.9775 C   0  0  0  0  0  0  0  0  0  0  0  0
   -7.9554   -1.2949   -0.8558 H   0  0  0  0  0  0  0  0  0  0  0  0
   -6.4958   -2.3511   -1.0964 H   0  0  0  0  0  0  0  0  0  0  0  0
   -6.5510   -0.6678   -1.8245 H   0  0  0  0  0  0  0  0  0  0  0  0
  1  2  2  6  0  0  0
  3  5  1  0  0  0  0
  4 14  1  0  0  0  0
  5  6  1  0  0  0  0
  7  8  1  0  0  0  0
  7  5  1  0  0  0  0
  9  7  2  0  0  0  0
 10  9  1  0  0  0  0
 11  9  1  0  0  0  0
 11 13  2  0  0  0  0
 12 11  1  0  0  0  0
 13  3  1  0  0  0  0
 14 13  1  1  0  0  0
 14 15  1  0  0  0  0
 15 16  1  0  0  0  0
 17 15  2  0  0  0  0
 17  1  1  0  0  0  0
 18 17  1  0  0  0  0
 19 18  1  0  0  0  0
 20  4  1  0  0  0  0
 20 18  2  0  0  0  0
 21 20  1  0  0  0  0
 21 22  1  0  0  0  0
 22 23  1  0  0  0  0
 24 22  2  0  0  0  0
 24 25  1  0  0  0  0
 26 24  1  0  0  0  0
 27 26  1  0  0  0  0
 28 30  1  0  0  0  0
 28 26  2  0  0  0  0
 29 28  1  0  0  0  0
 30 21  2  0  0  0  0
 31 30  1  0  0  0  0
 32 33  1  0  0  0  0
 32  1  1  0  0  0  0
 34 32  1  0  0  0  0
 35 32  1  0  0  0  0
M  END
