5,6
q = 0.0, confidence = 0.98

 13 12  0  0  1  0  0  0  0  0999 V2000
    3.6653    1.1453   -0.0477 N   0  0  0  0  0  0  0  0  0  0  0  0
    1.1876    2.0366   -0.1107 O   0  0  0  0  0  0  0  0  0  0  0  0
    2.6125    0.2944    0.0211 C   0  0  1  0  0  3  0  0  0  0  0  0
    2.7739   -1.1859    0.1951 C   0  0  0  0  0  0  0  0  0  0  0  0
    1.3648    0.7275   -0.0202 N   0  0  0  0  0  2  0  0  0  0  0  0
    1.5036   -1.8266   -0.2486 N   0  0  0  0  0  0  0  0  0  0  0  0
    0.0001    2.1751   -0.0004 H   0  0  0  0  0  0  0  0  0  0  0  0
    1.4157   -2.7595    0.1802 H   0  0  0  0  0  0  0  0  0  0  0  0
    3.6510   -1.5698   -0.3699 H   0  0  0  0  0  0  0  0  0  0  0  0
    1.5465   -1.9880   -1.2681 H   0  0  0  0  0  0  0  0  0  0  0  0
    2.9354   -1.4407    1.2647 H   0  0  0  0  0  0  0  0  0  0  0  0
    4.6058    0.8449    0.1978 H   0  0  0  0  0  0  0  0  0  0  0  0
    3.4396    2.1427   -0.0114 H   0  0  0  0  0  0  0  0  0  0  0  0
  1 13  1  0  0  0  0
  1  3  1  0  0  0  0
  1 12  1  0  0  0  0
  2  5  1  0  0  0  0
  2  7  1  0  0  0  0
  3  5  1  1  0  0  0
  3  4  1  0  0  0  0
  4 11  1  0  0  0  0
  6  8  1  0  0  0  0
  6  4  1  0  0  0  0
  9  4  1  0  0  0  0
 10  6  1  0  0  0  0
M  END
