1,2
q = -1.0

 12 11  0  0  1  0  0  0  0  0999 V2000
   -1.3647    0.7275    0.0194 N   0  0  0  0  0  2  0  0  0  0  0  0
   -1.5036   -1.8268    0.2484 N   0  0  0  0  0  0  0  0  0  0  0  0
   -1.1875    2.0368    0.1100 O   0  0  0  0  0  1  0  0  0  0  0  0
   -3.6652    1.1454    0.0489 N   0  0  0  0  0  0  0  0  0  0  0  0
   -2.6124    0.2945   -0.0208 C   0  0  1  0  0  3  0  0  0  0  0  0
   -2.7741   -1.1858   -0.1945 C   0  0  0  0  0  0  0  0  0  0  0  0
   -1.5465   -1.9897    1.2677 H   0  0  0  0  0  0  0  0  0  0  0  0
   -1.4154   -2.7590   -0.1818 H   0  0  0  0  0  0  0  0  0  0  0  0
   -3.4395    2.1428    0.0127 H   0  0  0  0  0  0  0  0  0  0  0  0
   -4.6058    0.8451   -0.1963 H   0  0  0  0  0  0  0  0  0  0  0  0
   -3.6509   -1.5694    0.3711 H   0  0  0  0  0  0  0  0  0  0  0  0
   -2.9364   -1.4407   -1.2640 H   0  0  0  0  0  0  0  0  0  0  0  0
  1  3  1  0  0  0  0
  2  7  1  0  0  0  0
  5  1  1  6  0  0  0
  5  4  1  0  0  0  0
  6  5  1  0  0  0  0
  6  2  1  0  0  0  0
  6 11  1  0  0  0  0
  8  2  1  0  0  0  0
  9  4  1  0  0  0  0
 10  4  1  0  0  0  0
 12  6  1  0  0  0  0
M  END
