1,2
q = 0.0, confidence = 0.998

 36 37  0  0  1  0  0  0  0  0999 V2000
    0.9426   -1.2446    0.4616 N   0  0  0  0  0  2  0  0  0  0  0  0
    0.9427    1.2444   -0.4617 N   0  0  0  0  0  2  0  0  0  0  0  0
    4.4197   -3.5300    1.1049 N   0  0  0  0  0  0  0  0  0  0  0  0
    4.4201    3.5294   -1.1054 N   0  0  0  0  0  0  0  0  0  0  0  0
    0.8712   -2.5280    0.8840 C   0  0  0  0  0  3  0  0  0  0  0  0
   -0.1461   -2.9201    1.0371 H   0  0  0  0  0  0  0  0  0  0  0  0
    1.9855   -3.3227    1.1147 C   0  0  0  0  0  0  0  0  0  0  0  0
    1.8322   -4.3524    1.4577 H   0  0  0  0  0  0  0  0  0  0  0  0
    3.2918   -2.7906    0.8960 C   0  0  0  0  0  0  0  0  0  0  0  0
    3.3479   -1.4412    0.4419 C   0  0  0  0  0  0  0  0  0  0  0  0
    4.3151   -0.9707    0.2381 H   0  0  0  0  0  0  0  0  0  0  0  0
    2.1776   -0.7049    0.2370 C   0  0  0  0  0  0  0  0  0  0  0  0
    2.1777    0.7046   -0.2372 C   0  0  2  0  0  3  0  0  0  0  0  0
    3.3481    1.4407   -0.4422 C   0  0  0  0  0  0  0  0  0  0  0  0
    4.3152    0.9701   -0.2385 H   0  0  0  0  0  0  0  0  0  0  0  0
    3.2921    2.7901   -0.8964 C   0  0  0  0  0  0  0  0  0  0  0  0
    1.9858    3.3223   -1.1150 C   0  0  0  0  0  0  0  0  0  0  0  0
    1.8326    4.3521   -1.4579 H   0  0  0  0  0  0  0  0  0  0  0  0
    0.8714    2.5278   -0.8841 C   0  0  0  0  0  0  0  0  0  0  0  0
   -0.1458    2.9200   -1.0371 H   0  0  0  0  0  0  0  0  0  0  0  0
    4.3123   -4.9094    1.5597 C   0  0  0  0  0  0  0  0  0  0  0  0
    3.8032   -4.9792    2.5452 H   0  0  0  0  0  0  0  0  0  0  0  0
    5.3241   -5.3364    1.6698 H   0  0  0  0  0  0  0  0  0  0  0  0
    3.7524   -5.5397    0.8356 H   0  0  0  0  0  0  0  0  0  0  0  0
    5.7302   -2.9474    0.8636 C   0  0  0  0  0  0  0  0  0  0  0  0
    5.8589   -2.6435   -0.1984 H   0  0  0  0  0  0  0  0  0  0  0  0
    6.5100   -3.6921    1.0986 H   0  0  0  0  0  0  0  0  0  0  0  0
    5.9086   -2.0556    1.5034 H   0  0  0  0  0  0  0  0  0  0  0  0
    5.7304    2.9469   -0.8633 C   0  0  0  0  0  0  0  0  0  0  0  0
    5.8585    2.6431    0.1988 H   0  0  0  0  0  0  0  0  0  0  0  0
    6.5104    3.6917   -1.0978 H   0  0  0  0  0  0  0  0  0  0  0  0
    5.9095    2.0551   -1.5030 H   0  0  0  0  0  0  0  0  0  0  0  0
    4.3128    4.9086   -1.5608 C   0  0  0  0  0  0  0  0  0  0  0  0
    3.8024    4.9781   -2.5455 H   0  0  0  0  0  0  0  0  0  0  0  0
    5.3247    5.3349   -1.6726 H   0  0  0  0  0  0  0  0  0  0  0  0
    3.7542    5.5396   -0.8361 H   0  0  0  0  0  0  0  0  0  0  0  0
  1  5  1  0  0  0  0
  2 13  1  0  0  0  0
  3 21  1  0  0  0  0
  4 16  1  0  0  0  0
  4 29  1  0  0  0  0
  5  6  1  0  0  0  0
  5  7  1  0  0  0  0
  7  8  1  0  0  0  0
  9  3  1  0  0  0  0
  9  7  2  0  0  0  0
 10  9  1  0  0  0  0
 11 10  1  0  0  0  0
 12 10  2  0  0  0  0
 12  1  1  0  0  0  0
 13 12  1  1  0  0  0
 14 15  1  0  0  0  0
 14 13  1  0  0  0  0
 16 14  2  0  0  0  0
 17 16  1  0  0  0  0
 17 19  2  0  0  0  0
 18 17  1  0  0  0  0
 19  2  1  0  0  0  0
 20 19  1  0  0  0  0
 21 23  1  0  0  0  0
 21 22  1  0  0  0  0
 24 21  1  0  0  0  0
 25 27  1  0  0  0  0
 25  3  1  0  0  0  0
 25 28  1  0  0  0  0
 26 25  1  0  0  0  0
 29 30  1  0  0  0  0
 31 29  1  0  0  0  0
 32 29  1  0  0  0  0
 33  4  1  0  0  0  0
 33 36  1  0  0  0  0
 34 33  1  0  0  0  0
 35 33  1  0  0  0  0
M  END
