1,17
q = 0.0, confidence = 0.996

 35 37  0  0  1  0  0  0  0  0999 V2000
    1.1182    1.1138    0.1640 N   0  0  0  0  0  2  0  0  0  0  0  0
    0.1441    2.0341    0.3831 C   0  0  0  0  0  0  0  0  0  0  0  0
    0.4162    3.3923    0.6962 C   0  0  0  0  0  0  0  0  0  0  0  0
   -0.4238    4.0784    0.8689 H   0  0  0  0  0  0  0  0  0  0  0  0
    1.7248    3.8232    0.7536 C   0  0  0  0  0  0  0  0  0  0  0  0
    1.9705    4.8713    0.9818 H   0  0  0  0  0  0  0  0  0  0  0  0
    2.7704    2.8926    0.5001 C   0  0  0  0  0  0  0  0  0  0  0  0
    2.4375    1.5201    0.2102 C   0  0  2  0  0  3  0  0  0  0  0  0
    3.3881    0.5893   -0.0253 N   0  0  0  0  0  0  0  0  0  0  0  0
    4.6629    0.9611   -0.0075 C   0  0  0  0  0  0  0  0  0  0  0  0
    5.4062    0.1693   -0.2096 H   0  0  0  0  0  0  0  0  0  0  0  0
    5.1031    2.2850    0.2522 C   0  0  0  0  0  0  0  0  0  0  0  0
    6.1762    2.5228    0.2463 H   0  0  0  0  0  0  0  0  0  0  0  0
    4.1459    3.2514    0.5135 C   0  0  0  0  0  0  0  0  0  0  0  0
    4.4265    4.2942    0.7270 H   0  0  0  0  0  0  0  0  0  0  0  0
   -1.2015    1.5254    0.2263 C   0  0  2  0  0  3  0  0  0  0  0  0
   -1.2617    0.2282   -0.1483 N   0  0  0  0  0  2  0  0  0  0  0  0
   -2.5555   -0.0607   -0.3290 N   0  0  0  0  0  0  0  0  0  0  0  0
   -3.3686    1.0163   -0.0697 C   0  0  0  0  0  0  0  0  0  0  0  0
   -2.5146    2.0589    0.2990 C   0  0  0  0  0  0  0  0  0  0  0  0
   -2.8128    3.0736    0.5741 H   0  0  0  0  0  0  0  0  0  0  0  0
   -4.8750    0.9263   -0.1883 C   0  0  0  0  0  0  0  0  0  0  0  0
   -5.4888    2.3047    0.1093 C   0  0  0  0  0  0  0  0  0  0  0  0
   -5.2500    2.6431    1.1373 H   0  0  0  0  0  0  0  0  0  0  0  0
   -6.5913    2.2509    0.0220 H   0  0  0  0  0  0  0  0  0  0  0  0
   -5.1307    3.0714   -0.6061 H   0  0  0  0  0  0  0  0  0  0  0  0
   -5.2489    0.4883   -1.6232 C   0  0  0  0  0  0  0  0  0  0  0  0
   -4.8623    1.2031   -2.3759 H   0  0  0  0  0  0  0  0  0  0  0  0
   -6.3508    0.4379   -1.7265 H   0  0  0  0  0  0  0  0  0  0  0  0
   -4.8519   -0.5180   -1.8712 H   0  0  0  0  0  0  0  0  0  0  0  0
   -5.3991   -0.1091    0.8348 C   0  0  0  0  0  0  0  0  0  0  0  0
   -4.9916   -1.1234    0.6437 H   0  0  0  0  0  0  0  0  0  0  0  0
   -6.5030   -0.1792    0.7708 H   0  0  0  0  0  0  0  0  0  0  0  0
   -5.1307    0.1789    1.8706 H   0  0  0  0  0  0  0  0  0  0  0  0
   -2.8218   -0.9763   -0.6932 H   0  0  0  0  0  0  0  0  0  0  0  0
  1  8  1  0  0  0  0
  1  2  1  0  0  0  0
  2  3  2  0  0  0  0
  3  5  1  0  0  0  0
  3  4  1  0  0  0  0
  5  6  1  0  0  0  0
  7 14  1  0  0  0  0
  7  5  2  0  0  0  0
  8  9  1  6  0  0  0
  8  7  1  0  0  0  0
  9 10  2  0  0  0  0
 10 12  1  0  0  0  0
 11 10  1  0  0  0  0
 12 14  2  0  0  0  0
 13 12  1  0  0  0  0
 14 15  1  0  0  0  0
 16 20  1  0  0  0  0
 16  2  1  6  0  0  0
 17 16  1  0  0  0  0
 18 17  1  0  0  0  0
 18 19  1  0  0  0  0
 19 20  2  0  0  0  0
 20 21  1  0  0  0  0
 22 19  1  0  0  0  0
 22 23  1  0  0  0  0
 22 31  1  0  0  0  0
 23 24  1  0  0  0  0
 25 23  1  0  0  0  0
 26 23  1  0  0  0  0
 27 22  1  0  0  0  0
 28 27  1  0  0  0  0
 29 27  1  0  0  0  0
 30 27  1  0  0  0  0
 31 34  1  0  0  0  0
 32 31  1  0  0  0  0
 33 31  1  0  0  0  0
 35 18  1  0  0  0  0
M  END
