5,11
q = 0.0, confidence = 0.998

 30 31  0  0  1  0  0  0  0  0999 V2000
    3.1407    0.0754   -0.1384 C   0  0  1  0  0  3  0  0  0  0  0  0
    1.9834   -0.5814   -0.4753 N   0  0  0  0  0  0  0  0  0  0  0  0
    1.8837   -1.4640   -0.9785 H   0  0  0  0  0  0  0  0  0  0  0  0
    1.3232    1.2880    0.3832 C   0  0  0  0  0  0  0  0  0  0  0  0
    0.8920    0.1283   -0.1625 N   0  0  0  0  0  2  0  0  0  0  0  0
    2.7399    1.2899    0.4275 C   0  0  0  0  0  0  0  0  0  0  0  0
    3.3969    2.0755    0.8092 H   0  0  0  0  0  0  0  0  0  0  0  0
    4.5050   -0.5362   -0.3755 C   0  0  0  0  0  0  0  0  0  0  0  0
   -1.9374    3.8494    1.0954 C   0  0  0  0  0  0  0  0  0  0  0  0
   -2.8376    4.4665    1.2214 H   0  0  0  0  0  0  0  0  0  0  0  0
   -0.9896    1.7506    0.3971 N   0  0  0  0  0  2  0  0  0  0  0  0
   -0.6640    4.3310    1.4406 C   0  0  0  0  0  0  0  0  0  0  0  0
   -0.5399    5.3428    1.8528 H   0  0  0  0  0  0  0  0  0  0  0  0
    0.2607    2.2217    0.7050 C   0  0  2  0  0  3  0  0  0  0  0  0
    0.4474    3.5084    1.2365 C   0  0  0  0  0  0  0  0  0  0  0  0
    1.4640    3.8531    1.4709 H   0  0  0  0  0  0  0  0  0  0  0  0
   -2.0566    2.5595    0.5722 C   0  0  0  0  0  0  0  0  0  0  0  0
   -3.0305    2.1529    0.2678 H   0  0  0  0  0  0  0  0  0  0  0  0
    4.6369   -1.8154    0.4849 C   0  0  0  0  0  0  0  0  0  0  0  0
    4.5202   -1.5874    1.5630 H   0  0  0  0  0  0  0  0  0  0  0  0
    5.6354   -2.2715    0.3345 H   0  0  0  0  0  0  0  0  0  0  0  0
    3.8790   -2.5783    0.2111 H   0  0  0  0  0  0  0  0  0  0  0  0
    5.5899    0.4755    0.0307 C   0  0  0  0  0  0  0  0  0  0  0  0
    5.5191    1.4075   -0.5644 H   0  0  0  0  0  0  0  0  0  0  0  0
    6.5928    0.0395   -0.1433 H   0  0  0  0  0  0  0  0  0  0  0  0
    5.5207    0.7373    1.1054 H   0  0  0  0  0  0  0  0  0  0  0  0
    4.6554   -0.8881   -1.8734 C   0  0  0  0  0  0  0  0  0  0  0  0
    3.9117   -1.6429   -2.2040 H   0  0  0  0  0  0  0  0  0  0  0  0
    5.6591   -1.3184   -2.0599 H   0  0  0  0  0  0  0  0  0  0  0  0
    4.5391    0.0095   -2.5120 H   0  0  0  0  0  0  0  0  0  0  0  0
  1  8  1  1  0  0  0
  1  6  1  0  0  0  0
  2  5  1  0  0  0  0
  2  1  1  0  0  0  0
  3  2  1  0  0  0  0
  4  6  2  0  0  0  0
  5  4  1  0  0  0  0
  6  7  1  0  0  0  0
  8 23  1  0  0  0  0
  8 19  1  0  0  0  0
  9 10  1  0  0  0  0
  9 12  1  0  0  0  0
 11 17  1  0  0  0  0
 11 14  1  0  0  0  0
 12 13  1  0  0  0  0
 14  4  1  6  0  0  0
 14 15  1  0  0  0  0
 15 12  2  0  0  0  0
 15 16  1  0  0  0  0
 17  9  2  0  0  0  0
 18 17  1  0  0  0  0
 19 20  1  0  0  0  0
 21 19  1  0  0  0  0
 22 19  1  0  0  0  0
 23 26  1  0  0  0  0
 24 23  1  0  0  0  0
 25 23  1  0  0  0  0
 27  8  1  0  0  0  0
 28 27  1  0  0  0  0
 29 27  1  0  0  0  0
 30 27  1  0  0  0  0
M  END
