14,36
q = 0.0, confidence = 0.974

 45 45  0  0  1  0  0  0  0  0999 V2000
   -2.7505   -1.5784    0.3294 H   0  0  0  0  0  0  0  0  0  0  0  0
   -2.2926   -0.7619    1.6952 H   0  0  0  0  0  0  0  0  0  0  0  0
   -0.5059    1.3587   -0.7306 C   0  0  1  0  0  0  0  0  0  0  0  0
   -0.0271    2.3260   -0.9873 H   0  0  0  0  0  0  0  0  0  0  0  0
   -1.2782    0.8049   -1.9652 C   0  0  0  0  0  0  0  0  0  0  0  0
   -1.3710    1.5869   -2.7442 H   0  0  0  0  0  0  0  0  0  0  0  0
   -0.7101   -0.0372   -2.4043 H   0  0  0  0  0  0  0  0  0  0  0  0
   -2.6637    0.3295   -1.4791 C   0  0  0  0  0  0  0  0  0  0  0  0
   -2.8481   -0.7241   -1.7706 H   0  0  0  0  0  0  0  0  0  0  0  0
   -3.4776    0.9409   -1.9156 H   0  0  0  0  0  0  0  0  0  0  0  0
   -2.6882    0.4812    0.0603 C   0  0  1  0  0  0  0  0  0  0  0  0
   -1.6329    1.6154    0.3509 C   0  0  0  0  0  0  0  0  0  0  0  0
    1.8061    0.6840   -0.3214 C   0  0  0  0  0  3  0  0  0  0  0  0
    0.5181    0.4029   -0.3242 N   0  0  0  0  0  2  0  0  0  0  0  0
    2.3314    1.9729   -0.2928 N   0  0  0  0  0  0  0  0  0  0  0  0
    1.8466    3.0031    0.6022 C   0  0  0  0  0  0  0  0  0  0  0  0
    2.6789    3.3745    1.2434 H   0  0  0  0  0  0  0  0  0  0  0  0
    1.0687    2.5897    1.2628 H   0  0  0  0  0  0  0  0  0  0  0  0
    1.4261    3.8791    0.0576 H   0  0  0  0  0  0  0  0  0  0  0  0
    3.5195    2.3172   -1.0521 C   0  0  0  0  0  0  0  0  0  0  0  0
    3.3427    3.2544   -1.6250 H   0  0  0  0  0  0  0  0  0  0  0  0
    3.7566    1.5058   -1.7629 H   0  0  0  0  0  0  0  0  0  0  0  0
    4.4098    2.4843   -0.4017 H   0  0  0  0  0  0  0  0  0  0  0  0
   -2.2424    2.9981    0.0505 C   0  0  0  0  0  0  0  0  0  0  0  0
   -3.0408    3.2586    0.7726 H   0  0  0  0  0  0  0  0  0  0  0  0
   -2.6721    3.0600   -0.9696 H   0  0  0  0  0  0  0  0  0  0  0  0
   -1.4585    3.7781    0.1293 H   0  0  0  0  0  0  0  0  0  0  0  0
   -1.1594    1.5805    1.8124 C   0  0  0  0  0  0  0  0  0  0  0  0
   -0.6499    2.5228    2.0938 H   0  0  0  0  0  0  0  0  0  0  0  0
   -0.4693    0.7374    2.0213 H   0  0  0  0  0  0  0  0  0  0  0  0
   -2.0285    1.4984    2.4991 H   0  0  0  0  0  0  0  0  0  0  0  0
   -4.0995    0.7595    0.5913 C   0  0  0  0  0  0  0  0  0  0  0  0
   -4.0994    0.9133    1.6909 H   0  0  0  0  0  0  0  0  0  0  0  0
   -4.7586   -0.1059    0.3732 H   0  0  0  0  0  0  0  0  0  0  0  0
   -4.5568    1.6502    0.1206 H   0  0  0  0  0  0  0  0  0  0  0  0
   -2.1877   -0.7852    0.6709 N   0  0  0  0  0  0  0  0  0  0  0  0
    2.7502   -0.3157   -0.3925 N   0  0  0  0  0  0  0  0  0  0  0  0
    3.8593   -0.3280    0.5537 C   0  0  0  0  0  0  0  0  0  0  0  0
    3.9694    0.6615    1.0316 H   0  0  0  0  0  0  0  0  0  0  0  0
    4.8123   -0.5907    0.0472 H   0  0  0  0  0  0  0  0  0  0  0  0
    3.6485   -1.0728    1.3530 H   0  0  0  0  0  0  0  0  0  0  0  0
    2.4747   -1.6065   -1.0036 C   0  0  0  0  0  0  0  0  0  0  0  0
    3.3857   -1.9522   -1.5378 H   0  0  0  0  0  0  0  0  0  0  0  0
    1.6411   -1.5348   -1.7251 H   0  0  0  0  0  0  0  0  0  0  0  0
    2.2063   -2.3713   -0.2413 H   0  0  0  0  0  0  0  0  0  0  0  0
  1 36  1  0  0  0  0
  3  4  1  6  0  0  0
  3 14  1  0  0  0  0
  3 12  1  0  0  0  0
  5  8  1  0  0  0  0
  5  3  1  0  0  0  0
  6  5  1  0  0  0  0
  7  5  1  0  0  0  0
  8 11  1  0  0  0  0
  9  8  1  0  0  0  0
 10  8  1  0  0  0  0
 11 12  1  0  0  0  0
 11 32  1  1  0  0  0
 11 36  1  0  0  0  0
 12 28  1  0  0  0  0
 13 15  1  0  0  0  0
 14 13  1  0  0  0  0
 15 16  1  0  0  0  0
 16 17  1  0  0  0  0
 16 18  1  0  0  0  0
 19 16  1  0  0  0  0
 20 23  1  0  0  0  0
 20 15  1  0  0  0  0
 21 20  1  0  0  0  0
 22 20  1  0  0  0  0
 24 27  1  0  0  0  0
 24 12  1  0  0  0  0
 24 25  1  0  0  0  0
 26 24  1  0  0  0  0
 28 30  1  0  0  0  0
 28 29  1  0  0  0  0
 28 31  1  0  0  0  0
 32 33  1  0  0  0  0
 34 32  1  0  0  0  0
 35 32  1  0  0  0  0
 36  2  1  0  0  0  0
 37 13  1  0  0  0  0
 37 38  1  0  0  0  0
 38 39  1  0  0  0  0
 38 41  1  0  0  0  0
 40 38  1  0  0  0  0
 42 37  1  0  0  0  0
 42 45  1  0  0  0  0
 43 42  1  0  0  0  0
 44 42  1  0  0  0  0
M  END
