1,12
q = -1.0

 26 28  0  0  0  0  0  0  0  0999 V2000
    0.3294   -2.1240   -1.0574 N   0  0  0  0  0  2  0  0  0  0  0  0
    1.3568   -2.8895   -1.4806 C   0  0  0  0  0  3  0  0  0  0  0  0
    2.3593   -2.4493   -1.3629 H   0  0  0  0  0  0  0  0  0  0  0  0
    1.1672   -4.1576   -2.0381 C   0  0  0  0  0  0  0  0  0  0  0  0
    2.0362   -4.7423   -2.3700 H   0  0  0  0  0  0  0  0  0  0  0  0
   -0.1452   -4.6545   -2.1586 C   0  0  0  0  0  0  0  0  0  0  0  0
   -0.3268   -5.6490   -2.5933 H   0  0  0  0  0  0  0  0  0  0  0  0
   -1.2138   -3.8727   -1.7181 C   0  0  0  0  0  0  0  0  0  0  0  0
   -2.2600   -4.2030   -1.7792 H   0  0  0  0  0  0  0  0  0  0  0  0
   -0.9517   -2.6021   -1.1647 C   0  0  0  0  0  0  0  0  0  0  0  0
   -1.9792   -1.7148   -0.6659 C   0  0  0  0  0  0  0  0  0  0  0  0
   -1.5939   -0.5170   -0.1282 N   0  0  0  0  0  2  0  0  0  0  0  0
   -2.6884    0.1186    0.2957 N   0  0  0  0  0  0  0  0  0  0  0  0
   -3.7147   -0.7317   -0.0098 C   0  0  0  0  0  0  0  0  0  0  0  0
   -3.3113   -1.8842   -0.6086 N   0  0  0  0  0  0  0  0  0  0  0  0
   -5.1151   -0.4101    0.2916 C   0  0  0  0  0  0  0  0  0  0  0  0
   -5.4552    0.8123    0.9130 C   0  0  0  0  0  0  0  0  0  0  0  0
   -4.6491    1.5169    1.1637 H   0  0  0  0  0  0  0  0  0  0  0  0
   -6.7936    1.1101    1.1984 C   0  0  0  0  0  0  0  0  0  0  0  0
   -7.0485    2.0655    1.6826 H   0  0  0  0  0  0  0  0  0  0  0  0
   -7.8098    0.1968    0.8689 C   0  0  0  0  0  0  0  0  0  0  0  0
   -8.8610    0.4338    1.0940 H   0  0  0  0  0  0  0  0  0  0  0  0
   -7.4770   -1.0202    0.2500 C   0  0  0  0  0  0  0  0  0  0  0  0
   -8.2689   -1.7392   -0.0110 H   0  0  0  0  0  0  0  0  0  0  0  0
   -6.1402   -1.3237   -0.0376 C   0  0  0  0  0  0  0  0  0  0  0  0
   -5.8598   -2.2705   -0.5218 H   0  0  0  0  0  0  0  0  0  0  0  0
  2  3  1  0  0  0  0
  2  1  1  0  0  0  0
  4  2  1  0  0  0  0
  5  4  1  0  0  0  0
  6  4  2  0  0  0  0
  6  8  1  0  0  0  0
  7  6  1  0  0  0  0
  8 10  2  0  0  0  0
  9  8  1  0  0  0  0
 10  1  1  0  0  0  0
 10 11  1  0  0  0  0
 11 15  2  0  0  0  0
 11 12  1  0  0  0  0
 12 13  1  0  0  0  0
 14 16  1  0  0  0  0
 14 13  2  0  0  0  0
 15 14  1  0  0  0  0
 16 17  1  0  0  0  0
 17 18  1  0  0  0  0
 17 19  2  0  0  0  0
 19 20  1  0  0  0  0
 21 22  1  0  0  0  0
 21 19  1  0  0  0  0
 23 21  2  0  0  0  0
 24 23  1  0  0  0  0
 25 23  1  0  0  0  0
 25 16  2  0  0  0  0
 26 25  1  0  0  0  0
M  END
