2,4
q = -1.0

 20 20  0  0  0  0  0  0  0  0999 V2000
    1.7175    2.3988   -0.4458 O   0  0  0  0  0  1  0  0  0  0  0  0
   -1.7902    1.0215   -0.0855 N   0  0  0  0  0  2  0  0  0  0  0  0
   -1.7173    2.3143   -0.0642 N   0  0  0  0  0  0  0  0  0  0  0  0
    0.5666    1.9699   -0.2423 N   0  0  0  0  0  2  0  0  0  0  0  0
   -0.4826    2.8448   -0.1425 C   0  0  0  0  0  0  0  0  0  0  0  0
   -0.2509    4.3149   -0.2261 C   0  0  0  0  0  0  0  0  0  0  0  0
   -3.1002    0.4792   -0.0613 C   0  0  0  0  0  0  0  0  0  0  0  0
   -3.3997   -0.6330   -0.8716 C   0  0  0  0  0  0  0  0  0  0  0  0
   -4.7031   -1.1446   -0.8889 C   0  0  0  0  0  0  0  0  0  0  0  0
   -5.7031   -0.5666   -0.0913 C   0  0  0  0  0  0  0  0  0  0  0  0
   -5.3994    0.5429    0.7178 C   0  0  0  0  0  0  0  0  0  0  0  0
   -4.1046    1.0714    0.7331 C   0  0  0  0  0  0  0  0  0  0  0  0
    0.1894    4.5884   -1.2078 H   0  0  0  0  0  0  0  0  0  0  0  0
   -1.2079    4.8489   -0.0912 H   0  0  0  0  0  0  0  0  0  0  0  0
    0.4765    4.6418    0.5448 H   0  0  0  0  0  0  0  0  0  0  0  0
   -2.6151   -1.0655   -1.5053 H   0  0  0  0  0  0  0  0  0  0  0  0
   -4.9374   -2.0061   -1.5318 H   0  0  0  0  0  0  0  0  0  0  0  0
   -6.7226   -0.9805   -0.0989 H   0  0  0  0  0  0  0  0  0  0  0  0
   -6.1800    0.9983    1.3458 H   0  0  0  0  0  0  0  0  0  0  0  0
   -3.8463    1.9417    1.3519 H   0  0  0  0  0  0  0  0  0  0  0  0
  1  4  1  0  0  0  0
  2  3  1  0  0  0  0
  2  7  1  0  0  0  0
  4  5  1  0  0  0  0
  5  3  2  0  0  0  0
  6  5  1  0  0  0  0
  6 14  1  0  0  0  0
  6 15  1  0  0  0  0
  7 12  1  0  0  0  0
  8  7  2  0  0  0  0
  9  8  1  0  0  0  0
  9 10  2  0  0  0  0
 10 11  1  0  0  0  0
 11 12  2  0  0  0  0
 11 19  1  0  0  0  0
 12 20  1  0  0  0  0
 13  6  1  0  0  0  0
 16  8  1  0  0  0  0
 17  9  1  0  0  0  0
 18 10  1  0  0  0  0
M  END
