4,5
q = -1.0, confidence = 0.012

 65 71  0  0  0  0  0  0  0  0999 V2000
   -4.0383    1.5527   -2.1955 F   0  0  0  0  0  0  0  0  0  0  0  0
   -4.8156    2.3282   -0.1735 F   0  0  0  0  0  0  0  0  0  0  0  0
   -2.4205    2.0884   -0.4668 N   0  0  0  0  0  0  0  0  0  0  0  0
    1.0571    1.4752    0.1294 N   0  0  0  0  0  2  0  0  0  0  0  0
   -0.5310   -1.0321    0.1353 N   0  0  0  0  0  0  0  0  0  0  0  0
   -3.9165    0.0564   -0.2748 N   0  0  0  0  0  0  0  0  0  0  0  0
   -1.3426    1.2630   -0.2787 C   0  0  0  0  0  0  0  0  0  0  0  0
   -0.1298    2.0346   -0.0739 C   0  0  0  0  0  0  0  0  0  0  0  0
   -0.5552    3.4291   -0.1208 C   0  0  0  0  0  0  0  0  0  0  0  0
   -1.9702    3.4018   -0.3681 C   0  0  0  0  0  0  0  0  0  0  0  0
   -2.7151    4.5871   -0.4677 C   0  0  0  0  0  0  0  0  0  0  0  0
   -3.7989    4.5456   -0.6368 H   0  0  0  0  0  0  0  0  0  0  0  0
   -2.0280    5.8004   -0.3249 C   0  0  0  0  0  0  0  0  0  0  0  0
   -2.5913    6.7434   -0.3986 H   0  0  0  0  0  0  0  0  0  0  0  0
   -0.6357    5.8449   -0.0841 C   0  0  0  0  0  0  0  0  0  0  0  0
   -0.1331    6.8168    0.0253 H   0  0  0  0  0  0  0  0  0  0  0  0
    0.1107    4.6656    0.0211 C   0  0  0  0  0  0  0  0  0  0  0  0
    1.1914    4.7034    0.2121 H   0  0  0  0  0  0  0  0  0  0  0  0
   -1.4947   -0.1068   -0.1322 C   0  0  0  0  0  0  0  0  0  0  0  0
   -2.8318   -0.6838   -0.0481 C   0  0  0  0  0  0  0  0  0  0  0  0
   -2.6255   -2.0551    0.3545 C   0  0  0  0  0  0  0  0  0  0  0  0
   -1.1931   -2.2255    0.4546 C   0  0  0  0  0  3  0  0  0  0  0  0
   -0.6708   -3.4644    0.8679 C   0  0  0  0  0  0  0  0  0  0  0  0
    0.4085   -3.6168    0.9573 H   0  0  0  0  0  0  0  0  0  0  0  0
   -1.5655   -4.5052    1.1514 C   0  0  0  0  0  0  0  0  0  0  0  0
   -1.1557   -5.4755    1.4720 H   0  0  0  0  0  0  0  0  0  0  0  0
   -2.9655   -4.3484    1.0400 C   0  0  0  0  0  0  0  0  0  0  0  0
   -3.6325   -5.1910    1.2725 H   0  0  0  0  0  0  0  0  0  0  0  0
   -3.5046   -3.1220    0.6445 C   0  0  0  0  0  0  0  0  0  0  0  0
   -4.5912   -2.9821    0.5673 H   0  0  0  0  0  0  0  0  0  0  0  0
    2.1803    2.3168    0.3855 C   0  0  0  0  0  0  0  0  0  0  0  0
    2.9240    2.8283   -0.7063 C   0  0  0  0  0  0  0  0  0  0  0  0
    4.0343    3.6409   -0.4188 C   0  0  0  0  0  0  0  0  0  0  0  0
    4.6299    4.0424   -1.2529 H   0  0  0  0  0  0  0  0  0  0  0  0
    4.3966    3.9252    0.9054 C   0  0  0  0  0  0  0  0  0  0  0  0
    5.2736    4.5574    1.1104 H   0  0  0  0  0  0  0  0  0  0  0  0
    3.6514    3.3979    1.9690 C   0  0  0  0  0  0  0  0  0  0  0  0
    3.9408    3.6164    3.0086 H   0  0  0  0  0  0  0  0  0  0  0  0
    2.5330    2.5791    1.7311 C   0  0  0  0  0  0  0  0  0  0  0  0
    2.5308    2.4966   -2.1189 C   0  0  0  0  0  0  0  0  0  0  0  0
    3.2612    2.9043   -2.8423 H   0  0  0  0  0  0  0  0  0  0  0  0
    1.5308    2.9082   -2.3707 H   0  0  0  0  0  0  0  0  0  0  0  0
    2.4691    1.3981   -2.2644 H   0  0  0  0  0  0  0  0  0  0  0  0
    1.7249    1.9916    2.8559 C   0  0  0  0  0  0  0  0  0  0  0  0
    2.1506    2.2630    3.8399 H   0  0  0  0  0  0  0  0  0  0  0  0
    1.6853    0.8835    2.7831 H   0  0  0  0  0  0  0  0  0  0  0  0
    0.6722    2.3431    2.8263 H   0  0  0  0  0  0  0  0  0  0  0  0
   -5.2183   -0.5278   -0.0736 C   0  0  0  0  0  0  0  0  0  0  0  0
   -5.8209   -1.2488   -1.1313 C   0  0  0  0  0  0  0  0  0  0  0  0
   -7.0829   -1.8255   -0.8895 C   0  0  0  0  0  0  0  0  0  0  0  0
   -7.5708   -2.3905   -1.6988 H   0  0  0  0  0  0  0  0  0  0  0  0
   -7.7143   -1.6911    0.3540 C   0  0  0  0  0  0  0  0  0  0  0  0
   -8.7008   -2.1491    0.5216 H   0  0  0  0  0  0  0  0  0  0  0  0
   -7.0907   -0.9756    1.3846 C   0  0  0  0  0  0  0  0  0  0  0  0
   -7.5840   -0.8724    2.3635 H   0  0  0  0  0  0  0  0  0  0  0  0
   -5.8301   -0.3794    1.1931 C   0  0  0  0  0  0  0  0  0  0  0  0
   -5.1198   -1.4279   -2.4521 C   0  0  0  0  0  0  0  0  0  0  0  0
   -5.7730   -1.9476   -3.1779 H   0  0  0  0  0  0  0  0  0  0  0  0
   -4.1962   -2.0342   -2.3334 H   0  0  0  0  0  0  0  0  0  0  0  0
   -4.8121   -0.4519   -2.8741 H   0  0  0  0  0  0  0  0  0  0  0  0
   -5.1441    0.3797    2.2979 C   0  0  0  0  0  0  0  0  0  0  0  0
   -5.7340    0.3385    3.2328 H   0  0  0  0  0  0  0  0  0  0  0  0
   -5.0071    1.4408    2.0092 H   0  0  0  0  0  0  0  0  0  0  0  0
   -4.1359   -0.0336    2.5098 H   0  0  0  0  0  0  0  0  0  0  0  0
   -3.8417    1.5645   -0.8113 B   0  0  0  0  0  0  0  0  0  0  0  0
  1 65  1  0  0  0  0
  3 10  1  0  0  0  0
  3  7  1  0  0  0  0
  4 31  1  0  0  0  0
  5 22  1  0  0  0  0
  6 48  1  0  0  0  0
  6 20  1  0  0  0  0
  7 19  1  0  0  0  0
  7  8  2  0  0  0  0
  8  4  1  0  0  0  0
  9  8  1  0  0  0  0
  9 17  1  0  0  0  0
 10  9  2  0  0  0  0
 11 10  1  0  0  0  0
 11 13  2  0  0  0  0
 12 11  1  0  0  0  0
 13 15  1  0  0  0  0
 14 13  1  0  0  0  0
 15 17  2  0  0  0  0
 15 16  1  0  0  0  0
 17 18  1  0  0  0  0
 19 20  1  0  0  0  0
 19  5  2  0  0  0  0
 20 21  2  0  0  0  0
 21 22  1  0  0  0  0
 21 29  1  0  0  0  0
 22 23  1  0  0  0  0
 23 24  1  0  0  0  0
 23 25  2  0  0  0  0
 25 26  1  0  0  0  0
 27 25  1  0  0  0  0
 27 28  1  0  0  0  0
 29 27  2  0  0  0  0
 30 29  1  0  0  0  0
 31 39  1  0  0  0  0
 32 33  1  0  0  0  0
 32 31  2  0  0  0  0
 33 35  2  0  0  0  0
 34 33  1  0  0  0  0
 35 36  1  0  0  0  0
 35 37  1  0  0  0  0
 37 38  1  0  0  0  0
 39 37  2  0  0  0  0
 39 44  1  0  0  0  0
 40 32  1  0  0  0  0
 41 40  1  0  0  0  0
 42 40  1  0  0  0  0
 43 40  1  0  0  0  0
 44 45  1  0  0  0  0
 46 44  1  0  0  0  0
 47 44  1  0  0  0  0
 48 56  1  0  0  0  0
 49 50  1  0  0  0  0
 49 48  2  0  0  0  0
 50 52  2  0  0  0  0
 51 50  1  0  0  0  0
 52 53  1  0  0  0  0
 52 54  1  0  0  0  0
 54 55  1  0  0  0  0
 56 54  2  0  0  0  0
 56 61  1  0  0  0  0
 57 59  1  0  0  0  0
 57 49  1  0  0  0  0
 58 57  1  0  0  0  0
 60 57  1  0  0  0  0
 61 64  1  0  0  0  0
 61 62  1  0  0  0  0
 63 61  1  0  0  0  0
 65  3  1  0  0  0  0
 65  6  1  0  0  0  0
 65  2  1  0  0  0  0
M  END
