1,2
q = 0.0, confidence = 0.994

 25 27  0  0  0  0  0  0  0  0999 V2000
    1.8243    0.8123    0.0378 N   0  0  0  0  0  2  0  0  0  0  0  0
   -0.8204    0.6160   -0.0369 N   0  0  0  0  0  2  0  0  0  0  0  0
   -2.6270   -0.8515   -0.0099 N   0  0  0  0  0  0  0  0  0  0  0  0
    3.1688    0.8001    0.1059 C   0  0  0  0  0  3  0  0  0  0  0  0
    3.9166    1.9846    0.1136 C   0  0  0  0  0  0  0  0  0  0  0  0
    3.2418    3.2105    0.0449 C   0  0  0  0  0  0  0  0  0  0  0  0
    1.8427    3.2165   -0.0248 C   0  0  0  0  0  0  0  0  0  0  0  0
    1.1471    1.9947   -0.0223 C   0  0  0  0  0  0  0  0  0  0  0  0
   -0.3229    1.8765   -0.0625 C   0  0  0  0  0  0  0  0  0  0  0  0
   -1.1742    3.0142   -0.1035 C   0  0  0  0  0  0  0  0  0  0  0  0
   -2.5465    2.8533   -0.1006 C   0  0  0  0  0  0  0  0  0  0  0  0
   -3.0907    1.5422   -0.0610 C   0  0  0  0  0  0  0  0  0  0  0  0
   -4.4864    1.2622   -0.0450 C   0  0  0  0  0  3  0  0  0  0  0  0
   -4.9135   -0.0550   -0.0083 C   0  0  0  0  0  0  0  0  0  0  0  0
   -3.9325   -1.0844    0.0041 C   0  0  0  0  0  0  0  0  0  0  0  0
   -2.1887    0.4226   -0.0356 C   0  0  0  0  0  0  0  0  0  0  0  0
    3.6300   -0.2012    0.1367 H   0  0  0  0  0  0  0  0  0  0  0  0
    5.0129    1.9339    0.1712 H   0  0  0  0  0  0  0  0  0  0  0  0
    3.7979    4.1593    0.0469 H   0  0  0  0  0  0  0  0  0  0  0  0
    1.3006    4.1691   -0.0779 H   0  0  0  0  0  0  0  0  0  0  0  0
   -0.7367    4.0197   -0.1303 H   0  0  0  0  0  0  0  0  0  0  0  0
   -3.2172    3.7253   -0.1251 H   0  0  0  0  0  0  0  0  0  0  0  0
   -5.2034    2.0970   -0.0613 H   0  0  0  0  0  0  0  0  0  0  0  0
   -5.9820   -0.3124    0.0072 H   0  0  0  0  0  0  0  0  0  0  0  0
   -4.2389   -2.1450    0.0246 H   0  0  0  0  0  0  0  0  0  0  0  0
  1  4  1  0  0  0  0
  2 16  1  0  0  0  0
  3 15  1  0  0  0  0
  4  5  1  0  0  0  0
  4 17  1  0  0  0  0
  5 18  1  0  0  0  0
  6 19  1  0  0  0  0
  6  5  2  0  0  0  0
  7  8  2  0  0  0  0
  7  6  1  0  0  0  0
  8  1  1  0  0  0  0
  9  2  1  0  0  0  0
  9  8  1  0  0  0  0
 10 11  1  0  0  0  0
 10  9  2  0  0  0  0
 11 12  2  0  0  0  0
 12 13  1  0  0  0  0
 12 16  1  0  0  0  0
 13 14  1  0  0  0  0
 14 15  2  0  0  0  0
 14 24  1  0  0  0  0
 15 25  1  0  0  0  0
 16  3  2  0  0  0  0
 20  7  1  0  0  0  0
 21 10  1  0  0  0  0
 22 11  1  0  0  0  0
 23 13  1  0  0  0  0
M  END
