1,3
q = -1.0, confidence = 0.0

 17 16  0  0  1  0  0  0  0  0999 V2000
   -1.3019    0.3182    1.4191 N   0  0  0  0  0  2  0  0  0  0  0  0
   -0.9770    0.3757    2.3930 H   0  0  0  0  0  0  0  0  0  0  0  0
   -1.3020    0.3181   -1.4192 N   0  0  0  0  0  2  0  0  0  0  0  0
   -0.9770    0.3757   -2.3930 H   0  0  0  0  0  0  0  0  0  0  0  0
   -5.8157    1.0486   -0.0001 N   0  0  0  0  0  0  0  0  0  0  0  0
   -2.5874    0.5919    1.2835 C   0  0  0  0  0  0  0  0  0  0  0  0
   -3.2427    0.6480    0.0000 C   0  0  0  0  0  0  0  0  0  0  0  0
   -2.5874    0.5919   -1.2835 C   0  0  2  0  0  3  0  0  0  0  0  0
   -3.4176    0.8547    2.5189 C   0  0  0  0  0  0  0  0  0  0  0  0
   -2.7934    0.8153    3.4328 H   0  0  0  0  0  0  0  0  0  0  0  0
   -4.2315    0.1068    2.6145 H   0  0  0  0  0  0  0  0  0  0  0  0
   -3.9145    1.8443    2.4680 H   0  0  0  0  0  0  0  0  0  0  0  0
   -3.4176    0.8545   -2.5189 C   0  0  0  0  0  0  0  0  0  0  0  0
   -3.9155    1.8436   -2.4677 H   0  0  0  0  0  0  0  0  0  0  0  0
   -4.2308    0.1058   -2.6151 H   0  0  0  0  0  0  0  0  0  0  0  0
   -2.7932    0.8161   -3.4327 H   0  0  0  0  0  0  0  0  0  0  0  0
   -4.6490    0.8737   -0.0000 C   0  0  0  0  0  0  0  0  0  0  0  0
  1  2  1  0  0  0  0
  4  3  1  0  0  0  0
  5 17  3  0  0  0  0
  6  1  1  0  0  0  0
  6  9  1  0  0  0  0
  7  6  2  0  0  0  0
  8  3  1  6  0  0  0
  8  7  1  0  0  0  0
  9 11  1  0  0  0  0
  9 10  1  0  0  0  0
 12  9  1  0  0  0  0
 13 14  1  0  0  0  0
 13  8  1  0  0  0  0
 15 13  1  0  0  0  0
 16 13  1  0  0  0  0
 17  7  1  0  0  0  0
M  END
