2,5
q = 0.0, confidence = 0.996

 28 29  0  0  0  0  0  0  0  0999 V2000
    3.6475    0.5838   -0.9390 S   0  0  0  0  0  0  0  0  0  0  0  0
   -0.9978    1.6494   -0.6774 N   0  0  0  0  0  2  0  0  0  0  0  0
    0.1841    2.8201   -2.1713 N   0  0  0  0  0  0  0  0  0  0  0  0
    1.0232    0.6622   -1.4721 N   0  0  0  0  0  0  0  0  0  0  0  0
    0.6877   -0.3260   -0.7060 N   0  0  0  0  0  2  0  0  0  0  0  0
    1.6472   -1.3447   -0.6219 C   0  0  0  0  0  0  0  0  0  0  0  0
    3.0522   -1.0646   -0.6885 C   0  0  0  0  0  0  0  0  0  0  0  0
    3.9407   -2.1477   -0.5003 C   0  0  0  0  0  0  0  0  0  0  0  0
    5.0241   -1.9725   -0.5310 H   0  0  0  0  0  0  0  0  0  0  0  0
    3.4721   -3.4487   -0.2942 C   0  0  0  0  0  0  0  0  0  0  0  0
    4.1971   -4.2661   -0.1633 H   0  0  0  0  0  0  0  0  0  0  0  0
    2.0909   -3.7176   -0.2720 C   0  0  0  0  0  0  0  0  0  0  0  0
    1.7209   -4.7439   -0.1374 H   0  0  0  0  0  0  0  0  0  0  0  0
    1.1898   -2.6673   -0.4256 C   0  0  0  0  0  0  0  0  0  0  0  0
    0.1048   -2.8427   -0.4456 H   0  0  0  0  0  0  0  0  0  0  0  0
    0.1163    1.6643   -1.4385 C   0  0  0  0  0  0  0  0  0  0  0  0
   -1.6623    2.8145   -0.9242 C   0  0  0  0  0  0  0  0  0  0  0  0
   -2.6082    3.0638   -0.4328 H   0  0  0  0  0  0  0  0  0  0  0  0
   -0.9351    3.5558   -1.8542 C   0  0  0  0  0  0  0  0  0  0  0  0
   -1.1298    4.5348   -2.3028 H   0  0  0  0  0  0  0  0  0  0  0  0
    1.2585    3.1745   -3.0849 C   0  0  0  0  0  0  0  0  0  0  0  0
    1.9762    2.3348   -3.1133 H   0  0  0  0  0  0  0  0  0  0  0  0
    1.7792    4.0855   -2.7305 H   0  0  0  0  0  0  0  0  0  0  0  0
    0.8562    3.3511   -4.1014 H   0  0  0  0  0  0  0  0  0  0  0  0
    5.2560    0.5284   -0.0786 C   0  0  0  0  0  0  0  0  0  0  0  0
    5.5843    1.5839   -0.0206 H   0  0  0  0  0  0  0  0  0  0  0  0
    6.0198   -0.0461   -0.6387 H   0  0  0  0  0  0  0  0  0  0  0  0
    5.1414    0.1269    0.9466 H   0  0  0  0  0  0  0  0  0  0  0  0
  1  7  1  0  0  0  0
  1 25  1  0  0  0  0
  3 19  1  0  0  0  0
  3 16  1  0  0  0  0
  4 16  2  0  0  0  0
  4  5  1  0  0  0  0
  5  6  1  0  0  0  0
  6 14  1  0  0  0  0
  7  6  2  0  0  0  0
  7  8  1  0  0  0  0
  8 10  2  0  0  0  0
  9  8  1  0  0  0  0
 10 12  1  0  0  0  0
 10 11  1  0  0  0  0
 12 13  1  0  0  0  0
 14 12  2  0  0  0  0
 15 14  1  0  0  0  0
 16  2  1  0  0  0  0
 17  2  1  0  0  0  0
 17 18  1  0  0  0  0
 19 17  2  0  0  0  0
 20 19  1  0  0  0  0
 21 23  1  0  0  0  0
 21  3  1  0  0  0  0
 22 21  1  0  0  0  0
 24 21  1  0  0  0  0
 25 26  1  0  0  0  0
 25 28  1  0  0  0  0
 27 25  1  0  0  0  0
M  END
