1,2
q = -1.0

 22 23  0  0  0  0  0  0  0  0999 V2000
   -0.9943   -1.6090   -0.2136 N   0  0  0  0  0  2  0  0  0  0  0  0
    1.5081   -1.1973    0.0769 N   0  0  0  0  0  2  0  0  0  0  0  0
   -0.2332   -2.7378    0.0900 C   0  0  0  0  0  0  0  0  0  0  0  0
   -1.0203   -3.9092   -0.0557 C   0  0  0  0  0  0  0  0  0  0  0  0
   -0.6879   -4.9406    0.1111 H   0  0  0  0  0  0  0  0  0  0  0  0
   -2.2833   -3.4683   -0.4810 C   0  0  0  0  0  0  0  0  0  0  0  0
   -3.1600   -4.0834   -0.7154 H   0  0  0  0  0  0  0  0  0  0  0  0
   -2.2218   -2.0526   -0.5740 C   0  0  0  0  0  3  0  0  0  0  0  0
   -3.0139   -1.3734   -0.9033 H   0  0  0  0  0  0  0  0  0  0  0  0
    1.1402   -2.4672    0.2204 C   0  0  0  0  0  0  0  0  0  0  0  0
    1.9010   -3.2600    0.3299 H   0  0  0  0  0  0  0  0  0  0  0  0
    2.8875   -0.8997   -0.0199 C   0  0  0  0  0  0  0  0  0  0  0  0
    3.7877   -1.2590    1.0044 C   0  0  0  0  0  0  0  0  0  0  0  0
    3.4010   -1.7466    1.9118 H   0  0  0  0  0  0  0  0  0  0  0  0
    5.1537   -0.9647    0.8739 C   0  0  0  0  0  0  0  0  0  0  0  0
    5.8483   -1.2407    1.6819 H   0  0  0  0  0  0  0  0  0  0  0  0
    5.6310   -0.3108   -0.2729 C   0  0  0  0  0  0  0  0  0  0  0  0
    6.7014   -0.0758   -0.3698 H   0  0  0  0  0  0  0  0  0  0  0  0
    4.7334    0.0471   -1.2941 C   0  0  0  0  0  0  0  0  0  0  0  0
    5.0998    0.5613   -2.1954 H   0  0  0  0  0  0  0  0  0  0  0  0
    3.3694   -0.2403   -1.1703 C   0  0  0  0  0  0  0  0  0  0  0  0
    2.6516    0.0496   -1.9507 H   0  0  0  0  0  0  0  0  0  0  0  0
  1  3  1  0  0  0  0
  2 10  1  0  0  0  0
  3 10  2  0  0  0  0
  4  3  1  0  0  0  0
  4  5  1  0  0  0  0
  6  4  2  0  0  0  0
  7  6  1  0  0  0  0
  8  6  1  0  0  0  0
  8  1  1  0  0  0  0
  9  8  1  0  0  0  0
 10 11  1  0  0  0  0
 12  2  1  0  0  0  0
 12 13  1  0  0  0  0
 13 14  1  0  0  0  0
 15 13  2  0  0  0  0
 15 16  1  0  0  0  0
 17 15  1  0  0  0  0
 18 17  1  0  0  0  0
 19 21  1  0  0  0  0
 19 17  2  0  0  0  0
 20 19  1  0  0  0  0
 21 12  2  0  0  0  0
 22 21  1  0  0  0  0
M  END
