1,4
q = -1.0, confidence = 0.0

 27 28  0  0  1  0  0  0  0  0999 V2000
    1.3064    1.3028    0.0008 N   0  0  0  0  0  2  0  0  0  0  0  0
    1.0708    2.3109    0.0002 H   0  0  0  0  0  0  0  0  0  0  0  0
    3.3086   -0.0000    0.0001 N   0  0  0  0  0  0  0  0  0  0  0  0
    1.3064   -1.3028   -0.0010 N   0  0  0  0  0  2  0  0  0  0  0  0
    1.0708   -2.3109   -0.0005 H   0  0  0  0  0  0  0  0  0  0  0  0
    2.7401    3.5753   -0.0003 N   0  0  0  0  0  0  0  0  0  0  0  0
    2.7401   -3.5753    0.0001 N   0  0  0  0  0  0  0  0  0  0  0  0
    2.6221    1.1570    0.0003 C   0  0  2  0  0  3  0  0  0  0  0  0
    2.6221   -1.1570   -0.0003 C   0  0  0  0  0  0  0  0  0  0  0  0
    3.4182    4.7291   -0.0005 C   0  0  0  0  0  0  0  0  0  0  0  0
    2.8143    5.6539   -0.0009 H   0  0  0  0  0  0  0  0  0  0  0  0
    4.8219    4.7962   -0.0002 C   0  0  0  0  0  0  0  0  0  0  0  0
    5.3319    5.7708   -0.0003 H   0  0  0  0  0  0  0  0  0  0  0  0
    5.5438    3.5926    0.0003 C   0  0  0  0  0  0  0  0  0  0  0  0
    6.6447    3.5999    0.0006 H   0  0  0  0  0  0  0  0  0  0  0  0
    4.8428    2.3809    0.0004 C   0  0  0  0  0  0  0  0  0  0  0  0
    5.3411    1.4027    0.0008 H   0  0  0  0  0  0  0  0  0  0  0  0
    3.4349    2.4196    0.0001 C   0  0  0  0  0  0  0  0  0  0  0  0
    3.4349   -2.4196   -0.0001 C   0  0  0  0  0  0  0  0  0  0  0  0
    4.8428   -2.3809   -0.0003 C   0  0  0  0  0  0  0  0  0  0  0  0
    5.3411   -1.4027   -0.0005 H   0  0  0  0  0  0  0  0  0  0  0  0
    5.5438   -3.5926   -0.0002 C   0  0  0  0  0  0  0  0  0  0  0  0
    6.6447   -3.5999   -0.0003 H   0  0  0  0  0  0  0  0  0  0  0  0
    4.8219   -4.7962    0.0001 C   0  0  0  0  0  0  0  0  0  0  0  0
    5.3319   -5.7708    0.0002 H   0  0  0  0  0  0  0  0  0  0  0  0
    3.4182   -4.7291    0.0002 C   0  0  0  0  0  0  0  0  0  0  0  0
    2.8143   -5.6539    0.0005 H   0  0  0  0  0  0  0  0  0  0  0  0
  2  1  1  0  0  0  0
  4  5  1  0  0  0  0
  4  9  1  0  0  0  0
  6 18  1  0  0  0  0
  7 26  1  0  0  0  0
  8  3  1  1  0  0  0
  8  1  1  0  0  0  0
  9 19  1  0  0  0  0
  9  3  2  0  0  0  0
 10  6  2  0  0  0  0
 10 12  1  0  0  0  0
 11 10  1  0  0  0  0
 12 14  2  0  0  0  0
 13 12  1  0  0  0  0
 14 16  1  0  0  0  0
 14 15  1  0  0  0  0
 16 17  1  0  0  0  0
 18  8  1  0  0  0  0
 18 16  2  0  0  0  0
 19  7  2  0  0  0  0
 20 22  2  0  0  0  0
 20 19  1  0  0  0  0
 21 20  1  0  0  0  0
 22 24  1  0  0  0  0
 23 22  1  0  0  0  0
 24 25  1  0  0  0  0
 24 26  2  0  0  0  0
 26 27  1  0  0  0  0
M  END
