1,13
q = 0.0, confidence = 0.998

 25 26  0  0  0  0  0  0  0  0999 V2000
   -0.5263    3.1239    0.2418 N   0  0  0  0  0  2  0  0  0  0  0  0
   -1.6563    3.8123    0.0022 C   0  0  0  0  0  3  0  0  0  0  0  0
   -2.5007    3.2277   -0.3981 H   0  0  0  0  0  0  0  0  0  0  0  0
   -1.7677    5.1911    0.2204 C   0  0  0  0  0  0  0  0  0  0  0  0
   -2.7095    5.7095   -0.0088 H   0  0  0  0  0  0  0  0  0  0  0  0
   -0.6516    5.8856    0.7195 C   0  0  0  0  0  0  0  0  0  0  0  0
   -0.7001    6.9703    0.8971 H   0  0  0  0  0  0  0  0  0  0  0  0
    0.5212    5.1760    0.9915 C   0  0  0  0  0  0  0  0  0  0  0  0
    1.4131    5.6791    1.3928 H   0  0  0  0  0  0  0  0  0  0  0  0
    0.5552    3.7857    0.7533 C   0  0  0  0  0  0  0  0  0  0  0  0
    1.7349    2.9748    1.0204 C   0  0  0  0  0  3  0  0  0  0  0  0
    2.7171    3.4574    1.1753 H   0  0  0  0  0  0  0  0  0  0  0  0
    1.5798    1.6755    1.0136 N   0  0  0  0  0  2  0  0  0  0  0  0
    2.6870    0.9037    1.0421 N   0  0  0  0  0  0  0  0  0  0  0  0
    3.5005    1.2559    0.4899 H   0  0  0  0  0  0  0  0  0  0  0  0
    2.5141   -0.4706    1.2557 C   0  0  0  0  0  0  0  0  0  0  0  0
    1.5405   -0.9224    1.8477 O   0  0  0  0  0  0  0  0  0  0  0  0
    3.5872   -1.3085    0.6963 C   0  0  0  0  0  0  0  0  0  0  0  0
    3.6525   -2.5899    1.1752 O   0  0  0  0  0  0  0  0  0  0  0  0
    4.6113   -3.2334    0.4692 C   0  0  0  0  0  0  0  0  0  0  0  0
    4.7889   -4.2773    0.7485 H   0  0  0  0  0  0  0  0  0  0  0  0
    5.1744   -2.3946   -0.4717 C   0  0  0  0  0  0  0  0  0  0  0  0
    5.9665   -2.6482   -1.1848 H   0  0  0  0  0  0  0  0  0  0  0  0
    4.5092   -1.1384   -0.3268 C   0  0  0  0  0  0  0  0  0  0  0  0
    4.6470   -0.2262   -0.9262 H   0  0  0  0  0  0  0  0  0  0  0  0
  1 10  1  0  0  0  0
  2  4  1  0  0  0  0
  2  1  1  0  0  0  0
  3  2  1  0  0  0  0
  4  6  2  0  0  0  0
  5  4  1  0  0  0  0
  6  7  1  0  0  0  0
  6  8  1  0  0  0  0
  8  9  1  0  0  0  0
 10  8  2  0  0  0  0
 10 11  1  0  0  0  0
 11 12  1  0  0  0  0
 13 11  1  0  0  0  0
 13 14  1  0  0  0  0
 14 16  1  0  0  0  0
 15 14  1  0  0  0  0
 16 17  2  0  0  0  0
 18 19  1  0  0  0  0
 18 16  1  0  0  0  0
 20 21  1  0  0  0  0
 20 19  1  0  0  0  0
 22 24  1  0  0  0  0
 22 20  2  0  0  0  0
 23 22  1  0  0  0  0
 24 18  2  0  0  0  0
 25 24  1  0  0  0  0
M  END
