1,2
q = 0.0, confidence = 0.966

 42 48  0  0  0  0  0  0  0  0999 V2000
    1.3168    1.3448   -0.2423 N   0  0  0  0  0  2  0  0  0  0  0  0
    1.3168   -1.3447   -0.2424 N   0  0  0  0  0  2  0  0  0  0  0  0
   -1.0930   -2.8027   -0.1237 N   0  0  0  0  0  0  0  0  0  0  0  0
   -3.5065   -1.4197   -0.0533 N   0  0  0  0  0  0  0  0  0  0  0  0
   -3.5065    1.4196   -0.0532 N   0  0  0  0  0  0  0  0  0  0  0  0
   -1.0930    2.8027   -0.1237 N   0  0  0  0  0  0  0  0  0  0  0  0
    0.1335    0.7308   -0.1932 C   0  0  0  0  0  0  0  0  0  0  0  0
    0.1335   -0.7307   -0.1933 C   0  0  0  0  0  0  0  0  0  0  0  0
   -1.0951   -1.4717   -0.1384 C   0  0  0  0  0  0  0  0  0  0  0  0
   -2.3735   -0.7260   -0.0939 C   0  0  0  0  0  0  0  0  0  0  0  0
   -2.3735    0.7260   -0.0938 C   0  0  0  0  0  0  0  0  0  0  0  0
   -1.0952    1.4717   -0.1384 C   0  0  0  0  0  0  0  0  0  0  0  0
    1.3511   -2.7001   -0.2456 C   0  0  0  0  0  0  0  0  0  0  0  0
    2.5952   -3.3851   -0.3222 C   0  0  0  0  0  0  0  0  0  0  0  0
    3.5182   -2.7890   -0.4045 H   0  0  0  0  0  0  0  0  0  0  0  0
    2.6000   -4.7706   -0.3106 C   0  0  0  0  0  0  0  0  0  0  0  0
    3.5558   -5.3124   -0.3689 H   0  0  0  0  0  0  0  0  0  0  0  0
    1.3814   -5.5081   -0.2273 C   0  0  0  0  0  0  0  0  0  0  0  0
    1.4199   -6.6078   -0.2170 H   0  0  0  0  0  0  0  0  0  0  0  0
    0.1571   -4.8617   -0.1642 C   0  0  0  0  0  0  0  0  0  0  0  0
   -0.7956   -5.4066   -0.1051 H   0  0  0  0  0  0  0  0  0  0  0  0
    0.1046   -3.4366   -0.1759 C   0  0  0  0  0  0  0  0  0  0  0  0
   -4.6683   -0.7244   -0.0099 C   0  0  0  0  0  0  0  0  0  0  0  0
   -5.9109   -1.4233    0.0360 C   0  0  0  0  0  0  0  0  0  0  0  0
   -5.8795   -2.5224    0.0353 H   0  0  0  0  0  0  0  0  0  0  0  0
   -7.0999   -0.7133    0.0802 C   0  0  0  0  0  0  0  0  0  0  0  0
   -8.0592   -1.2514    0.1161 H   0  0  0  0  0  0  0  0  0  0  0  0
   -7.1000    0.7132    0.0802 C   0  0  0  0  0  0  0  0  0  0  0  0
   -8.0592    1.2513    0.1163 H   0  0  0  0  0  0  0  0  0  0  0  0
   -5.9109    1.4232    0.0361 C   0  0  0  0  0  0  0  0  0  0  0  0
   -5.8796    2.5222    0.0355 H   0  0  0  0  0  0  0  0  0  0  0  0
   -4.6684    0.7244   -0.0099 C   0  0  0  0  0  0  0  0  0  0  0  0
    0.1045    3.4366   -0.1759 C   0  0  0  0  0  0  0  0  0  0  0  0
    0.1570    4.8617   -0.1642 C   0  0  0  0  0  0  0  0  0  0  0  0
   -0.7958    5.4066   -0.1053 H   0  0  0  0  0  0  0  0  0  0  0  0
    1.3813    5.5082   -0.2273 C   0  0  0  0  0  0  0  0  0  0  0  0
    1.4197    6.6079   -0.2170 H   0  0  0  0  0  0  0  0  0  0  0  0
    2.5999    4.7708   -0.3104 C   0  0  0  0  0  0  0  0  0  0  0  0
    3.5557    5.3125   -0.3687 H   0  0  0  0  0  0  0  0  0  0  0  0
    2.5951    3.3852   -0.3220 C   0  0  0  0  0  0  0  0  0  0  0  0
    3.5181    2.7892   -0.4042 H   0  0  0  0  0  0  0  0  0  0  0  0
    1.3511    2.7002   -0.2455 C   0  0  0  0  0  0  0  0  0  0  0  0
  1  7  1  0  0  0  0
  2  8  1  0  0  0  0
  4 23  1  0  0  0  0
  5 32  1  0  0  0  0
  7 12  1  0  0  0  0
  8  7  2  0  0  0  0
  8  9  1  0  0  0  0
  9  3  2  0  0  0  0
  9 10  1  0  0  0  0
 10 11  1  0  0  0  0
 10  4  2  0  0  0  0
 11  5  2  0  0  0  0
 12  6  2  0  0  0  0
 12 11  1  0  0  0  0
 13  2  1  0  0  0  0
 13 22  1  0  0  0  0
 14 16  1  0  0  0  0
 14 13  2  0  0  0  0
 15 14  1  0  0  0  0
 16 18  2  0  0  0  0
 17 16  1  0  0  0  0
 18 19  1  0  0  0  0
 18 20  1  0  0  0  0
 20 21  1  0  0  0  0
 22 20  2  0  0  0  0
 22  3  1  0  0  0  0
 23 32  2  0  0  0  0
 23 24  1  0  0  0  0
 24 26  2  0  0  0  0
 25 24  1  0  0  0  0
 26 28  1  0  0  0  0
 26 27  1  0  0  0  0
 28 29  1  0  0  0  0
 30 28  2  0  0  0  0
 31 30  1  0  0  0  0
 32 30  1  0  0  0  0
 33 34  1  0  0  0  0
 33  6  1  0  0  0  0
 34 35  1  0  0  0  0
 36 37  1  0  0  0  0
 36 34  2  0  0  0  0
 38 36  1  0  0  0  0
 39 38  1  0  0  0  0
 40 38  2  0  0  0  0
 40 42  1  0  0  0  0
 41 40  1  0  0  0  0
 42  1  1  0  0  0  0
 42 33  2  0  0  0  0
M  END
