4,5
q = -1.0

 21 21  0  0  0  0  0  0  0  0999 V2000
    0.4301    2.3797   -0.5247 S   0  0  0  0  0  0  0  0  0  0  0  0
   -0.3359    3.5938   -0.1468 O   0  0  0  0  0  0  0  0  0  0  0  0
    0.1211    1.6919   -1.8045 O   0  0  0  0  0  0  0  0  0  0  0  0
   -1.5376   -0.5406    0.0866 N   0  0  0  0  0  2  0  0  0  0  0  0
    0.3178    1.2885    0.8121 N   0  0  0  0  0  2  0  0  0  0  0  0
   -2.3267   -1.3768   -0.6158 C   0  0  0  0  0  3  0  0  0  0  0  0
   -1.8102   -2.2349   -1.0772 H   0  0  0  0  0  0  0  0  0  0  0  0
   -3.7011   -1.1425   -0.7103 C   0  0  0  0  0  0  0  0  0  0  0  0
   -4.3282   -1.8351   -1.2884 H   0  0  0  0  0  0  0  0  0  0  0  0
   -4.2446   -0.0195   -0.0690 C   0  0  0  0  0  0  0  0  0  0  0  0
   -5.3218    0.1937   -0.1392 H   0  0  0  0  0  0  0  0  0  0  0  0
   -3.4038    0.8364    0.6555 C   0  0  0  0  0  0  0  0  0  0  0  0
   -3.7948    1.7308    1.1604 H   0  0  0  0  0  0  0  0  0  0  0  0
   -2.0334    0.5570    0.7235 C   0  0  0  0  0  0  0  0  0  0  0  0
   -0.9977    1.3642    1.4636 C   0  0  0  0  0  0  0  0  0  0  0  0
   -1.3091    2.4248    1.5547 H   0  0  0  0  0  0  0  0  0  0  0  0
   -0.8907    0.9528    2.4933 H   0  0  0  0  0  0  0  0  0  0  0  0
    2.1827    2.7559   -0.4934 C   0  0  0  0  0  0  0  0  0  0  0  0
    2.3751    3.3711   -1.3916 H   0  0  0  0  0  0  0  0  0  0  0  0
    2.7387    1.7990   -0.5231 H   0  0  0  0  0  0  0  0  0  0  0  0
    2.3935    3.3121    0.4364 H   0  0  0  0  0  0  0  0  0  0  0  0
  1 18  1  0  0  0  0
  1  2  2  0  0  0  0
  1  5  1  0  0  0  0
  3  1  2  0  0  0  0
  4 14  1  0  0  0  0
  5 15  1  0  0  0  0
  6  4  1  0  0  0  0
  7  6  1  0  0  0  0
  8  6  1  0  0  0  0
  8 10  2  0  0  0  0
  9  8  1  0  0  0  0
 10 12  1  0  0  0  0
 11 10  1  0  0  0  0
 12 14  2  0  0  0  0
 12 13  1  0  0  0  0
 14 15  1  0  0  0  0
 15 16  1  0  0  0  0
 15 17  1  0  0  0  0
 18 21  1  0  0  0  0
 19 18  1  0  0  0  0
 20 18  1  0  0  0  0
M  END
