4,5
q = -1.0

 34 36  0  0  0  0  0  0  0  0999 V2000
   -1.1965    1.1579    1.2777 S   0  0  0  0  0  0  0  0  0  0  0  0
   -1.0435    0.1801    2.3744 O   0  0  0  0  0  0  0  0  0  0  0  0
   -1.1164    2.6089    1.5649 O   0  0  0  0  0  0  0  0  0  0  0  0
    2.5037   -0.1674   -0.0776 N   0  0  0  0  0  2  0  0  0  0  0  0
   -0.0056    0.8098    0.0577 N   0  0  0  0  0  2  0  0  0  0  0  0
    3.7013   -0.7547   -0.0971 C   0  0  0  0  0  0  0  0  0  0  0  0
    3.6967   -1.8523    0.0059 H   0  0  0  0  0  0  0  0  0  0  0  0
    4.8768    0.0094   -0.2747 C   0  0  0  0  0  0  0  0  0  0  0  0
    5.8479   -0.5044   -0.2825 H   0  0  0  0  0  0  0  0  0  0  0  0
    4.7803    1.3828   -0.4510 C   0  0  0  0  0  0  0  0  0  0  0  0
    5.6834    1.9926   -0.6082 H   0  0  0  0  0  0  0  0  0  0  0  0
    3.5108    2.0252   -0.4294 C   0  0  0  0  0  0  0  0  0  0  0  0
    3.3132    3.4226   -0.5886 C   0  0  0  0  0  3  0  0  0  0  0  0
    4.1826    4.0763   -0.7481 H   0  0  0  0  0  0  0  0  0  0  0  0
    2.0207    3.9345   -0.5405 C   0  0  0  0  0  0  0  0  0  0  0  0
    1.8597    5.0151   -0.6721 H   0  0  0  0  0  0  0  0  0  0  0  0
    0.8897    3.1130   -0.3281 C   0  0  0  0  0  0  0  0  0  0  0  0
   -0.1101    3.5578   -0.2757 H   0  0  0  0  0  0  0  0  0  0  0  0
    1.0341    1.7269   -0.1451 C   0  0  0  0  0  0  0  0  0  0  0  0
    2.3596    1.1927   -0.2201 C   0  0  0  0  0  0  0  0  0  0  0  0
   -2.7355    0.8463    0.4240 C   0  0  0  0  0  0  0  0  0  0  0  0
   -2.9764    1.4396   -0.8228 C   0  0  0  0  0  0  0  0  0  0  0  0
   -2.1946    2.0356   -1.3160 H   0  0  0  0  0  0  0  0  0  0  0  0
   -4.2162    1.2363   -1.4370 C   0  0  0  0  0  0  0  0  0  0  0  0
   -4.4119    1.6886   -2.4218 H   0  0  0  0  0  0  0  0  0  0  0  0
   -5.2200    0.4575   -0.8193 C   0  0  0  0  0  0  0  0  0  0  0  0
   -6.5378    0.2206   -1.5103 C   0  0  0  0  0  0  0  0  0  0  0  0
   -6.9117    1.1414   -2.0012 H   0  0  0  0  0  0  0  0  0  0  0  0
   -7.3122   -0.1366   -0.8046 H   0  0  0  0  0  0  0  0  0  0  0  0
   -6.4321   -0.5490   -2.3048 H   0  0  0  0  0  0  0  0  0  0  0  0
   -4.9450   -0.1137    0.4398 C   0  0  0  0  0  0  0  0  0  0  0  0
   -5.7146   -0.7255    0.9357 H   0  0  0  0  0  0  0  0  0  0  0  0
   -3.7065    0.0703    1.0674 C   0  0  0  0  0  0  0  0  0  0  0  0
   -3.4735   -0.3959    2.0348 H   0  0  0  0  0  0  0  0  0  0  0  0
  1  3  2  0  0  0  0
  1  2  2  0  0  0  0
  5  1  1  0  0  0  0
  6  4  1  0  0  0  0
  6  7  1  0  0  0  0
  8  6  2  0  0  0  0
  9  8  1  0  0  0  0
 10 12  2  0  0  0  0
 10  8  1  0  0  0  0
 11 10  1  0  0  0  0
 12 20  1  0  0  0  0
 13 15  1  0  0  0  0
 13 12  1  0  0  0  0
 14 13  1  0  0  0  0
 15 17  2  0  0  0  0
 16 15  1  0  0  0  0
 17 18  1  0  0  0  0
 17 19  1  0  0  0  0
 19  5  1  0  0  0  0
 20 19  2  0  0  0  0
 20  4  1  0  0  0  0
 21 33  1  0  0  0  0
 21  1  1  0  0  0  0
 22 21  2  0  0  0  0
 23 22  1  0  0  0  0
 24 22  1  0  0  0  0
 24 26  2  0  0  0  0
 25 24  1  0  0  0  0
 26 31  1  0  0  0  0
 27 26  1  0  0  0  0
 27 29  1  0  0  0  0
 28 27  1  0  0  0  0
 30 27  1  0  0  0  0
 31 32  1  0  0  0  0
 31 33  2  0  0  0  0
 33 34  1  0  0  0  0
M  END
