1,2
q = -1.0

 24 25  0  0  1  0  0  0  0  0999 V2000
    0.0084    2.0485    0.3583 N   0  0  0  0  0  0  0  0  0  0  0  0
    1.8143    0.7983   -1.1860 N   0  0  0  0  0  2  0  0  0  0  0  0
   -0.6813    2.8023    1.2854 C   0  0  0  0  0  3  0  0  0  0  0  0
    0.0917    3.9253    1.6332 C   0  0  0  0  0  0  0  0  0  0  0  0
   -0.2020    4.7062    2.3464 H   0  0  0  0  0  0  0  0  0  0  0  0
    1.3087    3.8714    0.9099 C   0  0  0  0  0  0  0  0  0  0  0  0
    1.2337    2.6865    0.1361 C   0  0  0  0  0  0  0  0  0  0  0  0
    2.1913    2.0306   -0.7185 C   0  0  1  0  0  3  0  0  0  0  0  0
    3.4617    2.5569   -1.0736 C   0  0  0  0  0  0  0  0  0  0  0  0
    3.7615    3.5455   -0.7096 H   0  0  0  0  0  0  0  0  0  0  0  0
    4.3146    1.8121   -1.8852 C   0  0  0  0  0  0  0  0  0  0  0  0
    5.3014    2.2157   -2.1593 H   0  0  0  0  0  0  0  0  0  0  0  0
    3.9032    0.5514   -2.3578 C   0  0  0  0  0  0  0  0  0  0  0  0
    4.5414   -0.0617   -3.0083 H   0  0  0  0  0  0  0  0  0  0  0  0
    2.6386    0.0925   -1.9864 C   0  0  0  0  0  0  0  0  0  0  0  0
    2.2494   -0.8730   -2.3418 H   0  0  0  0  0  0  0  0  0  0  0  0
    2.4223    4.8710    1.0027 C   0  0  0  0  0  0  0  0  0  0  0  0
    2.1688    5.6689    1.7271 H   0  0  0  0  0  0  0  0  0  0  0  0
    2.6301    5.3650    0.0295 H   0  0  0  0  0  0  0  0  0  0  0  0
    3.3741    4.4078    1.3404 H   0  0  0  0  0  0  0  0  0  0  0  0
   -2.0233    2.4429    1.8461 C   0  0  0  0  0  0  0  0  0  0  0  0
   -2.8565    2.7461    1.1772 H   0  0  0  0  0  0  0  0  0  0  0  0
   -2.1735    2.9630    2.8117 H   0  0  0  0  0  0  0  0  0  0  0  0
   -2.1298    1.3537    2.0219 H   0  0  0  0  0  0  0  0  0  0  0  0
  1  3  1  0  0  0  0
  2  8  1  0  0  0  0
  3  4  1  0  0  0  0
  3 21  1  0  0  0  0
  4  5  1  0  0  0  0
  6 17  1  0  0  0  0
  6  4  2  0  0  0  0
  7  1  2  0  0  0  0
  7  6  1  0  0  0  0
  8  7  1  1  0  0  0
  9  8  1  0  0  0  0
  9 10  1  0  0  0  0
 11  9  2  0  0  0  0
 12 11  1  0  0  0  0
 13 15  2  0  0  0  0
 13 11  1  0  0  0  0
 14 13  1  0  0  0  0
 15  2  1  0  0  0  0
 16 15  1  0  0  0  0
 17 20  1  0  0  0  0
 17 18  1  0  0  0  0
 19 17  1  0  0  0  0
 21 24  1  0  0  0  0
 21 23  1  0  0  0  0
 22 21  1  0  0  0  0
M  END
