1,2
q = -1.0, confidence = 0.014

 27 26  0  0  0  0  0  0  0  0999 V2000
    1.4514    1.1059    0.3713 N   0  0  0  0  0  2  0  0  0  0  0  0
    1.3066   -1.1386   -0.7222 N   0  0  0  0  0  2  0  0  0  0  0  0
    3.7440    1.4594   -0.0066 N   0  0  0  0  0  0  0  0  0  0  0  0
    3.6394   -1.4684   -0.9856 N   0  0  0  0  0  0  0  0  0  0  0  0
    1.3820    2.3697    0.8447 O   0  0  0  0  0  0  0  0  0  0  0  0
    1.0832   -2.3550   -1.1581 O   0  0  0  0  0  1  0  0  0  0  0  0
    2.6180    0.6797   -0.0848 C   0  0  0  0  0  0  0  0  0  0  0  0
    2.5533   -0.6979   -0.5966 C   0  0  0  0  0  0  0  0  0  0  0  0
    4.7642    1.4949   -1.0449 C   0  0  0  0  0  0  0  0  0  0  0  0
    6.1498    1.7353   -0.5107 C   0  0  0  0  0  0  0  0  0  0  0  0
    6.4837    1.8039    0.7890 C   0  0  0  0  0  0  0  0  0  0  0  0
    4.7065   -1.7445   -0.0198 C   0  0  0  0  0  0  0  0  0  0  0  0
    4.3671   -2.7164    1.0849 C   0  0  0  0  0  0  0  0  0  0  0  0
    3.2057   -3.3761    1.2320 C   0  0  0  0  0  0  0  0  0  0  0  0
    4.5276    2.2762   -1.8084 H   0  0  0  0  0  0  0  0  0  0  0  0
    4.7333    0.5320   -1.5999 H   0  0  0  0  0  0  0  0  0  0  0  0
    6.9257    1.8666   -1.2860 H   0  0  0  0  0  0  0  0  0  0  0  0
    7.5222    1.9844    1.1044 H   0  0  0  0  0  0  0  0  0  0  0  0
    5.7234    1.6764    1.5764 H   0  0  0  0  0  0  0  0  0  0  0  0
    5.5916   -2.1181   -0.5823 H   0  0  0  0  0  0  0  0  0  0  0  0
    5.0405   -0.7848    0.4295 H   0  0  0  0  0  0  0  0  0  0  0  0
    5.1812   -2.8716    1.8170 H   0  0  0  0  0  0  0  0  0  0  0  0
    3.0576   -4.0657    2.0774 H   0  0  0  0  0  0  0  0  0  0  0  0
    2.3684   -3.2579    0.5210 H   0  0  0  0  0  0  0  0  0  0  0  0
    0.3289    2.4871    1.0420 H   0  0  0  0  0  0  0  0  0  0  0  0
    3.5237    2.3657    0.4237 H   0  0  0  0  0  0  0  0  0  0  0  0
    3.2675   -2.3248   -1.4226 H   0  0  0  0  0  0  0  0  0  0  0  0
  1  5  1  0  0  0  0
  2  8  1  0  0  0  0
  3 26  1  0  0  0  0
  4  8  1  0  0  0  0
  4 12  1  0  0  0  0
  5 25  1  0  0  0  0
  6  2  1  0  0  0  0
  7  3  1  0  0  0  0
  7  1  1  0  0  0  0
  8  7  2  0  0  0  0
  9 10  1  0  0  0  0
  9  3  1  0  0  0  0
 10 11  2  0  0  0  0
 11 18  1  0  0  0  0
 11 19  1  0  0  0  0
 12 21  1  0  0  0  0
 12 13  1  0  0  0  0
 13 14  2  0  0  0  0
 13 22  1  0  0  0  0
 14 23  1  0  0  0  0
 15  9  1  0  0  0  0
 16  9  1  0  0  0  0
 17 10  1  0  0  0  0
 20 12  1  0  0  0  0
 24 14  1  0  0  0  0
 27  4  1  0  0  0  0
M  END
