1,2
q = -1.0

 33 34  0  0  0  0  0  0  0  0999 V2000
    1.3713    0.9663   -0.8079 N   0  0  0  0  0  2  0  0  0  0  0  0
    1.4007   -0.9645    0.7903 N   0  0  0  0  0  2  0  0  0  0  0  0
    3.6787    1.3879   -0.7938 N   0  0  0  0  0  0  0  0  0  0  0  0
    3.7298   -1.2636    0.8382 N   0  0  0  0  0  0  0  0  0  0  0  0
    1.2176    2.0774   -1.5539 O   0  0  0  0  0  0  0  0  0  0  0  0
    1.2573   -2.0158    1.5520 O   0  0  0  0  0  1  0  0  0  0  0  0
    2.5921    0.6528   -0.3994 C   0  0  0  0  0  0  0  0  0  0  0  0
    2.6161   -0.5839    0.4010 C   0  0  0  0  0  0  0  0  0  0  0  0
    4.8764    1.5750   -0.0722 C   0  0  0  0  0  0  0  0  0  0  0  0
    6.0736    1.8052   -0.7801 C   0  0  0  0  0  0  0  0  0  0  0  0
    7.2771    1.9793   -0.0865 C   0  0  0  0  0  0  0  0  0  0  0  0
    7.3052    1.9112    1.3160 C   0  0  0  0  0  0  0  0  0  0  0  0
    6.1111    1.6906    2.0207 C   0  0  0  0  0  0  0  0  0  0  0  0
    4.8979    1.5368    1.3375 C   0  0  0  0  0  0  0  0  0  0  0  0
    4.8923   -1.5205    0.0912 C   0  0  0  0  0  0  0  0  0  0  0  0
    4.8938   -1.4715   -1.3200 C   0  0  0  0  0  0  0  0  0  0  0  0
    6.0839   -1.6863   -2.0270 C   0  0  0  0  0  0  0  0  0  0  0  0
    7.2782   -1.9767   -1.3486 C   0  0  0  0  0  0  0  0  0  0  0  0
    7.2699   -2.0545    0.0542 C   0  0  0  0  0  0  0  0  0  0  0  0
    6.0916   -1.8218    0.7722 C   0  0  0  0  0  0  0  0  0  0  0  0
    0.1363    2.1518   -1.6474 H   0  0  0  0  0  0  0  0  0  0  0  0
    3.4613    2.0479   -1.5477 H   0  0  0  0  0  0  0  0  0  0  0  0
    3.5089   -1.8920    1.6198 H   0  0  0  0  0  0  0  0  0  0  0  0
    6.0536    1.8161   -1.8800 H   0  0  0  0  0  0  0  0  0  0  0  0
    8.2063    2.1503   -0.6506 H   0  0  0  0  0  0  0  0  0  0  0  0
    8.2545    2.0344    1.8581 H   0  0  0  0  0  0  0  0  0  0  0  0
    6.1187    1.6539    3.1208 H   0  0  0  0  0  0  0  0  0  0  0  0
    3.9595    1.3925    1.8915 H   0  0  0  0  0  0  0  0  0  0  0  0
    3.9554   -1.2746   -1.8580 H   0  0  0  0  0  0  0  0  0  0  0  0
    6.0715   -1.6424   -3.1269 H   0  0  0  0  0  0  0  0  0  0  0  0
    8.2090   -2.1475   -1.9093 H   0  0  0  0  0  0  0  0  0  0  0  0
    8.1981   -2.2824    0.6000 H   0  0  0  0  0  0  0  0  0  0  0  0
    6.0919   -1.8445    1.8723 H   0  0  0  0  0  0  0  0  0  0  0  0
  1  7  1  0  0  0  0
  2  6  1  0  0  0  0
  3  7  1  0  0  0  0
  3  9  1  0  0  0  0
  4 23  1  0  0  0  0
  5  1  1  0  0  0  0
  7  8  2  0  0  0  0
  8  2  1  0  0  0  0
  8  4  1  0  0  0  0
  9 14  1  0  0  0  0
 10 11  1  0  0  0  0
 10  9  2  0  0  0  0
 11 12  2  0  0  0  0
 12 26  1  0  0  0  0
 12 13  1  0  0  0  0
 13 27  1  0  0  0  0
 14 28  1  0  0  0  0
 14 13  2  0  0  0  0
 15 20  1  0  0  0  0
 15  4  1  0  0  0  0
 16 15  2  0  0  0  0
 17 18  2  0  0  0  0
 17 16  1  0  0  0  0
 18 19  1  0  0  0  0
 19 32  1  0  0  0  0
 19 20  2  0  0  0  0
 20 33  1  0  0  0  0
 21  5  1  0  0  0  0
 22  3  1  0  0  0  0
 24 10  1  0  0  0  0
 25 11  1  0  0  0  0
 29 16  1  0  0  0  0
 30 17  1  0  0  0  0
 31 18  1  0  0  0  0
M  END
