1,3
q = 0.0, confidence = 0.994

 61 67  0  0  1  0  0  0  0  0999 V2000
   -0.1722    1.2135   -0.5969 N   0  0  0  0  0  2  0  0  0  0  0  0
    1.1235   -1.3329   -0.5923 N   0  0  0  0  0  2  0  0  0  0  0  0
   -2.1027   -0.7135    1.3167 N   0  0  0  0  0  2  0  0  0  0  0  0
    1.0812    1.0690   -0.2437 C   0  0  0  0  0  0  0  0  0  0  0  0
    1.7655   -0.2780   -0.2183 C   0  0  0  0  0  0  0  0  0  0  0  0
    3.1261   -0.0469    0.3389 C   0  0  0  0  0  0  0  0  0  0  0  0
    4.1904   -0.8705    0.7037 C   0  0  0  0  0  0  0  0  0  0  0  0
    4.1519   -1.9572    0.5505 H   0  0  0  0  0  0  0  0  0  0  0  0
    5.3465   -0.2800    1.2883 C   0  0  0  0  0  0  0  0  0  0  0  0
    6.1838   -0.9355    1.5721 H   0  0  0  0  0  0  0  0  0  0  0  0
    5.4540    1.0926    1.5090 C   0  0  0  0  0  0  0  0  0  0  0  0
    6.3676    1.5116    1.9583 H   0  0  0  0  0  0  0  0  0  0  0  0
    4.3758    1.9621    1.1658 C   0  0  0  0  0  0  0  0  0  0  0  0
    4.3140    3.3745    1.3620 C   0  0  0  0  0  0  0  0  0  0  0  0
    5.1770    3.9008    1.7983 H   0  0  0  0  0  0  0  0  0  0  0  0
    3.1642    4.0819    1.0125 C   0  0  0  0  0  0  0  0  0  0  0  0
    3.1338    5.1695    1.1777 H   0  0  0  0  0  0  0  0  0  0  0  0
    2.0177    3.4518    0.4518 C   0  0  0  0  0  0  0  0  0  0  0  0
    1.1339    4.0532    0.2035 H   0  0  0  0  0  0  0  0  0  0  0  0
    2.0500    2.0729    0.2325 C   0  0  0  0  0  0  0  0  0  0  0  0
    3.2325    1.3527    0.5862 C   0  0  0  0  0  0  0  0  0  0  0  0
   -0.7032    2.5217   -0.8042 C   0  0  0  0  0  0  0  0  0  0  0  0
   -0.3043    3.2351   -1.9535 C   0  0  0  0  0  0  0  0  0  0  0  0
    0.4056    2.7644   -2.6482 H   0  0  0  0  0  0  0  0  0  0  0  0
   -0.8136    4.5160   -2.2000 C   0  0  0  0  0  0  0  0  0  0  0  0
   -0.5015    5.0613   -3.1032 H   0  0  0  0  0  0  0  0  0  0  0  0
   -1.7154    5.0967   -1.2947 C   0  0  0  0  0  0  0  0  0  0  0  0
   -2.1144    6.1055   -1.4771 H   0  0  0  0  0  0  0  0  0  0  0  0
   -2.1107    4.3802   -0.1543 C   0  0  0  0  0  0  0  0  0  0  0  0
   -2.8171    4.8339    0.5591 H   0  0  0  0  0  0  0  0  0  0  0  0
   -1.6266    3.0870    0.1140 C   0  0  0  0  0  0  0  0  0  0  0  0
   -2.0881    2.3058    1.3183 C   0  0  0  0  0  0  0  0  0  0  0  0
   -2.3480    3.0032    2.1399 H   0  0  0  0  0  0  0  0  0  0  0  0
   -1.2502    1.6803    1.6853 H   0  0  0  0  0  0  0  0  0  0  0  0
   -3.3024    1.3727    1.0183 C   0  0  0  0  0  0  0  0  0  0  0  0
   -4.2540    1.8611    1.3050 H   0  0  0  0  0  0  0  0  0  0  0  0
   -3.3452    1.1671   -0.0762 H   0  0  0  0  0  0  0  0  0  0  0  0
   -3.1567    0.0432    1.7100 C   0  0  2  0  0  3  0  0  0  0  0  0
   -4.0184   -0.3739    2.7371 C   0  0  0  0  0  0  0  0  0  0  0  0
   -4.8688    0.2607    3.0252 H   0  0  0  0  0  0  0  0  0  0  0  0
   -3.7740   -1.5966    3.3740 C   0  0  0  0  0  0  0  0  0  0  0  0
   -4.4428   -1.9568    4.1705 H   0  0  0  0  0  0  0  0  0  0  0  0
   -2.6486   -2.3381    3.0006 C   0  0  0  0  0  0  0  0  0  0  0  0
   -2.3980   -3.2823    3.5054 H   0  0  0  0  0  0  0  0  0  0  0  0
   -1.8127   -1.8631    1.9715 C   0  0  0  0  0  0  0  0  0  0  0  0
   -0.5397   -2.5895    1.6123 C   0  0  0  0  0  0  0  0  0  0  0  0
   -0.2600   -3.2620    2.4486 H   0  0  0  0  0  0  0  0  0  0  0  0
    0.2523   -1.8195    1.5389 H   0  0  0  0  0  0  0  0  0  0  0  0
   -0.5835   -3.3862    0.2889 C   0  0  0  0  0  0  0  0  0  0  0  0
   -1.1525   -4.3259    0.4367 H   0  0  0  0  0  0  0  0  0  0  0  0
   -1.1592   -2.7903   -0.4566 H   0  0  0  0  0  0  0  0  0  0  0  0
    0.7657   -3.6924   -0.3041 C   0  0  0  0  0  0  0  0  0  0  0  0
    1.2191   -5.0094   -0.4865 C   0  0  0  0  0  0  0  0  0  0  0  0
    0.5830   -5.8370   -0.1349 H   0  0  0  0  0  0  0  0  0  0  0  0
    2.4332   -5.2899   -1.1341 C   0  0  0  0  0  0  0  0  0  0  0  0
    2.7503   -6.3332   -1.2806 H   0  0  0  0  0  0  0  0  0  0  0  0
    3.2239   -4.2352   -1.6201 C   0  0  0  0  0  0  0  0  0  0  0  0
    4.1570   -4.4452   -2.1647 H   0  0  0  0  0  0  0  0  0  0  0  0
    2.8200   -2.9113   -1.4185 C   0  0  0  0  0  0  0  0  0  0  0  0
    3.4165   -2.0781   -1.8181 H   0  0  0  0  0  0  0  0  0  0  0  0
    1.6082   -2.6223   -0.7429 C   0  0  0  0  0  0  0  0  0  0  0  0
  1  4  1  0  0  0  0
  2  5  1  0  0  0  0
  3 45  1  0  0  0  0
  4  5  2  0  0  0  0
  4 20  1  0  0  0  0
  5  6  1  0  0  0  0
  6 21  2  0  0  0  0
  6  7  1  0  0  0  0
  7  9  2  0  0  0  0
  8  7  1  0  0  0  0
  9 11  1  0  0  0  0
  9 10  1  0  0  0  0
 11 12  1  0  0  0  0
 13 14  1  0  0  0  0
 13 11  2  0  0  0  0
 14 15  1  0  0  0  0
 16 17  1  0  0  0  0
 16 14  2  0  0  0  0
 18 16  1  0  0  0  0
 19 18  1  0  0  0  0
 20 18  2  0  0  0  0
 20 21  1  0  0  0  0
 21 13  1  0  0  0  0
 22  1  1  0  0  0  0
 22 31  1  0  0  0  0
 23 22  2  0  0  0  0
 24 23  1  0  0  0  0
 25 23  1  0  0  0  0
 25 27  2  0  0  0  0
 26 25  1  0  0  0  0
 27 29  1  0  0  0  0
 28 27  1  0  0  0  0
 29 31  2  0  0  0  0
 29 30  1  0  0  0  0
 31 32  1  0  0  0  0
 32 34  1  0  0  0  0
 32 33  1  0  0  0  0
 35 36  1  0  0  0  0
 35 32  1  0  0  0  0
 35 38  1  0  0  0  0
 37 35  1  0  0  0  0
 38  3  1  1  0  0  0
 38 39  1  0  0  0  0
 39 40  1  0  0  0  0
 39 41  2  0  0  0  0
 41 42  1  0  0  0  0
 43 41  1  0  0  0  0
 43 44  1  0  0  0  0
 45 43  2  0  0  0  0
 46 45  1  0  0  0  0
 46 47  1  0  0  0  0
 48 46  1  0  0  0  0
 49 50  1  0  0  0  0
 49 46  1  0  0  0  0
 51 49  1  0  0  0  0
 52 49  1  0  0  0  0
 53 52  1  0  0  0  0
 53 54  1  0  0  0  0
 55 53  2  0  0  0  0
 56 55  1  0  0  0  0
 57 59  2  0  0  0  0
 57 55  1  0  0  0  0
 58 57  1  0  0  0  0
 59 61  1  0  0  0  0
 60 59  1  0  0  0  0
 61  2  1  0  0  0  0
 61 52  2  0  0  0  0
M  END
