1,3
q = 0.0, confidence = 0.962

 38 41  0  0  0  0  0  0  0  0999 V2000
    0.5388    0.5995   -0.0466 N   0  0  0  0  0  2  0  0  0  0  0  0
   -0.1431    2.8860   -0.1150 N   0  0  0  0  0  0  0  0  0  0  0  0
    3.0435    1.2223   -0.2866 N   0  0  0  0  0  2  0  0  0  0  0  0
   -0.7401    0.2060   -0.1239 N   0  0  0  0  0  2  0  0  0  0  0  0
   -3.0707    0.5358   -0.3797 C   0  0  0  0  0  0  0  0  0  0  0  0
   -1.4281    2.5154    0.0032 C   0  0  0  0  0  0  0  0  0  0  0  0
    0.8018    1.9596   -0.1669 C   0  0  0  0  0  0  0  0  0  0  0  0
   -1.7222    1.1063   -0.1362 C   0  0  0  0  0  0  0  0  0  0  0  0
    4.3699    1.4076   -0.4614 C   0  0  0  0  0  3  0  0  0  0  0  0
    4.9843    0.4958   -0.4136 H   0  0  0  0  0  0  0  0  0  0  0  0
    2.2052    2.2932   -0.3300 C   0  0  0  0  0  0  0  0  0  0  0  0
   -3.4072   -0.7220    0.1675 C   0  0  0  0  0  0  0  0  0  0  0  0
   -2.6769   -1.2355    0.8084 H   0  0  0  0  0  0  0  0  0  0  0  0
    2.6824    3.6028   -0.5267 C   0  0  0  0  0  0  0  0  0  0  0  0
    1.9564    4.4268   -0.5376 H   0  0  0  0  0  0  0  0  0  0  0  0
   -2.1845    4.8871   -0.1761 C   0  0  0  0  0  0  0  0  0  0  0  0
   -1.2786    5.0816   -0.7678 H   0  0  0  0  0  0  0  0  0  0  0  0
   -3.9985    1.1910   -1.2199 C   0  0  0  0  0  0  0  0  0  0  0  0
   -3.7395    2.1600   -1.6702 H   0  0  0  0  0  0  0  0  0  0  0  0
   -2.4189    3.5715    0.2880 C   0  0  0  0  0  0  0  0  0  0  0  0
    4.9105    2.6773   -0.6725 C   0  0  0  0  0  0  0  0  0  0  0  0
    5.9957    2.7854   -0.8066 H   0  0  0  0  0  0  0  0  0  0  0  0
    4.0526    3.7946   -0.7001 C   0  0  0  0  0  0  0  0  0  0  0  0
    4.4572    4.8055   -0.8576 H   0  0  0  0  0  0  0  0  0  0  0  0
   -3.5721    3.3211    1.0691 C   0  0  0  0  0  0  0  0  0  0  0  0
   -3.7553    2.3135    1.4677 H   0  0  0  0  0  0  0  0  0  0  0  0
   -4.6513   -1.3050   -0.1065 C   0  0  0  0  0  0  0  0  0  0  0  0
   -4.8994   -2.2885    0.3202 H   0  0  0  0  0  0  0  0  0  0  0  0
   -5.2381    0.6011   -1.4969 C   0  0  0  0  0  0  0  0  0  0  0  0
   -5.9489    1.1160   -2.1606 H   0  0  0  0  0  0  0  0  0  0  0  0
   -5.5702   -0.6444   -0.9381 C   0  0  0  0  0  0  0  0  0  0  0  0
   -6.5462   -1.1039   -1.1562 H   0  0  0  0  0  0  0  0  0  0  0  0
   -3.0913    5.9147    0.1068 C   0  0  0  0  0  0  0  0  0  0  0  0
   -2.9018    6.9301   -0.2732 H   0  0  0  0  0  0  0  0  0  0  0  0
   -4.2399    5.6529    0.8728 C   0  0  0  0  0  0  0  0  0  0  0  0
   -4.9522    6.4614    1.0965 H   0  0  0  0  0  0  0  0  0  0  0  0
   -4.4703    4.3552    1.3587 C   0  0  0  0  0  0  0  0  0  0  0  0
   -5.3572    4.1464    1.9758 H   0  0  0  0  0  0  0  0  0  0  0  0
  2  6  1  0  0  0  0
  4  1  1  0  0  0  0
  5  8  1  0  0  0  0
  5 12  1  0  0  0  0
  6 20  1  0  0  0  0
  7  2  2  0  0  0  0
  7  1  1  0  0  0  0
  8  4  1  0  0  0  0
  8  6  2  0  0  0  0
  9 10  1  0  0  0  0
  9  3  1  0  0  0  0
 11  3  1  0  0  0  0
 11  7  1  0  0  0  0
 12 13  1  0  0  0  0
 14 11  2  0  0  0  0
 15 14  1  0  0  0  0
 16 33  2  0  0  0  0
 16 20  1  0  0  0  0
 17 16  1  0  0  0  0
 18  5  2  0  0  0  0
 19 18  1  0  0  0  0
 20 25  2  0  0  0  0
 21  9  1  0  0  0  0
 22 21  1  0  0  0  0
 23 21  2  0  0  0  0
 23 14  1  0  0  0  0
 24 23  1  0  0  0  0
 25 37  1  0  0  0  0
 25 26  1  0  0  0  0
 27 12  2  0  0  0  0
 27 28  1  0  0  0  0
 29 18  1  0  0  0  0
 29 31  2  0  0  0  0
 30 29  1  0  0  0  0
 31 27  1  0  0  0  0
 32 31  1  0  0  0  0
 33 35  1  0  0  0  0
 34 33  1  0  0  0  0
 35 36  1  0  0  0  0
 35 37  2  0  0  0  0
 37 38  1  0  0  0  0
M  END
