19,20
q = -1.0

 56 58  0  0  0  0  0  0  0  0999 V2000
   -6.3757    0.7492   -2.8246 F   0  0  0  0  0  0  0  0  0  0  0  0
   -6.8409   -0.3909   -1.0261 F   0  0  0  0  0  0  0  0  0  0  0  0
   -7.5437    1.6695   -1.2235 F   0  0  0  0  0  0  0  0  0  0  0  0
   -5.0570    4.5999    1.7387 F   0  0  0  0  0  0  0  0  0  0  0  0
   -2.8724    4.5179    1.7617 F   0  0  0  0  0  0  0  0  0  0  0  0
   -4.0273    3.1840    3.0425 F   0  0  0  0  0  0  0  0  0  0  0  0
    3.6459   -2.7537    2.9272 F   0  0  0  0  0  0  0  0  0  0  0  0
    3.8493   -4.3573    1.4680 F   0  0  0  0  0  0  0  0  0  0  0  0
    5.4781   -2.9301    1.7471 F   0  0  0  0  0  0  0  0  0  0  0  0
    3.8470    0.6426   -3.2371 F   0  0  0  0  0  0  0  0  0  0  0  0
    5.4911    0.6806   -1.7983 F   0  0  0  0  0  0  0  0  0  0  0  0
    5.2473   -1.0310   -3.1244 F   0  0  0  0  0  0  0  0  0  0  0  0
    4.2238    1.8449    3.6532 F   0  0  0  0  0  0  0  0  0  0  0  0
    2.8919    0.1353    3.3784 F   0  0  0  0  0  0  0  0  0  0  0  0
    4.8757    0.1440    2.4595 F   0  0  0  0  0  0  0  0  0  0  0  0
    4.1667    5.1344   -1.1052 F   0  0  0  0  0  0  0  0  0  0  0  0
    5.7642    3.6493   -1.0485 F   0  0  0  0  0  0  0  0  0  0  0  0
    4.2542    3.5788   -2.6281 F   0  0  0  0  0  0  0  0  0  0  0  0
   -1.7593    0.0875   -0.6364 N   0  0  0  0  0  2  0  0  0  0  0  0
    0.1589   -0.8543   -0.1832 N   0  0  0  0  0  2  0  0  0  0  0  0
    0.1222    1.5745   -0.4942 N   0  0  0  0  0  0  0  0  0  0  0  0
   -0.3098    2.1964   -1.1833 H   0  0  0  0  0  0  0  0  0  0  0  0
   -0.4510    0.3150   -0.4298 C   0  0  0  0  0  3  0  0  0  0  0  0
   -2.8372    0.9381   -0.4597 C   0  0  0  0  0  0  0  0  0  0  0  0
   -4.0444    0.6229   -1.1246 C   0  0  0  0  0  0  0  0  0  0  0  0
   -4.0387   -0.2026   -1.8503 H   0  0  0  0  0  0  0  0  0  0  0  0
   -5.2225    1.3181   -0.8308 C   0  0  0  0  0  0  0  0  0  0  0  0
   -5.2267    2.3702    0.0991 C   0  0  0  0  0  0  0  0  0  0  0  0
   -6.1539    2.9071    0.3347 H   0  0  0  0  0  0  0  0  0  0  0  0
   -4.0176    2.7160    0.7248 C   0  0  0  0  0  0  0  0  0  0  0  0
   -2.8309    2.0242    0.4489 C   0  0  0  0  0  0  0  0  0  0  0  0
   -1.9079    2.2936    0.9789 H   0  0  0  0  0  0  0  0  0  0  0  0
   -6.5029    0.8509   -1.4824 C   0  0  0  0  0  0  0  0  0  0  0  0
   -3.9974    3.7666    1.8114 C   0  0  0  0  0  0  0  0  0  0  0  0
    1.5220   -1.1405   -0.3119 C   0  0  0  0  0  0  0  0  0  0  0  0
    2.1337   -1.9525    0.6615 C   0  0  0  0  0  0  0  0  0  0  0  0
    1.5223   -2.3604    1.4782 H   0  0  0  0  0  0  0  0  0  0  0  0
    3.5193   -2.1689    0.6345 C   0  0  0  0  0  0  0  0  0  0  0  0
    4.3146   -1.5714   -0.3515 C   0  0  0  0  0  0  0  0  0  0  0  0
    5.4044   -1.7044   -0.3374 H   0  0  0  0  0  0  0  0  0  0  0  0
    3.6969   -0.7905   -1.3448 C   0  0  0  0  0  0  0  0  0  0  0  0
    2.3113   -0.6021   -1.3546 C   0  0  0  0  0  0  0  0  0  0  0  0
    1.8358   -0.0176   -2.1552 H   0  0  0  0  0  0  0  0  0  0  0  0
    4.1350   -3.0487    1.6979 C   0  0  0  0  0  0  0  0  0  0  0  0
    4.5645   -0.1233   -2.3889 C   0  0  0  0  0  0  0  0  0  0  0  0
    1.4163    1.8998   -0.0545 C   0  0  0  0  0  0  0  0  0  0  0  0
    1.9075    1.3665    1.1558 C   0  0  0  0  0  0  0  0  0  0  0  0
    1.2573    0.7516    1.7906 H   0  0  0  0  0  0  0  0  0  0  0  0
    3.2427    1.5689    1.5128 C   0  0  0  0  0  0  0  0  0  0  0  0
    4.0915    2.3552    0.7139 C   0  0  0  0  0  0  0  0  0  0  0  0
    5.1460    2.4977    0.9836 H   0  0  0  0  0  0  0  0  0  0  0  0
    3.5770    2.9411   -0.4488 C   0  0  0  0  0  0  0  0  0  0  0  0
    2.2505    2.7087   -0.8454 C   0  0  0  0  0  0  0  0  0  0  0  0
    1.8864    3.1076   -1.8035 H   0  0  0  0  0  0  0  0  0  0  0  0
    3.8033    0.9206    2.7593 C   0  0  0  0  0  0  0  0  0  0  0  0
    4.4523    3.8241   -1.3127 C   0  0  0  0  0  0  0  0  0  0  0  0
  1 33  1  0  0  0  0
  4 34  1  0  0  0  0
  5 34  1  0  0  0  0
  8 44  1  0  0  0  0
 10 45  1  0  0  0  0
 12 45  1  0  0  0  0
 15 55  1  0  0  0  0
 18 56  1  0  0  0  0
 19 24  1  0  0  0  0
 19 23  1  0  0  0  0
 21 23  1  0  0  0  0
 21 46  1  0  0  0  0
 22 21  1  0  0  0  0
 23 20  1  0  0  0  0
 24 31  1  0  0  0  0
 25 27  1  0  0  0  0
 25 24  2  0  0  0  0
 26 25  1  0  0  0  0
 27 28  2  0  0  0  0
 28 29  1  0  0  0  0
 28 30  1  0  0  0  0
 30 34  1  0  0  0  0
 31 30  2  0  0  0  0
 31 32  1  0  0  0  0
 33  3  1  0  0  0  0
 33  2  1  0  0  0  0
 33 27  1  0  0  0  0
 34  6  1  0  0  0  0
 35 20  1  0  0  0  0
 35 36  1  0  0  0  0
 36 37  1  0  0  0  0
 38 36  2  0  0  0  0
 38 44  1  0  0  0  0
 39 40  1  0  0  0  0
 39 38  1  0  0  0  0
 41 39  2  0  0  0  0
 42 41  1  0  0  0  0
 42 35  2  0  0  0  0
 43 42  1  0  0  0  0
 44  9  1  0  0  0  0
 44  7  1  0  0  0  0
 45 11  1  0  0  0  0
 45 41  1  0  0  0  0
 46 47  1  0  0  0  0
 47 49  2  0  0  0  0
 47 48  1  0  0  0  0
 49 55  1  0  0  0  0
 50 51  1  0  0  0  0
 50 49  1  0  0  0  0
 52 50  2  0  0  0  0
 53 52  1  0  0  0  0
 53 46  2  0  0  0  0
 54 53  1  0  0  0  0
 55 14  1  0  0  0  0
 55 13  1  0  0  0  0
 56 16  1  0  0  0  0
 56 17  1  0  0  0  0
 56 52  1  0  0  0  0
M  END
