1,3
q = 0.0, confidence = 0.996

 30 33  0  0  0  0  0  0  0  0999 V2000
    2.5347    0.0335   -0.4103 N   0  0  0  0  0  2  0  0  0  0  0  0
    0.7592    1.5216   -0.2166 N   0  0  0  0  0  0  0  0  0  0  0  0
   -0.0618    0.4394   -0.2301 N   0  0  0  0  0  2  0  0  0  0  0  0
    3.8418   -0.2639   -0.4819 C   0  0  0  0  0  3  0  0  0  0  0  0
    4.0860   -1.3358   -0.5516 H   0  0  0  0  0  0  0  0  0  0  0  0
    4.8338    0.7220   -0.4622 C   0  0  0  0  0  0  0  0  0  0  0  0
    5.8945    0.4434   -0.5275 H   0  0  0  0  0  0  0  0  0  0  0  0
    4.4346    2.0640   -0.3490 C   0  0  0  0  0  0  0  0  0  0  0  0
    5.1829    2.8697   -0.3228 H   0  0  0  0  0  0  0  0  0  0  0  0
    3.0745    2.3793   -0.2627 C   0  0  0  0  0  0  0  0  0  0  0  0
    2.7436    3.4211   -0.1661 H   0  0  0  0  0  0  0  0  0  0  0  0
    2.1561    1.3152   -0.2974 C   0  0  0  0  0  0  0  0  0  0  0  0
    0.0640    2.6999   -0.1037 C   0  0  0  0  0  0  0  0  0  0  0  0
    0.5672    3.6700   -0.0766 H   0  0  0  0  0  0  0  0  0  0  0  0
   -1.2902    2.3613   -0.0437 C   0  0  0  0  0  0  0  0  0  0  0  0
   -2.5103    3.1005    0.0932 C   0  0  0  0  0  0  0  0  0  0  0  0
   -2.4961    4.1973    0.1670 H   0  0  0  0  0  0  0  0  0  0  0  0
   -3.6899    2.3969    0.1397 C   0  0  0  0  0  0  0  0  0  0  0  0
   -4.6432    2.9354    0.2538 H   0  0  0  0  0  0  0  0  0  0  0  0
   -3.7478    0.9530    0.0340 C   0  0  0  0  0  0  0  0  0  0  0  0
   -4.9886    0.2672    0.0680 C   0  0  0  0  0  0  0  0  0  0  0  0
   -5.9143    0.8501    0.1926 H   0  0  0  0  0  0  0  0  0  0  0  0
   -5.0425   -1.1202   -0.0587 C   0  0  0  0  0  0  0  0  0  0  0  0
   -6.0148   -1.6350   -0.0296 H   0  0  0  0  0  0  0  0  0  0  0  0
   -3.8565   -1.8665   -0.2352 C   0  0  0  0  0  0  0  0  0  0  0  0
   -3.9039   -2.9593   -0.3523 H   0  0  0  0  0  0  0  0  0  0  0  0
   -2.6175   -1.2271   -0.2703 C   0  0  0  0  0  3  0  0  0  0  0  0
   -1.7001   -1.8145   -0.4427 H   0  0  0  0  0  0  0  0  0  0  0  0
   -2.5472    0.1784   -0.1235 C   0  0  0  0  0  0  0  0  0  0  0  0
   -1.3128    0.9225   -0.1355 C   0  0  0  0  0  0  0  0  0  0  0  0
  1 12  1  0  0  0  0
  2 13  1  0  0  0  0
  3  2  1  0  0  0  0
  3 30  1  0  0  0  0
  4  6  1  0  0  0  0
  4  1  1  0  0  0  0
  5  4  1  0  0  0  0
  6  8  2  0  0  0  0
  7  6  1  0  0  0  0
  8  9  1  0  0  0  0
  8 10  1  0  0  0  0
 10 11  1  0  0  0  0
 12 10  2  0  0  0  0
 12  2  1  0  0  0  0
 13 14  1  0  0  0  0
 13 15  2  0  0  0  0
 15 16  1  0  0  0  0
 16 18  2  0  0  0  0
 16 17  1  0  0  0  0
 18 19  1  0  0  0  0
 20 21  2  0  0  0  0
 20 18  1  0  0  0  0
 21 22  1  0  0  0  0
 23 24  1  0  0  0  0
 23 21  1  0  0  0  0
 25 23  2  0  0  0  0
 26 25  1  0  0  0  0
 27 25  1  0  0  0  0
 27 29  1  0  0  0  0
 28 27  1  0  0  0  0
 29 20  1  0  0  0  0
 30 29  2  0  0  0  0
 30 15  1  0  0  0  0
M  END
