2,3
q = 0.0, confidence = 0.988

 36 37  0  0  0  0  0  0  0  0999 V2000
    2.7874   -0.1647   -0.7266 N   0  0  0  0  0  0  0  0  0  0  0  0
   -1.6966   -0.7454    0.3023 N   0  0  0  0  0  2  0  0  0  0  0  0
    0.5176    0.2761   -0.3625 N   0  0  0  0  0  2  0  0  0  0  0  0
    2.1735    1.8143    0.3781 N   0  0  0  0  0  0  0  0  0  0  0  0
   -2.8269   -1.3900    0.6755 C   0  0  0  0  0  0  0  0  0  0  0  0
   -2.7189   -2.4520    0.9370 H   0  0  0  0  0  0  0  0  0  0  0  0
   -0.5532    1.1745   -0.4689 C   0  0  0  0  0  0  0  0  0  0  0  0
   -4.1913    0.5965    0.2988 C   0  0  0  0  0  0  0  0  0  0  0  0
   -5.1656    1.1065    0.2959 H   0  0  0  0  0  0  0  0  0  0  0  0
   -0.5532    2.4963   -0.9387 C   0  0  0  0  0  0  0  0  0  0  0  0
    0.3800    2.9666   -1.2788 H   0  0  0  0  0  0  0  0  0  0  0  0
   -4.0738   -0.7343    0.6935 C   0  0  0  0  0  0  0  0  0  0  0  0
   -4.9576   -1.3067    1.0111 H   0  0  0  0  0  0  0  0  0  0  0  0
   -1.7720    3.2145   -0.9838 C   0  0  0  0  0  0  0  0  0  0  0  0
   -1.7603    4.2514   -1.3530 H   0  0  0  0  0  0  0  0  0  0  0  0
    3.3029    2.6066   -0.0734 C   0  0  0  0  0  0  0  0  0  0  0  0
    3.7021    2.1856   -1.0140 H   0  0  0  0  0  0  0  0  0  0  0  0
    4.1223    2.6359    0.6790 H   0  0  0  0  0  0  0  0  0  0  0  0
    2.9792    3.6545   -0.2626 H   0  0  0  0  0  0  0  0  0  0  0  0
   -3.0201    1.2967   -0.1220 C   0  0  0  0  0  0  0  0  0  0  0  0
   -1.7873    0.5801   -0.0906 C   0  0  0  0  0  0  0  0  0  0  0  0
    1.4325    2.3139    1.5254 C   0  0  0  0  0  0  0  0  0  0  0  0
    0.8268    1.4908    1.9486 H   0  0  0  0  0  0  0  0  0  0  0  0
    0.7681    3.1664    1.2608 H   0  0  0  0  0  0  0  0  0  0  0  0
    2.1541    2.6506    2.2994 H   0  0  0  0  0  0  0  0  0  0  0  0
   -2.9789    2.6457   -0.5784 C   0  0  0  0  0  3  0  0  0  0  0  0
   -3.9128    3.2258   -0.6175 H   0  0  0  0  0  0  0  0  0  0  0  0
    3.9697   -0.4512    0.0744 C   0  0  0  0  0  0  0  0  0  0  0  0
    3.9922    0.2035    0.9622 H   0  0  0  0  0  0  0  0  0  0  0  0
    4.9016   -0.3134   -0.5137 H   0  0  0  0  0  0  0  0  0  0  0  0
    3.9218   -1.5005    0.4396 H   0  0  0  0  0  0  0  0  0  0  0  0
    1.8005    0.6515   -0.2469 C   0  0  0  0  0  3  0  0  0  0  0  0
    2.5114   -1.1065   -1.8017 C   0  0  0  0  0  0  0  0  0  0  0  0
    1.6493   -0.7588   -2.3969 H   0  0  0  0  0  0  0  0  0  0  0  0
    2.2614   -2.1217   -1.4227 H   0  0  0  0  0  0  0  0  0  0  0  0
    3.4075   -1.1818   -2.4529 H   0  0  0  0  0  0  0  0  0  0  0  0
  1 32  1  0  0  0  0
  1 28  1  0  0  0  0
  2  5  1  0  0  0  0
  3 32  1  0  0  0  0
  4 22  1  0  0  0  0
  5 12  2  0  0  0  0
  5  6  1  0  0  0  0
  7  3  1  0  0  0  0
  7 21  2  0  0  0  0
  8 12  1  0  0  0  0
  9  8  1  0  0  0  0
 10  7  1  0  0  0  0
 11 10  1  0  0  0  0
 12 13  1  0  0  0  0
 14 10  2  0  0  0  0
 14 26  1  0  0  0  0
 15 14  1  0  0  0  0
 16  4  1  0  0  0  0
 16 18  1  0  0  0  0
 17 16  1  0  0  0  0
 19 16  1  0  0  0  0
 20 21  1  0  0  0  0
 20  8  2  0  0  0  0
 21  2  1  0  0  0  0
 22 23  1  0  0  0  0
 22 25  1  0  0  0  0
 24 22  1  0  0  0  0
 26 20  1  0  0  0  0
 27 26  1  0  0  0  0
 28 31  1  0  0  0  0
 28 29  1  0  0  0  0
 30 28  1  0  0  0  0
 32  4  1  0  0  0  0
 33 35  1  0  0  0  0
 33  1  1  0  0  0  0
 34 33  1  0  0  0  0
 36 33  1  0  0  0  0
M  END
