1,4
q = 0.0, confidence = 0.998

 34 36  0  0  0  0  0  0  0  0999 V2000
    0.5022    0.2830   -0.4662 N   0  0  0  0  0  2  0  0  0  0  0  0
    2.8346   -0.0427   -0.7946 N   0  0  0  0  0  0  0  0  0  0  0  0
    2.2103    1.8100    0.2979 N   0  0  0  0  0  0  0  0  0  0  0  0
   -1.6775   -0.7290    0.3428 N   0  0  0  0  0  2  0  0  0  0  0  0
    1.7710    0.6780   -0.3354 C   0  0  0  0  0  3  0  0  0  0  0  0
    2.7418   -1.3773   -1.3410 C   0  0  0  0  0  0  0  0  0  0  0  0
    1.7449   -1.5266   -1.7993 H   0  0  0  0  0  0  0  0  0  0  0  0
    2.8697   -2.1403   -0.5400 H   0  0  0  0  0  0  0  0  0  0  0  0
    3.5230   -1.5253   -2.1136 H   0  0  0  0  0  0  0  0  0  0  0  0
    4.0510    0.4270   -0.1395 C   0  0  0  0  0  0  0  0  0  0  0  0
    4.9237    0.3550   -0.8172 H   0  0  0  0  0  0  0  0  0  0  0  0
    4.2470   -0.1834    0.7742 H   0  0  0  0  0  0  0  0  0  0  0  0
    3.6726    1.8772    0.2053 C   0  0  0  0  0  0  0  0  0  0  0  0
    4.1058    2.2172    1.1653 H   0  0  0  0  0  0  0  0  0  0  0  0
    3.9909    2.5872   -0.5914 H   0  0  0  0  0  0  0  0  0  0  0  0
    1.4513    2.4813    1.3380 C   0  0  0  0  0  0  0  0  0  0  0  0
    0.9011    3.3709    0.9643 H   0  0  0  0  0  0  0  0  0  0  0  0
    2.1493    2.7990    2.1368 H   0  0  0  0  0  0  0  0  0  0  0  0
    0.7241    1.7708    1.7774 H   0  0  0  0  0  0  0  0  0  0  0  0
   -0.5772    1.1699   -0.5368 C   0  0  0  0  0  0  0  0  0  0  0  0
   -0.6014    2.4792   -1.0412 C   0  0  0  0  0  0  0  0  0  0  0  0
    0.3165    2.9385   -1.4350 H   0  0  0  0  0  0  0  0  0  0  0  0
   -1.8223    3.1945   -1.0466 C   0  0  0  0  0  0  0  0  0  0  0  0
   -1.8304    4.2214   -1.4430 H   0  0  0  0  0  0  0  0  0  0  0  0
   -3.0084    2.6348   -0.5719 C   0  0  0  0  0  3  0  0  0  0  0  0
   -3.9446    3.2123   -0.5829 H   0  0  0  0  0  0  0  0  0  0  0  0
   -3.0250    1.2978   -0.0796 C   0  0  0  0  0  0  0  0  0  0  0  0
   -1.7909    0.5823   -0.0871 C   0  0  0  0  0  0  0  0  0  0  0  0
   -4.1728    0.6078    0.4160 C   0  0  0  0  0  0  0  0  0  0  0  0
   -5.1477    1.1158    0.4438 H   0  0  0  0  0  0  0  0  0  0  0  0
   -4.0335   -0.7105    0.8445 C   0  0  0  0  0  0  0  0  0  0  0  0
   -4.9000   -1.2743    1.2197 H   0  0  0  0  0  0  0  0  0  0  0  0
   -2.7869   -1.3643    0.7878 C   0  0  0  0  0  0  0  0  0  0  0  0
   -2.6639   -2.4179    1.0757 H   0  0  0  0  0  0  0  0  0  0  0  0
  1  5  1  0  0  0  0
  2  5  1  0  0  0  0
  2 10  1  0  0  0  0
  3 16  1  0  0  0  0
  4 33  1  0  0  0  0
  5  3  1  0  0  0  0
  6  2  1  0  0  0  0
  6  8  1  0  0  0  0
  7  6  1  0  0  0  0
  9  6  1  0  0  0  0
 10 13  1  0  0  0  0
 10 12  1  0  0  0  0
 11 10  1  0  0  0  0
 13  3  1  0  0  0  0
 13 14  1  0  0  0  0
 15 13  1  0  0  0  0
 16 19  1  0  0  0  0
 16 18  1  0  0  0  0
 17 16  1  0  0  0  0
 20  1  1  0  0  0  0
 20 28  2  0  0  0  0
 21 20  1  0  0  0  0
 22 21  1  0  0  0  0
 23 21  2  0  0  0  0
 23 25  1  0  0  0  0
 24 23  1  0  0  0  0
 25 27  1  0  0  0  0
 26 25  1  0  0  0  0
 27 29  2  0  0  0  0
 28 27  1  0  0  0  0
 28  4  1  0  0  0  0
 29 30  1  0  0  0  0
 29 31  1  0  0  0  0
 31 32  1  0  0  0  0
 33 31  2  0  0  0  0
 33 34  1  0  0  0  0
M  END
