7,8
q = 0.0, confidence = 0.996

 40 41  0  0  0  0  0  0  0  0999 V2000
   -9.5421    0.6704   -0.0736 F   0  0  0  0  0  0  0  0  0  0  0  0
   -7.7363   -0.4848   -0.6353 F   0  0  0  0  0  0  0  0  0  0  0  0
    7.0911    0.5497    1.5902 F   0  0  0  0  0  0  0  0  0  0  0  0
    8.3021    0.2964   -0.2462 F   0  0  0  0  0  0  0  0  0  0  0  0
   -6.1357    1.8066    0.2697 O   0  0  0  0  0  0  0  0  0  0  0  0
    5.1254    1.8569    0.0048 O   0  0  0  0  0  0  0  0  0  0  0  0
   -1.4519    0.7795    0.0868 N   0  0  0  0  0  2  0  0  0  0  0  0
    1.1084    1.3853   -0.1034 N   0  0  0  0  0  2  0  0  0  0  0  0
   -1.1685    2.1220    0.0379 C   0  0  0  0  0  0  0  0  0  0  0  0
   -2.2043    3.0698    0.0949 C   0  0  0  0  0  0  0  0  0  0  0  0
   -1.9665    4.1409    0.0507 H   0  0  0  0  0  0  0  0  0  0  0  0
   -3.5323    2.6524    0.2088 C   0  0  0  0  0  0  0  0  0  0  0  0
   -4.3599    3.3726    0.2533 H   0  0  0  0  0  0  0  0  0  0  0  0
   -3.8091    1.2753    0.2622 C   0  0  0  0  0  0  0  0  0  0  0  0
   -2.7354    0.3775    0.1913 C   0  0  0  0  0  0  0  0  0  0  0  0
   -2.8784   -0.7186    0.2163 H   0  0  0  0  0  0  0  0  0  0  0  0
    0.2533    2.4569   -0.0731 C   0  0  0  0  0  0  0  0  0  0  0  0
    0.7545    3.7697   -0.1416 C   0  0  0  0  0  0  0  0  0  0  0  0
    0.0613    4.6205   -0.1119 H   0  0  0  0  0  0  0  0  0  0  0  0
    2.1291    3.9881   -0.2398 C   0  0  0  0  0  0  0  0  0  0  0  0
    2.5247    5.0144   -0.2867 H   0  0  0  0  0  0  0  0  0  0  0  0
    2.9969    2.8806   -0.2697 C   0  0  0  0  0  0  0  0  0  0  0  0
    2.4394    1.5987   -0.1933 C   0  0  0  0  0  0  0  0  0  0  0  0
    3.0724    0.6968   -0.1997 H   0  0  0  0  0  0  0  0  0  0  0  0
   -5.2120    0.7417    0.4009 C   0  0  0  0  0  0  0  0  0  0  0  0
   -5.3877   -0.0583   -0.3543 H   0  0  0  0  0  0  0  0  0  0  0  0
   -5.3234    0.2511    1.4006 H   0  0  0  0  0  0  0  0  0  0  0  0
   -7.4618    1.5080    0.6360 C   0  0  0  0  0  0  0  0  0  0  0  0
   -7.9739    2.4726    0.8299 H   0  0  0  0  0  0  0  0  0  0  0  0
   -7.5166    0.8894    1.5641 H   0  0  0  0  0  0  0  0  0  0  0  0
   -8.2370    0.7805   -0.4586 C   0  0  0  0  0  0  0  0  0  0  0  0
    4.4905    3.0371   -0.4116 C   0  0  0  0  0  0  0  0  0  0  0  0
    4.7296    3.2631   -1.4838 H   0  0  0  0  0  0  0  0  0  0  0  0
    4.8398    3.9226    0.1775 H   0  0  0  0  0  0  0  0  0  0  0  0
    6.4856    1.7738   -0.3402 C   0  0  0  0  0  0  0  0  0  0  0  0
    7.0832    2.6172    0.0839 H   0  0  0  0  0  0  0  0  0  0  0  0
    6.6335    1.7684   -1.4476 H   0  0  0  0  0  0  0  0  0  0  0  0
    7.0324    0.4747    0.2310 C   0  0  0  0  0  0  0  0  0  0  0  0
   -8.1867    1.3097   -1.4384 H   0  0  0  0  0  0  0  0  0  0  0  0
    6.4051   -0.4032   -0.0483 H   0  0  0  0  0  0  0  0  0  0  0  0
  2 31  1  0  0  0  0
  4 38  1  0  0  0  0
  5 25  1  0  0  0  0
  5 28  1  0  0  0  0
  7 15  1  0  0  0  0
  8 17  1  0  0  0  0
  9  7  1  0  0  0  0
  9 10  1  0  0  0  0
 10 12  2  0  0  0  0
 11 10  1  0  0  0  0
 12 13  1  0  0  0  0
 12 14  1  0  0  0  0
 14 25  1  0  0  0  0
 15 16  1  0  0  0  0
 15 14  2  0  0  0  0
 17  9  2  0  0  0  0
 18 19  1  0  0  0  0
 18 17  1  0  0  0  0
 20 18  2  0  0  0  0
 21 20  1  0  0  0  0
 22 20  1  0  0  0  0
 22 23  2  0  0  0  0
 23  8  1  0  0  0  0
 24 23  1  0  0  0  0
 25 27  1  0  0  0  0
 26 25  1  0  0  0  0
 28 29  1  0  0  0  0
 28 30  1  0  0  0  0
 31  1  1  0  0  0  0
 31 28  1  0  0  0  0
 32 22  1  0  0  0  0
 32  6  1  0  0  0  0
 32 34  1  0  0  0  0
 33 32  1  0  0  0  0
 35  6  1  0  0  0  0
 35 36  1  0  0  0  0
 35 38  1  0  0  0  0
 37 35  1  0  0  0  0
 38  3  1  0  0  0  0
 39 31  1  0  0  0  0
 40 38  1  0  0  0  0
M  END
