2,3
q = -1.0, confidence = 0.0

 11 10  0  0  0  0  0  0  0  0999 V2000
    0.1253    2.8678   -0.3957 Cl  0  0  0  0  0  0  0  0  0  0  0  0
   -0.8745    1.6657    0.4688 N   0  0  0  0  0  2  0  0  0  0  0  0
   -2.4841   -0.5341   -0.0526 N   0  0  0  0  0  0  0  0  0  0  0  0
   -2.7061   -0.6252   -1.0603 H   0  0  0  0  0  0  0  0  0  0  0  0
   -2.7475   -1.4072    0.4305 H   0  0  0  0  0  0  0  0  0  0  0  0
   -2.2654    1.8770    0.0286 C   0  0  0  0  0  0  0  0  0  0  0  0
   -2.6427    2.8299    0.4601 H   0  0  0  0  0  0  0  0  0  0  0  0
   -2.3641    1.9395   -1.0821 H   0  0  0  0  0  0  0  0  0  0  0  0
   -3.0731    0.6933    0.5498 C   0  0  0  0  0  0  0  0  0  0  0  0
   -4.1489    0.7829    0.2953 H   0  0  0  0  0  0  0  0  0  0  0  0
   -2.9543    0.6012    1.6471 H   0  0  0  0  0  0  0  0  0  0  0  0
  1  2  1  0  0  0  0
  3  5  1  0  0  0  0
  3  9  1  0  0  0  0
  4  3  1  0  0  0  0
  6  7  1  0  0  0  0
  6  2  1  0  0  0  0
  6  9  1  0  0  0  0
  8  6  1  0  0  0  0
  9 11  1  0  0  0  0
 10  9  1  0  0  0  0
M  END
