3,4
q = -1.0

 37 38  0  0  0  0  0  0  0  0999 V2000
    6.2126   -3.3388   -0.0329 O   0  0  0  0  0  0  0  0  0  0  0  0
   -6.5792   -1.3611   -1.2105 O   0  0  0  0  0  0  0  0  0  0  0  0
    1.0943   -1.1615   -0.6705 N   0  0  0  0  0  2  0  0  0  0  0  0
   -1.0134   -0.8007   -1.0620 N   0  0  0  0  0  2  0  0  0  0  0  0
   -0.0111   -1.6862   -1.2303 C   0  0  0  0  0  3  0  0  0  0  0  0
   -0.0985   -2.9695   -2.0015 C   0  0  0  0  0  0  0  0  0  0  0  0
   -0.2825   -3.8469   -1.3484 H   0  0  0  0  0  0  0  0  0  0  0  0
    0.8526   -3.1536   -2.5383 H   0  0  0  0  0  0  0  0  0  0  0  0
   -0.9317   -2.9152   -2.7276 H   0  0  0  0  0  0  0  0  0  0  0  0
    2.3695   -1.7209   -0.5442 C   0  0  0  0  0  0  0  0  0  0  0  0
    2.5871   -3.0963   -0.2666 C   0  0  0  0  0  0  0  0  0  0  0  0
    1.7305   -3.7756   -0.1552 H   0  0  0  0  0  0  0  0  0  0  0  0
    3.8778   -3.6017   -0.1085 C   0  0  0  0  0  0  0  0  0  0  0  0
    4.0483   -4.6666    0.1055 H   0  0  0  0  0  0  0  0  0  0  0  0
    5.0021   -2.7519   -0.2049 C   0  0  0  0  0  0  0  0  0  0  0  0
    4.7998   -1.3772   -0.4579 C   0  0  0  0  0  0  0  0  0  0  0  0
    5.6506   -0.6874   -0.5348 H   0  0  0  0  0  0  0  0  0  0  0  0
    3.5015   -0.8792   -0.6229 C   0  0  0  0  0  0  0  0  0  0  0  0
    3.3509    0.1893   -0.8321 H   0  0  0  0  0  0  0  0  0  0  0  0
    7.3760   -2.5352   -0.1248 C   0  0  0  0  0  0  0  0  0  0  0  0
    8.2357   -3.2102    0.0391 H   0  0  0  0  0  0  0  0  0  0  0  0
    7.3898   -1.7374    0.6513 H   0  0  0  0  0  0  0  0  0  0  0  0
    7.4733   -2.0626   -1.1276 H   0  0  0  0  0  0  0  0  0  0  0  0
   -2.3926   -1.0189   -1.1258 C   0  0  0  0  0  0  0  0  0  0  0  0
   -3.0015   -2.2422   -0.7662 C   0  0  0  0  0  0  0  0  0  0  0  0
   -2.3774   -3.0825   -0.4309 H   0  0  0  0  0  0  0  0  0  0  0  0
   -4.3955   -2.4004   -0.7936 C   0  0  0  0  0  0  0  0  0  0  0  0
   -4.8267   -3.3697   -0.5099 H   0  0  0  0  0  0  0  0  0  0  0  0
   -5.2236   -1.3191   -1.1612 C   0  0  0  0  0  0  0  0  0  0  0  0
   -4.6258   -0.0822   -1.4986 C   0  0  0  0  0  0  0  0  0  0  0  0
   -5.2830    0.7534   -1.7795 H   0  0  0  0  0  0  0  0  0  0  0  0
   -3.2411    0.0611   -1.4832 C   0  0  0  0  0  0  0  0  0  0  0  0
   -2.7866    1.0265   -1.7507 H   0  0  0  0  0  0  0  0  0  0  0  0
   -7.2305   -2.5832   -0.9087 C   0  0  0  0  0  0  0  0  0  0  0  0
   -8.3134   -2.3992   -1.0309 H   0  0  0  0  0  0  0  0  0  0  0  0
   -7.0350   -2.9091    0.1376 H   0  0  0  0  0  0  0  0  0  0  0  0
   -6.9209   -3.3974   -1.6011 H   0  0  0  0  0  0  0  0  0  0  0  0
  2 29  1  0  0  0  0
  2 34  1  0  0  0  0
  3 10  1  0  0  0  0
  5  4  1  0  0  0  0
  5  3  1  0  0  0  0
  6  7  1  0  0  0  0
  6  5  1  0  0  0  0
  8  6  1  0  0  0  0
  9  6  1  0  0  0  0
 10 11  1  0  0  0  0
 11 12  1  0  0  0  0
 11 13  2  0  0  0  0
 13 14  1  0  0  0  0
 15 13  1  0  0  0  0
 15  1  1  0  0  0  0
 16 15  2  0  0  0  0
 17 16  1  0  0  0  0
 18 10  2  0  0  0  0
 18 16  1  0  0  0  0
 19 18  1  0  0  0  0
 20  1  1  0  0  0  0
 20 21  1  0  0  0  0
 20 22  1  0  0  0  0
 23 20  1  0  0  0  0
 24  4  1  0  0  0  0
 24 25  1  0  0  0  0
 25 26  1  0  0  0  0
 27 25  2  0  0  0  0
 27 28  1  0  0  0  0
 29 27  1  0  0  0  0
 30 32  1  0  0  0  0
 30 29  2  0  0  0  0
 31 30  1  0  0  0  0
 32 24  2  0  0  0  0
 33 32  1  0  0  0  0
 34 36  1  0  0  0  0
 35 34  1  0  0  0  0
 37 34  1  0  0  0  0
M  END
