1,4
q = 0.0, confidence = 0.996

 60 62  0  0  1  0  0  0  0  0999 V2000
    1.7716    1.8908    0.1383 N   0  0  0  0  0  2  0  0  0  0  0  0
   -0.2869    2.1935   -0.9706 N   0  0  0  0  0  0  0  0  0  0  0  0
   -0.8703    2.8594   -1.4769 H   0  0  0  0  0  0  0  0  0  0  0  0
   -0.3131    0.0093   -0.0877 N   0  0  0  0  0  2  0  0  0  0  0  0
    2.8381    2.4311    0.8118 C   0  0  1  0  0  3  0  0  0  0  0  0
    3.1112    3.8036    0.7197 C   0  0  0  0  0  0  0  0  0  0  0  0
    3.9716    4.2100    1.2685 H   0  0  0  0  0  0  0  0  0  0  0  0
    2.2975    4.6334   -0.0652 C   0  0  0  0  0  0  0  0  0  0  0  0
    2.5243    5.7043   -0.1718 H   0  0  0  0  0  0  0  0  0  0  0  0
    1.1655    4.0911   -0.6703 C   0  0  0  0  0  0  0  0  0  0  0  0
    0.4614    4.7132   -1.2422 H   0  0  0  0  0  0  0  0  0  0  0  0
    0.9133    2.7129   -0.5055 C   0  0  0  0  0  0  0  0  0  0  0  0
   -0.9599    1.0389   -0.5931 C   0  0  1  0  0  3  0  0  0  0  0  0
   -2.4409    1.1697   -0.7239 C   0  0  0  0  0  0  0  0  0  0  0  0
   -3.0311    2.3881   -0.3081 C   0  0  0  0  0  0  0  0  0  0  0  0
   -2.3998    3.1935    0.0979 H   0  0  0  0  0  0  0  0  0  0  0  0
   -4.4193    2.5699   -0.3400 C   0  0  0  0  0  0  0  0  0  0  0  0
   -4.8466    3.5222    0.0108 H   0  0  0  0  0  0  0  0  0  0  0  0
   -5.2762    1.5502   -0.7952 C   0  0  0  0  0  0  0  0  0  0  0  0
   -4.6834    0.3405   -1.2185 C   0  0  0  0  0  0  0  0  0  0  0  0
   -5.3243   -0.4766   -1.5848 H   0  0  0  0  0  0  0  0  0  0  0  0
   -3.3013    0.1437   -1.1808 C   0  0  0  0  0  0  0  0  0  0  0  0
   -2.8903   -0.8167   -1.5093 H   0  0  0  0  0  0  0  0  0  0  0  0
   -6.7711    1.7274   -0.8235 C   0  0  0  0  0  0  0  0  0  0  0  0
   -7.1778    1.5464   -1.8400 H   0  0  0  0  0  0  0  0  0  0  0  0
   -7.0709    2.7456   -0.5100 H   0  0  0  0  0  0  0  0  0  0  0  0
   -7.2702    1.0021   -0.1472 H   0  0  0  0  0  0  0  0  0  0  0  0
   -1.0720   -1.1659    0.2350 C   0  0  0  0  0  0  0  0  0  0  0  0
   -1.8286   -1.2111    1.4279 C   0  0  0  0  0  0  0  0  0  0  0  0
   -2.6099   -2.3579    1.6646 C   0  0  0  0  0  0  0  0  0  0  0  0
   -3.2114   -2.4183    2.5843 H   0  0  0  0  0  0  0  0  0  0  0  0
   -2.6278   -3.4204    0.7545 C   0  0  0  0  0  0  0  0  0  0  0  0
   -3.2507   -4.3057    0.9536 H   0  0  0  0  0  0  0  0  0  0  0  0
   -1.8268   -3.3716   -0.3959 C   0  0  0  0  0  0  0  0  0  0  0  0
   -1.8154   -4.2272   -1.0869 H   0  0  0  0  0  0  0  0  0  0  0  0
   -1.0193   -2.2566   -0.6742 C   0  0  0  0  0  0  0  0  0  0  0  0
   -0.1220   -2.2141   -1.9076 C   0  0  0  0  0  0  0  0  0  0  0  0
    0.6898   -1.4907   -1.6768 H   0  0  0  0  0  0  0  0  0  0  0  0
    0.5634   -3.5575   -2.1829 C   0  0  0  0  0  0  0  0  0  0  0  0
    1.0810   -3.9200   -1.2735 H   0  0  0  0  0  0  0  0  0  0  0  0
    1.3227   -3.4345   -2.9810 H   0  0  0  0  0  0  0  0  0  0  0  0
   -0.1534   -4.3347   -2.5222 H   0  0  0  0  0  0  0  0  0  0  0  0
   -0.8575   -1.6939   -3.1549 C   0  0  0  0  0  0  0  0  0  0  0  0
   -1.2296   -0.6581   -3.0218 H   0  0  0  0  0  0  0  0  0  0  0  0
   -1.7269   -2.3371   -3.4089 H   0  0  0  0  0  0  0  0  0  0  0  0
   -0.1741   -1.6884   -4.0285 H   0  0  0  0  0  0  0  0  0  0  0  0
   -1.7557   -0.0955    2.4610 C   0  0  0  0  0  0  0  0  0  0  0  0
   -1.2397    0.7655    1.9902 H   0  0  0  0  0  0  0  0  0  0  0  0
   -0.8791   -0.5446    3.6454 C   0  0  0  0  0  0  0  0  0  0  0  0
    0.1169   -0.8757    3.2881 H   0  0  0  0  0  0  0  0  0  0  0  0
   -1.3452   -1.3983    4.1799 H   0  0  0  0  0  0  0  0  0  0  0  0
   -0.7449    0.2820    4.3738 H   0  0  0  0  0  0  0  0  0  0  0  0
   -3.1414    0.3886    2.9130 C   0  0  0  0  0  0  0  0  0  0  0  0
   -3.0452    1.2479    3.6080 H   0  0  0  0  0  0  0  0  0  0  0  0
   -3.6970   -0.4061    3.4524 H   0  0  0  0  0  0  0  0  0  0  0  0
   -3.7594    0.7096    2.0503 H   0  0  0  0  0  0  0  0  0  0  0  0
    3.6774    1.5294    1.6645 C   0  0  0  0  0  0  0  0  0  0  0  0
    3.0591    0.7290    2.1199 H   0  0  0  0  0  0  0  0  0  0  0  0
    4.1881    2.1115    2.4552 H   0  0  0  0  0  0  0  0  0  0  0  0
    4.4344    1.0088    1.0424 H   0  0  0  0  0  0  0  0  0  0  0  0
  1  5  1  0  0  0  0
  2 13  1  0  0  0  0
  2 12  1  0  0  0  0
  3  2  1  0  0  0  0
  4 28  1  0  0  0  0
  5 57  1  1  0  0  0
  6  5  1  0  0  0  0
  6  7  1  0  0  0  0
  8  6  2  0  0  0  0
  9  8  1  0  0  0  0
 10 12  2  0  0  0  0
 10  8  1  0  0  0  0
 11 10  1  0  0  0  0
 12  1  1  0  0  0  0
 13  4  1  1  0  0  0
 14 13  1  0  0  0  0
 14 15  1  0  0  0  0
 15 16  1  0  0  0  0
 17 15  2  0  0  0  0
 17 18  1  0  0  0  0
 19 17  1  0  0  0  0
 20 22  1  0  0  0  0
 20 19  2  0  0  0  0
 21 20  1  0  0  0  0
 22 14  2  0  0  0  0
 23 22  1  0  0  0  0
 24 19  1  0  0  0  0
 24 26  1  0  0  0  0
 24 27  1  0  0  0  0
 25 24  1  0  0  0  0
 28 29  1  0  0  0  0
 29 30  2  0  0  0  0
 29 47  1  0  0  0  0
 30 31  1  0  0  0  0
 32 33  1  0  0  0  0
 32 30  1  0  0  0  0
 34 32  2  0  0  0  0
 35 34  1  0  0  0  0
 36 34  1  0  0  0  0
 36 28  2  0  0  0  0
 37 38  1  0  0  0  0
 37 36  1  0  0  0  0
 39 37  1  0  0  0  0
 39 40  1  0  0  0  0
 41 39  1  0  0  0  0
 42 39  1  0  0  0  0
 43 44  1  0  0  0  0
 43 37  1  0  0  0  0
 45 43  1  0  0  0  0
 46 43  1  0  0  0  0
 47 53  1  0  0  0  0
 47 49  1  0  0  0  0
 48 47  1  0  0  0  0
 49 51  1  0  0  0  0
 49 52  1  0  0  0  0
 50 49  1  0  0  0  0
 53 55  1  0  0  0  0
 53 54  1  0  0  0  0
 56 53  1  0  0  0  0
 57 58  1  0  0  0  0
 57 59  1  0  0  0  0
 60 57  1  0  0  0  0
M  END
