1,2
q = 0.0, confidence = 1.0

 46 50  0  0  1  0  0  0  0  0999 V2000
   -1.6585   -0.1390   -0.0032 N   0  0  0  0  0  2  0  0  0  0  0  0
    1.6601   -0.1208   -0.0039 N   0  0  0  0  0  2  0  0  0  0  0  0
    3.8155    0.3933   -0.5945 C   0  0  0  0  0  0  0  0  0  0  0  0
   -0.0124    2.2470    1.1845 N   0  0  0  0  0  0  0  0  0  0  0  0
   -3.3622    1.2477    0.3622 N   0  0  0  0  0  0  0  0  0  0  0  0
   -3.8910    2.0196    0.7685 H   0  0  0  0  0  0  0  0  0  0  0  0
    3.3486    1.2846    0.3610 N   0  0  0  0  0  0  0  0  0  0  0  0
    3.8688    2.0623    0.7671 H   0  0  0  0  0  0  0  0  0  0  0  0
    2.7280   -0.4965   -0.8229 C   0  0  0  0  0  0  0  0  0  0  0  0
    2.8518   -1.5407   -1.7579 C   0  0  0  0  0  0  0  0  0  0  0  0
    2.0174   -2.2403   -1.9163 H   0  0  0  0  0  0  0  0  0  0  0  0
    2.0582    0.9513    0.6799 C   0  0  2  0  0  3  0  0  0  0  0  0
   -2.0684    0.9283    0.6812 C   0  0  1  0  0  3  0  0  0  0  0  0
   -1.2581    1.6964    1.6911 C   0  0  0  0  0  0  0  0  0  0  0  0
   -1.8980    2.4944    2.1306 H   0  0  0  0  0  0  0  0  0  0  0  0
   -1.0074    0.9735    2.5008 H   0  0  0  0  0  0  0  0  0  0  0  0
    1.2400    1.7109    1.6899 C   0  0  0  0  0  0  0  0  0  0  0  0
    0.9985    0.9859    2.5005 H   0  0  0  0  0  0  0  0  0  0  0  0
    1.8713    2.5166    2.1279 H   0  0  0  0  0  0  0  0  0  0  0  0
   -2.7221   -0.5260   -0.8224 C   0  0  0  0  0  0  0  0  0  0  0  0
    5.0399    0.2797   -1.2693 C   0  0  0  0  0  0  0  0  0  0  0  0
    5.8729    0.9731   -1.0835 H   0  0  0  0  0  0  0  0  0  0  0  0
   -3.8193    0.3518   -0.5937 C   0  0  0  0  0  0  0  0  0  0  0  0
   -5.1370   -0.8193   -2.1965 C   0  0  0  0  0  0  0  0  0  0  0  0
   -6.0762   -0.9594   -2.7521 H   0  0  0  0  0  0  0  0  0  0  0  0
    5.1462   -0.7641   -2.1965 C   0  0  0  0  0  0  0  0  0  0  0  0
    6.0869   -0.8942   -2.7519 H   0  0  0  0  0  0  0  0  0  0  0  0
    4.0713   -1.6552   -2.4336 C   0  0  0  0  0  0  0  0  0  0  0  0
    4.2005   -2.4637   -3.1683 H   0  0  0  0  0  0  0  0  0  0  0  0
   -2.8343   -1.5709   -1.7580 C   0  0  0  0  0  0  0  0  0  0  0  0
   -1.9923   -2.2613   -1.9167 H   0  0  0  0  0  0  0  0  0  0  0  0
   -0.0193    3.3542    0.3325 C   0  0  0  0  0  0  0  0  0  0  0  0
    1.1738    5.0840   -0.9428 C   0  0  0  0  0  0  0  0  0  0  0  0
    2.1333    5.5163   -1.2657 H   0  0  0  0  0  0  0  0  0  0  0  0
   -4.0524   -1.6985   -2.4340 C   0  0  0  0  0  0  0  0  0  0  0  0
   -4.1727   -2.5080   -3.1692 H   0  0  0  0  0  0  0  0  0  0  0  0
   -1.2338    3.9450   -0.1083 C   0  0  0  0  0  0  0  0  0  0  0  0
   -2.1986    3.5188    0.1845 H   0  0  0  0  0  0  0  0  0  0  0  0
   -5.0423    0.2251   -1.2688 C   0  0  0  0  0  0  0  0  0  0  0  0
   -5.8828    0.9092   -1.0828 H   0  0  0  0  0  0  0  0  0  0  0  0
   -1.2334    5.0722   -0.9388 C   0  0  0  0  0  0  0  0  0  0  0  0
   -2.1982    5.4952   -1.2584 H   0  0  0  0  0  0  0  0  0  0  0  0
    1.1880    3.9568   -0.1124 C   0  0  0  0  0  0  0  0  0  0  0  0
    2.1579    3.5398    0.1769 H   0  0  0  0  0  0  0  0  0  0  0  0
   -0.0334    5.6575   -1.3669 C   0  0  0  0  0  0  0  0  0  0  0  0
   -0.0388    6.5390   -2.0239 H   0  0  0  0  0  0  0  0  0  0  0  0
  1 13  1  0  0  0  0
  2 12  1  0  0  0  0
  3  7  1  0  0  0  0
  4 17  1  0  0  0  0
  4 14  1  0  0  0  0
  5 13  1  0  0  0  0
  5  6  1  0  0  0  0
  7 12  1  0  0  0  0
  7  8  1  0  0  0  0
  9  3  1  0  0  0  0
  9  2  1  0  0  0  0
 10  9  2  0  0  0  0
 11 10  1  0  0  0  0
 12 17  1  1  0  0  0
 13 14  1  1  0  0  0
 14 15  1  0  0  0  0
 14 16  1  0  0  0  0
 17 19  1  0  0  0  0
 17 18  1  0  0  0  0
 20 23  1  0  0  0  0
 20  1  1  0  0  0  0
 21 22  1  0  0  0  0
 21  3  2  0  0  0  0
 23  5  1  0  0  0  0
 24 39  1  0  0  0  0
 25 24  1  0  0  0  0
 26 21  1  0  0  0  0
 27 26  1  0  0  0  0
 28 26  2  0  0  0  0
 28 10  1  0  0  0  0
 29 28  1  0  0  0  0
 30 20  2  0  0  0  0
 31 30  1  0  0  0  0
 32  4  1  0  0  0  0
 33 43  1  0  0  0  0
 34 33  1  0  0  0  0
 35 24  2  0  0  0  0
 35 30  1  0  0  0  0
 36 35  1  0  0  0  0
 37 38  1  0  0  0  0
 37 32  1  0  0  0  0
 39 40  1  0  0  0  0
 39 23  2  0  0  0  0
 41 37  2  0  0  0  0
 42 41  1  0  0  0  0
 43 44  1  0  0  0  0
 43 32  2  0  0  0  0
 45 33  2  0  0  0  0
 45 41  1  0  0  0  0
 46 45  1  0  0  0  0
M  END
