1,2
q = -1.0

 29 31  0  0  0  0  0  0  0  0999 V2000
   -0.3289    1.4389   -0.7060 N   0  0  0  0  0  0  0  0  0  0  0  0
   -0.3119   -1.3493   -0.7846 N   0  0  0  0  0  0  0  0  0  0  0  0
    8.5327   -0.0846    0.7096 N   0  0  0  0  0  0  0  0  0  0  0  0
   -0.5858    2.7434   -0.8865 C   0  0  0  0  0  0  0  0  0  0  0  0
   -1.6039    3.0838   -1.1122 H   0  0  0  0  0  0  0  0  0  0  0  0
    0.6043    3.5190   -0.7438 C   0  0  0  0  0  0  0  0  0  0  0  0
    0.6825    4.6071   -0.8516 H   0  0  0  0  0  0  0  0  0  0  0  0
    1.6290    2.6182   -0.4615 C   0  0  0  0  0  0  0  0  0  0  0  0
    2.6874    2.8450   -0.2964 H   0  0  0  0  0  0  0  0  0  0  0  0
    1.0422    1.3033   -0.4722 C   0  0  0  0  0  3  0  0  0  0  0  0
    1.6954    0.0519   -0.3940 C   0  0  0  0  0  3  0  0  0  0  0  0
    1.0620   -1.1966   -0.5949 C   0  0  0  0  0  3  0  0  0  0  0  0
    1.6909   -2.4707   -0.8285 C   0  0  0  0  0  0  0  0  0  0  0  0
    2.7694   -2.6603   -0.7980 H   0  0  0  0  0  0  0  0  0  0  0  0
    0.6796   -3.3624   -1.1779 C   0  0  0  0  0  0  0  0  0  0  0  0
    0.7861   -4.4159   -1.4611 H   0  0  0  0  0  0  0  0  0  0  0  0
   -0.5414   -2.6241   -1.1374 C   0  0  0  0  0  0  0  0  0  0  0  0
   -1.5598   -2.9634   -1.3635 H   0  0  0  0  0  0  0  0  0  0  0  0
    3.1674    0.0335   -0.1668 C   0  0  0  0  0  0  0  0  0  0  0  0
    4.0559    0.6605   -1.0678 C   0  0  0  0  0  0  0  0  0  0  0  0
    3.6512    1.1593   -1.9600 H   0  0  0  0  0  0  0  0  0  0  0  0
    5.4362    0.6293   -0.8500 C   0  0  0  0  0  0  0  0  0  0  0  0
    6.1227    1.1106   -1.5608 H   0  0  0  0  0  0  0  0  0  0  0  0
    5.9596   -0.0316    0.2859 C   0  0  0  0  0  0  0  0  0  0  0  0
    7.3744   -0.0610    0.5179 C   0  0  0  0  0  0  0  0  0  0  0  0
    5.0766   -0.6673    1.1896 C   0  0  0  0  0  0  0  0  0  0  0  0
    5.4824   -1.1821    2.0720 H   0  0  0  0  0  0  0  0  0  0  0  0
    3.6990   -0.6372    0.9569 C   0  0  0  0  0  0  0  0  0  0  0  0
    3.0119   -1.1328    1.6582 H   0  0  0  0  0  0  0  0  0  0  0  0
  1 10  1  0  0  0  0
  2 12  1  0  0  0  0
  4  6  1  0  0  0  0
  4  1  2  0  0  0  0
  5  4  1  0  0  0  0
  6  8  2  0  0  0  0
  7  6  1  0  0  0  0
  8  9  1  0  0  0  0
 10  8  1  0  0  0  0
 10 11  1  0  0  0  0
 11 19  1  0  0  0  0
 12 11  1  0  0  0  0
 13 14  1  0  0  0  0
 13 12  1  0  0  0  0
 15 17  1  0  0  0  0
 15 13  2  0  0  0  0
 16 15  1  0  0  0  0
 17  2  2  0  0  0  0
 18 17  1  0  0  0  0
 19 28  1  0  0  0  0
 20 22  1  0  0  0  0
 20 19  2  0  0  0  0
 21 20  1  0  0  0  0
 22 24  2  0  0  0  0
 23 22  1  0  0  0  0
 24 25  1  0  0  0  0
 24 26  1  0  0  0  0
 25  3  3  0  0  0  0
 26 27  1  0  0  0  0
 28 26  2  0  0  0  0
 28 29  1  0  0  0  0
M  END
