3,4
q = 0.0, confidence = 0.998

 24 25  0  0  0  0  0  0  0  0999 V2000
   -3.1971    1.4934    0.0543 S   0  0  0  0  0  0  0  0  0  0  0  0
   -3.1968   -1.4940   -0.0542 S   0  0  0  0  0  0  0  0  0  0  0  0
   -0.4517    1.3243   -0.2121 N   0  0  0  0  0  2  0  0  0  0  0  0
   -0.4515   -1.3243    0.2126 N   0  0  0  0  0  2  0  0  0  0  0  0
   -1.6026    0.7480   -0.0643 C   0  0  0  0  0  0  0  0  0  0  0  0
   -0.2831    2.7753   -0.2926 C   0  0  0  0  0  0  0  0  0  0  0  0
   -1.4197    3.6027    0.2941 C   0  0  0  0  0  0  0  0  0  0  0  0
   -2.7685    3.2385   -0.3107 C   0  0  0  0  0  0  0  0  0  0  0  0
   -1.6024   -0.7482    0.0646 C   0  0  0  0  0  0  0  0  0  0  0  0
   -0.2826   -2.7752    0.2933 C   0  0  0  0  0  0  0  0  0  0  0  0
   -1.4188   -3.6028   -0.2941 C   0  0  0  0  0  0  0  0  0  0  0  0
   -2.7679   -3.2391    0.3102 C   0  0  0  0  0  0  0  0  0  0  0  0
   -0.1131    3.0190   -1.3653 H   0  0  0  0  0  0  0  0  0  0  0  0
    0.6709    3.0159    0.2157 H   0  0  0  0  0  0  0  0  0  0  0  0
   -1.2078    4.6747    0.1022 H   0  0  0  0  0  0  0  0  0  0  0  0
   -1.4504    3.4670    1.3952 H   0  0  0  0  0  0  0  0  0  0  0  0
   -2.7838    3.3804   -1.4103 H   0  0  0  0  0  0  0  0  0  0  0  0
   -3.6012    3.8230    0.1263 H   0  0  0  0  0  0  0  0  0  0  0  0
    0.6717   -3.0158   -0.2142 H   0  0  0  0  0  0  0  0  0  0  0  0
   -0.1134   -3.0188    1.3662 H   0  0  0  0  0  0  0  0  0  0  0  0
   -1.4490   -3.4667   -1.3951 H   0  0  0  0  0  0  0  0  0  0  0  0
   -1.2067   -4.6748   -0.1024 H   0  0  0  0  0  0  0  0  0  0  0  0
   -3.6004   -3.8236   -0.1274 H   0  0  0  0  0  0  0  0  0  0  0  0
   -2.7838   -3.3815    1.4097 H   0  0  0  0  0  0  0  0  0  0  0  0
  2  9  1  0  0  0  0
  2 12  1  0  0  0  0
  3  5  1  0  0  0  0
  4 10  1  0  0  0  0
  5  1  1  0  0  0  0
  5  9  2  0  0  0  0
  6  3  1  0  0  0  0
  6 14  1  0  0  0  0
  6  7  1  0  0  0  0
  7 16  1  0  0  0  0
  8  1  1  0  0  0  0
  8 18  1  0  0  0  0
  8  7  1  0  0  0  0
  9  4  1  0  0  0  0
 10 20  1  0  0  0  0
 11 22  1  0  0  0  0
 11 10  1  0  0  0  0
 11 12  1  0  0  0  0
 12 24  1  0  0  0  0
 13  6  1  0  0  0  0
 15  7  1  0  0  0  0
 17  8  1  0  0  0  0
 19 10  1  0  0  0  0
 21 11  1  0  0  0  0
 23 12  1  0  0  0  0
M  END
