3,4
q = 0.0, confidence = 0.992

 44 47  0  0  1  0  0  0  0  0999 V2000
   -1.4942    2.7923   -0.3399 O   0  0  0  0  0  0  0  0  0  0  0  0
    1.4941    2.7923    0.3397 O   0  0  0  0  0  0  0  0  0  0  0  0
   -1.2436    0.5435   -0.3064 N   0  0  0  0  0  2  0  0  0  0  0  0
    1.2435    0.5435    0.3063 N   0  0  0  0  0  2  0  0  0  0  0  0
   -3.4722    0.2257    0.7201 C   0  0  0  0  0  0  0  0  0  0  0  0
   -3.0945   -0.7933    0.9416 H   0  0  0  0  0  0  0  0  0  0  0  0
   -3.2312    0.8805    1.5836 H   0  0  0  0  0  0  0  0  0  0  0  0
   -2.6866    0.7146   -0.5167 C   0  0  1  0  0  0  0  0  0  0  0  0
   -2.9910    0.1069   -1.3912 H   0  0  0  0  0  0  0  0  0  0  0  0
   -2.7813    2.2381   -0.7976 C   0  0  0  0  0  0  0  0  0  0  0  0
   -2.8722    2.4799   -1.8754 H   0  0  0  0  0  0  0  0  0  0  0  0
   -3.5876    2.7453   -0.2359 H   0  0  0  0  0  0  0  0  0  0  0  0
   -0.7086    1.7286   -0.1717 C   0  0  0  0  0  0  0  0  0  0  0  0
    0.7085    1.7287    0.1716 C   0  0  0  0  0  0  0  0  0  0  0  0
    2.7811    2.2382    0.7974 C   0  0  0  0  0  0  0  0  0  0  0  0
    2.8721    2.4801    1.8752 H   0  0  0  0  0  0  0  0  0  0  0  0
    3.5875    2.7455    0.2357 H   0  0  0  0  0  0  0  0  0  0  0  0
    2.6866    0.7148    0.5167 C   0  0  2  0  0  0  0  0  0  0  0  0
    2.9909    0.1072    1.3912 H   0  0  0  0  0  0  0  0  0  0  0  0
    3.4722    0.2258   -0.7200 C   0  0  0  0  0  0  0  0  0  0  0  0
    3.0945   -0.7933   -0.9414 H   0  0  0  0  0  0  0  0  0  0  0  0
    3.2313    0.8804   -1.5837 H   0  0  0  0  0  0  0  0  0  0  0  0
   -4.9567    0.1961    0.4532 C   0  0  0  0  0  0  0  0  0  0  0  0
   -5.8154    1.2104    0.9210 C   0  0  0  0  0  0  0  0  0  0  0  0
   -5.4074    2.0205    1.5475 H   0  0  0  0  0  0  0  0  0  0  0  0
   -7.1866    1.1866    0.6180 C   0  0  0  0  0  0  0  0  0  0  0  0
   -7.8453    1.9827    0.9974 H   0  0  0  0  0  0  0  0  0  0  0  0
   -7.7156    0.1464   -0.1606 C   0  0  0  0  0  0  0  0  0  0  0  0
   -8.7902    0.1246   -0.3970 H   0  0  0  0  0  0  0  0  0  0  0  0
   -6.8688   -0.8725   -0.6295 C   0  0  0  0  0  0  0  0  0  0  0  0
   -7.2799   -1.6974   -1.2312 H   0  0  0  0  0  0  0  0  0  0  0  0
   -5.5008   -0.8481   -0.3257 C   0  0  0  0  0  0  0  0  0  0  0  0
   -4.8346   -1.6516   -0.6803 H   0  0  0  0  0  0  0  0  0  0  0  0
    4.9567    0.1962   -0.4531 C   0  0  0  0  0  0  0  0  0  0  0  0
    5.8154    1.2103   -0.9209 C   0  0  0  0  0  0  0  0  0  0  0  0
    5.4075    2.0205   -1.5475 H   0  0  0  0  0  0  0  0  0  0  0  0
    7.1866    1.1865   -0.6178 C   0  0  0  0  0  0  0  0  0  0  0  0
    7.8454    1.9826   -0.9973 H   0  0  0  0  0  0  0  0  0  0  0  0
    7.7155    0.1464    0.1610 C   0  0  0  0  0  0  0  0  0  0  0  0
    8.7902    0.1246    0.3974 H   0  0  0  0  0  0  0  0  0  0  0  0
    6.8687   -0.8724    0.6299 C   0  0  0  0  0  0  0  0  0  0  0  0
    7.2797   -1.6973    1.2316 H   0  0  0  0  0  0  0  0  0  0  0  0
    5.5008   -0.8481    0.3259 C   0  0  0  0  0  0  0  0  0  0  0  0
    4.8345   -1.6515    0.6806 H   0  0  0  0  0  0  0  0  0  0  0  0
  1 13  1  0  0  0  0
  2 15  1  0  0  0  0
  3 13  1  0  0  0  0
  4 18  1  0  0  0  0
  5  6  1  0  0  0  0
  5  7  1  0  0  0  0
  8  9  1  6  0  0  0
  8  3  1  0  0  0  0
  8  5  1  0  0  0  0
 10  8  1  0  0  0  0
 10  1  1  0  0  0  0
 10 12  1  0  0  0  0
 11 10  1  0  0  0  0
 13 14  2  0  0  0  0
 14  4  1  0  0  0  0
 14  2  1  0  0  0  0
 15 16  1  0  0  0  0
 17 15  1  0  0  0  0
 18 15  1  0  0  0  0
 18 19  1  1  0  0  0
 20 34  1  0  0  0  0
 20 18  1  0  0  0  0
 21 20  1  0  0  0  0
 22 20  1  0  0  0  0
 23  5  1  0  0  0  0
 23 24  1  0  0  0  0
 24 25  1  0  0  0  0
 26 24  2  0  0  0  0
 26 27  1  0  0  0  0
 28 26  1  0  0  0  0
 29 28  1  0  0  0  0
 30 32  1  0  0  0  0
 30 28  2  0  0  0  0
 31 30  1  0  0  0  0
 32 23  2  0  0  0  0
 33 32  1  0  0  0  0
 34 43  1  0  0  0  0
 35 37  1  0  0  0  0
 35 34  2  0  0  0  0
 36 35  1  0  0  0  0
 37 39  2  0  0  0  0
 38 37  1  0  0  0  0
 39 40  1  0  0  0  0
 39 41  1  0  0  0  0
 41 42  1  0  0  0  0
 43 41  2  0  0  0  0
 43 44  1  0  0  0  0
M  END
