4,7
q = -1.0

 41 45  0  0  0  0  0  0  0  0999 V2000
  -10.9839   -1.7304    0.7447 N   0  0  0  0  0  0  0  0  0  0  0  0
  -11.6876   -2.4257    0.9908 H   0  0  0  0  0  0  0  0  0  0  0  0
   -8.9800   -0.7484    0.2934 C   0  0  0  0  0  0  0  0  0  0  0  0
   -1.2468    1.3334   -0.4892 N   0  0  0  0  0  2  0  0  0  0  0  0
  -12.5054    0.0848    0.3071 N   0  0  0  0  0  0  0  0  0  0  0  0
   -7.5328   -0.5731    0.1260 C   0  0  0  0  0  0  0  0  0  0  0  0
   -1.1116   -1.2635   -0.8380 N   0  0  0  0  0  0  0  0  0  0  0  0
  -11.2794   -0.4357    0.3655 C   0  0  0  0  0  0  0  0  0  0  0  0
  -10.1265    1.5802   -0.2882 C   0  0  0  0  0  0  0  0  0  0  0  0
   -9.2290    2.1804   -0.4977 H   0  0  0  0  0  0  0  0  0  0  0  0
   -9.6202   -1.9191    0.7054 C   0  0  0  0  0  0  0  0  0  0  0  0
   -9.1821   -2.8946    0.9448 H   0  0  0  0  0  0  0  0  0  0  0  0
   -5.2316   -1.1486    0.7464 C   0  0  0  0  0  0  0  0  0  0  0  0
   -4.5331   -1.7168    1.3785 H   0  0  0  0  0  0  0  0  0  0  0  0
  -12.5490    1.3734   -0.0632 C   0  0  0  0  0  0  0  0  0  0  0  0
  -13.5522    1.8300   -0.1265 H   0  0  0  0  0  0  0  0  0  0  0  0
   -6.6101   -1.2966    0.9195 C   0  0  0  0  0  0  0  0  0  0  0  0
   -6.9858   -1.9694    1.7053 H   0  0  0  0  0  0  0  0  0  0  0  0
   -5.6264    0.4737   -1.0086 C   0  0  0  0  0  0  0  0  0  0  0  0
   -5.2443    1.1372   -1.7976 H   0  0  0  0  0  0  0  0  0  0  0  0
   -7.0058    0.3079   -0.8487 C   0  0  0  0  0  0  0  0  0  0  0  0
   -7.6921    0.8405   -1.5225 H   0  0  0  0  0  0  0  0  0  0  0  0
  -10.0356    0.2199    0.0720 C   0  0  0  0  0  0  0  0  0  0  0  0
   -3.2418   -0.1066   -0.3630 C   0  0  0  0  0  0  0  0  0  0  0  0
   -1.0258    2.6454   -0.7199 C   0  0  0  0  0  3  0  0  0  0  0  0
   -0.0140    3.0251   -0.9025 H   0  0  0  0  0  0  0  0  0  0  0  0
  -11.4033    2.1514   -0.3576 C   0  0  0  0  0  0  0  0  0  0  0  0
  -11.5267    3.2082   -0.6363 H   0  0  0  0  0  0  0  0  0  0  0  0
   -2.6272    1.1672   -0.3176 C   0  0  0  0  0  0  0  0  0  0  0  0
   -4.7108   -0.2448   -0.2083 C   0  0  0  0  0  0  0  0  0  0  0  0
   -1.9228   -3.1728   -1.7908 C   0  0  0  0  0  0  0  0  0  0  0  0
   -1.9332   -4.1209   -2.3410 H   0  0  0  0  0  0  0  0  0  0  0  0
   -2.5011   -1.2669   -0.6956 C   0  0  0  0  0  3  0  0  0  0  0  0
   -0.7714   -2.3874   -1.5062 C   0  0  0  0  0  0  0  0  0  0  0  0
    0.2733   -2.6008   -1.7605 H   0  0  0  0  0  0  0  0  0  0  0  0
   -3.2483    2.4606   -0.3660 C   0  0  0  0  0  0  0  0  0  0  0  0
   -4.3173    2.6596   -0.2393 H   0  0  0  0  0  0  0  0  0  0  0  0
   -3.0145   -2.4810   -1.2651 C   0  0  0  0  0  0  0  0  0  0  0  0
   -4.0754   -2.7460   -1.3311 H   0  0  0  0  0  0  0  0  0  0  0  0
   -2.2409    3.3817   -0.6565 C   0  0  0  0  0  0  0  0  0  0  0  0
   -2.3472    4.4619   -0.8100 H   0  0  0  0  0  0  0  0  0  0  0  0
  1  2  1  0  0  0  0
  3 11  2  0  0  0  0
  4 29  1  0  0  0  0
  5  8  1  0  0  0  0
  6  3  1  0  0  0  0
  6 17  1  0  0  0  0
  7 33  1  0  0  0  0
  8  1  1  0  0  0  0
  9 23  1  0  0  0  0
 10  9  1  0  0  0  0
 11  1  1  0  0  0  0
 11 12  1  0  0  0  0
 13 17  2  0  0  0  0
 13 14  1  0  0  0  0
 15  5  2  0  0  0  0
 16 15  1  0  0  0  0
 17 18  1  0  0  0  0
 19 21  1  0  0  0  0
 19 30  2  0  0  0  0
 20 19  1  0  0  0  0
 21  6  2  0  0  0  0
 22 21  1  0  0  0  0
 23  3  1  0  0  0  0
 23  8  2  0  0  0  0
 24 29  2  0  0  0  0
 24 30  1  0  0  0  0
 25 40  1  0  0  0  0
 25  4  1  0  0  0  0
 26 25  1  0  0  0  0
 27  9  2  0  0  0  0
 27 15  1  0  0  0  0
 28 27  1  0  0  0  0
 30 13  1  0  0  0  0
 31 34  1  0  0  0  0
 31 38  2  0  0  0  0
 32 31  1  0  0  0  0
 33 24  1  0  0  0  0
 34  7  2  0  0  0  0
 35 34  1  0  0  0  0
 36 29  1  0  0  0  0
 36 37  1  0  0  0  0
 38 33  1  0  0  0  0
 39 38  1  0  0  0  0
 40 36  2  0  0  0  0
 41 40  1  0  0  0  0
M  END
