1,2
q = -1.0, confidence = 0.002

 28 29  0  0  0  0  0  0  0  0999 V2000
   -0.9691    1.3561    1.1133 N   0  0  0  0  0  2  0  0  0  0  0  0
   -2.2710   -0.2210    0.3228 N   0  0  0  0  0  2  0  0  0  0  0  0
   -2.8792    0.7629    2.4431 N   0  0  0  0  0  0  0  0  0  0  0  0
   -2.7636    1.6106    2.9996 H   0  0  0  0  0  0  0  0  0  0  0  0
   -3.8155    0.3576    2.4054 H   0  0  0  0  0  0  0  0  0  0  0  0
   -0.6556    2.6364    1.5803 C   0  0  0  0  0  0  0  0  0  0  0  0
    0.6993    2.9313    1.8557 C   0  0  0  0  0  0  0  0  0  0  0  0
    1.4495    2.1407    1.7060 H   0  0  0  0  0  0  0  0  0  0  0  0
    1.0652    4.2055    2.3046 C   0  0  0  0  0  0  0  0  0  0  0  0
    2.1229    4.4236    2.5181 H   0  0  0  0  0  0  0  0  0  0  0  0
    0.0891    5.2002    2.4917 C   0  0  0  0  0  0  0  0  0  0  0  0
    0.3788    6.1991    2.8505 H   0  0  0  0  0  0  0  0  0  0  0  0
   -1.2558    4.9168    2.2033 C   0  0  0  0  0  0  0  0  0  0  0  0
   -2.0205    5.7002    2.3189 H   0  0  0  0  0  0  0  0  0  0  0  0
   -1.6309    3.6507    1.7327 C   0  0  0  0  0  0  0  0  0  0  0  0
   -2.6697    3.4485    1.4339 H   0  0  0  0  0  0  0  0  0  0  0  0
   -2.0985    0.6404    1.3337 C   0  0  0  0  0  3  0  0  0  0  0  0
   -3.1478   -1.2966    0.1988 C   0  0  0  0  0  0  0  0  0  0  0  0
   -3.5093   -1.7274   -1.0993 C   0  0  0  0  0  0  0  0  0  0  0  0
   -3.0841   -1.2017   -1.9667 H   0  0  0  0  0  0  0  0  0  0  0  0
   -4.3539   -2.8306   -1.2606 C   0  0  0  0  0  0  0  0  0  0  0  0
   -4.6225   -3.1555   -2.2775 H   0  0  0  0  0  0  0  0  0  0  0  0
   -4.8572   -3.5226   -0.1450 C   0  0  0  0  0  0  0  0  0  0  0  0
   -5.5239   -4.3873   -0.2798 H   0  0  0  0  0  0  0  0  0  0  0  0
   -4.4903   -3.1045    1.1432 C   0  0  0  0  0  0  0  0  0  0  0  0
   -4.8551   -3.6515    2.0265 H   0  0  0  0  0  0  0  0  0  0  0  0
   -3.6369   -2.0073    1.3229 C   0  0  0  0  0  0  0  0  0  0  0  0
   -3.2977   -1.7400    2.3334 H   0  0  0  0  0  0  0  0  0  0  0  0
  1 17  1  0  0  0  0
  1  6  1  0  0  0  0
  2 17  1  0  0  0  0
  3  4  1  0  0  0  0
  5  3  1  0  0  0  0
  6 15  2  0  0  0  0
  6  7  1  0  0  0  0
  7  9  2  0  0  0  0
  8  7  1  0  0  0  0
  9 11  1  0  0  0  0
  9 10  1  0  0  0  0
 11 12  1  0  0  0  0
 13 14  1  0  0  0  0
 13 11  2  0  0  0  0
 15 13  1  0  0  0  0
 16 15  1  0  0  0  0
 17  3  1  0  0  0  0
 18  2  1  0  0  0  0
 18 27  1  0  0  0  0
 19 18  2  0  0  0  0
 20 19  1  0  0  0  0
 21 19  1  0  0  0  0
 21 23  2  0  0  0  0
 22 21  1  0  0  0  0
 23 25  1  0  0  0  0
 24 23  1  0  0  0  0
 25 27  2  0  0  0  0
 25 26  1  0  0  0  0
 27 28  1  0  0  0  0
M  END
