2,3
q = 0.0, confidence = 0.998

 29 31  0  0  0  0  0  0  0  0999 V2000
   -6.2826    1.1456   -0.0291 O   0  0  0  0  0  0  0  0  0  0  0  0
   -0.0355   -1.2122   -0.3572 N   0  0  0  0  0  2  0  0  0  0  0  0
    0.3002    1.4488   -0.3053 N   0  0  0  0  0  2  0  0  0  0  0  0
   -4.8901   -0.6961   -0.0232 N   0  0  0  0  0  0  0  0  0  0  0  0
   -4.9102   -1.7121    0.0506 H   0  0  0  0  0  0  0  0  0  0  0  0
   -0.1533   -2.5478   -0.3876 C   0  0  0  0  0  0  0  0  0  0  0  0
    0.7833   -3.1208   -0.4416 H   0  0  0  0  0  0  0  0  0  0  0  0
   -1.4037   -3.1884   -0.3479 C   0  0  0  0  0  0  0  0  0  0  0  0
   -1.4491   -4.2855   -0.3826 H   0  0  0  0  0  0  0  0  0  0  0  0
   -2.5647   -2.4236   -0.2633 C   0  0  0  0  0  0  0  0  0  0  0  0
   -3.5345   -2.9434   -0.2445 H   0  0  0  0  0  0  0  0  0  0  0  0
   -2.4777   -1.0100   -0.2132 C   0  0  0  0  0  0  0  0  0  0  0  0
   -3.6228   -0.1115   -0.1119 C   0  0  0  0  0  0  0  0  0  0  0  0
   -3.4303    1.2622   -0.1074 C   0  0  0  0  0  0  0  0  0  0  0  0
   -4.3075    1.9168   -0.0450 H   0  0  0  0  0  0  0  0  0  0  0  0
   -2.1190    1.8297   -0.1759 C   0  0  0  0  0  0  0  0  0  0  0  0
   -1.8799    3.2290   -0.1624 C   0  0  0  0  0  0  0  0  0  0  0  0
   -2.7306    3.9242   -0.1039 H   0  0  0  0  0  0  0  0  0  0  0  0
   -0.5699    3.6945   -0.2175 C   0  0  0  0  0  0  0  0  0  0  0  0
   -0.3475    4.7706   -0.2029 H   0  0  0  0  0  0  0  0  0  0  0  0
    0.4973    2.7759   -0.2865 C   0  0  0  0  0  0  0  0  0  0  0  0
    1.5426    3.1145   -0.3204 H   0  0  0  0  0  0  0  0  0  0  0  0
   -0.9816    0.9771   -0.2475 C   0  0  0  0  0  0  0  0  0  0  0  0
   -1.1673   -0.4454   -0.2696 C   0  0  0  0  0  0  0  0  0  0  0  0
   -6.1339   -0.0680    0.0269 C   0  0  0  0  0  0  0  0  0  0  0  0
   -7.3028   -1.0267    0.1862 C   0  0  0  0  0  0  0  0  0  0  0  0
   -8.1315   -0.6775   -0.4573 H   0  0  0  0  0  0  0  0  0  0  0  0
   -7.6627   -0.9820    1.2346 H   0  0  0  0  0  0  0  0  0  0  0  0
   -7.0651   -2.0799   -0.0605 H   0  0  0  0  0  0  0  0  0  0  0  0
  1 25  2  0  0  0  0
  2 24  1  0  0  0  0
  3 21  1  0  0  0  0
  3 23  1  0  0  0  0
  4 25  1  0  0  0  0
  4  5  1  0  0  0  0
  6  2  1  0  0  0  0
  6  8  2  0  0  0  0
  7  6  1  0  0  0  0
  8 10  1  0  0  0  0
  9  8  1  0  0  0  0
 10 11  1  0  0  0  0
 10 12  2  0  0  0  0
 12 13  1  0  0  0  0
 13 14  2  0  0  0  0
 13  4  1  0  0  0  0
 14 15  1  0  0  0  0
 16 17  2  0  0  0  0
 16 14  1  0  0  0  0
 17 18  1  0  0  0  0
 19 20  1  0  0  0  0
 19 17  1  0  0  0  0
 21 19  2  0  0  0  0
 22 21  1  0  0  0  0
 23 16  1  0  0  0  0
 24 23  2  0  0  0  0
 24 12  1  0  0  0  0
 25 26  1  0  0  0  0
 26 28  1  0  0  0  0
 27 26  1  0  0  0  0
 29 26  1  0  0  0  0
M  END
