16,24
q = -1.0, confidence = 0.022

 24 26  0  0  0  0  0  0  0  0999 V2000
    8.8421   -0.9339    0.6607 S   0  0  0  0  0  0  0  0  0  0  0  0
    5.8259   -0.9807    0.5284 S   0  0  0  0  0  0  0  0  0  0  0  0
    7.2494    1.3890   -0.4486 S   0  0  0  0  0  0  0  0  0  0  0  0
    7.4100   -0.2299    0.2764 C   0  0  0  0  0  0  0  0  0  0  0  0
    5.5197    1.4229   -0.5512 C   0  0  0  0  0  0  0  0  0  0  0  0
    5.0335    2.3059   -0.9898 H   0  0  0  0  0  0  0  0  0  0  0  0
    4.8262    0.3272   -0.1098 C   0  0  0  0  0  0  0  0  0  0  0  0
    3.3572    0.2046   -0.1033 C   0  0  0  0  0  3  0  0  0  0  0  0
    2.6128    1.2754    0.4441 C   0  0  0  0  0  0  0  0  0  0  0  0
    3.0923    2.3810    1.2264 C   0  0  0  0  0  3  0  0  0  0  0  0
    4.1388    2.5629    1.4920 H   0  0  0  0  0  0  0  0  0  0  0  0
    1.9733    3.1070    1.6287 C   0  0  0  0  0  0  0  0  0  0  0  0
    1.9488    4.0066    2.2542 H   0  0  0  0  0  0  0  0  0  0  0  0
    0.8419    2.4389    1.0886 C   0  0  0  0  0  0  0  0  0  0  0  0
   -0.2167    2.6993    1.1995 H   0  0  0  0  0  0  0  0  0  0  0  0
    1.2191    1.3506    0.3732 N   0  0  0  0  0  0  0  0  0  0  0  0
    2.7525   -0.9566   -0.6359 C   0  0  0  0  0  0  0  0  0  0  0  0
    3.3642   -2.0048   -1.4028 C   0  0  0  0  0  0  0  0  0  0  0  0
    4.4311   -2.0828   -1.6376 H   0  0  0  0  0  0  0  0  0  0  0  0
    2.3406   -2.8555   -1.8140 C   0  0  0  0  0  0  0  0  0  0  0  0
    2.4291   -3.7596   -2.4270 H   0  0  0  0  0  0  0  0  0  0  0  0
    1.1337   -2.3198   -1.2894 C   0  0  0  0  0  0  0  0  0  0  0  0
    0.1141   -2.7036   -1.4055 H   0  0  0  0  0  0  0  0  0  0  0  0
    1.3756   -1.1933   -0.5756 N   0  0  0  0  0  2  0  0  0  0  0  0
  3  4  1  0  0  0  0
  4  2  1  0  0  0  0
  4  1  2  0  0  0  0
  5  3  1  0  0  0  0
  5  7  2  0  0  0  0
  6  5  1  0  0  0  0
  7  8  1  0  0  0  0
  7  2  1  0  0  0  0
  8  9  1  0  0  0  0
  9 10  1  0  0  0  0
 10 11  1  0  0  0  0
 10 12  1  0  0  0  0
 12 13  1  0  0  0  0
 14 15  1  0  0  0  0
 14 12  2  0  0  0  0
 16  9  2  0  0  0  0
 16 14  1  0  0  0  0
 17 24  1  0  0  0  0
 17  8  1  0  0  0  0
 18 17  2  0  0  0  0
 19 18  1  0  0  0  0
 20 18  1  0  0  0  0
 20 22  2  0  0  0  0
 21 20  1  0  0  0  0
 22 24  1  0  0  0  0
 23 22  1  0  0  0  0
M  END
