1,2
q = 0.0, confidence = 1.0

 24 26  0  0  0  0  0  0  0  0999 V2000
    0.0179   -0.8082    1.4877 N   0  0  0  0  0  2  0  0  0  0  0  0
    0.4545   -0.8454   -1.1616 N   0  0  0  0  0  2  0  0  0  0  0  0
    5.3414   -0.0184   -0.3496 N   0  0  0  0  0  0  0  0  0  0  0  0
    5.6882   -0.5219   -1.4157 O   0  0  0  0  0  0  0  0  0  0  0  0
    6.0582    0.6151    0.4144 O   0  0  0  0  0  0  0  0  0  0  0  0
   -0.2198   -0.8423    2.8118 C   0  0  0  0  0  0  0  0  0  0  0  0
   -1.2601   -1.0306    3.1165 H   0  0  0  0  0  0  0  0  0  0  0  0
    0.7941   -0.6558    3.7732 C   0  0  0  0  0  0  0  0  0  0  0  0
    0.5348   -0.6977    4.8402 H   0  0  0  0  0  0  0  0  0  0  0  0
    2.1005   -0.4235    3.3550 C   0  0  0  0  0  0  0  0  0  0  0  0
    2.9125   -0.2697    4.0813 H   0  0  0  0  0  0  0  0  0  0  0  0
    2.3823   -0.3971    1.9645 C   0  0  0  0  0  0  0  0  0  0  0  0
    1.3029   -0.6022    1.0594 C   0  0  0  0  0  0  0  0  0  0  0  0
    1.5452   -0.6256   -0.3596 C   0  0  0  0  0  0  0  0  0  0  0  0
    2.8653   -0.4573   -0.8852 C   0  0  0  0  0  0  0  0  0  0  0  0
    3.9210   -0.2203    0.0763 C   0  0  0  0  0  0  0  0  0  0  0  0
    3.6927   -0.1798    1.4309 C   0  0  0  0  0  0  0  0  0  0  0  0
    4.5401    0.0204    2.1018 H   0  0  0  0  0  0  0  0  0  0  0  0
    0.6328   -0.9239   -2.4910 C   0  0  0  0  0  0  0  0  0  0  0  0
   -0.2638   -1.1238   -3.0964 H   0  0  0  0  0  0  0  0  0  0  0  0
    1.8963   -0.7649   -3.0885 C   0  0  0  0  0  0  0  0  0  0  0  0
    1.9868   -0.8359   -4.1814 H   0  0  0  0  0  0  0  0  0  0  0  0
    3.0158   -0.5268   -2.2976 C   0  0  0  0  0  0  0  0  0  0  0  0
    4.0105   -0.4103   -2.7428 H   0  0  0  0  0  0  0  0  0  0  0  0
  1  6  1  0  0  0  0
  2 14  1  0  0  0  0
  3 16  1  0  0  0  0
  3  5  2  0  0  0  0
  4  3  2  0  0  0  0
  6  7  1  0  0  0  0
  6  8  2  0  0  0  0
  8  9  1  0  0  0  0
 10  8  1  0  0  0  0
 10 11  1  0  0  0  0
 12 10  2  0  0  0  0
 13  1  1  0  0  0  0
 13 12  1  0  0  0  0
 14 13  2  0  0  0  0
 15 14  1  0  0  0  0
 15 16  1  0  0  0  0
 16 17  2  0  0  0  0
 17 12  1  0  0  0  0
 17 18  1  0  0  0  0
 19  2  1  0  0  0  0
 20 19  1  0  0  0  0
 21 19  2  0  0  0  0
 21 23  1  0  0  0  0
 22 21  1  0  0  0  0
 23 15  2  0  0  0  0
 24 23  1  0  0  0  0
M  END
