29,32
q = 0.0, confidence = 1.0

 33 35  0  0  1  0  0  0  0  0999 V2000
    0.3742   -2.6540   -1.1001 C   0  0  0  0  0  3  0  0  0  0  0  0
    1.3700   -3.0582   -1.3133 H   0  0  0  0  0  0  0  0  0  0  0  0
   -0.9043   -3.2075   -1.3310 C   0  0  0  0  0  0  0  0  0  0  0  0
   -1.1439   -4.1757   -1.7808 H   0  0  0  0  0  0  0  0  0  0  0  0
   -1.8039   -2.2591   -0.8556 C   0  0  0  0  0  0  0  0  0  0  0  0
   -2.8944   -2.2535   -0.8117 H   0  0  0  0  0  0  0  0  0  0  0  0
    0.3742    2.6540   -1.1001 C   0  0  0  0  0  3  0  0  0  0  0  0
    1.3700    3.0582   -1.3133 H   0  0  0  0  0  0  0  0  0  0  0  0
   -0.9043    3.2075   -1.3311 C   0  0  0  0  0  0  0  0  0  0  0  0
   -1.1439    4.1757   -1.7808 H   0  0  0  0  0  0  0  0  0  0  0  0
   -1.8039    2.2591   -0.8557 C   0  0  0  0  0  0  0  0  0  0  0  0
   -2.8944    2.2535   -0.8117 H   0  0  0  0  0  0  0  0  0  0  0  0
   -1.4768   -0.0000    0.3382 C   0  0  1  0  0  0  0  0  0  0  0  0
   -0.8406   -0.0000    1.2502 H   0  0  0  0  0  0  0  0  0  0  0  0
   -2.9244   -0.0000    0.7702 C   0  0  0  0  0  0  0  0  0  0  0  0
   -4.0125    0.0000   -0.1458 C   0  0  0  0  0  0  0  0  0  0  0  0
   -5.3353    0.0000    0.3367 C   0  0  0  0  0  0  0  0  0  0  0  0
   -6.1811    0.0000   -0.3630 H   0  0  0  0  0  0  0  0  0  0  0  0
   -5.5778   -0.0000    1.7194 C   0  0  0  0  0  0  0  0  0  0  0  0
   -6.6173   -0.0000    2.0804 H   0  0  0  0  0  0  0  0  0  0  0  0
   -4.5152   -0.0000    2.6318 C   0  0  0  0  0  0  0  0  0  0  0  0
   -4.7054   -0.0000    3.7143 H   0  0  0  0  0  0  0  0  0  0  0  0
   -3.1987   -0.0000    2.1488 C   0  0  0  0  0  0  0  0  0  0  0  0
   -2.3524   -0.0000    2.8534 H   0  0  0  0  0  0  0  0  0  0  0  0
   -4.7177    0.0000   -2.4408 C   0  0  0  0  0  0  0  0  0  0  0  0
   -5.3585   -0.9051   -2.3589 H   0  0  0  0  0  0  0  0  0  0  0  0
   -4.2121    0.0000   -3.4232 H   0  0  0  0  0  0  0  0  0  0  0  0
   -5.3585    0.9051   -2.3589 H   0  0  0  0  0  0  0  0  0  0  0  0
    0.2684   -1.4480   -0.5143 N   0  0  0  0  0  2  0  0  0  0  0  0
   -1.0657   -1.2089   -0.3839 N   0  0  0  0  0  0  0  0  0  0  0  0
   -1.0657    1.2089   -0.3839 N   0  0  0  0  0  0  0  0  0  0  0  0
    0.2684    1.4480   -0.5143 N   0  0  0  0  0  2  0  0  0  0  0  0
   -3.6847    0.0000   -1.4672 O   0  0  0  0  0  0  0  0  0  0  0  0
  1 29  1  0  0  0  0
  2  1  1  0  0  0  0
  3  1  1  0  0  0  0
  3  5  2  0  0  0  0
  4  3  1  0  0  0  0
  5  6  1  0  0  0  0
  5 30  1  0  0  0  0
  7 32  1  0  0  0  0
  8  7  1  0  0  0  0
  9  7  1  0  0  0  0
  9 11  2  0  0  0  0
 10  9  1  0  0  0  0
 11 12  1  0  0  0  0
 11 31  1  0  0  0  0
 13 15  1  0  0  0  0
 13 14  1  1  0  0  0
 15 23  1  0  0  0  0
 16 17  1  0  0  0  0
 16 15  2  0  0  0  0
 17 19  2  0  0  0  0
 18 17  1  0  0  0  0
 19 20  1  0  0  0  0
 19 21  1  0  0  0  0
 21 22  1  0  0  0  0
 23 21  2  0  0  0  0
 23 24  1  0  0  0  0
 25 26  1  0  0  0  0
 25 28  1  0  0  0  0
 25 33  1  0  0  0  0
 27 25  1  0  0  0  0
 29 30  1  0  0  0  0
 30 13  1  0  0  0  0
 31 13  1  0  0  0  0
 32 31  1  0  0  0  0
 33 16  1  0  0  0  0
M  END
