1,12
q = 0.0, confidence = 0.91

 23 24  0  0  0  0  0  0  0  0999 V2000
   -2.0540   -0.7037   -0.0495 N   0  0  0  0  0  2  0  0  0  0  0  0
   -3.3469   -0.6395    0.3315 C   0  0  0  0  0  3  0  0  0  0  0  0
   -3.7170    0.2961    0.7709 H   0  0  0  0  0  0  0  0  0  0  0  0
   -5.4547   -1.6404    0.5685 F   0  0  0  0  0  0  0  0  0  0  0  0
   -4.1964   -1.7403    0.1603 C   0  0  0  0  0  0  0  0  0  0  0  0
   -3.7296   -2.9317   -0.4240 C   0  0  0  0  0  0  0  0  0  0  0  0
   -4.4120   -3.7844   -0.5490 H   0  0  0  0  0  0  0  0  0  0  0  0
   -2.4046   -2.9725   -0.8487 C   0  0  0  0  0  0  0  0  0  0  0  0
   -1.9756   -3.8518   -1.3475 H   0  0  0  0  0  0  0  0  0  0  0  0
   -1.5833   -1.8392   -0.6690 C   0  0  0  0  0  0  0  0  0  0  0  0
   -0.3053   -1.8029   -1.1542 N   0  0  0  0  0  2  0  0  0  0  0  0
    0.2513   -0.6469   -0.9897 N   0  0  0  0  0  2  0  0  0  0  0  0
    1.5666   -0.5179   -1.5187 C   0  0  0  0  0  0  0  0  0  0  0  0
    2.4669   -1.6003   -1.4383 C   0  0  0  0  0  0  0  0  0  0  0  0
    2.1423   -2.5347   -0.9626 H   0  0  0  0  0  0  0  0  0  0  0  0
    3.7660   -1.4402   -1.9283 C   0  0  0  0  0  0  0  0  0  0  0  0
    4.4852   -2.2675   -1.8397 H   0  0  0  0  0  0  0  0  0  0  0  0
    4.1541   -0.2282   -2.5273 C   0  0  0  0  0  0  0  0  0  0  0  0
    5.1763   -0.1118   -2.9169 H   0  0  0  0  0  0  0  0  0  0  0  0
    3.2362    0.8305   -2.6419 C   0  0  0  0  0  0  0  0  0  0  0  0
    3.5286    1.7629   -3.1469 H   0  0  0  0  0  0  0  0  0  0  0  0
    1.9405    0.6982   -2.1287 C   0  0  0  0  0  0  0  0  0  0  0  0
    1.1882    1.4916   -2.2471 H   0  0  0  0  0  0  0  0  0  0  0  0
  1  2  1  0  0  0  0
  2  3  1  0  0  0  0
  5  2  1  0  0  0  0
  5  4  1  0  0  0  0
  6  5  2  0  0  0  0
  7  6  1  0  0  0  0
  8 10  2  0  0  0  0
  8  6  1  0  0  0  0
  9  8  1  0  0  0  0
 10  1  1  0  0  0  0
 11 12  1  0  0  0  0
 11 10  1  0  0  0  0
 13 14  1  0  0  0  0
 13 12  1  0  0  0  0
 14 15  1  0  0  0  0
 16 17  1  0  0  0  0
 16 14  2  0  0  0  0
 18 16  1  0  0  0  0
 19 18  1  0  0  0  0
 20 18  2  0  0  0  0
 20 22  1  0  0  0  0
 21 20  1  0  0  0  0
 22 13  2  0  0  0  0
 23 22  1  0  0  0  0
M  END
