1,2
q = 0.0, confidence = 0.992

 50 53  0  0  0  0  0  0  0  0999 V2000
   -1.0169   -2.0646    0.9827 N   0  0  0  0  0  2  0  0  0  0  0  0
    1.2133   -2.5273   -0.3970 N   0  0  0  0  0  0  0  0  0  0  0  0
    2.1376   -1.5524    1.9797 N   0  0  0  0  0  0  0  0  0  0  0  0
   -1.0877   -1.2825   -1.9292 N   0  0  0  0  0  0  0  0  0  0  0  0
   -2.2226   -1.6877    1.4636 C   0  0  0  0  0  3  0  0  0  0  0  0
   -2.3716   -0.6022    1.5511 H   0  0  0  0  0  0  0  0  0  0  0  0
   -3.1933   -2.6234    1.8281 C   0  0  0  0  0  0  0  0  0  0  0  0
   -4.1596   -2.2748    2.2184 H   0  0  0  0  0  0  0  0  0  0  0  0
   -2.9142   -3.9906    1.6811 C   0  0  0  0  0  0  0  0  0  0  0  0
   -3.6626   -4.7498    1.9513 H   0  0  0  0  0  0  0  0  0  0  0  0
   -1.6620   -4.3745    1.1820 C   0  0  0  0  0  0  0  0  0  0  0  0
   -1.4016   -5.4346    1.0514 H   0  0  0  0  0  0  0  0  0  0  0  0
   -0.7310   -3.3858    0.8451 C   0  0  0  0  0  0  0  0  0  0  0  0
    0.6718   -3.6672    0.3954 C   0  0  0  0  0  0  0  0  0  0  0  0
    0.7462   -4.6187   -0.1736 H   0  0  0  0  0  0  0  0  0  0  0  0
    1.2991   -3.7653    1.3043 H   0  0  0  0  0  0  0  0  0  0  0  0
    2.6829   -2.4322   -0.2352 C   0  0  0  0  0  0  0  0  0  0  0  0
    3.0482   -1.7172   -0.9968 H   0  0  0  0  0  0  0  0  0  0  0  0
    3.1507   -3.4193   -0.4546 H   0  0  0  0  0  0  0  0  0  0  0  0
    3.1098   -1.9264    1.1307 C   0  0  0  0  0  0  0  0  0  0  0  0
    4.4753   -1.8151    1.4482 C   0  0  0  0  0  0  0  0  0  0  0  0
    5.2442   -2.1505    0.7353 H   0  0  0  0  0  0  0  0  0  0  0  0
    4.8318   -1.2628    2.6862 C   0  0  0  0  0  0  0  0  0  0  0  0
    5.8912   -1.1533    2.9623 H   0  0  0  0  0  0  0  0  0  0  0  0
    3.8170   -0.8531    3.5650 C   0  0  0  0  0  0  0  0  0  0  0  0
    4.0531   -0.4129    4.5444 H   0  0  0  0  0  0  0  0  0  0  0  0
    2.4841   -1.0291    3.1691 C   0  0  0  0  0  0  0  0  0  0  0  0
    1.6518   -0.7371    3.8320 H   0  0  0  0  0  0  0  0  0  0  0  0
    0.8816   -2.6454   -1.8528 C   0  0  0  0  0  0  0  0  0  0  0  0
    1.2852   -3.6040   -2.2464 H   0  0  0  0  0  0  0  0  0  0  0  0
    1.3968   -1.8037   -2.3541 H   0  0  0  0  0  0  0  0  0  0  0  0
   -0.6018   -2.5214   -2.1129 C   0  0  0  0  0  0  0  0  0  0  0  0
   -1.4072   -3.6123   -2.4694 C   0  0  0  0  0  0  0  0  0  0  0  0
   -0.9706   -4.6097   -2.6273 H   0  0  0  0  0  0  0  0  0  0  0  0
   -2.7868   -3.3874   -2.6210 C   0  0  0  0  0  0  0  0  0  0  0  0
   -3.4581   -4.2104   -2.9079 H   0  0  0  0  0  0  0  0  0  0  0  0
   -3.2955   -2.1031   -2.4130 C   0  0  0  0  0  0  0  0  0  0  0  0
   -4.3673   -1.9058   -2.5510 H   0  0  0  0  0  0  0  0  0  0  0  0
   -2.4108   -1.0510   -2.0666 C   0  0  0  0  0  0  0  0  0  0  0  0
   -2.8688    0.3444   -1.8541 C   0  0  0  0  0  0  0  0  0  0  0  0
   -4.2175    0.6567   -1.5698 C   0  0  0  0  0  0  0  0  0  0  0  0
   -4.9654   -0.1452   -1.4797 H   0  0  0  0  0  0  0  0  0  0  0  0
   -4.6164    1.9870   -1.3788 C   0  0  0  0  0  0  0  0  0  0  0  0
   -5.6697    2.2138   -1.1560 H   0  0  0  0  0  0  0  0  0  0  0  0
   -3.6752    3.0259   -1.4606 C   0  0  0  0  0  0  0  0  0  0  0  0
   -3.9878    4.0681   -1.2994 H   0  0  0  0  0  0  0  0  0  0  0  0
   -2.3300    2.7269   -1.7334 C   0  0  0  0  0  0  0  0  0  0  0  0
   -1.5828    3.5338   -1.7735 H   0  0  0  0  0  0  0  0  0  0  0  0
   -1.9321    1.4001   -1.9309 C   0  0  0  0  0  0  0  0  0  0  0  0
   -0.8839    1.1506   -2.1450 H   0  0  0  0  0  0  0  0  0  0  0  0
  1  5  1  0  0  0  0
  2 17  1  0  0  0  0
  2 14  1  0  0  0  0
  3 27  1  0  0  0  0
  5  6  1  0  0  0  0
  5  7  1  0  0  0  0
  7  8  1  0  0  0  0
  9  7  2  0  0  0  0
  9 10  1  0  0  0  0
 11  9  1  0  0  0  0
 12 11  1  0  0  0  0
 13  1  1  0  0  0  0
 13 11  2  0  0  0  0
 14 13  1  0  0  0  0
 14 16  1  0  0  0  0
 15 14  1  0  0  0  0
 17 20  1  0  0  0  0
 18 17  1  0  0  0  0
 19 17  1  0  0  0  0
 20 21  1  0  0  0  0
 20  3  2  0  0  0  0
 21 23  2  0  0  0  0
 22 21  1  0  0  0  0
 23 24  1  0  0  0  0
 23 25  1  0  0  0  0
 25 26  1  0  0  0  0
 27 25  2  0  0  0  0
 27 28  1  0  0  0  0
 29  2  1  0  0  0  0
 30 29  1  0  0  0  0
 31 29  1  0  0  0  0
 32  4  2  0  0  0  0
 32 29  1  0  0  0  0
 33 32  1  0  0  0  0
 34 33  1  0  0  0  0
 35 33  2  0  0  0  0
 35 37  1  0  0  0  0
 36 35  1  0  0  0  0
 37 39  2  0  0  0  0
 38 37  1  0  0  0  0
 39  4  1  0  0  0  0
 39 40  1  0  0  0  0
 40 41  1  0  0  0  0
 41 42  1  0  0  0  0
 41 43  2  0  0  0  0
 43 44  1  0  0  0  0
 45 43  1  0  0  0  0
 45 46  1  0  0  0  0
 47 45  2  0  0  0  0
 48 47  1  0  0  0  0
 49 40  2  0  0  0  0
 49 47  1  0  0  0  0
 50 49  1  0  0  0  0
M  END
