1,2
q = 0.0, confidence = 0.992

 48 49  0  0  0  0  0  0  0  0999 V2000
    2.3492   -0.6068    0.1885 N   0  0  0  0  0  2  0  0  0  0  0  0
   -0.1237    0.1920   -0.5275 N   0  0  0  0  0  2  0  0  0  0  0  0
   -2.3238   -0.3594   -1.0111 N   0  0  0  0  0  0  0  0  0  0  0  0
   -1.9024    1.4645    0.4238 N   0  0  0  0  0  0  0  0  0  0  0  0
    3.3339    1.5737   -0.3120 C   0  0  0  0  0  0  0  0  0  0  0  0
    2.2064    0.6879   -0.2206 C   0  0  0  0  0  0  0  0  0  0  0  0
    0.8764    1.1418   -0.5673 C   0  0  0  0  0  0  0  0  0  0  0  0
    3.5494   -1.0856    0.5007 C   0  0  0  0  0  0  0  0  0  0  0  0
    3.5919   -2.1436    0.8064 H   0  0  0  0  0  0  0  0  0  0  0  0
    0.7379    2.4726   -0.9956 C   0  0  0  0  0  0  0  0  0  0  0  0
   -0.2563    2.8386   -1.2867 H   0  0  0  0  0  0  0  0  0  0  0  0
    3.1340    2.9153   -0.7419 C   0  0  0  0  0  3  0  0  0  0  0  0
    3.9956    3.5956   -0.8091 H   0  0  0  0  0  0  0  0  0  0  0  0
    1.8532    3.3391   -1.0759 C   0  0  0  0  0  0  0  0  0  0  0  0
    1.6945    4.3728   -1.4199 H   0  0  0  0  0  0  0  0  0  0  0  0
    4.6053    1.0360    0.0392 C   0  0  0  0  0  0  0  0  0  0  0  0
    5.4935    1.6846   -0.0178 H   0  0  0  0  0  0  0  0  0  0  0  0
    4.7173   -0.2868    0.4412 C   0  0  0  0  0  0  0  0  0  0  0  0
    5.6894   -0.7232    0.7108 H   0  0  0  0  0  0  0  0  0  0  0  0
   -1.4303    0.4533   -0.3737 C   0  0  0  0  0  3  0  0  0  0  0  0
   -1.5300   -0.0646   -3.3601 C   0  0  0  0  0  0  0  0  0  0  0  0
   -2.3672    0.6259   -3.5914 H   0  0  0  0  0  0  0  0  0  0  0  0
   -1.2774   -0.6223   -4.2837 H   0  0  0  0  0  0  0  0  0  0  0  0
   -0.6423    0.5383   -3.0856 H   0  0  0  0  0  0  0  0  0  0  0  0
   -3.4820   -0.9351   -0.3046 C   0  0  0  0  0  0  0  0  0  0  0  0
   -4.3342   -0.9692   -1.0176 H   0  0  0  0  0  0  0  0  0  0  0  0
   -3.7729   -0.2499    0.5125 H   0  0  0  0  0  0  0  0  0  0  0  0
   -1.9014   -1.0432   -2.2508 C   0  0  0  0  0  0  0  0  0  0  0  0
   -2.7669   -1.6594   -2.5663 H   0  0  0  0  0  0  0  0  0  0  0  0
   -1.0694   -1.7517   -2.0443 H   0  0  0  0  0  0  0  0  0  0  0  0
   -3.1696    2.1413    0.1331 C   0  0  0  0  0  0  0  0  0  0  0  0
   -3.9316    1.8957    0.9061 H   0  0  0  0  0  0  0  0  0  0  0  0
   -3.5426    1.7279   -0.8232 H   0  0  0  0  0  0  0  0  0  0  0  0
   -1.1405    1.8878    1.6076 C   0  0  0  0  0  0  0  0  0  0  0  0
   -0.7115    2.9011    1.4434 H   0  0  0  0  0  0  0  0  0  0  0  0
   -0.3005    1.1769    1.7175 H   0  0  0  0  0  0  0  0  0  0  0  0
   -3.0243    3.6594    0.0188 C   0  0  0  0  0  0  0  0  0  0  0  0
   -2.7075    4.1263    0.9719 H   0  0  0  0  0  0  0  0  0  0  0  0
   -3.9999    4.1044   -0.2605 H   0  0  0  0  0  0  0  0  0  0  0  0
   -2.2876    3.9381   -0.7613 H   0  0  0  0  0  0  0  0  0  0  0  0
   -1.9665    1.8291    2.8898 C   0  0  0  0  0  0  0  0  0  0  0  0
   -2.8329    2.5211    2.8885 H   0  0  0  0  0  0  0  0  0  0  0  0
   -1.3217    2.1048    3.7472 H   0  0  0  0  0  0  0  0  0  0  0  0
   -2.3204    0.7935    3.0621 H   0  0  0  0  0  0  0  0  0  0  0  0
   -3.1836   -2.3191    0.2758 C   0  0  0  0  0  0  0  0  0  0  0  0
   -2.8100   -3.0241   -0.4926 H   0  0  0  0  0  0  0  0  0  0  0  0
   -4.1058   -2.7457    0.7199 H   0  0  0  0  0  0  0  0  0  0  0  0
   -2.4091   -2.2496    1.0672 H   0  0  0  0  0  0  0  0  0  0  0  0
  1  8  1  0  0  0  0
  2 20  1  0  0  0  0
  3 20  1  0  0  0  0
  3 25  1  0  0  0  0
  4 34  1  0  0  0  0
  5  6  1  0  0  0  0
  5 16  2  0  0  0  0
  6  1  1  0  0  0  0
  7  2  1  0  0  0  0
  7  6  2  0  0  0  0
  8  9  1  0  0  0  0
 10  7  1  0  0  0  0
 11 10  1  0  0  0  0
 12  5  1  0  0  0  0
 13 12  1  0  0  0  0
 14 10  2  0  0  0  0
 14 12  1  0  0  0  0
 15 14  1  0  0  0  0
 16 18  1  0  0  0  0
 17 16  1  0  0  0  0
 18  8  2  0  0  0  0
 18 19  1  0  0  0  0
 20  4  1  0  0  0  0
 21 24  1  0  0  0  0
 21 28  1  0  0  0  0
 22 21  1  0  0  0  0
 23 21  1  0  0  0  0
 25 45  1  0  0  0  0
 25 27  1  0  0  0  0
 26 25  1  0  0  0  0
 28 30  1  0  0  0  0
 28  3  1  0  0  0  0
 29 28  1  0  0  0  0
 31  4  1  0  0  0  0
 31 32  1  0  0  0  0
 33 31  1  0  0  0  0
 34 36  1  0  0  0  0
 34 41  1  0  0  0  0
 35 34  1  0  0  0  0
 37 31  1  0  0  0  0
 37 38  1  0  0  0  0
 39 37  1  0  0  0  0
 40 37  1  0  0  0  0
 41 44  1  0  0  0  0
 41 43  1  0  0  0  0
 42 41  1  0  0  0  0
 45 47  1  0  0  0  0
 45 48  1  0  0  0  0
 46 45  1  0  0  0  0
M  END
