3,6
q = 0.0, confidence = 0.992

 46 49  0  0  0  0  0  0  0  0999 V2000
    3.7817   -2.5196   -0.9181 O   0  0  0  0  0  0  0  0  0  0  0  0
    2.2364    3.9846    1.3723 O   0  0  0  0  0  0  0  0  0  0  0  0
   -0.1779    0.0449   -0.7419 N   0  0  0  0  0  2  0  0  0  0  0  0
    2.1102   -0.2281   -1.0641 N   0  0  0  0  0  0  0  0  0  0  0  0
    1.3177    1.7946   -0.1642 N   0  0  0  0  0  0  0  0  0  0  0  0
   -2.4651   -0.6814    0.4948 N   0  0  0  0  0  2  0  0  0  0  0  0
    1.0612    0.5511   -0.6841 C   0  0  0  0  0  3  0  0  0  0  0  0
    1.9419   -1.3462   -2.0038 C   0  0  0  0  0  0  0  0  0  0  0  0
    2.5197   -1.1083   -2.9260 H   0  0  0  0  0  0  0  0  0  0  0  0
    0.8685   -1.4370   -2.2535 H   0  0  0  0  0  0  0  0  0  0  0  0
    2.4539   -2.6591   -1.4049 C   0  0  0  0  0  0  0  0  0  0  0  0
    1.7608   -3.0007   -0.6010 H   0  0  0  0  0  0  0  0  0  0  0  0
    2.4676   -3.4406   -2.1899 H   0  0  0  0  0  0  0  0  0  0  0  0
    3.8061   -1.5531    0.1138 C   0  0  0  0  0  0  0  0  0  0  0  0
    4.8380   -1.5218    0.5185 H   0  0  0  0  0  0  0  0  0  0  0  0
    3.0988   -1.8183    0.9359 H   0  0  0  0  0  0  0  0  0  0  0  0
    3.4224   -0.1650   -0.4147 C   0  0  0  0  0  0  0  0  0  0  0  0
    3.3646    0.5453    0.4295 H   0  0  0  0  0  0  0  0  0  0  0  0
    4.1916    0.1869   -1.1393 H   0  0  0  0  0  0  0  0  0  0  0  0
    0.4708    2.3638    0.8859 C   0  0  0  0  0  0  0  0  0  0  0  0
   -0.0993    1.5394    1.3555 H   0  0  0  0  0  0  0  0  0  0  0  0
   -0.2327    3.1134    0.4575 H   0  0  0  0  0  0  0  0  0  0  0  0
    1.3644    3.0150    1.9407 C   0  0  0  0  0  0  0  0  0  0  0  0
    0.7428    3.5416    2.6913 H   0  0  0  0  0  0  0  0  0  0  0  0
    1.9440    2.2137    2.4601 H   0  0  0  0  0  0  0  0  0  0  0  0
    3.0996    3.3878    0.4256 C   0  0  0  0  0  0  0  0  0  0  0  0
    3.7574    2.6301    0.9208 H   0  0  0  0  0  0  0  0  0  0  0  0
    3.7457    4.1909    0.0174 H   0  0  0  0  0  0  0  0  0  0  0  0
    2.3103    2.7216   -0.7049 C   0  0  0  0  0  0  0  0  0  0  0  0
    1.7729    3.5149   -1.2782 H   0  0  0  0  0  0  0  0  0  0  0  0
    2.9797    2.1940   -1.4095 H   0  0  0  0  0  0  0  0  0  0  0  0
   -1.2969    0.8274   -0.9678 C   0  0  0  0  0  0  0  0  0  0  0  0
   -1.3526    1.9528   -1.8041 C   0  0  0  0  0  0  0  0  0  0  0  0
   -0.4379    2.2841   -2.3173 H   0  0  0  0  0  0  0  0  0  0  0  0
   -2.5666    2.6488   -2.0177 C   0  0  0  0  0  0  0  0  0  0  0  0
   -2.5637    3.5246   -2.6844 H   0  0  0  0  0  0  0  0  0  0  0  0
   -3.7548    2.2421   -1.4224 C   0  0  0  0  0  3  0  0  0  0  0  0
   -4.6958    2.7819   -1.6031 H   0  0  0  0  0  0  0  0  0  0  0  0
   -3.7552    1.1022   -0.5702 C   0  0  0  0  0  0  0  0  0  0  0  0
   -2.5234    0.4023   -0.3336 C   0  0  0  0  0  0  0  0  0  0  0  0
   -4.9174    0.5962    0.0796 C   0  0  0  0  0  0  0  0  0  0  0  0
   -5.8822    1.1027   -0.0795 H   0  0  0  0  0  0  0  0  0  0  0  0
   -4.8292   -0.5231    0.8944 C   0  0  0  0  0  0  0  0  0  0  0  0
   -5.7150   -0.9359    1.3976 H   0  0  0  0  0  0  0  0  0  0  0  0
   -3.5681   -1.1416    1.0766 C   0  0  0  0  0  0  0  0  0  0  0  0
   -3.4534   -2.0403    1.7042 H   0  0  0  0  0  0  0  0  0  0  0  0
  1 14  1  0  0  0  0
  2 23  1  0  0  0  0
  3  7  1  0  0  0  0
  4  7  1  0  0  0  0
  4 17  1  0  0  0  0
  5 20  1  0  0  0  0
  6 45  1  0  0  0  0
  7  5  1  0  0  0  0
  8 11  1  0  0  0  0
  8  4  1  0  0  0  0
  9  8  1  0  0  0  0
 10  8  1  0  0  0  0
 11  1  1  0  0  0  0
 11 12  1  0  0  0  0
 13 11  1  0  0  0  0
 14 15  1  0  0  0  0
 14 16  1  0  0  0  0
 17 14  1  0  0  0  0
 17 18  1  0  0  0  0
 19 17  1  0  0  0  0
 20 21  1  0  0  0  0
 20 23  1  0  0  0  0
 22 20  1  0  0  0  0
 23 25  1  0  0  0  0
 23 24  1  0  0  0  0
 26 27  1  0  0  0  0
 26  2  1  0  0  0  0
 28 26  1  0  0  0  0
 29  5  1  0  0  0  0
 29 26  1  0  0  0  0
 30 29  1  0  0  0  0
 31 29  1  0  0  0  0
 32  3  1  0  0  0  0
 32 40  2  0  0  0  0
 33 32  1  0  0  0  0
 34 33  1  0  0  0  0
 35 33  2  0  0  0  0
 35 37  1  0  0  0  0
 36 35  1  0  0  0  0
 37 39  1  0  0  0  0
 38 37  1  0  0  0  0
 39 40  1  0  0  0  0
 39 41  2  0  0  0  0
 40  6  1  0  0  0  0
 41 43  1  0  0  0  0
 42 41  1  0  0  0  0
 43 45  2  0  0  0  0
 43 44  1  0  0  0  0
 45 46  1  0  0  0  0
M  END
