1,4
q = 0.0, confidence = 0.998

 45 45  0  0  1  0  0  0  0  0999 V2000
   -0.0819    0.4612   -0.3800 N   0  0  0  0  0  2  0  0  0  0  0  0
   -1.8310   -0.9024   -1.0723 N   0  0  0  0  0  0  0  0  0  0  0  0
   -2.3359    1.1732   -0.0718 N   0  0  0  0  0  0  0  0  0  0  0  0
    2.5637    0.4847   -0.0689 N   0  0  0  0  0  2  0  0  0  0  0  0
   -1.3818    0.2705   -0.4989 C   0  0  0  0  0  3  0  0  0  0  0  0
   -2.8044   -1.7092   -0.3151 C   0  0  0  0  0  0  0  0  0  0  0  0
   -3.2579   -2.4362   -1.0182 H   0  0  0  0  0  0  0  0  0  0  0  0
   -3.6313   -1.0529    0.0211 H   0  0  0  0  0  0  0  0  0  0  0  0
   -2.1735   -2.4232    0.8834 C   0  0  0  0  0  0  0  0  0  0  0  0
   -2.9290   -3.0475    1.4022 H   0  0  0  0  0  0  0  0  0  0  0  0
   -1.7599   -1.6981    1.6160 H   0  0  0  0  0  0  0  0  0  0  0  0
   -1.3338   -3.0804    0.5789 H   0  0  0  0  0  0  0  0  0  0  0  0
   -0.9548   -1.6276   -2.0061 C   0  0  0  0  0  0  0  0  0  0  0  0
   -0.3973   -2.4367   -1.4840 H   0  0  0  0  0  0  0  0  0  0  0  0
   -0.1767   -0.9086   -2.3246 H   0  0  0  0  0  0  0  0  0  0  0  0
   -1.7101   -2.1700   -3.2168 C   0  0  0  0  0  0  0  0  0  0  0  0
   -0.9964   -2.6500   -3.9158 H   0  0  0  0  0  0  0  0  0  0  0  0
   -2.2369   -1.3600   -3.7621 H   0  0  0  0  0  0  0  0  0  0  0  0
   -2.4590   -2.9406   -2.9423 H   0  0  0  0  0  0  0  0  0  0  0  0
   -3.5789    1.3745   -0.8148 C   0  0  0  0  0  0  0  0  0  0  0  0
   -4.4535    1.0029   -0.2333 H   0  0  0  0  0  0  0  0  0  0  0  0
   -3.5142    0.7429   -1.7217 H   0  0  0  0  0  0  0  0  0  0  0  0
   -3.8043    2.8369   -1.2014 C   0  0  0  0  0  0  0  0  0  0  0  0
   -4.7279    2.9333   -1.8065 H   0  0  0  0  0  0  0  0  0  0  0  0
   -2.9555    3.2239   -1.8011 H   0  0  0  0  0  0  0  0  0  0  0  0
   -3.9211    3.4900   -0.3132 H   0  0  0  0  0  0  0  0  0  0  0  0
   -2.1694    1.8386    1.2279 C   0  0  0  0  0  0  0  0  0  0  0  0
   -2.0237    2.9346    1.0941 H   0  0  0  0  0  0  0  0  0  0  0  0
   -1.2524    1.4217    1.6927 H   0  0  0  0  0  0  0  0  0  0  0  0
   -3.3298    1.5733    2.1870 C   0  0  0  0  0  0  0  0  0  0  0  0
   -3.0936    2.0151    3.1750 H   0  0  0  0  0  0  0  0  0  0  0  0
   -3.4739    0.4839    2.3350 H   0  0  0  0  0  0  0  0  0  0  0  0
   -4.2892    2.0125    1.8456 H   0  0  0  0  0  0  0  0  0  0  0  0
    0.5184    1.7709   -0.2378 C   0  0  0  0  0  0  0  0  0  0  0  0
    0.4027    2.1730    0.7990 H   0  0  0  0  0  0  0  0  0  0  0  0
    0.0703    2.5225   -0.9252 H   0  0  0  0  0  0  0  0  0  0  0  0
    2.0129    1.6486   -0.4730 C   0  0  1  0  0  3  0  0  0  0  0  0
    2.8047    2.6615   -1.0364 C   0  0  0  0  0  0  0  0  0  0  0  0
    2.3405    3.6037   -1.3638 H   0  0  0  0  0  0  0  0  0  0  0  0
    4.1819    2.4436   -1.1823 C   0  0  0  0  0  0  0  0  0  0  0  0
    4.8214    3.2218   -1.6261 H   0  0  0  0  0  0  0  0  0  0  0  0
    4.7332    1.2193   -0.7732 C   0  0  0  0  0  0  0  0  0  0  0  0
    5.8058    1.0072   -0.8860 H   0  0  0  0  0  0  0  0  0  0  0  0
    3.8784    0.2582   -0.2207 C   0  0  0  0  0  0  0  0  0  0  0  0
    4.2327   -0.7349    0.1019 H   0  0  0  0  0  0  0  0  0  0  0  0
  1 34  1  0  0  0  0
  2  5  1  0  0  0  0
  2  6  1  0  0  0  0
  3 27  1  0  0  0  0
  5  1  1  0  0  0  0
  5  3  1  0  0  0  0
  6  8  1  0  0  0  0
  6  9  1  0  0  0  0
  7  6  1  0  0  0  0
  9 10  1  0  0  0  0
  9 11  1  0  0  0  0
 12  9  1  0  0  0  0
 13 14  1  0  0  0  0
 13  2  1  0  0  0  0
 15 13  1  0  0  0  0
 16 19  1  0  0  0  0
 16 13  1  0  0  0  0
 17 16  1  0  0  0  0
 18 16  1  0  0  0  0
 20 21  1  0  0  0  0
 20  3  1  0  0  0  0
 22 20  1  0  0  0  0
 23 20  1  0  0  0  0
 23 26  1  0  0  0  0
 24 23  1  0  0  0  0
 25 23  1  0  0  0  0
 27 29  1  0  0  0  0
 27 30  1  0  0  0  0
 28 27  1  0  0  0  0
 30 32  1  0  0  0  0
 30 31  1  0  0  0  0
 33 30  1  0  0  0  0
 34 35  1  0  0  0  0
 36 34  1  0  0  0  0
 37 34  1  1  0  0  0
 37  4  1  0  0  0  0
 38 37  1  0  0  0  0
 39 38  1  0  0  0  0
 40 38  2  0  0  0  0
 40 42  1  0  0  0  0
 41 40  1  0  0  0  0
 42 44  2  0  0  0  0
 43 42  1  0  0  0  0
 44  4  1  0  0  0  0
 44 45  1  0  0  0  0
M  END
