3,6
q = 0.0, confidence = 0.998

 43 45  0  0  1  0  0  0  0  0999 V2000
   -2.0023    4.1224    0.7358 O   0  0  0  0  0  0  0  0  0  0  0  0
   -3.4956   -2.6736    0.1179 O   0  0  0  0  0  0  0  0  0  0  0  0
    0.2123   -0.0672   -1.1663 N   0  0  0  0  0  2  0  0  0  0  0  0
   -1.2067    1.7580   -0.5977 N   0  0  0  0  0  0  0  0  0  0  0  0
   -2.0591   -0.4230   -0.8615 N   0  0  0  0  0  0  0  0  0  0  0  0
    2.6356   -0.0893    0.0463 N   0  0  0  0  0  2  0  0  0  0  0  0
   -0.9899    0.4282   -0.8952 C   0  0  0  0  0  3  0  0  0  0  0  0
   -2.3416    2.5396   -1.0845 C   0  0  0  0  0  0  0  0  0  0  0  0
   -3.0822    1.8661   -1.5558 H   0  0  0  0  0  0  0  0  0  0  0  0
   -1.9801    3.2449   -1.8705 H   0  0  0  0  0  0  0  0  0  0  0  0
   -2.9735    3.3568    0.0472 C   0  0  0  0  0  0  0  0  0  0  0  0
   -3.7179    4.0673   -0.3653 H   0  0  0  0  0  0  0  0  0  0  0  0
   -3.5019    2.6743    0.7580 H   0  0  0  0  0  0  0  0  0  0  0  0
   -1.0044    3.2795    1.2972 C   0  0  0  0  0  0  0  0  0  0  0  0
   -1.4534    2.5478    2.0122 H   0  0  0  0  0  0  0  0  0  0  0  0
   -0.3070    3.9335    1.8573 H   0  0  0  0  0  0  0  0  0  0  0  0
   -0.2480    2.5047    0.2190 C   0  0  0  0  0  0  0  0  0  0  0  0
    0.3418    3.2183   -0.4030 H   0  0  0  0  0  0  0  0  0  0  0  0
    0.4294    1.7777    0.7089 H   0  0  0  0  0  0  0  0  0  0  0  0
   -3.1906   -0.2550    0.0521 C   0  0  0  0  0  0  0  0  0  0  0  0
   -4.1235   -0.0678   -0.5280 H   0  0  0  0  0  0  0  0  0  0  0  0
   -2.9918    0.6123    0.7068 H   0  0  0  0  0  0  0  0  0  0  0  0
   -3.3631   -1.5120    0.9155 C   0  0  0  0  0  0  0  0  0  0  0  0
   -2.4828   -1.5882    1.5973 H   0  0  0  0  0  0  0  0  0  0  0  0
   -4.2863   -1.4194    1.5229 H   0  0  0  0  0  0  0  0  0  0  0  0
   -2.3043   -2.8764   -0.6303 C   0  0  0  0  0  0  0  0  0  0  0  0
   -2.4355   -3.8072   -1.2167 H   0  0  0  0  0  0  0  0  0  0  0  0
   -1.4242   -3.0214    0.0395 H   0  0  0  0  0  0  0  0  0  0  0  0
   -2.0451   -1.7050   -1.5797 C   0  0  0  0  0  0  0  0  0  0  0  0
   -1.0592   -1.8214   -2.0659 H   0  0  0  0  0  0  0  0  0  0  0  0
   -2.8479   -1.6758   -2.3521 H   0  0  0  0  0  0  0  0  0  0  0  0
    1.2365    0.7507   -1.7720 C   0  0  0  0  0  0  0  0  0  0  0  0
    0.8988    1.7840   -2.0085 H   0  0  0  0  0  0  0  0  0  0  0  0
    1.5250    0.2988   -2.7532 H   0  0  0  0  0  0  0  0  0  0  0  0
    2.5083    0.8179   -0.9424 C   0  0  2  0  0  3  0  0  0  0  0  0
    3.5281    1.7506   -1.2028 C   0  0  0  0  0  0  0  0  0  0  0  0
    3.4045    2.4845   -2.0133 H   0  0  0  0  0  0  0  0  0  0  0  0
    4.6856    1.7310   -0.4164 C   0  0  0  0  0  0  0  0  0  0  0  0
    5.4929    2.4565   -0.5985 H   0  0  0  0  0  0  0  0  0  0  0  0
    4.8007    0.7805    0.6115 C   0  0  0  0  0  0  0  0  0  0  0  0
    5.6917    0.7344    1.2534 H   0  0  0  0  0  0  0  0  0  0  0  0
    3.7447   -0.1140    0.8083 C   0  0  0  0  0  0  0  0  0  0  0  0
    3.7706   -0.8795    1.6003 H   0  0  0  0  0  0  0  0  0  0  0  0
  1 14  1  0  0  0  0
  2 23  1  0  0  0  0
  3  7  1  0  0  0  0
  4 17  1  0  0  0  0
  5 20  1  0  0  0  0
  6 42  1  0  0  0  0
  7  5  1  0  0  0  0
  7  4  1  0  0  0  0
  8  4  1  0  0  0  0
  8 11  1  0  0  0  0
  9  8  1  0  0  0  0
 10  8  1  0  0  0  0
 11  1  1  0  0  0  0
 11 13  1  0  0  0  0
 12 11  1  0  0  0  0
 14 16  1  0  0  0  0
 14 15  1  0  0  0  0
 17 19  1  0  0  0  0
 17 14  1  0  0  0  0
 18 17  1  0  0  0  0
 20 22  1  0  0  0  0
 20 23  1  0  0  0  0
 21 20  1  0  0  0  0
 23 25  1  0  0  0  0
 23 24  1  0  0  0  0
 26 28  1  0  0  0  0
 26  2  1  0  0  0  0
 27 26  1  0  0  0  0
 29  5  1  0  0  0  0
 29 26  1  0  0  0  0
 30 29  1  0  0  0  0
 31 29  1  0  0  0  0
 32  3  1  0  0  0  0
 33 32  1  0  0  0  0
 34 32  1  0  0  0  0
 35 32  1  6  0  0  0
 35  6  1  0  0  0  0
 36 35  1  0  0  0  0
 36 38  2  0  0  0  0
 37 36  1  0  0  0  0
 38 40  1  0  0  0  0
 39 38  1  0  0  0  0
 40 42  2  0  0  0  0
 40 41  1  0  0  0  0
 42 43  1  0  0  0  0
M  END
