2,19
q = 0.0, confidence = 0.984

 53 54  0  0  1  0  0  0  0  0999 V2000
    2.3482    0.0306    1.3019 Si  0  0  0  0  0  0  0  0  0  0  0  0
   -2.7845    0.0955   -0.9387 N   0  0  0  0  0  0  0  0  0  0  0  0
   -1.3015    1.8876    0.0220 C   0  0  1  0  0  0  0  0  0  0  0  0
   -0.8393    2.0136   -0.9812 H   0  0  0  0  0  0  0  0  0  0  0  0
   -2.7524    1.3942   -0.1930 C   0  0  1  0  0  0  0  0  0  0  0  0
   -3.1767    1.1650    0.8087 H   0  0  0  0  0  0  0  0  0  0  0  0
   -1.2807    3.2521    0.7360 C   0  0  0  0  0  0  0  0  0  0  0  0
   -1.6671    3.1258    1.7694 H   0  0  0  0  0  0  0  0  0  0  0  0
   -0.2321    3.6010    0.8307 H   0  0  0  0  0  0  0  0  0  0  0  0
   -3.5844    3.8112   -0.0768 C   0  0  0  0  0  0  0  0  0  0  0  0
   -4.2239    4.5601   -0.5875 H   0  0  0  0  0  0  0  0  0  0  0  0
   -4.0097    3.6765    0.9427 H   0  0  0  0  0  0  0  0  0  0  0  0
   -3.6255    2.4862   -0.8406 C   0  0  0  0  0  0  0  0  0  0  0  0
   -3.2634    2.6734   -1.8734 H   0  0  0  0  0  0  0  0  0  0  0  0
   -4.6678    2.1174   -0.9329 H   0  0  0  0  0  0  0  0  0  0  0  0
   -2.1408    4.3049    0.0339 C   0  0  0  0  0  0  0  0  0  0  0  0
   -2.0897    5.2639    0.5890 H   0  0  0  0  0  0  0  0  0  0  0  0
   -1.7387    4.5080   -0.9836 H   0  0  0  0  0  0  0  0  0  0  0  0
   -0.4545    0.8528    0.7107 N   0  0  0  0  0  0  0  0  0  0  0  0
    3.8691    0.3910    0.2307 C   0  0  0  0  0  0  0  0  0  0  0  0
    0.9855    1.0674    0.4102 C   0  0  0  0  0  0  0  0  0  0  0  0
    1.2683    2.1302    0.6061 H   0  0  0  0  0  0  0  0  0  0  0  0
    1.1309    0.8894   -0.6757 H   0  0  0  0  0  0  0  0  0  0  0  0
   -0.7040    0.7718    2.1632 C   0  0  0  0  0  0  0  0  0  0  0  0
   -0.2599   -0.1614    2.5548 H   0  0  0  0  0  0  0  0  0  0  0  0
   -1.7893    0.7009    2.3642 H   0  0  0  0  0  0  0  0  0  0  0  0
   -0.2793    1.6397    2.7112 H   0  0  0  0  0  0  0  0  0  0  0  0
    4.9823    1.1131    0.7155 C   0  0  0  0  0  0  0  0  0  0  0  0
    4.9878    1.4848    1.7527 H   0  0  0  0  0  0  0  0  0  0  0  0
   -2.6231    0.2353   -2.3992 C   0  0  0  0  0  0  0  0  0  0  0  0
   -2.4448   -0.7651   -2.8351 H   0  0  0  0  0  0  0  0  0  0  0  0
   -1.7293    0.8422   -2.6341 H   0  0  0  0  0  0  0  0  0  0  0  0
   -3.5198    0.6875   -2.8764 H   0  0  0  0  0  0  0  0  0  0  0  0
   -4.0079   -0.6715   -0.6376 C   0  0  0  0  0  0  0  0  0  0  0  0
   -4.9255   -0.1325   -0.9656 H   0  0  0  0  0  0  0  0  0  0  0  0
   -4.0551   -0.8870    0.4464 H   0  0  0  0  0  0  0  0  0  0  0  0
   -3.9640   -1.6433   -1.1646 H   0  0  0  0  0  0  0  0  0  0  0  0
    2.6503    0.6961    3.0507 C   0  0  0  0  0  0  0  0  0  0  0  0
    1.8233    0.4318    3.7388 H   0  0  0  0  0  0  0  0  0  0  0  0
    2.7668    1.7992    3.0618 H   0  0  0  0  0  0  0  0  0  0  0  0
    3.5787    0.2530    3.4670 H   0  0  0  0  0  0  0  0  0  0  0  0
    3.9058   -0.0689   -1.1077 C   0  0  0  0  0  0  0  0  0  0  0  0
    3.0505   -0.6330   -1.5182 H   0  0  0  0  0  0  0  0  0  0  0  0
    2.0016   -1.8183    1.3514 C   0  0  0  0  0  0  0  0  0  0  0  0
    2.8427   -2.3254    1.8683 H   0  0  0  0  0  0  0  0  0  0  0  0
    1.9202   -2.2302    0.3258 H   0  0  0  0  0  0  0  0  0  0  0  0
    1.0622   -2.0738    1.8835 H   0  0  0  0  0  0  0  0  0  0  0  0
    5.0155    0.1847   -1.9279 C   0  0  0  0  0  0  0  0  0  0  0  0
    5.0241   -0.1835   -2.9656 H   0  0  0  0  0  0  0  0  0  0  0  0
    6.1131    0.9039   -1.4269 C   0  0  0  0  0  0  0  0  0  0  0  0
    6.9848    1.1017   -2.0698 H   0  0  0  0  0  0  0  0  0  0  0  0
    6.0950    1.3685   -0.1027 C   0  0  0  0  0  0  0  0  0  0  0  0
    6.9528    1.9321    0.2961 H   0  0  0  0  0  0  0  0  0  0  0  0
  1 44  1  0  0  0  0
  1 38  1  0  0  0  0
  2 34  1  0  0  0  0
  2  5  1  0  0  0  0
  3  4  1  6  0  0  0
  3 19  1  0  0  0  0
  3  7  1  0  0  0  0
  5  3  1  0  0  0  0
  5  6  1  1  0  0  0
  7  9  1  0  0  0  0
  7  8  1  0  0  0  0
 10 16  1  0  0  0  0
 10 12  1  0  0  0  0
 11 10  1  0  0  0  0
 13  5  1  0  0  0  0
 13 10  1  0  0  0  0
 14 13  1  0  0  0  0
 15 13  1  0  0  0  0
 16 17  1  0  0  0  0
 16  7  1  0  0  0  0
 18 16  1  0  0  0  0
 19 24  1  0  0  0  0
 20 28  1  0  0  0  0
 20  1  1  0  0  0  0
 21 22  1  0  0  0  0
 21 19  1  0  0  0  0
 21  1  1  0  0  0  0
 23 21  1  0  0  0  0
 24 26  1  0  0  0  0
 24 25  1  0  0  0  0
 24 27  1  0  0  0  0
 28 29  1  0  0  0  0
 30  2  1  0  0  0  0
 31 30  1  0  0  0  0
 32 30  1  0  0  0  0
 33 30  1  0  0  0  0
 34 36  1  0  0  0  0
 35 34  1  0  0  0  0
 37 34  1  0  0  0  0
 38 40  1  0  0  0  0
 38 41  1  0  0  0  0
 38 39  1  0  0  0  0
 42 20  2  0  0  0  0
 43 42  1  0  0  0  0
 44 45  1  0  0  0  0
 44 47  1  0  0  0  0
 46 44  1  0  0  0  0
 48 50  2  0  0  0  0
 48 42  1  0  0  0  0
 49 48  1  0  0  0  0
 50 52  1  0  0  0  0
 51 50  1  0  0  0  0
 52 53  1  0  0  0  0
 52 28  2  0  0  0  0
M  END
