1,3
q = 0.0, confidence = 0.994

 22 21  0  0  1  0  0  0  0  0999 V2000
    1.0851   -1.4712    0.4223 N   0  0  0  0  0  2  0  0  0  0  0  0
    0.7001   -2.3151    0.8695 H   0  0  0  0  0  0  0  0  0  0  0  0
    1.2781    1.2852   -0.5709 N   0  0  0  0  0  0  0  0  0  0  0  0
    1.2706    1.2128   -1.6068 H   0  0  0  0  0  0  0  0  0  0  0  0
    0.9917    2.2448   -0.3272 H   0  0  0  0  0  0  0  0  0  0  0  0
    3.1716   -2.7274    0.6120 C   0  0  0  0  0  0  0  0  0  0  0  0
    2.5511   -3.5394    1.0365 H   0  0  0  0  0  0  0  0  0  0  0  0
    3.9462   -2.4375    1.3531 H   0  0  0  0  0  0  0  0  0  0  0  0
    3.7163   -3.1205   -0.2722 H   0  0  0  0  0  0  0  0  0  0  0  0
    2.3616   -1.5311    0.2171 C   0  0  1  0  0  3  0  0  0  0  0  0
    3.0763   -0.3963   -0.4654 C   0  0  0  0  0  0  0  0  0  0  0  0
    2.9018   -0.5266   -1.5582 H   0  0  0  0  0  0  0  0  0  0  0  0
    4.1660   -0.5049   -0.3044 H   0  0  0  0  0  0  0  0  0  0  0  0
    2.6603    1.0388   -0.0625 C   0  0  0  0  0  0  0  0  0  0  0  0
    3.6167    2.0335   -0.7435 C   0  0  0  0  0  0  0  0  0  0  0  0
    3.6279    1.8927   -1.8433 H   0  0  0  0  0  0  0  0  0  0  0  0
    4.6517    1.9014   -0.3724 H   0  0  0  0  0  0  0  0  0  0  0  0
    3.3159    3.0790   -0.5285 H   0  0  0  0  0  0  0  0  0  0  0  0
    2.6702    1.2359    1.4575 C   0  0  0  0  0  0  0  0  0  0  0  0
    2.4064    2.2818    1.7174 H   0  0  0  0  0  0  0  0  0  0  0  0
    3.6807    1.0414    1.8660 H   0  0  0  0  0  0  0  0  0  0  0  0
    1.9486    0.5625    1.9581 H   0  0  0  0  0  0  0  0  0  0  0  0
  1  2  1  0  0  0  0
  3  5  1  0  0  0  0
  3 14  1  0  0  0  0
  4  3  1  0  0  0  0
  6  7  1  0  0  0  0
  6  8  1  0  0  0  0
  9  6  1  0  0  0  0
 10  1  1  6  0  0  0
 10  6  1  0  0  0  0
 11 13  1  0  0  0  0
 11 14  1  0  0  0  0
 11 10  1  0  0  0  0
 12 11  1  0  0  0  0
 14 19  1  0  0  0  0
 15 18  1  0  0  0  0
 15 17  1  0  0  0  0
 15 14  1  0  0  0  0
 16 15  1  0  0  0  0
 19 20  1  0  0  0  0
 19 21  1  0  0  0  0
 19 22  1  0  0  0  0
M  END
