1,4
q = 0.0, confidence = 1.0

 28 29  0  0  1  0  0  0  0  0999 V2000
    0.5911    1.2990    0.1870 N   0  0  0  0  0  2  0  0  0  0  0  0
   -0.7784    1.1658    0.1620 N   0  0  0  0  0  0  0  0  0  0  0  0
   -1.2562   -0.0982    0.4994 C   0  0  2  0  0  3  0  0  0  0  0  0
   -0.3341   -0.9538    0.8127 N   0  0  0  0  0  2  0  0  0  0  0  0
   -0.6946   -1.8914    1.0202 H   0  0  0  0  0  0  0  0  0  0  0  0
    0.8605    2.5545   -0.1900 C   0  0  2  0  0  3  0  0  0  0  0  0
   -0.3595    3.2367   -0.4690 C   0  0  0  0  0  0  0  0  0  0  0  0
   -0.4661    4.2744   -0.8016 H   0  0  0  0  0  0  0  0  0  0  0  0
   -1.3949    2.3404   -0.2504 C   0  0  0  0  0  0  0  0  0  0  0  0
    2.2521    3.0765   -0.3064 C   0  0  0  0  0  0  0  0  0  0  0  0
    2.8507    2.8314    0.5920 H   0  0  0  0  0  0  0  0  0  0  0  0
    2.2421    4.1739   -0.4392 H   0  0  0  0  0  0  0  0  0  0  0  0
    2.7683    2.6239   -1.1773 H   0  0  0  0  0  0  0  0  0  0  0  0
   -2.8642    2.5367   -0.4138 C   0  0  0  0  0  0  0  0  0  0  0  0
   -3.3041    1.8151   -1.1304 H   0  0  0  0  0  0  0  0  0  0  0  0
   -3.0438    3.5587   -0.7950 H   0  0  0  0  0  0  0  0  0  0  0  0
   -3.4168    2.4206    0.5396 H   0  0  0  0  0  0  0  0  0  0  0  0
   -2.6985   -0.4301    0.3802 C   0  0  0  0  0  0  0  0  0  0  0  0
   -3.6088   -0.1801    1.4251 C   0  0  0  0  0  0  0  0  0  0  0  0
   -3.2584    0.2921    2.3555 H   0  0  0  0  0  0  0  0  0  0  0  0
   -4.9562   -0.5379    1.2717 C   0  0  0  0  0  0  0  0  0  0  0  0
   -5.6687   -0.3465    2.0879 H   0  0  0  0  0  0  0  0  0  0  0  0
   -5.3935   -1.1422    0.0816 C   0  0  0  0  0  0  0  0  0  0  0  0
   -6.4519   -1.4198   -0.0353 H   0  0  0  0  0  0  0  0  0  0  0  0
   -4.4819   -1.4024   -0.9549 C   0  0  0  0  0  0  0  0  0  0  0  0
   -4.8229   -1.8854   -1.8828 H   0  0  0  0  0  0  0  0  0  0  0  0
   -3.1317   -1.0528   -0.8092 C   0  0  0  0  0  0  0  0  0  0  0  0
   -2.3955   -1.2508   -1.6048 H   0  0  0  0  0  0  0  0  0  0  0  0
  2  1  1  0  0  0  0
  2  3  1  0  0  0  0
  3  4  1  6  0  0  0
  4  5  1  0  0  0  0
  6 10  1  6  0  0  0
  6  1  1  0  0  0  0
  7  9  2  0  0  0  0
  7  6  1  0  0  0  0
  8  7  1  0  0  0  0
  9  2  1  0  0  0  0
 10 11  1  0  0  0  0
 12 10  1  0  0  0  0
 13 10  1  0  0  0  0
 14  9  1  0  0  0  0
 14 17  1  0  0  0  0
 15 14  1  0  0  0  0
 16 14  1  0  0  0  0
 18  3  1  0  0  0  0
 18 19  1  0  0  0  0
 19 20  1  0  0  0  0
 21 19  2  0  0  0  0
 21 22  1  0  0  0  0
 23 21  1  0  0  0  0
 24 23  1  0  0  0  0
 25 27  1  0  0  0  0
 25 23  2  0  0  0  0
 26 25  1  0  0  0  0
 27 18  2  0  0  0  0
 28 27  1  0  0  0  0
M  END
