2,3
q = 0.0, confidence = 0.998

 34 36  0  0  1  0  0  0  0  0999 V2000
   -2.1789    0.8817    2.0217 O   0  0  0  0  0  0  0  0  0  0  0  0
    0.0038    1.3115   -0.1122 N   0  0  0  0  0  2  0  0  0  0  0  0
    2.3213    0.0765    0.4137 N   0  0  0  0  0  2  0  0  0  0  0  0
    3.4280   -0.6043    0.7852 C   0  0  0  0  0  3  0  0  0  0  0  0
    3.3115   -1.6925    0.8864 H   0  0  0  0  0  0  0  0  0  0  0  0
    4.6548    0.0209    1.0125 C   0  0  0  0  0  0  0  0  0  0  0  0
    5.5254   -0.5810    1.3075 H   0  0  0  0  0  0  0  0  0  0  0  0
    4.7419    1.4125    0.8490 C   0  0  0  0  0  0  0  0  0  0  0  0
    5.6912    1.9420    1.0158 H   0  0  0  0  0  0  0  0  0  0  0  0
    3.5972    2.1189    0.4739 C   0  0  0  0  0  0  0  0  0  0  0  0
    3.6401    3.2087    0.3539 H   0  0  0  0  0  0  0  0  0  0  0  0
    2.3879    1.4289    0.2579 C   0  0  0  0  0  0  0  0  0  0  0  0
    1.1208    2.0999   -0.0921 C   0  0  2  0  0  3  0  0  0  0  0  0
    1.0572    3.4780   -0.3627 C   0  0  0  0  0  0  0  0  0  0  0  0
    1.9703    4.0858   -0.3543 H   0  0  0  0  0  0  0  0  0  0  0  0
   -0.1732    4.0611   -0.6696 C   0  0  0  0  0  0  0  0  0  0  0  0
   -0.2414    5.1332   -0.9052 H   0  0  0  0  0  0  0  0  0  0  0  0
   -1.3155    3.2558   -0.6555 C   0  0  0  0  0  0  0  0  0  0  0  0
   -2.3124    3.6684   -0.8608 H   0  0  0  0  0  0  0  0  0  0  0  0
   -1.2045    1.8849   -0.3552 C   0  0  0  0  0  0  0  0  0  0  0  0
   -2.4414    1.0651   -0.3130 C   0  0  0  0  0  0  0  0  0  0  0  0
   -3.2004    0.8642   -1.4781 C   0  0  0  0  0  0  0  0  0  0  0  0
   -2.8162    1.2585   -2.4309 H   0  0  0  0  0  0  0  0  0  0  0  0
   -4.3950    0.1312   -1.4415 C   0  0  0  0  0  0  0  0  0  0  0  0
   -4.9628   -0.0457   -2.3658 H   0  0  0  0  0  0  0  0  0  0  0  0
   -4.8398   -0.3921   -0.2204 C   0  0  0  0  0  0  0  0  0  0  0  0
   -5.7680   -0.9819   -0.1788 H   0  0  0  0  0  0  0  0  0  0  0  0
   -4.1163   -0.1763    0.9630 C   0  0  0  0  0  0  0  0  0  0  0  0
   -4.4890   -0.5860    1.9107 H   0  0  0  0  0  0  0  0  0  0  0  0
   -2.9207    0.5664    0.9292 C   0  0  0  0  0  0  0  0  0  0  0  0
   -2.6312    0.4536    3.2967 C   0  0  0  0  0  0  0  0  0  0  0  0
   -3.6330    0.8757    3.5336 H   0  0  0  0  0  0  0  0  0  0  0  0
   -1.8919    0.8291    4.0269 H   0  0  0  0  0  0  0  0  0  0  0  0
   -2.6634   -0.6537    3.3672 H   0  0  0  0  0  0  0  0  0  0  0  0
  1 31  1  0  0  0  0
  2 13  1  0  0  0  0
  3  4  1  0  0  0  0
  4  5  1  0  0  0  0
  4  6  1  0  0  0  0
  6  7  1  0  0  0  0
  8  6  2  0  0  0  0
  8  9  1  0  0  0  0
 10  8  1  0  0  0  0
 11 10  1  0  0  0  0
 12  3  1  0  0  0  0
 12 10  2  0  0  0  0
 13 12  1  1  0  0  0
 14 15  1  0  0  0  0
 14 13  1  0  0  0  0
 16 18  1  0  0  0  0
 16 14  2  0  0  0  0
 17 16  1  0  0  0  0
 18 20  2  0  0  0  0
 19 18  1  0  0  0  0
 20 21  1  0  0  0  0
 20  2  1  0  0  0  0
 21 30  1  0  0  0  0
 22 24  1  0  0  0  0
 22 21  2  0  0  0  0
 23 22  1  0  0  0  0
 24 26  2  0  0  0  0
 25 24  1  0  0  0  0
 26 27  1  0  0  0  0
 26 28  1  0  0  0  0
 28 29  1  0  0  0  0
 30 28  2  0  0  0  0
 30  1  1  0  0  0  0
 31 34  1  0  0  0  0
 31 32  1  0  0  0  0
 31 33  1  0  0  0  0
M  END
