1,4
q = 0.0, confidence = 0.97

 52 53  0  0  1  0  0  0  0  0999 V2000
   -2.1688    0.3522    0.0449 N   0  0  0  0  0  0  0  0  0  0  0  0
    0.8703    1.6266    0.3793 N   0  0  0  0  0  0  0  0  0  0  0  0
    2.9393    0.5849    0.6816 N   0  0  0  0  0  0  0  0  0  0  0  0
    0.9114   -0.6750    0.7238 N   0  0  0  0  0  2  0  0  0  0  0  0
   -3.2702    0.2074   -0.9516 C   0  0  0  0  0  0  0  0  0  0  0  0
   -3.3563   -0.8788   -1.1610 H   0  0  0  0  0  0  0  0  0  0  0  0
   -2.9901    0.7138   -1.8939 H   0  0  0  0  0  0  0  0  0  0  0  0
   -4.5408    0.7326   -0.2526 C   0  0  0  0  0  0  0  0  0  0  0  0
   -4.7083    1.8068   -0.4701 H   0  0  0  0  0  0  0  0  0  0  0  0
   -5.4393    0.1910   -0.6059 H   0  0  0  0  0  0  0  0  0  0  0  0
   -4.2615    0.5058    1.2589 C   0  0  0  0  0  0  0  0  0  0  0  0
   -4.3210    1.4579    1.8238 H   0  0  0  0  0  0  0  0  0  0  0  0
   -4.9873   -0.1873    1.7266 H   0  0  0  0  0  0  0  0  0  0  0  0
   -2.8348   -0.0898    1.2986 C   0  0  0  0  0  0  0  0  0  0  0  0
   -2.2410    0.1996    2.1862 H   0  0  0  0  0  0  0  0  0  0  0  0
   -2.8622   -1.1978    1.2548 H   0  0  0  0  0  0  0  0  0  0  0  0
   -1.6628    1.7360    0.0929 C   0  0  0  0  0  0  0  0  0  0  0  0
   -2.4622    2.4337    0.4336 H   0  0  0  0  0  0  0  0  0  0  0  0
   -1.3933    2.0016   -0.9488 H   0  0  0  0  0  0  0  0  0  0  0  0
   -0.4281    1.9490    0.9954 C   0  0  2  0  0  0  0  0  0  0  0  0
   -0.5283    1.3478    1.9213 H   0  0  0  0  0  0  0  0  0  0  0  0
   -0.2331    3.4527    1.2790 C   0  0  0  0  0  0  0  0  0  0  0  0
   -1.1800    3.9825    1.4999 H   0  0  0  0  0  0  0  0  0  0  0  0
    0.4377    3.5736    2.1542 H   0  0  0  0  0  0  0  0  0  0  0  0
    0.4580    3.9436   -0.0043 C   0  0  0  0  0  0  0  0  0  0  0  0
    1.0266    4.8819    0.1426 H   0  0  0  0  0  0  0  0  0  0  0  0
   -0.2925    4.1404   -0.7954 H   0  0  0  0  0  0  0  0  0  0  0  0
    1.3695    2.7645   -0.4099 C   0  0  0  0  0  0  0  0  0  0  0  0
    1.3056    2.5195   -1.4922 H   0  0  0  0  0  0  0  0  0  0  0  0
    2.4323    2.9855   -0.1761 H   0  0  0  0  0  0  0  0  0  0  0  0
    1.5688    0.4620    0.5869 C   0  0  1  0  0  3  0  0  0  0  0  0
    3.8958   -0.2430   -0.0798 C   0  0  0  0  0  0  0  0  0  0  0  0
    3.6787   -1.3018    0.1578 H   0  0  0  0  0  0  0  0  0  0  0  0
    3.7379   -0.0409   -1.5913 C   0  0  0  0  0  0  0  0  0  0  0  0
    2.6928   -0.2267   -1.9171 H   0  0  0  0  0  0  0  0  0  0  0  0
    4.4069   -0.7267   -2.1496 H   0  0  0  0  0  0  0  0  0  0  0  0
    4.0031    0.9991   -1.8782 H   0  0  0  0  0  0  0  0  0  0  0  0
    5.3046    0.0733    0.4193 C   0  0  0  0  0  0  0  0  0  0  0  0
    5.3978   -0.1115    1.5079 H   0  0  0  0  0  0  0  0  0  0  0  0
    5.5651    1.1362    0.2228 H   0  0  0  0  0  0  0  0  0  0  0  0
    6.0523   -0.5505   -0.1075 H   0  0  0  0  0  0  0  0  0  0  0  0
    1.4914   -1.8271    1.4314 C   0  0  0  0  0  0  0  0  0  0  0  0
    2.4461   -1.5064    1.9069 H   0  0  0  0  0  0  0  0  0  0  0  0
    0.5152   -2.2480    2.5389 C   0  0  0  0  0  0  0  0  0  0  0  0
    0.3273   -1.4112    3.2417 H   0  0  0  0  0  0  0  0  0  0  0  0
    0.9194   -3.1044    3.1158 H   0  0  0  0  0  0  0  0  0  0  0  0
   -0.4475   -2.5583    2.0830 H   0  0  0  0  0  0  0  0  0  0  0  0
    1.7614   -3.0022    0.4789 C   0  0  0  0  0  0  0  0  0  0  0  0
    2.3968   -2.7063   -0.3792 H   0  0  0  0  0  0  0  0  0  0  0  0
    0.8047   -3.3878    0.0713 H   0  0  0  0  0  0  0  0  0  0  0  0
    2.2684   -3.8277    1.0180 H   0  0  0  0  0  0  0  0  0  0  0  0
    3.2554    1.5514    0.7884 H   0  0  0  0  0  0  0  0  0  0  0  0
  1 17  1  0  0  0  0
  1 14  1  0  0  0  0
  2 31  1  0  0  0  0
  2 20  1  0  0  0  0
  3 52  1  0  0  0  0
  4 42  1  0  0  0  0
  5  8  1  0  0  0  0
  5  1  1  0  0  0  0
  6  5  1  0  0  0  0
  7  5  1  0  0  0  0
  8 11  1  0  0  0  0
  9  8  1  0  0  0  0
 10  8  1  0  0  0  0
 11 14  1  0  0  0  0
 11 13  1  0  0  0  0
 11 12  1  0  0  0  0
 14 15  1  0  0  0  0
 16 14  1  0  0  0  0
 17 18  1  0  0  0  0
 17 20  1  0  0  0  0
 19 17  1  0  0  0  0
 20 22  1  0  0  0  0
 20 21  1  1  0  0  0
 22 23  1  0  0  0  0
 22 24  1  0  0  0  0
 25 26  1  0  0  0  0
 25 22  1  0  0  0  0
 27 25  1  0  0  0  0
 28 30  1  0  0  0  0
 28 25  1  0  0  0  0
 28  2  1  0  0  0  0
 29 28  1  0  0  0  0
 31  3  1  0  0  0  0
 31  4  1  1  0  0  0
 32 33  1  0  0  0  0
 32 38  1  0  0  0  0
 32  3  1  0  0  0  0
 34 32  1  0  0  0  0
 35 34  1  0  0  0  0
 36 34  1  0  0  0  0
 37 34  1  0  0  0  0
 38 39  1  0  0  0  0
 40 38  1  0  0  0  0
 41 38  1  0  0  0  0
 42 43  1  0  0  0  0
 42 44  1  0  0  0  0
 44 46  1  0  0  0  0
 44 45  1  0  0  0  0
 47 44  1  0  0  0  0
 48 51  1  0  0  0  0
 48 42  1  0  0  0  0
 49 48  1  0  0  0  0
 50 48  1  0  0  0  0
M  END
