1,3
q = -1.0

 31 31  0  0  0  0  0  0  0  0999 V2000
    0.7331    1.1667    0.0170 N   0  0  0  0  0  0  0  0  0  0  0  0
    0.4136    2.4807   -0.2645 C   0  0  0  0  0  0  0  0  0  0  0  0
   -1.8823    1.7067   -0.4211 N   0  0  0  0  0  0  0  0  0  0  0  0
    3.3045   -0.8398   -0.2731 N   0  0  0  0  0  0  0  0  0  0  0  0
    2.0273    1.1596    0.5105 C   0  0  0  0  0  3  0  0  0  0  0  0
    2.7305   -0.1130    0.8714 C   0  0  0  0  0  0  0  0  0  0  0  0
    3.5266    0.1174    1.6315 H   0  0  0  0  0  0  0  0  0  0  0  0
    2.0067   -0.8038    1.3514 H   0  0  0  0  0  0  0  0  0  0  0  0
   -2.3461    2.1328    0.9141 C   0  0  0  0  0  0  0  0  0  0  0  0
   -2.9470    3.0686    0.8416 H   0  0  0  0  0  0  0  0  0  0  0  0
   -1.4685    2.3293    1.5576 H   0  0  0  0  0  0  0  0  0  0  0  0
   -2.9701    1.3431    1.3717 H   0  0  0  0  0  0  0  0  0  0  0  0
   -3.0233    1.5797   -1.3420 C   0  0  0  0  0  0  0  0  0  0  0  0
   -3.4792    2.5769   -1.5452 H   0  0  0  0  0  0  0  0  0  0  0  0
   -3.7883    0.9153   -0.9049 H   0  0  0  0  0  0  0  0  0  0  0  0
   -2.6857    1.1421   -2.3014 H   0  0  0  0  0  0  0  0  0  0  0  0
   -0.8920    2.6927   -0.9480 C   0  0  0  0  0  0  0  0  0  0  0  0
   -0.8160    2.5012   -2.0438 H   0  0  0  0  0  0  0  0  0  0  0  0
   -1.2758    3.7330   -0.8327 H   0  0  0  0  0  0  0  0  0  0  0  0
    2.5089    2.4754    0.5585 C   0  0  0  0  0  0  0  0  0  0  0  0
    3.5011    2.7809    0.9152 H   0  0  0  0  0  0  0  0  0  0  0  0
    4.3337   -0.0813   -0.9586 C   0  0  0  0  0  0  0  0  0  0  0  0
    4.6691   -0.6277   -1.8642 H   0  0  0  0  0  0  0  0  0  0  0  0
    5.2400    0.1081   -0.3186 H   0  0  0  0  0  0  0  0  0  0  0  0
    3.9314    0.9030   -1.2687 H   0  0  0  0  0  0  0  0  0  0  0  0
    3.7810   -2.1473    0.1285 C   0  0  0  0  0  0  0  0  0  0  0  0
    4.1369   -2.7156   -0.7559 H   0  0  0  0  0  0  0  0  0  0  0  0
    2.9589   -2.7244    0.6004 H   0  0  0  0  0  0  0  0  0  0  0  0
    4.6303   -2.1055    0.8663 H   0  0  0  0  0  0  0  0  0  0  0  0
    1.4744    3.3272    0.0627 C   0  0  0  0  0  0  0  0  0  0  0  0
    1.5087    4.4171   -0.0581 H   0  0  0  0  0  0  0  0  0  0  0  0
  1  5  1  0  0  0  0
  2  1  2  0  0  0  0
  2 30  1  0  0  0  0
  3  9  1  0  0  0  0
  4 26  1  0  0  0  0
  4  6  1  0  0  0  0
  5 20  1  0  0  0  0
  5  6  1  0  0  0  0
  6  8  1  0  0  0  0
  6  7  1  0  0  0  0
  9 12  1  0  0  0  0
  9 11  1  0  0  0  0
 10  9  1  0  0  0  0
 13 15  1  0  0  0  0
 13  3  1  0  0  0  0
 14 13  1  0  0  0  0
 16 13  1  0  0  0  0
 17 19  1  0  0  0  0
 17  3  1  0  0  0  0
 17  2  1  0  0  0  0
 18 17  1  0  0  0  0
 20 21  1  0  0  0  0
 22 24  1  0  0  0  0
 22  4  1  0  0  0  0
 23 22  1  0  0  0  0
 25 22  1  0  0  0  0
 26 28  1  0  0  0  0
 26 29  1  0  0  0  0
 27 26  1  0  0  0  0
 30 20  2  0  0  0  0
 31 30  1  0  0  0  0
M  END
