1,3
q = 0.0, confidence = 0.986

 31 32  0  0  1  0  0  0  0  0999 V2000
   -0.2609    0.4701    1.1750 N   0  0  0  0  0  2  0  0  0  0  0  0
   -0.4177    0.2917    2.1801 H   0  0  0  0  0  0  0  0  0  0  0  0
    1.1492    1.4084   -1.1681 N   0  0  0  0  0  2  0  0  0  0  0  0
   -2.9158    2.5752    1.2155 F   0  0  0  0  0  0  0  0  0  0  0  0
   -2.3789    1.0157    2.6876 F   0  0  0  0  0  0  0  0  0  0  0  0
   -2.5915    1.2449    1.3465 C   0  0  0  0  0  0  0  0  0  0  0  0
   -1.2738    1.0066    0.6007 C   0  0  2  0  0  3  0  0  0  0  0  0
   -1.2730    1.3015   -0.8765 C   0  0  0  0  0  0  0  0  0  0  0  0
   -1.3495    0.2875   -1.3629 H   0  0  0  0  0  0  0  0  0  0  0  0
   -2.1624    1.8928   -1.1569 H   0  0  0  0  0  0  0  0  0  0  0  0
   -0.0103    1.9293   -1.3923 C   0  0  1  0  0  3  0  0  0  0  0  0
    0.0400    3.2172   -2.1774 C   0  0  0  0  0  0  0  0  0  0  0  0
   -0.2101    4.0572   -1.4896 H   0  0  0  0  0  0  0  0  0  0  0  0
   -0.7173    3.2445   -2.9875 H   0  0  0  0  0  0  0  0  0  0  0  0
    1.5037    3.2440   -2.6681 C   0  0  0  0  0  0  0  0  0  0  0  0
    1.9554    4.2527   -2.6294 H   0  0  0  0  0  0  0  0  0  0  0  0
    1.5544    2.8977   -3.7195 H   0  0  0  0  0  0  0  0  0  0  0  0
    2.2191    2.2323   -1.7422 C   0  0  0  0  0  0  0  0  0  0  0  0
    2.9493    1.5794   -2.2604 H   0  0  0  0  0  0  0  0  0  0  0  0
    2.7708    2.7037   -0.8999 H   0  0  0  0  0  0  0  0  0  0  0  0
   -3.6988    0.3557    0.8244 C   0  0  0  0  0  0  0  0  0  0  0  0
   -3.4339   -1.0093    0.5959 C   0  0  0  0  0  0  0  0  0  0  0  0
   -2.4244   -1.4225    0.7510 H   0  0  0  0  0  0  0  0  0  0  0  0
   -4.4577   -1.8463    0.1316 C   0  0  0  0  0  0  0  0  0  0  0  0
   -4.2432   -2.9085   -0.0576 H   0  0  0  0  0  0  0  0  0  0  0  0
   -5.7411   -1.3269   -0.1013 C   0  0  0  0  0  0  0  0  0  0  0  0
   -6.5427   -1.9861   -0.4673 H   0  0  0  0  0  0  0  0  0  0  0  0
   -6.0009    0.0349    0.1233 C   0  0  0  0  0  0  0  0  0  0  0  0
   -7.0056    0.4434   -0.0623 H   0  0  0  0  0  0  0  0  0  0  0  0
   -4.9809    0.8807    0.5817 C   0  0  0  0  0  0  0  0  0  0  0  0
   -5.1721    1.9491    0.7543 H   0  0  0  0  0  0  0  0  0  0  0  0
  1  2  1  0  0  0  0
  4  6  1  0  0  0  0
  6  5  1  0  0  0  0
  7  1  1  6  0  0  0
  7  6  1  0  0  0  0
  8  7  1  0  0  0  0
  9  8  1  0  0  0  0
 10  8  1  0  0  0  0
 11  3  1  0  0  0  0
 11  8  1  1  0  0  0
 12 13  1  0  0  0  0
 12 11  1  0  0  0  0
 14 12  1  0  0  0  0
 15 16  1  0  0  0  0
 15 12  1  0  0  0  0
 15 18  1  0  0  0  0
 17 15  1  0  0  0  0
 18  3  1  0  0  0  0
 18 20  1  0  0  0  0
 19 18  1  0  0  0  0
 21  6  1  0  0  0  0
 22 23  1  0  0  0  0
 22 21  1  0  0  0  0
 24 22  2  0  0  0  0
 25 24  1  0  0  0  0
 26 28  2  0  0  0  0
 26 24  1  0  0  0  0
 27 26  1  0  0  0  0
 28 30  1  0  0  0  0
 29 28  1  0  0  0  0
 30 31  1  0  0  0  0
 30 21  2  0  0  0  0
M  END
