1,2
q = 0.0, confidence = 0.98

 41 42  0  0  1  0  0  0  0  0999 V2000
    1.4394    0.1870    0.4846 N   0  0  0  0  0  2  0  0  0  0  0  0
   -1.2615    0.4067   -0.4157 N   0  0  0  0  0  2  0  0  0  0  0  0
    2.4035    2.2255    0.7184 O   0  0  0  0  0  0  0  0  0  0  0  0
   -1.9363    2.5461   -0.7294 O   0  0  0  0  0  0  0  0  0  0  0  0
    2.8874   -0.0787    0.6508 C   0  0  2  0  0  0  0  0  0  0  0  0
    3.0218   -0.8789    1.4032 H   0  0  0  0  0  0  0  0  0  0  0  0
    3.4026    1.2739    1.1747 C   0  0  0  0  0  0  0  0  0  0  0  0
    3.4375    1.3222    2.2832 H   0  0  0  0  0  0  0  0  0  0  0  0
    4.3799    1.5858    0.7613 H   0  0  0  0  0  0  0  0  0  0  0  0
    1.3071    1.4826    0.4344 C   0  0  1  0  0  3  0  0  0  0  0  0
    0.2040    2.2417    0.0925 N   0  0  0  0  0  0  0  0  0  0  0  0
    0.3371    3.7062    0.1464 C   0  0  0  0  0  0  0  0  0  0  0  0
   -0.6481    4.1510   -0.0600 H   0  0  0  0  0  0  0  0  0  0  0  0
    1.0708    4.0596   -0.6041 H   0  0  0  0  0  0  0  0  0  0  0  0
    0.6852    4.0132    1.1496 H   0  0  0  0  0  0  0  0  0  0  0  0
   -0.9796    1.6657   -0.3511 C   0  0  1  0  0  3  0  0  0  0  0  0
   -3.0012    1.7211   -1.2902 C   0  0  0  0  0  0  0  0  0  0  0  0
   -3.9657    2.1402   -0.9473 H   0  0  0  0  0  0  0  0  0  0  0  0
   -2.9362    1.7985   -2.3956 H   0  0  0  0  0  0  0  0  0  0  0  0
   -2.6949    0.3034   -0.7625 C   0  0  2  0  0  0  0  0  0  0  0  0
   -2.8079   -0.4764   -1.5417 H   0  0  0  0  0  0  0  0  0  0  0  0
   -3.5363   -0.1329    0.4612 C   0  0  0  0  0  0  0  0  0  0  0  0
   -3.0947   -1.1098    0.7527 H   0  0  0  0  0  0  0  0  0  0  0  0
   -4.9877   -0.3825    0.0408 C   0  0  0  0  0  0  0  0  0  0  0  0
   -5.0426   -1.1373   -0.7698 H   0  0  0  0  0  0  0  0  0  0  0  0
   -5.4910    0.5435   -0.3149 H   0  0  0  0  0  0  0  0  0  0  0  0
   -5.5811   -0.7654    0.8950 H   0  0  0  0  0  0  0  0  0  0  0  0
   -3.4278    0.8315    1.6452 C   0  0  0  0  0  0  0  0  0  0  0  0
   -4.0041    0.4450    2.5098 H   0  0  0  0  0  0  0  0  0  0  0  0
   -3.8290    1.8417    1.4123 H   0  0  0  0  0  0  0  0  0  0  0  0
   -2.3764    0.9432    1.9793 H   0  0  0  0  0  0  0  0  0  0  0  0
    3.5258   -0.5457   -0.6806 C   0  0  0  0  0  0  0  0  0  0  0  0
    2.9302   -1.4323   -0.9828 H   0  0  0  0  0  0  0  0  0  0  0  0
    3.4092    0.4896   -1.8041 C   0  0  0  0  0  0  0  0  0  0  0  0
    2.3499    0.7433   -2.0099 H   0  0  0  0  0  0  0  0  0  0  0  0
    3.8347    0.0845   -2.7438 H   0  0  0  0  0  0  0  0  0  0  0  0
    3.9571    1.4281   -1.5748 H   0  0  0  0  0  0  0  0  0  0  0  0
    4.9734   -0.9914   -0.4501 C   0  0  0  0  0  0  0  0  0  0  0  0
    5.4091   -1.4057   -1.3809 H   0  0  0  0  0  0  0  0  0  0  0  0
    5.0374   -1.7769    0.3304 H   0  0  0  0  0  0  0  0  0  0  0  0
    5.6235   -0.1462   -0.1359 H   0  0  0  0  0  0  0  0  0  0  0  0
  1  5  1  0  0  0  0
  2 16  1  0  0  0  0
  3  7  1  0  0  0  0
  4 16  1  0  0  0  0
  5  7  1  0  0  0  0
  5  6  1  1  0  0  0
  7  8  1  0  0  0  0
  9  7  1  0  0  0  0
 10 11  1  6  0  0  0
 10  1  1  0  0  0  0
 10  3  1  0  0  0  0
 11 12  1  0  0  0  0
 12 15  1  0  0  0  0
 13 12  1  0  0  0  0
 14 12  1  0  0  0  0
 16 11  1  1  0  0  0
 17 18  1  0  0  0  0
 17 20  1  0  0  0  0
 17  4  1  0  0  0  0
 19 17  1  0  0  0  0
 20 21  1  6  0  0  0
 20  2  1  0  0  0  0
 20 22  1  0  0  0  0
 22 23  1  0  0  0  0
 22 28  1  0  0  0  0
 24 22  1  0  0  0  0
 24 27  1  0  0  0  0
 25 24  1  0  0  0  0
 26 24  1  0  0  0  0
 28 31  1  0  0  0  0
 28 29  1  0  0  0  0
 30 28  1  0  0  0  0
 32 38  1  0  0  0  0
 32  5  1  0  0  0  0
 33 32  1  0  0  0  0
 34 37  1  0  0  0  0
 34 32  1  0  0  0  0
 35 34  1  0  0  0  0
 36 34  1  0  0  0  0
 38 41  1  0  0  0  0
 38 40  1  0  0  0  0
 39 38  1  0  0  0  0
M  END
