3,5
q = -1.0, confidence = 0.06

 29 30  0  0  0  0  0  0  0  0999 V2000
   -4.6007   -4.8924    3.1406 N   0  0  0  0  0  0  0  0  0  0  0  0
    7.0707   -3.1505   -0.8856 N   0  0  0  0  0  0  0  0  0  0  0  0
   -0.3051   -2.0169    0.8371 N   0  0  0  0  0  2  0  0  0  0  0  0
    0.8924   -2.5209    0.7587 N   0  0  0  0  0  2  0  0  0  0  0  0
    1.6963   -1.6962    0.1577 N   0  0  0  0  0  2  0  0  0  0  0  0
   -5.6853   -4.3092    3.2016 O   0  0  0  0  0  0  0  0  0  0  0  0
   -4.3943   -6.0465    3.5225 O   0  0  0  0  0  0  0  0  0  0  0  0
    7.4213   -4.3086   -0.6497 O   0  0  0  0  0  0  0  0  0  0  0  0
    7.7977   -2.2726   -1.3576 O   0  0  0  0  0  0  0  0  0  0  0  0
   -1.3076   -2.7662    1.4418 C   0  0  0  0  0  0  0  0  0  0  0  0
   -2.5779   -2.1446    1.5678 C   0  0  0  0  0  0  0  0  0  0  0  0
   -2.6933   -1.1038    1.2301 H   0  0  0  0  0  0  0  0  0  0  0  0
   -3.6545   -2.8339    2.1241 C   0  0  0  0  0  0  0  0  0  0  0  0
   -4.6465   -2.3762    2.2338 H   0  0  0  0  0  0  0  0  0  0  0  0
   -3.4629   -4.1534    2.5620 C   0  0  0  0  0  0  0  0  0  0  0  0
   -2.2125   -4.7873    2.4613 C   0  0  0  0  0  0  0  0  0  0  0  0
   -2.1158   -5.8190    2.8256 H   0  0  0  0  0  0  0  0  0  0  0  0
   -1.1368   -4.0991    1.9038 C   0  0  0  0  0  0  0  0  0  0  0  0
   -0.1507   -4.5724    1.8115 H   0  0  0  0  0  0  0  0  0  0  0  0
    3.0093   -2.1082   -0.0502 C   0  0  0  0  0  0  0  0  0  0  0  0
    3.4762   -3.4293    0.1904 C   0  0  0  0  0  0  0  0  0  0  0  0
    2.7746   -4.1771    0.5823 H   0  0  0  0  0  0  0  0  0  0  0  0
    4.8019   -3.7647   -0.0758 C   0  0  0  0  0  0  0  0  0  0  0  0
    5.1905   -4.7776    0.0958 H   0  0  0  0  0  0  0  0  0  0  0  0
    5.6738   -2.7873   -0.5858 C   0  0  0  0  0  0  0  0  0  0  0  0
    5.2428   -1.4733   -0.8218 C   0  0  0  0  0  0  0  0  0  0  0  0
    5.9626   -0.7413   -1.2111 H   0  0  0  0  0  0  0  0  0  0  0  0
    3.9165   -1.1384   -0.5530 C   0  0  0  0  0  0  0  0  0  0  0  0
    3.5591   -0.1134   -0.7212 H   0  0  0  0  0  0  0  0  0  0  0  0
  1  6  2  0  0  0  0
  1  7  2  0  0  0  0
  2  8  2  0  0  0  0
  2 25  1  0  0  0  0
  3 10  1  0  0  0  0
  4  3  1  0  0  0  0
  5  4  1  0  0  0  0
  9  2  2  0  0  0  0
 10 11  2  0  0  0  0
 10 18  1  0  0  0  0
 11 13  1  0  0  0  0
 12 11  1  0  0  0  0
 13 14  1  0  0  0  0
 13 15  2  0  0  0  0
 15  1  1  0  0  0  0
 16 15  1  0  0  0  0
 16 17  1  0  0  0  0
 18 16  2  0  0  0  0
 19 18  1  0  0  0  0
 20  5  1  0  0  0  0
 20 21  1  0  0  0  0
 21 22  1  0  0  0  0
 23 24  1  0  0  0  0
 23 21  2  0  0  0  0
 25 23  1  0  0  0  0
 26 25  2  0  0  0  0
 26 28  1  0  0  0  0
 27 26  1  0  0  0  0
 28 20  2  0  0  0  0
 29 28  1  0  0  0  0
M  END
