1,2
q = -1.0

 38 39  0  0  0  0  0  0  0  0999 V2000
   -0.8299    1.0349   -0.0035 N   0  0  0  0  0  2  0  0  0  0  0  0
    1.3513    0.5620    0.0447 N   0  0  0  0  0  2  0  0  0  0  0  0
   -1.9500    1.9627   -0.0227 C   0  0  0  0  0  0  0  0  0  0  0  0
   -2.7801    1.8291   -1.3135 C   0  0  0  0  0  0  0  0  0  0  0  0
   -3.9641    2.8029   -1.3303 C   0  0  0  0  0  0  0  0  0  0  0  0
   -4.8466    2.6288   -0.0873 C   0  0  0  0  0  0  0  0  0  0  0  0
   -4.0240    2.7890    1.1979 C   0  0  0  0  0  0  0  0  0  0  0  0
   -2.8378    1.8176    1.2275 C   0  0  0  0  0  0  0  0  0  0  0  0
    0.4159    1.4959    0.0284 C   0  0  0  0  0  3  0  0  0  0  0  0
    2.7734    0.8442    0.0763 C   0  0  0  0  0  0  0  0  0  0  0  0
    3.1816    1.8267    1.1958 C   0  0  0  0  0  0  0  0  0  0  0  0
    4.6998    2.0388    1.2426 C   0  0  0  0  0  0  0  0  0  0  0  0
    5.2386    2.5245   -0.1089 C   0  0  0  0  0  0  0  0  0  0  0  0
    4.8366    1.5701   -1.2399 C   0  0  0  0  0  0  0  0  0  0  0  0
    3.3197    1.3440   -1.2800 C   0  0  0  0  0  0  0  0  0  0  0  0
   -1.5276    3.0007   -0.0084 H   0  0  0  0  0  0  0  0  0  0  0  0
   -3.1444    0.7824   -1.3747 H   0  0  0  0  0  0  0  0  0  0  0  0
   -2.1151    1.9953   -2.1880 H   0  0  0  0  0  0  0  0  0  0  0  0
   -3.5858    3.8507   -1.3629 H   0  0  0  0  0  0  0  0  0  0  0  0
   -4.5611    2.6602   -2.2556 H   0  0  0  0  0  0  0  0  0  0  0  0
   -5.6877    3.3538   -0.1028 H   0  0  0  0  0  0  0  0  0  0  0  0
   -5.3013    1.6134   -0.1038 H   0  0  0  0  0  0  0  0  0  0  0  0
   -3.6497    3.8368    1.2603 H   0  0  0  0  0  0  0  0  0  0  0  0
   -4.6637    2.6349    2.0922 H   0  0  0  0  0  0  0  0  0  0  0  0
   -2.2147    1.9822    2.1328 H   0  0  0  0  0  0  0  0  0  0  0  0
   -3.2001    0.7690    1.2666 H   0  0  0  0  0  0  0  0  0  0  0  0
    0.6305    2.5925    0.0404 H   0  0  0  0  0  0  0  0  0  0  0  0
    3.2803   -0.1258    0.2936 H   0  0  0  0  0  0  0  0  0  0  0  0
    2.8016    1.4599    2.1725 H   0  0  0  0  0  0  0  0  0  0  0  0
    2.6826    2.8048    1.0167 H   0  0  0  0  0  0  0  0  0  0  0  0
    5.1936    1.0770    1.5095 H   0  0  0  0  0  0  0  0  0  0  0  0
    4.9615    2.7557    2.0486 H   0  0  0  0  0  0  0  0  0  0  0  0
    6.3421    2.6376   -0.0696 H   0  0  0  0  0  0  0  0  0  0  0  0
    4.8274    3.5370   -0.3220 H   0  0  0  0  0  0  0  0  0  0  0  0
    5.3443    0.5906   -1.0876 H   0  0  0  0  0  0  0  0  0  0  0  0
    5.1920    1.9524   -2.2196 H   0  0  0  0  0  0  0  0  0  0  0  0
    2.8026    2.2969   -1.5337 H   0  0  0  0  0  0  0  0  0  0  0  0
    3.0558    0.6213   -2.0783 H   0  0  0  0  0  0  0  0  0  0  0  0
  1  9  1  0  0  0  0
  2 10  1  0  0  0  0
  3 16  1  0  0  0  0
  3  1  1  0  0  0  0
  3  8  1  0  0  0  0
  4  3  1  0  0  0  0
  5  4  1  0  0  0  0
  5  6  1  0  0  0  0
  6  7  1  0  0  0  0
  7  8  1  0  0  0  0
  7 23  1  0  0  0  0
  7 24  1  0  0  0  0
  8 26  1  0  0  0  0
  8 25  1  0  0  0  0
  9 27  1  0  0  0  0
  9  2  1  0  0  0  0
 10 28  1  0  0  0  0
 10 11  1  0  0  0  0
 11 12  1  0  0  0  0
 11 29  1  0  0  0  0
 12 31  1  0  0  0  0
 12 32  1  0  0  0  0
 13 33  1  0  0  0  0
 13 12  1  0  0  0  0
 14 35  1  0  0  0  0
 14 13  1  0  0  0  0
 15 14  1  0  0  0  0
 15 10  1  0  0  0  0
 17  4  1  0  0  0  0
 18  4  1  0  0  0  0
 19  5  1  0  0  0  0
 20  5  1  0  0  0  0
 21  6  1  0  0  0  0
 22  6  1  0  0  0  0
 30 11  1  0  0  0  0
 34 13  1  0  0  0  0
 36 14  1  0  0  0  0
 37 15  1  0  0  0  0
 38 15  1  0  0  0  0
M  END
