2,16
q = -1.0

 28 29  0  0  1  0  0  0  0  0999 V2000
    1.9663   -2.8419   -0.0002 O   0  0  0  0  0  0  0  0  0  0  0  0
    1.9013   -0.4632   -0.0005 N   0  0  0  0  0  2  0  0  0  0  0  0
    2.8281    1.7984   -0.0007 N   0  0  0  0  0  0  0  0  0  0  0  0
    2.5222   -1.7386   -0.0002 C   0  0  0  0  0  0  0  0  0  0  0  0
    4.0004   -1.5491    0.0001 C   0  0  0  0  0  0  0  0  0  0  0  0
    5.0463   -2.4734    0.0005 C   0  0  0  0  0  0  0  0  0  0  0  0
    4.8435   -3.5545    0.0008 H   0  0  0  0  0  0  0  0  0  0  0  0
    6.3579   -1.9598    0.0004 C   0  0  0  0  0  0  0  0  0  0  0  0
    7.2140   -2.6515    0.0007 H   0  0  0  0  0  0  0  0  0  0  0  0
    6.5938   -0.5696   -0.0001 C   0  0  0  0  0  0  0  0  0  0  0  0
    7.6308   -0.2007   -0.0001 H   0  0  0  0  0  0  0  0  0  0  0  0
    5.5286    0.3522   -0.0005 C   0  0  0  0  0  0  0  0  0  0  0  0
    5.6940    1.4392   -0.0008 H   0  0  0  0  0  0  0  0  0  0  0  0
    4.2332   -0.1695   -0.0004 C   0  0  0  0  0  0  0  0  0  0  0  0
    2.9075    0.4905   -0.0006 C   0  0  1  0  0  3  0  0  0  0  0  0
    0.4644    1.7923    0.0016 N   0  0  0  0  0  2  0  0  0  0  0  0
   -0.3663    2.4269    0.0020 H   0  0  0  0  0  0  0  0  0  0  0  0
    1.6110    2.4162    0.0002 C   0  0  0  0  0  0  0  0  0  0  0  0
    1.6550    3.9390    0.0001 C   0  0  0  0  0  0  0  0  0  0  0  0
    0.6047    4.2995    0.0007 H   0  0  0  0  0  0  0  0  0  0  0  0
    2.3551    4.4429   -1.2717 C   0  0  0  0  0  0  0  0  0  0  0  0
    1.8173    4.1187   -2.1851 H   0  0  0  0  0  0  0  0  0  0  0  0
    2.4037    5.5506   -1.2746 H   0  0  0  0  0  0  0  0  0  0  0  0
    3.3881    4.0444   -1.3212 H   0  0  0  0  0  0  0  0  0  0  0  0
    2.3564    4.4431    1.2712 C   0  0  0  0  0  0  0  0  0  0  0  0
    3.3895    4.0447    1.3196 H   0  0  0  0  0  0  0  0  0  0  0  0
    2.4049    5.5508    1.2739 H   0  0  0  0  0  0  0  0  0  0  0  0
    1.8196    4.1188    2.1851 H   0  0  0  0  0  0  0  0  0  0  0  0
  1  4  2  0  0  0  0
  2  4  1  0  0  0  0
  3 18  2  0  0  0  0
  4  5  1  0  0  0  0
  5  6  1  0  0  0  0
  6  7  1  0  0  0  0
  8  6  2  0  0  0  0
  8  9  1  0  0  0  0
 10  8  1  0  0  0  0
 11 10  1  0  0  0  0
 12 14  1  0  0  0  0
 12 10  2  0  0  0  0
 13 12  1  0  0  0  0
 14  5  2  0  0  0  0
 15  3  1  1  0  0  0
 15  2  1  0  0  0  0
 15 14  1  0  0  0  0
 16 17  1  0  0  0  0
 18 16  1  0  0  0  0
 19 18  1  0  0  0  0
 19 20  1  0  0  0  0
 19 25  1  0  0  0  0
 21 19  1  0  0  0  0
 22 21  1  0  0  0  0
 23 21  1  0  0  0  0
 24 21  1  0  0  0  0
 25 27  1  0  0  0  0
 25 26  1  0  0  0  0
 25 28  1  0  0  0  0
M  END
