1,2
q = 0.0, confidence = 1.0

 25 27  0  0  0  0  0  0  0  0999 V2000
    2.4402    1.0289    0.4423 N   0  0  0  0  0  2  0  0  0  0  0  0
    1.8962   -1.5922    0.0465 N   0  0  0  0  0  2  0  0  0  0  0  0
    2.6712    2.3432    0.5395 C   0  0  0  0  0  0  0  0  0  0  0  0
    1.8064    2.9743    0.7903 H   0  0  0  0  0  0  0  0  0  0  0  0
    3.9465    2.9074    0.3462 C   0  0  0  0  0  0  0  0  0  0  0  0
    4.0629    3.9960    0.4498 H   0  0  0  0  0  0  0  0  0  0  0  0
    5.0485    2.1070    0.0383 C   0  0  0  0  0  0  0  0  0  0  0  0
    4.8109    0.7000   -0.1025 C   0  0  0  0  0  0  0  0  0  0  0  0
    5.8463   -0.2395   -0.4415 C   0  0  0  0  0  0  0  0  0  0  0  0
    6.8723    0.1274   -0.5806 H   0  0  0  0  0  0  0  0  0  0  0  0
    5.5778   -1.5790   -0.5971 C   0  0  0  0  0  0  0  0  0  0  0  0
    6.3830   -2.2823   -0.8566 H   0  0  0  0  0  0  0  0  0  0  0  0
    4.2453   -2.0895   -0.4388 C   0  0  0  0  0  0  0  0  0  0  0  0
    3.9058   -3.4568   -0.6127 C   0  0  0  0  0  0  0  0  0  0  0  0
    4.6903   -4.1837   -0.8719 H   0  0  0  0  0  0  0  0  0  0  0  0
    2.5845   -3.8529   -0.4510 C   0  0  0  0  0  0  0  0  0  0  0  0
    2.2807   -4.9024   -0.5698 H   0  0  0  0  0  0  0  0  0  0  0  0
    1.6061   -2.8876   -0.1250 C   0  0  0  0  0  0  0  0  0  0  0  0
    0.5584   -3.1937    0.0190 H   0  0  0  0  0  0  0  0  0  0  0  0
    3.1958   -1.1860   -0.0963 C   0  0  0  0  0  0  0  0  0  0  0  0
    3.4843    0.2128    0.0938 C   0  0  0  0  0  0  0  0  0  0  0  0
    6.4156    2.6954   -0.1475 C   0  0  0  0  0  0  0  0  0  0  0  0
    6.4050    3.7911   -0.0032 H   0  0  0  0  0  0  0  0  0  0  0  0
    6.8095    2.4866   -1.1638 H   0  0  0  0  0  0  0  0  0  0  0  0
    7.1405    2.2617    0.5722 H   0  0  0  0  0  0  0  0  0  0  0  0
  1  3  1  0  0  0  0
  3  4  1  0  0  0  0
  5  6  1  0  0  0  0
  5  3  2  0  0  0  0
  7  5  1  0  0  0  0
  8  7  2  0  0  0  0
  8 21  1  0  0  0  0
  9  8  1  0  0  0  0
 10  9  1  0  0  0  0
 11  9  2  0  0  0  0
 11 13  1  0  0  0  0
 12 11  1  0  0  0  0
 13 20  1  0  0  0  0
 14 16  1  0  0  0  0
 14 13  2  0  0  0  0
 15 14  1  0  0  0  0
 16 18  2  0  0  0  0
 17 16  1  0  0  0  0
 18 19  1  0  0  0  0
 18  2  1  0  0  0  0
 20  2  1  0  0  0  0
 20 21  2  0  0  0  0
 21  1  1  0  0  0  0
 22 23  1  0  0  0  0
 22  7  1  0  0  0  0
 22 25  1  0  0  0  0
 24 22  1  0  0  0  0
M  END
