1,3
q = -1.0, confidence = 0.01

 29 28  0  0  0  0  0  0  0  0999 V2000
    0.8121   -0.9505   -1.1996 N   0  0  0  0  0  2  0  0  0  0  0  0
    2.0195   -0.7853   -0.7636 N   0  0  0  0  0  2  0  0  0  0  0  0
    2.0452    0.1851    0.1214 N   0  0  0  0  0  2  0  0  0  0  0  0
    3.4091    0.5627    0.5631 C   0  0  0  0  0  0  0  0  0  0  0  0
    3.2745    1.5906    1.6913 C   0  0  0  0  0  0  0  0  0  0  0  0
    4.2703    1.9945    1.9607 H   0  0  0  0  0  0  0  0  0  0  0  0
    2.6229    2.4321    1.3839 H   0  0  0  0  0  0  0  0  0  0  0  0
    2.8349    1.1325    2.5974 H   0  0  0  0  0  0  0  0  0  0  0  0
    4.1625    1.1898   -0.6284 C   0  0  0  0  0  0  0  0  0  0  0  0
    5.1956    1.4704   -0.3383 H   0  0  0  0  0  0  0  0  0  0  0  0
    3.6408    2.0997   -0.9852 H   0  0  0  0  0  0  0  0  0  0  0  0
    4.2142    0.4689   -1.4679 H   0  0  0  0  0  0  0  0  0  0  0  0
    4.1711   -0.6765    1.0701 C   0  0  0  0  0  0  0  0  0  0  0  0
    5.1905   -0.3942    1.4024 H   0  0  0  0  0  0  0  0  0  0  0  0
    3.6403   -1.1374    1.9263 H   0  0  0  0  0  0  0  0  0  0  0  0
    4.2576   -1.4344    0.2683 H   0  0  0  0  0  0  0  0  0  0  0  0
    0.6529   -2.0563   -2.1753 C   0  0  0  0  0  0  0  0  0  0  0  0
    1.2531   -3.3593   -1.6138 C   0  0  0  0  0  0  0  0  0  0  0  0
    1.1184   -4.1904   -2.3350 H   0  0  0  0  0  0  0  0  0  0  0  0
    0.7587   -3.6416   -0.6638 H   0  0  0  0  0  0  0  0  0  0  0  0
    2.3344   -3.2335   -1.4143 H   0  0  0  0  0  0  0  0  0  0  0  0
   -0.8508   -2.2325   -2.4175 C   0  0  0  0  0  0  0  0  0  0  0  0
   -1.0315   -3.0499   -3.1434 H   0  0  0  0  0  0  0  0  0  0  0  0
   -1.3768   -2.4722   -1.4738 H   0  0  0  0  0  0  0  0  0  0  0  0
   -1.2997   -1.3046   -2.8237 H   0  0  0  0  0  0  0  0  0  0  0  0
    1.3734   -1.6881   -3.4883 C   0  0  0  0  0  0  0  0  0  0  0  0
    1.2781   -2.5076   -4.2294 H   0  0  0  0  0  0  0  0  0  0  0  0
    0.9470   -0.7682   -3.9327 H   0  0  0  0  0  0  0  0  0  0  0  0
    2.4498   -1.5121   -3.2942 H   0  0  0  0  0  0  0  0  0  0  0  0
  1  2  1  0  0  0  0
  2  3  1  0  0  0  0
  3  4  1  0  0  0  0
  4 13  1  0  0  0  0
  4  5  1  0  0  0  0
  5  6  1  0  0  0  0
  5  8  1  0  0  0  0
  7  5  1  0  0  0  0
  9 10  1  0  0  0  0
  9  4  1  0  0  0  0
 11  9  1  0  0  0  0
 12  9  1  0  0  0  0
 13 14  1  0  0  0  0
 13 15  1  0  0  0  0
 16 13  1  0  0  0  0
 17 18  1  0  0  0  0
 17  1  1  0  0  0  0
 18 21  1  0  0  0  0
 18 20  1  0  0  0  0
 19 18  1  0  0  0  0
 22 17  1  0  0  0  0
 22 24  1  0  0  0  0
 23 22  1  0  0  0  0
 25 22  1  0  0  0  0
 26 29  1  0  0  0  0
 26 17  1  0  0  0  0
 27 26  1  0  0  0  0
 28 26  1  0  0  0  0
M  END
