2,3
q = 0.0, confidence = 0.982

 36 39  0  0  1  0  0  0  0  0999 V2000
    8.9376   -2.8632    0.1996 Cl  0  0  0  0  0  0  0  0  0  0  0  0
    0.8874   -1.7098   -0.4149 N   0  0  0  0  0  2  0  0  0  0  0  0
    1.7698    0.6893   -0.4278 N   0  0  0  0  0  2  0  0  0  0  0  0
    2.3820    1.8880   -0.4030 N   0  0  0  0  0  0  0  0  0  0  0  0
    3.9433    0.3069   -0.5035 N   0  0  0  0  0  0  0  0  0  0  0  0
    5.9985    2.3722   -0.5325 N   0  0  0  0  0  0  0  0  0  0  0  0
    0.2926   -2.9138   -0.5246 C   0  0  0  0  0  3  0  0  0  0  0  0
   -0.7988   -2.9191   -0.3827 H   0  0  0  0  0  0  0  0  0  0  0  0
    1.0150   -4.0898   -0.7611 C   0  0  0  0  0  0  0  0  0  0  0  0
    0.4742   -5.0439   -0.8359 H   0  0  0  0  0  0  0  0  0  0  0  0
    2.4105   -4.0308   -0.8905 C   0  0  0  0  0  0  0  0  0  0  0  0
    3.0029   -4.9398   -1.0696 H   0  0  0  0  0  0  0  0  0  0  0  0
    3.0414   -2.7863   -0.7900 C   0  0  0  0  0  0  0  0  0  0  0  0
    4.1292   -2.6890   -0.8934 H   0  0  0  0  0  0  0  0  0  0  0  0
    2.2519   -1.6468   -0.5610 C   0  0  0  0  0  0  0  0  0  0  0  0
    2.7010   -0.2751   -0.4985 C   0  0  2  0  0  3  0  0  0  0  0  0
    3.6972    1.6724   -0.4386 C   0  0  0  0  0  0  0  0  0  0  0  0
    4.7081    2.7331   -0.3935 C   0  0  0  0  0  0  0  0  0  0  0  0
    4.3006    4.0745   -0.2076 C   0  0  0  0  0  0  0  0  0  0  0  0
    3.2330    4.3100   -0.1025 H   0  0  0  0  0  0  0  0  0  0  0  0
    5.2866    5.0637   -0.1615 C   0  0  0  0  0  0  0  0  0  0  0  0
    5.0076    6.1184   -0.0170 H   0  0  0  0  0  0  0  0  0  0  0  0
    6.6339    4.6911   -0.2976 C   0  0  0  0  0  0  0  0  0  0  0  0
    7.4403    5.4382   -0.2638 H   0  0  0  0  0  0  0  0  0  0  0  0
    6.9310    3.3305   -0.4812 C   0  0  0  0  0  0  0  0  0  0  0  0
    7.9779    2.9972   -0.5952 H   0  0  0  0  0  0  0  0  0  0  0  0
    5.1776   -0.4132   -0.3431 C   0  0  0  0  0  0  0  0  0  0  0  0
    6.0101   -0.6500   -1.4470 C   0  0  0  0  0  0  0  0  0  0  0  0
    5.7481   -0.2333   -2.4293 H   0  0  0  0  0  0  0  0  0  0  0  0
    7.1734   -1.4083   -1.2801 C   0  0  0  0  0  0  0  0  0  0  0  0
    7.8440   -1.6058   -2.1276 H   0  0  0  0  0  0  0  0  0  0  0  0
    7.4871   -1.9189   -0.0066 C   0  0  0  0  0  0  0  0  0  0  0  0
    6.6502   -1.6814    1.0961 C   0  0  0  0  0  0  0  0  0  0  0  0
    6.9103   -2.0915    2.0818 H   0  0  0  0  0  0  0  0  0  0  0  0
    5.4840   -0.9230    0.9278 C   0  0  0  0  0  0  0  0  0  0  0  0
    4.7988   -0.7332    1.7755 H   0  0  0  0  0  0  0  0  0  0  0  0
  3  4  1  0  0  0  0
  5 16  1  0  0  0  0
  5 17  1  0  0  0  0
  5 27  1  0  0  0  0
  6 25  2  0  0  0  0
  6 18  1  0  0  0  0
  7  2  1  0  0  0  0
  7  8  1  0  0  0  0
  9  7  1  0  0  0  0
 10  9  1  0  0  0  0
 11 13  1  0  0  0  0
 11  9  2  0  0  0  0
 12 11  1  0  0  0  0
 13 15  2  0  0  0  0
 14 13  1  0  0  0  0
 15  2  1  0  0  0  0
 16 15  1  6  0  0  0
 16  3  1  0  0  0  0
 17  4  2  0  0  0  0
 17 18  1  0  0  0  0
 18 19  2  0  0  0  0
 19 21  1  0  0  0  0
 19 20  1  0  0  0  0
 21 22  1  0  0  0  0
 23 24  1  0  0  0  0
 23 21  2  0  0  0  0
 25 23  1  0  0  0  0
 26 25  1  0  0  0  0
 27 35  1  0  0  0  0
 28 30  1  0  0  0  0
 28 27  2  0  0  0  0
 29 28  1  0  0  0  0
 30 32  2  0  0  0  0
 31 30  1  0  0  0  0
 32  1  1  0  0  0  0
 32 33  1  0  0  0  0
 33 34  1  0  0  0  0
 35 33  2  0  0  0  0
 35 36  1  0  0  0  0
M  END
