1,2
q = -1.0

 28 30  0  0  0  0  0  0  0  0999 V2000
   -1.4998   -0.9197    0.0303 N   0  0  0  0  0  0  0  0  0  0  0  0
    1.0240   -1.4751    0.0120 N   0  0  0  0  0  2  0  0  0  0  0  0
    2.4242   -1.6328   -0.1040 C   0  0  0  0  0  0  0  0  0  0  0  0
    3.0825   -1.0934   -1.2299 C   0  0  0  0  0  0  0  0  0  0  0  0
    2.4692   -0.5915   -1.9955 H   0  0  0  0  0  0  0  0  0  0  0  0
    4.4706   -1.2286   -1.3478 C   0  0  0  0  0  0  0  0  0  0  0  0
    4.9803   -0.8188   -2.2333 H   0  0  0  0  0  0  0  0  0  0  0  0
    5.2149   -1.8842   -0.3499 C   0  0  0  0  0  0  0  0  0  0  0  0
    6.3068   -1.9794   -0.4462 H   0  0  0  0  0  0  0  0  0  0  0  0
    4.5580   -2.4161    0.7703 C   0  0  0  0  0  0  0  0  0  0  0  0
    5.1333   -2.9246    1.5590 H   0  0  0  0  0  0  0  0  0  0  0  0
    3.1652   -2.2945    0.8976 C   0  0  0  0  0  0  0  0  0  0  0  0
    2.6443   -2.6898    1.7829 H   0  0  0  0  0  0  0  0  0  0  0  0
    0.2316   -2.5103    0.2234 C   0  0  0  0  0  3  0  0  0  0  0  0
    0.6493   -3.5289    0.3017 H   0  0  0  0  0  0  0  0  0  0  0  0
   -1.1610   -2.2498    0.2569 C   0  0  0  0  0  3  0  0  0  0  0  0
   -2.8556   -0.8628   -0.0890 C   0  0  0  0  0  0  0  0  0  0  0  0
   -3.6977    0.2258   -0.4174 C   0  0  0  0  0  0  0  0  0  0  0  0
   -3.2631    1.2036   -0.6608 H   0  0  0  0  0  0  0  0  0  0  0  0
   -5.0710    0.0039   -0.4736 C   0  0  0  0  0  0  0  0  0  0  0  0
   -5.7416    0.8361   -0.7377 H   0  0  0  0  0  0  0  0  0  0  0  0
   -5.6313   -1.2829   -0.2184 C   0  0  0  0  0  0  0  0  0  0  0  0
   -6.7228   -1.4122   -0.2730 H   0  0  0  0  0  0  0  0  0  0  0  0
   -4.8189   -2.3737    0.0714 C   0  0  0  0  0  0  0  0  0  0  0  0
   -5.2539   -3.3709    0.2402 H   0  0  0  0  0  0  0  0  0  0  0  0
   -3.4110   -2.1914    0.1306 C   0  0  0  0  0  0  0  0  0  0  0  0
   -2.3125   -3.0627    0.3446 C   0  0  0  0  0  0  0  0  0  0  0  0
   -2.3362   -4.1452    0.5131 H   0  0  0  0  0  0  0  0  0  0  0  0
  1 16  1  0  0  0  0
  2 14  1  0  0  0  0
  3  2  1  0  0  0  0
  3 12  1  0  0  0  0
  4  3  2  0  0  0  0
  5  4  1  0  0  0  0
  6  4  1  0  0  0  0
  6  8  2  0  0  0  0
  7  6  1  0  0  0  0
  8 10  1  0  0  0  0
  9  8  1  0  0  0  0
 10 12  2  0  0  0  0
 10 11  1  0  0  0  0
 12 13  1  0  0  0  0
 14 16  1  0  0  0  0
 14 15  1  0  0  0  0
 16 27  1  0  0  0  0
 17  1  2  0  0  0  0
 17 26  1  0  0  0  0
 18 17  1  0  0  0  0
 19 18  1  0  0  0  0
 20 18  2  0  0  0  0
 20 22  1  0  0  0  0
 21 20  1  0  0  0  0
 22 24  2  0  0  0  0
 23 22  1  0  0  0  0
 24 26  1  0  0  0  0
 24 25  1  0  0  0  0
 26 27  2  0  0  0  0
 27 28  1  0  0  0  0
M  END
