4,7
q = 0.0, confidence = 0.986

 46 48  0  0  1  0  0  0  0  0999 V2000
    1.5531   -2.8051   -0.1048 S   0  0  0  0  0  0  0  0  0  0  0  0
    1.8956    5.8003    0.6367 Cl  0  0  0  0  0  0  0  0  0  0  0  0
   -2.5442    3.1449   -0.9745 Cl  0  0  0  0  0  0  0  0  0  0  0  0
   -0.6621    0.6083   -0.2666 N   0  0  0  0  0  2  0  0  0  0  0  0
    1.0707    1.9389    0.2907 N   0  0  0  0  0  0  0  0  0  0  0  0
    3.9829    1.5453   -0.8052 O   0  0  0  0  0  0  0  0  0  0  0  0
   -0.8993   -2.0762   -0.4080 N   0  0  0  0  0  2  0  0  0  0  0  0
   -0.2804    1.8874   -0.1181 C   0  0  1  0  0  3  0  0  0  0  0  0
    1.5396    0.6384    0.3875 C   0  0  0  0  0  0  0  0  0  0  0  0
    4.9932   -0.4300   -0.2687 N   0  0  0  0  0  0  0  0  0  0  0  0
    1.0673    4.3021    0.3585 C   0  0  0  0  0  0  0  0  0  0  0  0
    0.3133   -1.5835   -0.1414 C   0  0  2  0  0  3  0  0  0  0  0  0
    0.3541   -4.0187   -0.4315 C   0  0  0  0  0  0  0  0  0  0  0  0
    0.6285   -5.0767   -0.5044 H   0  0  0  0  0  0  0  0  0  0  0  0
    0.4579   -0.1585    0.0089 C   0  0  0  0  0  0  0  0  0  0  0  0
    1.7511    3.1139    0.5131 C   0  0  0  0  0  0  0  0  0  0  0  0
    2.8256    3.0408    0.7097 H   0  0  0  0  0  0  0  0  0  0  0  0
   -0.8865   -3.4410   -0.5636 C   0  0  0  0  0  0  0  0  0  0  0  0
   -1.8272   -3.9691   -0.7638 H   0  0  0  0  0  0  0  0  0  0  0  0
   -0.2878    4.3216   -0.0739 C   0  0  0  0  0  0  0  0  0  0  0  0
   -0.7993    5.2775   -0.2427 H   0  0  0  0  0  0  0  0  0  0  0  0
    4.0053    0.5075   -0.1336 C   0  0  0  0  0  0  0  0  0  0  0  0
    2.8882    0.2681    0.9008 C   0  0  0  0  0  0  0  0  0  0  0  0
    2.8446   -0.7700    1.2791 H   0  0  0  0  0  0  0  0  0  0  0  0
    3.1301    0.8971    1.7868 H   0  0  0  0  0  0  0  0  0  0  0  0
    5.1484   -1.6172    0.5715 C   0  0  0  0  0  0  0  0  0  0  0  0
    5.7102   -2.3693   -0.0185 H   0  0  0  0  0  0  0  0  0  0  0  0
    4.1596   -2.0812    0.7620 H   0  0  0  0  0  0  0  0  0  0  0  0
   -0.9480    3.1280   -0.3326 C   0  0  0  0  0  0  0  0  0  0  0  0
    6.0350   -0.1460   -1.2688 C   0  0  0  0  0  0  0  0  0  0  0  0
    6.2888    0.9306   -1.2053 H   0  0  0  0  0  0  0  0  0  0  0  0
    6.9351   -0.7288   -0.9842 H   0  0  0  0  0  0  0  0  0  0  0  0
    5.8709   -1.3521    1.8978 C   0  0  0  0  0  0  0  0  0  0  0  0
    6.8558   -0.8840    1.6825 H   0  0  0  0  0  0  0  0  0  0  0  0
    5.2961   -0.5974    2.4776 H   0  0  0  0  0  0  0  0  0  0  0  0
    6.0537   -2.6239    2.7247 C   0  0  0  0  0  0  0  0  0  0  0  0
    5.0771   -3.0905    2.9711 H   0  0  0  0  0  0  0  0  0  0  0  0
    6.5728   -2.4148    3.6804 H   0  0  0  0  0  0  0  0  0  0  0  0
    6.6536   -3.3802    2.1771 H   0  0  0  0  0  0  0  0  0  0  0  0
    5.5973   -0.4813   -2.7005 C   0  0  0  0  0  0  0  0  0  0  0  0
    4.7682    0.2048   -2.9708 H   0  0  0  0  0  0  0  0  0  0  0  0
    6.4419   -0.2269   -3.3765 H   0  0  0  0  0  0  0  0  0  0  0  0
    5.1722   -1.9346   -2.9096 C   0  0  0  0  0  0  0  0  0  0  0  0
    5.9904   -2.6447   -2.6636 H   0  0  0  0  0  0  0  0  0  0  0  0
    4.8806   -2.1184   -3.9627 H   0  0  0  0  0  0  0  0  0  0  0  0
    4.2964   -2.1956   -2.2794 H   0  0  0  0  0  0  0  0  0  0  0  0
  3 29  1  0  0  0  0
  4  8  1  0  0  0  0
  4 15  1  0  0  0  0
  5  9  1  0  0  0  0
  5 16  1  0  0  0  0
  6 22  2  0  0  0  0
  7 12  1  0  0  0  0
  8 29  1  6  0  0  0
  8  5  1  0  0  0  0
  9 23  1  0  0  0  0
 10 22  1  0  0  0  0
 10 26  1  0  0  0  0
 11 16  2  0  0  0  0
 11  2  1  0  0  0  0
 12  1  1  0  0  0  0
 12 15  1  6  0  0  0
 13  1  1  0  0  0  0
 14 13  1  0  0  0  0
 15  9  2  0  0  0  0
 16 17  1  0  0  0  0
 18 13  2  0  0  0  0
 18  7  1  0  0  0  0
 19 18  1  0  0  0  0
 20 11  1  0  0  0  0
 21 20  1  0  0  0  0
 22 23  1  0  0  0  0
 23 24  1  0  0  0  0
 23 25  1  0  0  0  0
 26 28  1  0  0  0  0
 26 33  1  0  0  0  0
 27 26  1  0  0  0  0
 29 20  2  0  0  0  0
 30 31  1  0  0  0  0
 30 32  1  0  0  0  0
 30 10  1  0  0  0  0
 33 35  1  0  0  0  0
 33 36  1  0  0  0  0
 34 33  1  0  0  0  0
 36 37  1  0  0  0  0
 36 38  1  0  0  0  0
 39 36  1  0  0  0  0
 40 30  1  0  0  0  0
 41 40  1  0  0  0  0
 42 40  1  0  0  0  0
 43 40  1  0  0  0  0
 43 44  1  0  0  0  0
 43 46  1  0  0  0  0
 45 43  1  0  0  0  0
M  END
