3,8
q = -1.0

 22 23  0  0  0  0  0  0  0  0999 V2000
    3.4277   -0.4416    0.0252 C   0  0  0  0  0  0  0  0  0  0  0  0
    4.0128    0.8023   -0.0593 O   0  0  0  0  0  0  0  0  0  0  0  0
   -1.1816    1.6582   -0.0566 N   0  0  0  0  0  0  0  0  0  0  0  0
    1.9953   -0.5997    0.0303 C   0  0  0  0  0  3  0  0  0  0  0  0
    1.6640   -1.6548    0.0854 H   0  0  0  0  0  0  0  0  0  0  0  0
   -0.3500    3.7774   -0.0368 C   0  0  0  0  0  0  0  0  0  0  0  0
    0.3538    4.6195   -0.0373 H   0  0  0  0  0  0  0  0  0  0  0  0
    1.0478    0.2807   -0.0236 N   0  0  0  0  0  2  0  0  0  0  0  0
   -2.2503    2.5382   -0.0161 C   0  0  0  0  0  3  0  0  0  0  0  0
   -3.2790    2.1619    0.0080 H   0  0  0  0  0  0  0  0  0  0  0  0
   -1.7810    3.8480   -0.0045 C   0  0  0  0  0  0  0  0  0  0  0  0
   -2.3931    4.7580    0.0256 H   0  0  0  0  0  0  0  0  0  0  0  0
    1.2978    1.7176   -0.1034 C   0  0  0  0  0  0  0  0  0  0  0  0
    1.8728    1.9408   -1.0335 H   0  0  0  0  0  0  0  0  0  0  0  0
    1.9659    2.0386    0.7285 H   0  0  0  0  0  0  0  0  0  0  0  0
    5.3560    0.6218   -0.0456 C   0  0  0  0  0  0  0  0  0  0  0  0
    5.9605    1.5328   -0.1077 H   0  0  0  0  0  0  0  0  0  0  0  0
   -0.0228    2.4248   -0.0682 C   0  0  0  0  0  0  0  0  0  0  0  0
    4.4259   -1.4098    0.0914 C   0  0  0  0  0  0  0  0  0  0  0  0
    4.2620   -2.4906    0.1644 H   0  0  0  0  0  0  0  0  0  0  0  0
    5.6708   -0.7193    0.0460 C   0  0  0  0  0  0  0  0  0  0  0  0
    6.6768   -1.1511    0.0761 H   0  0  0  0  0  0  0  0  0  0  0  0
  1  4  1  0  0  0  0
  1 19  2  0  0  0  0
  2 16  1  0  0  0  0
  2  1  1  0  0  0  0
  3  9  1  0  0  0  0
  4  5  1  0  0  0  0
  6 11  2  0  0  0  0
  7  6  1  0  0  0  0
  8  4  1  0  0  0  0
  9 11  1  0  0  0  0
  9 10  1  0  0  0  0
 11 12  1  0  0  0  0
 13 18  1  0  0  0  0
 13  8  1  0  0  0  0
 13 15  1  0  0  0  0
 14 13  1  0  0  0  0
 16 21  2  0  0  0  0
 17 16  1  0  0  0  0
 18  3  2  0  0  0  0
 18  6  1  0  0  0  0
 19 20  1  0  0  0  0
 21 22  1  0  0  0  0
 21 19  1  0  0  0  0
M  END
