3,7
q = -1.0, confidence = 0.002

 18 18  0  0  1  0  0  0  0  0999 V2000
   -3.0573   -1.1866   -0.0640 S   0  0  0  0  0  0  0  0  0  0  0  0
   -0.2382   -2.7983    0.1382 S   0  0  0  0  0  0  0  0  0  0  0  0
   -0.6994   -0.1748   -0.0435 N   0  0  0  0  0  2  0  0  0  0  0  0
   -1.5023    0.9108   -0.1626 N   0  0  0  0  0  0  0  0  0  0  0  0
   -3.7812    1.4761   -0.2641 N   0  0  0  0  0  0  0  0  0  0  0  0
   -3.4798    2.4538   -0.2831 H   0  0  0  0  0  0  0  0  0  0  0  0
    1.0348   -2.0891    0.8803 N   0  0  0  0  0  2  0  0  0  0  0  0
    0.7958   -2.0288    1.8877 H   0  0  0  0  0  0  0  0  0  0  0  0
   -5.4737   -0.0413   -0.2411 O   0  0  0  0  0  0  0  0  0  0  0  0
   -0.9259   -3.7963    0.9773 O   0  0  0  0  0  0  0  0  0  0  0  0
    0.0902   -3.1073   -1.2722 O   0  0  0  0  0  0  0  0  0  0  0  0
   -1.3291   -1.3365    0.0108 C   0  0  1  0  0  3  0  0  0  0  0  0
   -2.7674    0.5470   -0.1771 C   0  0  0  0  0  0  0  0  0  0  0  0
   -5.1317    1.1353   -0.2805 C   0  0  0  0  0  0  0  0  0  0  0  0
   -6.0959    2.2978   -0.3137 C   0  0  0  0  0  0  0  0  0  0  0  0
   -5.6476    3.2303   -0.7065 H   0  0  0  0  0  0  0  0  0  0  0  0
   -6.4630    2.4897    0.7157 H   0  0  0  0  0  0  0  0  0  0  0  0
   -6.9701    2.0146   -0.9280 H   0  0  0  0  0  0  0  0  0  0  0  0
  1 12  1  0  0  0  0
  2  7  1  0  0  0  0
  2 10  2  0  0  0  0
  3 12  1  0  0  0  0
  4  3  1  0  0  0  0
  5 13  1  0  0  0  0
  6  5  1  0  0  0  0
  7  8  1  0  0  0  0
 11  2  2  0  0  0  0
 12  2  1  6  0  0  0
 13  4  2  0  0  0  0
 13  1  1  0  0  0  0
 14  5  1  0  0  0  0
 14  9  2  0  0  0  0
 15 14  1  0  0  0  0
 15 17  1  0  0  0  0
 16 15  1  0  0  0  0
 18 15  1  0  0  0  0
M  END
