15,16
q = -1.0

 23 24  0  0  0  0  0  0  0  0999 V2000
    2.8861   -0.1380    0.7147 C   0  0  0  0  0  0  0  0  0  0  0  0
    3.8982    0.1211   -0.2245 C   0  0  0  0  0  0  0  0  0  0  0  0
    2.8779   -1.2099    1.7829 C   0  0  0  0  0  0  0  0  0  0  0  0
    5.1935   -0.5153   -0.6476 C   0  0  0  0  0  0  0  0  0  0  0  0
    2.2402    1.5753   -0.4935 C   0  0  0  0  0  0  0  0  0  0  0  0
    1.3922    2.6638   -0.9812 C   0  0  0  0  0  0  0  0  0  0  0  0
    1.8124    3.6329   -1.9129 C   0  0  0  0  0  0  0  0  0  0  0  0
    2.8288    3.6087   -2.3317 H   0  0  0  0  0  0  0  0  0  0  0  0
    0.9120    4.6404   -2.2815 C   0  0  0  0  0  0  0  0  0  0  0  0
    1.2154    5.4106   -3.0062 H   0  0  0  0  0  0  0  0  0  0  0  0
   -0.3703    4.6628   -1.7122 C   0  0  0  0  0  0  0  0  0  0  0  0
   -1.0989    5.4434   -1.9721 H   0  0  0  0  0  0  0  0  0  0  0  0
   -0.7133    3.6590   -0.7930 C   0  0  0  0  0  0  0  0  0  0  0  0
   -1.6989    3.6119   -0.2997 H   0  0  0  0  0  0  0  0  0  0  0  0
    1.8767    0.7681    0.5145 N   0  0  0  0  0  2  0  0  0  0  0  0
    0.1457    2.6878   -0.4501 N   0  0  0  0  0  2  0  0  0  0  0  0
    3.4691    1.2050   -0.9482 N   0  0  0  0  0  0  0  0  0  0  0  0
    4.0533    1.5691   -1.7108 H   0  0  0  0  0  0  0  0  0  0  0  0
    3.7970   -2.0828    1.6858 O   0  5  0  0  0  0  0  0  0  0  0  0
    4.7938   -1.8540    0.7332 H   0  0  0  0  0  0  0  0  0  0  0  0
    1.9842   -1.1949    2.6675 O   0  0  0  0  0  0  0  0  0  0  0  0
    5.5272   -1.6178   -0.0288 O   0  0  0  0  0  0  0  0  0  0  0  0
    5.8168    0.0242   -1.5604 O   0  0  0  0  0  0  0  0  0  0  0  0
  1  3  1  0  0  0  0
  2  1  2  0  0  0  0
  3 21  2  0  0  0  0
  4  2  1  0  0  0  0
  4 22  1  0  0  0  0
  5 15  1  0  0  0  0
  6  5  2  0  0  0  0
  6 16  1  0  0  0  0
  7  6  1  0  0  0  0
  8  7  1  0  0  0  0
  9  7  2  0  0  0  0
  9 11  1  0  0  0  0
 10  9  1  0  0  0  0
 11 13  2  0  0  0  0
 12 11  1  0  0  0  0
 13 16  1  0  0  0  0
 13 14  1  0  0  0  0
 15  1  1  0  0  0  0
 17  5  1  0  0  0  0
 17  2  1  0  0  0  0
 18 17  1  0  0  0  0
 19  3  1  0  0  0  0
 22 20  1  0  0  0  0
 23  4  2  0  0  0  0
M  CHG  1  19  -1
M  END
