1,2
q = -1.0, confidence = 0.012

 20 21  0  0  1  0  0  0  0  0999 V2000
    1.1047    1.8996   -0.9944 N   0  0  0  0  0  2  0  0  0  0  0  0
   -1.1050    1.8993    0.9945 N   0  0  0  0  0  2  0  0  0  0  0  0
    1.9127    3.9735   -1.3970 O   0  0  0  0  0  0  0  0  0  0  0  0
   -1.9136    3.9730    1.3972 O   0  0  0  0  0  0  0  0  0  0  0  0
    0.9668    3.2074   -0.7700 C   0  0  1  0  0  3  0  0  0  0  0  0
   -0.9675    3.2072    0.7701 C   0  0  0  0  0  0  0  0  0  0  0  0
   -2.3649    1.6945    1.7095 C   0  0  0  0  0  0  0  0  0  0  0  0
   -2.2649    0.9219    2.4978 H   0  0  0  0  0  0  0  0  0  0  0  0
   -3.1646    1.3481    1.0129 H   0  0  0  0  0  0  0  0  0  0  0  0
   -0.0005    3.8749    0.0000 C   0  0  0  0  0  0  0  0  0  0  0  0
   -0.0006    4.9695    0.0000 H   0  0  0  0  0  0  0  0  0  0  0  0
    2.3647    1.6952   -1.7092 C   0  0  0  0  0  0  0  0  0  0  0  0
    2.2651    0.9224   -2.4975 H   0  0  0  0  0  0  0  0  0  0  0  0
    3.1645    1.3490   -1.0125 H   0  0  0  0  0  0  0  0  0  0  0  0
    2.6505    3.0950   -2.2687 C   0  0  0  0  0  0  0  0  0  0  0  0
    3.7168    3.3914   -2.2475 H   0  0  0  0  0  0  0  0  0  0  0  0
    2.2649    3.2164   -3.3069 H   0  0  0  0  0  0  0  0  0  0  0  0
   -2.6511    3.0943    2.2689 C   0  0  0  0  0  0  0  0  0  0  0  0
   -3.7176    3.3904    2.2476 H   0  0  0  0  0  0  0  0  0  0  0  0
   -2.2656    3.2159    3.3071 H   0  0  0  0  0  0  0  0  0  0  0  0
  1  5  1  0  0  0  0
  2  7  1  0  0  0  0
  3  5  1  0  0  0  0
  4 18  1  0  0  0  0
  5 10  1  6  0  0  0
  6  2  1  0  0  0  0
  6  4  1  0  0  0  0
  7 18  1  0  0  0  0
  7  8  1  0  0  0  0
  9  7  1  0  0  0  0
 10  6  2  0  0  0  0
 11 10  1  0  0  0  0
 12 14  1  0  0  0  0
 12  1  1  0  0  0  0
 13 12  1  0  0  0  0
 15 16  1  0  0  0  0
 15 12  1  0  0  0  0
 15  3  1  0  0  0  0
 17 15  1  0  0  0  0
 18 20  1  0  0  0  0
 19 18  1  0  0  0  0
M  END
