5,7
q = 0.0, confidence = 0.998

 44 44  0  0  0  0  0  0  0  0999 V2000
    1.9759   -0.4059   -1.9342 O   0  0  0  0  0  0  0  0  0  0  0  0
    3.5191    0.8399    0.1463 O   0  0  0  0  0  0  0  0  0  0  0  0
    0.3045    2.8368    0.7295 O   0  0  0  0  0  0  0  0  0  0  0  0
   -1.7064    2.5476   -1.2064 O   0  0  0  0  0  0  0  0  0  0  0  0
   -0.7992   -0.0997   -1.5651 N   0  0  0  0  0  0  0  0  0  0  0  0
   -0.1944    0.7371   -1.5100 H   0  0  0  0  0  0  0  0  0  0  0  0
    0.9535    0.1343    1.0162 N   0  0  0  0  0  0  0  0  0  0  0  0
    1.2504    0.7363    0.2259 H   0  0  0  0  0  0  0  0  0  0  0  0
   -0.2402   -1.0223   -2.5779 C   0  0  0  0  0  0  0  0  0  0  0  0
   -0.9281   -1.8892   -2.6443 H   0  0  0  0  0  0  0  0  0  0  0  0
   -0.2168   -0.5075   -3.5655 H   0  0  0  0  0  0  0  0  0  0  0  0
    1.1444   -1.5195   -2.2221 C   0  0  0  0  0  0  0  0  0  0  0  0
    1.0855   -2.2013   -1.3377 H   0  0  0  0  0  0  0  0  0  0  0  0
    1.5448   -2.1103   -3.0807 H   0  0  0  0  0  0  0  0  0  0  0  0
    3.3314   -0.7589   -1.7442 C   0  0  0  0  0  0  0  0  0  0  0  0
    3.4106   -1.6856   -1.1254 H   0  0  0  0  0  0  0  0  0  0  0  0
    3.8301   -0.9903   -2.7186 H   0  0  0  0  0  0  0  0  0  0  0  0
    4.0731    0.3915   -1.0757 C   0  0  0  0  0  0  0  0  0  0  0  0
    4.0564    1.2771   -1.7434 H   0  0  0  0  0  0  0  0  0  0  0  0
    5.1399    0.0821   -0.9464 H   0  0  0  0  0  0  0  0  0  0  0  0
    3.4406   -0.1010    1.2080 C   0  0  0  0  0  0  0  0  0  0  0  0
    3.6067    0.4768    2.1414 H   0  0  0  0  0  0  0  0  0  0  0  0
    4.2522   -0.8637    1.1515 H   0  0  0  0  0  0  0  0  0  0  0  0
    2.0761   -0.8084    1.2462 C   0  0  0  0  0  0  0  0  0  0  0  0
    1.9021   -1.3220    2.2121 H   0  0  0  0  0  0  0  0  0  0  0  0
    2.0156   -1.5910    0.4689 H   0  0  0  0  0  0  0  0  0  0  0  0
    0.7286    1.0248    2.1803 C   0  0  0  0  0  0  0  0  0  0  0  0
    1.6913    1.4815    2.4962 H   0  0  0  0  0  0  0  0  0  0  0  0
    0.3227    0.3987    2.9998 H   0  0  0  0  0  0  0  0  0  0  0  0
   -0.2449    2.1255    1.8259 C   0  0  0  0  0  0  0  0  0  0  0  0
   -1.2278    1.6623    1.5726 H   0  0  0  0  0  0  0  0  0  0  0  0
   -0.3970    2.7934    2.7087 H   0  0  0  0  0  0  0  0  0  0  0  0
   -0.4536    3.9391    0.2759 C   0  0  0  0  0  0  0  0  0  0  0  0
   -0.5604    4.7177    1.0726 H   0  0  0  0  0  0  0  0  0  0  0  0
    0.1338    4.3804   -0.5549 H   0  0  0  0  0  0  0  0  0  0  0  0
   -1.8435    3.5576   -0.2283 C   0  0  0  0  0  0  0  0  0  0  0  0
   -2.3445    4.4656   -0.6440 H   0  0  0  0  0  0  0  0  0  0  0  0
   -2.4801    3.2011    0.6141 H   0  0  0  0  0  0  0  0  0  0  0  0
   -2.6499    1.4926   -1.1388 C   0  0  0  0  0  0  0  0  0  0  0  0
   -3.6568    1.8096   -1.5033 H   0  0  0  0  0  0  0  0  0  0  0  0
   -2.7656    1.1237   -0.0906 H   0  0  0  0  0  0  0  0  0  0  0  0
   -2.1373    0.3700   -2.0090 C   0  0  0  0  0  0  0  0  0  0  0  0
   -2.0619    0.7217   -3.0629 H   0  0  0  0  0  0  0  0  0  0  0  0
   -2.8266   -0.4958   -1.9537 H   0  0  0  0  0  0  0  0  0  0  0  0
  1 15  1  0  0  0  0
  2 21  1  0  0  0  0
  3 30  1  0  0  0  0
  4 39  1  0  0  0  0
  4 36  1  0  0  0  0
  5  6  1  0  0  0  0
  7 24  1  0  0  0  0
  7 27  1  0  0  0  0
  8  7  1  0  0  0  0
  9 12  1  0  0  0  0
  9  5  1  0  0  0  0
 10  9  1  0  0  0  0
 11  9  1  0  0  0  0
 12  1  1  0  0  0  0
 12 13  1  0  0  0  0
 14 12  1  0  0  0  0
 15 16  1  0  0  0  0
 15 18  1  0  0  0  0
 17 15  1  0  0  0  0
 18 20  1  0  0  0  0
 18  2  1  0  0  0  0
 19 18  1  0  0  0  0
 21 24  1  0  0  0  0
 21 22  1  0  0  0  0
 23 21  1  0  0  0  0
 24 25  1  0  0  0  0
 26 24  1  0  0  0  0
 27 28  1  0  0  0  0
 27 29  1  0  0  0  0
 30 27  1  0  0  0  0
 30 32  1  0  0  0  0
 31 30  1  0  0  0  0
 33  3  1  0  0  0  0
 33 34  1  0  0  0  0
 35 33  1  0  0  0  0
 36 33  1  0  0  0  0
 36 38  1  0  0  0  0
 37 36  1  0  0  0  0
 39 41  1  0  0  0  0
 40 39  1  0  0  0  0
 42 44  1  0  0  0  0
 42  5  1  0  0  0  0
 42 39  1  0  0  0  0
 43 42  1  0  0  0  0
M  END
