2,4
q = 0.0, confidence = 0.942

 23 24  0  0  0  0  0  0  0  0999 V2000
    6.4177    0.2041   -0.0447 Cl  0  0  0  0  0  0  0  0  0  0  0  0
   -2.0092    1.0166   -0.2204 N   0  0  0  0  0  2  0  0  0  0  0  0
    0.1047    2.0080   -0.1536 N   0  0  0  0  0  0  0  0  0  0  0  0
    0.4846    0.7650   -0.1074 N   0  0  0  0  0  2  0  0  0  0  0  0
   -1.2545    2.1516   -0.2131 C   0  0  0  0  0  0  0  0  0  0  0  0
   -1.8388    3.4358   -0.3043 C   0  0  0  0  0  0  0  0  0  0  0  0
   -3.2232    3.5293   -0.4157 C   0  0  0  0  0  0  0  0  0  0  0  0
   -3.9943    2.3484   -0.4383 C   0  0  0  0  0  0  0  0  0  0  0  0
   -3.3515    1.1133   -0.3359 C   0  0  0  0  0  0  0  0  0  0  0  0
    1.9115    0.6147   -0.0905 C   0  0  0  0  0  0  0  0  0  0  0  0
    2.6753    1.4229    0.7721 C   0  0  0  0  0  0  0  0  0  0  0  0
    4.0662    1.2904    0.7943 C   0  0  0  0  0  0  0  0  0  0  0  0
    4.6862    0.3664   -0.0663 C   0  0  0  0  0  0  0  0  0  0  0  0
    3.9263   -0.4258   -0.9452 C   0  0  0  0  0  0  0  0  0  0  0  0
    2.5331   -0.3078   -0.9519 C   0  0  0  0  0  0  0  0  0  0  0  0
   -1.1778    4.3123   -0.2908 H   0  0  0  0  0  0  0  0  0  0  0  0
   -3.7088    4.5135   -0.4903 H   0  0  0  0  0  0  0  0  0  0  0  0
   -5.0883    2.3813   -0.5323 H   0  0  0  0  0  0  0  0  0  0  0  0
   -3.9020    0.1610   -0.3345 H   0  0  0  0  0  0  0  0  0  0  0  0
    2.1620    2.1358    1.4310 H   0  0  0  0  0  0  0  0  0  0  0  0
    4.6776    1.8948    1.4784 H   0  0  0  0  0  0  0  0  0  0  0  0
    4.4307   -1.1280   -1.6228 H   0  0  0  0  0  0  0  0  0  0  0  0
    1.9259   -0.9012   -1.6494 H   0  0  0  0  0  0  0  0  0  0  0  0
  2  5  1  0  0  0  0
  3  4  1  0  0  0  0
  4 10  1  0  0  0  0
  5  3  2  0  0  0  0
  6 16  1  0  0  0  0
  6  5  1  0  0  0  0
  7  6  2  0  0  0  0
  8  7  1  0  0  0  0
  8  9  2  0  0  0  0
  9 19  1  0  0  0  0
  9  2  1  0  0  0  0
 10 11  1  0  0  0  0
 11 12  2  0  0  0  0
 11 20  1  0  0  0  0
 12 21  1  0  0  0  0
 13  1  1  0  0  0  0
 13 12  1  0  0  0  0
 14 13  2  0  0  0  0
 15 14  1  0  0  0  0
 15 10  2  0  0  0  0
 17  7  1  0  0  0  0
 18  8  1  0  0  0  0
 22 14  1  0  0  0  0
 23 15  1  0  0  0  0
M  END
