1,2
q = -1.0, confidence = 0.0

 30 32  0  0  0  0  0  0  0  0999 V2000
   -1.8684   -0.4650   -0.6622 N   0  0  0  0  0  2  0  0  0  0  0  0
    0.0274    1.2627   -0.0619 N   0  0  0  0  0  2  0  0  0  0  0  0
   -3.6143    1.2415   -0.8408 C   0  0  0  0  0  0  0  0  0  0  0  0
   -1.6467    3.1330   -0.0476 C   0  0  0  0  0  0  0  0  0  0  0  0
   -0.9110    3.8762    0.2762 H   0  0  0  0  0  0  0  0  0  0  0  0
   -2.2596    0.8444   -0.5680 C   0  0  0  0  0  0  0  0  0  0  0  0
   -2.9797    3.5185   -0.3032 C   0  0  0  0  0  0  0  0  0  0  0  0
   -3.2445    4.5808   -0.1858 H   0  0  0  0  0  0  0  0  0  0  0  0
   -1.2472    1.7869   -0.1920 C   0  0  0  0  0  0  0  0  0  0  0  0
   -2.7323   -1.3978   -1.0807 C   0  0  0  0  0  0  0  0  0  0  0  0
   -2.3407   -2.4175   -1.1924 H   0  0  0  0  0  0  0  0  0  0  0  0
    0.8097    2.9437    1.3341 O   0  0  0  0  0  0  0  0  0  0  0  0
   -3.9605    2.6096   -0.6956 C   0  0  0  0  0  3  0  0  0  0  0  0
   -4.9926    2.9310   -0.8975 H   0  0  0  0  0  0  0  0  0  0  0  0
    1.0306    2.0205    0.5385 C   0  0  0  0  0  0  0  0  0  0  0  0
   -4.5196    0.2226   -1.2515 C   0  0  0  0  0  0  0  0  0  0  0  0
   -5.5641    0.4904   -1.4733 H   0  0  0  0  0  0  0  0  0  0  0  0
    2.8145    1.2570   -1.1188 C   0  0  0  0  0  0  0  0  0  0  0  0
    2.0322    1.0738   -1.8711 H   0  0  0  0  0  0  0  0  0  0  0  0
   -4.0762   -1.0850   -1.3848 C   0  0  0  0  0  0  0  0  0  0  0  0
   -4.7470   -1.8869   -1.7234 H   0  0  0  0  0  0  0  0  0  0  0  0
    3.4543    1.9190    1.1367 C   0  0  0  0  0  0  0  0  0  0  0  0
    3.1528    2.3062    2.1217 H   0  0  0  0  0  0  0  0  0  0  0  0
    2.4518    1.6933    0.1712 C   0  0  0  0  0  0  0  0  0  0  0  0
    4.7977    1.6520    0.8390 C   0  0  0  0  0  0  0  0  0  0  0  0
    5.5731    1.8089    1.6045 H   0  0  0  0  0  0  0  0  0  0  0  0
    5.1546    1.1962   -0.4426 C   0  0  0  0  0  0  0  0  0  0  0  0
    6.2103    0.9935   -0.6808 H   0  0  0  0  0  0  0  0  0  0  0  0
    4.1626    1.0154   -1.4218 C   0  0  0  0  0  0  0  0  0  0  0  0
    4.4388    0.6762   -2.4322 H   0  0  0  0  0  0  0  0  0  0  0  0
  1  6  1  0  0  0  0
  2 15  1  0  0  0  0
  3 13  1  0  0  0  0
  3  6  1  0  0  0  0
  4  5  1  0  0  0  0
  6  9  2  0  0  0  0
  7  8  1  0  0  0  0
  7  4  2  0  0  0  0
  9  2  1  0  0  0  0
  9  4  1  0  0  0  0
 10  1  1  0  0  0  0
 11 10  1  0  0  0  0
 13  7  1  0  0  0  0
 14 13  1  0  0  0  0
 15 12  2  0  0  0  0
 16  3  2  0  0  0  0
 17 16  1  0  0  0  0
 18 24  1  0  0  0  0
 19 18  1  0  0  0  0
 20 16  1  0  0  0  0
 20 10  2  0  0  0  0
 21 20  1  0  0  0  0
 22 23  1  0  0  0  0
 24 15  1  0  0  0  0
 24 22  2  0  0  0  0
 25 22  1  0  0  0  0
 25 26  1  0  0  0  0
 27 25  2  0  0  0  0
 28 27  1  0  0  0  0
 29 18  2  0  0  0  0
 29 27  1  0  0  0  0
 30 29  1  0  0  0  0
M  END
