1,16
q = -1.0

 55 56  0  0  1  0  0  0  0  0999 V2000
   -1.8467    0.8668   -0.7929 N   0  0  0  0  0  2  0  0  0  0  0  0
   -1.1005    1.8287   -1.3831 C   0  0  2  0  0  3  0  0  0  0  0  0
   -1.6661    3.0247   -1.8606 C   0  0  0  0  0  0  0  0  0  0  0  0
   -1.0202    3.7876   -2.3189 H   0  0  0  0  0  0  0  0  0  0  0  0
   -3.0413    3.2244   -1.7224 C   0  0  0  0  0  0  0  0  0  0  0  0
   -3.5110    4.1580   -2.0677 H   0  0  0  0  0  0  0  0  0  0  0  0
   -3.8131    2.2141   -1.1348 C   0  0  0  0  0  0  0  0  0  0  0  0
   -4.8989    2.3352   -1.0222 H   0  0  0  0  0  0  0  0  0  0  0  0
   -3.1947    1.0362   -0.6833 C   0  0  0  0  0  0  0  0  0  0  0  0
    0.3821    1.5687   -1.5357 C   0  0  2  0  0  0  0  0  0  0  0  0
    0.8951    2.5300   -1.2939 H   0  0  0  0  0  0  0  0  0  0  0  0
    0.7036    1.2783   -3.0211 C   0  0  0  0  0  0  0  0  0  0  0  0
    1.7934    1.1342   -3.1449 H   0  0  0  0  0  0  0  0  0  0  0  0
    0.3907    2.1150   -3.6782 H   0  0  0  0  0  0  0  0  0  0  0  0
    0.1853    0.3574   -3.3564 H   0  0  0  0  0  0  0  0  0  0  0  0
    0.8424    0.5257   -0.6264 N   0  0  0  0  0  2  0  0  0  0  0  0
    2.2216    0.6363   -0.2720 C   0  0  0  0  0  0  0  0  0  0  0  0
    2.6315    1.6230    0.6831 C   0  0  0  0  0  0  0  0  0  0  0  0
    3.9822    1.6888    1.0690 C   0  0  0  0  0  0  0  0  0  0  0  0
    4.2943    2.4420    1.8101 H   0  0  0  0  0  0  0  0  0  0  0  0
    4.9335    0.8072    0.5419 C   0  0  0  0  0  0  0  0  0  0  0  0
    5.9842    0.8655    0.8648 H   0  0  0  0  0  0  0  0  0  0  0  0
    4.5359   -0.1464   -0.4016 C   0  0  0  0  0  0  0  0  0  0  0  0
    5.2855   -0.8342   -0.8242 H   0  0  0  0  0  0  0  0  0  0  0  0
    3.1991   -0.2404   -0.8339 C   0  0  0  0  0  0  0  0  0  0  0  0
    1.6381    2.6067    1.2972 C   0  0  0  0  0  0  0  0  0  0  0  0
    0.6308    2.3109    0.9399 H   0  0  0  0  0  0  0  0  0  0  0  0
    1.6041    2.5386    2.8330 C   0  0  0  0  0  0  0  0  0  0  0  0
    1.3437    1.5221    3.1878 H   0  0  0  0  0  0  0  0  0  0  0  0
    0.8453    3.2402    3.2366 H   0  0  0  0  0  0  0  0  0  0  0  0
    2.5827    2.8128    3.2783 H   0  0  0  0  0  0  0  0  0  0  0  0
    1.9099    4.0475    0.8277 C   0  0  0  0  0  0  0  0  0  0  0  0
    1.1332    4.7425    1.2093 H   0  0  0  0  0  0  0  0  0  0  0  0
    1.9264    4.1231   -0.2787 H   0  0  0  0  0  0  0  0  0  0  0  0
    2.8937    4.4082    1.1944 H   0  0  0  0  0  0  0  0  0  0  0  0
    2.8362   -1.2707   -1.8963 C   0  0  0  0  0  0  0  0  0  0  0  0
    1.7666   -1.1030   -2.1349 H   0  0  0  0  0  0  0  0  0  0  0  0
    2.9675   -2.7065   -1.3676 C   0  0  0  0  0  0  0  0  0  0  0  0
    4.0182   -2.9436   -1.0989 H   0  0  0  0  0  0  0  0  0  0  0  0
    2.6412   -3.4417   -2.1328 H   0  0  0  0  0  0  0  0  0  0  0  0
    2.3436   -2.8370   -0.4652 H   0  0  0  0  0  0  0  0  0  0  0  0
    3.6504   -1.0814   -3.1866 C   0  0  0  0  0  0  0  0  0  0  0  0
    3.5668   -0.0487   -3.5818 H   0  0  0  0  0  0  0  0  0  0  0  0
    3.3011   -1.7800   -3.9750 H   0  0  0  0  0  0  0  0  0  0  0  0
    4.7289   -1.2842   -3.0206 H   0  0  0  0  0  0  0  0  0  0  0  0
   -4.0096   -0.1142   -0.1248 C   0  0  0  0  0  0  0  0  0  0  0  0
   -3.3174   -0.6790    0.5348 H   0  0  0  0  0  0  0  0  0  0  0  0
   -4.4408   -1.0288   -1.2859 C   0  0  0  0  0  0  0  0  0  0  0  0
   -5.1097   -0.4861   -1.9864 H   0  0  0  0  0  0  0  0  0  0  0  0
   -4.9915   -1.9113   -0.9023 H   0  0  0  0  0  0  0  0  0  0  0  0
   -3.5607   -1.3893   -1.8509 H   0  0  0  0  0  0  0  0  0  0  0  0
   -5.2179    0.3256    0.7116 C   0  0  0  0  0  0  0  0  0  0  0  0
   -6.0084    0.7976    0.0911 H   0  0  0  0  0  0  0  0  0  0  0  0
   -4.9294    1.0418    1.5063 H   0  0  0  0  0  0  0  0  0  0  0  0
   -5.6776   -0.5566    1.2003 H   0  0  0  0  0  0  0  0  0  0  0  0
  1  9  1  0  0  0  0
  2 10  1  6  0  0  0
  2  1  1  0  0  0  0
  3  5  2  0  0  0  0
  3  2  1  0  0  0  0
  4  3  1  0  0  0  0
  5  7  1  0  0  0  0
  6  5  1  0  0  0  0
  7  8  1  0  0  0  0
  7  9  2  0  0  0  0
  9 46  1  0  0  0  0
 10 11  1  1  0  0  0
 10 16  1  0  0  0  0
 12 10  1  0  0  0  0
 13 12  1  0  0  0  0
 14 12  1  0  0  0  0
 15 12  1  0  0  0  0
 16 17  1  0  0  0  0
 17 18  1  0  0  0  0
 18 19  2  0  0  0  0
 18 26  1  0  0  0  0
 19 20  1  0  0  0  0
 21 22  1  0  0  0  0
 21 19  1  0  0  0  0
 23 21  2  0  0  0  0
 24 23  1  0  0  0  0
 25 23  1  0  0  0  0
 25 17  2  0  0  0  0
 26 28  1  0  0  0  0
 27 26  1  0  0  0  0
 28 29  1  0  0  0  0
 28 30  1  0  0  0  0
 28 31  1  0  0  0  0
 32 35  1  0  0  0  0
 32 33  1  0  0  0  0
 32 26  1  0  0  0  0
 34 32  1  0  0  0  0
 36 38  1  0  0  0  0
 36 25  1  0  0  0  0
 37 36  1  0  0  0  0
 38 39  1  0  0  0  0
 38 41  1  0  0  0  0
 40 38  1  0  0  0  0
 42 45  1  0  0  0  0
 42 36  1  0  0  0  0
 43 42  1  0  0  0  0
 44 42  1  0  0  0  0
 46 47  1  0  0  0  0
 46 52  1  0  0  0  0
 48 50  1  0  0  0  0
 48 46  1  0  0  0  0
 49 48  1  0  0  0  0
 51 48  1  0  0  0  0
 52 55  1  0  0  0  0
 52 54  1  0  0  0  0
 53 52  1  0  0  0  0
M  END
