10,17
q = -1.0, confidence = 0.008

 80 88  0  0  1  0  0  0  0  0999 V2000
   -7.2372    0.1235   -0.9143 F   0  0  0  0  0  0  0  0  0  0  0  0
   -4.5989    0.4278   -1.4885 F   0  0  0  0  0  0  0  0  0  0  0  0
   -8.0024   -1.0058    1.4600 F   0  0  0  0  0  0  0  0  0  0  0  0
   -3.4725   -1.5030    2.7103 F   0  0  0  0  0  0  0  0  0  0  0  0
   -6.1118   -1.8208    3.2656 F   0  0  0  0  0  0  0  0  0  0  0  0
   -6.3115   -0.2706   -0.0346 C   0  0  0  0  0  0  0  0  0  0  0  0
    0.4650    3.5250   -0.3575 C   0  0  2  0  0  3  0  0  0  0  0  0
    1.8104    3.0328   -0.0205 C   0  0  0  0  0  0  0  0  0  0  0  0
   -2.0215    0.9845    0.1759 C   0  0  0  0  0  0  0  0  0  0  0  0
   -0.3702   -1.4970   -0.2553 N   0  0  0  0  0  0  0  0  0  0  0  0
   -6.7062   -0.8533    1.1819 C   0  0  0  0  0  0  0  0  0  0  0  0
    3.4526    1.0847    2.8204 C   0  0  0  0  0  0  0  0  0  0  0  0
    3.3802    1.7449    4.0635 C   0  0  0  0  0  0  0  0  0  0  0  0
    3.2277    2.8350    4.0770 H   0  0  0  0  0  0  0  0  0  0  0  0
    2.9489    3.4274   -0.7667 C   0  0  0  0  0  0  0  0  0  0  0  0
    2.8132    4.0384   -1.6706 H   0  0  0  0  0  0  0  0  0  0  0  0
   -0.7507    1.3483   -0.1980 N   0  0  0  0  0  2  0  0  0  0  0  0
    3.4972    1.0327    5.2656 C   0  0  0  0  0  0  0  0  0  0  0  0
    3.4412    1.5653    6.2270 H   0  0  0  0  0  0  0  0  0  0  0  0
    1.9772   -7.2445   -2.1070 C   0  0  0  0  0  0  0  0  0  0  0  0
    2.1349   -8.2569   -2.5087 H   0  0  0  0  0  0  0  0  0  0  0  0
    0.3175    4.9199   -0.8049 C   0  0  0  0  0  0  0  0  0  0  0  0
    3.6714   -1.0536    1.4916 C   0  0  0  0  0  0  0  0  0  0  0  0
    3.7447   -1.0265    4.0058 C   0  0  0  0  0  0  0  0  0  0  0  0
    3.8787   -2.1186    3.9738 H   0  0  0  0  0  0  0  0  0  0  0  0
   -2.5028   -0.3447    0.2758 C   0  0  0  0  0  0  0  0  0  0  0  0
    3.6372   -0.3197    2.7913 C   0  0  0  0  0  0  0  0  0  0  0  0
   -2.8017    2.1795    0.4468 C   0  0  0  0  0  0  0  0  0  0  0  0
   -3.8278    2.1880    0.8307 H   0  0  0  0  0  0  0  0  0  0  0  0
    2.5362   -2.4854   -0.1520 C   0  0  0  0  0  0  0  0  0  0  0  0
    1.1402    5.9521   -0.2837 C   0  0  0  0  0  0  0  0  0  0  0  0
    1.8919    5.7028    0.4795 H   0  0  0  0  0  0  0  0  0  0  0  0
   -4.3735   -1.1049    1.8033 C   0  0  0  0  0  0  0  0  0  0  0  0
    1.3588   -3.2795   -0.5376 C   0  0  1  0  0  3  0  0  0  0  0  0
    4.2277    3.0178   -0.3771 C   0  0  0  0  0  0  0  0  0  0  0  0
    5.1023    3.3137   -0.9760 H   0  0  0  0  0  0  0  0  0  0  0  0
    2.0032    2.2313    1.1314 C   0  0  0  0  0  0  0  0  0  0  0  0
    1.1306    1.9312    1.7288 H   0  0  0  0  0  0  0  0  0  0  0  0
   -1.9978    3.2605    0.1840 C   0  0  0  0  0  0  0  0  0  0  0  0
   -2.2285    4.3214    0.3302 H   0  0  0  0  0  0  0  0  0  0  0  0
    2.8076   -6.7530   -1.0842 C   0  0  0  0  0  0  0  0  0  0  0  0
    3.6097   -7.3856   -0.6746 H   0  0  0  0  0  0  0  0  0  0  0  0
   -4.9442   -0.1192   -0.3168 C   0  0  0  0  0  0  0  0  0  0  0  0
    1.5757   -4.6351   -1.0735 C   0  0  0  0  0  0  0  0  0  0  0  0
   -1.1013   -3.6876   -0.0841 C   0  0  0  0  0  0  0  0  0  0  0  0
   -1.0630   -4.7814   -0.0394 H   0  0  0  0  0  0  0  0  0  0  0  0
    3.7378   -2.5458   -0.9015 C   0  0  0  0  0  0  0  0  0  0  0  0
    3.7597   -3.1264   -1.8349 H   0  0  0  0  0  0  0  0  0  0  0  0
    0.0108    7.6032   -1.6686 C   0  0  0  0  0  0  0  0  0  0  0  0
   -0.1061    8.6447   -2.0046 H   0  0  0  0  0  0  0  0  0  0  0  0
   -0.6904    2.7437   -0.1824 C   0  0  1  0  0  3  0  0  0  0  0  0
    0.7555   -5.1419   -2.1138 C   0  0  0  0  0  0  0  0  0  0  0  0
   -0.0205   -4.4915   -2.5434 H   0  0  0  0  0  0  0  0  0  0  0  0
   -3.9455   -0.5303    0.5895 C   0  0  0  0  0  0  0  0  0  0  0  0
    3.2881    1.8568    1.5531 C   0  0  0  0  0  0  0  0  0  0  0  0
    4.8494   -1.1121    0.7169 C   0  0  0  0  0  0  0  0  0  0  0  0
    5.7544   -0.5963    1.0698 H   0  0  0  0  0  0  0  0  0  0  0  0
   -2.1618   -2.8707    0.2172 C   0  0  0  0  0  0  0  0  0  0  0  0
   -3.1687   -3.1752    0.5216 H   0  0  0  0  0  0  0  0  0  0  0  0
    4.8735   -1.8492   -0.4777 C   0  0  0  0  0  0  0  0  0  0  0  0
    5.7945   -1.8880   -1.0789 H   0  0  0  0  0  0  0  0  0  0  0  0
    3.6801   -0.3580    5.2366 C   0  0  0  0  0  0  0  0  0  0  0  0
    3.7687   -0.9260    6.1751 H   0  0  0  0  0  0  0  0  0  0  0  0
    2.5213   -1.7178    1.0384 C   0  0  0  0  0  0  0  0  0  0  0  0
    1.6009   -1.6740    1.6378 H   0  0  0  0  0  0  0  0  0  0  0  0
   -0.8022    6.5922   -2.2061 C   0  0  0  0  0  0  0  0  0  0  0  0
   -1.5511    6.8364   -2.9747 H   0  0  0  0  0  0  0  0  0  0  0  0
    0.9534   -6.4323   -2.6208 C   0  0  0  0  0  0  0  0  0  0  0  0
    0.3128   -6.8015   -3.4362 H   0  0  0  0  0  0  0  0  0  0  0  0
   -5.7344   -1.2750    2.1053 C   0  0  0  0  0  0  0  0  0  0  0  0
    0.9831    7.2760   -0.7068 C   0  0  0  0  0  0  0  0  0  0  0  0
    1.6208    8.0643   -0.2786 H   0  0  0  0  0  0  0  0  0  0  0  0
   -0.6498    5.2658   -1.7837 C   0  0  0  0  0  0  0  0  0  0  0  0
   -1.2586    4.4682   -2.2343 H   0  0  0  0  0  0  0  0  0  0  0  0
    4.4041    2.2439    0.7811 C   0  0  0  0  0  0  0  0  0  0  0  0
    5.4139    1.9564    1.1085 H   0  0  0  0  0  0  0  0  0  0  0  0
    0.0420   -2.8302   -0.3449 C   0  0  0  0  0  0  0  0  0  0  0  0
   -1.7003   -1.4985    0.0937 C   0  0  0  0  0  3  0  0  0  0  0  0
    2.6154   -5.4634   -0.5776 C   0  0  0  0  0  0  0  0  0  0  0  0
    3.2588   -5.0872    0.2313 H   0  0  0  0  0  0  0  0  0  0  0  0
  1  6  1  0  0  0  0
  2 43  1  0  0  0  0
  6 11  1  0  0  0  0
  7 22  1  1  0  0  0
  7 51  1  0  0  0  0
  7  8  1  0  0  0  0
  8 37  1  0  0  0  0
  9 26  2  0  0  0  0
  9 28  1  0  0  0  0
 10 78  1  0  0  0  0
 11  3  1  0  0  0  0
 11 70  2  0  0  0  0
 12 13  1  0  0  0  0
 13 14  1  0  0  0  0
 13 18  2  0  0  0  0
 15 35  1  0  0  0  0
 15  8  2  0  0  0  0
 16 15  1  0  0  0  0
 17  9  1  0  0  0  0
 18 19  1  0  0  0  0
 20 41  1  0  0  0  0
 21 20  1  0  0  0  0
 22 31  1  0  0  0  0
 23 27  1  0  0  0  0
 24 62  2  0  0  0  0
 25 24  1  0  0  0  0
 26 54  1  0  0  0  0
 27 12  2  0  0  0  0
 27 24  1  0  0  0  0
 28 29  1  0  0  0  0
 30 64  2  0  0  0  0
 31 32  1  0  0  0  0
 33 70  1  0  0  0  0
 33  4  1  0  0  0  0
 34 44  1  1  0  0  0
 34 77  1  0  0  0  0
 34 30  1  0  0  0  0
 35 75  2  0  0  0  0
 36 35  1  0  0  0  0
 37 55  2  0  0  0  0
 37 38  1  0  0  0  0
 39 40  1  0  0  0  0
 39 28  2  0  0  0  0
 41 42  1  0  0  0  0
 41 79  2  0  0  0  0
 43  6  2  0  0  0  0
 43 54  1  0  0  0  0
 44 79  1  0  0  0  0
 45 46  1  0  0  0  0
 45 58  2  0  0  0  0
 47 60  2  0  0  0  0
 47 30  1  0  0  0  0
 48 47  1  0  0  0  0
 49 71  1  0  0  0  0
 50 49  1  0  0  0  0
 51 17  1  1  0  0  0
 51 39  1  0  0  0  0
 52 44  2  0  0  0  0
 53 52  1  0  0  0  0
 54 33  2  0  0  0  0
 55 12  1  0  0  0  0
 56 57  1  0  0  0  0
 56 23  2  0  0  0  0
 58 59  1  0  0  0  0
 60 56  1  0  0  0  0
 61 60  1  0  0  0  0
 62 18  1  0  0  0  0
 62 63  1  0  0  0  0
 64 23  1  0  0  0  0
 64 65  1  0  0  0  0
 66 73  1  0  0  0  0
 66 49  2  0  0  0  0
 67 66  1  0  0  0  0
 68 52  1  0  0  0  0
 68 20  2  0  0  0  0
 69 68  1  0  0  0  0
 70  5  1  0  0  0  0
 71 31  2  0  0  0  0
 71 72  1  0  0  0  0
 73 22  2  0  0  0  0
 74 73  1  0  0  0  0
 75 76  1  0  0  0  0
 75 55  1  0  0  0  0
 77 10  2  0  0  0  0
 77 45  1  0  0  0  0
 78 58  1  0  0  0  0
 78 26  1  0  0  0  0
 79 80  1  0  0  0  0
M  END
