3,4
q = -1.0, confidence = 0.002

 54 55  0  0  1  0  0  0  0  0999 V2000
   -3.1282   -1.0958   -0.9427 Si  0  0  0  0  0  0  0  0  0  0  0  0
    2.7503   -1.1546   -1.5138 Si  0  0  0  0  0  0  0  0  0  0  0  0
   -1.5991   -0.3462   -0.3860 N   0  0  0  0  0  2  0  0  0  0  0  0
    1.4165   -0.3969   -0.5990 N   0  0  0  0  0  2  0  0  0  0  0  0
   -1.3255    0.9500   -0.2095 C   0  0  2  0  0  3  0  0  0  0  0  0
   -0.0265    1.5118   -0.0736 C   0  0  0  0  0  0  0  0  0  0  0  0
    0.0051    2.5761    0.1959 H   0  0  0  0  0  0  0  0  0  0  0  0
    1.2290    0.8991   -0.3285 C   0  0  0  0  0  0  0  0  0  0  0  0
   -2.4496    1.9417   -0.0951 C   0  0  0  0  0  0  0  0  0  0  0  0
   -3.4424    1.7708    0.8923 C   0  0  0  0  0  0  0  0  0  0  0  0
   -3.3793    0.9078    1.5716 H   0  0  0  0  0  0  0  0  0  0  0  0
   -4.4964    2.6876    1.0130 C   0  0  0  0  0  0  0  0  0  0  0  0
   -5.2591    2.5456    1.7939 H   0  0  0  0  0  0  0  0  0  0  0  0
   -4.5789    3.7832    0.1382 C   0  0  0  0  0  0  0  0  0  0  0  0
   -5.4114    4.4979    0.2246 H   0  0  0  0  0  0  0  0  0  0  0  0
   -3.5915    3.9662   -0.8437 C   0  0  0  0  0  0  0  0  0  0  0  0
   -3.6526    4.8225   -1.5328 H   0  0  0  0  0  0  0  0  0  0  0  0
   -2.5273    3.0592   -0.9508 C   0  0  0  0  0  0  0  0  0  0  0  0
   -1.7520    3.1970   -1.7199 H   0  0  0  0  0  0  0  0  0  0  0  0
    2.4140    1.8180   -0.2371 C   0  0  0  0  0  0  0  0  0  0  0  0
    2.4689    3.0370   -0.9434 C   0  0  0  0  0  0  0  0  0  0  0  0
    1.6265    3.3159   -1.5946 H   0  0  0  0  0  0  0  0  0  0  0  0
    3.5935    3.8690   -0.8442 C   0  0  0  0  0  0  0  0  0  0  0  0
    3.6326    4.8070   -1.4189 H   0  0  0  0  0  0  0  0  0  0  0  0
    4.6696    3.5070   -0.0174 C   0  0  0  0  0  0  0  0  0  0  0  0
    5.5497    4.1629    0.0632 H   0  0  0  0  0  0  0  0  0  0  0  0
    4.6159    2.3059    0.7087 C   0  0  0  0  0  0  0  0  0  0  0  0
    5.4500    2.0216    1.3684 H   0  0  0  0  0  0  0  0  0  0  0  0
    3.4994    1.4662    0.5936 C   0  0  0  0  0  0  0  0  0  0  0  0
    3.4543    0.5219    1.1562 H   0  0  0  0  0  0  0  0  0  0  0  0
   -4.0410   -1.8239    0.5462 C   0  0  0  0  0  0  0  0  0  0  0  0
   -4.5615   -1.0409    1.1330 H   0  0  0  0  0  0  0  0  0  0  0  0
   -3.3282   -2.3456    1.2165 H   0  0  0  0  0  0  0  0  0  0  0  0
   -4.8006   -2.5628    0.2168 H   0  0  0  0  0  0  0  0  0  0  0  0
   -2.6000   -2.4961   -2.0968 C   0  0  0  0  0  0  0  0  0  0  0  0
   -2.0015   -2.1001   -2.9433 H   0  0  0  0  0  0  0  0  0  0  0  0
   -3.4921   -3.0051   -2.5174 H   0  0  0  0  0  0  0  0  0  0  0  0
   -1.9834   -3.2523   -1.5725 H   0  0  0  0  0  0  0  0  0  0  0  0
   -4.2542    0.0557   -1.9373 C   0  0  0  0  0  0  0  0  0  0  0  0
   -3.6786    0.5886   -2.7214 H   0  0  0  0  0  0  0  0  0  0  0  0
   -4.7684    0.8145   -1.3175 H   0  0  0  0  0  0  0  0  0  0  0  0
   -5.0265   -0.5596   -2.4454 H   0  0  0  0  0  0  0  0  0  0  0  0
    1.9003   -2.2860   -2.7687 C   0  0  0  0  0  0  0  0  0  0  0  0
    1.2862   -3.0599   -2.2665 H   0  0  0  0  0  0  0  0  0  0  0  0
    2.6497   -2.7992   -3.4066 H   0  0  0  0  0  0  0  0  0  0  0  0
    1.2321   -1.6965   -3.4299 H   0  0  0  0  0  0  0  0  0  0  0  0
    3.8199   -2.2101   -0.3636 C   0  0  0  0  0  0  0  0  0  0  0  0
    3.1972   -2.9354    0.1979 H   0  0  0  0  0  0  0  0  0  0  0  0
    4.3814   -1.5908    0.3647 H   0  0  0  0  0  0  0  0  0  0  0  0
    4.5597   -2.7879   -0.9559 H   0  0  0  0  0  0  0  0  0  0  0  0
    3.8283    0.0611   -2.4849 C   0  0  0  0  0  0  0  0  0  0  0  0
    4.5034    0.6600   -1.8442 H   0  0  0  0  0  0  0  0  0  0  0  0
    3.2026    0.7653   -3.0699 H   0  0  0  0  0  0  0  0  0  0  0  0
    4.4504   -0.5145   -3.2026 H   0  0  0  0  0  0  0  0  0  0  0  0
  1  3  1  0  0  0  0
  1 31  1  0  0  0  0
  2  4  1  0  0  0  0
  2 47  1  0  0  0  0
  4  8  1  0  0  0  0
  5  3  1  1  0  0  0
  5  9  1  0  0  0  0
  5  6  1  0  0  0  0
  6  7  1  0  0  0  0
  8 20  1  0  0  0  0
  8  6  2  0  0  0  0
  9 10  1  0  0  0  0
 10 12  2  0  0  0  0
 10 11  1  0  0  0  0
 12 13  1  0  0  0  0
 14 15  1  0  0  0  0
 14 12  1  0  0  0  0
 16 14  2  0  0  0  0
 17 16  1  0  0  0  0
 18 16  1  0  0  0  0
 18  9  2  0  0  0  0
 19 18  1  0  0  0  0
 20 29  1  0  0  0  0
 21 23  1  0  0  0  0
 21 20  2  0  0  0  0
 22 21  1  0  0  0  0
 23 25  2  0  0  0  0
 24 23  1  0  0  0  0
 25 26  1  0  0  0  0
 25 27  1  0  0  0  0
 27 28  1  0  0  0  0
 29 27  2  0  0  0  0
 29 30  1  0  0  0  0
 31 32  1  0  0  0  0
 31 33  1  0  0  0  0
 34 31  1  0  0  0  0
 35 38  1  0  0  0  0
 35  1  1  0  0  0  0
 36 35  1  0  0  0  0
 37 35  1  0  0  0  0
 39 41  1  0  0  0  0
 39  1  1  0  0  0  0
 40 39  1  0  0  0  0
 42 39  1  0  0  0  0
 43 44  1  0  0  0  0
 43  2  1  0  0  0  0
 45 43  1  0  0  0  0
 46 43  1  0  0  0  0
 47 48  1  0  0  0  0
 47 49  1  0  0  0  0
 50 47  1  0  0  0  0
 51 52  1  0  0  0  0
 51  2  1  0  0  0  0
 53 51  1  0  0  0  0
 54 51  1  0  0  0  0
M  END
