1,5
q = 0.0, confidence = 0.97

 36 36  0  0  0  0  0  0  0  0999 V2000
    0.2807    0.7150    0.0368 N   0  0  0  0  0  2  0  0  0  0  0  0
    1.0388   -0.4029   -0.0374 C   0  0  0  0  0  0  0  0  0  0  0  0
    0.2207   -1.5689   -0.0959 C   0  0  0  0  0  0  0  0  0  0  0  0
    0.6081   -2.5910   -0.2300 H   0  0  0  0  0  0  0  0  0  0  0  0
   -1.0870   -1.3164   -0.0632 N   0  0  0  0  0  2  0  0  0  0  0  0
   -2.0850   -2.3683   -0.3166 C   0  0  0  0  0  0  0  0  0  0  0  0
   -1.6582   -3.3141    0.0903 H   0  0  0  0  0  0  0  0  0  0  0  0
   -3.3887   -2.0560    0.4187 C   0  0  0  0  0  0  0  0  0  0  0  0
   -3.2184   -1.9154    1.5025 H   0  0  0  0  0  0  0  0  0  0  0  0
   -4.1126   -2.8807    0.2672 H   0  0  0  0  0  0  0  0  0  0  0  0
   -3.8456   -1.1282    0.0149 H   0  0  0  0  0  0  0  0  0  0  0  0
   -2.2925   -2.5216   -1.8293 C   0  0  0  0  0  0  0  0  0  0  0  0
   -2.6549   -1.5655   -2.2578 H   0  0  0  0  0  0  0  0  0  0  0  0
   -3.0395   -3.3140   -2.0345 H   0  0  0  0  0  0  0  0  0  0  0  0
   -1.3454   -2.7925   -2.3364 H   0  0  0  0  0  0  0  0  0  0  0  0
    0.8117    2.0851    0.0238 C   0  0  0  0  0  0  0  0  0  0  0  0
    1.8750    2.0256    0.3446 H   0  0  0  0  0  0  0  0  0  0  0  0
    0.0521    2.9602    1.0253 C   0  0  0  0  0  0  0  0  0  0  0  0
   -1.0109    3.0763    0.7249 H   0  0  0  0  0  0  0  0  0  0  0  0
    0.5018    3.9727    1.0477 H   0  0  0  0  0  0  0  0  0  0  0  0
    0.0742    2.5288    2.0430 H   0  0  0  0  0  0  0  0  0  0  0  0
    0.7398    2.6724   -1.3932 C   0  0  0  0  0  0  0  0  0  0  0  0
    1.2604    2.0325   -2.1324 H   0  0  0  0  0  0  0  0  0  0  0  0
    1.2046    3.6783   -1.4101 H   0  0  0  0  0  0  0  0  0  0  0  0
   -0.3164    2.7560   -1.7172 H   0  0  0  0  0  0  0  0  0  0  0  0
    2.5145   -0.4914   -0.0316 C   0  0  0  0  0  0  0  0  0  0  0  0
    3.1205   -1.4771    0.7869 C   0  0  0  0  0  0  0  0  0  0  0  0
    2.4838   -2.1056    1.4277 H   0  0  0  0  0  0  0  0  0  0  0  0
    4.5115   -1.6357    0.8159 C   0  0  0  0  0  0  0  0  0  0  0  0
    4.9579   -2.4023    1.4673 H   0  0  0  0  0  0  0  0  0  0  0  0
    5.3336   -0.8126    0.0296 C   0  0  0  0  0  0  0  0  0  0  0  0
    6.4269   -0.9335    0.0547 H   0  0  0  0  0  0  0  0  0  0  0  0
    4.7483    0.1636   -0.7918 C   0  0  0  0  0  0  0  0  0  0  0  0
    5.3816    0.8043   -1.4239 H   0  0  0  0  0  0  0  0  0  0  0  0
    3.3562    0.3214   -0.8280 C   0  0  0  0  0  0  0  0  0  0  0  0
    2.9178    1.0626   -1.5089 H   0  0  0  0  0  0  0  0  0  0  0  0
  2 26  1  0  0  0  0
  2  1  1  0  0  0  0
  3  5  1  0  0  0  0
  3  2  2  0  0  0  0
  4  3  1  0  0  0  0
  6  5  1  0  0  0  0
  6  7  1  0  0  0  0
  6  8  1  0  0  0  0
  8  9  1  0  0  0  0
 10  8  1  0  0  0  0
 11  8  1  0  0  0  0
 12  6  1  0  0  0  0
 13 12  1  0  0  0  0
 14 12  1  0  0  0  0
 15 12  1  0  0  0  0
 16  1  1  0  0  0  0
 16 17  1  0  0  0  0
 16 18  1  0  0  0  0
 18 20  1  0  0  0  0
 18 21  1  0  0  0  0
 19 18  1  0  0  0  0
 22 16  1  0  0  0  0
 23 22  1  0  0  0  0
 24 22  1  0  0  0  0
 25 22  1  0  0  0  0
 26 27  1  0  0  0  0
 27 29  2  0  0  0  0
 27 28  1  0  0  0  0
 29 30  1  0  0  0  0
 31 32  1  0  0  0  0
 31 29  1  0  0  0  0
 33 31  2  0  0  0  0
 34 33  1  0  0  0  0
 35 33  1  0  0  0  0
 35 26  2  0  0  0  0
 36 35  1  0  0  0  0
M  END
