2,4
q = -1.0, confidence = 0.002

 18 18  0  0  1  0  0  0  0  0999 V2000
   -3.1323   -2.5938   -2.2237 O   0  0  0  0  0  0  0  0  0  0  0  0
   -2.2640   -0.3701    0.4108 N   0  0  0  0  0  2  0  0  0  0  0  0
   -3.0301   -1.1589   -0.3932 N   0  0  0  0  0  0  0  0  0  0  0  0
   -1.1393   -1.4850   -1.6810 N   0  0  0  0  0  2  0  0  0  0  0  0
   -0.6753   -1.9872   -2.4439 H   0  0  0  0  0  0  0  0  0  0  0  0
   -4.3258   -1.2121    0.0493 C   0  0  1  0  0  3  0  0  0  0  0  0
   -4.3725   -0.4076    1.1919 C   0  0  0  0  0  0  0  0  0  0  0  0
   -5.2541   -0.2126    1.8115 H   0  0  0  0  0  0  0  0  0  0  0  0
   -3.0648    0.1040    1.3859 C   0  0  0  0  0  0  0  0  0  0  0  0
   -2.4215   -1.8430   -1.5573 C   0  0  0  0  0  0  0  0  0  0  0  0
   -5.4085   -1.9953   -0.6132 C   0  0  0  0  0  0  0  0  0  0  0  0
   -5.1566   -3.0725   -0.6572 H   0  0  0  0  0  0  0  0  0  0  0  0
   -5.5473   -1.6806   -1.6657 H   0  0  0  0  0  0  0  0  0  0  0  0
   -6.3554   -1.8566   -0.0584 H   0  0  0  0  0  0  0  0  0  0  0  0
   -2.5627    1.0184    2.4557 C   0  0  0  0  0  0  0  0  0  0  0  0
   -2.2526    1.9970    2.0368 H   0  0  0  0  0  0  0  0  0  0  0  0
   -1.6688    0.6010    2.9598 H   0  0  0  0  0  0  0  0  0  0  0  0
   -3.3501    1.1955    3.2112 H   0  0  0  0  0  0  0  0  0  0  0  0
  1 10  2  0  0  0  0
  2  9  1  0  0  0  0
  3  6  1  0  0  0  0
  3  2  1  0  0  0  0
  4 10  1  0  0  0  0
  5  4  1  0  0  0  0
  6 11  1  6  0  0  0
  6  7  1  0  0  0  0
  7  9  2  0  0  0  0
  7  8  1  0  0  0  0
  9 15  1  0  0  0  0
 10  3  1  0  0  0  0
 11 14  1  0  0  0  0
 12 11  1  0  0  0  0
 13 11  1  0  0  0  0
 15 17  1  0  0  0  0
 15 18  1  0  0  0  0
 16 15  1  0  0  0  0
M  END
