1,4
q = 0.0, confidence = 0.966

 50 50  0  0  0  0  0  0  0  0999 V2000
   -1.5539    0.6180    0.2740 N   0  0  0  0  0  2  0  0  0  0  0  0
   -3.3525   -0.5786    1.1806 N   0  0  0  0  0  0  0  0  0  0  0  0
   -3.6819    0.6802   -0.7724 N   0  0  0  0  0  0  0  0  0  0  0  0
    1.0568    0.9994    0.1383 N   0  0  0  0  0  2  0  0  0  0  0  0
    2.8803    0.3656    1.4670 N   0  0  0  0  0  0  0  0  0  0  0  0
    3.2349    1.7276   -0.4184 N   0  0  0  0  0  0  0  0  0  0  0  0
   -1.1398    1.9559    0.0728 C   0  0  0  0  0  0  0  0  0  0  0  0
    0.2674    2.1669   -0.0118 C   0  0  0  0  0  0  0  0  0  0  0  0
    0.7607    3.4866   -0.0899 C   0  0  0  0  0  0  0  0  0  0  0  0
    1.8415    3.6695   -0.1071 H   0  0  0  0  0  0  0  0  0  0  0  0
   -0.1168    4.5792   -0.1074 C   0  0  0  0  0  0  0  0  0  0  0  0
    0.2900    5.5984   -0.1751 H   0  0  0  0  0  0  0  0  0  0  0  0
   -1.5006    4.3717   -0.0176 C   0  0  0  0  0  0  0  0  0  0  0  0
   -2.1931    5.2257   -0.0103 H   0  0  0  0  0  0  0  0  0  0  0  0
   -2.0058    3.0694    0.0882 C   0  0  0  0  0  0  0  0  0  0  0  0
   -3.0864    2.9184    0.2145 H   0  0  0  0  0  0  0  0  0  0  0  0
   -2.8583    0.2479    0.2273 C   0  0  0  0  0  3  0  0  0  0  0  0
   -2.6735   -0.7328    2.4606 C   0  0  0  0  0  0  0  0  0  0  0  0
   -2.0379   -1.6439    2.4525 H   0  0  0  0  0  0  0  0  0  0  0  0
   -3.4317   -0.8270    3.2639 H   0  0  0  0  0  0  0  0  0  0  0  0
   -2.0357    0.1467    2.6548 H   0  0  0  0  0  0  0  0  0  0  0  0
   -4.3927   -1.5643    0.9008 C   0  0  0  0  0  0  0  0  0  0  0  0
   -5.3330   -1.3376    1.4454 H   0  0  0  0  0  0  0  0  0  0  0  0
   -4.0260   -2.5619    1.2148 H   0  0  0  0  0  0  0  0  0  0  0  0
   -4.5915   -1.6073   -0.1834 H   0  0  0  0  0  0  0  0  0  0  0  0
   -5.0894    0.9949   -0.5577 C   0  0  0  0  0  0  0  0  0  0  0  0
   -5.3304    0.9459    0.5188 H   0  0  0  0  0  0  0  0  0  0  0  0
   -5.7623    0.3061   -1.1106 H   0  0  0  0  0  0  0  0  0  0  0  0
   -5.2900    2.0284   -0.9134 H   0  0  0  0  0  0  0  0  0  0  0  0
   -3.1449    1.0135   -2.0845 C   0  0  0  0  0  0  0  0  0  0  0  0
   -3.0441    2.1124   -2.2209 H   0  0  0  0  0  0  0  0  0  0  0  0
   -3.8273    0.6182   -2.8640 H   0  0  0  0  0  0  0  0  0  0  0  0
   -2.1501    0.5489   -2.2085 H   0  0  0  0  0  0  0  0  0  0  0  0
    2.3896    1.0316    0.3881 C   0  0  0  0  0  3  0  0  0  0  0  0
    2.9563    1.8538   -1.8429 C   0  0  0  0  0  0  0  0  0  0  0  0
    2.1731    1.1307   -2.1268 H   0  0  0  0  0  0  0  0  0  0  0  0
    3.8789    1.6215   -2.4125 H   0  0  0  0  0  0  0  0  0  0  0  0
    2.6198    2.8794   -2.1069 H   0  0  0  0  0  0  0  0  0  0  0  0
    4.4351    2.3964    0.0676 C   0  0  0  0  0  0  0  0  0  0  0  0
    4.4230    2.4452    1.1705 H   0  0  0  0  0  0  0  0  0  0  0  0
    4.4560    3.4345   -0.3257 H   0  0  0  0  0  0  0  0  0  0  0  0
    5.3634    1.8862   -0.2655 H   0  0  0  0  0  0  0  0  0  0  0  0
    4.2044   -0.2462    1.4865 C   0  0  0  0  0  0  0  0  0  0  0  0
    4.6042   -0.3024    0.4612 H   0  0  0  0  0  0  0  0  0  0  0  0
    4.1140   -1.2850    1.8657 H   0  0  0  0  0  0  0  0  0  0  0  0
    4.9065    0.2994    2.1516 H   0  0  0  0  0  0  0  0  0  0  0  0
    2.0444    0.1173    2.6364 C   0  0  0  0  0  0  0  0  0  0  0  0
    1.1655    0.7844    2.6205 H   0  0  0  0  0  0  0  0  0  0  0  0
    2.6370    0.3099    3.5544 H   0  0  0  0  0  0  0  0  0  0  0  0
    1.6798   -0.9323    2.6639 H   0  0  0  0  0  0  0  0  0  0  0  0
  2 18  1  0  0  0  0
  3 26  1  0  0  0  0
  3 17  1  0  0  0  0
  4 34  1  0  0  0  0
  5 43  1  0  0  0  0
  5 47  1  0  0  0  0
  6 39  1  0  0  0  0
  6 34  1  0  0  0  0
  7 15  1  0  0  0  0
  7  1  1  0  0  0  0
  8  7  2  0  0  0  0
  8  4  1  0  0  0  0
  9  8  1  0  0  0  0
 10  9  1  0  0  0  0
 11  9  2  0  0  0  0
 11 13  1  0  0  0  0
 12 11  1  0  0  0  0
 13 14  1  0  0  0  0
 13 15  2  0  0  0  0
 15 16  1  0  0  0  0
 17  1  1  0  0  0  0
 17  2  1  0  0  0  0
 18 21  1  0  0  0  0
 18 20  1  0  0  0  0
 19 18  1  0  0  0  0
 22  2  1  0  0  0  0
 22 24  1  0  0  0  0
 22 23  1  0  0  0  0
 25 22  1  0  0  0  0
 26 27  1  0  0  0  0
 28 26  1  0  0  0  0
 29 26  1  0  0  0  0
 30  3  1  0  0  0  0
 31 30  1  0  0  0  0
 32 30  1  0  0  0  0
 33 30  1  0  0  0  0
 34  5  1  0  0  0  0
 35  6  1  0  0  0  0
 36 35  1  0  0  0  0
 37 35  1  0  0  0  0
 38 35  1  0  0  0  0
 39 40  1  0  0  0  0
 41 39  1  0  0  0  0
 42 39  1  0  0  0  0
 43 45  1  0  0  0  0
 43 46  1  0  0  0  0
 44 43  1  0  0  0  0
 47 50  1  0  0  0  0
 47 49  1  0  0  0  0
 48 47  1  0  0  0  0
M  END
