4,5
q = -1.0

 47 49  0  0  1  0  0  0  0  0999 V2000
   -0.9554   -1.6264   -1.0515 S   0  0  0  0  0  0  0  0  0  0  0  0
   -0.3414   -2.9486   -0.7456 O   0  0  0  0  0  0  0  0  0  0  0  0
   -0.7267   -0.9925   -2.3763 O   0  0  0  0  0  0  0  0  0  0  0  0
    1.1903    1.2890    0.9362 N   0  0  0  0  0  0  0  0  0  0  0  0
   -0.5917   -0.5827    0.2265 N   0  0  0  0  0  2  0  0  0  0  0  0
   -0.2368    1.6898    0.9771 C   0  0  2  0  0  0  0  0  0  0  0  0
   -0.9491    0.8180   -0.0784 C   0  0  2  0  0  0  0  0  0  0  0  0
   -0.4459    3.1758    0.7720 C   0  0  0  0  0  0  0  0  0  0  0  0
    0.1483    3.8495   -0.3158 C   0  0  0  0  0  0  0  0  0  0  0  0
   -0.0954    5.2161   -0.5165 C   0  0  0  0  0  0  0  0  0  0  0  0
   -0.9381    5.9226    0.3567 C   0  0  0  0  0  0  0  0  0  0  0  0
   -1.5374    5.2562    1.4367 C   0  0  0  0  0  0  0  0  0  0  0  0
   -1.2894    3.8913    1.6424 C   0  0  0  0  0  0  0  0  0  0  0  0
   -2.4418    1.1087   -0.0280 C   0  0  0  0  0  0  0  0  0  0  0  0
   -3.0305    1.9575   -0.9812 C   0  0  0  0  0  0  0  0  0  0  0  0
   -4.3956    2.2738   -0.9068 C   0  0  0  0  0  0  0  0  0  0  0  0
   -5.1865    1.7379    0.1212 C   0  0  0  0  0  0  0  0  0  0  0  0
   -4.6033    0.8900    1.0785 C   0  0  0  0  0  0  0  0  0  0  0  0
   -3.2381    0.5841    1.0069 C   0  0  0  0  0  0  0  0  0  0  0  0
   -2.7332   -1.8873   -0.9030 C   0  0  0  0  0  0  0  0  0  0  0  0
   -3.2294   -2.6895    0.1332 C   0  0  0  0  0  0  0  0  0  0  0  0
   -4.6145   -2.8272    0.2859 C   0  0  0  0  0  0  0  0  0  0  0  0
   -5.5124   -2.1745   -0.5851 C   0  0  0  0  0  0  0  0  0  0  0  0
   -4.9804   -1.4073   -1.6424 C   0  0  0  0  0  0  0  0  0  0  0  0
   -3.5986   -1.2629   -1.8101 C   0  0  0  0  0  0  0  0  0  0  0  0
   -7.0025   -2.2626   -0.3804 C   0  0  0  0  0  0  0  0  0  0  0  0
    1.7296    1.7962    1.6502 H   0  0  0  0  0  0  0  0  0  0  0  0
    1.5788    1.5463   -0.0018 H   0  0  0  0  0  0  0  0  0  0  0  0
   -0.6336    1.4007    1.9731 H   0  0  0  0  0  0  0  0  0  0  0  0
   -0.5590    1.1198   -1.0777 H   0  0  0  0  0  0  0  0  0  0  0  0
    0.7976    3.3032   -1.0176 H   0  0  0  0  0  0  0  0  0  0  0  0
    0.3736    5.7316   -1.3684 H   0  0  0  0  0  0  0  0  0  0  0  0
   -1.1302    6.9940    0.1932 H   0  0  0  0  0  0  0  0  0  0  0  0
   -2.2042    5.8011    2.1221 H   0  0  0  0  0  0  0  0  0  0  0  0
   -1.7719    3.3634    2.4801 H   0  0  0  0  0  0  0  0  0  0  0  0
   -2.4081    2.3682   -1.7911 H   0  0  0  0  0  0  0  0  0  0  0  0
   -4.8454    2.9375   -1.6610 H   0  0  0  0  0  0  0  0  0  0  0  0
   -6.2597    1.9771    0.1755 H   0  0  0  0  0  0  0  0  0  0  0  0
   -5.2208    0.4568    1.8803 H   0  0  0  0  0  0  0  0  0  0  0  0
   -2.7760   -0.1029    1.7319 H   0  0  0  0  0  0  0  0  0  0  0  0
   -2.5284   -3.2018    0.8080 H   0  0  0  0  0  0  0  0  0  0  0  0
   -5.0124   -3.4522    1.1013 H   0  0  0  0  0  0  0  0  0  0  0  0
   -5.6644   -0.9010   -2.3415 H   0  0  0  0  0  0  0  0  0  0  0  0
   -3.1736   -0.6591   -2.6237 H   0  0  0  0  0  0  0  0  0  0  0  0
   -7.5359   -2.4490   -1.3344 H   0  0  0  0  0  0  0  0  0  0  0  0
   -7.3967   -1.3058    0.0258 H   0  0  0  0  0  0  0  0  0  0  0  0
   -7.2751   -3.0657    0.3313 H   0  0  0  0  0  0  0  0  0  0  0  0
  1 20  1  0  0  0  0
  1  2  2  0  0  0  0
  1  5  1  0  0  0  0
  3  1  2  0  0  0  0
  4  6  1  0  0  0  0
  4 27  1  0  0  0  0
  6 29  1  1  0  0  0
  7 30  1  6  0  0  0
  7 14  1  0  0  0  0
  7  5  1  0  0  0  0
  7  6  1  0  0  0  0
  8  6  1  0  0  0  0
  8 13  1  0  0  0  0
  9  8  2  0  0  0  0
 10  9  1  0  0  0  0
 10 11  2  0  0  0  0
 11 12  1  0  0  0  0
 12 13  2  0  0  0  0
 12 34  1  0  0  0  0
 13 35  1  0  0  0  0
 14 19  1  0  0  0  0
 15 16  1  0  0  0  0
 15 14  2  0  0  0  0
 16 17  2  0  0  0  0
 17 38  1  0  0  0  0
 17 18  1  0  0  0  0
 18 39  1  0  0  0  0
 19 18  2  0  0  0  0
 19 40  1  0  0  0  0
 20 21  1  0  0  0  0
 21 22  2  0  0  0  0
 21 41  1  0  0  0  0
 22 42  1  0  0  0  0
 23 26  1  0  0  0  0
 23 22  1  0  0  0  0
 24 23  2  0  0  0  0
 25 24  1  0  0  0  0
 25 20  2  0  0  0  0
 26 46  1  0  0  0  0
 26 47  1  0  0  0  0
 28  4  1  0  0  0  0
 31  9  1  0  0  0  0
 32 10  1  0  0  0  0
 33 11  1  0  0  0  0
 36 15  1  0  0  0  0
 37 16  1  0  0  0  0
 43 24  1  0  0  0  0
 44 25  1  0  0  0  0
 45 26  1  0  0  0  0
M  END
