1,2
q = 0.0, confidence = 0.994

 22 23  0  0  0  0  0  0  0  0999 V2000
    0.6614   -0.6855    0.0000 N   0  0  0  0  0  2  0  0  0  0  0  0
   -0.8601    1.5083    0.0000 N   0  0  0  0  0  2  0  0  0  0  0  0
    1.3234    0.5088   -0.0000 C   0  0  0  0  0  0  0  0  0  0  0  0
    0.4811    1.7186   -0.0001 C   0  0  0  0  0  0  0  0  0  0  0  0
   -1.6865    2.5695    0.0001 C   0  0  0  0  0  0  0  0  0  0  0  0
   -2.7641    2.3547    0.0001 H   0  0  0  0  0  0  0  0  0  0  0  0
    1.4051   -1.8077    0.0001 C   0  0  0  0  0  0  0  0  0  0  0  0
    0.8628   -2.7638    0.0002 H   0  0  0  0  0  0  0  0  0  0  0  0
    2.6482    0.6425   -0.0001 N   0  0  0  0  0  0  0  0  0  0  0  0
    0.1783    4.1090   -0.0000 C   0  0  0  0  0  0  0  0  0  0  0  0
    0.5825    5.1319   -0.0001 H   0  0  0  0  0  0  0  0  0  0  0  0
    3.3903   -0.4728    0.0000 C   0  0  0  0  0  0  0  0  0  0  0  0
   -1.2064    3.8855    0.0001 C   0  0  0  0  0  0  0  0  0  0  0  0
   -1.9218    4.7197    0.0001 H   0  0  0  0  0  0  0  0  0  0  0  0
    2.8015   -1.7513    0.0001 C   0  0  0  0  0  0  0  0  0  0  0  0
    3.4105   -2.6637    0.0002 H   0  0  0  0  0  0  0  0  0  0  0  0
    1.0388    3.0060   -0.0001 C   0  0  0  0  0  0  0  0  0  0  0  0
    2.1338    3.0976   -0.0002 H   0  0  0  0  0  0  0  0  0  0  0  0
    5.5443   -1.4519   -0.0001 O   0  0  0  0  0  0  0  0  0  0  0  0
    5.4318    0.8165    0.0001 O   0  0  0  0  0  0  0  0  0  0  0  0
    4.8877   -0.2658    0.0000 C   0  0  0  0  0  0  0  0  0  0  0  0
    6.5010   -1.2318   -0.0001 H   0  0  0  0  0  0  0  0  0  0  0  0
  1  7  1  0  0  0  0
  2  5  1  0  0  0  0
  3  1  1  0  0  0  0
  4  3  2  0  0  0  0
  4  2  1  0  0  0  0
  5  6  1  0  0  0  0
  7 15  2  0  0  0  0
  7  8  1  0  0  0  0
  9  3  1  0  0  0  0
  9 12  2  0  0  0  0
 10 13  1  0  0  0  0
 11 10  1  0  0  0  0
 12 15  1  0  0  0  0
 13  5  2  0  0  0  0
 13 14  1  0  0  0  0
 15 16  1  0  0  0  0
 17  4  1  0  0  0  0
 17 10  2  0  0  0  0
 18 17  1  0  0  0  0
 19 22  1  0  0  0  0
 19 21  1  0  0  0  0
 21 12  1  0  0  0  0
 21 20  2  0  0  0  0
M  END
