3,4
q = 0.0, confidence = 0.964

 10  9  0  0  0  0  0  0  0  0999 V2000
   -0.4999    2.5661   -1.1996 O   0  0  0  0  0  0  0  0  0  0  0  0
   -0.5016   -2.5669   -1.1965 O   0  0  0  0  0  0  0  0  0  0  0  0
   -0.5503    1.2519   -1.3623 N   0  0  0  0  0  2  0  0  0  0  0  0
   -0.5511   -1.2531   -1.3609 N   0  0  0  0  0  2  0  0  0  0  0  0
   -0.6079    0.7200   -2.5663 C   0  0  0  0  0  0  0  0  0  0  0  0
   -0.6084   -0.7224   -2.5655 C   0  0  0  0  0  0  0  0  0  0  0  0
   -0.6412    1.3458   -3.4708 H   0  0  0  0  0  0  0  0  0  0  0  0
   -0.6422   -1.3492   -3.4693 H   0  0  0  0  0  0  0  0  0  0  0  0
   -0.4624    2.6759   -0.0825 H   0  0  0  0  0  0  0  0  0  0  0  0
   -0.4636   -2.6754   -0.0783 H   0  0  0  0  0  0  0  0  0  0  0  0
  1  9  1  0  0  0  0
  2 10  1  0  0  0  0
  3  1  1  0  0  0  0
  4  2  1  0  0  0  0
  5  6  2  0  0  0  0
  5  3  1  0  0  0  0
  6  4  1  0  0  0  0
  7  5  1  0  0  0  0
  8  6  1  0  0  0  0
M  END
