19,20
q = 0.0, confidence = 1.0

 42 43  0  0  0  0  0  0  0  0999 V2000
    2.5296    3.6194    0.8420 C   0  0  0  0  0  0  0  0  0  0  0  0
    2.0434    4.4375    1.4111 H   0  0  0  0  0  0  0  0  0  0  0  0
    3.6232    3.8031    0.8503 H   0  0  0  0  0  0  0  0  0  0  0  0
    2.1936    3.6931   -0.2103 H   0  0  0  0  0  0  0  0  0  0  0  0
    0.5834    1.7754   -1.2700 C   0  0  0  0  0  0  0  0  0  0  0  0
    1.4080    2.3332   -1.7416 H   0  0  0  0  0  0  0  0  0  0  0  0
    2.1691   -0.6366   -3.4355 C   0  0  0  0  0  0  0  0  0  0  0  0
    1.5936   -1.1506   -4.2308 H   0  0  0  0  0  0  0  0  0  0  0  0
    1.7419    0.3795   -3.3285 H   0  0  0  0  0  0  0  0  0  0  0  0
    3.2196   -0.5315   -3.7759 H   0  0  0  0  0  0  0  0  0  0  0  0
    2.5963    2.2703    2.9616 C   0  0  0  0  0  0  0  0  0  0  0  0
    1.9573    2.9854    3.5168 H   0  0  0  0  0  0  0  0  0  0  0  0
    2.4948    1.2745    3.4381 H   0  0  0  0  0  0  0  0  0  0  0  0
    3.6452    2.5965    3.1083 H   0  0  0  0  0  0  0  0  0  0  0  0
    2.5926   -2.8726   -2.3466 C   0  0  0  0  0  0  0  0  0  0  0  0
    1.9133   -3.4013   -3.0442 H   0  0  0  0  0  0  0  0  0  0  0  0
    3.6042   -2.8981   -2.8010 H   0  0  0  0  0  0  0  0  0  0  0  0
    2.6337   -3.4562   -1.4049 H   0  0  0  0  0  0  0  0  0  0  0  0
    0.8168    0.6937   -0.5688 N   0  0  0  0  0  2  0  0  0  0  0  0
   -1.6607    1.4862   -0.6189 N   0  0  0  0  0  2  0  0  0  0  0  0
    2.1915    0.3543   -0.2918 C   0  0  0  0  0  0  0  0  0  0  0  0
   -1.2021    3.3439   -2.1116 C   0  0  0  0  0  0  0  0  0  0  0  0
   -0.4640    3.9100   -2.6974 H   0  0  0  0  0  0  0  0  0  0  0  0
    2.8714    1.1098    0.7036 C   0  0  0  0  0  0  0  0  0  0  0  0
   -0.7811    2.2328   -1.3588 C   0  0  0  0  0  0  0  0  0  0  0  0
    4.8476   -0.2728    0.2909 C   0  0  0  0  0  0  0  0  0  0  0  0
    5.8950   -0.5198    0.5192 H   0  0  0  0  0  0  0  0  0  0  0  0
    2.2072    2.2502    1.4729 C   0  0  0  0  0  0  0  0  0  0  0  0
    1.1080    2.0954    1.4163 H   0  0  0  0  0  0  0  0  0  0  0  0
   -3.4505    2.9109   -1.3569 C   0  0  0  0  0  0  0  0  0  0  0  0
   -4.5242    3.1432   -1.3271 H   0  0  0  0  0  0  0  0  0  0  0  0
    2.8147   -0.7056   -1.0034 C   0  0  0  0  0  0  0  0  0  0  0  0
    4.2110    0.7691    0.9727 C   0  0  0  0  0  0  0  0  0  0  0  0
    4.7644    1.3308    1.7387 H   0  0  0  0  0  0  0  0  0  0  0  0
    4.1537   -0.9987   -0.6848 C   0  0  0  0  0  0  0  0  0  0  0  0
    4.6659   -1.8086   -1.2225 H   0  0  0  0  0  0  0  0  0  0  0  0
    2.0935   -1.4401   -2.1220 C   0  0  0  0  0  0  0  0  0  0  0  0
    1.0196   -1.4931   -1.8494 H   0  0  0  0  0  0  0  0  0  0  0  0
   -2.5551    3.6929   -2.1062 C   0  0  0  0  0  0  0  0  0  0  0  0
   -2.9131    4.5568   -2.6845 H   0  0  0  0  0  0  0  0  0  0  0  0
   -2.9690    1.8100   -0.6408 C   0  0  0  0  0  0  0  0  0  0  0  0
   -3.6422    1.1605   -0.0671 H   0  0  0  0  0  0  0  0  0  0  0  0
  1  3  1  0  0  0  0
  1  2  1  0  0  0  0
  1 28  1  0  0  0  0
  4  1  1  0  0  0  0
  5 19  1  0  0  0  0
  6  5  1  0  0  0  0
  7  9  1  0  0  0  0
  7 37  1  0  0  0  0
  8  7  1  0  0  0  0
 10  7  1  0  0  0  0
 11 14  1  0  0  0  0
 11 13  1  0  0  0  0
 11 12  1  0  0  0  0
 15 37  1  0  0  0  0
 15 18  1  0  0  0  0
 16 15  1  0  0  0  0
 17 15  1  0  0  0  0
 19 21  1  0  0  0  0
 21 24  1  0  0  0  0
 22 39  2  0  0  0  0
 22 25  1  0  0  0  0
 23 22  1  0  0  0  0
 24 33  2  0  0  0  0
 24 28  1  0  0  0  0
 25  5  2  0  0  0  0
 25 20  1  0  0  0  0
 26 27  1  0  0  0  0
 26 33  1  0  0  0  0
 28 11  1  0  0  0  0
 29 28  1  0  0  0  0
 30 31  1  0  0  0  0
 30 41  2  0  0  0  0
 32 35  1  0  0  0  0
 32 21  2  0  0  0  0
 33 34  1  0  0  0  0
 35 26  2  0  0  0  0
 36 35  1  0  0  0  0
 37 38  1  0  0  0  0
 37 32  1  0  0  0  0
 39 30  1  0  0  0  0
 40 39  1  0  0  0  0
 41 20  1  0  0  0  0
 41 42  1  0  0  0  0
M  END
