1,2
q = 0.0, confidence = 1.0

 30 32  0  0  0  0  0  0  0  0999 V2000
   -1.4823   -1.9279   -0.4656 N   0  0  0  0  0  2  0  0  0  0  0  0
   -2.3448    0.5814   -0.5896 N   0  0  0  0  0  2  0  0  0  0  0  0
   -4.5426    0.1238   -0.6193 N   0  0  0  0  0  0  0  0  0  0  0  0
   -5.3723    2.5463   -0.5868 C   0  0  0  0  0  0  0  0  0  0  0  0
   -6.4541    2.3533   -0.6150 H   0  0  0  0  0  0  0  0  0  0  0  0
   -3.2629   -0.3929   -0.6215 C   0  0  0  0  0  0  0  0  0  0  0  0
   -0.9129   -5.6525   -0.7830 C   0  0  0  0  0  0  0  0  0  0  0  0
   -1.1890   -6.2341   -1.6855 H   0  0  0  0  0  0  0  0  0  0  0  0
   -1.1942   -6.2703    0.0956 H   0  0  0  0  0  0  0  0  0  0  0  0
    0.1861   -5.5249   -0.7692 H   0  0  0  0  0  0  0  0  0  0  0  0
   -3.6159   -2.9331   -0.9092 C   0  0  0  0  0  0  0  0  0  0  0  0
   -4.6917   -2.8490   -1.0996 H   0  0  0  0  0  0  0  0  0  0  0  0
   -5.8087   -0.5912   -0.6048 C   0  0  0  0  0  0  0  0  0  0  0  0
   -5.7968   -1.3912    0.1591 H   0  0  0  0  0  0  0  0  0  0  0  0
   -6.0420   -1.0271   -1.5972 H   0  0  0  0  0  0  0  0  0  0  0  0
   -6.6122    0.1185   -0.3402 H   0  0  0  0  0  0  0  0  0  0  0  0
   -3.0049   -4.1934   -0.9492 C   0  0  0  0  0  0  0  0  0  0  0  0
   -3.6188   -5.0846   -1.1526 H   0  0  0  0  0  0  0  0  0  0  0  0
   -2.8212   -1.7968   -0.6580 C   0  0  0  0  0  0  0  0  0  0  0  0
   -4.8760    3.8542   -0.5508 C   0  0  0  0  0  0  0  0  0  0  0  0
   -5.5866    4.6936   -0.5470 H   0  0  0  0  0  0  0  0  0  0  0  0
   -2.5358    3.1038   -0.5356 C   0  0  0  0  0  0  0  0  0  0  0  0
   -1.4544    3.2987   -0.5204 H   0  0  0  0  0  0  0  0  0  0  0  0
   -3.0204    1.7811   -0.5708 C   0  0  0  0  0  0  0  0  0  0  0  0
   -3.4836    4.1290   -0.5253 C   0  0  0  0  0  0  0  0  0  0  0  0
   -3.1486    5.1762   -0.5010 H   0  0  0  0  0  0  0  0  0  0  0  0
   -1.6168   -4.3270   -0.7503 C   0  0  0  0  0  0  0  0  0  0  0  0
   -4.4199    1.5136   -0.5945 C   0  0  0  0  0  0  0  0  0  0  0  0
   -0.9023   -3.1331   -0.5164 C   0  0  0  0  0  0  0  0  0  0  0  0
    0.1907   -3.1283   -0.3738 H   0  0  0  0  0  0  0  0  0  0  0  0
  2 24  1  0  0  0  0
  3 13  1  0  0  0  0
  3 28  1  0  0  0  0
  4 20  1  0  0  0  0
  5  4  1  0  0  0  0
  6  3  1  0  0  0  0
  6  2  1  0  0  0  0
  7 10  1  0  0  0  0
  7 27  1  0  0  0  0
  7  9  1  0  0  0  0
  8  7  1  0  0  0  0
 11 19  1  0  0  0  0
 12 11  1  0  0  0  0
 13 16  1  0  0  0  0
 13 14  1  0  0  0  0
 15 13  1  0  0  0  0
 17 11  2  0  0  0  0
 17 27  1  0  0  0  0
 18 17  1  0  0  0  0
 19  6  2  0  0  0  0
 19  1  1  0  0  0  0
 20 21  1  0  0  0  0
 20 25  2  0  0  0  0
 22 25  1  0  0  0  0
 22 23  1  0  0  0  0
 24 22  2  0  0  0  0
 25 26  1  0  0  0  0
 27 29  2  0  0  0  0
 28  4  2  0  0  0  0
 28 24  1  0  0  0  0
 29  1  1  0  0  0  0
 29 30  1  0  0  0  0
M  END
