3,4
q = 0.0, confidence = 1.0

 30 32  0  0  0  0  0  0  0  0999 V2000
    3.1539   -1.1209   -0.1408 O   0  0  0  0  0  0  0  0  0  0  0  0
   -3.1562   -1.1167   -0.1290 O   0  0  0  0  0  0  0  0  0  0  0  0
    1.3452    0.1922   -0.1697 N   0  0  0  0  0  2  0  0  0  0  0  0
   -1.3458    0.1939   -0.1637 N   0  0  0  0  0  2  0  0  0  0  0  0
    2.6747    0.1280   -0.1347 C   0  0  0  0  0  0  0  0  0  0  0  0
    3.4783    1.3076   -0.0967 C   0  0  0  0  0  0  0  0  0  0  0  0
    4.5735    1.2426   -0.0748 H   0  0  0  0  0  0  0  0  0  0  0  0
    2.8469    2.5433   -0.0875 C   0  0  0  0  0  0  0  0  0  0  0  0
    3.4459    3.4666   -0.0578 H   0  0  0  0  0  0  0  0  0  0  0  0
    1.4284    2.6310   -0.1090 C   0  0  0  0  0  0  0  0  0  0  0  0
    0.6909    3.8637   -0.0847 C   0  0  0  0  0  0  0  0  0  0  0  0
    1.2498    4.8114   -0.0599 H   0  0  0  0  0  0  0  0  0  0  0  0
   -0.6865    3.8647   -0.0844 C   0  0  0  0  0  0  0  0  0  0  0  0
   -1.2442    4.8131   -0.0595 H   0  0  0  0  0  0  0  0  0  0  0  0
   -1.4258    2.6330   -0.1075 C   0  0  0  0  0  0  0  0  0  0  0  0
   -2.8444    2.5471   -0.0849 C   0  0  0  0  0  0  0  0  0  0  0  0
   -3.4421    3.4713   -0.0561 H   0  0  0  0  0  0  0  0  0  0  0  0
   -3.4774    1.3122   -0.0920 C   0  0  0  0  0  0  0  0  0  0  0  0
   -4.5727    1.2488   -0.0694 H   0  0  0  0  0  0  0  0  0  0  0  0
   -2.6754    0.1315   -0.1276 C   0  0  0  0  0  0  0  0  0  0  0  0
   -0.7231    1.3930   -0.1465 C   0  0  0  0  0  0  0  0  0  0  0  0
    0.7241    1.3921   -0.1485 C   0  0  0  0  0  0  0  0  0  0  0  0
    4.5563   -1.3417   -0.0774 C   0  0  0  0  0  0  0  0  0  0  0  0
    5.0778   -0.9055   -0.9566 H   0  0  0  0  0  0  0  0  0  0  0  0
    4.6889   -2.4379   -0.0850 H   0  0  0  0  0  0  0  0  0  0  0  0
    4.9912   -0.9275    0.8575 H   0  0  0  0  0  0  0  0  0  0  0  0
   -4.5590   -1.3355   -0.0682 C   0  0  0  0  0  0  0  0  0  0  0  0
   -4.9955   -0.9187    0.8649 H   0  0  0  0  0  0  0  0  0  0  0  0
   -4.6930   -2.4316   -0.0736 H   0  0  0  0  0  0  0  0  0  0  0  0
   -5.0780   -0.9007   -0.9495 H   0  0  0  0  0  0  0  0  0  0  0  0
  1  5  1  0  0  0  0
  1 23  1  0  0  0  0
  2 20  1  0  0  0  0
  2 27  1  0  0  0  0
  3 22  1  0  0  0  0
  3  5  1  0  0  0  0
  4 21  1  0  0  0  0
  4 20  1  0  0  0  0
  5  6  2  0  0  0  0
  6  8  1  0  0  0  0
  6  7  1  0  0  0  0
  8  9  1  0  0  0  0
 10  8  2  0  0  0  0
 10 11  1  0  0  0  0
 11 13  2  0  0  0  0
 11 12  1  0  0  0  0
 13 14  1  0  0  0  0
 15 16  2  0  0  0  0
 15 13  1  0  0  0  0
 16 17  1  0  0  0  0
 18 16  1  0  0  0  0
 18 19  1  0  0  0  0
 20 18  2  0  0  0  0
 21 15  1  0  0  0  0
 22 21  2  0  0  0  0
 22 10  1  0  0  0  0
 23 26  1  0  0  0  0
 24 23  1  0  0  0  0
 25 23  1  0  0  0  0
 27 28  1  0  0  0  0
 29 27  1  0  0  0  0
 30 27  1  0  0  0  0
M  END
