9,12
q = 0.0, confidence = 0.962

 31 32  0  0  0  0  0  0  0  0999 V2000
    1.6404   -1.3581    3.1224 C   0  0  0  0  0  0  0  0  0  0  0  0
    1.0900   -2.0387    3.7852 H   0  0  0  0  0  0  0  0  0  0  0  0
    2.9556   -0.9662    3.3663 C   0  0  0  0  0  0  0  0  0  0  0  0
    3.4958   -1.3505    4.2436 H   0  0  0  0  0  0  0  0  0  0  0  0
    3.5759   -0.0581    2.4869 C   0  0  0  0  0  0  0  0  0  0  0  0
    4.6044    0.2895    2.6531 H   0  0  0  0  0  0  0  0  0  0  0  0
    2.8665    0.4137    1.3804 C   0  0  0  0  0  3  0  0  0  0  0  0
    3.3054    1.1323    0.6762 H   0  0  0  0  0  0  0  0  0  0  0  0
    1.6039    0.0112    1.1181 N   0  0  0  0  0  2  0  0  0  0  0  0
    0.9726   -0.8455    1.9882 C   0  0  0  0  0  0  0  0  0  0  0  0
   -0.3328   -1.1522    1.7402 N   0  0  0  0  0  2  0  0  0  0  0  0
   -0.8080   -0.5652    0.6819 N   0  0  0  0  0  2  0  0  0  0  0  0
   -2.1673   -0.7675    0.4287 C   0  0  0  0  0  0  0  0  0  0  0  0
   -2.8677   -1.8594    1.0112 C   0  0  0  0  0  0  0  0  0  0  0  0
   -2.3112   -2.5651    1.6416 H   0  0  0  0  0  0  0  0  0  0  0  0
   -4.2176   -2.0429    0.7723 C   0  0  0  0  0  0  0  0  0  0  0  0
   -4.7146   -2.9145    1.2153 H   0  0  0  0  0  0  0  0  0  0  0  0
   -4.9614   -1.1215   -0.0390 C   0  0  0  0  0  0  0  0  0  0  0  0
   -4.2493   -0.0098   -0.5953 C   0  0  0  0  0  0  0  0  0  0  0  0
   -4.7788    0.7503   -1.1820 H   0  0  0  0  0  0  0  0  0  0  0  0
   -2.8914    0.1534   -0.3714 C   0  0  0  0  0  0  0  0  0  0  0  0
   -2.3738    1.0466   -0.7459 H   0  0  0  0  0  0  0  0  0  0  0  0
   -6.2954   -1.2949   -0.2636 N   0  0  0  0  0  0  0  0  0  0  0  0
   -7.0299   -0.3524   -1.0981 C   0  0  0  0  0  0  0  0  0  0  0  0
   -7.0291    0.6692   -0.6608 H   0  0  0  0  0  0  0  0  0  0  0  0
   -8.0779   -0.6853   -1.1885 H   0  0  0  0  0  0  0  0  0  0  0  0
   -6.5987   -0.2934   -2.1196 H   0  0  0  0  0  0  0  0  0  0  0  0
   -7.0109   -2.4064    0.3516 C   0  0  0  0  0  0  0  0  0  0  0  0
   -6.6074   -3.3863    0.0188 H   0  0  0  0  0  0  0  0  0  0  0  0
   -8.0743   -2.3593    0.0615 H   0  0  0  0  0  0  0  0  0  0  0  0
   -6.9543   -2.3648    1.4600 H   0  0  0  0  0  0  0  0  0  0  0  0
  1  3  1  0  0  0  0
  1  2  1  0  0  0  0
  3  4  1  0  0  0  0
  5  6  1  0  0  0  0
  5  3  2  0  0  0  0
  7  5  1  0  0  0  0
  8  7  1  0  0  0  0
  9  7  1  0  0  0  0
  9 10  1  0  0  0  0
 10  1  2  0  0  0  0
 11 10  1  0  0  0  0
 12 11  1  0  0  0  0
 13 12  1  0  0  0  0
 13 14  1  0  0  0  0
 14 15  1  0  0  0  0
 16 14  2  0  0  0  0
 16 17  1  0  0  0  0
 18 16  1  0  0  0  0
 19 21  1  0  0  0  0
 19 18  2  0  0  0  0
 20 19  1  0  0  0  0
 21 13  2  0  0  0  0
 22 21  1  0  0  0  0
 23 18  1  0  0  0  0
 23 28  1  0  0  0  0
 24 25  1  0  0  0  0
 24 23  1  0  0  0  0
 26 24  1  0  0  0  0
 27 24  1  0  0  0  0
 28 31  1  0  0  0  0
 29 28  1  0  0  0  0
 30 28  1  0  0  0  0
M  END
