1,6
q = 0.0, confidence = 1.0

 34 37  0  0  1  0  0  0  0  0999 V2000
    1.4148   -0.4596   -0.0310 N   0  0  0  0  0  2  0  0  0  0  0  0
    2.6454   -2.1140   -0.8751 N   0  0  0  0  0  0  0  0  0  0  0  0
    2.9229   -3.0628   -1.1247 H   0  0  0  0  0  0  0  0  0  0  0  0
   -2.8449   -1.9959   -0.3174 N   0  0  0  0  0  0  0  0  0  0  0  0
   -3.1640   -2.9626   -0.3747 H   0  0  0  0  0  0  0  0  0  0  0  0
   -1.5942   -0.2506    0.2629 N   0  0  0  0  0  2  0  0  0  0  0  0
    2.5762    0.0883   -0.5784 C   0  0  0  0  0  0  0  0  0  0  0  0
    3.0052    1.4262   -0.6533 C   0  0  0  0  0  0  0  0  0  0  0  0
    2.3676    2.2309   -0.2534 H   0  0  0  0  0  0  0  0  0  0  0  0
    4.2380    1.6667   -1.2700 C   0  0  0  0  0  0  0  0  0  0  0  0
    4.6044    2.7010   -1.3482 H   0  0  0  0  0  0  0  0  0  0  0  0
    5.0270    0.6162   -1.7992 C   0  0  0  0  0  0  0  0  0  0  0  0
    5.9906    0.8536   -2.2743 H   0  0  0  0  0  0  0  0  0  0  0  0
    4.6099   -0.7198   -1.7356 C   0  0  0  0  0  0  0  0  0  0  0  0
    5.2226   -1.5342   -2.1486 H   0  0  0  0  0  0  0  0  0  0  0  0
    3.3732   -0.9584   -1.1181 C   0  0  0  0  0  0  0  0  0  0  0  0
    1.4816   -1.7739   -0.2220 C   0  0  2  0  0  3  0  0  0  0  0  0
    0.4948   -2.8539    0.1297 C   0  0  0  0  0  0  0  0  0  0  0  0
    1.0545   -3.6487    0.6692 H   0  0  0  0  0  0  0  0  0  0  0  0
    0.1524   -3.3218   -0.8217 H   0  0  0  0  0  0  0  0  0  0  0  0
   -0.7208   -2.4728    0.9956 C   0  0  0  0  0  0  0  0  0  0  0  0
   -1.2278   -3.4093    1.3026 H   0  0  0  0  0  0  0  0  0  0  0  0
   -0.3730   -1.9509    1.9213 H   0  0  0  0  0  0  0  0  0  0  0  0
   -1.7094   -1.5730    0.3319 C   0  0  2  0  0  3  0  0  0  0  0  0
   -3.5000   -0.8814   -0.8300 C   0  0  0  0  0  0  0  0  0  0  0  0
   -4.6863   -0.7185   -1.5612 C   0  0  0  0  0  0  0  0  0  0  0  0
   -5.3194   -1.5717   -1.8447 H   0  0  0  0  0  0  0  0  0  0  0  0
   -5.0255    0.5941   -1.9161 C   0  0  0  0  0  0  0  0  0  0  0  0
   -5.9469    0.7704   -2.4911 H   0  0  0  0  0  0  0  0  0  0  0  0
   -4.2129    1.6980   -1.5565 C   0  0  0  0  0  0  0  0  0  0  0  0
   -4.5209    2.7086   -1.8635 H   0  0  0  0  0  0  0  0  0  0  0  0
   -3.0319    1.5365   -0.8238 C   0  0  0  0  0  0  0  0  0  0  0  0
   -2.3731    2.3716   -0.5390 H   0  0  0  0  0  0  0  0  0  0  0  0
   -2.6829    0.2241   -0.4577 C   0  0  0  0  0  0  0  0  0  0  0  0
  2 17  1  0  0  0  0
  3  2  1  0  0  0  0
  4 24  1  0  0  0  0
  5  4  1  0  0  0  0
  6 24  1  0  0  0  0
  7  1  1  0  0  0  0
  8  7  1  0  0  0  0
  8  9  1  0  0  0  0
 10  8  2  0  0  0  0
 11 10  1  0  0  0  0
 12 14  2  0  0  0  0
 12 10  1  0  0  0  0
 13 12  1  0  0  0  0
 14 16  1  0  0  0  0
 15 14  1  0  0  0  0
 16  2  1  0  0  0  0
 16  7  2  0  0  0  0
 17  1  1  0  0  0  0
 17 18  1  6  0  0  0
 18 19  1  0  0  0  0
 18 21  1  0  0  0  0
 20 18  1  0  0  0  0
 21 22  1  0  0  0  0
 21 23  1  0  0  0  0
 24 21  1  6  0  0  0
 25 34  1  0  0  0  0
 25  4  1  0  0  0  0
 26 25  2  0  0  0  0
 27 26  1  0  0  0  0
 28 26  1  0  0  0  0
 28 30  2  0  0  0  0
 29 28  1  0  0  0  0
 30 32  1  0  0  0  0
 31 30  1  0  0  0  0
 32 33  1  0  0  0  0
 32 34  2  0  0  0  0
 34  6  1  0  0  0  0
M  END
