1,8
q = 0.0, confidence = 1.0

 24 23  0  0  0  0  0  0  0  0999 V2000
   -0.5093   -1.5369   -0.0883 N   0  0  0  0  0  0  0  0  0  0  0  0
    0.2693   -2.2074    0.9739 C   0  0  0  0  0  0  0  0  0  0  0  0
    1.3279   -2.2154    0.6422 H   0  0  0  0  0  0  0  0  0  0  0  0
   -0.0406   -3.2685    1.1141 H   0  0  0  0  0  0  0  0  0  0  0  0
    0.1984   -1.4565    2.3080 C   0  0  0  0  0  0  0  0  0  0  0  0
   -0.8344   -1.4711    2.7150 H   0  0  0  0  0  0  0  0  0  0  0  0
    0.8374   -1.9938    3.0443 H   0  0  0  0  0  0  0  0  0  0  0  0
    0.6182   -0.0682    2.0942 N   0  0  0  0  0  0  0  0  0  0  0  0
    1.6499   -0.0267    1.8639 H   0  0  0  0  0  0  0  0  0  0  0  0
    0.3971    0.5529    2.8798 H   0  0  0  0  0  0  0  0  0  0  0  0
   -0.0395   -1.9614   -1.4308 C   0  0  0  0  0  0  0  0  0  0  0  0
    1.0413   -1.7186   -1.4655 H   0  0  0  0  0  0  0  0  0  0  0  0
   -0.1286   -3.0694   -1.5368 H   0  0  0  0  0  0  0  0  0  0  0  0
   -0.7435   -1.2575   -2.5839 C   0  0  0  0  0  0  0  0  0  0  0  0
   -0.2253   -1.5027   -3.5314 H   0  0  0  0  0  0  0  0  0  0  0  0
   -0.7262   -0.1579   -2.4516 H   0  0  0  0  0  0  0  0  0  0  0  0
   -1.8013   -1.5693   -2.6927 H   0  0  0  0  0  0  0  0  0  0  0  0
   -1.9786   -1.6523    0.0969 C   0  0  0  0  0  0  0  0  0  0  0  0
   -2.4484   -0.9132   -0.5797 H   0  0  0  0  0  0  0  0  0  0  0  0
   -2.2073   -1.2859    1.1187 H   0  0  0  0  0  0  0  0  0  0  0  0
   -2.5748   -3.0458   -0.1036 C   0  0  0  0  0  0  0  0  0  0  0  0
   -3.6631   -3.0153    0.1029 H   0  0  0  0  0  0  0  0  0  0  0  0
   -2.1334   -3.8032    0.5757 H   0  0  0  0  0  0  0  0  0  0  0  0
   -2.4486   -3.4084   -1.1434 H   0  0  0  0  0  0  0  0  0  0  0  0
  1 18  1  0  0  0  0
  1  2  1  0  0  0  0
  2  4  1  0  0  0  0
  2  5  1  0  0  0  0
  3  2  1  0  0  0  0
  5  6  1  0  0  0  0
  5  7  1  0  0  0  0
  8  5  1  0  0  0  0
  8 10  1  0  0  0  0
  9  8  1  0  0  0  0
 11  1  1  0  0  0  0
 12 11  1  0  0  0  0
 13 11  1  0  0  0  0
 14 16  1  0  0  0  0
 14 11  1  0  0  0  0
 15 14  1  0  0  0  0
 17 14  1  0  0  0  0
 18 20  1  0  0  0  0
 19 18  1  0  0  0  0
 21 18  1  0  0  0  0
 21 22  1  0  0  0  0
 21 23  1  0  0  0  0
 24 21  1  0  0  0  0
M  END
