1,2
q = -1.0

 27 26  0  0  1  0  0  0  0  0999 V2000
   -0.7663    1.6890   -0.1521 N   0  0  0  0  0  2  0  0  0  0  0  0
   -1.6769   -0.3353   -0.0415 N   0  0  0  0  0  2  0  0  0  0  0  0
   -0.6848    3.0960   -0.4803 C   0  0  0  0  0  0  0  0  0  0  0  0
   -1.1602    3.3260   -1.4664 H   0  0  0  0  0  0  0  0  0  0  0  0
    0.3881    3.3392   -0.6180 H   0  0  0  0  0  0  0  0  0  0  0  0
   -1.2624    4.0258    0.5934 C   0  0  0  0  0  0  0  0  0  0  0  0
   -0.7715    3.8489    1.5707 H   0  0  0  0  0  0  0  0  0  0  0  0
   -2.3515    3.8786    0.7339 H   0  0  0  0  0  0  0  0  0  0  0  0
   -1.1022    5.0874    0.3141 H   0  0  0  0  0  0  0  0  0  0  0  0
   -1.8970    0.9700   -0.2544 C   0  0  2  0  0  3  0  0  0  0  0  0
   -3.2144    1.6173   -0.6269 C   0  0  0  0  0  0  0  0  0  0  0  0
   -3.0370    2.4789   -1.2991 H   0  0  0  0  0  0  0  0  0  0  0  0
   -3.7249    2.0045    0.2774 H   0  0  0  0  0  0  0  0  0  0  0  0
   -3.8987    0.9164   -1.1314 H   0  0  0  0  0  0  0  0  0  0  0  0
   -2.7120   -1.3834    0.0378 C   0  0  0  0  0  0  0  0  0  0  0  0
   -3.3009   -1.7459   -1.3451 C   0  0  0  0  0  0  0  0  0  0  0  0
   -3.7988   -0.8852   -1.8324 H   0  0  0  0  0  0  0  0  0  0  0  0
   -4.0557   -2.5523   -1.2428 H   0  0  0  0  0  0  0  0  0  0  0  0
   -2.5032   -2.1031   -2.0226 H   0  0  0  0  0  0  0  0  0  0  0  0
   -3.8398   -0.9831    1.0181 C   0  0  0  0  0  0  0  0  0  0  0  0
   -3.4060   -0.6451    1.9809 H   0  0  0  0  0  0  0  0  0  0  0  0
   -4.4877   -1.8590    1.2235 H   0  0  0  0  0  0  0  0  0  0  0  0
   -4.4927   -0.1799    0.6307 H   0  0  0  0  0  0  0  0  0  0  0  0
   -2.0476   -2.6444    0.6189 C   0  0  0  0  0  0  0  0  0  0  0  0
   -1.1956   -2.9635   -0.0059 H   0  0  0  0  0  0  0  0  0  0  0  0
   -2.7767   -3.4774    0.6684 H   0  0  0  0  0  0  0  0  0  0  0  0
   -1.6743   -2.4479    1.6417 H   0  0  0  0  0  0  0  0  0  0  0  0
  2 15  1  0  0  0  0
  3  1  1  0  0  0  0
  3  6  1  0  0  0  0
  4  3  1  0  0  0  0
  5  3  1  0  0  0  0
  6  8  1  0  0  0  0
  6  7  1  0  0  0  0
  9  6  1  0  0  0  0
 10  1  1  6  0  0  0
 10  2  1  0  0  0  0
 11 10  1  0  0  0  0
 11 13  1  0  0  0  0
 12 11  1  0  0  0  0
 14 11  1  0  0  0  0
 15 24  1  0  0  0  0
 15 20  1  0  0  0  0
 16 18  1  0  0  0  0
 16 15  1  0  0  0  0
 17 16  1  0  0  0  0
 19 16  1  0  0  0  0
 20 22  1  0  0  0  0
 20 21  1  0  0  0  0
 23 20  1  0  0  0  0
 24 26  1  0  0  0  0
 24 27  1  0  0  0  0
 25 24  1  0  0  0  0
M  END
