2,5
q = 0.0, confidence = 0.996

 51 54  0  0  1  0  0  0  0  0999 V2000
    0.7083   -2.5984   -0.0825 O   0  0  0  0  0  0  0  0  0  0  0  0
   -2.6466   -1.2539   -0.0947 N   0  0  0  0  0  2  0  0  0  0  0  0
   -0.1207   -0.3558   -0.5165 N   0  0  0  0  0  0  0  0  0  0  0  0
    2.1112    0.1862   -0.8256 N   0  0  0  0  0  0  0  0  0  0  0  0
   -0.8176    2.2630   -0.2403 N   0  0  0  0  0  2  0  0  0  0  0  0
   -1.9021   -3.5120   -0.4387 C   0  0  0  0  0  0  0  0  0  0  0  0
   -1.0580   -4.2136   -0.4634 H   0  0  0  0  0  0  0  0  0  0  0  0
   -4.2468   -2.9471   -0.6581 C   0  0  0  0  0  0  0  0  0  0  0  0
   -5.2927   -3.2169   -0.8631 H   0  0  0  0  0  0  0  0  0  0  0  0
    0.9239    0.5482   -0.0523 C   0  0  1  0  0  0  0  0  0  0  0  0
    1.0545    0.4235    1.0444 H   0  0  0  0  0  0  0  0  0  0  0  0
   -1.6543   -2.1671   -0.1371 C   0  0  2  0  0  3  0  0  0  0  0  0
    3.3926    0.1321   -0.3056 C   0  0  0  0  0  0  0  0  0  0  0  0
   -0.2736   -1.6239    0.1995 C   0  0  1  0  0  0  0  0  0  0  0  0
   -0.2928   -1.3490    1.2841 H   0  0  0  0  0  0  0  0  0  0  0  0
   -0.4102    4.5670   -0.7667 C   0  0  0  0  0  0  0  0  0  0  0  0
   -0.8141    5.5745   -0.9407 H   0  0  0  0  0  0  0  0  0  0  0  0
   -3.9149   -1.6220   -0.3438 C   0  0  0  0  0  0  0  0  0  0  0  0
   -4.6517   -0.8004   -0.2926 H   0  0  0  0  0  0  0  0  0  0  0  0
    3.6929    0.6720    0.9756 C   0  0  0  0  0  0  0  0  0  0  0  0
    2.9108    1.1697    1.5665 H   0  0  0  0  0  0  0  0  0  0  0  0
    1.7073   -2.7565    0.9356 C   0  0  0  0  0  0  0  0  0  0  0  0
    1.2334   -3.1720    1.8556 H   0  0  0  0  0  0  0  0  0  0  0  0
    2.1478   -1.7712    1.2066 H   0  0  0  0  0  0  0  0  0  0  0  0
    0.1621   -0.4889   -1.9567 C   0  0  0  0  0  0  0  0  0  0  0  0
   -0.2722    0.3819   -2.4892 H   0  0  0  0  0  0  0  0  0  0  0  0
   -0.2938   -1.4102   -2.3625 H   0  0  0  0  0  0  0  0  0  0  0  0
   -3.2229   -3.9043   -0.7058 C   0  0  0  0  0  0  0  0  0  0  0  0
   -3.4499   -4.9528   -0.9525 H   0  0  0  0  0  0  0  0  0  0  0  0
    0.9665    4.3076   -0.8440 C   0  0  0  0  0  0  0  0  0  0  0  0
    1.6760    5.1150   -1.0809 H   0  0  0  0  0  0  0  0  0  0  0  0
    4.9893    0.5854    1.4968 C   0  0  0  0  0  0  0  0  0  0  0  0
    5.1894    1.0076    2.4937 H   0  0  0  0  0  0  0  0  0  0  0  0
    1.7056   -0.4922   -2.0540 C   0  0  0  0  0  0  0  0  0  0  0  0
    2.0973   -1.5323   -2.0696 H   0  0  0  0  0  0  0  0  0  0  0  0
    2.0684    0.0336   -2.9646 H   0  0  0  0  0  0  0  0  0  0  0  0
    4.4509   -0.4630   -1.0441 C   0  0  0  0  0  0  0  0  0  0  0  0
    4.2607   -0.8656   -2.0482 H   0  0  0  0  0  0  0  0  0  0  0  0
    0.4998    1.9995   -0.3184 C   0  0  2  0  0  3  0  0  0  0  0  0
   -1.2756    3.5092   -0.4635 C   0  0  0  0  0  0  0  0  0  0  0  0
   -2.3728    3.6165   -0.3919 H   0  0  0  0  0  0  0  0  0  0  0  0
    6.0262   -0.0208    0.7691 C   0  0  0  0  0  0  0  0  0  0  0  0
    7.0422   -0.0809    1.1849 H   0  0  0  0  0  0  0  0  0  0  0  0
    1.4312    3.0028   -0.6260 C   0  0  0  0  0  0  0  0  0  0  0  0
    2.4988    2.7525   -0.6973 H   0  0  0  0  0  0  0  0  0  0  0  0
    2.7889   -3.6804    0.4149 C   0  0  0  0  0  0  0  0  0  0  0  0
    3.5464   -3.8603    1.2029 H   0  0  0  0  0  0  0  0  0  0  0  0
    3.3068   -3.2285   -0.4544 H   0  0  0  0  0  0  0  0  0  0  0  0
    2.3640   -4.6570    0.1073 H   0  0  0  0  0  0  0  0  0  0  0  0
    5.7416   -0.5360   -0.5052 C   0  0  0  0  0  0  0  0  0  0  0  0
    6.5403   -1.0056   -1.1001 H   0  0  0  0  0  0  0  0  0  0  0  0
  1 14  1  0  0  0  0
  1 22  1  0  0  0  0
  3 10  1  0  0  0  0
  3 14  1  0  0  0  0
  4 13  1  0  0  0  0
  4 10  1  0  0  0  0
  6 12  1  0  0  0  0
  7  6  1  0  0  0  0
  8 18  2  0  0  0  0
  9  8  1  0  0  0  0
 10 11  1  1  0  0  0
 12  2  1  0  0  0  0
 12 14  1  1  0  0  0
 13 20  1  0  0  0  0
 14 15  1  1  0  0  0
 16 40  2  0  0  0  0
 17 16  1  0  0  0  0
 18 19  1  0  0  0  0
 18  2  1  0  0  0  0
 20 32  2  0  0  0  0
 20 21  1  0  0  0  0
 22 24  1  0  0  0  0
 22 23  1  0  0  0  0
 25  3  1  0  0  0  0
 26 25  1  0  0  0  0
 27 25  1  0  0  0  0
 28  8  1  0  0  0  0
 28  6  2  0  0  0  0
 29 28  1  0  0  0  0
 30 16  1  0  0  0  0
 30 44  2  0  0  0  0
 31 30  1  0  0  0  0
 32 33  1  0  0  0  0
 34 25  1  0  0  0  0
 34  4  1  0  0  0  0
 35 34  1  0  0  0  0
 36 34  1  0  0  0  0
 37 50  1  0  0  0  0
 37 13  2  0  0  0  0
 38 37  1  0  0  0  0
 39 44  1  1  0  0  0
 39  5  1  0  0  0  0
 39 10  1  0  0  0  0
 40 41  1  0  0  0  0
 40  5  1  0  0  0  0
 42 43  1  0  0  0  0
 42 32  1  0  0  0  0
 45 44  1  0  0  0  0
 46 22  1  0  0  0  0
 46 47  1  0  0  0  0
 48 46  1  0  0  0  0
 49 46  1  0  0  0  0
 50 42  2  0  0  0  0
 51 50  1  0  0  0  0
M  END
