4,8
q = 0.0, confidence = 0.996

 48 51  0  0  1  0  0  0  0  0999 V2000
    0.3653   -2.9095    0.0097 O   0  0  0  0  0  0  0  0  0  0  0  0
    2.2309   -0.2822   -0.7728 N   0  0  0  0  0  0  0  0  0  0  0  0
   -0.0543   -0.5665   -0.5268 N   0  0  0  0  0  0  0  0  0  0  0  0
   -0.4622    2.1409   -0.3085 N   0  0  0  0  0  2  0  0  0  0  0  0
    0.2626   -0.8030   -1.9442 C   0  0  0  0  0  0  0  0  0  0  0  0
   -0.0389    0.0855   -2.5365 H   0  0  0  0  0  0  0  0  0  0  0  0
   -0.2839   -1.6835   -2.3279 H   0  0  0  0  0  0  0  0  0  0  0  0
   -2.7126   -1.0274   -0.0900 N   0  0  0  0  0  2  0  0  0  0  0  0
    4.5278   -1.0863   -0.9136 C   0  0  0  0  0  0  0  0  0  0  0  0
    4.3190   -1.5565   -1.8841 H   0  0  0  0  0  0  0  0  0  0  0  0
    1.8496    2.5796   -0.7715 C   0  0  0  0  0  0  0  0  0  0  0  0
    2.8777    2.1995   -0.8427 H   0  0  0  0  0  0  0  0  0  0  0  0
    1.0655    0.2356   -0.0564 C   0  0  2  0  0  0  0  0  0  0  0  0
    1.1467    0.1432    1.0490 H   0  0  0  0  0  0  0  0  0  0  0  0
    3.5022   -0.3759   -0.2338 C   0  0  0  0  0  0  0  0  0  0  0  0
   -2.3234   -3.3773   -0.4003 C   0  0  0  0  0  0  0  0  0  0  0  0
   -1.5994   -4.2021   -0.3990 H   0  0  0  0  0  0  0  0  0  0  0  0
    3.8219    0.2351    1.0103 C   0  0  0  0  0  0  0  0  0  0  0  0
    3.0629    0.8123    1.5572 H   0  0  0  0  0  0  0  0  0  0  0  0
   -0.7697    3.4208   -0.5950 C   0  0  0  0  0  3  0  0  0  0  0  0
   -1.8434    3.6673   -0.5084 H   0  0  0  0  0  0  0  0  0  0  0  0
    0.8124    1.7133   -0.3929 C   0  0  0  0  0  0  0  0  0  0  0  0
    1.7972   -0.9934   -1.9715 C   0  0  0  0  0  0  0  0  0  0  0  0
    2.0656   -2.0714   -1.9068 H   0  0  0  0  0  0  0  0  0  0  0  0
    2.2546   -0.5767   -2.8959 H   0  0  0  0  0  0  0  0  0  0  0  0
    0.2093    4.3463   -0.9743 C   0  0  0  0  0  0  0  0  0  0  0  0
   -0.0748    5.3840   -1.1999 H   0  0  0  0  0  0  0  0  0  0  0  0
   -1.8720   -2.0832   -0.1111 C   0  0  2  0  0  3  0  0  0  0  0  0
    5.1081    0.1158    1.5494 C   0  0  0  0  0  0  0  0  0  0  0  0
    5.3246    0.5960    2.5160 H   0  0  0  0  0  0  0  0  0  0  0  0
    5.8088   -1.1907   -0.3575 C   0  0  0  0  0  0  0  0  0  0  0  0
    6.5830   -1.7492   -0.9063 H   0  0  0  0  0  0  0  0  0  0  0  0
    1.5418    3.9171   -1.0584 C   0  0  0  0  0  0  0  0  0  0  0  0
    2.3388    4.6166   -1.3531 H   0  0  0  0  0  0  0  0  0  0  0  0
    6.1144   -0.5969    0.8772 C   0  0  0  0  0  0  0  0  0  0  0  0
    7.1230   -0.6823    1.3066 H   0  0  0  0  0  0  0  0  0  0  0  0
   -4.5485   -2.4602   -0.6622 C   0  0  0  0  0  0  0  0  0  0  0  0
   -5.6208   -2.5665   -0.8798 H   0  0  0  0  0  0  0  0  0  0  0  0
   -4.0204   -1.1998   -0.3519 C   0  0  0  0  0  0  0  0  0  0  0  0
   -4.6244   -0.2755   -0.3100 H   0  0  0  0  0  0  0  0  0  0  0  0
    1.4055   -3.1160    0.9587 C   0  0  0  0  0  0  0  0  0  0  0  0
    1.8563   -4.1015    0.7345 H   0  0  0  0  0  0  0  0  0  0  0  0
    1.0084   -3.1297    1.9985 H   0  0  0  0  0  0  0  0  0  0  0  0
    2.2017   -2.3433    0.8920 H   0  0  0  0  0  0  0  0  0  0  0  0
   -0.4249   -1.7587    0.2331 C   0  0  1  0  0  0  0  0  0  0  0  0
   -0.4099   -1.4455    1.3077 H   0  0  0  0  0  0  0  0  0  0  0  0
   -3.6845   -3.5642   -0.6857 C   0  0  0  0  0  0  0  0  0  0  0  0
   -4.0671   -4.5682   -0.9252 H   0  0  0  0  0  0  0  0  0  0  0  0
  1 45  1  0  0  0  0
  1 41  1  0  0  0  0
  2 15  1  0  0  0  0
  2 13  1  0  0  0  0
  3 13  1  0  0  0  0
  3 45  1  0  0  0  0
  5  3  1  0  0  0  0
  6  5  1  0  0  0  0
  7  5  1  0  0  0  0
  9 31  2  0  0  0  0
  9 15  1  0  0  0  0
 10  9  1  0  0  0  0
 11 22  2  0  0  0  0
 12 11  1  0  0  0  0
 13 14  1  1  0  0  0
 15 18  2  0  0  0  0
 16 17  1  0  0  0  0
 16 28  1  0  0  0  0
 18 29  1  0  0  0  0
 18 19  1  0  0  0  0
 20 21  1  0  0  0  0
 20  4  1  0  0  0  0
 22  4  1  0  0  0  0
 22 13  1  0  0  0  0
 23  5  1  0  0  0  0
 23 24  1  0  0  0  0
 23  2  1  0  0  0  0
 25 23  1  0  0  0  0
 26 20  1  0  0  0  0
 27 26  1  0  0  0  0
 28  8  1  0  0  0  0
 28 45  1  1  0  0  0
 29 30  1  0  0  0  0
 31 35  1  0  0  0  0
 32 31  1  0  0  0  0
 33 26  2  0  0  0  0
 33 11  1  0  0  0  0
 34 33  1  0  0  0  0
 35 36  1  0  0  0  0
 35 29  2  0  0  0  0
 37 39  2  0  0  0  0
 38 37  1  0  0  0  0
 39 40  1  0  0  0  0
 39  8  1  0  0  0  0
 41 43  1  0  0  0  0
 42 41  1  0  0  0  0
 44 41  1  0  0  0  0
 45 46  1  1  0  0  0
 47 37  1  0  0  0  0
 47 16  2  0  0  0  0
 48 47  1  0  0  0  0
M  END
