3,5
q = 0.0, confidence = 0.998

 45 48  0  0  1  0  0  0  0  0999 V2000
    1.0915   -2.4981    1.3232 O   0  0  0  0  0  0  0  0  0  0  0  0
    1.2114   -2.6004    2.2835 H   0  0  0  0  0  0  0  0  0  0  0  0
   -0.9512    1.7451   -0.4054 N   0  0  0  0  0  2  0  0  0  0  0  0
    0.0505   -0.3061    1.0917 N   0  0  0  0  0  0  0  0  0  0  0  0
   -1.7330   -1.4591   -0.6699 N   0  0  0  0  0  2  0  0  0  0  0  0
    2.2343    0.4356    0.7879 N   0  0  0  0  0  0  0  0  0  0  0  0
   -1.5000    2.8812   -0.8841 C   0  0  0  0  0  3  0  0  0  0  0  0
   -2.6048    2.8937   -0.8828 H   0  0  0  0  0  0  0  0  0  0  0  0
   -0.7196    3.9333   -1.3755 C   0  0  0  0  0  0  0  0  0  0  0  0
   -1.2053    4.8434   -1.7554 H   0  0  0  0  0  0  0  0  0  0  0  0
    0.6760    3.7973   -1.3637 C   0  0  0  0  0  0  0  0  0  0  0  0
    1.3233    4.6072   -1.7333 H   0  0  0  0  0  0  0  0  0  0  0  0
    1.2403    2.6134   -0.8710 C   0  0  0  0  0  0  0  0  0  0  0  0
    2.3289    2.4695   -0.8367 H   0  0  0  0  0  0  0  0  0  0  0  0
    0.3891    1.5975   -0.4059 C   0  0  0  0  0  0  0  0  0  0  0  0
    0.9497    0.2603    0.1025 C   0  0  2  0  0  0  0  0  0  0  0  0
    1.0576   -0.4367   -0.7577 H   0  0  0  0  0  0  0  0  0  0  0  0
   -0.0997   -1.7541    1.1073 C   0  0  1  0  0  0  0  0  0  0  0  0
   -0.8579   -1.9338    1.9090 H   0  0  0  0  0  0  0  0  0  0  0  0
   -0.7125   -2.2107   -0.2080 C   0  0  1  0  0  3  0  0  0  0  0  0
   -0.2740   -3.3546   -0.8889 C   0  0  0  0  0  0  0  0  0  0  0  0
    0.5623   -3.9311   -0.4738 H   0  0  0  0  0  0  0  0  0  0  0  0
   -0.9213   -3.7127   -2.0811 C   0  0  0  0  0  0  0  0  0  0  0  0
   -0.5952   -4.6026   -2.6408 H   0  0  0  0  0  0  0  0  0  0  0  0
   -1.9837   -2.9264   -2.5493 C   0  0  0  0  0  0  0  0  0  0  0  0
   -2.5161   -3.1768   -3.4780 H   0  0  0  0  0  0  0  0  0  0  0  0
   -2.3639   -1.7997   -1.8083 C   0  0  0  0  0  0  0  0  0  0  0  0
   -3.1874   -1.1196   -2.0957 H   0  0  0  0  0  0  0  0  0  0  0  0
    0.4904    0.3104    2.3522 C   0  0  0  0  0  0  0  0  0  0  0  0
    0.1087   -0.2564    3.2194 H   0  0  0  0  0  0  0  0  0  0  0  0
    0.0461    1.3242    2.4225 H   0  0  0  0  0  0  0  0  0  0  0  0
    2.0262    0.3688    2.2312 C   0  0  0  0  0  0  0  0  0  0  0  0
    2.4572    1.2470    2.7584 H   0  0  0  0  0  0  0  0  0  0  0  0
    2.5067   -0.5464    2.6491 H   0  0  0  0  0  0  0  0  0  0  0  0
    3.4589    0.1800    0.1904 C   0  0  0  0  0  0  0  0  0  0  0  0
    3.5830    0.0391   -1.2188 C   0  0  0  0  0  0  0  0  0  0  0  0
    2.7019    0.1404   -1.8684 H   0  0  0  0  0  0  0  0  0  0  0  0
    4.8289   -0.2176   -1.8035 C   0  0  0  0  0  0  0  0  0  0  0  0
    4.8907   -0.3254   -2.8975 H   0  0  0  0  0  0  0  0  0  0  0  0
    5.9878   -0.3315   -1.0197 C   0  0  0  0  0  0  0  0  0  0  0  0
    6.9635   -0.5288   -1.4864 H   0  0  0  0  0  0  0  0  0  0  0  0
    5.8760   -0.1793    0.3713 C   0  0  0  0  0  0  0  0  0  0  0  0
    6.7715   -0.2576    1.0071 H   0  0  0  0  0  0  0  0  0  0  0  0
    4.6383    0.0737    0.9748 C   0  0  0  0  0  0  0  0  0  0  0  0
    4.5857    0.1970    2.0648 H   0  0  0  0  0  0  0  0  0  0  0  0
  1  2  1  0  0  0  0
  4 18  1  0  0  0  0
  4 29  1  0  0  0  0
  5 20  1  0  0  0  0
  6 32  1  0  0  0  0
  7  8  1  0  0  0  0
  7  3  1  0  0  0  0
  9 11  2  0  0  0  0
  9  7  1  0  0  0  0
 10  9  1  0  0  0  0
 11 13  1  0  0  0  0
 12 11  1  0  0  0  0
 13 14  1  0  0  0  0
 13 15  2  0  0  0  0
 15  3  1  0  0  0  0
 15 16  1  0  0  0  0
 16 17  1  6  0  0  0
 16  6  1  0  0  0  0
 16  4  1  0  0  0  0
 18  1  1  0  0  0  0
 18 19  1  1  0  0  0
 20 18  1  1  0  0  0
 21 22  1  0  0  0  0
 21 20  1  0  0  0  0
 23 21  2  0  0  0  0
 24 23  1  0  0  0  0
 25 23  1  0  0  0  0
 25 27  2  0  0  0  0
 26 25  1  0  0  0  0
 27  5  1  0  0  0  0
 28 27  1  0  0  0  0
 29 31  1  0  0  0  0
 29 30  1  0  0  0  0
 32 29  1  0  0  0  0
 32 34  1  0  0  0  0
 32 33  1  0  0  0  0
 35  6  1  0  0  0  0
 35 44  1  0  0  0  0
 36 35  2  0  0  0  0
 37 36  1  0  0  0  0
 38 36  1  0  0  0  0
 38 40  2  0  0  0  0
 39 38  1  0  0  0  0
 40 42  1  0  0  0  0
 41 40  1  0  0  0  0
 42 44  2  0  0  0  0
 42 43  1  0  0  0  0
 44 45  1  0  0  0  0
M  END
