3,5
q = -1.0

 43 46  0  0  1  0  0  0  0  0999 V2000
   -3.0622    3.4283    0.2188 S   0  0  0  0  0  0  0  0  0  0  0  0
   -7.0190   -1.8681   -0.2681 S   0  0  0  0  0  0  0  0  0  0  0  0
    1.2493   -2.5728    0.3857 N   0  0  0  0  0  2  0  0  0  0  0  0
   -2.3698   -2.6616   -0.1614 N   0  0  0  0  0  0  0  0  0  0  0  0
   -0.8312   -0.9768   -0.2374 N   0  0  0  0  0  0  0  0  0  0  0  0
   -3.5803    1.1722    1.8370 C   0  0  0  0  0  0  0  0  0  0  0  0
   -3.5254    1.8858    2.6830 H   0  0  0  0  0  0  0  0  0  0  0  0
   -4.6485    0.9097    1.6754 H   0  0  0  0  0  0  0  0  0  0  0  0
   -3.0580    0.2410    2.1324 H   0  0  0  0  0  0  0  0  0  0  0  0
   -2.9595    1.7291    0.5952 C   0  0  0  0  0  0  0  0  0  0  0  0
   -2.2800    1.0470   -0.4120 C   0  0  0  0  0  0  0  0  0  0  0  0
   -1.8430    1.9179   -1.4689 C   0  0  0  0  0  0  0  0  0  0  0  0
   -1.2805    1.5653   -2.3440 H   0  0  0  0  0  0  0  0  0  0  0  0
   -2.1890    3.2418   -1.2870 C   0  0  0  0  0  0  0  0  0  0  0  0
   -1.9369    4.4141   -2.1840 C   0  0  0  0  0  0  0  0  0  0  0  0
   -1.6834    5.3270   -1.6087 H   0  0  0  0  0  0  0  0  0  0  0  0
   -1.0854    4.2027   -2.8595 H   0  0  0  0  0  0  0  0  0  0  0  0
   -2.8209    4.6553   -2.8132 H   0  0  0  0  0  0  0  0  0  0  0  0
   -5.0762   -3.6936    0.6156 C   0  0  0  0  0  0  0  0  0  0  0  0
   -5.9773   -4.1258    1.0942 H   0  0  0  0  0  0  0  0  0  0  0  0
   -4.7009   -4.4131   -0.1419 H   0  0  0  0  0  0  0  0  0  0  0  0
   -4.2685   -3.6057    1.3685 H   0  0  0  0  0  0  0  0  0  0  0  0
   -5.3669   -2.3601    0.0010 C   0  0  0  0  0  0  0  0  0  0  0  0
   -4.4806   -1.3709   -0.4336 C   0  0  0  0  0  0  0  0  0  0  0  0
   -5.1724   -0.2302   -0.9831 C   0  0  0  0  0  0  0  0  0  0  0  0
   -4.6557    0.6494   -1.3898 H   0  0  0  0  0  0  0  0  0  0  0  0
   -6.5471   -0.3357   -0.9665 C   0  0  0  0  0  0  0  0  0  0  0  0
   -7.5660    0.6456   -1.4578 C   0  0  0  0  0  0  0  0  0  0  0  0
   -8.2744    0.9502   -0.6587 H   0  0  0  0  0  0  0  0  0  0  0  0
   -7.0571    1.5590   -1.8227 H   0  0  0  0  0  0  0  0  0  0  0  0
   -8.1734    0.2383   -2.2939 H   0  0  0  0  0  0  0  0  0  0  0  0
   -2.0657   -0.4067   -0.3631 C   0  0  0  0  0  0  0  0  0  0  0  0
   -3.0241   -1.4744   -0.3278 C   0  0  0  0  0  0  0  0  0  0  0  0
   -1.0677   -2.3266   -0.0986 C   0  0  0  0  0  3  0  0  0  0  0  0
    0.0432   -3.1976    0.1858 C   0  0  2  0  0  3  0  0  0  0  0  0
   -0.0722   -4.6036    0.2974 C   0  0  0  0  0  0  0  0  0  0  0  0
   -1.0632   -5.0503    0.1369 H   0  0  0  0  0  0  0  0  0  0  0  0
    1.0589   -5.3573    0.5997 C   0  0  0  0  0  0  0  0  0  0  0  0
    0.9887   -6.4522    0.6877 H   0  0  0  0  0  0  0  0  0  0  0  0
    2.2959   -4.7046    0.7888 C   0  0  0  0  0  0  0  0  0  0  0  0
    3.2116   -5.2627    1.0276 H   0  0  0  0  0  0  0  0  0  0  0  0
    2.3413   -3.3136    0.6702 C   0  0  0  0  0  0  0  0  0  0  0  0
    3.2760   -2.7495    0.8133 H   0  0  0  0  0  0  0  0  0  0  0  0
  1 10  1  0  0  0  0
  2 23  1  0  0  0  0
  3 42  1  0  0  0  0
  4 34  1  0  0  0  0
  5 34  1  0  0  0  0
  6  9  1  0  0  0  0
  6  7  1  0  0  0  0
  8  6  1  0  0  0  0
 10  6  1  0  0  0  0
 11 32  1  0  0  0  0
 11 10  2  0  0  0  0
 12 14  2  0  0  0  0
 12 11  1  0  0  0  0
 13 12  1  0  0  0  0
 14  1  1  0  0  0  0
 15 16  1  0  0  0  0
 15 14  1  0  0  0  0
 17 15  1  0  0  0  0
 18 15  1  0  0  0  0
 19 20  1  0  0  0  0
 19 22  1  0  0  0  0
 21 19  1  0  0  0  0
 23 19  1  0  0  0  0
 24 33  1  0  0  0  0
 24 23  2  0  0  0  0
 25 27  2  0  0  0  0
 25 24  1  0  0  0  0
 26 25  1  0  0  0  0
 27  2  1  0  0  0  0
 28 27  1  0  0  0  0
 28 29  1  0  0  0  0
 30 28  1  0  0  0  0
 31 28  1  0  0  0  0
 32 33  1  0  0  0  0
 32  5  2  0  0  0  0
 33  4  2  0  0  0  0
 35 34  1  1  0  0  0
 35 36  1  0  0  0  0
 35  3  1  0  0  0  0
 36 38  2  0  0  0  0
 37 36  1  0  0  0  0
 38 39  1  0  0  0  0
 38 40  1  0  0  0  0
 40 41  1  0  0  0  0
 42 40  2  0  0  0  0
 42 43  1  0  0  0  0
M  END
