3,4
q = 0.0, confidence = 1.0

 44 47  0  0  0  0  0  0  0  0999 V2000
   -3.0540    3.4472    0.0811 S   0  0  0  0  0  0  0  0  0  0  0  0
   -6.9897   -0.6719   -0.9180 S   0  0  0  0  0  0  0  0  0  0  0  0
    1.2340   -2.6448    0.1239 N   0  0  0  0  0  2  0  0  0  0  0  0
   -0.8452   -1.0067   -0.4229 N   0  0  0  0  0  2  0  0  0  0  0  0
   -2.3982   -2.5831   -0.3749 N   0  0  0  0  0  0  0  0  0  0  0  0
   -2.8511   -3.4979   -0.3586 H   0  0  0  0  0  0  0  0  0  0  0  0
   -3.7817    1.1944    1.6091 C   0  0  0  0  0  0  0  0  0  0  0  0
   -3.7667    1.8963    2.4661 H   0  0  0  0  0  0  0  0  0  0  0  0
   -4.8449    0.9872    1.3611 H   0  0  0  0  0  0  0  0  0  0  0  0
   -3.3304    0.2395    1.9421 H   0  0  0  0  0  0  0  0  0  0  0  0
   -3.0319    1.7420    0.4357 C   0  0  0  0  0  0  0  0  0  0  0  0
   -2.2523    1.0688   -0.5036 C   0  0  0  0  0  0  0  0  0  0  0  0
   -1.6792    1.9437   -1.4891 C   0  0  0  0  0  0  0  0  0  0  0  0
   -1.0316    1.5963   -2.3050 H   0  0  0  0  0  0  0  0  0  0  0  0
   -2.0239    3.2692   -1.3236 C   0  0  0  0  0  0  0  0  0  0  0  0
   -1.6602    4.4495   -2.1686 C   0  0  0  0  0  0  0  0  0  0  0  0
   -1.3751    5.3265   -1.5545 H   0  0  0  0  0  0  0  0  0  0  0  0
   -0.7978    4.2028   -2.8167 H   0  0  0  0  0  0  0  0  0  0  0  0
   -2.5013    4.7637   -2.8223 H   0  0  0  0  0  0  0  0  0  0  0  0
   -4.8669    0.5747   -2.2603 C   0  0  0  0  0  0  0  0  0  0  0  0
   -5.6146    0.6786   -3.0707 H   0  0  0  0  0  0  0  0  0  0  0  0
   -4.7197    1.5759   -1.8028 H   0  0  0  0  0  0  0  0  0  0  0  0
   -3.9002    0.2851   -2.7134 H   0  0  0  0  0  0  0  0  0  0  0  0
   -5.2983   -0.4382   -1.2481 C   0  0  0  0  0  0  0  0  0  0  0  0
   -4.5340   -1.3165   -0.4734 C   0  0  0  0  0  0  0  0  0  0  0  0
   -5.3437   -2.1702    0.3619 C   0  0  0  0  0  0  0  0  0  0  0  0
   -4.9309   -2.9042    1.0700 H   0  0  0  0  0  0  0  0  0  0  0  0
   -6.6996   -1.9452    0.2448 C   0  0  0  0  0  0  0  0  0  0  0  0
   -7.8312   -2.6116    0.9617 C   0  0  0  0  0  0  0  0  0  0  0  0
   -8.5299   -3.1097    0.2582 H   0  0  0  0  0  0  0  0  0  0  0  0
   -7.4397   -3.3814    1.6538 H   0  0  0  0  0  0  0  0  0  0  0  0
   -8.4266   -1.8895    1.5577 H   0  0  0  0  0  0  0  0  0  0  0  0
   -2.0764   -0.3857   -0.4896 C   0  0  0  0  0  0  0  0  0  0  0  0
   -3.0792   -1.3808   -0.4735 C   0  0  0  0  0  0  0  0  0  0  0  0
   -1.0552   -2.3355   -0.3412 C   0  0  0  0  0  0  0  0  0  0  0  0
    0.0399   -3.2625   -0.1372 C   0  0  0  0  0  0  0  0  0  0  0  0
   -0.0685   -4.6667   -0.1759 C   0  0  0  0  0  0  0  0  0  0  0  0
   -1.0329   -5.1457   -0.3990 H   0  0  0  0  0  0  0  0  0  0  0  0
    1.0718   -5.4428    0.0541 C   0  0  0  0  0  0  0  0  0  0  0  0
    1.0099   -6.5404    0.0257 H   0  0  0  0  0  0  0  0  0  0  0  0
    2.2941   -4.8003    0.3119 C   0  0  0  0  0  0  0  0  0  0  0  0
    3.2143   -5.3721    0.4948 H   0  0  0  0  0  0  0  0  0  0  0  0
    2.3304   -3.4013    0.3336 C   0  0  0  0  0  0  0  0  0  0  0  0
    3.2602   -2.8469    0.5343 H   0  0  0  0  0  0  0  0  0  0  0  0
  1 11  1  0  0  0  0
  2 28  1  0  0  0  0
  3 43  1  0  0  0  0
  4 35  1  0  0  0  0
  5  6  1  0  0  0  0
  5 35  1  0  0  0  0
  7 10  1  0  0  0  0
  7  8  1  0  0  0  0
  9  7  1  0  0  0  0
 11  7  1  0  0  0  0
 12 33  1  0  0  0  0
 12 11  2  0  0  0  0
 13 15  2  0  0  0  0
 13 12  1  0  0  0  0
 14 13  1  0  0  0  0
 15  1  1  0  0  0  0
 16 17  1  0  0  0  0
 16 15  1  0  0  0  0
 18 16  1  0  0  0  0
 19 16  1  0  0  0  0
 20 22  1  0  0  0  0
 20 24  1  0  0  0  0
 21 20  1  0  0  0  0
 23 20  1  0  0  0  0
 24  2  1  0  0  0  0
 24 25  2  0  0  0  0
 25 26  1  0  0  0  0
 26 27  1  0  0  0  0
 28 26  2  0  0  0  0
 28 29  1  0  0  0  0
 29 32  1  0  0  0  0
 29 31  1  0  0  0  0
 30 29  1  0  0  0  0
 33 34  2  0  0  0  0
 33  4  1  0  0  0  0
 34 25  1  0  0  0  0
 34  5  1  0  0  0  0
 35 36  2  0  0  0  0
 36  3  1  0  0  0  0
 37 36  1  0  0  0  0
 37 39  2  0  0  0  0
 38 37  1  0  0  0  0
 39 41  1  0  0  0  0
 40 39  1  0  0  0  0
 41 43  2  0  0  0  0
 41 42  1  0  0  0  0
 43 44  1  0  0  0  0
M  END
