1,2
q = 0.0, confidence = 0.938

 46 47  0  0  0  0  0  0  0  0999 V2000
    1.2713   -0.9036    0.7558 N   0  0  0  0  0  2  0  0  0  0  0  0
   -1.3139   -0.8630    0.7663 N   0  0  0  0  0  2  0  0  0  0  0  0
    0.6756   -1.7950    1.5549 C   0  0  0  0  0  0  0  0  0  0  0  0
    1.2664   -2.5371    2.1160 H   0  0  0  0  0  0  0  0  0  0  0  0
   -0.7359   -1.7708    1.5591 C   0  0  0  0  0  0  0  0  0  0  0  0
   -1.3458   -2.4928    2.1263 H   0  0  0  0  0  0  0  0  0  0  0  0
    2.6768   -1.0290    0.5190 C   0  0  0  0  0  0  0  0  0  0  0  0
    3.6225   -0.3615    1.3345 C   0  0  0  0  0  0  0  0  0  0  0  0
    4.9828   -0.4845    0.9968 C   0  0  0  0  0  0  0  0  0  0  0  0
    5.7248    0.0333    1.6264 H   0  0  0  0  0  0  0  0  0  0  0  0
    5.4237   -1.2455   -0.1012 C   0  0  0  0  0  0  0  0  0  0  0  0
    4.4565   -1.9212   -0.8661 C   0  0  0  0  0  0  0  0  0  0  0  0
    4.7769   -2.5408   -1.7195 H   0  0  0  0  0  0  0  0  0  0  0  0
    3.0830   -1.8333   -0.5771 C   0  0  0  0  0  0  0  0  0  0  0  0
    3.1939    0.4137    2.5511 C   0  0  0  0  0  0  0  0  0  0  0  0
    2.3518    1.1052    2.3410 H   0  0  0  0  0  0  0  0  0  0  0  0
    4.0411    0.9857    2.9748 H   0  0  0  0  0  0  0  0  0  0  0  0
    2.8197   -0.2697    3.3433 H   0  0  0  0  0  0  0  0  0  0  0  0
    6.8877   -1.3154   -0.4569 C   0  0  0  0  0  0  0  0  0  0  0  0
    7.5281   -1.3182    0.4477 H   0  0  0  0  0  0  0  0  0  0  0  0
    7.1926   -0.4367   -1.0657 H   0  0  0  0  0  0  0  0  0  0  0  0
    7.1226   -2.2214   -1.0493 H   0  0  0  0  0  0  0  0  0  0  0  0
    2.0644   -2.5724   -1.4059 C   0  0  0  0  0  0  0  0  0  0  0  0
    2.5414   -3.0840   -2.2628 H   0  0  0  0  0  0  0  0  0  0  0  0
    1.2842   -1.8810   -1.7884 H   0  0  0  0  0  0  0  0  0  0  0  0
    1.5255   -3.3360   -0.8067 H   0  0  0  0  0  0  0  0  0  0  0  0
   -2.7226   -0.9735    0.5321 C   0  0  0  0  0  0  0  0  0  0  0  0
   -3.1353   -1.8376   -0.5160 C   0  0  0  0  0  0  0  0  0  0  0  0
   -4.5071   -1.9233   -0.8120 C   0  0  0  0  0  0  0  0  0  0  0  0
   -4.8293   -2.5871   -1.6308 H   0  0  0  0  0  0  0  0  0  0  0  0
   -5.4698   -1.1879   -0.0984 C   0  0  0  0  0  0  0  0  0  0  0  0
   -5.0246   -0.3672    0.9534 C   0  0  0  0  0  0  0  0  0  0  0  0
   -5.7630    0.1989    1.5444 H   0  0  0  0  0  0  0  0  0  0  0  0
   -3.6650   -0.2422    1.2948 C   0  0  0  0  0  0  0  0  0  0  0  0
   -2.1222   -2.6382   -1.2928 C   0  0  0  0  0  0  0  0  0  0  0  0
   -2.5836   -3.1178   -2.1766 H   0  0  0  0  0  0  0  0  0  0  0  0
   -1.6691   -3.4384   -0.6700 H   0  0  0  0  0  0  0  0  0  0  0  0
   -1.2790   -1.9985   -1.6263 H   0  0  0  0  0  0  0  0  0  0  0  0
   -6.9320   -1.2572   -0.4621 C   0  0  0  0  0  0  0  0  0  0  0  0
   -7.5797   -1.1762    0.4336 H   0  0  0  0  0  0  0  0  0  0  0  0
   -7.1800   -2.2025   -0.9837 H   0  0  0  0  0  0  0  0  0  0  0  0
   -7.2139   -0.4238   -1.1413 H   0  0  0  0  0  0  0  0  0  0  0  0
   -3.2416    0.6022    2.4650 C   0  0  0  0  0  0  0  0  0  0  0  0
   -2.4232    1.3052    2.2087 H   0  0  0  0  0  0  0  0  0  0  0  0
   -2.8297   -0.0291    3.2810 H   0  0  0  0  0  0  0  0  0  0  0  0
   -4.0991    1.1687    2.8750 H   0  0  0  0  0  0  0  0  0  0  0  0
  1  3  1  0  0  0  0
  2  5  1  0  0  0  0
  3  5  2  0  0  0  0
  3  4  1  0  0  0  0
  5  6  1  0  0  0  0
  7  1  1  0  0  0  0
  7  8  1  0  0  0  0
  8 15  1  0  0  0  0
  9  8  2  0  0  0  0
  9 10  1  0  0  0  0
 11  9  1  0  0  0  0
 12 14  1  0  0  0  0
 12 11  2  0  0  0  0
 13 12  1  0  0  0  0
 14  7  2  0  0  0  0
 15 17  1  0  0  0  0
 15 18  1  0  0  0  0
 16 15  1  0  0  0  0
 19 11  1  0  0  0  0
 19 20  1  0  0  0  0
 21 19  1  0  0  0  0
 22 19  1  0  0  0  0
 23 26  1  0  0  0  0
 23 14  1  0  0  0  0
 24 23  1  0  0  0  0
 25 23  1  0  0  0  0
 27  2  1  0  0  0  0
 27 34  1  0  0  0  0
 28 27  2  0  0  0  0
 29 28  1  0  0  0  0
 29 31  2  0  0  0  0
 30 29  1  0  0  0  0
 31 32  1  0  0  0  0
 32 34  2  0  0  0  0
 32 33  1  0  0  0  0
 34 43  1  0  0  0  0
 35 37  1  0  0  0  0
 35 28  1  0  0  0  0
 36 35  1  0  0  0  0
 38 35  1  0  0  0  0
 39 31  1  0  0  0  0
 39 40  1  0  0  0  0
 41 39  1  0  0  0  0
 42 39  1  0  0  0  0
 43 46  1  0  0  0  0
 43 45  1  0  0  0  0
 44 43  1  0  0  0  0
M  END
