2,3
q = 0.0, confidence = 0.994

 37 40  0  0  1  0  0  0  0  0999 V2000
   -9.7271    2.0702   -0.1326 Br  0  0  0  0  0  0  0  0  0  0  0  0
   -0.0474   -1.9776   -0.0253 N   0  0  0  0  0  2  0  0  0  0  0  0
   -1.8434   -0.2381   -0.5794 N   0  0  0  0  0  2  0  0  0  0  0  0
   -2.9186    0.5772   -0.6594 N   0  0  0  0  0  0  0  0  0  0  0  0
   -3.6358   -1.5223   -0.5554 N   0  0  0  0  0  0  0  0  0  0  0  0
    0.9930   -2.8073    0.1931 C   0  0  0  0  0  3  0  0  0  0  0  0
    1.9600   -2.3165    0.3894 H   0  0  0  0  0  0  0  0  0  0  0  0
    0.8565   -4.2015    0.1894 C   0  0  0  0  0  0  0  0  0  0  0  0
    1.7422   -4.8238    0.3805 H   0  0  0  0  0  0  0  0  0  0  0  0
   -0.4006   -4.7748   -0.0505 C   0  0  0  0  0  0  0  0  0  0  0  0
   -0.5358   -5.8662   -0.0544 H   0  0  0  0  0  0  0  0  0  0  0  0
   -1.4876   -3.9269   -0.2904 C   0  0  0  0  0  0  0  0  0  0  0  0
   -2.4899   -4.3270   -0.4897 H   0  0  0  0  0  0  0  0  0  0  0  0
   -1.2764   -2.5383   -0.2762 C   0  0  0  0  0  0  0  0  0  0  0  0
   -2.2615   -1.5093   -0.5122 C   0  0  2  0  0  3  0  0  0  0  0  0
   -4.0070   -0.1857   -0.6212 C   0  0  0  0  0  0  0  0  0  0  0  0
   -5.3789    0.3199   -0.5378 C   0  0  0  0  0  0  0  0  0  0  0  0
   -5.6227    1.4395    0.2893 C   0  0  0  0  0  0  0  0  0  0  0  0
   -4.7910    1.8626    0.8709 H   0  0  0  0  0  0  0  0  0  0  0  0
   -6.9132    1.9652    0.4093 C   0  0  0  0  0  0  0  0  0  0  0  0
   -7.1052    2.8283    1.0618 H   0  0  0  0  0  0  0  0  0  0  0  0
   -7.9696    1.3647   -0.2965 C   0  0  0  0  0  0  0  0  0  0  0  0
   -7.7488    0.2462   -1.1169 C   0  0  0  0  0  0  0  0  0  0  0  0
   -8.5849   -0.2105   -1.6642 H   0  0  0  0  0  0  0  0  0  0  0  0
   -6.4538   -0.2722   -1.2344 C   0  0  0  0  0  0  0  0  0  0  0  0
   -6.2802   -1.1383   -1.8880 H   0  0  0  0  0  0  0  0  0  0  0  0
   -4.4857   -2.6345   -0.2331 C   0  0  0  0  0  0  0  0  0  0  0  0
   -4.8400   -2.8320    1.1113 C   0  0  0  0  0  0  0  0  0  0  0  0
   -4.4575   -2.1335    1.8779 H   0  0  0  0  0  0  0  0  0  0  0  0
   -5.6625   -3.9207    1.4365 C   0  0  0  0  0  0  0  0  0  0  0  0
   -5.9485   -4.0864    2.4859 H   0  0  0  0  0  0  0  0  0  0  0  0
   -6.1152   -4.7945    0.4345 C   0  0  0  0  0  0  0  0  0  0  0  0
   -6.7595   -5.6466    0.6984 H   0  0  0  0  0  0  0  0  0  0  0  0
   -5.7474   -4.5857   -0.9054 C   0  0  0  0  0  0  0  0  0  0  0  0
   -6.1013   -5.2707   -1.6903 H   0  0  0  0  0  0  0  0  0  0  0  0
   -4.9284   -3.4994   -1.2471 C   0  0  0  0  0  0  0  0  0  0  0  0
   -4.6254   -3.3182   -2.2891 H   0  0  0  0  0  0  0  0  0  0  0  0
  2  6  1  0  0  0  0
  3 15  1  0  0  0  0
  4 16  2  0  0  0  0
  4  3  1  0  0  0  0
  5 15  1  0  0  0  0
  5 27  1  0  0  0  0
  6  7  1  0  0  0  0
  8  6  1  0  0  0  0
  8  9  1  0  0  0  0
 10  8  2  0  0  0  0
 11 10  1  0  0  0  0
 12 14  2  0  0  0  0
 12 10  1  0  0  0  0
 13 12  1  0  0  0  0
 14  2  1  0  0  0  0
 15 14  1  1  0  0  0
 16  5  1  0  0  0  0
 16 17  1  0  0  0  0
 17 18  1  0  0  0  0
 18 20  2  0  0  0  0
 18 19  1  0  0  0  0
 20 21  1  0  0  0  0
 22  1  1  0  0  0  0
 22 20  1  0  0  0  0
 23 22  2  0  0  0  0
 24 23  1  0  0  0  0
 25 23  1  0  0  0  0
 25 17  2  0  0  0  0
 26 25  1  0  0  0  0
 27 28  1  0  0  0  0
 28 30  2  0  0  0  0
 28 29  1  0  0  0  0
 30 31  1  0  0  0  0
 32 33  1  0  0  0  0
 32 30  1  0  0  0  0
 34 32  2  0  0  0  0
 35 34  1  0  0  0  0
 36 34  1  0  0  0  0
 36 27  2  0  0  0  0
 37 36  1  0  0  0  0
M  END
