1,2
q = 0.0, confidence = 0.982

 22 24  0  0  0  0  0  0  0  0999 V2000
    0.3849   -1.1977    0.1705 N   0  0  0  0  0  2  0  0  0  0  0  0
   -0.0182    1.4611    0.1647 N   0  0  0  0  0  2  0  0  0  0  0  0
    5.5424   -0.6204   -0.0245 Cl  0  0  0  0  0  0  0  0  0  0  0  0
    0.5463   -2.5290    0.1810 C   0  0  0  0  0  0  0  0  0  0  0  0
   -0.3738   -3.1301    0.2124 H   0  0  0  0  0  0  0  0  0  0  0  0
    1.8169   -3.1344    0.1426 C   0  0  0  0  0  0  0  0  0  0  0  0
    1.8897   -4.2307    0.1490 H   0  0  0  0  0  0  0  0  0  0  0  0
    2.9583   -2.3391    0.0905 C   0  0  0  0  0  0  0  0  0  0  0  0
    3.9647   -2.7789    0.0564 H   0  0  0  0  0  0  0  0  0  0  0  0
    2.8165   -0.9307    0.0788 C   0  0  0  0  0  0  0  0  0  0  0  0
    3.9194    0.0042    0.0296 C   0  0  0  0  0  0  0  0  0  0  0  0
    3.7156    1.3659    0.0273 C   0  0  0  0  0  0  0  0  0  0  0  0
    4.5767    2.0476   -0.0094 H   0  0  0  0  0  0  0  0  0  0  0  0
    2.3884    1.9104    0.0738 C   0  0  0  0  0  0  0  0  0  0  0  0
    2.1148    3.3019    0.0803 C   0  0  0  0  0  0  0  0  0  0  0  0
    2.9456    4.0223    0.0444 H   0  0  0  0  0  0  0  0  0  0  0  0
    0.7917    3.7314    0.1299 C   0  0  0  0  0  0  0  0  0  0  0  0
    0.5406    4.8012    0.1326 H   0  0  0  0  0  0  0  0  0  0  0  0
   -0.2495    2.7825    0.1706 C   0  0  0  0  0  0  0  0  0  0  0  0
   -1.3042    3.0918    0.2000 H   0  0  0  0  0  0  0  0  0  0  0  0
    1.2753    1.0222    0.1140 C   0  0  0  0  0  0  0  0  0  0  0  0
    1.4935   -0.3978    0.1165 C   0  0  0  0  0  0  0  0  0  0  0  0
  1  4  1  0  0  0  0
  2 19  1  0  0  0  0
  3 11  1  0  0  0  0
  4  5  1  0  0  0  0
  6  7  1  0  0  0  0
  6  4  2  0  0  0  0
  8  6  1  0  0  0  0
  9  8  1  0  0  0  0
 10  8  2  0  0  0  0
 10 22  1  0  0  0  0
 11 10  1  0  0  0  0
 12 11  2  0  0  0  0
 12 14  1  0  0  0  0
 13 12  1  0  0  0  0
 14 15  2  0  0  0  0
 14 21  1  0  0  0  0
 15 17  1  0  0  0  0
 16 15  1  0  0  0  0
 17 18  1  0  0  0  0
 17 19  2  0  0  0  0
 19 20  1  0  0  0  0
 21 22  2  0  0  0  0
 21  2  1  0  0  0  0
 22  1  1  0  0  0  0
M  END
