1,2
q = -1.0

 36 35  0  0  1  0  0  0  0  0999 V2000
   -1.3638   -0.8966    0.1715 N   0  0  0  0  0  2  0  0  0  0  0  0
   -0.9944    1.2673    0.3344 N   0  0  0  0  0  2  0  0  0  0  0  0
   -1.9422    0.3305    0.0896 C   0  0  1  0  0  3  0  0  0  0  0  0
   -3.4104    0.6684   -0.3280 C   0  0  0  0  0  0  0  0  0  0  0  0
   -3.4605    1.9045   -1.2630 C   0  0  0  0  0  0  0  0  0  0  0  0
   -2.7278    1.8192   -2.0898 H   0  0  0  0  0  0  0  0  0  0  0  0
   -3.3006    2.8621   -0.7415 H   0  0  0  0  0  0  0  0  0  0  0  0
   -4.4715    1.9555   -1.7132 H   0  0  0  0  0  0  0  0  0  0  0  0
   -4.2558    0.9543    0.9353 C   0  0  0  0  0  0  0  0  0  0  0  0
   -5.2713    1.2830    0.6321 H   0  0  0  0  0  0  0  0  0  0  0  0
   -3.8097    1.7543    1.5545 H   0  0  0  0  0  0  0  0  0  0  0  0
   -4.3655    0.0581    1.5725 H   0  0  0  0  0  0  0  0  0  0  0  0
   -4.0697   -0.4559   -1.1479 C   0  0  0  0  0  0  0  0  0  0  0  0
   -4.2440   -1.3761   -0.5708 H   0  0  0  0  0  0  0  0  0  0  0  0
   -3.4633   -0.7094   -2.0391 H   0  0  0  0  0  0  0  0  0  0  0  0
   -5.0597   -0.1037   -1.4994 H   0  0  0  0  0  0  0  0  0  0  0  0
   -1.8450   -2.2675    0.4974 C   0  0  0  0  0  0  0  0  0  0  0  0
   -0.6516   -2.9767    1.1775 C   0  0  0  0  0  0  0  0  0  0  0  0
    0.2187   -3.0128    0.4962 H   0  0  0  0  0  0  0  0  0  0  0  0
   -0.9234   -4.0193    1.4359 H   0  0  0  0  0  0  0  0  0  0  0  0
   -0.3687   -2.4534    2.1077 H   0  0  0  0  0  0  0  0  0  0  0  0
   -2.2140   -3.1195   -0.7379 C   0  0  0  0  0  0  0  0  0  0  0  0
   -3.1213   -2.7720   -1.2572 H   0  0  0  0  0  0  0  0  0  0  0  0
   -2.3887   -4.1672   -0.4202 H   0  0  0  0  0  0  0  0  0  0  0  0
   -1.3747   -3.1119   -1.4585 H   0  0  0  0  0  0  0  0  0  0  0  0
   -2.9777   -2.2541    1.5436 C   0  0  0  0  0  0  0  0  0  0  0  0
   -2.7001   -1.6152    2.4063 H   0  0  0  0  0  0  0  0  0  0  0  0
   -3.1378   -3.2836    1.9210 H   0  0  0  0  0  0  0  0  0  0  0  0
   -3.9463   -1.9022    1.1477 H   0  0  0  0  0  0  0  0  0  0  0  0
   -0.9839    2.7158    0.1648 C   0  0  0  0  0  0  0  0  0  0  0  0
   -1.3091    3.0293   -0.8471 H   0  0  0  0  0  0  0  0  0  0  0  0
    0.0845    3.0049    0.2026 H   0  0  0  0  0  0  0  0  0  0  0  0
   -1.7160    3.5151    1.2458 C   0  0  0  0  0  0  0  0  0  0  0  0
   -2.8178    3.4466    1.1619 H   0  0  0  0  0  0  0  0  0  0  0  0
   -1.4457    4.5875    1.1635 H   0  0  0  0  0  0  0  0  0  0  0  0
   -1.4343    3.1679    2.2593 H   0  0  0  0  0  0  0  0  0  0  0  0
  1 17  1  0  0  0  0
  3  1  1  6  0  0  0
  3  2  1  0  0  0  0
  4  3  1  0  0  0  0
  4  9  1  0  0  0  0
  5  7  1  0  0  0  0
  5  4  1  0  0  0  0
  6  5  1  0  0  0  0
  8  5  1  0  0  0  0
  9 11  1  0  0  0  0
  9 12  1  0  0  0  0
 10  9  1  0  0  0  0
 13 14  1  0  0  0  0
 13  4  1  0  0  0  0
 15 13  1  0  0  0  0
 16 13  1  0  0  0  0
 17 18  1  0  0  0  0
 17 26  1  0  0  0  0
 18 20  1  0  0  0  0
 18 21  1  0  0  0  0
 19 18  1  0  0  0  0
 22 24  1  0  0  0  0
 22 17  1  0  0  0  0
 23 22  1  0  0  0  0
 25 22  1  0  0  0  0
 26 28  1  0  0  0  0
 26 27  1  0  0  0  0
 29 26  1  0  0  0  0
 30 32  1  0  0  0  0
 30  2  1  0  0  0  0
 30 33  1  0  0  0  0
 31 30  1  0  0  0  0
 33 36  1  0  0  0  0
 34 33  1  0  0  0  0
 35 33  1  0  0  0  0
M  END
