1,2
q = -1.0

 34 34  0  0  1  0  0  0  0  0999 V2000
    0.8787    1.0244   -0.0939 N   0  0  0  0  0  2  0  0  0  0  0  0
    0.7663   -1.2076   -0.0782 N   0  0  0  0  0  2  0  0  0  0  0  0
    1.5639   -0.1281   -0.0373 C   0  0  2  0  0  3  0  0  0  0  0  0
    3.0478   -0.2936    0.1064 C   0  0  0  0  0  0  0  0  0  0  0  0
    3.8986   -0.3408   -1.0149 C   0  0  0  0  0  0  0  0  0  0  0  0
    3.4755   -0.2271   -2.0239 H   0  0  0  0  0  0  0  0  0  0  0  0
    5.2791   -0.5259   -0.8464 C   0  0  0  0  0  0  0  0  0  0  0  0
    5.9370   -0.5526   -1.7281 H   0  0  0  0  0  0  0  0  0  0  0  0
    5.8190   -0.6796    0.4402 C   0  0  0  0  0  0  0  0  0  0  0  0
    6.9022   -0.8232    0.5704 H   0  0  0  0  0  0  0  0  0  0  0  0
    4.9722   -0.6570    1.5602 C   0  0  0  0  0  0  0  0  0  0  0  0
    5.3893   -0.7843    2.5706 H   0  0  0  0  0  0  0  0  0  0  0  0
    3.5927   -0.4698    1.3944 C   0  0  0  0  0  0  0  0  0  0  0  0
    2.9270   -0.4423    2.2708 H   0  0  0  0  0  0  0  0  0  0  0  0
    1.4496    2.3807   -0.2800 C   0  0  0  0  0  0  0  0  0  0  0  0
    0.3631    3.4046    0.0965 C   0  0  0  0  0  0  0  0  0  0  0  0
   -0.5604    3.2348   -0.4864 H   0  0  0  0  0  0  0  0  0  0  0  0
    0.7240    4.4304   -0.1155 H   0  0  0  0  0  0  0  0  0  0  0  0
    0.1254    3.3446    1.1751 H   0  0  0  0  0  0  0  0  0  0  0  0
    1.8251    2.5784   -1.7643 C   0  0  0  0  0  0  0  0  0  0  0  0
    2.6283    1.8787   -2.0669 H   0  0  0  0  0  0  0  0  0  0  0  0
    2.1921    3.6103   -1.9391 H   0  0  0  0  0  0  0  0  0  0  0  0
    0.9412    2.4071   -2.4093 H   0  0  0  0  0  0  0  0  0  0  0  0
    2.6770    2.6595    0.6148 C   0  0  0  0  0  0  0  0  0  0  0  0
    2.4669    2.3947    1.6707 H   0  0  0  0  0  0  0  0  0  0  0  0
    2.9101    3.7426    0.5766 H   0  0  0  0  0  0  0  0  0  0  0  0
    3.5820    2.1142    0.2938 H   0  0  0  0  0  0  0  0  0  0  0  0
    1.2322   -2.5838   -0.0609 C   0  0  0  0  0  0  0  0  0  0  0  0
    0.3946   -3.2083    0.3124 H   0  0  0  0  0  0  0  0  0  0  0  0
    2.0620   -2.6993    0.6721 H   0  0  0  0  0  0  0  0  0  0  0  0
    1.6698   -3.1149   -1.4291 C   0  0  0  0  0  0  0  0  0  0  0  0
    0.8483   -3.0063   -2.1633 H   0  0  0  0  0  0  0  0  0  0  0  0
    1.9373   -4.1889   -1.3560 H   0  0  0  0  0  0  0  0  0  0  0  0
    2.5569   -2.5697   -1.8070 H   0  0  0  0  0  0  0  0  0  0  0  0
  2 28  1  0  0  0  0
  2  3  1  0  0  0  0
  3  1  1  1  0  0  0
  3  4  1  0  0  0  0
  4 13  1  0  0  0  0
  5  7  1  0  0  0  0
  5  4  2  0  0  0  0
  6  5  1  0  0  0  0
  7  9  2  0  0  0  0
  8  7  1  0  0  0  0
  9 10  1  0  0  0  0
  9 11  1  0  0  0  0
 11 12  1  0  0  0  0
 13 11  2  0  0  0  0
 13 14  1  0  0  0  0
 15  1  1  0  0  0  0
 15 16  1  0  0  0  0
 15 24  1  0  0  0  0
 16 19  1  0  0  0  0
 17 16  1  0  0  0  0
 18 16  1  0  0  0  0
 20 15  1  0  0  0  0
 21 20  1  0  0  0  0
 22 20  1  0  0  0  0
 23 20  1  0  0  0  0
 24 25  1  0  0  0  0
 26 24  1  0  0  0  0
 27 24  1  0  0  0  0
 28 29  1  0  0  0  0
 28 30  1  0  0  0  0
 31 33  1  0  0  0  0
 31 28  1  0  0  0  0
 32 31  1  0  0  0  0
 34 31  1  0  0  0  0
M  END
