4,5
q = 0.0, confidence = 0.984

 20 20  0  0  0  0  0  0  0  0999 V2000
    1.2506   -1.2449    2.2597 O   0  0  0  0  0  0  0  0  0  0  0  0
    0.2032   -1.3423    2.3488 H   0  0  0  0  0  0  0  0  0  0  0  0
    1.2504    1.2449   -2.2597 O   0  0  0  0  0  0  0  0  0  0  0  0
    1.3932   -0.6522    1.0704 N   0  0  0  0  0  2  0  0  0  0  0  0
    1.3931    0.6524   -1.0703 N   0  0  0  0  0  2  0  0  0  0  0  0
    0.2029    1.3411   -2.3489 H   0  0  0  0  0  0  0  0  0  0  0  0
    2.5988   -0.3652    0.6314 C   0  0  0  0  0  0  0  0  0  0  0  0
    2.5988    0.3657   -0.6312 C   0  0  0  0  0  0  0  0  0  0  0  0
    3.8667    0.6896   -1.3607 C   0  0  0  0  0  0  0  0  0  0  0  0
    3.9821   -0.0485   -2.1880 H   0  0  0  0  0  0  0  0  0  0  0  0
    3.7568    1.6732   -1.8608 H   0  0  0  0  0  0  0  0  0  0  0  0
    5.0863    0.6371   -0.4272 C   0  0  0  0  0  0  0  0  0  0  0  0
    6.0133    0.7017   -1.0301 H   0  0  0  0  0  0  0  0  0  0  0  0
    5.0828    1.5278    0.2387 H   0  0  0  0  0  0  0  0  0  0  0  0
    5.0864   -0.6363    0.4274 C   0  0  0  0  0  0  0  0  0  0  0  0
    6.0134   -0.7008    1.0302 H   0  0  0  0  0  0  0  0  0  0  0  0
    5.0830   -1.5270   -0.2386 H   0  0  0  0  0  0  0  0  0  0  0  0
    3.8668   -0.6889    1.3609 C   0  0  0  0  0  0  0  0  0  0  0  0
    3.7570   -1.6724    1.8611 H   0  0  0  0  0  0  0  0  0  0  0  0
    3.9821    0.0493    2.1881 H   0  0  0  0  0  0  0  0  0  0  0  0
  1  2  1  0  0  0  0
  3  5  1  0  0  0  0
  4  1  1  0  0  0  0
  5  8  1  0  0  0  0
  6  3  1  0  0  0  0
  7  4  1  0  0  0  0
  7 18  1  0  0  0  0
  8  7  2  0  0  0  0
  9  8  1  0  0  0  0
  9 12  1  0  0  0  0
 10  9  1  0  0  0  0
 11  9  1  0  0  0  0
 12 14  1  0  0  0  0
 12 15  1  0  0  0  0
 13 12  1  0  0  0  0
 15 16  1  0  0  0  0
 15 18  1  0  0  0  0
 17 15  1  0  0  0  0
 18 19  1  0  0  0  0
 18 20  1  0  0  0  0
M  END
