1,2
q = -1.0

 18 18  0  0  0  0  0  0  0  0999 V2000
   -1.9960    0.2586   -0.3418 N   0  0  0  0  0  0  0  0  0  0  0  0
   -0.0322    1.1970    1.1397 N   0  0  0  0  0  2  0  0  0  0  0  0
   -3.1639   -0.1421   -0.9252 C   0  0  0  0  0  0  0  0  0  0  0  0
   -4.2633    0.3995   -0.2333 C   0  0  0  0  0  0  0  0  0  0  0  0
   -3.7403    1.1706    0.8339 C   0  0  0  0  0  0  0  0  0  0  0  0
   -2.3378    1.0627    0.7431 C   0  0  0  0  0  3  0  0  0  0  0  0
   -1.2422    1.5368    1.5115 C   0  0  0  0  0  3  0  0  0  0  0  0
    1.1089    1.7003    1.9017 C   0  0  0  0  0  0  0  0  0  0  0  0
    1.6856    2.9857    1.3066 C   0  0  0  0  0  0  0  0  0  0  0  0
   -3.1452   -0.7896   -1.8107 H   0  0  0  0  0  0  0  0  0  0  0  0
   -5.3199    0.2528   -0.4860 H   0  0  0  0  0  0  0  0  0  0  0  0
   -4.3022    1.7414    1.5830 H   0  0  0  0  0  0  0  0  0  0  0  0
   -1.4083    2.1643    2.4099 H   0  0  0  0  0  0  0  0  0  0  0  0
    0.7940    1.8785    2.9552 H   0  0  0  0  0  0  0  0  0  0  0  0
    1.8868    0.9116    1.9240 H   0  0  0  0  0  0  0  0  0  0  0  0
    2.5836    3.3006    1.8746 H   0  0  0  0  0  0  0  0  0  0  0  0
    1.9697    2.8367    0.2484 H   0  0  0  0  0  0  0  0  0  0  0  0
    0.9412    3.8071    1.3429 H   0  0  0  0  0  0  0  0  0  0  0  0
  1  6  1  0  0  0  0
  2  7  1  0  0  0  0
  2  8  1  0  0  0  0
  3  1  2  0  0  0  0
  3  4  1  0  0  0  0
  4  5  2  0  0  0  0
  5 12  1  0  0  0  0
  6  5  1  0  0  0  0
  6  7  1  0  0  0  0
  7 13  1  0  0  0  0
  8 15  1  0  0  0  0
  8 14  1  0  0  0  0
  9 18  1  0  0  0  0
  9 16  1  0  0  0  0
  9  8  1  0  0  0  0
 10  3  1  0  0  0  0
 11  4  1  0  0  0  0
 17  9  1  0  0  0  0
M  END
