1,4
q = 0.0, confidence = 0.954

 31 32  0  0  0  0  0  0  0  0999 V2000
   -0.3386    1.0316   -0.1981 N   0  0  0  0  0  2  0  0  0  0  0  0
    0.0358    2.2756   -0.0770 N   0  0  0  0  0  0  0  0  0  0  0  0
    1.3876    2.4282   -0.1551 C   0  0  0  0  0  0  0  0  0  0  0  0
    2.1496    1.2918   -0.3057 N   0  0  0  0  0  2  0  0  0  0  0  0
    3.4828    1.4084   -0.5103 C   0  0  0  0  0  0  0  0  0  0  0  0
    4.1219    2.6487   -0.5091 C   0  0  0  0  0  0  0  0  0  0  0  0
    3.3603    3.8179   -0.3053 C   0  0  0  0  0  0  0  0  0  0  0  0
    1.9824    3.7097   -0.1340 C   0  0  0  0  0  0  0  0  0  0  0  0
   -1.7216    0.8137   -0.2308 C   0  0  0  0  0  0  0  0  0  0  0  0
   -2.6199    1.7295    0.3775 C   0  0  0  0  0  0  0  0  0  0  0  0
   -3.9867    1.5137    0.3304 C   0  0  0  0  0  0  0  0  0  0  0  0
   -4.5374    0.3880   -0.3683 C   0  0  0  0  0  0  0  0  0  0  0  0
   -3.6188   -0.5043   -1.0102 C   0  0  0  0  0  0  0  0  0  0  0  0
   -2.2493   -0.3006   -0.9315 C   0  0  0  0  0  0  0  0  0  0  0  0
   -5.8854    0.1819   -0.4255 N   0  0  0  0  0  0  0  0  0  0  0  0
   -6.8047    1.1297    0.1919 C   0  0  0  0  0  0  0  0  0  0  0  0
   -6.4237   -0.9723   -1.1335 C   0  0  0  0  0  0  0  0  0  0  0  0
    4.0300    0.4711   -0.6805 H   0  0  0  0  0  0  0  0  0  0  0  0
    5.2076    2.6947   -0.6695 H   0  0  0  0  0  0  0  0  0  0  0  0
    3.8456    4.8046   -0.2984 H   0  0  0  0  0  0  0  0  0  0  0  0
    1.3281    4.5822   -0.0067 H   0  0  0  0  0  0  0  0  0  0  0  0
   -2.2080    2.6011    0.9032 H   0  0  0  0  0  0  0  0  0  0  0  0
   -4.6476    2.2232    0.8430 H   0  0  0  0  0  0  0  0  0  0  0  0
   -3.9896   -1.3485   -1.6038 H   0  0  0  0  0  0  0  0  0  0  0  0
   -1.5582   -0.9503   -1.4866 H   0  0  0  0  0  0  0  0  0  0  0  0
   -7.8418    0.7935    0.0225 H   0  0  0  0  0  0  0  0  0  0  0  0
   -6.6425    1.2018    1.2885 H   0  0  0  0  0  0  0  0  0  0  0  0
   -6.6972    2.1461   -0.2430 H   0  0  0  0  0  0  0  0  0  0  0  0
   -7.5221   -0.9838   -1.0302 H   0  0  0  0  0  0  0  0  0  0  0  0
   -6.0297   -1.9238   -0.7178 H   0  0  0  0  0  0  0  0  0  0  0  0
   -6.1801   -0.9399   -2.2174 H   0  0  0  0  0  0  0  0  0  0  0  0
  1  2  1  0  0  0  0
  3  8  1  0  0  0  0
  3  2  2  0  0  0  0
  4  3  1  0  0  0  0
  5  6  2  0  0  0  0
  5  4  1  0  0  0  0
  6  7  1  0  0  0  0
  7 20  1  0  0  0  0
  7  8  2  0  0  0  0
  8 21  1  0  0  0  0
  9  1  1  0  0  0  0
  9 10  1  0  0  0  0
 10 22  1  0  0  0  0
 11 10  2  0  0  0  0
 11 23  1  0  0  0  0
 12 11  1  0  0  0  0
 13 14  1  0  0  0  0
 13 12  2  0  0  0  0
 14  9  2  0  0  0  0
 15 12  1  0  0  0  0
 15 16  1  0  0  0  0
 16 27  1  0  0  0  0
 17 29  1  0  0  0  0
 17 30  1  0  0  0  0
 17 15  1  0  0  0  0
 18  5  1  0  0  0  0
 19  6  1  0  0  0  0
 24 13  1  0  0  0  0
 25 14  1  0  0  0  0
 26 16  1  0  0  0  0
 28 16  1  0  0  0  0
 31 17  1  0  0  0  0
M  END
