1,2
q = 0.0, confidence = 0.996

 46 48  0  0  0  0  0  0  0  0999 V2000
    1.2399   -1.5246   -0.0162 N   0  0  0  0  0  2  0  0  0  0  0  0
    1.7220    1.1827   -0.0028 N   0  0  0  0  0  2  0  0  0  0  0  0
    0.9599   -2.8425   -0.0660 C   0  0  0  0  0  0  0  0  0  0  0  0
    2.0159   -3.7943   -0.0544 C   0  0  0  0  0  0  0  0  0  0  0  0
    1.7814   -4.8644   -0.0912 H   0  0  0  0  0  0  0  0  0  0  0  0
    3.3385   -3.3809    0.0063 C   0  0  0  0  0  0  0  0  0  0  0  0
    4.1575   -4.1167    0.0203 H   0  0  0  0  0  0  0  0  0  0  0  0
    3.6416   -1.9982    0.0442 C   0  0  0  0  0  0  0  0  0  0  0  0
    4.9847   -1.4915    0.0955 C   0  0  0  0  0  0  0  0  0  0  0  0
    5.8164   -2.2119    0.1172 H   0  0  0  0  0  0  0  0  0  0  0  0
    5.2246   -0.1397    0.1142 C   0  0  0  0  0  0  0  0  0  0  0  0
    6.2534    0.2497    0.1515 H   0  0  0  0  0  0  0  0  0  0  0  0
    4.1385    0.7996    0.0791 C   0  0  0  0  0  0  0  0  0  0  0  0
    4.3303    2.2028    0.0757 C   0  0  0  0  0  0  0  0  0  0  0  0
    5.3524    2.6108    0.1091 H   0  0  0  0  0  0  0  0  0  0  0  0
    3.2313    3.0476    0.0230 C   0  0  0  0  0  0  0  0  0  0  0  0
    3.3780    4.1339    0.0129 H   0  0  0  0  0  0  0  0  0  0  0  0
    1.9132    2.5177   -0.0201 C   0  0  0  0  0  0  0  0  0  0  0  0
    2.7889    0.3350    0.0381 C   0  0  0  0  0  0  0  0  0  0  0  0
    2.5343   -1.0970    0.0249 C   0  0  0  0  0  0  0  0  0  0  0  0
   -0.5131   -3.2681   -0.1192 C   0  0  0  0  0  0  0  0  0  0  0  0
   -1.1848   -2.8725    1.2166 C   0  0  0  0  0  0  0  0  0  0  0  0
   -1.1433   -1.7791    1.3810 H   0  0  0  0  0  0  0  0  0  0  0  0
   -0.7021   -3.3877    2.0720 H   0  0  0  0  0  0  0  0  0  0  0  0
   -2.2558   -3.1549    1.1942 H   0  0  0  0  0  0  0  0  0  0  0  0
   -1.2049   -2.5571   -1.3016 C   0  0  0  0  0  0  0  0  0  0  0  0
   -1.2144   -1.4549   -1.1911 H   0  0  0  0  0  0  0  0  0  0  0  0
   -2.2655   -2.8698   -1.3597 H   0  0  0  0  0  0  0  0  0  0  0  0
   -0.7123   -2.8074   -2.2630 H   0  0  0  0  0  0  0  0  0  0  0  0
   -0.6607   -4.7881   -0.3114 C   0  0  0  0  0  0  0  0  0  0  0  0
   -1.7375   -5.0401   -0.3707 H   0  0  0  0  0  0  0  0  0  0  0  0
   -0.2370   -5.3646    0.5360 H   0  0  0  0  0  0  0  0  0  0  0  0
   -0.1863   -5.1391   -1.2506 H   0  0  0  0  0  0  0  0  0  0  0  0
    0.6752    3.4211   -0.0789 C   0  0  0  0  0  0  0  0  0  0  0  0
    1.0516    4.9079   -0.2029 C   0  0  0  0  0  0  0  0  0  0  0  0
    1.6159    5.2751    0.6784 H   0  0  0  0  0  0  0  0  0  0  0  0
    0.1229    5.5075   -0.2695 H   0  0  0  0  0  0  0  0  0  0  0  0
    1.6459    5.1154   -1.1163 H   0  0  0  0  0  0  0  0  0  0  0  0
   -0.1673    3.0291   -1.3114 C   0  0  0  0  0  0  0  0  0  0  0  0
   -1.1238    3.5859   -1.3150 H   0  0  0  0  0  0  0  0  0  0  0  0
   -0.4336    1.9536   -1.3132 H   0  0  0  0  0  0  0  0  0  0  0  0
    0.3814    3.2437   -2.2511 H   0  0  0  0  0  0  0  0  0  0  0  0
   -0.1325    3.2291    1.2261 C   0  0  0  0  0  0  0  0  0  0  0  0
    0.4602    3.5508    2.1067 H   0  0  0  0  0  0  0  0  0  0  0  0
   -0.4399    2.1755    1.3669 H   0  0  0  0  0  0  0  0  0  0  0  0
   -1.0662    3.8228    1.1825 H   0  0  0  0  0  0  0  0  0  0  0  0
  1 20  1  0  0  0  0
  2 19  1  0  0  0  0
  3  4  2  0  0  0  0
  3  1  1  0  0  0  0
  4  6  1  0  0  0  0
  5  4  1  0  0  0  0
  6  7  1  0  0  0  0
  6  8  2  0  0  0  0
  8  9  1  0  0  0  0
  9 11  2  0  0  0  0
  9 10  1  0  0  0  0
 11 12  1  0  0  0  0
 13 11  1  0  0  0  0
 14 13  2  0  0  0  0
 14 15  1  0  0  0  0
 16 14  1  0  0  0  0
 17 16  1  0  0  0  0
 18  2  1  0  0  0  0
 18 16  2  0  0  0  0
 19 13  1  0  0  0  0
 20 19  2  0  0  0  0
 20  8  1  0  0  0  0
 21  3  1  0  0  0  0
 21 22  1  0  0  0  0
 22 23  1  0  0  0  0
 22 24  1  0  0  0  0
 25 22  1  0  0  0  0
 26 27  1  0  0  0  0
 26 21  1  0  0  0  0
 28 26  1  0  0  0  0
 29 26  1  0  0  0  0
 30 21  1  0  0  0  0
 30 32  1  0  0  0  0
 31 30  1  0  0  0  0
 33 30  1  0  0  0  0
 34 18  1  0  0  0  0
 34 43  1  0  0  0  0
 35 34  1  0  0  0  0
 35 36  1  0  0  0  0
 37 35  1  0  0  0  0
 38 35  1  0  0  0  0
 39 34  1  0  0  0  0
 40 39  1  0  0  0  0
 41 39  1  0  0  0  0
 42 39  1  0  0  0  0
 43 45  1  0  0  0  0
 43 44  1  0  0  0  0
 46 43  1  0  0  0  0
M  END
