1,18
q = -1.0

 40 43  0  0  1  0  0  0  0  0999 V2000
   -1.2209    0.5994   -0.7761 N   0  0  0  0  0  2  0  0  0  0  0  0
   -2.5538    0.4142   -1.3731 C   0  0  2  0  0  0  0  0  0  0  0  0
   -2.5436   -0.3966   -2.1296 H   0  0  0  0  0  0  0  0  0  0  0  0
   -2.7755    1.7739   -2.0682 C   0  0  0  0  0  0  0  0  0  0  0  0
   -2.4084    1.7628   -3.1190 H   0  0  0  0  0  0  0  0  0  0  0  0
   -3.8243    2.1244   -2.0432 H   0  0  0  0  0  0  0  0  0  0  0  0
   -1.9670    2.6786   -1.3012 O   0  0  0  0  0  0  0  0  0  0  0  0
   -1.0169    1.9223   -0.6815 C   0  0  1  0  0  3  0  0  0  0  0  0
   -0.0001    2.5984    0.0002 C   0  0  0  0  0  0  0  0  0  0  0  0
   -0.0001    3.6929    0.0003 H   0  0  0  0  0  0  0  0  0  0  0  0
    1.0168    1.9223    0.6817 C   0  0  0  0  0  0  0  0  0  0  0  0
    1.9669    2.6785    1.3015 O   0  0  0  0  0  0  0  0  0  0  0  0
    2.7755    1.7738    2.0683 C   0  0  0  0  0  0  0  0  0  0  0  0
    2.4085    1.7625    3.1192 H   0  0  0  0  0  0  0  0  0  0  0  0
    3.8242    2.1243    2.0432 H   0  0  0  0  0  0  0  0  0  0  0  0
    2.5538    0.4141    1.3732 C   0  0  1  0  0  0  0  0  0  0  0  0
    2.5435   -0.3968    2.1295 H   0  0  0  0  0  0  0  0  0  0  0  0
    1.2209    0.5993    0.7762 N   0  0  0  0  0  2  0  0  0  0  0  0
   -3.6375    0.1053   -0.3445 C   0  0  0  0  0  0  0  0  0  0  0  0
   -3.4654    0.3982    1.0203 C   0  0  0  0  0  0  0  0  0  0  0  0
   -2.5041    0.8068    1.3648 H   0  0  0  0  0  0  0  0  0  0  0  0
   -4.4997    0.1469    1.9354 C   0  0  0  0  0  0  0  0  0  0  0  0
   -4.3511    0.3788    3.0012 H   0  0  0  0  0  0  0  0  0  0  0  0
   -5.7157   -0.4014    1.4991 C   0  0  0  0  0  0  0  0  0  0  0  0
   -6.5235   -0.6019    2.2192 H   0  0  0  0  0  0  0  0  0  0  0  0
   -5.8935   -0.7000    0.1383 C   0  0  0  0  0  0  0  0  0  0  0  0
   -6.8401   -1.1390   -0.2124 H   0  0  0  0  0  0  0  0  0  0  0  0
   -4.8598   -0.4478   -0.7752 C   0  0  0  0  0  0  0  0  0  0  0  0
   -4.9998   -0.6927   -1.8411 H   0  0  0  0  0  0  0  0  0  0  0  0
    3.6375    0.1053    0.3445 C   0  0  0  0  0  0  0  0  0  0  0  0
    3.4657    0.3988   -1.0202 C   0  0  0  0  0  0  0  0  0  0  0  0
    2.5045    0.8077   -1.3646 H   0  0  0  0  0  0  0  0  0  0  0  0
    4.5000    0.1476   -1.9353 C   0  0  0  0  0  0  0  0  0  0  0  0
    4.3516    0.3799   -3.0010 H   0  0  0  0  0  0  0  0  0  0  0  0
    5.7158   -0.4012   -1.4990 C   0  0  0  0  0  0  0  0  0  0  0  0
    6.5236   -0.6016   -2.2191 H   0  0  0  0  0  0  0  0  0  0  0  0
    5.8934   -0.7003   -0.1383 C   0  0  0  0  0  0  0  0  0  0  0  0
    6.8398   -1.1396    0.2123 H   0  0  0  0  0  0  0  0  0  0  0  0
    4.8596   -0.4482    0.7751 C   0  0  0  0  0  0  0  0  0  0  0  0
    4.9995   -0.6936    1.8410 H   0  0  0  0  0  0  0  0  0  0  0  0
  1  8  1  0  0  0  0
  2  3  1  6  0  0  0
  2  1  1  0  0  0  0
  2 19  1  0  0  0  0
  4  6  1  0  0  0  0
  4  2  1  0  0  0  0
  4  7  1  0  0  0  0
  5  4  1  0  0  0  0
  7  8  1  0  0  0  0
  8  9  1  1  0  0  0
  9 10  1  0  0  0  0
  9 11  2  0  0  0  0
 11 18  1  0  0  0  0
 11 12  1  0  0  0  0
 12 13  1  0  0  0  0
 13 14  1  0  0  0  0
 15 13  1  0  0  0  0
 16 13  1  0  0  0  0
 16 17  1  1  0  0  0
 18 16  1  0  0  0  0
 19 20  1  0  0  0  0
 20 21  1  0  0  0  0
 20 22  2  0  0  0  0
 22 23  1  0  0  0  0
 24 22  1  0  0  0  0
 24 25  1  0  0  0  0
 26 24  2  0  0  0  0
 27 26  1  0  0  0  0
 28 19  2  0  0  0  0
 28 26  1  0  0  0  0
 29 28  1  0  0  0  0
 30 39  1  0  0  0  0
 30 16  1  0  0  0  0
 31 30  2  0  0  0  0
 32 31  1  0  0  0  0
 33 35  2  0  0  0  0
 33 31  1  0  0  0  0
 34 33  1  0  0  0  0
 35 37  1  0  0  0  0
 36 35  1  0  0  0  0
 37 38  1  0  0  0  0
 37 39  2  0  0  0  0
 39 40  1  0  0  0  0
M  END
