1,2
q = -1.0, confidence = 0.0

 19 20  0  0  0  0  0  0  0  0999 V2000
    0.2688   -2.3114    0.5877 N   0  0  0  0  0  2  0  0  0  0  0  0
    1.9198   -0.2701    0.0125 N   0  0  0  0  0  0  0  0  0  0  0  0
    2.9101    0.5804   -0.2934 N   0  0  0  0  0  0  0  0  0  0  0  0
    3.8068   -1.4956    0.0238 N   0  0  0  0  0  0  0  0  0  0  0  0
   -0.6025   -3.2666    0.9745 C   0  0  0  0  0  3  0  0  0  0  0  0
   -1.6619   -2.9617    1.0009 H   0  0  0  0  0  0  0  0  0  0  0  0
   -0.1999   -4.5622    1.3129 C   0  0  0  0  0  0  0  0  0  0  0  0
   -0.9506   -5.3041    1.6190 H   0  0  0  0  0  0  0  0  0  0  0  0
    1.1688   -4.8838    1.2467 C   0  0  0  0  0  0  0  0  0  0  0  0
    1.5177   -5.8962    1.4998 H   0  0  0  0  0  0  0  0  0  0  0  0
    2.0803   -3.8976    0.8652 C   0  0  0  0  0  0  0  0  0  0  0  0
    3.1630   -4.0767    0.8073 H   0  0  0  0  0  0  0  0  0  0  0  0
    1.6030   -2.6097    0.5510 C   0  0  0  0  0  0  0  0  0  0  0  0
    2.4710   -1.5039    0.1929 C   0  0  0  0  0  3  0  0  0  0  0  0
    4.0206   -0.1957   -0.2680 C   0  0  0  0  0  0  0  0  0  0  0  0
    5.3736    0.3560   -0.6287 C   0  0  0  0  0  0  0  0  0  0  0  0
    5.6310    0.2060   -1.9548 F   0  0  0  0  0  0  0  0  0  0  0  0
    6.3579   -0.2773    0.0433 F   0  0  0  0  0  0  0  0  0  0  0  0
    5.4549    1.6756   -0.3523 F   0  0  0  0  0  0  0  0  0  0  0  0
  1  5  1  0  0  0  0
  2 14  1  0  0  0  0
  3 15  1  0  0  0  0
  3  2  2  0  0  0  0
  4 14  1  0  0  0  0
  5  6  1  0  0  0  0
  5  7  1  0  0  0  0
  7  8  1  0  0  0  0
  9  7  2  0  0  0  0
  9 10  1  0  0  0  0
 11  9  1  0  0  0  0
 12 11  1  0  0  0  0
 13  1  1  0  0  0  0
 13 11  2  0  0  0  0
 14 13  1  0  0  0  0
 15  4  2  0  0  0  0
 16 19  1  0  0  0  0
 16 15  1  0  0  0  0
 16 18  1  0  0  0  0
 17 16  1  0  0  0  0
M  END
