4,16
q = -1.0, confidence = 0.062

 73 78  0  0  0  0  0  0  0  0999 V2000
    0.0253    0.7411    1.3486 C   0  0  0  0  0  3  0  0  0  0  0  0
    0.0706    1.4851    2.5451 C   0  0  0  0  0  0  0  0  0  0  0  0
    0.1539    2.1140    3.5429 N   0  0  0  0  0  0  0  0  0  0  0  0
    1.2057   -0.7333   -0.5835 N   0  0  0  0  0  2  0  0  0  0  0  0
    2.0000   -1.1168   -1.6802 C   0  0  0  0  0  0  0  0  0  0  0  0
    1.3588   -1.7510   -2.7737 C   0  0  0  0  0  0  0  0  0  0  0  0
    0.2723   -1.9162   -2.7162 H   0  0  0  0  0  0  0  0  0  0  0  0
    2.0907   -2.1484   -3.8983 C   0  0  0  0  0  0  0  0  0  0  0  0
    1.5699   -2.6388   -4.7352 H   0  0  0  0  0  0  0  0  0  0  0  0
    3.4762   -1.9189   -3.9679 C   0  0  0  0  0  0  0  0  0  0  0  0
    4.0489   -2.2295   -4.8543 H   0  0  0  0  0  0  0  0  0  0  0  0
    4.1207   -1.2972   -2.8877 C   0  0  0  0  0  0  0  0  0  0  0  0
    5.2071   -1.1220   -2.9198 H   0  0  0  0  0  0  0  0  0  0  0  0
    3.3977   -0.9074   -1.7510 C   0  0  0  0  0  0  0  0  0  0  0  0
    3.9227   -0.4491   -0.9014 H   0  0  0  0  0  0  0  0  0  0  0  0
   -1.6742   -0.8530   -0.1902 N   0  0  0  0  0  2  0  0  0  0  0  0
   -2.7562   -1.2430   -0.9968 C   0  0  0  0  0  0  0  0  0  0  0  0
   -2.6631   -2.4555   -1.7293 C   0  0  0  0  0  0  0  0  0  0  0  0
   -1.7382   -3.0475   -1.6375 H   0  0  0  0  0  0  0  0  0  0  0  0
   -3.7095   -2.8885   -2.5517 C   0  0  0  0  0  0  0  0  0  0  0  0
   -3.6016   -3.8359   -3.1021 H   0  0  0  0  0  0  0  0  0  0  0  0
   -4.8805   -2.1242   -2.6854 C   0  0  0  0  0  0  0  0  0  0  0  0
   -5.7005   -2.4630   -3.3355 H   0  0  0  0  0  0  0  0  0  0  0  0
   -4.9843   -0.9199   -1.9724 C   0  0  0  0  0  0  0  0  0  0  0  0
   -5.8943   -0.3057   -2.0562 H   0  0  0  0  0  0  0  0  0  0  0  0
   -3.9471   -0.4829   -1.1377 C   0  0  0  0  0  0  0  0  0  0  0  0
   -4.0725    0.4548   -0.5805 H   0  0  0  0  0  0  0  0  0  0  0  0
    1.5461    0.4733    0.4937 P   0  0  0  0  0  4  0  0  0  0  0  0
    2.0975    1.9968   -0.3489 C   0  0  0  0  0  0  0  0  0  0  0  0
    2.4561    3.1033    0.4534 C   0  0  0  0  0  0  0  0  0  0  0  0
    2.4853    3.0064    1.5499 H   0  0  0  0  0  0  0  0  0  0  0  0
    2.7537    4.3342   -0.1477 C   0  0  0  0  0  0  0  0  0  0  0  0
    3.0326    5.1933    0.4809 H   0  0  0  0  0  0  0  0  0  0  0  0
    2.6913    4.4697   -1.5447 C   0  0  0  0  0  0  0  0  0  0  0  0
    2.9284    5.4364   -2.0146 H   0  0  0  0  0  0  0  0  0  0  0  0
    2.3159    3.3756   -2.3391 C   0  0  0  0  0  0  0  0  0  0  0  0
    2.2486    3.4820   -3.4320 H   0  0  0  0  0  0  0  0  0  0  0  0
    2.0137    2.1405   -1.7480 C   0  0  0  0  0  0  0  0  0  0  0  0
    1.7045    1.2932   -2.3740 H   0  0  0  0  0  0  0  0  0  0  0  0
    2.8107    0.0846    1.7585 C   0  0  0  0  0  0  0  0  0  0  0  0
    2.4410   -0.7572    2.8282 C   0  0  0  0  0  0  0  0  0  0  0  0
    1.3928   -1.0798    2.9248 H   0  0  0  0  0  0  0  0  0  0  0  0
    3.4068   -1.1757    3.7531 C   0  0  0  0  0  0  0  0  0  0  0  0
    3.1138   -1.8284    4.5889 H   0  0  0  0  0  0  0  0  0  0  0  0
    4.7413   -0.7600    3.6166 C   0  0  0  0  0  0  0  0  0  0  0  0
    5.4974   -1.0900    4.3450 H   0  0  0  0  0  0  0  0  0  0  0  0
    5.1115    0.0792    2.5536 C   0  0  0  0  0  0  0  0  0  0  0  0
    6.1559    0.4093    2.4474 H   0  0  0  0  0  0  0  0  0  0  0  0
    4.1503    0.5024    1.6243 C   0  0  0  0  0  0  0  0  0  0  0  0
    4.4419    1.1676    0.7972 H   0  0  0  0  0  0  0  0  0  0  0  0
   -1.4651    0.6829    0.4054 P   0  0  0  0  0  4  0  0  0  0  0  0
   -2.7930    1.1738    1.5622 C   0  0  0  0  0  0  0  0  0  0  0  0
   -2.9745    0.3459    2.6896 C   0  0  0  0  0  0  0  0  0  0  0  0
   -2.3099   -0.5177    2.8456 H   0  0  0  0  0  0  0  0  0  0  0  0
   -3.9961    0.6292    3.6047 C   0  0  0  0  0  0  0  0  0  0  0  0
   -4.1315   -0.0137    4.4871 H   0  0  0  0  0  0  0  0  0  0  0  0
   -4.8432    1.7300    3.3959 C   0  0  0  0  0  0  0  0  0  0  0  0
   -5.6457    1.9501    4.1161 H   0  0  0  0  0  0  0  0  0  0  0  0
   -4.6698    2.5475    2.2684 C   0  0  0  0  0  0  0  0  0  0  0  0
   -5.3358    3.4074    2.1012 H   0  0  0  0  0  0  0  0  0  0  0  0
   -3.6468    2.2723    1.3487 C   0  0  0  0  0  0  0  0  0  0  0  0
   -3.5185    2.9095    0.4613 H   0  0  0  0  0  0  0  0  0  0  0  0
   -1.3928    1.9107   -0.9465 C   0  0  0  0  0  0  0  0  0  0  0  0
   -1.1379    3.2615   -0.6224 C   0  0  0  0  0  0  0  0  0  0  0  0
   -1.0339    3.5666    0.4307 H   0  0  0  0  0  0  0  0  0  0  0  0
   -0.9847    4.2068   -1.6445 C   0  0  0  0  0  0  0  0  0  0  0  0
   -0.7773    5.2567   -1.3894 H   0  0  0  0  0  0  0  0  0  0  0  0
   -1.0706    3.8092   -2.9897 C   0  0  0  0  0  0  0  0  0  0  0  0
   -0.9462    4.5536   -3.7909 H   0  0  0  0  0  0  0  0  0  0  0  0
   -1.2930    2.4618   -3.3120 C   0  0  0  0  0  0  0  0  0  0  0  0
   -1.3416    2.1452   -4.3648 H   0  0  0  0  0  0  0  0  0  0  0  0
   -1.4502    1.5080   -2.2945 C   0  0  0  0  0  0  0  0  0  0  0  0
   -1.6117    0.4503   -2.5440 H   0  0  0  0  0  0  0  0  0  0  0  0
  1  2  1  0  0  0  0
  2  3  3  0  0  0  0
  4 28  1  0  0  0  0
  5  4  1  0  0  0  0
  6  7  1  0  0  0  0
  6  5  2  0  0  0  0
  8  6  1  0  0  0  0
  9  8  1  0  0  0  0
 10  8  2  0  0  0  0
 10 12  1  0  0  0  0
 11 10  1  0  0  0  0
 12 14  2  0  0  0  0
 13 12  1  0  0  0  0
 14  5  1  0  0  0  0
 14 15  1  0  0  0  0
 16 51  1  0  0  0  0
 17 16  1  0  0  0  0
 18 19  1  0  0  0  0
 18 17  2  0  0  0  0
 20 18  1  0  0  0  0
 21 20  1  0  0  0  0
 22 20  2  0  0  0  0
 22 24  1  0  0  0  0
 23 22  1  0  0  0  0
 24 26  2  0  0  0  0
 25 24  1  0  0  0  0
 26 17  1  0  0  0  0
 26 27  1  0  0  0  0
 28  1  1  0  0  0  0
 28 40  1  0  0  0  0
 29 30  1  0  0  0  0
 29 28  1  0  0  0  0
 30 31  1  0  0  0  0
 32 30  2  0  0  0  0
 32 33  1  0  0  0  0
 34 32  1  0  0  0  0
 35 34  1  0  0  0  0
 36 38  1  0  0  0  0
 36 34  2  0  0  0  0
 37 36  1  0  0  0  0
 38 29  2  0  0  0  0
 39 38  1  0  0  0  0
 40 41  1  0  0  0  0
 41 42  1  0  0  0  0
 41 43  2  0  0  0  0
 43 44  1  0  0  0  0
 45 43  1  0  0  0  0
 45 46  1  0  0  0  0
 47 45  2  0  0  0  0
 48 47  1  0  0  0  0
 49 40  2  0  0  0  0
 49 47  1  0  0  0  0
 50 49  1  0  0  0  0
 51  1  1  0  0  0  0
 51 52  1  0  0  0  0
 52 53  1  0  0  0  0
 53 54  1  0  0  0  0
 53 55  2  0  0  0  0
 55 56  1  0  0  0  0
 57 55  1  0  0  0  0
 57 58  1  0  0  0  0
 59 57  2  0  0  0  0
 60 59  1  0  0  0  0
 61 52  2  0  0  0  0
 61 59  1  0  0  0  0
 62 61  1  0  0  0  0
 63 64  1  0  0  0  0
 63 51  1  0  0  0  0
 64 65  1  0  0  0  0
 66 67  1  0  0  0  0
 66 64  2  0  0  0  0
 68 66  1  0  0  0  0
 69 68  1  0  0  0  0
 70 68  2  0  0  0  0
 70 72  1  0  0  0  0
 71 70  1  0  0  0  0
 72 63  2  0  0  0  0
 73 72  1  0  0  0  0
M  END
