1,3
q = -1.0, confidence = 0.0

 31 32  0  0  1  0  0  0  0  0999 V2000
   -0.3777    1.5529    0.1463 N   0  0  0  0  0  2  0  0  0  0  0  0
   -1.5122    1.3479   -0.5727 N   0  0  0  0  0  0  0  0  0  0  0  0
   -0.6097   -1.2352    0.5601 N   0  0  0  0  0  2  0  0  0  0  0  0
   -1.6689   -1.1205   -0.2866 N   0  0  0  0  0  0  0  0  0  0  0  0
   -1.5074    0.0017   -1.3362 B   0  0  0  0  0  0  0  0  0  0  0  0
   -0.3359   -0.1008   -1.8209 H   0  0  0  0  0  0  0  0  0  0  0  0
   -2.3157   -0.0565   -2.2476 H   0  0  0  0  0  0  0  0  0  0  0  0
   -2.4010    2.3483   -0.3460 C   0  0  2  0  0  3  0  0  0  0  0  0
   -1.7928    3.2394    0.5556 C   0  0  0  0  0  0  0  0  0  0  0  0
   -2.2214    4.1668    0.9496 H   0  0  0  0  0  0  0  0  0  0  0  0
   -0.5162    2.7058    0.8404 C   0  0  0  0  0  0  0  0  0  0  0  0
   -3.7523    2.3809   -0.9809 C   0  0  0  0  0  0  0  0  0  0  0  0
   -3.6993    2.1226   -2.0569 H   0  0  0  0  0  0  0  0  0  0  0  0
   -4.2016    3.3863   -0.8812 H   0  0  0  0  0  0  0  0  0  0  0  0
   -4.4435    1.6545   -0.5033 H   0  0  0  0  0  0  0  0  0  0  0  0
    0.5708    3.2401    1.7144 C   0  0  0  0  0  0  0  0  0  0  0  0
    1.5008    3.4076    1.1339 H   0  0  0  0  0  0  0  0  0  0  0  0
    0.8228    2.5326    2.5295 H   0  0  0  0  0  0  0  0  0  0  0  0
    0.2663    4.2009    2.1685 H   0  0  0  0  0  0  0  0  0  0  0  0
   -2.7126   -1.8755    0.1511 C   0  0  1  0  0  3  0  0  0  0  0  0
   -2.2916   -2.5090    1.3294 C   0  0  0  0  0  0  0  0  0  0  0  0
   -2.8784   -3.1954    1.9490 H   0  0  0  0  0  0  0  0  0  0  0  0
   -0.9639   -2.0721    1.5589 C   0  0  0  0  0  0  0  0  0  0  0  0
   -4.0234   -1.9254   -0.5637 C   0  0  0  0  0  0  0  0  0  0  0  0
   -3.8908   -2.1599   -1.6389 H   0  0  0  0  0  0  0  0  0  0  0  0
   -4.5566   -0.9535   -0.5079 H   0  0  0  0  0  0  0  0  0  0  0  0
   -4.6761   -2.6970   -0.1154 H   0  0  0  0  0  0  0  0  0  0  0  0
   -0.0390   -2.4118    2.6832 C   0  0  0  0  0  0  0  0  0  0  0  0
    0.7896   -1.6821    2.7446 H   0  0  0  0  0  0  0  0  0  0  0  0
    0.4016   -3.4239    2.5619 H   0  0  0  0  0  0  0  0  0  0  0  0
   -0.5817   -2.4081    3.6489 H   0  0  0  0  0  0  0  0  0  0  0  0
  1 11  1  0  0  0  0
  2  8  1  0  0  0  0
  2  1  1  0  0  0  0
  3 23  1  0  0  0  0
  4 20  1  0  0  0  0
  4  3  1  0  0  0  0
  5  2  1  0  0  0  0
  5  4  1  0  0  0  0
  6  5  1  0  0  0  0
  7  5  1  0  0  0  0
  8 12  1  1  0  0  0
  8  9  1  0  0  0  0
  9 11  2  0  0  0  0
  9 10  1  0  0  0  0
 11 16  1  0  0  0  0
 12 14  1  0  0  0  0
 12 15  1  0  0  0  0
 13 12  1  0  0  0  0
 16 19  1  0  0  0  0
 16 18  1  0  0  0  0
 17 16  1  0  0  0  0
 20 24  1  1  0  0  0
 20 21  1  0  0  0  0
 21 23  2  0  0  0  0
 21 22  1  0  0  0  0
 23 28  1  0  0  0  0
 24 26  1  0  0  0  0
 24 27  1  0  0  0  0
 25 24  1  0  0  0  0
 28 29  1  0  0  0  0
 28 31  1  0  0  0  0
 30 28  1  0  0  0  0
M  END
