7,9
q = -1.0

 19 20  0  0  1  0  0  0  0  0999 V2000
   -1.9421    3.4044    1.1982 Br  0  0  0  0  0  0  0  0  0  0  0  0
   -4.2535    1.9905   -1.3354 Br  0  0  0  0  0  0  0  0  0  0  0  0
   -3.2163   -1.5547   -1.6134 Br  0  0  0  0  0  0  0  0  0  0  0  0
    2.3570    3.1549    1.1970 Br  0  0  0  0  0  0  0  0  0  0  0  0
    4.2075    1.6722   -1.6522 Br  0  0  0  0  0  0  0  0  0  0  0  0
    2.7170   -1.6879   -2.0446 Br  0  0  0  0  0  0  0  0  0  0  0  0
   -1.4638   -0.4762    0.3123 N   0  0  0  0  0  2  0  0  0  0  0  0
   -1.1859    0.6825    0.9723 N   0  0  0  0  0  0  0  0  0  0  0  0
    1.3676   -0.6023    0.1848 N   0  0  0  0  0  2  0  0  0  0  0  0
    1.2921    0.5369    0.9308 N   0  0  0  0  0  0  0  0  0  0  0  0
   -2.0191    1.6640    0.5495 C   0  0  2  0  0  3  0  0  0  0  0  0
   -2.8881    1.1207   -0.4160 C   0  0  0  0  0  0  0  0  0  0  0  0
   -2.4911   -0.2346   -0.5248 C   0  0  0  0  0  0  0  0  0  0  0  0
    2.1763    1.4554    0.4642 C   0  0  1  0  0  3  0  0  0  0  0  0
    2.8674    0.8899   -0.6225 C   0  0  0  0  0  0  0  0  0  0  0  0
    2.3061   -0.4049   -0.7573 C   0  0  0  0  0  0  0  0  0  0  0  0
    0.0672    0.5841    1.8831 B   0  0  0  0  0  0  0  0  0  0  0  0
    0.1359    1.4537    2.7259 H   0  0  0  0  0  0  0  0  0  0  0  0
   -0.0186   -0.5452    2.4450 H   0  0  0  0  0  0  0  0  0  0  0  0
  2 12  1  0  0  0  0
  3 13  1  0  0  0  0
  5 15  1  0  0  0  0
  6 16  1  0  0  0  0
  7  8  1  0  0  0  0
  8 17  1  0  0  0  0
  9 10  1  0  0  0  0
 10 17  1  0  0  0  0
 11  8  1  0  0  0  0
 11  1  1  6  0  0  0
 12 11  1  0  0  0  0
 13 12  2  0  0  0  0
 13  7  1  0  0  0  0
 14 10  1  0  0  0  0
 14  4  1  6  0  0  0
 15 14  1  0  0  0  0
 16 15  2  0  0  0  0
 16  9  1  0  0  0  0
 17 19  1  0  0  0  0
 17 18  1  0  0  0  0
M  END
