1,3
q = -1.0

 15 16  0  0  1  0  0  0  0  0999 V2000
   -1.0546    0.8728    1.3647 N   0  0  0  0  0  2  0  0  0  0  0  0
   -1.7885    2.7189    2.3387 N   0  0  0  0  0  0  0  0  0  0  0  0
    0.5094    1.8781   -0.3853 N   0  0  0  0  0  0  0  0  0  0  0  0
    0.1687    4.0905    0.0725 N   0  0  0  0  0  0  0  0  0  0  0  0
   -0.9850    2.2222    1.3620 C   0  0  2  0  0  3  0  0  0  0  0  0
   -0.1282    2.8224    0.3863 C   0  0  0  0  0  3  0  0  0  0  0  0
   -1.9259    0.5082    2.3686 C   0  0  0  0  0  0  0  0  0  0  0  0
   -2.3959    1.6503    2.9913 C   0  0  0  0  0  0  0  0  0  0  0  0
    1.2701    2.5952   -1.2614 C   0  0  0  0  0  0  0  0  0  0  0  0
    1.0506    3.9550   -0.9652 C   0  0  0  0  0  0  0  0  0  0  0  0
   -2.1570   -0.5390    2.5892 H   0  0  0  0  0  0  0  0  0  0  0  0
   -3.0850    1.7913    3.8282 H   0  0  0  0  0  0  0  0  0  0  0  0
    1.9038    2.1100   -2.0129 H   0  0  0  0  0  0  0  0  0  0  0  0
    1.4975    4.8292   -1.4574 H   0  0  0  0  0  0  0  0  0  0  0  0
   -1.8969    3.7127    2.5392 H   0  0  0  0  0  0  0  0  0  0  0  0
  1  7  1  0  0  0  0
  2 15  1  0  0  0  0
  2  8  1  0  0  0  0
  3  6  1  0  0  0  0
  4  6  1  0  0  0  0
  5  6  1  6  0  0  0
  5  1  1  0  0  0  0
  5  2  1  0  0  0  0
  7 11  1  0  0  0  0
  7  8  2  0  0  0  0
  8 12  1  0  0  0  0
  9 10  1  0  0  0  0
  9  3  2  0  0  0  0
 10  4  2  0  0  0  0
 13  9  1  0  0  0  0
 14 10  1  0  0  0  0
M  END
