1,2
q = 0.0, confidence = 0.998

 36 37  0  0  0  0  0  0  0  0999 V2000
   -0.8243    0.7440    0.2281 N   0  0  0  0  0  2  0  0  0  0  0  0
   -1.8544   -2.0518   -0.2898 N   0  0  0  0  0  0  0  0  0  0  0  0
   -2.4479   -2.6271    0.3277 H   0  0  0  0  0  0  0  0  0  0  0  0
   -2.1365   -2.3101   -1.2476 H   0  0  0  0  0  0  0  0  0  0  0  0
    0.3505    0.1248   -0.0484 N   0  0  0  0  0  0  0  0  0  0  0  0
   -0.5194    1.9088    0.8273 C   0  0  0  0  0  3  0  0  0  0  0  0
   -1.3481    2.5654    1.1206 H   0  0  0  0  0  0  0  0  0  0  0  0
   -0.4143   -2.2458   -0.0702 C   0  0  0  0  0  0  0  0  0  0  0  0
   -0.0774   -3.2319   -0.4592 H   0  0  0  0  0  0  0  0  0  0  0  0
   -0.2183   -2.2295    1.0206 H   0  0  0  0  0  0  0  0  0  0  0  0
    2.8214    0.4433    0.1669 C   0  0  0  0  0  0  0  0  0  0  0  0
    1.4218    0.8845    0.3646 C   0  0  0  0  0  0  0  0  0  0  0  0
    0.3992   -1.1448   -0.7510 C   0  0  0  0  0  0  0  0  0  0  0  0
    1.4677   -1.4306   -0.7938 H   0  0  0  0  0  0  0  0  0  0  0  0
    0.0424   -1.0021   -1.7951 H   0  0  0  0  0  0  0  0  0  0  0  0
    0.8806    2.0415    0.9344 C   0  0  0  0  0  0  0  0  0  0  0  0
    1.4443    2.8720    1.3699 H   0  0  0  0  0  0  0  0  0  0  0  0
    3.4845   -0.2755    1.1952 C   0  0  0  0  0  0  0  0  0  0  0  0
    3.4861    0.7405   -1.0514 C   0  0  0  0  0  0  0  0  0  0  0  0
    5.4971   -0.4005   -0.2130 C   0  0  0  0  0  0  0  0  0  0  0  0
    4.8138    0.3099   -1.2175 C   0  0  0  0  0  0  0  0  0  0  0  0
    5.3317    0.5393   -2.1628 H   0  0  0  0  0  0  0  0  0  0  0  0
    4.8122   -0.6855    0.9831 C   0  0  0  0  0  0  0  0  0  0  0  0
    5.3286   -1.2456    1.7794 H   0  0  0  0  0  0  0  0  0  0  0  0
    2.7752    1.4971   -2.1455 C   0  0  0  0  0  0  0  0  0  0  0  0
    3.4544    1.7202   -2.9899 H   0  0  0  0  0  0  0  0  0  0  0  0
    2.3569    2.4526   -1.7700 H   0  0  0  0  0  0  0  0  0  0  0  0
    1.9139    0.9234   -2.5485 H   0  0  0  0  0  0  0  0  0  0  0  0
    2.7736   -0.5986    2.4859 C   0  0  0  0  0  0  0  0  0  0  0  0
    2.4113    0.3201    2.9898 H   0  0  0  0  0  0  0  0  0  0  0  0
    3.4351   -1.1423    3.1866 H   0  0  0  0  0  0  0  0  0  0  0  0
    1.8734   -1.2252    2.3123 H   0  0  0  0  0  0  0  0  0  0  0  0
    6.9339   -0.8166   -0.4006 C   0  0  0  0  0  0  0  0  0  0  0  0
    7.1682   -1.0104   -1.4658 H   0  0  0  0  0  0  0  0  0  0  0  0
    7.1760   -1.7276    0.1811 H   0  0  0  0  0  0  0  0  0  0  0  0
    7.6240   -0.0165   -0.0559 H   0  0  0  0  0  0  0  0  0  0  0  0
  1  6  1  0  0  0  0
  2  8  1  0  0  0  0
  2  3  1  0  0  0  0
  4  2  1  0  0  0  0
  5  1  1  0  0  0  0
  5 12  1  0  0  0  0
  6 16  1  0  0  0  0
  6  7  1  0  0  0  0
  8 10  1  0  0  0  0
  9  8  1  0  0  0  0
 11 12  1  0  0  0  0
 11 18  1  0  0  0  0
 12 16  2  0  0  0  0
 13  8  1  0  0  0  0
 13  5  1  0  0  0  0
 14 13  1  0  0  0  0
 15 13  1  0  0  0  0
 16 17  1  0  0  0  0
 18 29  1  0  0  0  0
 19 11  2  0  0  0  0
 20 23  1  0  0  0  0
 21 19  1  0  0  0  0
 21 20  2  0  0  0  0
 22 21  1  0  0  0  0
 23 18  2  0  0  0  0
 23 24  1  0  0  0  0
 25 27  1  0  0  0  0
 25 19  1  0  0  0  0
 26 25  1  0  0  0  0
 28 25  1  0  0  0  0
 29 30  1  0  0  0  0
 29 31  1  0  0  0  0
 32 29  1  0  0  0  0
 33 20  1  0  0  0  0
 33 36  1  0  0  0  0
 33 35  1  0  0  0  0
 34 33  1  0  0  0  0
M  END
