1,2
q = 0.0, confidence = 0.954

 60 64  0  0  0  0  0  0  0  0999 V2000
    1.3155   -0.0916    0.0380 N   0  0  0  0  0  2  0  0  0  0  0  0
   -1.3155   -0.0914    0.0380 N   0  0  0  0  0  2  0  0  0  0  0  0
    0.7340    1.0926    0.0742 C   0  0  0  0  0  0  0  0  0  0  0  0
    1.1964    2.4802    0.1141 C   0  0  0  0  0  0  0  0  0  0  0  0
    2.4328    3.1234    0.1353 C   0  0  0  0  0  0  0  0  0  0  0  0
    3.3721    2.5527    0.1172 H   0  0  0  0  0  0  0  0  0  0  0  0
    2.4498    4.5471    0.1800 C   0  0  0  0  0  0  0  0  0  0  0  0
    3.4239    5.0587    0.1970 H   0  0  0  0  0  0  0  0  0  0  0  0
    1.2834    5.3140    0.2029 C   0  0  0  0  0  0  0  0  0  0  0  0
    1.3478    6.4125    0.2371 H   0  0  0  0  0  0  0  0  0  0  0  0
    0.0003    4.6839    0.1825 C   0  0  0  0  0  0  0  0  0  0  0  0
   -1.2827    5.3141    0.2029 C   0  0  0  0  0  0  0  0  0  0  0  0
   -1.3470    6.4126    0.2371 H   0  0  0  0  0  0  0  0  0  0  0  0
   -2.4493    4.5475    0.1801 C   0  0  0  0  0  0  0  0  0  0  0  0
   -3.4233    5.0591    0.1971 H   0  0  0  0  0  0  0  0  0  0  0  0
   -2.4324    3.1237    0.1354 C   0  0  0  0  0  0  0  0  0  0  0  0
   -3.3718    2.5531    0.1174 H   0  0  0  0  0  0  0  0  0  0  0  0
   -1.1961    2.4804    0.1141 C   0  0  0  0  0  0  0  0  0  0  0  0
   -0.7339    1.0927    0.0742 C   0  0  0  0  0  0  0  0  0  0  0  0
    0.0002    3.2702    0.1376 C   0  0  0  0  0  0  0  0  0  0  0  0
   -2.7426   -0.1784   -0.0144 C   0  0  0  0  0  0  0  0  0  0  0  0
   -3.3824   -0.0219   -1.2643 C   0  0  0  0  0  0  0  0  0  0  0  0
   -4.7863   -0.0802   -1.2888 C   0  0  0  0  0  0  0  0  0  0  0  0
   -5.3014    0.0361   -2.2560 H   0  0  0  0  0  0  0  0  0  0  0  0
   -5.5450   -0.2953   -0.1227 C   0  0  0  0  0  0  0  0  0  0  0  0
   -4.8606   -0.4670    1.0954 C   0  0  0  0  0  0  0  0  0  0  0  0
   -5.4352   -0.6519    2.0173 H   0  0  0  0  0  0  0  0  0  0  0  0
   -3.4585   -0.4271    1.1775 C   0  0  0  0  0  0  0  0  0  0  0  0
   -2.5734    0.1806   -2.5180 C   0  0  0  0  0  0  0  0  0  0  0  0
   -3.2180    0.1517   -3.4163 H   0  0  0  0  0  0  0  0  0  0  0  0
   -1.7983   -0.6086   -2.6141 H   0  0  0  0  0  0  0  0  0  0  0  0
   -2.0413    1.1557   -2.5140 H   0  0  0  0  0  0  0  0  0  0  0  0
   -7.0487   -0.3915   -0.1836 C   0  0  0  0  0  0  0  0  0  0  0  0
   -7.3716   -1.4475   -0.3091 H   0  0  0  0  0  0  0  0  0  0  0  0
   -7.4621    0.1796   -1.0380 H   0  0  0  0  0  0  0  0  0  0  0  0
   -7.5209   -0.0168    0.7461 H   0  0  0  0  0  0  0  0  0  0  0  0
   -2.7299   -0.6661    2.4712 C   0  0  0  0  0  0  0  0  0  0  0  0
   -3.4356   -0.7616    3.3175 H   0  0  0  0  0  0  0  0  0  0  0  0
   -2.0139    0.1488    2.7037 H   0  0  0  0  0  0  0  0  0  0  0  0
   -2.1376   -1.6029    2.3949 H   0  0  0  0  0  0  0  0  0  0  0  0
    2.7426   -0.1787   -0.0145 C   0  0  0  0  0  0  0  0  0  0  0  0
    3.3824   -0.0225   -1.2644 C   0  0  0  0  0  0  0  0  0  0  0  0
    4.7863   -0.0808   -1.2888 C   0  0  0  0  0  0  0  0  0  0  0  0
    5.3014    0.0353   -2.2561 H   0  0  0  0  0  0  0  0  0  0  0  0
    5.5449   -0.2957   -0.1227 C   0  0  0  0  0  0  0  0  0  0  0  0
    4.8605   -0.4672    1.0954 C   0  0  0  0  0  0  0  0  0  0  0  0
    5.4352   -0.6520    2.0174 H   0  0  0  0  0  0  0  0  0  0  0  0
    3.4585   -0.4272    1.1775 C   0  0  0  0  0  0  0  0  0  0  0  0
    2.5734    0.1798   -2.5182 C   0  0  0  0  0  0  0  0  0  0  0  0
    1.7981   -0.6093   -2.6140 H   0  0  0  0  0  0  0  0  0  0  0  0
    3.2180    0.1506   -3.4164 H   0  0  0  0  0  0  0  0  0  0  0  0
    2.0415    1.1550   -2.5143 H   0  0  0  0  0  0  0  0  0  0  0  0
    7.0487   -0.3917   -0.1835 C   0  0  0  0  0  0  0  0  0  0  0  0
    7.4618    0.1769   -1.0397 H   0  0  0  0  0  0  0  0  0  0  0  0
    7.3719   -1.4480   -0.3056 H   0  0  0  0  0  0  0  0  0  0  0  0
    7.5209   -0.0139    0.7450 H   0  0  0  0  0  0  0  0  0  0  0  0
    2.7298   -0.6658    2.4713 C   0  0  0  0  0  0  0  0  0  0  0  0
    3.4355   -0.7621    3.3174 H   0  0  0  0  0  0  0  0  0  0  0  0
    2.1367   -1.6021    2.3949 H   0  0  0  0  0  0  0  0  0  0  0  0
    2.0146    0.1497    2.7040 H   0  0  0  0  0  0  0  0  0  0  0  0
  1  3  1  0  0  0  0
  2 19  1  0  0  0  0
  3 19  2  0  0  0  0
  3  4  1  0  0  0  0
  4  5  2  0  0  0  0
  4 20  1  0  0  0  0
  5  7  1  0  0  0  0
  6  5  1  0  0  0  0
  7  8  1  0  0  0  0
  7  9  2  0  0  0  0
  9 10  1  0  0  0  0
 11  9  1  0  0  0  0
 11 12  1  0  0  0  0
 12 13  1  0  0  0  0
 14 15  1  0  0  0  0
 14 12  2  0  0  0  0
 16 14  1  0  0  0  0
 17 16  1  0  0  0  0
 18 16  2  0  0  0  0
 18 20  1  0  0  0  0
 19 18  1  0  0  0  0
 20 11  2  0  0  0  0
 21  2  1  0  0  0  0
 21 28  1  0  0  0  0
 22 21  2  0  0  0  0
 23 22  1  0  0  0  0
 23 25  2  0  0  0  0
 24 23  1  0  0  0  0
 25 26  1  0  0  0  0
 26 28  2  0  0  0  0
 26 27  1  0  0  0  0
 28 37  1  0  0  0  0
 29 32  1  0  0  0  0
 29 22  1  0  0  0  0
 30 29  1  0  0  0  0
 31 29  1  0  0  0  0
 33 25  1  0  0  0  0
 33 36  1  0  0  0  0
 34 33  1  0  0  0  0
 35 33  1  0  0  0  0
 37 39  1  0  0  0  0
 37 38  1  0  0  0  0
 40 37  1  0  0  0  0
 41  1  1  0  0  0  0
 41 48  1  0  0  0  0
 42 41  2  0  0  0  0
 43 42  1  0  0  0  0
 43 45  2  0  0  0  0
 44 43  1  0  0  0  0
 45 46  1  0  0  0  0
 46 48  2  0  0  0  0
 46 47  1  0  0  0  0
 48 57  1  0  0  0  0
 49 52  1  0  0  0  0
 49 42  1  0  0  0  0
 50 49  1  0  0  0  0
 51 49  1  0  0  0  0
 53 45  1  0  0  0  0
 53 56  1  0  0  0  0
 54 53  1  0  0  0  0
 55 53  1  0  0  0  0
 57 60  1  0  0  0  0
 57 58  1  0  0  0  0
 59 57  1  0  0  0  0
M  END
