1,2
q = -1.0

 40 40  0  0  0  0  0  0  0  0999 V2000
   -0.5614    1.1141   -0.2975 N   0  0  0  0  0  2  0  0  0  0  0  0
   -0.5257   -1.0671   -0.4069 N   0  0  0  0  0  2  0  0  0  0  0  0
   -0.9358    2.4957    0.0821 C   0  0  0  0  0  0  0  0  0  0  0  0
    0.3548    3.3151    0.2532 C   0  0  0  0  0  0  0  0  0  0  0  0
   -1.6883    2.5623    1.4303 C   0  0  0  0  0  0  0  0  0  0  0  0
   -1.7862    3.1244   -1.0412 C   0  0  0  0  0  0  0  0  0  0  0  0
   -0.8608   -2.4889   -0.1793 C   0  0  0  0  0  0  0  0  0  0  0  0
    0.3051   -3.3443   -0.7007 C   0  0  0  0  0  0  0  0  0  0  0  0
   -1.0310   -2.7928    1.3251 C   0  0  0  0  0  0  0  0  0  0  0  0
   -2.1281   -2.9066   -0.9579 C   0  0  0  0  0  0  0  0  0  0  0  0
   -1.3116    0.0049   -0.2225 C   0  0  0  0  0  3  0  0  0  0  0  0
   -2.7933   -0.0307   -0.0117 C   0  0  0  0  0  0  0  0  0  0  0  0
   -3.6551    0.1272   -1.1162 C   0  0  0  0  0  0  0  0  0  0  0  0
   -5.0467    0.0680   -0.9475 C   0  0  0  0  0  0  0  0  0  0  0  0
   -5.5918   -0.1479    0.3279 C   0  0  0  0  0  0  0  0  0  0  0  0
   -4.7399   -0.2961    1.4350 C   0  0  0  0  0  0  0  0  0  0  0  0
   -3.3493   -0.2352    1.2679 C   0  0  0  0  0  0  0  0  0  0  0  0
    1.0085    2.8387    1.0088 H   0  0  0  0  0  0  0  0  0  0  0  0
    0.9093    3.4055   -0.6992 H   0  0  0  0  0  0  0  0  0  0  0  0
    0.1013    4.3389    0.5914 H   0  0  0  0  0  0  0  0  0  0  0  0
   -1.1338    1.9813    2.1930 H   0  0  0  0  0  0  0  0  0  0  0  0
   -1.7576    3.6166    1.7668 H   0  0  0  0  0  0  0  0  0  0  0  0
   -2.7182    2.1710    1.3558 H   0  0  0  0  0  0  0  0  0  0  0  0
   -2.7560    2.6022   -1.1516 H   0  0  0  0  0  0  0  0  0  0  0  0
   -1.9974    4.1900   -0.8160 H   0  0  0  0  0  0  0  0  0  0  0  0
   -1.2493    3.0719   -2.0100 H   0  0  0  0  0  0  0  0  0  0  0  0
    1.2453   -3.0689   -0.1862 H   0  0  0  0  0  0  0  0  0  0  0  0
    0.1019   -4.4153   -0.5049 H   0  0  0  0  0  0  0  0  0  0  0  0
    0.4352   -3.2159   -1.7933 H   0  0  0  0  0  0  0  0  0  0  0  0
   -0.1624   -2.4041    1.8907 H   0  0  0  0  0  0  0  0  0  0  0  0
   -1.9423   -2.3149    1.7288 H   0  0  0  0  0  0  0  0  0  0  0  0
   -1.1230   -3.8862    1.4891 H   0  0  0  0  0  0  0  0  0  0  0  0
   -2.2370   -4.0094   -0.9169 H   0  0  0  0  0  0  0  0  0  0  0  0
   -3.0489   -2.4647   -0.5377 H   0  0  0  0  0  0  0  0  0  0  0  0
   -2.0506   -2.6052   -2.0220 H   0  0  0  0  0  0  0  0  0  0  0  0
   -3.2229    0.2805   -2.1163 H   0  0  0  0  0  0  0  0  0  0  0  0
   -5.7091    0.1871   -1.8184 H   0  0  0  0  0  0  0  0  0  0  0  0
   -6.6833   -0.1976    0.4606 H   0  0  0  0  0  0  0  0  0  0  0  0
   -5.1622   -0.4559    2.4387 H   0  0  0  0  0  0  0  0  0  0  0  0
   -2.6771   -0.3285    2.1328 H   0  0  0  0  0  0  0  0  0  0  0  0
  1 11  1  0  0  0  0
  1  3  1  0  0  0  0
  2 11  1  0  0  0  0
  2  7  1  0  0  0  0
  3  4  1  0  0  0  0
  3  5  1  0  0  0  0
  4 20  1  0  0  0  0
  4 18  1  0  0  0  0
  5 22  1  0  0  0  0
  5 21  1  0  0  0  0
  6 25  1  0  0  0  0
  6  3  1  0  0  0  0
  7  9  1  0  0  0  0
  8 28  1  0  0  0  0
  8 27  1  0  0  0  0
  8  7  1  0  0  0  0
  9 32  1  0  0  0  0
  9 31  1  0  0  0  0
  9 30  1  0  0  0  0
 10 33  1  0  0  0  0
 10 34  1  0  0  0  0
 10  7  1  0  0  0  0
 11 12  1  0  0  0  0
 12 17  1  0  0  0  0
 13 14  1  0  0  0  0
 13 12  2  0  0  0  0
 14 15  2  0  0  0  0
 15 38  1  0  0  0  0
 15 16  1  0  0  0  0
 16 39  1  0  0  0  0
 17 16  2  0  0  0  0
 17 40  1  0  0  0  0
 19  4  1  0  0  0  0
 23  5  1  0  0  0  0
 24  6  1  0  0  0  0
 26  6  1  0  0  0  0
 29  8  1  0  0  0  0
 35 10  1  0  0  0  0
 36 13  1  0  0  0  0
 37 14  1  0  0  0  0
M  END
