4,5
q = -1.0, confidence = 0.0

 26 27  0  0  1  0  0  0  0  0999 V2000
    4.4086   -0.0001    0.5447 O   0  0  0  0  0  0  0  0  0  0  0  0
    1.2086   -0.0000    2.1395 O   0  5  0  0  0  0  0  0  0  0  0  0
    3.3986   -0.0004    2.7973 O   0  0  0  0  0  0  0  0  0  0  0  0
    1.2171   -1.3109   -0.6434 N   0  0  0  0  0  2  0  0  0  0  0  0
    1.2172    1.3111   -0.6432 N   0  0  0  0  0  2  0  0  0  0  0  0
    0.7668   -2.3483   -1.3888 C   0  0  0  0  0  3  0  0  0  0  0  0
    1.6053   -3.3946   -1.7705 C   0  0  0  0  0  0  0  0  0  0  0  0
    2.9509   -3.3643   -1.3627 C   0  0  0  0  0  0  0  0  0  0  0  0
    3.4149   -2.2721   -0.6263 C   0  0  0  0  0  0  0  0  0  0  0  0
    2.5245   -1.2355   -0.2914 C   0  0  0  0  0  0  0  0  0  0  0  0
    3.0229   -0.0001    0.4284 C   0  0  2  0  0  0  0  0  0  0  0  0
    2.5245    1.2356   -0.2911 C   0  0  1  0  0  3  0  0  0  0  0  0
    3.4150    2.2721   -0.6258 C   0  0  0  0  0  0  0  0  0  0  0  0
    2.9511    3.3645   -1.3621 C   0  0  0  0  0  0  0  0  0  0  0  0
    1.6055    3.3949   -1.7700 C   0  0  0  0  0  0  0  0  0  0  0  0
    0.7670    2.3486   -1.3884 C   0  0  0  0  0  0  0  0  0  0  0  0
    2.4459   -0.0002    1.9940 C   0  0  0  0  0  0  0  0  0  0  0  0
    4.4832   -0.0001    1.5587 H   0  0  0  0  0  0  0  0  0  0  0  0
   -0.2879   -2.2927   -1.6925 H   0  0  0  0  0  0  0  0  0  0  0  0
    1.2048   -4.2145   -2.3827 H   0  0  0  0  0  0  0  0  0  0  0  0
    3.6370   -4.1797   -1.6376 H   0  0  0  0  0  0  0  0  0  0  0  0
    4.4588   -2.1589   -0.3062 H   0  0  0  0  0  0  0  0  0  0  0  0
    4.4589    2.1589   -0.3057 H   0  0  0  0  0  0  0  0  0  0  0  0
    3.6373    4.1799   -1.6368 H   0  0  0  0  0  0  0  0  0  0  0  0
    1.2051    4.2149   -2.3821 H   0  0  0  0  0  0  0  0  0  0  0  0
   -0.2877    2.2931   -1.6922 H   0  0  0  0  0  0  0  0  0  0  0  0
  1 18  1  0  0  0  0
  4 10  1  0  0  0  0
  5 12  1  0  0  0  0
  6  4  1  0  0  0  0
  7  6  1  0  0  0  0
  7  8  2  0  0  0  0
  8  9  1  0  0  0  0
  9 22  1  0  0  0  0
  9 10  2  0  0  0  0
 10 11  1  0  0  0  0
 11  1  1  1  0  0  0
 11 17  1  0  0  0  0
 12 11  1  6  0  0  0
 13 23  1  0  0  0  0
 13 12  1  0  0  0  0
 14 13  2  0  0  0  0
 15 16  2  0  0  0  0
 15 14  1  0  0  0  0
 16  5  1  0  0  0  0
 17  2  1  0  0  0  0
 17  3  2  0  0  0  0
 19  6  1  0  0  0  0
 20  7  1  0  0  0  0
 21  8  1  0  0  0  0
 24 14  1  0  0  0  0
 25 15  1  0  0  0  0
 26 16  1  0  0  0  0
M  CHG  1   2  -1
M  END
