7,8
q = -1.0

 60 61  0  0  1  0  0  0  0  0999 V2000
   -2.2763    3.7877   -0.4563 F   0  0  0  0  0  0  0  0  0  0  0  0
   -3.2953    2.0941   -1.3624 F   0  0  0  0  0  0  0  0  0  0  0  0
   -3.4379    2.4391    0.7892 F   0  0  0  0  0  0  0  0  0  0  0  0
    1.9487    3.9399   -0.3661 F   0  0  0  0  0  0  0  0  0  0  0  0
    3.1786    2.6340    0.8600 F   0  0  0  0  0  0  0  0  0  0  0  0
    3.0903    2.3442   -1.3030 F   0  0  0  0  0  0  0  0  0  0  0  0
   -1.5245    0.2928    0.1351 N   0  0  0  0  0  2  0  0  0  0  0  0
    1.4253    0.3912    0.1426 N   0  0  0  0  0  2  0  0  0  0  0  0
   -1.3566    1.5982   -0.0556 C   0  0  1  0  0  3  0  0  0  0  0  0
   -0.1134    2.2644   -0.1020 C   0  0  0  0  0  0  0  0  0  0  0  0
    1.1710    1.6843   -0.0372 C   0  0  0  0  0  0  0  0  0  0  0  0
   -2.5998    2.4896   -0.2704 C   0  0  0  0  0  0  0  0  0  0  0  0
    2.3546    2.6609   -0.2116 C   0  0  0  0  0  0  0  0  0  0  0  0
   -2.7859   -0.3813    0.1115 C   0  0  0  0  0  0  0  0  0  0  0  0
   -3.5189   -0.5508    1.3111 C   0  0  0  0  0  0  0  0  0  0  0  0
   -4.7087   -1.3015    1.2599 C   0  0  0  0  0  0  0  0  0  0  0  0
   -5.1471   -1.8832    0.0653 C   0  0  0  0  0  0  0  0  0  0  0  0
   -4.3873   -1.7369   -1.1043 C   0  0  0  0  0  0  0  0  0  0  0  0
   -3.1954   -0.9922   -1.1050 C   0  0  0  0  0  0  0  0  0  0  0  0
   -3.0025   -0.0276    2.6334 C   0  0  0  0  0  0  0  0  0  0  0  0
   -2.0407   -1.0138    3.3126 C   0  0  0  0  0  0  0  0  0  0  0  0
   -2.3290   -0.8374   -2.3384 C   0  0  0  0  0  0  0  0  0  0  0  0
   -2.7528   -1.6312   -3.5703 C   0  0  0  0  0  0  0  0  0  0  0  0
    2.7292   -0.1969    0.1055 C   0  0  0  0  0  0  0  0  0  0  0  0
    3.4633   -0.3647    1.3043 C   0  0  0  0  0  0  0  0  0  0  0  0
    4.6959   -1.0414    1.2379 C   0  0  0  0  0  0  0  0  0  0  0  0
    5.1767   -1.5520    0.0270 C   0  0  0  0  0  0  0  0  0  0  0  0
    4.4176   -1.4088   -1.1432 C   0  0  0  0  0  0  0  0  0  0  0  0
    3.1827   -0.7385   -1.1277 C   0  0  0  0  0  0  0  0  0  0  0  0
    2.9031    0.0734    2.6392 C   0  0  0  0  0  0  0  0  0  0  0  0
    2.0198   -1.0102    3.2756 C   0  0  0  0  0  0  0  0  0  0  0  0
    2.3083   -0.6096   -2.3583 C   0  0  0  0  0  0  0  0  0  0  0  0
    2.7689   -1.3672   -3.5998 C   0  0  0  0  0  0  0  0  0  0  0  0
   -0.1491    3.3464   -0.2458 H   0  0  0  0  0  0  0  0  0  0  0  0
   -5.2937   -1.4301    2.1845 H   0  0  0  0  0  0  0  0  0  0  0  0
   -6.0814   -2.4640    0.0443 H   0  0  0  0  0  0  0  0  0  0  0  0
   -4.7290   -2.2130   -2.0341 H   0  0  0  0  0  0  0  0  0  0  0  0
   -2.4969    0.9469    2.4895 H   0  0  0  0  0  0  0  0  0  0  0  0
   -3.8653    0.1683    3.3031 H   0  0  0  0  0  0  0  0  0  0  0  0
   -1.1653   -1.2299    2.6657 H   0  0  0  0  0  0  0  0  0  0  0  0
   -2.5366   -1.9844    3.5143 H   0  0  0  0  0  0  0  0  0  0  0  0
   -1.6571   -0.6118    4.2721 H   0  0  0  0  0  0  0  0  0  0  0  0
   -1.2855   -1.1165   -2.0593 H   0  0  0  0  0  0  0  0  0  0  0  0
   -2.2653    0.2429   -2.5912 H   0  0  0  0  0  0  0  0  0  0  0  0
   -3.7541   -1.3234   -3.9342 H   0  0  0  0  0  0  0  0  0  0  0  0
   -2.7894   -2.7204   -3.3642 H   0  0  0  0  0  0  0  0  0  0  0  0
   -2.0364   -1.4712   -4.4000 H   0  0  0  0  0  0  0  0  0  0  0  0
    5.2806   -1.1691    2.1628 H   0  0  0  0  0  0  0  0  0  0  0  0
    6.1437   -2.0760   -0.0062 H   0  0  0  0  0  0  0  0  0  0  0  0
    4.7916   -1.8336   -2.0853 H   0  0  0  0  0  0  0  0  0  0  0  0
    2.3224    1.0089    2.5225 H   0  0  0  0  0  0  0  0  0  0  0  0
    3.7443    0.3140    3.3218 H   0  0  0  0  0  0  0  0  0  0  0  0
    2.5935   -1.9412    3.4564 H   0  0  0  0  0  0  0  0  0  0  0  0
    1.1751   -1.2804    2.6077 H   0  0  0  0  0  0  0  0  0  0  0  0
    1.5900   -0.6719    4.2401 H   0  0  0  0  0  0  0  0  0  0  0  0
    2.1891    0.4690   -2.5980 H   0  0  0  0  0  0  0  0  0  0  0  0
    1.2804   -0.9432   -2.0815 H   0  0  0  0  0  0  0  0  0  0  0  0
    3.7520   -1.0050   -3.9633 H   0  0  0  0  0  0  0  0  0  0  0  0
    2.0427   -1.2359   -4.4261 H   0  0  0  0  0  0  0  0  0  0  0  0
    2.8621   -2.4551   -3.4041 H   0  0  0  0  0  0  0  0  0  0  0  0
  1 12  1  0  0  0  0
  2 12  1  0  0  0  0
  4 13  1  0  0  0  0
  6 13  1  0  0  0  0
  9 10  1  6  0  0  0
  9  7  1  0  0  0  0
 10 11  2  0  0  0  0
 11  8  1  0  0  0  0
 12  9  1  0  0  0  0
 12  3  1  0  0  0  0
 13 11  1  0  0  0  0
 13  5  1  0  0  0  0
 14  7  1  0  0  0  0
 14 15  1  0  0  0  0
 15 20  1  0  0  0  0
 16 15  2  0  0  0  0
 16 35  1  0  0  0  0
 17 16  1  0  0  0  0
 18 17  2  0  0  0  0
 19 18  1  0  0  0  0
 19 14  2  0  0  0  0
 20 39  1  0  0  0  0
 20 21  1  0  0  0  0
 21 41  1  0  0  0  0
 21 42  1  0  0  0  0
 22 43  1  0  0  0  0
 22 19  1  0  0  0  0
 23 46  1  0  0  0  0
 23 22  1  0  0  0  0
 24  8  1  0  0  0  0
 24 25  1  0  0  0  0
 25 30  1  0  0  0  0
 26 25  2  0  0  0  0
 26 48  1  0  0  0  0
 27 26  1  0  0  0  0
 28 29  1  0  0  0  0
 28 27  2  0  0  0  0
 29 24  2  0  0  0  0
 30 31  1  0  0  0  0
 30 52  1  0  0  0  0
 31 53  1  0  0  0  0
 31 55  1  0  0  0  0
 32 57  1  0  0  0  0
 32 29  1  0  0  0  0
 33 60  1  0  0  0  0
 33 32  1  0  0  0  0
 34 10  1  0  0  0  0
 36 17  1  0  0  0  0
 37 18  1  0  0  0  0
 38 20  1  0  0  0  0
 40 21  1  0  0  0  0
 44 22  1  0  0  0  0
 45 23  1  0  0  0  0
 47 23  1  0  0  0  0
 49 27  1  0  0  0  0
 50 28  1  0  0  0  0
 51 30  1  0  0  0  0
 54 31  1  0  0  0  0
 56 32  1  0  0  0  0
 58 33  1  0  0  0  0
 59 33  1  0  0  0  0
M  END
