1,17
q = 0.0, confidence = 0.992

 25 26  0  0  1  0  0  0  0  0999 V2000
    2.0031    0.3774    0.1521 N   0  0  0  0  0  2  0  0  0  0  0  0
    0.5344    2.1989    1.4820 S   0  0  0  0  0  0  0  0  0  0  0  0
   -0.0000    3.1471   -0.0000 C   0  0  0  0  0  0  0  0  0  0  0  0
    0.8275    3.7935   -0.3543 H   0  0  0  0  0  0  0  0  0  0  0  0
   -0.8275    3.7935    0.3542 H   0  0  0  0  0  0  0  0  0  0  0  0
    2.0684    1.5384    0.8295 C   0  0  2  0  0  3  0  0  0  0  0  0
    3.2799    2.2272    1.0156 C   0  0  0  0  0  0  0  0  0  0  0  0
    3.2893    3.1677    1.5841 H   0  0  0  0  0  0  0  0  0  0  0  0
    4.4489    1.6857    0.4614 C   0  0  0  0  0  0  0  0  0  0  0  0
    5.4141    2.1976    0.5951 H   0  0  0  0  0  0  0  0  0  0  0  0
    4.3671    0.4909   -0.2677 C   0  0  0  0  0  0  0  0  0  0  0  0
    5.2574    0.0386   -0.7273 H   0  0  0  0  0  0  0  0  0  0  0  0
    3.1191   -0.1327   -0.4021 C   0  0  0  0  0  0  0  0  0  0  0  0
    2.9757   -1.0621   -0.9817 H   0  0  0  0  0  0  0  0  0  0  0  0
   -0.5345    2.1988   -1.4820 S   0  0  0  0  0  0  0  0  0  0  0  0
   -2.0684    1.5384   -0.8295 C   0  0  1  0  0  3  0  0  0  0  0  0
   -2.0031    0.3774   -0.1521 N   0  0  0  0  0  2  0  0  0  0  0  0
   -3.1191   -0.1328    0.4021 C   0  0  0  0  0  0  0  0  0  0  0  0
   -4.3671    0.4908    0.2677 C   0  0  0  0  0  0  0  0  0  0  0  0
   -4.4490    1.6857   -0.4614 C   0  0  0  0  0  0  0  0  0  0  0  0
   -3.2799    2.2272   -1.0157 C   0  0  0  0  0  0  0  0  0  0  0  0
   -3.2894    3.1676   -1.5842 H   0  0  0  0  0  0  0  0  0  0  0  0
   -5.4141    2.1976   -0.5951 H   0  0  0  0  0  0  0  0  0  0  0  0
   -5.2574    0.0385    0.7273 H   0  0  0  0  0  0  0  0  0  0  0  0
   -2.9757   -1.0621    0.9817 H   0  0  0  0  0  0  0  0  0  0  0  0
  1  6  1  0  0  0  0
  3  5  1  0  0  0  0
  3  2  1  0  0  0  0
  4  3  1  0  0  0  0
  6  7  1  0  0  0  0
  6  2  1  6  0  0  0
  7  8  1  0  0  0  0
  9 10  1  0  0  0  0
  9  7  2  0  0  0  0
 11  9  1  0  0  0  0
 12 11  1  0  0  0  0
 13 11  2  0  0  0  0
 13  1  1  0  0  0  0
 14 13  1  0  0  0  0
 15  3  1  0  0  0  0
 16 15  1  1  0  0  0
 16 17  1  0  0  0  0
 17 18  1  0  0  0  0
 18 25  1  0  0  0  0
 19 18  2  0  0  0  0
 19 24  1  0  0  0  0
 20 19  1  0  0  0  0
 21 16  1  0  0  0  0
 21 20  2  0  0  0  0
 22 21  1  0  0  0  0
 23 20  1  0  0  0  0
M  END
