4,5
q = -1.0, confidence = 0.0

 31 32  0  0  1  0  0  0  0  0999 V2000
    0.8846   -3.0295    1.6864 S   0  0  0  0  0  0  0  0  0  0  0  0
    0.6534   -2.2840    2.9522 O   0  0  0  0  0  0  0  0  0  0  0  0
    1.5460   -4.3581    1.7264 O   0  0  0  0  0  0  0  0  0  0  0  0
    1.6057   -1.9867    0.6443 N   0  0  0  0  0  2  0  0  0  0  0  0
    2.5336   -1.2182   -1.2370 N   0  0  0  0  0  2  0  0  0  0  0  0
    3.3044   -1.2347   -2.3423 C   0  0  2  0  0  3  0  0  0  0  0  0
    3.9494   -2.4219   -2.7337 C   0  0  0  0  0  0  0  0  0  0  0  0
    4.5675   -2.4396   -3.6423 H   0  0  0  0  0  0  0  0  0  0  0  0
    3.7970   -3.5700   -1.9325 C   0  0  0  0  0  0  0  0  0  0  0  0
    4.3013   -4.5061   -2.2205 H   0  0  0  0  0  0  0  0  0  0  0  0
    3.0291   -3.5396   -0.7668 C   0  0  0  0  0  0  0  0  0  0  0  0
    2.9124   -4.4057   -0.1033 H   0  0  0  0  0  0  0  0  0  0  0  0
    2.3916   -2.3156   -0.4346 C   0  0  0  0  0  0  0  0  0  0  0  0
    3.4542    0.0634   -3.0874 C   0  0  0  0  0  0  0  0  0  0  0  0
    3.8503   -0.0965   -4.1078 H   0  0  0  0  0  0  0  0  0  0  0  0
    4.1635    0.7238   -2.5443 H   0  0  0  0  0  0  0  0  0  0  0  0
    2.5018    0.6294   -3.1359 H   0  0  0  0  0  0  0  0  0  0  0  0
   -0.7476   -3.2686    0.9415 C   0  0  0  0  0  0  0  0  0  0  0  0
   -0.8480   -3.7667   -0.3690 C   0  0  0  0  0  0  0  0  0  0  0  0
    0.0601   -4.0310   -0.9316 H   0  0  0  0  0  0  0  0  0  0  0  0
   -2.1110   -3.9055   -0.9529 C   0  0  0  0  0  0  0  0  0  0  0  0
   -2.1912   -4.2785   -1.9864 H   0  0  0  0  0  0  0  0  0  0  0  0
   -3.2872   -3.5754   -0.2417 C   0  0  0  0  0  0  0  0  0  0  0  0
   -3.1568   -3.1017    1.0775 C   0  0  0  0  0  0  0  0  0  0  0  0
   -4.0620   -2.8397    1.6476 H   0  0  0  0  0  0  0  0  0  0  0  0
   -1.8955   -2.9413    1.6718 C   0  0  0  0  0  0  0  0  0  0  0  0
   -1.7806   -2.5509    2.6936 H   0  0  0  0  0  0  0  0  0  0  0  0
   -4.6394   -3.7308   -0.8881 C   0  0  0  0  0  0  0  0  0  0  0  0
   -4.6711   -3.2315   -1.8792 H   0  0  0  0  0  0  0  0  0  0  0  0
   -5.4441   -3.3006   -0.2611 H   0  0  0  0  0  0  0  0  0  0  0  0
   -4.8827   -4.8002   -1.0628 H   0  0  0  0  0  0  0  0  0  0  0  0
  1  3  2  0  0  0  0
  1  2  2  0  0  0  0
  4  1  1  0  0  0  0
  5 13  1  0  0  0  0
  6 14  1  1  0  0  0
  6  5  1  0  0  0  0
  7  6  1  0  0  0  0
  7  9  2  0  0  0  0
  8  7  1  0  0  0  0
  9 11  1  0  0  0  0
 10  9  1  0  0  0  0
 11 13  2  0  0  0  0
 11 12  1  0  0  0  0
 13  4  1  0  0  0  0
 14 16  1  0  0  0  0
 15 14  1  0  0  0  0
 17 14  1  0  0  0  0
 18 26  1  0  0  0  0
 18  1  1  0  0  0  0
 19 18  2  0  0  0  0
 20 19  1  0  0  0  0
 21 19  1  0  0  0  0
 21 23  2  0  0  0  0
 22 21  1  0  0  0  0
 23 24  1  0  0  0  0
 24 25  1  0  0  0  0
 24 26  2  0  0  0  0
 26 27  1  0  0  0  0
 28 30  1  0  0  0  0
 28 23  1  0  0  0  0
 29 28  1  0  0  0  0
 31 28  1  0  0  0  0
M  END
