1,2
q = 0.0, confidence = 0.998

 31 32  0  0  1  0  0  0  0  0999 V2000
    2.0826    1.2232   -0.2999 N   0  0  0  0  0  2  0  0  0  0  0  0
   -0.1259    1.1278   -0.3493 N   0  0  0  0  0  2  0  0  0  0  0  0
   -2.3512    0.5492   -0.2269 N   0  0  0  0  0  0  0  0  0  0  0  0
   -2.0589   -0.4396   -0.2491 H   0  0  0  0  0  0  0  0  0  0  0  0
   -4.4203   -0.4218   -0.1269 N   0  0  0  0  0  0  0  0  0  0  0  0
    0.9663    1.9963   -0.3205 C   0  0  1  0  0  3  0  0  0  0  0  0
    1.0269    3.3958   -0.2982 C   0  0  0  0  0  0  0  0  0  0  0  0
    0.1201    4.0151   -0.3243 H   0  0  0  0  0  0  0  0  0  0  0  0
    2.3033    3.9751   -0.2356 C   0  0  0  0  0  0  0  0  0  0  0  0
    2.4052    5.0704   -0.2157 H   0  0  0  0  0  0  0  0  0  0  0  0
    3.4470    3.1642   -0.1890 C   0  0  0  0  0  0  0  0  0  0  0  0
    4.4492    3.6104   -0.1252 H   0  0  0  0  0  0  0  0  0  0  0  0
    3.3147    1.7611   -0.2167 C   0  0  0  0  0  0  0  0  0  0  0  0
    4.4679    0.8113   -0.1311 C   0  0  0  0  0  0  0  0  0  0  0  0
    4.4432    0.0941   -0.9763 H   0  0  0  0  0  0  0  0  0  0  0  0
    4.3797    0.2092    0.7973 H   0  0  0  0  0  0  0  0  0  0  0  0
    5.4373    1.3415   -0.1287 H   0  0  0  0  0  0  0  0  0  0  0  0
   -1.3796    1.4786   -0.2559 C   0  0  0  0  0  3  0  0  0  0  0  0
   -1.6922    2.5362   -0.1947 H   0  0  0  0  0  0  0  0  0  0  0  0
   -3.7427    0.7312   -0.1313 C   0  0  0  0  0  0  0  0  0  0  0  0
   -5.7629   -0.3972   -0.0359 C   0  0  0  0  0  0  0  0  0  0  0  0
   -6.4567   -1.7317   -0.0310 C   0  0  0  0  0  0  0  0  0  0  0  0
   -6.1989   -2.2983   -0.9486 H   0  0  0  0  0  0  0  0  0  0  0  0
   -7.5557   -1.6291    0.0332 H   0  0  0  0  0  0  0  0  0  0  0  0
   -6.1008   -2.3415    0.8241 H   0  0  0  0  0  0  0  0  0  0  0  0
   -6.4713    0.8192    0.0516 C   0  0  0  0  0  0  0  0  0  0  0  0
   -7.5681    0.8182    0.1251 H   0  0  0  0  0  0  0  0  0  0  0  0
   -5.7513    2.0226    0.0443 C   0  0  0  0  0  0  0  0  0  0  0  0
   -6.2780    2.9863    0.1126 H   0  0  0  0  0  0  0  0  0  0  0  0
   -4.3562    1.9991   -0.0483 C   0  0  0  0  0  0  0  0  0  0  0  0
   -3.7806    2.9348   -0.0515 H   0  0  0  0  0  0  0  0  0  0  0  0
  1 13  1  0  0  0  0
  2 18  1  0  0  0  0
  3 20  1  0  0  0  0
  4  3  1  0  0  0  0
  5 21  1  0  0  0  0
  6  2  1  1  0  0  0
  6  1  1  0  0  0  0
  6  7  1  0  0  0  0
  7  9  2  0  0  0  0
  8  7  1  0  0  0  0
  9 10  1  0  0  0  0
  9 11  1  0  0  0  0
 11 12  1  0  0  0  0
 13 11  2  0  0  0  0
 13 14  1  0  0  0  0
 14 17  1  0  0  0  0
 14 16  1  0  0  0  0
 15 14  1  0  0  0  0
 18  3  1  0  0  0  0
 18 19  1  0  0  0  0
 20  5  2  0  0  0  0
 20 30  1  0  0  0  0
 21 22  1  0  0  0  0
 21 26  2  0  0  0  0
 22 24  1  0  0  0  0
 22 25  1  0  0  0  0
 23 22  1  0  0  0  0
 26 27  1  0  0  0  0
 28 26  1  0  0  0  0
 28 29  1  0  0  0  0
 30 28  2  0  0  0  0
 31 30  1  0  0  0  0
M  END
