1,2
q = 0.0, confidence = 0.994

 35 37  0  0  1  0  0  0  0  0999 V2000
   -0.6796    1.7318    0.4970 N   0  0  0  0  0  2  0  0  0  0  0  0
    0.8890    0.6241   -1.4604 N   0  0  0  0  0  2  0  0  0  0  0  0
   -1.4917    0.6634   -1.4635 N   0  0  0  0  0  0  0  0  0  0  0  0
   -0.2490    0.6917   -3.5774 C   0  0  0  0  0  0  0  0  0  0  0  0
   -1.1910    0.7553   -4.1374 H   0  0  0  0  0  0  0  0  0  0  0  0
   -2.6554   -0.0775   -2.0020 C   0  0  0  0  0  0  0  0  0  0  0  0
   -2.3671   -0.4705   -2.9914 H   0  0  0  0  0  0  0  0  0  0  0  0
   -3.5103    0.6057   -2.1742 H   0  0  0  0  0  0  0  0  0  0  0  0
   -0.2721    0.6476   -2.1661 C   0  0  1  0  0  3  0  0  0  0  0  0
   -1.6800    1.5746   -0.4093 C   0  0  2  0  0  3  0  0  0  0  0  0
   -0.7629    2.7076    1.4372 C   0  0  0  0  0  0  0  0  0  0  0  0
    0.1314    2.8275    2.0654 H   0  0  0  0  0  0  0  0  0  0  0  0
   -2.8581    2.3456   -0.3044 C   0  0  0  0  0  0  0  0  0  0  0  0
   -3.6630    2.2242   -1.0393 H   0  0  0  0  0  0  0  0  0  0  0  0
   -2.9725    3.3015    0.7071 C   0  0  0  0  0  0  0  0  0  0  0  0
   -3.8852    3.9105    0.7846 H   0  0  0  0  0  0  0  0  0  0  0  0
    0.9733    0.7102   -4.2515 C   0  0  0  0  0  0  0  0  0  0  0  0
    0.9947    0.7484   -5.3505 H   0  0  0  0  0  0  0  0  0  0  0  0
    2.0747    0.7085   -2.1159 C   0  0  0  0  0  0  0  0  0  0  0  0
    2.9623    0.7690   -1.4726 H   0  0  0  0  0  0  0  0  0  0  0  0
   -1.8972    3.5025    1.5866 C   0  0  0  0  0  0  0  0  0  0  0  0
   -1.9283    4.2669    2.3747 H   0  0  0  0  0  0  0  0  0  0  0  0
    2.1623    0.7284   -3.5062 C   0  0  0  0  0  0  0  0  0  0  0  0
    3.1481    0.7744   -3.9884 H   0  0  0  0  0  0  0  0  0  0  0  0
   -3.0472   -1.2333   -1.1060 C   0  0  0  0  0  0  0  0  0  0  0  0
   -3.8862   -1.0438    0.0109 C   0  0  0  0  0  0  0  0  0  0  0  0
   -4.3211   -0.0527    0.2101 H   0  0  0  0  0  0  0  0  0  0  0  0
   -3.6507   -3.3905    0.6140 C   0  0  0  0  0  0  0  0  0  0  0  0
   -3.8902   -4.2313    1.2817 H   0  0  0  0  0  0  0  0  0  0  0  0
   -4.1817   -2.1154    0.8687 C   0  0  0  0  0  0  0  0  0  0  0  0
   -4.8428   -1.9571    1.7339 H   0  0  0  0  0  0  0  0  0  0  0  0
   -2.5286   -2.5196   -1.3594 C   0  0  0  0  0  0  0  0  0  0  0  0
   -1.8868   -2.6826   -2.2403 H   0  0  0  0  0  0  0  0  0  0  0  0
   -2.8292   -3.5932   -0.5072 C   0  0  0  0  0  0  0  0  0  0  0  0
   -2.4263   -4.5942   -0.7220 H   0  0  0  0  0  0  0  0  0  0  0  0
  1 11  1  0  0  0  0
  4  9  1  0  0  0  0
  5  4  1  0  0  0  0
  6  3  1  0  0  0  0
  6 25  1  0  0  0  0
  7  6  1  0  0  0  0
  8  6  1  0  0  0  0
  9  3  1  1  0  0  0
  9  2  1  0  0  0  0
 10  3  1  6  0  0  0
 10 13  1  0  0  0  0
 10  1  1  0  0  0  0
 11 21  2  0  0  0  0
 11 12  1  0  0  0  0
 13 15  2  0  0  0  0
 14 13  1  0  0  0  0
 15 16  1  0  0  0  0
 15 21  1  0  0  0  0
 17  4  2  0  0  0  0
 17 23  1  0  0  0  0
 18 17  1  0  0  0  0
 19 20  1  0  0  0  0
 19  2  1  0  0  0  0
 21 22  1  0  0  0  0
 23 19  2  0  0  0  0
 24 23  1  0  0  0  0
 25 26  1  0  0  0  0
 26 27  1  0  0  0  0
 26 30  2  0  0  0  0
 28 30  1  0  0  0  0
 28 29  1  0  0  0  0
 30 31  1  0  0  0  0
 32 25  2  0  0  0  0
 32 34  1  0  0  0  0
 33 32  1  0  0  0  0
 34 28  2  0  0  0  0
 35 34  1  0  0  0  0
M  END
