4,6
q = -1.0, confidence = 0.002

 35 37  0  0  1  0  0  0  0  0999 V2000
   -2.0879   -0.0983    1.7554 S   0  0  0  0  0  0  0  0  0  0  0  0
   -2.3161    0.6789    3.0065 O   0  0  0  0  0  0  0  0  0  0  0  0
   -1.5139   -1.4561    1.8389 O   0  0  0  0  0  0  0  0  0  0  0  0
   -1.1160    0.7773    0.6922 N   0  0  0  0  0  2  0  0  0  0  0  0
   -7.2855   -0.7870   -1.0679 O   0  0  0  0  0  0  0  0  0  0  0  0
    0.4970    2.0275   -1.0406 N   0  0  0  0  0  2  0  0  0  0  0  0
   -2.0203    4.7428   -0.5959 C   0  0  0  0  0  0  0  0  0  0  0  0
   -2.2404    5.7553   -0.9641 H   0  0  0  0  0  0  0  0  0  0  0  0
   -3.7258   -0.8989   -0.3348 C   0  0  0  0  0  0  0  0  0  0  0  0
   -2.8065   -1.2783   -0.8004 H   0  0  0  0  0  0  0  0  0  0  0  0
   -4.8389    0.2068    1.5319 C   0  0  0  0  0  0  0  0  0  0  0  0
   -4.7682    0.6862    2.5194 H   0  0  0  0  0  0  0  0  0  0  0  0
   -3.6710   -0.2524    0.9144 C   0  0  0  0  0  0  0  0  0  0  0  0
    0.0084    4.5913   -2.0587 C   0  0  0  0  0  0  0  0  0  0  0  0
   -0.1831    5.6011   -2.4538 H   0  0  0  0  0  0  0  0  0  0  0  0
   -0.8879    4.0475   -1.0948 C   0  0  0  0  0  0  0  0  0  0  0  0
   -6.0799    0.0441    0.8966 C   0  0  0  0  0  0  0  0  0  0  0  0
   -6.9886    0.4087    1.3932 H   0  0  0  0  0  0  0  0  0  0  0  0
   -0.6026    2.7227   -0.6071 C   0  0  2  0  0  3  0  0  0  0  0  0
   -6.1414   -0.5853   -0.3647 C   0  0  0  0  0  0  0  0  0  0  0  0
    1.1056    3.8571   -2.4829 C   0  0  0  0  0  0  0  0  0  0  0  0
    1.8122    4.2566   -3.2240 H   0  0  0  0  0  0  0  0  0  0  0  0
   -1.4611    2.0738    0.3602 C   0  0  0  0  0  0  0  0  0  0  0  0
   -2.8131    4.1303    0.3696 C   0  0  0  0  0  0  0  0  0  0  0  0
   -3.6781    4.6707    0.7846 H   0  0  0  0  0  0  0  0  0  0  0  0
    1.3243    2.5697   -1.9419 C   0  0  0  0  0  0  0  0  0  0  0  0
    2.1883    1.9566   -2.2393 H   0  0  0  0  0  0  0  0  0  0  0  0
   -4.9533   -1.0568   -0.9732 C   0  0  0  0  0  0  0  0  0  0  0  0
   -5.0282   -1.5527   -1.9516 H   0  0  0  0  0  0  0  0  0  0  0  0
   -2.5459    2.8324    0.8536 C   0  0  0  0  0  0  0  0  0  0  0  0
   -3.1746    2.4162    1.6473 H   0  0  0  0  0  0  0  0  0  0  0  0
   -8.5092   -0.3467   -0.5077 C   0  0  0  0  0  0  0  0  0  0  0  0
   -9.2988   -0.6095   -1.2356 H   0  0  0  0  0  0  0  0  0  0  0  0
   -8.5182    0.7545   -0.3457 H   0  0  0  0  0  0  0  0  0  0  0  0
   -8.7268   -0.8514    0.4601 H   0  0  0  0  0  0  0  0  0  0  0  0
  1  3  2  0  0  0  0
  1  2  2  0  0  0  0
  4  1  1  0  0  0  0
  5 32  1  0  0  0  0
  5 20  1  0  0  0  0
  6 19  1  0  0  0  0
  7 24  2  0  0  0  0
  8  7  1  0  0  0  0
  9 13  1  0  0  0  0
 10  9  1  0  0  0  0
 11 12  1  0  0  0  0
 13 11  2  0  0  0  0
 13  1  1  0  0  0  0
 14 16  2  0  0  0  0
 15 14  1  0  0  0  0
 16  7  1  0  0  0  0
 17 18  1  0  0  0  0
 17 11  1  0  0  0  0
 19 16  1  1  0  0  0
 19 23  1  0  0  0  0
 20 17  2  0  0  0  0
 21 14  1  0  0  0  0
 21 26  2  0  0  0  0
 22 21  1  0  0  0  0
 23  4  1  0  0  0  0
 23 30  2  0  0  0  0
 24 25  1  0  0  0  0
 24 30  1  0  0  0  0
 26  6  1  0  0  0  0
 27 26  1  0  0  0  0
 28 20  1  0  0  0  0
 28  9  2  0  0  0  0
 29 28  1  0  0  0  0
 30 31  1  0  0  0  0
 32 34  1  0  0  0  0
 32 35  1  0  0  0  0
 33 32  1  0  0  0  0
M  END
