4,6
q = -1.0

 31 33  0  0  0  0  0  0  0  0999 V2000
   -2.6612   -1.0491   -1.2070 S   0  0  0  0  0  0  0  0  0  0  0  0
   -3.9365   -0.7286   -1.8928 O   0  0  0  0  0  0  0  0  0  0  0  0
   -1.7131   -1.9805   -1.8555 O   0  0  0  0  0  0  0  0  0  0  0  0
   -1.8031    0.3439   -0.7890 N   0  0  0  0  0  2  0  0  0  0  0  0
   -1.4245    2.7088   -0.7418 C   0  0  0  0  0  0  0  0  0  0  0  0
   -0.0954    2.3983   -0.6010 N   0  0  0  0  0  2  0  0  0  0  0  0
   -1.8611    4.0810   -0.7996 C   0  0  0  0  0  0  0  0  0  0  0  0
   -4.3211   -1.6503    2.4765 C   0  0  0  0  0  0  0  0  0  0  0  0
   -5.0908   -1.1805    3.1079 H   0  0  0  0  0  0  0  0  0  0  0  0
   -3.0787   -1.7525    0.4037 C   0  0  0  0  0  0  0  0  0  0  0  0
    0.8232    3.3690   -0.5386 C   0  0  0  0  0  0  0  0  0  0  0  0
    1.8680    3.0425   -0.4272 H   0  0  0  0  0  0  0  0  0  0  0  0
   -2.3820   -2.8824    0.8497 C   0  0  0  0  0  0  0  0  0  0  0  0
   -1.6402   -3.3456    0.1860 H   0  0  0  0  0  0  0  0  0  0  0  0
   -3.2441    4.3674   -0.9324 C   0  0  0  0  0  3  0  0  0  0  0  0
   -3.5805    5.4137   -0.9690 H   0  0  0  0  0  0  0  0  0  0  0  0
   -3.7267    1.9609   -0.9804 C   0  0  0  0  0  0  0  0  0  0  0  0
   -4.4684    1.1646   -1.1051 H   0  0  0  0  0  0  0  0  0  0  0  0
   -4.1414    3.3082   -1.0176 C   0  0  0  0  0  0  0  0  0  0  0  0
   -5.2178    3.5150   -1.1234 H   0  0  0  0  0  0  0  0  0  0  0  0
    0.4767    4.7376   -0.6009 C   0  0  0  0  0  0  0  0  0  0  0  0
    1.2692    5.4972   -0.5447 H   0  0  0  0  0  0  0  0  0  0  0  0
   -2.3637    1.6095   -0.8487 C   0  0  0  0  0  0  0  0  0  0  0  0
   -3.6027   -2.7637    2.9504 C   0  0  0  0  0  0  0  0  0  0  0  0
   -3.8017   -3.1554    3.9595 H   0  0  0  0  0  0  0  0  0  0  0  0
   -4.0653   -1.1392    1.1961 C   0  0  0  0  0  0  0  0  0  0  0  0
   -4.6213   -0.2705    0.8138 H   0  0  0  0  0  0  0  0  0  0  0  0
   -0.8584    5.0893   -0.7211 C   0  0  0  0  0  0  0  0  0  0  0  0
   -1.1637    6.1465   -0.7609 H   0  0  0  0  0  0  0  0  0  0  0  0
   -2.6415   -3.3820    2.1357 C   0  0  0  0  0  0  0  0  0  0  0  0
   -2.0732   -4.2496    2.5040 H   0  0  0  0  0  0  0  0  0  0  0  0
  1  4  1  0  0  0  0
  1 10  1  0  0  0  0
  2  1  2  0  0  0  0
  3  1  2  0  0  0  0
  5  6  1  0  0  0  0
  6 11  1  0  0  0  0
  7  5  1  0  0  0  0
  7 28  2  0  0  0  0
  8 24  1  0  0  0  0
  8  9  1  0  0  0  0
 10 13  2  0  0  0  0
 10 26  1  0  0  0  0
 11 12  1  0  0  0  0
 13 30  1  0  0  0  0
 14 13  1  0  0  0  0
 15  7  1  0  0  0  0
 16 15  1  0  0  0  0
 17 23  1  0  0  0  0
 18 17  1  0  0  0  0
 19 17  2  0  0  0  0
 19 15  1  0  0  0  0
 20 19  1  0  0  0  0
 21 22  1  0  0  0  0
 21 11  2  0  0  0  0
 23  4  1  0  0  0  0
 23  5  2  0  0  0  0
 24 25  1  0  0  0  0
 26  8  2  0  0  0  0
 27 26  1  0  0  0  0
 28 21  1  0  0  0  0
 29 28  1  0  0  0  0
 30 31  1  0  0  0  0
 30 24  2  0  0  0  0
M  END
