1,2
q = -1.0

 51 55  0  0  0  0  0  0  0  0999 V2000
    2.3362   -1.1924    0.2307 N   0  0  0  0  0  2  0  0  0  0  0  0
    2.6572    1.5332   -0.1068 N   0  0  0  0  0  0  0  0  0  0  0  0
   -7.4140   -0.0967   -0.0311 N   0  0  0  0  0  0  0  0  0  0  0  0
    0.4712    0.4455    0.3579 C   0  0  0  0  0  0  0  0  0  0  0  0
    0.9788   -0.8753    0.3549 C   0  0  0  0  0  0  0  0  0  0  0  0
    0.2229   -2.0950    0.3872 C   0  0  0  0  0  0  0  0  0  0  0  0
   -0.8687   -2.1599    0.4430 H   0  0  0  0  0  0  0  0  0  0  0  0
    1.2822    1.5868    0.1563 C   0  0  0  0  0  3  0  0  0  0  0  0
    2.4198   -2.5431    0.1955 C   0  0  0  0  0  3  0  0  0  0  0  0
    3.3854   -3.0541    0.0888 H   0  0  0  0  0  0  0  0  0  0  0  0
    1.1371   -3.1429    0.2917 C   0  0  0  0  0  0  0  0  0  0  0  0
    0.9273   -4.2187    0.2750 H   0  0  0  0  0  0  0  0  0  0  0  0
    3.0697    2.8110   -0.2768 C   0  0  0  0  0  0  0  0  0  0  0  0
    4.1183    3.0515   -0.4950 H   0  0  0  0  0  0  0  0  0  0  0  0
    0.8694    2.9615    0.1684 C   0  0  0  0  0  0  0  0  0  0  0  0
   -0.1439    3.3161    0.3830 H   0  0  0  0  0  0  0  0  0  0  0  0
    1.9977    3.7275   -0.1192 C   0  0  0  0  0  0  0  0  0  0  0  0
    2.0671    4.8186   -0.1982 H   0  0  0  0  0  0  0  0  0  0  0  0
   -3.8172    0.9833    0.9636 C   0  0  0  0  0  0  0  0  0  0  0  0
   -0.9839    0.6348    0.5624 C   0  0  0  0  0  0  0  0  0  0  0  0
   -3.1517    1.5207   -0.1726 C   0  0  0  0  0  0  0  0  0  0  0  0
   -3.7151    2.0551   -0.9481 H   0  0  0  0  0  0  0  0  0  0  0  0
   -1.6459    0.0830    1.6835 C   0  0  0  0  0  0  0  0  0  0  0  0
   -1.0582   -0.4702    2.4308 H   0  0  0  0  0  0  0  0  0  0  0  0
   -1.7760    1.3602   -0.3539 C   0  0  0  0  0  0  0  0  0  0  0  0
   -1.3040    1.7741   -1.2570 H   0  0  0  0  0  0  0  0  0  0  0  0
   -3.0149    0.2555    1.8864 C   0  0  0  0  0  0  0  0  0  0  0  0
   -3.4592   -0.1596    2.8010 H   0  0  0  0  0  0  0  0  0  0  0  0
   -5.1777    1.1894    1.1914 N   0  0  0  0  0  0  0  0  0  0  0  0
   -6.0178    1.9023    0.2356 C   0  0  0  0  0  0  0  0  0  0  0  0
   -6.8114    2.4298    0.8091 H   0  0  0  0  0  0  0  0  0  0  0  0
   -5.4336    2.6760   -0.2937 H   0  0  0  0  0  0  0  0  0  0  0  0
   -6.6622   -0.7812    1.0062 C   0  0  0  0  0  0  0  0  0  0  0  0
   -7.3413   -1.4113    1.6096 H   0  0  0  0  0  0  0  0  0  0  0  0
   -5.8828   -1.4504    0.5644 H   0  0  0  0  0  0  0  0  0  0  0  0
   -5.9800    0.2341    1.9418 C   0  0  0  0  0  0  0  0  0  0  0  0
   -5.3660   -0.3033    2.6849 H   0  0  0  0  0  0  0  0  0  0  0  0
   -6.7633    0.7929    2.4997 H   0  0  0  0  0  0  0  0  0  0  0  0
   -6.6763    0.9375   -0.7533 C   0  0  0  0  0  0  0  0  0  0  0  0
   -7.3955    1.4507   -1.4177 H   0  0  0  0  0  0  0  0  0  0  0  0
   -5.8880    0.4697   -1.3921 H   0  0  0  0  0  0  0  0  0  0  0  0
   -8.6068   -0.5854   -0.5461 C   0  0  0  0  0  0  0  0  0  0  0  0
   -9.2218   -1.7785   -0.0655 C   0  0  0  0  0  0  0  0  0  0  0  0
   -8.7498   -2.4028    0.7041 H   0  0  0  0  0  0  0  0  0  0  0  0
  -10.3451   -0.2540   -2.0466 C   0  0  0  0  0  0  0  0  0  0  0  0
  -10.7557    0.3813   -2.8528 H   0  0  0  0  0  0  0  0  0  0  0  0
  -11.0433   -1.3926   -1.6219 C   0  0  0  0  0  0  0  0  0  0  0  0
  -12.0050   -1.6710   -2.0749 H   0  0  0  0  0  0  0  0  0  0  0  0
  -10.4471   -2.1651   -0.6101 C   0  0  0  0  0  0  0  0  0  0  0  0
  -10.9332   -3.0846   -0.2486 H   0  0  0  0  0  0  0  0  0  0  0  0
   -9.1727    0.1396   -1.5368 N   0  0  0  0  0  0  0  0  0  0  0  0
  1  5  1  0  0  0  0
  2  8  1  0  0  0  0
  3 33  1  0  0  0  0
  4 20  1  0  0  0  0
  5  4  2  0  0  0  0
  5  6  1  0  0  0  0
  6  7  1  0  0  0  0
  8 15  1  0  0  0  0
  8  4  1  0  0  0  0
  9  1  1  0  0  0  0
  9 11  1  0  0  0  0
 10  9  1  0  0  0  0
 11  6  2  0  0  0  0
 12 11  1  0  0  0  0
 13 17  1  0  0  0  0
 13  2  2  0  0  0  0
 14 13  1  0  0  0  0
 15 16  1  0  0  0  0
 17 15  2  0  0  0  0
 18 17  1  0  0  0  0
 19 29  1  0  0  0  0
 19 27  1  0  0  0  0
 20 23  1  0  0  0  0
 21 19  2  0  0  0  0
 22 21  1  0  0  0  0
 23 27  2  0  0  0  0
 23 24  1  0  0  0  0
 25 21  1  0  0  0  0
 25 20  2  0  0  0  0
 26 25  1  0  0  0  0
 27 28  1  0  0  0  0
 29 36  1  0  0  0  0
 30 31  1  0  0  0  0
 30 29  1  0  0  0  0
 32 30  1  0  0  0  0
 33 34  1  0  0  0  0
 33 36  1  0  0  0  0
 35 33  1  0  0  0  0
 36 38  1  0  0  0  0
 36 37  1  0  0  0  0
 39  3  1  0  0  0  0
 39 30  1  0  0  0  0
 40 39  1  0  0  0  0
 41 39  1  0  0  0  0
 42 43  1  0  0  0  0
 42  3  1  0  0  0  0
 43 44  1  0  0  0  0
 45 47  2  0  0  0  0
 45 51  1  0  0  0  0
 46 45  1  0  0  0  0
 47 49  1  0  0  0  0
 48 47  1  0  0  0  0
 49 50  1  0  0  0  0
 49 43  2  0  0  0  0
 51 42  2  0  0  0  0
M  END
