1,3
q = 0.0, confidence = 1.0

 47 48  0  0  0  0  0  0  0  0999 V2000
    1.4521    0.7451   -0.4829 N   0  0  0  0  0  2  0  0  0  0  0  0
    1.1996   -0.2871   -1.3259 N   0  0  0  0  0  0  0  0  0  0  0  0
   -1.4519    0.7450   -0.4824 N   0  0  0  0  0  2  0  0  0  0  0  0
   -1.1997   -0.2872   -1.3256 N   0  0  0  0  0  0  0  0  0  0  0  0
    2.6483    0.5141    0.0700 C   0  0  0  0  0  3  0  0  0  0  0  0
    3.0505    1.2417    0.7845 H   0  0  0  0  0  0  0  0  0  0  0  0
    3.1959   -0.7073   -0.4321 C   0  0  0  0  0  0  0  0  0  0  0  0
    2.2262   -1.1878   -1.3262 C   0  0  0  0  0  0  0  0  0  0  0  0
    2.2113   -2.0833   -1.9557 H   0  0  0  0  0  0  0  0  0  0  0  0
   -0.0002   -0.2467   -2.1336 C   0  0  0  0  0  0  0  0  0  0  0  0
   -0.0003    0.6987   -2.7170 H   0  0  0  0  0  0  0  0  0  0  0  0
   -0.0003   -1.1137   -2.8170 H   0  0  0  0  0  0  0  0  0  0  0  0
   -2.2265   -1.1876   -1.3258 C   0  0  0  0  0  3  0  0  0  0  0  0
   -2.2119   -2.0831   -1.9554 H   0  0  0  0  0  0  0  0  0  0  0  0
   -3.1959   -0.7071   -0.4315 C   0  0  0  0  0  0  0  0  0  0  0  0
   -2.6480    0.5142    0.0707 C   0  0  0  0  0  0  0  0  0  0  0  0
   -3.0500    1.2417    0.7854 H   0  0  0  0  0  0  0  0  0  0  0  0
    4.4425   -1.2979   -0.1006 C   0  0  0  0  0  0  0  0  0  0  0  0
    5.5250   -1.7923    0.2012 C   0  0  0  0  0  0  0  0  0  0  0  0
    6.8252   -2.3764    0.5663 C   0  0  0  0  0  0  0  0  0  0  0  0
    7.9576   -1.4616    0.0417 C   0  0  0  0  0  0  0  0  0  0  0  0
    7.9114   -1.3640   -1.0608 H   0  0  0  0  0  0  0  0  0  0  0  0
    8.9444   -1.8893    0.3137 H   0  0  0  0  0  0  0  0  0  0  0  0
    7.8843   -0.4474    0.4811 H   0  0  0  0  0  0  0  0  0  0  0  0
    6.9153   -2.4892    2.1067 C   0  0  0  0  0  0  0  0  0  0  0  0
    6.8233   -1.4938    2.5837 H   0  0  0  0  0  0  0  0  0  0  0  0
    7.8931   -2.9258    2.3963 H   0  0  0  0  0  0  0  0  0  0  0  0
    6.1112   -3.1386    2.5056 H   0  0  0  0  0  0  0  0  0  0  0  0
    6.9481   -3.7804   -0.0705 C   0  0  0  0  0  0  0  0  0  0  0  0
    6.1441   -4.4522    0.2898 H   0  0  0  0  0  0  0  0  0  0  0  0
    7.9252   -4.2319    0.1975 H   0  0  0  0  0  0  0  0  0  0  0  0
    6.8832   -3.7231   -1.1751 H   0  0  0  0  0  0  0  0  0  0  0  0
   -4.4426   -1.2976   -0.0999 C   0  0  0  0  0  0  0  0  0  0  0  0
   -5.5251   -1.7915    0.2026 C   0  0  0  0  0  0  0  0  0  0  0  0
   -6.8255   -2.3761    0.5661 C   0  0  0  0  0  0  0  0  0  0  0  0
   -7.8667   -2.0185   -0.5213 C   0  0  0  0  0  0  0  0  0  0  0  0
   -7.9822   -0.9208   -0.6145 H   0  0  0  0  0  0  0  0  0  0  0  0
   -8.8529   -2.4521   -0.2565 H   0  0  0  0  0  0  0  0  0  0  0  0
   -7.5640   -2.4190   -1.5089 H   0  0  0  0  0  0  0  0  0  0  0  0
   -7.2734   -1.7991    1.9297 C   0  0  0  0  0  0  0  0  0  0  0  0
   -6.5402   -2.0412    2.7240 H   0  0  0  0  0  0  0  0  0  0  0  0
   -8.2546   -2.2294    2.2169 H   0  0  0  0  0  0  0  0  0  0  0  0
   -7.3770   -0.6974    1.8801 H   0  0  0  0  0  0  0  0  0  0  0  0
   -6.6820   -3.9129    0.6684 C   0  0  0  0  0  0  0  0  0  0  0  0
   -6.3572   -4.3472   -0.2978 H   0  0  0  0  0  0  0  0  0  0  0  0
   -7.6568   -4.3654    0.9429 H   0  0  0  0  0  0  0  0  0  0  0  0
   -5.9386   -4.1920    1.4409 H   0  0  0  0  0  0  0  0  0  0  0  0
  1  5  1  0  0  0  0
  2  1  1  0  0  0  0
  3 16  1  0  0  0  0
  4  3  1  0  0  0  0
  5  6  1  0  0  0  0
  7 18  1  0  0  0  0
  7  5  1  0  0  0  0
  8  2  1  0  0  0  0
  8  7  2  0  0  0  0
  9  8  1  0  0  0  0
 10  2  1  0  0  0  0
 10  4  1  0  0  0  0
 11 10  1  0  0  0  0
 12 10  1  0  0  0  0
 13  4  1  0  0  0  0
 13 15  1  0  0  0  0
 14 13  1  0  0  0  0
 15 33  1  0  0  0  0
 15 16  2  0  0  0  0
 16 17  1  0  0  0  0
 18 19  3  0  0  0  0
 19 20  1  0  0  0  0
 20 25  1  0  0  0  0
 21 23  1  0  0  0  0
 21 24  1  0  0  0  0
 21 20  1  0  0  0  0
 22 21  1  0  0  0  0
 25 27  1  0  0  0  0
 25 28  1  0  0  0  0
 25 26  1  0  0  0  0
 29 31  1  0  0  0  0
 29 30  1  0  0  0  0
 29 20  1  0  0  0  0
 32 29  1  0  0  0  0
 33 34  3  0  0  0  0
 34 35  1  0  0  0  0
 35 44  1  0  0  0  0
 35 40  1  0  0  0  0
 36 38  1  0  0  0  0
 36 35  1  0  0  0  0
 37 36  1  0  0  0  0
 39 36  1  0  0  0  0
 40 42  1  0  0  0  0
 40 41  1  0  0  0  0
 43 40  1  0  0  0  0
 44 46  1  0  0  0  0
 44 47  1  0  0  0  0
 45 44  1  0  0  0  0
M  END
