1,2
q = 0.0, confidence = 0.994

 21 20  0  0  0  0  0  0  0  0999 V2000
   -1.5594   -1.2088   -0.0839 N   0  0  0  0  0  0  0  0  0  0  0  0
   -1.5595    1.2088   -0.0838 N   0  0  0  0  0  0  0  0  0  0  0  0
   -2.3206   -0.0000   -0.4777 C   0  0  0  0  0  0  0  0  0  0  0  0
   -3.3507   -0.0000   -0.0448 H   0  0  0  0  0  0  0  0  0  0  0  0
   -2.4125    0.0000   -1.5792 H   0  0  0  0  0  0  0  0  0  0  0  0
   -1.5902   -2.2591   -1.1201 C   0  0  0  0  0  0  0  0  0  0  0  0
   -0.8911   -3.0660   -0.8309 H   0  0  0  0  0  0  0  0  0  0  0  0
   -1.2490   -1.8458   -2.0862 H   0  0  0  0  0  0  0  0  0  0  0  0
   -2.6109   -2.6938   -1.2364 H   0  0  0  0  0  0  0  0  0  0  0  0
   -1.9985   -1.7832    1.2025 C   0  0  0  0  0  0  0  0  0  0  0  0
   -3.0198   -2.2251    1.1215 H   0  0  0  0  0  0  0  0  0  0  0  0
   -1.9990   -1.0137    1.9931 H   0  0  0  0  0  0  0  0  0  0  0  0
   -1.2860   -2.5727    1.5058 H   0  0  0  0  0  0  0  0  0  0  0  0
   -1.5902    2.2591   -1.1200 C   0  0  0  0  0  0  0  0  0  0  0  0
   -2.6109    2.6938   -1.2363 H   0  0  0  0  0  0  0  0  0  0  0  0
   -1.2490    1.8459   -2.0861 H   0  0  0  0  0  0  0  0  0  0  0  0
   -0.8911    3.0660   -0.8307 H   0  0  0  0  0  0  0  0  0  0  0  0
   -1.9986    1.7831    1.2026 C   0  0  0  0  0  0  0  0  0  0  0  0
   -1.2861    2.5726    1.5059 H   0  0  0  0  0  0  0  0  0  0  0  0
   -1.9990    1.0136    1.9931 H   0  0  0  0  0  0  0  0  0  0  0  0
   -3.0199    2.2250    1.1216 H   0  0  0  0  0  0  0  0  0  0  0  0
  1 10  1  0  0  0  0
  2 18  1  0  0  0  0
  3  1  1  0  0  0  0
  3  2  1  0  0  0  0
  3  4  1  0  0  0  0
  5  3  1  0  0  0  0
  6  7  1  0  0  0  0
  6  1  1  0  0  0  0
  8  6  1  0  0  0  0
  9  6  1  0  0  0  0
 10 13  1  0  0  0  0
 10 12  1  0  0  0  0
 11 10  1  0  0  0  0
 14 17  1  0  0  0  0
 14  2  1  0  0  0  0
 15 14  1  0  0  0  0
 16 14  1  0  0  0  0
 18 19  1  0  0  0  0
 18 20  1  0  0  0  0
 21 18  1  0  0  0  0
M  END
