1,2
q = 0.0, confidence = 0.996

 27 26  0  0  0  0  0  0  0  0999 V2000
    0.1584    1.8803   -0.7043 N   0  0  0  0  0  0  0  0  0  0  0  0
    1.6695    0.1074   -0.0357 N   0  0  0  0  0  0  0  0  0  0  0  0
    0.0579    2.0542   -2.1666 C   0  0  0  0  0  0  0  0  0  0  0  0
    0.5866    2.9779   -2.5013 H   0  0  0  0  0  0  0  0  0  0  0  0
   -1.0090    2.1261   -2.4488 H   0  0  0  0  0  0  0  0  0  0  0  0
    0.4850    1.1831   -2.6921 H   0  0  0  0  0  0  0  0  0  0  0  0
   -0.4005    3.0728   -0.0378 C   0  0  0  0  0  0  0  0  0  0  0  0
   -0.3449    2.9528    1.0589 H   0  0  0  0  0  0  0  0  0  0  0  0
   -1.4670    3.1698   -0.3145 H   0  0  0  0  0  0  0  0  0  0  0  0
    0.1351    4.0029   -0.3418 H   0  0  0  0  0  0  0  0  0  0  0  0
    1.5349    1.5671   -0.2455 C   0  0  0  0  0  0  0  0  0  0  0  0
    1.6918    2.0714    0.7260 H   0  0  0  0  0  0  0  0  0  0  0  0
    2.2973    1.9571   -0.9617 H   0  0  0  0  0  0  0  0  0  0  0  0
    2.3005   -0.5690   -1.2050 C   0  0  0  0  0  0  0  0  0  0  0  0
    3.3302   -0.1669   -1.3583 H   0  0  0  0  0  0  0  0  0  0  0  0
    1.7123   -0.2830   -2.0967 H   0  0  0  0  0  0  0  0  0  0  0  0
    2.3318   -2.0856   -1.0939 C   0  0  0  0  0  0  0  0  0  0  0  0
    3.0325   -2.4412   -0.3132 H   0  0  0  0  0  0  0  0  0  0  0  0
    2.6602   -2.5205   -2.0579 H   0  0  0  0  0  0  0  0  0  0  0  0
    1.3220   -2.4795   -0.8627 H   0  0  0  0  0  0  0  0  0  0  0  0
    2.3546   -0.2241    1.2478 C   0  0  0  0  0  0  0  0  0  0  0  0
    2.1703   -1.2977    1.4464 H   0  0  0  0  0  0  0  0  0  0  0  0
    1.8094    0.3199    2.0427 H   0  0  0  0  0  0  0  0  0  0  0  0
    3.8484    0.0930    1.3076 C   0  0  0  0  0  0  0  0  0  0  0  0
    4.4438   -0.5155    0.5981 H   0  0  0  0  0  0  0  0  0  0  0  0
    4.2297   -0.1239    2.3250 H   0  0  0  0  0  0  0  0  0  0  0  0
    4.0576    1.1628    1.0990 H   0  0  0  0  0  0  0  0  0  0  0  0
  1 11  1  0  0  0  0
  1  7  1  0  0  0  0
  2 21  1  0  0  0  0
  3  1  1  0  0  0  0
  4  3  1  0  0  0  0
  5  3  1  0  0  0  0
  6  3  1  0  0  0  0
  7  8  1  0  0  0  0
  9  7  1  0  0  0  0
 10  7  1  0  0  0  0
 11  2  1  0  0  0  0
 11 12  1  0  0  0  0
 13 11  1  0  0  0  0
 14 17  1  0  0  0  0
 14  2  1  0  0  0  0
 15 14  1  0  0  0  0
 16 14  1  0  0  0  0
 17 20  1  0  0  0  0
 17 18  1  0  0  0  0
 19 17  1  0  0  0  0
 21 24  1  0  0  0  0
 21 22  1  0  0  0  0
 21 23  1  0  0  0  0
 24 26  1  0  0  0  0
 25 24  1  0  0  0  0
 27 24  1  0  0  0  0
M  END
