52,53
q = -1.0

 57 60  0  0  1  0  0  0  0  0999 V2000
   -1.1339    0.4790    0.2892 B   0  0  1  0  0  0  0  0  0  0  0  0
    0.7043   -3.7087    0.6965 C   0  0  0  0  0  0  0  0  0  0  0  0
   -0.2724   -3.6632    0.1740 H   0  0  0  0  0  0  0  0  0  0  0  0
    0.7737   -4.6754    1.2356 H   0  0  0  0  0  0  0  0  0  0  0  0
    1.5102   -3.6557   -0.0583 H   0  0  0  0  0  0  0  0  0  0  0  0
    0.8350   -2.5429    1.6871 C   0  0  0  0  0  0  0  0  0  0  0  0
    2.1330   -2.6010    2.4901 C   0  0  0  0  0  0  0  0  0  0  0  0
    3.0063   -2.6544    1.8127 H   0  0  0  0  0  0  0  0  0  0  0  0
    2.1408   -3.5018    3.1364 H   0  0  0  0  0  0  0  0  0  0  0  0
    2.2413   -1.7074    3.1374 H   0  0  0  0  0  0  0  0  0  0  0  0
   -0.4159   -2.4416    2.5926 C   0  0  0  0  0  0  0  0  0  0  0  0
   -0.9491   -3.4021    2.7194 H   0  0  0  0  0  0  0  0  0  0  0  0
   -0.1811   -2.0081    3.5887 H   0  0  0  0  0  0  0  0  0  0  0  0
   -0.5441   -0.8133    1.0466 C   0  0  1  0  0  3  0  0  0  0  0  0
    2.6785    1.0124   -2.9237 C   0  0  0  0  0  0  0  0  0  0  0  0
    2.7728    1.9503   -2.3435 H   0  0  0  0  0  0  0  0  0  0  0  0
    2.8421    1.2336   -3.9978 H   0  0  0  0  0  0  0  0  0  0  0  0
    3.4707    0.3183   -2.5847 H   0  0  0  0  0  0  0  0  0  0  0  0
    1.3016    0.3868   -2.7317 C   0  0  0  0  0  0  0  0  0  0  0  0
    1.1709   -0.9775   -3.4231 C   0  0  0  0  0  0  0  0  0  0  0  0
    1.8765   -1.7009   -2.9747 H   0  0  0  0  0  0  0  0  0  0  0  0
    1.3976   -0.8752   -4.5036 H   0  0  0  0  0  0  0  0  0  0  0  0
    0.1413   -1.3730   -3.3119 H   0  0  0  0  0  0  0  0  0  0  0  0
    0.1591    1.3344   -3.1611 C   0  0  0  0  0  0  0  0  0  0  0  0
    0.4526    2.4032   -3.0854 H   0  0  0  0  0  0  0  0  0  0  0  0
   -0.2366    1.1204   -4.1710 H   0  0  0  0  0  0  0  0  0  0  0  0
   -0.3418    0.5574   -1.1112 C   0  0  2  0  0  3  0  0  0  0  0  0
   -4.9945   -2.0176    0.1240 C   0  0  0  0  0  0  0  0  0  0  0  0
   -4.6468   -2.8909   -0.4626 H   0  0  0  0  0  0  0  0  0  0  0  0
   -6.0917   -2.1021    0.2694 H   0  0  0  0  0  0  0  0  0  0  0  0
   -4.4992   -2.0548    1.1152 H   0  0  0  0  0  0  0  0  0  0  0  0
   -4.6273   -0.7135   -0.6032 C   0  0  0  0  0  0  0  0  0  0  0  0
   -5.2952   -0.6411   -1.9800 C   0  0  0  0  0  0  0  0  0  0  0  0
   -4.9871    0.2809   -2.5121 H   0  0  0  0  0  0  0  0  0  0  0  0
   -6.4016   -0.6454   -1.8915 H   0  0  0  0  0  0  0  0  0  0  0  0
   -4.9911   -1.5088   -2.5983 H   0  0  0  0  0  0  0  0  0  0  0  0
   -4.9316    0.5402    0.2728 C   0  0  0  0  0  0  0  0  0  0  0  0
   -5.4051    1.3615   -0.3083 H   0  0  0  0  0  0  0  0  0  0  0  0
   -5.5606    0.3222    1.1596 H   0  0  0  0  0  0  0  0  0  0  0  0
   -2.7054    0.2497    0.0305 C   0  0  0  0  0  0  0  0  0  0  0  0
   -0.6090    1.8240    1.0622 C   0  0  0  0  0  0  0  0  0  0  0  0
    0.7311    1.8961    1.4841 C   0  0  0  0  0  0  0  0  0  0  0  0
    1.3470    0.9618    1.5571 H   0  0  0  0  0  0  0  0  0  0  0  0
    1.3376    3.0746    1.9362 C   0  0  0  0  0  0  0  0  0  0  0  0
    2.4040    3.0735    2.2066 H   0  0  0  0  0  0  0  0  0  0  0  0
    0.5582    4.2379    2.0287 C   0  0  0  0  0  0  0  0  0  0  0  0
    1.0061    5.1760    2.3907 H   0  0  0  0  0  0  0  0  0  0  0  0
   -0.7958    4.1944    1.6542 C   0  0  0  0  0  0  0  0  0  0  0  0
   -1.4101    5.1062    1.7218 H   0  0  0  0  0  0  0  0  0  0  0  0
   -1.3720    3.0072    1.1701 C   0  0  0  0  0  0  0  0  0  0  0  0
   -2.4286    2.9868    0.8674 H   0  0  0  0  0  0  0  0  0  0  0  0
    0.6875   -1.2489    0.9418 N   0  0  0  0  0  2  0  0  0  0  0  0
    0.9230    0.2441   -1.2843 N   0  0  0  0  0  2  0  0  0  0  0  0
   -3.1562   -0.6734   -0.7467 N   0  0  0  0  0  0  0  0  0  0  0  0
   -0.9030    1.1029   -2.1955 O   0  0  0  0  0  0  0  0  0  0  0  0
   -1.2977   -1.5150    1.9061 O   0  0  0  0  0  0  0  0  0  0  0  0
   -3.6366    0.9879    0.7265 O   0  0  0  0  0  0  0  0  0  0  0  0
  1 40  1  6  0  0  0
  1 41  1  0  0  0  0
  2  4  1  0  0  0  0
  2  6  1  0  0  0  0
  3  2  1  0  0  0  0
  5  2  1  0  0  0  0
  6  7  1  0  0  0  0
  6 11  1  0  0  0  0
  7  9  1  0  0  0  0
  7 10  1  0  0  0  0
  8  7  1  0  0  0  0
 11 12  1  0  0  0  0
 11 13  1  0  0  0  0
 14  1  1  1  0  0  0
 14 56  1  0  0  0  0
 15 19  1  0  0  0  0
 15 18  1  0  0  0  0
 15 16  1  0  0  0  0
 17 15  1  0  0  0  0
 19 53  1  0  0  0  0
 20 23  1  0  0  0  0
 20 21  1  0  0  0  0
 20 19  1  0  0  0  0
 22 20  1  0  0  0  0
 24 25  1  0  0  0  0
 24 19  1  0  0  0  0
 24 55  1  0  0  0  0
 26 24  1  0  0  0  0
 27  1  1  1  0  0  0
 28 30  1  0  0  0  0
 28 31  1  0  0  0  0
 29 28  1  0  0  0  0
 32 28  1  0  0  0  0
 32 37  1  0  0  0  0
 33 35  1  0  0  0  0
 33 32  1  0  0  0  0
 34 33  1  0  0  0  0
 36 33  1  0  0  0  0
 37 57  1  0  0  0  0
 37 39  1  0  0  0  0
 38 37  1  0  0  0  0
 40 57  1  0  0  0  0
 41 50  2  0  0  0  0
 41 42  1  0  0  0  0
 42 43  1  0  0  0  0
 42 44  2  0  0  0  0
 44 46  1  0  0  0  0
 44 45  1  0  0  0  0
 46 47  1  0  0  0  0
 48 49  1  0  0  0  0
 48 46  2  0  0  0  0
 50 48  1  0  0  0  0
 51 50  1  0  0  0  0
 52 14  1  0  0  0  0
 52  6  1  0  0  0  0
 53 27  1  0  0  0  0
 54 32  1  0  0  0  0
 54 40  2  0  0  0  0
 55 27  1  0  0  0  0
 56 11  1  0  0  0  0
M  END
