1,2
q = -1.0, confidence = 0.0

 28 30  0  0  0  0  0  0  0  0999 V2000
   -1.3494   -1.1349   -0.9312 N   0  0  0  0  0  0  0  0  0  0  0  0
   -1.3504    1.1368    0.9304 N   0  0  0  0  0  0  0  0  0  0  0  0
   -1.1321   -2.2366   -1.6729 C   0  0  0  0  0  0  0  0  0  0  0  0
   -2.3549   -2.8798   -2.0149 C   0  0  0  0  0  0  0  0  0  0  0  0
   -3.3675   -2.1159   -1.4367 C   0  0  0  0  0  0  0  0  0  0  0  0
   -2.7316   -1.0172   -0.7584 C   0  0  0  0  0  3  0  0  0  0  0  0
   -3.3693   -0.0000   -0.0003 C   0  0  0  0  0  3  0  0  0  0  0  0
   -2.7325    1.0177    0.7578 C   0  0  0  0  0  0  0  0  0  0  0  0
   -3.3694    2.1159    1.4360 C   0  0  0  0  0  0  0  0  0  0  0  0
   -2.3574    2.8808    2.0141 C   0  0  0  0  0  0  0  0  0  0  0  0
   -1.1340    2.2387    1.6720 C   0  0  0  0  0  3  0  0  0  0  0  0
   -4.8617   -0.0007   -0.0002 C   0  0  0  0  0  0  0  0  0  0  0  0
   -5.5804   -0.1487    1.2063 C   0  0  0  0  0  0  0  0  0  0  0  0
   -6.9824   -0.1550    1.2042 C   0  0  0  0  0  0  0  0  0  0  0  0
   -7.6877   -0.0020   -0.0001 C   0  0  0  0  0  0  0  0  0  0  0  0
   -6.9826    0.1516   -1.2045 C   0  0  0  0  0  0  0  0  0  0  0  0
   -5.5806    0.1466   -1.2067 C   0  0  0  0  0  0  0  0  0  0  0  0
   -0.1085   -2.5411   -1.9339 H   0  0  0  0  0  0  0  0  0  0  0  0
   -2.4640   -3.7959   -2.6068 H   0  0  0  0  0  0  0  0  0  0  0  0
   -4.4450   -2.3103   -1.4611 H   0  0  0  0  0  0  0  0  0  0  0  0
   -4.4470    2.3093    1.4605 H   0  0  0  0  0  0  0  0  0  0  0  0
   -2.4673    3.7968    2.6059 H   0  0  0  0  0  0  0  0  0  0  0  0
   -0.1107    2.5441    1.9330 H   0  0  0  0  0  0  0  0  0  0  0  0
   -5.0249   -0.2743    2.1474 H   0  0  0  0  0  0  0  0  0  0  0  0
   -7.5281   -0.2832    2.1513 H   0  0  0  0  0  0  0  0  0  0  0  0
   -8.7883   -0.0025   -0.0001 H   0  0  0  0  0  0  0  0  0  0  0  0
   -7.5286    0.2793   -2.1516 H   0  0  0  0  0  0  0  0  0  0  0  0
   -5.0254    0.2727   -2.1478 H   0  0  0  0  0  0  0  0  0  0  0  0
  1  6  1  0  0  0  0
  2 11  1  0  0  0  0
  3  1  2  0  0  0  0
  4  3  1  0  0  0  0
  4  5  2  0  0  0  0
  5  6  1  0  0  0  0
  6  7  1  0  0  0  0
  7 12  1  0  0  0  0
  7  8  1  0  0  0  0
  8  2  2  0  0  0  0
  8  9  1  0  0  0  0
  9 21  1  0  0  0  0
  9 10  2  0  0  0  0
 10 22  1  0  0  0  0
 11 23  1  0  0  0  0
 11 10  1  0  0  0  0
 12 13  1  0  0  0  0
 13 24  1  0  0  0  0
 14 13  2  0  0  0  0
 14 25  1  0  0  0  0
 15 26  1  0  0  0  0
 15 14  1  0  0  0  0
 16 15  2  0  0  0  0
 17 16  1  0  0  0  0
 17 12  2  0  0  0  0
 18  3  1  0  0  0  0
 19  4  1  0  0  0  0
 20  5  1  0  0  0  0
 27 16  1  0  0  0  0
 28 17  1  0  0  0  0
M  END
