1,2
q = 0.0, confidence = 0.96

 10  9  0  0  0  0  0  0  0  0999 V2000
    0.4225   -1.3726   -1.2416 N   0  0  0  0  0  0  0  0  0  0  0  0
    0.5835   -1.0165    1.2948 N   0  0  0  0  0  2  0  0  0  0  0  0
    1.5742   -2.0496   -0.5924 C   0  0  0  0  0  0  0  0  0  0  0  0
    1.4363   -1.8921    0.8834 C   0  0  0  0  0  3  0  0  0  0  0  0
   -0.3874   -2.0228   -1.3698 H   0  0  0  0  0  0  0  0  0  0  0  0
    0.7043   -0.9918   -2.1552 H   0  0  0  0  0  0  0  0  0  0  0  0
    0.5036   -0.9014    2.3160 H   0  0  0  0  0  0  0  0  0  0  0  0
    1.6604   -3.1176   -0.8862 H   0  0  0  0  0  0  0  0  0  0  0  0
    2.5276   -1.5540   -0.8872 H   0  0  0  0  0  0  0  0  0  0  0  0
    2.0615   -2.4809    1.5797 H   0  0  0  0  0  0  0  0  0  0  0  0
  1  3  1  0  0  0  0
  2  7  1  0  0  0  0
  3  4  1  0  0  0  0
  4  2  1  0  0  0  0
  4 10  1  0  0  0  0
  5  1  1  0  0  0  0
  6  1  1  0  0  0  0
  8  3  1  0  0  0  0
  9  3  1  0  0  0  0
M  END
