3,4
q = 0.0, confidence = 0.992

 58 59  0  0  1  0  0  0  0  0999 V2000
    4.2644   -0.6801    1.2335 O   0  0  0  0  0  0  0  0  0  0  0  0
   -4.2647   -0.6802   -1.2323 O   0  0  0  0  0  0  0  0  0  0  0  0
    1.3113    1.0002    0.1300 N   0  0  0  0  0  2  0  0  0  0  0  0
   -1.3113    1.0003   -0.1298 N   0  0  0  0  0  2  0  0  0  0  0  0
    2.6396    0.8668    0.3336 C   0  0  0  0  0  0  0  0  0  0  0  0
    3.4559    1.9883    0.5637 C   0  0  0  0  0  0  0  0  0  0  0  0
    4.5273    1.8337    0.7512 H   0  0  0  0  0  0  0  0  0  0  0  0
    2.8734    3.2627    0.5657 C   0  0  0  0  0  0  0  0  0  0  0  0
    3.4879    4.1570    0.7482 H   0  0  0  0  0  0  0  0  0  0  0  0
    1.4958    3.3908    0.3394 C   0  0  0  0  0  0  0  0  0  0  0  0
    1.0192    4.3805    0.3540 H   0  0  0  0  0  0  0  0  0  0  0  0
    0.7341    2.2294    0.1205 C   0  0  0  0  0  0  0  0  0  0  0  0
   -0.7339    2.2294   -0.1211 C   0  0  0  0  0  0  0  0  0  0  0  0
   -1.4954    3.3908   -0.3410 C   0  0  0  0  0  0  0  0  0  0  0  0
   -1.0187    4.3804   -0.3561 H   0  0  0  0  0  0  0  0  0  0  0  0
   -2.8729    3.2627   -0.5678 C   0  0  0  0  0  0  0  0  0  0  0  0
   -3.4872    4.1569   -0.7512 H   0  0  0  0  0  0  0  0  0  0  0  0
   -3.4556    1.9883   -0.5651 C   0  0  0  0  0  0  0  0  0  0  0  0
   -4.5269    1.8337   -0.7529 H   0  0  0  0  0  0  0  0  0  0  0  0
   -2.6394    0.8668   -0.3338 C   0  0  0  0  0  0  0  0  0  0  0  0
    3.1947   -0.5477    0.3098 C   0  0  1  0  0  0  0  0  0  0  0  0
    2.3443   -1.2205    0.5873 H   0  0  0  0  0  0  0  0  0  0  0  0
    3.8320   -0.7897    2.5745 C   0  0  0  0  0  0  0  0  0  0  0  0
    4.7323   -0.9375    3.2020 H   0  0  0  0  0  0  0  0  0  0  0  0
    3.1451   -1.6568    2.7139 H   0  0  0  0  0  0  0  0  0  0  0  0
    3.3025    0.1282    2.9268 H   0  0  0  0  0  0  0  0  0  0  0  0
    3.6954   -1.0263   -1.0929 C   0  0  0  0  0  0  0  0  0  0  0  0
    2.6004   -0.8144   -2.1520 C   0  0  0  0  0  0  0  0  0  0  0  0
    2.9362   -1.2391   -3.1202 H   0  0  0  0  0  0  0  0  0  0  0  0
    2.3784    0.2594   -2.3178 H   0  0  0  0  0  0  0  0  0  0  0  0
    1.6609   -1.3295   -1.8600 H   0  0  0  0  0  0  0  0  0  0  0  0
    3.9819   -2.5347   -0.9643 C   0  0  0  0  0  0  0  0  0  0  0  0
    4.3720   -2.9365   -1.9216 H   0  0  0  0  0  0  0  0  0  0  0  0
    3.0504   -3.0811   -0.7106 H   0  0  0  0  0  0  0  0  0  0  0  0
    4.7318   -2.7249   -0.1723 H   0  0  0  0  0  0  0  0  0  0  0  0
    4.9729   -0.2707   -1.4936 C   0  0  0  0  0  0  0  0  0  0  0  0
    5.3601   -0.6651   -2.4551 H   0  0  0  0  0  0  0  0  0  0  0  0
    5.7625   -0.3903   -0.7264 H   0  0  0  0  0  0  0  0  0  0  0  0
    4.7818    0.8135   -1.6338 H   0  0  0  0  0  0  0  0  0  0  0  0
   -3.1948   -0.5474   -0.3089 C   0  0  1  0  0  0  0  0  0  0  0  0
   -2.3447   -1.2208   -0.5861 H   0  0  0  0  0  0  0  0  0  0  0  0
   -3.8326   -0.7916   -2.5731 C   0  0  0  0  0  0  0  0  0  0  0  0
   -4.7330   -0.9397   -3.2004 H   0  0  0  0  0  0  0  0  0  0  0  0
   -3.1461   -1.6592   -2.7115 H   0  0  0  0  0  0  0  0  0  0  0  0
   -3.3026    0.1256   -2.9266 H   0  0  0  0  0  0  0  0  0  0  0  0
   -3.6953   -1.0249    1.0943 C   0  0  0  0  0  0  0  0  0  0  0  0
   -2.5997   -0.8133    2.1529 C   0  0  0  0  0  0  0  0  0  0  0  0
   -2.3770    0.2605    2.3181 H   0  0  0  0  0  0  0  0  0  0  0  0
   -1.6607   -1.3290    1.8606 H   0  0  0  0  0  0  0  0  0  0  0  0
   -2.9353   -1.2374    3.1213 H   0  0  0  0  0  0  0  0  0  0  0  0
   -4.9722   -0.2683    1.4951 C   0  0  0  0  0  0  0  0  0  0  0  0
   -4.7802    0.8159    1.6347 H   0  0  0  0  0  0  0  0  0  0  0  0
   -5.3592   -0.6619    2.4570 H   0  0  0  0  0  0  0  0  0  0  0  0
   -5.7621   -0.3877    0.7283 H   0  0  0  0  0  0  0  0  0  0  0  0
   -3.9829   -2.5332    0.9667 C   0  0  0  0  0  0  0  0  0  0  0  0
   -4.3727   -2.9343    1.9244 H   0  0  0  0  0  0  0  0  0  0  0  0
   -3.0520   -3.0803    0.7125 H   0  0  0  0  0  0  0  0  0  0  0  0
   -4.7335   -2.7232    0.1753 H   0  0  0  0  0  0  0  0  0  0  0  0
  1 23  1  0  0  0  0
  2 40  1  0  0  0  0
  3  5  1  0  0  0  0
  4 13  1  0  0  0  0
  5  6  2  0  0  0  0
  6  8  1  0  0  0  0
  6  7  1  0  0  0  0
  8  9  1  0  0  0  0
 10 11  1  0  0  0  0
 10  8  2  0  0  0  0
 12  3  1  0  0  0  0
 12 10  1  0  0  0  0
 13 12  2  0  0  0  0
 14 13  1  0  0  0  0
 15 14  1  0  0  0  0
 16 18  1  0  0  0  0
 16 14  2  0  0  0  0
 17 16  1  0  0  0  0
 18 20  2  0  0  0  0
 19 18  1  0  0  0  0
 20 40  1  0  0  0  0
 20  4  1  0  0  0  0
 21  5  1  0  0  0  0
 21 22  1  1  0  0  0
 21  1  1  0  0  0  0
 23 25  1  0  0  0  0
 23 26  1  0  0  0  0
 23 24  1  0  0  0  0
 27 32  1  0  0  0  0
 27 21  1  0  0  0  0
 28 31  1  0  0  0  0
 28 27  1  0  0  0  0
 29 28  1  0  0  0  0
 30 28  1  0  0  0  0
 32 34  1  0  0  0  0
 32 35  1  0  0  0  0
 33 32  1  0  0  0  0
 36 27  1  0  0  0  0
 36 38  1  0  0  0  0
 37 36  1  0  0  0  0
 39 36  1  0  0  0  0
 40 41  1  6  0  0  0
 40 46  1  0  0  0  0
 42  2  1  0  0  0  0
 43 42  1  0  0  0  0
 44 42  1  0  0  0  0
 45 42  1  0  0  0  0
 46 51  1  0  0  0  0
 46 47  1  0  0  0  0
 47 48  1  0  0  0  0
 47 50  1  0  0  0  0
 49 47  1  0  0  0  0
 51 52  1  0  0  0  0
 51 53  1  0  0  0  0
 54 51  1  0  0  0  0
 55 46  1  0  0  0  0
 55 56  1  0  0  0  0
 57 55  1  0  0  0  0
 58 55  1  0  0  0  0
M  END
