3,13
q = 0.0, confidence = 0.992

 51 52  0  0  0  0  0  0  0  0999 V2000
   -3.2975   -1.0809   -1.4765 Si  0  0  0  0  0  0  0  0  0  0  0  0
   -1.0765   -1.2983    0.7840 Si  0  0  0  0  0  0  0  0  0  0  0  0
    2.0300    1.6801   -0.5095 N   0  0  0  0  0  2  0  0  0  0  0  0
    0.7751    2.1509   -0.2903 C   0  0  0  0  0  0  0  0  0  0  0  0
    2.9717    2.5052   -1.0005 C   0  0  0  0  0  0  0  0  0  0  0  0
    3.9670    2.0567   -1.1467 H   0  0  0  0  0  0  0  0  0  0  0  0
    0.4410    3.4875   -0.5724 C   0  0  0  0  0  0  0  0  0  0  0  0
   -0.5852    3.8424   -0.4129 H   0  0  0  0  0  0  0  0  0  0  0  0
    1.4216    4.3493   -1.0801 C   0  0  0  0  0  0  0  0  0  0  0  0
    1.1761    5.3973   -1.3074 H   0  0  0  0  0  0  0  0  0  0  0  0
    2.7109    3.8502   -1.2986 C   0  0  0  0  0  0  0  0  0  0  0  0
    3.5147    4.4842   -1.6982 H   0  0  0  0  0  0  0  0  0  0  0  0
    0.1942   -0.1061    0.2718 N   0  0  0  0  0  2  0  0  0  0  0  0
   -0.2112    1.1473    0.2033 C   0  0  0  0  0  0  0  0  0  0  0  0
   -2.6682    0.7890    0.5362 C   0  0  0  0  0  0  0  0  0  0  0  0
   -1.5399    1.5895    0.5740 C   0  0  0  0  0  0  0  0  0  0  0  0
   -1.6487    2.6292    0.9079 H   0  0  0  0  0  0  0  0  0  0  0  0
   -3.9995    1.3453    1.1023 C   0  0  0  0  0  0  0  0  0  0  0  0
   -5.1642    0.3511    0.9725 C   0  0  0  0  0  0  0  0  0  0  0  0
   -5.4893    0.2086   -0.0737 H   0  0  0  0  0  0  0  0  0  0  0  0
   -6.0375    0.7349    1.5359 H   0  0  0  0  0  0  0  0  0  0  0  0
   -4.8924   -0.6383    1.3866 H   0  0  0  0  0  0  0  0  0  0  0  0
   -4.3841    2.6947    0.4615 C   0  0  0  0  0  0  0  0  0  0  0  0
   -4.5413    2.5992   -0.6298 H   0  0  0  0  0  0  0  0  0  0  0  0
   -3.6074    3.4672    0.6266 H   0  0  0  0  0  0  0  0  0  0  0  0
   -5.3242    3.0724    0.9124 H   0  0  0  0  0  0  0  0  0  0  0  0
   -3.7538    1.5617    2.6208 C   0  0  0  0  0  0  0  0  0  0  0  0
   -4.6824    1.9369    3.0982 H   0  0  0  0  0  0  0  0  0  0  0  0
   -2.9479    2.2971    2.8093 H   0  0  0  0  0  0  0  0  0  0  0  0
   -3.4731    0.6124    3.1185 H   0  0  0  0  0  0  0  0  0  0  0  0
   -2.5644   -0.5407    0.1082 N   0  0  0  0  0  0  0  0  0  0  0  0
   -1.0958   -1.2704    2.6554 C   0  0  0  0  0  0  0  0  0  0  0  0
   -1.1964   -0.2439    3.0556 H   0  0  0  0  0  0  0  0  0  0  0  0
   -0.1277   -1.6789    3.0110 H   0  0  0  0  0  0  0  0  0  0  0  0
   -1.9152   -1.9015    3.0560 H   0  0  0  0  0  0  0  0  0  0  0  0
   -0.8582   -3.0285    0.1106 C   0  0  0  0  0  0  0  0  0  0  0  0
   -1.8436   -3.4968   -0.0837 H   0  0  0  0  0  0  0  0  0  0  0  0
   -0.3230   -3.6327    0.8666 H   0  0  0  0  0  0  0  0  0  0  0  0
   -0.2552   -3.0377   -0.8157 H   0  0  0  0  0  0  0  0  0  0  0  0
   -4.0210    0.4253   -2.3618 C   0  0  0  0  0  0  0  0  0  0  0  0
   -4.9380    0.8475   -1.9115 H   0  0  0  0  0  0  0  0  0  0  0  0
   -4.2708    0.1166   -3.3978 H   0  0  0  0  0  0  0  0  0  0  0  0
   -3.2613    1.2309   -2.4308 H   0  0  0  0  0  0  0  0  0  0  0  0
   -4.5776   -2.4387   -1.2015 C   0  0  0  0  0  0  0  0  0  0  0  0
   -4.1316   -3.2920   -0.6511 H   0  0  0  0  0  0  0  0  0  0  0  0
   -4.9245   -2.8225   -2.1835 H   0  0  0  0  0  0  0  0  0  0  0  0
   -5.4624   -2.0930   -0.6338 H   0  0  0  0  0  0  0  0  0  0  0  0
   -1.9486   -1.7262   -2.6308 C   0  0  0  0  0  0  0  0  0  0  0  0
   -0.9862   -1.1831   -2.5324 H   0  0  0  0  0  0  0  0  0  0  0  0
   -2.3081   -1.5906   -3.6723 H   0  0  0  0  0  0  0  0  0  0  0  0
   -1.7419   -2.8037   -2.4920 H   0  0  0  0  0  0  0  0  0  0  0  0
  1 44  1  0  0  0  0
  1 31  1  0  0  0  0
  2 32  1  0  0  0  0
  3  4  1  0  0  0  0
  4 14  2  0  0  0  0
  5  3  1  0  0  0  0
  6  5  1  0  0  0  0
  7  8  1  0  0  0  0
  7  4  1  0  0  0  0
  9  7  2  0  0  0  0
 10  9  1  0  0  0  0
 11  9  1  0  0  0  0
 11  5  2  0  0  0  0
 12 11  1  0  0  0  0
 13  2  1  0  0  0  0
 14 13  1  0  0  0  0
 14 16  1  0  0  0  0
 15 16  2  0  0  0  0
 15 18  1  0  0  0  0
 16 17  1  0  0  0  0
 18 27  1  0  0  0  0
 19 18  1  0  0  0  0
 19 22  1  0  0  0  0
 19 21  1  0  0  0  0
 20 19  1  0  0  0  0
 23 25  1  0  0  0  0
 23 26  1  0  0  0  0
 23 18  1  0  0  0  0
 24 23  1  0  0  0  0
 27 29  1  0  0  0  0
 27 28  1  0  0  0  0
 27 30  1  0  0  0  0
 31 15  1  0  0  0  0
 31  2  1  0  0  0  0
 32 34  1  0  0  0  0
 32 33  1  0  0  0  0
 32 35  1  0  0  0  0
 36  2  1  0  0  0  0
 36 38  1  0  0  0  0
 37 36  1  0  0  0  0
 39 36  1  0  0  0  0
 40 41  1  0  0  0  0
 40  1  1  0  0  0  0
 42 40  1  0  0  0  0
 43 40  1  0  0  0  0
 44 45  1  0  0  0  0
 44 47  1  0  0  0  0
 46 44  1  0  0  0  0
 48 49  1  0  0  0  0
 48 51  1  0  0  0  0
 48  1  1  0  0  0  0
 50 48  1  0  0  0  0
M  END
