5,21
q = -1.0

 40 43  0  0  0  0  0  0  0  0999 V2000
    3.8640   -2.4699   -0.7424 S   0  0  0  0  0  0  0  0  0  0  0  0
    1.0170   -2.7345   -0.4770 N   0  0  0  0  0  0  0  0  0  0  0  0
   -4.4003    0.7262   -3.2050 C   0  0  0  0  0  0  0  0  0  0  0  0
   -5.2163    1.2422   -3.7325 H   0  0  0  0  0  0  0  0  0  0  0  0
    1.3101   -1.4696   -0.5641 N   0  0  0  0  0  2  0  0  0  0  0  0
   -0.2526   -3.1687   -0.4953 C   0  0  0  0  0  0  0  0  0  0  0  0
    6.4681   -1.3640   -1.1051 C   0  0  0  0  0  0  0  0  0  0  0  0
    6.9518   -2.3447   -0.9880 H   0  0  0  0  0  0  0  0  0  0  0  0
   -2.1136    0.6987   -2.3797 C   0  0  0  0  0  0  0  0  0  0  0  0
   -1.1251    1.1687   -2.2664 H   0  0  0  0  0  0  0  0  0  0  0  0
    3.0660    0.0322   -1.0702 N   0  0  0  0  0  0  0  0  0  0  0  0
    2.6332   -1.1780   -0.8201 C   0  0  0  0  0  0  0  0  0  0  0  0
    7.2325   -0.2091   -1.3285 C   0  0  0  0  0  0  0  0  0  0  0  0
    8.3281   -0.2920   -1.3877 H   0  0  0  0  0  0  0  0  0  0  0  0
   -1.3057   -2.4490   -0.9762 N   0  0  0  0  0  2  0  0  0  0  0  0
    5.0742   -1.2308   -1.0284 C   0  0  0  0  0  0  0  0  0  0  0  0
   -2.0072   -6.5036   -0.0091 C   0  0  0  0  0  0  0  0  0  0  0  0
   -3.0144   -6.9300   -0.1335 H   0  0  0  0  0  0  0  0  0  0  0  0
   -0.9572   -7.3069    0.4647 C   0  0  0  0  0  0  0  0  0  0  0  0
   -1.1370   -8.3631    0.7163 H   0  0  0  0  0  0  0  0  0  0  0  0
   -1.2870   -1.1750   -1.0728 N   0  0  0  0  0  2  0  0  0  0  0  0
   -4.6116   -0.5535   -2.6602 C   0  0  0  0  0  0  0  0  0  0  0  0
   -5.5969   -1.0349   -2.7505 H   0  0  0  0  0  0  0  0  0  0  0  0
   -3.1472    1.3449   -3.0682 C   0  0  0  0  0  0  0  0  0  0  0  0
   -2.9705    2.3416   -3.4989 H   0  0  0  0  0  0  0  0  0  0  0  0
   -0.4963   -4.5926   -0.1765 C   0  0  0  0  0  0  0  0  0  0  0  0
    6.6183    1.0546   -1.4787 C   0  0  0  0  0  0  0  0  0  0  0  0
    7.2442    1.9424   -1.6538 H   0  0  0  0  0  0  0  0  0  0  0  0
   -2.3334   -0.5783   -1.8233 C   0  0  0  0  0  0  0  0  0  0  0  0
   -3.5851   -1.2126   -1.9786 C   0  0  0  0  0  0  0  0  0  0  0  0
   -3.7401   -2.1983   -1.5214 H   0  0  0  0  0  0  0  0  0  0  0  0
    5.2288    1.1906   -1.4109 C   0  0  0  0  0  0  0  0  0  0  0  0
    4.7332    2.1652   -1.5271 H   0  0  0  0  0  0  0  0  0  0  0  0
    0.3236   -6.7502    0.6194 C   0  0  0  0  0  0  0  0  0  0  0  0
    1.1525   -7.3709    0.9926 H   0  0  0  0  0  0  0  0  0  0  0  0
    0.5540   -5.4055    0.3054 C   0  0  0  0  0  0  0  0  0  0  0  0
    1.5531   -4.9633    0.4282 H   0  0  0  0  0  0  0  0  0  0  0  0
    4.4370    0.0442   -1.1823 C   0  0  0  0  0  0  0  0  0  0  0  0
   -1.7814   -5.1585   -0.3279 C   0  0  0  0  0  0  0  0  0  0  0  0
   -2.5986   -4.5279   -0.7052 H   0  0  0  0  0  0  0  0  0  0  0  0
  3 24  2  0  0  0  0
  3 22  1  0  0  0  0
  4  3  1  0  0  0  0
  5  2  1  0  0  0  0
  6  2  2  0  0  0  0
  6 26  1  0  0  0  0
  7 16  1  0  0  0  0
  7  8  1  0  0  0  0
  9 10  1  0  0  0  0
  9 29  2  0  0  0  0
 11 12  2  0  0  0  0
 12  1  1  0  0  0  0
 12  5  1  0  0  0  0
 13  7  2  0  0  0  0
 14 13  1  0  0  0  0
 15  6  1  0  0  0  0
 16  1  1  0  0  0  0
 17 19  1  0  0  0  0
 18 17  1  0  0  0  0
 19 34  2  0  0  0  0
 19 20  1  0  0  0  0
 21 15  1  0  0  0  0
 22 30  2  0  0  0  0
 23 22  1  0  0  0  0
 24  9  1  0  0  0  0
 25 24  1  0  0  0  0
 26 36  2  0  0  0  0
 27 32  2  0  0  0  0
 27 13  1  0  0  0  0
 28 27  1  0  0  0  0
 29 21  1  0  0  0  0
 30 29  1  0  0  0  0
 30 31  1  0  0  0  0
 32 38  1  0  0  0  0
 33 32  1  0  0  0  0
 34 35  1  0  0  0  0
 36 37  1  0  0  0  0
 36 34  1  0  0  0  0
 38 11  1  0  0  0  0
 38 16  2  0  0  0  0
 39 26  1  0  0  0  0
 39 17  2  0  0  0  0
 40 39  1  0  0  0  0
M  END
