2,3
q = -1.0

 19 18  0  0  0  0  0  0  0  0999 V2000
    1.5160    3.6477   -0.9263 O   0  0  0  0  0  0  0  0  0  0  0  0
    2.2396   -0.6698    0.0329 N   0  0  0  0  0  0  0  0  0  0  0  0
    0.3964    1.6927   -0.6350 N   0  0  0  0  0  2  0  0  0  0  0  0
   -0.3053    2.0630   -1.2879 H   0  0  0  0  0  0  0  0  0  0  0  0
    3.0399    0.5125   -0.4353 C   0  0  0  0  0  0  0  0  0  0  0  0
    2.8988    0.5746   -1.5325 H   0  0  0  0  0  0  0  0  0  0  0  0
    4.1066    0.2591   -0.2485 H   0  0  0  0  0  0  0  0  0  0  0  0
    2.6744    1.8460    0.2126 C   0  0  0  0  0  0  0  0  0  0  0  0
    3.5233    2.5479    0.1154 H   0  0  0  0  0  0  0  0  0  0  0  0
    2.4562    1.7249    1.2939 H   0  0  0  0  0  0  0  0  0  0  0  0
    1.4823    2.4947   -0.4852 C   0  0  0  0  0  0  0  0  0  0  0  0
    2.6677   -1.0643    1.4077 C   0  0  0  0  0  0  0  0  0  0  0  0
    2.0395   -1.9112    1.7361 H   0  0  0  0  0  0  0  0  0  0  0  0
    2.5230   -0.2280    2.1090 H   0  0  0  0  0  0  0  0  0  0  0  0
    3.7362   -1.3616    1.3674 H   0  0  0  0  0  0  0  0  0  0  0  0
    2.5330   -1.8245   -0.8663 C   0  0  0  0  0  0  0  0  0  0  0  0
    2.2370   -1.5740   -1.8981 H   0  0  0  0  0  0  0  0  0  0  0  0
    1.9415   -2.6918   -0.5230 H   0  0  0  0  0  0  0  0  0  0  0  0
    3.6192   -2.0450   -0.8107 H   0  0  0  0  0  0  0  0  0  0  0  0
  1 11  2  0  0  0  0
  2 12  1  0  0  0  0
  3 11  1  0  0  0  0
  4  3  1  0  0  0  0
  5  7  1  0  0  0  0
  5  2  1  0  0  0  0
  5  8  1  0  0  0  0
  6  5  1  0  0  0  0
  8 10  1  0  0  0  0
  9  8  1  0  0  0  0
 11  8  1  0  0  0  0
 12 13  1  0  0  0  0
 12 14  1  0  0  0  0
 15 12  1  0  0  0  0
 16 19  1  0  0  0  0
 16 18  1  0  0  0  0
 16  2  1  0  0  0  0
 17 16  1  0  0  0  0
M  END
