2,3
q = -2.0, confidence = 0.93

 27 28  0  0  0  0  0  0  0  0999 V2000
    5.9492    0.4609    0.2441 O   0  0  0  0  0  0  0  0  0  0  0  0
   -2.2925    1.2488   -0.8093 N   0  0  0  0  0  0  0  0  0  0  0  0
    0.4160    1.1241   -0.3563 N   0  0  0  0  0  2  0  0  0  0  0  0
   -3.6290    1.5341   -0.9971 C   0  0  0  0  0  0  0  0  0  0  0  0
   -4.3234    0.7637   -1.3482 H   0  0  0  0  0  0  0  0  0  0  0  0
   -3.8539    2.8819   -0.7289 C   0  0  0  0  0  0  0  0  0  0  0  0
   -4.8099    3.4103   -0.8294 H   0  0  0  0  0  0  0  0  0  0  0  0
   -2.5994    3.4500   -0.3352 C   0  0  0  0  0  0  0  0  0  0  0  0
   -2.4020    4.4944   -0.0642 H   0  0  0  0  0  0  0  0  0  0  0  0
   -1.6590    2.4275   -0.3984 C   0  0  0  0  0  3  0  0  0  0  0  0
   -0.1813    2.4318   -0.0939 C   0  0  0  0  0  0  0  0  0  0  0  0
    0.3371    3.2028   -0.7126 H   0  0  0  0  0  0  0  0  0  0  0  0
   -0.0206    2.7399    0.9695 H   0  0  0  0  0  0  0  0  0  0  0  0
    1.7987    0.9866   -0.2304 C   0  0  0  0  0  0  0  0  0  0  0  0
    2.4340   -0.1517   -0.7839 C   0  0  0  0  0  0  0  0  0  0  0  0
    1.8266   -0.8631   -1.3626 H   0  0  0  0  0  0  0  0  0  0  0  0
    3.8098   -0.3668   -0.6410 C   0  0  0  0  0  0  0  0  0  0  0  0
    4.2553   -1.2640   -1.0915 H   0  0  0  0  0  0  0  0  0  0  0  0
    4.6049    0.5731    0.0492 C   0  0  0  0  0  0  0  0  0  0  0  0
    3.9908    1.7289    0.5767 C   0  0  0  0  0  0  0  0  0  0  0  0
    4.6238    2.4606    1.0997 H   0  0  0  0  0  0  0  0  0  0  0  0
    2.6173    1.9349    0.4407 C   0  0  0  0  0  0  0  0  0  0  0  0
    2.1741    2.8410    0.8756 H   0  0  0  0  0  0  0  0  0  0  0  0
    6.6071   -0.6756   -0.2788 C   0  0  0  0  0  0  0  0  0  0  0  0
    7.6747   -0.5735   -0.0087 H   0  0  0  0  0  0  0  0  0  0  0  0
    6.5199   -0.7347   -1.3874 H   0  0  0  0  0  0  0  0  0  0  0  0
    6.2139   -1.6223    0.1571 H   0  0  0  0  0  0  0  0  0  0  0  0
  2 10  1  0  0  0  0
  3 14  1  0  0  0  0
  3 11  1  0  0  0  0
  4  2  2  0  0  0  0
  4  6  1  0  0  0  0
  5  4  1  0  0  0  0
  6  8  2  0  0  0  0
  7  6  1  0  0  0  0
  8  9  1  0  0  0  0
 10  8  1  0  0  0  0
 10 11  1  0  0  0  0
 11 13  1  0  0  0  0
 12 11  1  0  0  0  0
 14 22  1  0  0  0  0
 15 17  1  0  0  0  0
 15 14  2  0  0  0  0
 16 15  1  0  0  0  0
 17 19  2  0  0  0  0
 18 17  1  0  0  0  0
 19  1  1  0  0  0  0
 19 20  1  0  0  0  0
 20 21  1  0  0  0  0
 22 20  2  0  0  0  0
 22 23  1  0  0  0  0
 24 25  1  0  0  0  0
 24 27  1  0  0  0  0
 24  1  1  0  0  0  0
 26 24  1  0  0  0  0
M  END
