1,13
q = 0.0, confidence = 1.0

 36 39  0  0  0  0  0  0  0  0999 V2000
    0.9254    1.4466    0.7475 N   0  0  0  0  0  2  0  0  0  0  0  0
   -0.4073    1.5722    0.9300 C   0  0  0  0  0  0  0  0  0  0  0  0
   -0.6296    2.7163    1.6482 N   0  0  0  0  0  0  0  0  0  0  0  0
    0.5887    3.3062    1.9132 C   0  0  0  0  0  0  0  0  0  0  0  0
    0.6694    4.2349    2.4865 H   0  0  0  0  0  0  0  0  0  0  0  0
    1.5606    2.5119    1.3400 C   0  0  0  0  0  0  0  0  0  0  0  0
    2.6449    2.6467    1.2859 H   0  0  0  0  0  0  0  0  0  0  0  0
   -1.9202    3.2625    2.0656 C   0  0  0  0  0  0  0  0  0  0  0  0
   -1.7425    3.9827    2.8840 H   0  0  0  0  0  0  0  0  0  0  0  0
   -2.5753    2.4516    2.4303 H   0  0  0  0  0  0  0  0  0  0  0  0
   -2.4175    3.7616    1.2145 H   0  0  0  0  0  0  0  0  0  0  0  0
   -1.4764    0.7258    0.3677 C   0  0  0  0  0  0  0  0  0  0  0  0
    0.9254   -1.4465    0.7477 N   0  0  0  0  0  2  0  0  0  0  0  0
   -0.4073   -1.5722    0.9301 C   0  0  0  0  0  0  0  0  0  0  0  0
   -0.6297   -2.7163    1.6482 N   0  0  0  0  0  0  0  0  0  0  0  0
    1.5605   -2.5117    1.3403 C   0  0  0  0  0  0  0  0  0  0  0  0
    2.6449   -2.6465    1.2863 H   0  0  0  0  0  0  0  0  0  0  0  0
    0.5886   -3.3061    1.9134 C   0  0  0  0  0  0  0  0  0  0  0  0
    0.6694   -4.2348    2.4866 H   0  0  0  0  0  0  0  0  0  0  0  0
   -1.9203   -3.2625    2.0656 C   0  0  0  0  0  0  0  0  0  0  0  0
   -1.7425   -3.9826    2.8840 H   0  0  0  0  0  0  0  0  0  0  0  0
   -2.4175   -3.7617    1.2144 H   0  0  0  0  0  0  0  0  0  0  0  0
   -2.5754   -2.4517    2.4302 H   0  0  0  0  0  0  0  0  0  0  0  0
   -1.4764   -0.7257    0.3677 C   0  0  0  0  0  0  0  0  0  0  0  0
   -2.5146   -1.4023   -0.1153 N   0  0  0  0  0  0  0  0  0  0  0  0
   -2.5146    1.4024   -0.1153 N   0  0  0  0  0  0  0  0  0  0  0  0
   -3.5660   -0.7229   -0.6385 C   0  0  0  0  0  0  0  0  0  0  0  0
   -4.6753   -1.4263   -1.1854 C   0  0  0  0  0  0  0  0  0  0  0  0
   -4.6525   -2.5253   -1.1811 H   0  0  0  0  0  0  0  0  0  0  0  0
   -5.7400   -0.7127   -1.7160 C   0  0  0  0  0  0  0  0  0  0  0  0
   -6.5979   -1.2498   -2.1472 H   0  0  0  0  0  0  0  0  0  0  0  0
   -5.7400    0.7128   -1.7160 C   0  0  0  0  0  0  0  0  0  0  0  0
   -6.5979    1.2498   -2.1472 H   0  0  0  0  0  0  0  0  0  0  0  0
   -4.6753    1.4263   -1.1854 C   0  0  0  0  0  0  0  0  0  0  0  0
   -4.6525    2.5254   -1.1812 H   0  0  0  0  0  0  0  0  0  0  0  0
   -3.5660    0.7229   -0.6386 C   0  0  0  0  0  0  0  0  0  0  0  0
  1  2  1  0  0  0  0
  1  6  1  0  0  0  0
  2  3  1  0  0  0  0
  3  4  1  0  0  0  0
  3  8  1  0  0  0  0
  4  5  1  0  0  0  0
  6  4  2  0  0  0  0
  7  6  1  0  0  0  0
  8 10  1  0  0  0  0
  8  9  1  0  0  0  0
 11  8  1  0  0  0  0
 12 24  1  0  0  0  0
 12  2  2  0  0  0  0
 13 14  1  0  0  0  0
 13 16  1  0  0  0  0
 14 15  1  0  0  0  0
 15 18  1  0  0  0  0
 15 20  1  0  0  0  0
 16 18  2  0  0  0  0
 17 16  1  0  0  0  0
 18 19  1  0  0  0  0
 20 23  1  0  0  0  0
 20 21  1  0  0  0  0
 22 20  1  0  0  0  0
 24 14  2  0  0  0  0
 25 24  1  0  0  0  0
 26 12  1  0  0  0  0
 27 25  2  0  0  0  0
 28 29  1  0  0  0  0
 28 27  1  0  0  0  0
 30 28  2  0  0  0  0
 31 30  1  0  0  0  0
 32 30  1  0  0  0  0
 32 34  2  0  0  0  0
 33 32  1  0  0  0  0
 34 35  1  0  0  0  0
 34 36  1  0  0  0  0
 36 27  1  0  0  0  0
 36 26  2  0  0  0  0
M  END
