4,5
q = -1.0

 26 27  0  0  1  0  0  0  0  0999 V2000
   -3.2179   -1.1811   -0.6120 S   0  0  0  0  0  0  0  0  0  0  0  0
   -2.8488   -0.9001   -2.0443 O   0  0  0  0  0  0  0  0  0  0  0  0
   -3.0751   -2.5787   -0.1370 O   0  0  0  0  0  0  0  0  0  0  0  0
   -2.2886   -0.1162    0.2411 N   0  0  0  0  0  2  0  0  0  0  0  0
   -1.0041    0.5300    1.9759 N   0  0  0  0  0  2  0  0  0  0  0  0
   -2.9498   -0.8057    2.4505 N   0  0  0  0  0  0  0  0  0  0  0  0
   -8.9010    0.5302    0.1077 N   0  0  0  0  0  0  0  0  0  0  0  0
   -2.1244   -0.1689    1.5822 C   0  0  1  0  0  3  0  0  0  0  0  0
   -0.7008    0.6010    3.2719 C   0  0  0  0  0  0  0  0  0  0  0  0
    0.2167    1.1617    3.5211 H   0  0  0  0  0  0  0  0  0  0  0  0
   -1.5051   -0.0282    4.2346 C   0  0  0  0  0  0  0  0  0  0  0  0
   -1.2697    0.0153    5.3061 H   0  0  0  0  0  0  0  0  0  0  0  0
   -2.6259   -0.7242    3.7444 C   0  0  0  0  0  0  0  0  0  0  0  0
   -3.3029   -1.2468    4.4460 H   0  0  0  0  0  0  0  0  0  0  0  0
   -4.9162   -0.6807   -0.4100 C   0  0  0  0  0  0  0  0  0  0  0  0
   -5.6717   -1.2149    0.6475 C   0  0  0  0  0  0  0  0  0  0  0  0
   -5.2028   -1.9402    1.3263 H   0  0  0  0  0  0  0  0  0  0  0  0
   -6.9918   -0.7992    0.8261 C   0  0  0  0  0  0  0  0  0  0  0  0
   -7.5895   -1.2171    1.6517 H   0  0  0  0  0  0  0  0  0  0  0  0
   -7.5802    0.1547   -0.0444 C   0  0  0  0  0  0  0  0  0  0  0  0
   -6.7954    0.6773   -1.1049 C   0  0  0  0  0  0  0  0  0  0  0  0
   -7.2388    1.4126   -1.7948 H   0  0  0  0  0  0  0  0  0  0  0  0
   -5.4747    0.2640   -1.2865 C   0  0  0  0  0  0  0  0  0  0  0  0
   -4.8654    0.6594   -2.1117 H   0  0  0  0  0  0  0  0  0  0  0  0
   -9.1988    1.3948   -0.3426 H   0  0  0  0  0  0  0  0  0  0  0  0
   -9.3380    0.3556    1.0119 H   0  0  0  0  0  0  0  0  0  0  0  0
  1 15  1  0  0  0  0
  1  3  2  0  0  0  0
  1  4  1  0  0  0  0
  2  1  2  0  0  0  0
  5  9  1  0  0  0  0
  6 13  2  0  0  0  0
  7 26  1  0  0  0  0
  8  4  1  1  0  0  0
  8  5  1  0  0  0  0
  8  6  1  0  0  0  0
  9 10  1  0  0  0  0
  9 11  2  0  0  0  0
 11 12  1  0  0  0  0
 13 11  1  0  0  0  0
 13 14  1  0  0  0  0
 15 16  1  0  0  0  0
 16 18  2  0  0  0  0
 16 17  1  0  0  0  0
 18 19  1  0  0  0  0
 20  7  1  0  0  0  0
 20 18  1  0  0  0  0
 21 20  2  0  0  0  0
 22 21  1  0  0  0  0
 23 21  1  0  0  0  0
 23 15  2  0  0  0  0
 24 23  1  0  0  0  0
 25  7  1  0  0  0  0
M  END
