5,6
q = -1.0

 24 24  0  0  1  0  0  0  0  0999 V2000
   -3.0600   -2.8843    0.2015 F   0  0  0  0  0  0  0  0  0  0  0  0
   -4.5545   -2.0253   -1.8328 F   0  0  0  0  0  0  0  0  0  0  0  0
   -4.0082    0.3578   -3.1142 F   0  0  0  0  0  0  0  0  0  0  0  0
   -1.7797    1.7510   -2.2912 F   0  0  0  0  0  0  0  0  0  0  0  0
   -0.8499   -0.9783    1.1947 N   0  0  0  0  0  2  0  0  0  0  0  0
   -1.4464    0.3030   -0.5552 N   0  0  0  0  0  2  0  0  0  0  0  0
   -1.7354   -0.8281    0.1955 C   0  0  1  0  0  3  0  0  0  0  0  0
   -2.8005   -1.6577   -0.2968 C   0  0  0  0  0  0  0  0  0  0  0  0
   -3.5605   -1.2543   -1.3951 C   0  0  0  0  0  0  0  0  0  0  0  0
   -3.2629   -0.0565   -2.0818 C   0  0  0  0  0  0  0  0  0  0  0  0
   -2.1543    0.6496   -1.6192 C   0  0  0  0  0  0  0  0  0  0  0  0
   -1.0095   -1.8823    2.3608 C   0  0  0  0  0  0  0  0  0  0  0  0
   -2.4561   -1.8458    2.9033 C   0  0  0  0  0  0  0  0  0  0  0  0
   -0.5670   -3.3161    2.0034 C   0  0  0  0  0  0  0  0  0  0  0  0
   -0.1067   -1.3612    3.4984 C   0  0  0  0  0  0  0  0  0  0  0  0
   -2.5036   -2.4060    3.8584 H   0  0  0  0  0  0  0  0  0  0  0  0
   -2.7574   -0.7994    3.1138 H   0  0  0  0  0  0  0  0  0  0  0  0
   -3.1958   -2.2971    2.2216 H   0  0  0  0  0  0  0  0  0  0  0  0
   -1.1785   -3.7371    1.1841 H   0  0  0  0  0  0  0  0  0  0  0  0
    0.4952   -3.3066    1.6900 H   0  0  0  0  0  0  0  0  0  0  0  0
   -0.6617   -3.9846    2.8833 H   0  0  0  0  0  0  0  0  0  0  0  0
    0.9502   -1.3367    3.1828 H   0  0  0  0  0  0  0  0  0  0  0  0
   -0.4158   -0.3423    3.8037 H   0  0  0  0  0  0  0  0  0  0  0  0
   -0.2053   -2.0246    4.3803 H   0  0  0  0  0  0  0  0  0  0  0  0
  2  9  1  0  0  0  0
  3 10  1  0  0  0  0
  4 11  1  0  0  0  0
  5 12  1  0  0  0  0
  6  7  1  0  0  0  0
  7  5  1  6  0  0  0
  8  7  1  0  0  0  0
  8  1  1  0  0  0  0
  9  8  2  0  0  0  0
 10 11  2  0  0  0  0
 10  9  1  0  0  0  0
 11  6  1  0  0  0  0
 12 13  1  0  0  0  0
 12 15  1  0  0  0  0
 13 17  1  0  0  0  0
 13 16  1  0  0  0  0
 14 12  1  0  0  0  0
 14 21  1  0  0  0  0
 15 23  1  0  0  0  0
 15 24  1  0  0  0  0
 18 13  1  0  0  0  0
 19 14  1  0  0  0  0
 20 14  1  0  0  0  0
 22 15  1  0  0  0  0
M  END
