1,2
q = -1.0, confidence = 0.0

 49 50  0  0  1  0  0  0  0  0999 V2000
   -1.4011    0.6680    0.2840 N   0  0  0  0  0  2  0  0  0  0  0  0
    1.2305    0.9174    0.0350 N   0  0  0  0  0  2  0  0  0  0  0  0
   -1.7399    2.9567    0.8818 N   0  0  0  0  0  0  0  0  0  0  0  0
   -0.9634    1.8857    0.5335 C   0  0  1  0  0  3  0  0  0  0  0  0
    0.5317    2.1068    0.4353 C   0  0  0  0  0  0  0  0  0  0  0  0
    0.6916    2.9370   -0.3019 H   0  0  0  0  0  0  0  0  0  0  0  0
    0.8798    2.5414    1.4105 H   0  0  0  0  0  0  0  0  0  0  0  0
    2.5903    1.1221   -0.3208 C   0  0  0  0  0  0  0  0  0  0  0  0
    2.9786    0.9854   -1.6856 C   0  0  0  0  0  0  0  0  0  0  0  0
    4.3290    1.1542   -2.0397 C   0  0  0  0  0  0  0  0  0  0  0  0
    4.6211    1.0465   -3.0966 H   0  0  0  0  0  0  0  0  0  0  0  0
    5.2976    1.4655   -1.0745 C   0  0  0  0  0  0  0  0  0  0  0  0
    6.3506    1.5951   -1.3671 H   0  0  0  0  0  0  0  0  0  0  0  0
    4.9155    1.5987    0.2655 C   0  0  0  0  0  0  0  0  0  0  0  0
    5.6738    1.8216    1.0336 H   0  0  0  0  0  0  0  0  0  0  0  0
    3.5747    1.4286    0.6626 C   0  0  0  0  0  0  0  0  0  0  0  0
    3.2034    1.5162    2.1210 C   0  0  0  0  0  0  0  0  0  0  0  0
    2.4083    0.7839    2.3692 H   0  0  0  0  0  0  0  0  0  0  0  0
    2.8148    2.5208    2.3989 H   0  0  0  0  0  0  0  0  0  0  0  0
    4.0797    1.3202    2.7690 H   0  0  0  0  0  0  0  0  0  0  0  0
    1.9509    0.6504   -2.7356 C   0  0  0  0  0  0  0  0  0  0  0  0
    1.0487    1.2888   -2.6431 H   0  0  0  0  0  0  0  0  0  0  0  0
    1.6040   -0.4000   -2.6374 H   0  0  0  0  0  0  0  0  0  0  0  0
    2.3650    0.7692   -3.7555 H   0  0  0  0  0  0  0  0  0  0  0  0
   -2.7199    0.3944   -0.1647 C   0  0  0  0  0  0  0  0  0  0  0  0
   -3.1755    0.9976   -1.3729 C   0  0  0  0  0  0  0  0  0  0  0  0
   -4.4400    0.6344   -1.8760 C   0  0  0  0  0  0  0  0  0  0  0  0
   -4.7862    1.0947   -2.8150 H   0  0  0  0  0  0  0  0  0  0  0  0
   -5.2413   -0.3077   -1.2215 C   0  0  0  0  0  0  0  0  0  0  0  0
   -6.2214   -0.5874   -1.6360 H   0  0  0  0  0  0  0  0  0  0  0  0
   -4.7799   -0.8960   -0.0358 C   0  0  0  0  0  0  0  0  0  0  0  0
   -5.4044   -1.6336    0.4925 H   0  0  0  0  0  0  0  0  0  0  0  0
   -3.5301   -0.5580    0.5123 C   0  0  0  0  0  0  0  0  0  0  0  0
   -3.0839   -1.1517    1.8180 C   0  0  0  0  0  0  0  0  0  0  0  0
   -3.0177   -0.3762    2.6132 H   0  0  0  0  0  0  0  0  0  0  0  0
   -2.0635   -1.5888    1.7500 H   0  0  0  0  0  0  0  0  0  0  0  0
   -3.7886   -1.9304    2.1661 H   0  0  0  0  0  0  0  0  0  0  0  0
   -2.3233    1.9828   -2.1315 C   0  0  0  0  0  0  0  0  0  0  0  0
   -2.6789    2.0919   -3.1736 H   0  0  0  0  0  0  0  0  0  0  0  0
   -1.2613    1.6641   -2.1580 H   0  0  0  0  0  0  0  0  0  0  0  0
   -2.3361    2.9922   -1.6671 H   0  0  0  0  0  0  0  0  0  0  0  0
   -3.1027    2.7921    1.3785 C   0  0  0  0  0  0  0  0  0  0  0  0
   -3.3010    3.5766    2.1348 H   0  0  0  0  0  0  0  0  0  0  0  0
   -3.2161    1.8070    1.8651 H   0  0  0  0  0  0  0  0  0  0  0  0
   -3.8650    2.8637    0.5739 H   0  0  0  0  0  0  0  0  0  0  0  0
   -1.1814    4.3003    0.9687 C   0  0  0  0  0  0  0  0  0  0  0  0
   -2.0007    5.0383    0.8818 H   0  0  0  0  0  0  0  0  0  0  0  0
   -0.4695    4.4931    0.1444 H   0  0  0  0  0  0  0  0  0  0  0  0
   -0.6518    4.4774    1.9320 H   0  0  0  0  0  0  0  0  0  0  0  0
  2  5  1  0  0  0  0
  3 46  1  0  0  0  0
  3 42  1  0  0  0  0
  4  1  1  1  0  0  0
  4  3  1  0  0  0  0
  5  4  1  0  0  0  0
  5  7  1  0  0  0  0
  6  5  1  0  0  0  0
  8  2  1  0  0  0  0
  8 16  1  0  0  0  0
  9  8  2  0  0  0  0
 10  9  1  0  0  0  0
 10 12  2  0  0  0  0
 11 10  1  0  0  0  0
 12 14  1  0  0  0  0
 13 12  1  0  0  0  0
 14 16  2  0  0  0  0
 14 15  1  0  0  0  0
 16 17  1  0  0  0  0
 17 18  1  0  0  0  0
 17 19  1  0  0  0  0
 17 20  1  0  0  0  0
 21 22  1  0  0  0  0
 21 23  1  0  0  0  0
 21  9  1  0  0  0  0
 24 21  1  0  0  0  0
 25  1  1  0  0  0  0
 25 33  1  0  0  0  0
 26 25  2  0  0  0  0
 27 26  1  0  0  0  0
 27 29  2  0  0  0  0
 28 27  1  0  0  0  0
 29 31  1  0  0  0  0
 30 29  1  0  0  0  0
 31 32  1  0  0  0  0
 31 33  2  0  0  0  0
 33 34  1  0  0  0  0
 34 37  1  0  0  0  0
 34 35  1  0  0  0  0
 36 34  1  0  0  0  0
 38 41  1  0  0  0  0
 38 26  1  0  0  0  0
 39 38  1  0  0  0  0
 40 38  1  0  0  0  0
 42 44  1  0  0  0  0
 42 43  1  0  0  0  0
 45 42  1  0  0  0  0
 46 49  1  0  0  0  0
 47 46  1  0  0  0  0
 48 46  1  0  0  0  0
M  END
