1,3
q = -1.0, confidence = 0.016

 32 33  0  0  0  0  0  0  0  0999 V2000
   -0.8778    1.3111   -0.1306 N   0  0  0  0  0  2  0  0  0  0  0  0
    0.2619    1.9540   -0.0616 N   0  0  0  0  0  2  0  0  0  0  0  0
    1.1426    0.9841   -0.0220 N   0  0  0  0  0  2  0  0  0  0  0  0
   -2.3864    1.0923   -2.8578 O   0  0  0  0  0  0  0  0  0  0  0  0
   -1.5041    0.6521   -2.8276 H   0  0  0  0  0  0  0  0  0  0  0  0
   -2.0916    1.9699    0.0856 C   0  0  0  0  0  0  0  0  0  0  0  0
   -2.1790    2.9891    1.0606 C   0  0  0  0  0  0  0  0  0  0  0  0
   -1.2661    3.2776    1.6013 H   0  0  0  0  0  0  0  0  0  0  0  0
   -3.4087    3.6007    1.3326 C   0  0  0  0  0  0  0  0  0  0  0  0
   -3.4660    4.3961    2.0914 H   0  0  0  0  0  0  0  0  0  0  0  0
   -4.5642    3.1861    0.6511 C   0  0  0  0  0  0  0  0  0  0  0  0
   -5.5355    3.6559    0.8675 H   0  0  0  0  0  0  0  0  0  0  0  0
   -4.4696    2.1789   -0.3229 C   0  0  0  0  0  0  0  0  0  0  0  0
   -5.3667    1.8753   -0.8866 H   0  0  0  0  0  0  0  0  0  0  0  0
   -3.2477    1.5590   -0.6332 C   0  0  0  0  0  0  0  0  0  0  0  0
   -3.1372    0.5747   -1.7854 C   0  0  0  0  0  0  0  0  0  0  0  0
   -2.6945   -0.3809   -1.4184 H   0  0  0  0  0  0  0  0  0  0  0  0
   -4.1693    0.3392   -2.1348 H   0  0  0  0  0  0  0  0  0  0  0  0
    2.5131    1.2339   -0.0777 C   0  0  0  0  0  0  0  0  0  0  0  0
    3.3793    0.1733   -0.4137 C   0  0  0  0  0  0  0  0  0  0  0  0
    2.9396   -0.7963   -0.6882 H   0  0  0  0  0  0  0  0  0  0  0  0
    4.7638    0.3796   -0.4434 C   0  0  0  0  0  0  0  0  0  0  0  0
    5.4265   -0.4568   -0.7173 H   0  0  0  0  0  0  0  0  0  0  0  0
    5.3270    1.6367   -0.1474 C   0  0  0  0  0  0  0  0  0  0  0  0
    4.4421    2.6916    0.1731 C   0  0  0  0  0  0  0  0  0  0  0  0
    4.8538    3.6880    0.4021 H   0  0  0  0  0  0  0  0  0  0  0  0
    3.0584    2.5074    0.2107 C   0  0  0  0  0  0  0  0  0  0  0  0
    2.3805    3.3354    0.4588 H   0  0  0  0  0  0  0  0  0  0  0  0
    6.8172    1.8630   -0.1779 C   0  0  0  0  0  0  0  0  0  0  0  0
    7.1975    2.2035    0.8084 H   0  0  0  0  0  0  0  0  0  0  0  0
    7.0928    2.6479   -0.9134 H   0  0  0  0  0  0  0  0  0  0  0  0
    7.3647    0.9398   -0.4498 H   0  0  0  0  0  0  0  0  0  0  0  0
  1  2  1  0  0  0  0
  1  6  1  0  0  0  0
  2  3  1  0  0  0  0
  4  5  1  0  0  0  0
  4 16  1  0  0  0  0
  6  7  1  0  0  0  0
  7  9  2  0  0  0  0
  7  8  1  0  0  0  0
  9 10  1  0  0  0  0
 11 12  1  0  0  0  0
 11  9  1  0  0  0  0
 13 11  2  0  0  0  0
 14 13  1  0  0  0  0
 15 13  1  0  0  0  0
 15  6  2  0  0  0  0
 16 17  1  0  0  0  0
 16 15  1  0  0  0  0
 18 16  1  0  0  0  0
 19  3  1  0  0  0  0
 19 27  1  0  0  0  0
 20 19  2  0  0  0  0
 21 20  1  0  0  0  0
 22 20  1  0  0  0  0
 22 24  2  0  0  0  0
 23 22  1  0  0  0  0
 24 25  1  0  0  0  0
 25 27  2  0  0  0  0
 25 26  1  0  0  0  0
 27 28  1  0  0  0  0
 29 24  1  0  0  0  0
 29 30  1  0  0  0  0
 31 29  1  0  0  0  0
 32 29  1  0  0  0  0
M  END
