5,13
q = -1.0

 49 54  0  0  1  0  0  0  0  0999 V2000
    0.7568   -0.0890    0.0042 O   0  0  0  0  0  0  0  0  0  0  0  0
    1.1762   -1.3717    0.5872 B   0  0  2  0  0  0  0  0  0  0  0  0
    1.4246    1.0947    0.5544 B   0  0  1  0  0  0  0  0  0  0  0  0
    0.1236   -1.7660    1.6717 N   0  0  0  0  0  0  0  0  0  0  0  0
   -1.1365   -1.2886    1.5015 N   0  0  0  0  0  2  0  0  0  0  0  0
   -1.9067   -1.8499    2.4534 C   0  0  0  0  0  3  0  0  0  0  0  0
   -2.9682   -1.5881    2.5192 H   0  0  0  0  0  0  0  0  0  0  0  0
   -1.1305   -2.7192    3.2531 C   0  0  0  0  0  0  0  0  0  0  0  0
   -1.4591   -3.3181    4.1081 H   0  0  0  0  0  0  0  0  0  0  0  0
    0.1555   -2.6382    2.7147 C   0  0  0  0  0  0  0  0  0  0  0  0
    1.0850   -3.1458    2.9948 H   0  0  0  0  0  0  0  0  0  0  0  0
    0.5060    1.6902    1.6698 N   0  0  0  0  0  0  0  0  0  0  0  0
   -0.8277    1.4894    1.5202 N   0  0  0  0  0  2  0  0  0  0  0  0
   -1.4439    2.1423    2.5243 C   0  0  0  0  0  3  0  0  0  0  0  0
   -2.5345    2.0996    2.6128 H   0  0  0  0  0  0  0  0  0  0  0  0
   -0.4882    2.7901    3.3384 C   0  0  0  0  0  0  0  0  0  0  0  0
   -0.6669    3.3956    4.2322 H   0  0  0  0  0  0  0  0  0  0  0  0
    0.7417    2.4759    2.7547 C   0  0  0  0  0  0  0  0  0  0  0  0
    1.7627    2.7571    3.0354 H   0  0  0  0  0  0  0  0  0  0  0  0
    2.5268   -0.9305    1.2995 N   0  0  0  0  0  0  0  0  0  0  0  0
    2.6750    0.4094    1.2631 N   0  0  1  0  0  0  0  0  0  0  0  0
    3.8686    0.7370    1.7939 C   0  0  0  0  0  3  0  0  0  0  0  0
    4.1943    1.7824    1.8277 H   0  0  0  0  0  0  0  0  0  0  0  0
    4.5120   -0.4462    2.1984 C   0  0  0  0  0  0  0  0  0  0  0  0
    5.4994   -0.5425    2.6602 H   0  0  0  0  0  0  0  0  0  0  0  0
    3.6255   -1.4810    1.8529 C   0  0  0  0  0  0  0  0  0  0  0  0
    3.7187   -2.5687    1.9425 H   0  0  0  0  0  0  0  0  0  0  0  0
    1.4133   -2.5406   -0.4936 C   0  0  0  0  0  0  0  0  0  0  0  0
    2.4570   -2.4320   -1.4395 C   0  0  0  0  0  0  0  0  0  0  0  0
    3.1562   -1.5812   -1.3781 H   0  0  0  0  0  0  0  0  0  0  0  0
    2.6226   -3.3768   -2.4630 C   0  0  0  0  0  0  0  0  0  0  0  0
    3.4422   -3.2661   -3.1902 H   0  0  0  0  0  0  0  0  0  0  0  0
    1.7371   -4.4635   -2.5622 C   0  0  0  0  0  0  0  0  0  0  0  0
    1.8598   -5.2058   -3.3661 H   0  0  0  0  0  0  0  0  0  0  0  0
    0.6987   -4.5985   -1.6277 C   0  0  0  0  0  0  0  0  0  0  0  0
    0.0021   -5.4487   -1.6971 H   0  0  0  0  0  0  0  0  0  0  0  0
    0.5454   -3.6467   -0.6053 C   0  0  0  0  0  0  0  0  0  0  0  0
   -0.2787   -3.7609    0.1166 H   0  0  0  0  0  0  0  0  0  0  0  0
    1.8609    2.1769   -0.5526 C   0  0  0  0  0  0  0  0  0  0  0  0
    1.6433    3.5628   -0.4136 C   0  0  0  0  0  0  0  0  0  0  0  0
    1.1606    3.9463    0.5002 H   0  0  0  0  0  0  0  0  0  0  0  0
    2.0046    4.4660   -1.4279 C   0  0  0  0  0  0  0  0  0  0  0  0
    1.8159    5.5434   -1.2988 H   0  0  0  0  0  0  0  0  0  0  0  0
    2.5946    3.9944   -2.6104 C   0  0  0  0  0  0  0  0  0  0  0  0
    2.8733    4.6982   -3.4100 H   0  0  0  0  0  0  0  0  0  0  0  0
    2.8214    2.6164   -2.7706 C   0  0  0  0  0  0  0  0  0  0  0  0
    3.2769    2.2378   -3.6992 H   0  0  0  0  0  0  0  0  0  0  0  0
    2.4571    1.7246   -1.7514 C   0  0  0  0  0  0  0  0  0  0  0  0
    2.6143    0.6435   -1.8956 H   0  0  0  0  0  0  0  0  0  0  0  0
  1  3  1  0  0  0  0
  1  2  1  0  0  0  0
  2 28  1  6  0  0  0
  2 20  1  0  0  0  0
  2  4  1  0  0  0  0
  3 39  1  6  0  0  0
  3 21  1  0  0  0  0
  3 12  1  0  0  0  0
  4 10  1  0  0  0  0
  5  4  1  0  0  0  0
  5  6  1  0  0  0  0
  6  7  1  0  0  0  0
  6  8  1  0  0  0  0
  8  9  1  0  0  0  0
 10 11  1  0  0  0  0
 10  8  2  0  0  0  0
 12 18  1  0  0  0  0
 13 12  1  0  0  0  0
 13 14  1  0  0  0  0
 14 15  1  0  0  0  0
 14 16  1  0  0  0  0
 16 17  1  0  0  0  0
 18 19  1  0  0  0  0
 18 16  2  0  0  0  0
 20 26  1  0  0  0  0
 21 20  1  0  0  0  0
 21 22  1  6  0  0  0
 22 23  1  0  0  0  0
 22 24  1  0  0  0  0
 24 25  1  0  0  0  0
 26 27  1  0  0  0  0
 26 24  2  0  0  0  0
 29 30  1  0  0  0  0
 29 28  2  0  0  0  0
 31 29  1  0  0  0  0
 32 31  1  0  0  0  0
 33 31  2  0  0  0  0
 33 35  1  0  0  0  0
 34 33  1  0  0  0  0
 35 37  2  0  0  0  0
 36 35  1  0  0  0  0
 37 28  1  0  0  0  0
 37 38  1  0  0  0  0
 39 40  1  0  0  0  0
 40 41  1  0  0  0  0
 42 43  1  0  0  0  0
 42 40  2  0  0  0  0
 44 42  1  0  0  0  0
 45 44  1  0  0  0  0
 46 44  2  0  0  0  0
 46 48  1  0  0  0  0
 47 46  1  0  0  0  0
 48 39  2  0  0  0  0
 49 48  1  0  0  0  0
M  END
