8,16
q = -2.0, confidence = 0.95

 55 60  0  0  0  0  0  0  0  0999 V2000
    0.2683    0.0708   -0.3006 O   0  0  0  0  0  0  0  0  0  0  0  0
    2.5796    0.9370   -0.3385 O   0  0  0  0  0  0  0  0  0  0  0  0
    2.2236   -1.4049    0.0263 O   0  0  0  0  0  0  0  0  0  0  0  0
    0.7856   -1.3061    0.0403 B   0  0  1  0  0  0  0  0  0  0  0  0
    1.1847    1.2755   -0.2535 B   0  0  2  0  0  0  0  0  0  0  0  0
    3.0595   -0.3339   -0.1473 B   0  0  0  0  0  0  0  0  0  0  0  0
    0.3036   -1.5112    1.5466 N   0  0  0  0  0  0  0  0  0  0  0  0
   -0.8520   -0.9191    1.9068 N   0  0  0  0  0  2  0  0  0  0  0  0
   -1.1251   -1.2628    3.1853 C   0  0  0  0  0  3  0  0  0  0  0  0
   -2.0110   -0.8642    3.6920 H   0  0  0  0  0  0  0  0  0  0  0  0
   -0.1130   -2.1206    3.6545 C   0  0  0  0  0  0  0  0  0  0  0  0
   -0.0325   -2.5791    4.6446 H   0  0  0  0  0  0  0  0  0  0  0  0
    0.7760   -2.2474    2.5755 C   0  0  0  0  0  0  0  0  0  0  0  0
    1.7130   -2.8032    2.4618 H   0  0  0  0  0  0  0  0  0  0  0  0
    0.9021    1.8695    1.2000 N   0  0  0  0  0  0  0  0  0  0  0  0
   -0.3493    1.7300    1.6794 N   0  0  0  0  0  2  0  0  0  0  0  0
   -0.4151    2.3469    2.8803 C   0  0  0  0  0  3  0  0  0  0  0  0
   -1.3387    2.3230    3.4691 H   0  0  0  0  0  0  0  0  0  0  0  0
    0.8396    2.9155    3.1715 C   0  0  0  0  0  0  0  0  0  0  0  0
    1.1254    3.4797    4.0644 H   0  0  0  0  0  0  0  0  0  0  0  0
    1.6459    2.5842    2.0715 C   0  0  0  0  0  0  0  0  0  0  0  0
    2.6950    2.8000    1.8422 H   0  0  0  0  0  0  0  0  0  0  0  0
    0.0879   -2.4161   -0.9201 C   0  0  0  0  0  0  0  0  0  0  0  0
   -0.2427   -3.7142   -0.4778 C   0  0  0  0  0  0  0  0  0  0  0  0
   -0.0648   -3.9898    0.5749 H   0  0  0  0  0  0  0  0  0  0  0  0
   -0.8094   -4.6685   -1.3402 C   0  0  0  0  0  0  0  0  0  0  0  0
   -1.0602   -5.6725   -0.9625 H   0  0  0  0  0  0  0  0  0  0  0  0
   -1.0607   -4.3414   -2.6824 C   0  0  0  0  0  0  0  0  0  0  0  0
   -1.5084   -5.0836   -3.3614 H   0  0  0  0  0  0  0  0  0  0  0  0
   -0.7270   -3.0596   -3.1529 C   0  0  0  0  0  0  0  0  0  0  0  0
   -0.9091   -2.7959   -4.2070 H   0  0  0  0  0  0  0  0  0  0  0  0
   -0.1597   -2.1183   -2.2788 C   0  0  0  0  0  0  0  0  0  0  0  0
    0.0965   -1.1149   -2.6542 H   0  0  0  0  0  0  0  0  0  0  0  0
    0.7244    2.3457   -1.3845 C   0  0  0  0  0  0  0  0  0  0  0  0
    0.4689    3.7066   -1.1188 C   0  0  0  0  0  0  0  0  0  0  0  0
    0.6014    4.0909   -0.0936 H   0  0  0  0  0  0  0  0  0  0  0  0
    0.0368    4.5894   -2.1254 C   0  0  0  0  0  0  0  0  0  0  0  0
   -0.1550    5.6478   -1.8865 H   0  0  0  0  0  0  0  0  0  0  0  0
   -0.1504    4.1219   -3.4358 C   0  0  0  0  0  0  0  0  0  0  0  0
   -0.4934    4.8066   -4.2269 H   0  0  0  0  0  0  0  0  0  0  0  0
    0.1208    2.7743   -3.7321 C   0  0  0  0  0  0  0  0  0  0  0  0
   -0.0051    2.4016   -4.7611 H   0  0  0  0  0  0  0  0  0  0  0  0
    0.5567    1.9079   -2.7176 C   0  0  0  0  0  0  0  0  0  0  0  0
    0.7703    0.8553   -2.9634 H   0  0  0  0  0  0  0  0  0  0  0  0
    4.6190   -0.5655   -0.1237 C   0  0  0  0  0  0  0  0  0  0  0  0
    5.1618   -1.8564    0.0647 C   0  0  0  0  0  0  0  0  0  0  0  0
    4.4710   -2.7065    0.1816 H   0  0  0  0  0  0  0  0  0  0  0  0
    6.5486   -2.0643    0.0985 C   0  0  0  0  0  0  0  0  0  0  0  0
    6.9535   -3.0782    0.2449 H   0  0  0  0  0  0  0  0  0  0  0  0
    7.4239   -0.9760   -0.0577 C   0  0  0  0  0  0  0  0  0  0  0  0
    8.5135   -1.1357   -0.0326 H   0  0  0  0  0  0  0  0  0  0  0  0
    6.9054    0.3159   -0.2491 C   0  0  0  0  0  0  0  0  0  0  0  0
    7.5900    1.1696   -0.3754 H   0  0  0  0  0  0  0  0  0  0  0  0
    5.5171    0.5142   -0.2814 C   0  0  0  0  0  0  0  0  0  0  0  0
    5.1047    1.5240   -0.4360 H   0  0  0  0  0  0  0  0  0  0  0  0
  1  5  1  0  0  0  0
  1  4  1  0  0  0  0
  2  5  1  0  0  0  0
  2  6  1  0  0  0  0
  3  4  1  0  0  0  0
  4 23  1  6  0  0  0
  4  7  1  0  0  0  0
  5 34  1  6  0  0  0
  5 15  1  0  0  0  0
  6 45  1  0  0  0  0
  6  3  1  0  0  0  0
  7  8  1  0  0  0  0
  7 13  1  0  0  0  0
  8  9  1  0  0  0  0
  9 11  1  0  0  0  0
  9 10  1  0  0  0  0
 11 12  1  0  0  0  0
 13 11  2  0  0  0  0
 14 13  1  0  0  0  0
 15 16  1  0  0  0  0
 15 21  1  0  0  0  0
 16 17  1  0  0  0  0
 17 19  1  0  0  0  0
 17 18  1  0  0  0  0
 19 20  1  0  0  0  0
 21 19  2  0  0  0  0
 22 21  1  0  0  0  0
 23 24  1  0  0  0  0
 24 25  1  0  0  0  0
 26 27  1  0  0  0  0
 26 24  2  0  0  0  0
 28 26  1  0  0  0  0
 29 28  1  0  0  0  0
 30 28  2  0  0  0  0
 30 32  1  0  0  0  0
 31 30  1  0  0  0  0
 32 23  2  0  0  0  0
 33 32  1  0  0  0  0
 34 35  1  0  0  0  0
 35 36  1  0  0  0  0
 37 38  1  0  0  0  0
 37 35  2  0  0  0  0
 39 37  1  0  0  0  0
 40 39  1  0  0  0  0
 41 39  2  0  0  0  0
 41 43  1  0  0  0  0
 42 41  1  0  0  0  0
 43 34  2  0  0  0  0
 44 43  1  0  0  0  0
 45 46  1  0  0  0  0
 46 48  2  0  0  0  0
 46 47  1  0  0  0  0
 48 49  1  0  0  0  0
 50 51  1  0  0  0  0
 50 48  1  0  0  0  0
 52 50  2  0  0  0  0
 53 52  1  0  0  0  0
 54 52  1  0  0  0  0
 54 45  2  0  0  0  0
 55 54  1  0  0  0  0
M  END
