6,24
q = -1.0

 56 61  0  0  1  0  0  0  0  0999 V2000
    6.0164    4.6458   -1.8508 Cl  0  0  0  0  0  0  0  0  0  0  0  0
    6.0163   -4.6474   -1.8499 Cl  0  0  0  0  0  0  0  0  0  0  0  0
   -9.6885   -0.0003   -2.6173 Cl  0  0  0  0  0  0  0  0  0  0  0  0
   -1.3675    0.0002    1.5586 B   0  0  2  0  0  0  0  0  0  0  0  0
   -0.8854    1.2511    0.7535 N   0  0  0  0  0  0  0  0  0  0  0  0
    0.4407    1.4245    0.5464 N   0  0  0  0  0  2  0  0  0  0  0  0
    0.6113    2.5824   -0.1498 C   0  0  2  0  0  3  0  0  0  0  0  0
   -0.6603    3.1597   -0.3755 C   0  0  0  0  0  0  0  0  0  0  0  0
   -0.8775    4.0759   -0.9323 H   0  0  0  0  0  0  0  0  0  0  0  0
   -1.5759    2.2776    0.2031 C   0  0  0  0  0  0  0  0  0  0  0  0
   -2.6701    2.2806    0.2389 H   0  0  0  0  0  0  0  0  0  0  0  0
    1.9297    3.0722   -0.5734 C   0  0  0  0  0  0  0  0  0  0  0  0
    2.9362    2.1903   -1.0285 C   0  0  0  0  0  0  0  0  0  0  0  0
    2.7211    1.1133   -1.0869 H   0  0  0  0  0  0  0  0  0  0  0  0
    4.1938    2.6653   -1.4174 C   0  0  0  0  0  0  0  0  0  0  0  0
    4.9727    1.9756   -1.7712 H   0  0  0  0  0  0  0  0  0  0  0  0
    4.4538    4.0446   -1.3685 C   0  0  0  0  0  0  0  0  0  0  0  0
    3.4637    4.9453   -0.9393 C   0  0  0  0  0  0  0  0  0  0  0  0
    3.6846    6.0211   -0.9051 H   0  0  0  0  0  0  0  0  0  0  0  0
   -0.8136    0.0004    2.6544 H   0  0  0  0  0  0  0  0  0  0  0  0
    2.2134    4.4560   -0.5464 C   0  0  0  0  0  0  0  0  0  0  0  0
    1.4465    5.1579   -0.1862 H   0  0  0  0  0  0  0  0  0  0  0  0
   -0.8852   -1.2507    0.7538 N   0  0  0  0  0  0  0  0  0  0  0  0
    0.4410   -1.4242    0.5471 N   0  0  0  0  0  2  0  0  0  0  0  0
    0.6118   -2.5819   -0.1494 C   0  0  1  0  0  3  0  0  0  0  0  0
   -0.6598   -3.1590   -0.3757 C   0  0  0  0  0  0  0  0  0  0  0  0
   -0.8769   -4.0751   -0.9328 H   0  0  0  0  0  0  0  0  0  0  0  0
   -1.5755   -2.2771    0.2028 C   0  0  0  0  0  0  0  0  0  0  0  0
   -2.6698   -2.2800    0.2382 H   0  0  0  0  0  0  0  0  0  0  0  0
    1.9301   -3.0720   -0.5726 C   0  0  0  0  0  0  0  0  0  0  0  0
    2.9376   -2.1904   -1.0262 C   0  0  0  0  0  0  0  0  0  0  0  0
    2.7234   -1.1132   -1.0833 H   0  0  0  0  0  0  0  0  0  0  0  0
    4.1950   -2.6660   -1.4149 C   0  0  0  0  0  0  0  0  0  0  0  0
    4.9746   -1.9764   -1.7675 H   0  0  0  0  0  0  0  0  0  0  0  0
    4.4540   -4.0455   -1.3676 C   0  0  0  0  0  0  0  0  0  0  0  0
    3.4629   -4.9459   -0.9399 C   0  0  0  0  0  0  0  0  0  0  0  0
    3.6829   -6.0220   -0.9068 H   0  0  0  0  0  0  0  0  0  0  0  0
    2.2128   -4.4561   -0.5471 C   0  0  0  0  0  0  0  0  0  0  0  0
    1.4452   -5.1578   -0.1880 H   0  0  0  0  0  0  0  0  0  0  0  0
   -2.8764    0.0001    1.7212 N   0  0  0  0  0  0  0  0  0  0  0  0
   -3.7053    0.0002    0.6477 N   0  0  0  0  0  0  0  0  0  0  0  0
   -4.9614   -0.0002    1.1415 C   0  0  0  0  0  0  0  0  0  0  0  0
   -4.9343   -0.0005    2.5690 C   0  0  0  0  0  0  0  0  0  0  0  0
   -5.7778   -0.0010    3.2660 H   0  0  0  0  0  0  0  0  0  0  0  0
   -3.5840   -0.0004    2.8936 C   0  0  0  0  0  0  0  0  0  0  0  0
   -3.0693   -0.0005    3.8605 H   0  0  0  0  0  0  0  0  0  0  0  0
   -6.1201   -0.0002    0.2352 C   0  0  0  0  0  0  0  0  0  0  0  0
   -5.9300   -0.0008   -1.1662 C   0  0  0  0  0  0  0  0  0  0  0  0
   -4.9014   -0.0012   -1.5546 H   0  0  0  0  0  0  0  0  0  0  0  0
   -7.0175   -0.0008   -2.0447 C   0  0  0  0  0  0  0  0  0  0  0  0
   -6.8644   -0.0013   -3.1332 H   0  0  0  0  0  0  0  0  0  0  0  0
   -8.3242   -0.0003   -1.5265 C   0  0  0  0  0  0  0  0  0  0  0  0
   -8.5420    0.0003   -0.1396 C   0  0  0  0  0  0  0  0  0  0  0  0
   -9.5693    0.0007    0.2507 H   0  0  0  0  0  0  0  0  0  0  0  0
   -7.4431    0.0003    0.7284 C   0  0  0  0  0  0  0  0  0  0  0  0
   -7.6240    0.0008    1.8133 H   0  0  0  0  0  0  0  0  0  0  0  0
  1 17  1  0  0  0  0
  2 35  1  0  0  0  0
  3 52  1  0  0  0  0
  4 40  1  0  0  0  0
  4 20  1  1  0  0  0
  5  4  1  0  0  0  0
  6  5  1  0  0  0  0
  7 12  1  6  0  0  0
  7  6  1  0  0  0  0
  8  7  1  0  0  0  0
  8 10  2  0  0  0  0
  9  8  1  0  0  0  0
 10 11  1  0  0  0  0
 10  5  1  0  0  0  0
 12 21  1  0  0  0  0
 13 12  2  0  0  0  0
 14 13  1  0  0  0  0
 15 17  2  0  0  0  0
 15 13  1  0  0  0  0
 16 15  1  0  0  0  0
 17 18  1  0  0  0  0
 18 19  1  0  0  0  0
 18 21  2  0  0  0  0
 21 22  1  0  0  0  0
 23  4  1  0  0  0  0
 24 23  1  0  0  0  0
 25 30  1  6  0  0  0
 25 24  1  0  0  0  0
 26 25  1  0  0  0  0
 26 28  2  0  0  0  0
 27 26  1  0  0  0  0
 28 29  1  0  0  0  0
 28 23  1  0  0  0  0
 30 38  1  0  0  0  0
 31 30  2  0  0  0  0
 32 31  1  0  0  0  0
 33 35  2  0  0  0  0
 33 31  1  0  0  0  0
 34 33  1  0  0  0  0
 35 36  1  0  0  0  0
 36 37  1  0  0  0  0
 36 38  2  0  0  0  0
 38 39  1  0  0  0  0
 40 45  1  0  0  0  0
 41 42  2  0  0  0  0
 41 40  1  0  0  0  0
 42 43  1  0  0  0  0
 43 45  2  0  0  0  0
 43 44  1  0  0  0  0
 45 46  1  0  0  0  0
 47 55  1  0  0  0  0
 47 42  1  0  0  0  0
 48 47  2  0  0  0  0
 49 48  1  0  0  0  0
 50 52  2  0  0  0  0
 50 48  1  0  0  0  0
 51 50  1  0  0  0  0
 52 53  1  0  0  0  0
 53 54  1  0  0  0  0
 53 55  2  0  0  0  0
 55 56  1  0  0  0  0
M  END
