1,2
q = -1.0

 37 38  0  0  1  0  0  0  0  0999 V2000
    0.9188   -0.9871   -1.5977 N   0  0  0  0  0  2  0  0  0  0  0  0
    1.8715    0.0987    0.9227 N   0  0  0  0  0  2  0  0  0  0  0  0
    5.6291   -1.8090   -1.4028 N   0  0  0  0  0  0  0  0  0  0  0  0
   -0.0584   -3.7139   -0.8535 O   0  0  0  0  0  0  0  0  0  0  0  0
   -1.9701   -2.5916   -1.3507 O   0  0  0  0  0  0  0  0  0  0  0  0
    2.2688    3.0112    0.4974 O   0  0  0  0  0  0  0  0  0  0  0  0
    0.7117    3.0126    2.1530 O   0  0  0  0  0  0  0  0  0  0  0  0
    0.0260   -1.8415   -2.4135 C   0  0  1  0  0  0  0  0  0  0  0  0
   -0.7643   -1.2408   -2.8962 H   0  0  0  0  0  0  0  0  0  0  0  0
    0.9750   -2.5199   -3.4212 C   0  0  0  0  0  0  0  0  0  0  0  0
    0.6197   -3.5189   -3.7356 H   0  0  0  0  0  0  0  0  0  0  0  0
    1.0472   -1.8815   -4.3241 H   0  0  0  0  0  0  0  0  0  0  0  0
    2.3157   -2.5554   -2.6733 C   0  0  0  0  0  0  0  0  0  0  0  0
    3.2037   -2.3926   -3.3149 H   0  0  0  0  0  0  0  0  0  0  0  0
    2.4716   -3.5150   -2.1386 H   0  0  0  0  0  0  0  0  0  0  0  0
    2.1579   -1.4618   -1.6396 C   0  0  0  0  0  0  0  0  0  0  0  0
    3.2173   -1.0358   -0.7975 C   0  0  0  0  0  0  0  0  0  0  0  0
    3.0332   -0.2198    0.3553 C   0  0  1  0  0  3  0  0  0  0  0  0
    4.2137    0.4168    1.0553 C   0  0  0  0  0  0  0  0  0  0  0  0
    4.5983    1.2260    0.3994 H   0  0  0  0  0  0  0  0  0  0  0  0
    5.0442   -0.2997    1.2064 H   0  0  0  0  0  0  0  0  0  0  0  0
    3.5976    0.9585    2.3465 C   0  0  0  0  0  0  0  0  0  0  0  0
    3.6859    0.2173    3.1650 H   0  0  0  0  0  0  0  0  0  0  0  0
    4.0459    1.9095    2.6899 H   0  0  0  0  0  0  0  0  0  0  0  0
    2.1034    1.0938    1.9931 C   0  0  1  0  0  0  0  0  0  0  0  0
    1.4880    0.8709    2.8758 H   0  0  0  0  0  0  0  0  0  0  0  0
    4.5404   -1.4557   -1.1251 C   0  0  0  0  0  0  0  0  0  0  0  0
   -0.6506   -2.8373   -1.4602 C   0  0  0  0  0  0  0  0  0  0  0  0
   -2.6738   -3.3479   -0.3515 C   0  0  0  0  0  0  0  0  0  0  0  0
   -2.5706   -4.4354   -0.5365 H   0  0  0  0  0  0  0  0  0  0  0  0
   -3.7296   -3.0323   -0.4195 H   0  0  0  0  0  0  0  0  0  0  0  0
   -2.2660   -3.1085    0.6511 H   0  0  0  0  0  0  0  0  0  0  0  0
    1.7286    2.4745    1.4506 C   0  0  0  0  0  0  0  0  0  0  0  0
    0.2101    4.2775    1.6796 C   0  0  0  0  0  0  0  0  0  0  0  0
    1.0377    5.0063    1.5732 H   0  0  0  0  0  0  0  0  0  0  0  0
   -0.5113    4.6191    2.4424 H   0  0  0  0  0  0  0  0  0  0  0  0
   -0.2945    4.1437    0.7017 H   0  0  0  0  0  0  0  0  0  0  0  0
  2 25  1  0  0  0  0
  3 27  3  0  0  0  0
  5 29  1  0  0  0  0
  6 33  2  0  0  0  0
  8  9  1  6  0  0  0
  8  1  1  0  0  0  0
  8 28  1  0  0  0  0
 10 13  1  0  0  0  0
 10  8  1  0  0  0  0
 11 10  1  0  0  0  0
 12 10  1  0  0  0  0
 13 15  1  0  0  0  0
 13 16  1  0  0  0  0
 14 13  1  0  0  0  0
 16  1  1  0  0  0  0
 16 17  2  0  0  0  0
 18 17  1  6  0  0  0
 18  2  1  0  0  0  0
 18 19  1  0  0  0  0
 19 21  1  0  0  0  0
 19 22  1  0  0  0  0
 20 19  1  0  0  0  0
 22 24  1  0  0  0  0
 22 23  1  0  0  0  0
 25 22  1  0  0  0  0
 25 26  1  1  0  0  0
 27 17  1  0  0  0  0
 28  5  1  0  0  0  0
 28  4  2  0  0  0  0
 29 32  1  0  0  0  0
 30 29  1  0  0  0  0
 31 29  1  0  0  0  0
 33 25  1  0  0  0  0
 33  7  1  0  0  0  0
 34  7  1  0  0  0  0
 34 36  1  0  0  0  0
 35 34  1  0  0  0  0
 37 34  1  0  0  0  0
M  END
