3,4
q = -1.0

 24 25  0  0  0  0  0  0  0  0999 V2000
    0.5432    2.0929   -2.6471 O   0  0  0  0  0  0  0  0  0  0  0  0
   -4.0454    4.7180    0.7644 F   0  0  0  0  0  0  0  0  0  0  0  0
    1.3731   -1.0112   -1.1206 N   0  0  0  0  0  2  0  0  0  0  0  0
   -0.3532    0.8796   -0.8543 N   0  0  0  0  0  2  0  0  0  0  0  0
    2.0906   -2.1408   -1.2738 C   0  0  0  0  0  3  0  0  0  0  0  0
    1.9609   -2.9221   -0.5123 H   0  0  0  0  0  0  0  0  0  0  0  0
    2.9733   -2.3067   -2.3465 C   0  0  0  0  0  0  0  0  0  0  0  0
    3.5432   -3.2423   -2.4342 H   0  0  0  0  0  0  0  0  0  0  0  0
    3.1176   -1.2698   -3.2832 C   0  0  0  0  0  0  0  0  0  0  0  0
    3.8204   -1.3704   -4.1237 H   0  0  0  0  0  0  0  0  0  0  0  0
    2.3412   -0.1157   -3.1344 C   0  0  0  0  0  0  0  0  0  0  0  0
    2.3655    0.7368   -3.8281 H   0  0  0  0  0  0  0  0  0  0  0  0
    1.4648   -0.0286   -2.0473 C   0  0  0  0  0  0  0  0  0  0  0  0
    0.5225    1.1271   -1.8743 C   0  0  0  0  0  0  0  0  0  0  0  0
   -1.2913    1.8726   -0.4993 C   0  0  0  0  0  0  0  0  0  0  0  0
   -2.6438    1.5237   -0.2845 C   0  0  0  0  0  0  0  0  0  0  0  0
   -2.9639    0.4894   -0.4643 H   0  0  0  0  0  0  0  0  0  0  0  0
   -3.5742    2.4772    0.1447 C   0  0  0  0  0  0  0  0  0  0  0  0
   -4.6272    2.2119    0.3169 H   0  0  0  0  0  0  0  0  0  0  0  0
   -3.1538    3.7977    0.3444 C   0  0  0  0  0  0  0  0  0  0  0  0
   -1.8286    4.1829    0.1075 C   0  0  0  0  0  0  0  0  0  0  0  0
   -1.5338    5.2307    0.2616 H   0  0  0  0  0  0  0  0  0  0  0  0
   -0.9041    3.2208   -0.3124 C   0  0  0  0  0  0  0  0  0  0  0  0
    0.1340    3.5121   -0.5122 H   0  0  0  0  0  0  0  0  0  0  0  0
  1 14  2  0  0  0  0
  4 15  1  0  0  0  0
  5  3  1  0  0  0  0
  5  6  1  0  0  0  0
  7  5  1  0  0  0  0
  8  7  1  0  0  0  0
  9 11  1  0  0  0  0
  9  7  2  0  0  0  0
 10  9  1  0  0  0  0
 11 13  2  0  0  0  0
 12 11  1  0  0  0  0
 13 14  1  0  0  0  0
 13  3  1  0  0  0  0
 14  4  1  0  0  0  0
 15 23  2  0  0  0  0
 15 16  1  0  0  0  0
 16 18  2  0  0  0  0
 17 16  1  0  0  0  0
 18 19  1  0  0  0  0
 18 20  1  0  0  0  0
 20  2  1  0  0  0  0
 21 22  1  0  0  0  0
 21 20  2  0  0  0  0
 23 21  1  0  0  0  0
 24 23  1  0  0  0  0
M  END
