2,3
q = 0.0, confidence = 0.99

 43 45  0  0  0  0  0  0  0  0999 V2000
    3.9350    0.0001   -0.0000 N   0  0  0  0  0  0  0  0  0  0  0  0
   -1.9255   -2.0226   -0.1856 N   0  0  0  0  0  2  0  0  0  0  0  0
   -1.9255    2.0220    0.1835 N   0  0  0  0  0  2  0  0  0  0  0  0
    4.3583   -3.5445   -0.1269 O   0  0  0  0  0  0  0  0  0  0  0  0
    2.1129   -4.6205   -0.1421 O   0  0  0  0  0  0  0  0  0  0  0  0
    3.1497   -4.4293   -0.1410 H   0  0  0  0  0  0  0  0  0  0  0  0
    4.3582    3.5448    0.1273 O   0  0  0  0  0  0  0  0  0  0  0  0
    2.1126    4.6206    0.1425 O   0  0  0  0  0  0  0  0  0  0  0  0
    3.1495    4.4296    0.1416 H   0  0  0  0  0  0  0  0  0  0  0  0
    4.6119    1.1574    0.0459 C   0  0  0  0  0  0  0  0  0  0  0  0
    6.0210    1.2094    0.0481 C   0  0  0  0  0  0  0  0  0  0  0  0
    6.5188    2.1888    0.0864 H   0  0  0  0  0  0  0  0  0  0  0  0
    6.7296    0.0001    0.0003 C   0  0  0  0  0  0  0  0  0  0  0  0
    7.8301    0.0001    0.0005 H   0  0  0  0  0  0  0  0  0  0  0  0
    6.0210   -1.2092   -0.0476 C   0  0  0  0  0  0  0  0  0  0  0  0
    6.5188   -2.1885   -0.0858 H   0  0  0  0  0  0  0  0  0  0  0  0
    4.6119   -1.1571   -0.0457 C   0  0  0  0  0  0  0  0  0  0  0  0
    3.7880   -2.4140   -0.0930 C   0  0  0  0  0  0  0  0  0  0  0  0
    2.3626   -2.2756   -0.0905 C   0  0  0  0  0  0  0  0  0  0  0  0
    1.9394   -1.2701   -0.0345 H   0  0  0  0  0  0  0  0  0  0  0  0
    1.5688   -3.4189   -0.1163 C   0  0  0  0  0  0  0  0  0  0  0  0
   -0.5918   -2.1475   -0.2839 C   0  0  0  0  0  3  0  0  0  0  0  0
   -0.0399   -1.2349   -0.5534 H   0  0  0  0  0  0  0  0  0  0  0  0
    0.0911   -3.3625   -0.0769 C   0  0  0  0  0  0  0  0  0  0  0  0
   -0.6855   -4.5092    0.1909 C   0  0  0  0  0  0  0  0  0  0  0  0
   -0.1831   -5.4760    0.3395 H   0  0  0  0  0  0  0  0  0  0  0  0
   -2.0776   -4.3809    0.2758 C   0  0  0  0  0  0  0  0  0  0  0  0
   -2.7140   -5.2515    0.4898 H   0  0  0  0  0  0  0  0  0  0  0  0
   -2.6649   -3.1195    0.1005 C   0  0  0  0  0  0  0  0  0  0  0  0
   -3.7508   -2.9481    0.1931 H   0  0  0  0  0  0  0  0  0  0  0  0
    3.7880    2.4143    0.0930 C   0  0  0  0  0  0  0  0  0  0  0  0
    2.3626    2.2758    0.0902 C   0  0  0  0  0  0  0  0  0  0  0  0
    1.9396    1.2702    0.0340 H   0  0  0  0  0  0  0  0  0  0  0  0
    1.5687    3.4189    0.1162 C   0  0  0  0  0  0  0  0  0  0  0  0
   -0.5918    2.1470    0.2817 C   0  0  0  0  0  3  0  0  0  0  0  0
   -0.0397    1.2339    0.5493 H   0  0  0  0  0  0  0  0  0  0  0  0
    0.0910    3.3624    0.0767 C   0  0  0  0  0  0  0  0  0  0  0  0
   -0.6858    4.5094   -0.1892 C   0  0  0  0  0  0  0  0  0  0  0  0
   -0.1835    5.4765   -0.3362 H   0  0  0  0  0  0  0  0  0  0  0  0
   -2.0779    4.3811   -0.2740 C   0  0  0  0  0  0  0  0  0  0  0  0
   -2.7145    5.2519   -0.4865 H   0  0  0  0  0  0  0  0  0  0  0  0
   -2.6650    3.1193   -0.1006 C   0  0  0  0  0  0  0  0  0  0  0  0
   -3.7510    2.9479   -0.1931 H   0  0  0  0  0  0  0  0  0  0  0  0
  1 10  1  0  0  0  0
  2 29  1  0  0  0  0
  3 35  1  0  0  0  0
  4 18  2  0  0  0  0
  5  6  1  0  0  0  0
  5 21  1  0  0  0  0
  9  8  1  0  0  0  0
 10 11  2  0  0  0  0
 10 31  1  0  0  0  0
 11 12  1  0  0  0  0
 13 14  1  0  0  0  0
 13 11  1  0  0  0  0
 15 17  1  0  0  0  0
 15 13  2  0  0  0  0
 16 15  1  0  0  0  0
 17  1  2  0  0  0  0
 18 19  1  0  0  0  0
 18 17  1  0  0  0  0
 19 20  1  0  0  0  0
 21 19  2  0  0  0  0
 21 24  1  0  0  0  0
 22  2  1  0  0  0  0
 22 24  1  0  0  0  0
 23 22  1  0  0  0  0
 24 25  2  0  0  0  0
 25 27  1  0  0  0  0
 25 26  1  0  0  0  0
 27 28  1  0  0  0  0
 29 30  1  0  0  0  0
 29 27  2  0  0  0  0
 31  7  2  0  0  0  0
 32 31  1  0  0  0  0
 32 34  2  0  0  0  0
 33 32  1  0  0  0  0
 34  8  1  0  0  0  0
 35 36  1  0  0  0  0
 37 34  1  0  0  0  0
 37 35  1  0  0  0  0
 38 37  2  0  0  0  0
 39 38  1  0  0  0  0
 40 38  1  0  0  0  0
 40 42  2  0  0  0  0
 41 40  1  0  0  0  0
 42  3  1  0  0  0  0
 43 42  1  0  0  0  0
M  END
