1,2
q = -2.0, confidence = 0.96

 20 21  0  0  0  0  0  0  0  0999 V2000
    1.2745   -1.0153    0.8207 N   0  0  0  0  0  0  0  0  0  0  0  0
    1.2732    1.0182   -0.8196 N   0  0  0  0  0  0  0  0  0  0  0  0
    4.6442   -2.5641    2.6844 O   0  0  0  0  0  0  0  0  0  0  0  0
    4.6415    2.5729   -2.6810 O   0  0  0  0  0  0  0  0  0  0  0  0
    1.1790   -2.0149    1.7512 C   0  0  0  0  0  0  0  0  0  0  0  0
    2.2656   -2.5616    2.3972 C   0  0  0  0  0  3  0  0  0  0  0  0
    3.6325   -2.1054    2.1216 C   0  0  0  0  0  0  0  0  0  0  0  0
    3.6741   -1.0443    1.1130 C   0  0  0  0  0  0  0  0  0  0  0  0
    2.5371   -0.5409    0.5051 C   0  0  0  0  0  0  0  0  0  0  0  0
    2.5365    0.5459   -0.5032 C   0  0  0  0  0  0  0  0  0  0  0  0
    3.6730    1.0513   -1.1104 C   0  0  0  0  0  3  0  0  0  0  0  0
    3.6302    2.1124   -2.1189 C   0  0  0  0  0  0  0  0  0  0  0  0
    2.2627    2.5664   -2.3952 C   0  0  0  0  0  0  0  0  0  0  0  0
    1.1766    2.0178   -1.7501 C   0  0  0  0  0  0  0  0  0  0  0  0
    0.1575   -2.3663    1.9660 H   0  0  0  0  0  0  0  0  0  0  0  0
    2.1271   -3.3684    3.1319 H   0  0  0  0  0  0  0  0  0  0  0  0
    4.6632   -0.6421    0.8533 H   0  0  0  0  0  0  0  0  0  0  0  0
    4.6626    0.6508   -0.8500 H   0  0  0  0  0  0  0  0  0  0  0  0
    2.1234    3.3731   -3.1299 H   0  0  0  0  0  0  0  0  0  0  0  0
    0.1547    2.3673   -1.9655 H   0  0  0  0  0  0  0  0  0  0  0  0
  1  5  2  0  0  0  0
  2 10  2  0  0  0  0
  4 12  2  0  0  0  0
  5 15  1  0  0  0  0
  5  6  1  0  0  0  0
  6 16  1  0  0  0  0
  7  6  1  0  0  0  0
  7  3  2  0  0  0  0
  8  7  1  0  0  0  0
  9  1  1  0  0  0  0
  9  8  2  0  0  0  0
 10  9  1  0  0  0  0
 11 18  1  0  0  0  0
 11 10  1  0  0  0  0
 12 11  1  0  0  0  0
 13 12  1  0  0  0  0
 13 14  2  0  0  0  0
 14  2  1  0  0  0  0
 17  8  1  0  0  0  0
 19 13  1  0  0  0  0
 20 14  1  0  0  0  0
M  END
