6,7
q = -1.0

 23 25  0  0  1  0  0  0  0  0999 V2000
   -5.4416   -3.4460   -0.6731 F   0  0  0  0  0  0  0  0  0  0  0  0
   -6.5575   -1.9655    1.3480 F   0  0  0  0  0  0  0  0  0  0  0  0
   -5.0754   -0.2225    2.7821 F   0  0  0  0  0  0  0  0  0  0  0  0
   -2.4110    0.1355    2.2874 F   0  0  0  0  0  0  0  0  0  0  0  0
   -2.5287   -2.9947   -1.2185 N   0  0  0  0  0  0  0  0  0  0  0  0
   -1.2883   -1.3970   -0.1086 N   0  0  0  0  0  0  0  0  0  0  0  0
    0.9431   -1.9562   -1.4931 N   0  0  0  0  0  2  0  0  0  0  0  0
   -1.3463   -2.4074   -1.0574 C   0  0  0  0  0  0  0  0  0  0  0  0
   -3.3327   -2.3594   -0.3061 C   0  0  0  0  0  3  0  0  0  0  0  0
   -4.7007   -2.5531   -0.0127 C   0  0  0  0  0  0  0  0  0  0  0  0
   -5.2677   -1.8089    1.0277 C   0  0  0  0  0  0  0  0  0  0  0  0
   -4.4954   -0.8747    1.7693 C   0  0  0  0  0  0  0  0  0  0  0  0
   -3.1376   -0.6780    1.4930 C   0  0  0  0  0  0  0  0  0  0  0  0
   -2.5691   -1.3706    0.4104 C   0  0  0  0  0  0  0  0  0  0  0  0
   -0.1322   -2.7363   -1.7842 C   0  0  1  0  0  3  0  0  0  0  0  0
   -0.0649   -3.7830   -2.7234 C   0  0  0  0  0  0  0  0  0  0  0  0
   -0.9764   -4.3645   -2.9179 H   0  0  0  0  0  0  0  0  0  0  0  0
    1.1507   -4.0299   -3.3628 C   0  0  0  0  0  0  0  0  0  0  0  0
    1.2370   -4.8428   -4.0993 H   0  0  0  0  0  0  0  0  0  0  0  0
    2.2604   -3.2191   -3.0615 C   0  0  0  0  0  0  0  0  0  0  0  0
    3.2335   -3.3713   -3.5482 H   0  0  0  0  0  0  0  0  0  0  0  0
    2.1096   -2.1872   -2.1317 C   0  0  0  0  0  0  0  0  0  0  0  0
    2.9394   -1.5046   -1.9001 H   0  0  0  0  0  0  0  0  0  0  0  0
  1 10  1  0  0  0  0
  5  8  2  0  0  0  0
  5  9  1  0  0  0  0
  6 14  2  0  0  0  0
  8  6  1  0  0  0  0
  9 10  1  0  0  0  0
  9 14  1  0  0  0  0
 10 11  2  0  0  0  0
 11  2  1  0  0  0  0
 11 12  1  0  0  0  0
 12  3  1  0  0  0  0
 13 12  2  0  0  0  0
 13  4  1  0  0  0  0
 14 13  1  0  0  0  0
 15  7  1  0  0  0  0
 15  8  1  6  0  0  0
 16 15  1  0  0  0  0
 17 16  1  0  0  0  0
 18 20  1  0  0  0  0
 18 16  2  0  0  0  0
 19 18  1  0  0  0  0
 20 22  2  0  0  0  0
 21 20  1  0  0  0  0
 22 23  1  0  0  0  0
 22  7  1  0  0  0  0
M  END
