1,7
q = 0.0, confidence = 1.0

 39 41  0  0  1  0  0  0  0  0999 V2000
   -0.4252    1.5058    0.3759 N   0  0  0  0  0  2  0  0  0  0  0  0
    0.7724    1.3128   -0.2053 C   0  0  1  0  0  3  0  0  0  0  0  0
    1.5149    2.4724   -0.1348 N   0  0  0  0  0  0  0  0  0  0  0  0
    2.8002    2.7363   -0.7703 C   0  0  0  0  0  0  0  0  0  0  0  0
    0.7432    3.4171    0.5106 C   0  0  0  0  0  0  0  0  0  0  0  0
   -0.4509    2.8081    0.8394 C   0  0  0  0  0  0  0  0  0  0  0  0
   -0.9366   -1.0651   -0.1006 N   0  0  0  0  0  2  0  0  0  0  0  0
    0.3215   -1.1204   -0.5924 C   0  0  2  0  0  3  0  0  0  0  0  0
    0.6658   -2.4388   -0.8256 N   0  0  0  0  0  0  0  0  0  0  0  0
    1.8631   -2.9227   -1.4990 C   0  0  0  0  0  0  0  0  0  0  0  0
   -0.4091   -3.2217   -0.4648 C   0  0  0  0  0  0  0  0  0  0  0  0
   -1.3913   -2.3705   -0.0016 C   0  0  0  0  0  0  0  0  0  0  0  0
    3.8120   -0.3207   -0.1241 N   0  0  0  0  0  0  0  0  0  0  0  0
    2.5320   -0.3592    0.2367 C   0  0  0  0  0  0  0  0  0  0  0  0
    2.3874   -0.7148    1.5620 N   0  0  0  0  0  0  0  0  0  0  0  0
    1.1610   -0.9150    2.3272 C   0  0  0  0  0  0  0  0  0  0  0  0
    3.6642   -0.9201    2.0524 C   0  0  0  0  0  0  0  0  0  0  0  0
    4.5262   -0.6704    0.9975 C   0  0  0  0  0  0  0  0  0  0  0  0
    1.3461   -0.0079   -0.6770 C   0  0  2  0  0  0  0  0  0  0  0  0
    1.9078    0.0917   -1.9902 O   0  0  0  0  0  0  0  0  0  0  0  0
    0.9607    0.4127   -3.0038 C   0  0  0  0  0  0  0  0  0  0  0  0
    3.3244    3.5229   -0.1960 H   0  0  0  0  0  0  0  0  0  0  0  0
    3.4153    1.8174   -0.7891 H   0  0  0  0  0  0  0  0  0  0  0  0
    2.6508    3.0849   -1.8128 H   0  0  0  0  0  0  0  0  0  0  0  0
    1.1034    4.4382    0.6688 H   0  0  0  0  0  0  0  0  0  0  0  0
   -1.3199    3.2076    1.3710 H   0  0  0  0  0  0  0  0  0  0  0  0
    2.0901   -3.9425   -1.1357 H   0  0  0  0  0  0  0  0  0  0  0  0
    1.7089   -2.9508   -2.5973 H   0  0  0  0  0  0  0  0  0  0  0  0
    2.7179   -2.2552   -1.2893 H   0  0  0  0  0  0  0  0  0  0  0  0
   -0.3915   -4.3099   -0.5812 H   0  0  0  0  0  0  0  0  0  0  0  0
   -2.3740   -2.6006    0.4151 H   0  0  0  0  0  0  0  0  0  0  0  0
    1.3896   -0.8040    3.4027 H   0  0  0  0  0  0  0  0  0  0  0  0
    0.3807   -0.1798    2.0618 H   0  0  0  0  0  0  0  0  0  0  0  0
    0.7431   -1.9267    2.1520 H   0  0  0  0  0  0  0  0  0  0  0  0
    3.8307   -1.2188    3.0928 H   0  0  0  0  0  0  0  0  0  0  0  0
    5.6221   -0.7203    0.9907 H   0  0  0  0  0  0  0  0  0  0  0  0
    1.5365    0.4796   -3.9462 H   0  0  0  0  0  0  0  0  0  0  0  0
    0.4333    1.3711   -2.8031 H   0  0  0  0  0  0  0  0  0  0  0  0
    0.1666   -0.3615   -3.0969 H   0  0  0  0  0  0  0  0  0  0  0  0
  1  6  1  0  0  0  0
  2 19  1  1  0  0  0
  2  3  1  0  0  0  0
  2  1  1  0  0  0  0
  3  5  1  0  0  0  0
  4 22  1  0  0  0  0
  4  3  1  0  0  0  0
  5 25  1  0  0  0  0
  5  6  2  0  0  0  0
  6 26  1  0  0  0  0
  7 12  1  0  0  0  0
  8 19  1  1  0  0  0
  8  7  1  0  0  0  0
  9  8  1  0  0  0  0
  9 11  1  0  0  0  0
 10 29  1  0  0  0  0
 10 27  1  0  0  0  0
 10  9  1  0  0  0  0
 11 12  2  0  0  0  0
 12 31  1  0  0  0  0
 13 14  2  0  0  0  0
 13 18  1  0  0  0  0
 14 15  1  0  0  0  0
 15 17  1  0  0  0  0
 15 16  1  0  0  0  0
 16 32  1  0  0  0  0
 17 35  1  0  0  0  0
 18 17  2  0  0  0  0
 19 20  1  6  0  0  0
 19 14  1  0  0  0  0
 21 38  1  0  0  0  0
 21 20  1  0  0  0  0
 23  4  1  0  0  0  0
 24  4  1  0  0  0  0
 28 10  1  0  0  0  0
 30 11  1  0  0  0  0
 33 16  1  0  0  0  0
 34 16  1  0  0  0  0
 36 18  1  0  0  0  0
 37 21  1  0  0  0  0
 39 21  1  0  0  0  0
M  END
