2,3
q = 0.0, confidence = 1.0

 24 25  0  0  0  0  0  0  0  0999 V2000
    3.2028   -1.9797    0.0257 O   0  0  0  0  0  0  0  0  0  0  0  0
   -1.8059   -0.6041    0.0766 N   0  0  0  0  0  2  0  0  0  0  0  0
    0.5811   -0.5626   -0.9815 N   0  0  0  0  0  2  0  0  0  0  0  0
   -1.3511   -1.7943   -0.4349 C   0  0  0  0  0  0  0  0  0  0  0  0
   -2.1387   -2.9578   -0.3831 C   0  0  0  0  0  0  0  0  0  0  0  0
   -1.7467   -3.8957   -0.8020 H   0  0  0  0  0  0  0  0  0  0  0  0
   -3.4073   -2.8939    0.2054 C   0  0  0  0  0  0  0  0  0  0  0  0
   -4.0421   -3.7906    0.2582 H   0  0  0  0  0  0  0  0  0  0  0  0
   -3.8534   -1.6685    0.7265 C   0  0  0  0  0  0  0  0  0  0  0  0
   -4.8419   -1.5748    1.1981 H   0  0  0  0  0  0  0  0  0  0  0  0
   -3.0247   -0.5414    0.6442 C   0  0  0  0  0  0  0  0  0  0  0  0
   -3.3010    0.4575    1.0253 H   0  0  0  0  0  0  0  0  0  0  0  0
   -0.0165   -1.7232   -0.9990 C   0  0  0  0  0  0  0  0  0  0  0  0
    0.4822   -2.6241   -1.3995 H   0  0  0  0  0  0  0  0  0  0  0  0
    1.9832   -0.4448   -1.4224 C   0  0  0  0  0  0  0  0  0  0  0  0
    2.1169    0.5897   -1.7924 H   0  0  0  0  0  0  0  0  0  0  0  0
    2.1828   -1.1815   -2.2286 H   0  0  0  0  0  0  0  0  0  0  0  0
    2.8945   -0.6733   -0.2674 C   0  0  0  0  0  0  0  0  0  0  0  0
    3.9626   -1.9669    1.1596 C   0  0  0  0  0  0  0  0  0  0  0  0
    4.3117   -2.9429    1.5117 H   0  0  0  0  0  0  0  0  0  0  0  0
    4.1385   -0.6772    1.6056 C   0  0  0  0  0  0  0  0  0  0  0  0
    4.7037   -0.3658    2.4908 H   0  0  0  0  0  0  0  0  0  0  0  0
    3.4340    0.1653    0.6832 C   0  0  0  0  0  0  0  0  0  0  0  0
    3.2944    1.2519    0.7081 H   0  0  0  0  0  0  0  0  0  0  0  0
  1 19  1  0  0  0  0
  2 11  1  0  0  0  0
  4  5  1  0  0  0  0
  4  2  1  0  0  0  0
  5  7  2  0  0  0  0
  6  5  1  0  0  0  0
  7  8  1  0  0  0  0
  7  9  1  0  0  0  0
  9 10  1  0  0  0  0
 11  9  2  0  0  0  0
 11 12  1  0  0  0  0
 13  3  1  0  0  0  0
 13  4  2  0  0  0  0
 14 13  1  0  0  0  0
 15  3  1  0  0  0  0
 15 18  1  0  0  0  0
 16 15  1  0  0  0  0
 17 15  1  0  0  0  0
 18  1  1  0  0  0  0
 18 23  2  0  0  0  0
 19 20  1  0  0  0  0
 19 21  2  0  0  0  0
 21 22  1  0  0  0  0
 23 24  1  0  0  0  0
 23 21  1  0  0  0  0
M  END
