3,5
q = 0.0, confidence = 1.0

 22 21  0  0  1  0  0  0  0  0999 V2000
   -1.3187    0.9200   -0.4161 O   0  0  0  0  0  0  0  0  0  0  0  0
   -3.1375   -0.3748   -0.0529 N   0  0  0  0  0  0  0  0  0  0  0  0
   -0.9415   -1.3053    0.0689 N   0  0  0  0  0  2  0  0  0  0  0  0
   -1.3703   -2.2268    0.1732 H   0  0  0  0  0  0  0  0  0  0  0  0
    0.0655    0.9156   -0.8020 N   0  0  0  0  0  2  0  0  0  0  0  0
   -0.0372    3.1264    0.0132 N   0  0  0  0  0  0  0  0  0  0  0  0
   -0.9481    2.9409    0.4369 H   0  0  0  0  0  0  0  0  0  0  0  0
    0.5154    3.8807    0.4185 H   0  0  0  0  0  0  0  0  0  0  0  0
   -3.7765   -1.5729    0.4596 C   0  0  0  0  0  0  0  0  0  0  0  0
   -4.7719   -1.3067    0.8649 H   0  0  0  0  0  0  0  0  0  0  0  0
   -3.1800   -2.0032    1.2884 H   0  0  0  0  0  0  0  0  0  0  0  0
   -3.9202   -2.3525   -0.3236 H   0  0  0  0  0  0  0  0  0  0  0  0
   -3.9979    0.6503   -0.6260 C   0  0  0  0  0  0  0  0  0  0  0  0
   -4.6511    0.2150   -1.4134 H   0  0  0  0  0  0  0  0  0  0  0  0
   -3.3832    1.4442   -1.0814 H   0  0  0  0  0  0  0  0  0  0  0  0
   -4.6480    1.1034    0.1532 H   0  0  0  0  0  0  0  0  0  0  0  0
    0.6215    2.0688   -0.5127 C   0  0  1  0  0  3  0  0  0  0  0  0
   -1.7752   -0.3285   -0.1306 C   0  0  2  0  0  3  0  0  0  0  0  0
    2.0938    2.1557   -0.7704 C   0  0  0  0  0  0  0  0  0  0  0  0
    2.4258    1.2842   -1.3666 H   0  0  0  0  0  0  0  0  0  0  0  0
    2.6044    2.0979    0.2146 H   0  0  0  0  0  0  0  0  0  0  0  0
    2.3602    3.0997   -1.2852 H   0  0  0  0  0  0  0  0  0  0  0  0
  2  9  1  0  0  0  0
  3  4  1  0  0  0  0
  5  1  1  0  0  0  0
  6  8  1  0  0  0  0
  6  7  1  0  0  0  0
  9 10  1  0  0  0  0
  9 11  1  0  0  0  0
 12  9  1  0  0  0  0
 13  2  1  0  0  0  0
 13 16  1  0  0  0  0
 14 13  1  0  0  0  0
 15 13  1  0  0  0  0
 17  5  1  1  0  0  0
 17  6  1  0  0  0  0
 18  1  1  1  0  0  0
 18  2  1  0  0  0  0
 18  3  1  0  0  0  0
 19 17  1  0  0  0  0
 19 21  1  0  0  0  0
 20 19  1  0  0  0  0
 22 19  1  0  0  0  0
M  END
