1,2
q = -1.0

 52 52  0  0  1  0  0  0  0  0999 V2000
   -0.2157    0.0587    0.6421 N   0  0  0  0  0  2  0  0  0  0  0  0
    2.3686    0.2983    0.7621 N   0  0  0  0  0  2  0  0  0  0  0  0
    0.3121    0.1772    2.0138 C   0  0  0  0  0  0  0  0  0  0  0  0
    1.8211    0.3818    1.9299 C   0  0  2  0  0  3  0  0  0  0  0  0
    0.0584   -1.1051    2.8506 C   0  0  0  0  0  0  0  0  0  0  0  0
    0.5801   -1.9795    2.4186 H   0  0  0  0  0  0  0  0  0  0  0  0
   -1.0283   -1.3154    2.8646 H   0  0  0  0  0  0  0  0  0  0  0  0
    0.3880   -0.9809    3.9007 H   0  0  0  0  0  0  0  0  0  0  0  0
   -0.3094    1.3687    2.7850 C   0  0  0  0  0  0  0  0  0  0  0  0
   -0.0485    2.3370    2.3182 H   0  0  0  0  0  0  0  0  0  0  0  0
    0.0188    1.3883    3.8420 H   0  0  0  0  0  0  0  0  0  0  0  0
   -1.4110    1.2645    2.7810 H   0  0  0  0  0  0  0  0  0  0  0  0
    2.5752    0.7093    3.1960 C   0  0  0  0  0  0  0  0  0  0  0  0
    3.5705    0.2301    3.2258 H   0  0  0  0  0  0  0  0  0  0  0  0
    2.0173    0.4068    4.0994 H   0  0  0  0  0  0  0  0  0  0  0  0
    2.7336    1.8073    3.2607 H   0  0  0  0  0  0  0  0  0  0  0  0
   -1.6272   -0.1344    0.4733 C   0  0  0  0  0  0  0  0  0  0  0  0
   -2.5010    0.9908    0.3076 C   0  0  0  0  0  0  0  0  0  0  0  0
   -3.8826    0.7717    0.1542 C   0  0  0  0  0  0  0  0  0  0  0  0
   -4.5523    1.6371    0.0304 H   0  0  0  0  0  0  0  0  0  0  0  0
   -4.4197   -0.5196    0.1321 C   0  0  0  0  0  0  0  0  0  0  0  0
   -5.5042   -0.6684    0.0162 H   0  0  0  0  0  0  0  0  0  0  0  0
   -3.5612   -1.6201    0.2196 C   0  0  0  0  0  0  0  0  0  0  0  0
   -3.9775   -2.6370    0.1472 H   0  0  0  0  0  0  0  0  0  0  0  0
   -2.1719   -1.4572    0.3749 C   0  0  0  0  0  0  0  0  0  0  0  0
   -1.9786    2.4200    0.1813 C   0  0  0  0  0  0  0  0  0  0  0  0
   -0.8947    2.3883    0.4088 H   0  0  0  0  0  0  0  0  0  0  0  0
   -2.1189    2.9228   -1.2681 C   0  0  0  0  0  0  0  0  0  0  0  0
   -1.6123    2.2466   -1.9825 H   0  0  0  0  0  0  0  0  0  0  0  0
   -1.6754    3.9345   -1.3742 H   0  0  0  0  0  0  0  0  0  0  0  0
   -3.1852    2.9858   -1.5692 H   0  0  0  0  0  0  0  0  0  0  0  0
   -2.6530    3.4017    1.1524 C   0  0  0  0  0  0  0  0  0  0  0  0
   -2.5805    3.0666    2.2056 H   0  0  0  0  0  0  0  0  0  0  0  0
   -3.7302    3.5283    0.9176 H   0  0  0  0  0  0  0  0  0  0  0  0
   -2.1839    4.4045    1.0791 H   0  0  0  0  0  0  0  0  0  0  0  0
   -1.2875   -2.7001    0.3170 C   0  0  0  0  0  0  0  0  0  0  0  0
   -0.2541   -2.3716    0.5438 H   0  0  0  0  0  0  0  0  0  0  0  0
   -1.2700   -3.2817   -1.1093 C   0  0  0  0  0  0  0  0  0  0  0  0
   -0.9562   -2.5228   -1.8517 H   0  0  0  0  0  0  0  0  0  0  0  0
   -2.2765   -3.6411   -1.4082 H   0  0  0  0  0  0  0  0  0  0  0  0
   -0.5676   -4.1382   -1.1742 H   0  0  0  0  0  0  0  0  0  0  0  0
   -1.6868   -3.7807    1.3334 C   0  0  0  0  0  0  0  0  0  0  0  0
   -0.9691   -4.6262    1.3036 H   0  0  0  0  0  0  0  0  0  0  0  0
   -2.6908   -4.1978    1.1103 H   0  0  0  0  0  0  0  0  0  0  0  0
   -1.7123   -3.3903    2.3697 H   0  0  0  0  0  0  0  0  0  0  0  0
    3.8143    0.4708    0.5946 C   0  0  0  0  0  0  0  0  0  0  0  0
    4.1961    1.2820    1.2532 H   0  0  0  0  0  0  0  0  0  0  0  0
    3.9831    0.8114   -0.4466 H   0  0  0  0  0  0  0  0  0  0  0  0
    4.5962   -0.8236    0.8359 C   0  0  0  0  0  0  0  0  0  0  0  0
    5.6766   -0.6550    0.6553 H   0  0  0  0  0  0  0  0  0  0  0  0
    4.2514   -1.6223    0.1529 H   0  0  0  0  0  0  0  0  0  0  0  0
    4.4782   -1.1923    1.8748 H   0  0  0  0  0  0  0  0  0  0  0  0
  1  3  1  0  0  0  0
  3  9  1  0  0  0  0
  3  5  1  0  0  0  0
  4  2  1  6  0  0  0
  4  3  1  0  0  0  0
  4 13  1  0  0  0  0
  5  7  1  0  0  0  0
  5  8  1  0  0  0  0
  6  5  1  0  0  0  0
  9 11  1  0  0  0  0
 10  9  1  0  0  0  0
 12  9  1  0  0  0  0
 13 14  1  0  0  0  0
 13 16  1  0  0  0  0
 13 15  1  0  0  0  0
 17  1  1  0  0  0  0
 18 17  2  0  0  0  0
 19 18  1  0  0  0  0
 20 19  1  0  0  0  0
 21 19  2  0  0  0  0
 21 23  1  0  0  0  0
 22 21  1  0  0  0  0
 23 25  2  0  0  0  0
 24 23  1  0  0  0  0
 25 17  1  0  0  0  0
 26 18  1  0  0  0  0
 26 27  1  0  0  0  0
 26 32  1  0  0  0  0
 28 26  1  0  0  0  0
 29 28  1  0  0  0  0
 30 28  1  0  0  0  0
 31 28  1  0  0  0  0
 32 33  1  0  0  0  0
 34 32  1  0  0  0  0
 35 32  1  0  0  0  0
 36 25  1  0  0  0  0
 36 37  1  0  0  0  0
 36 42  1  0  0  0  0
 38 36  1  0  0  0  0
 39 38  1  0  0  0  0
 40 38  1  0  0  0  0
 41 38  1  0  0  0  0
 42 45  1  0  0  0  0
 43 42  1  0  0  0  0
 44 42  1  0  0  0  0
 46  2  1  0  0  0  0
 46 49  1  0  0  0  0
 46 47  1  0  0  0  0
 48 46  1  0  0  0  0
 49 52  1  0  0  0  0
 50 49  1  0  0  0  0
 51 49  1  0  0  0  0
M  END
