1,12
q = 0.0, confidence = 0.992

 39 42  0  0  1  0  0  0  0  0999 V2000
    0.7784   -1.7646   -0.4018 N   0  0  0  0  0  2  0  0  0  0  0  0
    0.1072   -2.9274   -0.5144 C   0  0  0  0  0  3  0  0  0  0  0  0
   -0.9836   -2.8606   -0.3847 H   0  0  0  0  0  0  0  0  0  0  0  0
    0.7538   -4.1489   -0.7388 C   0  0  0  0  0  0  0  0  0  0  0  0
    0.1526   -5.0659   -0.8170 H   0  0  0  0  0  0  0  0  0  0  0  0
    2.1517   -4.1816   -0.8515 C   0  0  0  0  0  0  0  0  0  0  0  0
    2.6853   -5.1282   -1.0201 H   0  0  0  0  0  0  0  0  0  0  0  0
    2.8619   -2.9808   -0.7478 C   0  0  0  0  0  0  0  0  0  0  0  0
    3.9550   -2.9540   -0.8372 H   0  0  0  0  0  0  0  0  0  0  0  0
    2.1457   -1.7912   -0.5328 C   0  0  0  0  0  0  0  0  0  0  0  0
    2.6826   -0.4513   -0.4718 C   0  0  2  0  0  3  0  0  0  0  0  0
    1.8146    0.5716   -0.4110 N   0  0  0  0  0  2  0  0  0  0  0  0
    2.5027    1.7279   -0.3902 N   0  0  0  0  0  0  0  0  0  0  0  0
    3.8019    1.4267   -0.4191 C   0  0  0  0  0  0  0  0  0  0  0  0
    3.9594    0.0487   -0.4742 N   0  0  0  0  0  0  0  0  0  0  0  0
    5.1442   -0.7531   -0.3142 C   0  0  0  0  0  0  0  0  0  0  0  0
    5.4189   -1.2808    0.9554 C   0  0  0  0  0  0  0  0  0  0  0  0
    4.7518   -1.0423    1.8039 H   0  0  0  0  0  0  0  0  0  0  0  0
    6.5283   -2.1235    1.1097 C   0  0  0  0  0  0  0  0  0  0  0  0
    6.7441   -2.5439    2.1044 H   0  0  0  0  0  0  0  0  0  0  0  0
    7.3639   -2.4473    0.0216 C   0  0  0  0  0  0  0  0  0  0  0  0
    7.0525   -1.9027   -1.2441 C   0  0  0  0  0  0  0  0  0  0  0  0
    7.6884   -2.1463   -2.1096 H   0  0  0  0  0  0  0  0  0  0  0  0
    5.9511   -1.0582   -1.4194 C   0  0  0  0  0  0  0  0  0  0  0  0
    5.7125   -0.6318   -2.4037 H   0  0  0  0  0  0  0  0  0  0  0  0
    8.5734   -3.3284    0.2047 C   0  0  0  0  0  0  0  0  0  0  0  0
    8.4596   -4.0030    1.0756 H   0  0  0  0  0  0  0  0  0  0  0  0
    8.7688   -3.9479   -0.6930 H   0  0  0  0  0  0  0  0  0  0  0  0
    9.4842   -2.7165    0.3813 H   0  0  0  0  0  0  0  0  0  0  0  0
    4.8767    2.4226   -0.3777 C   0  0  0  0  0  0  0  0  0  0  0  0
    6.1438    1.9829   -0.5038 N   0  0  0  0  0  0  0  0  0  0  0  0
    7.1319    2.8837   -0.4569 C   0  0  0  0  0  0  0  0  0  0  0  0
    6.9175    4.2619   -0.2905 C   0  0  0  0  0  0  0  0  0  0  0  0
    5.5944    4.7169   -0.1675 C   0  0  0  0  0  0  0  0  0  0  0  0
    4.5508    3.7888   -0.2095 C   0  0  0  0  0  0  0  0  0  0  0  0
    3.4986    4.0896   -0.1150 H   0  0  0  0  0  0  0  0  0  0  0  0
    5.3789    5.7882   -0.0367 H   0  0  0  0  0  0  0  0  0  0  0  0
    7.7677    4.9590   -0.2597 H   0  0  0  0  0  0  0  0  0  0  0  0
    8.1574    2.4862   -0.5604 H   0  0  0  0  0  0  0  0  0  0  0  0
  2  1  1  0  0  0  0
  2  3  1  0  0  0  0
  4  2  1  0  0  0  0
  5  4  1  0  0  0  0
  6  8  1  0  0  0  0
  6  4  2  0  0  0  0
  7  6  1  0  0  0  0
  8 10  2  0  0  0  0
  9  8  1  0  0  0  0
 10  1  1  0  0  0  0
 11 10  1  6  0  0  0
 11 12  1  0  0  0  0
 12 13  1  0  0  0  0
 14 13  2  0  0  0  0
 14 30  1  0  0  0  0
 15 11  1  0  0  0  0
 15 14  1  0  0  0  0
 15 16  1  0  0  0  0
 16 17  1  0  0  0  0
 17 19  2  0  0  0  0
 17 18  1  0  0  0  0
 19 20  1  0  0  0  0
 21 26  1  0  0  0  0
 21 19  1  0  0  0  0
 22 21  2  0  0  0  0
 23 22  1  0  0  0  0
 24 22  1  0  0  0  0
 24 16  2  0  0  0  0
 25 24  1  0  0  0  0
 26 29  1  0  0  0  0
 26 27  1  0  0  0  0
 28 26  1  0  0  0  0
 30 35  1  0  0  0  0
 31 32  1  0  0  0  0
 31 30  2  0  0  0  0
 32 33  2  0  0  0  0
 33 38  1  0  0  0  0
 33 34  1  0  0  0  0
 34 37  1  0  0  0  0
 35 34  2  0  0  0  0
 35 36  1  0  0  0  0
 39 32  1  0  0  0  0
M  END
