1,2
q = 0.0, confidence = 1.0

 28 28  0  0  0  0  0  0  0  0999 V2000
   -0.1245    0.5798    1.4777 N   0  0  0  0  0  0  0  0  0  0  0  0
   -1.0599   -1.5866   -0.5358 N   0  0  0  0  0  0  0  0  0  0  0  0
   -2.4744    0.2137    0.6034 C   0  0  0  0  0  0  0  0  0  0  0  0
   -2.1997    1.1542   -0.5970 C   0  0  0  0  0  0  0  0  0  0  0  0
   -3.2190    1.0044   -1.7326 C   0  0  0  0  0  0  0  0  0  0  0  0
   -4.6489    1.2289   -1.2264 C   0  0  0  0  0  0  0  0  0  0  0  0
   -4.9798    0.2954   -0.0559 C   0  0  0  0  0  0  0  0  0  0  0  0
   -3.9430    0.4027    1.0716 C   0  0  0  0  0  0  0  0  0  0  0  0
   -1.5638    0.5857    1.7935 C   0  0  0  0  0  0  0  0  0  0  0  0
   -2.2901   -1.2811    0.2410 C   0  0  0  0  0  0  0  0  0  0  0  0
    0.1970    1.4522    0.9944 H   0  0  0  0  0  0  0  0  0  0  0  0
    0.4432    0.5366    2.3382 H   0  0  0  0  0  0  0  0  0  0  0  0
   -0.9445   -2.6107   -0.6010 H   0  0  0  0  0  0  0  0  0  0  0  0
   -1.1892   -1.2574   -1.5068 H   0  0  0  0  0  0  0  0  0  0  0  0
   -2.2433    2.1999   -0.2194 H   0  0  0  0  0  0  0  0  0  0  0  0
   -1.1581    1.0203   -0.9626 H   0  0  0  0  0  0  0  0  0  0  0  0
   -2.9748    1.7196   -2.5443 H   0  0  0  0  0  0  0  0  0  0  0  0
   -3.1459   -0.0083   -2.1939 H   0  0  0  0  0  0  0  0  0  0  0  0
   -5.3832    1.0950   -2.0474 H   0  0  0  0  0  0  0  0  0  0  0  0
   -4.7455    2.2853   -0.8898 H   0  0  0  0  0  0  0  0  0  0  0  0
   -5.9864    0.5230    0.3515 H   0  0  0  0  0  0  0  0  0  0  0  0
   -5.0413   -0.7520   -0.4265 H   0  0  0  0  0  0  0  0  0  0  0  0
   -4.0205    1.4127    1.5298 H   0  0  0  0  0  0  0  0  0  0  0  0
   -4.1748   -0.3211    1.8835 H   0  0  0  0  0  0  0  0  0  0  0  0
   -1.7406   -0.1325    2.6207 H   0  0  0  0  0  0  0  0  0  0  0  0
   -1.8575    1.5926    2.1635 H   0  0  0  0  0  0  0  0  0  0  0  0
   -3.1678   -1.6406   -0.3349 H   0  0  0  0  0  0  0  0  0  0  0  0
   -2.2448   -1.8761    1.1748 H   0  0  0  0  0  0  0  0  0  0  0  0
  1  9  1  0  0  0  0
  1 12  1  0  0  0  0
  2 10  1  0  0  0  0
  3  8  1  0  0  0  0
  3  9  1  0  0  0  0
  4 15  1  0  0  0  0
  4  3  1  0  0  0  0
  5  6  1  0  0  0  0
  5  4  1  0  0  0  0
  6 20  1  0  0  0  0
  6  7  1  0  0  0  0
  7 21  1  0  0  0  0
  7  8  1  0  0  0  0
  8 23  1  0  0  0  0
  8 24  1  0  0  0  0
  9 26  1  0  0  0  0
  9 25  1  0  0  0  0
 10  3  1  0  0  0  0
 10 28  1  0  0  0  0
 11  1  1  0  0  0  0
 13  2  1  0  0  0  0
 14  2  1  0  0  0  0
 16  4  1  0  0  0  0
 17  5  1  0  0  0  0
 18  5  1  0  0  0  0
 19  6  1  0  0  0  0
 22  7  1  0  0  0  0
 27 10  1  0  0  0  0
M  END
