1,2
q = 0.0, confidence = 0.998

 29 30  0  0  1  0  0  0  0  0999 V2000
    2.2547    0.1187   -0.2170 N   0  0  0  0  0  2  0  0  0  0  0  0
   -0.0443    1.3752    0.0672 N   0  0  0  0  0  2  0  0  0  0  0  0
   -1.2305    1.9720    0.3227 N   0  0  0  0  0  0  0  0  0  0  0  0
    3.4042   -0.5641   -0.4284 C   0  0  0  0  0  3  0  0  0  0  0  0
    4.6452    0.0559   -0.5775 C   0  0  0  0  0  0  0  0  0  0  0  0
    4.7130    1.4587   -0.4961 C   0  0  0  0  0  0  0  0  0  0  0  0
    3.5361    2.1757   -0.2838 C   0  0  0  0  0  0  0  0  0  0  0  0
    2.3028    1.4920   -0.1600 C   0  0  0  0  0  0  0  0  0  0  0  0
    1.0296    2.1656    0.0287 C   0  0  2  0  0  3  0  0  0  0  0  0
   -2.4680    1.4031   -0.0121 C   0  0  0  0  0  0  0  0  0  0  0  0
   -2.6426    0.7475   -1.2488 C   0  0  0  0  0  0  0  0  0  0  0  0
   -3.8855    0.1869   -1.5637 C   0  0  0  0  0  0  0  0  0  0  0  0
   -4.9651    0.3000   -0.6732 C   0  0  0  0  0  0  0  0  0  0  0  0
   -4.7970    0.9859    0.5406 C   0  0  0  0  0  0  0  0  0  0  0  0
   -3.5522    1.5308    0.8789 C   0  0  0  0  0  0  0  0  0  0  0  0
    0.9045    3.6522    0.1763 C   0  0  0  0  0  0  0  0  0  0  0  0
   -1.2277    2.7775    0.9540 H   0  0  0  0  0  0  0  0  0  0  0  0
    3.3067   -1.6588   -0.4653 H   0  0  0  0  0  0  0  0  0  0  0  0
    5.5422   -0.5563   -0.7444 H   0  0  0  0  0  0  0  0  0  0  0  0
    5.6739    1.9845   -0.5962 H   0  0  0  0  0  0  0  0  0  0  0  0
    3.5656    3.2707   -0.2125 H   0  0  0  0  0  0  0  0  0  0  0  0
   -1.8017    0.6858   -1.9513 H   0  0  0  0  0  0  0  0  0  0  0  0
   -4.0102   -0.3405   -2.5211 H   0  0  0  0  0  0  0  0  0  0  0  0
   -5.9389   -0.1447   -0.9254 H   0  0  0  0  0  0  0  0  0  0  0  0
   -5.6373    1.0774    1.2449 H   0  0  0  0  0  0  0  0  0  0  0  0
   -3.4067    2.0340    1.8475 H   0  0  0  0  0  0  0  0  0  0  0  0
    1.8030    4.1844   -0.1802 H   0  0  0  0  0  0  0  0  0  0  0  0
    0.7457    3.9615    1.2349 H   0  0  0  0  0  0  0  0  0  0  0  0
    0.0344    4.0198   -0.4076 H   0  0  0  0  0  0  0  0  0  0  0  0
  1  8  1  0  0  0  0
  2  3  1  0  0  0  0
  3 17  1  0  0  0  0
  4  1  1  0  0  0  0
  5  6  2  0  0  0  0
  5  4  1  0  0  0  0
  6  7  1  0  0  0  0
  7 21  1  0  0  0  0
  7  8  2  0  0  0  0
  8  9  1  0  0  0  0
  9  2  1  1  0  0  0
  9 16  1  0  0  0  0
 10  3  1  0  0  0  0
 10 15  1  0  0  0  0
 11 10  2  0  0  0  0
 12 11  1  0  0  0  0
 12 13  2  0  0  0  0
 13 14  1  0  0  0  0
 14 15  2  0  0  0  0
 14 25  1  0  0  0  0
 15 26  1  0  0  0  0
 16 28  1  0  0  0  0
 18  4  1  0  0  0  0
 19  5  1  0  0  0  0
 20  6  1  0  0  0  0
 22 11  1  0  0  0  0
 23 12  1  0  0  0  0
 24 13  1  0  0  0  0
 27 16  1  0  0  0  0
 29 16  1  0  0  0  0
M  END
