3,4
q = -1.0

 23 25  0  0  1  0  0  0  0  0999 V2000
    0.0721    0.4549   -3.9864 C   0  0  0  0  0  0  0  0  0  0  0  0
   -0.0751    1.4076   -4.5134 H   0  0  0  0  0  0  0  0  0  0  0  0
    0.2029   -0.6686   -1.8468 N   0  0  0  0  0  2  0  0  0  0  0  0
   -0.2409    1.4358   -0.4166 N   0  0  0  0  0  0  0  0  0  0  0  0
   -0.4083    2.9021   -2.1794 N   0  0  0  0  0  0  0  0  0  0  0  0
   -0.2131    1.6436   -1.7761 C   0  0  0  0  0  0  0  0  0  0  0  0
    0.0201    0.4711   -2.5792 C   0  0  1  0  0  3  0  0  0  0  0  0
   -0.4561    2.6791    0.1295 C   0  0  0  0  0  0  0  0  0  0  0  0
    0.4725   -1.9258   -3.8737 C   0  0  0  0  0  0  0  0  0  0  0  0
    0.6514   -2.9014   -4.3457 H   0  0  0  0  0  0  0  0  0  0  0  0
   -0.5656    3.5854   -0.9985 C   0  0  0  0  0  0  0  0  0  0  0  0
    0.3036   -0.7554   -4.6388 C   0  0  0  0  0  0  0  0  0  0  0  0
    0.3497   -0.7966   -5.7372 H   0  0  0  0  0  0  0  0  0  0  0  0
    0.4121   -1.8392   -2.4804 C   0  0  0  0  0  0  0  0  0  0  0  0
    0.5471   -2.7268   -1.8486 H   0  0  0  0  0  0  0  0  0  0  0  0
   -0.8060    4.9627   -0.7875 C   0  0  0  0  0  3  0  0  0  0  0  0
   -0.8872    5.6396   -1.6504 H   0  0  0  0  0  0  0  0  0  0  0  0
   -0.9308    5.4172    0.5240 C   0  0  0  0  0  0  0  0  0  0  0  0
   -1.1165    6.4847    0.7168 H   0  0  0  0  0  0  0  0  0  0  0  0
   -0.5869    3.1592    1.4522 C   0  0  0  0  0  0  0  0  0  0  0  0
   -0.5094    2.4991    2.3237 H   0  0  0  0  0  0  0  0  0  0  0  0
   -0.8217    4.5246    1.6252 C   0  0  0  0  0  0  0  0  0  0  0  0
   -0.9243    4.9216    2.6467 H   0  0  0  0  0  0  0  0  0  0  0  0
  1  7  1  0  0  0  0
  2  1  1  0  0  0  0
  4  8  1  0  0  0  0
  5  6  1  0  0  0  0
  5 11  2  0  0  0  0
  6  4  2  0  0  0  0
  7  3  1  0  0  0  0
  7  6  1  1  0  0  0
  8 20  2  0  0  0  0
  9 14  2  0  0  0  0
 10  9  1  0  0  0  0
 11 16  1  0  0  0  0
 11  8  1  0  0  0  0
 12  1  2  0  0  0  0
 12  9  1  0  0  0  0
 13 12  1  0  0  0  0
 14 15  1  0  0  0  0
 14  3  1  0  0  0  0
 16 18  1  0  0  0  0
 17 16  1  0  0  0  0
 18 19  1  0  0  0  0
 18 22  2  0  0  0  0
 20 22  1  0  0  0  0
 20 21  1  0  0  0  0
 22 23  1  0  0  0  0
M  END
