1,5
q = -1.0

 22 21  0  0  0  0  0  0  0  0999 V2000
   -1.1407   -1.6351    0.3572 N   0  0  0  0  0  2  0  0  0  0  0  0
   -0.5638   -2.8660    0.2598 C   0  0  0  0  0  0  0  0  0  0  0  0
   -1.1186   -3.9612    0.3962 O   0  0  0  0  0  0  0  0  0  0  0  0
    0.9497   -2.7730   -0.0040 C   0  0  0  0  0  0  0  0  0  0  0  0
    1.3169   -1.4765   -0.6250 N   0  0  0  0  0  0  0  0  0  0  0  0
    2.3143   -1.2464   -0.4566 H   0  0  0  0  0  0  0  0  0  0  0  0
    1.1952   -1.5280   -1.6466 H   0  0  0  0  0  0  0  0  0  0  0  0
    1.4778   -2.8516    0.9680 H   0  0  0  0  0  0  0  0  0  0  0  0
    1.2605   -3.6364   -0.6264 H   0  0  0  0  0  0  0  0  0  0  0  0
   -2.5659   -1.5627    0.5863 C   0  0  0  0  0  0  0  0  0  0  0  0
   -2.9240   -2.5551    0.9302 H   0  0  0  0  0  0  0  0  0  0  0  0
   -2.7763   -0.8321    1.3986 H   0  0  0  0  0  0  0  0  0  0  0  0
   -3.3402   -1.1404   -0.6956 C   0  0  0  0  0  0  0  0  0  0  0  0
   -3.6276   -2.0226   -1.2960 H   0  0  0  0  0  0  0  0  0  0  0  0
   -2.6536   -0.5148   -1.3060 H   0  0  0  0  0  0  0  0  0  0  0  0
   -4.5760   -0.3273   -0.4097 C   0  0  0  0  0  0  0  0  0  0  0  0
   -5.7342   -0.6331   -0.5857 O   0  0  0  0  0  0  0  0  0  0  0  0
   -4.2185    0.8963    0.1321 O   0  0  0  0  0  0  0  0  0  0  0  0
   -5.3108    1.7583    0.4837 C   0  0  0  0  0  0  0  0  0  0  0  0
   -4.8581    2.6793    0.8932 H   0  0  0  0  0  0  0  0  0  0  0  0
   -5.9257    1.9943   -0.4073 H   0  0  0  0  0  0  0  0  0  0  0  0
   -5.9627    1.2777    1.2401 H   0  0  0  0  0  0  0  0  0  0  0  0
  1 10  1  0  0  0  0
  2  1  1  0  0  0  0
  2  3  2  0  0  0  0
  4  2  1  0  0  0  0
  4  8  1  0  0  0  0
  5  6  1  0  0  0  0
  5  4  1  0  0  0  0
  7  5  1  0  0  0  0
  9  4  1  0  0  0  0
 10 11  1  0  0  0  0
 10 12  1  0  0  0  0
 13 16  1  0  0  0  0
 13 10  1  0  0  0  0
 14 13  1  0  0  0  0
 15 13  1  0  0  0  0
 16 18  1  0  0  0  0
 17 16  2  0  0  0  0
 18 19  1  0  0  0  0
 19 20  1  0  0  0  0
 19 22  1  0  0  0  0
 21 19  1  0  0  0  0
M  END
