3,4
q = 0.0, confidence = 0.996

 49 54  0  0  0  0  0  0  0  0999 V2000
    1.4513   -4.0649    0.3761 S   0  0  0  0  0  0  0  0  0  0  0  0
    2.3219    2.7210    1.8799 S   0  0  0  0  0  0  0  0  0  0  0  0
    1.3358   -0.0274    0.4354 N   0  0  0  0  0  2  0  0  0  0  0  0
    3.0640   -2.0771    0.1121 N   0  0  0  0  0  2  0  0  0  0  0  0
    0.3008    3.4513    0.4226 N   0  0  0  0  0  0  0  0  0  0  0  0
   -7.1119   -1.0536    0.0595 N   0  0  0  0  0  0  0  0  0  0  0  0
    3.8466   -3.2043    0.0634 C   0  0  0  0  0  0  0  0  0  0  0  0
    4.9294   -3.1041   -0.0817 H   0  0  0  0  0  0  0  0  0  0  0  0
    3.1460   -4.3819    0.1889 C   0  0  0  0  0  0  0  0  0  0  0  0
    3.5293   -5.4082    0.1781 H   0  0  0  0  0  0  0  0  0  0  0  0
    1.7695   -2.3581    0.2655 C   0  0  0  0  0  0  0  0  0  0  0  0
    0.7926   -1.2838    0.3643 C   0  0  0  0  0  0  0  0  0  0  0  0
   -0.5861   -1.5273    0.3707 C   0  0  0  0  0  0  0  0  0  0  0  0
   -0.9439   -2.5620    0.2738 H   0  0  0  0  0  0  0  0  0  0  0  0
   -1.4962   -0.4517    0.4110 C   0  0  0  0  0  0  0  0  0  0  0  0
   -0.9255    0.8322    0.5260 C   0  0  0  0  0  0  0  0  0  0  0  0
   -1.5459    1.7316    0.6273 H   0  0  0  0  0  0  0  0  0  0  0  0
    0.4680    1.0110    0.5724 C   0  0  0  0  0  0  0  0  0  0  0  0
    0.9521    2.3775    0.8262 C   0  0  0  0  0  0  0  0  0  0  0  0
    0.8859    4.5906    0.8917 C   0  0  0  0  0  0  0  0  0  0  0  0
    0.4768    5.5721    0.6123 H   0  0  0  0  0  0  0  0  0  0  0  0
    1.9879    4.4015    1.7101 C   0  0  0  0  0  0  0  0  0  0  0  0
    2.6185    5.1550    2.1971 H   0  0  0  0  0  0  0  0  0  0  0  0
   -2.9569   -0.6535    0.3523 C   0  0  0  0  0  0  0  0  0  0  0  0
   -3.5421   -1.8653    0.8172 C   0  0  0  0  0  0  0  0  0  0  0  0
   -2.8970   -2.6387    1.2590 H   0  0  0  0  0  0  0  0  0  0  0  0
   -4.9199   -2.0915    0.7746 C   0  0  0  0  0  0  0  0  0  0  0  0
   -5.3415   -3.0295    1.1627 H   0  0  0  0  0  0  0  0  0  0  0  0
   -5.7382   -1.0808    0.2379 C   0  0  0  0  0  0  0  0  0  0  0  0
   -7.4715    0.1769   -0.4940 C   0  0  0  0  0  0  0  0  0  0  0  0
   -8.7456    0.6646   -0.8291 C   0  0  0  0  0  0  0  0  0  0  0  0
   -9.6548    0.0712   -0.6557 H   0  0  0  0  0  0  0  0  0  0  0  0
   -8.8226    1.9459   -1.3934 C   0  0  0  0  0  0  0  0  0  0  0  0
   -9.8083    2.3520   -1.6661 H   0  0  0  0  0  0  0  0  0  0  0  0
   -7.6654    2.7253   -1.6161 C   0  0  0  0  0  0  0  0  0  0  0  0
   -7.7644    3.7263   -2.0612 H   0  0  0  0  0  0  0  0  0  0  0  0
   -6.3973    2.2381   -1.2748 C   0  0  0  0  0  0  0  0  0  0  0  0
   -5.4974    2.8474   -1.4479 H   0  0  0  0  0  0  0  0  0  0  0  0
   -6.2907    0.9561   -0.7061 C   0  0  0  0  0  0  0  0  0  0  0  0
   -5.1786    0.1523   -0.2343 C   0  0  0  0  0  0  0  0  0  0  0  0
   -3.7949    0.3561   -0.1705 C   0  0  0  0  0  0  0  0  0  0  0  0
   -3.3610    1.2896   -0.5580 H   0  0  0  0  0  0  0  0  0  0  0  0
   -8.0409   -2.0881    0.4817 C   0  0  0  0  0  0  0  0  0  0  0  0
   -7.5333   -3.0676    0.3660 H   0  0  0  0  0  0  0  0  0  0  0  0
   -8.8874   -2.0957   -0.2354 H   0  0  0  0  0  0  0  0  0  0  0  0
   -8.5441   -1.9014    1.9143 C   0  0  0  0  0  0  0  0  0  0  0  0
   -9.0693   -0.9321    2.0267 H   0  0  0  0  0  0  0  0  0  0  0  0
   -7.7029   -1.9189    2.6357 H   0  0  0  0  0  0  0  0  0  0  0  0
   -9.2504   -2.7108    2.1869 H   0  0  0  0  0  0  0  0  0  0  0  0
  3 18  1  0  0  0  0
  4 11  1  0  0  0  0
  5 19  2  0  0  0  0
  5 20  1  0  0  0  0
  6 29  1  0  0  0  0
  6 43  1  0  0  0  0
  7  4  1  0  0  0  0
  7  9  2  0  0  0  0
  8  7  1  0  0  0  0
  9  1  1  0  0  0  0
 10  9  1  0  0  0  0
 11 12  2  0  0  0  0
 11  1  1  0  0  0  0
 12 13  1  0  0  0  0
 12  3  1  0  0  0  0
 13 15  2  0  0  0  0
 14 13  1  0  0  0  0
 15 16  1  0  0  0  0
 16 18  2  0  0  0  0
 16 17  1  0  0  0  0
 18 19  1  0  0  0  0
 19  2  1  0  0  0  0
 20 22  2  0  0  0  0
 21 20  1  0  0  0  0
 22  2  1  0  0  0  0
 22 23  1  0  0  0  0
 24 15  1  0  0  0  0
 24 25  1  0  0  0  0
 25 26  1  0  0  0  0
 27 25  2  0  0  0  0
 27 28  1  0  0  0  0
 29 27  1  0  0  0  0
 30  6  1  0  0  0  0
 31 32  1  0  0  0  0
 31 30  2  0  0  0  0
 33 31  1  0  0  0  0
 34 33  1  0  0  0  0
 35 33  2  0  0  0  0
 35 37  1  0  0  0  0
 36 35  1  0  0  0  0
 37 39  2  0  0  0  0
 38 37  1  0  0  0  0
 39 30  1  0  0  0  0
 39 40  1  0  0  0  0
 40 41  1  0  0  0  0
 40 29  2  0  0  0  0
 41 24  2  0  0  0  0
 42 41  1  0  0  0  0
 43 46  1  0  0  0  0
 44 43  1  0  0  0  0
 45 43  1  0  0  0  0
 46 47  1  0  0  0  0
 46 49  1  0  0  0  0
 46 48  1  0  0  0  0
M  END
