1,14
q = 0.0, confidence = 0.992

 19 19  0  0  0  0  0  0  0  0999 V2000
    1.3299    0.0642    0.3565 N   0  0  0  0  0  2  0  0  0  0  0  0
    2.0532    0.2015    1.4897 C   0  0  0  0  0  3  0  0  0  0  0  0
    1.4890    0.4494    2.4002 H   0  0  0  0  0  0  0  0  0  0  0  0
    3.4411    0.0388    1.5199 C   0  0  0  0  0  0  0  0  0  0  0  0
    3.9800    0.1566    2.4704 H   0  0  0  0  0  0  0  0  0  0  0  0
    4.1148   -0.2626    0.3275 C   0  0  0  0  0  0  0  0  0  0  0  0
    5.2080   -0.3836    0.3126 H   0  0  0  0  0  0  0  0  0  0  0  0
    3.3656   -0.4081   -0.8467 C   0  0  0  0  0  0  0  0  0  0  0  0
    3.8489   -0.6515   -1.8041 H   0  0  0  0  0  0  0  0  0  0  0  0
    1.9732   -0.2504   -0.7975 C   0  0  0  0  0  0  0  0  0  0  0  0
    1.0721   -0.5195   -1.9669 C   0  0  0  0  0  0  0  0  0  0  0  0
    1.5966   -0.3721   -2.9353 H   0  0  0  0  0  0  0  0  0  0  0  0
    0.7627   -1.5854   -1.8812 H   0  0  0  0  0  0  0  0  0  0  0  0
   -0.1706    0.2771   -1.8769 N   0  0  0  0  0  0  0  0  0  0  0  0
   -0.9381   -0.3287   -2.2033 H   0  0  0  0  0  0  0  0  0  0  0  0
   -0.1330    1.5223   -2.6599 C   0  0  0  0  0  0  0  0  0  0  0  0
    0.6448    2.1955   -2.2521 H   0  0  0  0  0  0  0  0  0  0  0  0
   -1.1070    2.0387   -2.5765 H   0  0  0  0  0  0  0  0  0  0  0  0
    0.0882    1.3298   -3.7331 H   0  0  0  0  0  0  0  0  0  0  0  0
  1  2  1  0  0  0  0
  2  4  1  0  0  0  0
  2  3  1  0  0  0  0
  4  5  1  0  0  0  0
  6  4  2  0  0  0  0
  7  6  1  0  0  0  0
  8 10  2  0  0  0  0
  8  6  1  0  0  0  0
  9  8  1  0  0  0  0
 10  1  1  0  0  0  0
 11 13  1  0  0  0  0
 11 14  1  0  0  0  0
 11 10  1  0  0  0  0
 12 11  1  0  0  0  0
 15 14  1  0  0  0  0
 16 18  1  0  0  0  0
 16 17  1  0  0  0  0
 16 14  1  0  0  0  0
 19 16  1  0  0  0  0
M  END
