2,3
q = 0.0, confidence = 0.988

 32 32  0  0  0  0  0  0  0  0999 V2000
    5.7562    1.0511   -0.5766 Cl  0  0  0  0  0  0  0  0  0  0  0  0
   -0.5868   -1.7382   -0.3646 N   0  0  0  0  0  2  0  0  0  0  0  0
   -2.4004    0.2615   -1.5031 N   0  0  0  0  0  0  0  0  0  0  0  0
    3.0369    0.8514   -0.5541 C   0  0  0  0  0  0  0  0  0  0  0  0
    4.2618    0.1594   -0.5711 C   0  0  0  0  0  0  0  0  0  0  0  0
    4.2965   -1.2465   -0.5896 C   0  0  0  0  0  0  0  0  0  0  0  0
    5.2624   -1.7697   -0.6083 H   0  0  0  0  0  0  0  0  0  0  0  0
    3.0915   -1.9529   -0.5869 C   0  0  0  0  0  0  0  0  0  0  0  0
    3.1140   -3.0541   -0.6054 H   0  0  0  0  0  0  0  0  0  0  0  0
    1.8437   -1.2819   -0.5476 C   0  0  0  0  0  0  0  0  0  0  0  0
    1.8394    0.1360   -0.5397 C   0  0  0  0  0  0  0  0  0  0  0  0
    0.8924    0.7059   -0.5210 H   0  0  0  0  0  0  0  0  0  0  0  0
    0.6431   -2.1101   -0.5586 C   0  0  0  0  0  3  0  0  0  0  0  0
    0.8107   -3.1881   -0.7664 H   0  0  0  0  0  0  0  0  0  0  0  0
   -1.6740   -2.6951   -0.5301 C   0  0  0  0  0  0  0  0  0  0  0  0
   -2.2407   -2.6971    0.4236 H   0  0  0  0  0  0  0  0  0  0  0  0
   -1.2642   -3.7165   -0.6959 H   0  0  0  0  0  0  0  0  0  0  0  0
   -2.5593   -2.2995   -1.7179 C   0  0  0  0  0  0  0  0  0  0  0  0
   -3.2675   -0.9495   -1.6063 C   0  0  0  0  0  0  0  0  0  0  0  0
   -3.9200   -0.9415   -0.7095 H   0  0  0  0  0  0  0  0  0  0  0  0
   -3.9279   -0.8204   -2.4970 H   0  0  0  0  0  0  0  0  0  0  0  0
   -1.4894    0.4159   -2.6612 C   0  0  0  0  0  0  0  0  0  0  0  0
   -3.2801    1.4517   -1.4320 C   0  0  0  0  0  0  0  0  0  0  0  0
   -3.8723    1.4265   -0.5005 H   0  0  0  0  0  0  0  0  0  0  0  0
   -3.9590    1.4671   -2.3145 H   0  0  0  0  0  0  0  0  0  0  0  0
   -2.6521    2.3583   -1.4362 H   0  0  0  0  0  0  0  0  0  0  0  0
    3.0174    1.9500   -0.5475 H   0  0  0  0  0  0  0  0  0  0  0  0
   -3.3559   -3.0655   -1.8192 H   0  0  0  0  0  0  0  0  0  0  0  0
   -1.9673   -2.3522   -2.6564 H   0  0  0  0  0  0  0  0  0  0  0  0
   -2.0711    0.4985   -3.6082 H   0  0  0  0  0  0  0  0  0  0  0  0
   -0.8025   -0.4459   -2.7304 H   0  0  0  0  0  0  0  0  0  0  0  0
   -0.8919    1.3315   -2.4946 H   0  0  0  0  0  0  0  0  0  0  0  0
  1  5  1  0  0  0  0
  3 23  1  0  0  0  0
  4 27  1  0  0  0  0
  4 11  1  0  0  0  0
  5  4  2  0  0  0  0
  6  8  2  0  0  0  0
  6  5  1  0  0  0  0
  7  6  1  0  0  0  0
  8 10  1  0  0  0  0
  9  8  1  0  0  0  0
 10 11  2  0  0  0  0
 11 12  1  0  0  0  0
 13 10  1  0  0  0  0
 13  2  1  0  0  0  0
 14 13  1  0  0  0  0
 15  2  1  0  0  0  0
 15 16  1  0  0  0  0
 17 15  1  0  0  0  0
 18 19  1  0  0  0  0
 18 15  1  0  0  0  0
 19  3  1  0  0  0  0
 19 20  1  0  0  0  0
 21 19  1  0  0  0  0
 22 32  1  0  0  0  0
 22  3  1  0  0  0  0
 23 24  1  0  0  0  0
 25 23  1  0  0  0  0
 26 23  1  0  0  0  0
 28 18  1  0  0  0  0
 29 18  1  0  0  0  0
 30 22  1  0  0  0  0
 31 22  1  0  0  0  0
M  END
