18,31
q = -1.0

 48 49  0  0  1  0  0  0  0  0999 V2000
   -2.7911    0.5493   -0.0311 C   0  0  0  0  0  0  0  0  0  0  0  0
   -3.5263    0.7860    1.1451 C   0  0  0  0  0  0  0  0  0  0  0  0
   -3.0689    1.3867    1.9470 H   0  0  0  0  0  0  0  0  0  0  0  0
   -4.8168    0.2433    1.3091 C   0  0  0  0  0  0  0  0  0  0  0  0
   -5.6070    0.5137    2.5662 C   0  0  0  0  0  0  0  0  0  0  0  0
   -4.9616    0.4950    3.4675 H   0  0  0  0  0  0  0  0  0  0  0  0
   -6.4183   -0.2269    2.7072 H   0  0  0  0  0  0  0  0  0  0  0  0
   -6.0804    1.5186    2.5306 H   0  0  0  0  0  0  0  0  0  0  0  0
   -5.3530   -0.5386    0.2686 C   0  0  0  0  0  0  0  0  0  0  0  0
   -6.3559   -0.9796    0.3926 H   0  0  0  0  0  0  0  0  0  0  0  0
   -4.6410   -0.7735   -0.9275 C   0  0  0  0  0  0  0  0  0  0  0  0
   -5.2545   -1.5828   -2.0437 C   0  0  0  0  0  0  0  0  0  0  0  0
   -5.8664   -0.9377   -2.7105 H   0  0  0  0  0  0  0  0  0  0  0  0
   -5.9251   -2.3750   -1.6551 H   0  0  0  0  0  0  0  0  0  0  0  0
   -4.4786   -2.0584   -2.6749 H   0  0  0  0  0  0  0  0  0  0  0  0
   -3.3559   -0.2216   -1.0674 C   0  0  0  0  0  0  0  0  0  0  0  0
   -2.7406   -0.4047   -1.9626 H   0  0  0  0  0  0  0  0  0  0  0  0
   -1.4569    1.0307   -0.1687 N   0  0  0  0  0  2  0  0  0  0  0  0
   -1.2646    2.3019   -0.5333 C   0  0  2  0  0  3  0  0  0  0  0  0
   -2.4762    3.1752   -0.7927 C   0  0  0  0  0  0  0  0  0  0  0  0
   -3.1460    2.6991   -1.5369 H   0  0  0  0  0  0  0  0  0  0  0  0
   -2.1684    4.1661   -1.1715 H   0  0  0  0  0  0  0  0  0  0  0  0
   -3.0821    3.3194    0.1239 H   0  0  0  0  0  0  0  0  0  0  0  0
   -0.0000    2.8935   -0.7150 C   0  0  0  0  0  0  0  0  0  0  0  0
   -0.0001    3.9438   -1.0306 H   0  0  0  0  0  0  0  0  0  0  0  0
    1.2646    2.3016   -0.5352 C   0  0  0  0  0  0  0  0  0  0  0  0
    2.4760    3.1747   -0.7965 C   0  0  0  0  0  0  0  0  0  0  0  0
    3.0818    3.3212    0.1198 H   0  0  0  0  0  0  0  0  0  0  0  0
    2.1679    4.1647   -1.1774 H   0  0  0  0  0  0  0  0  0  0  0  0
    3.1460    2.6971   -1.5397 H   0  0  0  0  0  0  0  0  0  0  0  0
    1.4572    1.0303   -0.1710 N   0  0  0  0  0  2  0  0  0  0  0  0
    2.7914    0.5492   -0.0330 C   0  0  0  0  0  0  0  0  0  0  0  0
    3.5276    0.7897    1.1419 C   0  0  0  0  0  0  0  0  0  0  0  0
    3.0706    1.3927    1.9423 H   0  0  0  0  0  0  0  0  0  0  0  0
    4.8179    0.2472    1.3069 C   0  0  0  0  0  0  0  0  0  0  0  0
    5.6098    0.5222    2.5620 C   0  0  0  0  0  0  0  0  0  0  0  0
    6.4118   -0.2267    2.7125 H   0  0  0  0  0  0  0  0  0  0  0  0
    4.9632    0.5219    3.4625 H   0  0  0  0  0  0  0  0  0  0  0  0
    6.0960    1.5205    2.5152 H   0  0  0  0  0  0  0  0  0  0  0  0
    5.3530   -0.5390    0.2689 C   0  0  0  0  0  0  0  0  0  0  0  0
    6.3556   -0.9801    0.3937 H   0  0  0  0  0  0  0  0  0  0  0  0
    4.6399   -0.7779   -0.9258 C   0  0  0  0  0  0  0  0  0  0  0  0
    5.2520   -1.5917   -2.0395 C   0  0  0  0  0  0  0  0  0  0  0  0
    4.4754   -2.0743   -2.6645 H   0  0  0  0  0  0  0  0  0  0  0  0
    5.9275   -2.3787   -1.6490 H   0  0  0  0  0  0  0  0  0  0  0  0
    5.8582   -0.9482   -2.7130 H   0  0  0  0  0  0  0  0  0  0  0  0
    3.3550   -0.2258   -1.0668 C   0  0  0  0  0  0  0  0  0  0  0  0
    2.7391   -0.4116   -1.9610 H   0  0  0  0  0  0  0  0  0  0  0  0
  1  2  1  0  0  0  0
  2  4  2  0  0  0  0
  2  3  1  0  0  0  0
  4  5  1  0  0  0  0
  5  7  1  0  0  0  0
  5  6  1  0  0  0  0
  8  5  1  0  0  0  0
  9 10  1  0  0  0  0
  9  4  1  0  0  0  0
 11  9  2  0  0  0  0
 12 14  1  0  0  0  0
 12 11  1  0  0  0  0
 13 12  1  0  0  0  0
 15 12  1  0  0  0  0
 16 11  1  0  0  0  0
 16  1  2  0  0  0  0
 17 16  1  0  0  0  0
 18  1  1  0  0  0  0
 19 24  1  6  0  0  0
 19 18  1  0  0  0  0
 20 19  1  0  0  0  0
 20 23  1  0  0  0  0
 21 20  1  0  0  0  0
 22 20  1  0  0  0  0
 24 26  2  0  0  0  0
 25 24  1  0  0  0  0
 26 31  1  0  0  0  0
 27 26  1  0  0  0  0
 27 28  1  0  0  0  0
 29 27  1  0  0  0  0
 30 27  1  0  0  0  0
 31 32  1  0  0  0  0
 32 33  1  0  0  0  0
 33 35  2  0  0  0  0
 33 34  1  0  0  0  0
 35 36  1  0  0  0  0
 36 37  1  0  0  0  0
 36 38  1  0  0  0  0
 39 36  1  0  0  0  0
 40 41  1  0  0  0  0
 40 35  1  0  0  0  0
 42 40  2  0  0  0  0
 43 45  1  0  0  0  0
 43 42  1  0  0  0  0
 44 43  1  0  0  0  0
 46 43  1  0  0  0  0
 47 42  1  0  0  0  0
 47 32  2  0  0  0  0
 48 47  1  0  0  0  0
M  END
