1,2
q = 0.0, confidence = 1.0

 34 34  0  0  1  0  0  0  0  0999 V2000
   -0.5596   -0.0850    1.4665 N   0  0  0  0  0  0  0  0  0  0  0  0
   -0.5880   -0.3275   -1.4566 N   0  0  0  0  0  0  0  0  0  0  0  0
   -0.6416    0.8551   -2.3394 C   0  0  0  0  0  0  0  0  0  0  0  0
    0.3720    1.0468   -2.7383 H   0  0  0  0  0  0  0  0  0  0  0  0
   -0.9225    1.7553   -1.7626 H   0  0  0  0  0  0  0  0  0  0  0  0
   -1.3436    0.7108   -3.1895 H   0  0  0  0  0  0  0  0  0  0  0  0
   -0.2784    0.9285    2.5004 C   0  0  0  0  0  0  0  0  0  0  0  0
   -0.1943    1.9254    2.0276 H   0  0  0  0  0  0  0  0  0  0  0  0
    0.6970    0.6986    2.9706 H   0  0  0  0  0  0  0  0  0  0  0  0
   -1.0571    0.9396    3.2959 H   0  0  0  0  0  0  0  0  0  0  0  0
   -0.5390   -1.4341    2.0616 C   0  0  0  0  0  0  0  0  0  0  0  0
    0.4901   -1.6551    2.4021 H   0  0  0  0  0  0  0  0  0  0  0  0
   -0.7878   -2.1994    1.3035 H   0  0  0  0  0  0  0  0  0  0  0  0
   -1.2407   -1.5244    2.9199 H   0  0  0  0  0  0  0  0  0  0  0  0
   -0.2390   -1.5276   -2.2394 C   0  0  0  0  0  0  0  0  0  0  0  0
   -1.0377   -1.7911   -2.9702 H   0  0  0  0  0  0  0  0  0  0  0  0
   -0.0482   -2.3779   -1.5582 H   0  0  0  0  0  0  0  0  0  0  0  0
    0.7005   -1.3405   -2.7927 H   0  0  0  0  0  0  0  0  0  0  0  0
   -3.0926    0.0166    1.4903 C   0  0  0  0  0  0  0  0  0  0  0  0
   -3.1373   -1.0432    1.8213 H   0  0  0  0  0  0  0  0  0  0  0  0
   -3.0651    0.6339    2.4112 H   0  0  0  0  0  0  0  0  0  0  0  0
   -3.1288   -0.2694   -1.4285 C   0  0  0  0  0  0  0  0  0  0  0  0
   -3.1388   -0.8794   -2.3555 H   0  0  0  0  0  0  0  0  0  0  0  0
   -3.1411    0.7937   -1.7477 H   0  0  0  0  0  0  0  0  0  0  0  0
   -1.8316   -0.5488   -0.6481 C   0  0  2  0  0  0  0  0  0  0  0  0
   -1.8247   -1.6296   -0.3917 H   0  0  0  0  0  0  0  0  0  0  0  0
   -1.7963    0.2347    0.6876 C   0  0  2  0  0  0  0  0  0  0  0  0
   -1.7064    1.3158    0.4393 H   0  0  0  0  0  0  0  0  0  0  0  0
   -4.3836   -0.5316   -0.5924 C   0  0  0  0  0  0  0  0  0  0  0  0
   -5.2896   -0.3147   -1.1947 H   0  0  0  0  0  0  0  0  0  0  0  0
   -4.4387   -1.6083   -0.3168 H   0  0  0  0  0  0  0  0  0  0  0  0
   -4.3539    0.3202    0.6783 C   0  0  0  0  0  0  0  0  0  0  0  0
   -4.3744    1.3978    0.4017 H   0  0  0  0  0  0  0  0  0  0  0  0
   -5.2550    0.1388    1.2994 H   0  0  0  0  0  0  0  0  0  0  0  0
  1 11  1  0  0  0  0
  1  7  1  0  0  0  0
  2 25  1  0  0  0  0
  3  5  1  0  0  0  0
  3  2  1  0  0  0  0
  4  3  1  0  0  0  0
  6  3  1  0  0  0  0
  7  9  1  0  0  0  0
  7 10  1  0  0  0  0
  8  7  1  0  0  0  0
 11 12  1  0  0  0  0
 11 14  1  0  0  0  0
 13 11  1  0  0  0  0
 15 17  1  0  0  0  0
 15  2  1  0  0  0  0
 16 15  1  0  0  0  0
 18 15  1  0  0  0  0
 19 20  1  0  0  0  0
 19 21  1  0  0  0  0
 22 25  1  0  0  0  0
 22 29  1  0  0  0  0
 23 22  1  0  0  0  0
 24 22  1  0  0  0  0
 25 26  1  1  0  0  0
 25 27  1  0  0  0  0
 27 28  1  6  0  0  0
 27  1  1  0  0  0  0
 27 19  1  0  0  0  0
 29 31  1  0  0  0  0
 29 32  1  0  0  0  0
 30 29  1  0  0  0  0
 32 34  1  0  0  0  0
 32 19  1  0  0  0  0
 33 32  1  0  0  0  0
M  END
