1,2
q = 0.0, confidence = 1.0

 53 56  0  0  1  0  0  0  0  0999 V2000
    1.5678    0.5044   -0.2882 N   0  0  0  0  0  2  0  0  0  0  0  0
   -1.5679   -0.5046   -0.2881 N   0  0  0  0  0  2  0  0  0  0  0  0
    3.0923    0.5170    1.3588 N   0  0  0  0  0  0  0  0  0  0  0  0
   -3.0925   -0.5171    1.3588 N   0  0  0  0  0  0  0  0  0  0  0  0
   -0.0002    0.0001    2.9095 S   0  0  0  0  0  0  0  0  0  0  0  0
    2.5987    1.3629   -0.6587 C   0  0  0  0  0  0  0  0  0  0  0  0
    2.7711    2.1364   -1.8218 C   0  0  0  0  0  0  0  0  0  0  0  0
    1.9946    2.1303   -2.6029 H   0  0  0  0  0  0  0  0  0  0  0  0
    3.9285    2.9180   -1.9046 C   0  0  0  0  0  0  0  0  0  0  0  0
    4.0953    3.5371   -2.7985 H   0  0  0  0  0  0  0  0  0  0  0  0
    4.8922    2.9334   -0.8662 C   0  0  0  0  0  0  0  0  0  0  0  0
    5.7891    3.5617   -0.9736 H   0  0  0  0  0  0  0  0  0  0  0  0
    4.7343    2.1652    0.2944 C   0  0  0  0  0  0  0  0  0  0  0  0
    5.4902    2.1752    1.0922 H   0  0  0  0  0  0  0  0  0  0  0  0
    3.5724    1.3809    0.3782 C   0  0  0  0  0  0  0  0  0  0  0  0
    1.8993    0.0007    0.9056 C   0  0  1  0  0  3  0  0  0  0  0  0
    1.0446   -0.9200    1.6974 C   0  0  0  0  0  0  0  0  0  0  0  0
    1.6387   -1.6407    2.2886 H   0  0  0  0  0  0  0  0  0  0  0  0
    0.4045   -1.5113    1.0151 H   0  0  0  0  0  0  0  0  0  0  0  0
    3.7216    0.2279    2.6441 C   0  0  0  0  0  0  0  0  0  0  0  0
    2.9198    0.2038    3.4102 H   0  0  0  0  0  0  0  0  0  0  0  0
    4.3640    1.0981    2.8890 H   0  0  0  0  0  0  0  0  0  0  0  0
    4.5419   -1.0676    2.6603 C   0  0  0  0  0  0  0  0  0  0  0  0
    3.8655   -1.9274    2.4676 H   0  0  0  0  0  0  0  0  0  0  0  0
    4.9247   -1.2012    3.6947 H   0  0  0  0  0  0  0  0  0  0  0  0
    5.6943   -1.0894    1.6574 C   0  0  0  0  0  0  0  0  0  0  0  0
    5.3279   -0.9732    0.6174 H   0  0  0  0  0  0  0  0  0  0  0  0
    6.2486   -2.0473    1.7104 H   0  0  0  0  0  0  0  0  0  0  0  0
    6.4201   -0.2722    1.8497 H   0  0  0  0  0  0  0  0  0  0  0  0
   -2.5987   -1.3632   -0.6586 C   0  0  0  0  0  0  0  0  0  0  0  0
   -2.7709   -2.1368   -1.8216 C   0  0  0  0  0  0  0  0  0  0  0  0
   -1.9944   -2.1307   -2.6026 H   0  0  0  0  0  0  0  0  0  0  0  0
   -3.9283   -2.9185   -1.9044 C   0  0  0  0  0  0  0  0  0  0  0  0
   -4.0949   -3.5377   -2.7982 H   0  0  0  0  0  0  0  0  0  0  0  0
   -4.8921   -2.9339   -0.8661 C   0  0  0  0  0  0  0  0  0  0  0  0
   -5.7889   -3.5622   -0.9735 H   0  0  0  0  0  0  0  0  0  0  0  0
   -4.7343   -2.1655    0.2944 C   0  0  0  0  0  0  0  0  0  0  0  0
   -5.4903   -2.1754    1.0922 H   0  0  0  0  0  0  0  0  0  0  0  0
   -3.5724   -1.3811    0.3782 C   0  0  0  0  0  0  0  0  0  0  0  0
   -1.8995   -0.0007    0.9056 C   0  0  1  0  0  3  0  0  0  0  0  0
   -1.0449    0.9201    1.6974 C   0  0  0  0  0  0  0  0  0  0  0  0
   -1.6391    1.6408    2.2887 H   0  0  0  0  0  0  0  0  0  0  0  0
   -0.4049    1.5115    1.0151 H   0  0  0  0  0  0  0  0  0  0  0  0
   -3.7219   -0.2279    2.6440 C   0  0  0  0  0  0  0  0  0  0  0  0
   -2.9202   -0.2039    3.4102 H   0  0  0  0  0  0  0  0  0  0  0  0
   -4.3645   -1.0980    2.8888 H   0  0  0  0  0  0  0  0  0  0  0  0
   -4.5421    1.0677    2.6600 C   0  0  0  0  0  0  0  0  0  0  0  0
   -3.8655    1.9274    2.4676 H   0  0  0  0  0  0  0  0  0  0  0  0
   -4.9251    1.2013    3.6944 H   0  0  0  0  0  0  0  0  0  0  0  0
   -5.6942    1.0897    1.6569 C   0  0  0  0  0  0  0  0  0  0  0  0
   -5.3275    0.9736    0.6169 H   0  0  0  0  0  0  0  0  0  0  0  0
   -6.2484    2.0477    1.7099 H   0  0  0  0  0  0  0  0  0  0  0  0
   -6.4201    0.2726    1.8489 H   0  0  0  0  0  0  0  0  0  0  0  0
  1 16  1  0  0  0  0
  2 40  1  0  0  0  0
  3 20  1  0  0  0  0
  4 44  1  0  0  0  0
  6  1  1  0  0  0  0
  6 15  1  0  0  0  0
  7  6  2  0  0  0  0
  8  7  1  0  0  0  0
  9  7  1  0  0  0  0
  9 11  2  0  0  0  0
 10  9  1  0  0  0  0
 11 13  1  0  0  0  0
 12 11  1  0  0  0  0
 13 15  2  0  0  0  0
 13 14  1  0  0  0  0
 15  3  1  0  0  0  0
 16  3  1  0  0  0  0
 16 17  1  1  0  0  0
 17 18  1  0  0  0  0
 17  5  1  0  0  0  0
 19 17  1  0  0  0  0
 20 23  1  0  0  0  0
 20 22  1  0  0  0  0
 20 21  1  0  0  0  0
 23 25  1  0  0  0  0
 24 23  1  0  0  0  0
 26 28  1  0  0  0  0
 26 29  1  0  0  0  0
 26 23  1  0  0  0  0
 27 26  1  0  0  0  0
 30  2  1  0  0  0  0
 30 39  1  0  0  0  0
 31 30  2  0  0  0  0
 32 31  1  0  0  0  0
 33 31  1  0  0  0  0
 33 35  2  0  0  0  0
 34 33  1  0  0  0  0
 35 37  1  0  0  0  0
 36 35  1  0  0  0  0
 37 39  2  0  0  0  0
 37 38  1  0  0  0  0
 39  4  1  0  0  0  0
 40  4  1  0  0  0  0
 40 41  1  1  0  0  0
 41 42  1  0  0  0  0
 41  5  1  0  0  0  0
 43 41  1  0  0  0  0
 44 47  1  0  0  0  0
 44 46  1  0  0  0  0
 44 45  1  0  0  0  0
 47 49  1  0  0  0  0
 48 47  1  0  0  0  0
 50 52  1  0  0  0  0
 50 53  1  0  0  0  0
 50 47  1  0  0  0  0
 51 50  1  0  0  0  0
M  END
