1,3
q = -1.0

 72 74  0  0  0  0  0  0  0  0999 V2000
    1.1054   -0.2039   -0.0134 N   0  0  0  0  0  2  0  0  0  0  0  0
   -0.0001    0.5542   -0.0001 C   0  0  0  0  0  3  0  0  0  0  0  0
   -1.1054   -0.2043    0.0133 N   0  0  0  0  0  2  0  0  0  0  0  0
   -0.0004    2.0485   -0.0003 C   0  0  0  0  0  0  0  0  0  0  0  0
    1.0372    2.7696   -0.6306 C   0  0  0  0  0  0  0  0  0  0  0  0
    1.8515    2.2285   -1.1273 H   0  0  0  0  0  0  0  0  0  0  0  0
    1.0344    4.1708   -0.6326 C   0  0  0  0  0  0  0  0  0  0  0  0
    1.8514    4.7127   -1.1329 H   0  0  0  0  0  0  0  0  0  0  0  0
   -0.0008    4.8782   -0.0008 C   0  0  0  0  0  0  0  0  0  0  0  0
   -0.0010    5.9793   -0.0010 H   0  0  0  0  0  0  0  0  0  0  0  0
   -1.0359    4.1707    0.6312 C   0  0  0  0  0  0  0  0  0  0  0  0
   -1.8530    4.7125    1.1313 H   0  0  0  0  0  0  0  0  0  0  0  0
   -1.0382    2.7695    0.6298 C   0  0  0  0  0  0  0  0  0  0  0  0
   -1.8523    2.2283    1.1266 H   0  0  0  0  0  0  0  0  0  0  0  0
    2.4201    0.2172    0.2599 C   0  0  0  0  0  0  0  0  0  0  0  0
    3.4243   -0.0318   -0.7282 C   0  0  0  0  0  0  0  0  0  0  0  0
    4.7345    0.4174   -0.4941 C   0  0  0  0  0  0  0  0  0  0  0  0
    5.5053    0.2352   -1.2580 H   0  0  0  0  0  0  0  0  0  0  0  0
    5.0755    1.0949    0.6842 C   0  0  0  0  0  0  0  0  0  0  0  0
    6.1067    1.4466    0.8461 H   0  0  0  0  0  0  0  0  0  0  0  0
    4.0967    1.3012    1.6604 C   0  0  0  0  0  0  0  0  0  0  0  0
    4.3673    1.8062    2.6014 H   0  0  0  0  0  0  0  0  0  0  0  0
    2.7695    0.8631    1.4855 C   0  0  0  0  0  0  0  0  0  0  0  0
    1.7902    1.0562    2.6381 C   0  0  0  0  0  0  0  0  0  0  0  0
    0.8081    0.6514    2.3246 H   0  0  0  0  0  0  0  0  0  0  0  0
    2.2233    0.2262    3.8598 C   0  0  0  0  0  0  0  0  0  0  0  0
    2.3039   -0.8438    3.5905 H   0  0  0  0  0  0  0  0  0  0  0  0
    1.4710    0.3141    4.6715 H   0  0  0  0  0  0  0  0  0  0  0  0
    3.2003    0.5730    4.2591 H   0  0  0  0  0  0  0  0  0  0  0  0
    1.6142    2.5360    3.0201 C   0  0  0  0  0  0  0  0  0  0  0  0
    2.5506    2.9556    3.4459 H   0  0  0  0  0  0  0  0  0  0  0  0
    0.8228    2.6445    3.7909 H   0  0  0  0  0  0  0  0  0  0  0  0
    1.3314    3.1593    2.1507 H   0  0  0  0  0  0  0  0  0  0  0  0
    3.0654   -0.7179   -2.0382 C   0  0  0  0  0  0  0  0  0  0  0  0
    2.2111   -1.3874   -1.8287 H   0  0  0  0  0  0  0  0  0  0  0  0
    4.1880   -1.5992   -2.5955 C   0  0  0  0  0  0  0  0  0  0  0  0
    3.8084   -2.1844   -3.4578 H   0  0  0  0  0  0  0  0  0  0  0  0
    4.5395   -2.3181   -1.8288 H   0  0  0  0  0  0  0  0  0  0  0  0
    5.0618   -1.0131   -2.9547 H   0  0  0  0  0  0  0  0  0  0  0  0
    2.5703    0.2911   -3.0881 C   0  0  0  0  0  0  0  0  0  0  0  0
    3.3508    1.0444   -3.3321 H   0  0  0  0  0  0  0  0  0  0  0  0
    1.6665    0.8251   -2.7347 H   0  0  0  0  0  0  0  0  0  0  0  0
    2.2841   -0.2347   -4.0221 H   0  0  0  0  0  0  0  0  0  0  0  0
   -2.4202    0.2165   -0.2599 C   0  0  0  0  0  0  0  0  0  0  0  0
   -2.7699    0.8620   -1.4857 C   0  0  0  0  0  0  0  0  0  0  0  0
   -4.0971    1.2999   -1.6606 C   0  0  0  0  0  0  0  0  0  0  0  0
   -4.3679    1.8046   -2.6017 H   0  0  0  0  0  0  0  0  0  0  0  0
   -5.0757    1.0938   -0.6842 C   0  0  0  0  0  0  0  0  0  0  0  0
   -6.1070    1.4454   -0.8461 H   0  0  0  0  0  0  0  0  0  0  0  0
   -4.7346    0.4167    0.4943 C   0  0  0  0  0  0  0  0  0  0  0  0
   -5.5052    0.2346    1.2584 H   0  0  0  0  0  0  0  0  0  0  0  0
   -3.4242   -0.0323    0.7283 C   0  0  0  0  0  0  0  0  0  0  0  0
   -3.0651   -0.7179    2.0386 C   0  0  0  0  0  0  0  0  0  0  0  0
   -2.2104   -1.3870    1.8293 H   0  0  0  0  0  0  0  0  0  0  0  0
   -4.1873   -1.5996    2.5959 C   0  0  0  0  0  0  0  0  0  0  0  0
   -5.0615   -1.0139    2.9549 H   0  0  0  0  0  0  0  0  0  0  0  0
   -3.8075   -2.1843    3.4585 H   0  0  0  0  0  0  0  0  0  0  0  0
   -4.5383   -2.3190    1.8294 H   0  0  0  0  0  0  0  0  0  0  0  0
   -2.5706    0.2917    3.0882 C   0  0  0  0  0  0  0  0  0  0  0  0
   -3.3516    1.0446    3.3319 H   0  0  0  0  0  0  0  0  0  0  0  0
   -1.6672    0.8262    2.7346 H   0  0  0  0  0  0  0  0  0  0  0  0
   -2.2842   -0.2337    4.0224 H   0  0  0  0  0  0  0  0  0  0  0  0
   -1.7907    1.0548   -2.6385 C   0  0  0  0  0  0  0  0  0  0  0  0
   -0.8084    0.6503   -2.3249 H   0  0  0  0  0  0  0  0  0  0  0  0
   -2.2238    0.2242   -3.8598 C   0  0  0  0  0  0  0  0  0  0  0  0
   -2.3040   -0.8457   -3.5899 H   0  0  0  0  0  0  0  0  0  0  0  0
   -1.4716    0.3118   -4.6715 H   0  0  0  0  0  0  0  0  0  0  0  0
   -3.2009    0.5706   -4.2590 H   0  0  0  0  0  0  0  0  0  0  0  0
   -1.6149    2.5344   -3.0211 C   0  0  0  0  0  0  0  0  0  0  0  0
   -2.5515    2.9537   -3.4469 H   0  0  0  0  0  0  0  0  0  0  0  0
   -0.8236    2.6427   -3.7920 H   0  0  0  0  0  0  0  0  0  0  0  0
   -1.3321    3.1582   -2.1520 H   0  0  0  0  0  0  0  0  0  0  0  0
  1  2  1  0  0  0  0
  1 15  1  0  0  0  0
  2  3  1  0  0  0  0
  4  2  1  0  0  0  0
  4 13  1  0  0  0  0
  5  4  2  0  0  0  0
  6  5  1  0  0  0  0
  7  5  1  0  0  0  0
  7  9  2  0  0  0  0
  8  7  1  0  0  0  0
  9 11  1  0  0  0  0
 10  9  1  0  0  0  0
 11 12  1  0  0  0  0
 13 11  2  0  0  0  0
 13 14  1  0  0  0  0
 15 23  1  0  0  0  0
 16 17  1  0  0  0  0
 16 15  2  0  0  0  0
 17 19  2  0  0  0  0
 18 17  1  0  0  0  0
 19 20  1  0  0  0  0
 19 21  1  0  0  0  0
 21 22  1  0  0  0  0
 23 21  2  0  0  0  0
 23 24  1  0  0  0  0
 24 30  1  0  0  0  0
 24 26  1  0  0  0  0
 25 24  1  0  0  0  0
 26 29  1  0  0  0  0
 26 28  1  0  0  0  0
 27 26  1  0  0  0  0
 30 31  1  0  0  0  0
 30 32  1  0  0  0  0
 33 30  1  0  0  0  0
 34 35  1  0  0  0  0
 34 16  1  0  0  0  0
 36 34  1  0  0  0  0
 36 38  1  0  0  0  0
 37 36  1  0  0  0  0
 39 36  1  0  0  0  0
 40 42  1  0  0  0  0
 40 34  1  0  0  0  0
 41 40  1  0  0  0  0
 43 40  1  0  0  0  0
 44  3  1  0  0  0  0
 44 52  1  0  0  0  0
 45 44  2  0  0  0  0
 46 45  1  0  0  0  0
 46 48  2  0  0  0  0
 47 46  1  0  0  0  0
 48 50  1  0  0  0  0
 49 48  1  0  0  0  0
 50 52  2  0  0  0  0
 50 51  1  0  0  0  0
 52 53  1  0  0  0  0
 53 55  1  0  0  0  0
 53 59  1  0  0  0  0
 54 53  1  0  0  0  0
 55 56  1  0  0  0  0
 55 57  1  0  0  0  0
 58 55  1  0  0  0  0
 59 60  1  0  0  0  0
 59 62  1  0  0  0  0
 61 59  1  0  0  0  0
 63 64  1  0  0  0  0
 63 45  1  0  0  0  0
 65 66  1  0  0  0  0
 65 63  1  0  0  0  0
 67 65  1  0  0  0  0
 68 65  1  0  0  0  0
 69 63  1  0  0  0  0
 69 72  1  0  0  0  0
 70 69  1  0  0  0  0
 71 69  1  0  0  0  0
M  END
