1,2
q = 0.0, confidence = 0.996

 33 34  0  0  1  0  0  0  0  0999 V2000
    1.4410    1.3468    0.0681 N   0  0  0  0  0  2  0  0  0  0  0  0
   -0.7831   -0.1290    0.3746 N   0  0  0  0  0  2  0  0  0  0  0  0
    2.5773    2.0783   -0.0715 C   0  0  0  0  0  0  0  0  0  0  0  0
    2.5321    3.4913   -0.0431 C   0  0  0  0  0  0  0  0  0  0  0  0
    1.3208    4.1679    0.1361 C   0  0  0  0  0  0  0  0  0  0  0  0
    0.1575    3.4122    0.2938 C   0  0  0  0  0  0  0  0  0  0  0  0
    0.2550    2.0086    0.2566 C   0  0  0  0  0  0  0  0  0  0  0  0
    3.8871    1.3811   -0.2495 C   0  0  0  0  0  0  0  0  0  0  0  0
   -0.9120    1.1761    0.4325 C   0  0  0  0  0  0  0  0  0  0  0  0
   -1.9851   -0.9606    0.6818 C   0  0  1  0  0  0  0  0  0  0  0  0
   -2.0065   -1.2371    2.1865 C   0  0  0  0  0  0  0  0  0  0  0  0
   -3.2565   -0.3582    0.1016 C   0  0  0  0  0  0  0  0  0  0  0  0
   -3.3982   -0.3231   -1.3028 C   0  0  0  0  0  0  0  0  0  0  0  0
   -4.5365    0.2367   -1.8958 C   0  0  0  0  0  0  0  0  0  0  0  0
   -5.5595    0.7692   -1.0923 C   0  0  0  0  0  0  0  0  0  0  0  0
   -5.4329    0.7347    0.3034 C   0  0  0  0  0  0  0  0  0  0  0  0
   -4.2881    0.1751    0.8966 C   0  0  0  0  0  0  0  0  0  0  0  0
    3.4725    4.0478   -0.1627 H   0  0  0  0  0  0  0  0  0  0  0  0
    1.2881    5.2672    0.1557 H   0  0  0  0  0  0  0  0  0  0  0  0
   -0.8247    3.8827    0.4443 H   0  0  0  0  0  0  0  0  0  0  0  0
    4.7137    2.1114   -0.3214 H   0  0  0  0  0  0  0  0  0  0  0  0
    3.8736    0.7329   -1.1482 H   0  0  0  0  0  0  0  0  0  0  0  0
    4.0772    0.6793    0.5864 H   0  0  0  0  0  0  0  0  0  0  0  0
   -1.8965    1.6371    0.6166 H   0  0  0  0  0  0  0  0  0  0  0  0
   -1.8093   -1.9207    0.1629 H   0  0  0  0  0  0  0  0  0  0  0  0
   -2.8300   -1.9329    2.4393 H   0  0  0  0  0  0  0  0  0  0  0  0
   -2.1381   -0.3027    2.7684 H   0  0  0  0  0  0  0  0  0  0  0  0
   -1.0473   -1.6948    2.4949 H   0  0  0  0  0  0  0  0  0  0  0  0
   -2.5957   -0.7386   -1.9333 H   0  0  0  0  0  0  0  0  0  0  0  0
   -4.6304    0.2534   -2.9922 H   0  0  0  0  0  0  0  0  0  0  0  0
   -6.4568    1.2061   -1.5562 H   0  0  0  0  0  0  0  0  0  0  0  0
   -6.2320    1.1435    0.9405 H   0  0  0  0  0  0  0  0  0  0  0  0
   -4.2072    0.1518    1.9930 H   0  0  0  0  0  0  0  0  0  0  0  0
  1  7  1  0  0  0  0
  2  9  1  0  0  0  0
  2 10  1  0  0  0  0
  3  4  2  0  0  0  0
  3  1  1  0  0  0  0
  4  5  1  0  0  0  0
  5 19  1  0  0  0  0
  5  6  2  0  0  0  0
  6 20  1  0  0  0  0
  7  6  1  0  0  0  0
  7  9  2  0  0  0  0
  8  3  1  0  0  0  0
  8 23  1  0  0  0  0
  9 24  1  0  0  0  0
 10 25  1  6  0  0  0
 10 11  1  0  0  0  0
 11 26  1  0  0  0  0
 11 28  1  0  0  0  0
 11 27  1  0  0  0  0
 12 10  1  0  0  0  0
 12 17  1  0  0  0  0
 13 12  2  0  0  0  0
 14 13  1  0  0  0  0
 14 15  2  0  0  0  0
 15 16  1  0  0  0  0
 16 17  2  0  0  0  0
 16 32  1  0  0  0  0
 17 33  1  0  0  0  0
 18  4  1  0  0  0  0
 21  8  1  0  0  0  0
 22  8  1  0  0  0  0
 29 13  1  0  0  0  0
 30 14  1  0  0  0  0
 31 15  1  0  0  0  0
M  END
