1,3
q = 0.0, confidence = 0.994

 20 21  0  0  0  0  0  0  0  0999 V2000
    0.8938    0.8495    0.2966 N   0  0  0  0  0  2  0  0  0  0  0  0
    1.2515    1.7297    0.6737 H   0  0  0  0  0  0  0  0  0  0  0  0
   -0.0713   -1.4471   -0.4692 N   0  0  0  0  0  0  0  0  0  0  0  0
   -0.3009   -2.0274    0.3715 H   0  0  0  0  0  0  0  0  0  0  0  0
   -0.3965   -1.9013   -1.3368 H   0  0  0  0  0  0  0  0  0  0  0  0
    1.3352   -1.2592   -0.5263 N   0  0  0  0  0  0  0  0  0  0  0  0
    3.4584   -2.2564   -0.9533 N   0  0  0  0  0  0  0  0  0  0  0  0
    5.3187   -0.8580   -0.3706 N   0  0  0  0  0  2  0  0  0  0  0  0
    5.3991    0.3774    0.1547 N   0  0  0  0  0  0  0  0  0  0  0  0
    1.8011   -0.0396   -0.0313 C   0  0  0  0  0  0  0  0  0  0  0  0
    2.1685   -2.3024   -0.9491 C   0  0  0  0  0  3  0  0  0  0  0  0
    1.6274   -3.2019   -1.2949 H   0  0  0  0  0  0  0  0  0  0  0  0
    4.0025   -1.0918   -0.4713 C   0  0  0  0  0  0  0  0  0  0  0  0
    3.2327    0.0302    0.0022 C   0  0  0  0  0  0  0  0  0  0  0  0
    4.1950    0.9664    0.4013 C   0  0  0  0  0  3  0  0  0  0  0  0
    4.1243    1.9702    0.8343 H   0  0  0  0  0  0  0  0  0  0  0  0
    6.7156    0.9449    0.4087 C   0  0  0  0  0  0  0  0  0  0  0  0
    6.6004    1.9608    0.8257 H   0  0  0  0  0  0  0  0  0  0  0  0
    7.2860    0.9877   -0.5384 H   0  0  0  0  0  0  0  0  0  0  0  0
    7.2605    0.3028    1.1265 H   0  0  0  0  0  0  0  0  0  0  0  0
  1  2  1  0  0  0  0
  3  4  1  0  0  0  0
  5  3  1  0  0  0  0
  6  3  1  0  0  0  0
  6 10  1  0  0  0  0
  7 11  1  0  0  0  0
  7 13  2  0  0  0  0
  8  9  1  0  0  0  0
  9 15  1  0  0  0  0
  9 17  1  0  0  0  0
 10 14  2  0  0  0  0
 10  1  1  0  0  0  0
 11  6  1  0  0  0  0
 12 11  1  0  0  0  0
 13  8  1  0  0  0  0
 13 14  1  0  0  0  0
 14 15  1  0  0  0  0
 15 16  1  0  0  0  0
 17 18  1  0  0  0  0
 17 20  1  0  0  0  0
 19 17  1  0  0  0  0
M  END
