2,3
q = -1.0, confidence = 0.054

 63 66  0  0  0  0  0  0  0  0999 V2000
   -0.1666    0.9277    0.1505 P   0  0  0  0  0  4  0  0  0  0  0  0
   -1.0689   -0.4322   -0.2319 N   0  0  0  0  0  2  0  0  0  0  0  0
    1.2384    0.1153    0.3808 N   0  0  0  0  0  2  0  0  0  0  0  0
    3.1472   -1.8974    0.0096 N   0  0  0  0  0  0  0  0  0  0  0  0
   -2.7564    0.9643   -2.0791 N   0  0  0  0  0  0  0  0  0  0  0  0
    0.0056    2.1917   -1.1476 C   0  0  0  0  0  0  0  0  0  0  0  0
    0.6647    1.7942   -2.3329 C   0  0  0  0  0  0  0  0  0  0  0  0
    1.0023    0.7501   -2.4442 H   0  0  0  0  0  0  0  0  0  0  0  0
    0.8854    2.7351   -3.3487 C   0  0  0  0  0  0  0  0  0  0  0  0
    1.4001    2.4255   -4.2711 H   0  0  0  0  0  0  0  0  0  0  0  0
    0.4645    4.0661   -3.1897 C   0  0  0  0  0  0  0  0  0  0  0  0
    0.6447    4.8010   -3.9890 H   0  0  0  0  0  0  0  0  0  0  0  0
   -0.1718    4.4625   -2.0021 C   0  0  0  0  0  0  0  0  0  0  0  0
   -0.4862    5.5084   -1.8660 H   0  0  0  0  0  0  0  0  0  0  0  0
   -0.3951    3.5322   -0.9769 C   0  0  0  0  0  0  0  0  0  0  0  0
   -0.8634    3.8565   -0.0370 H   0  0  0  0  0  0  0  0  0  0  0  0
   -0.8739    1.6670    1.6486 C   0  0  0  0  0  0  0  0  0  0  0  0
   -0.2046    1.4588    2.8705 C   0  0  0  0  0  0  0  0  0  0  0  0
    0.7608    0.9316    2.8753 H   0  0  0  0  0  0  0  0  0  0  0  0
   -0.7885    1.8972    4.0669 C   0  0  0  0  0  0  0  0  0  0  0  0
   -0.2643    1.7354    5.0205 H   0  0  0  0  0  0  0  0  0  0  0  0
   -2.0425    2.5291    4.0501 C   0  0  0  0  0  0  0  0  0  0  0  0
   -2.5009    2.8663    4.9921 H   0  0  0  0  0  0  0  0  0  0  0  0
   -2.7185    2.7226    2.8346 C   0  0  0  0  0  0  0  0  0  0  0  0
   -3.7071    3.2055    2.8218 H   0  0  0  0  0  0  0  0  0  0  0  0
   -2.1391    2.2937    1.6317 C   0  0  0  0  0  0  0  0  0  0  0  0
   -2.6804    2.4340    0.6847 H   0  0  0  0  0  0  0  0  0  0  0  0
   -2.4647   -0.4291   -0.0869 C   0  0  0  0  0  0  0  0  0  0  0  0
   -3.3193    0.2822   -0.9911 C   0  0  0  0  0  0  0  0  0  0  0  0
   -4.7085    0.2855   -0.7225 C   0  0  0  0  0  0  0  0  0  0  0  0
   -5.2480   -0.3168    0.4263 C   0  0  0  0  0  0  0  0  0  0  0  0
   -4.4112   -1.0255    1.3008 C   0  0  0  0  0  0  0  0  0  0  0  0
   -3.0324   -1.0542    1.0426 C   0  0  0  0  0  0  0  0  0  0  0  0
    2.5557    0.4899    0.4172 C   0  0  0  0  0  0  0  0  0  0  0  0
    3.5554   -0.5108    0.2240 C   0  0  0  0  0  0  0  0  0  0  0  0
    4.9117   -0.1384    0.3099 C   0  0  0  0  0  0  0  0  0  0  0  0
    5.3116    1.1865    0.5476 C   0  0  0  0  0  0  0  0  0  0  0  0
    4.3287    2.1697    0.7450 C   0  0  0  0  0  0  0  0  0  0  0  0
    2.9773    1.8144    0.6883 C   0  0  0  0  0  0  0  0  0  0  0  0
   -5.5714    0.8824   -1.5689 F   0  0  0  0  0  0  0  0  0  0  0  0
   -6.5680   -0.2802    0.6448 F   0  0  0  0  0  0  0  0  0  0  0  0
   -4.9178   -1.6212    2.3868 F   0  0  0  0  0  0  0  0  0  0  0  0
   -2.2335   -1.6808    1.9195 F   0  0  0  0  0  0  0  0  0  0  0  0
    5.8921   -1.0541    0.1679 F   0  0  0  0  0  0  0  0  0  0  0  0
    6.6111    1.5055    0.6061 F   0  0  0  0  0  0  0  0  0  0  0  0
    4.6867    3.4323    0.9965 F   0  0  0  0  0  0  0  0  0  0  0  0
    2.0449    2.7609    0.9284 F   0  0  0  0  0  0  0  0  0  0  0  0
    3.7187   -2.4475   -1.2487 C   0  0  0  0  0  0  0  0  0  0  0  0
    3.3615   -1.8391   -2.0963 H   0  0  0  0  0  0  0  0  0  0  0  0
    3.3474   -3.4820   -1.3780 H   0  0  0  0  0  0  0  0  0  0  0  0
    4.8262   -2.4730   -1.2219 H   0  0  0  0  0  0  0  0  0  0  0  0
    3.5537   -2.7302    1.1732 C   0  0  0  0  0  0  0  0  0  0  0  0
    4.6575   -2.7520    1.2856 H   0  0  0  0  0  0  0  0  0  0  0  0
    3.1894   -3.7633    1.0187 H   0  0  0  0  0  0  0  0  0  0  0  0
    3.0749   -2.3342    2.0843 H   0  0  0  0  0  0  0  0  0  0  0  0
   -2.0900    0.1691   -3.0991 C   0  0  0  0  0  0  0  0  0  0  0  0
   -1.4097   -0.5648   -2.6293 H   0  0  0  0  0  0  0  0  0  0  0  0
   -1.4715    0.8351   -3.7320 H   0  0  0  0  0  0  0  0  0  0  0  0
   -2.8155   -0.3661   -3.7589 H   0  0  0  0  0  0  0  0  0  0  0  0
   -3.3508    2.2003   -2.5548 C   0  0  0  0  0  0  0  0  0  0  0  0
   -4.1536    2.0546   -3.3146 H   0  0  0  0  0  0  0  0  0  0  0  0
   -2.5502    2.8249   -3.0046 H   0  0  0  0  0  0  0  0  0  0  0  0
   -3.7831    2.7651   -1.7070 H   0  0  0  0  0  0  0  0  0  0  0  0
  1  3  1  0  0  0  0
  1 17  1  0  0  0  0
  2 28  1  0  0  0  0
  2  1  1  0  0  0  0
  3 34  1  0  0  0  0
  4 35  1  0  0  0  0
  4 52  1  0  0  0  0
  5 29  1  0  0  0  0
  6 15  1  0  0  0  0
  6  1  1  0  0  0  0
  7  6  2  0  0  0  0
  8  7  1  0  0  0  0
  9 11  2  0  0  0  0
  9  7  1  0  0  0  0
 10  9  1  0  0  0  0
 11 13  1  0  0  0  0
 12 11  1  0  0  0  0
 13 14  1  0  0  0  0
 13 15  2  0  0  0  0
 15 16  1  0  0  0  0
 17 18  1  0  0  0  0
 18 19  1  0  0  0  0
 18 20  2  0  0  0  0
 20 21  1  0  0  0  0
 22 20  1  0  0  0  0
 22 23  1  0  0  0  0
 24 22  2  0  0  0  0
 25 24  1  0  0  0  0
 26 17  2  0  0  0  0
 26 24  1  0  0  0  0
 27 26  1  0  0  0  0
 28 33  1  0  0  0  0
 29 30  1  0  0  0  0
 29 28  2  0  0  0  0
 30 31  2  0  0  0  0
 31 41  1  0  0  0  0
 31 32  1  0  0  0  0
 32 42  1  0  0  0  0
 33 32  2  0  0  0  0
 33 43  1  0  0  0  0
 34 39  1  0  0  0  0
 35 36  1  0  0  0  0
 35 34  2  0  0  0  0
 36 37  2  0  0  0  0
 37 45  1  0  0  0  0
 37 38  1  0  0  0  0
 38 46  1  0  0  0  0
 39 38  2  0  0  0  0
 39 47  1  0  0  0  0
 40 30  1  0  0  0  0
 44 36  1  0  0  0  0
 48 51  1  0  0  0  0
 48  4  1  0  0  0  0
 49 48  1  0  0  0  0
 50 48  1  0  0  0  0
 52 53  1  0  0  0  0
 52 55  1  0  0  0  0
 54 52  1  0  0  0  0
 56 57  1  0  0  0  0
 56  5  1  0  0  0  0
 58 56  1  0  0  0  0
 59 56  1  0  0  0  0
 60  5  1  0  0  0  0
 60 63  1  0  0  0  0
 61 60  1  0  0  0  0
 62 60  1  0  0  0  0
M  END
