3,4
q = 0.0, confidence = 0.99

 55 60  0  0  1  0  0  0  0  0999 V2000
   -5.5183   -1.6300   -0.6175 F   0  0  0  0  0  0  0  0  0  0  0  0
   -6.1459    0.3363    0.4067 F   0  0  0  0  0  0  0  0  0  0  0  0
    1.9871   -1.7244   -0.5129 N   0  0  0  0  0  2  0  0  0  0  0  0
    1.5478    0.7581    0.1821 N   0  0  0  0  0  2  0  0  0  0  0  0
   -0.2811    1.9950    0.5489 N   0  0  0  0  0  0  0  0  0  0  0  0
   -4.2532    0.3811   -1.1166 N   0  0  0  0  0  0  0  0  0  0  0  0
   -4.0837   -0.7300    1.1228 N   0  0  0  0  0  0  0  0  0  0  0  0
    1.8332    3.1730    0.8600 C   0  0  0  0  0  0  0  0  0  0  0  0
    2.9339    3.1153    0.8351 H   0  0  0  0  0  0  0  0  0  0  0  0
    1.1054    4.3075    1.1844 C   0  0  0  0  0  0  0  0  0  0  0  0
    1.6312    5.2382    1.4405 H   0  0  0  0  0  0  0  0  0  0  0  0
   -0.3218    4.2792    1.1906 C   0  0  0  0  0  0  0  0  0  0  0  0
   -0.9000    5.1768    1.4487 H   0  0  0  0  0  0  0  0  0  0  0  0
   -1.0025    3.1239    0.8751 C   0  0  0  0  0  3  0  0  0  0  0  0
   -2.0956    3.0197    0.8569 H   0  0  0  0  0  0  0  0  0  0  0  0
    1.1284    1.9939    0.5345 C   0  0  0  0  0  0  0  0  0  0  0  0
   -0.7303    0.7306    0.1974 C   0  0  1  0  0  3  0  0  0  0  0  0
    0.4249   -0.0212   -0.0272 C   0  0  0  0  0  0  0  0  0  0  0  0
    0.6513   -1.3991   -0.4216 C   0  0  0  0  0  0  0  0  0  0  0  0
    2.3349   -2.9837   -0.8704 C   0  0  0  0  0  0  0  0  0  0  0  0
    3.4239   -3.1563   -0.9179 H   0  0  0  0  0  0  0  0  0  0  0  0
    1.3773   -3.9615   -1.1499 C   0  0  0  0  0  0  0  0  0  0  0  0
    1.7121   -4.9687   -1.4356 H   0  0  0  0  0  0  0  0  0  0  0  0
    0.0123   -3.6420   -1.0632 C   0  0  0  0  0  0  0  0  0  0  0  0
   -0.7599   -4.3940   -1.2808 H   0  0  0  0  0  0  0  0  0  0  0  0
   -0.3532   -2.3430   -0.6944 C   0  0  0  0  0  0  0  0  0  0  0  0
   -1.4082   -2.0484   -0.6141 H   0  0  0  0  0  0  0  0  0  0  0  0
   -2.1577    0.3743    0.1240 C   0  0  0  0  0  3  0  0  0  0  0  0
   -2.7458   -0.3359    1.1918 C   0  0  0  0  0  0  0  0  0  0  0  0
   -2.2028   -0.7782    2.4555 C   0  0  0  0  0  0  0  0  0  0  0  0
   -0.8199   -0.5872    2.9957 C   0  0  0  0  0  0  0  0  0  0  0  0
   -0.7748   -0.9069    4.0540 H   0  0  0  0  0  0  0  0  0  0  0  0
   -0.4895    0.4699    2.9478 H   0  0  0  0  0  0  0  0  0  0  0  0
   -0.0659   -1.1787    2.4361 H   0  0  0  0  0  0  0  0  0  0  0  0
   -3.2535   -1.4361    3.1044 C   0  0  0  0  0  0  0  0  0  0  0  0
   -3.2146   -1.9042    4.0950 H   0  0  0  0  0  0  0  0  0  0  0  0
   -4.4003   -1.3925    2.2643 C   0  0  0  0  0  0  0  0  0  0  0  0
   -5.7597   -1.9444    2.5156 C   0  0  0  0  0  0  0  0  0  0  0  0
   -6.5141   -1.1315    2.4969 H   0  0  0  0  0  0  0  0  0  0  0  0
   -5.8024   -2.4652    3.4888 H   0  0  0  0  0  0  0  0  0  0  0  0
   -6.0468   -2.6452    1.7056 H   0  0  0  0  0  0  0  0  0  0  0  0
   -2.9043    0.7274   -1.0202 C   0  0  0  0  0  0  0  0  0  0  0  0
   -2.5185    1.4080   -2.2346 C   0  0  0  0  0  0  0  0  0  0  0  0
   -1.1758    1.9552   -2.6049 C   0  0  0  0  0  0  0  0  0  0  0  0
   -0.8816    2.8124   -1.9636 H   0  0  0  0  0  0  0  0  0  0  0  0
   -1.1819    2.3145   -3.6512 H   0  0  0  0  0  0  0  0  0  0  0  0
   -0.3732    1.1962   -2.5093 H   0  0  0  0  0  0  0  0  0  0  0  0
   -3.6741    1.4530   -3.0223 C   0  0  0  0  0  0  0  0  0  0  0  0
   -3.7642    1.8963   -4.0210 H   0  0  0  0  0  0  0  0  0  0  0  0
   -4.7271    0.8114   -2.3136 C   0  0  0  0  0  0  0  0  0  0  0  0
   -6.1369    0.5927   -2.7381 C   0  0  0  0  0  0  0  0  0  0  0  0
   -6.3659   -0.4923   -2.7642 H   0  0  0  0  0  0  0  0  0  0  0  0
   -6.3243    1.0335   -3.7335 H   0  0  0  0  0  0  0  0  0  0  0  0
   -6.8354    1.0339   -1.9983 H   0  0  0  0  0  0  0  0  0  0  0  0
   -5.0700   -0.4291   -0.0549 B   0  0  0  0  0  0  0  0  0  0  0  0
  1 55  1  0  0  0  0
  3 19  1  0  0  0  0
  4 16  1  0  0  0  0
  5 14  1  0  0  0  0
  6 42  1  0  0  0  0
  6 55  1  0  0  0  0
  7 29  1  0  0  0  0
  7 37  1  0  0  0  0
  8 10  1  0  0  0  0
  9  8  1  0  0  0  0
 10 12  2  0  0  0  0
 10 11  1  0  0  0  0
 12 13  1  0  0  0  0
 14 12  1  0  0  0  0
 15 14  1  0  0  0  0
 16  5  1  0  0  0  0
 16  8  2  0  0  0  0
 17 28  1  1  0  0  0
 17  5  1  0  0  0  0
 18  4  1  0  0  0  0
 18 17  1  0  0  0  0
 19 18  2  0  0  0  0
 20  3  1  0  0  0  0
 21 20  1  0  0  0  0
 22 24  1  0  0  0  0
 22 20  2  0  0  0  0
 23 22  1  0  0  0  0
 24 26  2  0  0  0  0
 25 24  1  0  0  0  0
 26 27  1  0  0  0  0
 26 19  1  0  0  0  0
 28 29  1  0  0  0  0
 29 30  2  0  0  0  0
 30 31  1  0  0  0  0
 30 35  1  0  0  0  0
 31 32  1  0  0  0  0
 33 31  1  0  0  0  0
 34 31  1  0  0  0  0
 35 36  1  0  0  0  0
 37 38  1  0  0  0  0
 37 35  2  0  0  0  0
 38 40  1  0  0  0  0
 39 38  1  0  0  0  0
 41 38  1  0  0  0  0
 42 28  1  0  0  0  0
 43 42  2  0  0  0  0
 44 47  1  0  0  0  0
 44 43  1  0  0  0  0
 44 45  1  0  0  0  0
 46 44  1  0  0  0  0
 48 50  2  0  0  0  0
 48 43  1  0  0  0  0
 49 48  1  0  0  0  0
 50  6  1  0  0  0  0
 51 50  1  0  0  0  0
 51 54  1  0  0  0  0
 52 51  1  0  0  0  0
 53 51  1  0  0  0  0
 55  2  1  0  0  0  0
 55  7  1  0  0  0  0
M  END
