1,4
q = 0.0, confidence = 0.994

 33 35  0  0  1  0  0  0  0  0999 V2000
    2.1637    0.5159   -1.5703 N   0  0  0  0  0  2  0  0  0  0  0  0
    1.5362    2.6746   -0.8067 N   0  0  0  0  0  0  0  0  0  0  0  0
    1.9268    3.5920   -0.5912 H   0  0  0  0  0  0  0  0  0  0  0  0
   -0.5571    1.5566   -1.0321 N   0  0  0  0  0  2  0  0  0  0  0  0
   -2.5338    0.4117   -1.4228 N   0  0  0  0  0  0  0  0  0  0  0  0
   -1.9566   -0.3486   -1.8395 H   0  0  0  0  0  0  0  0  0  0  0  0
   -4.1656   -1.1694   -1.7206 N   0  0  0  0  0  0  0  0  0  0  0  0
    3.0621   -0.2915   -2.1739 C   0  0  0  0  0  3  0  0  0  0  0  0
    2.7246   -1.3270   -2.3446 H   0  0  0  0  0  0  0  0  0  0  0  0
    4.3356    0.1348   -2.5496 C   0  0  0  0  0  0  0  0  0  0  0  0
    5.0333   -0.5576   -3.0398 H   0  0  0  0  0  0  0  0  0  0  0  0
    4.6889    1.4707   -2.2766 C   0  0  0  0  0  0  0  0  0  0  0  0
    5.6852    1.8529   -2.5454 H   0  0  0  0  0  0  0  0  0  0  0  0
    3.7555    2.3214   -1.6884 C   0  0  0  0  0  0  0  0  0  0  0  0
    3.9929    3.3796   -1.5018 H   0  0  0  0  0  0  0  0  0  0  0  0
    2.4722    1.8097   -1.3638 C   0  0  0  0  0  0  0  0  0  0  0  0
    0.1371    2.6927   -0.8361 C   0  0  1  0  0  3  0  0  0  0  0  0
   -0.4945    3.9400   -0.6339 C   0  0  0  0  0  0  0  0  0  0  0  0
    0.0988    4.8486   -0.4576 H   0  0  0  0  0  0  0  0  0  0  0  0
   -1.8884    3.9890   -0.7353 C   0  0  0  0  0  0  0  0  0  0  0  0
   -2.4100    4.9527   -0.6359 H   0  0  0  0  0  0  0  0  0  0  0  0
   -2.6178    2.8320   -1.0175 C   0  0  0  0  0  0  0  0  0  0  0  0
   -3.6991    2.8754   -1.1894 H   0  0  0  0  0  0  0  0  0  0  0  0
   -1.9167    1.6091   -1.1514 C   0  0  0  0  0  0  0  0  0  0  0  0
   -3.8340   -0.0119   -1.1205 C   0  0  0  0  0  0  0  0  0  0  0  0
   -4.6979    0.6491   -0.2147 C   0  0  0  0  0  0  0  0  0  0  0  0
   -4.3933    1.5638    0.3089 H   0  0  0  0  0  0  0  0  0  0  0  0
   -5.9499    0.0769    0.0356 C   0  0  0  0  0  0  0  0  0  0  0  0
   -6.6429    0.5675    0.7361 H   0  0  0  0  0  0  0  0  0  0  0  0
   -6.3075   -1.1214   -0.6007 C   0  0  0  0  0  0  0  0  0  0  0  0
   -7.2859   -1.5934   -0.4333 H   0  0  0  0  0  0  0  0  0  0  0  0
   -5.3654   -1.7029   -1.4649 C   0  0  0  0  0  0  0  0  0  0  0  0
   -5.5908   -2.6531   -1.9809 H   0  0  0  0  0  0  0  0  0  0  0  0
  1 16  1  0  0  0  0
  2  3  1  0  0  0  0
  4 17  1  0  0  0  0
  5 24  1  0  0  0  0
  5 25  1  0  0  0  0
  6  5  1  0  0  0  0
  7 32  2  0  0  0  0
  7 25  1  0  0  0  0
  8  1  1  0  0  0  0
  9  8  1  0  0  0  0
 10 12  2  0  0  0  0
 10  8  1  0  0  0  0
 11 10  1  0  0  0  0
 12 14  1  0  0  0  0
 13 12  1  0  0  0  0
 14 15  1  0  0  0  0
 14 16  2  0  0  0  0
 16  2  1  0  0  0  0
 17  2  1  1  0  0  0
 17 18  1  0  0  0  0
 18 19  1  0  0  0  0
 20 21  1  0  0  0  0
 20 18  2  0  0  0  0
 22 20  1  0  0  0  0
 23 22  1  0  0  0  0
 24  4  1  0  0  0  0
 24 22  2  0  0  0  0
 25 26  2  0  0  0  0
 26 28  1  0  0  0  0
 26 27  1  0  0  0  0
 28 29  1  0  0  0  0
 30 31  1  0  0  0  0
 30 28  2  0  0  0  0
 32 30  1  0  0  0  0
 33 32  1  0  0  0  0
M  END
