2,3
q = -1.0

 17 17  0  0  1  0  0  0  0  0999 V2000
   -0.9586   -2.4017    1.7713 O   0  0  0  0  0  1  0  0  0  0  0  0
    2.0993   -1.4460   -0.4059 N   0  0  0  0  0  2  0  0  0  0  0  0
    0.0880   -2.1025    1.1157 N   0  0  0  0  0  2  0  0  0  0  0  0
    3.0895   -1.1285   -1.2734 C   0  0  0  0  0  3  0  0  0  0  0  0
    2.7609   -0.6235   -2.1927 H   0  0  0  0  0  0  0  0  0  0  0  0
    4.4270   -1.4249   -1.0290 C   0  0  0  0  0  0  0  0  0  0  0  0
    5.1882   -1.1401   -1.7672 H   0  0  0  0  0  0  0  0  0  0  0  0
    4.7650   -2.0887    0.1695 C   0  0  0  0  0  0  0  0  0  0  0  0
    5.8139   -2.3325    0.3966 H   0  0  0  0  0  0  0  0  0  0  0  0
    3.7569   -2.4432    1.0572 C   0  0  0  0  0  0  0  0  0  0  0  0
    3.9814   -2.9763    1.9904 H   0  0  0  0  0  0  0  0  0  0  0  0
    2.4057   -2.1241    0.7537 C   0  0  0  0  0  0  0  0  0  0  0  0
    1.3051   -2.4747    1.5847 C   0  0  2  0  0  3  0  0  0  0  0  0
    1.4250   -3.2230    2.8724 C   0  0  0  0  0  0  0  0  0  0  0  0
    0.4119   -3.3274    3.3016 H   0  0  0  0  0  0  0  0  0  0  0  0
    2.0732   -2.6910    3.6005 H   0  0  0  0  0  0  0  0  0  0  0  0
    1.8508   -4.2378    2.7228 H   0  0  0  0  0  0  0  0  0  0  0  0
  2 12  1  0  0  0  0
  3  1  1  0  0  0  0
  4  6  1  0  0  0  0
  4  2  1  0  0  0  0
  5  4  1  0  0  0  0
  6  8  2  0  0  0  0
  7  6  1  0  0  0  0
  8  9  1  0  0  0  0
  8 10  1  0  0  0  0
 10 11  1  0  0  0  0
 12 10  2  0  0  0  0
 12 13  1  0  0  0  0
 13  3  1  6  0  0  0
 13 14  1  0  0  0  0
 14 15  1  0  0  0  0
 14 16  1  0  0  0  0
 17 14  1  0  0  0  0
M  END
