1,2
q = 0.0, confidence = 0.99

 42 46  0  0  1  0  0  0  0  0999 V2000
    1.9769    0.7541    1.1358 N   0  0  0  0  0  2  0  0  0  0  0  0
    0.3823   -0.3487   -0.6266 N   0  0  0  0  0  2  0  0  0  0  0  0
   -2.2670    0.3972   -0.0528 N   0  0  0  0  0  2  0  0  0  0  0  0
   -1.3630    1.3265   -0.3357 N   0  0  0  0  0  0  0  0  0  0  0  0
    2.7396    0.9418    2.2322 C   0  0  0  0  0  3  0  0  0  0  0  0
    2.2818    1.7149    3.3065 C   0  0  0  0  0  0  0  0  0  0  0  0
    1.0069    2.2952    3.2426 C   0  0  0  0  0  0  0  0  0  0  0  0
    0.2261    2.1032    2.0905 C   0  0  0  0  0  0  0  0  0  0  0  0
    0.7523    1.3311    1.0534 C   0  0  0  0  0  0  0  0  0  0  0  0
    0.0776    1.0374   -0.2879 C   0  0  1  0  0  0  0  0  0  0  0  0
   -0.5419   -1.2752   -0.4119 C   0  0  0  0  0  0  0  0  0  0  0  0
   -0.2583   -2.6762   -0.5986 C   0  0  0  0  0  0  0  0  0  0  0  0
   -1.2144   -3.6114   -0.3040 C   0  0  0  0  0  0  0  0  0  0  0  0
   -2.5355   -3.2645    0.1788 C   0  0  0  0  0  0  0  0  0  0  0  0
   -3.4917   -4.2580    0.4952 C   0  0  0  0  0  0  0  0  0  0  0  0
   -4.7640   -3.9072    0.9532 C   0  0  0  0  0  0  0  0  0  0  0  0
   -5.1038   -2.5479    1.1052 C   0  0  0  0  0  0  0  0  0  0  0  0
   -4.1736   -1.5492    0.8013 C   0  0  0  0  0  0  0  0  0  0  0  0
   -2.8867   -1.8885    0.3332 C   0  0  0  0  0  0  0  0  0  0  0  0
   -1.8918   -0.8709   -0.0082 C   0  0  0  0  0  0  0  0  0  0  0  0
   -1.8232    2.6191   -0.6893 C   0  0  0  0  0  0  0  0  0  0  0  0
   -0.9338    3.7168   -0.7401 C   0  0  0  0  0  0  0  0  0  0  0  0
   -1.4122    4.9831   -1.1064 C   0  0  0  0  0  0  0  0  0  0  0  0
   -2.7671    5.1777   -1.4088 C   0  0  0  0  0  0  0  0  0  0  0  0
   -3.6493    4.0843   -1.3479 C   0  0  0  0  0  0  0  0  0  0  0  0
   -3.1887    2.8116   -0.9997 C   0  0  0  0  0  0  0  0  0  0  0  0
    3.7264    0.4492    2.1957 H   0  0  0  0  0  0  0  0  0  0  0  0
    2.9255    1.8474    4.1876 H   0  0  0  0  0  0  0  0  0  0  0  0
    0.6204    2.8944    4.0803 H   0  0  0  0  0  0  0  0  0  0  0  0
   -0.7770    2.5415    1.9915 H   0  0  0  0  0  0  0  0  0  0  0  0
    0.5692    1.6786   -1.0527 H   0  0  0  0  0  0  0  0  0  0  0  0
    0.7428   -2.9400   -0.9756 H   0  0  0  0  0  0  0  0  0  0  0  0
   -0.9773   -4.6799   -0.4271 H   0  0  0  0  0  0  0  0  0  0  0  0
   -3.2163   -5.3170    0.3728 H   0  0  0  0  0  0  0  0  0  0  0  0
   -5.4974   -4.6903    1.1968 H   0  0  0  0  0  0  0  0  0  0  0  0
   -6.1040   -2.2692    1.4696 H   0  0  0  0  0  0  0  0  0  0  0  0
   -4.4250   -0.4865    0.9280 H   0  0  0  0  0  0  0  0  0  0  0  0
    0.1265    3.6065   -0.4766 H   0  0  0  0  0  0  0  0  0  0  0  0
   -0.7090    5.8283   -1.1452 H   0  0  0  0  0  0  0  0  0  0  0  0
   -3.1350    6.1742   -1.6933 H   0  0  0  0  0  0  0  0  0  0  0  0
   -4.7139    4.2212   -1.5905 H   0  0  0  0  0  0  0  0  0  0  0  0
   -3.8637    1.9472   -0.9695 H   0  0  0  0  0  0  0  0  0  0  0  0
  1  5  1  0  0  0  0
  2 11  1  0  0  0  0
  2 10  1  0  0  0  0
  3 20  1  0  0  0  0
  4 10  1  0  0  0  0
  4  3  1  0  0  0  0
  5  6  1  0  0  0  0
  6 28  1  0  0  0  0
  7  6  2  0  0  0  0
  7 29  1  0  0  0  0
  8  7  1  0  0  0  0
  9  1  1  0  0  0  0
  9  8  2  0  0  0  0
 10 31  1  6  0  0  0
 10  9  1  0  0  0  0
 11 20  1  0  0  0  0
 12 11  2  0  0  0  0
 12 13  1  0  0  0  0
 13 14  2  0  0  0  0
 14 19  1  0  0  0  0
 14 15  1  0  0  0  0
 15 16  2  0  0  0  0
 16 17  1  0  0  0  0
 16 35  1  0  0  0  0
 17 36  1  0  0  0  0
 18 37  1  0  0  0  0
 18 17  2  0  0  0  0
 19 18  1  0  0  0  0
 20 19  2  0  0  0  0
 21  4  1  0  0  0  0
 22 21  1  0  0  0  0
 22 38  1  0  0  0  0
 23 22  2  0  0  0  0
 24 25  2  0  0  0  0
 24 23  1  0  0  0  0
 25 26  1  0  0  0  0
 26 42  1  0  0  0  0
 26 21  2  0  0  0  0
 27  5  1  0  0  0  0
 30  8  1  0  0  0  0
 32 12  1  0  0  0  0
 33 13  1  0  0  0  0
 34 15  1  0  0  0  0
 39 23  1  0  0  0  0
 40 24  1  0  0  0  0
 41 25  1  0  0  0  0
M  END
