1,2
q = 0.0, confidence = 0.956

 45 48  0  0  0  0  0  0  0  0999 V2000
    2.5280   -1.2453    0.0842 N   0  0  0  0  0  2  0  0  0  0  0  0
   -0.0709   -1.2902   -0.2020 N   0  0  0  0  0  2  0  0  0  0  0  0
   -1.5490    1.1291   -0.8093 N   0  0  0  0  0  0  0  0  0  0  0  0
   -0.3723    1.0312   -1.2723 N   0  0  0  0  0  0  0  0  0  0  0  0
    3.8576   -1.1377    0.2713 C   0  0  0  0  0  0  0  0  0  0  0  0
    4.7685   -1.9201   -0.4482 C   0  0  0  0  0  0  0  0  0  0  0  0
    4.2845   -2.8436   -1.3881 C   0  0  0  0  0  0  0  0  0  0  0  0
    2.9034   -2.9503   -1.5836 C   0  0  0  0  0  0  0  0  0  0  0  0
    2.0313   -2.1345   -0.8352 C   0  0  0  0  0  0  0  0  0  0  0  0
    0.5781   -2.1374   -0.9784 C   0  0  0  0  0  0  0  0  0  0  0  0
   -0.0802   -2.9724   -2.0365 C   0  0  0  0  0  0  0  0  0  0  0  0
   -1.4768   -1.2412   -0.1547 C   0  0  0  0  0  0  0  0  0  0  0  0
   -2.1867   -2.3857    0.3039 C   0  0  0  0  0  0  0  0  0  0  0  0
   -3.5649   -2.3693    0.4180 C   0  0  0  0  0  0  0  0  0  0  0  0
   -4.3177   -1.2003    0.0972 C   0  0  0  0  0  0  0  0  0  0  0  0
   -5.7374   -1.1637    0.2038 C   0  0  0  0  0  0  0  0  0  0  0  0
   -6.4410   -0.0053   -0.0938 C   0  0  0  0  0  0  0  0  0  0  0  0
   -5.7467    1.1634   -0.5020 C   0  0  0  0  0  0  0  0  0  0  0  0
   -4.3629    1.1587   -0.6181 C   0  0  0  0  0  0  0  0  0  0  0  0
   -3.6191   -0.0186   -0.3312 C   0  0  0  0  0  0  0  0  0  0  0  0
   -2.1828   -0.0498   -0.4614 C   0  0  0  0  0  0  0  0  0  0  0  0
    0.3828    2.2151   -1.3041 C   0  0  0  0  0  0  0  0  0  0  0  0
    1.4961    2.2376   -2.1730 C   0  0  0  0  0  0  0  0  0  0  0  0
    2.3244    3.3635   -2.2124 C   0  0  0  0  0  0  0  0  0  0  0  0
    2.0629    4.4554   -1.3652 C   0  0  0  0  0  0  0  0  0  0  0  0
    0.9705    4.4194   -0.4784 C   0  0  0  0  0  0  0  0  0  0  0  0
    0.1243    3.3082   -0.4432 C   0  0  0  0  0  0  0  0  0  0  0  0
    4.1508   -0.3963    1.0356 H   0  0  0  0  0  0  0  0  0  0  0  0
    5.8453   -1.8006   -0.2630 H   0  0  0  0  0  0  0  0  0  0  0  0
    4.9764   -3.4757   -1.9640 H   0  0  0  0  0  0  0  0  0  0  0  0
    2.4930   -3.6641   -2.3102 H   0  0  0  0  0  0  0  0  0  0  0  0
   -1.6078   -3.2751    0.5928 H   0  0  0  0  0  0  0  0  0  0  0  0
   -4.0967   -3.2631    0.7785 H   0  0  0  0  0  0  0  0  0  0  0  0
   -6.2661   -2.0719    0.5322 H   0  0  0  0  0  0  0  0  0  0  0  0
   -7.5377    0.0124   -0.0049 H   0  0  0  0  0  0  0  0  0  0  0  0
   -6.3101    2.0830   -0.7212 H   0  0  0  0  0  0  0  0  0  0  0  0
   -3.8099    2.0585   -0.9209 H   0  0  0  0  0  0  0  0  0  0  0  0
    1.6845    1.3565   -2.8041 H   0  0  0  0  0  0  0  0  0  0  0  0
    3.1868    3.3896   -2.8954 H   0  0  0  0  0  0  0  0  0  0  0  0
    2.7273    5.3327   -1.3808 H   0  0  0  0  0  0  0  0  0  0  0  0
    0.7922    5.2626    0.2060 H   0  0  0  0  0  0  0  0  0  0  0  0
   -0.7023    3.2231    0.2753 H   0  0  0  0  0  0  0  0  0  0  0  0
   -1.1411   -2.6927   -2.1606 H   0  0  0  0  0  0  0  0  0  0  0  0
    0.4365   -2.8353   -3.0085 H   0  0  0  0  0  0  0  0  0  0  0  0
   -0.0371   -4.0542   -1.7909 H   0  0  0  0  0  0  0  0  0  0  0  0
  1  5  1  0  0  0  0
  2 12  1  0  0  0  0
  3 21  1  0  0  0  0
  4  3  2  0  0  0  0
  5 28  1  0  0  0  0
  6 29  1  0  0  0  0
  6  5  2  0  0  0  0
  7  6  1  0  0  0  0
  8  7  2  0  0  0  0
  8  9  1  0  0  0  0
  9  1  1  0  0  0  0
 10  9  2  0  0  0  0
 10  2  1  0  0  0  0
 11 45  1  0  0  0  0
 11 10  1  0  0  0  0
 12 13  1  0  0  0  0
 13 14  2  0  0  0  0
 13 32  1  0  0  0  0
 14 33  1  0  0  0  0
 15 16  1  0  0  0  0
 15 14  1  0  0  0  0
 16 34  1  0  0  0  0
 17 35  1  0  0  0  0
 17 16  2  0  0  0  0
 18 17  1  0  0  0  0
 19 18  2  0  0  0  0
 19 20  1  0  0  0  0
 20 15  2  0  0  0  0
 21 20  1  0  0  0  0
 21 12  2  0  0  0  0
 22  4  1  0  0  0  0
 22 27  1  0  0  0  0
 23 22  2  0  0  0  0
 24 23  1  0  0  0  0
 24 25  2  0  0  0  0
 25 26  1  0  0  0  0
 26 27  2  0  0  0  0
 26 41  1  0  0  0  0
 27 42  1  0  0  0  0
 30  7  1  0  0  0  0
 31  8  1  0  0  0  0
 36 18  1  0  0  0  0
 37 19  1  0  0  0  0
 38 23  1  0  0  0  0
 39 24  1  0  0  0  0
 40 25  1  0  0  0  0
 43 11  1  0  0  0  0
 44 11  1  0  0  0  0
M  END
