1,2
q = 0.0, confidence = 0.982

 26 28  0  0  1  0  0  0  0  0999 V2000
   -0.4099    1.2574   -0.7810 N   0  0  0  0  0  2  0  0  0  0  0  0
    1.8389    0.1773    0.0217 N   0  0  0  0  0  2  0  0  0  0  0  0
    3.0245   -0.5105    0.2484 C   0  0  1  0  0  3  0  0  0  0  0  0
    0.6605    2.1159   -0.7314 C   0  0  1  0  0  3  0  0  0  0  0  0
    3.0285   -1.9274    0.3595 C   0  0  0  0  0  0  0  0  0  0  0  0
    2.0741   -2.4665    0.2996 H   0  0  0  0  0  0  0  0  0  0  0  0
    4.2167   -2.6110    0.5846 C   0  0  0  0  0  0  0  0  0  0  0  0
    4.1960   -3.7081    0.6637 H   0  0  0  0  0  0  0  0  0  0  0  0
    5.4473   -1.9199    0.7186 C   0  0  0  0  0  0  0  0  0  0  0  0
    6.3750   -2.4797    0.9076 H   0  0  0  0  0  0  0  0  0  0  0  0
    1.9119    1.5065   -0.2722 C   0  0  0  0  0  0  0  0  0  0  0  0
    4.2852    0.1921    0.3403 C   0  0  0  0  0  0  0  0  0  0  0  0
    5.4782   -0.5387    0.5948 C   0  0  0  0  0  0  0  0  0  0  0  0
    6.4265    0.0140    0.6731 H   0  0  0  0  0  0  0  0  0  0  0  0
   -1.7622    2.9987   -1.7686 C   0  0  0  0  0  0  0  0  0  0  0  0
   -2.7277    3.3130   -2.1864 H   0  0  0  0  0  0  0  0  0  0  0  0
    0.5392    3.4491   -1.1621 C   0  0  0  0  0  0  0  0  0  0  0  0
    1.3905    4.1385   -1.1093 H   0  0  0  0  0  0  0  0  0  0  0  0
   -1.5811    1.6985   -1.3063 C   0  0  0  0  0  0  0  0  0  0  0  0
   -2.4025    0.9693   -1.3420 H   0  0  0  0  0  0  0  0  0  0  0  0
   -0.6813    3.8984   -1.6798 C   0  0  0  0  0  0  0  0  0  0  0  0
    3.1237    2.2437   -0.1947 C   0  0  0  0  0  0  0  0  0  0  0  0
    3.1216    3.3210   -0.4027 H   0  0  0  0  0  0  0  0  0  0  0  0
   -0.8548    5.5306   -2.2127 Cl  0  0  0  0  0  0  0  0  0  0  0  0
    4.2958    1.5998    0.1446 C   0  0  0  0  0  0  0  0  0  0  0  0
    5.2415    2.1550    0.2325 H   0  0  0  0  0  0  0  0  0  0  0  0
  1  4  1  0  0  0  0
  3  2  1  6  0  0  0
  3 12  1  0  0  0  0
  3  5  1  0  0  0  0
  4 11  1  6  0  0  0
  5  7  2  0  0  0  0
  6  5  1  0  0  0  0
  7  8  1  0  0  0  0
  7  9  1  0  0  0  0
  9 10  1  0  0  0  0
 11 22  2  0  0  0  0
 11  2  1  0  0  0  0
 12 13  1  0  0  0  0
 13 14  1  0  0  0  0
 13  9  2  0  0  0  0
 15 21  1  0  0  0  0
 15 19  2  0  0  0  0
 16 15  1  0  0  0  0
 17 18  1  0  0  0  0
 17  4  1  0  0  0  0
 19  1  1  0  0  0  0
 20 19  1  0  0  0  0
 21 17  2  0  0  0  0
 22 25  1  0  0  0  0
 23 22  1  0  0  0  0
 24 21  1  0  0  0  0
 25 26  1  0  0  0  0
 25 12  2  0  0  0  0
M  END
