1,2
q = 0.0, confidence = 0.994

 28 30  0  0  0  0  0  0  0  0999 V2000
    2.1642    1.0654   -0.0000 N   0  0  0  0  0  2  0  0  0  0  0  0
   -0.1767   -0.0467    0.0001 N   0  0  0  0  0  2  0  0  0  0  0  0
   -1.4527   -0.5679    0.0002 N   0  0  0  0  0  0  0  0  0  0  0  0
    3.4227    1.5432   -0.0001 C   0  0  0  0  0  0  0  0  0  0  0  0
    4.2045    0.7626    0.0000 H   0  0  0  0  0  0  0  0  0  0  0  0
    3.6896    2.9182   -0.0002 C   0  0  0  0  0  0  0  0  0  0  0  0
    2.6190    3.8292   -0.0004 C   0  0  0  0  0  0  0  0  0  0  0  0
    1.3102    3.3370   -0.0003 C   0  0  0  0  0  0  0  0  0  0  0  0
    0.4447    4.0150   -0.0005 H   0  0  0  0  0  0  0  0  0  0  0  0
    1.1034    1.9432   -0.0002 C   0  0  0  0  0  0  0  0  0  0  0  0
   -0.1776    1.2871   -0.0001 C   0  0  0  0  0  0  0  0  0  0  0  0
   -1.5885    1.7713   -0.0001 C   0  0  0  0  0  0  0  0  0  0  0  0
   -1.8398    2.3847    0.8923 H   0  0  0  0  0  0  0  0  0  0  0  0
   -1.8400    2.3846   -0.8924 H   0  0  0  0  0  0  0  0  0  0  0  0
   -2.3036    0.4342    0.0001 C   0  0  0  0  0  0  0  0  0  0  0  0
   -3.7473    0.2254    0.0001 C   0  0  0  0  0  0  0  0  0  0  0  0
   -4.6455    1.3179    0.0010 C   0  0  0  0  0  0  0  0  0  0  0  0
   -6.0280    1.0968    0.0009 C   0  0  0  0  0  0  0  0  0  0  0  0
   -6.7196    1.9524    0.0017 H   0  0  0  0  0  0  0  0  0  0  0  0
   -6.5295   -0.2152   -0.0001 C   0  0  0  0  0  0  0  0  0  0  0  0
   -5.6433   -1.3079   -0.0011 C   0  0  0  0  0  0  0  0  0  0  0  0
   -4.2625   -1.0949   -0.0010 C   0  0  0  0  0  0  0  0  0  0  0  0
   -3.5520   -1.9343   -0.0017 H   0  0  0  0  0  0  0  0  0  0  0  0
    4.7330    3.2636   -0.0003 H   0  0  0  0  0  0  0  0  0  0  0  0
    2.8044    4.9133   -0.0005 H   0  0  0  0  0  0  0  0  0  0  0  0
   -4.2622    2.3497    0.0019 H   0  0  0  0  0  0  0  0  0  0  0  0
   -7.6164   -0.3877   -0.0002 H   0  0  0  0  0  0  0  0  0  0  0  0
   -6.0364   -2.3355   -0.0020 H   0  0  0  0  0  0  0  0  0  0  0  0
  2  3  1  0  0  0  0
  4  1  1  0  0  0  0
  4  5  1  0  0  0  0
  6  4  2  0  0  0  0
  7  8  2  0  0  0  0
  7  6  1  0  0  0  0
  8 10  1  0  0  0  0
  9  8  1  0  0  0  0
 10 11  2  0  0  0  0
 10  1  1  0  0  0  0
 11 12  1  0  0  0  0
 11  2  1  0  0  0  0
 12 15  1  0  0  0  0
 12 13  1  0  0  0  0
 14 12  1  0  0  0  0
 15  3  2  0  0  0  0
 16 15  1  0  0  0  0
 16 17  1  0  0  0  0
 17 26  1  0  0  0  0
 18 17  2  0  0  0  0
 18 19  1  0  0  0  0
 20 18  1  0  0  0  0
 21 22  1  0  0  0  0
 21 20  2  0  0  0  0
 22 16  2  0  0  0  0
 23 22  1  0  0  0  0
 24  6  1  0  0  0  0
 25  7  1  0  0  0  0
 27 20  1  0  0  0  0
 28 21  1  0  0  0  0
M  END
