3,4
q = -1.0

 30 32  0  0  1  0  0  0  0  0999 V2000
   -0.4142    3.4334   -1.7032 O   0  0  0  0  0  0  0  0  0  0  0  0
   -2.1518    2.1652   -0.9465 O   0  0  0  0  0  0  0  0  0  0  0  0
    0.8623   -1.1339   -0.9242 N   0  0  0  0  0  2  0  0  0  0  0  0
   -0.0460    1.4327   -0.5696 N   0  0  0  0  0  2  0  0  0  0  0  0
    0.7186   -2.3062   -1.5663 C   0  0  0  0  0  0  0  0  0  0  0  0
   -0.3175   -2.5563   -1.8452 H   0  0  0  0  0  0  0  0  0  0  0  0
    1.8080   -3.1404   -1.8620 C   0  0  0  0  0  0  0  0  0  0  0  0
    1.6399   -4.0892   -2.3901 H   0  0  0  0  0  0  0  0  0  0  0  0
    3.0706   -2.7507   -1.4290 C   0  0  0  0  0  0  0  0  0  0  0  0
    3.9482   -3.3993   -1.5761 H   0  0  0  0  0  0  0  0  0  0  0  0
    3.2463   -1.4970   -0.7967 C   0  0  0  0  0  0  0  0  0  0  0  0
    4.5322   -1.0764   -0.3199 C   0  0  0  0  0  0  0  0  0  0  0  0
    5.3858   -1.7609   -0.4382 H   0  0  0  0  0  0  0  0  0  0  0  0
    4.6802    0.1478    0.2740 C   0  0  0  0  0  0  0  0  0  0  0  0
    5.6621    0.4682    0.6548 H   0  0  0  0  0  0  0  0  0  0  0  0
    3.5890    1.0799    0.3656 C   0  0  0  0  0  0  0  0  0  0  0  0
    3.8393    2.3784    0.8662 C   0  0  0  0  0  0  0  0  0  0  0  0
    4.8475    2.6270    1.2287 H   0  0  0  0  0  0  0  0  0  0  0  0
    2.8197    3.3286    0.8572 C   0  0  0  0  0  0  0  0  0  0  0  0
    3.0054    4.3447    1.2380 H   0  0  0  0  0  0  0  0  0  0  0  0
    1.5531    3.0085    0.3552 C   0  0  0  0  0  0  0  0  0  0  0  0
    0.7744    3.7799    0.3152 H   0  0  0  0  0  0  0  0  0  0  0  0
    1.2344    1.7136   -0.1286 C   0  0  1  0  0  3  0  0  0  0  0  0
    2.2753    0.7076   -0.1038 C   0  0  0  0  0  0  0  0  0  0  0  0
    2.1027   -0.6388   -0.6143 C   0  0  0  0  0  0  0  0  0  0  0  0
   -0.8196    2.4306   -1.1266 C   0  0  0  0  0  0  0  0  0  0  0  0
   -3.0496    2.8604   -1.8068 C   0  0  0  0  0  0  0  0  0  0  0  0
   -4.0292    2.8899   -1.2930 H   0  0  0  0  0  0  0  0  0  0  0  0
   -3.1545    2.3011   -2.7603 H   0  0  0  0  0  0  0  0  0  0  0  0
   -2.6852    3.8863   -2.0123 H   0  0  0  0  0  0  0  0  0  0  0  0
  1 26  2  0  0  0  0
  3 25  1  0  0  0  0
  5  3  1  0  0  0  0
  6  5  1  0  0  0  0
  7  5  2  0  0  0  0
  7  9  1  0  0  0  0
  8  7  1  0  0  0  0
  9 11  2  0  0  0  0
 10  9  1  0  0  0  0
 11 25  1  0  0  0  0
 11 12  1  0  0  0  0
 12 14  2  0  0  0  0
 13 12  1  0  0  0  0
 14 16  1  0  0  0  0
 14 15  1  0  0  0  0
 16 17  2  0  0  0  0
 17 18  1  0  0  0  0
 19 17  1  0  0  0  0
 19 20  1  0  0  0  0
 21 19  2  0  0  0  0
 22 21  1  0  0  0  0
 23  4  1  1  0  0  0
 23 24  1  0  0  0  0
 23 21  1  0  0  0  0
 24 16  1  0  0  0  0
 25 24  2  0  0  0  0
 26  2  1  0  0  0  0
 26  4  1  0  0  0  0
 27 28  1  0  0  0  0
 27  2  1  0  0  0  0
 29 27  1  0  0  0  0
 30 27  1  0  0  0  0
M  END
