10,18
q = 0.0, confidence = 0.998

 46 48  0  0  1  0  0  0  0  0999 V2000
   -2.4517    0.4476   -0.6311 N   0  0  0  0  0  0  0  0  0  0  0  0
   -3.7712    0.0429   -0.2552 C   0  0  0  0  0  0  0  0  0  0  0  0
   -4.7168   -0.2218   -1.2684 C   0  0  0  0  0  0  0  0  0  0  0  0
   -6.0039   -0.6603   -0.9331 C   0  0  0  0  0  0  0  0  0  0  0  0
   -6.3712   -0.8148    0.4152 C   0  0  0  0  0  0  0  0  0  0  0  0
   -5.4405   -0.5294    1.4252 C   0  0  0  0  0  0  0  0  0  0  0  0
   -4.1405   -0.1116    1.0964 C   0  0  0  0  0  0  0  0  0  0  0  0
   -1.6275   -0.5401   -1.2851 C   0  0  0  0  0  0  0  0  0  0  0  0
   -1.0958   -1.5887   -0.3979 N   0  0  0  0  0  0  0  0  0  0  0  0
    0.0605   -1.3780    0.3058 N   0  0  0  0  0  2  0  0  0  0  0  0
    0.1909   -2.4275    1.1574 C   0  0  2  0  0  3  0  0  0  0  0  0
   -0.8919   -3.3137    0.9766 C   0  0  0  0  0  0  0  0  0  0  0  0
   -1.7066   -2.7543   -0.0125 C   0  0  0  0  0  0  0  0  0  0  0  0
    1.3225   -2.5242    2.1289 C   0  0  0  0  0  0  0  0  0  0  0  0
   -2.9863   -3.2625   -0.5888 C   0  0  0  0  0  0  0  0  0  0  0  0
   -1.7611    1.3796    0.2464 C   0  0  0  0  0  0  0  0  0  0  0  0
   -0.8277    2.2029   -0.5016 N   0  0  0  0  0  0  0  0  0  0  0  0
    0.4846    1.8497   -0.6030 N   0  0  0  0  0  2  0  0  0  0  0  0
    1.0783    2.7689   -1.3959 C   0  0  1  0  0  3  0  0  0  0  0  0
    0.1097    3.7034   -1.8276 C   0  0  0  0  0  0  0  0  0  0  0  0
   -1.1016    3.3156   -1.2481 C   0  0  0  0  0  0  0  0  0  0  0  0
    2.5474    2.7375   -1.6596 C   0  0  0  0  0  0  0  0  0  0  0  0
   -2.4714    3.8956   -1.3387 C   0  0  0  0  0  0  0  0  0  0  0  0
   -4.4363   -0.0699   -2.3220 H   0  0  0  0  0  0  0  0  0  0  0  0
   -6.7341   -0.8638   -1.7305 H   0  0  0  0  0  0  0  0  0  0  0  0
   -7.3857   -1.1492    0.6766 H   0  0  0  0  0  0  0  0  0  0  0  0
   -5.7207   -0.6454    2.4829 H   0  0  0  0  0  0  0  0  0  0  0  0
   -3.4092    0.0688    1.8982 H   0  0  0  0  0  0  0  0  0  0  0  0
   -0.7556   -0.0515   -1.7621 H   0  0  0  0  0  0  0  0  0  0  0  0
   -2.2167   -1.0453   -2.0709 H   0  0  0  0  0  0  0  0  0  0  0  0
   -1.0652   -4.2574    1.5038 H   0  0  0  0  0  0  0  0  0  0  0  0
    2.3060   -2.3803    1.6387 H   0  0  0  0  0  0  0  0  0  0  0  0
    1.3222   -3.5111    2.6254 H   0  0  0  0  0  0  0  0  0  0  0  0
    1.2234   -1.7366    2.9042 H   0  0  0  0  0  0  0  0  0  0  0  0
   -3.8626   -2.7267   -0.1711 H   0  0  0  0  0  0  0  0  0  0  0  0
   -3.0974   -4.3355   -0.3484 H   0  0  0  0  0  0  0  0  0  0  0  0
   -3.0259   -3.1540   -1.6909 H   0  0  0  0  0  0  0  0  0  0  0  0
   -1.1816    0.9151    1.0776 H   0  0  0  0  0  0  0  0  0  0  0  0
   -2.5206    2.0398    0.7047 H   0  0  0  0  0  0  0  0  0  0  0  0
    0.2741    4.5699   -2.4759 H   0  0  0  0  0  0  0  0  0  0  0  0
    3.1058    3.0175   -0.7423 H   0  0  0  0  0  0  0  0  0  0  0  0
    2.8158    3.4501   -2.4599 H   0  0  0  0  0  0  0  0  0  0  0  0
    2.8847    1.7260   -1.9615 H   0  0  0  0  0  0  0  0  0  0  0  0
   -3.2016    3.1447   -1.7037 H   0  0  0  0  0  0  0  0  0  0  0  0
   -2.8286    4.2574   -0.3518 H   0  0  0  0  0  0  0  0  0  0  0  0
   -2.4750    4.7547   -2.0327 H   0  0  0  0  0  0  0  0  0  0  0  0
  1  2  1  0  0  0  0
  1 16  1  0  0  0  0
  2  7  1  0  0  0  0
  3  4  1  0  0  0  0
  3  2  2  0  0  0  0
  4  5  2  0  0  0  0
  5 26  1  0  0  0  0
  5  6  1  0  0  0  0
  6 27  1  0  0  0  0
  7  6  2  0  0  0  0
  7 28  1  0  0  0  0
  8  1  1  0  0  0  0
  8  9  1  0  0  0  0
  9 13  1  0  0  0  0
  9 10  1  0  0  0  0
 10 11  1  0  0  0  0
 11 14  1  1  0  0  0
 12 11  1  0  0  0  0
 12 31  1  0  0  0  0
 13 12  2  0  0  0  0
 14 33  1  0  0  0  0
 14 34  1  0  0  0  0
 15 36  1  0  0  0  0
 15 35  1  0  0  0  0
 15 13  1  0  0  0  0
 16 39  1  0  0  0  0
 16 38  1  0  0  0  0
 17 16  1  0  0  0  0
 18 17  1  0  0  0  0
 19 22  1  1  0  0  0
 19 18  1  0  0  0  0
 20 19  1  0  0  0  0
 20 21  2  0  0  0  0
 21 17  1  0  0  0  0
 22 41  1  0  0  0  0
 23 21  1  0  0  0  0
 23 45  1  0  0  0  0
 24  3  1  0  0  0  0
 25  4  1  0  0  0  0
 29  8  1  0  0  0  0
 30  8  1  0  0  0  0
 32 14  1  0  0  0  0
 37 15  1  0  0  0  0
 40 20  1  0  0  0  0
 42 22  1  0  0  0  0
 43 22  1  0  0  0  0
 44 23  1  0  0  0  0
 46 23  1  0  0  0  0
M  END
