3,4
q = -1.0

 60 65  0  0  0  0  0  0  0  0999 V2000
   -2.6946   -0.3768    1.3126 Se  0  0  0  0  0  0  0  0  0  0  0  0
    1.7139   -0.5639   -0.2335 P   0  0  0  0  0  4  0  0  0  0  0  0
    0.1071   -0.7744    0.1696 N   0  0  0  0  0  2  0  0  0  0  0  0
    0.8368    1.9789    0.0582 N   0  0  0  0  0  0  0  0  0  0  0  0
    1.8565    1.1824   -0.4435 C   0  0  0  0  0  0  0  0  0  0  0  0
    2.9022    1.9325   -0.9973 C   0  0  0  0  0  0  0  0  0  0  0  0
    3.8209    1.5489   -1.4557 H   0  0  0  0  0  0  0  0  0  0  0  0
    2.5051    3.2926   -0.8406 C   0  0  0  0  0  0  0  0  0  0  0  0
    3.1041    4.5301   -1.1904 C   0  0  0  0  0  3  0  0  0  0  0  0
    4.0886    4.5484   -1.6836 H   0  0  0  0  0  0  0  0  0  0  0  0
    2.4268    5.7106   -0.9003 C   0  0  0  0  0  0  0  0  0  0  0  0
    2.8780    6.6792   -1.1648 H   0  0  0  0  0  0  0  0  0  0  0  0
    1.1523    5.6855   -0.2667 C   0  0  0  0  0  0  0  0  0  0  0  0
    0.6412    6.6376   -0.0556 H   0  0  0  0  0  0  0  0  0  0  0  0
    0.5327    4.4908    0.0928 C   0  0  0  0  0  0  0  0  0  0  0  0
   -0.4529    4.4616    0.5758 H   0  0  0  0  0  0  0  0  0  0  0  0
    1.2111    3.2809   -0.1880 C   0  0  0  0  0  0  0  0  0  0  0  0
   -0.4587   -2.0055    0.4903 C   0  0  0  0  0  0  0  0  0  0  0  0
    0.1760   -3.2602    0.2758 C   0  0  0  0  0  0  0  0  0  0  0  0
    1.1699   -3.2937   -0.1885 H   0  0  0  0  0  0  0  0  0  0  0  0
   -0.4442   -4.4614    0.6357 C   0  0  0  0  0  0  0  0  0  0  0  0
    0.0892   -5.4078    0.4582 H   0  0  0  0  0  0  0  0  0  0  0  0
   -1.7226   -4.4760    1.2186 C   0  0  0  0  0  0  0  0  0  0  0  0
   -2.1998   -5.4226    1.5091 H   0  0  0  0  0  0  0  0  0  0  0  0
   -2.3811   -3.2552    1.4247 C   0  0  0  0  0  0  0  0  0  0  0  0
   -3.3862   -3.2306    1.8737 H   0  0  0  0  0  0  0  0  0  0  0  0
   -1.7654   -2.0508    1.0550 C   0  0  0  0  0  0  0  0  0  0  0  0
   -3.6438   -0.2895   -0.4072 C   0  0  0  0  0  0  0  0  0  0  0  0
   -3.8162   -1.4270   -1.2093 C   0  0  0  0  0  0  0  0  0  0  0  0
   -3.3944   -2.3965   -0.9069 H   0  0  0  0  0  0  0  0  0  0  0  0
   -4.5293   -1.3082   -2.4142 C   0  0  0  0  0  0  0  0  0  0  0  0
   -4.6657   -2.1963   -3.0503 H   0  0  0  0  0  0  0  0  0  0  0  0
   -5.0621   -0.0706   -2.8055 C   0  0  0  0  0  0  0  0  0  0  0  0
   -5.6181    0.0163   -3.7511 H   0  0  0  0  0  0  0  0  0  0  0  0
   -4.8774    1.0585   -1.9904 C   0  0  0  0  0  0  0  0  0  0  0  0
   -5.2805    2.0355   -2.2974 H   0  0  0  0  0  0  0  0  0  0  0  0
   -4.1669    0.9591   -0.7849 C   0  0  0  0  0  0  0  0  0  0  0  0
   -3.9801    1.8484   -0.1607 H   0  0  0  0  0  0  0  0  0  0  0  0
    2.1771   -1.3939   -1.7842 C   0  0  0  0  0  0  0  0  0  0  0  0
    1.1502   -1.7306   -2.6897 C   0  0  0  0  0  0  0  0  0  0  0  0
    0.1001   -1.5553   -2.4095 H   0  0  0  0  0  0  0  0  0  0  0  0
    1.4792   -2.2800   -3.9361 C   0  0  0  0  0  0  0  0  0  0  0  0
    0.6788   -2.5475   -4.6421 H   0  0  0  0  0  0  0  0  0  0  0  0
    2.8248   -2.4832   -4.2849 C   0  0  0  0  0  0  0  0  0  0  0  0
    3.0790   -2.9124   -5.2659 H   0  0  0  0  0  0  0  0  0  0  0  0
    3.8472   -2.1358   -3.3874 C   0  0  0  0  0  0  0  0  0  0  0  0
    4.9012   -2.2879   -3.6643 H   0  0  0  0  0  0  0  0  0  0  0  0
    3.5287   -1.5918   -2.1342 C   0  0  0  0  0  0  0  0  0  0  0  0
    4.3309   -1.3172   -1.4325 H   0  0  0  0  0  0  0  0  0  0  0  0
    2.8254   -1.1292    1.0972 C   0  0  0  0  0  0  0  0  0  0  0  0
    3.4695   -2.3832    1.1037 C   0  0  0  0  0  0  0  0  0  0  0  0
    3.3831   -3.0596    0.2404 H   0  0  0  0  0  0  0  0  0  0  0  0
    4.2370   -2.7668    2.2137 C   0  0  0  0  0  0  0  0  0  0  0  0
    4.7438   -3.7435    2.2150 H   0  0  0  0  0  0  0  0  0  0  0  0
    4.3553   -1.9091    3.3184 C   0  0  0  0  0  0  0  0  0  0  0  0
    4.9573   -2.2141    4.1878 H   0  0  0  0  0  0  0  0  0  0  0  0
    3.7089   -0.6612    3.3157 C   0  0  0  0  0  0  0  0  0  0  0  0
    3.8029    0.0130    4.1799 H   0  0  0  0  0  0  0  0  0  0  0  0
    2.9469   -0.2665    2.2089 C   0  0  0  0  0  0  0  0  0  0  0  0
    2.4434    0.7133    2.1963 H   0  0  0  0  0  0  0  0  0  0  0  0
  2  3  1  0  0  0  0
  2 50  1  0  0  0  0
  3 18  1  0  0  0  0
  5  2  1  0  0  0  0
  5  4  2  0  0  0  0
  6  8  2  0  0  0  0
  6  5  1  0  0  0  0
  7  6  1  0  0  0  0
  8 17  1  0  0  0  0
  9 11  1  0  0  0  0
  9  8  1  0  0  0  0
 10  9  1  0  0  0  0
 11 13  2  0  0  0  0
 12 11  1  0  0  0  0
 13 14  1  0  0  0  0
 13 15  1  0  0  0  0
 15 16  1  0  0  0  0
 17  4  1  0  0  0  0
 17 15  2  0  0  0  0
 18 27  1  0  0  0  0
 19 18  2  0  0  0  0
 19 21  1  0  0  0  0
 20 19  1  0  0  0  0
 21 23  2  0  0  0  0
 22 21  1  0  0  0  0
 23 25  1  0  0  0  0
 23 24  1  0  0  0  0
 25 26  1  0  0  0  0
 27  1  1  0  0  0  0
 27 25  2  0  0  0  0
 28  1  1  0  0  0  0
 29 30  1  0  0  0  0
 29 28  2  0  0  0  0
 31 29  1  0  0  0  0
 32 31  1  0  0  0  0
 33 31  2  0  0  0  0
 33 35  1  0  0  0  0
 34 33  1  0  0  0  0
 35 37  2  0  0  0  0
 36 35  1  0  0  0  0
 37 28  1  0  0  0  0
 37 38  1  0  0  0  0
 39  2  1  0  0  0  0
 40 41  1  0  0  0  0
 40 39  2  0  0  0  0
 42 40  1  0  0  0  0
 43 42  1  0  0  0  0
 44 42  2  0  0  0  0
 44 46  1  0  0  0  0
 45 44  1  0  0  0  0
 46 48  2  0  0  0  0
 47 46  1  0  0  0  0
 48 39  1  0  0  0  0
 48 49  1  0  0  0  0
 50 51  2  0  0  0  0
 50 59  1  0  0  0  0
 51 53  1  0  0  0  0
 52 51  1  0  0  0  0
 53 54  1  0  0  0  0
 53 55  2  0  0  0  0
 55 56  1  0  0  0  0
 57 55  1  0  0  0  0
 57 58  1  0  0  0  0
 59 57  2  0  0  0  0
 60 59  1  0  0  0  0
M  END
