1,18
q = -1.0, confidence = 0.0

 18 19  0  0  0  0  0  0  0  0999 V2000
   -1.1219    1.3625   -0.0002 N   0  0  0  0  0  2  0  0  0  0  0  0
   -0.6314    2.6245   -0.0002 C   0  0  0  0  0  3  0  0  0  0  0  0
    0.4644    2.7080   -0.0002 H   0  0  0  0  0  0  0  0  0  0  0  0
   -1.4562    3.7470   -0.0003 C   0  0  0  0  0  0  0  0  0  0  0  0
   -1.0084    4.7498   -0.0003 H   0  0  0  0  0  0  0  0  0  0  0  0
   -2.8545    3.5553   -0.0002 C   0  0  0  0  0  0  0  0  0  0  0  0
   -3.5357    4.4197   -0.0003 H   0  0  0  0  0  0  0  0  0  0  0  0
   -3.3668    2.2634   -0.0002 C   0  0  0  0  0  0  0  0  0  0  0  0
   -4.4497    2.0786   -0.0002 H   0  0  0  0  0  0  0  0  0  0  0  0
   -2.4911    1.1467   -0.0001 C   0  0  0  0  0  0  0  0  0  0  0  0
   -2.9104   -0.2211   -0.0000 C   0  0  0  0  0  0  0  0  0  0  0  0
   -4.1761   -0.8606    0.0006 C   0  0  0  0  0  3  0  0  0  0  0  0
   -5.1578   -0.3721    0.0008 H   0  0  0  0  0  0  0  0  0  0  0  0
   -3.9147   -2.2445    0.0007 C   0  0  0  0  0  0  0  0  0  0  0  0
   -4.6523   -3.0559    0.0010 H   0  0  0  0  0  0  0  0  0  0  0  0
   -2.5055   -2.3948    0.0003 C   0  0  0  0  0  0  0  0  0  0  0  0
   -1.9073   -3.3157    0.0002 H   0  0  0  0  0  0  0  0  0  0  0  0
   -1.9107   -1.1786   -0.0002 N   0  0  0  0  0  0  0  0  0  0  0  0
  1 10  1  0  0  0  0
  2  1  1  0  0  0  0
  3  2  1  0  0  0  0
  4  6  2  0  0  0  0
  4  2  1  0  0  0  0
  5  4  1  0  0  0  0
  6  8  1  0  0  0  0
  7  6  1  0  0  0  0
  8 10  2  0  0  0  0
  9  8  1  0  0  0  0
 10 11  1  0  0  0  0
 11 12  1  0  0  0  0
 12 14  1  0  0  0  0
 12 13  1  0  0  0  0
 14 15  1  0  0  0  0
 16 14  2  0  0  0  0
 17 16  1  0  0  0  0
 18 11  2  0  0  0  0
 18 16  1  0  0  0  0
M  END
