1,2
q = -1.0

 36 37  0  0  1  0  0  0  0  0999 V2000
    2.0889   -0.3774   -0.5623 N   0  0  0  0  0  2  0  0  0  0  0  0
   -0.5577   -1.5469   -0.3244 N   0  0  0  0  0  2  0  0  0  0  0  0
    1.3732    2.4433   -0.5750 Cl  0  0  0  0  0  0  0  0  0  0  0  0
    4.5275   -1.7059    0.9188 Cl  0  0  0  0  0  0  0  0  0  0  0  0
   -0.5370   -1.8218    2.6586 Cl  0  0  0  0  0  0  0  0  0  0  0  0
   -2.9059   -1.8730   -2.2495 Cl  0  0  0  0  0  0  0  0  0  0  0  0
    3.6156   -1.6596   -2.0714 C   0  0  0  0  0  0  0  0  0  0  0  0
    3.3389   -1.7846   -3.1383 H   0  0  0  0  0  0  0  0  0  0  0  0
    4.1931   -2.5536   -1.7668 H   0  0  0  0  0  0  0  0  0  0  0  0
    4.2755   -0.7772   -1.9908 H   0  0  0  0  0  0  0  0  0  0  0  0
    2.3430   -1.5127   -1.2611 C   0  0  0  0  0  0  0  0  0  0  0  0
    1.4138   -2.5552   -1.3392 C   0  0  0  0  0  0  0  0  0  0  0  0
    1.7458   -3.4576   -1.8710 H   0  0  0  0  0  0  0  0  0  0  0  0
    0.1265   -2.6209   -0.7577 C   0  0  2  0  0  3  0  0  0  0  0  0
   -0.5090   -3.9897   -0.6390 C   0  0  0  0  0  0  0  0  0  0  0  0
   -1.4796   -4.0400   -1.1714 H   0  0  0  0  0  0  0  0  0  0  0  0
   -0.7032   -4.2337    0.4256 H   0  0  0  0  0  0  0  0  0  0  0  0
    0.1597   -4.7655   -1.0526 H   0  0  0  0  0  0  0  0  0  0  0  0
    3.1127    0.4364   -0.0899 C   0  0  0  0  0  0  0  0  0  0  0  0
    2.9669    1.8489   -0.0988 C   0  0  0  0  0  0  0  0  0  0  0  0
    3.9475    2.7573    0.2895 C   0  0  0  0  0  0  0  0  0  0  0  0
    3.7503    3.8366    0.2286 H   0  0  0  0  0  0  0  0  0  0  0  0
    5.1621    2.2569    0.7866 C   0  0  0  0  0  0  0  0  0  0  0  0
    5.9543    2.9473    1.1092 H   0  0  0  0  0  0  0  0  0  0  0  0
    5.3307    0.8733    0.9283 C   0  0  0  0  0  0  0  0  0  0  0  0
    6.2385    0.4593    1.3886 H   0  0  0  0  0  0  0  0  0  0  0  0
    4.3226   -0.0161    0.5248 C   0  0  0  0  0  0  0  0  0  0  0  0
   -1.8240   -1.7844    0.2612 C   0  0  0  0  0  0  0  0  0  0  0  0
   -1.9667   -1.8915    1.6691 C   0  0  0  0  0  0  0  0  0  0  0  0
   -3.2182   -2.0429    2.2821 C   0  0  0  0  0  0  0  0  0  0  0  0
   -3.2732   -2.1111    3.3770 H   0  0  0  0  0  0  0  0  0  0  0  0
   -4.3713   -2.1008    1.4872 C   0  0  0  0  0  0  0  0  0  0  0  0
   -5.3578   -2.2115    1.9607 H   0  0  0  0  0  0  0  0  0  0  0  0
   -4.2725   -2.0296    0.0916 C   0  0  0  0  0  0  0  0  0  0  0  0
   -5.1625   -2.0935   -0.5489 H   0  0  0  0  0  0  0  0  0  0  0  0
   -3.0109   -1.8846   -0.5048 C   0  0  0  0  0  0  0  0  0  0  0  0
  1 19  1  0  0  0  0
  2 28  1  0  0  0  0
  3 20  1  0  0  0  0
  6 36  1  0  0  0  0
  7 10  1  0  0  0  0
  7  9  1  0  0  0  0
  7 11  1  0  0  0  0
  8  7  1  0  0  0  0
 11  1  1  0  0  0  0
 12 11  2  0  0  0  0
 13 12  1  0  0  0  0
 14 12  1  6  0  0  0
 14 15  1  0  0  0  0
 14  2  1  0  0  0  0
 15 17  1  0  0  0  0
 16 15  1  0  0  0  0
 18 15  1  0  0  0  0
 19 27  1  0  0  0  0
 20 19  2  0  0  0  0
 20 21  1  0  0  0  0
 21 23  2  0  0  0  0
 22 21  1  0  0  0  0
 23 25  1  0  0  0  0
 23 24  1  0  0  0  0
 25 26  1  0  0  0  0
 27  4  1  0  0  0  0
 27 25  2  0  0  0  0
 28 29  1  0  0  0  0
 29 30  2  0  0  0  0
 29  5  1  0  0  0  0
 30 31  1  0  0  0  0
 32 33  1  0  0  0  0
 32 30  1  0  0  0  0
 34 32  2  0  0  0  0
 35 34  1  0  0  0  0
 36 34  1  0  0  0  0
 36 28  2  0  0  0  0
M  END
