3,5
q = 0.0, confidence = 1.0

 45 49  0  0  1  0  0  0  0  0999 V2000
   -3.2060   -0.4552    0.4709 N   0  0  0  0  0  0  0  0  0  0  0  0
   -3.1469   -1.4658    0.2383 H   0  0  0  0  0  0  0  0  0  0  0  0
   -2.0357    0.1705    0.5414 N   0  0  0  0  0  2  0  0  0  0  0  0
   -0.0000    1.7262   -0.0000 N   0  0  0  0  0  0  0  0  0  0  0  0
    2.0357    0.1705   -0.5410 N   0  0  0  0  0  2  0  0  0  0  0  0
    3.2060   -0.4551   -0.4706 N   0  0  0  0  0  0  0  0  0  0  0  0
    3.1468   -1.4658   -0.2380 H   0  0  0  0  0  0  0  0  0  0  0  0
   -5.8807   -1.2903   -0.4898 C   0  0  0  0  0  0  0  0  0  0  0  0
   -5.0387   -1.8881   -0.8741 H   0  0  0  0  0  0  0  0  0  0  0  0
   -7.1945   -1.7345   -0.6850 C   0  0  0  0  0  0  0  0  0  0  0  0
   -7.3730   -2.6943   -1.1924 H   0  0  0  0  0  0  0  0  0  0  0  0
   -8.2780   -0.9536   -0.2505 C   0  0  0  0  0  0  0  0  0  0  0  0
   -9.3091   -1.3044   -0.4072 H   0  0  0  0  0  0  0  0  0  0  0  0
   -8.0411    0.2784    0.3810 C   0  0  0  0  0  0  0  0  0  0  0  0
   -8.8864    0.8933    0.7249 H   0  0  0  0  0  0  0  0  0  0  0  0
   -6.7294    0.7248    0.5856 C   0  0  0  0  0  0  0  0  0  0  0  0
   -6.5446    1.6790    1.1016 H   0  0  0  0  0  0  0  0  0  0  0  0
   -5.6341   -0.0560    0.1557 C   0  0  0  0  0  0  0  0  0  0  0  0
   -4.2588    0.4101    0.3554 C   0  0  2  0  0  3  0  0  0  0  0  0
   -3.6964    1.6996    0.3921 C   0  0  0  0  0  0  0  0  0  0  0  0
   -4.2344    2.6460    0.2801 H   0  0  0  0  0  0  0  0  0  0  0  0
   -2.2949    1.4925    0.4735 C   0  0  0  0  0  0  0  0  0  0  0  0
   -1.1376    2.3833    0.2811 C   0  0  0  0  0  0  0  0  0  0  0  0
   -1.1771    3.7927    0.3088 C   0  0  0  0  0  0  0  0  0  0  0  0
   -2.1045    4.3239    0.5652 H   0  0  0  0  0  0  0  0  0  0  0  0
   -0.0000    4.4914    0.0003 C   0  0  0  0  0  0  0  0  0  0  0  0
    0.0000    5.5918    0.0004 H   0  0  0  0  0  0  0  0  0  0  0  0
    1.1771    3.7928   -0.3083 C   0  0  0  0  0  0  0  0  0  0  0  0
    2.1046    4.3240   -0.5645 H   0  0  0  0  0  0  0  0  0  0  0  0
    1.1376    2.3834   -0.2809 C   0  0  0  0  0  0  0  0  0  0  0  0
    2.2949    1.4926   -0.4733 C   0  0  1  0  0  3  0  0  0  0  0  0
    3.6965    1.6997   -0.3924 C   0  0  0  0  0  0  0  0  0  0  0  0
    4.2346    2.6460   -0.2809 H   0  0  0  0  0  0  0  0  0  0  0  0
    4.2588    0.4101   -0.3556 C   0  0  0  0  0  0  0  0  0  0  0  0
    5.6342   -0.0560   -0.1562 C   0  0  0  0  0  0  0  0  0  0  0  0
    6.7294    0.7247   -0.5866 C   0  0  0  0  0  0  0  0  0  0  0  0
    6.5445    1.6788   -1.1026 H   0  0  0  0  0  0  0  0  0  0  0  0
    8.0412    0.2783   -0.3822 C   0  0  0  0  0  0  0  0  0  0  0  0
    8.8864    0.8931   -0.7265 H   0  0  0  0  0  0  0  0  0  0  0  0
    8.2781   -0.9536    0.2494 C   0  0  0  0  0  0  0  0  0  0  0  0
    9.3093   -1.3044    0.4059 H   0  0  0  0  0  0  0  0  0  0  0  0
    7.1948   -1.7344    0.6844 C   0  0  0  0  0  0  0  0  0  0  0  0
    7.3734   -2.6941    1.1919 H   0  0  0  0  0  0  0  0  0  0  0  0
    5.8809   -1.2902    0.4895 C   0  0  0  0  0  0  0  0  0  0  0  0
    5.0390   -1.8879    0.8740 H   0  0  0  0  0  0  0  0  0  0  0  0
  1  3  1  0  0  0  0
  2  1  1  0  0  0  0
  4 23  1  0  0  0  0
  5 31  1  0  0  0  0
  5  6  1  0  0  0  0
  6 34  1  0  0  0  0
  6  7  1  0  0  0  0
  8 18  1  0  0  0  0
  9  8  1  0  0  0  0
 10  8  2  0  0  0  0
 10 12  1  0  0  0  0
 11 10  1  0  0  0  0
 12 14  2  0  0  0  0
 13 12  1  0  0  0  0
 14 16  1  0  0  0  0
 14 15  1  0  0  0  0
 16 17  1  0  0  0  0
 18 16  2  0  0  0  0
 19 18  1  6  0  0  0
 19 20  1  0  0  0  0
 19  1  1  0  0  0  0
 20 22  2  0  0  0  0
 21 20  1  0  0  0  0
 22  3  1  0  0  0  0
 23 24  2  0  0  0  0
 23 22  1  0  0  0  0
 24 25  1  0  0  0  0
 26 27  1  0  0  0  0
 26 24  1  0  0  0  0
 28 30  1  0  0  0  0
 28 26  2  0  0  0  0
 29 28  1  0  0  0  0
 30  4  2  0  0  0  0
 31 32  1  0  0  0  0
 31 30  1  1  0  0  0
 32 34  2  0  0  0  0
 32 33  1  0  0  0  0
 34 35  1  0  0  0  0
 35 44  1  0  0  0  0
 36 38  1  0  0  0  0
 36 35  2  0  0  0  0
 37 36  1  0  0  0  0
 38 40  2  0  0  0  0
 39 38  1  0  0  0  0
 40 41  1  0  0  0  0
 40 42  1  0  0  0  0
 42 43  1  0  0  0  0
 44 42  2  0  0  0  0
 44 45  1  0  0  0  0
M  END
