2,3
q = 0.0, confidence = 0.996

 28 29  0  0  0  0  0  0  0  0999 V2000
    1.3954    0.4175   -0.3420 O   0  0  0  0  0  0  0  0  0  0  0  0
   -2.5072    0.7000    0.0131 N   0  0  0  0  0  2  0  0  0  0  0  0
    0.0798    0.6413   -0.2120 N   0  0  0  0  0  2  0  0  0  0  0  0
   -3.8490    0.6441    0.1122 C   0  0  0  0  0  0  0  0  0  0  0  0
   -4.2627   -0.3796    0.1245 H   0  0  0  0  0  0  0  0  0  0  0  0
   -4.6279    1.8044    0.1990 C   0  0  0  0  0  0  0  0  0  0  0  0
   -5.7205    1.7152    0.2763 H   0  0  0  0  0  0  0  0  0  0  0  0
   -3.9962    3.0590    0.1872 C   0  0  0  0  0  0  0  0  0  0  0  0
   -4.5858    3.9849    0.2559 H   0  0  0  0  0  0  0  0  0  0  0  0
   -2.6016    3.1166    0.0877 C   0  0  0  0  0  0  0  0  0  0  0  0
   -2.0680    4.0778    0.0774 H   0  0  0  0  0  0  0  0  0  0  0  0
   -1.8724    1.9158   -0.0005 C   0  0  0  0  0  0  0  0  0  0  0  0
   -0.4295    1.8529   -0.1169 C   0  0  0  0  0  0  0  0  0  0  0  0
    0.1827    2.7643   -0.1516 H   0  0  0  0  0  0  0  0  0  0  0  0
    2.3108    1.4845   -0.0460 C   0  0  0  0  0  0  0  0  0  0  0  0
    2.0164    1.9372    0.9313 H   0  0  0  0  0  0  0  0  0  0  0  0
    2.2549    2.2785   -0.8261 H   0  0  0  0  0  0  0  0  0  0  0  0
    3.6939    0.8846    0.0184 C   0  0  0  0  0  0  0  0  0  0  0  0
    3.8769   -0.4816    0.3082 C   0  0  0  0  0  0  0  0  0  0  0  0
    3.0008   -1.1373    0.4310 H   0  0  0  0  0  0  0  0  0  0  0  0
    5.1767   -1.0015    0.4042 C   0  0  0  0  0  0  0  0  0  0  0  0
    5.3145   -2.0715    0.6213 H   0  0  0  0  0  0  0  0  0  0  0  0
    6.2930   -0.1704    0.2226 C   0  0  0  0  0  0  0  0  0  0  0  0
    7.3096   -0.5848    0.3012 H   0  0  0  0  0  0  0  0  0  0  0  0
    6.1093    1.1904   -0.0697 C   0  0  0  0  0  0  0  0  0  0  0  0
    6.9793    1.8464   -0.2238 H   0  0  0  0  0  0  0  0  0  0  0  0
    4.8134    1.7147   -0.1788 C   0  0  0  0  0  0  0  0  0  0  0  0
    4.6727    2.7807   -0.4213 H   0  0  0  0  0  0  0  0  0  0  0  0
  1  3  1  0  0  0  0
  1 15  1  0  0  0  0
  2  4  1  0  0  0  0
  3 13  1  0  0  0  0
  4  5  1  0  0  0  0
  4  6  2  0  0  0  0
  6  7  1  0  0  0  0
  8  6  1  0  0  0  0
  8  9  1  0  0  0  0
 10  8  2  0  0  0  0
 11 10  1  0  0  0  0
 12  2  1  0  0  0  0
 12 10  1  0  0  0  0
 13 12  2  0  0  0  0
 14 13  1  0  0  0  0
 15 18  1  0  0  0  0
 15 16  1  0  0  0  0
 17 15  1  0  0  0  0
 18 19  1  0  0  0  0
 19 21  2  0  0  0  0
 19 20  1  0  0  0  0
 21 22  1  0  0  0  0
 23 24  1  0  0  0  0
 23 21  1  0  0  0  0
 25 23  2  0  0  0  0
 26 25  1  0  0  0  0
 27 25  1  0  0  0  0
 27 18  2  0  0  0  0
 28 27  1  0  0  0  0
M  END
