1,2
q = 0.0, confidence = 0.988

 60 64  0  0  1  0  0  0  0  0999 V2000
    2.9042   -1.5975   -1.1780 N   0  0  0  0  0  2  0  0  0  0  0  0
    1.9663   -0.3828    1.9238 N   0  0  0  0  0  2  0  0  0  0  0  0
    0.6988    0.0057   -0.5122 N   0  0  0  0  0  0  0  0  0  0  0  0
   -2.2173    0.9021   -0.3118 N   0  0  0  0  0  0  0  0  0  0  0  0
   -2.3291    0.7457    1.0265 N   0  0  0  0  0  0  0  0  0  0  0  0
   -3.2990   -0.1034    1.2504 N   0  0  0  0  0  0  0  0  0  0  0  0
    3.8146   -2.5846   -1.2738 C   0  0  0  0  0  3  0  0  0  0  0  0
    4.6187   -2.5409   -0.5152 H   0  0  0  0  0  0  0  0  0  0  0  0
    3.7326   -3.5699   -2.2655 C   0  0  0  0  0  0  0  0  0  0  0  0
    4.4926   -4.3625   -2.3166 H   0  0  0  0  0  0  0  0  0  0  0  0
    2.6663   -3.5184   -3.1746 C   0  0  0  0  0  0  0  0  0  0  0  0
    2.5659   -4.2782   -3.9646 H   0  0  0  0  0  0  0  0  0  0  0  0
    1.7209   -2.4895   -3.0601 C   0  0  0  0  0  0  0  0  0  0  0  0
    0.8655   -2.4238   -3.7488 H   0  0  0  0  0  0  0  0  0  0  0  0
    1.8723   -1.5304   -2.0460 C   0  0  0  0  0  0  0  0  0  0  0  0
    0.9266   -0.3567   -1.8972 C   0  0  0  0  0  0  0  0  0  0  0  0
    1.4353    0.5216   -2.3611 H   0  0  0  0  0  0  0  0  0  0  0  0
   -0.0045   -0.5750   -2.4792 H   0  0  0  0  0  0  0  0  0  0  0  0
    0.2017   -1.0285    0.3817 C   0  0  0  0  0  0  0  0  0  0  0  0
    0.6451   -1.9959    0.0607 H   0  0  0  0  0  0  0  0  0  0  0  0
   -0.9003   -1.1767    0.3741 H   0  0  0  0  0  0  0  0  0  0  0  0
    0.6759   -0.7641    1.7957 C   0  0  1  0  0  3  0  0  0  0  0  0
   -0.1556   -0.9275    2.9135 C   0  0  0  0  0  0  0  0  0  0  0  0
   -1.2137   -1.1901    2.7691 H   0  0  0  0  0  0  0  0  0  0  0  0
    0.3810   -0.7123    4.1907 C   0  0  0  0  0  0  0  0  0  0  0  0
   -0.2534   -0.8232    5.0832 H   0  0  0  0  0  0  0  0  0  0  0  0
    1.7294   -0.3480    4.3132 C   0  0  0  0  0  0  0  0  0  0  0  0
    2.1906   -0.1758    5.2961 H   0  0  0  0  0  0  0  0  0  0  0  0
    2.4923   -0.1940    3.1491 C   0  0  0  0  0  0  0  0  0  0  0  0
    3.5674    0.0544    3.1612 H   0  0  0  0  0  0  0  0  0  0  0  0
    0.2261    1.3653   -0.2863 C   0  0  0  0  0  0  0  0  0  0  0  0
    0.9896    2.0548   -0.7062 H   0  0  0  0  0  0  0  0  0  0  0  0
    0.1897    1.5575    0.8040 H   0  0  0  0  0  0  0  0  0  0  0  0
   -1.1526    1.7331   -0.8904 C   0  0  2  0  0  0  0  0  0  0  0  0
   -1.1435    1.4781   -1.9692 H   0  0  0  0  0  0  0  0  0  0  0  0
   -1.4202    3.2238   -0.7645 C   0  0  0  0  0  0  0  0  0  0  0  0
   -1.9966    3.7840    0.3913 C   0  0  0  0  0  0  0  0  0  0  0  0
   -2.3140    3.1235    1.2120 H   0  0  0  0  0  0  0  0  0  0  0  0
   -2.1639    5.1735    0.4918 C   0  0  0  0  0  0  0  0  0  0  0  0
   -2.6209    5.6006    1.3974 H   0  0  0  0  0  0  0  0  0  0  0  0
   -1.7479    6.0165   -0.5502 C   0  0  0  0  0  0  0  0  0  0  0  0
   -1.8782    7.1061   -0.4663 H   0  0  0  0  0  0  0  0  0  0  0  0
   -1.1618    5.4636   -1.6996 C   0  0  0  0  0  0  0  0  0  0  0  0
   -0.8291    6.1164   -2.5206 H   0  0  0  0  0  0  0  0  0  0  0  0
   -1.0008    4.0751   -1.8053 C   0  0  0  0  0  0  0  0  0  0  0  0
   -0.5366    3.6452   -2.7076 H   0  0  0  0  0  0  0  0  0  0  0  0
   -3.1386    0.1399   -0.9630 C   0  0  0  0  0  0  0  0  0  0  0  0
   -3.2188    0.1292   -2.0535 H   0  0  0  0  0  0  0  0  0  0  0  0
   -3.8401   -0.5139    0.0549 C   0  0  0  0  0  0  0  0  0  0  0  0
   -4.9489   -1.4738   -0.0156 C   0  0  0  0  0  0  0  0  0  0  0  0
   -5.4687   -1.9108   -1.2539 C   0  0  0  0  0  0  0  0  0  0  0  0
   -5.0429   -1.5295   -2.1947 H   0  0  0  0  0  0  0  0  0  0  0  0
   -6.5263   -2.8283   -1.2992 C   0  0  0  0  0  0  0  0  0  0  0  0
   -6.9209   -3.1580   -2.2723 H   0  0  0  0  0  0  0  0  0  0  0  0
   -7.0820   -3.3255   -0.1091 C   0  0  0  0  0  0  0  0  0  0  0  0
   -7.9131   -4.0459   -0.1457 H   0  0  0  0  0  0  0  0  0  0  0  0
   -6.5715   -2.8961    1.1271 C   0  0  0  0  0  0  0  0  0  0  0  0
   -7.0034   -3.2798    2.0640 H   0  0  0  0  0  0  0  0  0  0  0  0
   -5.5151   -1.9784    1.1764 C   0  0  0  0  0  0  0  0  0  0  0  0
   -5.1080   -1.6310    2.1367 H   0  0  0  0  0  0  0  0  0  0  0  0
  2 29  1  0  0  0  0
  3 31  1  0  0  0  0
  3 19  1  0  0  0  0
  4  5  1  0  0  0  0
  5  6  2  0  0  0  0
  7  1  1  0  0  0  0
  7  8  1  0  0  0  0
  9  7  1  0  0  0  0
 10  9  1  0  0  0  0
 11 13  1  0  0  0  0
 11  9  2  0  0  0  0
 12 11  1  0  0  0  0
 13 15  2  0  0  0  0
 14 13  1  0  0  0  0
 15 16  1  0  0  0  0
 15  1  1  0  0  0  0
 16  3  1  0  0  0  0
 17 16  1  0  0  0  0
 18 16  1  0  0  0  0
 20 19  1  0  0  0  0
 21 19  1  0  0  0  0
 22 19  1  1  0  0  0
 22  2  1  0  0  0  0
 22 23  1  0  0  0  0
 23 25  2  0  0  0  0
 24 23  1  0  0  0  0
 25 27  1  0  0  0  0
 25 26  1  0  0  0  0
 27 28  1  0  0  0  0
 29 30  1  0  0  0  0
 29 27  2  0  0  0  0
 31 33  1  0  0  0  0
 32 31  1  0  0  0  0
 34 35  1  6  0  0  0
 34 36  1  0  0  0  0
 34  4  1  0  0  0  0
 34 31  1  0  0  0  0
 36 37  1  0  0  0  0
 37 39  2  0  0  0  0
 37 38  1  0  0  0  0
 39 40  1  0  0  0  0
 41 42  1  0  0  0  0
 41 39  1  0  0  0  0
 43 41  2  0  0  0  0
 44 43  1  0  0  0  0
 45 43  1  0  0  0  0
 45 36  2  0  0  0  0
 46 45  1  0  0  0  0
 47  4  1  0  0  0  0
 47 49  2  0  0  0  0
 48 47  1  0  0  0  0
 49  6  1  0  0  0  0
 50 49  1  0  0  0  0
 50 59  1  0  0  0  0
 51 50  2  0  0  0  0
 52 51  1  0  0  0  0
 53 51  1  0  0  0  0
 53 55  2  0  0  0  0
 54 53  1  0  0  0  0
 55 57  1  0  0  0  0
 56 55  1  0  0  0  0
 57 59  2  0  0  0  0
 57 58  1  0  0  0  0
 59 60  1  0  0  0  0
M  END
