3,4
q = 0.0, confidence = 0.98

 26 28  0  0  1  0  0  0  0  0999 V2000
   -1.2590    1.3777    1.3249 N   0  0  0  0  0  0  0  0  0  0  0  0
   -1.3575   -1.0023    1.5194 N   0  0  0  0  0  0  0  0  0  0  0  0
   -0.0274    1.5128    0.7657 N   0  0  0  0  0  2  0  0  0  0  0  0
   -0.1680   -1.3446    0.9588 N   0  0  0  0  0  2  0  0  0  0  0  0
   -2.0551    0.1916    1.1042 C   0  0  2  0  0  0  0  0  0  0  0  0
   -2.9408    0.2791    1.7688 H   0  0  0  0  0  0  0  0  0  0  0  0
   -2.4479    0.0902   -0.2914 N   0  0  0  0  0  0  0  0  0  0  0  0
   -1.8979   -2.0469    2.2189 C   0  0  0  0  0  3  0  0  0  0  0  0
   -2.8799   -1.9593    2.6962 H   0  0  0  0  0  0  0  0  0  0  0  0
   -2.8056   -1.1238   -0.7642 N   0  0  0  0  0  0  0  0  0  0  0  0
    0.0578   -2.6177    1.3358 C   0  0  0  0  0  0  0  0  0  0  0  0
    0.9689   -3.1316    1.0114 H   0  0  0  0  0  0  0  0  0  0  0  0
    0.3462    2.7837    1.0161 C   0  0  0  0  0  3  0  0  0  0  0  0
    1.3152    3.1489    0.6598 H   0  0  0  0  0  0  0  0  0  0  0  0
   -2.6350    1.1052   -1.2016 C   0  0  0  0  0  0  0  0  0  0  0  0
   -2.3931    2.1500   -0.9790 H   0  0  0  0  0  0  0  0  0  0  0  0
   -1.6708    2.5412    1.9198 C   0  0  0  0  0  0  0  0  0  0  0  0
   -2.6497    2.6122    2.4075 H   0  0  0  0  0  0  0  0  0  0  0  0
   -0.9980   -3.0990    2.1393 C   0  0  0  0  0  0  0  0  0  0  0  0
   -1.0936   -4.0906    2.5915 H   0  0  0  0  0  0  0  0  0  0  0  0
   -0.6521    3.4676    1.7439 C   0  0  0  0  0  0  0  0  0  0  0  0
   -0.6296    4.5040    2.0946 H   0  0  0  0  0  0  0  0  0  0  0  0
   -3.1243    0.4945   -2.3474 C   0  0  0  0  0  0  0  0  0  0  0  0
   -3.3731    0.9813   -3.2959 H   0  0  0  0  0  0  0  0  0  0  0  0
   -3.2096   -0.8865   -2.0167 C   0  0  0  0  0  0  0  0  0  0  0  0
   -3.5416   -1.7218   -2.6459 H   0  0  0  0  0  0  0  0  0  0  0  0
  1 17  1  0  0  0  0
  2  8  1  0  0  0  0
  3 13  1  0  0  0  0
  3  1  1  0  0  0  0
  4 11  1  0  0  0  0
  4  2  1  0  0  0  0
  5  1  1  0  0  0  0
  5  2  1  0  0  0  0
  5  6  1  1  0  0  0
  7  5  1  0  0  0  0
  8  9  1  0  0  0  0
 10  7  1  0  0  0  0
 11 19  2  0  0  0  0
 12 11  1  0  0  0  0
 13 21  1  0  0  0  0
 14 13  1  0  0  0  0
 15 16  1  0  0  0  0
 15  7  1  0  0  0  0
 17 18  1  0  0  0  0
 19  8  1  0  0  0  0
 19 20  1  0  0  0  0
 21 17  2  0  0  0  0
 21 22  1  0  0  0  0
 23 25  1  0  0  0  0
 23 15  2  0  0  0  0
 24 23  1  0  0  0  0
 25 10  2  0  0  0  0
 26 25  1  0  0  0  0
M  END
