2,3
q = 0.0, confidence = 0.982

 24 25  0  0  0  0  0  0  0  0999 V2000
    5.8571   -0.2279   -0.0469 Br  0  0  0  0  0  0  0  0  0  0  0  0
   -2.8973   -0.8194   -0.2647 N   0  0  0  0  0  2  0  0  0  0  0  0
   -0.1956   -0.9178   -0.2806 N   0  0  0  0  0  2  0  0  0  0  0  0
   -2.3020   -2.0203   -0.4753 C   0  0  0  0  0  0  0  0  0  0  0  0
   -3.0594   -3.1890   -0.6836 C   0  0  0  0  0  0  0  0  0  0  0  0
   -2.5509   -4.1498   -0.8519 H   0  0  0  0  0  0  0  0  0  0  0  0
   -4.4572   -3.0981   -0.6700 C   0  0  0  0  0  0  0  0  0  0  0  0
   -5.0741   -3.9950   -0.8290 H   0  0  0  0  0  0  0  0  0  0  0  0
   -5.0573   -1.8493   -0.4502 C   0  0  0  0  0  0  0  0  0  0  0  0
   -6.1503   -1.7355   -0.4309 H   0  0  0  0  0  0  0  0  0  0  0  0
   -4.2318   -0.7306   -0.2511 C   0  0  0  0  0  0  0  0  0  0  0  0
   -4.6508    0.2727   -0.0718 H   0  0  0  0  0  0  0  0  0  0  0  0
   -0.8363   -2.0279   -0.4707 C   0  0  0  0  0  0  0  0  0  0  0  0
   -0.3220   -2.9939   -0.6480 H   0  0  0  0  0  0  0  0  0  0  0  0
    1.1995   -0.8154   -0.2121 C   0  0  0  0  0  0  0  0  0  0  0  0
    2.0409   -1.8876    0.1681 C   0  0  0  0  0  0  0  0  0  0  0  0
    1.6101   -2.8538    0.4693 H   0  0  0  0  0  0  0  0  0  0  0  0
    3.4253   -1.7124    0.2195 C   0  0  0  0  0  0  0  0  0  0  0  0
    4.0811   -2.5361    0.5339 H   0  0  0  0  0  0  0  0  0  0  0  0
    3.9775   -0.4612   -0.1159 C   0  0  0  0  0  0  0  0  0  0  0  0
    3.1544    0.6176   -0.4832 C   0  0  0  0  0  0  0  0  0  0  0  0
    3.5967    1.5917   -0.7338 H   0  0  0  0  0  0  0  0  0  0  0  0
    1.7689    0.4425   -0.5181 C   0  0  0  0  0  0  0  0  0  0  0  0
    1.1034    1.2708   -0.8144 H   0  0  0  0  0  0  0  0  0  0  0  0
  2 11  1  0  0  0  0
  3 15  1  0  0  0  0
  4 13  2  0  0  0  0
  4  2  1  0  0  0  0
  5  7  2  0  0  0  0
  5  4  1  0  0  0  0
  6  5  1  0  0  0  0
  7  9  1  0  0  0  0
  8  7  1  0  0  0  0
  9 10  1  0  0  0  0
  9 11  2  0  0  0  0
 11 12  1  0  0  0  0
 13  3  1  0  0  0  0
 14 13  1  0  0  0  0
 15 16  1  0  0  0  0
 16 18  2  0  0  0  0
 16 17  1  0  0  0  0
 18 19  1  0  0  0  0
 20  1  1  0  0  0  0
 20 18  1  0  0  0  0
 21 20  2  0  0  0  0
 22 21  1  0  0  0  0
 23 21  1  0  0  0  0
 23 15  2  0  0  0  0
 24 23  1  0  0  0  0
M  END
