2,7
q = -1.0, confidence = 0.002

 18 18  0  0  0  0  0  0  0  0999 V2000
    1.8254    0.8129   -2.5331 O   0  0  0  0  0  1  0  0  0  0  0  0
    1.7207    0.3519   -1.3572 N   0  0  0  0  0  2  0  0  0  0  0  0
    2.5988   -0.5305   -0.8634 C   0  0  0  0  0  0  0  0  0  0  0  0
    3.9809   -2.2177    0.4271 H   0  0  0  0  0  0  0  0  0  0  0  0
    4.6592   -1.4406   -2.1620 N   0  0  0  0  0  0  0  0  0  0  0  0
    3.7176   -1.0103   -1.5998 C   0  0  0  0  0  0  0  0  0  0  0  0
    1.2397   -0.5987    1.1184 N   0  0  0  0  0  2  0  0  0  0  0  0
    2.3107   -1.0338    0.4961 C   0  0  0  0  0  0  0  0  0  0  0  0
    3.1900   -1.9403    1.0117 N   0  0  0  0  0  0  0  0  0  0  0  0
    0.9343   -1.1587    2.4288 C   0  0  0  0  0  0  0  0  0  0  0  0
    0.2759   -2.0514    2.3053 H   0  0  0  0  0  0  0  0  0  0  0  0
    0.3264   -0.4278    2.9990 H   0  0  0  0  0  0  0  0  0  0  0  0
    2.1965   -1.5519    3.2009 C   0  0  0  0  0  0  0  0  0  0  0  0
    1.9375   -2.0377    4.1624 H   0  0  0  0  0  0  0  0  0  0  0  0
    2.7816   -0.6378    3.4376 H   0  0  0  0  0  0  0  0  0  0  0  0
    3.0483   -2.4950    2.3491 C   0  0  0  0  0  0  0  0  0  0  0  0
    4.0569   -2.6305    2.7919 H   0  0  0  0  0  0  0  0  0  0  0  0
    2.5756   -3.5038    2.3071 H   0  0  0  0  0  0  0  0  0  0  0  0
  1  2  1  0  0  0  0
  2  3  1  0  0  0  0
  3  8  2  0  0  0  0
  4  9  1  0  0  0  0
  5  6  3  0  0  0  0
  6  3  1  0  0  0  0
  7 10  1  0  0  0  0
  8  9  1  0  0  0  0
  8  7  1  0  0  0  0
  9 16  1  0  0  0  0
 10 12  1  0  0  0  0
 10 13  1  0  0  0  0
 11 10  1  0  0  0  0
 13 15  1  0  0  0  0
 13 14  1  0  0  0  0
 16 17  1  0  0  0  0
 16 13  1  0  0  0  0
 18 16  1  0  0  0  0
M  END
