2,5
q = 0.0, confidence = 1.0

 35 36  0  0  1  0  0  0  0  0999 V2000
    0.1156    2.5697   -0.6351 S   0  0  0  0  0  0  0  0  0  0  0  0
   -0.7208    0.1954    0.4340 N   0  0  0  0  0  2  0  0  0  0  0  0
   -3.0509   -0.2406    0.7214 N   0  0  0  0  0  0  0  0  0  0  0  0
   -2.3332    1.7893   -0.3079 N   0  0  0  0  0  0  0  0  0  0  0  0
    2.1075    0.8861    0.2341 N   0  0  0  0  0  2  0  0  0  0  0  0
   -1.4980   -1.5444    1.8463 N   0  0  0  0  0  0  0  0  0  0  0  0
   -4.5691    1.1333   -0.3946 N   0  0  0  0  0  0  0  0  0  0  0  0
   -1.7700   -0.5325    0.9889 C   0  0  2  0  0  3  0  0  0  0  0  0
   -3.2948    0.8674    0.0055 C   0  0  0  0  0  0  0  0  0  0  0  0
   -1.0992    1.3840   -0.0952 C   0  0  0  0  0  0  0  0  0  0  0  0
    1.6165    2.1573    0.2237 C   0  0  1  0  0  3  0  0  0  0  0  0
    2.3398    3.2315    0.7719 C   0  0  0  0  0  0  0  0  0  0  0  0
    3.6134    3.0035    1.3063 C   0  0  0  0  0  0  0  0  0  0  0  0
    4.1240    1.6973    1.2871 C   0  0  0  0  0  0  0  0  0  0  0  0
    3.3465    0.6679    0.7547 C   0  0  0  0  0  0  0  0  0  0  0  0
   -0.1703   -1.8218    2.3675 C   0  0  0  0  0  0  0  0  0  0  0  0
   -2.4851   -2.5862    2.0833 C   0  0  0  0  0  0  0  0  0  0  0  0
   -5.6540    0.2092   -0.1254 C   0  0  0  0  0  0  0  0  0  0  0  0
   -4.8933    2.3098   -1.1807 C   0  0  0  0  0  0  0  0  0  0  0  0
    1.8900    4.2340    0.7645 H   0  0  0  0  0  0  0  0  0  0  0  0
    4.1934    3.8344    1.7339 H   0  0  0  0  0  0  0  0  0  0  0  0
    5.1212    1.4631    1.6852 H   0  0  0  0  0  0  0  0  0  0  0  0
    3.6965   -0.3722    0.6784 H   0  0  0  0  0  0  0  0  0  0  0  0
    0.3571   -2.5729    1.7412 H   0  0  0  0  0  0  0  0  0  0  0  0
    0.4381   -0.9012    2.3906 H   0  0  0  0  0  0  0  0  0  0  0  0
   -0.2810   -2.2105    3.4006 H   0  0  0  0  0  0  0  0  0  0  0  0
   -2.1632   -3.5169    1.5670 H   0  0  0  0  0  0  0  0  0  0  0  0
   -2.5777   -2.7865    3.1703 H   0  0  0  0  0  0  0  0  0  0  0  0
   -3.4605   -2.2655    1.6836 H   0  0  0  0  0  0  0  0  0  0  0  0
   -5.2979   -0.5799    0.5581 H   0  0  0  0  0  0  0  0  0  0  0  0
   -6.5062    0.7494    0.3392 H   0  0  0  0  0  0  0  0  0  0  0  0
   -6.0152   -0.2617   -1.0661 H   0  0  0  0  0  0  0  0  0  0  0  0
   -5.2451    2.0183   -2.1946 H   0  0  0  0  0  0  0  0  0  0  0  0
   -5.7048    2.8872   -0.6878 H   0  0  0  0  0  0  0  0  0  0  0  0
   -3.9939    2.9411   -1.2762 H   0  0  0  0  0  0  0  0  0  0  0  0
  1 10  1  0  0  0  0
  2  8  1  0  0  0  0
  3  8  1  0  0  0  0
  4 10  2  0  0  0  0
  4  9  1  0  0  0  0
  5 15  1  0  0  0  0
  6 17  1  0  0  0  0
  6 16  1  0  0  0  0
  7 18  1  0  0  0  0
  7  9  1  0  0  0  0
  8  6  1  1  0  0  0
  9  3  2  0  0  0  0
 10  2  1  0  0  0  0
 11  1  1  6  0  0  0
 11  5  1  0  0  0  0
 11 12  1  0  0  0  0
 12 13  2  0  0  0  0
 13 21  1  0  0  0  0
 14 13  1  0  0  0  0
 14 22  1  0  0  0  0
 15 14  2  0  0  0  0
 16 25  1  0  0  0  0
 16 26  1  0  0  0  0
 17 28  1  0  0  0  0
 18 31  1  0  0  0  0
 18 30  1  0  0  0  0
 19 34  1  0  0  0  0
 19  7  1  0  0  0  0
 20 12  1  0  0  0  0
 23 15  1  0  0  0  0
 24 16  1  0  0  0  0
 27 17  1  0  0  0  0
 29 17  1  0  0  0  0
 32 18  1  0  0  0  0
 33 19  1  0  0  0  0
 35 19  1  0  0  0  0
M  END
