1,2
q = 0.0, confidence = 0.996

 55 61  0  0  0  0  0  0  0  0999 V2000
   -3.6994   -0.0957   -0.3080 N   0  0  0  0  0  2  0  0  0  0  0  0
   -1.0036    0.4777    0.1563 N   0  0  0  0  0  0  0  0  0  0  0  0
   -3.3119    1.2351   -0.2806 C   0  0  0  0  0  0  0  0  0  0  0  0
   -1.9531    1.5633    0.0273 C   0  0  0  0  0  0  0  0  0  0  0  0
   -1.5777    2.9040    0.1018 C   0  0  0  0  0  0  0  0  0  0  0  0
   -0.5311    3.1583    0.3164 H   0  0  0  0  0  0  0  0  0  0  0  0
   -2.5183    3.9423   -0.1101 C   0  0  0  0  0  0  0  0  0  0  0  0
   -2.1898    4.9892   -0.0305 H   0  0  0  0  0  0  0  0  0  0  0  0
   -3.8304    3.6449   -0.4408 C   0  0  0  0  0  3  0  0  0  0  0  0
   -4.5627    4.4444   -0.6295 H   0  0  0  0  0  0  0  0  0  0  0  0
   -4.2548    2.2899   -0.5436 C   0  0  0  0  0  0  0  0  0  0  0  0
   -5.5868    1.9291   -0.8929 C   0  0  0  0  0  0  0  0  0  0  0  0
   -6.3224    2.7199   -1.1040 H   0  0  0  0  0  0  0  0  0  0  0  0
   -5.9284    0.5884   -0.9614 C   0  0  0  0  0  0  0  0  0  0  0  0
   -6.9430    0.2665   -1.2356 H   0  0  0  0  0  0  0  0  0  0  0  0
   -4.9597   -0.3915   -0.6515 C   0  0  0  0  0  0  0  0  0  0  0  0
   -5.2185   -1.4599   -0.6603 H   0  0  0  0  0  0  0  0  0  0  0  0
   -0.2795    0.3273   -1.1549 C   0  0  0  0  0  0  0  0  0  0  0  0
    0.1743    1.3085   -1.4240 H   0  0  0  0  0  0  0  0  0  0  0  0
   -1.0428    0.0850   -1.9191 H   0  0  0  0  0  0  0  0  0  0  0  0
    0.7825   -0.7360   -1.0955 C   0  0  0  0  0  0  0  0  0  0  0  0
    0.5614   -1.9994   -1.7050 C   0  0  0  0  0  0  0  0  0  0  0  0
   -0.3884   -2.1754   -2.2319 H   0  0  0  0  0  0  0  0  0  0  0  0
    1.5107   -2.9995   -1.6204 C   0  0  0  0  0  0  0  0  0  0  0  0
    1.3369   -3.9766   -2.0960 H   0  0  0  0  0  0  0  0  0  0  0  0
    2.7059   -2.8018   -0.8726 C   0  0  0  0  0  0  0  0  0  0  0  0
    3.6648   -3.8456   -0.7153 C   0  0  0  0  0  0  0  0  0  0  0  0
    3.4754   -4.8095   -1.2128 H   0  0  0  0  0  0  0  0  0  0  0  0
    4.7985   -3.6638    0.0604 C   0  0  0  0  0  0  0  0  0  0  0  0
    5.5257   -4.4813    0.1788 H   0  0  0  0  0  0  0  0  0  0  0  0
    5.0109   -2.4259    0.7227 C   0  0  0  0  0  0  0  0  0  0  0  0
    5.8969   -2.2928    1.3619 H   0  0  0  0  0  0  0  0  0  0  0  0
    4.1044   -1.3860    0.5795 C   0  0  0  0  0  0  0  0  0  0  0  0
    4.2731   -0.4387    1.1093 H   0  0  0  0  0  0  0  0  0  0  0  0
    2.9398   -1.5286   -0.2338 C   0  0  0  0  0  0  0  0  0  0  0  0
    1.9738   -0.4736   -0.4049 C   0  0  0  0  0  0  0  0  0  0  0  0
    2.1738    0.8739    0.2017 C   0  0  0  0  0  0  0  0  0  0  0  0
    3.3204    1.6859   -0.1211 C   0  0  0  0  0  0  0  0  0  0  0  0
    4.2658    1.3130   -1.1242 C   0  0  0  0  0  0  0  0  0  0  0  0
    4.1109    0.3763   -1.6769 H   0  0  0  0  0  0  0  0  0  0  0  0
    5.3602    2.1153   -1.4108 C   0  0  0  0  0  0  0  0  0  0  0  0
    6.0719    1.8079   -2.1919 H   0  0  0  0  0  0  0  0  0  0  0  0
    5.5678    3.3319   -0.7078 C   0  0  0  0  0  0  0  0  0  0  0  0
    6.4445    3.9560   -0.9384 H   0  0  0  0  0  0  0  0  0  0  0  0
    4.6581    3.7362    0.2564 C   0  0  0  0  0  0  0  0  0  0  0  0
    4.7986    4.6859    0.7960 H   0  0  0  0  0  0  0  0  0  0  0  0
    3.5141    2.9418    0.5643 C   0  0  0  0  0  0  0  0  0  0  0  0
    2.5493    3.3639    1.5235 C   0  0  0  0  0  0  0  0  0  0  0  0
    2.7144    4.3083    2.0650 H   0  0  0  0  0  0  0  0  0  0  0  0
    1.4138    2.6074    1.7558 C   0  0  0  0  0  0  0  0  0  0  0  0
    0.6622    2.9507    2.4844 H   0  0  0  0  0  0  0  0  0  0  0  0
    1.1991    1.3702    1.0839 C   0  0  0  0  0  0  0  0  0  0  0  0
   -0.0598    0.5698    1.3254 C   0  0  0  0  0  0  0  0  0  0  0  0
   -0.6435    0.9765    2.1721 H   0  0  0  0  0  0  0  0  0  0  0  0
    0.1941   -0.4840    1.5743 H   0  0  0  0  0  0  0  0  0  0  0  0
  1  3  1  0  0  0  0
  2 53  1  0  0  0  0
  3  4  2  0  0  0  0
  4  5  1  0  0  0  0
  4  2  1  0  0  0  0
  5  6  1  0  0  0  0
  7  8  1  0  0  0  0
  7  5  2  0  0  0  0
  9  7  1  0  0  0  0
 10  9  1  0  0  0  0
 11  9  1  0  0  0  0
 11  3  1  0  0  0  0
 12 11  2  0  0  0  0
 13 12  1  0  0  0  0
 14 12  1  0  0  0  0
 14 16  2  0  0  0  0
 15 14  1  0  0  0  0
 16  1  1  0  0  0  0
 17 16  1  0  0  0  0
 18 21  1  0  0  0  0
 18  2  1  0  0  0  0
 19 18  1  0  0  0  0
 20 18  1  0  0  0  0
 21 36  1  0  0  0  0
 22 24  1  0  0  0  0
 22 21  2  0  0  0  0
 23 22  1  0  0  0  0
 24 26  2  0  0  0  0
 25 24  1  0  0  0  0
 26 27  1  0  0  0  0
 26 35  1  0  0  0  0
 27 29  2  0  0  0  0
 28 27  1  0  0  0  0
 29 30  1  0  0  0  0
 29 31  1  0  0  0  0
 31 32  1  0  0  0  0
 33 31  2  0  0  0  0
 33 34  1  0  0  0  0
 35 33  1  0  0  0  0
 36 35  2  0  0  0  0
 36 37  1  0  0  0  0
 37 52  1  0  0  0  0
 38 37  2  0  0  0  0
 38 47  1  0  0  0  0
 39 38  1  0  0  0  0
 40 39  1  0  0  0  0
 41 39  2  0  0  0  0
 41 43  1  0  0  0  0
 42 41  1  0  0  0  0
 43 45  2  0  0  0  0
 44 43  1  0  0  0  0
 45 47  1  0  0  0  0
 45 46  1  0  0  0  0
 47 48  2  0  0  0  0
 48 50  1  0  0  0  0
 48 49  1  0  0  0  0
 50 51  1  0  0  0  0
 52 53  1  0  0  0  0
 52 50  2  0  0  0  0
 53 55  1  0  0  0  0
 53 54  1  0  0  0  0
M  END
