1,2
q = 0.0, confidence = 0.99

 28 30  0  0  0  0  0  0  0  0999 V2000
    2.0499    1.1511   -0.4033 N   0  0  0  0  0  2  0  0  0  0  0  0
   -0.5211    0.5902   -0.2944 N   0  0  0  0  0  2  0  0  0  0  0  0
   -0.2118    1.9198   -0.1953 C   0  0  0  0  0  0  0  0  0  0  0  0
   -4.1504    0.4621   -0.0979 C   0  0  0  0  0  0  0  0  0  0  0  0
   -5.1609    1.3528   -0.0257 N   0  0  0  0  0  0  0  0  0  0  0  0
   -6.4124    0.8813    0.0148 C   0  0  0  0  0  0  0  0  0  0  0  0
   -7.2186    1.6339    0.0737 H   0  0  0  0  0  0  0  0  0  0  0  0
   -6.7234   -0.4899   -0.0130 C   0  0  0  0  0  0  0  0  0  0  0  0
   -7.7715   -0.8219    0.0237 H   0  0  0  0  0  0  0  0  0  0  0  0
   -5.6682   -1.4118   -0.0841 C   0  0  0  0  0  0  0  0  0  0  0  0
   -5.8665   -2.4941   -0.1027 H   0  0  0  0  0  0  0  0  0  0  0  0
   -4.3534   -0.9344   -0.1274 C   0  0  0  0  0  0  0  0  0  0  0  0
   -3.4854   -1.6067   -0.1750 H   0  0  0  0  0  0  0  0  0  0  0  0
   -1.7705    0.1570   -0.2746 N   0  0  0  0  0  0  0  0  0  0  0  0
   -2.7789    1.0309   -0.1370 C   0  0  0  0  0  0  0  0  0  0  0  0
    1.2204    2.2306   -0.2637 C   0  0  0  0  0  0  0  0  0  0  0  0
   -1.2445    2.8710   -0.0662 C   0  0  0  0  0  0  0  0  0  0  0  0
   -1.0102    3.9413    0.0123 H   0  0  0  0  0  0  0  0  0  0  0  0
    3.9535    2.6285   -0.4511 C   0  0  0  0  0  0  0  0  0  0  0  0
    5.0447    2.7359   -0.5231 H   0  0  0  0  0  0  0  0  0  0  0  0
    1.7344    3.5405   -0.2181 C   0  0  0  0  0  0  0  0  0  0  0  0
    1.0540    4.3949   -0.1064 H   0  0  0  0  0  0  0  0  0  0  0  0
    3.3823    1.3547   -0.4938 C   0  0  0  0  0  0  0  0  0  0  0  0
    4.0003    0.4512   -0.5926 H   0  0  0  0  0  0  0  0  0  0  0  0
    3.1132    3.7445   -0.3086 C   0  0  0  0  0  0  0  0  0  0  0  0
    3.5287    4.7618   -0.2675 H   0  0  0  0  0  0  0  0  0  0  0  0
   -2.5567    2.4256   -0.0294 C   0  0  0  0  0  0  0  0  0  0  0  0
   -3.4233    3.0915    0.0785 H   0  0  0  0  0  0  0  0  0  0  0  0
  1 16  1  0  0  0  0
  2 14  1  0  0  0  0
  2  3  1  0  0  0  0
  3 17  1  0  0  0  0
  4  5  1  0  0  0  0
  5  6  2  0  0  0  0
  6  7  1  0  0  0  0
  8  6  1  0  0  0  0
  8  9  1  0  0  0  0
 10  8  2  0  0  0  0
 11 10  1  0  0  0  0
 12  4  2  0  0  0  0
 12 10  1  0  0  0  0
 13 12  1  0  0  0  0
 14 15  2  0  0  0  0
 15  4  1  0  0  0  0
 15 27  1  0  0  0  0
 16 21  1  0  0  0  0
 16  3  2  0  0  0  0
 17 27  2  0  0  0  0
 17 18  1  0  0  0  0
 19 25  1  0  0  0  0
 20 19  1  0  0  0  0
 21 22  1  0  0  0  0
 23 19  2  0  0  0  0
 23  1  1  0  0  0  0
 24 23  1  0  0  0  0
 25 26  1  0  0  0  0
 25 21  2  0  0  0  0
 27 28  1  0  0  0  0
M  END
