1,18
q = -1.0, confidence = 0.0

 18 20  0  0  1  0  0  0  0  0999 V2000
    0.2293   -1.1353    1.8081 N   0  0  0  0  0  2  0  0  0  0  0  0
   -1.0518   -1.5720    2.8439 S   0  0  0  0  0  0  0  0  0  0  0  0
    0.3499   -2.4998    4.2622 S   0  0  0  0  0  0  0  0  0  0  0  0
    1.7150   -2.0094    3.4615 N   0  0  0  0  0  0  0  0  0  0  0  0
    1.5038   -1.3751    2.3342 C   0  0  0  0  0  0  0  0  0  0  0  0
    2.4748   -0.7323    1.4819 C   0  0  1  0  0  3  0  0  0  0  0  0
    3.8231   -0.8009    1.5585 O   0  0  0  0  0  0  0  0  0  0  0  0
    4.2616   -0.0395    0.4917 C   0  0  0  0  0  0  0  0  0  0  0  0
    5.5755    0.2181    0.1047 C   0  0  0  0  0  0  0  0  0  0  0  0
    6.4337   -0.1843    0.6592 H   0  0  0  0  0  0  0  0  0  0  0  0
    5.7220    1.0168   -1.0411 C   0  0  0  0  0  0  0  0  0  0  0  0
    6.7351    1.2529   -1.3987 H   0  0  0  0  0  0  0  0  0  0  0  0
    4.6054    1.5183   -1.7529 C   0  0  0  0  0  0  0  0  0  0  0  0
    4.7773    2.1292   -2.6511 H   0  0  0  0  0  0  0  0  0  0  0  0
    3.2899    1.2533   -1.3513 C   0  0  0  0  0  0  0  0  0  0  0  0
    2.4192    1.6230   -1.9073 H   0  0  0  0  0  0  0  0  0  0  0  0
    3.1320    0.4651   -0.1989 C   0  0  0  0  0  0  0  0  0  0  0  0
    2.0066    0.0135    0.4843 N   0  0  0  0  0  2  0  0  0  0  0  0
  1  5  1  0  0  0  0
  1  2  1  0  0  0  0
  2  3  1  0  0  0  0
  4  3  1  0  0  0  0
  5  4  2  0  0  0  0
  6  7  1  0  0  0  0
  6  5  1  6  0  0  0
  8  7  1  0  0  0  0
  9  8  1  0  0  0  0
  9 10  1  0  0  0  0
 11  9  2  0  0  0  0
 12 11  1  0  0  0  0
 13 15  2  0  0  0  0
 13 11  1  0  0  0  0
 14 13  1  0  0  0  0
 15 17  1  0  0  0  0
 16 15  1  0  0  0  0
 17 18  1  0  0  0  0
 17  8  2  0  0  0  0
 18  6  1  0  0  0  0
M  END
