1,2
q = 0.0, confidence = 0.998

 30 30  0  0  0  0  0  0  0  0999 V2000
   -1.2726   -2.0654    0.4018 N   0  0  0  0  0  2  0  0  0  0  0  0
   -2.9401   -0.1512    1.7027 N   0  0  0  0  0  0  0  0  0  0  0  0
   -3.9014   -0.2393    1.3453 H   0  0  0  0  0  0  0  0  0  0  0  0
    0.2157   -0.4878   -1.4948 O   0  0  0  0  0  0  0  0  0  0  0  0
    1.0654   -2.4160   -0.3265 C   0  0  0  0  0  0  0  0  0  0  0  0
    1.2820   -1.2660   -1.1312 C   0  0  0  0  0  0  0  0  0  0  0  0
    2.5790   -0.9428   -1.5543 C   0  0  0  0  0  0  0  0  0  0  0  0
    2.7405   -0.0270   -2.1451 H   0  0  0  0  0  0  0  0  0  0  0  0
    3.6575   -1.7720   -1.2328 C   0  0  0  0  0  0  0  0  0  0  0  0
    4.6651   -1.4939   -1.5788 H   0  0  0  0  0  0  0  0  0  0  0  0
    3.4803   -2.9578   -0.4837 C   0  0  0  0  0  0  0  0  0  0  0  0
    2.1829   -3.2475   -0.0457 C   0  0  0  0  0  0  0  0  0  0  0  0
    2.0137   -4.1456    0.5698 H   0  0  0  0  0  0  0  0  0  0  0  0
    4.6478   -3.8554   -0.1681 C   0  0  0  0  0  0  0  0  0  0  0  0
    5.0898   -4.2762   -1.0949 H   0  0  0  0  0  0  0  0  0  0  0  0
    4.3510   -4.7024    0.4788 H   0  0  0  0  0  0  0  0  0  0  0  0
    5.4552   -3.2974    0.3486 H   0  0  0  0  0  0  0  0  0  0  0  0
   -0.1792   -2.7603    0.3406 C   0  0  0  0  0  3  0  0  0  0  0  0
   -0.1339   -3.7194    0.9053 H   0  0  0  0  0  0  0  0  0  0  0  0
   -2.3253   -2.5135    1.3052 C   0  0  0  0  0  0  0  0  0  0  0  0
   -2.0701   -3.4718    1.8101 H   0  0  0  0  0  0  0  0  0  0  0  0
   -3.2586   -2.6893    0.7231 H   0  0  0  0  0  0  0  0  0  0  0  0
   -2.5685   -1.4241    2.3576 C   0  0  0  0  0  0  0  0  0  0  0  0
   -3.3368   -1.7544    3.0921 H   0  0  0  0  0  0  0  0  0  0  0  0
   -1.6243   -1.2429    2.9104 H   0  0  0  0  0  0  0  0  0  0  0  0
   -2.8682    1.0169    2.6012 C   0  0  0  0  0  0  0  0  0  0  0  0
   -3.4854    0.8863    3.5162 H   0  0  0  0  0  0  0  0  0  0  0  0
   -3.2127    1.9174    2.0578 H   0  0  0  0  0  0  0  0  0  0  0  0
   -1.8105    1.1744    2.8860 H   0  0  0  0  0  0  0  0  0  0  0  0
    0.5536    0.3853   -1.7863 H   0  0  0  0  0  0  0  0  0  0  0  0
  1 20  1  0  0  0  0
  2 23  1  0  0  0  0
  2 26  1  0  0  0  0
  3  2  1  0  0  0  0
  4  6  1  0  0  0  0
  5 12  1  0  0  0  0
  5 18  1  0  0  0  0
  6  5  2  0  0  0  0
  7  9  2  0  0  0  0
  7  6  1  0  0  0  0
  8  7  1  0  0  0  0
  9 11  1  0  0  0  0
 10  9  1  0  0  0  0
 11 14  1  0  0  0  0
 11 12  2  0  0  0  0
 12 13  1  0  0  0  0
 14 17  1  0  0  0  0
 14 16  1  0  0  0  0
 15 14  1  0  0  0  0
 18  1  1  0  0  0  0
 18 19  1  0  0  0  0
 20 21  1  0  0  0  0
 20 23  1  0  0  0  0
 22 20  1  0  0  0  0
 23 25  1  0  0  0  0
 23 24  1  0  0  0  0
 26 29  1  0  0  0  0
 26 27  1  0  0  0  0
 28 26  1  0  0  0  0
 30  4  1  0  0  0  0
M  END
