3,4
q = -2.0, confidence = 0.798

 10  9  0  0  0  0  0  0  0  0999 V2000
    3.4502    2.2740    0.0028 O   0  0  0  0  0  0  0  0  0  0  0  0
    3.4502   -2.2739    0.0040 O   0  0  0  0  0  0  0  0  0  0  0  0
    1.3356    1.4144   -0.0025 N   0  0  0  0  0  2  0  0  0  0  0  0
    1.3356   -1.4144   -0.0030 N   0  0  0  0  0  2  0  0  0  0  0  0
    3.2313    0.0000   -0.0012 N   0  0  0  0  0  0  0  0  0  0  0  0
    2.6866    1.2960    0.0002 C   0  0  0  0  0  0  0  0  0  0  0  0
    2.6866   -1.2959    0.0005 C   0  0  0  0  0  0  0  0  0  0  0  0
    1.0035    2.3830   -0.0002 H   0  0  0  0  0  0  0  0  0  0  0  0
    1.0036   -2.3830    0.0002 H   0  0  0  0  0  0  0  0  0  0  0  0
    4.2513    0.0000    0.0021 H   0  0  0  0  0  0  0  0  0  0  0  0
  3  8  1  0  0  0  0
  3  6  1  0  0  0  0
  4  9  1  0  0  0  0
  4  7  1  0  0  0  0
  5  6  1  0  0  0  0
  5  7  1  0  0  0  0
  5 10  1  0  0  0  0
  6  1  2  0  0  0  0
  7  2  2  0  0  0  0
M  END
