1,2
q = -1.0

 32 33  0  0  0  0  0  0  0  0999 V2000
   -1.1120   -1.6364   -0.2200 N   0  0  0  0  0  2  0  0  0  0  0  0
    1.1120   -1.6372   -0.2199 N   0  0  0  0  0  2  0  0  0  0  0  0
    0.0000   -1.6754   -0.9584 C   0  0  0  0  0  3  0  0  0  0  0  0
   -2.4028   -1.5579   -0.7583 C   0  0  0  0  0  0  0  0  0  0  0  0
   -3.4398   -2.3120   -0.1665 C   0  0  0  0  0  0  0  0  0  0  0  0
   -4.7551   -2.2019   -0.6283 C   0  0  0  0  0  0  0  0  0  0  0  0
   -5.0896   -1.3381   -1.6924 C   0  0  0  0  0  0  0  0  0  0  0  0
   -4.0454   -0.6114   -2.2977 C   0  0  0  0  0  0  0  0  0  0  0  0
   -2.7250   -0.7154   -1.8455 C   0  0  0  0  0  0  0  0  0  0  0  0
   -6.5215   -1.1589   -2.1281 C   0  0  0  0  0  0  0  0  0  0  0  0
    2.4028   -1.5584   -0.7582 C   0  0  0  0  0  0  0  0  0  0  0  0
    2.7248   -0.7159   -1.8455 C   0  0  0  0  0  0  0  0  0  0  0  0
    4.0452   -0.6117   -2.2977 C   0  0  0  0  0  0  0  0  0  0  0  0
    5.0896   -1.3381   -1.6922 C   0  0  0  0  0  0  0  0  0  0  0  0
    4.7552   -2.2019   -0.6281 C   0  0  0  0  0  0  0  0  0  0  0  0
    3.4400   -2.3123   -0.1663 C   0  0  0  0  0  0  0  0  0  0  0  0
    6.5215   -1.1586   -2.1278 C   0  0  0  0  0  0  0  0  0  0  0  0
    0.0000   -1.7001   -2.0727 H   0  0  0  0  0  0  0  0  0  0  0  0
   -3.1893   -2.9874    0.6649 H   0  0  0  0  0  0  0  0  0  0  0  0
   -5.5480   -2.7971   -0.1473 H   0  0  0  0  0  0  0  0  0  0  0  0
   -4.2762    0.0762   -3.1269 H   0  0  0  0  0  0  0  0  0  0  0  0
   -1.9379   -0.0981   -2.3034 H   0  0  0  0  0  0  0  0  0  0  0  0
    1.9377   -0.0988   -2.3035 H   0  0  0  0  0  0  0  0  0  0  0  0
    4.2759    0.0758   -3.1269 H   0  0  0  0  0  0  0  0  0  0  0  0
    5.5483   -2.7969   -0.1470 H   0  0  0  0  0  0  0  0  0  0  0  0
    3.1895   -2.9876    0.6651 H   0  0  0  0  0  0  0  0  0  0  0  0
   -7.1011   -2.0992   -2.0356 H   0  0  0  0  0  0  0  0  0  0  0  0
   -6.5911   -0.8124   -3.1781 H   0  0  0  0  0  0  0  0  0  0  0  0
   -7.0333   -0.3983   -1.4985 H   0  0  0  0  0  0  0  0  0  0  0  0
    7.1006   -2.0994   -2.0376 H   0  0  0  0  0  0  0  0  0  0  0  0
    7.0337   -0.3998   -1.4965 H   0  0  0  0  0  0  0  0  0  0  0  0
    6.5910   -0.8097   -3.1770 H   0  0  0  0  0  0  0  0  0  0  0  0
  3  1  1  0  0  0  0
  3  2  1  0  0  0  0
  4  1  1  0  0  0  0
  4  5  1  0  0  0  0
  5 19  1  0  0  0  0
  6  5  2  0  0  0  0
  6 20  1  0  0  0  0
  7  6  1  0  0  0  0
  8  9  1  0  0  0  0
  8  7  2  0  0  0  0
  9  4  2  0  0  0  0
 10 27  1  0  0  0  0
 10  7  1  0  0  0  0
 10 29  1  0  0  0  0
 11  2  1  0  0  0  0
 11 16  1  0  0  0  0
 12 11  2  0  0  0  0
 13 12  1  0  0  0  0
 13 14  2  0  0  0  0
 14 15  1  0  0  0  0
 15 16  2  0  0  0  0
 15 25  1  0  0  0  0
 16 26  1  0  0  0  0
 17 30  1  0  0  0  0
 17 14  1  0  0  0  0
 17 31  1  0  0  0  0
 18  3  1  0  0  0  0
 21  8  1  0  0  0  0
 22  9  1  0  0  0  0
 23 12  1  0  0  0  0
 24 13  1  0  0  0  0
 28 10  1  0  0  0  0
 32 17  1  0  0  0  0
M  END
