3,5
q = 0.0, confidence = 0.996

 26 27  0  0  1  0  0  0  0  0999 V2000
    3.2135    0.1980   -2.0272 O   0  0  0  0  0  0  0  0  0  0  0  0
    2.0801    2.6011   -1.8992 O   0  0  0  0  0  0  0  0  0  0  0  0
    1.4198   -0.9141    0.8012 N   0  0  0  0  0  2  0  0  0  0  0  0
    3.6208   -1.1169    0.5920 N   0  0  0  0  0  0  0  0  0  0  0  0
   -0.0831    1.4251    0.6927 N   0  0  0  0  0  2  0  0  0  0  0  0
    0.6968    3.4961    0.4736 N   0  0  0  0  0  0  0  0  0  0  0  0
    2.4977   -0.4942    0.1048 C   0  0  1  0  0  3  0  0  0  0  0  0
    3.2298   -1.9131    1.6425 C   0  0  0  0  0  0  0  0  0  0  0  0
    3.9514   -2.4946    2.2256 H   0  0  0  0  0  0  0  0  0  0  0  0
    1.8535   -1.7905    1.7635 C   0  0  0  0  0  0  0  0  0  0  0  0
    1.1513   -2.2545    2.4638 H   0  0  0  0  0  0  0  0  0  0  0  0
    4.9989   -0.9171    0.1437 C   0  0  0  0  0  0  0  0  0  0  0  0
    5.6094   -1.7685    0.4926 H   0  0  0  0  0  0  0  0  0  0  0  0
    5.4118    0.0207    0.5651 H   0  0  0  0  0  0  0  0  0  0  0  0
    5.0207   -0.8654   -0.9583 H   0  0  0  0  0  0  0  0  0  0  0  0
    2.4846    0.4120   -1.0679 C   0  0  0  0  0  0  0  0  0  0  0  0
    0.8128    2.1967    0.0326 C   0  0  2  0  0  3  0  0  0  0  0  0
   -0.2689    3.5193    1.4469 C   0  0  0  0  0  0  0  0  0  0  0  0
   -0.5322    4.4395    1.9789 H   0  0  0  0  0  0  0  0  0  0  0  0
   -0.7561    2.2258    1.5768 C   0  0  0  0  0  0  0  0  0  0  0  0
   -1.5209    1.8155    2.2439 H   0  0  0  0  0  0  0  0  0  0  0  0
    1.4572    4.6559    0.0092 C   0  0  0  0  0  0  0  0  0  0  0  0
    1.2413    5.5037    0.6828 H   0  0  0  0  0  0  0  0  0  0  0  0
    1.1752    4.9087   -1.0288 H   0  0  0  0  0  0  0  0  0  0  0  0
    2.5407    4.4381    0.0295 H   0  0  0  0  0  0  0  0  0  0  0  0
    1.7362    1.7944   -1.0453 C   0  0  0  0  0  0  0  0  0  0  0  0
  1 16  2  0  0  0  0
  2 26  2  0  0  0  0
  3 10  1  0  0  0  0
  4  8  1  0  0  0  0
  5 20  1  0  0  0  0
  6 18  1  0  0  0  0
  7 16  1  6  0  0  0
  7  4  1  0  0  0  0
  7  3  1  0  0  0  0
  8 10  2  0  0  0  0
  8  9  1  0  0  0  0
 10 11  1  0  0  0  0
 12 13  1  0  0  0  0
 12 14  1  0  0  0  0
 12  4  1  0  0  0  0
 15 12  1  0  0  0  0
 16 26  1  0  0  0  0
 17 26  1  6  0  0  0
 17  6  1  0  0  0  0
 17  5  1  0  0  0  0
 18 20  2  0  0  0  0
 18 19  1  0  0  0  0
 20 21  1  0  0  0  0
 22 25  1  0  0  0  0
 22  6  1  0  0  0  0
 22 23  1  0  0  0  0
 24 22  1  0  0  0  0
M  END
