4,5
q = 0.0, confidence = 1.0

 27 28  0  0  0  0  0  0  0  0999 V2000
    6.0684   -1.5368    1.2211 F   0  0  0  0  0  0  0  0  0  0  0  0
    7.1330    0.1800    0.3842 F   0  0  0  0  0  0  0  0  0  0  0  0
    5.9429   -1.1058   -0.9146 F   0  0  0  0  0  0  0  0  0  0  0  0
   -1.1396   -1.1642    2.2098 N   0  0  0  0  0  2  0  0  0  0  0  0
    1.2242   -0.0538    1.6387 N   0  0  0  0  0  2  0  0  0  0  0  0
   -2.3029   -1.8144    2.3999 C   0  0  0  0  0  3  0  0  0  0  0  0
   -3.1323   -1.5489    1.7260 H   0  0  0  0  0  0  0  0  0  0  0  0
   -2.4775   -2.7911    3.3897 C   0  0  0  0  0  0  0  0  0  0  0  0
   -3.4523   -3.2875    3.4961 H   0  0  0  0  0  0  0  0  0  0  0  0
   -1.3986   -3.1094    4.2307 C   0  0  0  0  0  0  0  0  0  0  0  0
   -1.5060   -3.8642    5.0233 H   0  0  0  0  0  0  0  0  0  0  0  0
   -0.1789   -2.4540    4.0321 C   0  0  0  0  0  0  0  0  0  0  0  0
    0.7004   -2.6837    4.6519 H   0  0  0  0  0  0  0  0  0  0  0  0
   -0.0752   -1.4968    3.0034 C   0  0  0  0  0  0  0  0  0  0  0  0
    1.1823   -0.8360    2.6819 C   0  0  0  0  0  3  0  0  0  0  0  0
    2.0714   -1.0187    3.3162 H   0  0  0  0  0  0  0  0  0  0  0  0
    2.4343    0.5217    1.1952 C   0  0  0  0  0  0  0  0  0  0  0  0
    3.6139   -0.2437    1.0926 C   0  0  0  0  0  0  0  0  0  0  0  0
    3.6153   -1.3036    1.3844 H   0  0  0  0  0  0  0  0  0  0  0  0
    4.7715    0.3348    0.5513 C   0  0  0  0  0  0  0  0  0  0  0  0
    5.9912   -0.5311    0.3216 C   0  0  0  0  0  0  0  0  0  0  0  0
    4.7771    1.6805    0.1460 C   0  0  0  0  0  0  0  0  0  0  0  0
    5.6950    2.1225   -0.2662 H   0  0  0  0  0  0  0  0  0  0  0  0
    3.6037    2.4419    0.2650 C   0  0  0  0  0  0  0  0  0  0  0  0
    3.5952    3.4967   -0.0468 H   0  0  0  0  0  0  0  0  0  0  0  0
    2.4319    1.8663    0.7676 C   0  0  0  0  0  0  0  0  0  0  0  0
    1.5062    2.4518    0.8469 H   0  0  0  0  0  0  0  0  0  0  0  0
  3 21  1  0  0  0  0
  4  6  1  0  0  0  0
  4 14  1  0  0  0  0
  5 15  1  0  0  0  0
  6  8  1  0  0  0  0
  7  6  1  0  0  0  0
  8  9  1  0  0  0  0
  8 10  2  0  0  0  0
 10 11  1  0  0  0  0
 12 10  1  0  0  0  0
 12 13  1  0  0  0  0
 14 12  2  0  0  0  0
 15 14  1  0  0  0  0
 15 16  1  0  0  0  0
 17  5  1  0  0  0  0
 18 17  1  0  0  0  0
 18 19  1  0  0  0  0
 20 18  2  0  0  0  0
 21  2  1  0  0  0  0
 21 20  1  0  0  0  0
 21  1  1  0  0  0  0
 22 24  2  0  0  0  0
 22 20  1  0  0  0  0
 23 22  1  0  0  0  0
 24 26  1  0  0  0  0
 25 24  1  0  0  0  0
 26 27  1  0  0  0  0
 26 17  2  0  0  0  0
M  END
