1,6
q = 0.0, confidence = 0.994

 26 27  0  0  0  0  0  0  0  0999 V2000
    1.7272   -0.9259    0.2583 N   0  0  0  0  0  2  0  0  0  0  0  0
    4.0319   -0.5201   -0.3372 N   0  0  0  0  0  0  0  0  0  0  0  0
    4.5965    0.3240   -0.4740 H   0  0  0  0  0  0  0  0  0  0  0  0
    3.0608    1.6004   -1.9526 N   0  0  0  0  0  0  0  0  0  0  0  0
    3.7137    1.0369   -2.5062 H   0  0  0  0  0  0  0  0  0  0  0  0
    0.8874    1.0604   -1.0551 N   0  0  0  0  0  2  0  0  0  0  0  0
    2.1190   -2.0004    1.1620 C   0  0  0  0  0  0  0  0  0  0  0  0
    1.3251   -2.7729    1.1483 H   0  0  0  0  0  0  0  0  0  0  0  0
    2.0918   -1.5827    2.1935 H   0  0  0  0  0  0  0  0  0  0  0  0
    3.4955   -2.5793    0.8264 C   0  0  0  0  0  0  0  0  0  0  0  0
    3.8170   -3.2794    1.6230 H   0  0  0  0  0  0  0  0  0  0  0  0
    3.4449   -3.1595   -0.1205 H   0  0  0  0  0  0  0  0  0  0  0  0
    4.5201   -1.4561    0.6717 C   0  0  0  0  0  0  0  0  0  0  0  0
    4.6632   -0.9471    1.6539 H   0  0  0  0  0  0  0  0  0  0  0  0
    5.5071   -1.8500    0.3510 H   0  0  0  0  0  0  0  0  0  0  0  0
    2.6742   -0.2536   -0.3654 C   0  0  0  0  0  0  0  0  0  0  0  0
    2.1821    0.8442   -1.1848 C   0  0  0  0  0  0  0  0  0  0  0  0
    2.5151    2.7828   -2.6164 C   0  0  0  0  0  0  0  0  0  0  0  0
    3.1615    3.0369   -3.4787 H   0  0  0  0  0  0  0  0  0  0  0  0
    2.5605    3.6419   -1.9104 H   0  0  0  0  0  0  0  0  0  0  0  0
    1.0601    2.5503   -3.0395 C   0  0  0  0  0  0  0  0  0  0  0  0
    1.0259    1.7604   -3.8212 H   0  0  0  0  0  0  0  0  0  0  0  0
    0.6273    3.4710   -3.4810 H   0  0  0  0  0  0  0  0  0  0  0  0
    0.2441    2.1142   -1.8191 C   0  0  0  0  0  0  0  0  0  0  0  0
    0.0770    2.9721   -1.1282 H   0  0  0  0  0  0  0  0  0  0  0  0
   -0.7628    1.7544   -2.1126 H   0  0  0  0  0  0  0  0  0  0  0  0
  1  7  1  0  0  0  0
  2 13  1  0  0  0  0
  3  2  1  0  0  0  0
  4 17  1  0  0  0  0
  5  4  1  0  0  0  0
  7  9  1  0  0  0  0
  8  7  1  0  0  0  0
 10  7  1  0  0  0  0
 10 11  1  0  0  0  0
 12 10  1  0  0  0  0
 13 10  1  0  0  0  0
 13 14  1  0  0  0  0
 15 13  1  0  0  0  0
 16  2  1  0  0  0  0
 16  1  1  0  0  0  0
 17  6  1  0  0  0  0
 17 16  2  0  0  0  0
 18  4  1  0  0  0  0
 18 20  1  0  0  0  0
 19 18  1  0  0  0  0
 21 18  1  0  0  0  0
 21 24  1  0  0  0  0
 22 21  1  0  0  0  0
 23 21  1  0  0  0  0
 24 25  1  0  0  0  0
 24  6  1  0  0  0  0
 26 24  1  0  0  0  0
M  END
