4,5
q = 0.0, confidence = 0.986

 18 17  0  0  0  0  0  0  0  0999 V2000
   -3.5001   -0.2269    1.7667 N   0  0  0  0  0  0  0  0  0  0  0  0
   -4.2461   -0.8030    2.1727 H   0  0  0  0  0  0  0  0  0  0  0  0
   -2.8050    0.2057    2.4288 H   0  0  0  0  0  0  0  0  0  0  0  0
   -2.8646   -0.7452    0.7132 N   0  0  0  0  0  2  0  0  0  0  0  0
   -1.4222   -1.6611   -1.2751 N   0  0  0  0  0  2  0  0  0  0  0  0
   -0.5777   -2.0862   -2.2551 N   0  0  0  0  0  0  0  0  0  0  0  0
   -0.8231   -2.9982   -2.6675 H   0  0  0  0  0  0  0  0  0  0  0  0
    0.3875   -2.0970   -1.9030 H   0  0  0  0  0  0  0  0  0  0  0  0
   -2.6803   -2.0426   -1.2564 C   0  0  0  0  0  0  0  0  0  0  0  0
   -3.4881   -1.5245   -0.1534 C   0  0  0  0  0  0  0  0  0  0  0  0
   -3.2083   -2.9846   -2.3002 C   0  0  0  0  0  0  0  0  0  0  0  0
   -3.0706   -2.5607   -3.3182 H   0  0  0  0  0  0  0  0  0  0  0  0
   -4.2785   -3.2149   -2.1670 H   0  0  0  0  0  0  0  0  0  0  0  0
   -2.6621   -3.9548   -2.2721 H   0  0  0  0  0  0  0  0  0  0  0  0
   -4.9440   -1.8235    0.0397 C   0  0  0  0  0  0  0  0  0  0  0  0
   -5.1182   -2.4844    0.9195 H   0  0  0  0  0  0  0  0  0  0  0  0
   -5.3998   -2.3177   -0.8353 H   0  0  0  0  0  0  0  0  0  0  0  0
   -5.4961   -0.8770    0.2287 H   0  0  0  0  0  0  0  0  0  0  0  0
  1  2  1  0  0  0  0
  1  3  1  0  0  0  0
  4  1  1  0  0  0  0
  5  9  1  0  0  0  0
  6  8  1  0  0  0  0
  6  5  1  0  0  0  0
  7  6  1  0  0  0  0
  9 10  2  0  0  0  0
 10 15  1  0  0  0  0
 10  4  1  0  0  0  0
 11 14  1  0  0  0  0
 11 13  1  0  0  0  0
 11  9  1  0  0  0  0
 12 11  1  0  0  0  0
 15 18  1  0  0  0  0
 15 16  1  0  0  0  0
 17 15  1  0  0  0  0
M  END
