1,3
q = -1.0

 24 26  0  0  0  0  0  0  0  0999 V2000
    0.1314   -2.1935    0.0054 N   0  0  0  0  0  2  0  0  0  0  0  0
    0.7239   -4.9214    0.0488 N   0  0  0  0  0  0  0  0  0  0  0  0
    2.0228   -0.2668   -0.0256 N   0  0  0  0  0  2  0  0  0  0  0  0
    3.1204    0.5027   -0.0170 N   0  0  0  0  0  0  0  0  0  0  0  0
    3.7679   -1.6828   -0.0241 N   0  0  0  0  0  2  0  0  0  0  0  0
    8.2851    0.8408    0.0041 N   0  0  0  0  0  0  0  0  0  0  0  0
   -0.8530   -3.1044    0.0426 C   0  0  0  0  0  0  0  0  0  0  0  0
   -1.8852   -2.7085    0.0549 H   0  0  0  0  0  0  0  0  0  0  0  0
   -0.5457   -4.4752    0.0640 C   0  0  0  0  0  0  0  0  0  0  0  0
   -1.3495   -5.2301    0.0950 H   0  0  0  0  0  0  0  0  0  0  0  0
    1.6987   -4.0075    0.0174 C   0  0  0  0  0  0  0  0  0  0  0  0
    2.7462   -4.3523    0.0088 H   0  0  0  0  0  0  0  0  0  0  0  0
    1.4212   -2.6203   -0.0029 C   0  0  0  0  0  0  0  0  0  0  0  0
    2.4307   -1.5696   -0.0252 C   0  0  0  0  0  0  0  0  0  0  0  0
    4.1599   -0.3788   -0.0181 C   0  0  0  0  0  0  0  0  0  0  0  0
    5.5642    0.0461   -0.0112 C   0  0  0  0  0  0  0  0  0  0  0  0
    6.6039   -0.9062    0.0024 C   0  0  0  0  0  0  0  0  0  0  0  0
    6.3578   -1.9777    0.0076 H   0  0  0  0  0  0  0  0  0  0  0  0
    7.9310   -0.4559    0.0094 C   0  0  0  0  0  0  0  0  0  0  0  0
    8.7586   -1.1883    0.0202 H   0  0  0  0  0  0  0  0  0  0  0  0
    7.2889    1.7430   -0.0094 C   0  0  0  0  0  0  0  0  0  0  0  0
    7.5924    2.8059   -0.0145 H   0  0  0  0  0  0  0  0  0  0  0  0
    5.9280    1.4088   -0.0176 C   0  0  0  0  0  0  0  0  0  0  0  0
    5.1510    2.1863   -0.0302 H   0  0  0  0  0  0  0  0  0  0  0  0
  1  7  1  0  0  0  0
  2  9  1  0  0  0  0
  3 14  1  0  0  0  0
  3  4  1  0  0  0  0
  5 15  1  0  0  0  0
  6 19  1  0  0  0  0
  7  8  1  0  0  0  0
  7  9  2  0  0  0  0
  9 10  1  0  0  0  0
 11  2  2  0  0  0  0
 12 11  1  0  0  0  0
 13  1  1  0  0  0  0
 13 11  1  0  0  0  0
 14  5  1  0  0  0  0
 14 13  2  0  0  0  0
 15  4  2  0  0  0  0
 15 16  1  0  0  0  0
 16 17  1  0  0  0  0
 17 18  1  0  0  0  0
 17 19  2  0  0  0  0
 19 20  1  0  0  0  0
 21  6  2  0  0  0  0
 22 21  1  0  0  0  0
 23 16  2  0  0  0  0
 23 21  1  0  0  0  0
 24 23  1  0  0  0  0
M  END
