1,2
q = 0.0, confidence = 1.0

 51 54  0  0  1  0  0  0  0  0999 V2000
   -0.0959    0.1166   -0.0014 N   0  0  0  0  0  2  0  0  0  0  0  0
   -2.6571    0.3401   -0.6638 N   0  0  0  0  0  2  0  0  0  0  0  0
    1.9658    0.9276    0.9009 O   0  0  0  0  0  0  0  0  0  0  0  0
   -3.9930    0.2897   -0.7510 C   0  0  0  0  0  3  0  0  0  0  0  0
   -4.4199   -0.6553   -1.1221 H   0  0  0  0  0  0  0  0  0  0  0  0
   -4.8077    1.3634   -0.3642 C   0  0  0  0  0  0  0  0  0  0  0  0
   -5.8998    1.2914   -0.4657 H   0  0  0  0  0  0  0  0  0  0  0  0
   -4.1970    2.4991    0.1832 C   0  0  0  0  0  0  0  0  0  0  0  0
   -4.8038    3.3450    0.5391 H   0  0  0  0  0  0  0  0  0  0  0  0
   -2.8000    2.5399    0.2966 C   0  0  0  0  0  0  0  0  0  0  0  0
   -2.3005    3.3947    0.7698 H   0  0  0  0  0  0  0  0  0  0  0  0
   -2.0496    1.4410   -0.1621 C   0  0  0  0  0  0  0  0  0  0  0  0
   -0.5627    1.3333   -0.0513 C   0  0  1  0  0  3  0  0  0  0  0  0
    0.3334    2.4845    0.0645 C   0  0  0  0  0  0  0  0  0  0  0  0
    0.0318    3.8179   -0.2974 C   0  0  0  0  0  0  0  0  0  0  0  0
   -0.9151    4.0414   -0.8084 H   0  0  0  0  0  0  0  0  0  0  0  0
    0.9429    4.8473   -0.0440 C   0  0  0  0  0  0  0  0  0  0  0  0
    0.7050    5.8786   -0.3413 H   0  0  0  0  0  0  0  0  0  0  0  0
    2.1665    4.5562    0.5910 C   0  0  0  0  0  0  0  0  0  0  0  0
    2.8784    5.3677    0.8054 H   0  0  0  0  0  0  0  0  0  0  0  0
    2.5079    3.2404    0.9226 C   0  0  0  0  0  0  0  0  0  0  0  0
    3.4735    2.9885    1.3833 H   0  0  0  0  0  0  0  0  0  0  0  0
    1.6134    2.1984    0.6221 C   0  0  0  0  0  0  0  0  0  0  0  0
    1.3434   -0.1046    0.0648 C   0  0  2  0  0  0  0  0  0  0  0  0
    1.9152   -0.0339   -1.3625 C   0  0  0  0  0  0  0  0  0  0  0  0
    1.7165    0.9751   -1.7827 H   0  0  0  0  0  0  0  0  0  0  0  0
    1.3294   -0.7584   -1.9703 H   0  0  0  0  0  0  0  0  0  0  0  0
    3.4131   -0.3649   -1.4270 C   0  0  1  0  0  0  0  0  0  0  0  0
    3.9581    0.4048   -0.8336 H   0  0  0  0  0  0  0  0  0  0  0  0
    3.6720   -1.7289   -0.7703 C   0  0  0  0  0  0  0  0  0  0  0  0
    3.1754   -2.5171   -1.3793 H   0  0  0  0  0  0  0  0  0  0  0  0
    4.7599   -1.9520   -0.7843 H   0  0  0  0  0  0  0  0  0  0  0  0
    3.1357   -1.7773    0.6632 C   0  0  0  0  0  0  0  0  0  0  0  0
    3.6878   -1.0476    1.2924 H   0  0  0  0  0  0  0  0  0  0  0  0
    3.3158   -2.7775    1.1070 H   0  0  0  0  0  0  0  0  0  0  0  0
    1.6315   -1.4702    0.7191 C   0  0  1  0  0  0  0  0  0  0  0  0
    1.1297   -2.1782    0.0195 H   0  0  0  0  0  0  0  0  0  0  0  0
    0.9704   -1.6774    2.1097 C   0  0  0  0  0  0  0  0  0  0  0  0
   -0.0345   -1.2012    2.0595 H   0  0  0  0  0  0  0  0  0  0  0  0
    0.7178   -3.1716    2.3546 C   0  0  0  0  0  0  0  0  0  0  0  0
    1.6645   -3.7527    2.3567 H   0  0  0  0  0  0  0  0  0  0  0  0
    0.0426   -3.5924    1.5836 H   0  0  0  0  0  0  0  0  0  0  0  0
    0.2274   -3.3280    3.3362 H   0  0  0  0  0  0  0  0  0  0  0  0
    1.7348   -1.0480    3.2826 C   0  0  0  0  0  0  0  0  0  0  0  0
    1.1566   -1.1699    4.2211 H   0  0  0  0  0  0  0  0  0  0  0  0
    1.9209    0.0317    3.1298 H   0  0  0  0  0  0  0  0  0  0  0  0
    2.7167   -1.5417    3.4390 H   0  0  0  0  0  0  0  0  0  0  0  0
    3.9155   -0.3100   -2.8714 C   0  0  0  0  0  0  0  0  0  0  0  0
    5.0018   -0.5267   -2.9261 H   0  0  0  0  0  0  0  0  0  0  0  0
    3.7446    0.6878   -3.3253 H   0  0  0  0  0  0  0  0  0  0  0  0
    3.3885   -1.0590   -3.4988 H   0  0  0  0  0  0  0  0  0  0  0  0
  2 12  1  0  0  0  0
  4  2  1  0  0  0  0
  4  6  1  0  0  0  0
  5  4  1  0  0  0  0
  6  8  2  0  0  0  0
  7  6  1  0  0  0  0
  8 10  1  0  0  0  0
  8  9  1  0  0  0  0
 10 11  1  0  0  0  0
 12 10  2  0  0  0  0
 13 12  1  1  0  0  0
 13  1  1  0  0  0  0
 13 14  1  0  0  0  0
 14 23  1  0  0  0  0
 15 17  1  0  0  0  0
 15 14  2  0  0  0  0
 16 15  1  0  0  0  0
 17 19  2  0  0  0  0
 18 17  1  0  0  0  0
 19 20  1  0  0  0  0
 19 21  1  0  0  0  0
 21 22  1  0  0  0  0
 23  3  1  0  0  0  0
 23 21  2  0  0  0  0
 24  1  1  6  0  0  0
 24 36  1  0  0  0  0
 24  3  1  0  0  0  0
 25 24  1  0  0  0  0
 26 25  1  0  0  0  0
 27 25  1  0  0  0  0
 28 25  1  0  0  0  0
 28 29  1  1  0  0  0
 28 30  1  0  0  0  0
 30 33  1  0  0  0  0
 31 30  1  0  0  0  0
 32 30  1  0  0  0  0
 33 36  1  0  0  0  0
 33 35  1  0  0  0  0
 33 34  1  0  0  0  0
 36 37  1  6  0  0  0
 36 38  1  0  0  0  0
 38 40  1  0  0  0  0
 38 44  1  0  0  0  0
 39 38  1  0  0  0  0
 40 41  1  0  0  0  0
 40 43  1  0  0  0  0
 42 40  1  0  0  0  0
 44 47  1  0  0  0  0
 44 45  1  0  0  0  0
 46 44  1  0  0  0  0
 48 28  1  0  0  0  0
 49 48  1  0  0  0  0
 50 48  1  0  0  0  0
 51 48  1  0  0  0  0
M  END
