1,2
q = -2.0, confidence = 0.866

 63 64  0  0  1  0  0  0  0  0999 V2000
   -1.3180    0.6985    0.2142 N   0  0  0  0  0  2  0  0  0  0  0  0
    1.2188    0.1256   -0.5124 N   0  0  0  0  0  2  0  0  0  0  0  0
   -2.2073    2.9925    0.0822 C   0  0  0  0  0  0  0  0  0  0  0  0
   -1.2804    1.9483   -0.5532 C   0  0  1  0  0  0  0  0  0  0  0  0
    0.1929    2.4303   -0.7447 C   0  0  0  0  0  0  0  0  0  0  0  0
    1.0789    1.3052   -1.3847 C   0  0  2  0  0  0  0  0  0  0  0  0
    0.6402    0.8628   -2.7883 C   0  0  0  0  0  0  0  0  0  0  0  0
    0.8096    2.8820    0.5922 C   0  0  0  0  0  0  0  0  0  0  0  0
    0.2027    3.6380   -1.7059 C   0  0  0  0  0  0  0  0  0  0  0  0
    2.3574   -0.7259   -0.7003 C   0  0  0  0  0  0  0  0  0  0  0  0
    3.6000   -0.4559   -0.0565 C   0  0  0  0  0  0  0  0  0  0  0  0
    4.6798   -1.3221   -0.3199 C   0  0  0  0  0  0  0  0  0  0  0  0
    4.5543   -2.4303   -1.1679 C   0  0  0  0  0  0  0  0  0  0  0  0
    3.3200   -2.7066   -1.7753 C   0  0  0  0  0  0  0  0  0  0  0  0
    2.2328   -1.8589   -1.5398 C   0  0  0  0  0  0  0  0  0  0  0  0
    3.7758    0.7249    0.8844 C   0  0  0  0  0  0  0  0  0  0  0  0
    4.3325    0.2972    2.2514 C   0  0  0  0  0  0  0  0  0  0  0  0
    4.6409    1.8251    0.2447 C   0  0  0  0  0  0  0  0  0  0  0  0
   -2.5516    0.1668    0.7012 C   0  0  0  0  0  0  0  0  0  0  0  0
   -3.4988   -0.4577   -0.1659 C   0  0  0  0  0  0  0  0  0  0  0  0
   -4.6813   -0.9556    0.4069 C   0  0  0  0  0  0  0  0  0  0  0  0
   -4.9256   -0.8848    1.7879 C   0  0  0  0  0  0  0  0  0  0  0  0
   -3.9753   -0.3039    2.6382 C   0  0  0  0  0  0  0  0  0  0  0  0
   -2.7994    0.2279    2.0935 C   0  0  0  0  0  0  0  0  0  0  0  0
   -3.2379   -0.5935   -1.6581 C   0  0  0  0  0  0  0  0  0  0  0  0
   -4.0694    0.4213   -2.4636 C   0  0  0  0  0  0  0  0  0  0  0  0
   -3.4631   -2.0266   -2.1643 C   0  0  0  0  0  0  0  0  0  0  0  0
   -2.1995    3.9366   -0.4946 H   0  0  0  0  0  0  0  0  0  0  0  0
   -1.9157    3.2110    1.1279 H   0  0  0  0  0  0  0  0  0  0  0  0
   -3.2492    2.6181    0.1002 H   0  0  0  0  0  0  0  0  0  0  0  0
   -1.6744    1.7420   -1.5769 H   0  0  0  0  0  0  0  0  0  0  0  0
    2.0950    1.7555   -1.4781 H   0  0  0  0  0  0  0  0  0  0  0  0
    0.6197    1.7094   -3.5005 H   0  0  0  0  0  0  0  0  0  0  0  0
   -0.3635    0.3924   -2.7633 H   0  0  0  0  0  0  0  0  0  0  0  0
    1.3505    0.1122   -3.1848 H   0  0  0  0  0  0  0  0  0  0  0  0
    0.2770    3.7676    0.9899 H   0  0  0  0  0  0  0  0  0  0  0  0
    1.8687    3.1741    0.4470 H   0  0  0  0  0  0  0  0  0  0  0  0
    0.7755    2.0938    1.3691 H   0  0  0  0  0  0  0  0  0  0  0  0
   -0.3885    3.4546   -2.6249 H   0  0  0  0  0  0  0  0  0  0  0  0
   -0.2114    4.5396   -1.2151 H   0  0  0  0  0  0  0  0  0  0  0  0
    1.2412    3.8807   -2.0106 H   0  0  0  0  0  0  0  0  0  0  0  0
    5.6477   -1.1255    0.1671 H   0  0  0  0  0  0  0  0  0  0  0  0
    5.4193   -3.0879   -1.3434 H   0  0  0  0  0  0  0  0  0  0  0  0
    3.1998   -3.5852   -2.4267 H   0  0  0  0  0  0  0  0  0  0  0  0
    1.2495   -2.0732   -1.9812 H   0  0  0  0  0  0  0  0  0  0  0  0
    2.7658    1.1388    1.0614 H   0  0  0  0  0  0  0  0  0  0  0  0
    5.3636   -0.1059    2.1721 H   0  0  0  0  0  0  0  0  0  0  0  0
    4.3679    1.1664    2.9393 H   0  0  0  0  0  0  0  0  0  0  0  0
    3.6874   -0.4741    2.7144 H   0  0  0  0  0  0  0  0  0  0  0  0
    4.2252    2.1612   -0.7272 H   0  0  0  0  0  0  0  0  0  0  0  0
    4.7080    2.7089    0.9123 H   0  0  0  0  0  0  0  0  0  0  0  0
    5.6743    1.4663    0.0558 H   0  0  0  0  0  0  0  0  0  0  0  0
   -5.4284   -1.4351   -0.2443 H   0  0  0  0  0  0  0  0  0  0  0  0
   -5.8589   -1.2982    2.1993 H   0  0  0  0  0  0  0  0  0  0  0  0
   -4.1479   -0.2568    3.7237 H   0  0  0  0  0  0  0  0  0  0  0  0
   -2.0399    0.6975    2.7355 H   0  0  0  0  0  0  0  0  0  0  0  0
   -2.1625   -0.3634   -1.8095 H   0  0  0  0  0  0  0  0  0  0  0  0
   -3.8957    1.4622   -2.1240 H   0  0  0  0  0  0  0  0  0  0  0  0
   -5.1547    0.2145   -2.3565 H   0  0  0  0  0  0  0  0  0  0  0  0
   -3.8202    0.3662   -3.5434 H   0  0  0  0  0  0  0  0  0  0  0  0
   -2.8579   -2.7479   -1.5820 H   0  0  0  0  0  0  0  0  0  0  0  0
   -3.1687   -2.1064   -3.2307 H   0  0  0  0  0  0  0  0  0  0  0  0
   -4.5292   -2.3265   -2.0955 H   0  0  0  0  0  0  0  0  0  0  0  0
  1 19  1  0  0  0  0
  3 30  1  0  0  0  0
  3 29  1  0  0  0  0
  4 31  1  6  0  0  0
  4  3  1  0  0  0  0
  4  1  1  0  0  0  0
  5  4  1  0  0  0  0
  5  8  1  0  0  0  0
  6 32  1  6  0  0  0
  6  5  1  0  0  0  0
  6  2  1  0  0  0  0
  7 34  1  0  0  0  0
  7  6  1  0  0  0  0
  8 36  1  0  0  0  0
  8 38  1  0  0  0  0
  9 40  1  0  0  0  0
  9  5  1  0  0  0  0
 10  2  1  0  0  0  0
 10 11  1  0  0  0  0
 11 16  1  0  0  0  0
 12 11  2  0  0  0  0
 12 42  1  0  0  0  0
 13 12  1  0  0  0  0
 14 15  1  0  0  0  0
 14 13  2  0  0  0  0
 15 10  2  0  0  0  0
 16 46  1  0  0  0  0
 16 17  1  0  0  0  0
 17 49  1  0  0  0  0
 17 48  1  0  0  0  0
 18 16  1  0  0  0  0
 18 51  1  0  0  0  0
 19 24  1  0  0  0  0
 20 21  1  0  0  0  0
 20 19  2  0  0  0  0
 21 22  2  0  0  0  0
 22 54  1  0  0  0  0
 22 23  1  0  0  0  0
 23 55  1  0  0  0  0
 24 23  2  0  0  0  0
 24 56  1  0  0  0  0
 25 20  1  0  0  0  0
 26 59  1  0  0  0  0
 26 58  1  0  0  0  0
 26 25  1  0  0  0  0
 27 63  1  0  0  0  0
 27 25  1  0  0  0  0
 27 61  1  0  0  0  0
 28  3  1  0  0  0  0
 33  7  1  0  0  0  0
 35  7  1  0  0  0  0
 37  8  1  0  0  0  0
 39  9  1  0  0  0  0
 41  9  1  0  0  0  0
 43 13  1  0  0  0  0
 44 14  1  0  0  0  0
 45 15  1  0  0  0  0
 47 17  1  0  0  0  0
 50 18  1  0  0  0  0
 52 18  1  0  0  0  0
 53 21  1  0  0  0  0
 57 25  1  0  0  0  0
 60 26  1  0  0  0  0
 62 27  1  0  0  0  0
M  END
