1,2
q = -1.0, confidence = 0.002

 38 40  0  0  0  0  0  0  0  0999 V2000
   -0.5291   -0.4291   -0.5710 N   0  0  0  0  0  2  0  0  0  0  0  0
    1.4447    0.5077   -0.6160 N   0  0  0  0  0  2  0  0  0  0  0  0
   -0.4450    1.9688   -0.9471 N   0  0  0  0  0  0  0  0  0  0  0  0
    0.2256    2.7066   -1.1824 H   0  0  0  0  0  0  0  0  0  0  0  0
   -6.3228   -1.7854   -0.7390 Cl  0  0  0  0  0  0  0  0  0  0  0  0
    5.8163    4.5224   -0.0677 Cl  0  0  0  0  0  0  0  0  0  0  0  0
   -5.6308    3.7462    1.4133 Cl  0  0  0  0  0  0  0  0  0  0  0  0
    0.1211    0.7289   -0.7499 C   0  0  0  0  0  3  0  0  0  0  0  0
   -1.8855   -0.7211   -0.6312 C   0  0  0  0  0  0  0  0  0  0  0  0
   -2.4565   -1.5341    0.3760 C   0  0  0  0  0  0  0  0  0  0  0  0
   -1.8103   -1.8572    1.2059 H   0  0  0  0  0  0  0  0  0  0  0  0
   -3.8147   -1.8653    0.3439 C   0  0  0  0  0  0  0  0  0  0  0  0
   -4.2602   -2.4859    1.1344 H   0  0  0  0  0  0  0  0  0  0  0  0
   -4.6234   -1.3811   -0.6985 C   0  0  0  0  0  0  0  0  0  0  0  0
   -4.0750   -0.5729   -1.7085 C   0  0  0  0  0  0  0  0  0  0  0  0
   -4.7195   -0.2011   -2.5174 H   0  0  0  0  0  0  0  0  0  0  0  0
   -2.7137   -0.2525   -1.6792 C   0  0  0  0  0  0  0  0  0  0  0  0
   -2.2809    0.3767   -2.4697 H   0  0  0  0  0  0  0  0  0  0  0  0
    2.4412    1.4689   -0.4877 C   0  0  0  0  0  0  0  0  0  0  0  0
    2.6485    2.4626   -1.4777 C   0  0  0  0  0  0  0  0  0  0  0  0
    2.0253    2.4628   -2.3861 H   0  0  0  0  0  0  0  0  0  0  0  0
    3.6753    3.4085   -1.3457 C   0  0  0  0  0  0  0  0  0  0  0  0
    3.8340    4.1751   -2.1173 H   0  0  0  0  0  0  0  0  0  0  0  0
    4.5249    3.3568   -0.2305 C   0  0  0  0  0  0  0  0  0  0  0  0
    4.3466    2.3683    0.7551 C   0  0  0  0  0  0  0  0  0  0  0  0
    5.0136    2.3482    1.6288 H   0  0  0  0  0  0  0  0  0  0  0  0
    3.3132    1.4365    0.6280 C   0  0  0  0  0  0  0  0  0  0  0  0
    3.1247    0.6840    1.4082 H   0  0  0  0  0  0  0  0  0  0  0  0
   -1.6640    2.3959   -0.3544 C   0  0  0  0  0  0  0  0  0  0  0  0
   -2.0898    1.8911    0.8914 C   0  0  0  0  0  0  0  0  0  0  0  0
   -1.4530    1.1785    1.4402 H   0  0  0  0  0  0  0  0  0  0  0  0
   -3.3148    2.3002    1.4291 C   0  0  0  0  0  0  0  0  0  0  0  0
   -3.6583    1.9012    2.3936 H   0  0  0  0  0  0  0  0  0  0  0  0
   -4.1026    3.2373    0.7403 C   0  0  0  0  0  0  0  0  0  0  0  0
   -3.6707    3.7734   -0.4837 C   0  0  0  0  0  0  0  0  0  0  0  0
   -4.2949    4.5100   -1.0083 H   0  0  0  0  0  0  0  0  0  0  0  0
   -2.4572    3.3409   -1.0321 C   0  0  0  0  0  0  0  0  0  0  0  0
   -2.1248    3.7285   -2.0071 H   0  0  0  0  0  0  0  0  0  0  0  0
  2 19  1  0  0  0  0
  3  8  1  0  0  0  0
  3 29  1  0  0  0  0
  4  3  1  0  0  0  0
  5 14  1  0  0  0  0
  8  2  1  0  0  0  0
  8  1  1  0  0  0  0
  9  1  1  0  0  0  0
  9 10  1  0  0  0  0
 10 11  1  0  0  0  0
 12 10  2  0  0  0  0
 12 13  1  0  0  0  0
 14 12  1  0  0  0  0
 15 17  1  0  0  0  0
 15 14  2  0  0  0  0
 16 15  1  0  0  0  0
 17  9  2  0  0  0  0
 18 17  1  0  0  0  0
 19 27  1  0  0  0  0
 20 22  1  0  0  0  0
 20 19  2  0  0  0  0
 21 20  1  0  0  0  0
 22 24  2  0  0  0  0
 23 22  1  0  0  0  0
 24  6  1  0  0  0  0
 24 25  1  0  0  0  0
 25 26  1  0  0  0  0
 27 25  2  0  0  0  0
 27 28  1  0  0  0  0
 29 30  1  0  0  0  0
 30 32  2  0  0  0  0
 30 31  1  0  0  0  0
 32 33  1  0  0  0  0
 34  7  1  0  0  0  0
 34 32  1  0  0  0  0
 35 34  2  0  0  0  0
 36 35  1  0  0  0  0
 37 35  1  0  0  0  0
 37 29  2  0  0  0  0
 38 37  1  0  0  0  0
M  END
