1,2
q = -1.0

 47 49  0  0  0  0  0  0  0  0999 V2000
   -0.3481   -0.6966   -0.5493 N   0  0  0  0  0  2  0  0  0  0  0  0
    1.7203    0.0078   -0.6003 N   0  0  0  0  0  2  0  0  0  0  0  0
    0.0098    1.6496   -1.0535 N   0  0  0  0  0  0  0  0  0  0  0  0
    0.7437    2.2872   -1.3745 H   0  0  0  0  0  0  0  0  0  0  0  0
   -6.2821   -2.5986   -1.5216 F   0  0  0  0  0  0  0  0  0  0  0  0
   -6.5840   -1.5413    0.3598 F   0  0  0  0  0  0  0  0  0  0  0  0
   -6.6387   -0.4486   -1.5355 F   0  0  0  0  0  0  0  0  0  0  0  0
    6.3094    4.4177   -1.0687 F   0  0  0  0  0  0  0  0  0  0  0  0
    7.4696    2.5944   -0.7771 F   0  0  0  0  0  0  0  0  0  0  0  0
    6.6920    3.6676    0.9513 F   0  0  0  0  0  0  0  0  0  0  0  0
   -4.3641    5.1701    1.8982 F   0  0  0  0  0  0  0  0  0  0  0  0
   -5.4337    3.2725    1.8421 F   0  0  0  0  0  0  0  0  0  0  0  0
   -5.4997    4.6210    0.1205 F   0  0  0  0  0  0  0  0  0  0  0  0
    0.4340    0.3668   -0.7807 C   0  0  0  0  0  3  0  0  0  0  0  0
   -1.7243   -0.8370   -0.6396 C   0  0  0  0  0  0  0  0  0  0  0  0
   -2.4060   -1.5392    0.3832 C   0  0  0  0  0  0  0  0  0  0  0  0
   -1.8192   -1.8911    1.2446 H   0  0  0  0  0  0  0  0  0  0  0  0
   -3.7895   -1.7161    0.3190 C   0  0  0  0  0  0  0  0  0  0  0  0
   -4.3159   -2.2428    1.1283 H   0  0  0  0  0  0  0  0  0  0  0  0
   -4.5230   -1.1970   -0.7643 C   0  0  0  0  0  0  0  0  0  0  0  0
   -3.8519   -0.4958   -1.7829 C   0  0  0  0  0  0  0  0  0  0  0  0
   -4.4249   -0.0809   -2.6247 H   0  0  0  0  0  0  0  0  0  0  0  0
   -2.4673   -0.3202   -1.7292 C   0  0  0  0  0  0  0  0  0  0  0  0
   -1.9465    0.2275   -2.5269 H   0  0  0  0  0  0  0  0  0  0  0  0
   -6.0056   -1.4399   -0.8620 C   0  0  0  0  0  0  0  0  0  0  0  0
    2.8244    0.8433   -0.5302 C   0  0  0  0  0  0  0  0  0  0  0  0
    3.7016    0.7519    0.5797 C   0  0  0  0  0  0  0  0  0  0  0  0
    3.4301    0.0648    1.3946 H   0  0  0  0  0  0  0  0  0  0  0  0
    4.8382    1.5570    0.6507 C   0  0  0  0  0  0  0  0  0  0  0  0
    5.5002    1.4951    1.5271 H   0  0  0  0  0  0  0  0  0  0  0  0
    5.1333    2.4742   -0.3787 C   0  0  0  0  0  0  0  0  0  0  0  0
    4.2721    2.5727   -1.4836 C   0  0  0  0  0  0  0  0  0  0  0  0
    4.5030    3.2819   -2.2915 H   0  0  0  0  0  0  0  0  0  0  0  0
    3.1345    1.7608   -1.5670 C   0  0  0  0  0  0  0  0  0  0  0  0
    2.5029    1.7972   -2.4687 H   0  0  0  0  0  0  0  0  0  0  0  0
    6.3958    3.2924   -0.3175 C   0  0  0  0  0  0  0  0  0  0  0  0
   -1.1459    2.2536   -0.4985 C   0  0  0  0  0  0  0  0  0  0  0  0
   -1.6565    1.8478    0.7523 C   0  0  0  0  0  0  0  0  0  0  0  0
   -1.1303    1.0755    1.3353 H   0  0  0  0  0  0  0  0  0  0  0  0
   -2.8215    2.4405    1.2470 C   0  0  0  0  0  0  0  0  0  0  0  0
   -3.2296    2.1122    2.2135 H   0  0  0  0  0  0  0  0  0  0  0  0
   -3.4711    3.4561    0.5229 C   0  0  0  0  0  0  0  0  0  0  0  0
   -2.9412    3.8823   -0.7071 C   0  0  0  0  0  0  0  0  0  0  0  0
   -3.4500    4.6733   -1.2760 H   0  0  0  0  0  0  0  0  0  0  0  0
   -1.7893    3.2781   -1.2205 C   0  0  0  0  0  0  0  0  0  0  0  0
   -1.3913    3.5840   -2.1999 H   0  0  0  0  0  0  0  0  0  0  0  0
   -4.6955    4.1263    1.0937 C   0  0  0  0  0  0  0  0  0  0  0  0
  2 26  1  0  0  0  0
  3 14  1  0  0  0  0
  3 37  1  0  0  0  0
  4  3  1  0  0  0  0
  5 25  1  0  0  0  0
  7 25  1  0  0  0  0
  8 36  1  0  0  0  0
  9 36  1  0  0  0  0
 13 47  1  0  0  0  0
 14  2  1  0  0  0  0
 14  1  1  0  0  0  0
 15  1  1  0  0  0  0
 15 16  1  0  0  0  0
 16 17  1  0  0  0  0
 18 16  2  0  0  0  0
 18 19  1  0  0  0  0
 20 18  1  0  0  0  0
 21 23  1  0  0  0  0
 21 20  2  0  0  0  0
 22 21  1  0  0  0  0
 23 15  2  0  0  0  0
 24 23  1  0  0  0  0
 25 20  1  0  0  0  0
 25  6  1  0  0  0  0
 26 27  1  0  0  0  0
 27 29  2  0  0  0  0
 27 28  1  0  0  0  0
 29 30  1  0  0  0  0
 31 36  1  0  0  0  0
 31 29  1  0  0  0  0
 32 31  2  0  0  0  0
 33 32  1  0  0  0  0
 34 32  1  0  0  0  0
 34 26  2  0  0  0  0
 35 34  1  0  0  0  0
 36 10  1  0  0  0  0
 37 38  1  0  0  0  0
 38 40  2  0  0  0  0
 38 39  1  0  0  0  0
 40 41  1  0  0  0  0
 42 47  1  0  0  0  0
 42 40  1  0  0  0  0
 43 42  2  0  0  0  0
 44 43  1  0  0  0  0
 45 43  1  0  0  0  0
 45 37  2  0  0  0  0
 46 45  1  0  0  0  0
 47 12  1  0  0  0  0
 47 11  1  0  0  0  0
M  END
