1,5
q = -1.0

 55 56  0  0  1  0  0  0  0  0999 V2000
    1.0516   -0.9283    0.3448 N   0  0  0  0  0  2  0  0  0  0  0  0
    0.9344   -1.5334    1.5137 C   0  0  1  0  0  3  0  0  0  0  0  0
   -0.2566   -1.3050    2.3257 C   0  0  1  0  0  3  0  0  0  0  0  0
   -1.5842   -1.2101    1.7808 C   0  0  2  0  0  3  0  0  0  0  0  0
   -1.7703   -0.7689    0.5273 N   0  0  0  0  0  2  0  0  0  0  0  0
    1.9763   -2.4717    2.0590 C   0  0  0  0  0  0  0  0  0  0  0  0
    2.6597   -2.8155    1.2624 H   0  0  0  0  0  0  0  0  0  0  0  0
    1.5106   -3.3378    2.5656 H   0  0  0  0  0  0  0  0  0  0  0  0
    2.5754   -1.9380    2.8265 H   0  0  0  0  0  0  0  0  0  0  0  0
   -0.1208   -1.5499    3.7263 C   0  0  0  0  0  0  0  0  0  0  0  0
    0.0234   -1.7541    4.8759 N   0  0  0  0  0  0  0  0  0  0  0  0
   -2.7692   -1.5337    2.6489 C   0  0  0  0  0  0  0  0  0  0  0  0
   -3.2958   -0.5809    2.8711 H   0  0  0  0  0  0  0  0  0  0  0  0
   -2.4780   -2.0116    3.5996 H   0  0  0  0  0  0  0  0  0  0  0  0
   -3.4829   -2.1804    2.1046 H   0  0  0  0  0  0  0  0  0  0  0  0
    2.0401   -1.3400   -0.6168 C   0  0  0  0  0  0  0  0  0  0  0  0
    1.6001   -2.1760   -1.6845 C   0  0  0  0  0  0  0  0  0  0  0  0
    2.5217   -2.5356   -2.6827 C   0  0  0  0  0  0  0  0  0  0  0  0
    2.1924   -3.1806   -3.5104 H   0  0  0  0  0  0  0  0  0  0  0  0
    3.8475   -2.0863   -2.6405 C   0  0  0  0  0  0  0  0  0  0  0  0
    4.5546   -2.3708   -3.4341 H   0  0  0  0  0  0  0  0  0  0  0  0
    4.2667   -1.2808   -1.5791 C   0  0  0  0  0  0  0  0  0  0  0  0
    5.3120   -0.9385   -1.5391 H   0  0  0  0  0  0  0  0  0  0  0  0
    3.3874   -0.8942   -0.5462 C   0  0  0  0  0  0  0  0  0  0  0  0
    0.1750   -2.7105   -1.7215 C   0  0  0  0  0  0  0  0  0  0  0  0
   -0.4498   -1.9955   -1.1505 H   0  0  0  0  0  0  0  0  0  0  0  0
    0.1055   -4.0663   -0.9931 C   0  0  0  0  0  0  0  0  0  0  0  0
   -0.9260   -4.4761   -1.0037 H   0  0  0  0  0  0  0  0  0  0  0  0
    0.4267   -3.9815    0.0641 H   0  0  0  0  0  0  0  0  0  0  0  0
    0.7657   -4.8104   -1.4849 H   0  0  0  0  0  0  0  0  0  0  0  0
   -0.4119   -2.8119   -3.1357 C   0  0  0  0  0  0  0  0  0  0  0  0
   -0.3011   -1.8599   -3.6931 H   0  0  0  0  0  0  0  0  0  0  0  0
   -1.4937   -3.0493   -3.0826 H   0  0  0  0  0  0  0  0  0  0  0  0
    0.0691   -3.6119   -3.7355 H   0  0  0  0  0  0  0  0  0  0  0  0
    3.9306   -0.0395    0.5923 C   0  0  0  0  0  0  0  0  0  0  0  0
    3.1100    0.1360    1.3139 H   0  0  0  0  0  0  0  0  0  0  0  0
    5.0825   -0.7428    1.3330 C   0  0  0  0  0  0  0  0  0  0  0  0
    4.7948   -1.7502    1.6923 H   0  0  0  0  0  0  0  0  0  0  0  0
    5.3949   -0.1435    2.2121 H   0  0  0  0  0  0  0  0  0  0  0  0
    5.9728   -0.8645    0.6819 H   0  0  0  0  0  0  0  0  0  0  0  0
    4.3807    1.3437    0.0934 C   0  0  0  0  0  0  0  0  0  0  0  0
    5.2166    1.2630   -0.6322 H   0  0  0  0  0  0  0  0  0  0  0  0
    4.7228    1.9675    0.9433 H   0  0  0  0  0  0  0  0  0  0  0  0
    3.5478    1.8826   -0.3957 H   0  0  0  0  0  0  0  0  0  0  0  0
   -3.0107   -0.9952   -0.1375 C   0  0  0  0  0  0  0  0  0  0  0  0
   -3.2686   -2.2639   -0.6993 C   0  0  0  0  0  0  0  0  0  0  0  0
   -2.5263   -3.0642   -0.5725 H   0  0  0  0  0  0  0  0  0  0  0  0
   -4.4566   -2.4961   -1.4072 C   0  0  0  0  0  0  0  0  0  0  0  0
   -4.6428   -3.4894   -1.8435 H   0  0  0  0  0  0  0  0  0  0  0  0
   -5.4017   -1.4691   -1.5600 C   0  0  0  0  0  0  0  0  0  0  0  0
   -6.3314   -1.6505   -2.1195 H   0  0  0  0  0  0  0  0  0  0  0  0
   -5.1556   -0.2127   -0.9837 C   0  0  0  0  0  0  0  0  0  0  0  0
   -5.8993    0.5930   -1.0799 H   0  0  0  0  0  0  0  0  0  0  0  0
   -3.9705    0.0282   -0.2731 C   0  0  0  0  0  0  0  0  0  0  0  0
   -3.7794    0.9971    0.2097 H   0  0  0  0  0  0  0  0  0  0  0  0
  2  1  1  6  0  0  0
  2  6  1  0  0  0  0
  2  3  1  0  0  0  0
  3 10  1  1  0  0  0
  4  5  1  1  0  0  0
  4  3  1  0  0  0  0
  4 12  1  0  0  0  0
  6  8  1  0  0  0  0
  6  9  1  0  0  0  0
  7  6  1  0  0  0  0
 10 11  3  0  0  0  0
 12 13  1  0  0  0  0
 12 14  1  0  0  0  0
 15 12  1  0  0  0  0
 16 24  1  0  0  0  0
 16  1  1  0  0  0  0
 17 16  2  0  0  0  0
 18 20  2  0  0  0  0
 18 17  1  0  0  0  0
 19 18  1  0  0  0  0
 20 22  1  0  0  0  0
 21 20  1  0  0  0  0
 22 23  1  0  0  0  0
 22 24  2  0  0  0  0
 24 35  1  0  0  0  0
 25 17  1  0  0  0  0
 25 26  1  0  0  0  0
 25 27  1  0  0  0  0
 27 29  1  0  0  0  0
 28 27  1  0  0  0  0
 30 27  1  0  0  0  0
 31 33  1  0  0  0  0
 31 25  1  0  0  0  0
 32 31  1  0  0  0  0
 34 31  1  0  0  0  0
 35 36  1  0  0  0  0
 35 37  1  0  0  0  0
 37 38  1  0  0  0  0
 37 39  1  0  0  0  0
 40 37  1  0  0  0  0
 41 35  1  0  0  0  0
 41 43  1  0  0  0  0
 42 41  1  0  0  0  0
 44 41  1  0  0  0  0
 45  5  1  0  0  0  0
 46 47  1  0  0  0  0
 46 45  2  0  0  0  0
 48 46  1  0  0  0  0
 49 48  1  0  0  0  0
 50 48  2  0  0  0  0
 50 52  1  0  0  0  0
 51 50  1  0  0  0  0
 52 54  2  0  0  0  0
 53 52  1  0  0  0  0
 54 45  1  0  0  0  0
 54 55  1  0  0  0  0
M  END
