1,21
q = 0.0, confidence = 1.0

 40 44  0  0  1  0  0  0  0  0999 V2000
   -0.7612    0.0386    1.8725 N   0  0  0  0  0  0  0  0  0  0  0  0
   -2.6804   -1.6796    0.6426 N   0  0  1  0  0  0  0  0  0  0  0  0
   -1.0012   -1.2374   -0.8901 N   0  0  2  0  0  0  0  0  0  0  0  0
   -1.2631   -1.8802    0.4124 C   0  0  1  0  0  0  0  0  0  0  0  0
   -0.3089   -1.3142    1.4780 C   0  0  1  0  0  0  0  0  0  0  0  0
   -2.1575    0.0386    2.3246 C   0  0  0  0  0  0  0  0  0  0  0  0
   -3.0364   -0.3386    1.1429 C   0  0  0  0  0  0  0  0  0  0  0  0
   -3.2360   -1.9279   -0.6958 C   0  0  0  0  0  0  0  0  0  0  0  0
   -2.2201   -1.3033   -1.6982 C   0  0  0  0  0  0  0  0  0  0  0  0
   -0.1174    0.4308    2.5746 H   0  0  0  0  0  0  0  0  0  0  0  0
   -1.0859   -2.9859    0.3671 H   0  0  0  0  0  0  0  0  0  0  0  0
   -0.3352   -1.9938    2.3708 H   0  0  0  0  0  0  0  0  0  0  0  0
   -2.4190    1.0542    2.6795 H   0  0  0  0  0  0  0  0  0  0  0  0
   -2.3148   -0.6770    3.1674 H   0  0  0  0  0  0  0  0  0  0  0  0
   -2.9327    0.4564    0.3642 H   0  0  0  0  0  0  0  0  0  0  0  0
   -4.0993   -0.3687    1.4596 H   0  0  0  0  0  0  0  0  0  0  0  0
   -3.3089   -3.0243   -0.8567 H   0  0  0  0  0  0  0  0  0  0  0  0
   -4.2532   -1.5019   -0.7819 H   0  0  0  0  0  0  0  0  0  0  0  0
   -2.0867   -1.9487   -2.5977 H   0  0  0  0  0  0  0  0  0  0  0  0
   -2.5180   -0.2845   -2.0304 H   0  0  0  0  0  0  0  0  0  0  0  0
    0.7611    0.0385   -1.8726 N   0  0  0  0  0  0  0  0  0  0  0  0
    1.0010   -1.2375    0.8901 N   0  0  2  0  0  0  0  0  0  0  0  0
    0.3087   -1.3142   -1.4781 C   0  0  1  0  0  0  0  0  0  0  0  0
    2.1574    0.0384   -2.3247 C   0  0  0  0  0  0  0  0  0  0  0  0
    0.1173    0.4308   -2.5746 H   0  0  0  0  0  0  0  0  0  0  0  0
    1.2628   -1.8803   -0.4124 C   0  0  1  0  0  0  0  0  0  0  0  0
    2.2199   -1.3034    1.6982 C   0  0  0  0  0  0  0  0  0  0  0  0
    0.3349   -1.9938   -2.3708 H   0  0  0  0  0  0  0  0  0  0  0  0
    3.0362   -0.3389   -1.1430 C   0  0  0  0  0  0  0  0  0  0  0  0
    2.4189    1.0539   -2.6796 H   0  0  0  0  0  0  0  0  0  0  0  0
    2.3146   -0.6773   -3.1675 H   0  0  0  0  0  0  0  0  0  0  0  0
    2.6801   -1.6798   -0.6426 N   0  0  1  0  0  0  0  0  0  0  0  0
    1.0855   -2.9860   -0.3671 H   0  0  0  0  0  0  0  0  0  0  0  0
    3.2357   -1.9281    0.6958 C   0  0  0  0  0  0  0  0  0  0  0  0
    2.0864   -1.9487    2.5977 H   0  0  0  0  0  0  0  0  0  0  0  0
    2.5178   -0.2845    2.0303 H   0  0  0  0  0  0  0  0  0  0  0  0
    2.9326    0.4562   -0.3644 H   0  0  0  0  0  0  0  0  0  0  0  0
    4.0991   -0.3692   -1.4597 H   0  0  0  0  0  0  0  0  0  0  0  0
    3.3085   -3.0245    0.8567 H   0  0  0  0  0  0  0  0  0  0  0  0
    4.2530   -1.5022    0.7818 H   0  0  0  0  0  0  0  0  0  0  0  0
  1  6  1  0  0  0  0
  1 10  1  0  0  0  0
  2  8  1  6  0  0  0
  2  7  1  0  0  0  0
  3  9  1  6  0  0  0
  3  4  1  0  0  0  0
  4 11  1  6  0  0  0
  4  2  1  0  0  0  0
  4  5  1  0  0  0  0
  5  1  1  0  0  0  0
  5 12  1  1  0  0  0
  6 13  1  0  0  0  0
  6 14  1  0  0  0  0
  7 16  1  0  0  0  0
  7  6  1  0  0  0  0
  9  8  1  0  0  0  0
 15  7  1  0  0  0  0
 17  8  1  0  0  0  0
 18  8  1  0  0  0  0
 19  9  1  0  0  0  0
 20  9  1  0  0  0  0
 21 23  1  0  0  0  0
 22  5  1  0  0  0  0
 22 27  1  1  0  0  0
 23 28  1  6  0  0  0
 23  3  1  0  0  0  0
 23 26  1  0  0  0  0
 24 21  1  0  0  0  0
 24 29  1  0  0  0  0
 25 21  1  0  0  0  0
 26 33  1  1  0  0  0
 26 22  1  0  0  0  0
 27 36  1  0  0  0  0
 27 35  1  0  0  0  0
 29 37  1  0  0  0  0
 30 24  1  0  0  0  0
 31 24  1  0  0  0  0
 32 29  1  1  0  0  0
 32 26  1  0  0  0  0
 32 34  1  0  0  0  0
 34 40  1  0  0  0  0
 34 39  1  0  0  0  0
 34 27  1  0  0  0  0
 38 29  1  0  0  0  0
M  END
