1,2
q = 0.0, confidence = 0.988

 25 25  0  0  0  0  0  0  0  0999 V2000
    0.4209    1.6743    0.3865 N   0  0  0  0  0  2  0  0  0  0  0  0
   -0.9794   -0.1694   -0.8963 N   0  0  0  0  0  2  0  0  0  0  0  0
   -4.3471   -0.5377   -0.5371 N   0  0  0  0  0  0  0  0  0  0  0  0
   -5.1650    0.2046    0.0054 N   0  0  0  0  0  4  0  0  0  0  0  0
   -5.9709    0.9377    0.3832 N   0  0  0  0  0  2  0  0  0  0  0  0
    1.1568    2.5850    1.0565 C   0  0  0  0  0  3  0  0  0  0  0  0
    1.9603    2.1861    1.6922 H   0  0  0  0  0  0  0  0  0  0  0  0
    0.9267    3.9610    0.9497 C   0  0  0  0  0  0  0  0  0  0  0  0
    1.5590    4.6587    1.5163 H   0  0  0  0  0  0  0  0  0  0  0  0
   -0.1054    4.4225    0.1158 C   0  0  0  0  0  0  0  0  0  0  0  0
   -0.3063    5.4988    0.0129 H   0  0  0  0  0  0  0  0  0  0  0  0
   -0.8708    3.4854   -0.5839 C   0  0  0  0  0  0  0  0  0  0  0  0
   -1.6875    3.7947   -1.2517 H   0  0  0  0  0  0  0  0  0  0  0  0
   -0.5833    2.1163   -0.4342 C   0  0  0  0  0  0  0  0  0  0  0  0
   -1.3221    1.0681   -1.1132 C   0  0  0  0  0  3  0  0  0  0  0  0
   -2.1630    1.3238   -1.7831 H   0  0  0  0  0  0  0  0  0  0  0  0
   -1.7154   -1.2373   -1.5671 C   0  0  0  0  0  0  0  0  0  0  0  0
   -0.9731   -1.8472   -2.1222 H   0  0  0  0  0  0  0  0  0  0  0  0
   -2.4280   -0.8001   -2.2982 H   0  0  0  0  0  0  0  0  0  0  0  0
   -2.4822   -2.1227   -0.5764 C   0  0  0  0  0  0  0  0  0  0  0  0
   -1.7755   -2.6715    0.0773 H   0  0  0  0  0  0  0  0  0  0  0  0
   -3.0351   -2.8801   -1.1693 H   0  0  0  0  0  0  0  0  0  0  0  0
   -3.4501   -1.3453    0.3092 C   0  0  0  0  0  0  0  0  0  0  0  0
   -4.0391   -2.0514    0.9355 H   0  0  0  0  0  0  0  0  0  0  0  0
   -2.8863   -0.6868    1.0070 H   0  0  0  0  0  0  0  0  0  0  0  0
  1  6  1  0  0  0  0
  3  4  2  0  0  0  0
  3 23  1  0  0  0  0
  4  5  2  0  0  0  0
  6  7  1  0  0  0  0
  8  6  1  0  0  0  0
  8  9  1  0  0  0  0
 10  8  2  0  0  0  0
 11 10  1  0  0  0  0
 12 14  2  0  0  0  0
 12 10  1  0  0  0  0
 13 12  1  0  0  0  0
 14  1  1  0  0  0  0
 15  2  1  0  0  0  0
 15 14  1  0  0  0  0
 16 15  1  0  0  0  0
 17  2  1  0  0  0  0
 17 20  1  0  0  0  0
 18 17  1  0  0  0  0
 19 17  1  0  0  0  0
 20 21  1  0  0  0  0
 20 23  1  0  0  0  0
 22 20  1  0  0  0  0
 23 24  1  0  0  0  0
 23 25  1  0  0  0  0
M  END
