1,2
q = 0.0, confidence = 1.0

 24 23  0  0  0  0  0  0  0  0999 V2000
   -3.2912   -0.9645   -0.0396 N   0  0  0  0  0  0  0  0  0  0  0  0
   -2.5592    1.9206    0.0807 N   0  0  0  0  0  0  0  0  0  0  0  0
   -3.3370   -2.2153   -0.8322 C   0  0  0  0  0  0  0  0  0  0  0  0
   -3.0407   -1.9532   -1.8691 H   0  0  0  0  0  0  0  0  0  0  0  0
   -4.3863   -2.5933   -0.8845 H   0  0  0  0  0  0  0  0  0  0  0  0
   -2.4066   -3.2835   -0.2748 C   0  0  0  0  0  0  0  0  0  0  0  0
   -1.3456   -2.9570   -0.3164 H   0  0  0  0  0  0  0  0  0  0  0  0
   -2.5014   -4.2167   -0.8641 H   0  0  0  0  0  0  0  0  0  0  0  0
   -2.6538   -3.5289    0.7792 H   0  0  0  0  0  0  0  0  0  0  0  0
   -4.1439    0.1127   -0.5798 C   0  0  0  0  0  0  0  0  0  0  0  0
   -5.2228   -0.1646   -0.5366 H   0  0  0  0  0  0  0  0  0  0  0  0
   -3.8917    0.2259   -1.6543 H   0  0  0  0  0  0  0  0  0  0  0  0
   -3.9344    1.4404    0.1573 C   0  0  0  0  0  0  0  0  0  0  0  0
   -4.6707    2.1866   -0.2398 H   0  0  0  0  0  0  0  0  0  0  0  0
   -4.1868    1.2975    1.2303 H   0  0  0  0  0  0  0  0  0  0  0  0
   -2.1835    2.8194    1.1705 C   0  0  0  0  0  0  0  0  0  0  0  0
   -1.0961    3.0203    1.0992 H   0  0  0  0  0  0  0  0  0  0  0  0
   -2.3864    2.3351    2.1467 H   0  0  0  0  0  0  0  0  0  0  0  0
   -2.7399    3.7904    1.1357 H   0  0  0  0  0  0  0  0  0  0  0  0
   -2.2035    2.4947   -1.2160 C   0  0  0  0  0  0  0  0  0  0  0  0
   -2.7750    3.4337   -1.4313 H   0  0  0  0  0  0  0  0  0  0  0  0
   -2.4031    1.7732   -2.0331 H   0  0  0  0  0  0  0  0  0  0  0  0
   -1.1184    2.7178   -1.2163 H   0  0  0  0  0  0  0  0  0  0  0  0
   -3.6093   -1.1830    0.9165 H   0  0  0  0  0  0  0  0  0  0  0  0
  1 24  1  0  0  0  0
  2 13  1  0  0  0  0
  2 16  1  0  0  0  0
  3  6  1  0  0  0  0
  3  1  1  0  0  0  0
  4  3  1  0  0  0  0
  5  3  1  0  0  0  0
  6  9  1  0  0  0  0
  7  6  1  0  0  0  0
  8  6  1  0  0  0  0
 10 11  1  0  0  0  0
 10  1  1  0  0  0  0
 10 13  1  0  0  0  0
 12 10  1  0  0  0  0
 13 15  1  0  0  0  0
 14 13  1  0  0  0  0
 16 18  1  0  0  0  0
 17 16  1  0  0  0  0
 19 16  1  0  0  0  0
 20  2  1  0  0  0  0
 21 20  1  0  0  0  0
 22 20  1  0  0  0  0
 23 20  1  0  0  0  0
M  END
