1,2
q = 0.0, confidence = 0.996

 44 45  0  0  1  0  0  0  0  0999 V2000
   -1.3965    0.2475   -0.3439 N   0  0  0  0  0  0  0  0  0  0  0  0
    1.4301    0.1586   -0.2702 N   0  0  0  0  0  0  0  0  0  0  0  0
   -0.6206    1.4362   -0.8022 C   0  0  0  0  0  0  0  0  0  0  0  0
    0.7519    1.4797   -0.1373 C   0  0  0  0  0  0  0  0  0  0  0  0
   -2.3640    0.4509    0.8096 C   0  0  1  0  0  0  0  0  0  0  0  0
   -1.6766    0.9517    2.0705 C   0  0  0  0  0  0  0  0  0  0  0  0
    2.6735   -0.0040    0.5854 C   0  0  2  0  0  0  0  0  0  0  0  0
    2.3326   -0.0403    2.0689 C   0  0  0  0  0  0  0  0  0  0  0  0
   -3.5496    1.2665    0.3211 C   0  0  0  0  0  0  0  0  0  0  0  0
   -3.7165    2.6373    0.5971 C   0  0  0  0  0  0  0  0  0  0  0  0
   -4.8061    3.3459    0.0638 C   0  0  0  0  0  0  0  0  0  0  0  0
   -5.7423    2.6926   -0.7512 C   0  0  0  0  0  0  0  0  0  0  0  0
   -5.5902    1.3232   -1.0270 C   0  0  0  0  0  0  0  0  0  0  0  0
   -4.5041    0.6172   -0.4932 C   0  0  0  0  0  0  0  0  0  0  0  0
    3.7171    1.0120    0.1553 C   0  0  0  0  0  0  0  0  0  0  0  0
    4.4719    0.7543   -1.0094 C   0  0  0  0  0  0  0  0  0  0  0  0
    5.4026    1.6878   -1.4869 C   0  0  0  0  0  0  0  0  0  0  0  0
    5.5989    2.8972   -0.8006 C   0  0  0  0  0  0  0  0  0  0  0  0
    4.8625    3.1616    0.3645 C   0  0  0  0  0  0  0  0  0  0  0  0
    3.9287    2.2265    0.8380 C   0  0  0  0  0  0  0  0  0  0  0  0
   -1.9894   -0.0681   -1.1272 H   0  0  0  0  0  0  0  0  0  0  0  0
    1.7530    0.0681   -1.2474 H   0  0  0  0  0  0  0  0  0  0  0  0
   -2.7138   -0.5868    0.9943 H   0  0  0  0  0  0  0  0  0  0  0  0
   -1.2705    1.9789    1.9746 H   0  0  0  0  0  0  0  0  0  0  0  0
   -0.8508    0.2634    2.3392 H   0  0  0  0  0  0  0  0  0  0  0  0
   -2.4060    0.9625    2.9032 H   0  0  0  0  0  0  0  0  0  0  0  0
    3.0182   -1.0230    0.3093 H   0  0  0  0  0  0  0  0  0  0  0  0
    1.8832    0.8989    2.4499 H   0  0  0  0  0  0  0  0  0  0  0  0
    3.2562   -0.2259    2.6502 H   0  0  0  0  0  0  0  0  0  0  0  0
    1.6268   -0.8738    2.2527 H   0  0  0  0  0  0  0  0  0  0  0  0
   -2.9998    3.1607    1.2478 H   0  0  0  0  0  0  0  0  0  0  0  0
   -4.9258    4.4161    0.2920 H   0  0  0  0  0  0  0  0  0  0  0  0
   -6.5968    3.2484   -1.1660 H   0  0  0  0  0  0  0  0  0  0  0  0
   -6.3286    0.8003   -1.6536 H   0  0  0  0  0  0  0  0  0  0  0  0
   -4.3871   -0.4614   -0.6946 H   0  0  0  0  0  0  0  0  0  0  0  0
    4.3343   -0.2039   -1.5378 H   0  0  0  0  0  0  0  0  0  0  0  0
    5.9868    1.4654   -2.3927 H   0  0  0  0  0  0  0  0  0  0  0  0
    6.3327    3.6298   -1.1693 H   0  0  0  0  0  0  0  0  0  0  0  0
    5.0188    4.1030    0.9131 H   0  0  0  0  0  0  0  0  0  0  0  0
    3.3641    2.4439    1.7569 H   0  0  0  0  0  0  0  0  0  0  0  0
   -1.1804    2.3765   -0.6096 H   0  0  0  0  0  0  0  0  0  0  0  0
   -0.5027    1.3424   -1.9008 H   0  0  0  0  0  0  0  0  0  0  0  0
    1.3717    2.2890   -0.5782 H   0  0  0  0  0  0  0  0  0  0  0  0
    0.6507    1.6913    0.9413 H   0  0  0  0  0  0  0  0  0  0  0  0
  1  5  1  0  0  0  0
  2  4  1  0  0  0  0
  2  7  1  0  0  0  0
  3 41  1  0  0  0  0
  3  1  1  0  0  0  0
  3  4  1  0  0  0  0
  4 44  1  0  0  0  0
  5 23  1  1  0  0  0
  5  6  1  0  0  0  0
  6 25  1  0  0  0  0
  6 26  1  0  0  0  0
  7 27  1  6  0  0  0
  7  8  1  0  0  0  0
  8 30  1  0  0  0  0
  8 28  1  0  0  0  0
  8 29  1  0  0  0  0
  9 10  1  0  0  0  0
  9  5  1  0  0  0  0
 10 31  1  0  0  0  0
 11 32  1  0  0  0  0
 11 10  2  0  0  0  0
 12 11  1  0  0  0  0
 13 12  2  0  0  0  0
 13 14  1  0  0  0  0
 14  9  2  0  0  0  0
 15  7  1  0  0  0  0
 15 20  1  0  0  0  0
 16 15  2  0  0  0  0
 17 16  1  0  0  0  0
 17 18  2  0  0  0  0
 18 19  1  0  0  0  0
 19 20  2  0  0  0  0
 19 39  1  0  0  0  0
 20 40  1  0  0  0  0
 21  1  1  0  0  0  0
 22  2  1  0  0  0  0
 24  6  1  0  0  0  0
 33 12  1  0  0  0  0
 34 13  1  0  0  0  0
 35 14  1  0  0  0  0
 36 16  1  0  0  0  0
 37 17  1  0  0  0  0
 38 18  1  0  0  0  0
 42  3  1  0  0  0  0
 43  4  1  0  0  0  0
M  END
