1,3
q = -1.0, confidence = 0.086

 14 14  0  0  0  0  0  0  0  0999 V2000
   -0.2220   -0.7506    1.2946 N   0  0  0  0  0  2  0  0  0  0  0  0
   -1.5267   -0.3932    1.2247 N   0  0  0  0  0  0  0  0  0  0  0  0
   -1.0742    0.0917   -0.9678 N   0  0  0  0  0  2  0  0  0  0  0  0
   -1.4584    0.1819   -1.9166 H   0  0  0  0  0  0  0  0  0  0  0  0
   -3.3345    0.2322   -0.0829 N   0  0  0  0  0  0  0  0  0  0  0  0
   -4.3920    1.0541   -2.2027 N   0  0  0  0  0  0  0  0  0  0  0  0
   -2.0378    0.0016   -0.0443 C   0  0  0  0  0  0  0  0  0  0  0  0
   -3.8656    0.6586   -1.2193 C   0  0  0  0  0  0  0  0  0  0  0  0
    0.0075   -1.0846    2.5715 C   0  0  0  0  0  3  0  0  0  0  0  0
    1.0059   -1.4166    2.8781 H   0  0  0  0  0  0  0  0  0  0  0  0
   -1.1793   -0.9401    3.3356 C   0  0  0  0  0  0  0  0  0  0  0  0
   -1.3121   -1.1390    4.4033 H   0  0  0  0  0  0  0  0  0  0  0  0
   -2.1445   -0.4956    2.4379 C   0  0  0  0  0  0  0  0  0  0  0  0
   -3.2061   -0.2454    2.5292 H   0  0  0  0  0  0  0  0  0  0  0  0
  1  9  1  0  0  0  0
  2  1  1  0  0  0  0
  2 13  1  0  0  0  0
  3  7  1  0  0  0  0
  4  3  1  0  0  0  0
  5  7  2  0  0  0  0
  6  8  3  0  0  0  0
  7  2  1  0  0  0  0
  8  5  1  0  0  0  0
  9 10  1  0  0  0  0
  9 11  1  0  0  0  0
 11 12  1  0  0  0  0
 13 14  1  0  0  0  0
 13 11  2  0  0  0  0
M  END
