1,3
q = -1.0

 20 20  0  0  1  0  0  0  0  0999 V2000
   -1.0834    1.1327    0.1154 N   0  0  0  0  0  2  0  0  0  0  0  0
    0.0369    1.8627   -0.1516 N   0  0  0  0  0  0  0  0  0  0  0  0
    0.4872    0.1789   -1.6292 N   0  0  0  0  0  2  0  0  0  0  0  0
    1.0940   -0.1831   -2.3735 H   0  0  0  0  0  0  0  0  0  0  0  0
    2.1536    1.8609   -1.1594 N   0  0  0  0  0  0  0  0  0  0  0  0
    3.9732    0.4471   -2.1437 N   0  0  0  0  0  0  0  0  0  0  0  0
    3.0995    1.1306   -1.7223 C   0  0  0  0  0  0  0  0  0  0  0  0
    0.9631    1.2769   -1.0577 C   0  0  0  0  0  0  0  0  0  0  0  0
   -1.8702    1.8971    0.8919 C   0  0  1  0  0  3  0  0  0  0  0  0
   -1.2170    3.1344    1.1371 C   0  0  0  0  0  0  0  0  0  0  0  0
   -1.5997    3.9725    1.7285 H   0  0  0  0  0  0  0  0  0  0  0  0
    0.0038    3.0938    0.4638 C   0  0  0  0  0  0  0  0  0  0  0  0
   -3.2180    1.4479    1.3529 C   0  0  0  0  0  0  0  0  0  0  0  0
   -3.8314    1.0951    0.5003 H   0  0  0  0  0  0  0  0  0  0  0  0
   -3.7505    2.2814    1.8464 H   0  0  0  0  0  0  0  0  0  0  0  0
   -3.1542    0.6069    2.0722 H   0  0  0  0  0  0  0  0  0  0  0  0
    1.0809    4.1179    0.3650 C   0  0  0  0  0  0  0  0  0  0  0  0
    0.7737    5.0248    0.9180 H   0  0  0  0  0  0  0  0  0  0  0  0
    1.2935    4.3842   -0.6887 H   0  0  0  0  0  0  0  0  0  0  0  0
    2.0354    3.7384    0.7785 H   0  0  0  0  0  0  0  0  0  0  0  0
  1  9  1  0  0  0  0
  2  1  1  0  0  0  0
  2 12  1  0  0  0  0
  3  8  1  0  0  0  0
  4  3  1  0  0  0  0
  5  8  2  0  0  0  0
  6  7  3  0  0  0  0
  7  5  1  0  0  0  0
  8  2  1  0  0  0  0
  9 10  1  0  0  0  0
  9 13  1  6  0  0  0
 10 11  1  0  0  0  0
 12 10  2  0  0  0  0
 13 15  1  0  0  0  0
 13 16  1  0  0  0  0
 14 13  1  0  0  0  0
 17 12  1  0  0  0  0
 17 20  1  0  0  0  0
 17 18  1  0  0  0  0
 19 17  1  0  0  0  0
M  END
