3,4
q = -1.0, confidence = 0.002

 44 45  0  0  1  0  0  0  0  0999 V2000
    2.2862    3.2870   -0.6990 O   0  0  0  0  0  0  0  0  0  0  0  0
   -2.2858    3.2878    0.6966 O   0  0  0  0  0  0  0  0  0  0  0  0
    1.4269    1.1967   -0.5689 N   0  0  0  0  0  2  0  0  0  0  0  0
   -1.4268    1.1973    0.5679 N   0  0  0  0  0  2  0  0  0  0  0  0
    3.6868    5.1987   -0.7518 C   0  0  0  0  0  0  0  0  0  0  0  0
    4.4324    4.6992   -0.1026 H   0  0  0  0  0  0  0  0  0  0  0  0
    3.7426    6.2919   -0.5806 H   0  0  0  0  0  0  0  0  0  0  0  0
    3.9593    4.9922   -1.8054 H   0  0  0  0  0  0  0  0  0  0  0  0
    2.2892    4.6881   -0.4512 C   0  0  0  0  0  0  0  0  0  0  0  0
    2.0071    4.8895    0.6075 H   0  0  0  0  0  0  0  0  0  0  0  0
    1.5361    5.1962   -1.0979 H   0  0  0  0  0  0  0  0  0  0  0  0
    1.2081    2.5000   -0.4007 C   0  0  0  0  0  0  0  0  0  0  0  0
    0.0002    3.1175   -0.0011 C   0  0  0  0  0  0  0  0  0  0  0  0
    0.0002    4.2086   -0.0018 H   0  0  0  0  0  0  0  0  0  0  0  0
   -1.2077    2.5005    0.3989 C   0  0  2  0  0  3  0  0  0  0  0  0
   -2.2877    4.6891    0.4504 C   0  0  0  0  0  0  0  0  0  0  0  0
   -2.0060    4.8916   -0.6082 H   0  0  0  0  0  0  0  0  0  0  0  0
   -1.5339    5.1958    1.0973 H   0  0  0  0  0  0  0  0  0  0  0  0
   -3.6847    5.2006    0.7523 C   0  0  0  0  0  0  0  0  0  0  0  0
   -4.4311    4.7024    0.1030 H   0  0  0  0  0  0  0  0  0  0  0  0
   -3.7397    6.2940    0.5823 H   0  0  0  0  0  0  0  0  0  0  0  0
   -3.9569    4.9932    1.8058 H   0  0  0  0  0  0  0  0  0  0  0  0
    2.7702    0.7590   -0.7368 C   0  0  0  0  0  0  0  0  0  0  0  0
    3.1506    0.0537   -1.8953 C   0  0  0  0  0  0  0  0  0  0  0  0
    2.4112   -0.0893   -2.6956 H   0  0  0  0  0  0  0  0  0  0  0  0
    4.4371   -0.4896   -2.0088 C   0  0  0  0  0  0  0  0  0  0  0  0
    4.7073   -1.0575   -2.9121 H   0  0  0  0  0  0  0  0  0  0  0  0
    5.3716   -0.3278   -0.9736 C   0  0  0  0  0  0  0  0  0  0  0  0
    6.3782   -0.7635   -1.0612 H   0  0  0  0  0  0  0  0  0  0  0  0
    5.0059    0.3889    0.1774 C   0  0  0  0  0  0  0  0  0  0  0  0
    5.7265    0.5183    1.0002 H   0  0  0  0  0  0  0  0  0  0  0  0
    3.7178    0.9264    0.2969 C   0  0  0  0  0  0  0  0  0  0  0  0
    3.4206    1.4662    1.2083 H   0  0  0  0  0  0  0  0  0  0  0  0
   -2.7701    0.7599    0.7364 C   0  0  0  0  0  0  0  0  0  0  0  0
   -3.7179    0.9269   -0.2972 C   0  0  0  0  0  0  0  0  0  0  0  0
   -3.4208    1.4661   -1.2090 H   0  0  0  0  0  0  0  0  0  0  0  0
   -5.0060    0.3896   -0.1771 C   0  0  0  0  0  0  0  0  0  0  0  0
   -5.7267    0.5187   -0.9998 H   0  0  0  0  0  0  0  0  0  0  0  0
   -5.3716   -0.3264    0.9743 C   0  0  0  0  0  0  0  0  0  0  0  0
   -6.3783   -0.7619    1.0623 H   0  0  0  0  0  0  0  0  0  0  0  0
   -4.4369   -0.4877    2.0094 C   0  0  0  0  0  0  0  0  0  0  0  0
   -4.7070   -1.0551    2.9131 H   0  0  0  0  0  0  0  0  0  0  0  0
   -3.1503    0.0553    1.8953 C   0  0  0  0  0  0  0  0  0  0  0  0
   -2.4108   -0.0874    2.6956 H   0  0  0  0  0  0  0  0  0  0  0  0
  1  9  1  0  0  0  0
  1 12  1  0  0  0  0
  3 12  1  0  0  0  0
  4 34  1  0  0  0  0
  5  7  1  0  0  0  0
  5  9  1  0  0  0  0
  5  6  1  0  0  0  0
  8  5  1  0  0  0  0
  9 10  1  0  0  0  0
 11  9  1  0  0  0  0
 12 13  2  0  0  0  0
 14 13  1  0  0  0  0
 15 13  1  1  0  0  0
 15  4  1  0  0  0  0
 15  2  1  0  0  0  0
 16  2  1  0  0  0  0
 16 19  1  0  0  0  0
 16 18  1  0  0  0  0
 17 16  1  0  0  0  0
 19 22  1  0  0  0  0
 20 19  1  0  0  0  0
 21 19  1  0  0  0  0
 23  3  1  0  0  0  0
 23 32  1  0  0  0  0
 24 23  2  0  0  0  0
 25 24  1  0  0  0  0
 26 24  1  0  0  0  0
 26 28  2  0  0  0  0
 27 26  1  0  0  0  0
 28 30  1  0  0  0  0
 29 28  1  0  0  0  0
 30 32  2  0  0  0  0
 30 31  1  0  0  0  0
 32 33  1  0  0  0  0
 34 43  1  0  0  0  0
 35 37  1  0  0  0  0
 35 34  2  0  0  0  0
 36 35  1  0  0  0  0
 37 39  2  0  0  0  0
 38 37  1  0  0  0  0
 39 40  1  0  0  0  0
 39 41  1  0  0  0  0
 41 42  1  0  0  0  0
 43 41  2  0  0  0  0
 43 44  1  0  0  0  0
M  END
