2,12
q = -1.0, confidence = 0.0

 32 34  0  0  0  0  0  0  0  0999 V2000
   -2.5675    3.0290    0.0005 O   0  0  0  0  0  0  0  0  0  0  0  0
    0.3281    0.2153    0.0001 N   0  0  0  0  0  2  0  0  0  0  0  0
    4.2056    1.0965   -0.0002 C   0  0  0  0  0  0  0  0  0  0  0  0
    4.8267    0.1829   -0.0001 H   0  0  0  0  0  0  0  0  0  0  0  0
   -0.9329   -0.1883    0.0000 N   0  0  0  0  0  0  0  0  0  0  0  0
   -2.4642   -2.2254   -0.0003 O   0  0  0  0  0  0  0  0  0  0  0  0
    4.7158    2.3989   -0.0004 C   0  0  0  0  0  0  0  0  0  0  0  0
    5.8055    2.5485   -0.0005 H   0  0  0  0  0  0  0  0  0  0  0  0
   -0.3439    2.5063    0.0002 N   0  0  0  0  0  2  0  0  0  0  0  0
    3.8270    3.4894   -0.0004 C   0  0  0  0  0  0  0  0  0  0  0  0
    4.2058    4.5230   -0.0006 H   0  0  0  0  0  0  0  0  0  0  0  0
    2.8760    0.8582   -0.0000 N   0  0  0  0  0  2  0  0  0  0  0  0
    2.4517    3.2370   -0.0002 C   0  0  0  0  0  0  0  0  0  0  0  0
    1.6807    4.0212   -0.0002 H   0  0  0  0  0  0  0  0  0  0  0  0
    2.0055    1.9067   -0.0001 C   0  0  0  0  0  0  0  0  0  0  0  0
    0.5725    1.5579    0.0001 C   0  0  0  0  0  0  0  0  0  0  0  0
   -1.6866    2.1577    0.0003 C   0  0  0  0  0  0  0  0  0  0  0  0
   -3.2965    0.0821   -0.0000 C   0  0  0  0  0  0  0  0  0  0  0  0
   -3.4677   -1.3512   -0.0002 C   0  0  0  0  0  0  0  0  0  0  0  0
   -4.7841   -1.8775   -0.0004 C   0  0  0  0  0  0  0  0  0  0  0  0
   -4.8808   -2.9734   -0.0007 H   0  0  0  0  0  0  0  0  0  0  0  0
   -5.9001   -1.0447   -0.0003 C   0  0  0  0  0  0  0  0  0  0  0  0
   -6.9085   -1.4928   -0.0005 H   0  0  0  0  0  0  0  0  0  0  0  0
   -5.7597    0.3631   -0.0001 C   0  0  0  0  0  0  0  0  0  0  0  0
   -4.4646    0.8932    0.0001 C   0  0  0  0  0  0  0  0  0  0  0  0
   -4.3025    1.9800    0.0002 H   0  0  0  0  0  0  0  0  0  0  0  0
   -6.9732    1.2622    0.0001 C   0  0  0  0  0  0  0  0  0  0  0  0
   -7.6156    1.0901    0.8914 H   0  0  0  0  0  0  0  0  0  0  0  0
   -7.6154    1.0908   -0.8914 H   0  0  0  0  0  0  0  0  0  0  0  0
   -6.6788    2.3299    0.0006 H   0  0  0  0  0  0  0  0  0  0  0  0
   -1.9545    0.6763    0.0000 C   0  0  0  0  0  0  0  0  0  0  0  0
   -1.5867   -1.7018   -0.0002 H   0  0  0  0  0  0  0  0  0  0  0  0
  2 16  1  0  0  0  0
  3  4  1  0  0  0  0
  3 12  1  0  0  0  0
  5 31  2  0  0  0  0
  5  2  1  0  0  0  0
  6 19  1  0  0  0  0
  6 32  1  0  0  0  0
  7  3  2  0  0  0  0
  8  7  1  0  0  0  0
  9 17  1  0  0  0  0
 10  7  1  0  0  0  0
 10 13  2  0  0  0  0
 11 10  1  0  0  0  0
 13 14  1  0  0  0  0
 13 15  1  0  0  0  0
 15 12  1  0  0  0  0
 15 16  2  0  0  0  0
 16  9  1  0  0  0  0
 17  1  2  0  0  0  0
 18 31  1  0  0  0  0
 18 25  1  0  0  0  0
 19 18  2  0  0  0  0
 20 22  2  0  0  0  0
 20 19  1  0  0  0  0
 21 20  1  0  0  0  0
 22 24  1  0  0  0  0
 23 22  1  0  0  0  0
 24 25  2  0  0  0  0
 24 27  1  0  0  0  0
 25 26  1  0  0  0  0
 27 30  1  0  0  0  0
 27 28  1  0  0  0  0
 29 27  1  0  0  0  0
 31 17  1  0  0  0  0
M  END
