5,12
q = -1.0

 60 62  0  0  0  0  0  0  0  0999 V2000
    0.0293   -2.9641    3.3593 C   0  0  0  0  0  0  0  0  0  0  0  0
    0.2950   -3.2143    4.3913 H   0  0  0  0  0  0  0  0  0  0  0  0
   -4.7077    0.9135    0.9158 C   0  0  0  0  0  0  0  0  0  0  0  0
   -5.1724    1.1101    1.8963 H   0  0  0  0  0  0  0  0  0  0  0  0
    1.0772    0.7006    1.3534 N   0  0  0  0  0  2  0  0  0  0  0  0
    0.1300   -1.8251    1.3990 C   0  0  0  0  0  2  0  0  0  0  0  0
    0.6223   -1.9178    2.6633 N   0  0  0  0  0  0  0  0  0  0  0  0
    3.0489    5.7946   -0.5649 C   0  0  0  0  0  0  0  0  0  0  0  0
    3.1799    5.7342   -1.6671 H   0  0  0  0  0  0  0  0  0  0  0  0
    4.0355    6.0600   -0.1354 H   0  0  0  0  0  0  0  0  0  0  0  0
    2.3475    6.6287   -0.3655 H   0  0  0  0  0  0  0  0  0  0  0  0
   -1.5397   -0.5030   -0.4533 N   0  0  0  0  0  2  0  0  0  0  0  0
   -6.7626    1.9150   -0.1975 C   0  0  0  0  0  0  0  0  0  0  0  0
   -7.5188    1.3230   -0.7547 H   0  0  0  0  0  0  0  0  0  0  0  0
   -6.7488    2.9260   -0.6570 H   0  0  0  0  0  0  0  0  0  0  0  0
   -7.1204    2.0246    0.8448 H   0  0  0  0  0  0  0  0  0  0  0  0
    1.1557    4.2602    0.1408 C   0  0  0  0  0  0  0  0  0  0  0  0
    0.4453    5.0645   -0.1108 H   0  0  0  0  0  0  0  0  0  0  0  0
    2.5331    4.4892   -0.0147 C   0  0  0  0  0  0  0  0  0  0  0  0
   -3.5083    0.4152   -1.5780 C   0  0  0  0  0  0  0  0  0  0  0  0
   -1.5459   -2.9598    0.0660 C   0  0  0  0  0  0  0  0  0  0  0  0
   -2.6295   -2.9558    0.3272 H   0  0  0  0  0  0  0  0  0  0  0  0
   -1.3157   -3.9366   -0.4064 H   0  0  0  0  0  0  0  0  0  0  0  0
    1.5561    1.9890    0.9202 C   0  0  0  0  0  0  0  0  0  0  0  0
   -0.7767   -2.8332    1.3071 N   0  0  0  0  0  0  0  0  0  0  0  0
   -5.4018    1.2659   -0.2536 C   0  0  0  0  0  0  0  0  0  0  0  0
    0.6464    3.0349    0.6046 C   0  0  0  0  0  0  0  0  0  0  0  0
   -1.1494   -1.8153   -0.8502 C   0  0  0  0  0  3  0  0  0  0  0  0
   -1.2691   -2.0726   -1.9251 H   0  0  0  0  0  0  0  0  0  0  0  0
    1.5918   -0.9482    3.1625 C   0  0  0  0  0  0  0  0  0  0  0  0
    2.5882   -1.1776    2.7299 H   0  0  0  0  0  0  0  0  0  0  0  0
    1.6548   -1.0549    4.2631 H   0  0  0  0  0  0  0  0  0  0  0  0
   -2.8288    0.0643   -0.3773 C   0  0  0  0  0  0  0  0  0  0  0  0
   -0.8709   -3.5426    2.4929 C   0  0  0  0  0  0  0  0  0  0  0  0
   -1.5462   -4.3929    2.6263 H   0  0  0  0  0  0  0  0  0  0  0  0
    1.1743    0.4732    2.7916 C   0  0  0  0  0  0  0  0  0  0  0  0
    0.2083    0.7041    3.3054 H   0  0  0  0  0  0  0  0  0  0  0  0
    1.9245    1.1648    3.2310 H   0  0  0  0  0  0  0  0  0  0  0  0
   -4.7800    1.0034   -1.4896 C   0  0  0  0  0  0  0  0  0  0  0  0
   -5.2978    1.2785   -2.4237 H   0  0  0  0  0  0  0  0  0  0  0  0
   -3.4344    0.3138    0.8821 C   0  0  0  0  0  0  0  0  0  0  0  0
    3.9478    1.1256    1.1511 C   0  0  0  0  0  0  0  0  0  0  0  0
    4.9616    1.3803    0.7881 H   0  0  0  0  0  0  0  0  0  0  0  0
    3.6577    0.1480    0.7179 H   0  0  0  0  0  0  0  0  0  0  0  0
    4.0220    0.9781    2.2505 H   0  0  0  0  0  0  0  0  0  0  0  0
    2.9593    2.2068    0.7955 C   0  0  0  0  0  0  0  0  0  0  0  0
   -0.8432    2.8408    0.7196 C   0  0  0  0  0  0  0  0  0  0  0  0
   -1.3683    3.8139    0.7624 H   0  0  0  0  0  0  0  0  0  0  0  0
   -1.1194    2.2531    1.6146 H   0  0  0  0  0  0  0  0  0  0  0  0
   -1.2542    2.2962   -0.1572 H   0  0  0  0  0  0  0  0  0  0  0  0
    3.4165    3.4497    0.3303 C   0  0  0  0  0  0  0  0  0  0  0  0
    4.5023    3.6076    0.2228 H   0  0  0  0  0  0  0  0  0  0  0  0
   -2.7426   -0.0665    2.1669 C   0  0  0  0  0  0  0  0  0  0  0  0
   -1.6786    0.2389    2.1603 H   0  0  0  0  0  0  0  0  0  0  0  0
   -2.7455   -1.1657    2.3264 H   0  0  0  0  0  0  0  0  0  0  0  0
   -3.2414    0.3971    3.0395 H   0  0  0  0  0  0  0  0  0  0  0  0
   -2.8574    0.1687   -2.9133 C   0  0  0  0  0  0  0  0  0  0  0  0
   -2.8237   -0.9157   -3.1533 H   0  0  0  0  0  0  0  0  0  0  0  0
   -1.8060    0.5229   -2.9217 H   0  0  0  0  0  0  0  0  0  0  0  0
   -3.4112    0.6732   -3.7280 H   0  0  0  0  0  0  0  0  0  0  0  0
  1  2  1  0  0  0  0
  3  4  1  0  0  0  0
  5 36  1  0  0  0  0
  6  7  1  0  0  0  0
  7 30  1  0  0  0  0
  7  1  1  0  0  0  0
  8 11  1  0  0  0  0
  8 10  1  0  0  0  0
  8 19  1  0  0  0  0
  9  8  1  0  0  0  0
 12 33  1  0  0  0  0
 13 16  1  0  0  0  0
 14 13  1  0  0  0  0
 15 13  1  0  0  0  0
 17 27  1  0  0  0  0
 18 17  1  0  0  0  0
 19 17  2  0  0  0  0
 19 51  1  0  0  0  0
 20 39  2  0  0  0  0
 20 33  1  0  0  0  0
 21 22  1  0  0  0  0
 21 25  1  0  0  0  0
 23 21  1  0  0  0  0
 24  5  1  0  0  0  0
 25  6  1  0  0  0  0
 25 34  1  0  0  0  0
 26 13  1  0  0  0  0
 26  3  2  0  0  0  0
 27 47  1  0  0  0  0
 27 24  2  0  0  0  0
 28 12  1  0  0  0  0
 28 21  1  0  0  0  0
 29 28  1  0  0  0  0
 30 32  1  0  0  0  0
 31 30  1  0  0  0  0
 33 41  2  0  0  0  0
 34 35  1  0  0  0  0
 34  1  2  0  0  0  0
 36 30  1  0  0  0  0
 36 38  1  0  0  0  0
 36 37  1  0  0  0  0
 39 26  1  0  0  0  0
 40 39  1  0  0  0  0
 41  3  1  0  0  0  0
 41 53  1  0  0  0  0
 42 45  1  0  0  0  0
 43 42  1  0  0  0  0
 44 42  1  0  0  0  0
 46 24  1  0  0  0  0
 46 42  1  0  0  0  0
 47 48  1  0  0  0  0
 47 49  1  0  0  0  0
 50 47  1  0  0  0  0
 51 46  2  0  0  0  0
 52 51  1  0  0  0  0
 53 55  1  0  0  0  0
 53 56  1  0  0  0  0
 54 53  1  0  0  0  0
 57 20  1  0  0  0  0
 58 57  1  0  0  0  0
 59 57  1  0  0  0  0
 60 57  1  0  0  0  0
M  END
