1,39
q = 0.0, confidence = 0.696

 43 44  0  0  1  0  0  0  0  0999 V2000
   -1.3295    0.7230   -0.7248 N   0  0  0  0  0  2  0  0  0  0  0  0
   -0.5734    4.1854   -0.6536 O   0  0  0  0  0  0  0  0  0  0  0  0
   -5.6883   -2.7184   -1.4960 O   0  0  0  0  0  0  0  0  0  0  0  0
    6.5395   -0.9249   -0.7008 O   0  0  0  0  0  0  0  0  0  0  0  0
    3.6487    0.9373    0.5022 C   0  0  0  0  0  0  0  0  0  0  0  0
    3.3484    1.5061    1.3930 H   0  0  0  0  0  0  0  0  0  0  0  0
    2.7237    0.7670   -0.5478 C   0  0  0  0  0  0  0  0  0  0  0  0
   -0.3299    2.9825   -0.7616 C   0  0  0  0  0  0  0  0  0  0  0  0
    1.0988    2.5030   -0.7843 C   0  0  2  0  0  3  0  0  0  0  0  0
    5.2858   -0.3939   -0.7188 C   0  0  0  0  0  0  0  0  0  0  0  0
    4.3645   -0.5529   -1.7744 C   0  0  0  0  0  0  0  0  0  0  0  0
    4.6242   -1.1300   -2.6717 H   0  0  0  0  0  0  0  0  0  0  0  0
    2.1052    3.5117   -1.2448 C   0  0  0  0  0  0  0  0  0  0  0  0
    1.8333    4.4912   -0.8060 H   0  0  0  0  0  0  0  0  0  0  0  0
    2.0481    3.6361   -2.3480 H   0  0  0  0  0  0  0  0  0  0  0  0
    3.1386    3.2305   -0.9765 H   0  0  0  0  0  0  0  0  0  0  0  0
   -2.3997    2.4361   -2.1377 C   0  0  0  0  0  0  0  0  0  0  0  0
   -2.8900    1.5625   -2.6594 H   0  0  0  0  0  0  0  0  0  0  0  0
   -1.3913    2.0012   -1.1346 C   0  0  1  0  0  3  0  0  0  0  0  0
    3.0903    0.0283   -1.6821 C   0  0  0  0  0  0  0  0  0  0  0  0
    2.3586   -0.1093   -2.4907 H   0  0  0  0  0  0  0  0  0  0  0  0
    4.9180    0.3648    0.4147 C   0  0  0  0  0  0  0  0  0  0  0  0
    5.6546    0.4848    1.2222 H   0  0  0  0  0  0  0  0  0  0  0  0
   -4.6835   -1.8272   -1.2879 C   0  0  0  0  0  0  0  0  0  0  0  0
   -3.4010   -2.2221   -1.7345 C   0  0  0  0  0  0  0  0  0  0  0  0
   -3.2983   -3.2069   -2.2125 H   0  0  0  0  0  0  0  0  0  0  0  0
   -2.2992   -1.3884   -1.5565 C   0  0  0  0  0  0  0  0  0  0  0  0
   -1.2923   -1.7035   -1.8598 H   0  0  0  0  0  0  0  0  0  0  0  0
   -2.4618   -0.1227   -0.9560 C   0  0  0  0  0  0  0  0  0  0  0  0
   -3.7347    0.2692   -0.5001 C   0  0  0  0  0  0  0  0  0  0  0  0
   -3.8462    1.2352    0.0131 H   0  0  0  0  0  0  0  0  0  0  0  0
   -4.8429   -0.5747   -0.6579 C   0  0  0  0  0  0  0  0  0  0  0  0
   -5.8207   -0.2475   -0.2811 H   0  0  0  0  0  0  0  0  0  0  0  0
    6.9522   -1.7056   -1.8049 C   0  0  0  0  0  0  0  0  0  0  0  0
    6.9591   -1.1187   -2.7512 H   0  0  0  0  0  0  0  0  0  0  0  0
    6.3033   -2.5995   -1.9474 H   0  0  0  0  0  0  0  0  0  0  0  0
    7.9825   -2.0416   -1.5849 H   0  0  0  0  0  0  0  0  0  0  0  0
   -2.6501    3.5870   -2.4600 O   0  0  0  0  0  0  0  0  0  0  0  0
    1.3865    1.2718   -0.4293 N   0  0  0  0  0  2  0  0  0  0  0  0
   -6.9927   -2.3749   -1.0672 C   0  0  0  0  0  0  0  0  0  0  0  0
   -7.0395   -2.2198    0.0343 H   0  0  0  0  0  0  0  0  0  0  0  0
   -7.6457   -3.2251   -1.3379 H   0  0  0  0  0  0  0  0  0  0  0  0
   -7.3666   -1.4560   -1.5718 H   0  0  0  0  0  0  0  0  0  0  0  0
  3 24  1  0  0  0  0
  3 40  1  0  0  0  0
  5  6  1  0  0  0  0
  7 39  1  0  0  0  0
  7  5  2  0  0  0  0
  8  2  2  0  0  0  0
  9  8  1  6  0  0  0
  9 39  1  0  0  0  0
 10  4  1  0  0  0  0
 10 22  2  0  0  0  0
 11 20  2  0  0  0  0
 11 10  1  0  0  0  0
 12 11  1  0  0  0  0
 13 16  1  0  0  0  0
 13 14  1  0  0  0  0
 13  9  1  0  0  0  0
 15 13  1  0  0  0  0
 18 17  1  0  0  0  0
 19 17  1  6  0  0  0
 19  8  1  0  0  0  0
 19  1  1  0  0  0  0
 20  7  1  0  0  0  0
 21 20  1  0  0  0  0
 22  5  1  0  0  0  0
 22 23  1  0  0  0  0
 24 32  1  0  0  0  0
 25 27  1  0  0  0  0
 25 24  2  0  0  0  0
 26 25  1  0  0  0  0
 27 29  2  0  0  0  0
 28 27  1  0  0  0  0
 29  1  1  0  0  0  0
 29 30  1  0  0  0  0
 30 31  1  0  0  0  0
 32 30  2  0  0  0  0
 32 33  1  0  0  0  0
 34 37  1  0  0  0  0
 34  4  1  0  0  0  0
 35 34  1  0  0  0  0
 36 34  1  0  0  0  0
 38 17  2  0  0  0  0
 40 41  1  0  0  0  0
 42 40  1  0  0  0  0
 43 40  1  0  0  0  0
M  END
