1,2
q = 0.0, confidence = 1.0

 32 32  0  0  0  0  0  0  0  0999 V2000
    1.7539   -1.2480    0.1779 N   0  0  0  0  0  2  0  0  0  0  0  0
   -0.2113   -0.1113    1.3217 N   0  0  0  0  0  2  0  0  0  0  0  0
    0.8569   -0.2121    2.0837 C   0  0  0  0  0  0  0  0  0  0  0  0
    0.8944    0.2008    3.1073 H   0  0  0  0  0  0  0  0  0  0  0  0
    1.9901   -0.8588    1.4836 C   0  0  0  0  0  0  0  0  0  0  0  0
    3.2314   -1.0692    2.1173 C   0  0  0  0  0  0  0  0  0  0  0  0
    3.3581   -0.7545    3.1633 H   0  0  0  0  0  0  0  0  0  0  0  0
    4.2735   -1.6635    1.4034 C   0  0  0  0  0  0  0  0  0  0  0  0
    5.2515   -1.8373    1.8744 H   0  0  0  0  0  0  0  0  0  0  0  0
    4.0419   -2.0265    0.0634 C   0  0  0  0  0  0  0  0  0  0  0  0
    4.8308   -2.4882   -0.5467 H   0  0  0  0  0  0  0  0  0  0  0  0
    2.7842   -1.8057   -0.5036 C   0  0  0  0  0  0  0  0  0  0  0  0
    2.5735   -2.1039   -1.5391 H   0  0  0  0  0  0  0  0  0  0  0  0
   -1.3366    0.6643    1.8374 C   0  0  0  0  0  0  0  0  0  0  0  0
   -2.2755    0.1435    1.5677 H   0  0  0  0  0  0  0  0  0  0  0  0
   -1.2873    0.7095    2.9465 H   0  0  0  0  0  0  0  0  0  0  0  0
   -1.3336    2.0779    1.2405 C   0  0  0  0  0  0  0  0  0  0  0  0
   -1.2693    1.9878    0.1370 H   0  0  0  0  0  0  0  0  0  0  0  0
   -0.3980    2.5848    1.5624 H   0  0  0  0  0  0  0  0  0  0  0  0
   -2.5445    2.9734    1.6002 C   0  0  0  0  0  0  0  0  0  0  0  0
   -2.6521    3.1673    3.1239 C   0  0  0  0  0  0  0  0  0  0  0  0
   -1.7094    3.5729    3.5461 H   0  0  0  0  0  0  0  0  0  0  0  0
   -2.8845    2.2191    3.6510 H   0  0  0  0  0  0  0  0  0  0  0  0
   -3.4629    3.8821    3.3705 H   0  0  0  0  0  0  0  0  0  0  0  0
   -3.8504    2.3652    1.0558 C   0  0  0  0  0  0  0  0  0  0  0  0
   -4.7055    3.0449    1.2454 H   0  0  0  0  0  0  0  0  0  0  0  0
   -4.0950    1.3954    1.5359 H   0  0  0  0  0  0  0  0  0  0  0  0
   -3.7902    2.1964   -0.0392 H   0  0  0  0  0  0  0  0  0  0  0  0
   -2.3108    4.3401    0.9287 C   0  0  0  0  0  0  0  0  0  0  0  0
   -2.2249    4.2349   -0.1728 H   0  0  0  0  0  0  0  0  0  0  0  0
   -1.3792    4.8162    1.2981 H   0  0  0  0  0  0  0  0  0  0  0  0
   -3.1501    5.0336    1.1379 H   0  0  0  0  0  0  0  0  0  0  0  0
  1  5  1  0  0  0  0
  2 14  1  0  0  0  0
  2  3  1  0  0  0  0
  3  4  1  0  0  0  0
  5  3  2  0  0  0  0
  5  6  1  0  0  0  0
  6  7  1  0  0  0  0
  8  9  1  0  0  0  0
  8  6  2  0  0  0  0
 10  8  1  0  0  0  0
 11 10  1  0  0  0  0
 12 10  2  0  0  0  0
 12  1  1  0  0  0  0
 13 12  1  0  0  0  0
 14 16  1  0  0  0  0
 15 14  1  0  0  0  0
 17 19  1  0  0  0  0
 17 20  1  0  0  0  0
 17 14  1  0  0  0  0
 18 17  1  0  0  0  0
 20 21  1  0  0  0  0
 21 24  1  0  0  0  0
 21 22  1  0  0  0  0
 21 23  1  0  0  0  0
 25 26  1  0  0  0  0
 25 27  1  0  0  0  0
 25 20  1  0  0  0  0
 28 25  1  0  0  0  0
 29 32  1  0  0  0  0
 29 31  1  0  0  0  0
 29 20  1  0  0  0  0
 30 29  1  0  0  0  0
M  END
