1,4
q = 0.0, confidence = 0.998

 56 59  0  0  0  0  0  0  0  0999 V2000
    1.6836   -0.1721    0.4245 N   0  0  0  0  0  2  0  0  0  0  0  0
    3.2132   -1.8826   -0.1062 N   0  0  0  0  0  0  0  0  0  0  0  0
    3.9960    0.2258   -0.1725 N   0  0  0  0  0  0  0  0  0  0  0  0
   -1.6836   -0.1721   -0.4245 N   0  0  0  0  0  2  0  0  0  0  0  0
   -3.2132   -1.8826    0.1062 N   0  0  0  0  0  0  0  0  0  0  0  0
   -3.9960    0.2258    0.1726 N   0  0  0  0  0  0  0  0  0  0  0  0
    1.3575    1.0032    1.1280 C   0  0  0  0  0  0  0  0  0  0  0  0
    1.9871    1.2434    2.3713 C   0  0  0  0  0  0  0  0  0  0  0  0
    2.7492    0.5257    2.7074 H   0  0  0  0  0  0  0  0  0  0  0  0
    1.6352    2.3355    3.1699 C   0  0  0  0  0  0  0  0  0  0  0  0
    2.1388    2.4921    4.1360 H   0  0  0  0  0  0  0  0  0  0  0  0
    0.6187    3.2041    2.7468 C   0  0  0  0  0  0  0  0  0  0  0  0
    0.3121    4.0558    3.3721 H   0  0  0  0  0  0  0  0  0  0  0  0
   -0.0081    2.9772    1.5132 C   0  0  0  0  0  0  0  0  0  0  0  0
   -0.7954    3.6647    1.1678 H   0  0  0  0  0  0  0  0  0  0  0  0
    0.3282    1.8886    0.6771 C   0  0  0  0  0  0  0  0  0  0  0  0
   -0.3283    1.8886   -0.6772 C   0  0  0  0  0  0  0  0  0  0  0  0
    0.0081    2.9772   -1.5132 C   0  0  0  0  0  0  0  0  0  0  0  0
    0.7954    3.6648   -1.1678 H   0  0  0  0  0  0  0  0  0  0  0  0
   -0.6187    3.2041   -2.7468 C   0  0  0  0  0  0  0  0  0  0  0  0
   -0.3121    4.0559   -3.3720 H   0  0  0  0  0  0  0  0  0  0  0  0
   -1.6352    2.3356   -3.1699 C   0  0  0  0  0  0  0  0  0  0  0  0
   -2.1388    2.4921   -4.1360 H   0  0  0  0  0  0  0  0  0  0  0  0
   -1.9871    1.2434   -2.3714 C   0  0  0  0  0  0  0  0  0  0  0  0
   -2.7492    0.5257   -2.7075 H   0  0  0  0  0  0  0  0  0  0  0  0
   -1.3575    1.0032   -1.1280 C   0  0  0  0  0  0  0  0  0  0  0  0
    2.8912   -0.5745    0.0938 C   0  0  0  0  0  3  0  0  0  0  0  0
    4.5880   -2.0263   -0.5478 C   0  0  0  0  0  0  0  0  0  0  0  0
    4.6714   -2.7177   -1.4127 H   0  0  0  0  0  0  0  0  0  0  0  0
    5.2223   -2.4344    0.2755 H   0  0  0  0  0  0  0  0  0  0  0  0
    4.9686   -0.5839   -0.9141 C   0  0  0  0  0  0  0  0  0  0  0  0
    6.0103   -0.3250   -0.6356 H   0  0  0  0  0  0  0  0  0  0  0  0
    4.8491   -0.4112   -2.0103 H   0  0  0  0  0  0  0  0  0  0  0  0
    2.4016   -3.0145    0.2787 C   0  0  0  0  0  0  0  0  0  0  0  0
    1.5741   -2.6702    0.9333 H   0  0  0  0  0  0  0  0  0  0  0  0
    3.0243   -3.7466    0.8371 H   0  0  0  0  0  0  0  0  0  0  0  0
    1.9539   -3.4989   -0.6144 H   0  0  0  0  0  0  0  0  0  0  0  0
    3.8241    1.6036   -0.6038 C   0  0  0  0  0  0  0  0  0  0  0  0
    3.2384    1.6756   -1.5500 H   0  0  0  0  0  0  0  0  0  0  0  0
    4.8247    2.0494   -0.7625 H   0  0  0  0  0  0  0  0  0  0  0  0
    3.3073    2.1945    0.1742 H   0  0  0  0  0  0  0  0  0  0  0  0
   -2.8912   -0.5745   -0.0938 C   0  0  0  0  0  3  0  0  0  0  0  0
   -4.5880   -2.0263    0.5479 C   0  0  0  0  0  0  0  0  0  0  0  0
   -4.6713   -2.7177    1.4128 H   0  0  0  0  0  0  0  0  0  0  0  0
   -5.2224   -2.4343   -0.2754 H   0  0  0  0  0  0  0  0  0  0  0  0
   -4.9686   -0.5839    0.9142 C   0  0  0  0  0  0  0  0  0  0  0  0
   -6.0102   -0.3250    0.6357 H   0  0  0  0  0  0  0  0  0  0  0  0
   -4.8490   -0.4113    2.0105 H   0  0  0  0  0  0  0  0  0  0  0  0
   -2.4016   -3.0145   -0.2788 C   0  0  0  0  0  0  0  0  0  0  0  0
   -1.5741   -2.6702   -0.9333 H   0  0  0  0  0  0  0  0  0  0  0  0
   -3.0243   -3.7466   -0.8372 H   0  0  0  0  0  0  0  0  0  0  0  0
   -1.9539   -3.4989    0.6144 H   0  0  0  0  0  0  0  0  0  0  0  0
   -3.8240    1.6035    0.6039 C   0  0  0  0  0  0  0  0  0  0  0  0
   -4.8247    2.0494    0.7627 H   0  0  0  0  0  0  0  0  0  0  0  0
   -3.3074    2.1945   -0.1741 H   0  0  0  0  0  0  0  0  0  0  0  0
   -3.2383    1.6755    1.5500 H   0  0  0  0  0  0  0  0  0  0  0  0
  1  7  1  0  0  0  0
  2 27  1  0  0  0  0
  2 34  1  0  0  0  0
  3 27  1  0  0  0  0
  4 42  1  0  0  0  0
  5 43  1  0  0  0  0
  6 53  1  0  0  0  0
  6 46  1  0  0  0  0
  7  8  1  0  0  0  0
  8  9  1  0  0  0  0
  8 10  2  0  0  0  0
 10 11  1  0  0  0  0
 12 10  1  0  0  0  0
 12 13  1  0  0  0  0
 14 12  2  0  0  0  0
 15 14  1  0  0  0  0
 16  7  2  0  0  0  0
 16 14  1  0  0  0  0
 17 16  1  0  0  0  0
 18 19  1  0  0  0  0
 18 17  2  0  0  0  0
 20 18  1  0  0  0  0
 21 20  1  0  0  0  0
 22 20  2  0  0  0  0
 22 24  1  0  0  0  0
 23 22  1  0  0  0  0
 24 26  2  0  0  0  0
 25 24  1  0  0  0  0
 26 17  1  0  0  0  0
 26  4  1  0  0  0  0
 27  1  1  0  0  0  0
 28  2  1  0  0  0  0
 28 30  1  0  0  0  0
 29 28  1  0  0  0  0
 31 32  1  0  0  0  0
 31 28  1  0  0  0  0
 31  3  1  0  0  0  0
 33 31  1  0  0  0  0
 34 36  1  0  0  0  0
 34 35  1  0  0  0  0
 37 34  1  0  0  0  0
 38  3  1  0  0  0  0
 38 41  1  0  0  0  0
 39 38  1  0  0  0  0
 40 38  1  0  0  0  0
 42  5  1  0  0  0  0
 42  6  1  0  0  0  0
 43 46  1  0  0  0  0
 43 44  1  0  0  0  0
 45 43  1  0  0  0  0
 46 48  1  0  0  0  0
 47 46  1  0  0  0  0
 49  5  1  0  0  0  0
 49 52  1  0  0  0  0
 50 49  1  0  0  0  0
 51 49  1  0  0  0  0
 53 54  1  0  0  0  0
 53 56  1  0  0  0  0
 55 53  1  0  0  0  0
M  END
