2,5
q = 0.0, confidence = 0.962

 18 17  0  0  0  0  0  0  0  0999 V2000
    5.5470    0.6475   -0.8068 Cl  0  0  0  0  0  0  0  0  0  0  0  0
   -0.5337   -1.8929    0.3478 N   0  0  0  0  0  0  0  0  0  0  0  0
   -1.3219   -2.0637    0.9877 H   0  0  0  0  0  0  0  0  0  0  0  0
   -0.8220   -2.0733   -0.6367 H   0  0  0  0  0  0  0  0  0  0  0  0
    1.8931   -0.6896    0.3933 N   0  0  0  0  0  0  0  0  0  0  0  0
    2.0297   -0.5931    1.4182 H   0  0  0  0  0  0  0  0  0  0  0  0
    0.6236   -2.7295    0.7365 C   0  0  0  0  0  0  0  0  0  0  0  0
    0.4788   -3.7920    0.4520 H   0  0  0  0  0  0  0  0  0  0  0  0
    0.7233   -2.6720    1.8388 H   0  0  0  0  0  0  0  0  0  0  0  0
    2.9596    0.0507   -0.3227 C   0  0  0  0  0  0  0  0  0  0  0  0
    2.9247    1.1119   -0.0116 H   0  0  0  0  0  0  0  0  0  0  0  0
    2.7483    0.0239   -1.4095 H   0  0  0  0  0  0  0  0  0  0  0  0
    4.3738   -0.4638   -0.0418 C   0  0  0  0  0  0  0  0  0  0  0  0
    4.5490   -1.4722   -0.4631 H   0  0  0  0  0  0  0  0  0  0  0  0
    4.5855   -0.4921    1.0468 H   0  0  0  0  0  0  0  0  0  0  0  0
    1.8463   -2.1403    0.0615 C   0  0  0  0  0  0  0  0  0  0  0  0
    2.7687   -2.6628    0.3883 H   0  0  0  0  0  0  0  0  0  0  0  0
    1.7767   -2.2315   -1.0424 H   0  0  0  0  0  0  0  0  0  0  0  0
  1 13  1  0  0  0  0
  2  7  1  0  0  0  0
  2  3  1  0  0  0  0
  4  2  1  0  0  0  0
  5  6  1  0  0  0  0
  7  9  1  0  0  0  0
  8  7  1  0  0  0  0
 10 13  1  0  0  0  0
 10 11  1  0  0  0  0
 10  5  1  0  0  0  0
 12 10  1  0  0  0  0
 13 15  1  0  0  0  0
 14 13  1  0  0  0  0
 16 17  1  0  0  0  0
 16  5  1  0  0  0  0
 16  7  1  0  0  0  0
 18 16  1  0  0  0  0
M  END
