3,4
q = 0.0, confidence = 0.968

 50 51  0  0  0  0  0  0  0  0999 V2000
   -1.0634    0.0698    0.4029 B   0  0  1  0  0  0  0  0  0  0  0  0
    0.9910    0.4586    0.1746 B   0  0  2  0  0  0  0  0  0  0  0  0
   -0.2549    0.9459   -0.5197 N   0  0  0  0  0  0  0  0  0  0  0  0
    0.1858   -0.5060    0.9911 N   0  0  0  0  0  0  0  0  0  0  0  0
   -2.5735    0.0842    0.8564 C   0  0  0  0  0  0  0  0  0  0  0  0
   -2.9477    1.2324    1.8152 C   0  0  0  0  0  0  0  0  0  0  0  0
   -4.4176    1.2133    2.2370 C   0  0  0  0  0  0  0  0  0  0  0  0
    2.4548    1.0407    0.2781 C   0  0  0  0  0  0  0  0  0  0  0  0
    2.7279    1.9612    1.4840 C   0  0  0  0  0  0  0  0  0  0  0  0
    4.1212    2.5916    1.4574 C   0  0  0  0  0  0  0  0  0  0  0  0
   -0.5534    2.1168   -1.3685 C   0  0  0  0  0  0  0  0  0  0  0  0
   -2.0223    2.0993   -1.8198 C   0  0  0  0  0  0  0  0  0  0  0  0
    0.3521    2.1364   -2.6096 C   0  0  0  0  0  0  0  0  0  0  0  0
   -0.2922    3.3752   -0.5139 C   0  0  0  0  0  0  0  0  0  0  0  0
    0.4739   -1.3317    2.1802 C   0  0  0  0  0  0  0  0  0  0  0  0
   -0.5146   -2.5036    2.2934 C   0  0  0  0  0  0  0  0  0  0  0  0
    1.9120   -1.8687    2.1146 C   0  0  0  0  0  0  0  0  0  0  0  0
    0.3133   -0.4205    3.4161 C   0  0  0  0  0  0  0  0  0  0  0  0
   -2.8206   -0.8862    1.3369 H   0  0  0  0  0  0  0  0  0  0  0  0
   -3.2266    0.1328   -0.0407 H   0  0  0  0  0  0  0  0  0  0  0  0
   -2.7143    2.2089    1.3358 H   0  0  0  0  0  0  0  0  0  0  0  0
   -2.3006    1.1927    2.7189 H   0  0  0  0  0  0  0  0  0  0  0  0
   -4.6626    2.0484    2.9245 H   0  0  0  0  0  0  0  0  0  0  0  0
   -4.6734    0.2650    2.7546 H   0  0  0  0  0  0  0  0  0  0  0  0
   -5.0873    1.2951    1.3553 H   0  0  0  0  0  0  0  0  0  0  0  0
    2.6765    1.5990   -0.6573 H   0  0  0  0  0  0  0  0  0  0  0  0
    3.1854    0.2034    0.2867 H   0  0  0  0  0  0  0  0  0  0  0  0
    2.6049    1.3838    2.4261 H   0  0  0  0  0  0  0  0  0  0  0  0
    1.9576    2.7619    1.5308 H   0  0  0  0  0  0  0  0  0  0  0  0
    4.2997    3.2389    2.3400 H   0  0  0  0  0  0  0  0  0  0  0  0
    4.2615    3.2148    0.5493 H   0  0  0  0  0  0  0  0  0  0  0  0
    4.9126    1.8132    1.4447 H   0  0  0  0  0  0  0  0  0  0  0  0
   -2.2129    2.9574   -2.4938 H   0  0  0  0  0  0  0  0  0  0  0  0
   -2.7148    2.1852   -0.9613 H   0  0  0  0  0  0  0  0  0  0  0  0
   -2.2627    1.1724   -2.3737 H   0  0  0  0  0  0  0  0  0  0  0  0
    1.4237    2.0965   -2.3368 H   0  0  0  0  0  0  0  0  0  0  0  0
    0.1806    3.0669   -3.1861 H   0  0  0  0  0  0  0  0  0  0  0  0
    0.1320    1.2737   -3.2670 H   0  0  0  0  0  0  0  0  0  0  0  0
   -0.5690    4.2879   -1.0778 H   0  0  0  0  0  0  0  0  0  0  0  0
    0.7770    3.4539   -0.2365 H   0  0  0  0  0  0  0  0  0  0  0  0
   -0.8920    3.3497    0.4179 H   0  0  0  0  0  0  0  0  0  0  0  0
   -0.3135   -3.0700    3.2238 H   0  0  0  0  0  0  0  0  0  0  0  0
   -0.4201   -3.2027    1.4429 H   0  0  0  0  0  0  0  0  0  0  0  0
   -1.5605   -2.1461    2.3350 H   0  0  0  0  0  0  0  0  0  0  0  0
    2.1164   -2.5094    2.9945 H   0  0  0  0  0  0  0  0  0  0  0  0
    2.6513   -1.0453    2.1153 H   0  0  0  0  0  0  0  0  0  0  0  0
    2.0698   -2.4758    1.2026 H   0  0  0  0  0  0  0  0  0  0  0  0
    0.5560   -0.9806    4.3407 H   0  0  0  0  0  0  0  0  0  0  0  0
   -0.7278   -0.0513    3.5003 H   0  0  0  0  0  0  0  0  0  0  0  0
    0.9871    0.4561    3.3548 H   0  0  0  0  0  0  0  0  0  0  0  0
  1  5  1  1  0  0  0
  1  4  1  0  0  0  0
  2  8  1  1  0  0  0
  2  1  1  0  0  0  0
  2  4  1  0  0  0  0
  3  2  1  0  0  0  0
  3  1  1  0  0  0  0
  4 15  1  0  0  0  0
  5 19  1  0  0  0  0
  5  6  1  0  0  0  0
  6  7  1  0  0  0  0
  6 22  1  0  0  0  0
  7 24  1  0  0  0  0
  7 23  1  0  0  0  0
  8 27  1  0  0  0  0
  8  9  1  0  0  0  0
  9 29  1  0  0  0  0
  9 28  1  0  0  0  0
 10  9  1  0  0  0  0
 10 30  1  0  0  0  0
 11  3  1  0  0  0  0
 11 14  1  0  0  0  0
 12 11  1  0  0  0  0
 12 34  1  0  0  0  0
 13 36  1  0  0  0  0
 13 11  1  0  0  0  0
 14 40  1  0  0  0  0
 14 41  1  0  0  0  0
 15 16  1  0  0  0  0
 15 18  1  0  0  0  0
 16 44  1  0  0  0  0
 16 42  1  0  0  0  0
 17 46  1  0  0  0  0
 17 15  1  0  0  0  0
 17 45  1  0  0  0  0
 18 49  1  0  0  0  0
 18 48  1  0  0  0  0
 20  5  1  0  0  0  0
 21  6  1  0  0  0  0
 25  7  1  0  0  0  0
 26  8  1  0  0  0  0
 31 10  1  0  0  0  0
 32 10  1  0  0  0  0
 33 12  1  0  0  0  0
 35 12  1  0  0  0  0
 37 13  1  0  0  0  0
 38 13  1  0  0  0  0
 39 14  1  0  0  0  0
 43 16  1  0  0  0  0
 47 17  1  0  0  0  0
 50 18  1  0  0  0  0
M  END
