3,4
q = -1.0, confidence = 0.0

 42 42  0  0  0  0  0  0  0  0999 V2000
   -0.0659    2.9895   -4.2987 O   0  0  0  0  0  0  0  0  0  0  0  0
   -0.0661   -2.9896    4.2987 O   0  0  0  0  0  0  0  0  0  0  0  0
   -1.5169   -0.4624    1.2251 N   0  0  0  0  0  2  0  0  0  0  0  0
   -1.5169    0.4627   -1.2249 N   0  0  0  0  0  2  0  0  0  0  0  0
   -2.7327   -0.2882    0.6943 C   0  0  0  0  0  0  0  0  0  0  0  0
   -2.7327    0.2887   -0.6941 C   0  0  0  0  0  0  0  0  0  0  0  0
   -3.9108    0.6565   -1.4144 C   0  0  0  0  0  0  0  0  0  0  0  0
   -3.9108   -0.6558    1.4148 C   0  0  0  0  0  3  0  0  0  0  0  0
   -3.7051    1.1234   -2.3877 H   0  0  0  0  0  0  0  0  0  0  0  0
   -3.7051   -1.1227    2.3881 H   0  0  0  0  0  0  0  0  0  0  0  0
   -5.2729    0.5419   -1.1226 C   0  0  0  0  0  0  0  0  0  0  0  0
   -5.2729   -0.5410    1.1231 C   0  0  0  0  0  0  0  0  0  0  0  0
   -5.9408    0.9345   -1.9086 H   0  0  0  0  0  0  0  0  0  0  0  0
   -5.9408   -0.9334    1.9091 H   0  0  0  0  0  0  0  0  0  0  0  0
   -5.9145    0.0005    0.0003 C   0  0  0  0  0  0  0  0  0  0  0  0
   -7.0153    0.0006    0.0003 H   0  0  0  0  0  0  0  0  0  0  0  0
   -1.3417    0.9937   -2.5619 C   0  0  0  0  0  0  0  0  0  0  0  0
   -1.3417   -0.9934    2.5621 C   0  0  0  0  0  0  0  0  0  0  0  0
   -1.9147    0.3895   -3.3077 H   0  0  0  0  0  0  0  0  0  0  0  0
   -1.9145   -0.3891    3.3079 H   0  0  0  0  0  0  0  0  0  0  0  0
   -1.7440    2.0311   -2.6416 H   0  0  0  0  0  0  0  0  0  0  0  0
   -1.7442   -2.0308    2.6417 H   0  0  0  0  0  0  0  0  0  0  0  0
    0.1339    1.0178   -2.9632 C   0  0  0  0  0  0  0  0  0  0  0  0
    0.1340   -1.0178    2.9633 C   0  0  0  0  0  0  0  0  0  0  0  0
    0.5456   -0.0137   -2.9634 H   0  0  0  0  0  0  0  0  0  0  0  0
    0.5458    0.0136    2.9635 H   0  0  0  0  0  0  0  0  0  0  0  0
    0.7133    1.5851   -2.2032 H   0  0  0  0  0  0  0  0  0  0  0  0
    0.7132   -1.5852    2.2032 H   0  0  0  0  0  0  0  0  0  0  0  0
    0.3676    1.6430   -4.3281 C   0  0  0  0  0  0  0  0  0  0  0  0
    0.3677   -1.6431    4.3281 C   0  0  0  0  0  0  0  0  0  0  0  0
   -0.1876    1.0740   -5.1193 H   0  0  0  0  0  0  0  0  0  0  0  0
   -0.1874   -1.0740    5.1194 H   0  0  0  0  0  0  0  0  0  0  0  0
    1.4523    1.5852   -4.5975 H   0  0  0  0  0  0  0  0  0  0  0  0
    1.4524   -1.5855    4.5974 H   0  0  0  0  0  0  0  0  0  0  0  0
    0.0813    3.6416   -5.5334 C   0  0  0  0  0  0  0  0  0  0  0  0
    0.0810   -3.6417    5.5334 C   0  0  0  0  0  0  0  0  0  0  0  0
    1.1473    3.6732   -5.8707 H   0  0  0  0  0  0  0  0  0  0  0  0
    1.1471   -3.6734    5.8707 H   0  0  0  0  0  0  0  0  0  0  0  0
   -0.5121    3.1509   -6.3450 H   0  0  0  0  0  0  0  0  0  0  0  0
   -0.5121   -3.1508    6.3450 H   0  0  0  0  0  0  0  0  0  0  0  0
   -0.2799    4.6821   -5.4145 H   0  0  0  0  0  0  0  0  0  0  0  0
   -0.2803   -4.6821    5.4145 H   0  0  0  0  0  0  0  0  0  0  0  0
  2 30  1  0  0  0  0
  2 36  1  0  0  0  0
  3 18  1  0  0  0  0
  4  6  1  0  0  0  0
  5  3  1  0  0  0  0
  5  8  1  0  0  0  0
  6  5  2  0  0  0  0
  7 11  2  0  0  0  0
  7  6  1  0  0  0  0
  8 10  1  0  0  0  0
  9  7  1  0  0  0  0
 11 15  1  0  0  0  0
 12  8  1  0  0  0  0
 12 14  1  0  0  0  0
 13 11  1  0  0  0  0
 15 16  1  0  0  0  0
 15 12  2  0  0  0  0
 17  4  1  0  0  0  0
 18 22  1  0  0  0  0
 18 24  1  0  0  0  0
 18 20  1  0  0  0  0
 19 17  1  0  0  0  0
 21 17  1  0  0  0  0
 23 17  1  0  0  0  0
 23 27  1  0  0  0  0
 24 26  1  0  0  0  0
 24 30  1  0  0  0  0
 25 23  1  0  0  0  0
 28 24  1  0  0  0  0
 29  1  1  0  0  0  0
 29 23  1  0  0  0  0
 30 34  1  0  0  0  0
 30 32  1  0  0  0  0
 31 29  1  0  0  0  0
 33 29  1  0  0  0  0
 35 41  1  0  0  0  0
 35  1  1  0  0  0  0
 36 38  1  0  0  0  0
 36 40  1  0  0  0  0
 37 35  1  0  0  0  0
 39 35  1  0  0  0  0
 42 36  1  0  0  0  0
M  END
