14,24
q = -1.0, confidence = 0.0

 33 34  0  0  1  0  0  0  0  0999 V2000
    1.4279   -0.4663    1.2188 B   0  0  2  0  0  0  0  0  0  0  0  0
    2.4626   -0.8565    2.3993 C   0  0  0  0  0  0  0  0  0  0  0  0
    2.4889   -0.0850    3.1982 H   0  0  0  0  0  0  0  0  0  0  0  0
    3.4999   -0.9441    2.0087 H   0  0  0  0  0  0  0  0  0  0  0  0
    2.2392   -1.8299    2.8848 H   0  0  0  0  0  0  0  0  0  0  0  0
    0.0016   -0.1293    1.7101 O   0  0  0  0  0  0  0  0  0  0  0  0
   -0.6066   -0.9937    2.6641 C   0  0  0  0  0  0  0  0  0  0  0  0
    0.1669   -1.3118    3.3943 H   0  0  0  0  0  0  0  0  0  0  0  0
   -0.9757   -1.9233    2.1666 H   0  0  0  0  0  0  0  0  0  0  0  0
   -1.7363   -0.2813    3.3901 C   0  0  0  0  0  0  0  0  0  0  0  0
   -1.3543    0.6200    3.9097 H   0  0  0  0  0  0  0  0  0  0  0  0
   -2.1935   -0.9536    4.1443 H   0  0  0  0  0  0  0  0  0  0  0  0
   -2.5300    0.0393    2.6876 H   0  0  0  0  0  0  0  0  0  0  0  0
    0.1851   -1.4447   -0.7688 N   0  0  0  0  0  2  0  0  0  0  0  0
    1.2516   -1.6204    0.0658 C   0  0  1  0  0  3  0  0  0  0  0  0
    2.0965   -2.7283   -0.1454 C   0  0  0  0  0  0  0  0  0  0  0  0
    2.9532   -2.8773    0.5283 H   0  0  0  0  0  0  0  0  0  0  0  0
    1.8463   -3.6287   -1.1888 C   0  0  0  0  0  0  0  0  0  0  0  0
    2.5047   -4.4966   -1.3505 H   0  0  0  0  0  0  0  0  0  0  0  0
    0.7408   -3.4117   -2.0264 C   0  0  0  0  0  0  0  0  0  0  0  0
    0.5052   -4.0890   -2.8596 H   0  0  0  0  0  0  0  0  0  0  0  0
   -0.0699   -2.3002   -1.7766 C   0  0  0  0  0  0  0  0  0  0  0  0
   -0.9503   -2.0742   -2.3993 H   0  0  0  0  0  0  0  0  0  0  0  0
    0.8549    1.4293   -0.3696 N   0  0  0  0  0  2  0  0  0  0  0  0
    1.8408    0.8914    0.4040 C   0  0  2  0  0  3  0  0  0  0  0  0
    3.1010    1.5214    0.4231 C   0  0  0  0  0  0  0  0  0  0  0  0
    3.8981    1.0962    1.0501 H   0  0  0  0  0  0  0  0  0  0  0  0
    3.3322    2.6767   -0.3338 C   0  0  0  0  0  0  0  0  0  0  0  0
    4.3160    3.1711   -0.3143 H   0  0  0  0  0  0  0  0  0  0  0  0
    2.2903    3.2012   -1.1147 C   0  0  0  0  0  0  0  0  0  0  0  0
    2.4241    4.1057   -1.7250 H   0  0  0  0  0  0  0  0  0  0  0  0
    1.0582    2.5416   -1.1011 C   0  0  0  0  0  0  0  0  0  0  0  0
    0.2017    2.9017   -1.6929 H   0  0  0  0  0  0  0  0  0  0  0  0
  1  6  1  1  0  0  0
  1  2  1  0  0  0  0
  2  5  1  0  0  0  0
  2  3  1  0  0  0  0
  4  2  1  0  0  0  0
  6  7  1  0  0  0  0
  7 10  1  0  0  0  0
  7  8  1  0  0  0  0
  9  7  1  0  0  0  0
 10 11  1  0  0  0  0
 10 12  1  0  0  0  0
 13 10  1  0  0  0  0
 14 15  1  0  0  0  0
 15  1  1  6  0  0  0
 16 15  1  0  0  0  0
 16 17  1  0  0  0  0
 18 16  2  0  0  0  0
 19 18  1  0  0  0  0
 20 22  2  0  0  0  0
 20 18  1  0  0  0  0
 21 20  1  0  0  0  0
 22 14  1  0  0  0  0
 23 22  1  0  0  0  0
 24 25  1  0  0  0  0
 25 26  1  0  0  0  0
 25  1  1  6  0  0  0
 26 27  1  0  0  0  0
 28 29  1  0  0  0  0
 28 26  2  0  0  0  0
 30 32  2  0  0  0  0
 30 28  1  0  0  0  0
 31 30  1  0  0  0  0
 32 24  1  0  0  0  0
 33 32  1  0  0  0  0
M  END
