11,21
q = -1.0, confidence = 0.0

 30 31  0  0  1  0  0  0  0  0999 V2000
   -0.5294   -0.5120    2.8767 C   0  0  0  0  0  0  0  0  0  0  0  0
   -0.8182    0.1237    3.7399 H   0  0  0  0  0  0  0  0  0  0  0  0
    0.4473   -0.9864    3.0977 H   0  0  0  0  0  0  0  0  0  0  0  0
   -1.2965   -1.3125    2.7581 H   0  0  0  0  0  0  0  0  0  0  0  0
   -0.3938    0.2766    1.7099 O   0  0  0  0  0  0  0  0  0  0  0  0
   -1.6300    1.0633    1.2090 B   0  0  1  0  0  0  0  0  0  0  0  0
   -2.3976    1.8767    2.3745 C   0  0  0  0  0  0  0  0  0  0  0  0
   -2.8785    1.2152    3.1258 H   0  0  0  0  0  0  0  0  0  0  0  0
   -3.2108    2.5092    1.9566 H   0  0  0  0  0  0  0  0  0  0  0  0
   -1.7142    2.5594    2.9229 H   0  0  0  0  0  0  0  0  0  0  0  0
   -0.0585    1.4005   -0.7577 N   0  0  0  0  0  2  0  0  0  0  0  0
   -0.9794    2.0097    0.0428 C   0  0  2  0  0  3  0  0  0  0  0  0
   -1.2825    3.3653   -0.1909 C   0  0  0  0  0  0  0  0  0  0  0  0
   -2.0202    3.8640    0.4543 H   0  0  0  0  0  0  0  0  0  0  0  0
   -0.6413    4.0707   -1.2171 C   0  0  0  0  0  0  0  0  0  0  0  0
   -0.8747    5.1319   -1.3967 H   0  0  0  0  0  0  0  0  0  0  0  0
    0.3141    3.4118   -2.0067 C   0  0  0  0  0  0  0  0  0  0  0  0
    0.8509    3.9279   -2.8153 H   0  0  0  0  0  0  0  0  0  0  0  0
    0.5816    2.0668   -1.7372 C   0  0  0  0  0  0  0  0  0  0  0  0
    1.3291    1.4952   -2.3087 H   0  0  0  0  0  0  0  0  0  0  0  0
   -1.8629   -0.9315   -0.3391 N   0  0  0  0  0  2  0  0  0  0  0  0
   -2.5580   -0.0325    0.4176 C   0  0  2  0  0  3  0  0  0  0  0  0
   -3.9644   -0.1162    0.4395 C   0  0  0  0  0  0  0  0  0  0  0  0
   -4.5283    0.6023    1.0524 H   0  0  0  0  0  0  0  0  0  0  0  0
   -4.6318   -1.1040   -0.2959 C   0  0  0  0  0  0  0  0  0  0  0  0
   -5.7308   -1.1721   -0.2748 H   0  0  0  0  0  0  0  0  0  0  0  0
   -3.8801   -2.0142   -1.0561 C   0  0  0  0  0  0  0  0  0  0  0  0
   -4.3594   -2.8085   -1.6459 H   0  0  0  0  0  0  0  0  0  0  0  0
   -2.4874   -1.8932   -1.0458 C   0  0  0  0  0  0  0  0  0  0  0  0
   -1.8407   -2.5783   -1.6168 H   0  0  0  0  0  0  0  0  0  0  0  0
  1  3  1  0  0  0  0
  1  2  1  0  0  0  0
  4  1  1  0  0  0  0
  5  1  1  0  0  0  0
  6  5  1  1  0  0  0
  6  7  1  0  0  0  0
  7 10  1  0  0  0  0
  7  8  1  0  0  0  0
  9  7  1  0  0  0  0
 11 12  1  0  0  0  0
 12  6  1  1  0  0  0
 13 12  1  0  0  0  0
 13 14  1  0  0  0  0
 15 13  2  0  0  0  0
 16 15  1  0  0  0  0
 17 19  2  0  0  0  0
 17 15  1  0  0  0  0
 18 17  1  0  0  0  0
 19 11  1  0  0  0  0
 20 19  1  0  0  0  0
 21 22  1  0  0  0  0
 22 23  1  0  0  0  0
 22  6  1  6  0  0  0
 23 24  1  0  0  0  0
 25 26  1  0  0  0  0
 25 23  2  0  0  0  0
 27 29  2  0  0  0  0
 27 25  1  0  0  0  0
 28 27  1  0  0  0  0
 29 21  1  0  0  0  0
 30 29  1  0  0  0  0
M  END
