1,2
q = 0.0, confidence = 0.996

 54 57  0  0  1  0  0  0  0  0999 V2000
    1.4352   -0.2871   -0.0203 N   0  0  0  0  0  2  0  0  0  0  0  0
   -1.2783   -0.1087    0.0299 N   0  0  0  0  0  2  0  0  0  0  0  0
   -0.5739    0.9808    0.0825 C   0  0  0  0  0  0  0  0  0  0  0  0
   -0.9092    2.4465    0.1934 C   0  0  1  0  0  0  0  0  0  0  0  0
   -1.9371    2.7167   -0.1110 H   0  0  0  0  0  0  0  0  0  0  0  0
   -0.5270    2.8452    1.6501 C   0  0  0  0  0  0  0  0  0  0  0  0
   -1.0004    2.1713    2.3897 H   0  0  0  0  0  0  0  0  0  0  0  0
   -0.8828    3.8697    1.8734 H   0  0  0  0  0  0  0  0  0  0  0  0
    1.0266    2.7541    1.6541 C   0  0  0  0  0  0  0  0  0  0  0  0
    1.4984    3.7302    1.8850 H   0  0  0  0  0  0  0  0  0  0  0  0
    1.4151    2.0275    2.3939 H   0  0  0  0  0  0  0  0  0  0  0  0
    1.4049    2.3285    0.1943 C   0  0  2  0  0  0  0  0  0  0  0  0
    0.8961    0.8924    0.0802 C   0  0  0  0  0  0  0  0  0  0  0  0
    2.8402    2.6201   -0.2105 C   0  0  0  0  0  0  0  0  0  0  0  0
    3.5632    2.1769    0.4995 H   0  0  0  0  0  0  0  0  0  0  0  0
    3.0137    3.7149   -0.2322 H   0  0  0  0  0  0  0  0  0  0  0  0
    3.0753    2.2094   -1.2117 H   0  0  0  0  0  0  0  0  0  0  0  0
    0.2668    3.0617   -0.6430 C   0  0  0  0  0  0  0  0  0  0  0  0
    0.2561    2.6430   -2.1195 C   0  0  0  0  0  0  0  0  0  0  0  0
    0.2138    1.5439   -2.2566 H   0  0  0  0  0  0  0  0  0  0  0  0
    1.1672    3.0099   -2.6338 H   0  0  0  0  0  0  0  0  0  0  0  0
   -0.6174    3.0824   -2.6427 H   0  0  0  0  0  0  0  0  0  0  0  0
    0.3293    4.5920   -0.5746 C   0  0  0  0  0  0  0  0  0  0  0  0
    1.2046    4.9715   -1.1392 H   0  0  0  0  0  0  0  0  0  0  0  0
    0.3958    4.9931    0.4537 H   0  0  0  0  0  0  0  0  0  0  0  0
   -0.5767    5.0256   -1.0448 H   0  0  0  0  0  0  0  0  0  0  0  0
    2.8268   -0.5188    0.0522 C   0  0  0  0  0  0  0  0  0  0  0  0
    3.5075   -1.0148   -1.0779 C   0  0  0  0  0  0  0  0  0  0  0  0
    2.9431   -1.1788   -2.0067 H   0  0  0  0  0  0  0  0  0  0  0  0
    4.8803   -1.2830   -1.0025 C   0  0  0  0  0  0  0  0  0  0  0  0
    5.4079   -1.6554   -1.8936 H   0  0  0  0  0  0  0  0  0  0  0  0
    5.5791   -1.0953    0.2016 C   0  0  0  0  0  0  0  0  0  0  0  0
    6.6544   -1.3202    0.2586 H   0  0  0  0  0  0  0  0  0  0  0  0
    4.8921   -0.6365    1.3370 C   0  0  0  0  0  0  0  0  0  0  0  0
    5.4260   -0.5047    2.2905 H   0  0  0  0  0  0  0  0  0  0  0  0
    3.5224   -0.3468    1.2672 C   0  0  0  0  0  0  0  0  0  0  0  0
    2.9721   -0.0032    2.1556 H   0  0  0  0  0  0  0  0  0  0  0  0
   -2.6976   -0.0845    0.0823 C   0  0  0  0  0  0  0  0  0  0  0  0
   -3.3260   -0.3572    1.3231 C   0  0  0  0  0  0  0  0  0  0  0  0
   -4.7317   -0.3881    1.3579 C   0  0  0  0  0  0  0  0  0  0  0  0
   -5.2332   -0.5956    2.3162 H   0  0  0  0  0  0  0  0  0  0  0  0
   -5.4899   -0.1796    0.1976 C   0  0  0  0  0  0  0  0  0  0  0  0
   -6.5887   -0.2140    0.2431 H   0  0  0  0  0  0  0  0  0  0  0  0
   -4.8444    0.0447   -1.0258 C   0  0  0  0  0  0  0  0  0  0  0  0
   -5.4349    0.1757   -1.9462 H   0  0  0  0  0  0  0  0  0  0  0  0
   -3.4405    0.0893   -1.1107 C   0  0  0  0  0  0  0  0  0  0  0  0
   -2.4924   -0.6429    2.5427 C   0  0  0  0  0  0  0  0  0  0  0  0
   -1.7535   -1.4448    2.3241 H   0  0  0  0  0  0  0  0  0  0  0  0
   -3.1231   -0.9554    3.3962 H   0  0  0  0  0  0  0  0  0  0  0  0
   -1.9030    0.2430    2.8624 H   0  0  0  0  0  0  0  0  0  0  0  0
   -2.7316    0.2702   -2.4265 C   0  0  0  0  0  0  0  0  0  0  0  0
   -1.9315   -0.4912   -2.5457 H   0  0  0  0  0  0  0  0  0  0  0  0
   -2.2392    1.2619   -2.5019 H   0  0  0  0  0  0  0  0  0  0  0  0
   -3.4365    0.1811   -3.2747 H   0  0  0  0  0  0  0  0  0  0  0  0
  1 27  1  0  0  0  0
  1 13  1  0  0  0  0
  2 38  1  0  0  0  0
  2  3  1  0  0  0  0
  3  4  1  0  0  0  0
  4  5  1  6  0  0  0
  4  6  1  0  0  0  0
  6  9  1  0  0  0  0
  6  8  1  0  0  0  0
  6  7  1  0  0  0  0
  9 10  1  0  0  0  0
  9 11  1  0  0  0  0
 12 14  1  6  0  0  0
 12  9  1  0  0  0  0
 13  3  2  0  0  0  0
 13 12  1  0  0  0  0
 14 15  1  0  0  0  0
 16 14  1  0  0  0  0
 17 14  1  0  0  0  0
 18 23  1  0  0  0  0
 18  4  1  0  0  0  0
 18 12  1  0  0  0  0
 19 18  1  0  0  0  0
 20 19  1  0  0  0  0
 21 19  1  0  0  0  0
 22 19  1  0  0  0  0
 23 25  1  0  0  0  0
 24 23  1  0  0  0  0
 26 23  1  0  0  0  0
 27 36  1  0  0  0  0
 28 30  1  0  0  0  0
 28 27  2  0  0  0  0
 29 28  1  0  0  0  0
 30 32  2  0  0  0  0
 31 30  1  0  0  0  0
 32 33  1  0  0  0  0
 32 34  1  0  0  0  0
 34 35  1  0  0  0  0
 36 34  2  0  0  0  0
 36 37  1  0  0  0  0
 38 39  1  0  0  0  0
 39 40  2  0  0  0  0
 39 47  1  0  0  0  0
 40 41  1  0  0  0  0
 42 43  1  0  0  0  0
 42 40  1  0  0  0  0
 44 42  2  0  0  0  0
 45 44  1  0  0  0  0
 46 44  1  0  0  0  0
 46 38  2  0  0  0  0
 47 50  1  0  0  0  0
 47 49  1  0  0  0  0
 48 47  1  0  0  0  0
 51 46  1  0  0  0  0
 52 51  1  0  0  0  0
 53 51  1  0  0  0  0
 54 51  1  0  0  0  0
M  END
