2,3
q = 0.0, confidence = 1.0

 31 33  0  0  0  0  0  0  0  0999 V2000
    9.2507   -0.0167   -1.0702 O   0  0  0  0  0  0  0  0  0  0  0  0
   -0.3870   -1.8127    0.6868 N   0  0  0  0  0  2  0  0  0  0  0  0
    1.7965   -0.5720    0.3258 N   0  0  0  0  0  2  0  0  0  0  0  0
    2.9765   -0.0262    0.1799 N   0  0  0  0  0  2  0  0  0  0  0  0
    3.8262   -1.0237   -0.1657 N   0  0  0  0  0  0  0  0  0  0  0  0
   -1.5263   -2.3624    1.1621 C   0  0  0  0  0  3  0  0  0  0  0  0
   -2.2929   -1.6554    1.5009 H   0  0  0  0  0  0  0  0  0  0  0  0
   -1.7331   -3.7445    1.1987 C   0  0  0  0  0  0  0  0  0  0  0  0
   -2.6869   -4.1326    1.5838 H   0  0  0  0  0  0  0  0  0  0  0  0
   -0.7233   -4.6114    0.7465 C   0  0  0  0  0  0  0  0  0  0  0  0
   -0.8677   -5.7016    0.7507 H   0  0  0  0  0  0  0  0  0  0  0  0
    0.4870   -4.0535    0.3201 C   0  0  0  0  0  0  0  0  0  0  0  0
    1.3292   -4.6864    0.0049 H   0  0  0  0  0  0  0  0  0  0  0  0
    0.6314   -2.6580    0.3244 C   0  0  0  0  0  0  0  0  0  0  0  0
    1.8592   -1.9324    0.0825 C   0  0  0  0  0  0  0  0  0  0  0  0
    3.1741   -2.2288   -0.2360 C   0  0  0  0  0  0  0  0  0  0  0  0
    3.6839   -3.1662   -0.4678 H   0  0  0  0  0  0  0  0  0  0  0  0
    5.1996   -0.7474   -0.3884 C   0  0  0  0  0  0  0  0  0  0  0  0
    5.7856    0.3907    0.1898 C   0  0  0  0  0  0  0  0  0  0  0  0
    5.1685    1.0530    0.8107 H   0  0  0  0  0  0  0  0  0  0  0  0
    7.1416    0.6708   -0.0223 C   0  0  0  0  0  0  0  0  0  0  0  0
    7.5762    1.5658    0.4416 H   0  0  0  0  0  0  0  0  0  0  0  0
    7.9295   -0.1950   -0.8106 C   0  0  0  0  0  0  0  0  0  0  0  0
    7.3314   -1.3366   -1.3899 C   0  0  0  0  0  0  0  0  0  0  0  0
    7.9543   -1.9925   -2.0143 H   0  0  0  0  0  0  0  0  0  0  0  0
    5.9788   -1.6073   -1.1890 C   0  0  0  0  0  0  0  0  0  0  0  0
    5.5225   -2.4796   -1.6780 H   0  0  0  0  0  0  0  0  0  0  0  0
    9.8976    1.1191   -0.5255 C   0  0  0  0  0  0  0  0  0  0  0  0
    9.4446    2.0681   -0.8903 H   0  0  0  0  0  0  0  0  0  0  0  0
    9.8729    1.1161    0.5873 H   0  0  0  0  0  0  0  0  0  0  0  0
   10.9497    1.0707   -0.8614 H   0  0  0  0  0  0  0  0  0  0  0  0
  1 23  1  0  0  0  0
  1 28  1  0  0  0  0
  2  6  1  0  0  0  0
  4  3  1  0  0  0  0
  5  4  1  0  0  0  0
  6  8  1  0  0  0  0
  6  7  1  0  0  0  0
  8  9  1  0  0  0  0
 10 11  1  0  0  0  0
 10  8  2  0  0  0  0
 12 14  2  0  0  0  0
 12 10  1  0  0  0  0
 13 12  1  0  0  0  0
 14  2  1  0  0  0  0
 15 14  1  0  0  0  0
 15  3  1  0  0  0  0
 16  5  1  0  0  0  0
 16 15  2  0  0  0  0
 17 16  1  0  0  0  0
 18  5  1  0  0  0  0
 18 19  1  0  0  0  0
 19 20  1  0  0  0  0
 21 19  2  0  0  0  0
 21 22  1  0  0  0  0
 23 21  1  0  0  0  0
 24 26  1  0  0  0  0
 24 23  2  0  0  0  0
 25 24  1  0  0  0  0
 26 18  2  0  0  0  0
 27 26  1  0  0  0  0
 28 30  1  0  0  0  0
 29 28  1  0  0  0  0
 31 28  1  0  0  0  0
M  END
