1,3
q = 0.0, confidence = 0.968

 39 41  0  0  0  0  0  0  0  0999 V2000
    2.0275    1.0548   -1.3456 N   0  0  0  0  0  2  0  0  0  0  0  0
   -1.4490    0.6529   -1.0292 N   0  0  0  0  0  2  0  0  0  0  0  0
    1.3444   -1.6088   -0.8920 N   0  0  0  0  0  2  0  0  0  0  0  0
   -2.3954   -0.1901   -0.6292 N   0  0  0  0  0  0  0  0  0  0  0  0
   -2.2502   -1.2093   -0.4459 H   0  0  0  0  0  0  0  0  0  0  0  0
    2.9943    1.8623   -1.8413 C   0  0  0  0  0  3  0  0  0  0  0  0
    4.0189    1.6204   -1.5236 H   0  0  0  0  0  0  0  0  0  0  0  0
   -0.2524    0.2044   -1.3155 C   0  0  0  0  0  0  0  0  0  0  0  0
    0.1432   -1.2321   -1.4125 C   0  0  0  0  0  0  0  0  0  0  0  0
   -0.6571   -2.1595   -2.1068 C   0  0  0  0  0  0  0  0  0  0  0  0
   -1.6087   -1.8341   -2.5493 H   0  0  0  0  0  0  0  0  0  0  0  0
    0.7407    1.2124   -1.7580 C   0  0  0  0  0  0  0  0  0  0  0  0
   -0.2245   -3.4836   -2.2476 C   0  0  0  0  0  0  0  0  0  0  0  0
   -0.8460   -4.2161   -2.7828 H   0  0  0  0  0  0  0  0  0  0  0  0
    1.7813   -2.8801   -1.0527 C   0  0  0  0  0  0  0  0  0  0  0  0
    2.7831   -3.0916   -0.6525 H   0  0  0  0  0  0  0  0  0  0  0  0
   -4.0369    1.6063   -0.4475 C   0  0  0  0  0  0  0  0  0  0  0  0
   -3.2987    2.2964   -0.8752 H   0  0  0  0  0  0  0  0  0  0  0  0
   -3.6546    0.2530   -0.2691 C   0  0  0  0  0  0  0  0  0  0  0  0
    1.0174   -3.8481   -1.7115 C   0  0  0  0  0  0  0  0  0  0  0  0
    1.4080   -4.8707   -1.8068 H   0  0  0  0  0  0  0  0  0  0  0  0
   -4.6105   -0.6514    0.2953 C   0  0  0  0  0  0  0  0  0  0  0  0
   -5.8940   -0.2120    0.6491 C   0  0  0  0  0  0  0  0  0  0  0  0
   -6.6209   -0.9126    1.0803 H   0  0  0  0  0  0  0  0  0  0  0  0
   -6.2268    1.1228    0.4504 C   0  0  0  0  0  0  0  0  0  0  0  0
    0.3799    2.2671   -2.6165 C   0  0  0  0  0  0  0  0  0  0  0  0
   -0.6724    2.3668   -2.9140 H   0  0  0  0  0  0  0  0  0  0  0  0
   -5.3095    2.0405   -0.0925 C   0  0  0  0  0  0  0  0  0  0  0  0
   -5.6247    3.0845   -0.2259 H   0  0  0  0  0  0  0  0  0  0  0  0
    1.3678    3.1388   -3.0860 C   0  0  0  0  0  0  0  0  0  0  0  0
    1.1043    3.9681   -3.7588 H   0  0  0  0  0  0  0  0  0  0  0  0
   -3.1683   -2.4939    0.2334 O   0  0  0  0  0  0  0  0  0  0  0  0
   -5.1647   -2.7673    1.0592 O   0  0  0  0  0  0  0  0  0  0  0  0
   -4.3057   -2.0674    0.5494 N   0  0  0  0  0  0  0  0  0  0  0  0
   -8.3523    0.7504    1.2963 O   0  0  0  0  0  0  0  0  0  0  0  0
   -7.5874    1.5877    0.8270 N   0  0  0  0  0  0  0  0  0  0  0  0
    2.7019    2.9154   -2.7115 C   0  0  0  0  0  0  0  0  0  0  0  0
    3.5184    3.5488   -3.0852 H   0  0  0  0  0  0  0  0  0  0  0  0
   -7.8357    2.7761    0.6384 O   0  0  0  0  0  0  0  0  0  0  0  0
  2  4  1  0  0  0  0
  4  5  1  0  0  0  0
  4 19  1  0  0  0  0
  6  7  1  0  0  0  0
  6  1  1  0  0  0  0
  8  2  1  0  0  0  0
  9  8  2  0  0  0  0
  9  3  1  0  0  0  0
 10  9  1  0  0  0  0
 11 10  1  0  0  0  0
 12  1  1  0  0  0  0
 12  8  1  0  0  0  0
 13 10  2  0  0  0  0
 13 20  1  0  0  0  0
 14 13  1  0  0  0  0
 15  3  1  0  0  0  0
 15 16  1  0  0  0  0
 17 19  2  0  0  0  0
 17 28  1  0  0  0  0
 18 17  1  0  0  0  0
 19 22  1  0  0  0  0
 20 15  2  0  0  0  0
 21 20  1  0  0  0  0
 22 34  1  0  0  0  0
 22 23  2  0  0  0  0
 23 24  1  0  0  0  0
 25 23  1  0  0  0  0
 25 36  1  0  0  0  0
 26 12  2  0  0  0  0
 27 26  1  0  0  0  0
 28 25  2  0  0  0  0
 29 28  1  0  0  0  0
 30 37  2  0  0  0  0
 30 26  1  0  0  0  0
 31 30  1  0  0  0  0
 32 34  2  0  0  0  0
 34 33  2  0  0  0  0
 36 35  2  0  0  0  0
 37  6  1  0  0  0  0
 38 37  1  0  0  0  0
 39 36  2  0  0  0  0
M  END
