1,22
q = 0.0, confidence = 1.0

 42 43  0  0  0  0  0  0  0  0999 V2000
   -1.2935    1.0302   -0.4699 N   0  0  0  0  0  2  0  0  0  0  0  0
   -3.0853   -0.2685   -1.2528 N   0  0  0  0  0  0  0  0  0  0  0  0
   -3.5542    1.1345    0.4391 N   0  0  0  0  0  0  0  0  0  0  0  0
   -2.5601    0.6848   -0.4121 C   0  0  0  0  0  3  0  0  0  0  0  0
   -2.2774   -1.0634   -2.1471 C   0  0  0  0  0  0  0  0  0  0  0  0
   -1.4159   -0.4627   -2.4933 H   0  0  0  0  0  0  0  0  0  0  0  0
   -2.8809   -1.3753   -3.0236 H   0  0  0  0  0  0  0  0  0  0  0  0
   -1.8757   -1.9713   -1.6423 H   0  0  0  0  0  0  0  0  0  0  0  0
   -4.3273   -0.7834   -0.6938 C   0  0  0  0  0  0  0  0  0  0  0  0
   -4.1202   -1.6683   -0.0460 H   0  0  0  0  0  0  0  0  0  0  0  0
   -5.0387   -1.0745   -1.4923 H   0  0  0  0  0  0  0  0  0  0  0  0
   -4.8050    0.4285    0.1190 C   0  0  0  0  0  0  0  0  0  0  0  0
   -5.4810    1.0784   -0.4814 H   0  0  0  0  0  0  0  0  0  0  0  0
   -5.3369    0.1368    1.0442 H   0  0  0  0  0  0  0  0  0  0  0  0
   -3.2545    1.5174    1.8149 C   0  0  0  0  0  0  0  0  0  0  0  0
   -2.4991    0.8321    2.2573 H   0  0  0  0  0  0  0  0  0  0  0  0
   -4.1852    1.4416    2.4070 H   0  0  0  0  0  0  0  0  0  0  0  0
   -2.9007    2.5658    1.8930 H   0  0  0  0  0  0  0  0  0  0  0  0
   -0.7550    2.2421    0.1286 C   0  0  0  0  0  0  0  0  0  0  0  0
   -0.9057    2.2931    1.2297 H   0  0  0  0  0  0  0  0  0  0  0  0
   -1.2183    3.1522   -0.3150 H   0  0  0  0  0  0  0  0  0  0  0  0
    1.2935    1.0302    0.4698 N   0  0  0  0  0  2  0  0  0  0  0  0
    3.0854   -0.2684    1.2529 N   0  0  0  0  0  0  0  0  0  0  0  0
    3.5542    1.1345   -0.4392 N   0  0  0  0  0  0  0  0  0  0  0  0
    2.5601    0.6848    0.4121 C   0  0  0  0  0  3  0  0  0  0  0  0
    2.2775   -1.0633    2.1472 C   0  0  0  0  0  0  0  0  0  0  0  0
    1.4160   -0.4626    2.4934 H   0  0  0  0  0  0  0  0  0  0  0  0
    2.8811   -1.3751    3.0237 H   0  0  0  0  0  0  0  0  0  0  0  0
    1.8758   -1.9713    1.6425 H   0  0  0  0  0  0  0  0  0  0  0  0
    4.3273   -0.7833    0.6938 C   0  0  0  0  0  0  0  0  0  0  0  0
    4.1203   -1.6682    0.0461 H   0  0  0  0  0  0  0  0  0  0  0  0
    5.0388   -1.0744    1.4923 H   0  0  0  0  0  0  0  0  0  0  0  0
    4.8050    0.4285   -0.1191 C   0  0  0  0  0  0  0  0  0  0  0  0
    5.4810    1.0785    0.4813 H   0  0  0  0  0  0  0  0  0  0  0  0
    5.3369    0.1368   -1.0442 H   0  0  0  0  0  0  0  0  0  0  0  0
    3.2544    1.5173   -1.8150 C   0  0  0  0  0  0  0  0  0  0  0  0
    2.4990    0.8319   -2.2573 H   0  0  0  0  0  0  0  0  0  0  0  0
    4.1851    1.4414   -2.4071 H   0  0  0  0  0  0  0  0  0  0  0  0
    2.9007    2.5656   -1.8932 H   0  0  0  0  0  0  0  0  0  0  0  0
    0.7550    2.2421   -0.1287 C   0  0  0  0  0  0  0  0  0  0  0  0
    0.9057    2.2931   -1.2298 H   0  0  0  0  0  0  0  0  0  0  0  0
    1.2183    3.1522    0.3149 H   0  0  0  0  0  0  0  0  0  0  0  0
  1  4  1  0  0  0  0
  1 19  1  0  0  0  0
  2  9  1  0  0  0  0
  2  4  1  0  0  0  0
  3 15  1  0  0  0  0
  4  3  1  0  0  0  0
  5  8  1  0  0  0  0
  5  2  1  0  0  0  0
  6  5  1  0  0  0  0
  7  5  1  0  0  0  0
  9 10  1  0  0  0  0
  9 12  1  0  0  0  0
 11  9  1  0  0  0  0
 12  3  1  0  0  0  0
 12 14  1  0  0  0  0
 13 12  1  0  0  0  0
 15 18  1  0  0  0  0
 15 16  1  0  0  0  0
 15 17  1  0  0  0  0
 19 20  1  0  0  0  0
 21 19  1  0  0  0  0
 23 26  1  0  0  0  0
 24 33  1  0  0  0  0
 24 25  1  0  0  0  0
 25 22  1  0  0  0  0
 25 23  1  0  0  0  0
 26 27  1  0  0  0  0
 26 28  1  0  0  0  0
 29 26  1  0  0  0  0
 30 23  1  0  0  0  0
 30 32  1  0  0  0  0
 31 30  1  0  0  0  0
 33 34  1  0  0  0  0
 33 30  1  0  0  0  0
 35 33  1  0  0  0  0
 36 24  1  0  0  0  0
 37 36  1  0  0  0  0
 38 36  1  0  0  0  0
 39 36  1  0  0  0  0
 40 19  1  0  0  0  0
 40 42  1  0  0  0  0
 40 22  1  0  0  0  0
 41 40  1  0  0  0  0
M  END
