6,7
q = -1.0

 26 27  0  0  1  0  0  0  0  0999 V2000
    5.4801    0.5514   -1.0985 F   0  0  0  0  0  0  0  0  0  0  0  0
    5.4799    0.5500    1.0990 F   0  0  0  0  0  0  0  0  0  0  0  0
    6.5649   -0.9835   -0.0006 F   0  0  0  0  0  0  0  0  0  0  0  0
    3.2696    1.9220    0.0007 O   0  0  0  0  0  0  0  0  0  0  0  0
    4.3958   -2.3742   -0.0021 O   0  0  0  0  0  0  0  0  0  0  0  0
   -1.0467    1.6864   -0.0002 N   0  0  0  0  0  2  0  0  0  0  0  0
    0.6009   -0.3473    0.0008 N   0  0  0  0  0  2  0  0  0  0  0  0
    1.1378    0.9297    0.0013 N   0  0  0  0  0  0  0  0  0  0  0  0
    2.5916    0.9016    0.0005 C   0  0  0  0  0  0  0  0  0  0  0  0
    2.8765   -0.5258   -0.0002 C   0  0  0  0  0  0  0  0  0  0  0  0
    1.6322   -1.2212   -0.0001 C   0  0  0  0  0  0  0  0  0  0  0  0
    1.4369   -2.6959   -0.0006 C   0  0  0  0  0  0  0  0  0  0  0  0
    0.8489   -3.0120   -0.8842 H   0  0  0  0  0  0  0  0  0  0  0  0
    0.8518   -3.0128    0.8846 H   0  0  0  0  0  0  0  0  0  0  0  0
    2.4257   -3.1837   -0.0024 H   0  0  0  0  0  0  0  0  0  0  0  0
    4.1885   -1.1618   -0.0010 C   0  0  0  0  0  0  0  0  0  0  0  0
    0.7379    3.3396    0.0008 C   0  0  0  0  0  0  0  0  0  0  0  0
    1.8227    3.5081    0.0014 H   0  0  0  0  0  0  0  0  0  0  0  0
    0.2895    1.9980    0.0006 C   0  0  2  0  0  3  0  0  0  0  0  0
   -0.2124    4.3546    0.0000 C   0  0  0  0  0  0  0  0  0  0  0  0
    0.1147    5.4049    0.0001 H   0  0  0  0  0  0  0  0  0  0  0  0
   -1.5842    4.0304   -0.0008 C   0  0  0  0  0  0  0  0  0  0  0  0
   -2.3629    4.8048   -0.0014 H   0  0  0  0  0  0  0  0  0  0  0  0
   -1.9608    2.6918   -0.0009 C   0  0  0  0  0  0  0  0  0  0  0  0
   -3.0165    2.3732   -0.0015 H   0  0  0  0  0  0  0  0  0  0  0  0
    5.4498   -0.2349   -0.0002 C   0  0  0  0  0  0  0  0  0  0  0  0
  1 26  1  0  0  0  0
  3 26  1  0  0  0  0
  5 16  2  0  0  0  0
  6 19  1  0  0  0  0
  7  8  1  0  0  0  0
  9  4  2  0  0  0  0
  9  8  1  0  0  0  0
 10 11  2  0  0  0  0
 10  9  1  0  0  0  0
 11  7  1  0  0  0  0
 12 11  1  0  0  0  0
 12 14  1  0  0  0  0
 13 12  1  0  0  0  0
 15 12  1  0  0  0  0
 16 26  1  0  0  0  0
 16 10  1  0  0  0  0
 17 18  1  0  0  0  0
 19 17  1  0  0  0  0
 19  8  1  1  0  0  0
 20 21  1  0  0  0  0
 20 17  2  0  0  0  0
 22 20  1  0  0  0  0
 23 22  1  0  0  0  0
 24 22  2  0  0  0  0
 24  6  1  0  0  0  0
 25 24  1  0  0  0  0
 26  2  1  0  0  0  0
M  END
