1,3
q = 0.0, confidence = 0.974

 20 21  0  0  1  0  0  0  0  0999 V2000
   -1.5377   -0.3051   -0.3196 N   0  0  0  0  0  2  0  0  0  0  0  0
   -3.6147   -0.1622   -1.1126 N   0  0  0  0  0  0  0  0  0  0  0  0
   -0.9847   -2.7608   -1.3500 N   0  0  0  0  0  0  0  0  0  0  0  0
   -0.5196   -3.3786   -2.0253 H   0  0  0  0  0  0  0  0  0  0  0  0
   -1.2844   -3.3461   -0.5513 H   0  0  0  0  0  0  0  0  0  0  0  0
   -2.1560    0.7802    0.2954 C   0  0  0  0  0  0  0  0  0  0  0  0
   -1.6817    1.6779    1.2683 C   0  0  0  0  0  0  0  0  0  0  0  0
   -0.6666    1.5807    1.6773 H   0  0  0  0  0  0  0  0  0  0  0  0
   -2.5576    2.6815    1.6939 C   0  0  0  0  0  0  0  0  0  0  0  0
   -2.2238    3.4009    2.4557 H   0  0  0  0  0  0  0  0  0  0  0  0
   -3.8709    2.7919    1.1734 C   0  0  0  0  0  0  0  0  0  0  0  0
   -4.5257    3.5962    1.5391 H   0  0  0  0  0  0  0  0  0  0  0  0
   -4.3622    1.8995    0.2126 C   0  0  0  0  0  0  0  0  0  0  0  0
   -5.3854    1.9846   -0.1796 H   0  0  0  0  0  0  0  0  0  0  0  0
   -3.4814    0.8936   -0.2115 C   0  0  0  0  0  0  0  0  0  0  0  0
   -2.4348   -0.8467   -1.1365 C   0  0  1  0  0  3  0  0  0  0  0  0
   -2.1272   -2.0645   -1.9615 C   0  0  0  0  0  0  0  0  0  0  0  0
   -1.8432   -1.7531   -2.9902 H   0  0  0  0  0  0  0  0  0  0  0  0
   -3.0342   -2.7011   -2.0621 H   0  0  0  0  0  0  0  0  0  0  0  0
   -4.4546   -0.3953   -1.6445 H   0  0  0  0  0  0  0  0  0  0  0  0
  1  6  1  0  0  0  0
  2 15  1  0  0  0  0
  3  5  1  0  0  0  0
  4  3  1  0  0  0  0
  6  7  1  0  0  0  0
  7  8  1  0  0  0  0
  7  9  2  0  0  0  0
  9 10  1  0  0  0  0
 11 12  1  0  0  0  0
 11  9  1  0  0  0  0
 13 11  2  0  0  0  0
 14 13  1  0  0  0  0
 15 13  1  0  0  0  0
 15  6  2  0  0  0  0
 16 17  1  6  0  0  0
 16  2  1  0  0  0  0
 16  1  1  0  0  0  0
 17  3  1  0  0  0  0
 18 17  1  0  0  0  0
 19 17  1  0  0  0  0
 20  2  1  0  0  0  0
M  END
