3,4
q = 0.0, confidence = 0.996

 20 21  0  0  1  0  0  0  0  0999 V2000
   -6.2582   -1.8644   -0.8649 Cl  0  0  0  0  0  0  0  0  0  0  0  0
   -3.0963    3.9147    3.3615 Cl  0  0  0  0  0  0  0  0  0  0  0  0
   -1.8987   -0.7322   -0.8618 N   0  0  0  0  0  2  0  0  0  0  0  0
   -0.8423    1.2342    0.5213 N   0  0  0  0  0  2  0  0  0  0  0  0
   -2.3342   -1.7348   -1.6527 C   0  0  0  0  0  3  0  0  0  0  0  0
   -1.5571   -2.2071   -2.2776 H   0  0  0  0  0  0  0  0  0  0  0  0
   -3.6754   -2.1215   -1.6817 C   0  0  0  0  0  0  0  0  0  0  0  0
   -4.0020   -2.9400   -2.3371 H   0  0  0  0  0  0  0  0  0  0  0  0
   -4.5929   -1.4333   -0.8679 C   0  0  0  0  0  0  0  0  0  0  0  0
   -4.1399   -0.3786   -0.0575 C   0  0  0  0  0  0  0  0  0  0  0  0
   -4.8533    0.1721    0.5683 H   0  0  0  0  0  0  0  0  0  0  0  0
   -2.7802   -0.0412   -0.0792 C   0  0  0  0  0  0  0  0  0  0  0  0
   -2.1841    1.0543    0.7070 C   0  0  2  0  0  3  0  0  0  0  0  0
   -2.2346    2.8930    2.2792 C   0  0  0  0  0  0  0  0  0  0  0  0
   -0.8537    3.0703    2.0743 C   0  0  0  0  0  0  0  0  0  0  0  0
   -0.3012    3.8633    2.5953 H   0  0  0  0  0  0  0  0  0  0  0  0
   -0.2014    2.2168    1.1843 C   0  0  0  0  0  0  0  0  0  0  0  0
    0.8737    2.3226    0.9815 H   0  0  0  0  0  0  0  0  0  0  0  0
   -2.9057    1.8722    1.5877 C   0  0  0  0  0  0  0  0  0  0  0  0
   -3.9833    1.7304    1.7385 H   0  0  0  0  0  0  0  0  0  0  0  0
  3 12  1  0  0  0  0
  4 13  1  0  0  0  0
  4 17  1  0  0  0  0
  5  3  1  0  0  0  0
  6  5  1  0  0  0  0
  7  5  1  0  0  0  0
  7  9  2  0  0  0  0
  8  7  1  0  0  0  0
  9  1  1  0  0  0  0
  9 10  1  0  0  0  0
 10 11  1  0  0  0  0
 12 10  2  0  0  0  0
 13 12  1  6  0  0  0
 13 19  1  0  0  0  0
 14  2  1  0  0  0  0
 15 14  1  0  0  0  0
 15 16  1  0  0  0  0
 17 15  2  0  0  0  0
 18 17  1  0  0  0  0
 19 20  1  0  0  0  0
 19 14  2  0  0  0  0
M  END
