1,11
q = -1.0

 36 36  0  0  0  0  0  0  0  0999 V2000
    1.9648   -0.4600   -0.1475 N   0  0  0  0  0  2  0  0  0  0  0  0
    1.9903    0.9210   -0.4644 C   0  0  0  0  0  0  0  0  0  0  0  0
    0.9947    1.3833   -1.3756 C   0  0  0  0  0  0  0  0  0  0  0  0
    0.8563    2.7406   -1.6645 C   0  0  0  0  0  0  0  0  0  0  0  0
    0.0875    3.0776   -2.3737 H   0  0  0  0  0  0  0  0  0  0  0  0
    1.6995    3.6846   -1.0445 C   0  0  0  0  0  0  0  0  0  0  0  0
    1.5721    4.7558   -1.2626 H   0  0  0  0  0  0  0  0  0  0  0  0
    2.6948    3.2673   -0.1458 C   0  0  0  0  0  0  0  0  0  0  0  0
    2.8278    1.8893    0.1316 C   0  0  0  0  0  0  0  0  0  0  0  0
    3.5765    1.5727    0.8695 H   0  0  0  0  0  0  0  0  0  0  0  0
    0.2112    0.3310   -2.0050 N   0  0  0  0  0  0  0  0  0  0  0  0
   -1.0831    0.7485   -2.5678 C   0  0  0  0  0  0  0  0  0  0  0  0
   -1.6703    1.3079   -1.8220 H   0  0  0  0  0  0  0  0  0  0  0  0
   -1.6388   -0.1639   -2.8545 H   0  0  0  0  0  0  0  0  0  0  0  0
   -0.9492    1.3792   -3.4755 H   0  0  0  0  0  0  0  0  0  0  0  0
    1.0374   -0.2208   -3.1159 C   0  0  0  0  0  0  0  0  0  0  0  0
    1.2759    0.5960   -3.8313 H   0  0  0  0  0  0  0  0  0  0  0  0
    0.4801   -1.0260   -3.6245 H   0  0  0  0  0  0  0  0  0  0  0  0
    1.9726   -0.6437   -2.7106 H   0  0  0  0  0  0  0  0  0  0  0  0
    3.5757    4.2628    0.5671 C   0  0  0  0  0  0  0  0  0  0  0  0
    4.6449    3.9728    0.5126 H   0  0  0  0  0  0  0  0  0  0  0  0
    3.3143    4.3248    1.6453 H   0  0  0  0  0  0  0  0  0  0  0  0
    3.4735    5.2789    0.1397 H   0  0  0  0  0  0  0  0  0  0  0  0
    3.2832   -1.1934    0.0218 C   0  0  0  0  0  0  0  0  0  0  0  0
    3.1096   -2.6429   -0.4670 C   0  0  0  0  0  0  0  0  0  0  0  0
    2.3530   -3.1826    0.1287 H   0  0  0  0  0  0  0  0  0  0  0  0
    4.0766   -3.1758   -0.3696 H   0  0  0  0  0  0  0  0  0  0  0  0
    2.7997   -2.6727   -1.5290 H   0  0  0  0  0  0  0  0  0  0  0  0
    3.7156   -1.2218    1.4999 C   0  0  0  0  0  0  0  0  0  0  0  0
    3.8977   -0.2085    1.9086 H   0  0  0  0  0  0  0  0  0  0  0  0
    4.6585   -1.7968    1.6014 H   0  0  0  0  0  0  0  0  0  0  0  0
    2.9386   -1.7170    2.1119 H   0  0  0  0  0  0  0  0  0  0  0  0
    4.3887   -0.5640   -0.8545 C   0  0  0  0  0  0  0  0  0  0  0  0
    4.0584   -0.4773   -1.9092 H   0  0  0  0  0  0  0  0  0  0  0  0
    5.2773   -1.2251   -0.8346 H   0  0  0  0  0  0  0  0  0  0  0  0
    4.7091    0.4388   -0.5212 H   0  0  0  0  0  0  0  0  0  0  0  0
  1 24  1  0  0  0  0
  2  1  1  0  0  0  0
  2  9  1  0  0  0  0
  3  2  2  0  0  0  0
  4  3  1  0  0  0  0
  4  6  2  0  0  0  0
  5  4  1  0  0  0  0
  6  8  1  0  0  0  0
  7  6  1  0  0  0  0
  8  9  2  0  0  0  0
  8 20  1  0  0  0  0
  9 10  1  0  0  0  0
 11  3  1  0  0  0  0
 12 11  1  0  0  0  0
 12 13  1  0  0  0  0
 14 12  1  0  0  0  0
 15 12  1  0  0  0  0
 16 19  1  0  0  0  0
 16 11  1  0  0  0  0
 17 16  1  0  0  0  0
 18 16  1  0  0  0  0
 20 22  1  0  0  0  0
 21 20  1  0  0  0  0
 23 20  1  0  0  0  0
 24 29  1  0  0  0  0
 25 27  1  0  0  0  0
 25 24  1  0  0  0  0
 25 26  1  0  0  0  0
 28 25  1  0  0  0  0
 29 31  1  0  0  0  0
 29 30  1  0  0  0  0
 29 32  1  0  0  0  0
 33 35  1  0  0  0  0
 33 36  1  0  0  0  0
 33 24  1  0  0  0  0
 34 33  1  0  0  0  0
M  END
