1,2
q = -1.0

 34 34  0  0  0  0  0  0  0  0999 V2000
   -0.9400   -0.3017    1.1635 N   0  0  0  0  0  2  0  0  0  0  0  0
   -1.0009   -0.5916   -1.0852 N   0  0  0  0  0  2  0  0  0  0  0  0
   -1.6643   -0.2634    0.0329 C   0  0  0  0  0  3  0  0  0  0  0  0
   -3.0833    0.2250    0.0076 C   0  0  0  0  0  0  0  0  0  0  0  0
   -3.3502    1.6068   -0.0838 C   0  0  0  0  0  0  0  0  0  0  0  0
   -4.6737    2.0699   -0.1127 C   0  0  0  0  0  0  0  0  0  0  0  0
   -5.7411    1.1594   -0.0470 C   0  0  0  0  0  0  0  0  0  0  0  0
   -5.4809   -0.2167    0.0473 C   0  0  0  0  0  0  0  0  0  0  0  0
   -4.1574   -0.6832    0.0725 C   0  0  0  0  0  0  0  0  0  0  0  0
   -1.4852    0.0767    2.4589 C   0  0  0  0  0  0  0  0  0  0  0  0
   -0.5513    1.0804    3.1442 C   0  0  0  0  0  0  0  0  0  0  0  0
   -1.7396   -1.1594    3.3333 C   0  0  0  0  0  0  0  0  0  0  0  0
   -1.5291   -0.3065   -2.4183 C   0  0  0  0  0  0  0  0  0  0  0  0
   -0.3936    0.1850   -3.3215 C   0  0  0  0  0  0  0  0  0  0  0  0
   -2.2409   -1.5318   -3.0100 C   0  0  0  0  0  0  0  0  0  0  0  0
   -2.5092    2.3157   -0.1331 H   0  0  0  0  0  0  0  0  0  0  0  0
   -4.8735    3.1498   -0.1867 H   0  0  0  0  0  0  0  0  0  0  0  0
   -6.7792    1.5242   -0.0687 H   0  0  0  0  0  0  0  0  0  0  0  0
   -6.3145   -0.9333    0.1016 H   0  0  0  0  0  0  0  0  0  0  0  0
   -3.9484   -1.7613    0.1483 H   0  0  0  0  0  0  0  0  0  0  0  0
   -2.4678    0.5799    2.3107 H   0  0  0  0  0  0  0  0  0  0  0  0
   -0.9400    1.3717    4.1409 H   0  0  0  0  0  0  0  0  0  0  0  0
   -0.4407    1.9955    2.5301 H   0  0  0  0  0  0  0  0  0  0  0  0
    0.4585    0.6421    3.2842 H   0  0  0  0  0  0  0  0  0  0  0  0
   -2.2013   -0.8737    4.3006 H   0  0  0  0  0  0  0  0  0  0  0  0
   -0.7918   -1.6930    3.5482 H   0  0  0  0  0  0  0  0  0  0  0  0
   -2.4185   -1.8684    2.8190 H   0  0  0  0  0  0  0  0  0  0  0  0
   -2.2816    0.5128   -2.3509 H   0  0  0  0  0  0  0  0  0  0  0  0
   -0.7775    0.4543   -4.3262 H   0  0  0  0  0  0  0  0  0  0  0  0
    0.1092    1.0638   -2.8737 H   0  0  0  0  0  0  0  0  0  0  0  0
    0.3735   -0.6068   -3.4486 H   0  0  0  0  0  0  0  0  0  0  0  0
   -2.6544   -1.2999   -4.0130 H   0  0  0  0  0  0  0  0  0  0  0  0
   -1.5376   -2.3818   -3.1128 H   0  0  0  0  0  0  0  0  0  0  0  0
   -3.0788   -1.8540   -2.3604 H   0  0  0  0  0  0  0  0  0  0  0  0
  1 10  1  0  0  0  0
  2  3  1  0  0  0  0
  3  1  1  0  0  0  0
  4  3  1  0  0  0  0
  4  9  1  0  0  0  0
  5  4  2  0  0  0  0
  6  5  1  0  0  0  0
  6  7  2  0  0  0  0
  7  8  1  0  0  0  0
  8  9  2  0  0  0  0
  8 19  1  0  0  0  0
  9 20  1  0  0  0  0
 10 11  1  0  0  0  0
 10 12  1  0  0  0  0
 11 24  1  0  0  0  0
 11 22  1  0  0  0  0
 12 26  1  0  0  0  0
 12 25  1  0  0  0  0
 13 28  1  0  0  0  0
 13  2  1  0  0  0  0
 14 30  1  0  0  0  0
 14 13  1  0  0  0  0
 15 13  1  0  0  0  0
 15 34  1  0  0  0  0
 16  5  1  0  0  0  0
 17  6  1  0  0  0  0
 18  7  1  0  0  0  0
 21 10  1  0  0  0  0
 23 11  1  0  0  0  0
 27 12  1  0  0  0  0
 29 14  1  0  0  0  0
 31 14  1  0  0  0  0
 32 15  1  0  0  0  0
 33 15  1  0  0  0  0
M  END
