18,32
q = 0.0, confidence = 0.964

 49 50  0  0  1  0  0  0  0  0999 V2000
   -2.7069    0.5658    0.2184 C   0  0  0  0  0  0  0  0  0  0  0  0
   -3.6992    0.0063   -0.6238 C   0  0  0  0  0  0  0  0  0  0  0  0
   -3.4805   -0.1197   -2.1089 C   0  0  0  0  0  0  0  0  0  0  0  0
   -4.2550   -0.7577   -2.5736 H   0  0  0  0  0  0  0  0  0  0  0  0
   -2.4814   -0.5404   -2.3422 H   0  0  0  0  0  0  0  0  0  0  0  0
   -3.5328    0.8722   -2.6075 H   0  0  0  0  0  0  0  0  0  0  0  0
   -4.9037   -0.4084   -0.0244 C   0  0  0  0  0  0  0  0  0  0  0  0
   -5.6857   -0.8551   -0.6572 H   0  0  0  0  0  0  0  0  0  0  0  0
   -5.1176   -0.2567    1.3528 C   0  0  0  0  0  0  0  0  0  0  0  0
   -6.0632   -0.5932    1.8026 H   0  0  0  0  0  0  0  0  0  0  0  0
   -4.1335    0.3382    2.1535 C   0  0  0  0  0  0  0  0  0  0  0  0
   -4.3107    0.4803    3.2306 H   0  0  0  0  0  0  0  0  0  0  0  0
   -2.9113    0.7690    1.6020 C   0  0  0  0  0  0  0  0  0  0  0  0
   -1.8730    1.4596    2.4432 C   0  0  0  0  0  0  0  0  0  0  0  0
   -0.8524    1.1218    2.1824 H   0  0  0  0  0  0  0  0  0  0  0  0
   -2.0430    1.2828    3.5218 H   0  0  0  0  0  0  0  0  0  0  0  0
   -1.8961    2.5596    2.2846 H   0  0  0  0  0  0  0  0  0  0  0  0
   -1.4242    0.8828   -0.3719 N   0  0  0  0  0  2  0  0  0  0  0  0
   -1.2514    2.0598   -0.9120 C   0  0  2  0  0  3  0  0  0  0  0  0
   -2.2605    3.1631   -0.8638 C   0  0  0  0  0  0  0  0  0  0  0  0
   -3.1767    2.8801   -0.3166 H   0  0  0  0  0  0  0  0  0  0  0  0
   -2.5337    3.4689   -1.8965 H   0  0  0  0  0  0  0  0  0  0  0  0
   -1.8127    4.0603   -0.3862 H   0  0  0  0  0  0  0  0  0  0  0  0
    0.0186    2.3029   -1.6775 C   0  0  0  0  0  0  0  0  0  0  0  0
    0.0187    1.5521   -2.5129 H   0  0  0  0  0  0  0  0  0  0  0  0
    0.0295    3.3208   -2.1053 H   0  0  0  0  0  0  0  0  0  0  0  0
    1.2756    2.0402   -0.8961 C   0  0  2  0  0  3  0  0  0  0  0  0
    2.3006    3.1291   -0.8449 C   0  0  0  0  0  0  0  0  0  0  0  0
    1.8549    4.0416   -0.3954 H   0  0  0  0  0  0  0  0  0  0  0  0
    2.6003    3.4114   -1.8772 H   0  0  0  0  0  0  0  0  0  0  0  0
    3.2010    2.8451   -0.2730 H   0  0  0  0  0  0  0  0  0  0  0  0
    1.4254    0.8618   -0.3500 N   0  0  0  0  0  2  0  0  0  0  0  0
    2.7105    0.5281    0.2293 C   0  0  0  0  0  0  0  0  0  0  0  0
    3.6961   -0.0125   -0.6333 C   0  0  0  0  0  0  0  0  0  0  0  0
    3.4515   -0.1399   -2.1146 C   0  0  0  0  0  0  0  0  0  0  0  0
    2.4565   -0.5799   -2.3305 H   0  0  0  0  0  0  0  0  0  0  0  0
    4.2295   -0.7619   -2.5949 H   0  0  0  0  0  0  0  0  0  0  0  0
    3.4750    0.8528   -2.6134 H   0  0  0  0  0  0  0  0  0  0  0  0
    4.9230   -0.4024   -0.0627 C   0  0  0  0  0  0  0  0  0  0  0  0
    5.6989   -0.8322   -0.7146 H   0  0  0  0  0  0  0  0  0  0  0  0
    5.1690   -0.2393    1.3069 C   0  0  0  0  0  0  0  0  0  0  0  0
    6.1349   -0.5469    1.7334 H   0  0  0  0  0  0  0  0  0  0  0  0
    4.1895    0.3316    2.1298 C   0  0  0  0  0  0  0  0  0  0  0  0
    4.3898    0.4823    3.2016 H   0  0  0  0  0  0  0  0  0  0  0  0
    2.9417    0.7285    1.6099 C   0  0  0  0  0  0  0  0  0  0  0  0
    1.8956    1.3424    2.4997 C   0  0  0  0  0  0  0  0  0  0  0  0
    1.4933    2.2882    2.0835 H   0  0  0  0  0  0  0  0  0  0  0  0
    2.3037    1.5583    3.5042 H   0  0  0  0  0  0  0  0  0  0  0  0
    1.0284    0.6612    2.6251 H   0  0  0  0  0  0  0  0  0  0  0  0
  1 13  1  0  0  0  0
  2  7  1  0  0  0  0
  2  1  2  0  0  0  0
  3  2  1  0  0  0  0
  4  3  1  0  0  0  0
  5  3  1  0  0  0  0
  6  3  1  0  0  0  0
  7  9  2  0  0  0  0
  8  7  1  0  0  0  0
  9 10  1  0  0  0  0
  9 11  1  0  0  0  0
 11 12  1  0  0  0  0
 13 11  2  0  0  0  0
 13 14  1  0  0  0  0
 14 16  1  0  0  0  0
 15 14  1  0  0  0  0
 17 14  1  0  0  0  0
 18  1  1  0  0  0  0
 19 20  1  0  0  0  0
 19 18  1  6  0  0  0
 20 23  1  0  0  0  0
 20 21  1  0  0  0  0
 22 20  1  0  0  0  0
 24 19  1  0  0  0  0
 24 27  1  0  0  0  0
 25 24  1  0  0  0  0
 26 24  1  0  0  0  0
 27 28  1  0  0  0  0
 27 32  1  6  0  0  0
 28 29  1  0  0  0  0
 28 31  1  0  0  0  0
 30 28  1  0  0  0  0
 32 33  1  0  0  0  0
 33 45  1  0  0  0  0
 34 39  1  0  0  0  0
 34 33  2  0  0  0  0
 35 34  1  0  0  0  0
 36 35  1  0  0  0  0
 37 35  1  0  0  0  0
 38 35  1  0  0  0  0
 39 41  2  0  0  0  0
 40 39  1  0  0  0  0
 41 42  1  0  0  0  0
 41 43  1  0  0  0  0
 43 44  1  0  0  0  0
 45 43  2  0  0  0  0
 45 46  1  0  0  0  0
 46 49  1  0  0  0  0
 46 48  1  0  0  0  0
 47 46  1  0  0  0  0
M  END
