1,3
q = 0.0, confidence = 0.852

 13 13  0  0  0  0  0  0  0  0999 V2000
    1.2170   -1.0938    1.9226 N   0  0  0  0  0  2  0  0  0  0  0  0
    2.1289   -0.2477    2.3245 N   0  0  0  0  0  0  0  0  0  0  0  0
    2.3204   -0.0281   -0.0000 N   0  0  0  0  0  2  0  0  0  0  0  0
    2.7650    0.3177    1.2538 C   0  0  0  0  0  0  0  0  0  0  0  0
    3.8235    1.2417    1.4225 C   0  0  0  0  0  0  0  0  0  0  0  0
    4.4214    1.7901    0.2923 C   0  0  0  0  0  0  0  0  0  0  0  0
    3.9586    1.4172   -0.9884 C   0  0  0  0  0  0  0  0  0  0  0  0
    2.9082    0.5063   -1.0929 C   0  0  0  0  0  0  0  0  0  0  0  0
    0.7200   -1.5016    2.7290 H   0  0  0  0  0  0  0  0  0  0  0  0
    4.1402    1.4880    2.4445 H   0  0  0  0  0  0  0  0  0  0  0  0
    5.2501    2.5063    0.3973 H   0  0  0  0  0  0  0  0  0  0  0  0
    4.4079    1.8303   -1.9015 H   0  0  0  0  0  0  0  0  0  0  0  0
    2.4900    0.1733   -2.0559 H   0  0  0  0  0  0  0  0  0  0  0  0
  1  2  1  0  0  0  0
  1  9  1  0  0  0  0
  3  4  1  0  0  0  0
  4  5  1  0  0  0  0
  4  2  2  0  0  0  0
  5 10  1  0  0  0  0
  6 11  1  0  0  0  0
  6  5  2  0  0  0  0
  7  6  1  0  0  0  0
  8  7  2  0  0  0  0
  8  3  1  0  0  0  0
 12  7  1  0  0  0  0
 13  8  1  0  0  0  0
M  END
