22,23
q = 0.0, confidence = 0.942

 26 27  0  0  0  0  0  0  0  0999 V2000
    1.5685   -0.9904   -0.3831 C   0  0  0  0  0  0  0  0  0  0  0  0
    1.6550    0.4572   -0.2020 C   0  0  0  0  0  0  0  0  0  0  0  0
    2.9250    1.0916   -0.1963 C   0  0  0  0  0  0  0  0  0  0  0  0
    3.0179    2.1831   -0.0904 H   0  0  0  0  0  0  0  0  0  0  0  0
    4.0823    0.3272   -0.3324 C   0  0  0  0  0  0  0  0  0  0  0  0
    3.9880   -1.0960   -0.5288 C   0  0  0  0  0  0  0  0  0  0  0  0
    4.9097   -1.6725   -0.6906 H   0  0  0  0  0  0  0  0  0  0  0  0
    2.7669   -1.7455   -0.5612 C   0  0  0  0  0  0  0  0  0  0  0  0
    2.7064   -2.8310   -0.7312 H   0  0  0  0  0  0  0  0  0  0  0  0
    5.3923    1.0677   -0.3574 C   0  0  0  0  0  0  0  0  0  0  0  0
    6.6573    0.3641    0.0402 C   0  0  0  0  0  0  0  0  0  0  0  0
    7.8708    0.8375   -0.5048 C   0  0  0  0  0  0  0  0  0  0  0  0
    7.8268    1.6698   -1.2227 H   0  0  0  0  0  0  0  0  0  0  0  0
    9.0888    0.2598   -0.1314 C   0  0  0  0  0  0  0  0  0  0  0  0
   10.0285    0.6239   -0.5736 H   0  0  0  0  0  0  0  0  0  0  0  0
    9.1131   -0.7795    0.8155 C   0  0  0  0  0  0  0  0  0  0  0  0
   10.0719   -1.2296    1.1150 H   0  0  0  0  0  0  0  0  0  0  0  0
    7.9152   -1.2357    1.3878 C   0  0  0  0  0  0  0  0  0  0  0  0
    7.9344   -2.0324    2.1467 H   0  0  0  0  0  0  0  0  0  0  0  0
    6.6910   -0.6726    0.9983 C   0  0  0  0  0  0  0  0  0  0  0  0
    5.7580   -1.0192    1.4671 H   0  0  0  0  0  0  0  0  0  0  0  0
    0.3067   -1.4333   -0.3654 N   0  0  0  0  0  2  0  0  0  0  0  0
    0.4486    1.0275   -0.0602 N   0  0  0  0  0  2  0  0  0  0  0  0
    5.4216    2.2499   -0.6998 O   0  0  0  0  0  0  0  0  0  0  0  0
    0.1703   -2.4438   -0.4911 H   0  0  0  0  0  0  0  0  0  0  0  0
    0.4374    2.0467    0.0706 H   0  0  0  0  0  0  0  0  0  0  0  0
  1 22  1  0  0  0  0
  1  2  1  0  0  0  0
  2  3  2  0  0  0  0
  2 23  1  0  0  0  0
  3  4  1  0  0  0  0
  5  3  1  0  0  0  0
  6  5  2  0  0  0  0
  7  6  1  0  0  0  0
  8  6  1  0  0  0  0
  8  1  2  0  0  0  0
  9  8  1  0  0  0  0
 10  5  1  0  0  0  0
 10 11  1  0  0  0  0
 11 20  1  0  0  0  0
 12 14  1  0  0  0  0
 12 11  2  0  0  0  0
 13 12  1  0  0  0  0
 14 16  2  0  0  0  0
 15 14  1  0  0  0  0
 16 17  1  0  0  0  0
 16 18  1  0  0  0  0
 18 19  1  0  0  0  0
 20 18  2  0  0  0  0
 20 21  1  0  0  0  0
 23 26  1  0  0  0  0
 24 10  2  0  0  0  0
 25 22  1  0  0  0  0
M  END
