2,31
q = 0.0, confidence = 0.992

 58 59  0  0  1  0  0  0  0  0999 V2000
    4.2134   -0.7886    1.3002 O   0  0  0  0  0  0  0  0  0  0  0  0
    1.3352    0.9631    0.1494 N   0  0  0  0  0  2  0  0  0  0  0  0
    0.7209    2.1698    0.1832 C   0  0  2  0  0  3  0  0  0  0  0  0
    1.4186    3.3272    0.5684 C   0  0  0  0  0  0  0  0  0  0  0  0
    2.7646    3.2084    0.9430 C   0  0  0  0  0  0  0  0  0  0  0  0
    3.3860    1.9567    0.8893 C   0  0  0  0  0  0  0  0  0  0  0  0
    2.6421    0.8437    0.4544 C   0  0  0  0  0  0  0  0  0  0  0  0
    3.2803   -0.5214    0.2730 C   0  0  1  0  0  0  0  0  0  0  0  0
    3.6137   -1.1164    2.5454 C   0  0  0  0  0  0  0  0  0  0  0  0
    4.0035   -0.6866   -1.1110 C   0  0  0  0  0  0  0  0  0  0  0  0
    3.1610   -0.0818   -2.2472 C   0  0  0  0  0  0  0  0  0  0  0  0
    5.3846   -0.0103   -1.0784 C   0  0  0  0  0  0  0  0  0  0  0  0
    4.1592   -2.2024   -1.3366 C   0  0  0  0  0  0  0  0  0  0  0  0
    0.9086    4.2987    0.6147 H   0  0  0  0  0  0  0  0  0  0  0  0
    3.3231    4.0950    1.2787 H   0  0  0  0  0  0  0  0  0  0  0  0
    4.4332    1.8067    1.1840 H   0  0  0  0  0  0  0  0  0  0  0  0
    2.4491   -1.2666    0.3047 H   0  0  0  0  0  0  0  0  0  0  0  0
    4.4381   -1.3185    3.2558 H   0  0  0  0  0  0  0  0  0  0  0  0
    2.9548   -2.0082    2.4627 H   0  0  0  0  0  0  0  0  0  0  0  0
    2.9862   -0.2849    2.9431 H   0  0  0  0  0  0  0  0  0  0  0  0
    3.0992    1.0237   -2.1709 H   0  0  0  0  0  0  0  0  0  0  0  0
    2.1312   -0.4934   -2.2701 H   0  0  0  0  0  0  0  0  0  0  0  0
    3.6378   -0.3173   -3.2204 H   0  0  0  0  0  0  0  0  0  0  0  0
    5.3013    1.0895   -0.9549 H   0  0  0  0  0  0  0  0  0  0  0  0
    5.9085   -0.1913   -2.0388 H   0  0  0  0  0  0  0  0  0  0  0  0
    6.0085   -0.4081   -0.2560 H   0  0  0  0  0  0  0  0  0  0  0  0
    4.7448   -2.4011   -2.2571 H   0  0  0  0  0  0  0  0  0  0  0  0
    3.1644   -2.6792   -1.4514 H   0  0  0  0  0  0  0  0  0  0  0  0
    4.6835   -2.6724   -0.4813 H   0  0  0  0  0  0  0  0  0  0  0  0
   -0.7208    2.1697   -0.1839 C   0  0  2  0  0  3  0  0  0  0  0  0
   -1.3352    0.9631   -0.1499 N   0  0  0  0  0  2  0  0  0  0  0  0
   -2.6420    0.8436   -0.4550 C   0  0  0  0  0  0  0  0  0  0  0  0
   -3.3858    1.9565   -0.8903 C   0  0  0  0  0  0  0  0  0  0  0  0
   -2.7645    3.2081   -0.9442 C   0  0  0  0  0  0  0  0  0  0  0  0
   -1.4185    3.3271   -0.5694 C   0  0  0  0  0  0  0  0  0  0  0  0
   -0.9085    4.2985   -0.6159 H   0  0  0  0  0  0  0  0  0  0  0  0
   -3.3229    4.0947   -1.2801 H   0  0  0  0  0  0  0  0  0  0  0  0
   -4.4330    1.8064   -1.1851 H   0  0  0  0  0  0  0  0  0  0  0  0
   -3.2803   -0.5215   -0.2734 C   0  0  2  0  0  0  0  0  0  0  0  0
   -4.2129   -0.7891   -1.3009 O   0  0  0  0  0  0  0  0  0  0  0  0
   -3.6125   -1.1172   -2.5458 C   0  0  0  0  0  0  0  0  0  0  0  0
   -4.4366   -1.3197   -3.2565 H   0  0  0  0  0  0  0  0  0  0  0  0
   -2.9534   -2.0088   -2.4624 H   0  0  0  0  0  0  0  0  0  0  0  0
   -2.9851   -0.2856   -2.9435 H   0  0  0  0  0  0  0  0  0  0  0  0
   -4.0041   -0.6863    1.1103 C   0  0  0  0  0  0  0  0  0  0  0  0
   -3.1622   -0.0809    2.2467 C   0  0  0  0  0  0  0  0  0  0  0  0
   -3.1005    1.0246    2.1701 H   0  0  0  0  0  0  0  0  0  0  0  0
   -2.1323   -0.4923    2.2704 H   0  0  0  0  0  0  0  0  0  0  0  0
   -3.6394   -0.3161    3.2198 H   0  0  0  0  0  0  0  0  0  0  0  0
   -5.3852   -0.0101    1.0768 C   0  0  0  0  0  0  0  0  0  0  0  0
   -5.3020    1.0896    0.9530 H   0  0  0  0  0  0  0  0  0  0  0  0
   -5.9095   -0.1908    2.0371 H   0  0  0  0  0  0  0  0  0  0  0  0
   -6.0087   -0.4083    0.2544 H   0  0  0  0  0  0  0  0  0  0  0  0
   -4.1597   -2.2019    1.3365 C   0  0  0  0  0  0  0  0  0  0  0  0
   -4.7457   -2.4004    2.2568 H   0  0  0  0  0  0  0  0  0  0  0  0
   -3.1649   -2.6786    1.4519 H   0  0  0  0  0  0  0  0  0  0  0  0
   -4.6835   -2.6724    0.4811 H   0  0  0  0  0  0  0  0  0  0  0  0
   -2.4490   -1.2666   -0.3045 H   0  0  0  0  0  0  0  0  0  0  0  0
  1  9  1  0  0  0  0
  2  7  1  0  0  0  0
  3  2  1  1  0  0  0
  3  4  1  0  0  0  0
  4 14  1  0  0  0  0
  4  5  2  0  0  0  0
  5 15  1  0  0  0  0
  6  5  1  0  0  0  0
  6 16  1  0  0  0  0
  7  6  2  0  0  0  0
  8 17  1  1  0  0  0
  8  7  1  0  0  0  0
  8  1  1  0  0  0  0
  9 20  1  0  0  0  0
  9 18  1  0  0  0  0
 10 12  1  0  0  0  0
 10  8  1  0  0  0  0
 11 21  1  0  0  0  0
 11 10  1  0  0  0  0
 12 24  1  0  0  0  0
 12 26  1  0  0  0  0
 13 10  1  0  0  0  0
 13 29  1  0  0  0  0
 19  9  1  0  0  0  0
 22 11  1  0  0  0  0
 23 11  1  0  0  0  0
 25 12  1  0  0  0  0
 27 13  1  0  0  0  0
 28 13  1  0  0  0  0
 30 35  1  6  0  0  0
 30 31  1  0  0  0  0
 30  3  1  0  0  0  0
 32 39  1  0  0  0  0
 32 31  1  0  0  0  0
 33 32  2  0  0  0  0
 34 33  1  0  0  0  0
 34 35  2  0  0  0  0
 36 35  1  0  0  0  0
 37 34  1  0  0  0  0
 38 33  1  0  0  0  0
 39 58  1  6  0  0  0
 39 45  1  0  0  0  0
 40 39  1  0  0  0  0
 41 43  1  0  0  0  0
 41 40  1  0  0  0  0
 42 41  1  0  0  0  0
 44 41  1  0  0  0  0
 45 54  1  0  0  0  0
 45 46  1  0  0  0  0
 46 48  1  0  0  0  0
 46 49  1  0  0  0  0
 47 46  1  0  0  0  0
 50 45  1  0  0  0  0
 50 52  1  0  0  0  0
 51 50  1  0  0  0  0
 53 50  1  0  0  0  0
 54 56  1  0  0  0  0
 54 55  1  0  0  0  0
 57 54  1  0  0  0  0
M  END
