3,5
q = 0.0, confidence = 0.994

 42 44  0  0  0  0  0  0  0  0999 V2000
    2.6902   -0.0001   -0.0003 N   0  0  0  0  0  0  0  0  0  0  0  0
    1.2847   -2.2462    0.4877 N   0  0  0  0  0  0  0  0  0  0  0  0
   -1.2852   -2.2452   -0.4927 N   0  0  0  0  0  2  0  0  0  0  0  0
   -2.6903    0.0001    0.0002 N   0  0  0  0  0  0  0  0  0  0  0  0
   -1.2848    2.2453    0.4927 N   0  0  0  0  0  2  0  0  0  0  0  0
    1.2849    2.2462   -0.4880 N   0  0  0  0  0  0  0  0  0  0  0  0
    3.3778   -1.1315    0.2348 C   0  0  0  0  0  0  0  0  0  0  0  0
    2.5651   -2.3357    0.4570 C   0  0  0  0  0  0  0  0  0  0  0  0
    3.0939   -3.3071    0.5687 H   0  0  0  0  0  0  0  0  0  0  0  0
    0.4924   -3.4555    0.5858 C   0  0  0  0  0  0  0  0  0  0  0  0
   -0.0838   -3.4184    1.5354 H   0  0  0  0  0  0  0  0  0  0  0  0
    1.1109   -4.3802    0.5768 H   0  0  0  0  0  0  0  0  0  0  0  0
   -0.4929   -3.4542   -0.5934 C   0  0  0  0  0  0  0  0  0  0  0  0
    0.0833   -3.4152   -1.5429 H   0  0  0  0  0  0  0  0  0  0  0  0
   -1.1115   -4.3789   -0.5862 H   0  0  0  0  0  0  0  0  0  0  0  0
   -2.5655   -2.3347   -0.4616 C   0  0  0  0  0  3  0  0  0  0  0  0
   -3.0944   -3.3058   -0.5749 H   0  0  0  0  0  0  0  0  0  0  0  0
   -3.3781   -1.1308   -0.2367 C   0  0  0  0  0  0  0  0  0  0  0  0
   -4.7879   -1.1785   -0.2451 C   0  0  0  0  0  0  0  0  0  0  0  0
   -5.3057   -2.1284   -0.4428 H   0  0  0  0  0  0  0  0  0  0  0  0
   -5.5027    0.0002    0.0011 C   0  0  0  0  0  0  0  0  0  0  0  0
   -6.6024    0.0002    0.0015 H   0  0  0  0  0  0  0  0  0  0  0  0
   -4.7877    1.1788    0.2469 C   0  0  0  0  0  0  0  0  0  0  0  0
   -5.3054    2.1287    0.4449 H   0  0  0  0  0  0  0  0  0  0  0  0
   -3.3779    1.1311    0.2376 C   0  0  0  0  0  0  0  0  0  0  0  0
   -2.5651    2.3349    0.4621 C   0  0  0  0  0  3  0  0  0  0  0  0
   -3.0939    3.3060    0.5757 H   0  0  0  0  0  0  0  0  0  0  0  0
   -0.4924    3.4544    0.5932 C   0  0  0  0  0  0  0  0  0  0  0  0
    0.0839    3.4154    1.5426 H   0  0  0  0  0  0  0  0  0  0  0  0
   -1.1110    4.3790    0.5861 H   0  0  0  0  0  0  0  0  0  0  0  0
    0.4927    3.4555   -0.5862 C   0  0  0  0  0  0  0  0  0  0  0  0
   -0.0837    3.4183   -1.5357 H   0  0  0  0  0  0  0  0  0  0  0  0
    1.1112    4.3801   -0.5773 H   0  0  0  0  0  0  0  0  0  0  0  0
    2.5653    2.3356   -0.4573 C   0  0  0  0  0  0  0  0  0  0  0  0
    3.0942    3.3069   -0.5689 H   0  0  0  0  0  0  0  0  0  0  0  0
    3.3779    1.1314   -0.2349 C   0  0  0  0  0  0  0  0  0  0  0  0
    4.7877    1.1791   -0.2433 C   0  0  0  0  0  0  0  0  0  0  0  0
    5.3056    2.1294   -0.4391 H   0  0  0  0  0  0  0  0  0  0  0  0
    5.5026   -0.0001    0.0006 C   0  0  0  0  0  0  0  0  0  0  0  0
    6.6023   -0.0000    0.0009 H   0  0  0  0  0  0  0  0  0  0  0  0
    4.7876   -1.1792    0.2440 C   0  0  0  0  0  0  0  0  0  0  0  0
    5.3054   -2.1295    0.4402 H   0  0  0  0  0  0  0  0  0  0  0  0
  1  7  1  0  0  0  0
  2 10  1  0  0  0  0
  3 16  1  0  0  0  0
  4 25  1  0  0  0  0
  5 28  1  0  0  0  0
  6 34  2  0  0  0  0
  7 41  2  0  0  0  0
  7  8  1  0  0  0  0
  8  2  2  0  0  0  0
  8  9  1  0  0  0  0
 10 11  1  0  0  0  0
 12 10  1  0  0  0  0
 13 15  1  0  0  0  0
 13  3  1  0  0  0  0
 13 10  1  0  0  0  0
 14 13  1  0  0  0  0
 16 18  1  0  0  0  0
 17 16  1  0  0  0  0
 18  4  2  0  0  0  0
 19 18  1  0  0  0  0
 19 21  2  0  0  0  0
 20 19  1  0  0  0  0
 21 22  1  0  0  0  0
 21 23  1  0  0  0  0
 23 24  1  0  0  0  0
 25 23  2  0  0  0  0
 25 26  1  0  0  0  0
 26  5  1  0  0  0  0
 26 27  1  0  0  0  0
 28 29  1  0  0  0  0
 30 28  1  0  0  0  0
 31 33  1  0  0  0  0
 31  6  1  0  0  0  0
 31 28  1  0  0  0  0
 32 31  1  0  0  0  0
 34 36  1  0  0  0  0
 35 34  1  0  0  0  0
 36  1  2  0  0  0  0
 37 36  1  0  0  0  0
 37 39  2  0  0  0  0
 38 37  1  0  0  0  0
 39 40  1  0  0  0  0
 39 41  1  0  0  0  0
 41 42  1  0  0  0  0
M  END
