2,3
q = 0.0, confidence = 0.992

 17 17  0  0  1  0  0  0  0  0999 V2000
   -2.1107    2.9954    0.0018 S   0  0  0  0  0  0  0  0  0  0  0  0
   -0.3574   -1.4918    0.0001 N   0  0  0  0  0  2  0  0  0  0  0  0
   -0.3640    1.0942   -0.0013 N   0  0  0  0  0  2  0  0  0  0  0  0
    0.6190    3.2430   -0.0006 N   0  0  0  0  0  0  0  0  0  0  0  0
    0.5030    4.2532   -0.0017 H   0  0  0  0  0  0  0  0  0  0  0  0
    1.5687    2.7945   -0.0009 H   0  0  0  0  0  0  0  0  0  0  0  0
   -0.1629   -2.7996    0.0001 O   0  0  0  0  0  0  0  0  0  0  0  0
    0.8679   -2.8597    0.0006 H   0  0  0  0  0  0  0  0  0  0  0  0
   -2.7839   -3.0901    0.0003 O   0  0  0  0  0  0  0  0  0  0  0  0
   -3.9490   -1.1527   -0.0020 O   0  0  0  0  0  0  0  0  0  0  0  0
   -4.6653   -1.8246   -0.0020 H   0  0  0  0  0  0  0  0  0  0  0  0
   -1.5908   -0.9918   -0.0003 C   0  0  1  0  0  3  0  0  0  0  0  0
   -2.7937   -1.8765   -0.0005 C   0  0  0  0  0  0  0  0  0  0  0  0
   -1.6185    0.4693   -0.0003 C   0  0  0  0  0  0  0  0  0  0  0  0
   -0.4374    2.4261   -0.0003 C   0  0  2  0  0  3  0  0  0  0  0  0
   -2.6784    1.3485    0.0012 C   0  0  0  0  0  0  0  0  0  0  0  0
   -3.7448    1.1148    0.0015 H   0  0  0  0  0  0  0  0  0  0  0  0
  2  7  1  0  0  0  0
  3 15  1  0  0  0  0
  3 14  1  0  0  0  0
  5  4  1  0  0  0  0
  6  4  1  0  0  0  0
  7  8  1  0  0  0  0
 10 13  1  0  0  0  0
 11 10  1  0  0  0  0
 12 13  1  1  0  0  0
 12  2  1  0  0  0  0
 13  9  2  0  0  0  0
 14 12  1  0  0  0  0
 14 16  2  0  0  0  0
 15  4  1  1  0  0  0
 15  1  1  0  0  0  0
 16 17  1  0  0  0  0
 16  1  1  0  0  0  0
M  END
