1,13
q = 0.0, confidence = 0.998

 51 53  0  0  0  0  0  0  0  0999 V2000
    4.5825   -0.0484   -0.2126 N   0  0  0  0  0  2  0  0  0  0  0  0
    5.7477    0.6156   -0.3294 C   0  0  0  0  0  3  0  0  0  0  0  0
    5.7086    1.7004   -0.1533 H   0  0  0  0  0  0  0  0  0  0  0  0
    6.9470   -0.0238   -0.6671 C   0  0  0  0  0  0  0  0  0  0  0  0
    7.8694    0.5674   -0.7530 H   0  0  0  0  0  0  0  0  0  0  0  0
    6.9426   -1.4091   -0.8949 C   0  0  0  0  0  0  0  0  0  0  0  0
    7.8685   -1.9372   -1.1659 H   0  0  0  0  0  0  0  0  0  0  0  0
    5.7360   -2.1051   -0.7729 C   0  0  0  0  0  0  0  0  0  0  0  0
    5.6808   -3.1900   -0.9428 H   0  0  0  0  0  0  0  0  0  0  0  0
    4.5682   -1.3976   -0.4331 C   0  0  0  0  0  0  0  0  0  0  0  0
    3.2733   -2.0361   -0.2653 C   0  0  0  0  0  3  0  0  0  0  0  0
    3.1823   -3.1310   -0.4002 H   0  0  0  0  0  0  0  0  0  0  0  0
    2.2497   -1.3056    0.0604 N   0  0  0  0  0  2  0  0  0  0  0  0
    0.9559   -1.9343    0.2557 C   0  0  0  0  0  0  0  0  0  0  0  0
    1.0038   -3.0080   -0.0373 H   0  0  0  0  0  0  0  0  0  0  0  0
    0.2198   -1.4403   -0.4137 H   0  0  0  0  0  0  0  0  0  0  0  0
    0.4537   -1.8130    1.6984 C   0  0  0  0  0  0  0  0  0  0  0  0
    0.4275   -0.7436    1.9910 H   0  0  0  0  0  0  0  0  0  0  0  0
    1.1667   -2.3043    2.3932 H   0  0  0  0  0  0  0  0  0  0  0  0
   -0.9315   -2.4553    1.8491 C   0  0  0  0  0  0  0  0  0  0  0  0
   -0.8547   -3.5370    1.6052 H   0  0  0  0  0  0  0  0  0  0  0  0
   -1.2452   -2.4002    2.9252 H   0  0  0  0  0  0  0  0  0  0  0  0
   -1.9202   -1.8712    0.9584 N   0  0  0  0  0  0  0  0  0  0  0  0
   -3.0288   -2.7555    0.6287 C   0  0  0  0  0  0  0  0  0  0  0  0
   -3.6647   -2.9787    1.5274 H   0  0  0  0  0  0  0  0  0  0  0  0
   -2.6231   -3.7199    0.2571 H   0  0  0  0  0  0  0  0  0  0  0  0
   -3.9150   -2.1360   -0.4532 C   0  0  0  0  0  0  0  0  0  0  0  0
   -3.3238   -2.0696   -1.4037 H   0  0  0  0  0  0  0  0  0  0  0  0
   -4.7800   -2.8037   -0.6381 H   0  0  0  0  0  0  0  0  0  0  0  0
   -4.4009   -0.8379   -0.0194 N   0  0  0  0  0  0  0  0  0  0  0  0
   -3.2992    0.0614    0.3324 C   0  0  0  0  0  0  0  0  0  0  0  0
   -3.7099    1.0122    0.7118 H   0  0  0  0  0  0  0  0  0  0  0  0
   -2.6736    0.2864   -0.5665 H   0  0  0  0  0  0  0  0  0  0  0  0
   -2.4182   -0.5721    1.4015 C   0  0  0  0  0  0  0  0  0  0  0  0
   -1.5659    0.1042    1.6040 H   0  0  0  0  0  0  0  0  0  0  0  0
   -3.0109   -0.6723    2.3498 H   0  0  0  0  0  0  0  0  0  0  0  0
   -5.5307   -0.2981   -0.6596 C   0  0  0  0  0  0  0  0  0  0  0  0
   -5.9988   -0.7790   -1.9004 C   0  0  0  0  0  0  0  0  0  0  0  0
   -5.4277   -1.5617   -2.4181 H   0  0  0  0  0  0  0  0  0  0  0  0
   -7.1634   -0.2718   -2.5013 C   0  0  0  0  0  0  0  0  0  0  0  0
   -7.4949   -0.6746   -3.4700 H   0  0  0  0  0  0  0  0  0  0  0  0
   -7.8802    0.7517   -1.8755 C   0  0  0  0  0  0  0  0  0  0  0  0
   -8.7887    1.1659   -2.3373 H   0  0  0  0  0  0  0  0  0  0  0  0
   -7.4391    1.2554   -0.6379 C   0  0  0  0  0  0  0  0  0  0  0  0
   -8.0170    2.0470   -0.1426 H   0  0  0  0  0  0  0  0  0  0  0  0
   -6.2907    0.7358   -0.0201 C   0  0  0  0  0  0  0  0  0  0  0  0
   -5.8398    1.1429    1.2057 O   0  0  0  0  0  0  0  0  0  0  0  0
   -6.5650    2.1408    1.8945 C   0  0  0  0  0  0  0  0  0  0  0  0
   -6.0372    2.3056    2.8524 H   0  0  0  0  0  0  0  0  0  0  0  0
   -7.6101    1.8208    2.1073 H   0  0  0  0  0  0  0  0  0  0  0  0
   -6.5966    3.0999    1.3296 H   0  0  0  0  0  0  0  0  0  0  0  0
  2  1  1  0  0  0  0
  2  3  1  0  0  0  0
  4  2  1  0  0  0  0
  5  4  1  0  0  0  0
  6  8  1  0  0  0  0
  6  4  2  0  0  0  0
  7  6  1  0  0  0  0
  8 10  2  0  0  0  0
  9  8  1  0  0  0  0
 10 11  1  0  0  0  0
 10  1  1  0  0  0  0
 11 13  1  0  0  0  0
 12 11  1  0  0  0  0
 13 14  1  0  0  0  0
 14 17  1  0  0  0  0
 15 14  1  0  0  0  0
 16 14  1  0  0  0  0
 17 20  1  0  0  0  0
 17 18  1  0  0  0  0
 17 19  1  0  0  0  0
 20 22  1  0  0  0  0
 21 20  1  0  0  0  0
 23 34  1  0  0  0  0
 23 20  1  0  0  0  0
 24 23  1  0  0  0  0
 24 25  1  0  0  0  0
 26 24  1  0  0  0  0
 27 30  1  0  0  0  0
 27 24  1  0  0  0  0
 28 27  1  0  0  0  0
 29 27  1  0  0  0  0
 30 31  1  0  0  0  0
 31 32  1  0  0  0  0
 31 34  1  0  0  0  0
 33 31  1  0  0  0  0
 34 35  1  0  0  0  0
 34 36  1  0  0  0  0
 37 46  1  0  0  0  0
 37 30  1  0  0  0  0
 38 37  2  0  0  0  0
 39 38  1  0  0  0  0
 40 38  1  0  0  0  0
 40 42  2  0  0  0  0
 41 40  1  0  0  0  0
 42 44  1  0  0  0  0
 43 42  1  0  0  0  0
 44 45  1  0  0  0  0
 44 46  2  0  0  0  0
 46 47  1  0  0  0  0
 47 48  1  0  0  0  0
 48 50  1  0  0  0  0
 48 49  1  0  0  0  0
 51 48  1  0  0  0  0
M  END
