1,2
q = 0.0, confidence = 0.982

 27 28  0  0  1  0  0  0  0  0999 V2000
    0.5375   -1.4191    0.2379 N   0  0  0  0  0  2  0  0  0  0  0  0
    0.5374    1.4191    0.2379 N   0  0  0  0  0  2  0  0  0  0  0  0
   -0.0378   -0.0001   -2.0634 O   0  0  0  0  0  0  0  0  0  0  0  0
    0.7116   -1.2220   -2.1704 C   0  0  0  0  0  0  0  0  0  0  0  0
    0.7115    1.2219   -2.1704 C   0  0  0  0  0  0  0  0  0  0  0  0
    1.3150   -1.6545   -0.8580 C   0  0  2  0  0  3  0  0  0  0  0  0
    2.5450   -2.3198   -0.7744 C   0  0  0  0  0  0  0  0  0  0  0  0
    2.9893   -2.7888    0.4699 C   0  0  0  0  0  0  0  0  0  0  0  0
    2.1780   -2.5628    1.5948 C   0  0  0  0  0  0  0  0  0  0  0  0
    0.9726   -1.8740    1.4405 C   0  0  0  0  0  0  0  0  0  0  0  0
    1.3149    1.6544   -0.8581 C   0  0  1  0  0  3  0  0  0  0  0  0
    2.5450    2.3199   -0.7746 C   0  0  0  0  0  0  0  0  0  0  0  0
    2.9892    2.7889    0.4698 C   0  0  0  0  0  0  0  0  0  0  0  0
    2.1779    2.5630    1.5947 C   0  0  0  0  0  0  0  0  0  0  0  0
    0.9726    1.8740    1.4405 C   0  0  0  0  0  0  0  0  0  0  0  0
    1.4831   -1.1338   -2.9648 H   0  0  0  0  0  0  0  0  0  0  0  0
   -0.0410   -1.9750   -2.4886 H   0  0  0  0  0  0  0  0  0  0  0  0
    1.4830    1.1337   -2.9648 H   0  0  0  0  0  0  0  0  0  0  0  0
   -0.0410    1.9749   -2.4887 H   0  0  0  0  0  0  0  0  0  0  0  0
    3.1432   -2.4731   -1.6852 H   0  0  0  0  0  0  0  0  0  0  0  0
    3.9491   -3.3179    0.5611 H   0  0  0  0  0  0  0  0  0  0  0  0
    2.4764   -2.9114    2.5938 H   0  0  0  0  0  0  0  0  0  0  0  0
    0.3122   -1.6630    2.2948 H   0  0  0  0  0  0  0  0  0  0  0  0
    3.1431    2.4732   -1.6854 H   0  0  0  0  0  0  0  0  0  0  0  0
    3.9490    3.3181    0.5609 H   0  0  0  0  0  0  0  0  0  0  0  0
    2.4763    2.9116    2.5937 H   0  0  0  0  0  0  0  0  0  0  0  0
    0.3122    1.6630    2.2947 H   0  0  0  0  0  0  0  0  0  0  0  0
  1 10  1  0  0  0  0
  2 15  1  0  0  0  0
  4  3  1  0  0  0  0
  5  3  1  0  0  0  0
  6  4  1  6  0  0  0
  6  7  1  0  0  0  0
  6  1  1  0  0  0  0
  7  8  2  0  0  0  0
  8 21  1  0  0  0  0
  8  9  1  0  0  0  0
  9 22  1  0  0  0  0
 10  9  2  0  0  0  0
 10 23  1  0  0  0  0
 11  5  1  6  0  0  0
 11 12  1  0  0  0  0
 11  2  1  0  0  0  0
 12 13  2  0  0  0  0
 13 25  1  0  0  0  0
 13 14  1  0  0  0  0
 14 26  1  0  0  0  0
 15 14  2  0  0  0  0
 15 27  1  0  0  0  0
 16  4  1  0  0  0  0
 17  4  1  0  0  0  0
 18  5  1  0  0  0  0
 19  5  1  0  0  0  0
 20  7  1  0  0  0  0
 24 12  1  0  0  0  0
M  END
