3,5
q = -1.0, confidence = 0.0

 39 42  0  0  0  0  0  0  0  0999 V2000
    1.3505    0.4213   -2.9109 B   0  0  0  0  0  0  0  0  0  0  0  0
    2.0484   -0.6509   -2.0148 N   0  0  0  0  0  0  0  0  0  0  0  0
    1.8430   -0.7552   -0.6782 N   0  0  0  0  0  2  0  0  0  0  0  0
   -0.1940    0.3431   -2.7452 N   0  0  0  0  0  0  0  0  0  0  0  0
   -0.7978    0.6530   -1.5695 N   0  0  0  0  0  2  0  0  0  0  0  0
    2.9967   -1.5340   -2.3983 C   0  0  0  0  0  3  0  0  0  0  0  0
    3.3047   -1.5831   -3.4476 H   0  0  0  0  0  0  0  0  0  0  0  0
    3.4257   -2.2479   -1.2764 C   0  0  0  0  0  0  0  0  0  0  0  0
    4.2008   -3.0183   -1.2307 H   0  0  0  0  0  0  0  0  0  0  0  0
    2.6672   -1.7312   -0.2011 C   0  0  0  0  0  0  0  0  0  0  0  0
    2.6805   -2.1608    1.2047 C   0  0  0  0  0  0  0  0  0  0  0  0
    3.0776   -3.4810    1.5243 C   0  0  0  0  0  0  0  0  0  0  0  0
    3.3504   -4.1739    0.7146 H   0  0  0  0  0  0  0  0  0  0  0  0
    3.0986   -3.9212    2.8529 C   0  0  0  0  0  0  0  0  0  0  0  0
    3.4048   -4.9537    3.0799 H   0  0  0  0  0  0  0  0  0  0  0  0
    2.7170   -3.0541    3.8900 C   0  0  0  0  0  0  0  0  0  0  0  0
    2.7271   -3.4011    4.9343 H   0  0  0  0  0  0  0  0  0  0  0  0
    2.3167   -1.7444    3.5855 C   0  0  0  0  0  0  0  0  0  0  0  0
    2.0052   -1.0557    4.3842 H   0  0  0  0  0  0  0  0  0  0  0  0
    2.3020   -1.2985    2.2573 C   0  0  0  0  0  0  0  0  0  0  0  0
    2.0056   -0.2604    2.0459 H   0  0  0  0  0  0  0  0  0  0  0  0
   -1.1264    0.1955   -3.7137 C   0  0  0  0  0  3  0  0  0  0  0  0
   -0.8204   -0.0356   -4.7390 H   0  0  0  0  0  0  0  0  0  0  0  0
   -2.3875    0.4213   -3.1574 C   0  0  0  0  0  0  0  0  0  0  0  0
   -3.3544    0.4212   -3.6687 H   0  0  0  0  0  0  0  0  0  0  0  0
   -2.1396    0.7147   -1.7971 C   0  0  0  0  0  0  0  0  0  0  0  0
   -3.1078    1.0989   -0.7610 C   0  0  0  0  0  0  0  0  0  0  0  0
   -4.4334    0.6098   -0.8023 C   0  0  0  0  0  0  0  0  0  0  0  0
   -4.7227   -0.0920   -1.5988 H   0  0  0  0  0  0  0  0  0  0  0  0
   -5.3686    0.9962    0.1654 C   0  0  0  0  0  0  0  0  0  0  0  0
   -6.3949    0.6008    0.1212 H   0  0  0  0  0  0  0  0  0  0  0  0
   -4.9968    1.8758    1.1955 C   0  0  0  0  0  0  0  0  0  0  0  0
   -5.7300    2.1747    1.9599 H   0  0  0  0  0  0  0  0  0  0  0  0
   -3.6866    2.3776    1.2389 C   0  0  0  0  0  0  0  0  0  0  0  0
   -3.3853    3.0762    2.0337 H   0  0  0  0  0  0  0  0  0  0  0  0
   -2.7531    2.0023    0.2645 C   0  0  0  0  0  0  0  0  0  0  0  0
   -1.7418    2.4318    0.2777 H   0  0  0  0  0  0  0  0  0  0  0  0
    1.7142    1.5370   -2.5592 H   0  0  0  0  0  0  0  0  0  0  0  0
    1.6280    0.1629   -4.0765 H   0  0  0  0  0  0  0  0  0  0  0  0
  1  4  1  0  0  0  0
  1 38  1  0  0  0  0
  1  2  1  0  0  0  0
  2  3  1  0  0  0  0
  3 10  1  0  0  0  0
  4  5  1  0  0  0  0
  6  2  1  0  0  0  0
  6  8  1  0  0  0  0
  7  6  1  0  0  0  0
  8  9  1  0  0  0  0
  8 10  2  0  0  0  0
 10 11  1  0  0  0  0
 11 12  2  0  0  0  0
 11 20  1  0  0  0  0
 12 14  1  0  0  0  0
 13 12  1  0  0  0  0
 14 15  1  0  0  0  0
 14 16  2  0  0  0  0
 16 17  1  0  0  0  0
 18 16  1  0  0  0  0
 18 19  1  0  0  0  0
 20 18  2  0  0  0  0
 21 20  1  0  0  0  0
 22 24  1  0  0  0  0
 22  4  1  0  0  0  0
 23 22  1  0  0  0  0
 24 26  2  0  0  0  0
 25 24  1  0  0  0  0
 26  5  1  0  0  0  0
 26 27  1  0  0  0  0
 27 36  1  0  0  0  0
 28 27  2  0  0  0  0
 28 30  1  0  0  0  0
 29 28  1  0  0  0  0
 30 32  2  0  0  0  0
 31 30  1  0  0  0  0
 32 34  1  0  0  0  0
 32 33  1  0  0  0  0
 34 35  1  0  0  0  0
 36 37  1  0  0  0  0
 36 34  2  0  0  0  0
 39  1  1  0  0  0  0
M  END
