1,6
q = 0.0, confidence = 0.986

 39 42  0  0  0  0  0  0  0  0999 V2000
    0.5823   -1.4217   -0.8969 N   0  0  0  0  0  2  0  0  0  0  0  0
    0.7486   -2.6725   -1.3512 C   0  0  0  0  0  3  0  0  0  0  0  0
   -0.5099   -3.2962   -1.5059 C   0  0  0  0  0  0  0  0  0  0  0  0
   -1.4468   -2.3442   -1.1211 C   0  0  0  0  0  0  0  0  0  0  0  0
   -0.7537   -1.2080   -0.7806 N   0  0  0  0  0  0  0  0  0  0  0  0
    0.5822    1.4199   -0.8996 N   0  0  0  0  0  2  0  0  0  0  0  0
    0.7485    2.6699   -1.3560 C   0  0  0  0  0  3  0  0  0  0  0  0
   -0.5100    3.2933   -1.5118 C   0  0  0  0  0  0  0  0  0  0  0  0
   -1.4469    2.3420   -1.1253 C   0  0  0  0  0  0  0  0  0  0  0  0
   -0.7538    1.2064   -0.7829 N   0  0  0  0  0  0  0  0  0  0  0  0
   -1.2451   -0.0002   -0.0711 C   0  0  0  0  0  0  0  0  0  0  0  0
   -0.6958    0.0013    1.3640 C   0  0  0  0  0  0  0  0  0  0  0  0
   -0.4720    1.2177    2.0340 C   0  0  0  0  0  0  0  0  0  0  0  0
   -0.0132    1.2167    3.3581 C   0  0  0  0  0  0  0  0  0  0  0  0
    0.2203    0.0040    4.0239 C   0  0  0  0  0  0  0  0  0  0  0  0
   -0.0133   -1.2100    3.3607 C   0  0  0  0  0  0  0  0  0  0  0  0
   -0.4721   -1.2137    2.0366 C   0  0  0  0  0  0  0  0  0  0  0  0
   -2.7791   -0.0002   -0.1321 C   0  0  0  0  0  0  0  0  0  0  0  0
   -3.5558    0.0009    1.0383 C   0  0  0  0  0  0  0  0  0  0  0  0
   -4.9578    0.0008    0.9546 C   0  0  0  0  0  0  0  0  0  0  0  0
   -5.5928   -0.0003   -0.2951 C   0  0  0  0  0  0  0  0  0  0  0  0
   -4.8207   -0.0013   -1.4696 C   0  0  0  0  0  0  0  0  0  0  0  0
   -3.4225   -0.0013   -1.3901 C   0  0  0  0  0  0  0  0  0  0  0  0
    1.7738   -3.0330   -1.5012 H   0  0  0  0  0  0  0  0  0  0  0  0
   -0.7128   -4.3133   -1.8546 H   0  0  0  0  0  0  0  0  0  0  0  0
   -2.5364   -2.3862   -1.0565 H   0  0  0  0  0  0  0  0  0  0  0  0
    1.7737    3.0302   -1.5067 H   0  0  0  0  0  0  0  0  0  0  0  0
   -0.7130    4.3098   -1.8623 H   0  0  0  0  0  0  0  0  0  0  0  0
   -2.5365    2.3841   -1.0607 H   0  0  0  0  0  0  0  0  0  0  0  0
   -0.6316    2.1743    1.5155 H   0  0  0  0  0  0  0  0  0  0  0  0
    0.1806    2.1734    3.8651 H   0  0  0  0  0  0  0  0  0  0  0  0
    0.5976    0.0051    5.0573 H   0  0  0  0  0  0  0  0  0  0  0  0
    0.1805   -2.1656    3.8697 H   0  0  0  0  0  0  0  0  0  0  0  0
   -0.6317   -2.1714    1.5201 H   0  0  0  0  0  0  0  0  0  0  0  0
   -3.0606    0.0017    2.0189 H   0  0  0  0  0  0  0  0  0  0  0  0
   -5.5551    0.0017    1.8785 H   0  0  0  0  0  0  0  0  0  0  0  0
   -6.6914   -0.0003   -0.3575 H   0  0  0  0  0  0  0  0  0  0  0  0
   -5.3107   -0.0022   -2.4547 H   0  0  0  0  0  0  0  0  0  0  0  0
   -2.8222   -0.0021   -2.3123 H   0  0  0  0  0  0  0  0  0  0  0  0
  1  5  1  0  0  0  0
  2  1  1  0  0  0  0
  3  2  1  0  0  0  0
  3  4  2  0  0  0  0
  4 26  1  0  0  0  0
  4  5  1  0  0  0  0
  5 11  1  0  0  0  0
  6 10  1  0  0  0  0
  7  6  1  0  0  0  0
  8  7  1  0  0  0  0
  8  9  2  0  0  0  0
  9 29  1  0  0  0  0
  9 10  1  0  0  0  0
 10 11  1  0  0  0  0
 11 12  1  0  0  0  0
 12 13  2  0  0  0  0
 12 17  1  0  0  0  0
 13 14  1  0  0  0  0
 14 31  1  0  0  0  0
 14 15  2  0  0  0  0
 15 32  1  0  0  0  0
 16 33  1  0  0  0  0
 16 15  1  0  0  0  0
 17 16  2  0  0  0  0
 18 11  1  0  0  0  0
 18 19  1  0  0  0  0
 19 35  1  0  0  0  0
 20 19  2  0  0  0  0
 20 36  1  0  0  0  0
 21 20  1  0  0  0  0
 22 23  1  0  0  0  0
 22 21  2  0  0  0  0
 23 18  2  0  0  0  0
 24  2  1  0  0  0  0
 25  3  1  0  0  0  0
 27  7  1  0  0  0  0
 28  8  1  0  0  0  0
 30 13  1  0  0  0  0
 34 17  1  0  0  0  0
 37 21  1  0  0  0  0
 38 22  1  0  0  0  0
 39 23  1  0  0  0  0
M  END
