1,3
q = -1.0, confidence = 0.062

 31 30  0  0  0  0  0  0  0  0999 V2000
    1.4808    0.0481   -1.2435 N   0  0  0  0  0  2  0  0  0  0  0  0
    2.5433   -0.0000   -0.0000 P   0  0  0  0  0  4  0  0  0  0  0  0
    1.4808   -0.0487    1.2435 N   0  0  0  0  0  2  0  0  0  0  0  0
    1.5664    0.6476    2.5075 C   0  0  0  0  0  0  0  0  0  0  0  0
    2.6019    0.9809    2.7512 H   0  0  0  0  0  0  0  0  0  0  0  0
    1.2428   -0.0056    3.3484 H   0  0  0  0  0  0  0  0  0  0  0  0
    0.9141    1.5516    2.5398 H   0  0  0  0  0  0  0  0  0  0  0  0
    3.6502    1.4983    0.0000 C   0  0  0  0  0  0  0  0  0  0  0  0
    2.7635    2.7492   -0.0491 C   0  0  0  0  0  0  0  0  0  0  0  0
    3.3877    3.6649   -0.1066 H   0  0  0  0  0  0  0  0  0  0  0  0
    2.1101    2.8299    0.8405 H   0  0  0  0  0  0  0  0  0  0  0  0
    2.1049    2.7077   -0.9402 H   0  0  0  0  0  0  0  0  0  0  0  0
    4.6308    1.4459   -1.1789 C   0  0  0  0  0  0  0  0  0  0  0  0
    5.2327    2.3774   -1.2252 H   0  0  0  0  0  0  0  0  0  0  0  0
    4.0798    1.3592   -2.1388 H   0  0  0  0  0  0  0  0  0  0  0  0
    5.3383    0.5954   -1.1108 H   0  0  0  0  0  0  0  0  0  0  0  0
    4.2187    1.4804    0.9569 H   0  0  0  0  0  0  0  0  0  0  0  0
    3.6511   -1.4976    0.0000 C   0  0  0  0  0  0  0  0  0  0  0  0
    2.7652   -2.7491    0.0490 C   0  0  0  0  0  0  0  0  0  0  0  0
    3.3899   -3.6644    0.1067 H   0  0  0  0  0  0  0  0  0  0  0  0
    2.1121   -2.8303   -0.8409 H   0  0  0  0  0  0  0  0  0  0  0  0
    2.1063   -2.7080    0.9398 H   0  0  0  0  0  0  0  0  0  0  0  0
    4.6315   -1.4446    1.1791 C   0  0  0  0  0  0  0  0  0  0  0  0
    5.2340   -2.3757    1.2254 H   0  0  0  0  0  0  0  0  0  0  0  0
    4.0803   -1.3584    2.1389 H   0  0  0  0  0  0  0  0  0  0  0  0
    5.3384   -0.5937    1.1112 H   0  0  0  0  0  0  0  0  0  0  0  0
    4.2197   -1.4794   -0.9568 H   0  0  0  0  0  0  0  0  0  0  0  0
    1.5664   -0.6481   -2.5076 C   0  0  0  0  0  0  0  0  0  0  0  0
    2.6018   -0.9811   -2.7515 H   0  0  0  0  0  0  0  0  0  0  0  0
    1.2425    0.0052   -3.3484 H   0  0  0  0  0  0  0  0  0  0  0  0
    0.9142   -1.5521   -2.5399 H   0  0  0  0  0  0  0  0  0  0  0  0
  1  2  1  0  0  0  0
  2 18  1  0  0  0  0
  2  8  1  0  0  0  0
  2  3  1  0  0  0  0
  3  4  1  0  0  0  0
  4  7  1  0  0  0  0
  4  5  1  0  0  0  0
  4  6  1  0  0  0  0
  8 17  1  0  0  0  0
  9  8  1  0  0  0  0
  9 11  1  0  0  0  0
 10  9  1  0  0  0  0
 12  9  1  0  0  0  0
 13 16  1  0  0  0  0
 13  8  1  0  0  0  0
 14 13  1  0  0  0  0
 15 13  1  0  0  0  0
 18 19  1  0  0  0  0
 18 23  1  0  0  0  0
 19 20  1  0  0  0  0
 19 22  1  0  0  0  0
 21 19  1  0  0  0  0
 23 24  1  0  0  0  0
 23 25  1  0  0  0  0
 26 23  1  0  0  0  0
 27 18  1  0  0  0  0
 28  1  1  0  0  0  0
 29 28  1  0  0  0  0
 30 28  1  0  0  0  0
 31 28  1  0  0  0  0
M  END
