5,24
q = 0.0, confidence = 0.99

 35 36  0  0  0  0  0  0  0  0999 V2000
   -3.7003    2.4334    1.5452 C   0  0  0  0  0  0  0  0  0  0  0  0
   -4.6635    2.5257    2.0666 H   0  0  0  0  0  0  0  0  0  0  0  0
    1.2379    0.2093   -1.4090 N   0  0  0  0  0  2  0  0  0  0  0  0
    1.8053    1.4231   -1.5246 N   0  0  0  0  0  0  0  0  0  0  0  0
    0.1077    0.4051   -0.7738 N   0  0  0  0  0  2  0  0  0  0  0  0
    3.1467    1.5334   -2.0961 C   0  0  0  0  0  0  0  0  0  0  0  0
    3.1820    2.4776   -2.6745 H   0  0  0  0  0  0  0  0  0  0  0  0
    3.2400    0.6892   -2.8061 H   0  0  0  0  0  0  0  0  0  0  0  0
   -3.2701    1.1704    1.1330 C   0  0  0  0  0  3  0  0  0  0  0  0
   -3.8397    0.2394    1.2985 H   0  0  0  0  0  0  0  0  0  0  0  0
   -1.6826    3.3790    0.6201 C   0  0  0  0  0  0  0  0  0  0  0  0
   -1.0237    4.2302    0.3971 H   0  0  0  0  0  0  0  0  0  0  0  0
   -1.2994    2.0873    0.2281 C   0  0  0  0  0  0  0  0  0  0  0  0
    1.0467    2.4060   -0.9591 C   0  0  0  0  0  0  0  0  0  0  0  0
    1.3493    3.4568   -0.9538 H   0  0  0  0  0  0  0  0  0  0  0  0
   -2.8990    3.5590    1.2879 C   0  0  0  0  0  0  0  0  0  0  0  0
   -3.2179    4.5630    1.6031 H   0  0  0  0  0  0  0  0  0  0  0  0
    4.3131    0.1794   -0.2426 C   0  0  0  0  0  0  0  0  0  0  0  0
    4.4401   -0.6706   -0.9488 H   0  0  0  0  0  0  0  0  0  0  0  0
    3.3390   -0.0053    0.2600 H   0  0  0  0  0  0  0  0  0  0  0  0
    4.2504    1.4879   -1.0338 C   0  0  0  0  0  0  0  0  0  0  0  0
    4.1243    2.3495   -0.3407 H   0  0  0  0  0  0  0  0  0  0  0  0
    5.2144    1.6612   -1.5597 H   0  0  0  0  0  0  0  0  0  0  0  0
   -2.0934    0.9917    0.4861 N   0  0  0  0  0  2  0  0  0  0  0  0
    5.4335    0.1577    0.8000 C   0  0  0  0  0  0  0  0  0  0  0  0
    6.4126    0.3341    0.2986 H   0  0  0  0  0  0  0  0  0  0  0  0
    5.3006    1.0121    1.5027 H   0  0  0  0  0  0  0  0  0  0  0  0
   -0.0734    1.7450   -0.4681 C   0  0  0  0  0  0  0  0  0  0  0  0
    5.4988   -1.1482    1.5979 C   0  0  0  0  0  0  0  0  0  0  0  0
    5.6298   -1.9982    0.8924 H   0  0  0  0  0  0  0  0  0  0  0  0
    4.5168   -1.3215    2.0908 H   0  0  0  0  0  0  0  0  0  0  0  0
    6.6141   -1.1667    2.6430 C   0  0  0  0  0  0  0  0  0  0  0  0
    7.6112   -1.0330    2.1733 H   0  0  0  0  0  0  0  0  0  0  0  0
    6.6345   -2.1234    3.2023 H   0  0  0  0  0  0  0  0  0  0  0  0
    6.4873   -0.3497    3.3841 H   0  0  0  0  0  0  0  0  0  0  0  0
  1  2  1  0  0  0  0
  3  5  1  0  0  0  0
  4  3  1  0  0  0  0
  4 14  1  0  0  0  0
  5 28  1  0  0  0  0
  6  4  1  0  0  0  0
  6 21  1  0  0  0  0
  7  6  1  0  0  0  0
  8  6  1  0  0  0  0
  9 10  1  0  0  0  0
  9  1  1  0  0  0  0
 11 16  1  0  0  0  0
 12 11  1  0  0  0  0
 13 24  1  0  0  0  0
 13 11  2  0  0  0  0
 14 15  1  0  0  0  0
 14 28  2  0  0  0  0
 16  1  2  0  0  0  0
 16 17  1  0  0  0  0
 18 20  1  0  0  0  0
 18 25  1  0  0  0  0
 19 18  1  0  0  0  0
 21 22  1  0  0  0  0
 21 18  1  0  0  0  0
 23 21  1  0  0  0  0
 24  9  1  0  0  0  0
 25 27  1  0  0  0  0
 25 29  1  0  0  0  0
 26 25  1  0  0  0  0
 28 13  1  0  0  0  0
 29 31  1  0  0  0  0
 29 32  1  0  0  0  0
 30 29  1  0  0  0  0
 32 34  1  0  0  0  0
 32 35  1  0  0  0  0
 33 32  1  0  0  0  0
M  END
