1,2
q = -1.0

 20 20  0  0  0  0  0  0  0  0999 V2000
    1.2419   -1.3216   -1.1580 N   0  0  0  0  0  0  0  0  0  0  0  0
    0.4764   -2.0765    1.5320 N   0  0  0  0  0  0  0  0  0  0  0  0
    2.0655   -1.0966   -2.2522 C   0  0  0  0  0  0  0  0  0  0  0  0
    1.9480   -0.1897   -2.8577 H   0  0  0  0  0  0  0  0  0  0  0  0
    2.9775   -2.1396   -2.3863 C   0  0  0  0  0  0  0  0  0  0  0  0
    3.7508   -2.2313   -3.1585 H   0  0  0  0  0  0  0  0  0  0  0  0
    2.7076   -3.0608   -1.3251 C   0  0  0  0  0  0  0  0  0  0  0  0
    3.2181   -4.0110   -1.1246 H   0  0  0  0  0  0  0  0  0  0  0  0
    1.6397   -2.5338   -0.6010 C   0  0  0  0  0  3  0  0  0  0  0  0
    0.8391   -3.1072    0.5201 C   0  0  0  0  0  0  0  0  0  0  0  0
    1.3876   -3.9499    1.0043 H   0  0  0  0  0  0  0  0  0  0  0  0
   -0.1186   -3.5271    0.1464 H   0  0  0  0  0  0  0  0  0  0  0  0
    1.6355   -1.8182    2.3994 C   0  0  0  0  0  0  0  0  0  0  0  0
    1.9225   -2.7379    2.9647 H   0  0  0  0  0  0  0  0  0  0  0  0
    1.3989   -1.0185    3.1247 H   0  0  0  0  0  0  0  0  0  0  0  0
    2.4954   -1.4957    1.7865 H   0  0  0  0  0  0  0  0  0  0  0  0
   -0.6449   -2.5727    2.3449 C   0  0  0  0  0  0  0  0  0  0  0  0
   -1.5497   -2.6814    1.7159 H   0  0  0  0  0  0  0  0  0  0  0  0
   -0.8548   -1.8624    3.1653 H   0  0  0  0  0  0  0  0  0  0  0  0
   -0.4004   -3.5596    2.8061 H   0  0  0  0  0  0  0  0  0  0  0  0
  1  9  1  0  0  0  0
  2 17  1  0  0  0  0
  2 13  1  0  0  0  0
  3  1  2  0  0  0  0
  4  3  1  0  0  0  0
  5  3  1  0  0  0  0
  5  7  2  0  0  0  0
  6  5  1  0  0  0  0
  7  8  1  0  0  0  0
  7  9  1  0  0  0  0
  9 10  1  0  0  0  0
 10 11  1  0  0  0  0
 10  2  1  0  0  0  0
 12 10  1  0  0  0  0
 13 14  1  0  0  0  0
 13 15  1  0  0  0  0
 16 13  1  0  0  0  0
 17 20  1  0  0  0  0
 17 19  1  0  0  0  0
 18 17  1  0  0  0  0
M  END
