2,3
q = 0.0, confidence = 0.938

 27 28  0  0  1  0  0  0  0  0999 V2000
    3.8212    5.1080   -0.3030 O   0  0  0  0  0  0  0  0  0  0  0  0
   -1.0286   -1.2664   -1.2403 N   0  0  0  0  0  2  0  0  0  0  0  0
    0.7276    0.4597   -0.8252 N   0  0  0  0  0  2  0  0  0  0  0  0
    0.8523   -0.1114   -2.0273 N   0  0  0  0  0  2  0  0  0  0  0  0
    1.1332    2.6159    0.2797 C   0  0  0  0  0  0  0  0  0  0  0  0
    0.2471    2.4652    0.9042 H   0  0  0  0  0  0  0  0  0  0  0  0
    1.8888    3.7854    0.4349 C   0  0  0  0  0  0  0  0  0  0  0  0
    1.5829    4.5129    1.1983 H   0  0  0  0  0  0  0  0  0  0  0  0
    1.4723    1.6591   -0.6966 C   0  0  0  0  0  0  0  0  0  0  0  0
    3.0129    4.0153   -0.3851 C   0  0  0  0  0  0  0  0  0  0  0  0
   -0.0697   -1.0811   -2.2235 C   0  0  2  0  0  3  0  0  0  0  0  0
   -2.0802   -2.0742   -1.4914 C   0  0  0  0  0  0  0  0  0  0  0  0
   -2.8277   -2.1604   -0.6884 H   0  0  0  0  0  0  0  0  0  0  0  0
    3.3479    3.0648   -1.3767 C   0  0  0  0  0  0  0  0  0  0  0  0
    4.2231    3.2633   -2.0129 H   0  0  0  0  0  0  0  0  0  0  0  0
   -2.2164   -2.7845   -2.6844 C   0  0  0  0  0  0  0  0  0  0  0  0
   -3.0908   -3.4316   -2.8365 H   0  0  0  0  0  0  0  0  0  0  0  0
    2.5847    1.9123   -1.5398 C   0  0  0  0  0  0  0  0  0  0  0  0
    2.8281    1.1684   -2.3086 H   0  0  0  0  0  0  0  0  0  0  0  0
   -1.1989   -2.6737   -3.6608 C   0  0  0  0  0  0  0  0  0  0  0  0
   -1.2607   -3.2507   -4.5958 H   0  0  0  0  0  0  0  0  0  0  0  0
   -0.1207   -1.8268   -3.4320 C   0  0  0  0  0  0  0  0  0  0  0  0
    0.6938   -1.6918   -4.1560 H   0  0  0  0  0  0  0  0  0  0  0  0
    3.5222    6.0903    0.6695 C   0  0  0  0  0  0  0  0  0  0  0  0
    4.2935    6.8766    0.5697 H   0  0  0  0  0  0  0  0  0  0  0  0
    3.5584    5.6770    1.7028 H   0  0  0  0  0  0  0  0  0  0  0  0
    2.5193    6.5455    0.5061 H   0  0  0  0  0  0  0  0  0  0  0  0
  1 24  1  0  0  0  0
  3  9  1  0  0  0  0
  4  3  1  0  0  0  0
  5  7  1  0  0  0  0
  5  6  1  0  0  0  0
  7  8  1  0  0  0  0
  9  5  2  0  0  0  0
 10  1  1  0  0  0  0
 10  7  2  0  0  0  0
 11  4  1  6  0  0  0
 11  2  1  0  0  0  0
 12  2  1  0  0  0  0
 12 13  1  0  0  0  0
 14 10  1  0  0  0  0
 15 14  1  0  0  0  0
 16 12  2  0  0  0  0
 17 16  1  0  0  0  0
 18 14  2  0  0  0  0
 18  9  1  0  0  0  0
 19 18  1  0  0  0  0
 20 22  2  0  0  0  0
 20 16  1  0  0  0  0
 21 20  1  0  0  0  0
 22 11  1  0  0  0  0
 23 22  1  0  0  0  0
 24 26  1  0  0  0  0
 25 24  1  0  0  0  0
 27 24  1  0  0  0  0
M  END
